# Generated by pormake.
# Topology wfa, (4)-cn, num edge types: 1
# Building blocks:
#     Node 0, Type 0, BuildingBlock: CEKHIL_clean_sbu_0, # of connection points: 4
#     Node 1, Type 0, BuildingBlock: CEKHIL_clean_sbu_0, # of connection points: 4
#     Node 2, Type 0, BuildingBlock: CEKHIL_clean_sbu_0, # of connection points: 4
#     Node 3, Type 0, BuildingBlock: CEKHIL_clean_sbu_0, # of connection points: 4
#     Node 4, Type 0, BuildingBlock: CEKHIL_clean_sbu_0, # of connection points: 4
#     Node 5, Type 0, BuildingBlock: CEKHIL_clean_sbu_0, # of connection points: 4
#     Node 6, Type 0, BuildingBlock: CEKHIL_clean_sbu_0, # of connection points: 4
#     Node 7, Type 0, BuildingBlock: CEKHIL_clean_sbu_0, # of connection points: 4
#     Node 8, Type 0, BuildingBlock: CEKHIL_clean_sbu_0, # of connection points: 4
#     Node 9, Type 0, BuildingBlock: CEKHIL_clean_sbu_0, # of connection points: 4
#     Node 10, Type 0, BuildingBlock: CEKHIL_clean_sbu_0, # of connection points: 4
#     Node 11, Type 0, BuildingBlock: CEKHIL_clean_sbu_0, # of connection points: 4
#     Node 12, Type 0, BuildingBlock: CEKHIL_clean_sbu_0, # of connection points: 4
#     Node 13, Type 0, BuildingBlock: CEKHIL_clean_sbu_0, # of connection points: 4
#     Node 14, Type 0, BuildingBlock: CEKHIL_clean_sbu_0, # of connection points: 4
#     Node 15, Type 0, BuildingBlock: CEKHIL_clean_sbu_0, # of connection points: 4
#     Edge 16, Type (0, 0), None
#     Edge 17, Type (0, 0), None
#     Edge 18, Type (0, 0), None
#     Edge 19, Type (0, 0), None
#     Edge 20, Type (0, 0), None
#     Edge 21, Type (0, 0), None
#     Edge 22, Type (0, 0), None
#     Edge 23, Type (0, 0), None
#     Edge 24, Type (0, 0), None
#     Edge 25, Type (0, 0), None
#     Edge 26, Type (0, 0), None
#     Edge 27, Type (0, 0), None
#     Edge 28, Type (0, 0), None
#     Edge 29, Type (0, 0), None
#     Edge 30, Type (0, 0), None
#     Edge 31, Type (0, 0), None
#     Edge 32, Type (0, 0), None
#     Edge 33, Type (0, 0), None
#     Edge 34, Type (0, 0), None
#     Edge 35, Type (0, 0), None
#     Edge 36, Type (0, 0), None
#     Edge 37, Type (0, 0), None
#     Edge 38, Type (0, 0), None
#     Edge 39, Type (0, 0), None
#     Edge 40, Type (0, 0), None
#     Edge 41, Type (0, 0), None
#     Edge 42, Type (0, 0), None
#     Edge 43, Type (0, 0), None
#     Edge 44, Type (0, 0), None
#     Edge 45, Type (0, 0), None
#     Edge 46, Type (0, 0), None
#     Edge 47, Type (0, 0), None
# Relax obj value: 0.225
# Max RMSD: 0.290
# Mean RMSD: 0.278
data_MOF--net-wfa--node1-CEKHIL_clean_sbu_0--edge1-none
_symmetry_space_group_name_H-M    P1
_symmetry_Int_Tables_number       1
_symmetry_cell_setting            triclinic
loop_
_symmetry_equiv_pos_as_xyz
'x, y, z'
_cell_length_a     20.136677
_cell_length_b     20.115397
_cell_length_c     10.196232
_cell_angle_alpha  89.591116
_cell_angle_beta   89.585964
_cell_angle_gamma 89.544896
loop_
_atom_site_label
_atom_site_type_symbol
_atom_site_fract_x
_atom_site_fract_y
_atom_site_fract_z
_atom_type_partial_charge
Co0 Co 0.6507 0.00775 1.00319 0.0
O1 O 0.6759 0.93379 0.89039 0.0
O2 O 0.71182 0.03659 0.86777 0.0
C3 C 0.53717 0.99744 1.01024 0.0
O4 O 0.6337 0.09352 0.10104 0.0
Co5 Co 0.5958 0.96866 0.27849 0.0
O6 O 0.64908 0.05229 0.29803 0.0
C7 C 0.73634 0.95659 0.23666 0.0
C8 C 0.7123 0.97567 0.8255 0.0
C9 C 0.63055 0.09996 0.22617 0.0
O10 O 0.72897 0.9886 0.12719 0.0
O11 O 0.68728 0.92992 0.29628 0.0
O12 O 0.56654 0.02388 0.90922 0.0
O13 O 0.57731 0.96702 0.09037 0.0
Co14 Co 0.51209 0.6511 1.02009 0.0
O15 O 0.57968 0.67419 0.88974 0.0
O16 O 0.48089 0.72183 0.90657 0.0
C17 C 0.50996 0.5368 1.00932 0.0
O18 O 0.43387 0.63912 0.14175 0.0
Co19 Co 0.56724 0.58098 0.26567 0.0
O20 O 0.4791 0.60908 0.33467 0.0
C21 C 0.55822 0.72527 0.26825 0.0
C22 C 0.53856 0.71933 0.84809 0.0
C23 C 0.42945 0.62605 0.2653 0.0
O24 O 0.54327 0.72368 0.14552 0.0
O25 O 0.5731 0.67323 0.33397 0.0
O26 O 0.48086 0.57296 0.92075 0.0
O27 O 0.55137 0.56996 0.08039 0.0
Co28 Co 0.85159 0.50967 1.01448 0.0
O29 O 0.82862 0.57473 0.87925 0.0
O30 O 0.78504 0.47478 0.89912 0.0
C31 C 0.96517 0.50979 1.00744 0.0
O32 O 0.86417 0.43387 0.14149 0.0
Co33 Co 0.9157 0.57114 0.25895 0.0
O34 O 0.89242 0.48238 0.33145 0.0
C35 C 0.7721 0.55958 0.25704 0.0
C36 C 0.78704 0.53134 0.83629 0.0
C37 C 0.87659 0.43158 0.26516 0.0
O38 O 0.77627 0.54073 0.13644 0.0
O39 O 0.82206 0.57961 0.32134 0.0
O40 O 0.93179 0.47861 0.91932 0.0
O41 O 0.92962 0.55166 0.07523 0.0
Co42 Co 0.99408 0.85285 1.01164 0.0
O43 O 0.92838 0.83031 0.88018 0.0
O44 O 0.02896 0.78655 0.89275 0.0
C45 C 0.99196 0.96609 1.00616 0.0
O46 O 0.07025 0.86592 0.13562 0.0
Co47 Co 0.93128 0.9162 0.25875 0.0
O48 O 0.02052 0.89284 0.32718 0.0
C49 C 0.94436 0.77266 0.25448 0.0
C50 C 0.97185 0.78896 0.83342 0.0
C51 C 0.07187 0.87809 0.25952 0.0
O52 O 0.96524 0.77726 0.13478 0.0
O53 O 0.92207 0.8223 0.31859 0.0
O54 O 0.02306 0.93327 0.91554 0.0
O55 O 0.95103 0.93028 0.07514 0.0
Co56 Co 0.15015 0.99504 0.53978 0.0
O57 O 0.17432 0.06717 0.65653 0.0
O58 O 0.21156 0.96415 0.67266 0.0
C59 C 0.0368 0.00544 0.53409 0.0
O60 O 0.13418 0.91116 0.43593 0.0
Co61 Co 0.09589 0.03918 0.26775 0.0
O62 O 0.14858 0.95499 0.23956 0.0
C63 C 0.23597 0.04876 0.3084 0.0
C64 C 0.21137 0.02448 0.71821 0.0
C65 C 0.13204 0.90613 0.31032 0.0
O66 O 0.22836 0.01535 0.41603 0.0
O67 O 0.18716 0.07744 0.25171 0.0
O68 O 0.06589 0.97783 0.63392 0.0
O69 O 0.07685 0.03729 0.45592 0.0
Co70 Co 0.48848 0.15089 0.52394 0.0
O71 O 0.42242 0.17482 0.65711 0.0
O72 O 0.52101 0.22088 0.63454 0.0
C73 C 0.49091 0.03664 0.53516 0.0
O74 O 0.56533 0.13842 0.39928 0.0
Co75 Co 0.43057 0.08187 0.28121 0.0
O76 O 0.51841 0.10801 0.2093 0.0
C77 C 0.44075 0.22608 0.27606 0.0
C78 C 0.46401 0.21941 0.69556 0.0
C79 C 0.56842 0.12551 0.27594 0.0
O80 O 0.4559 0.2241 0.39871 0.0
O81 O 0.42514 0.17451 0.2117 0.0
O82 O 0.52083 0.07179 0.62261 0.0
O83 O 0.44863 0.07077 0.46591 0.0
Co84 Co 0.34924 0.50337 0.53268 0.0
O85 O 0.32524 0.42754 0.64356 0.0
O86 O 0.28386 0.52879 0.66341 0.0
C87 C 0.4639 0.49647 0.53111 0.0
O88 O 0.36347 0.59084 0.43687 0.0
Co89 Co 0.40973 0.47 0.25999 0.0
O90 O 0.35192 0.55152 0.23883 0.0
C91 C 0.26914 0.45221 0.29448 0.0
C92 C 0.28468 0.46736 0.70433 0.0
C93 C 0.36756 0.59889 0.31201 0.0
O94 O 0.27363 0.48276 0.40503 0.0
O95 O 0.32025 0.42981 0.23418 0.0
O96 O 0.43185 0.52108 0.63074 0.0
O97 O 0.42602 0.46584 0.44886 0.0
Co98 Co 0.99789 0.3503 0.5351 0.0
O99 O 0.07308 0.32473 0.64461 0.0
O100 O 0.97145 0.28598 0.66713 0.0
C101 C 0.0056 0.46452 0.53211 0.0
O102 O 0.91121 0.36708 0.44 0.0
Co103 Co 0.03358 0.40909 0.26135 0.0
O104 O 0.95172 0.35321 0.24207 0.0
C105 C 0.04865 0.26788 0.29686 0.0
C106 C 0.03276 0.28546 0.70681 0.0
C107 C 0.904 0.37017 0.31505 0.0
O108 O 0.01781 0.27364 0.4078 0.0
O109 O 0.07233 0.31814 0.23604 0.0
O110 O 0.98082 0.43346 0.63297 0.0
O111 O 0.03637 0.42573 0.44996 0.0
Co112 Co 0.3505 0.99451 0.04001 0.0
O113 O 0.32532 0.06849 0.1528 0.0
O114 O 0.28938 0.96567 0.17542 0.0
C115 C 0.46403 0.00478 0.03294 0.0
O116 O 0.36747 0.90872 0.94219 0.0
Co117 Co 0.40542 0.03355 0.76468 0.0
O118 O 0.35209 0.94996 0.74522 0.0
C119 C 0.26489 0.04572 0.80658 0.0
C120 C 0.28889 0.02661 0.21764 0.0
C121 C 0.37062 0.90227 0.81707 0.0
O122 O 0.27223 0.01369 0.91601 0.0
O123 O 0.31395 0.07228 0.74676 0.0
O124 O 0.43466 0.97836 0.13397 0.0
O125 O 0.42389 0.03521 0.9528 0.0
Co126 Co 0.4892 0.35118 0.02315 0.0
O127 O 0.42161 0.3281 0.15351 0.0
O128 O 0.52041 0.28045 0.13664 0.0
C129 C 0.49136 0.46547 0.03387 0.0
O130 O 0.56742 0.36315 0.90149 0.0
Co131 Co 0.43407 0.42129 0.77754 0.0
O132 O 0.52218 0.39312 0.70854 0.0
C133 C 0.44295 0.27701 0.77506 0.0
C134 C 0.46273 0.28294 0.19509 0.0
C135 C 0.57184 0.37618 0.77792 0.0
O136 O 0.45802 0.2786 0.89773 0.0
O137 O 0.42811 0.32904 0.70929 0.0
O138 O 0.52044 0.42932 0.12248 0.0
O139 O 0.44993 0.43233 0.96283 0.0
Co140 Co 0.14965 0.49264 0.02867 0.0
O141 O 0.1726 0.42756 0.16387 0.0
O142 O 0.21618 0.52753 0.14405 0.0
C143 C 0.03608 0.49254 0.03564 0.0
O144 O 0.13708 0.56845 0.9017 0.0
Co145 Co 0.08558 0.43122 0.78412 0.0
O146 O 0.10892 0.51997 0.71166 0.0
C147 C 0.22917 0.44263 0.7862 0.0
C148 C 0.21419 0.47095 0.20681 0.0
C149 C 0.12471 0.57076 0.778 0.0
O150 O 0.22498 0.4616 0.90672 0.0
O151 O 0.17921 0.42263 0.72183 0.0
O152 O 0.06944 0.52369 0.12382 0.0
O153 O 0.07162 0.45066 0.96786 0.0
Co154 Co 0.00711 0.14945 0.03151 0.0
O155 O 0.07284 0.17197 0.16293 0.0
O156 O 0.97224 0.21573 0.15042 0.0
C157 C 0.0092 0.03622 0.03691 0.0
O158 O 0.93092 0.1364 0.90757 0.0
Co159 Co 0.06985 0.08613 0.78431 0.0
O160 O 0.98062 0.10956 0.71594 0.0
C161 C 0.05694 0.22966 0.78876 0.0
C162 C 0.02937 0.21333 0.20967 0.0
C163 C 0.92927 0.12428 0.78366 0.0
O164 O 0.03594 0.22504 0.90838 0.0
O165 O 0.07919 0.18003 0.72458 0.0
O166 O 0.97814 0.06902 0.1276 0.0
O167 O 0.05014 0.07202 0.96794 0.0
Co168 Co 0.85104 0.0073 0.50345 0.0
O169 O 0.82689 0.93514 0.38673 0.0
O170 O 0.78963 0.03818 0.37058 0.0
C171 C 0.96439 0.99695 0.50919 0.0
O172 O 0.86696 0.09121 0.60727 0.0
Co173 Co 0.90531 0.96322 0.77554 0.0
O174 O 0.85255 0.04738 0.80362 0.0
C175 C 0.76525 0.95351 0.73479 0.0
C176 C 0.78982 0.97784 0.32509 0.0
C177 C 0.8691 0.09624 0.73287 0.0
O178 O 0.77283 0.98696 0.6272 0.0
O179 O 0.81407 0.92494 0.79168 0.0
O180 O 0.9353 0.02454 0.40933 0.0
O181 O 0.92435 0.96509 0.58736 0.0
Co182 Co 0.51269 0.85139 0.5193 0.0
O183 O 0.57877 0.82747 0.38614 0.0
O184 O 0.48017 0.78141 0.40872 0.0
C185 C 0.51024 0.96564 0.50813 0.0
O186 O 0.43584 0.86386 0.64394 0.0
Co187 Co 0.57058 0.9204 0.76207 0.0
O188 O 0.48275 0.89419 0.83398 0.0
C189 C 0.56055 0.77619 0.76711 0.0
C190 C 0.53718 0.78287 0.34775 0.0
C191 C 0.43274 0.87672 0.7673 0.0
O192 O 0.54527 0.77818 0.64453 0.0
O193 O 0.57613 0.82775 0.83152 0.0
O194 O 0.48035 0.9305 0.42063 0.0
O195 O 0.55254 0.93152 0.57737 0.0
Co196 Co 0.65201 0.49886 0.5105 0.0
O197 O 0.67601 0.57469 0.3996 0.0
O198 O 0.71741 0.47342 0.37981 0.0
C199 C 0.53736 0.50573 0.51207 0.0
O200 O 0.63781 0.41139 0.60633 0.0
Co201 Co 0.5915 0.53222 0.78319 0.0
O202 O 0.64936 0.45074 0.80435 0.0
C203 C 0.73208 0.5501 0.74864 0.0
C204 C 0.71659 0.53486 0.33891 0.0
C205 C 0.63372 0.40335 0.73119 0.0
O206 O 0.72762 0.51951 0.63814 0.0
O207 O 0.68098 0.5724 0.80911 0.0
O208 O 0.56941 0.48112 0.41245 0.0
O209 O 0.57523 0.53638 0.59431 0.0
Co210 Co 0.0034 0.65201 0.50807 0.0
O211 O 0.9282 0.67757 0.39855 0.0
O212 O 0.02985 0.71634 0.37608 0.0
C213 C 0.99572 0.53779 0.51107 0.0
O214 O 0.09008 0.63526 0.60317 0.0
Co215 Co 0.96773 0.59319 0.78184 0.0
O216 O 0.04956 0.64913 0.80109 0.0
C217 C 0.95256 0.73439 0.74627 0.0
C218 C 0.96853 0.71686 0.33643 0.0
C219 C 0.09729 0.63217 0.72813 0.0
O220 O 0.98344 0.72867 0.63537 0.0
O221 O 0.92898 0.68414 0.80725 0.0
O222 O 0.0205 0.56885 0.4102 0.0
O223 O 0.96494 0.57657 0.59322 0.0
loop_
_geom_bond_atom_site_label_1
_geom_bond_atom_site_label_2
_geom_bond_distance
_geom_bond_site_symmetry_2
_ccdc_geom_bond_type
Co0 O1 2.216 1_544 S
Co0 O2 2.091 1_554 S
Co0 O4 2.004 . S
Co0 O10 2.021 1_545 S
Co0 O12 2.137 1_544 S
Co0 O13 2.244 1_545 S
O1 Co0 2.216 1_566 S
O1 C8 1.247 1_565 S
O2 Co0 2.091 1_556 S
O2 C8 1.261 . S
C3 O12 1.247 . S
C3 O13 1.272 1_556 S
O4 Co0 2.004 . S
O4 C9 1.259 . S
Co5 O6 2.061 1_565 S
Co5 O11 2.052 . S
Co5 O13 2.135 . S
O6 Co5 2.061 1_545 S
O6 C9 1.235 . S
C7 O10 1.238 . S
C7 O11 1.241 . S
C8 O1 1.247 1_545 S
C8 O2 1.261 . S
C9 O4 1.259 . S
C9 O6 1.235 . S
O10 Co0 2.021 1_565 S
O10 C7 1.238 . S
O11 Co5 2.052 . S
O11 C7 1.241 . S
O12 Co0 2.137 1_566 S
O12 C3 1.247 . S
O13 Co0 2.244 1_565 S
O13 C3 1.272 1_554 S
O13 Co5 2.135 . S
Co14 O15 2.216 1_554 S
Co14 O16 2.091 1_554 S
Co14 O18 2.004 . S
Co14 O24 2.021 . S
Co14 O26 2.137 1_554 S
Co14 O27 2.244 . S
O15 Co14 2.216 1_556 S
O15 C22 1.247 . S
O16 Co14 2.091 1_556 S
O16 C22 1.261 . S
C17 O26 1.247 . S
C17 O27 1.272 1_556 S
O18 Co14 2.004 . S
O18 C23 1.259 . S
Co19 O20 2.061 . S
Co19 O25 2.052 . S
Co19 O27 2.135 . S
O20 Co19 2.061 . S
O20 C23 1.235 . S
C21 O24 1.238 . S
C21 O25 1.241 . S
C22 O15 1.247 . S
C22 O16 1.261 . S
C23 O18 1.259 . S
C23 O20 1.235 . S
O24 Co14 2.021 . S
O24 C21 1.238 . S
O25 Co19 2.052 . S
O25 C21 1.241 . S
O26 Co14 2.137 1_556 S
O26 C17 1.247 . S
O27 Co14 2.244 . S
O27 C17 1.272 1_554 S
O27 Co19 2.135 . S
Co28 O29 2.216 1_554 S
Co28 O30 2.091 1_554 S
Co28 O32 2.004 . S
Co28 O38 2.021 . S
Co28 O40 2.137 1_554 S
Co28 O41 2.244 . S
O29 Co28 2.216 1_556 S
O29 C36 1.247 . S
O30 Co28 2.091 1_556 S
O30 C36 1.261 . S
C31 O40 1.247 . S
C31 O41 1.272 1_556 S
O32 Co28 2.004 . S
O32 C37 1.259 . S
Co33 O34 2.061 . S
Co33 O39 2.052 . S
Co33 O41 2.135 . S
O34 Co33 2.061 . S
O34 C37 1.235 . S
C35 O38 1.238 . S
C35 O39 1.241 . S
C36 O29 1.247 . S
C36 O30 1.261 . S
C37 O32 1.259 . S
C37 O34 1.235 . S
O38 Co28 2.021 . S
O38 C35 1.238 . S
O39 Co33 2.052 . S
O39 C35 1.241 . S
O40 Co28 2.137 1_556 S
O40 C31 1.247 . S
O41 Co28 2.244 . S
O41 C31 1.272 1_554 S
O41 Co33 2.135 . S
Co42 O43 2.216 1_454 S
Co42 O44 2.091 1_554 S
Co42 O46 2.004 . S
Co42 O52 2.021 1_455 S
Co42 O54 2.137 1_454 S
Co42 O55 2.244 1_455 S
O43 Co42 2.216 1_656 S
O43 C50 1.247 1_655 S
O44 Co42 2.091 1_556 S
O44 C50 1.261 . S
C45 O54 1.247 . S
C45 O55 1.272 1_556 S
O46 Co42 2.004 . S
O46 C51 1.259 . S
Co47 O48 2.061 1_655 S
Co47 O53 2.052 . S
Co47 O55 2.135 . S
O48 Co47 2.061 1_455 S
O48 C51 1.235 . S
C49 O52 1.238 . S
C49 O53 1.241 . S
C50 O43 1.247 1_455 S
C50 O44 1.261 . S
C51 O46 1.259 . S
C51 O48 1.235 . S
O52 Co42 2.021 1_655 S
O52 C49 1.238 . S
O53 Co47 2.052 . S
O53 C49 1.241 . S
O54 Co42 2.137 1_656 S
O54 C45 1.247 . S
O55 Co42 2.244 1_655 S
O55 C45 1.272 1_554 S
O55 Co47 2.135 . S
Co56 O57 2.216 1_565 S
Co56 O58 2.091 . S
Co56 O60 2.004 . S
Co56 O66 2.021 1_565 S
Co56 O68 2.137 1_565 S
Co56 O69 2.244 1_565 S
O57 Co56 2.216 1_545 S
O57 C64 1.247 1_545 S
O58 Co56 2.091 . S
O58 C64 1.261 . S
C59 O68 1.247 . S
C59 O69 1.272 . S
O60 Co56 2.004 . S
O60 C65 1.259 . S
Co61 O62 2.061 1_545 S
Co61 O67 2.052 . S
Co61 O69 2.135 . S
O62 Co61 2.061 1_565 S
O62 C65 1.235 . S
C63 O66 1.238 . S
C63 O67 1.241 . S
C64 O57 1.247 1_565 S
C64 O58 1.261 . S
C65 O60 1.259 . S
C65 O62 1.235 . S
O66 Co56 2.021 1_545 S
O66 C63 1.238 . S
O67 Co61 2.052 . S
O67 C63 1.241 . S
O68 Co56 2.137 1_545 S
O68 C59 1.247 . S
O69 Co56 2.244 1_545 S
O69 C59 1.272 . S
O69 Co61 2.135 . S
Co70 O71 2.216 . S
Co70 O72 2.091 . S
Co70 O74 2.004 . S
Co70 O80 2.021 . S
Co70 O82 2.137 . S
Co70 O83 2.244 . S
O71 Co70 2.216 . S
O71 C78 1.247 . S
O72 Co70 2.091 . S
O72 C78 1.261 . S
C73 O82 1.247 . S
C73 O83 1.272 . S
O74 Co70 2.004 . S
O74 C79 1.259 . S
Co75 O76 2.061 . S
Co75 O81 2.052 . S
Co75 O83 2.135 . S
O76 Co75 2.061 . S
O76 C79 1.235 . S
C77 O80 1.238 . S
C77 O81 1.241 . S
C78 O71 1.247 . S
C78 O72 1.261 . S
C79 O74 1.259 . S
C79 O76 1.235 . S
O80 Co70 2.021 . S
O80 C77 1.238 . S
O81 Co75 2.052 . S
O81 C77 1.241 . S
O82 Co70 2.137 . S
O82 C73 1.247 . S
O83 Co70 2.244 . S
O83 C73 1.272 . S
O83 Co75 2.135 . S
Co84 O85 2.216 . S
Co84 O86 2.091 . S
Co84 O88 2.004 . S
Co84 O94 2.021 . S
Co84 O96 2.137 . S
Co84 O97 2.244 . S
O85 Co84 2.216 . S
O85 C92 1.247 . S
O86 Co84 2.091 . S
O86 C92 1.261 . S
C87 O96 1.247 . S
C87 O97 1.272 . S
O88 Co84 2.004 . S
O88 C93 1.259 . S
Co89 O90 2.061 . S
Co89 O95 2.052 . S
Co89 O97 2.135 . S
O90 Co89 2.061 . S
O90 C93 1.235 . S
C91 O94 1.238 . S
C91 O95 1.241 . S
C92 O85 1.247 . S
C92 O86 1.261 . S
C93 O88 1.259 . S
C93 O90 1.235 . S
O94 Co84 2.021 . S
O94 C91 1.238 . S
O95 Co89 2.052 . S
O95 C91 1.241 . S
O96 Co84 2.137 . S
O96 C87 1.247 . S
O97 Co84 2.244 . S
O97 C87 1.272 . S
O97 Co89 2.135 . S
Co98 O99 2.216 1_655 S
Co98 O100 2.091 . S
Co98 O102 2.004 . S
Co98 O108 2.021 1_655 S
Co98 O110 2.137 1_655 S
Co98 O111 2.244 1_655 S
O99 Co98 2.216 1_455 S
O99 C106 1.247 1_455 S
O100 Co98 2.091 . S
O100 C106 1.261 . S
C101 O110 1.247 . S
C101 O111 1.272 . S
O102 Co98 2.004 . S
O102 C107 1.259 . S
Co103 O104 2.061 1_455 S
Co103 O109 2.052 . S
Co103 O111 2.135 . S
O104 Co103 2.061 1_655 S
O104 C107 1.235 . S
C105 O108 1.238 . S
C105 O109 1.241 . S
C106 O99 1.247 1_655 S
C106 O100 1.261 . S
C107 O102 1.259 . S
C107 O104 1.235 . S
O108 Co98 2.021 1_455 S
O108 C105 1.238 . S
O109 Co103 2.052 . S
O109 C105 1.241 . S
O110 Co98 2.137 1_455 S
O110 C101 1.247 . S
O111 Co98 2.244 1_455 S
O111 C101 1.272 . S
O111 Co103 2.135 . S
Co112 O113 2.216 1_566 S
Co112 O114 2.091 1_556 S
Co112 O116 2.004 . S
Co112 O122 2.021 1_565 S
Co112 O124 2.137 1_566 S
Co112 O125 2.244 1_565 S
O113 Co112 2.216 1_544 S
O113 C120 1.247 1_545 S
O114 Co112 2.091 1_554 S
O114 C120 1.261 . S
C115 O124 1.247 . S
C115 O125 1.272 1_554 S
O116 Co112 2.004 . S
O116 C121 1.259 . S
Co117 O118 2.061 1_545 S
Co117 O123 2.052 . S
Co117 O125 2.135 . S
O118 Co117 2.061 1_565 S
O118 C121 1.235 . S
C119 O122 1.238 . S
C119 O123 1.241 . S
C120 O113 1.247 1_565 S
C120 O114 1.261 . S
C121 O116 1.259 . S
C121 O118 1.235 . S
O122 Co112 2.021 1_545 S
O122 C119 1.238 . S
O123 Co117 2.052 . S
O123 C119 1.241 . S
O124 Co112 2.137 1_544 S
O124 C115 1.247 . S
O125 Co112 2.244 1_545 S
O125 C115 1.272 1_556 S
O125 Co117 2.135 . S
Co126 O127 2.216 1_556 S
Co126 O128 2.091 1_556 S
Co126 O130 2.004 . S
Co126 O136 2.021 . S
Co126 O138 2.137 1_556 S
Co126 O139 2.244 . S
O127 Co126 2.216 1_554 S
O127 C134 1.247 . S
O128 Co126 2.091 1_554 S
O128 C134 1.261 . S
C129 O138 1.247 . S
C129 O139 1.272 1_554 S
O130 Co126 2.004 . S
O130 C135 1.259 . S
Co131 O132 2.061 . S
Co131 O137 2.052 . S
Co131 O139 2.135 . S
O132 Co131 2.061 . S
O132 C135 1.235 . S
C133 O136 1.238 . S
C133 O137 1.241 . S
C134 O127 1.247 . S
C134 O128 1.261 . S
C135 O130 1.259 . S
C135 O132 1.235 . S
O136 Co126 2.021 . S
O136 C133 1.238 . S
O137 Co131 2.052 . S
O137 C133 1.241 . S
O138 Co126 2.137 1_554 S
O138 C129 1.247 . S
O139 Co126 2.244 . S
O139 C129 1.272 1_556 S
O139 Co131 2.135 . S
Co140 O141 2.216 1_556 S
Co140 O142 2.091 1_556 S
Co140 O144 2.004 . S
Co140 O150 2.021 . S
Co140 O152 2.137 1_556 S
Co140 O153 2.244 . S
O141 Co140 2.216 1_554 S
O141 C148 1.247 . S
O142 Co140 2.091 1_554 S
O142 C148 1.261 . S
C143 O152 1.247 . S
C143 O153 1.272 1_554 S
O144 Co140 2.004 . S
O144 C149 1.259 . S
Co145 O146 2.061 . S
Co145 O151 2.052 . S
Co145 O153 2.135 . S
O146 Co145 2.061 . S
O146 C149 1.235 . S
C147 O150 1.238 . S
C147 O151 1.241 . S
C148 O141 1.247 . S
C148 O142 1.261 . S
C149 O144 1.259 . S
C149 O146 1.235 . S
O150 Co140 2.021 . S
O150 C147 1.238 . S
O151 Co145 2.052 . S
O151 C147 1.241 . S
O152 Co140 2.137 1_554 S
O152 C143 1.247 . S
O153 Co140 2.244 . S
O153 C143 1.272 1_556 S
O153 Co145 2.135 . S
Co154 O155 2.216 1_656 S
Co154 O156 2.091 1_556 S
Co154 O158 2.004 . S
Co154 O164 2.021 1_655 S
Co154 O166 2.137 1_656 S
Co154 O167 2.244 1_655 S
O155 Co154 2.216 1_454 S
O155 C162 1.247 1_455 S
O156 Co154 2.091 1_554 S
O156 C162 1.261 . S
C157 O166 1.247 . S
C157 O167 1.272 1_554 S
O158 Co154 2.004 . S
O158 C163 1.259 . S
Co159 O160 2.061 1_455 S
Co159 O165 2.052 . S
Co159 O167 2.135 . S
O160 Co159 2.061 1_655 S
O160 C163 1.235 . S
C161 O164 1.238 . S
C161 O165 1.241 . S
C162 O155 1.247 1_655 S
C162 O156 1.261 . S
C163 O158 1.259 . S
C163 O160 1.235 . S
O164 Co154 2.021 1_455 S
O164 C161 1.238 . S
O165 Co159 2.052 . S
O165 C161 1.241 . S
O166 Co154 2.137 1_454 S
O166 C157 1.247 . S
O167 Co154 2.244 1_455 S
O167 C157 1.272 1_556 S
O167 Co159 2.135 . S
Co168 O169 2.216 1_545 S
Co168 O170 2.091 . S
Co168 O172 2.004 . S
Co168 O178 2.021 1_545 S
Co168 O180 2.137 1_545 S
Co168 O181 2.244 1_545 S
O169 Co168 2.216 1_565 S
O169 C176 1.247 1_565 S
O170 Co168 2.091 . S
O170 C176 1.261 . S
C171 O180 1.247 . S
C171 O181 1.272 . S
O172 Co168 2.004 . S
O172 C177 1.259 . S
Co173 O174 2.061 1_565 S
Co173 O179 2.052 . S
Co173 O181 2.135 . S
O174 Co173 2.061 1_545 S
O174 C177 1.235 . S
C175 O178 1.238 . S
C175 O179 1.241 . S
C176 O169 1.247 1_545 S
C176 O170 1.261 . S
C177 O172 1.259 . S
C177 O174 1.235 . S
O178 Co168 2.021 1_565 S
O178 C175 1.238 . S
O179 Co173 2.052 . S
O179 C175 1.241 . S
O180 Co168 2.137 1_565 S
O180 C171 1.247 . S
O181 Co168 2.244 1_565 S
O181 C171 1.272 . S
O181 Co173 2.135 . S
Co182 O183 2.216 . S
Co182 O184 2.091 . S
Co182 O186 2.004 . S
Co182 O192 2.021 . S
Co182 O194 2.137 . S
Co182 O195 2.244 . S
O183 Co182 2.216 . S
O183 C190 1.247 . S
O184 Co182 2.091 . S
O184 C190 1.261 . S
C185 O194 1.247 . S
C185 O195 1.272 . S
O186 Co182 2.004 . S
O186 C191 1.259 . S
Co187 O188 2.061 . S
Co187 O193 2.052 . S
Co187 O195 2.135 . S
O188 Co187 2.061 . S
O188 C191 1.235 . S
C189 O192 1.238 . S
C189 O193 1.241 . S
C190 O183 1.247 . S
C190 O184 1.261 . S
C191 O186 1.259 . S
C191 O188 1.235 . S
O192 Co182 2.021 . S
O192 C189 1.238 . S
O193 Co187 2.052 . S
O193 C189 1.241 . S
O194 Co182 2.137 . S
O194 C185 1.247 . S
O195 Co182 2.244 . S
O195 C185 1.272 . S
O195 Co187 2.135 . S
Co196 O197 2.216 . S
Co196 O198 2.091 . S
Co196 O200 2.004 . S
Co196 O206 2.021 . S
Co196 O208 2.137 . S
Co196 O209 2.244 . S
O197 Co196 2.216 . S
O197 C204 1.247 . S
O198 Co196 2.091 . S
O198 C204 1.261 . S
C199 O208 1.247 . S
C199 O209 1.272 . S
O200 Co196 2.004 . S
O200 C205 1.259 . S
Co201 O202 2.061 . S
Co201 O207 2.052 . S
Co201 O209 2.135 . S
O202 Co201 2.061 . S
O202 C205 1.235 . S
C203 O206 1.238 . S
C203 O207 1.241 . S
C204 O197 1.247 . S
C204 O198 1.261 . S
C205 O200 1.259 . S
C205 O202 1.235 . S
O206 Co196 2.021 . S
O206 C203 1.238 . S
O207 Co201 2.052 . S
O207 C203 1.241 . S
O208 Co196 2.137 . S
O208 C199 1.247 . S
O209 Co196 2.244 . S
O209 C199 1.272 . S
O209 Co201 2.135 . S
Co210 O211 2.216 1_455 S
Co210 O212 2.091 . S
Co210 O214 2.004 . S
Co210 O220 2.021 1_455 S
Co210 O222 2.137 1_455 S
Co210 O223 2.244 1_455 S
O211 Co210 2.216 1_655 S
O211 C218 1.247 1_655 S
O212 Co210 2.091 . S
O212 C218 1.261 . S
C213 O222 1.247 . S
C213 O223 1.272 . S
O214 Co210 2.004 . S
O214 C219 1.259 . S
Co215 O216 2.061 1_655 S
Co215 O221 2.052 . S
Co215 O223 2.135 . S
O216 Co215 2.061 1_455 S
O216 C219 1.235 . S
C217 O220 1.238 . S
C217 O221 1.241 . S
C218 O211 1.247 1_455 S
C218 O212 1.261 . S
C219 O214 1.259 . S
C219 O216 1.235 . S
O220 Co210 2.021 1_655 S
O220 C217 1.238 . S
O221 Co215 2.052 . S
O221 C217 1.241 . S
O222 Co210 2.137 1_655 S
O222 C213 1.247 . S
O223 Co210 2.244 1_655 S
O223 C213 1.272 . S
O223 Co215 2.135 . S
C79 C9 0.311 . S
C93 C23 0.287 . S
C37 C107 0.311 . S
C51 C65 0.403 . S
C121 C191 0.311 . S
C205 C135 0.287 . S
C219 C149 0.311 . S
C163 C177 0.403 . S
C8 C175 1.959 1_545 S
C189 C22 2.122 . S
C36 C203 2.022 . S
C50 C217 1.953 1_455 S
C64 C119 1.953 1_565 S
C78 C133 2.022 . S
C92 C147 2.122 . S
C106 C161 1.959 1_655 S
C63 C120 1.959 1_545 S
C77 C134 2.122 . S
C91 C148 2.022 . S
C162 C105 1.953 1_655 S
C7 C176 1.953 1_565 S
C190 C21 2.022 . S
C204 C35 2.122 . S
C49 C218 1.959 1_655 S
C115 C3 2.742 1_544 S
C129 C17 3.029 1_554 S
C31 C143 3.190 1_656 S
C157 C45 2.756 1_444 S
C59 C171 2.756 1_445 S
C185 C73 3.189 1_565 S
C199 C87 3.029 . S
C213 C101 2.742 1_655 S
