# Generated by pormake.
# Topology vme, (6)-cn, num edge types: 1
# Building blocks:
#     Node 0, Type 0, BuildingBlock: OJICUG_clean_sbu_0, # of connection points: 6
#     Node 1, Type 0, BuildingBlock: OJICUG_clean_sbu_0, # of connection points: 6
#     Node 2, Type 0, BuildingBlock: OJICUG_clean_sbu_0, # of connection points: 6
#     Node 3, Type 0, BuildingBlock: OJICUG_clean_sbu_0, # of connection points: 6
#     Edge 4, Type (0, 0), BuildingBlock: ZUJKAS_clean_linker_0, # of connection points: 2
#     Edge 5, Type (0, 0), BuildingBlock: ZUJKAS_clean_linker_0, # of connection points: 2
#     Edge 6, Type (0, 0), BuildingBlock: ZUJKAS_clean_linker_0, # of connection points: 2
#     Edge 7, Type (0, 0), BuildingBlock: ZUJKAS_clean_linker_0, # of connection points: 2
#     Edge 8, Type (0, 0), BuildingBlock: ZUJKAS_clean_linker_0, # of connection points: 2
#     Edge 9, Type (0, 0), BuildingBlock: ZUJKAS_clean_linker_0, # of connection points: 2
#     Edge 10, Type (0, 0), BuildingBlock: ZUJKAS_clean_linker_0, # of connection points: 2
#     Edge 11, Type (0, 0), BuildingBlock: ZUJKAS_clean_linker_0, # of connection points: 2
#     Edge 12, Type (0, 0), BuildingBlock: ZUJKAS_clean_linker_0, # of connection points: 2
#     Edge 13, Type (0, 0), BuildingBlock: ZUJKAS_clean_linker_0, # of connection points: 2
#     Edge 14, Type (0, 0), BuildingBlock: ZUJKAS_clean_linker_0, # of connection points: 2
#     Edge 15, Type (0, 0), BuildingBlock: ZUJKAS_clean_linker_0, # of connection points: 2
# Relax obj value: 0.276
# Max RMSD: 0.267
# Mean RMSD: 0.267
data_MOF--net-vme--node1-OJICUG_clean_sbu_0--edge1-ZUJKAS_clean_linker_0
_symmetry_space_group_name_H-M    P1
_symmetry_Int_Tables_number       1
_symmetry_cell_setting            triclinic
loop_
_symmetry_equiv_pos_as_xyz
'x, y, z'
_cell_length_a     34.81625
_cell_length_b     33.468365
_cell_length_c     37.43028
_cell_angle_alpha  90.099073
_cell_angle_beta   121.49628
_cell_angle_gamma 89.797147
loop_
_atom_site_label
_atom_site_type_symbol
_atom_site_fract_x
_atom_site_fract_y
_atom_site_fract_z
_atom_type_partial_charge
Sc0 Sc 0.2231 0.31851 0.39626 0.0
Sc1 Sc 0.13248 0.3841 0.34087 0.0
Sc2 Sc 0.20493 0.39733 0.44688 0.0
O3 O 0.18707 0.36623 0.39457 0.0
C4 C 0.23019 0.30868 0.48302 0.0
C5 C 0.11955 0.2913 0.33597 0.0
C6 C 0.1034 0.39708 0.40861 0.0
C7 C 0.19639 0.35354 0.30835 0.0
C8 C 0.29685 0.38562 0.45237 0.0
C9 C 0.16833 0.4662 0.37705 0.0
O10 O 0.22368 0.29326 0.44932 0.0
O11 O 0.10342 0.32638 0.33141 0.0
O12 O 0.14117 0.38604 0.43929 0.0
O13 O 0.22562 0.33794 0.343 0.0
O14 O 0.2694 0.40811 0.45578 0.0
O15 O 0.16047 0.44209 0.34791 0.0
O16 O 0.28639 0.35093 0.43535 0.0
O17 O 0.15975 0.36841 0.30225 0.0
O18 O 0.17981 0.45407 0.4136 0.0
O19 O 0.16192 0.28386 0.35617 0.0
O20 O 0.23034 0.34623 0.48805 0.0
O21 O 0.09694 0.40309 0.37216 0.0
Sc22 Sc 0.78525 0.89877 0.05458 0.0
Sc23 Sc 0.86252 0.8761 0.15813 0.0
Sc24 Sc 0.76478 0.81925 0.10246 0.0
O25 O 0.80387 0.86463 0.10512 0.0
C26 C 0.69449 0.89052 0.05188 0.0
C27 C 0.83032 0.96213 0.13038 0.0
C28 C 0.79965 0.8495 0.19321 0.0
C29 C 0.88633 0.89197 0.08742 0.0
C30 C 0.75417 0.81204 0.01405 0.0
C31 C 0.86547 0.78324 0.15532 0.0
O32 O 0.72268 0.91204 0.04895 0.0
O33 O 0.84216 0.93591 0.15871 0.0
O34 O 0.76686 0.83876 0.15781 0.0
O35 O 0.84649 0.886 0.05733 0.0
O36 O 0.76028 0.79552 0.04713 0.0
O37 O 0.88478 0.81657 0.1596 0.0
O38 O 0.75609 0.84971 0.01075 0.0
O39 O 0.89631 0.89478 0.12533 0.0
O40 O 0.82292 0.7799 0.13917 0.0
O41 O 0.81385 0.95297 0.09194 0.0
O42 O 0.70329 0.855 0.06672 0.0
O43 O 0.83757 0.85976 0.19865 0.0
Sc44 Sc 0.78474 0.58965 0.5546 0.0
Sc45 Sc 0.85995 0.6086 0.65958 0.0
Sc46 Sc 0.76576 0.6701 0.60285 0.0
O47 O 0.80318 0.6229 0.60575 0.0
C48 C 0.7588 0.67751 0.51596 0.0
C49 C 0.88673 0.59197 0.59094 0.0
C50 C 0.86798 0.70139 0.65932 0.0
C51 C 0.82438 0.52412 0.62842 0.0
C52 C 0.69284 0.60188 0.54913 0.0
C53 C 0.79562 0.63826 0.69216 0.0
O54 O 0.75927 0.6398 0.51192 0.0
O55 O 0.89503 0.58867 0.62829 0.0
O56 O 0.82545 0.70683 0.64155 0.0
O57 O 0.80969 0.53423 0.59053 0.0
O58 O 0.70293 0.63695 0.56506 0.0
O59 O 0.83335 0.62575 0.69862 0.0
O60 O 0.72053 0.57922 0.54639 0.0
O61 O 0.83613 0.54965 0.65737 0.0
O62 O 0.76464 0.65103 0.65672 0.0
O63 O 0.84776 0.59975 0.56014 0.0
O64 O 0.76442 0.69382 0.54898 0.0
O65 O 0.88579 0.66709 0.66402 0.0
Sc66 Sc 0.21797 0.16954 0.89354 0.0
Sc67 Sc 0.12999 0.10189 0.83763 0.0
Sc68 Sc 0.20154 0.08992 0.94413 0.0
O69 O 0.18335 0.12088 0.89168 0.0
C70 C 0.29386 0.10422 0.95108 0.0
C71 C 0.19409 0.13433 0.80633 0.0
C72 C 0.16861 0.02049 0.87507 0.0
C73 C 0.11365 0.19445 0.8319 0.0
C74 C 0.22333 0.179 0.97961 0.0
C75 C 0.09969 0.08735 0.90431 0.0
O76 O 0.28227 0.13861 0.93347 0.0
O77 O 0.1578 0.11843 0.79972 0.0
O78 O 0.17933 0.03278 0.91138 0.0
O79 O 0.15574 0.20285 0.85272 0.0
O80 O 0.22411 0.14144 0.98473 0.0
O81 O 0.09406 0.0818 0.8681 0.0
O82 O 0.21708 0.19448 0.94606 0.0
O83 O 0.09871 0.15897 0.82707 0.0
O84 O 0.1368 0.09907 0.93534 0.0
O85 O 0.22213 0.15062 0.84096 0.0
O86 O 0.26697 0.08105 0.95436 0.0
O87 O 0.16006 0.04447 0.84566 0.0
H88 H 0.85424 0.9939 0.20623 0.0
H89 H 0.89525 0.05559 0.23611 0.0
H90 H 0.87931 0.08672 0.11727 0.0
H91 H 0.83922 0.02398 0.08723 0.0
H92 H 0.96596 0.08796 0.1793 0.0
H93 H 0.86622 0.172 0.23048 0.0
H94 H 0.87642 0.12181 0.25002 0.0
H95 H 0.84311 0.13063 0.19436 0.0
C96 C 0.85834 0.01429 0.18602 0.0
C97 C 0.84385 0.00379 0.14443 0.0
C98 C 0.88159 0.04978 0.20315 0.0
C99 C 0.89018 0.07589 0.17891 0.0
C100 C 0.87295 0.06695 0.1365 0.0
H101 H 0.03023 0.29893 0.27776 0.0
H102 H 0.97601 0.24666 0.23926 0.0
C103 C 0.84976 0.03122 0.11929 0.0
C104 C 0.92183 0.10951 0.1994 0.0
H105 H 0.94505 0.18857 0.26515 0.0
C106 C 0.96111 0.11035 0.19759 0.0
C107 C 0.91541 0.13872 0.22315 0.0
C108 C 0.87275 0.14101 0.22426 0.0
C109 C -0.00534 0.13904 0.21968 0.0
C110 C 0.98931 0.16692 0.24521 0.0
C111 C 0.94952 0.16668 0.24619 0.0
C112 C 0.02333 0.19806 0.26939 0.0
C113 C 0.03515 0.13951 0.21497 0.0
C114 C 0.06814 0.18813 0.29962 0.0
C115 C 0.09978 0.21821 0.32169 0.0
C116 C 0.08679 0.25862 0.3143 0.0
C117 C 0.04159 0.26818 0.28457 0.0
C118 C 0.01036 0.23829 0.26237 0.0
H119 H 0.02829 0.12381 0.18604 0.0
H120 H 0.0457 0.17058 0.21406 0.0
H121 H 0.06363 0.12398 0.24211 0.0
H122 H 0.07861 0.15716 0.30624 0.0
H123 H 0.13419 0.20986 0.34453 0.0
H124 H 0.16375 0.50804 0.31276 0.0
H125 H 0.11632 0.56645 0.27855 0.0
H126 H 0.08616 0.5747 0.37638 0.0
H127 H 0.13397 0.51648 0.41108 0.0
H128 H 0.02394 0.56027 0.25098 0.0
H129 H 0.10322 0.6924 0.35394 0.0
H130 H 0.13478 0.64797 0.35774 0.0
H131 H 0.09914 0.64832 0.37916 0.0
C132 C 0.14838 0.5232 0.32782 0.0
C133 C 0.15242 0.50763 0.36448 0.0
C134 C 0.12113 0.55641 0.30813 0.0
C135 C 0.09759 0.57465 0.32483 0.0
C136 C 0.10448 0.56129 0.36327 0.0
H137 H 0.8476 0.71219 0.18049 0.0
H138 H 0.90206 0.65911 0.22098 0.0
C139 C 0.13201 0.52811 0.38318 0.0
C140 C 0.06165 0.6039 0.29922 0.0
H141 H 0.02922 0.70079 0.29546 0.0
C142 C 0.02505 0.59104 0.26063 0.0
C143 C 0.06327 0.64383 0.31211 0.0
C144 C 0.10232 0.65922 0.35284 0.0
C145 C 0.99012 0.61727 0.23426 0.0
C146 C 0.99171 0.6572 0.24712 0.0
C147 C 0.02811 0.67 0.28588 0.0
C148 C 0.95741 0.68696 0.2198 0.0
C149 C 0.95243 0.60241 0.19241 0.0
C150 C 0.97043 0.71962 0.20528 0.0
C151 C 0.93963 0.74973 0.1823 0.0
C152 C 0.89512 0.74793 0.1735 0.0
C153 C 0.88151 0.71426 0.18649 0.0
C154 C 0.91258 0.68402 0.2097 0.0
H155 H 0.96057 0.5731 0.18392 0.0
H156 H 0.92149 0.59884 0.19367 0.0
H157 H 0.94499 0.62429 0.1673 0.0
H158 H 0.0048 0.72222 0.21253 0.0
H159 H 0.95116 0.77509 0.17248 0.0
H160 H 0.16484 0.9784 0.81098 0.0
H161 H 0.11872 0.91924 0.77762 0.0
H162 H 0.09031 0.91056 0.8765 0.0
H163 H 0.13696 0.96933 0.91047 0.0
H164 H 0.09813 0.83532 0.84452 0.0
H165 H 0.98161 0.94043 0.71955 0.0
H166 H 0.0378 0.93999 0.72908 0.0
H167 H 0.02816 0.95712 0.76931 0.0
C168 C 0.15004 0.96307 0.82637 0.0
C169 C 0.15404 0.97875 0.86304 0.0
C170 C 0.12344 0.92952 0.80712 0.0
C171 C 0.10013 0.91144 0.82401 0.0
C172 C 0.10776 0.92444 0.86284 0.0
H173 H 0.85177 0.77422 0.68298 0.0
H174 H 0.90758 0.82603 0.72376 0.0
C175 C 0.13472 0.95785 0.88237 0.0
C176 C 0.06433 0.88204 0.79908 0.0
H177 H 0.96328 0.87163 0.70742 0.0
C178 C 0.06862 0.84316 0.81458 0.0
C179 C 0.02533 0.89282 0.76056 0.0
C180 C 0.01755 0.93495 0.74373 0.0
C181 C 0.03545 0.8143 0.79184 0.0
C182 C -0.00247 0.82458 0.75234 0.0
C183 C 0.99264 0.86378 0.73748 0.0
C184 C 0.96312 0.79476 0.72558 0.0
C185 C 0.04108 0.7732 0.81052 0.0
C186 C 0.97558 0.76104 0.71173 0.0
C187 C 0.94399 0.73161 0.68858 0.0
C188 C 0.89911 0.73549 0.67843 0.0
C189 C 0.88604 0.77041 0.69029 0.0
C190 C 0.9179 0.79986 0.71375 0.0
H191 H 0.06426 0.77358 0.84509 0.0
H192 H 0.00817 0.76084 0.80317 0.0
H193 H 0.05563 0.75283 0.79718 0.0
H194 H 0.00999 0.75715 0.71943 0.0
H195 H 0.95504 0.70534 0.6794 0.0
H196 H 0.83226 0.4627 0.58399 0.0
H197 H 0.87094 0.39902 0.61269 0.0
H198 H 0.88566 0.42795 0.73159 0.0
H199 H 0.84599 0.49063 0.70299 0.0
H200 H 0.957 0.39657 0.67469 0.0
H201 H 0.85685 0.31161 0.72406 0.0
H202 H 0.83389 0.35362 0.68871 0.0
H203 H 0.86699 0.36144 0.74455 0.0
C204 C 0.84215 0.45479 0.61573 0.0
C205 C 0.83642 0.48194 0.64132 0.0
C206 C 0.86454 0.4185 0.63218 0.0
C207 C 0.88115 0.40868 0.67428 0.0
C208 C 0.87248 0.43443 0.69885 0.0
H209 H 0.126 0.27605 0.84014 0.0
H210 H 0.06919 0.32794 0.80139 0.0
C211 C 0.85001 0.47051 0.68245 0.0
C212 C 0.9127 0.37472 0.69432 0.0
H213 H 0.936 0.29505 0.7593 0.0
C214 C 0.95209 0.37398 0.69267 0.0
C215 C 0.90623 0.34519 0.71763 0.0
C216 C 0.86344 0.34275 0.71848 0.0
C217 C 0.98576 0.3452 0.71465 0.0
C218 C 0.98045 0.31711 0.73993 0.0
C219 C 0.94046 0.31711 0.74057 0.0
C220 C 0.01502 0.28632 0.76454 0.0
C221 C 0.02639 0.34494 0.71015 0.0
C222 C 0.00305 0.24592 0.75776 0.0
C223 C 0.03502 0.21643 0.78022 0.0
C224 C 0.07994 0.2266 0.80999 0.0
C225 C 0.09184 0.2672 0.81725 0.0
C226 C 0.0595 0.29684 0.79492 0.0
H227 H 0.0194 0.36052 0.68115 0.0
H228 H 0.05453 0.36075 0.73722 0.0
H229 H 0.0375 0.31394 0.70952 0.0
H230 H 0.96895 0.2371 0.73458 0.0
H231 H 0.02448 0.18552 0.77357 0.0
H232 H 0.89465 0.61925 0.52696 0.0
H233 H 0.93429 0.58609 0.49729 0.0
H234 H 0.99339 0.50297 0.60056 0.0
H235 H 0.95332 0.53591 0.6304 0.0
H236 H 0.02556 0.56399 0.52618 0.0
H237 H 0.91292 0.43393 0.49448 0.0
H238 H 0.90299 0.48215 0.50988 0.0
H239 H 0.94592 0.44972 0.54823 0.0
C240 C 0.91712 0.59461 0.544 0.0
C241 C 0.92057 0.57981 0.5807 0.0
C242 C 0.93965 0.5757 0.52697 0.0
C243 C 0.96576 0.54159 0.54625 0.0
C244 C 0.97268 0.52892 0.58494 0.0
H245 H 0.0926 0.36984 0.47104 0.0
H246 H 0.05383 0.40437 0.50076 0.0
C247 C 0.95025 0.54802 0.60219 0.0
C248 C 0.98177 0.51738 0.52354 0.0
H249 H 0.96561 0.42823 0.47318 0.0
C250 C 0.0126 0.53429 0.51461 0.0
C251 C 0.96417 0.47888 0.50811 0.0
C252 C 0.92938 0.46007 0.51527 0.0
C253 C 0.02717 0.51328 0.49135 0.0
C254 C 0.00953 0.47476 0.47588 0.0
C255 C 0.97864 0.45791 0.48477 0.0
C256 C 0.0255 0.4504 0.4532 0.0
C257 C 0.06217 0.53204 0.48447 0.0
C258 C 0.02001 0.46352 0.41518 0.0
C259 C 0.04207 0.44372 0.39795 0.0
C260 C 0.06981 0.41062 0.41869 0.0
C261 C 0.07169 0.39548 0.45459 0.0
C262 C 0.04966 0.41519 0.47166 0.0
H263 H 0.07915 0.55769 0.50587 0.0
H264 H 0.08817 0.50978 0.48922 0.0
H265 H 0.04569 0.54317 0.45178 0.0
H266 H 0.00063 0.49022 0.40004 0.0
H267 H 0.04017 0.45613 0.37036 0.0
H268 H 0.89085 0.86336 0.02192 0.0
H269 H 0.92958 0.8945 0.99054 0.0
H270 H 0.9931 0.9777 0.09352 0.0
H271 H 0.95417 0.9466 0.12519 0.0
H272 H 0.93789 0.01215 0.01138 0.0
H273 H 0.0601 0.90178 0.01612 0.0
H274 H 0.00485 0.88253 0.99843 0.0
H275 H 0.03951 0.89962 0.0515 0.0
C276 C 0.91434 0.88737 0.03865 0.0
C277 C 0.91948 0.90268 0.07591 0.0
C278 C 0.9365 0.90507 0.02071 0.0
C279 C 0.96414 0.93833 0.03974 0.0
C280 C 0.97197 0.95189 0.07853 0.0
H281 H 0.08669 0.1136 0.9658 0.0
H282 H 0.04692 0.07866 0.99388 0.0
C283 C 0.95006 0.93392 0.09675 0.0
C284 C 0.97942 0.96207 0.01625 0.0
H285 H 0.04362 0.95817 0.972 0.0
C286 C 0.96127 0.00052 0.00299 0.0
C287 C 0.00906 0.94637 0.00466 0.0
C288 C 0.02986 0.90542 0.01863 0.0
C289 C 0.97197 0.02378 0.97828 0.0
C290 C 0.00232 0.00842 0.96731 0.0
C291 C 0.02006 0.96975 0.98019 0.0
C292 C 0.01932 0.0331 0.94575 0.0
C293 C 0.9502 0.06433 0.96371 0.0
C294 C 0.01627 0.01956 0.9088 0.0
C295 C 0.03914 0.03956 0.89262 0.0
C296 C 0.06582 0.07301 0.91359 0.0
C297 C 0.06629 0.08793 0.94895 0.0
C298 C 0.04342 0.06807 0.96496 0.0
H299 H 0.91762 0.06594 0.96242 0.0
H300 H 0.97277 0.08737 0.9862 0.0
H301 H 0.94419 0.0717 0.93227 0.0
H302 H -0.00205 0.99249 0.89364 0.0
H303 H 0.03866 0.02709 0.86565 0.0
H304 H 0.2355 0.15676 0.05511 0.0
H305 H 0.23262 0.19918 0.10666 0.0
H306 H 0.21533 0.30325 0.03195 0.0
H307 H 0.21819 0.26103 0.97979 0.0
H308 H 0.2792 0.31057 0.12438 0.0
H309 H 0.11024 0.25272 0.07833 0.0
H310 H 0.15127 0.21456 0.08876 0.0
H311 H 0.13358 0.24795 0.04529 0.0
C312 C 0.23153 0.18869 0.04964 0.0
C313 C 0.22665 0.20538 0.013 0.0
C314 C 0.22978 0.21286 0.07915 0.0
C315 C 0.2231 0.25416 0.07269 0.0
C316 C 0.22028 0.27134 0.03727 0.0
H317 H 0.13936 0.37737 0.22692 0.0
H318 H 0.14661 0.36292 0.16665 0.0
C319 C 0.22192 0.24713 0.00755 0.0
C320 C 0.21714 0.27873 0.10231 0.0
H321 H 0.15002 0.28785 0.14314 0.0
C322 C 0.2507 0.30614 0.12821 0.0
C323 C 0.17946 0.2734 0.10654 0.0
C324 C 0.14131 0.24585 0.07802 0.0
C325 C 0.24877 0.32673 0.15999 0.0
C326 C 0.21264 0.31919 0.16616 0.0
C327 C 0.17786 0.29348 0.1386 0.0
C328 C 0.21191 0.33449 0.20299 0.0
C329 C 0.28568 0.35589 0.18697 0.0
C330 C 0.24661 0.32404 0.24353 0.0
C331 C 0.24265 0.33229 0.27804 0.0
C332 C 0.20359 0.35076 0.27269 0.0
C333 C 0.16984 0.363 0.23224 0.0
C334 C 0.17391 0.35479 0.19771 0.0
H335 H 0.30102 0.36856 0.16986 0.0
H336 H 0.2729 0.38079 0.19764 0.0
H337 H 0.31264 0.34006 0.21499 0.0
H338 H 0.27577 0.30755 0.24834 0.0
H339 H 0.26939 0.32247 0.30867 0.0
H340 H 0.72345 0.83037 0.19327 0.0
H341 H 0.71723 0.81448 0.25336 0.0
H342 H 0.85687 0.8452 0.33671 0.0
H343 H 0.86386 0.86038 0.27641 0.0
H344 H 0.83858 0.7721 0.35225 0.0
H345 H 0.7097 0.87616 0.34185 0.0
H346 H 0.69008 0.8511 0.29294 0.0
H347 H 0.73778 0.8841 0.3133 0.0
C348 C 0.75275 0.83453 0.22433 0.0
C349 C 0.79434 0.8463 0.22992 0.0
C350 C 0.74894 0.8258 0.25876 0.0
C351 C 0.7864 0.82911 0.29958 0.0
C352 C 0.82744 0.84267 0.30544 0.0
H353 H 0.77067 0.75866 0.51751 0.0
H354 H 0.77773 0.79883 0.46667 0.0
C355 C 0.83137 0.85135 0.27093 0.0
C356 C 0.78395 0.8133 0.33531 0.0
H357 H 0.71969 0.81447 0.37979 0.0
C358 C 0.81309 0.78189 0.35874 0.0
C359 C 0.75099 0.82627 0.3441 0.0
C360 C 0.72071 0.86156 0.32197 0.0
C361 C 0.80868 0.76176 0.38918 0.0
C362 C 0.77356 0.77277 0.39573 0.0
C363 C 0.74598 0.80558 0.37404 0.0
C364 C 0.76454 0.74968 0.42422 0.0
C365 C 0.84138 0.72853 0.41374 0.0
C366 C 0.75298 0.70916 0.41625 0.0
C367 C 0.74898 0.68608 0.44515 0.0
C368 C 0.75615 0.7032 0.4825 0.0
C369 C 0.76505 0.74444 0.48915 0.0
C370 C 0.76918 0.76748 0.4602 0.0
H371 H 0.87314 0.73139 0.41369 0.0
H372 H 0.84971 0.7282 0.44671 0.0
H373 H 0.8259 0.69941 0.39921 0.0
H374 H 0.74826 0.6951 0.38814 0.0
H375 H 0.74165 0.65455 0.43876 0.0
H376 H 0.76122 0.7304 0.01315 0.0
H377 H 0.76625 0.68991 0.96125 0.0
H378 H 0.74208 0.79476 0.88551 0.0
H379 H 0.73742 0.83563 0.93717 0.0
H380 H 0.70762 0.67736 0.8727 0.0
H381 H 0.86689 0.75301 0.91327 0.0
H382 H 0.84252 0.75664 0.94551 0.0
H383 H 0.82108 0.78695 0.89925 0.0
C384 C 0.75623 0.74482 0.98514 0.0
C385 C 0.74953 0.78643 0.97965 0.0
C386 C 0.75917 0.72158 0.95557 0.0
C387 C 0.75552 0.73957 0.92013 0.0
C388 C 0.74591 0.78053 0.91318 0.0
H389 H 0.71889 0.66129 0.68969 0.0
H390 H 0.71056 0.67745 0.74862 0.0
C391 C 0.74306 0.8038 0.94268 0.0
C392 C 0.76422 0.71622 0.89148 0.0
H393 H 0.83214 0.71358 0.8511 0.0
C394 C 0.73508 0.6849 0.8682 0.0
C395 C 0.8008 0.72548 0.88657 0.0
C396 C 0.83492 0.75707 0.91277 0.0
C397 C 0.74018 0.66399 0.83834 0.0
C398 C 0.77488 0.67521 0.83133 0.0
C399 C 0.80537 0.70512 0.85626 0.0
C400 C 0.77807 0.65917 0.79604 0.0
C401 C 0.70816 0.63035 0.8144 0.0
C402 C 0.81887 0.6434 0.80298 0.0
C403 C 0.82404 0.63455 0.76918 0.0
C404 C 0.78855 0.64162 0.72783 0.0
C405 C 0.74705 0.65555 0.72106 0.0
C406 C 0.74199 0.66445 0.7548 0.0
H407 H 0.69507 0.61646 0.83289 0.0
H408 H 0.67893 0.64238 0.78515 0.0
H409 H 0.72463 0.60688 0.80592 0.0
H410 H 0.84724 0.63932 0.83461 0.0
H411 H 0.85642 0.62381 0.77556 0.0
H412 H 0.13834 0.11165 0.7243 0.0
H413 H 0.14765 0.12631 0.66526 0.0
H414 H 0.27672 0.17989 0.74973 0.0
H415 H 0.26826 0.1648 0.80881 0.0
H416 H 0.15293 0.20167 0.64308 0.0
H417 H 0.30408 0.11824 0.67259 0.0
H418 H 0.27434 0.10641 0.69886 0.0
H419 H 0.31472 0.14644 0.71764 0.0
C420 C 0.16922 0.12567 0.73048 0.0
C421 C 0.20236 0.13735 0.77135 0.0
C422 C 0.17447 0.13401 0.69666 0.0
C423 C 0.21307 0.15384 0.7031 0.0
C424 C 0.24711 0.16377 0.74404 0.0
H425 H 0.2439 0.33073 0.5592 0.0
H426 H 0.24019 0.28849 0.61029 0.0
C427 C 0.24196 0.15544 0.77782 0.0
C428 C 0.2152 0.16914 0.66702 0.0
H429 H 0.28409 0.17641 0.62765 0.0
C430 C 0.1812 0.1955 0.63927 0.0
C431 C 0.25192 0.16093 0.66183 0.0
C432 C 0.28807 0.13112 0.68908 0.0
C433 C 0.18414 0.21552 0.60795 0.0
C434 C 0.22235 0.20941 0.60465 0.0
C435 C 0.25517 0.18142 0.63076 0.0
C436 C 0.22952 0.23367 0.57569 0.0
C437 C 0.14681 0.24383 0.57919 0.0
C438 C 0.22642 0.21647 0.54011 0.0
C439 C 0.22853 0.24058 0.51064 0.0
C440 C 0.23396 0.28224 0.5165 0.0
C441 C 0.23937 0.29888 0.55341 0.0
C442 C 0.23716 0.27481 0.58267 0.0
H443 H 0.11529 0.23787 0.57892 0.0
H444 H 0.15737 0.27495 0.59013 0.0
H445 H 0.13963 0.24155 0.54665 0.0
H446 H 0.22071 0.18468 0.53438 0.0
H447 H 0.22437 0.22673 0.48266 0.0
H448 H 0.33913 0.4444 0.50989 0.0
H449 H 0.40709 0.4802 0.52602 0.0
H450 H 0.42503 0.40132 0.44459 0.0
H451 H 0.3561 0.36532 0.42761 0.0
H452 H 0.49675 0.45586 0.55881 0.0
H453 H 0.41711 0.51421 0.39611 0.0
H454 H 0.38506 0.49077 0.41567 0.0
H455 H 0.41741 0.46075 0.40089 0.0
C456 C 0.35769 0.4343 0.49565 0.0
C457 C 0.34194 0.40232 0.46702 0.0
C458 C 0.39659 0.45479 0.50502 0.0
C459 C 0.42045 0.44389 0.48585 0.0
C460 C 0.40645 0.41057 0.45908 0.0
H461 H 0.65103 0.54211 0.49283 0.0
H462 H 0.58294 0.50664 0.47695 0.0
C463 C 0.36741 0.38982 0.44974 0.0
C464 C 0.45871 0.46882 0.49276 0.0
H465 H 0.49282 0.53226 0.44343 0.0
C466 C 0.49599 0.47258 0.53365 0.0
C467 C 0.45717 0.49089 0.45985 0.0
C468 C 0.41694 0.48936 0.41568 0.0
C469 C 0.53235 0.4973 0.54241 0.0
C470 C 0.53086 0.51927 0.50947 0.0
C471 C 0.49355 0.51556 0.4686 0.0
C472 C 0.56927 0.5439 0.51631 0.0
C473 C 0.57254 0.49896 0.58659 0.0
C474 C 0.58317 0.57757 0.54258 0.0
C475 C 0.62225 0.59815 0.55174 0.0
C476 C 0.64788 0.58509 0.53482 0.0
C477 C 0.63232 0.55265 0.50677 0.0
C478 C 0.59336 0.53236 0.49755 0.0
H479 H 0.57211 0.47449 0.60639 0.0
H480 H 0.60441 0.49703 0.58663 0.0
H481 H 0.57234 0.52786 0.60107 0.0
H482 H 0.56445 0.58727 0.55679 0.0
H483 H 0.63343 0.62302 0.57344 0.0
H484 H 0.35387 0.12687 0.92813 0.0
H485 H 0.42457 0.09284 0.94665 0.0
H486 H 0.40699 0.0119 0.02651 0.0
H487 H 0.33729 0.04579 0.00892 0.0
H488 H 0.49593 0.03767 0.061 0.0
H489 H 0.42145 0.9812 0.89809 0.0
H490 H 0.42043 0.03453 0.90329 0.0
H491 H 0.38779 0.00348 0.91667 0.0
C492 C 0.3656 0.10234 0.95025 0.0
C493 C 0.33974 0.08869 0.96664 0.0
C494 C 0.40569 0.08273 0.96049 0.0
C495 C 0.42034 0.04937 0.98723 0.0
C496 C 0.39603 0.03736 0.00555 0.0
H497 H 0.63408 0.87014 0.07515 0.0
H498 H 0.56557 0.90705 0.05876 0.0
C499 C 0.35611 0.05675 0.99532 0.0
C500 C 0.45964 0.02538 0.99481 0.0
H501 H 0.49707 0.96364 0.94658 0.0
C502 C 0.49629 0.02151 0.03604 0.0
C503 C 0.45959 0.00401 0.96214 0.0
C504 C 0.42011 0.0056 0.91758 0.0
C505 C 0.53337 -0.00274 0.04542 0.0
C506 C 0.53329 0.97593 0.01275 0.0
C507 C 0.49671 0.97986 0.97153 0.0
C508 C 0.57223 0.95143 0.02034 0.0
C509 C 0.57273 -0.00473 0.09 0.0
C510 C 0.59736 0.96339 0.00284 0.0
C511 C 0.63608 0.94248 0.01195 0.0
C512 C 0.65035 0.90896 0.03858 0.0
C513 C 0.62392 0.89582 0.05455 0.0
C514 C 0.58509 0.91703 0.04553 0.0
H515 H 0.57124 0.01928 0.1098 0.0
H516 H 0.57249 0.96604 0.10382 0.0
H517 H 0.60507 -0.00226 0.09099 0.0
H518 H 0.58775 0.98968 0.98309 0.0
H519 H 0.6554 0.95317 0.99876 0.0
loop_
_geom_bond_atom_site_label_1
_geom_bond_atom_site_label_2
_geom_bond_distance
_geom_bond_site_symmetry_2
_ccdc_geom_bond_type
Sc0 O3 2.025 . S
Sc0 O10 2.105 . S
Sc0 O13 2.105 . S
Sc0 O16 2.105 . S
Sc0 O19 2.105 . S
Sc1 O3 2.025 . S
Sc1 O11 2.105 . S
Sc1 O15 2.105 . S
Sc1 O17 2.105 . S
Sc1 O21 2.105 . S
Sc2 O3 2.025 . S
Sc2 O12 2.105 . S
Sc2 O14 2.105 . S
Sc2 O18 2.105 . S
Sc2 O20 2.105 . S
O3 Sc0 2.025 . S
O3 Sc1 2.025 . S
O3 Sc2 2.025 . S
C4 O10 1.268 . S
C4 O20 1.268 . S
C5 O11 1.268 . S
C5 O19 1.268 . S
C6 O12 1.268 . S
C6 O21 1.268 . S
C7 O13 1.268 . S
C7 O17 1.268 . S
C8 O14 1.268 . S
C8 O16 1.268 . S
C9 O15 1.268 . S
C9 O18 1.268 . S
O10 Sc0 2.105 . S
O10 C4 1.268 . S
O11 Sc1 2.105 . S
O11 C5 1.268 . S
O12 Sc2 2.105 . S
O12 C6 1.268 . S
O13 Sc0 2.105 . S
O13 C7 1.268 . S
O14 Sc2 2.105 . S
O14 C8 1.268 . S
O15 Sc1 2.105 . S
O15 C9 1.268 . S
O16 Sc0 2.105 . S
O16 C8 1.268 . S
O17 Sc1 2.105 . S
O17 C7 1.268 . S
O18 Sc2 2.105 . S
O18 C9 1.268 . S
O19 Sc0 2.105 . S
O19 C5 1.268 . S
O20 Sc2 2.105 . S
O20 C4 1.268 . S
O21 Sc1 2.105 . S
O21 C6 1.268 . S
Sc22 O25 2.025 . S
Sc22 O32 2.105 . S
Sc22 O35 2.105 . S
Sc22 O38 2.105 . S
Sc22 O41 2.105 . S
Sc23 O25 2.025 . S
Sc23 O33 2.105 . S
Sc23 O37 2.105 . S
Sc23 O39 2.105 . S
Sc23 O43 2.105 . S
Sc24 O25 2.025 . S
Sc24 O34 2.105 . S
Sc24 O36 2.105 . S
Sc24 O40 2.105 . S
Sc24 O42 2.105 . S
O25 Sc22 2.025 . S
O25 Sc23 2.025 . S
O25 Sc24 2.025 . S
C26 O32 1.268 . S
C26 O42 1.268 . S
C27 O33 1.268 . S
C27 O41 1.268 . S
C28 O34 1.268 . S
C28 O43 1.268 . S
C29 O35 1.268 . S
C29 O39 1.268 . S
C30 O36 1.268 . S
C30 O38 1.268 . S
C31 O37 1.268 . S
C31 O40 1.268 . S
O32 Sc22 2.105 . S
O32 C26 1.268 . S
O33 Sc23 2.105 . S
O33 C27 1.268 . S
O34 Sc24 2.105 . S
O34 C28 1.268 . S
O35 Sc22 2.105 . S
O35 C29 1.268 . S
O36 Sc24 2.105 . S
O36 C30 1.268 . S
O37 Sc23 2.105 . S
O37 C31 1.268 . S
O38 Sc22 2.105 . S
O38 C30 1.268 . S
O39 Sc23 2.105 . S
O39 C29 1.268 . S
O40 Sc24 2.105 . S
O40 C31 1.268 . S
O41 Sc22 2.105 . S
O41 C27 1.268 . S
O42 Sc24 2.105 . S
O42 C26 1.268 . S
O43 Sc23 2.105 . S
O43 C28 1.268 . S
Sc44 O47 2.025 . S
Sc44 O54 2.105 . S
Sc44 O57 2.105 . S
Sc44 O60 2.105 . S
Sc44 O63 2.105 . S
Sc45 O47 2.025 . S
Sc45 O55 2.105 . S
Sc45 O59 2.105 . S
Sc45 O61 2.105 . S
Sc45 O65 2.105 . S
Sc46 O47 2.025 . S
Sc46 O56 2.105 . S
Sc46 O58 2.105 . S
Sc46 O62 2.105 . S
Sc46 O64 2.105 . S
O47 Sc44 2.025 . S
O47 Sc45 2.025 . S
O47 Sc46 2.025 . S
C48 O54 1.268 . S
C48 O64 1.268 . S
C49 O55 1.268 . S
C49 O63 1.268 . S
C50 O56 1.268 . S
C50 O65 1.268 . S
C51 O57 1.268 . S
C51 O61 1.268 . S
C52 O58 1.268 . S
C52 O60 1.268 . S
C53 O59 1.268 . S
C53 O62 1.268 . S
O54 Sc44 2.105 . S
O54 C48 1.268 . S
O55 Sc45 2.105 . S
O55 C49 1.268 . S
O56 Sc46 2.105 . S
O56 C50 1.268 . S
O57 Sc44 2.105 . S
O57 C51 1.268 . S
O58 Sc46 2.105 . S
O58 C52 1.268 . S
O59 Sc45 2.105 . S
O59 C53 1.268 . S
O60 Sc44 2.105 . S
O60 C52 1.268 . S
O61 Sc45 2.105 . S
O61 C51 1.268 . S
O62 Sc46 2.105 . S
O62 C53 1.268 . S
O63 Sc44 2.105 . S
O63 C49 1.268 . S
O64 Sc46 2.105 . S
O64 C48 1.268 . S
O65 Sc45 2.105 . S
O65 C50 1.268 . S
Sc66 O69 2.025 . S
Sc66 O76 2.105 . S
Sc66 O79 2.105 . S
Sc66 O82 2.105 . S
Sc66 O85 2.105 . S
Sc67 O69 2.025 . S
Sc67 O77 2.105 . S
Sc67 O81 2.105 . S
Sc67 O83 2.105 . S
Sc67 O87 2.105 . S
Sc68 O69 2.025 . S
Sc68 O78 2.105 . S
Sc68 O80 2.105 . S
Sc68 O84 2.105 . S
Sc68 O86 2.105 . S
O69 Sc66 2.025 . S
O69 Sc67 2.025 . S
O69 Sc68 2.025 . S
C70 O76 1.268 . S
C70 O86 1.268 . S
C71 O77 1.268 . S
C71 O85 1.268 . S
C72 O78 1.268 . S
C72 O87 1.268 . S
C73 O79 1.268 . S
C73 O83 1.268 . S
C74 O80 1.268 . S
C74 O82 1.268 . S
C75 O81 1.268 . S
C75 O84 1.268 . S
O76 Sc66 2.105 . S
O76 C70 1.268 . S
O77 Sc67 2.105 . S
O77 C71 1.268 . S
O78 Sc68 2.105 . S
O78 C72 1.268 . S
O79 Sc66 2.105 . S
O79 C73 1.268 . S
O80 Sc68 2.105 . S
O80 C74 1.268 . S
O81 Sc67 2.105 . S
O81 C75 1.268 . S
O82 Sc66 2.105 . S
O82 C74 1.268 . S
O83 Sc67 2.105 . S
O83 C73 1.268 . S
O84 Sc68 2.105 . S
O84 C75 1.268 . S
O85 Sc66 2.105 . S
O85 C71 1.268 . S
O86 Sc68 2.105 . S
O86 C70 1.268 . S
O87 Sc67 2.105 . S
O87 C72 1.268 . S
H88 C96 0.929 1_565 S
H89 C98 0.930 . S
H90 C100 0.930 . S
H91 C103 0.929 . S
H92 C106 0.930 1_455 S
H93 C108 0.960 . S
H94 C108 0.960 . S
H95 C108 0.960 . S
C96 H88 0.929 1_545 S
C96 C97 1.377 . S
C96 C98 1.384 . S
C97 C96 1.377 . S
C97 C103 1.390 . S
C98 H89 0.930 . S
C98 C96 1.384 . S
C98 C99 1.372 . S
C99 C98 1.372 . S
C99 C100 1.400 . S
C99 C104 1.490 . S
C100 H90 0.930 . S
C100 C99 1.400 . S
C100 C103 1.386 . S
H101 C117 0.930 . S
H102 C118 0.931 . S
C103 H91 0.929 . S
C103 C97 1.390 . S
C103 C100 1.386 . S
C104 C99 1.490 . S
C104 C106 1.395 . S
C104 C107 1.403 . S
H105 C111 0.930 . S
C106 H92 0.930 1_655 S
C106 C104 1.395 . S
C106 C109 1.403 1_655 S
C107 C104 1.403 . S
C107 C108 1.524 . S
C107 C111 1.400 . S
C108 H93 0.960 . S
C108 H94 0.960 . S
C108 H95 0.960 . S
C108 C107 1.524 . S
C109 C106 1.403 1_455 S
C109 C110 1.392 . S
C109 C113 1.495 . S
C110 C109 1.392 . S
C110 C111 1.385 1_455 S
C110 C112 1.478 . S
C111 H105 0.930 . S
C111 C107 1.400 . S
C111 C110 1.385 1_655 S
C112 C110 1.478 . S
C112 C114 1.381 . S
C112 C118 1.383 . S
C113 C109 1.495 . S
C113 H119 0.959 . S
C113 H120 0.961 . S
C113 H121 0.960 . S
C114 C112 1.381 . S
C114 C115 1.394 . S
C114 H122 0.930 . S
C115 C114 1.394 . S
C115 C116 1.383 . S
C115 H123 0.929 . S
C116 C115 1.383 . S
C116 C117 1.377 . S
C117 H101 0.930 . S
C117 C116 1.377 . S
C117 C118 1.379 . S
C118 H102 0.931 . S
C118 C112 1.383 . S
C118 C117 1.379 . S
H119 C113 0.959 . S
H120 C113 0.961 . S
H121 C113 0.960 . S
H122 C114 0.930 . S
H123 C115 0.929 . S
H124 C132 0.929 . S
H125 C134 0.930 . S
H126 C136 0.930 . S
H127 C139 0.929 . S
H128 C142 0.927 1_655 S
H129 C144 0.960 . S
H130 C144 0.960 . S
H131 C144 0.960 . S
C132 H124 0.929 . S
C132 C133 1.377 . S
C132 C134 1.384 . S
C133 C132 1.377 . S
C133 C139 1.390 . S
C134 H125 0.930 . S
C134 C132 1.384 . S
C134 C135 1.372 . S
C135 C134 1.372 . S
C135 C136 1.400 . S
C135 C140 1.490 . S
C136 H126 0.930 . S
C136 C135 1.400 . S
C136 C139 1.386 . S
H137 C153 0.930 . S
H138 C154 0.931 . S
C139 H127 0.929 . S
C139 C133 1.390 . S
C139 C136 1.386 . S
C140 C135 1.490 . S
C140 C142 1.395 . S
C140 C143 1.403 . S
H141 C147 0.930 . S
C142 H128 0.927 1_455 S
C142 C140 1.395 . S
C142 C145 1.403 1_455 S
C143 C140 1.403 . S
C143 C144 1.524 . S
C143 C147 1.400 . S
C144 H129 0.960 . S
C144 H130 0.960 . S
C144 H131 0.960 . S
C144 C143 1.524 . S
C145 C142 1.403 1_655 S
C145 C146 1.392 . S
C145 C149 1.495 . S
C146 C145 1.392 . S
C146 C147 1.385 1_655 S
C146 C148 1.478 . S
C147 H141 0.930 . S
C147 C143 1.400 . S
C147 C146 1.385 1_455 S
C148 C146 1.478 . S
C148 C150 1.381 . S
C148 C154 1.383 . S
C149 C145 1.495 . S
C149 H155 0.959 . S
C149 H156 0.961 . S
C149 H157 0.960 . S
C150 C148 1.381 . S
C150 C151 1.394 . S
C150 H158 0.930 . S
C151 C150 1.394 . S
C151 C152 1.383 . S
C151 H159 0.929 . S
C152 C151 1.383 . S
C152 C153 1.377 . S
C153 H137 0.930 . S
C153 C152 1.377 . S
C153 C154 1.379 . S
C154 H138 0.931 . S
C154 C148 1.383 . S
C154 C153 1.379 . S
H155 C149 0.959 . S
H156 C149 0.961 . S
H157 C149 0.960 . S
H158 C150 0.930 . S
H159 C151 0.929 . S
H160 C168 0.929 . S
H161 C170 0.930 . S
H162 C172 0.930 . S
H163 C175 0.929 . S
H164 C178 0.930 . S
H165 C180 0.960 . S
H166 C180 0.960 . S
H167 C180 0.960 . S
C168 H160 0.929 . S
C168 C169 1.377 . S
C168 C170 1.384 . S
C169 C168 1.377 . S
C169 C175 1.390 . S
C170 H161 0.930 . S
C170 C168 1.384 . S
C170 C171 1.372 . S
C171 C170 1.372 . S
C171 C172 1.400 . S
C171 C176 1.490 . S
C172 H162 0.930 . S
C172 C171 1.400 . S
C172 C175 1.386 . S
H173 C189 0.930 . S
H174 C190 0.931 . S
C175 H163 0.929 . S
C175 C169 1.390 . S
C175 C172 1.386 . S
C176 C171 1.490 . S
C176 C178 1.395 . S
C176 C179 1.403 . S
H177 C183 0.930 . S
C178 H164 0.930 . S
C178 C176 1.395 . S
C178 C181 1.403 . S
C179 C176 1.403 . S
C179 C180 1.524 1_455 S
C179 C183 1.400 1_455 S
C180 H165 0.960 . S
C180 H166 0.960 . S
C180 H167 0.960 . S
C180 C179 1.524 1_655 S
C181 C178 1.403 . S
C181 C182 1.373 1_455 S
C181 C185 1.495 . S
C182 C181 1.373 1_655 S
C182 C183 1.395 . S
C182 C184 1.488 . S
C183 H177 0.930 . S
C183 C179 1.400 1_655 S
C183 C182 1.395 . S
C184 C182 1.488 . S
C184 C186 1.381 . S
C184 C190 1.383 . S
C185 C181 1.495 . S
C185 H191 0.959 . S
C185 H192 0.961 . S
C185 H193 0.960 . S
C186 C184 1.381 . S
C186 C187 1.394 . S
C186 H194 0.930 . S
C187 C186 1.394 . S
C187 C188 1.383 . S
C187 H195 0.929 . S
C188 C187 1.383 . S
C188 C189 1.377 . S
C189 H173 0.930 . S
C189 C188 1.377 . S
C189 C190 1.379 . S
C190 H174 0.931 . S
C190 C184 1.383 . S
C190 C189 1.379 . S
H191 C185 0.959 . S
H192 C185 0.961 . S
H193 C185 0.960 . S
H194 C186 0.930 . S
H195 C187 0.929 . S
H196 C204 0.929 . S
H197 C206 0.930 . S
H198 C208 0.930 . S
H199 C211 0.929 . S
H200 C214 0.930 . S
H201 C216 0.960 . S
H202 C216 0.960 . S
H203 C216 0.960 . S
C204 H196 0.929 . S
C204 C205 1.377 . S
C204 C206 1.384 . S
C205 C204 1.377 . S
C205 C211 1.390 . S
C206 H197 0.930 . S
C206 C204 1.384 . S
C206 C207 1.372 . S
C207 C206 1.372 . S
C207 C208 1.400 . S
C207 C212 1.490 . S
C208 H198 0.930 . S
C208 C207 1.400 . S
C208 C211 1.386 . S
H209 C225 0.930 . S
H210 C226 0.931 . S
C211 H199 0.929 . S
C211 C205 1.390 . S
C211 C208 1.386 . S
C212 C207 1.490 . S
C212 C214 1.395 . S
C212 C215 1.403 . S
H213 C219 0.930 . S
C214 H200 0.930 . S
C214 C212 1.395 . S
C214 C217 1.403 1_655 S
C215 C212 1.403 . S
C215 C216 1.524 . S
C215 C219 1.400 . S
C216 H201 0.960 . S
C216 H202 0.960 . S
C216 H203 0.960 . S
C216 C215 1.524 . S
C217 C214 1.403 1_455 S
C217 C218 1.392 . S
C217 C221 1.495 . S
C218 C217 1.392 . S
C218 C219 1.385 1_455 S
C218 C220 1.478 . S
C219 H213 0.930 . S
C219 C215 1.400 . S
C219 C218 1.385 1_655 S
C220 C218 1.478 . S
C220 C222 1.381 . S
C220 C226 1.383 . S
C221 C217 1.495 . S
C221 H227 0.959 . S
C221 H228 0.961 . S
C221 H229 0.960 . S
C222 C220 1.381 . S
C222 C223 1.394 . S
C222 H230 0.930 . S
C223 C222 1.394 . S
C223 C224 1.383 . S
C223 H231 0.929 . S
C224 C223 1.383 . S
C224 C225 1.377 . S
C225 H209 0.930 . S
C225 C224 1.377 . S
C225 C226 1.379 . S
C226 H210 0.931 . S
C226 C220 1.383 . S
C226 C225 1.379 . S
H227 C221 0.959 . S
H228 C221 0.961 . S
H229 C221 0.960 . S
H230 C222 0.930 . S
H231 C223 0.929 . S
H232 C240 0.929 . S
H233 C242 0.930 . S
H234 C244 0.930 1_455 S
H235 C247 0.929 . S
H236 C250 0.930 . S
H237 C252 0.960 . S
H238 C252 0.960 1_655 S
H239 C252 0.960 . S
C240 H232 0.929 . S
C240 C241 1.377 . S
C240 C242 1.384 . S
C241 C240 1.377 . S
C241 C247 1.390 . S
C242 H233 0.930 . S
C242 C240 1.384 . S
C242 C243 1.372 . S
C243 C242 1.372 . S
C243 C244 1.400 . S
C243 C248 1.490 . S
C244 H234 0.930 1_655 S
C244 C243 1.400 . S
C244 C247 1.386 . S
H245 C261 0.930 . S
H246 C262 0.931 . S
C247 H235 0.929 . S
C247 C241 1.390 . S
C247 C244 1.386 . S
C248 C243 1.490 . S
C248 C250 1.395 . S
C248 C251 1.403 1_655 S
H249 C255 0.930 . S
C250 H236 0.930 . S
C250 C248 1.395 . S
C250 C253 1.403 . S
C251 C248 1.403 1_455 S
C251 C252 1.524 . S
C251 C255 1.400 . S
C252 H237 0.960 . S
C252 H238 0.960 1_455 S
C252 H239 0.960 . S
C252 C251 1.524 . S
C253 C250 1.403 . S
C253 C254 1.392 1_655 S
C253 C257 1.495 . S
C254 C253 1.392 1_455 S
C254 C255 1.385 . S
C254 C256 1.478 . S
C255 H249 0.930 . S
C255 C251 1.400 . S
C255 C254 1.385 . S
C256 C254 1.478 . S
C256 C258 1.381 . S
C256 C262 1.383 . S
C257 C253 1.495 . S
C257 H263 0.959 . S
C257 H264 0.961 . S
C257 H265 0.960 . S
C258 C256 1.381 . S
C258 C259 1.394 . S
C258 H266 0.930 1_455 S
C259 C258 1.394 . S
C259 C260 1.383 . S
C259 H267 0.929 . S
C260 C259 1.383 . S
C260 C261 1.377 . S
C261 H245 0.930 . S
C261 C260 1.377 . S
C261 C262 1.379 . S
C262 H246 0.931 . S
C262 C256 1.383 . S
C262 C261 1.379 . S
H263 C257 0.959 . S
H264 C257 0.961 . S
H265 C257 0.960 . S
H266 C258 0.930 1_655 S
H267 C259 0.929 . S
H268 C276 0.929 . S
H269 C278 0.930 1_556 S
H270 C280 0.930 1_455 S
H271 C283 0.929 . S
H272 C286 0.930 . S
H273 C288 0.960 . S
H274 C288 0.960 . S
H275 C288 0.960 . S
C276 H268 0.929 . S
C276 C277 1.377 . S
C276 C278 1.384 . S
C277 C276 1.377 . S
C277 C283 1.390 . S
C278 H269 0.930 1_554 S
C278 C276 1.384 . S
C278 C279 1.372 . S
C279 C278 1.372 . S
C279 C280 1.400 . S
C279 C284 1.490 . S
C280 H270 0.930 1_655 S
C280 C279 1.400 . S
C280 C283 1.386 . S
H281 C297 0.930 . S
H282 C298 0.931 1_554 S
C283 H271 0.929 . S
C283 C277 1.390 . S
C283 C280 1.386 . S
C284 C279 1.490 . S
C284 C286 1.395 1_564 S
C284 C287 1.403 1_655 S
H285 C291 0.941 1_554 S
C286 H272 0.930 . S
C286 C284 1.395 1_546 S
C286 C289 1.403 . S
C287 C284 1.403 1_455 S
C287 C288 1.524 . S
C287 C291 1.400 1_554 S
C288 H273 0.960 . S
C288 H274 0.960 . S
C288 H275 0.960 . S
C288 C287 1.524 . S
C289 C286 1.403 . S
C289 C290 1.392 1_655 S
C289 C293 1.495 . S
C290 C289 1.392 1_455 S
C290 C291 1.385 1_545 S
C290 C292 1.478 . S
C291 H285 0.941 1_556 S
C291 C287 1.400 1_556 S
C291 C290 1.385 1_565 S
C292 C290 1.478 . S
C292 C294 1.381 . S
C292 C298 1.383 . S
C293 C289 1.495 . S
C293 H299 0.959 . S
C293 H300 0.961 . S
C293 H301 0.960 . S
C294 C292 1.381 . S
C294 C295 1.394 . S
C294 H302 0.930 1_455 S
C295 C294 1.394 . S
C295 C296 1.383 . S
C295 H303 0.929 . S
C296 C295 1.383 . S
C296 C297 1.377 . S
C297 H281 0.930 . S
C297 C296 1.377 . S
C297 C298 1.379 . S
C298 H282 0.931 1_556 S
C298 C292 1.383 . S
C298 C297 1.379 . S
H299 C293 0.959 . S
H300 C293 0.961 . S
H301 C293 0.960 . S
H302 C294 0.930 1_655 S
H303 C295 0.929 . S
H304 C312 0.929 . S
H305 C314 0.930 . S
H306 C316 0.930 . S
H307 C319 0.929 1_556 S
H308 C322 0.930 . S
H309 C324 0.960 . S
H310 C324 0.960 . S
H311 C324 0.960 . S
C312 H304 0.929 . S
C312 C313 1.377 . S
C312 C314 1.384 . S
C313 C312 1.377 . S
C313 C319 1.390 . S
C314 H305 0.930 . S
C314 C312 1.384 . S
C314 C315 1.372 . S
C315 C314 1.372 . S
C315 C316 1.400 . S
C315 C320 1.490 . S
C316 H306 0.930 . S
C316 C315 1.400 . S
C316 C319 1.386 . S
H317 C333 0.930 . S
H318 C334 0.931 . S
C319 H307 0.929 1_554 S
C319 C313 1.390 . S
C319 C316 1.386 . S
C320 C315 1.490 . S
C320 C322 1.395 . S
C320 C323 1.403 . S
H321 C327 0.930 . S
C322 H308 0.930 . S
C322 C320 1.395 . S
C322 C325 1.403 . S
C323 C320 1.403 . S
C323 C324 1.524 . S
C323 C327 1.400 . S
C324 H309 0.960 . S
C324 H310 0.960 . S
C324 H311 0.960 . S
C324 C323 1.524 . S
C325 C322 1.403 . S
C325 C326 1.392 . S
C325 C329 1.495 . S
C326 C325 1.392 . S
C326 C327 1.385 . S
C326 C328 1.478 . S
C327 H321 0.930 . S
C327 C323 1.400 . S
C327 C326 1.385 . S
C328 C326 1.478 . S
C328 C330 1.381 . S
C328 C334 1.383 . S
C329 C325 1.495 . S
C329 H335 0.959 . S
C329 H336 0.961 . S
C329 H337 0.960 . S
C330 C328 1.381 . S
C330 C331 1.394 . S
C330 H338 0.930 . S
C331 C330 1.394 . S
C331 C332 1.383 . S
C331 H339 0.929 . S
C332 C331 1.383 . S
C332 C333 1.377 . S
C333 H317 0.930 . S
C333 C332 1.377 . S
C333 C334 1.379 . S
C334 H318 0.931 . S
C334 C328 1.383 . S
C334 C333 1.379 . S
H335 C329 0.959 . S
H336 C329 0.961 . S
H337 C329 0.960 . S
H338 C330 0.930 . S
H339 C331 0.929 . S
H340 C348 0.929 . S
H341 C350 0.930 . S
H342 C352 0.930 . S
H343 C355 0.929 . S
H344 C358 0.930 . S
H345 C360 0.960 . S
H346 C360 0.960 . S
H347 C360 0.960 . S
C348 H340 0.929 . S
C348 C349 1.377 . S
C348 C350 1.384 . S
C349 C348 1.377 . S
C349 C355 1.390 . S
C350 H341 0.930 . S
C350 C348 1.384 . S
C350 C351 1.372 . S
C351 C350 1.372 . S
C351 C352 1.400 . S
C351 C356 1.490 . S
C352 H342 0.930 . S
C352 C351 1.400 . S
C352 C355 1.386 . S
H353 C369 0.930 . S
H354 C370 0.931 . S
C355 H343 0.929 . S
C355 C349 1.390 . S
C355 C352 1.386 . S
C356 C351 1.490 . S
C356 C358 1.395 . S
C356 C359 1.403 . S
H357 C363 0.930 . S
C358 H344 0.930 . S
C358 C356 1.395 . S
C358 C361 1.403 . S
C359 C356 1.403 . S
C359 C360 1.524 . S
C359 C363 1.400 . S
C360 H345 0.960 . S
C360 H346 0.960 . S
C360 H347 0.960 . S
C360 C359 1.524 . S
C361 C358 1.403 . S
C361 C362 1.392 . S
C361 C365 1.495 . S
C362 C361 1.392 . S
C362 C363 1.385 . S
C362 C364 1.478 . S
C363 H357 0.930 . S
C363 C359 1.400 . S
C363 C362 1.385 . S
C364 C362 1.478 . S
C364 C366 1.381 . S
C364 C370 1.383 . S
C365 C361 1.495 . S
C365 H371 0.959 . S
C365 H372 0.961 . S
C365 H373 0.960 . S
C366 C364 1.381 . S
C366 C367 1.394 . S
C366 H374 0.930 . S
C367 C366 1.394 . S
C367 C368 1.383 . S
C367 H375 0.929 . S
C368 C367 1.383 . S
C368 C369 1.377 . S
C369 H353 0.930 . S
C369 C368 1.377 . S
C369 C370 1.379 . S
C370 H354 0.931 . S
C370 C364 1.383 . S
C370 C369 1.379 . S
H371 C365 0.959 . S
H372 C365 0.961 . S
H373 C365 0.960 . S
H374 C366 0.930 . S
H375 C367 0.929 . S
H376 C384 0.929 . S
H377 C386 0.930 . S
H378 C388 0.930 . S
H379 C391 0.929 . S
H380 C394 0.930 . S
H381 C396 0.960 . S
H382 C396 0.960 . S
H383 C396 0.960 . S
C384 H376 0.929 . S
C384 C385 1.377 . S
C384 C386 1.384 . S
C385 C384 1.377 . S
C385 C391 1.390 . S
C386 H377 0.930 . S
C386 C384 1.384 . S
C386 C387 1.372 . S
C387 C386 1.372 . S
C387 C388 1.400 . S
C387 C392 1.490 . S
C388 H378 0.930 . S
C388 C387 1.400 . S
C388 C391 1.386 . S
H389 C405 0.930 . S
H390 C406 0.931 . S
C391 H379 0.929 . S
C391 C385 1.390 . S
C391 C388 1.386 . S
C392 C387 1.490 . S
C392 C394 1.395 . S
C392 C395 1.403 . S
H393 C399 0.930 . S
C394 H380 0.930 . S
C394 C392 1.395 . S
C394 C397 1.403 . S
C395 C392 1.403 . S
C395 C396 1.524 . S
C395 C399 1.400 . S
C396 H381 0.960 . S
C396 H382 0.960 . S
C396 H383 0.960 . S
C396 C395 1.524 . S
C397 C394 1.403 . S
C397 C398 1.392 . S
C397 C401 1.495 . S
C398 C397 1.392 . S
C398 C399 1.385 . S
C398 C400 1.478 . S
C399 H393 0.930 . S
C399 C395 1.400 . S
C399 C398 1.385 . S
C400 C398 1.478 . S
C400 C402 1.381 . S
C400 C406 1.383 . S
C401 C397 1.495 . S
C401 H407 0.959 . S
C401 H408 0.961 . S
C401 H409 0.960 . S
C402 C400 1.381 . S
C402 C403 1.394 . S
C402 H410 0.930 . S
C403 C402 1.394 . S
C403 C404 1.383 . S
C403 H411 0.929 . S
C404 C403 1.383 . S
C404 C405 1.377 . S
C405 H389 0.930 . S
C405 C404 1.377 . S
C405 C406 1.379 . S
C406 H390 0.931 . S
C406 C400 1.383 . S
C406 C405 1.379 . S
H407 C401 0.959 . S
H408 C401 0.961 . S
H409 C401 0.960 . S
H410 C402 0.930 . S
H411 C403 0.929 . S
H412 C420 0.929 . S
H413 C422 0.930 . S
H414 C424 0.930 . S
H415 C427 0.929 . S
H416 C430 0.930 . S
H417 C432 0.960 . S
H418 C432 0.960 . S
H419 C432 0.960 . S
C420 H412 0.929 . S
C420 C421 1.377 . S
C420 C422 1.384 . S
C421 C420 1.377 . S
C421 C427 1.390 . S
C422 H413 0.930 . S
C422 C420 1.384 . S
C422 C423 1.372 . S
C423 C422 1.372 . S
C423 C424 1.400 . S
C423 C428 1.490 . S
C424 H414 0.930 . S
C424 C423 1.400 . S
C424 C427 1.386 . S
H425 C441 0.930 . S
H426 C442 0.931 . S
C427 H415 0.929 . S
C427 C421 1.390 . S
C427 C424 1.386 . S
C428 C423 1.490 . S
C428 C430 1.395 . S
C428 C431 1.403 . S
H429 C435 0.930 . S
C430 H416 0.930 . S
C430 C428 1.395 . S
C430 C433 1.403 . S
C431 C428 1.403 . S
C431 C432 1.524 . S
C431 C435 1.400 . S
C432 H417 0.960 . S
C432 H418 0.960 . S
C432 H419 0.960 . S
C432 C431 1.524 . S
C433 C430 1.403 . S
C433 C434 1.392 . S
C433 C437 1.495 . S
C434 C433 1.392 . S
C434 C435 1.385 . S
C434 C436 1.478 . S
C435 H429 0.930 . S
C435 C431 1.400 . S
C435 C434 1.385 . S
C436 C434 1.478 . S
C436 C438 1.381 . S
C436 C442 1.383 . S
C437 C433 1.495 . S
C437 H443 0.959 . S
C437 H444 0.961 . S
C437 H445 0.960 . S
C438 C436 1.381 . S
C438 C439 1.394 . S
C438 H446 0.930 . S
C439 C438 1.394 . S
C439 C440 1.383 . S
C439 H447 0.929 . S
C440 C439 1.383 . S
C440 C441 1.377 . S
C441 H425 0.930 . S
C441 C440 1.377 . S
C441 C442 1.379 . S
C442 H426 0.931 . S
C442 C436 1.383 . S
C442 C441 1.379 . S
H443 C437 0.959 . S
H444 C437 0.961 . S
H445 C437 0.960 . S
H446 C438 0.930 . S
H447 C439 0.929 . S
H448 C456 0.929 . S
H449 C458 0.930 . S
H450 C460 0.930 . S
H451 C463 0.929 . S
H452 C466 0.930 . S
H453 C468 0.960 . S
H454 C468 0.960 . S
H455 C468 0.960 . S
C456 H448 0.929 . S
C456 C457 1.377 . S
C456 C458 1.384 . S
C457 C456 1.377 . S
C457 C463 1.390 . S
C458 H449 0.930 . S
C458 C456 1.384 . S
C458 C459 1.372 . S
C459 C458 1.372 . S
C459 C460 1.400 . S
C459 C464 1.490 . S
C460 H450 0.930 . S
C460 C459 1.400 . S
C460 C463 1.386 . S
H461 C477 0.930 . S
H462 C478 0.931 . S
C463 H451 0.929 . S
C463 C457 1.390 . S
C463 C460 1.386 . S
C464 C459 1.490 . S
C464 C466 1.395 . S
C464 C467 1.403 . S
H465 C471 0.930 . S
C466 H452 0.930 . S
C466 C464 1.395 . S
C466 C469 1.403 . S
C467 C464 1.403 . S
C467 C468 1.524 . S
C467 C471 1.400 . S
C468 H453 0.960 . S
C468 H454 0.960 . S
C468 H455 0.960 . S
C468 C467 1.524 . S
C469 C466 1.403 . S
C469 C470 1.392 . S
C469 C473 1.495 . S
C470 C469 1.392 . S
C470 C471 1.385 . S
C470 C472 1.478 . S
C471 H465 0.930 . S
C471 C467 1.400 . S
C471 C470 1.385 . S
C472 C470 1.478 . S
C472 C474 1.381 . S
C472 C478 1.383 . S
C473 C469 1.495 . S
C473 H479 0.959 . S
C473 H480 0.961 . S
C473 H481 0.960 . S
C474 C472 1.381 . S
C474 C475 1.394 . S
C474 H482 0.930 . S
C475 C474 1.394 . S
C475 C476 1.383 . S
C475 H483 0.929 . S
C476 C475 1.383 . S
C476 C477 1.377 . S
C477 H461 0.930 . S
C477 C476 1.377 . S
C477 C478 1.379 . S
C478 H462 0.931 . S
C478 C472 1.383 . S
C478 C477 1.379 . S
H479 C473 0.959 . S
H480 C473 0.961 . S
H481 C473 0.960 . S
H482 C474 0.930 . S
H483 C475 0.929 . S
H484 C492 0.929 . S
H485 C494 0.930 1_554 S
H486 C496 0.930 1_565 S
H487 C499 0.929 . S
H488 C502 0.930 . S
H489 C504 0.960 . S
H490 C504 0.960 . S
H491 C504 0.960 . S
C492 H484 0.929 . S
C492 C493 1.377 . S
C492 C494 1.384 . S
C493 C492 1.377 . S
C493 C499 1.390 . S
C494 H485 0.930 1_556 S
C494 C492 1.384 . S
C494 C495 1.372 . S
C495 C494 1.372 . S
C495 C496 1.400 . S
C495 C500 1.490 . S
C496 H486 0.930 1_545 S
C496 C495 1.400 . S
C496 C499 1.386 . S
H497 C513 0.930 . S
H498 C514 0.933 . S
C499 H487 0.929 . S
C499 C493 1.390 . S
C499 C496 1.386 . S
C500 C495 1.490 . S
C500 C502 1.395 1_556 S
C500 C503 1.403 . S
H501 C507 0.930 . S
C502 H488 0.930 . S
C502 C500 1.395 1_554 S
C502 C505 1.403 1_545 S
C503 C500 1.403 . S
C503 C504 1.524 . S
C503 C507 1.400 1_545 S
C504 H489 0.960 . S
C504 H490 0.960 . S
C504 H491 0.960 . S
C504 C503 1.524 . S
C505 C502 1.403 1_565 S
C505 C506 1.392 . S
C505 C509 1.495 . S
C506 C505 1.392 . S
C506 C507 1.385 1_554 S
C506 C508 1.478 . S
C507 H501 0.930 . S
C507 C503 1.400 1_565 S
C507 C506 1.385 1_556 S
C508 C506 1.478 . S
C508 C510 1.381 . S
C508 C514 1.383 . S
C509 C505 1.495 . S
C509 H515 0.959 . S
C509 H516 0.961 . S
C509 H517 0.960 . S
C510 C508 1.381 . S
C510 C511 1.394 . S
C510 H518 0.930 1_565 S
C511 C510 1.394 . S
C511 C512 1.383 . S
C511 H519 0.929 . S
C512 C511 1.383 . S
C512 C513 1.377 . S
C513 H497 0.930 . S
C513 C512 1.377 . S
C513 C514 1.379 . S
C514 H498 0.933 . S
C514 C508 1.383 . S
C514 C513 1.379 . S
H515 C509 0.959 . S
H516 C509 0.961 . S
H517 C509 0.960 . S
H518 C510 0.930 1_545 S
H519 C511 0.929 . S
C97 C27 1.267 1_545 S
C116 C5 1.299 . S
C133 C9 1.268 . S
C152 C31 1.310 . S
C169 C72 1.261 1_565 S
C188 C50 1.288 . S
C205 C51 1.265 . S
C224 C73 1.280 . S
C241 C49 0.884 . S
C260 C6 0.875 . S
C277 C29 0.901 . S
C296 C75 0.943 . S
C313 C74 1.571 1_554 S
C332 C7 1.519 . S
C349 C28 1.506 . S
C368 C48 1.566 . S
C385 C30 1.570 1_556 S
C404 C53 1.510 . S
C421 C71 1.509 . S
C440 C4 1.561 . S
C457 C8 1.538 . S
C476 C52 1.540 . S
C493 C70 1.540 . S
C512 C26 1.547 . S
