# Generated by pormake.
# Topology wlk, (5)-cn, num edge types: 1
# Building blocks:
#     Node 0, Type 0, BuildingBlock: XOMCOT_clean_sbu_1, # of connection points: 5
#     Node 1, Type 0, BuildingBlock: XOMCOT_clean_sbu_1, # of connection points: 5
#     Node 2, Type 0, BuildingBlock: XOMCOT_clean_sbu_1, # of connection points: 5
#     Node 3, Type 0, BuildingBlock: XOMCOT_clean_sbu_1, # of connection points: 5
#     Node 4, Type 0, BuildingBlock: XOMCOT_clean_sbu_1, # of connection points: 5
#     Node 5, Type 0, BuildingBlock: XOMCOT_clean_sbu_1, # of connection points: 5
#     Node 6, Type 0, BuildingBlock: XOMCOT_clean_sbu_1, # of connection points: 5
#     Node 7, Type 0, BuildingBlock: XOMCOT_clean_sbu_1, # of connection points: 5
#     Node 8, Type 0, BuildingBlock: XOMCOT_clean_sbu_1, # of connection points: 5
#     Node 9, Type 0, BuildingBlock: XOMCOT_clean_sbu_1, # of connection points: 5
#     Node 10, Type 0, BuildingBlock: XOMCOT_clean_sbu_1, # of connection points: 5
#     Node 11, Type 0, BuildingBlock: XOMCOT_clean_sbu_1, # of connection points: 5
#     Node 12, Type 0, BuildingBlock: XOMCOT_clean_sbu_1, # of connection points: 5
#     Node 13, Type 0, BuildingBlock: XOMCOT_clean_sbu_1, # of connection points: 5
#     Node 14, Type 0, BuildingBlock: XOMCOT_clean_sbu_1, # of connection points: 5
#     Node 15, Type 0, BuildingBlock: XOMCOT_clean_sbu_1, # of connection points: 5
#     Node 16, Type 0, BuildingBlock: XOMCOT_clean_sbu_1, # of connection points: 5
#     Node 17, Type 0, BuildingBlock: XOMCOT_clean_sbu_1, # of connection points: 5
#     Edge 18, Type (0, 0), BuildingBlock: ZUJKAS_clean_linker_0, # of connection points: 2
#     Edge 19, Type (0, 0), BuildingBlock: ZUJKAS_clean_linker_0, # of connection points: 2
#     Edge 20, Type (0, 0), BuildingBlock: ZUJKAS_clean_linker_0, # of connection points: 2
#     Edge 21, Type (0, 0), BuildingBlock: ZUJKAS_clean_linker_0, # of connection points: 2
#     Edge 22, Type (0, 0), BuildingBlock: ZUJKAS_clean_linker_0, # of connection points: 2
#     Edge 23, Type (0, 0), BuildingBlock: ZUJKAS_clean_linker_0, # of connection points: 2
#     Edge 24, Type (0, 0), BuildingBlock: ZUJKAS_clean_linker_0, # of connection points: 2
#     Edge 25, Type (0, 0), BuildingBlock: ZUJKAS_clean_linker_0, # of connection points: 2
#     Edge 26, Type (0, 0), BuildingBlock: ZUJKAS_clean_linker_0, # of connection points: 2
#     Edge 27, Type (0, 0), BuildingBlock: ZUJKAS_clean_linker_0, # of connection points: 2
#     Edge 28, Type (0, 0), BuildingBlock: ZUJKAS_clean_linker_0, # of connection points: 2
#     Edge 29, Type (0, 0), BuildingBlock: ZUJKAS_clean_linker_0, # of connection points: 2
#     Edge 30, Type (0, 0), BuildingBlock: ZUJKAS_clean_linker_0, # of connection points: 2
#     Edge 31, Type (0, 0), BuildingBlock: ZUJKAS_clean_linker_0, # of connection points: 2
#     Edge 32, Type (0, 0), BuildingBlock: ZUJKAS_clean_linker_0, # of connection points: 2
#     Edge 33, Type (0, 0), BuildingBlock: ZUJKAS_clean_linker_0, # of connection points: 2
#     Edge 34, Type (0, 0), BuildingBlock: ZUJKAS_clean_linker_0, # of connection points: 2
#     Edge 35, Type (0, 0), BuildingBlock: ZUJKAS_clean_linker_0, # of connection points: 2
#     Edge 36, Type (0, 0), BuildingBlock: ZUJKAS_clean_linker_0, # of connection points: 2
#     Edge 37, Type (0, 0), BuildingBlock: ZUJKAS_clean_linker_0, # of connection points: 2
#     Edge 38, Type (0, 0), BuildingBlock: ZUJKAS_clean_linker_0, # of connection points: 2
#     Edge 39, Type (0, 0), BuildingBlock: ZUJKAS_clean_linker_0, # of connection points: 2
#     Edge 40, Type (0, 0), BuildingBlock: ZUJKAS_clean_linker_0, # of connection points: 2
#     Edge 41, Type (0, 0), BuildingBlock: ZUJKAS_clean_linker_0, # of connection points: 2
#     Edge 42, Type (0, 0), BuildingBlock: ZUJKAS_clean_linker_0, # of connection points: 2
#     Edge 43, Type (0, 0), BuildingBlock: ZUJKAS_clean_linker_0, # of connection points: 2
#     Edge 44, Type (0, 0), BuildingBlock: ZUJKAS_clean_linker_0, # of connection points: 2
#     Edge 45, Type (0, 0), BuildingBlock: ZUJKAS_clean_linker_0, # of connection points: 2
#     Edge 46, Type (0, 0), BuildingBlock: ZUJKAS_clean_linker_0, # of connection points: 2
#     Edge 47, Type (0, 0), BuildingBlock: ZUJKAS_clean_linker_0, # of connection points: 2
#     Edge 48, Type (0, 0), BuildingBlock: ZUJKAS_clean_linker_0, # of connection points: 2
#     Edge 49, Type (0, 0), BuildingBlock: ZUJKAS_clean_linker_0, # of connection points: 2
#     Edge 50, Type (0, 0), BuildingBlock: ZUJKAS_clean_linker_0, # of connection points: 2
#     Edge 51, Type (0, 0), BuildingBlock: ZUJKAS_clean_linker_0, # of connection points: 2
#     Edge 52, Type (0, 0), BuildingBlock: ZUJKAS_clean_linker_0, # of connection points: 2
#     Edge 53, Type (0, 0), BuildingBlock: ZUJKAS_clean_linker_0, # of connection points: 2
#     Edge 54, Type (0, 0), BuildingBlock: ZUJKAS_clean_linker_0, # of connection points: 2
#     Edge 55, Type (0, 0), BuildingBlock: ZUJKAS_clean_linker_0, # of connection points: 2
#     Edge 56, Type (0, 0), BuildingBlock: ZUJKAS_clean_linker_0, # of connection points: 2
#     Edge 57, Type (0, 0), BuildingBlock: ZUJKAS_clean_linker_0, # of connection points: 2
#     Edge 58, Type (0, 0), BuildingBlock: ZUJKAS_clean_linker_0, # of connection points: 2
#     Edge 59, Type (0, 0), BuildingBlock: ZUJKAS_clean_linker_0, # of connection points: 2
#     Edge 60, Type (0, 0), BuildingBlock: ZUJKAS_clean_linker_0, # of connection points: 2
#     Edge 61, Type (0, 0), BuildingBlock: ZUJKAS_clean_linker_0, # of connection points: 2
#     Edge 62, Type (0, 0), BuildingBlock: ZUJKAS_clean_linker_0, # of connection points: 2
# Relax obj value: 0.170
# Max RMSD: 0.216
# Mean RMSD: 0.216
data_MOF--net-wlk--node1-XOMCOT_clean_sbu_1--edge1-ZUJKAS_clean_linker_0
_symmetry_space_group_name_H-M    P1
_symmetry_Int_Tables_number       1
_symmetry_cell_setting            triclinic
loop_
_symmetry_equiv_pos_as_xyz
'x, y, z'
_cell_length_a     81.8465
_cell_length_b     81.566966
_cell_length_c     35.272261
_cell_angle_alpha  90.152273
_cell_angle_beta   90.030303
_cell_angle_gamma 120.07157
loop_
_atom_site_label
_atom_site_type_symbol
_atom_site_fract_x
_atom_site_fract_y
_atom_site_fract_z
_atom_type_partial_charge
C0 C 0.21375 0.2788 0.01193 0.0
C1 C 0.21232 0.26406 0.99041 0.0
N2 N 0.20585 0.24854 0.01247 0.0
N3 N 0.20856 0.2729 0.04785 0.0
C4 C 0.20285 0.25417 0.04672 0.0
H5 H 0.21936 0.29321 1.00237 0.0
Co6 Co 0.21141 0.28837 0.09042 0.0
C7 C 0.23192 0.26763 0.11827 0.0
O8 O 0.23495 0.26264 0.08476 0.0
N9 N 0.21455 0.30374 0.13348 0.0
C10 C 0.22997 0.32323 0.18148 0.0
C11 C 0.23149 0.31378 0.15089 0.0
C12 C 0.20274 0.30709 0.155 0.0
N13 N 0.21194 0.3191 0.18425 0.0
O14 O 0.18612 0.26988 0.10622 0.0
H15 H 0.24426 0.31393 0.14252 0.0
H16 H 0.18777 0.30082 0.14956 0.0
O17 O 0.22312 0.27686 0.12122 0.0
C18 C 0.1758 0.27388 0.0853 0.0
O19 O 0.18432 0.28895 0.06361 0.0
N20 N 0.23479 0.30762 0.07137 0.0
C21 C 0.2644 0.338 0.03327 0.0
C22 C 0.26668 0.3233 0.04811 0.0
C23 C 0.25165 0.30816 0.06702 0.0
C24 C 0.23262 0.3221 0.05818 0.0
C25 C 0.24718 0.3374 0.03923 0.0
H26 H 0.25369 0.29696 0.07729 0.0
H27 H 0.21921 0.32152 0.0617 0.0
H28 H 0.19804 0.24527 0.07161 0.0
H29 H 0.21718 0.26526 0.9615 0.0
H30 H 0.2412 0.33198 0.20111 0.0
H31 H 0.27972 0.32316 0.04403 0.0
H32 H 0.24485 0.34856 0.02895 0.0
C33 C 0.75133 0.93934 1.00443 0.0
C34 C 0.76559 0.95179 0.98106 0.0
N35 N 0.7814 0.96182 1.00194 0.0
N36 N 0.75787 0.94157 0.04025 0.0
C37 C 0.77649 0.95455 0.03734 0.0
H38 H 0.73685 0.92991 0.99603 0.0
Co39 Co 0.7431 0.92998 0.08389 0.0
C40 C 0.76495 0.97203 0.1094 0.0
O41 O 0.77007 0.97945 0.07549 0.0
N42 N 0.72838 0.91859 0.12784 0.0
C43 C 0.70956 0.91526 0.17634 0.0
C44 C 0.71885 0.92598 0.14547 0.0
C45 C 0.72484 0.90336 0.14938 0.0
N46 N 0.71325 0.901 0.17897 0.0
O47 O 0.76156 0.92304 0.09955 0.0
H48 H 0.71882 0.93866 0.13677 0.0
H49 H 0.73056 0.89419 0.14355 0.0
O50 O 0.75529 0.954 0.11341 0.0
C51 C 0.75702 0.90821 0.07958 0.0
O52 O 0.74161 0.90141 0.05884 0.0
N53 N 0.72384 0.93418 0.06507 0.0
C54 C 0.69326 0.93383 0.02855 0.0
C55 C 0.70896 0.95095 0.04047 0.0
C56 C 0.72414 0.95083 0.05862 0.0
C57 C 0.70855 0.91743 0.05431 0.0
C58 C 0.69312 0.91691 0.03629 0.0
H59 H 0.73609 0.96416 0.06639 0.0
H60 H 0.70851 0.90433 0.05919 0.0
H61 H 0.78584 0.95979 0.06162 0.0
H62 H 0.76407 0.95385 0.95126 0.0
H63 H 0.70112 0.91807 0.19608 0.0
H64 H 0.70983 0.9644 0.03474 0.0
H65 H 0.68124 0.90331 0.02827 0.0
C66 C 0.08787 0.8221 1.00641 0.0
C67 C 0.07478 0.82382 0.98502 0.0
N68 N 0.06603 0.83054 1.00726 0.0
N69 N 0.08729 0.82733 0.04245 0.0
C70 C 0.0746 0.83336 0.04153 0.0
H71 H 0.09651 0.81638 0.99659 0.0
Co72 Co 0.10036 0.82467 0.08424 0.0
C73 C 0.05948 0.80436 0.11421 0.0
O74 O 0.05114 0.80197 0.08123 0.0
N75 N 0.1132 0.82186 0.12625 0.0
C76 C 0.11873 0.80711 0.17325 0.0
C77 C 0.1072 0.80497 0.14333 0.0
C78 C 0.12836 0.83424 0.14726 0.0
N79 N 0.13205 0.82548 0.17588 0.0
O80 O 0.10745 0.85008 0.10042 0.0
H81 H 0.09483 0.79182 0.13523 0.0
H82 H 0.13643 0.84931 0.14196 0.0
O83 O 0.07752 0.81283 0.11632 0.0
C84 C 0.12136 0.86043 0.07865 0.0
O85 O 0.12717 0.85189 0.05513 0.0
N86 N 0.09586 0.80114 0.06493 0.0
C87 C 0.09565 0.77093 0.0269 0.0
C88 C 0.07896 0.769 0.0423 0.0
C89 C 0.07933 0.78434 0.06111 0.0
C90 C 0.11225 0.80302 0.05107 0.0
C91 C 0.11249 0.78814 0.03212 0.0
H92 H 0.06627 0.7826 0.07162 0.0
H93 H 0.12522 0.81641 0.05407 0.0
H94 H 0.07073 0.8384 0.06647 0.0
H95 H 0.07107 0.81904 0.95601 0.0
H96 H 0.11701 0.79606 0.19259 0.0
H97 H 0.06561 0.75599 0.03866 0.0
H98 H 0.12576 0.79021 0.02123 0.0
C99 C 0.84816 0.77056 1.00269 0.0
C100 C 0.84594 0.78425 0.02084 0.0
N101 N 0.83234 0.78602 1.0029 0.0
N102 N 0.83614 0.76364 0.97317 0.0
C103 C 0.82664 0.7733 0.97396 0.0
H104 H 0.85797 0.76591 0.01052 0.0
Co105 Co 0.83457 0.74437 0.94167 0.0
C106 C 0.8103 0.7412 0.87636 0.0
O107 O 0.80369 0.72283 0.87611 0.0
N108 N 0.83359 0.72474 0.90978 0.0
C109 C 0.82724 0.6968 0.88585 0.0
C110 C 0.82579 0.70602 0.91716 0.0
C111 C 0.84035 0.7265 0.87385 0.0
N112 N 0.83633 0.70964 0.85857 0.0
O113 O 0.85955 0.76172 0.92266 0.0
H114 H 0.81909 0.69906 0.94319 0.0
H115 H 0.84721 0.73975 0.85851 0.0
O116 O 0.82251 0.75162 0.90143 0.0
C117 C 0.87157 0.75766 0.93619 0.0
O118 O 0.8655 0.74264 0.95784 0.0
N119 N 0.81125 0.72739 0.96458 0.0
C120 C 0.78012 0.70008 1.00527 0.0
C121 C 0.77797 0.71133 0.97779 0.0
C122 C 0.79377 0.72518 0.95825 0.0
C123 C 0.8138 0.71795 0.99369 0.0
C124 C 0.79847 0.70394 0.01371 0.0
H125 H 0.7918 0.73415 0.93867 0.0
H126 H 0.82789 0.72072 1.00014 0.0
H127 H 0.81553 0.7708 0.95417 0.0
H128 H 0.85398 0.79244 0.04515 0.0
H129 H 0.82184 0.68171 0.88318 0.0
H130 H 0.76424 0.70962 0.97167 0.0
H131 H 0.80103 0.69588 0.03482 0.0
C132 C 0.26417 0.08898 0.01146 0.0
C133 C 0.25046 0.07315 0.02967 0.0
N134 N 0.24923 0.05765 0.01307 0.0
N135 N 0.27165 0.08364 0.98336 0.0
C136 C 0.2623 0.06446 0.98503 0.0
H137 H 0.26839 0.10352 0.01817 0.0
Co138 Co 0.29074 0.10068 0.95096 0.0
C139 C 0.27243 0.07506 0.88386 0.0
O140 O 0.26317 0.08353 0.87298 0.0
N141 N 0.30989 0.118 0.91853 0.0
C142 C 0.33739 0.14197 0.89943 0.0
C143 C 0.32756 0.13075 0.92966 0.0
C144 C 0.30927 0.12188 0.88137 0.0
N145 N 0.32587 0.13647 0.86895 0.0
O146 O 0.27377 0.10901 0.93258 0.0
H147 H 0.3329 0.13204 0.95822 0.0
H148 H 0.29668 0.11464 0.86415 0.0
O149 O 0.283 0.08091 0.9131 0.0
C150 C 0.27852 0.12551 0.94523 0.0
O151 O 0.29387 0.13444 0.96604 0.0
N152 N 0.30768 0.09388 0.97187 0.0
C153 C 0.33585 0.08951 1.00747 0.0
C154 C 0.33096 0.08417 0.96935 0.0
C155 C 0.31686 0.08654 0.95198 0.0
C156 C 0.31213 0.09902 1.00888 0.0
C157 C 0.32606 0.09688 0.02725 0.0
H158 H 0.31388 0.08312 0.92224 0.0
H159 H 0.30523 0.10543 0.02394 0.0
H160 H 0.26517 0.05568 0.96631 0.0
H161 H 0.24183 0.07312 0.05293 0.0
H162 H 0.35193 0.15334 0.90006 0.0
H163 H 0.33807 0.07837 0.95293 0.0
H164 H 0.32956 0.1016 0.05637 0.0
C165 C 0.94779 0.17904 1.00392 0.0
C166 C 0.96375 0.18163 0.02219 0.0
N167 N 0.97895 0.19624 1.0059 0.0
N168 N 0.95272 0.19188 0.97599 0.0
C169 C 0.97184 0.2022 0.97781 0.0
H170 H 0.93344 0.16852 0.01088 0.0
Co171 Co 0.93505 0.19372 0.94484 0.0
C172 C 0.96006 0.20036 0.8771 0.0
O173 O 0.95265 0.18239 0.86805 0.0
N174 N 0.91712 0.19524 0.91381 0.0
C175 C 0.89247 0.19802 0.89699 0.0
C176 C 0.90395 0.19918 0.92657 0.0
C177 C 0.91329 0.19159 0.87635 0.0
N178 N 0.89827 0.19317 0.86529 0.0
O179 O 0.92592 0.16798 0.92734 0.0
H180 H 0.90267 0.2025 0.95574 0.0
H181 H 0.92096 0.18724 0.85783 0.0
O182 O 0.95385 0.20518 0.90557 0.0
C183 C 0.91022 0.15712 0.94383 0.0
O184 O 0.90346 0.16487 0.9671 0.0
N185 N 0.94255 0.21795 0.96466 0.0
C186 C 0.94738 0.25117 0.99804 0.0
C187 C 0.94942 0.25016 0.95877 0.0
C188 C 0.94711 0.23341 0.94258 0.0
C189 C 0.9406 0.21878 1.00289 0.0
C190 C 0.94329 0.23536 0.02023 0.0
H191 H 0.94797 0.23255 0.91213 0.0
H192 H 0.93624 0.20629 0.01997 0.0
H193 H 0.98033 0.2141 0.95946 0.0
H194 H 0.96407 0.1732 0.04552 0.0
H195 H 0.88075 0.20061 0.89882 0.0
H196 H 0.95241 0.26206 0.94073 0.0
H197 H 0.94127 0.23551 0.05056 0.0
C198 C 0.85526 0.58879 0.35214 0.0
C199 C 0.85735 0.57465 0.33569 0.0
N200 N 0.87071 0.57302 0.35488 0.0
N201 N 0.86712 0.5961 0.38187 0.0
C202 C 0.87652 0.58633 0.38268 0.0
H203 H 0.84569 0.59349 0.34292 0.0
Co204 Co 0.86824 0.61557 0.41219 0.0
C205 C 0.89102 0.61829 0.48011 0.0
O206 O 0.89803 0.63673 0.48007 0.0
N207 N 0.86862 0.63526 0.44247 0.0
C208 C 0.86982 0.66206 0.46069 0.0
C209 C 0.87272 0.65274 0.43121 0.0
C210 C 0.86277 0.63422 0.47892 0.0
N211 N 0.86372 0.65045 0.49081 0.0
O212 O 0.84262 0.59865 0.4288 0.0
H213 H 0.8771 0.65846 0.40315 0.0
H214 H 0.85785 0.62173 0.49641 0.0
O215 O 0.8791 0.60805 0.45445 0.0
C216 C 0.83167 0.60325 0.41192 0.0
O217 O 0.83913 0.61786 0.38896 0.0
N218 N 0.89219 0.63233 0.39145 0.0
C219 C 0.92393 0.65902 0.3516 0.0
C220 C 0.92574 0.64854 0.38113 0.0
C221 C 0.90959 0.63482 0.40004 0.0
C222 C 0.89014 0.64139 0.36099 0.0
C223 C 0.90577 0.65495 0.34105 0.0
H224 H 0.91128 0.62615 0.42084 0.0
H225 H 0.87616 0.6383 0.35264 0.0
H226 H 0.88728 0.5888 0.40336 0.0
H227 H 0.84978 0.56641 0.31102 0.0
H228 H 0.87219 0.67636 0.46013 0.0
H229 H 0.93947 0.65068 0.38904 0.0
H230 H 0.90364 0.66247 0.31807 0.0
C231 C 0.4424 0.2701 0.36145 0.0
C232 C 0.45637 0.28584 0.34351 0.0
N233 N 0.45711 0.30137 0.35873 0.0
N234 N 0.43432 0.27554 0.38819 0.0
C235 C 0.44348 0.29471 0.38566 0.0
H236 H 0.43827 0.25557 0.35503 0.0
Co237 Co 0.41452 0.25889 0.42001 0.0
C238 C 0.43384 0.28377 0.48819 0.0
O239 O 0.44226 0.27458 0.49984 0.0
N240 N 0.39472 0.24207 0.4519 0.0
C241 C 0.36658 0.21906 0.4706 0.0
C242 C 0.37681 0.23024 0.44063 0.0
C243 C 0.39506 0.23771 0.48883 0.0
N244 N 0.37807 0.22368 0.501 0.0
O245 O 0.42974 0.24826 0.43698 0.0
H246 H 0.3716 0.22956 0.41216 0.0
H247 H 0.40771 0.24414 0.50603 0.0
O248 O 0.42346 0.27826 0.45869 0.0
C249 C 0.42351 0.23245 0.41955 0.0
O250 O 0.4089 0.22696 0.3969 0.0
N251 N 0.39906 0.26769 0.40037 0.0
C252 C 0.37224 0.2744 0.36598 0.0
C253 C 0.37672 0.27854 0.40459 0.0
C254 C 0.39021 0.27505 0.42134 0.0
C255 C 0.39504 0.2638 0.36285 0.0
C256 C 0.38182 0.26718 0.34503 0.0
H257 H 0.39286 0.27743 0.45144 0.0
H258 H 0.40163 0.25732 0.34693 0.0
H259 H 0.44029 0.30359 0.40336 0.0
H260 H 0.46506 0.28579 0.32044 0.0
H261 H 0.3518 0.20829 0.46988 0.0
H262 H 0.36962 0.28407 0.42183 0.0
H263 H 0.37852 0.26334 0.31545 0.0
C264 C 0.76374 0.18422 0.3619 0.0
C265 C 0.74763 0.18191 0.34475 0.0
N266 N 0.73268 0.16621 0.35882 0.0
N267 N 0.75912 0.17012 0.38692 0.0
C268 C 0.74007 0.15925 0.38425 0.0
H269 H 0.77799 0.19547 0.35637 0.0
Co270 Co 0.77686 0.16808 0.41723 0.0
C271 C 0.75032 0.1593 0.48254 0.0
O272 O 0.75579 0.17713 0.4897 0.0
N273 N 0.7948 0.16632 0.44766 0.0
C274 C 0.8196 0.16376 0.46426 0.0
C275 C 0.8082 0.16277 0.43466 0.0
C276 C 0.7984 0.16953 0.48529 0.0
N277 N 0.81352 0.1681 0.49621 0.0
O278 O 0.78482 0.19302 0.43782 0.0
H279 H 0.80975 0.15992 0.40531 0.0
H280 H 0.79047 0.1735 0.50399 0.0
O281 O 0.75784 0.15502 0.45555 0.0
C282 C 0.80099 0.2052 0.42486 0.0
O283 O 0.80988 0.19932 0.40257 0.0
N284 N 0.77043 0.14478 0.39423 0.0
C285 C 0.767 0.11325 0.35533 0.0
C286 C 0.76327 0.11237 0.39442 0.0
C287 C 0.76517 0.12836 0.41343 0.0
C288 C 0.77379 0.1458 0.35625 0.0
C289 C 0.77195 0.13019 0.33623 0.0
H290 H 0.76339 0.12782 0.44383 0.0
H291 H 0.77851 0.15903 0.34152 0.0
H292 H 0.73179 0.14662 0.40094 0.0
H293 H 0.74706 0.19098 0.32309 0.0
H294 H 0.83149 0.16145 0.46223 0.0
H295 H 0.75974 0.09974 0.41052 0.0
H296 H 0.77471 0.13154 0.30605 0.0
C297 C 0.51299 0.09484 0.3338 0.0
C298 C 0.51125 0.10898 0.35121 0.0
N299 N 0.49829 0.11132 0.33221 0.0
N300 N 0.5013 0.08827 0.30366 0.0
C301 C 0.49237 0.09848 0.30355 0.0
H302 H 0.52214 0.08957 0.34274 0.0
Co303 Co 0.49961 0.06896 0.27227 0.0
C304 C 0.47601 0.06637 0.20604 0.0
O305 O 0.46904 0.04794 0.20646 0.0
N306 N 0.49865 0.04941 0.24071 0.0
C307 C 0.49522 0.02227 0.21838 0.0
C308 C 0.49263 0.03109 0.24912 0.0
C309 C 0.50529 0.05137 0.20472 0.0
N310 N 0.50313 0.03499 0.19029 0.0
O311 O 0.5252 0.08578 0.25508 0.0
H312 H 0.48683 0.02429 0.27581 0.0
H313 H 0.51153 0.06461 0.18937 0.0
O314 O 0.48832 0.07682 0.23099 0.0
C315 C 0.53583 0.08088 0.27239 0.0
O316 O 0.52779 0.0662 0.29517 0.0
N317 N 0.47583 0.05233 0.2938 0.0
C318 C 0.44425 0.02633 0.33524 0.0
C319 C 0.44266 0.03776 0.30738 0.0
C320 C 0.45872 0.05099 0.28751 0.0
C321 C 0.47783 0.04247 0.32279 0.0
C322 C 0.46226 0.02913 0.34322 0.0
H323 H 0.45727 0.0603 0.26795 0.0
H324 H 0.49169 0.04468 0.32947 0.0
H325 H 0.48183 0.09663 0.28284 0.0
H326 H 0.51871 0.11667 0.37645 0.0
H327 H 0.49126 1.00748 0.21674 0.0
H328 H 0.42921 0.03677 0.30149 0.0
H329 H 0.46436 0.02087 0.36463 0.0
C330 C 0.9506 0.42054 0.34147 0.0
C331 C 0.93606 0.40828 0.36447 0.0
N332 N 0.92017 0.39904 0.34345 0.0
N333 N 0.94422 0.4189 0.30566 0.0
C334 C 0.92544 0.40657 0.30826 0.0
H335 H 0.9652 0.4292 0.35 0.0
Co336 Co 0.9595 0.43004 0.26254 0.0
C337 C 0.93589 0.38825 0.23428 0.0
O338 O 0.92832 0.38016 0.26668 0.0
N339 N 0.9749 0.4411 0.21893 0.0
C340 C 0.99445 0.44419 0.17199 0.0
C341 C 0.98482 0.43374 0.20287 0.0
C342 C 0.97857 0.45605 0.19634 0.0
N343 N 0.99059 0.45825 0.16773 0.0
O344 O 0.94205 0.43809 0.24615 0.0
H345 H 0.98495 0.42126 0.21268 0.0
H346 H 0.97265 0.46515 0.20062 0.0
O347 O 0.94696 0.40622 0.23255 0.0
C348 C 0.94825 0.45417 0.26252 0.0
O349 O 0.96414 0.46101 0.28169 0.0
N350 N 0.97765 0.42444 0.28199 0.0
C351 C 1.0069 0.42194 0.31718 0.0
C352 C 0.98984 0.40552 0.30802 0.0
C353 C 0.97534 0.40706 0.29037 0.0
C354 C 0.99407 0.44051 0.29106 0.0
C355 C 1.00893 0.43959 0.30821 0.0
H356 H 0.96221 0.39434 0.28471 0.0
H357 H 0.99553 0.4542 0.28534 0.0
H358 H 0.9161 0.40225 0.28398 0.0
H359 H 0.9376 0.40539 0.39375 0.0
H360 H 1.00324 0.44132 0.15336 0.0
H361 H 0.98766 0.39161 0.31473 0.0
H362 H 0.02167 0.45264 0.31556 0.0
C363 C 0.6067 0.52248 0.32735 0.0
C364 C 0.62228 0.52433 0.34603 0.0
N365 N 0.63756 0.53429 0.32394 0.0
N366 N 0.61197 0.53119 0.29351 0.0
C367 C 0.63088 0.53824 0.29213 0.0
H368 H 0.5924 0.51545 0.33802 0.0
Co369 Co 0.59485 0.53288 0.26093 0.0
C370 C 0.61682 0.5562 0.19523 0.0
O371 O 0.60576 0.56356 0.19454 0.0
N372 N 0.57667 0.53394 0.22837 0.0
C373 C 0.55404 0.53883 0.2058 0.0
C374 C 0.56438 0.53986 0.23724 0.0
C375 C 0.57271 0.52849 0.19145 0.0
N376 N 0.55941 0.53191 0.17675 0.0
O377 O 0.58592 0.50715 0.24422 0.0
H378 H 0.56271 0.5446 0.26471 0.0
H379 H 0.58015 0.523 0.17519 0.0
O380 O 0.61437 0.54387 0.22051 0.0
C381 C 0.57044 0.49677 0.26187 0.0
O382 O 0.56405 0.50516 0.28436 0.0
N383 N 0.60216 0.55689 0.28198 0.0
C384 C 0.6072 0.58885 0.32146 0.0
C385 C 0.62053 0.59034 0.29455 0.0
C386 C 0.61796 0.57406 0.27565 0.0
C387 C 0.59027 0.55502 0.31074 0.0
C388 C 0.59225 0.57077 0.33025 0.0
H389 H 0.62886 0.57544 0.25661 0.0
H390 H 0.57877 0.5411 0.31792 0.0
H391 H 0.63969 0.54657 0.26888 0.0
H392 H 0.62232 0.51872 0.37377 0.0
H393 H 0.54331 0.54287 0.20452 0.0
H394 H 0.63272 0.60394 0.28791 0.0
H395 H 0.58216 0.56875 0.3522 0.0
C396 C 0.53549 0.93632 0.66511 0.0
C397 C 0.53651 0.92155 0.64878 0.0
N398 N 0.54308 0.91418 0.67477 0.0
N399 N 0.54136 0.93842 0.70138 0.0
C400 C 0.54599 0.92476 0.70649 0.0
H401 H 0.53087 0.94512 0.65129 0.0
Co402 Co 0.54173 0.9572 0.73266 0.0
C403 C 0.56345 0.95935 0.80154 0.0
O404 O 0.57058 0.97781 0.8012 0.0
N405 N 0.54135 0.97621 0.76378 0.0
C406 C 0.5434 1.00286 0.78554 0.0
C407 C 0.54671 0.99436 0.75516 0.0
C408 C 0.53424 0.97397 0.79941 0.0
N409 N 0.53563 0.99008 0.81356 0.0
O410 O 0.51583 0.94004 0.74688 0.0
H411 H 0.55255 1.00126 0.72857 0.0
H412 H 0.52828 0.96075 0.81476 0.0
O413 O 0.5518 0.94912 0.77549 0.0
C414 C 0.50587 0.94451 0.72601 0.0
O415 O 0.51476 0.9584 0.70171 0.0
N416 N 0.5661 0.97436 0.71411 0.0
C417 C 0.59878 1.00168 0.67746 0.0
C418 C 0.59975 0.98991 0.70534 0.0
C419 C 0.58314 0.97593 0.72263 0.0
C420 C 0.56485 0.9846 0.68495 0.0
C421 C 0.58094 0.99854 0.66683 0.0
H422 H 0.58413 0.96634 0.74217 0.0
H423 H 0.55115 0.9822 0.67629 0.0
H424 H 0.5512 0.92248 0.73295 0.0
H425 H 0.53299 0.91686 0.61966 0.0
H426 H 0.54682 0.0175 0.787 0.0
H427 H 0.61317 0.99126 0.7132 0.0
H428 H 0.57936 1.00703 0.64517 0.0
C429 C 0.0937 0.61075 0.65876 0.0
C430 C 0.10852 0.62422 0.63782 0.0
N431 N 0.12352 0.63383 0.66095 0.0
N432 N 0.09909 0.61194 0.69526 0.0
C433 C 0.1176 0.62547 0.69525 0.0
H434 H 0.07957 0.60144 0.64829 0.0
Co435 Co 0.08325 0.59888 0.73684 0.0
C436 C 0.10214 0.64021 0.76467 0.0
O437 O 0.10712 0.64813 0.73113 0.0
N438 N 0.06752 0.58618 0.77874 0.0
C439 C 0.04726 0.58115 0.82543 0.0
C440 C 0.05688 0.59252 0.79555 0.0
C441 C 0.06432 0.57093 0.79979 0.0
N442 N 0.05186 0.56753 0.82827 0.0
O443 O 0.10219 0.59322 0.75513 0.0
H444 H 0.05641 0.60502 0.78723 0.0
H445 H 0.07099 0.56256 0.79456 0.0
O446 O 0.09345 0.62215 0.76779 0.0
C447 C 0.10035 0.57947 0.73446 0.0
O448 O 0.08668 0.57241 0.70918 0.0
N449 N 0.06366 0.60202 0.7159 0.0
C450 C 0.03193 0.59984 0.6806 0.0
C451 C 0.04656 0.61716 0.69462 0.0
C452 C 0.06231 0.61797 0.71216 0.0
C453 C 0.0496 0.58511 0.70238 0.0
C454 C 0.03363 0.58367 0.68488 0.0
H455 H 0.07315 0.63142 0.72249 0.0
H456 H 0.05085 0.57258 0.7053 0.0
H457 H 0.12615 0.6301 0.7207 0.0
H458 H 0.10777 0.62762 0.60847 0.0
H459 H 0.03805 0.58314 0.84453 0.0
H460 H 0.04605 0.6301 0.69157 0.0
H461 H 0.02265 0.56991 0.67511 0.0
C462 C 0.41782 0.48963 0.65509 0.0
C463 C 0.40366 0.49055 0.63586 0.0
N464 N 0.39458 0.49596 0.66029 0.0
N465 N 0.41764 0.49416 0.69183 0.0
C466 C 0.40392 0.49883 0.69361 0.0
H467 H 0.42694 0.4849 0.64327 0.0
Co468 Co 0.43179 0.49184 0.73194 0.0
C469 C 0.39163 0.47005 0.76345 0.0
O470 O 0.38328 0.46514 0.73019 0.0
N471 N 0.44567 0.48937 0.77262 0.0
C472 C 0.45188 0.47513 0.81969 0.0
C473 C 0.43968 0.47279 0.79096 0.0
C474 C 0.46157 0.50181 0.79177 0.0
N475 N 0.46567 0.49336 0.82039 0.0
O476 O 0.43858 0.51714 0.74892 0.0
H477 H 0.42677 0.45976 0.78496 0.0
H478 H 0.46985 0.51674 0.78534 0.0
O479 O 0.40963 0.48006 0.7656 0.0
C480 C 0.45343 0.52849 0.7304 0.0
O481 O 0.4603 0.52107 0.70657 0.0
N482 N 0.42748 0.46827 0.71202 0.0
C483 C 0.42902 0.43758 0.67959 0.0
C484 C 0.4129 0.43482 0.69924 0.0
C485 C 0.4124 0.4503 0.71527 0.0
C486 C 0.44317 0.47117 0.69285 0.0
C487 C 0.44422 0.45615 0.67635 0.0
H488 H 0.40019 0.44742 0.73148 0.0
H489 H 0.45506 0.48539 0.69046 0.0
H490 H 0.39992 0.50289 0.71971 0.0
H491 H 0.39949 0.48612 0.60681 0.0
H492 H 0.45024 0.46439 0.83977 0.0
H493 H 0.40094 0.42073 0.7032 0.0
H494 H 0.45687 0.45914 0.66099 0.0
C495 C 0.15898 0.42008 0.69479 0.0
C496 C 0.16049 0.43521 0.71512 0.0
N497 N 0.16599 0.45001 0.69146 0.0
N498 N 0.16323 0.42508 0.65814 0.0
C499 C 0.16826 0.44364 0.65744 0.0
H500 H 0.15416 0.40606 0.70589 0.0
Co501 Co 0.1606 0.4089 0.61693 0.0
C502 C 0.13862 0.42765 0.58838 0.0
O503 O 0.13425 0.43108 0.62217 0.0
N504 N 0.15772 0.39291 0.57521 0.0
C505 C 0.14282 0.37284 0.52769 0.0
C506 C 0.14091 0.38243 0.55755 0.0
C507 C 0.16985 0.38969 0.5545 0.0
N508 N 0.16098 0.37733 0.52555 0.0
O509 O 0.18561 0.42761 0.5996 0.0
H510 H 0.12801 0.38221 0.56488 0.0
H511 H 0.18484 0.39639 0.56014 0.0
O512 O 0.14848 0.41955 0.58506 0.0
C513 C 0.19719 0.4259 0.62132 0.0
O514 O 0.1902 0.41256 0.64724 0.0
N515 N 0.1374 0.38944 0.63714 0.0
C516 C 0.10757 0.35768 0.67206 0.0
C517 C 0.10447 0.37106 0.65335 0.0
C518 C 0.11955 0.38686 0.63609 0.0
C519 C 0.14057 0.37645 0.65483 0.0
C520 C 0.12596 0.36057 0.67251 0.0
H521 H 0.11648 0.39643 0.62126 0.0
H522 H 0.1547 0.37851 0.65524 0.0
H523 H 0.17227 0.45196 0.63173 0.0
H524 H 0.15652 0.43486 0.7445 0.0
H525 H 0.13179 0.36384 0.50792 0.0
H526 H 0.09051 0.36944 0.65225 0.0
H527 H 0.12905 0.35051 0.68596 0.0
C528 C 0.60754 0.74886 0.68834 0.0
C529 C 0.59223 0.7353 0.70811 0.0
N530 N 0.57779 0.72573 0.68369 0.0
N531 N 0.60304 0.74779 0.6513 0.0
C532 C 0.58455 0.7342 0.64974 0.0
H533 H 0.62143 0.75812 0.70001 0.0
Co534 Co 0.61994 0.76075 0.61106 0.0
C535 C 0.60105 0.71956 0.58175 0.0
O536 O 0.59482 0.71107 0.61449 0.0
N537 N 0.63679 0.77334 0.56991 0.0
C538 C 0.65773 0.77772 0.52498 0.0
C539 C 0.64789 0.76697 0.55542 0.0
C540 C 0.64 0.78799 0.54676 0.0
N541 N 0.65284 0.79098 0.51933 0.0
O542 O 0.60191 0.76715 0.59098 0.0
H543 H 0.64838 0.75471 0.56541 0.0
H544 H 0.63295 0.79614 0.54945 0.0
O545 O 0.61006 0.73766 0.57985 0.0
C546 C 0.60653 0.78312 0.60638 0.0
O547 O 0.62155 0.79103 0.62829 0.0
N548 N 0.63866 0.75695 0.63419 0.0
C549 C 0.66933 0.75835 0.67247 0.0
C550 C 0.65452 0.74111 0.65855 0.0
C551 C 0.63927 0.74069 0.63957 0.0
C552 C 0.65285 0.77376 0.64777 0.0
C553 C 0.66831 0.77482 0.6667 0.0
H554 H 0.62818 0.72729 0.62954 0.0
H555 H 0.65217 0.78654 0.64365 0.0
H556 H 0.5766 0.72967 0.62353 0.0
H557 H 0.59228 0.73185 0.7377 0.0
H558 H 0.66718 0.77538 0.50727 0.0
H559 H 0.65453 0.72797 0.66278 0.0
H560 H 0.67947 0.78851 0.67636 0.0
C561 C 0.27657 0.85577 0.6743 0.0
C562 C 0.29267 0.85761 0.69055 0.0
N563 N 0.30767 0.8702 0.67022 0.0
N564 N 0.28123 0.86704 0.64366 0.0
C565 C 0.30031 0.87581 0.64203 0.0
H566 H 0.2623 0.84681 0.68432 0.0
Co567 Co 0.26325 0.86844 0.61336 0.0
C568 C 0.28316 0.89003 0.54323 0.0
O569 O 0.27097 0.89591 0.53936 0.0
N570 N 0.24429 0.86915 0.58345 0.0
C571 C 0.22151 0.87431 0.56306 0.0
C572 C 0.23341 0.87669 0.5927 0.0
C573 C 0.23818 0.86169 0.54836 0.0
N574 N 0.22461 0.86502 0.53493 0.0
O575 O 0.25473 0.84293 0.5954 0.0
H576 H 0.23407 0.88372 0.61906 0.0
H577 H 0.24402 0.85445 0.53251 0.0
O578 O 0.28194 0.87962 0.57155 0.0
C579 C 0.23949 0.8313 0.61243 0.0
O580 O 0.2322 0.83822 0.63648 0.0
N581 N 0.2704 0.89235 0.63506 0.0
C582 C 0.27475 0.92393 0.67523 0.0
C583 C 0.28544 0.92616 0.64254 0.0
C584 C 0.28337 0.91017 0.62328 0.0
C585 C 0.26076 0.89 0.66799 0.0
C586 C 0.26263 0.90554 0.6884 0.0
H587 H 0.29234 0.91241 0.59933 0.0
H588 H 0.25098 0.87583 0.67774 0.0
H589 H 0.30863 0.88597 0.62049 0.0
H590 H 0.29327 0.85045 0.71584 0.0
H591 H 0.21175 0.8796 0.56192 0.0
H592 H 0.29543 0.94016 0.63215 0.0
H593 H 0.25419 0.90314 0.71362 0.0
H594 H 0.23496 0.2823 0.18994 0.0
H595 H 0.25578 0.28352 0.24115 0.0
H596 H 0.27327 0.25117 0.17275 0.0
H597 H 0.25241 0.24964 0.12176 0.0
H598 H 0.26753 0.24024 0.24889 0.0
H599 H 0.31331 0.31828 0.23344 0.0
H600 H 0.2888 0.30986 0.24298 0.0
H601 H 0.29555 0.30393 0.19887 0.0
C602 C 0.24304 0.27522 0.18597 0.0
C603 C 0.2422 0.26609 0.15148 0.0
C604 C 0.25502 0.27604 0.2152 0.0
C605 C 0.26637 0.26778 0.21044 0.0
C606 C 0.26474 0.25776 0.17694 0.0
H607 H 0.37205 0.28816 0.29545 0.0
H608 H 0.34536 0.28723 0.26236 0.0
C609 C 0.2528 0.25693 0.14776 0.0
C610 C 0.28068 0.27024 0.23922 0.0
H611 H 0.32276 0.3033 0.27807 0.0
C612 C 0.2795 0.25403 0.25569 0.0
C613 C 0.29638 0.28826 0.24764 0.0
C614 C 0.29877 0.3061 0.22967 0.0
C615 C 0.29382 0.2553 0.27964 0.0
C616 C 0.30961 0.2733 0.28776 0.0
C617 C 0.31056 0.28954 0.27203 0.0
C618 C 0.32607 0.27537 0.30956 0.0
C619 C 0.29235 0.23729 0.29458 0.0
C620 C 0.32426 0.26955 0.34751 0.0
C621 C 0.33951 0.26998 0.36648 0.0
C622 C 0.35684 0.27628 0.34783 0.0
C623 C 0.35882 0.28296 0.31043 0.0
C624 C 0.34361 0.28253 0.29155 0.0
H625 H 0.28121 0.22451 0.27976 0.0
H626 H 0.30601 0.23761 0.29146 0.0
H627 H 0.28881 0.23591 0.32519 0.0
H628 H 0.31094 0.26427 0.36215 0.0
H629 H 0.33747 0.26464 0.39519 0.0
H630 H 0.78738 1.0104 0.11229 0.0
H631 H 0.78757 0.03207 0.16026 0.0
H632 H 0.74722 0.98463 0.22657 0.0
H633 H 0.74729 0.96275 0.17895 0.0
H634 H 0.75659 0.0347 0.17828 0.0
H635 H 0.78455 0.01835 0.30753 0.0
H636 H 0.78699 1.01075 0.2608 0.0
H637 H 0.76489 0.99828 0.28548 0.0
C638 C 0.77879 1.00451 0.13739 0.0
C639 C 0.76719 0.9848 0.14155 0.0
C640 C 0.7789 0.01695 0.16481 0.0
C641 C 0.76744 1.01003 0.19711 0.0
C642 C 0.75642 0.99034 0.20222 0.0
H643 H 0.74216 0.07497 0.36386 0.0
H644 H 0.74135 0.04875 0.32781 0.0
C645 C 0.7564 0.97782 0.17483 0.0
C646 C 0.76595 0.02356 0.22332 0.0
H647 H 0.77346 0.04005 0.31465 0.0
C648 C 0.76027 0.03582 0.2081 0.0
C649 C 0.77058 0.02493 0.26234 0.0
C650 C 0.77725 1.0125 0.28007 0.0
C651 C 0.75937 0.04957 0.23056 0.0
C652 C 0.76442 0.05125 0.26927 0.0
C653 C 0.76959 0.03869 0.28492 0.0
C654 C 0.76549 0.06681 0.29302 0.0
C655 C 0.75314 0.06233 0.21267 0.0
C656 C 0.77954 0.08555 0.28587 0.0
C657 C 0.78014 0.10049 0.30647 0.0
C658 C 0.76662 0.09705 0.33467 0.0
C659 C 0.75282 0.07815 0.34249 0.0
C660 C 0.7523 0.06316 0.32187 0.0
H661 H 0.74587 0.05664 0.18511 0.0
H662 H 0.7435 0.0643 0.23186 0.0
H663 H 0.7657 0.07646 0.20752 0.0
H664 H 0.79 0.08864 0.26406 0.0
H665 H 0.79128 0.11476 0.3003 0.0
H666 H 0.07123 0.79618 0.18101 0.0
H667 H 0.05126 0.77354 0.22957 0.0
H668 H 1.00151 0.76495 0.17024 0.0
H669 H 0.02125 0.78739 0.12153 0.0
H670 H 1.00135 0.7682 0.25462 0.0
H671 H 0.01976 0.71525 0.20036 0.0
H672 H 0.03885 0.73864 0.21146 0.0
H673 H 0.02339 0.73535 0.17253 0.0
C674 C 0.05606 0.78972 0.17858 0.0
C675 C 0.04784 0.79342 0.14706 0.0
C676 C 0.04467 0.77673 0.2063 0.0
C677 C 0.02493 0.7674 0.20315 0.0
C678 C 1.01673 0.77195 0.17307 0.0
H679 H 0.92904 0.66525 0.27535 0.0
H680 H 0.95529 0.69199 0.24301 0.0
C681 C 0.02805 0.78477 0.14523 0.0
C682 C 1.01267 0.75194 0.22949 0.0
H683 H 0.99717 0.7054 0.24896 0.0
C684 C 1.00061 0.75455 0.25388 0.0
C685 C 1.01163 0.73411 0.22804 0.0
C686 C 0.02398 0.73048 0.20161 0.0
C687 C 0.9873 0.73965 0.27644 0.0
C688 C 0.98603 0.72172 0.27442 0.0
C689 C 0.99831 0.71922 0.25058 0.0
C690 C 0.97093 0.70503 0.29438 0.0
C691 C 0.97414 0.74288 0.30117 0.0
C692 C 0.97126 0.70332 0.33391 0.0
C693 C 0.9563 0.68798 0.35249 0.0
C694 C 0.94071 0.67421 0.3318 0.0
C695 C 0.94074 0.67574 0.29209 0.0
C696 C 0.95574 0.69095 0.27357 0.0
H697 H 0.97566 0.75705 0.29662 0.0
H698 H 0.95926 0.73185 0.29546 0.0
H699 H 0.97715 0.74171 0.33141 0.0
H700 H 0.98294 0.71401 0.35041 0.0
H701 H 0.95662 0.68723 0.38312 0.0
H702 H 0.68811 0.78006 0.73449 0.0
H703 H 0.71554 0.78228 0.76687 0.0
H704 H 0.71461 0.74035 0.6908 0.0
H705 H 0.68769 0.73865 0.65714 0.0
H706 H 0.7188 0.75536 0.80459 0.0
H707 H 0.7695 0.7813 0.68542 0.0
H708 H 0.74742 0.78124 0.68389 0.0
H709 H 0.74806 0.75991 0.67383 0.0
C710 C 0.69391 0.77153 0.72417 0.0
C711 C 0.68574 0.75928 0.69291 0.0
C712 C 0.70954 0.77274 0.74291 0.0
C713 C 0.7174 0.76179 0.73083 0.0
C714 C 0.70911 0.74931 0.70007 0.0
H715 H 0.79167 0.72583 0.8107 0.0
H716 H 0.77132 0.73426 0.77542 0.0
C717 C 0.69351 0.74814 0.68119 0.0
C718 C 0.73371 0.76275 0.75147 0.0
H719 H 0.77785 0.76888 0.73897 0.0
C720 C 0.73183 0.75862 0.79039 0.0
C721 C 0.75077 0.76711 0.73297 0.0
C722 C 0.75417 0.77284 0.69181 0.0
C723 C 0.74614 0.7578 0.81086 0.0
C724 C 0.76287 0.76142 0.79199 0.0
C725 C 0.76502 0.76615 0.75338 0.0
C726 C 0.77727 0.75829 0.81088 0.0
C727 C 0.74289 0.75217 0.85209 0.0
C728 C 0.78795 0.76948 0.84175 0.0
C729 C 0.79977 0.76474 0.86198 0.0
C730 C 0.8009 0.74866 0.85173 0.0
C731 C 0.79098 0.7382 0.81952 0.0
C732 C 0.77936 0.74301 0.79925 0.0
H733 H 0.72811 0.74715 0.86095 0.0
H734 H 0.74624 0.74078 0.85772 0.0
H735 H 0.7524 0.76456 0.86993 0.0
H736 H 0.7867 0.78149 0.85087 0.0
H737 H 0.80725 0.77308 0.88664 0.0
H738 H 0.25945 0.06423 0.81104 0.0
H739 H 0.25936 0.03872 0.77364 0.0
H740 H 0.28313 0.02455 0.86845 0.0
H741 H 0.2834 0.04995 0.90587 0.0
H742 H 0.29452 0.03454 0.76118 0.0
H743 H 0.2338 0.97368 0.83207 0.0
H744 H 0.23683 0.9972 0.83186 0.0
H745 H 0.25118 0.99195 0.86222 0.0
C746 C 0.26453 0.05559 0.82401 0.0
C747 C 0.27144 0.05915 0.86145 0.0
C748 C 0.26453 0.04109 0.80256 0.0
C749 C 0.27116 0.02972 0.81838 0.0
C750 C 0.27785 0.03309 0.85582 0.0
H751 H 0.27832 0.93137 0.75138 0.0
H752 H 0.27819 0.95773 0.78446 0.0
C753 C 0.27804 0.04767 0.87711 0.0
C754 C 0.27152 0.01455 0.7957 0.0
H755 H 0.25131 0.96651 0.78871 0.0
C756 C 0.28501 0.01965 0.76691 0.0
C757 C 0.25921 0.99519 0.80358 0.0
C758 C 0.24432 0.98904 0.83394 0.0
C759 C 0.28687 1.00585 0.74637 0.0
C760 C 0.27449 0.98639 0.75412 0.0
C761 C 0.26083 0.98137 0.78271 0.0
C762 C 0.27554 0.97096 0.73347 0.0
C763 C 0.30253 1.01233 0.7176 0.0
C764 C 0.27416 0.96956 0.69373 0.0
C765 C 0.27451 0.95463 0.67475 0.0
C766 C 0.27584 0.94055 0.69516 0.0
C767 C 0.2772 0.94195 0.7349 0.0
C768 C 0.27712 0.95702 0.75381 0.0
H769 H 0.31399 0.02708 0.7233 0.0
H770 H 0.30872 1.00294 0.71735 0.0
H771 H 0.29677 1.01206 0.68897 0.0
H772 H 0.27237 0.97976 0.67737 0.0
H773 H 0.2731 0.95374 0.64416 0.0
H774 H 0.98121 0.23805 0.89373 0.0
H775 H 1.00523 0.26322 0.85485 0.0
H776 H 0.9976 0.22242 0.76857 0.0
H777 H 0.97347 0.19691 0.80768 0.0
H778 H 0.03533 0.2482 0.78303 0.0
H779 H 0.99568 0.28593 0.76061 0.0
H780 H 0.99813 0.28205 0.80982 0.0
H781 H 0.98473 0.2621 0.77891 0.0
C782 C 0.98451 0.23435 0.86641 0.0
C783 C 0.97521 0.21542 0.85368 0.0
C784 C 0.99824 0.24883 0.84412 0.0
C785 C 1.00294 0.24481 0.80839 0.0
C786 C 0.99407 0.22588 0.79591 0.0
H787 H 0.07121 0.33502 0.64655 0.0
H788 H 0.04567 0.30693 0.67718 0.0
C789 C 0.9803 0.21132 0.81831 0.0
C790 C 1.01734 0.26041 0.78462 0.0
H791 H 0.02857 0.30309 0.74552 0.0
C792 C 0.03379 0.26012 0.77453 0.0
C793 C 1.01521 0.27584 0.77294 0.0
C794 C 0.9974 0.27646 0.78077 0.0
C795 C 0.04844 0.27516 0.75437 0.0
C796 C 0.04675 0.29108 0.74459 0.0
C797 C 0.03 0.29103 0.75342 0.0
C798 C 0.06232 0.30809 0.72586 0.0
C799 C 0.06554 0.27377 0.74356 0.0
C800 C 0.08009 0.31834 0.74332 0.0
C801 C 0.09469 0.33442 0.72595 0.0
C802 C 0.09183 0.34075 0.69082 0.0
C803 C 0.07389 0.33066 0.67371 0.0
C804 C 0.0593 0.31452 0.69109 0.0
H805 H 0.06228 0.25881 0.74273 0.0
H806 H 0.07107 0.28028 0.71544 0.0
H807 H 0.07682 0.28139 0.76498 0.0
H808 H 0.08264 0.31401 0.77065 0.0
H809 H 0.10818 0.34204 0.74033 0.0
H810 H 0.90958 0.63355 0.546 0.0
H811 H 0.92963 0.62479 0.58153 0.0
H812 H 0.91347 0.57717 0.50676 0.0
H813 H 0.89321 0.58588 0.47084 0.0
H814 H 0.92284 0.58981 0.61823 0.0
H815 H 0.97218 0.6114 0.49561 0.0
H816 H 0.95424 0.61801 0.4994 0.0
H817 H 0.9478 0.59419 0.48681 0.0
C818 C 0.91001 0.62101 0.53743 0.0
C819 C 0.9 0.61055 0.50529 0.0
C820 C 0.92146 0.61601 0.55785 0.0
C821 C 0.92328 0.60054 0.54641 0.0
C822 C 0.91243 0.58932 0.51573 0.0
H823 H 1.01258 0.57819 0.61884 0.0
H824 H 0.98485 0.57595 0.58785 0.0
C825 C 0.90078 0.59424 0.49538 0.0
C826 C 0.93766 0.59728 0.56505 0.0
H827 H 0.98148 0.60285 0.55152 0.0
C828 C 0.93558 0.59244 0.6036 0.0
C829 C 0.95428 0.60077 0.54588 0.0
C830 C 0.95745 0.6065 0.5047 0.0
C831 C 0.94977 0.59118 0.62363 0.0
C832 C 0.96672 0.5954 0.60483 0.0
C833 C 0.96853 0.59969 0.56598 0.0
C834 C 0.98303 0.59611 0.62506 0.0
C835 C 0.9464 0.58528 0.66469 0.0
C836 C 0.99142 0.60832 0.65613 0.0
C837 C 1.00718 0.60948 0.67427 0.0
C838 C 1.01507 0.5986 0.66145 0.0
C839 C 1.00672 0.58652 0.63002 0.0
C840 C 0.99091 0.58531 0.61205 0.0
H841 H 0.93107 0.57681 0.67109 0.0
H842 H 0.95313 0.57682 0.67231 0.0
H843 H 0.95253 0.59812 0.6829 0.0
H844 H 0.98592 0.61718 0.66613 0.0
H845 H 1.01309 0.61882 0.69851 0.0
H846 H 0.40095 0.40574 0.64428 0.0
H847 H 0.40317 0.37949 0.61605 0.0
H848 H 0.46182 0.40628 0.64824 0.0
H849 H 0.45969 0.4324 0.67716 0.0
H850 H 0.45493 0.39431 0.57204 0.0
H851 H 0.40727 0.33669 0.66929 0.0
H852 H 0.39723 0.34992 0.64936 0.0
H853 H 0.41711 0.36146 0.68089 0.0
C854 C 0.41426 0.40594 0.64593 0.0
C855 C 0.43014 0.42128 0.66303 0.0
C856 C 0.4155 0.3909 0.62973 0.0
C857 C 0.43261 0.39081 0.63037 0.0
C858 C 0.44847 0.40603 0.64743 0.0
H859 H 0.4471 0.29517 0.56085 0.0
H860 H 0.44819 0.32159 0.5967 0.0
C861 C 0.44723 0.42104 0.66374 0.0
C862 C 0.43421 0.37526 0.61185 0.0
H863 H 0.41658 0.32737 0.61297 0.0
C864 C 0.44663 0.37969 0.58115 0.0
C865 C 0.42357 0.35622 0.62405 0.0
C866 C 0.41066 0.35073 0.65792 0.0
C867 C 0.44825 0.36554 0.56158 0.0
C868 C 0.43706 0.34641 0.57281 0.0
C869 C 0.42508 0.34203 0.60426 0.0
C870 C 0.43694 0.3307 0.55109 0.0
C871 C 0.46192 0.37116 0.52895 0.0
C872 C 0.43018 0.32703 0.5137 0.0
C873 C 0.42948 0.31198 0.4933 0.0
C874 C 0.43552 0.30021 0.50981 0.0
C875 C 0.44245 0.30401 0.54722 0.0
C876 C 0.44301 0.31904 0.56778 0.0
H877 H 0.47278 0.38644 0.53011 0.0
H878 H 0.46912 0.36268 0.52881 0.0
H879 H 0.45405 0.36847 0.50187 0.0
H880 H 0.42518 0.33566 0.50041 0.0
H881 H 0.4241 0.30954 0.46454 0.0
H882 H 0.60429 1.01188 0.60265 0.0
H883 H 0.63133 0.03931 0.57417 0.0
H884 H 0.65947 0.05433 0.68266 0.0
H885 H 0.63232 0.02689 0.71157 0.0
H886 H 0.64529 0.07739 0.59477 0.0
H887 H 0.70004 0.05652 0.61022 0.0
H888 H 0.67512 0.03974 0.61461 0.0
H889 H 0.68765 0.05576 0.65284 0.0
C890 C 0.61624 0.02097 0.62051 0.0
C891 C 0.61608 0.01723 0.65948 0.0
C892 C 0.63171 0.03663 0.60414 0.0
C893 C 0.64745 0.04884 0.62622 0.0
C894 C 0.64759 0.04494 0.66495 0.0
H895 H 0.73341 0.1623 0.54757 0.0
H896 H 0.70889 0.13642 0.5853 0.0
C897 C 0.63207 0.02923 0.68142 0.0
C898 C 0.66327 0.06602 0.60871 0.0
H899 H 0.7099 0.08684 0.58489 0.0
C900 C 0.65946 0.07953 0.59279 0.0
C901 C 0.68169 0.06871 0.60599 0.0
C902 C 0.68644 0.05438 0.62152 0.0
C903 C 0.6735 0.09553 0.57381 0.0
C904 C 0.69193 0.09822 0.57105 0.0
C905 C 0.6958 0.08482 0.58733 0.0
C906 C 0.707 0.11409 0.54902 0.0
C907 C 0.66836 0.10909 0.55571 0.0
C908 C 0.71423 0.11013 0.51644 0.0
C909 C 0.72817 0.12482 0.49492 0.0
C910 C 0.73536 0.14386 0.50562 0.0
C911 C 0.72815 0.14782 0.53843 0.0
C912 C 0.71412 0.13305 0.55998 0.0
H913 H 0.65283 0.10308 0.5541 0.0
H914 H 0.67443 0.12231 0.57277 0.0
H915 H 0.67429 0.11287 0.52665 0.0
H916 H 0.7089 0.09562 0.50738 0.0
H917 H 0.73318 0.12118 0.46966 0.0
H918 H 0.46089 0.05277 0.13702 0.0
H919 H 0.43989 0.05985 0.10043 0.0
H920 H 0.44791 0.10275 0.18206 0.0
H921 H 0.46943 0.09596 0.21844 0.0
H922 H 0.40684 0.05407 0.12754 0.0
H923 H 0.45019 0.12901 0.08275 0.0
H924 H 0.46052 0.11538 0.0999 0.0
H925 H 0.45105 0.12535 0.13273 0.0
C926 C 0.45858 0.06407 0.14668 0.0
C927 C 0.4668 0.07379 0.18064 0.0
C928 C 0.44652 0.06807 0.12578 0.0
C929 C 0.44225 0.08182 0.13837 0.0
C930 C 0.45119 0.09228 0.17133 0.0
H931 H 0.33729 0.07892 0.08066 0.0
H932 H 0.36326 0.07779 0.1123 0.0
C933 C 0.46351 0.08841 0.19216 0.0
C934 C 0.42701 0.08361 0.11901 0.0
H935 H 0.41698 0.11448 0.07331 0.0
C936 C 0.40912 0.06729 0.11561 0.0
C937 C 0.42994 0.1008 0.10315 0.0
C938 C 0.449 0.11861 0.10443 0.0
C939 C 0.39413 0.06766 0.09702 0.0
C940 C 0.3969 0.08494 0.08202 0.0
C941 C 0.41481 0.10126 0.08507 0.0
C942 C 0.38133 0.08623 0.06295 0.0
C943 C 0.37555 0.04941 0.09296 0.0
C944 C 0.38295 0.09176 0.02483 0.0
C945 C 0.36815 0.09259 1.00667 0.0
C946 C 0.35143 0.08804 0.02634 0.0
C947 C 0.34996 0.08265 0.06464 0.0
C948 C 0.36476 0.08183 0.08273 0.0
H949 H 0.37725 0.03682 0.09657 0.0
H950 H 0.36567 0.04886 0.11511 0.0
H951 H 0.36906 0.04849 0.0648 0.0
H952 H 0.39564 0.0953 1.00901 0.0
H953 H 0.36994 0.09712 0.97739 0.0
H954 H 0.90981 0.351 0.22272 0.0
H955 H 0.91118 0.32934 0.17656 0.0
H956 H 0.96174 0.37557 0.12864 0.0
H957 H 0.95975 0.39748 0.17317 0.0
H958 H 0.94169 0.35203 0.0745 0.0
H959 H 0.94649 0.30985 0.19204 0.0
H960 H 0.92489 0.31038 0.19368 0.0
H961 H 0.94714 0.33198 0.2 0.0
C962 C 0.92106 0.35662 0.20195 0.0
C963 C 0.93492 0.37594 0.20224 0.0
C964 C 0.92194 0.34417 0.17579 0.0
C965 C 0.93701 0.35063 0.15007 0.0
C966 C 0.95013 0.37014 0.14856 0.0
H967 H 0.96986 0.27254 0.05639 0.0
H968 H 0.96884 0.29833 0.09003 0.0
C969 C 0.949 0.38269 0.17418 0.0
C970 C 0.93959 0.33701 0.12606 0.0
H971 H 0.94243 0.29668 0.13034 0.0
C972 C 0.94195 0.33997 0.08673 0.0
C973 C 0.94043 0.32151 0.14199 0.0
C974 C 0.93982 0.31834 0.18426 0.0
C975 C 0.94477 0.32773 0.06291 0.0
C976 C 0.94457 0.31164 0.07865 0.0
C977 C 0.94244 0.30886 0.11803 0.0
C978 C 0.94658 0.29747 0.05525 0.0
C979 C 0.94846 0.33252 0.02137 0.0
C980 C 0.93467 0.2885 0.02402 0.0
C981 C 0.93562 0.2741 1.00419 0.0
C982 C 0.94813 0.26801 0.01586 0.0
C983 C 0.96015 0.27704 0.0468 0.0
C984 C 0.9595 0.29172 0.06607 0.0
H985 H 0.95458 0.34796 0.01655 0.0
H986 H 0.95825 0.32814 0.00946 0.0
H987 H 0.93491 0.32508 1.00559 0.0
H988 H 0.92415 0.29213 0.01572 0.0
H989 H 0.92597 0.26711 0.98083 0.0
H990 H 0.65321 0.56659 0.21492 0.0
H991 H 0.68185 0.58922 0.1808 0.0
H992 H 0.64761 0.5895 0.08809 0.0
H993 H 0.61906 0.56748 0.12261 0.0
H994 H 0.69866 0.59211 0.11102 0.0
H995 H 0.67436 0.64434 0.12173 0.0
H996 H 0.663 0.62214 0.14688 0.0
H997 H 0.65774 0.62303 0.09761 0.0
C998 C 0.65185 0.57105 0.18681 0.0
C999 C 0.63394 0.56537 0.17145 0.0
C1000 C 0.66821 0.5841 0.16743 0.0
C1001 C 0.66684 0.59151 0.13238 0.0
C1002 C 0.649 0.58444 0.11558 0.0
H1003 H 0.74506 0.67593 0.97527 0.0
H1004 H 0.71806 0.6495 1.00654 0.0
C1005 C 0.63271 0.5717 0.13514 0.0
C1006 C 0.68376 0.60759 0.11461 0.0
H1007 H 0.70114 0.65292 0.08283 0.0
C1008 C 0.69924 0.60543 0.10504 0.0
C1009 C 0.68464 0.6251 0.10719 0.0
C1010 C 0.66914 0.62891 0.11924 0.0
C1011 C 0.7153 0.62012 0.08728 0.0
C1012 C 0.71587 0.63735 0.07899 0.0
C1013 C 0.70054 0.6396 0.08891 0.0
C1014 C 0.73232 0.65332 0.0602 0.0
C1015 C 0.73148 0.61712 0.0769 0.0
C1016 C 0.74914 0.66443 0.08031 0.0
C1017 C 0.76451 0.67979 0.06278 0.0
C1018 C 0.76342 0.68428 0.02464 0.0
C1019 C 0.7464 0.67313 1.00476 0.0
C1020 C 0.73099 0.65788 0.02245 0.0
H1021 H 0.72792 0.60219 0.0809 0.0
H1022 H 0.73563 0.62119 0.04691 0.0
H1023 H 0.74389 0.62635 0.09491 0.0
H1024 H 0.75031 0.66131 0.10969 0.0
H1025 H 0.77719 0.68822 0.07932 0.0
H1026 H 0.58076 0.97488 0.8683 0.0
H1027 H 0.59895 0.96544 0.90821 0.0
H1028 H 0.58308 0.91682 0.8365 0.0
H1029 H 0.5648 0.92631 0.796 0.0
H1030 H 0.58985 0.93141 0.94839 0.0
H1031 H 0.64171 0.94746 0.83215 0.0
H1032 H 0.62452 0.95514 0.83081 0.0
H1033 H 0.61739 0.93082 0.82149 0.0
C1034 C 0.5809 0.96203 0.86121 0.0
C1035 C 0.57152 0.95147 0.82868 0.0
C1036 C 0.59128 0.95663 0.88416 0.0
C1037 C 0.59264 0.94063 0.87498 0.0
C1038 C 0.58243 0.92939 0.84375 0.0
H1039 H 0.67356 0.91114 0.96835 0.0
H1040 H 0.64771 0.91069 0.93288 0.0
C1041 C 0.57188 0.93474 0.82079 0.0
C1042 C 0.60579 0.93669 0.89689 0.0
H1043 H 0.64839 0.93865 0.89084 0.0
C1044 C 0.60256 0.9328 0.93578 0.0
C1045 C 0.6224 0.93859 0.88038 0.0
C1046 C 0.62689 0.94336 0.83899 0.0
C1047 C 0.61558 0.9309 0.95869 0.0
C1048 C 0.6325 0.93341 0.94243 0.0
C1049 C 0.63546 0.93679 0.90332 0.0
C1050 C 0.64757 0.93312 0.96549 0.0
C1051 C 0.61103 0.92614 1.00005 0.0
C1052 C 0.65625 0.94598 0.99553 0.0
C1053 C 0.67095 0.94616 0.0162 0.0
C1054 C 0.67741 0.93356 1.00707 0.0
C1055 C 0.66874 0.92079 0.97675 0.0
C1056 C 0.65403 0.9206 0.95621 0.0
H1057 H 0.59559 0.91905 1.00528 0.0
H1058 H 0.61631 0.91677 0.01028 0.0
H1059 H 0.6179 0.93941 0.01699 0.0
H1060 H 0.65184 0.9561 1.00269 0.0
H1061 H 0.6772 0.95612 0.03943 0.0
H1062 H 0.08583 0.62867 0.83498 0.0
H1063 H 0.08372 0.64857 0.88478 0.0
H1064 H 0.1187 0.69842 0.81851 0.0
H1065 H 0.12074 0.67877 0.76859 0.0
H1066 H 0.11189 0.68097 0.9276 0.0
H1067 H 0.06878 0.69896 0.83378 0.0
H1068 H 0.07278 0.67952 0.82397 0.0
H1069 H 0.09062 0.7034 0.81285 0.0
C1070 C 0.09327 0.64389 0.8312 0.0
C1071 C 0.1032 0.6521 0.79748 0.0
C1072 C 0.09204 0.65522 0.8597 0.0
C1073 C 0.1007 0.6749 0.85489 0.0
C1074 C 0.11157 0.6832 0.82238 0.0
H1075 H 0.11398 0.77457 0.96026 0.0
H1076 H 0.1141 0.7497 0.92191 0.0
C1077 C 0.11277 0.67194 0.79392 0.0
C1078 C 0.09775 0.68683 0.8827 0.0
H1079 H 0.08108 0.7176 0.88981 0.0
C1080 C 0.10495 0.68882 0.91961 0.0
C1081 C 0.08852 0.69688 0.87222 0.0
C1082 C 0.07956 0.69448 0.83367 0.0
C1083 C 0.10401 0.7014 0.94571 0.0
C1084 C 0.09549 0.71203 0.93458 0.0
C1085 C 0.08769 0.70949 0.89816 0.0
C1086 C 0.09564 0.72686 0.95917 0.0
C1087 C 0.11281 0.70385 0.9844 0.0
C1088 C 0.08507 0.72223 0.99278 0.0
C1089 C 0.08498 0.73649 0.01492 0.0
C1090 C 0.09552 0.75558 1.00382 0.0
C1091 C 0.10599 0.76007 0.97001 0.0
C1092 C 0.106 0.74586 0.94792 0.0
H1093 H 0.12129 0.69669 0.9866 0.0
H1094 H 0.12203 0.71913 0.99106 0.0
H1095 H 0.10151 0.69775 1.0061 0.0
H1096 H 0.07676 0.7076 1.00165 0.0
H1097 H 0.07682 0.73259 0.04085 0.0
H1098 H 0.30278 0.35754 0.04595 0.0
H1099 H 0.32715 0.38339 1.00782 0.0
H1100 H 0.28433 0.379 0.93045 0.0
H1101 H 0.26007 0.3533 0.968 0.0
H1102 H 0.33654 0.38348 0.93214 0.0
H1103 H 0.31273 0.43533 0.95545 0.0
H1104 H 0.30473 0.41446 0.98438 0.0
H1105 H 0.29401 0.4129 0.93892 0.0
C1106 C 0.29859 0.36209 0.02077 0.0
C1107 C 0.27944 0.35352 0.01032 0.0
C1108 C 0.31251 0.37691 0.99915 0.0
C1109 C 0.3075 0.38344 0.96682 0.0
C1110 C 0.28847 0.37462 0.95593 0.0
H1111 H 0.35328 0.45017 0.77005 0.0
H1112 H 0.33473 0.43111 0.82377 0.0
C1113 C 0.2746 0.35989 0.97746 0.0
C1114 C 0.32209 0.39893 0.94327 0.0
H1115 H 0.33312 0.44109 0.90198 0.0
C1116 C 0.33604 0.39625 0.92606 0.0
C1117 C 0.32145 0.41562 0.9355 0.0
C1118 C 0.30754 0.41987 0.95485 0.0
C1119 C 0.34867 0.4093 0.89959 0.0
C1120 C 0.34743 0.42553 0.89052 0.0
C1121 C 0.33399 0.42859 0.90889 0.0
C1122 C 0.35889 0.43862 0.85976 0.0
C1123 C 0.36262 0.40515 0.8801 0.0
C1124 C 0.37862 0.44965 0.86266 0.0
C1125 C 0.38931 0.46065 0.83197 0.0
C1126 C 0.38042 0.46073 0.79783 0.0
C1127 C 0.36059 0.45033 0.79578 0.0
C1128 C 0.34995 0.43944 0.82648 0.0
H1129 H 0.3597 0.39053 0.88578 0.0
H1130 H 0.36237 0.40703 0.84898 0.0
H1131 H 0.37707 0.41524 0.89042 0.0
H1132 H 0.38576 0.44943 0.88834 0.0
H1133 H 0.40454 0.46854 0.83456 0.0
H1134 H 0.04483 0.44179 0.30303 0.0
H1135 H 0.0702 0.44261 0.34126 0.0
H1136 H 0.02889 0.40137 0.41736 0.0
H1137 H 1.0035 0.40028 0.37891 0.0
H1138 H 0.07863 0.45402 0.41271 0.0
H1139 H 0.0633 0.38 0.40316 0.0
H1140 H 0.05245 0.38932 0.37196 0.0
H1141 H 0.04307 0.38119 0.41871 0.0
C1142 C 0.04117 0.43272 0.32765 0.0
C1143 C 0.02217 0.42094 0.33794 0.0
C1144 C 0.05568 0.43318 0.34943 0.0
C1145 C 0.05149 0.42188 0.38194 0.0
C1146 C 0.0325 0.40984 0.39185 0.0
H1147 H 0.11497 0.44216 0.58586 0.0
H1148 H 0.096 0.44196 0.53246 0.0
C1149 C 1.01798 0.40926 0.3699 0.0
C1150 C 0.06692 0.42385 0.40721 0.0
H1151 H 0.08316 0.39851 0.45509 0.0
C1152 C 0.07976 0.44191 0.42155 0.0
C1153 C 0.06867 0.40814 0.4183 0.0
C1154 C 0.05626 0.38862 0.40189 0.0
C1155 C 0.09373 0.44454 0.44794 0.0
C1156 C 0.0946 0.42862 0.46107 0.0
C1157 C 0.08235 0.4107 0.44541 0.0
C1158 C 0.10732 0.43003 0.49254 0.0
C1159 C 0.10737 0.46436 0.46153 0.0
C1160 C 0.11992 0.4232 0.48811 0.0
C1161 C 0.13072 0.42312 0.51883 0.0
C1162 C 0.12901 0.42976 0.55466 0.0
C1163 C 0.11673 0.43702 0.55869 0.0
C1164 C 0.10592 0.43703 0.52805 0.0
H1165 H 0.10909 0.47508 0.44012 0.0
H1166 H 0.10177 0.46727 0.48777 0.0
H1167 H 0.12146 0.46614 0.46789 0.0
H1168 H 0.12116 0.41764 0.46101 0.0
H1169 H 0.13998 0.41736 0.51474 0.0
H1170 H 0.58311 0.68104 0.57566 0.0
H1171 H 0.58641 0.66235 0.52528 0.0
H1172 H 0.62234 0.71339 0.46303 0.0
H1173 H 0.61893 0.7323 0.51318 0.0
H1174 H 0.59617 0.68314 0.41702 0.0
H1175 H 0.63548 0.66078 0.51152 0.0
H1176 H 0.61314 0.65578 0.53073 0.0
H1177 H 0.63136 0.67996 0.52335 0.0
C1178 C 0.59159 0.68834 0.55113 0.0
C1179 C 0.60098 0.70821 0.54877 0.0
C1180 C 0.59354 0.67762 0.52245 0.0
C1181 C 0.60501 0.68652 0.49092 0.0
C1182 C 0.61359 0.70626 0.48737 0.0
H1183 H 0.63901 0.61988 0.34991 0.0
H1184 H 0.64065 0.64635 0.38626 0.0
C1185 C 0.6116 0.71704 0.51606 0.0
C1186 C 0.60836 0.67515 0.46237 0.0
H1187 H 0.62385 0.64348 0.4536 0.0
C1188 C 0.6024 0.67462 0.42485 0.0
C1189 C 0.61692 0.66439 0.47241 0.0
C1190 C 0.62478 0.66537 0.51159 0.0
C1191 C 0.60388 0.66282 0.39758 0.0
C1192 C 0.61121 0.65105 0.40836 0.0
C1193 C 0.61805 0.65235 0.44539 0.0
C1194 C 0.61069 0.63631 0.38275 0.0
C1195 C 0.59747 0.66303 0.35757 0.0
C1196 C 0.59335 0.62195 0.36855 0.0
C1197 C 0.5924 0.60693 0.34769 0.0
C1198 C 0.60874 0.60578 0.3409 0.0
C1199 C 0.6262 0.62042 0.35435 0.0
C1200 C 0.62714 0.6355 0.37526 0.0
H1201 H 0.5985 0.67681 0.35086 0.0
H1202 H 0.60596 0.6603 0.3366 0.0
H1203 H 0.58246 0.65182 0.35445 0.0
H1204 H 0.58041 0.622 0.37463 0.0
H1205 H 0.57877 0.59602 0.33735 0.0
H1206 H 0.28429 0.89823 0.46879 0.0
H1207 H 0.31218 0.91856 0.43088 0.0
H1208 H 0.34797 0.92372 0.5254 0.0
H1209 H 0.32005 0.90277 0.56288 0.0
H1210 H 0.33543 0.9544 0.4469 0.0
H1211 H 0.37724 0.91809 0.4405 0.0
H1212 H 0.35292 0.90618 0.45564 0.0
H1213 H 0.37149 0.92114 0.48808 0.0
C1214 C 0.29815 0.90323 0.48104 0.0
C1215 C 0.30002 0.89882 0.51868 0.0
C1216 C 0.31408 0.91492 0.45943 0.0
C1217 C 0.33225 0.92267 0.4751 0.0
C1218 C 0.33419 0.9176 0.51225 0.0
H1219 H 0.44154 0.01649 0.4104 0.0
H1220 H 0.41439 0.99112 0.4433 0.0
C1221 C 0.31819 0.9056 0.53373 0.0
C1222 C 0.34878 0.93757 0.45401 0.0
H1223 H 0.39311 0.95068 0.42216 0.0
C1224 C 0.34795 0.95345 0.44119 0.0
C1225 C 0.36522 0.93647 0.44674 0.0
C1226 C 0.36674 0.91947 0.45813 0.0
C1227 C 0.36308 0.96828 0.42178 0.0
C1228 C 0.37952 0.96722 0.41478 0.0
C1229 C 0.38046 0.95143 0.42762 0.0
C1230 C 0.39594 0.98251 0.39445 0.0
C1231 C 0.36155 0.98517 0.40956 0.0
C1232 C 0.39455 0.98606 0.35601 0.0
C1233 C 0.41011 1.00047 0.33694 0.0
C1234 C 0.42738 1.0116 0.35595 0.0
C1235 C 0.4286 1.00804 0.39462 0.0
C1236 C 0.41307 0.99358 0.41357 0.0
H1237 H 0.34962 0.98559 0.42366 0.0
H1238 H 0.37482 0.99857 0.41594 0.0
H1239 H 0.35919 0.98447 0.37847 0.0
H1240 H 0.38149 0.97753 0.34063 0.0
H1241 H 0.40872 1.00259 0.30708 0.0
H1242 H 0.194 0.39792 0.48729 0.0
H1243 H 0.20311 0.38819 0.42839 0.0
H1244 H 0.15371 0.33272 0.43709 0.0
H1245 H 0.14466 0.34236 0.49536 0.0
H1246 H 0.20908 0.3571 0.40943 0.0
H1247 H 0.14727 0.35176 0.33318 0.0
H1248 H 0.15528 0.36371 0.37827 0.0
H1249 H 0.14145 0.33829 0.37622 0.0
C1250 C 0.18538 0.38355 0.47699 0.0
C1251 C 0.16853 0.37095 0.49566 0.0
C1252 C 0.19048 0.37803 0.44324 0.0
C1253 C 0.17879 0.35987 0.42775 0.0
C1254 C 0.16268 0.34695 0.44786 0.0
H1255 H 0.17884 0.29907 0.22253 0.0
H1256 H 0.1701 0.30902 0.28159 0.0
C1257 C 0.15759 0.35244 0.48128 0.0
C1258 C 0.18293 0.35443 0.39013 0.0
H1259 H 0.1647 0.3399 0.30096 0.0
C1260 C 0.19945 0.35347 0.38565 0.0
C1261 C 0.17029 0.34956 0.3591 0.0
C1262 C 0.15265 0.35102 0.36167 0.0
C1263 C 0.2035 0.34742 0.35129 0.0
C1264 C 0.19086 0.34257 0.32024 0.0
C1265 C 0.17434 0.34354 0.32473 0.0
C1266 C 0.19492 0.33701 0.28265 0.0
C1267 C 0.22109 0.34588 0.34883 0.0
C1268 C 0.21122 0.34968 0.26271 0.0
C1269 C 0.21612 0.34405 0.22922 0.0
C1270 C 0.20477 0.32566 0.21455 0.0
C1271 C 0.18777 0.31334 0.23307 0.0
C1272 C 0.18288 0.31898 0.26691 0.0
H1273 H 0.22632 0.34496 0.37737 0.0
H1274 H 0.21848 0.33326 0.33201 0.0
H1275 H 0.23239 0.35867 0.33464 0.0
H1276 H 0.22044 0.36383 0.2736 0.0
H1277 H 0.22915 0.35394 0.21524 0.0
H1278 H 0.68729 0.80753 0.48696 0.0
H1279 H 0.69718 0.82614 0.42881 0.0
H1280 H 0.64299 0.82277 0.42143 0.0
H1281 H 0.63299 0.80401 0.48006 0.0
H1282 H 0.68078 0.81428 0.35829 0.0
H1283 H 0.67971 0.87903 0.40306 0.0
H1284 H 0.6792 0.86211 0.43662 0.0
H1285 H 0.65811 0.85725 0.41154 0.0
C1286 C 0.67751 0.81087 0.47317 0.0
C1287 C 0.6593 0.80418 0.48807 0.0
C1288 C 0.6832 0.82154 0.43988 0.0
C1289 C 0.67089 0.82593 0.42064 0.0
C1290 C 0.65287 0.81982 0.43603 0.0
H1291 H 0.67885 0.88459 0.21108 0.0
H1292 H 0.66864 0.86523 0.26829 0.0
C1293 C 0.64716 0.80913 0.46959 0.0
C1294 C 0.67676 0.83605 0.38361 0.0
H1295 H 0.68476 0.87627 0.33783 0.0
C1296 C 0.6817 0.82787 0.35384 0.0
C1297 C 0.67799 0.85379 0.37775 0.0
C1298 C 0.67365 0.86369 0.40898 0.0
C1299 C 0.6875 0.83674 0.31828 0.0
C1300 C 0.68874 0.85448 0.31242 0.0
C1301 C 0.68382 0.86267 0.34223 0.0
C1302 C 0.6946 0.86467 0.27543 0.0
C1303 C 0.69179 0.82679 0.28705 0.0
C1304 C 0.7125 0.87051 0.25961 0.0
C1305 C 0.71833 0.88154 0.22647 0.0
C1306 C 0.70647 0.88712 0.20897 0.0
C1307 C 0.68836 0.88065 0.22414 0.0
C1308 C 0.68252 0.8696 0.2569 0.0
H1309 H 0.68548 0.81141 0.29279 0.0
H1310 H 0.68645 0.82858 0.25932 0.0
H1311 H 0.70731 0.83301 0.28484 0.0
H1312 H 0.72224 0.86718 0.27366 0.0
H1313 H 0.73243 0.88652 0.21571 0.0
H1314 H 0.14334 0.85811 0.21534 0.0
H1315 H 0.16198 0.86745 0.27439 0.0
H1316 H 0.17028 0.81945 0.26318 0.0
H1317 H 0.15167 0.81014 0.2048 0.0
H1318 H 0.15469 0.82052 0.33186 0.0
H1319 H 0.21836 0.88996 0.30112 0.0
H1320 H 0.19616 0.88815 0.28914 0.0
H1321 H 0.20373 0.87392 0.26415 0.0
C1322 C 0.14966 0.84996 0.22499 0.0
C1323 C 0.146 0.83336 0.20566 0.0
C1324 C 0.16028 0.85525 0.25872 0.0
C1325 C 0.16754 0.84413 0.27328 0.0
C1326 C 0.16478 0.82821 0.25266 0.0
H1327 H 0.24031 0.86237 0.46889 0.0
H1328 H 0.22654 0.85728 0.40516 0.0
C1329 C 0.15417 0.82291 0.21929 0.0
C1330 C 0.17633 0.84771 0.31164 0.0
H1331 H 0.21383 0.87954 0.36507 0.0
C1332 C 0.16763 0.83343 0.33907 0.0
C1333 C 0.19329 0.86448 0.32098 0.0
C1334 C 0.20358 0.87998 0.29229 0.0
C1335 C 0.17534 0.83547 0.37552 0.0
C1336 C 0.19211 0.85238 0.38517 0.0
C1337 C 0.20093 0.86662 0.35769 0.0
C1338 C 0.20052 0.85548 0.42378 0.0
C1339 C 0.16562 0.81934 0.40324 0.0
C1340 C 0.19049 0.85618 0.45542 0.0
C1341 C 0.19825 0.85893 0.49181 0.0
C1342 C 0.21627 0.86113 0.49747 0.0
C1343 C 0.2263 0.86041 0.46569 0.0
C1344 C 0.21852 0.85771 0.42919 0.0
H1345 H 0.15588 0.80578 0.38871 0.0
H1346 H 0.17608 0.81742 0.41981 0.0
H1347 H 0.1572 0.82256 0.4234 0.0
H1348 H 0.17667 0.85471 0.45193 0.0
H1349 H 0.19009 0.8593 0.51558 0.0
H1350 H 0.8685 0.72761 0.81727 0.0
H1351 H 0.87408 0.71801 0.75464 0.0
H1352 H 0.81601 0.67279 0.75074 0.0
H1353 H 0.81089 0.68181 0.81385 0.0
H1354 H 0.83658 0.65938 0.72905 0.0
H1355 H 0.86162 0.72657 0.65113 0.0
H1356 H 0.87612 0.72941 0.69151 0.0
H1357 H 0.85181 0.72305 0.69812 0.0
C1358 C 0.85695 0.7158 0.80263 0.0
C1359 C 0.83928 0.70545 0.82027 0.0
C1360 C 0.86007 0.71034 0.76674 0.0
C1361 C 0.8454 0.69477 0.74735 0.0
C1362 C 0.82763 0.68478 0.76486 0.0
H1363 H 0.84627 0.67021 0.50735 0.0
H1364 H 0.8416 0.68005 0.57011 0.0
C1365 C 0.82466 0.68996 0.80091 0.0
C1366 C 0.84852 0.68817 0.70974 0.0
H1367 H 0.8649 0.70256 0.61975 0.0
C1368 C 0.8427 0.66886 0.70513 0.0
C1369 C 0.8563 0.70036 0.67813 0.0
C1370 C 0.86163 0.72095 0.67979 0.0
C1371 C 0.84425 0.6614 0.67014 0.0
C1372 C 0.85266 0.67372 0.63891 0.0
C1373 C 0.85859 0.69306 0.64357 0.0
C1374 C 0.85487 0.66684 0.60085 0.0
C1375 C 0.83617 0.64027 0.66687 0.0
C1376 C 0.86378 0.65598 0.59675 0.0
C1377 C 0.86601 0.64993 0.5608 0.0
C1378 C 0.85989 0.65509 0.52807 0.0
C1379 C 0.85112 0.66604 0.5321 0.0
C1380 C 0.84852 0.67173 0.56801 0.0
H1381 H 0.82512 0.6325 0.68858 0.0
H1382 H 0.82989 0.63493 0.63844 0.0
H1383 H 0.84758 0.63692 0.67157 0.0
H1384 H 0.86939 0.65248 0.62125 0.0
H1385 H 0.87315 0.64183 0.55841 0.0
H1386 H 0.35289 0.1724 0.85097 0.0
H1387 H 0.36122 0.18658 0.78814 0.0
H1388 H 0.31762 0.13455 0.73858 0.0
H1389 H 0.30923 0.12011 0.80162 0.0
H1390 H 0.37367 0.1752 0.72552 0.0
H1391 H 0.30682 0.17418 0.69264 0.0
H1392 H 0.31278 0.17049 0.73992 0.0
H1393 H 0.30398 0.15162 0.70563 0.0
C1394 C 0.34508 0.16385 0.82684 0.0
C1395 C 0.33037 0.14501 0.83162 0.0
C1396 C 0.34983 0.17206 0.79082 0.0
C1397 C 0.33995 0.16175 0.75857 0.0
C1398 C 0.32523 0.14295 0.76308 0.0
H1399 H 0.35012 0.18802 0.51784 0.0
H1400 H 0.34143 0.17327 0.58021 0.0
C1401 C 0.32044 0.13469 0.79921 0.0
C1402 C 0.34548 0.17062 0.72031 0.0
H1403 H 0.32933 0.18372 0.64328 0.0
C1404 C 0.36398 0.17711 0.70758 0.0
C1405 C 0.33286 0.17312 0.69683 0.0
C1406 C 0.31304 0.16716 0.70946 0.0
C1407 C 0.37012 0.18572 0.67189 0.0
C1408 C 0.35754 0.18832 0.64847 0.0
C1409 C 0.33901 0.18178 0.66118 0.0
C1410 C 0.36318 0.1975 0.61049 0.0
C1411 C 0.3899 0.19155 0.65925 0.0
C1412 C 0.37827 0.21616 0.60651 0.0
C1413 C 0.3833 0.2247 0.57067 0.0
C1414 C 0.37322 0.21485 0.53803 0.0
C1415 C 0.35807 0.19619 0.54224 0.0
C1416 C 0.35311 0.18767 0.57798 0.0
H1417 H 0.39584 0.18406 0.67543 0.0
H1418 H 0.39025 0.18866 0.62856 0.0
H1419 H 0.39918 0.20698 0.66411 0.0
H1420 H 0.38601 0.22424 0.6312 0.0
H1421 H 0.39483 0.23916 0.56866 0.0
H1422 H 0.79653 0.16449 0.56459 0.0
H1423 H 0.81101 0.16919 0.62755 0.0
H1424 H 0.864 0.18277 0.5758 0.0
H1425 H 0.84991 0.17869 0.51315 0.0
H1426 H 0.8279 0.15022 0.6606 0.0
H1427 H 0.87985 0.22689 0.64885 0.0
H1428 H 0.86025 0.21478 0.61646 0.0
H1429 H 0.88113 0.21299 0.61068 0.0
C1430 C 0.81132 0.16873 0.56657 0.0
C1431 C 0.82199 0.17119 0.53357 0.0
C1432 C 0.81957 0.1713 0.60263 0.0
C1433 C 0.83869 0.1766 0.60651 0.0
C1434 C 0.84933 0.17903 0.57366 0.0
H1435 H 0.91506 0.19631 0.7969 0.0
H1436 H 0.90048 0.19149 0.73399 0.0
C1437 C 0.84113 0.17644 0.53772 0.0
C1438 C 0.84745 0.17902 0.64476 0.0
H1439 H 0.88365 0.21073 0.70113 0.0
C1440 C 0.84 0.16349 0.66955 0.0
C1441 C 0.86334 0.1963 0.65645 0.0
C1442 C 0.87153 0.21375 0.63189 0.0
C1443 C 0.8482 0.16466 0.7053 0.0
C1444 C 0.86411 0.18193 0.71696 0.0
C1445 C 0.87154 0.19746 0.69218 0.0
C1446 C 0.87289 0.18435 0.75517 0.0
C1447 C 0.83999 0.14722 0.72991 0.0
C1448 C 0.86233 0.18207 0.78806 0.0
C1449 C 0.87059 0.18475 0.82396 0.0
C1450 C 0.88971 0.1899 0.828 0.0
C1451 C 0.90028 0.19215 0.79497 0.0
C1452 C 0.89198 0.18951 0.75895 0.0
H1453 H 0.83157 0.13408 0.71303 0.0
H1454 H 0.85128 0.14614 0.7452 0.0
H1455 H 0.83049 0.14808 0.75126 0.0
H1456 H 0.84768 0.17843 0.78598 0.0
H1457 H 0.8619 0.18267 0.84858 0.0
H1458 H 0.50427 0.05335 0.12511 0.0
H1459 H 0.50955 0.04553 0.06073 0.0
H1460 H 0.51699 1.00052 0.10522 0.0
H1461 H 0.51184 1.00827 0.16937 0.0
H1462 H 0.54027 0.04424 0.02891 0.0
H1463 H 0.476 0.97309 0.02515 0.0
H1464 H 0.47973 0.99059 0.06074 0.0
H1465 H 0.49119 0.97675 0.06489 0.0
C1466 C 0.50722 0.04192 0.12124 0.0
C1467 C 0.50743 0.03133 0.15249 0.0
C1468 C 0.51013 0.03739 0.08438 0.0
C1469 C 0.51325 0.02215 0.078 0.0
C1470 C 0.51409 1.01199 0.10925 0.0
H1471 H 0.5347 0.97192 0.87891 0.0
H1472 H 0.52908 0.9796 0.94313 0.0
C1473 C 0.51115 0.01647 0.14599 0.0
C1474 C 0.51579 0.01694 0.0388 0.0
H1475 H 0.49773 0.9805 0.97455 0.0
C1476 C 0.5309 0.03035 0.01694 0.0
C1477 C 0.5036 0.99877 0.02318 0.0
C1478 C 0.48661 0.98401 0.04452 0.0
C1479 C 0.53438 0.02599 0.98027 0.0
C1480 C 0.52221 1.00781 0.96469 0.0
C1481 C 0.50709 0.9944 0.98652 0.0
C1482 C 0.52481 1.00258 0.92556 0.0
C1483 C 0.55132 0.04075 0.95885 0.0
C1484 C 0.52374 1.01255 0.89421 0.0
C1485 C 0.52683 1.00813 0.85753 0.0
C1486 C 0.53099 0.99355 0.85123 0.0
C1487 C 0.53141 0.98313 0.8826 0.0
C1488 C 0.52831 0.98758 0.91938 0.0
H1489 H 0.56185 0.05182 0.97809 0.0
H1490 H 0.55832 0.0342 0.94296 0.0
H1491 H 0.54666 0.04781 0.93815 0.0
H1492 H 0.52056 0.02383 0.89811 0.0
H1493 H 0.52598 0.01619 0.83407 0.0
H1494 H 0.07197 0.55459 0.86661 0.0
H1495 H 0.0617 0.53484 0.92412 0.0
H1496 H 1.00692 0.53006 0.91527 0.0
H1497 H 1.01696 0.54929 0.85798 0.0
H1498 H 0.05005 0.54424 0.99109 0.0
H1499 H 0.99277 0.4757 0.93612 0.0
H1500 H 1.00996 0.49383 0.90547 0.0
H1501 H 0.99004 0.49537 0.92247 0.0
C1502 C 0.0576 0.54883 0.87643 0.0
C1503 C 0.04527 0.55347 0.85786 0.0
C1504 C 0.05178 0.5377 0.90941 0.0
C1505 C 0.03346 0.53082 0.92392 0.0
C1506 C 0.02097 0.53487 0.90442 0.0
H1507 H 0.97154 0.47215 0.12866 0.0
H1508 H 0.98229 0.49135 0.07048 0.0
C1509 C 0.02678 0.54599 0.87177 0.0
C1510 C 0.02769 0.5207 0.96089 0.0
H1511 H 0.99358 0.48027 1.00319 0.0
C1512 C 0.03782 0.53017 0.99368 0.0
C1513 C 1.01159 0.50242 0.9644 0.0
C1514 C 1.00056 0.49115 0.93019 0.0
C1515 C 0.03209 0.52204 0.02984 0.0
C1516 C 1.01593 0.50383 0.03335 0.0
C1517 C 1.00584 0.49432 1.00057 0.0
C1518 C 1.00992 0.49387 0.07042 0.0
C1519 C 0.04317 0.5332 0.06409 0.0
C1520 C 0.02191 0.48914 0.08991 0.0
C1521 C 1.01581 0.47828 0.12289 0.0
C1522 C 0.99754 0.47181 0.13719 0.0
C1523 C 0.98574 0.47712 0.11853 0.0
C1524 C 0.99183 0.48794 0.08518 0.0
H1525 H 0.05159 0.5486 0.05798 0.0
H1526 H 0.03368 0.53101 0.0884 0.0
H1527 H 0.0531 0.52834 0.07262 0.0
H1528 H 0.03579 0.49328 0.07888 0.0
H1529 H 0.02525 0.47448 0.13676 0.0
H1530 H 0.48469 0.47756 0.8506 0.0
H1531 H 0.50434 0.48785 0.90765 0.0
H1532 H 0.49911 0.53784 0.91318 0.0
H1533 H 0.4791 0.52734 0.85598 0.0
H1534 H 0.53821 0.52092 0.92962 0.0
H1535 H 0.47638 0.51035 0.01433 0.0
H1536 H 0.47409 0.50168 0.96638 0.0
H1537 H 0.48267 0.52639 0.97505 0.0
C1538 C 0.48798 0.4909 0.86365 0.0
C1539 C 0.4802 0.50155 0.84908 0.0
C1540 C 0.49924 0.49679 0.89621 0.0
C1541 C 0.50292 0.51342 0.91516 0.0
C1542 C 0.49621 0.52478 0.89935 0.0
H1543 H 0.54776 0.55361 0.14121 0.0
H1544 H 0.53561 0.55 0.0768 0.0
C1545 C 0.48496 0.51891 0.86647 0.0
C1546 C 0.51252 0.5179 0.95277 0.0
H1547 H 0.50477 0.5203 0.04728 0.0
C1548 C 0.53097 0.52091 0.95536 0.0
C1549 C 0.503 0.5177 0.9864 0.0
C1550 C 0.48289 0.51371 0.9857 0.0
C1551 C 0.54019 0.52392 0.99059 0.0
C1552 C 0.53057 0.52349 0.02427 0.0
C1553 C 0.51218 0.52063 0.02155 0.0
C1554 C 0.53921 0.52617 0.0627 0.0
C1555 C 0.56027 0.52784 0.99131 0.0
C1556 C 0.54541 0.51403 0.0765 0.0
C1557 C 0.55244 0.51609 0.11363 0.0
C1558 C 0.55311 0.53014 0.13784 0.0
C1559 C 0.54711 0.54239 0.12368 0.0
C1560 C 0.54025 0.54042 0.08668 0.0
H1561 H 0.56728 0.53297 0.96341 0.0
H1562 H 0.56871 0.53854 0.0133 0.0
H1563 H 0.56025 0.51455 0.99802 0.0
H1564 H 0.54439 0.50264 0.05893 0.0
H1565 H 0.55681 0.50635 0.12375 0.0
H1566 H 0.20627 0.22298 0.06223 0.0
H1567 H 0.21329 0.19798 0.04766 0.0
H1568 H 0.21588 0.21078 0.92863 0.0
H1569 H 0.20778 0.23513 0.94257 0.0
H1570 H 0.20106 0.17308 0.93915 0.0
H1571 H 0.26681 0.21228 0.02377 0.0
H1572 H 0.24578 0.20533 0.05077 0.0
H1573 H 0.25198 0.22214 0.01283 0.0
C1574 C 0.20788 0.22033 0.03281 0.0
C1575 C 0.20687 0.23164 1.00373 0.0
C1576 C 0.21215 0.20607 0.02456 0.0
C1577 C 0.21579 0.20288 0.98714 0.0
C1578 C 0.21343 0.21311 0.95782 0.0
H1579 H 0.29098 0.16202 0.92786 0.0
H1580 H 0.27388 0.17927 0.93395 0.0
C1581 C 0.20895 0.22723 0.96596 0.0
C1582 C 0.22334 0.18993 0.97872 0.0
H1583 H 0.26021 0.18284 0.99851 0.0
C1584 C 0.21398 0.17519 0.95215 0.0
C1585 C 0.24038 0.19281 0.99517 0.0
C1586 C 0.25194 0.20909 0.02192 0.0
C1587 C 0.2212 0.16332 0.94165 0.0
C1588 C 0.23806 0.16603 0.95866 0.0
C1589 C 0.24726 0.18067 0.98544 0.0
C1590 C 0.24713 0.15462 0.94834 0.0
C1591 C 0.21101 0.14842 0.91158 0.0
C1592 C 0.23769 0.13479 0.95274 0.0
C1593 C 0.24745 0.12478 0.94828 0.0
C1594 C 0.26686 0.13453 0.94009 0.0
C1595 C 0.27599 0.15415 0.93395 0.0
C1596 C 0.26623 0.16404 0.9377 0.0
H1597 H 0.20151 0.15149 0.89429 0.0
H1598 H 0.22115 0.14729 0.89239 0.0
H1599 H 0.20223 0.13449 0.92542 0.0
H1600 H 0.22308 0.12717 0.96168 0.0
H1601 H 0.24018 0.10972 0.954 0.0
H1602 H 0.92393 0.13288 0.92827 0.0
H1603 H 0.9063 0.09803 0.93402 0.0
H1604 H 0.8554 0.09959 0.95752 0.0
H1605 H 0.87276 0.13394 0.95229 0.0
H1606 H 0.86368 0.08016 0.01208 0.0
H1607 H 0.8659 0.05496 0.86641 0.0
H1608 H 0.88799 0.07228 0.8873 0.0
H1609 H 0.8706 0.07872 0.87575 0.0
C1610 C 0.9089 0.12568 0.93372 0.0
C1611 C 0.89975 0.13616 0.93996 0.0
C1612 C 0.89883 0.10578 0.93709 0.0
C1613 C 0.87948 0.09615 0.94635 0.0
C1614 C 0.8703 0.10664 0.95065 0.0
H1615 H 0.7848 0.98517 0.94356 0.0
H1616 H 0.81117 0.01654 0.93049 0.0
C1617 C 0.88027 0.12633 0.94754 0.0
C1618 C 0.86873 0.0754 0.95433 0.0
H1619 H 0.84886 0.03169 0.91242 0.0
C1620 C 0.86065 0.06953 0.99044 0.0
C1621 C 0.86467 0.06155 0.92603 0.0
C1622 C 0.8726 0.06707 0.88656 0.0
C1623 C 0.84809 0.05035 0.99863 0.0
C1624 C 0.84372 0.03648 0.97015 0.0
C1625 C 0.8523 0.04228 0.93435 0.0
C1626 C 0.82881 0.01627 0.97583 0.0
C1627 C 0.8388 0.04529 0.03712 0.0
C1628 C 0.83004 1.00523 1.00504 0.0
C1629 C 0.81483 0.98706 0.01274 0.0
C1630 C 0.79808 0.97944 0.99119 0.0
C1631 C 0.79738 0.99024 0.96071 0.0
C1632 C 0.81252 1.00835 0.95316 0.0
H1633 H 0.84067 0.05795 0.05281 0.0
H1634 H 0.82345 0.03505 0.03443 0.0
H1635 H 0.84521 0.03859 0.05431 0.0
H1636 H 0.84262 1.01083 0.02247 0.0
H1637 H 0.81608 0.97913 0.036 0.0
H1638 H 0.03988 0.82956 0.05702 0.0
H1639 H 1.00804 0.82278 0.04194 0.0
H1640 H 0.01929 0.82216 0.92277 0.0
H1641 H 0.05154 0.83001 0.93734 0.0
H1642 H 0.99628 0.83671 0.93467 0.0
H1643 H 0.96932 0.76929 0.01365 0.0
H1644 H 0.98308 0.78995 0.04226 0.0
H1645 H 0.99405 0.78453 1.00378 0.0
C1646 C 0.03588 0.82847 0.02751 0.0
C1647 C 0.04837 0.8299 0.9985 0.0
C1648 C 1.01747 0.82434 0.01894 0.0
C1649 C 1.01099 0.82128 0.98126 0.0
C1650 C 0.02381 0.82415 0.95212 0.0
H1651 H 0.89579 0.74594 0.9161 0.0
H1652 H 0.93011 0.7634 0.92277 0.0
C1653 C 0.04228 0.82849 0.9606 0.0
C1654 C 0.9906 0.8137 0.97227 0.0
H1655 H 0.94663 0.77597 0.98869 0.0
C1656 C 0.9854 0.82344 0.94652 0.0
C1657 C 0.97638 0.79621 0.98719 0.0
C1658 C 0.98095 0.78427 0.01295 0.0
C1659 C 0.96644 0.81618 0.93533 0.0
C1660 C 0.95222 0.79885 0.9508 0.0
C1661 C 0.95746 0.78926 0.97679 0.0
C1662 C 0.93187 0.78976 0.93977 0.0
C1663 C 0.96192 0.82683 0.9062 0.0
C1664 C 0.92134 0.79893 0.94538 0.0
C1665 C 0.90162 0.78899 0.94058 0.0
C1666 C 0.89216 0.76968 0.93078 0.0
C1667 C 0.90279 0.76086 0.92333 0.0
C1668 C 0.9224 0.77082 0.92744 0.0
H1669 H 0.97463 0.8368 0.88977 0.0
H1670 H 0.95089 0.81694 0.88613 0.0
H1671 H 0.95651 0.83522 0.92081 0.0
H1672 H 0.92817 0.81339 0.95565 0.0
H1673 H 0.89368 0.79596 0.94738 0.0
H1674 H 0.75903 0.88963 0.01824 0.0
H1675 H 0.77503 0.87153 0.01107 0.0
H1676 H 0.79784 0.88759 0.124 0.0
H1677 H 0.78155 0.90605 0.13153 0.0
H1678 H 0.81388 0.88272 0.01656 0.0
H1679 H 0.76979 0.82837 0.12365 0.0
H1680 H 0.76306 0.84456 0.10405 0.0
H1681 H 0.78173 0.85281 0.13838 0.0
C1682 C 0.7675 0.88946 0.04168 0.0
C1683 C 0.76886 0.89918 0.07566 0.0
C1684 C 0.77672 0.8791 0.0374 0.0
C1685 C 0.78745 0.87793 0.06706 0.0
C1686 C 0.78942 0.88808 0.10083 0.0
H1687 H 0.83461 0.80217 0.0718 0.0
H1688 H 0.82508 0.82524 0.08807 0.0
C1689 C 0.78026 0.89874 0.10504 0.0
C1690 C 0.79595 0.86559 0.06197 0.0
H1691 H 0.79093 0.82295 0.08825 0.0
C1692 C 0.80902 0.86975 0.03254 0.0
C1693 C 0.78957 0.8486 0.08264 0.0
C1694 C 0.77518 0.84313 0.11385 0.0
C1695 C 0.81568 0.85736 0.02293 0.0
C1696 C 0.80876 0.84002 0.04263 0.0
C1697 C 0.79614 0.83613 0.07287 0.0
C1698 C 0.8144 0.82573 0.03228 0.0
C1699 C 0.83018 0.86307 0.99186 0.0
C1700 C 0.81128 0.8179 0.99556 0.0
C1701 C 0.81689 0.80472 0.98595 0.0
C1702 C 0.82568 0.79896 0.01291 0.0
C1703 C 0.82829 0.80648 0.04993 0.0
C1704 C 0.8227 0.81963 0.05945 0.0
H1705 H 0.83801 0.87867 0.98762 0.0
H1706 H 0.84049 0.85839 0.99824 0.0
H1707 H 0.82293 0.85636 0.96483 0.0
H1708 H 0.80447 0.82198 0.97424 0.0
H1709 H 0.81462 0.79932 0.95723 0.0
H1710 H 0.23256 0.04407 0.08142 0.0
H1711 H 0.21007 1.01125 0.09788 0.0
H1712 H 0.21376 0.99368 0.98437 0.0
H1713 H 0.23626 0.02653 0.96759 0.0
H1714 H 0.17496 0.98624 0.06826 0.0
H1715 H 0.22359 0.95821 0.04851 0.0
H1716 H 0.2318 0.98326 0.05079 0.0
H1717 H 0.22204 0.97029 1.00744 0.0
C1718 C 0.22858 0.03329 0.05981 0.0
C1719 C 0.23634 0.03807 0.02309 0.0
C1720 C 0.21571 0.01446 0.06937 0.0
C1721 C 0.21035 0.99989 0.04259 0.0
C1722 C 0.21797 1.00458 1.00585 0.0
H1723 H 0.13618 0.88178 0.01655 0.0
H1724 H 0.15658 0.91592 0.01246 0.0
C1725 C 0.23088 0.02342 0.99626 0.0
C1726 C 0.19663 0.97984 0.05291 0.0
H1727 H 0.19086 0.93535 0.05402 0.0
C1728 C 0.17849 0.97513 0.06555 0.0
C1729 C 0.20126 0.96534 0.04985 0.0
C1730 C 0.22079 0.96952 0.03879 0.0
C1731 C 0.16463 0.95622 0.07335 0.0
C1732 C 0.16908 0.94167 0.06877 0.0
C1733 C 0.18741 0.94649 0.05742 0.0
C1734 C 0.15465 0.92118 0.07192 0.0
C1735 C 0.1451 0.95179 0.08486 0.0
C1736 C 0.1462 0.91266 0.10669 0.0
C1737 C 0.13425 0.89286 0.10913 0.0
C1738 C 0.13082 0.8814 0.07687 0.0
C1739 C 0.13865 0.89017 0.04202 0.0
C1740 C 0.15037 0.90973 0.03959 0.0
H1741 H 0.14318 0.96429 0.08217 0.0
H1742 H 0.13429 0.94006 0.06722 0.0
H1743 H 0.1426 0.94707 0.11484 0.0
H1744 H 0.14944 0.9212 0.13214 0.0
H1745 H 0.12857 0.88647 0.13639 0.0
H1746 H 0.14901 0.25117 0.13874 0.0
H1747 H 0.1143 0.23446 0.13052 0.0
H1748 H 0.12153 0.25305 0.01431 0.0
H1749 H 0.15557 0.26943 0.02218 0.0
H1750 H 0.09262 0.25211 0.10762 0.0
H1751 H 0.08307 0.19633 1.00563 0.0
H1752 H 0.10393 0.20888 0.0348 0.0
H1753 H 0.10152 0.21945 0.992 0.0
C1754 C 0.1431 0.25131 0.11134 0.0
C1755 C 0.15502 0.26163 0.08116 0.0
C1756 C 0.12332 0.24188 0.10669 0.0
C1757 C 0.11529 0.24232 0.0716 0.0
C1758 C 0.12729 0.25219 0.04141 0.0
H1759 H 1.01021 0.21482 0.96149 0.0
H1760 H 0.04305 0.22584 0.97989 0.0
C1761 C 0.14683 0.26168 0.04611 0.0
C1762 C 0.0945 0.23371 0.06625 0.0
H1763 H 0.05829 0.20394 1.00765 0.0
C1764 C 0.08499 0.24131 0.0863 0.0
C1765 C 0.08458 0.21977 0.03809 0.0
C1766 C 0.09375 0.21049 0.01663 0.0
C1767 C 0.06613 0.23598 0.07779 0.0
C1768 C 0.05639 0.22244 0.04882 0.0
C1769 C 0.06575 0.21445 0.02957 0.0
C1770 C 0.0365 0.21636 0.03802 0.0
C1771 C 0.05706 0.24548 0.0988 0.0
C1772 C 0.02186 0.20735 0.06445 0.0
C1773 C 1.00313 0.20112 0.05405 0.0
C1774 C 0.99849 0.20362 0.01682 0.0
C1775 C 1.01323 0.21281 0.99043 0.0
C1776 C 0.032 0.219 1.00087 0.0
H1777 H 0.06772 0.25878 0.11294 0.0
H1778 H 0.04848 0.24883 0.07931 0.0
H1779 H 0.04756 0.23577 0.12098 0.0
H1780 H 0.02486 0.20486 0.09308 0.0
H1781 H 0.99227 0.19433 0.07533 0.0
H1782 H 0.85053 0.53826 0.32251 0.0
H1783 H 0.86156 0.5164 0.30558 0.0
H1784 H 0.91664 0.55569 0.35053 0.0
H1785 H 0.90554 0.57757 0.36804 0.0
H1786 H 0.88823 0.52003 0.25739 0.0
H1787 H 0.90722 0.5077 0.40085 0.0
H1788 H 0.89382 0.51949 0.39334 0.0
H1789 H 0.91915 0.53237 0.38888 0.0
C1790 C 0.865 0.54229 0.32886 0.0
C1791 C 0.87714 0.55975 0.34666 0.0
C1792 C 0.87129 0.52971 0.31921 0.0
C1793 C 0.88989 0.53417 0.3271 0.0
C1794 C 0.90208 0.55161 0.34492 0.0
H1795 H 0.96362 0.49165 0.27586 0.0
H1796 H 0.94761 0.50937 0.28891 0.0
C1797 C 0.89573 0.56417 0.35488 0.0
C1798 C 0.89659 0.52084 0.31563 0.0
H1799 H 0.91858 0.49742 0.34878 0.0
C1800 C 0.89466 0.51492 0.27751 0.0
C1801 C 0.90485 0.51394 0.3418 0.0
C1802 C 0.90621 0.51853 0.38356 0.0
C1803 C 0.90141 0.50301 0.26472 0.0
C1804 C 0.91028 0.49675 0.29064 0.0
C1805 C 0.9118 0.50225 0.32886 0.0
C1806 C 0.91957 0.48587 0.2784 0.0
C1807 C 0.89968 0.49772 0.22333 0.0
C1808 C 0.90917 0.46673 0.26708 0.0
C1809 C 0.91838 0.45638 0.25946 0.0
C1810 C 0.93811 0.46506 0.26325 0.0
C1811 C 0.9484 0.48443 0.27288 0.0
C1812 C 0.93927 0.49464 0.28046 0.0
H1813 H 0.89411 0.50523 0.20611 0.0
H1814 H 0.91366 0.50105 0.21194 0.0
H1815 H 0.89001 0.48223 0.22014 0.0
H1816 H 0.89391 0.45962 0.26554 0.0
H1817 H 0.91004 0.44146 0.25249 0.0
H1818 H 0.5836 0.47191 0.24858 0.0
H1819 H 0.56572 0.43723 0.25744 0.0
H1820 H 0.51563 0.44009 0.28232 0.0
H1821 H 0.53309 0.47417 0.27308 0.0
H1822 H 0.54823 0.41877 0.32406 0.0
H1823 H 0.49468 0.39565 0.21042 0.0
H1824 H 0.51577 0.41869 0.21041 0.0
H1825 H 0.4955 0.41459 0.2378 0.0
C1826 C 0.56865 0.46499 0.25481 0.0
C1827 C 0.55975 0.47576 0.25999 0.0
C1828 C 0.55847 0.44522 0.26018 0.0
C1829 C 0.53921 0.43595 0.27013 0.0
C1830 C 0.53029 0.44673 0.27386 0.0
H1831 H 0.45062 0.33096 0.36261 0.0
H1832 H 0.47159 0.36349 0.34076 0.0
C1833 C 0.54038 0.4663 0.26876 0.0
C1834 C 0.52857 0.41541 0.27998 0.0
H1835 H 0.48673 0.37455 0.26379 0.0
C1836 C 0.53496 0.409 0.31041 0.0
C1837 C 0.51117 0.40263 0.26237 0.0
C1838 C 0.50398 0.40819 0.22819 0.0
C1839 C 0.52404 0.39049 0.32475 0.0
C1840 C 0.50632 0.37799 0.30804 0.0
C1841 C 0.5002 0.3842 0.27691 0.0
C1842 C 0.4939 0.35842 0.32247 0.0
C1843 C 0.53119 0.38466 0.35859 0.0
C1844 C 0.49945 0.34475 0.31947 0.0
C1845 C 0.4875 0.32618 0.33187 0.0
C1846 C 0.4697 0.32081 0.34761 0.0
C1847 C 0.46427 0.33462 0.35101 0.0
C1848 C 0.4762 0.35319 0.33831 0.0
H1849 H 0.54318 0.397 0.3728 0.0
H1850 H 0.51972 0.37706 0.37957 0.0
H1851 H 0.53611 0.37486 0.34917 0.0
H1852 H 0.51294 0.34837 0.30702 0.0
H1853 H 0.49226 0.31602 0.32915 0.0
H1854 H 0.55891 0.06677 0.285 0.0
H1855 H 0.59299 0.08397 0.29305 0.0
H1856 H 0.59477 0.1361 0.26334 0.0
H1857 H 0.56012 0.11875 0.25581 0.0
H1858 H 0.62282 0.10579 0.24693 0.0
H1859 H 0.62016 0.14852 0.3675 0.0
H1860 H 0.59921 0.12845 0.34837 0.0
H1861 H 0.61026 0.15062 0.32354 0.0
C1862 C 0.56651 0.08188 0.27973 0.0
C1863 C 0.55676 0.09142 0.27007 0.0
C1864 C 0.58607 0.09171 0.28432 0.0
C1865 C 0.5965 0.1114 0.27961 0.0
C1866 C 0.58699 0.12094 0.26792 0.0
H1867 H 0.71643 0.18595 0.33259 0.0
H1868 H 0.68383 0.1733 0.31156 0.0
C1869 C 0.56724 0.11101 0.26315 0.0
C1870 C 0.61711 0.12159 0.28863 0.0
H1871 H 0.64987 0.15256 0.35183 0.0
C1872 C 0.62875 0.11613 0.26968 0.0
C1873 C 0.6249 0.13503 0.31847 0.0
C1874 C 0.61302 0.14095 0.34094 0.0
C1875 C 0.64779 0.12352 0.27997 0.0
C1876 C 0.65542 0.13655 0.31044 0.0
C1877 C 0.64398 0.14247 0.32866 0.0
C1878 C 0.67521 0.14413 0.32391 0.0
C1879 C 0.6596 0.11733 0.25803 0.0
C1880 C 0.68122 0.132 0.33863 0.0
C1881 C 0.69995 0.13921 0.35072 0.0
C1882 C 0.71308 0.15871 0.34826 0.0
C1883 C 0.70685 0.17083 0.33427 0.0
C1884 C 0.68815 0.16363 0.32241 0.0
H1885 H 0.65327 0.11128 0.22993 0.0
H1886 H 0.67413 0.12938 0.25367 0.0
H1887 H 0.66061 0.10624 0.27428 0.0
H1888 H 0.67142 0.11693 0.34075 0.0
H1889 H 0.70422 0.12947 0.36123 0.0
H1890 H 0.51882 0.1456 0.36612 0.0
H1891 H 0.50786 0.16718 0.38623 0.0
H1892 H 0.4528 0.12913 0.33979 0.0
H1893 H 0.46364 0.10729 0.31988 0.0
H1894 H 0.49149 0.18512 0.34166 0.0
H1895 H 0.44286 0.13742 0.45246 0.0
H1896 H 0.46139 0.1343 0.43217 0.0
H1897 H 0.43989 0.12689 0.40628 0.0
C1898 C 0.50434 0.14175 0.3603 0.0
C1899 C 0.49205 0.12458 0.3417 0.0
C1900 C 0.49814 0.15418 0.37165 0.0
C1901 C 0.47944 0.14966 0.36506 0.0
C1902 C 0.46722 0.13278 0.34568 0.0
H1903 H 0.40762 0.1954 0.40139 0.0
H1904 H 0.42295 0.17677 0.39239 0.0
C1905 C 0.47347 0.12038 0.334 0.0
C1906 C 0.47274 0.16258 0.37866 0.0
H1907 H 0.44119 0.16496 0.43856 0.0
C1908 C 0.4806 0.18081 0.36306 0.0
C1909 C 0.45866 0.15699 0.40682 0.0
C1910 C 0.45027 0.1379 0.42574 0.0
C1911 C 0.47412 0.19325 0.37357 0.0
C1912 C 0.4597 0.18749 0.40117 0.0
C1913 C 0.45228 0.16945 0.41756 0.0
C1914 C 0.45059 0.19895 0.41025 0.0
C1915 C 0.48216 0.21208 0.3537 0.0
C1916 C 0.46083 0.21759 0.42461 0.0
C1917 C 0.45199 0.22845 0.42982 0.0
C1918 C 0.43279 0.22079 0.42076 0.0
C1919 C 0.42248 0.20185 0.40834 0.0
C1920 C 0.43123 0.1911 0.40321 0.0
H1921 H 0.49025 0.21271 0.32794 0.0
H1922 H 0.47074 0.21495 0.34535 0.0
H1923 H 0.49185 0.22352 0.37327 0.0
H1924 H 0.47571 0.22385 0.4311 0.0
H1925 H 0.46031 0.243 0.43938 0.0
H1926 H 0.83711 0.23014 0.44282 0.0
H1927 H 0.85347 0.26448 0.43504 0.0
H1928 H 0.80069 0.26126 0.40632 0.0
H1929 H 0.78414 0.22674 0.41558 0.0
H1930 H 0.85556 0.27988 0.36814 0.0
H1931 H 0.82505 0.30891 0.47055 0.0
H1932 H 0.82164 0.28534 0.47474 0.0
H1933 H 0.80791 0.29004 0.44133 0.0
C1934 C 0.82889 0.23686 0.43632 0.0
C1935 C 0.80935 0.22585 0.43025 0.0
C1936 C 0.83827 0.25649 0.43158 0.0
C1937 C 0.8284 0.26559 0.42001 0.0
C1938 C 0.80864 0.25472 0.41594 0.0
H1939 H 0.89304 0.37237 0.29661 0.0
H1940 H 0.86835 0.34071 0.31425 0.0
C1941 C 0.79915 0.23498 0.42134 0.0
C1942 C 0.83926 0.28585 0.40794 0.0
H1943 H 0.84579 0.33016 0.42396 0.0
C1944 C 0.85338 0.29085 0.38041 0.0
C1945 C 0.83651 0.30024 0.42389 0.0
C1946 C 0.82208 0.29596 0.45451 0.0
C1947 C 0.86501 0.3097 0.36892 0.0
C1948 C 0.86212 0.3241 0.3844 0.0
C1949 C 0.84788 0.31913 0.41171 0.0
C1950 C 0.87466 0.34444 0.37428 0.0
C1951 C 0.88078 0.31405 0.34134 0.0
C1952 C 0.88555 0.35767 0.40235 0.0
C1953 C 0.89956 0.37604 0.39244 0.0
C1954 C 0.90319 0.38163 0.35411 0.0
C1955 C 0.8911 0.36877 0.32636 0.0
C1956 C 0.87696 0.35046 0.33638 0.0
H1957 H 0.88407 0.3024 0.33988 0.0
H1958 H 0.87648 0.31589 0.31256 0.0
H1959 H 0.89386 0.3273 0.34935 0.0
H1960 H 0.88387 0.35352 0.43187 0.0
H1961 H 0.90802 0.38557 0.4149 0.0
H1962 H 0.66592 0.54042 0.2755 0.0
H1963 H 0.69832 0.54886 0.29236 0.0
H1964 H 0.68551 0.5498 0.41064 0.0
H1965 H 0.65323 0.54111 0.39405 0.0
H1966 H 0.72578 0.57904 0.32576 0.0
H1967 H 0.70941 0.51746 0.41606 0.0
H1968 H 0.69186 0.5183 0.38646 0.0
H1969 H 0.69754 0.52958 0.43236 0.0
C1970 C 0.67003 0.54241 0.30507 0.0
C1971 C 0.65687 0.53985 0.33342 0.0
C1972 C 0.68854 0.54715 0.31474 0.0
C1973 C 0.69432 0.54948 0.35293 0.0
C1974 C 0.68131 0.5474 0.38111 0.0
H1975 H 0.80926 0.61744 0.42996 0.0
H1976 H 0.77537 0.60279 0.41786 0.0
C1977 C 0.66281 0.54251 0.37153 0.0
C1978 C 0.71416 0.55506 0.36329 0.0
H1979 H 0.74075 0.54429 0.42216 0.0
C1980 C 0.729 0.5713 0.34658 0.0
C1981 C 0.71855 0.54484 0.38999 0.0
C1982 C 0.7035 0.52646 0.40692 0.0
C1983 C 0.74793 0.57797 0.35672 0.0
C1984 C 0.75222 0.56848 0.38524 0.0
C1985 C 0.73748 0.55181 0.4009 0.0
C1986 C 0.77193 0.57594 0.3992 0.0
C1987 C 0.76317 0.59509 0.33641 0.0
C1988 C 0.78104 0.56524 0.39574 0.0
C1989 C 0.80044 0.5735 0.40374 0.0
C1990 C 0.8109 0.59253 0.41527 0.0
C1991 C 0.80145 0.60269 0.42136 0.0
C1992 C 0.78214 0.59441 0.41392 0.0
H1993 H 0.75824 0.59702 0.3083 0.0
H1994 H 0.76709 0.60797 0.35358 0.0
H1995 H 0.77599 0.59393 0.3322 0.0
H1996 H 0.77344 0.55091 0.38472 0.0
H1997 H 0.80749 0.56551 0.3981 0.0
H1998 H 0.56836 0.76957 0.61301 0.0
H1999 H 0.55318 0.78901 0.62033 0.0
H2000 H 0.60653 0.8394 0.59834 0.0
H2001 H 0.62154 0.82019 0.59126 0.0
H2002 H 0.56445 0.81806 0.67655 0.0
H2003 H 0.56971 0.84737 0.53282 0.0
H2004 H 0.57157 0.82654 0.54143 0.0
H2005 H 0.59157 0.84978 0.54928 0.0
C2006 C 0.57659 0.78471 0.60834 0.0
C2007 C 0.59604 0.79337 0.60102 0.0
C2008 C 0.568 0.79583 0.61296 0.0
C2009 C 0.57869 0.8157 0.60964 0.0
C2010 C 0.59789 0.82414 0.60043 0.0
H2011 H 0.56859 0.90742 0.71084 0.0
H2012 H 0.57566 0.88217 0.69653 0.0
C2013 C 0.60646 0.81312 0.59632 0.0
C2014 C 0.57052 0.82798 0.61895 0.0
H2015 H 0.56525 0.86411 0.58398 0.0
C2016 C 0.56437 0.82795 0.65617 0.0
C2017 C 0.57034 0.84087 0.59243 0.0
C2018 C 0.57598 0.84107 0.55165 0.0
C2019 C 0.5587 0.84089 0.66785 0.0
C2020 C 0.55942 0.85441 0.64178 0.0
C2021 C 0.5649 0.85395 0.6042 0.0
C2022 C 0.55444 0.86911 0.65257 0.0
C2023 C 0.55195 0.83991 0.70801 0.0
C2024 C 0.54028 0.87036 0.6326 0.0
C2025 C 0.53628 0.8848 0.64063 0.0
C2026 C 0.54642 0.89851 0.66874 0.0
C2027 C 0.56037 0.89703 0.68933 0.0
C2028 C 0.5644 0.88255 0.68118 0.0
H2029 H 0.54726 0.82582 0.72085 0.0
H2030 H 0.56372 0.85072 0.72548 0.0
H2031 H 0.54009 0.84284 0.70919 0.0
H2032 H 0.53235 0.86019 0.61048 0.0
H2033 H 0.52522 0.88522 0.62461 0.0
H2034 H 0.25421 0.80949 0.58513 0.0
H2035 H 0.23843 0.77457 0.58432 0.0
H2036 H 0.18792 0.77134 0.62918 0.0
H2037 H 0.20332 0.8057 0.62987 0.0
H2038 H 0.22257 0.74967 0.6478 0.0
H2039 H 0.16795 0.73452 0.53942 0.0
H2040 H 0.18883 0.75755 0.54451 0.0
H2041 H 0.16881 0.75069 0.57502 0.0
C2042 C 0.23964 0.80127 0.59414 0.0
C2043 C 0.23003 0.8104 0.60747 0.0
C2044 C 0.23068 0.78135 0.59388 0.0
C2045 C 0.21188 0.77029 0.6063 0.0
C2046 C 0.20227 0.77947 0.61884 0.0
H2047 H 0.14422 0.66281 0.71019 0.0
H2048 H 0.16823 0.69503 0.69404 0.0
C2049 C 0.21118 0.7992 0.61939 0.0
C2050 C 0.20228 0.74922 0.60831 0.0
H2051 H 0.16121 0.70937 0.58333 0.0
C2052 C 0.20933 0.74079 0.63317 0.0
C2053 C 0.18511 0.73754 0.58891 0.0
C2054 C 0.17732 0.74551 0.56017 0.0
C2055 C 0.19913 0.7212 0.64076 0.0
C2056 C 0.18124 0.70976 0.62355 0.0
C2057 C 0.17478 0.71806 0.59699 0.0
C2058 C 0.16845 0.68949 0.63403 0.0
C2059 C 0.20759 0.71303 0.66744 0.0
C2060 C 0.16042 0.67541 0.60586 0.0
C2061 C 0.14646 0.65688 0.61502 0.0
C2062 C 0.14008 0.65196 0.6526 0.0
C2063 C 0.1488 0.66588 0.68103 0.0
C2064 C 0.16268 0.68442 0.6718 0.0
H2065 H 0.22325 0.72159 0.66744 0.0
H2066 H 0.20271 0.71321 0.69671 0.0
H2067 H 0.20326 0.69818 0.65978 0.0
H2068 H 0.16458 0.67888 0.5765 0.0
H2069 H 0.14026 0.64653 0.59245 0.0
H2070 H 0.22077 0.44203 0.5593 0.0
H2071 H 0.25564 0.45768 0.55971 0.0
H2072 H 0.25503 0.45342 0.68154 0.0
H2073 H 0.22071 0.4378 0.68124 0.0
H2074 H 0.28636 0.4911 0.60163 0.0
H2075 H 0.27985 0.42268 0.64385 0.0
H2076 H 0.2604 0.42434 0.624 0.0
H2077 H 0.26652 0.42973 0.67325 0.0
C2078 C 0.22818 0.44486 0.5861 0.0
C2079 C 0.21801 0.43853 0.6202 0.0
C2080 C 0.24806 0.45371 0.58634 0.0
C2081 C 0.25794 0.45637 0.62066 0.0
C2082 C 0.24777 0.45121 0.65469 0.0
H2083 H 0.36708 0.4879 0.7126 0.0
H2084 H 0.33464 0.4802 0.70029 0.0
C2085 C 0.22811 0.44231 0.65444 0.0
C2086 C 0.27861 0.46325 0.62167 0.0
H2087 H 0.31014 0.45013 0.65176 0.0
C2088 C 0.29161 0.4821 0.61206 0.0
C2089 C 0.2855 0.45151 0.63528 0.0
C2090 C 0.27237 0.43088 0.64436 0.0
C2091 C 0.31122 0.48969 0.61728 0.0
C2092 C 0.31799 0.47809 0.63223 0.0
C2093 C 0.30499 0.45911 0.64073 0.0
C2094 C 0.33842 0.4852 0.6399 0.0
C2095 C 0.3245 0.51024 0.60811 0.0
C2096 C 0.35155 0.49092 0.61019 0.0
C2097 C 0.37023 0.49539 0.61718 0.0
C2098 C 0.37623 0.4942 0.65404 0.0
C2099 C 0.36319 0.48921 0.68394 0.0
C2100 C 0.34452 0.48466 0.67689 0.0
H2101 H 0.31691 0.51823 0.60445 0.0
H2102 H 0.33527 0.51712 0.6308 0.0
H2103 H 0.332 0.51118 0.58129 0.0
H2104 H 0.34719 0.49122 0.58133 0.0
H2105 H 0.37986 0.49928 0.59349 0.0
H2106 H 0.1186 0.57481 0.79627 0.0
H2107 H 0.13602 0.55729 0.79686 0.0
H2108 H 0.12789 0.54866 0.67611 0.0
H2109 H 0.11074 0.56585 0.67541 0.0
H2110 H 0.12052 0.51882 0.77247 0.0
H2111 H 0.18386 0.56571 0.68824 0.0
H2112 H 0.16942 0.574 0.71045 0.0
H2113 H 0.16248 0.56167 0.66573 0.0
C2114 C 0.12098 0.56955 0.76985 0.0
C2115 C 0.11333 0.57172 0.73581 0.0
C2116 C 0.13082 0.55946 0.77019 0.0
C2117 C 0.13349 0.55184 0.7364 0.0
C2118 C 0.12639 0.55467 0.70241 0.0
H2119 H 0.15874 0.47106 0.64157 0.0
H2120 H 0.1532 0.4971 0.65664 0.0
C2121 C 0.11645 0.56443 0.70213 0.0
C2122 C 0.14209 0.53946 0.73618 0.0
H2123 H 0.17502 0.53271 0.68996 0.0
C2124 C 0.13271 0.52202 0.75517 0.0
C2125 C 0.1579 0.54354 0.71333 0.0
C2126 C 0.16912 0.56234 0.69357 0.0
C2127 C 0.13798 0.50815 0.75012 0.0
C2128 C 0.15333 0.51194 0.72595 0.0
C2129 C 0.16321 0.52971 0.7083 0.0
C2130 C 0.15851 0.49723 0.71676 0.0
C2131 C 0.12638 0.48915 0.76898 0.0
C2132 C 0.16402 0.48898 0.74525 0.0
C2133 C 0.16726 0.47404 0.73668 0.0
C2134 C 0.16521 0.46707 0.69934 0.0
C2135 C 0.16063 0.47605 0.67056 0.0
C2136 C 0.15734 0.49093 0.67919 0.0
H2137 H 0.1127 0.48707 0.77964 0.0
H2138 H 0.12348 0.47744 0.74901 0.0
H2139 H 0.13434 0.48817 0.79349 0.0
H2140 H 0.16551 0.49387 0.77429 0.0
H2141 H 0.17107 0.46773 0.75946 0.0
H2142 H 0.49005 0.55273 0.71413 0.0
H2143 H 0.50695 0.58712 0.71416 0.0
H2144 H 0.45733 0.58693 0.75562 0.0
H2145 H 0.44 0.5519 0.75555 0.0
H2146 H 0.47542 0.61164 0.69137 0.0
H2147 H 0.52717 0.62392 0.80446 0.0
H2148 H 0.52569 0.60709 0.76975 0.0
H2149 H 0.5055 0.6016 0.79874 0.0
C2150 C 0.48266 0.55989 0.72368 0.0
C2151 C 0.46362 0.54948 0.7349 0.0
C2152 C 0.49245 0.57965 0.72385 0.0
C2153 C 0.48355 0.58972 0.73525 0.0
C2154 C 0.46454 0.57947 0.74691 0.0
H2155 H 0.55965 0.71293 0.75102 0.0
H2156 H 0.5343 0.68085 0.76555 0.0
C2157 C 0.45469 0.55948 0.7471 0.0
C2158 C 0.49423 0.61085 0.73305 0.0
H2159 H 0.536 0.64936 0.76021 0.0
C2160 C 0.48849 0.61997 0.70693 0.0
C2161 C 0.51122 0.62184 0.75355 0.0
C2162 C 0.51768 0.61315 0.78348 0.0
C2163 C 0.49977 0.6395 0.69934 0.0
C2164 C 0.51744 0.65021 0.71788 0.0
C2165 C 0.52262 0.64125 0.74553 0.0
C2166 C 0.53123 0.67039 0.70804 0.0
C2167 C 0.49266 0.64842 0.67131 0.0
C2168 C 0.53789 0.6755 0.67072 0.0
C2169 C 0.55239 0.69392 0.66229 0.0
C2170 C 0.56086 0.70769 0.69108 0.0
C2171 C 0.55369 0.70272 0.72817 0.0
C2172 C 0.53912 0.68433 0.73653 0.0
H2173 H 0.47698 0.64051 0.66981 0.0
H2174 H 0.4975 0.6634 0.67881 0.0
H2175 H 0.49807 0.64804 0.64268 0.0
H2176 H 0.53246 0.665 0.64827 0.0
H2177 H 0.55756 0.697 0.63349 0.0
H2178 H 0.32158 0.85042 0.70634 0.0
H2179 H 0.35451 0.86121 0.72214 0.0
H2180 H 0.37157 0.91429 0.66622 0.0
H2181 H 0.33854 0.90377 0.65105 0.0
H2182 H 0.38599 0.87284 0.67516 0.0
H2183 H 0.39568 0.93076 0.7718 0.0
H2184 H 0.37268 0.91229 0.75642 0.0
H2185 H 0.38697 0.93189 0.72571 0.0
C2186 C 0.33228 0.86447 0.69767 0.0
C2187 C 0.3273 0.8763 0.67778 0.0
C2188 C 0.35115 0.87056 0.70654 0.0
C2189 C 0.36551 0.88868 0.69599 0.0
C2190 C 0.36069 0.90038 0.67532 0.0
H2191 H 0.48412 0.95769 0.697 0.0
H2192 H 0.44998 0.94237 0.69459 0.0
C2193 C 0.3418 0.89427 0.6663 0.0
C2194 C 0.38551 0.89529 0.70644 0.0
H2195 H 0.42356 0.93055 0.75315 0.0
C2196 C 0.39417 0.88533 0.69258 0.0
C2197 C 0.39612 0.91145 0.72955 0.0
C2198 C 0.38737 0.92213 0.74708 0.0
C2199 C 0.41339 0.89169 0.69951 0.0
C2200 C 0.42417 0.90828 0.72141 0.0
C2201 C 0.4153 0.91781 0.73643 0.0
C2202 C 0.44506 0.91736 0.72509 0.0
C2203 C 0.42226 0.88116 0.68182 0.0
C2204 C 0.45385 0.90855 0.74375 0.0
C2205 C 0.4737 0.9174 0.74529 0.0
C2206 C 0.48495 0.93512 0.72802 0.0
C2207 C 0.47598 0.94396 0.71033 0.0
C2208 C 0.45637 0.93524 0.70899 0.0
H2209 H 0.41272 0.87034 0.66099 0.0
H2210 H 0.43563 0.89118 0.66732 0.0
H2211 H 0.42568 0.87389 0.70436 0.0
H2212 H 0.4454 0.89484 0.75691 0.0
H2213 H 0.48017 0.91025 0.75917 0.0
loop_
_geom_bond_atom_site_label_1
_geom_bond_atom_site_label_2
_geom_bond_distance
_geom_bond_site_symmetry_2
_ccdc_geom_bond_type
C0 C1 1.351 . S
C0 N3 1.368 . S
C0 H5 0.931 . S
C1 C0 1.351 . S
C1 N2 1.373 . S
C1 H29 0.930 . S
N2 C1 1.373 . S
N2 C4 1.340 . S
N3 C0 1.368 . S
N3 C4 1.321 . S
N3 Co6 2.135 . S
C4 N2 1.340 . S
C4 N3 1.321 . S
C4 H28 0.930 . S
H5 C0 0.931 . S
Co6 N3 2.135 . S
Co6 N9 2.121 . S
Co6 O14 2.055 . S
Co6 O17 2.039 . S
Co6 N20 2.140 . S
C7 O8 1.227 . S
C7 O17 1.265 . S
O8 C7 1.227 . S
N9 Co6 2.121 . S
N9 C11 1.375 . S
N9 C12 1.313 . S
C10 C11 1.338 . S
C10 N13 1.377 . S
C10 H30 0.930 . S
C11 N9 1.375 . S
C11 C10 1.338 . S
C11 H15 0.931 . S
C12 N9 1.313 . S
C12 N13 1.344 . S
C12 H16 0.930 . S
N13 C10 1.377 . S
N13 C12 1.344 . S
O14 Co6 2.055 . S
O14 C18 1.253 . S
H15 C11 0.931 . S
H16 C12 0.930 . S
O17 Co6 2.039 . S
O17 C7 1.265 . S
C18 O14 1.253 . S
C18 O19 1.227 . S
O19 C18 1.227 . S
N20 Co6 2.140 . S
N20 C23 1.346 . S
N20 C24 1.345 . S
C21 C22 1.387 . S
C21 C25 1.391 . S
C22 C21 1.387 . S
C22 C23 1.369 . S
C22 H31 0.929 . S
C23 N20 1.346 . S
C23 C22 1.369 . S
C23 H26 0.928 . S
C24 N20 1.345 . S
C24 C25 1.371 . S
C24 H27 0.931 . S
C25 C21 1.391 . S
C25 C24 1.371 . S
C25 H32 0.930 . S
H26 C23 0.928 . S
H27 C24 0.931 . S
H28 C4 0.930 . S
H29 C1 0.930 . S
H30 C10 0.930 . S
H31 C22 0.929 . S
H32 C25 0.930 . S
C33 C34 1.351 . S
C33 N36 1.368 . S
C33 H38 0.931 . S
C34 C33 1.351 . S
C34 N35 1.373 . S
C34 H62 0.930 . S
N35 C34 1.373 . S
N35 C37 1.340 . S
N36 C33 1.368 . S
N36 C37 1.321 . S
N36 Co39 2.135 . S
C37 N35 1.340 . S
C37 N36 1.321 . S
C37 H61 0.930 . S
H38 C33 0.931 . S
Co39 N36 2.135 . S
Co39 N42 2.121 . S
Co39 O47 2.055 . S
Co39 O50 2.039 . S
Co39 N53 2.140 . S
C40 O41 1.227 . S
C40 O50 1.265 . S
O41 C40 1.227 . S
N42 Co39 2.121 . S
N42 C44 1.375 . S
N42 C45 1.313 . S
C43 C44 1.338 . S
C43 N46 1.377 . S
C43 H63 0.930 . S
C44 N42 1.375 . S
C44 C43 1.338 . S
C44 H48 0.931 . S
C45 N42 1.313 . S
C45 N46 1.344 . S
C45 H49 0.930 . S
N46 C43 1.377 . S
N46 C45 1.344 . S
O47 Co39 2.055 . S
O47 C51 1.253 . S
H48 C44 0.931 . S
H49 C45 0.930 . S
O50 Co39 2.039 . S
O50 C40 1.265 . S
C51 O47 1.253 . S
C51 O52 1.227 . S
O52 C51 1.227 . S
N53 Co39 2.140 . S
N53 C56 1.346 . S
N53 C57 1.345 . S
C54 C55 1.387 . S
C54 C58 1.391 . S
C55 C54 1.387 . S
C55 C56 1.369 . S
C55 H64 0.929 . S
C56 N53 1.346 . S
C56 C55 1.369 . S
C56 H59 0.928 . S
C57 N53 1.345 . S
C57 C58 1.371 . S
C57 H60 0.931 . S
C58 C54 1.391 . S
C58 C57 1.371 . S
C58 H65 0.930 . S
H59 C56 0.928 . S
H60 C57 0.931 . S
H61 C37 0.930 . S
H62 C34 0.930 . S
H63 C43 0.930 . S
H64 C55 0.929 . S
H65 C58 0.930 . S
C66 C67 1.351 . S
C66 N69 1.368 . S
C66 H71 0.931 . S
C67 C66 1.351 . S
C67 N68 1.373 . S
C67 H95 0.930 . S
N68 C67 1.373 . S
N68 C70 1.340 . S
N69 C66 1.368 . S
N69 C70 1.321 . S
N69 Co72 2.135 . S
C70 N68 1.340 . S
C70 N69 1.321 . S
C70 H94 0.930 . S
H71 C66 0.931 . S
Co72 N69 2.135 . S
Co72 N75 2.121 . S
Co72 O80 2.055 . S
Co72 O83 2.039 . S
Co72 N86 2.140 . S
C73 O74 1.227 . S
C73 O83 1.265 . S
O74 C73 1.227 . S
N75 Co72 2.121 . S
N75 C77 1.375 . S
N75 C78 1.313 . S
C76 C77 1.338 . S
C76 N79 1.377 . S
C76 H96 0.930 . S
C77 N75 1.375 . S
C77 C76 1.338 . S
C77 H81 0.931 . S
C78 N75 1.313 . S
C78 N79 1.344 . S
C78 H82 0.930 . S
N79 C76 1.377 . S
N79 C78 1.344 . S
O80 Co72 2.055 . S
O80 C84 1.253 . S
H81 C77 0.931 . S
H82 C78 0.930 . S
O83 Co72 2.039 . S
O83 C73 1.265 . S
C84 O80 1.253 . S
C84 O85 1.227 . S
O85 C84 1.227 . S
N86 Co72 2.140 . S
N86 C89 1.346 . S
N86 C90 1.345 . S
C87 C88 1.387 . S
C87 C91 1.391 . S
C88 C87 1.387 . S
C88 C89 1.369 . S
C88 H97 0.929 . S
C89 N86 1.346 . S
C89 C88 1.369 . S
C89 H92 0.928 . S
C90 N86 1.345 . S
C90 C91 1.371 . S
C90 H93 0.931 . S
C91 C87 1.391 . S
C91 C90 1.371 . S
C91 H98 0.930 . S
H92 C89 0.928 . S
H93 C90 0.931 . S
H94 C70 0.930 . S
H95 C67 0.930 . S
H96 C76 0.930 . S
H97 C88 0.929 . S
H98 C91 0.930 . S
C99 C100 1.351 . S
C99 N102 1.368 . S
C99 H104 0.931 . S
C100 C99 1.351 . S
C100 N101 1.373 . S
C100 H128 0.930 . S
N101 C100 1.373 . S
N101 C103 1.340 . S
N102 C99 1.368 . S
N102 C103 1.321 . S
N102 Co105 2.135 . S
C103 N101 1.340 . S
C103 N102 1.321 . S
C103 H127 0.930 . S
H104 C99 0.931 . S
Co105 N102 2.135 . S
Co105 N108 2.121 . S
Co105 O113 2.055 . S
Co105 O116 2.039 . S
Co105 N119 2.140 . S
C106 O107 1.227 . S
C106 O116 1.265 . S
O107 C106 1.227 . S
N108 Co105 2.121 . S
N108 C110 1.375 . S
N108 C111 1.313 . S
C109 C110 1.338 . S
C109 N112 1.377 . S
C109 H129 0.930 . S
C110 N108 1.375 . S
C110 C109 1.338 . S
C110 H114 0.931 . S
C111 N108 1.313 . S
C111 N112 1.344 . S
C111 H115 0.930 . S
N112 C109 1.377 . S
N112 C111 1.344 . S
O113 Co105 2.055 . S
O113 C117 1.253 . S
H114 C110 0.931 . S
H115 C111 0.930 . S
O116 Co105 2.039 . S
O116 C106 1.265 . S
C117 O113 1.253 . S
C117 O118 1.227 . S
O118 C117 1.227 . S
N119 Co105 2.140 . S
N119 C122 1.346 . S
N119 C123 1.345 . S
C120 C121 1.387 . S
C120 C124 1.391 . S
C121 C120 1.387 . S
C121 C122 1.369 . S
C121 H130 0.929 . S
C122 N119 1.346 . S
C122 C121 1.369 . S
C122 H125 0.928 . S
C123 N119 1.345 . S
C123 C124 1.371 . S
C123 H126 0.931 . S
C124 C120 1.391 . S
C124 C123 1.371 . S
C124 H131 0.930 . S
H125 C122 0.928 . S
H126 C123 0.931 . S
H127 C103 0.930 . S
H128 C100 0.930 . S
H129 C109 0.930 . S
H130 C121 0.929 . S
H131 C124 0.930 . S
C132 C133 1.351 . S
C132 N135 1.368 . S
C132 H137 0.931 . S
C133 C132 1.351 . S
C133 N134 1.373 . S
C133 H161 0.930 . S
N134 C133 1.373 . S
N134 C136 1.340 . S
N135 C132 1.368 . S
N135 C136 1.321 . S
N135 Co138 2.135 . S
C136 N134 1.340 . S
C136 N135 1.321 . S
C136 H160 0.930 . S
H137 C132 0.931 . S
Co138 N135 2.135 . S
Co138 N141 2.121 . S
Co138 O146 2.055 . S
Co138 O149 2.039 . S
Co138 N152 2.140 . S
C139 O140 1.227 . S
C139 O149 1.265 . S
O140 C139 1.227 . S
N141 Co138 2.121 . S
N141 C143 1.375 . S
N141 C144 1.313 . S
C142 C143 1.338 . S
C142 N145 1.377 . S
C142 H162 0.930 . S
C143 N141 1.375 . S
C143 C142 1.338 . S
C143 H147 0.931 . S
C144 N141 1.313 . S
C144 N145 1.344 . S
C144 H148 0.930 . S
N145 C142 1.377 . S
N145 C144 1.344 . S
O146 Co138 2.055 . S
O146 C150 1.253 . S
H147 C143 0.931 . S
H148 C144 0.930 . S
O149 Co138 2.039 . S
O149 C139 1.265 . S
C150 O146 1.253 . S
C150 O151 1.227 . S
O151 C150 1.227 . S
N152 Co138 2.140 . S
N152 C155 1.346 . S
N152 C156 1.345 . S
C153 C154 1.387 . S
C153 C157 1.391 . S
C154 C153 1.387 . S
C154 C155 1.369 . S
C154 H163 0.929 . S
C155 N152 1.346 . S
C155 C154 1.369 . S
C155 H158 0.928 . S
C156 N152 1.345 . S
C156 C157 1.371 . S
C156 H159 0.931 . S
C157 C153 1.391 . S
C157 C156 1.371 . S
C157 H164 0.930 . S
H158 C155 0.928 . S
H159 C156 0.931 . S
H160 C136 0.930 . S
H161 C133 0.930 . S
H162 C142 0.930 . S
H163 C154 0.929 . S
H164 C157 0.930 . S
C165 C166 1.351 . S
C165 N168 1.368 . S
C165 H170 0.931 . S
C166 C165 1.351 . S
C166 N167 1.373 . S
C166 H194 0.930 . S
N167 C166 1.373 . S
N167 C169 1.340 . S
N168 C165 1.368 . S
N168 C169 1.321 . S
N168 Co171 2.135 . S
C169 N167 1.340 . S
C169 N168 1.321 . S
C169 H193 0.930 . S
H170 C165 0.931 . S
Co171 N168 2.135 . S
Co171 N174 2.121 . S
Co171 O179 2.055 . S
Co171 O182 2.039 . S
Co171 N185 2.140 . S
C172 O173 1.227 . S
C172 O182 1.265 . S
O173 C172 1.227 . S
N174 Co171 2.121 . S
N174 C176 1.375 . S
N174 C177 1.313 . S
C175 C176 1.338 . S
C175 N178 1.377 . S
C175 H195 0.930 . S
C176 N174 1.375 . S
C176 C175 1.338 . S
C176 H180 0.931 . S
C177 N174 1.313 . S
C177 N178 1.344 . S
C177 H181 0.930 . S
N178 C175 1.377 . S
N178 C177 1.344 . S
O179 Co171 2.055 . S
O179 C183 1.253 . S
H180 C176 0.931 . S
H181 C177 0.930 . S
O182 Co171 2.039 . S
O182 C172 1.265 . S
C183 O179 1.253 . S
C183 O184 1.227 . S
O184 C183 1.227 . S
N185 Co171 2.140 . S
N185 C188 1.346 . S
N185 C189 1.345 . S
C186 C187 1.387 . S
C186 C190 1.391 . S
C187 C186 1.387 . S
C187 C188 1.369 . S
C187 H196 0.929 . S
C188 N185 1.346 . S
C188 C187 1.369 . S
C188 H191 0.928 . S
C189 N185 1.345 . S
C189 C190 1.371 . S
C189 H192 0.931 . S
C190 C186 1.391 . S
C190 C189 1.371 . S
C190 H197 0.930 . S
H191 C188 0.928 . S
H192 C189 0.931 . S
H193 C169 0.930 . S
H194 C166 0.930 . S
H195 C175 0.930 . S
H196 C187 0.929 . S
H197 C190 0.930 . S
C198 C199 1.351 . S
C198 N201 1.368 . S
C198 H203 0.931 . S
C199 C198 1.351 . S
C199 N200 1.373 . S
C199 H227 0.930 . S
N200 C199 1.373 . S
N200 C202 1.340 . S
N201 C198 1.368 . S
N201 C202 1.321 . S
N201 Co204 2.135 . S
C202 N200 1.340 . S
C202 N201 1.321 . S
C202 H226 0.930 . S
H203 C198 0.931 . S
Co204 N201 2.135 . S
Co204 N207 2.121 . S
Co204 O212 2.055 . S
Co204 O215 2.039 . S
Co204 N218 2.140 . S
C205 O206 1.227 . S
C205 O215 1.265 . S
O206 C205 1.227 . S
N207 Co204 2.121 . S
N207 C209 1.375 . S
N207 C210 1.313 . S
C208 C209 1.338 . S
C208 N211 1.377 . S
C208 H228 0.930 . S
C209 N207 1.375 . S
C209 C208 1.338 . S
C209 H213 0.931 . S
C210 N207 1.313 . S
C210 N211 1.344 . S
C210 H214 0.930 . S
N211 C208 1.377 . S
N211 C210 1.344 . S
O212 Co204 2.055 . S
O212 C216 1.253 . S
H213 C209 0.931 . S
H214 C210 0.930 . S
O215 Co204 2.039 . S
O215 C205 1.265 . S
C216 O212 1.253 . S
C216 O217 1.227 . S
O217 C216 1.227 . S
N218 Co204 2.140 . S
N218 C221 1.346 . S
N218 C222 1.345 . S
C219 C220 1.387 . S
C219 C223 1.391 . S
C220 C219 1.387 . S
C220 C221 1.369 . S
C220 H229 0.929 . S
C221 N218 1.346 . S
C221 C220 1.369 . S
C221 H224 0.928 . S
C222 N218 1.345 . S
C222 C223 1.371 . S
C222 H225 0.931 . S
C223 C219 1.391 . S
C223 C222 1.371 . S
C223 H230 0.930 . S
H224 C221 0.928 . S
H225 C222 0.931 . S
H226 C202 0.930 . S
H227 C199 0.930 . S
H228 C208 0.930 . S
H229 C220 0.929 . S
H230 C223 0.930 . S
C231 C232 1.351 . S
C231 N234 1.368 . S
C231 H236 0.931 . S
C232 C231 1.351 . S
C232 N233 1.373 . S
C232 H260 0.930 . S
N233 C232 1.373 . S
N233 C235 1.340 . S
N234 C231 1.368 . S
N234 C235 1.321 . S
N234 Co237 2.135 . S
C235 N233 1.340 . S
C235 N234 1.321 . S
C235 H259 0.930 . S
H236 C231 0.931 . S
Co237 N234 2.135 . S
Co237 N240 2.121 . S
Co237 O245 2.055 . S
Co237 O248 2.039 . S
Co237 N251 2.140 . S
C238 O239 1.227 . S
C238 O248 1.265 . S
O239 C238 1.227 . S
N240 Co237 2.121 . S
N240 C242 1.375 . S
N240 C243 1.313 . S
C241 C242 1.338 . S
C241 N244 1.377 . S
C241 H261 0.930 . S
C242 N240 1.375 . S
C242 C241 1.338 . S
C242 H246 0.931 . S
C243 N240 1.313 . S
C243 N244 1.344 . S
C243 H247 0.930 . S
N244 C241 1.377 . S
N244 C243 1.344 . S
O245 Co237 2.055 . S
O245 C249 1.253 . S
H246 C242 0.931 . S
H247 C243 0.930 . S
O248 Co237 2.039 . S
O248 C238 1.265 . S
C249 O245 1.253 . S
C249 O250 1.227 . S
O250 C249 1.227 . S
N251 Co237 2.140 . S
N251 C254 1.346 . S
N251 C255 1.345 . S
C252 C253 1.387 . S
C252 C256 1.391 . S
C253 C252 1.387 . S
C253 C254 1.369 . S
C253 H262 0.929 . S
C254 N251 1.346 . S
C254 C253 1.369 . S
C254 H257 0.928 . S
C255 N251 1.345 . S
C255 C256 1.371 . S
C255 H258 0.931 . S
C256 C252 1.391 . S
C256 C255 1.371 . S
C256 H263 0.930 . S
H257 C254 0.928 . S
H258 C255 0.931 . S
H259 C235 0.930 . S
H260 C232 0.930 . S
H261 C241 0.930 . S
H262 C253 0.929 . S
H263 C256 0.930 . S
C264 C265 1.351 . S
C264 N267 1.368 . S
C264 H269 0.931 . S
C265 C264 1.351 . S
C265 N266 1.373 . S
C265 H293 0.930 . S
N266 C265 1.373 . S
N266 C268 1.340 . S
N267 C264 1.368 . S
N267 C268 1.321 . S
N267 Co270 2.135 . S
C268 N266 1.340 . S
C268 N267 1.321 . S
C268 H292 0.930 . S
H269 C264 0.931 . S
Co270 N267 2.135 . S
Co270 N273 2.121 . S
Co270 O278 2.055 . S
Co270 O281 2.039 . S
Co270 N284 2.140 . S
C271 O272 1.227 . S
C271 O281 1.265 . S
O272 C271 1.227 . S
N273 Co270 2.121 . S
N273 C275 1.375 . S
N273 C276 1.313 . S
C274 C275 1.338 . S
C274 N277 1.377 . S
C274 H294 0.930 . S
C275 N273 1.375 . S
C275 C274 1.338 . S
C275 H279 0.931 . S
C276 N273 1.313 . S
C276 N277 1.344 . S
C276 H280 0.930 . S
N277 C274 1.377 . S
N277 C276 1.344 . S
O278 Co270 2.055 . S
O278 C282 1.253 . S
H279 C275 0.931 . S
H280 C276 0.930 . S
O281 Co270 2.039 . S
O281 C271 1.265 . S
C282 O278 1.253 . S
C282 O283 1.227 . S
O283 C282 1.227 . S
N284 Co270 2.140 . S
N284 C287 1.346 . S
N284 C288 1.345 . S
C285 C286 1.387 . S
C285 C289 1.391 . S
C286 C285 1.387 . S
C286 C287 1.369 . S
C286 H295 0.929 . S
C287 N284 1.346 . S
C287 C286 1.369 . S
C287 H290 0.928 . S
C288 N284 1.345 . S
C288 C289 1.371 . S
C288 H291 0.931 . S
C289 C285 1.391 . S
C289 C288 1.371 . S
C289 H296 0.930 . S
H290 C287 0.928 . S
H291 C288 0.931 . S
H292 C268 0.930 . S
H293 C265 0.930 . S
H294 C274 0.930 . S
H295 C286 0.929 . S
H296 C289 0.930 . S
C297 C298 1.351 . S
C297 N300 1.368 . S
C297 H302 0.931 . S
C298 C297 1.351 . S
C298 N299 1.373 . S
C298 H326 0.930 . S
N299 C298 1.373 . S
N299 C301 1.340 . S
N300 C297 1.368 . S
N300 C301 1.321 . S
N300 Co303 2.135 . S
C301 N299 1.340 . S
C301 N300 1.321 . S
C301 H325 0.930 . S
H302 C297 0.931 . S
Co303 N300 2.135 . S
Co303 N306 2.121 . S
Co303 O311 2.055 . S
Co303 O314 2.039 . S
Co303 N317 2.140 . S
C304 O305 1.227 . S
C304 O314 1.265 . S
O305 C304 1.227 . S
N306 Co303 2.121 . S
N306 C308 1.375 . S
N306 C309 1.313 . S
C307 C308 1.338 . S
C307 N310 1.377 . S
C307 H327 0.930 . S
C308 N306 1.375 . S
C308 C307 1.338 . S
C308 H312 0.931 . S
C309 N306 1.313 . S
C309 N310 1.344 . S
C309 H313 0.930 . S
N310 C307 1.377 . S
N310 C309 1.344 . S
O311 Co303 2.055 . S
O311 C315 1.253 . S
H312 C308 0.931 . S
H313 C309 0.930 . S
O314 Co303 2.039 . S
O314 C304 1.265 . S
C315 O311 1.253 . S
C315 O316 1.227 . S
O316 C315 1.227 . S
N317 Co303 2.140 . S
N317 C320 1.346 . S
N317 C321 1.345 . S
C318 C319 1.387 . S
C318 C322 1.391 . S
C319 C318 1.387 . S
C319 C320 1.369 . S
C319 H328 0.929 . S
C320 N317 1.346 . S
C320 C319 1.369 . S
C320 H323 0.928 . S
C321 N317 1.345 . S
C321 C322 1.371 . S
C321 H324 0.931 . S
C322 C318 1.391 . S
C322 C321 1.371 . S
C322 H329 0.930 . S
H323 C320 0.928 . S
H324 C321 0.931 . S
H325 C301 0.930 . S
H326 C298 0.930 . S
H327 C307 0.930 . S
H328 C319 0.929 . S
H329 C322 0.930 . S
C330 C331 1.351 . S
C330 N333 1.368 . S
C330 H335 0.931 . S
C331 C330 1.351 . S
C331 N332 1.373 . S
C331 H359 0.930 . S
N332 C331 1.373 . S
N332 C334 1.340 . S
N333 C330 1.368 . S
N333 C334 1.321 . S
N333 Co336 2.135 . S
C334 N332 1.340 . S
C334 N333 1.321 . S
C334 H358 0.930 . S
H335 C330 0.931 . S
Co336 N333 2.135 . S
Co336 N339 2.121 . S
Co336 O344 2.055 . S
Co336 O347 2.039 . S
Co336 N350 2.140 . S
C337 O338 1.227 . S
C337 O347 1.265 . S
O338 C337 1.227 . S
N339 Co336 2.121 . S
N339 C341 1.375 . S
N339 C342 1.313 . S
C340 C341 1.338 . S
C340 N343 1.377 . S
C340 H360 0.930 . S
C341 N339 1.375 . S
C341 C340 1.338 . S
C341 H345 0.931 . S
C342 N339 1.313 . S
C342 N343 1.344 . S
C342 H346 0.930 . S
N343 C340 1.377 . S
N343 C342 1.344 . S
O344 Co336 2.055 . S
O344 C348 1.253 . S
H345 C341 0.931 . S
H346 C342 0.930 . S
O347 Co336 2.039 . S
O347 C337 1.265 . S
C348 O344 1.253 . S
C348 O349 1.227 . S
O349 C348 1.227 . S
N350 Co336 2.140 . S
N350 C353 1.346 . S
N350 C354 1.345 . S
C351 C352 1.387 . S
C351 C355 1.391 . S
C352 C351 1.387 . S
C352 C353 1.369 . S
C352 H361 0.929 . S
C353 N350 1.346 . S
C353 C352 1.369 . S
C353 H356 0.928 . S
C354 N350 1.345 . S
C354 C355 1.371 . S
C354 H357 0.931 . S
C355 C351 1.391 . S
C355 C354 1.371 . S
C355 H362 0.930 . S
H356 C353 0.928 . S
H357 C354 0.931 . S
H358 C334 0.930 . S
H359 C331 0.930 . S
H360 C340 0.930 . S
H361 C352 0.929 . S
H362 C355 0.930 . S
C363 C364 1.351 . S
C363 N366 1.368 . S
C363 H368 0.931 . S
C364 C363 1.351 . S
C364 N365 1.373 . S
C364 H392 0.930 . S
N365 C364 1.373 . S
N365 C367 1.340 . S
N366 C363 1.368 . S
N366 C367 1.321 . S
N366 Co369 2.135 . S
C367 N365 1.340 . S
C367 N366 1.321 . S
C367 H391 0.930 . S
H368 C363 0.931 . S
Co369 N366 2.135 . S
Co369 N372 2.121 . S
Co369 O377 2.055 . S
Co369 O380 2.039 . S
Co369 N383 2.140 . S
C370 O371 1.227 . S
C370 O380 1.265 . S
O371 C370 1.227 . S
N372 Co369 2.121 . S
N372 C374 1.375 . S
N372 C375 1.313 . S
C373 C374 1.338 . S
C373 N376 1.377 . S
C373 H393 0.930 . S
C374 N372 1.375 . S
C374 C373 1.338 . S
C374 H378 0.931 . S
C375 N372 1.313 . S
C375 N376 1.344 . S
C375 H379 0.930 . S
N376 C373 1.377 . S
N376 C375 1.344 . S
O377 Co369 2.055 . S
O377 C381 1.253 . S
H378 C374 0.931 . S
H379 C375 0.930 . S
O380 Co369 2.039 . S
O380 C370 1.265 . S
C381 O377 1.253 . S
C381 O382 1.227 . S
O382 C381 1.227 . S
N383 Co369 2.140 . S
N383 C386 1.346 . S
N383 C387 1.345 . S
C384 C385 1.387 . S
C384 C388 1.391 . S
C385 C384 1.387 . S
C385 C386 1.369 . S
C385 H394 0.929 . S
C386 N383 1.346 . S
C386 C385 1.369 . S
C386 H389 0.928 . S
C387 N383 1.345 . S
C387 C388 1.371 . S
C387 H390 0.931 . S
C388 C384 1.391 . S
C388 C387 1.371 . S
C388 H395 0.930 . S
H389 C386 0.928 . S
H390 C387 0.931 . S
H391 C367 0.930 . S
H392 C364 0.930 . S
H393 C373 0.930 . S
H394 C385 0.929 . S
H395 C388 0.930 . S
C396 C397 1.351 . S
C396 N399 1.368 . S
C396 H401 0.931 . S
C397 C396 1.351 . S
C397 N398 1.373 . S
C397 H425 0.930 . S
N398 C397 1.373 . S
N398 C400 1.340 . S
N399 C396 1.368 . S
N399 C400 1.321 . S
N399 Co402 2.135 . S
C400 N398 1.340 . S
C400 N399 1.321 . S
C400 H424 0.930 . S
H401 C396 0.931 . S
Co402 N399 2.135 . S
Co402 N405 2.121 . S
Co402 O410 2.055 . S
Co402 O413 2.039 . S
Co402 N416 2.140 . S
C403 O404 1.227 . S
C403 O413 1.265 . S
O404 C403 1.227 . S
N405 Co402 2.121 . S
N405 C407 1.375 . S
N405 C408 1.313 . S
C406 C407 1.338 . S
C406 N409 1.377 . S
C406 H426 0.930 . S
C407 N405 1.375 . S
C407 C406 1.338 . S
C407 H411 0.931 . S
C408 N405 1.313 . S
C408 N409 1.344 . S
C408 H412 0.930 . S
N409 C406 1.377 . S
N409 C408 1.344 . S
O410 Co402 2.055 . S
O410 C414 1.253 . S
H411 C407 0.931 . S
H412 C408 0.930 . S
O413 Co402 2.039 . S
O413 C403 1.265 . S
C414 O410 1.253 . S
C414 O415 1.227 . S
O415 C414 1.227 . S
N416 Co402 2.140 . S
N416 C419 1.346 . S
N416 C420 1.345 . S
C417 C418 1.387 . S
C417 C421 1.391 . S
C418 C417 1.387 . S
C418 C419 1.369 . S
C418 H427 0.929 . S
C419 N416 1.346 . S
C419 C418 1.369 . S
C419 H422 0.928 . S
C420 N416 1.345 . S
C420 C421 1.371 . S
C420 H423 0.931 . S
C421 C417 1.391 . S
C421 C420 1.371 . S
C421 H428 0.930 . S
H422 C419 0.928 . S
H423 C420 0.931 . S
H424 C400 0.930 . S
H425 C397 0.930 . S
H426 C406 0.930 . S
H427 C418 0.929 . S
H428 C421 0.930 . S
C429 C430 1.351 . S
C429 N432 1.368 . S
C429 H434 0.931 . S
C430 C429 1.351 . S
C430 N431 1.373 . S
C430 H458 0.930 . S
N431 C430 1.373 . S
N431 C433 1.340 . S
N432 C429 1.368 . S
N432 C433 1.321 . S
N432 Co435 2.135 . S
C433 N431 1.340 . S
C433 N432 1.321 . S
C433 H457 0.930 . S
H434 C429 0.931 . S
Co435 N432 2.135 . S
Co435 N438 2.121 . S
Co435 O443 2.055 . S
Co435 O446 2.039 . S
Co435 N449 2.140 . S
C436 O437 1.227 . S
C436 O446 1.265 . S
O437 C436 1.227 . S
N438 Co435 2.121 . S
N438 C440 1.375 . S
N438 C441 1.313 . S
C439 C440 1.338 . S
C439 N442 1.377 . S
C439 H459 0.930 . S
C440 N438 1.375 . S
C440 C439 1.338 . S
C440 H444 0.931 . S
C441 N438 1.313 . S
C441 N442 1.344 . S
C441 H445 0.930 . S
N442 C439 1.377 . S
N442 C441 1.344 . S
O443 Co435 2.055 . S
O443 C447 1.253 . S
H444 C440 0.931 . S
H445 C441 0.930 . S
O446 Co435 2.039 . S
O446 C436 1.265 . S
C447 O443 1.253 . S
C447 O448 1.227 . S
O448 C447 1.227 . S
N449 Co435 2.140 . S
N449 C452 1.346 . S
N449 C453 1.345 . S
C450 C451 1.387 . S
C450 C454 1.391 . S
C451 C450 1.387 . S
C451 C452 1.369 . S
C451 H460 0.929 . S
C452 N449 1.346 . S
C452 C451 1.369 . S
C452 H455 0.928 . S
C453 N449 1.345 . S
C453 C454 1.371 . S
C453 H456 0.931 . S
C454 C450 1.391 . S
C454 C453 1.371 . S
C454 H461 0.930 . S
H455 C452 0.928 . S
H456 C453 0.931 . S
H457 C433 0.930 . S
H458 C430 0.930 . S
H459 C439 0.930 . S
H460 C451 0.929 . S
H461 C454 0.930 . S
C462 C463 1.351 . S
C462 N465 1.368 . S
C462 H467 0.931 . S
C463 C462 1.351 . S
C463 N464 1.373 . S
C463 H491 0.930 . S
N464 C463 1.373 . S
N464 C466 1.340 . S
N465 C462 1.368 . S
N465 C466 1.321 . S
N465 Co468 2.135 . S
C466 N464 1.340 . S
C466 N465 1.321 . S
C466 H490 0.930 . S
H467 C462 0.931 . S
Co468 N465 2.135 . S
Co468 N471 2.121 . S
Co468 O476 2.055 . S
Co468 O479 2.039 . S
Co468 N482 2.140 . S
C469 O470 1.227 . S
C469 O479 1.265 . S
O470 C469 1.227 . S
N471 Co468 2.121 . S
N471 C473 1.375 . S
N471 C474 1.313 . S
C472 C473 1.338 . S
C472 N475 1.377 . S
C472 H492 0.930 . S
C473 N471 1.375 . S
C473 C472 1.338 . S
C473 H477 0.931 . S
C474 N471 1.313 . S
C474 N475 1.344 . S
C474 H478 0.930 . S
N475 C472 1.377 . S
N475 C474 1.344 . S
O476 Co468 2.055 . S
O476 C480 1.253 . S
H477 C473 0.931 . S
H478 C474 0.930 . S
O479 Co468 2.039 . S
O479 C469 1.265 . S
C480 O476 1.253 . S
C480 O481 1.227 . S
O481 C480 1.227 . S
N482 Co468 2.140 . S
N482 C485 1.346 . S
N482 C486 1.345 . S
C483 C484 1.387 . S
C483 C487 1.391 . S
C484 C483 1.387 . S
C484 C485 1.369 . S
C484 H493 0.929 . S
C485 N482 1.346 . S
C485 C484 1.369 . S
C485 H488 0.928 . S
C486 N482 1.345 . S
C486 C487 1.371 . S
C486 H489 0.931 . S
C487 C483 1.391 . S
C487 C486 1.371 . S
C487 H494 0.930 . S
H488 C485 0.928 . S
H489 C486 0.931 . S
H490 C466 0.930 . S
H491 C463 0.930 . S
H492 C472 0.930 . S
H493 C484 0.929 . S
H494 C487 0.930 . S
C495 C496 1.351 . S
C495 N498 1.368 . S
C495 H500 0.931 . S
C496 C495 1.351 . S
C496 N497 1.373 . S
C496 H524 0.930 . S
N497 C496 1.373 . S
N497 C499 1.340 . S
N498 C495 1.368 . S
N498 C499 1.321 . S
N498 Co501 2.135 . S
C499 N497 1.340 . S
C499 N498 1.321 . S
C499 H523 0.930 . S
H500 C495 0.931 . S
Co501 N498 2.135 . S
Co501 N504 2.121 . S
Co501 O509 2.055 . S
Co501 O512 2.039 . S
Co501 N515 2.140 . S
C502 O503 1.227 . S
C502 O512 1.265 . S
O503 C502 1.227 . S
N504 Co501 2.121 . S
N504 C506 1.375 . S
N504 C507 1.313 . S
C505 C506 1.338 . S
C505 N508 1.377 . S
C505 H525 0.930 . S
C506 N504 1.375 . S
C506 C505 1.338 . S
C506 H510 0.931 . S
C507 N504 1.313 . S
C507 N508 1.344 . S
C507 H511 0.930 . S
N508 C505 1.377 . S
N508 C507 1.344 . S
O509 Co501 2.055 . S
O509 C513 1.253 . S
H510 C506 0.931 . S
H511 C507 0.930 . S
O512 Co501 2.039 . S
O512 C502 1.265 . S
C513 O509 1.253 . S
C513 O514 1.227 . S
O514 C513 1.227 . S
N515 Co501 2.140 . S
N515 C518 1.346 . S
N515 C519 1.345 . S
C516 C517 1.387 . S
C516 C520 1.391 . S
C517 C516 1.387 . S
C517 C518 1.369 . S
C517 H526 0.929 . S
C518 N515 1.346 . S
C518 C517 1.369 . S
C518 H521 0.928 . S
C519 N515 1.345 . S
C519 C520 1.371 . S
C519 H522 0.931 . S
C520 C516 1.391 . S
C520 C519 1.371 . S
C520 H527 0.930 . S
H521 C518 0.928 . S
H522 C519 0.931 . S
H523 C499 0.930 . S
H524 C496 0.930 . S
H525 C505 0.930 . S
H526 C517 0.929 . S
H527 C520 0.930 . S
C528 C529 1.351 . S
C528 N531 1.368 . S
C528 H533 0.931 . S
C529 C528 1.351 . S
C529 N530 1.373 . S
C529 H557 0.930 . S
N530 C529 1.373 . S
N530 C532 1.340 . S
N531 C528 1.368 . S
N531 C532 1.321 . S
N531 Co534 2.135 . S
C532 N530 1.340 . S
C532 N531 1.321 . S
C532 H556 0.930 . S
H533 C528 0.931 . S
Co534 N531 2.135 . S
Co534 N537 2.121 . S
Co534 O542 2.055 . S
Co534 O545 2.039 . S
Co534 N548 2.140 . S
C535 O536 1.227 . S
C535 O545 1.265 . S
O536 C535 1.227 . S
N537 Co534 2.121 . S
N537 C539 1.375 . S
N537 C540 1.313 . S
C538 C539 1.338 . S
C538 N541 1.377 . S
C538 H558 0.930 . S
C539 N537 1.375 . S
C539 C538 1.338 . S
C539 H543 0.931 . S
C540 N537 1.313 . S
C540 N541 1.344 . S
C540 H544 0.930 . S
N541 C538 1.377 . S
N541 C540 1.344 . S
O542 Co534 2.055 . S
O542 C546 1.253 . S
H543 C539 0.931 . S
H544 C540 0.930 . S
O545 Co534 2.039 . S
O545 C535 1.265 . S
C546 O542 1.253 . S
C546 O547 1.227 . S
O547 C546 1.227 . S
N548 Co534 2.140 . S
N548 C551 1.346 . S
N548 C552 1.345 . S
C549 C550 1.387 . S
C549 C553 1.391 . S
C550 C549 1.387 . S
C550 C551 1.369 . S
C550 H559 0.929 . S
C551 N548 1.346 . S
C551 C550 1.369 . S
C551 H554 0.928 . S
C552 N548 1.345 . S
C552 C553 1.371 . S
C552 H555 0.931 . S
C553 C549 1.391 . S
C553 C552 1.371 . S
C553 H560 0.930 . S
H554 C551 0.928 . S
H555 C552 0.931 . S
H556 C532 0.930 . S
H557 C529 0.930 . S
H558 C538 0.930 . S
H559 C550 0.929 . S
H560 C553 0.930 . S
C561 C562 1.351 . S
C561 N564 1.368 . S
C561 H566 0.931 . S
C562 C561 1.351 . S
C562 N563 1.373 . S
C562 H590 0.930 . S
N563 C562 1.373 . S
N563 C565 1.340 . S
N564 C561 1.368 . S
N564 C565 1.321 . S
N564 Co567 2.135 . S
C565 N563 1.340 . S
C565 N564 1.321 . S
C565 H589 0.930 . S
H566 C561 0.931 . S
Co567 N564 2.135 . S
Co567 N570 2.121 . S
Co567 O575 2.055 . S
Co567 O578 2.039 . S
Co567 N581 2.140 . S
C568 O569 1.227 . S
C568 O578 1.265 . S
O569 C568 1.227 . S
N570 Co567 2.121 . S
N570 C572 1.375 . S
N570 C573 1.313 . S
C571 C572 1.338 . S
C571 N574 1.377 . S
C571 H591 0.930 . S
C572 N570 1.375 . S
C572 C571 1.338 . S
C572 H576 0.931 . S
C573 N570 1.313 . S
C573 N574 1.344 . S
C573 H577 0.930 . S
N574 C571 1.377 . S
N574 C573 1.344 . S
O575 Co567 2.055 . S
O575 C579 1.253 . S
H576 C572 0.931 . S
H577 C573 0.930 . S
O578 Co567 2.039 . S
O578 C568 1.265 . S
C579 O575 1.253 . S
C579 O580 1.227 . S
O580 C579 1.227 . S
N581 Co567 2.140 . S
N581 C584 1.346 . S
N581 C585 1.345 . S
C582 C583 1.387 . S
C582 C586 1.391 . S
C583 C582 1.387 . S
C583 C584 1.369 . S
C583 H592 0.929 . S
C584 N581 1.346 . S
C584 C583 1.369 . S
C584 H587 0.928 . S
C585 N581 1.345 . S
C585 C586 1.371 . S
C585 H588 0.931 . S
C586 C582 1.391 . S
C586 C585 1.371 . S
C586 H593 0.930 . S
H587 C584 0.928 . S
H588 C585 0.931 . S
H589 C565 0.930 . S
H590 C562 0.930 . S
H591 C571 0.930 . S
H592 C583 0.929 . S
H593 C586 0.930 . S
H594 C602 0.929 . S
H595 C604 0.930 . S
H596 C606 0.930 . S
H597 C609 0.929 . S
H598 C612 0.930 . S
H599 C614 0.960 . S
H600 C614 0.960 . S
H601 C614 0.960 . S
C602 H594 0.929 . S
C602 C603 1.377 . S
C602 C604 1.384 . S
C603 C602 1.377 . S
C603 C609 1.390 . S
C604 H595 0.930 . S
C604 C602 1.384 . S
C604 C605 1.372 . S
C605 C604 1.372 . S
C605 C606 1.400 . S
C605 C610 1.490 . S
C606 H596 0.930 . S
C606 C605 1.400 . S
C606 C609 1.386 . S
H607 C623 0.930 . S
H608 C624 0.931 . S
C609 H597 0.929 . S
C609 C603 1.390 . S
C609 C606 1.386 . S
C610 C605 1.490 . S
C610 C612 1.395 . S
C610 C613 1.403 . S
H611 C617 0.930 . S
C612 H598 0.930 . S
C612 C610 1.395 . S
C612 C615 1.403 . S
C613 C610 1.403 . S
C613 C614 1.524 . S
C613 C617 1.400 . S
C614 H599 0.960 . S
C614 H600 0.960 . S
C614 H601 0.960 . S
C614 C613 1.524 . S
C615 C612 1.403 . S
C615 C616 1.392 . S
C615 C619 1.495 . S
C616 C615 1.392 . S
C616 C617 1.385 . S
C616 C618 1.478 . S
C617 H611 0.930 . S
C617 C613 1.400 . S
C617 C616 1.385 . S
C618 C616 1.478 . S
C618 C620 1.381 . S
C618 C624 1.383 . S
C619 C615 1.495 . S
C619 H625 0.959 . S
C619 H626 0.961 . S
C619 H627 0.960 . S
C620 C618 1.381 . S
C620 C621 1.394 . S
C620 H628 0.930 . S
C621 C620 1.394 . S
C621 C622 1.383 . S
C621 H629 0.929 . S
C622 C621 1.383 . S
C622 C623 1.377 . S
C623 H607 0.930 . S
C623 C622 1.377 . S
C623 C624 1.379 . S
C624 H608 0.931 . S
C624 C618 1.383 . S
C624 C623 1.379 . S
H625 C619 0.959 . S
H626 C619 0.961 . S
H627 C619 0.960 . S
H628 C620 0.930 . S
H629 C621 0.929 . S
H630 C638 0.929 . S
H631 C640 0.930 . S
H632 C642 0.930 . S
H633 C645 0.929 . S
H634 C648 0.930 . S
H635 C650 0.960 . S
H636 C650 0.960 . S
H637 C650 0.960 . S
C638 H630 0.929 . S
C638 C639 1.377 . S
C638 C640 1.384 1_565 S
C639 C638 1.377 . S
C639 C645 1.390 . S
C640 H631 0.930 . S
C640 C638 1.384 1_545 S
C640 C641 1.372 . S
C641 C640 1.372 . S
C641 C642 1.400 1_545 S
C641 C646 1.490 . S
C642 H632 0.930 . S
C642 C641 1.400 1_565 S
C642 C645 1.386 . S
H643 C659 0.930 . S
H644 C660 0.931 . S
C645 H633 0.929 . S
C645 C639 1.390 . S
C645 C642 1.386 . S
C646 C641 1.490 . S
C646 C648 1.395 . S
C646 C649 1.403 . S
H647 C653 0.930 . S
C648 H634 0.930 . S
C648 C646 1.395 . S
C648 C651 1.403 . S
C649 C646 1.403 . S
C649 C650 1.524 1_545 S
C649 C653 1.400 . S
C650 H635 0.960 . S
C650 H636 0.960 . S
C650 H637 0.960 . S
C650 C649 1.524 1_565 S
C651 C648 1.403 . S
C651 C652 1.392 . S
C651 C655 1.495 . S
C652 C651 1.392 . S
C652 C653 1.385 . S
C652 C654 1.478 . S
C653 H647 0.930 . S
C653 C649 1.400 . S
C653 C652 1.385 . S
C654 C652 1.478 . S
C654 C656 1.381 . S
C654 C660 1.383 . S
C655 C651 1.495 . S
C655 H661 0.959 . S
C655 H662 0.961 . S
C655 H663 0.960 . S
C656 C654 1.381 . S
C656 C657 1.394 . S
C656 H664 0.930 . S
C657 C656 1.394 . S
C657 C658 1.383 . S
C657 H665 0.929 . S
C658 C657 1.383 . S
C658 C659 1.377 . S
C659 H643 0.930 . S
C659 C658 1.377 . S
C659 C660 1.379 . S
C660 H644 0.931 . S
C660 C654 1.383 . S
C660 C659 1.379 . S
H661 C655 0.959 . S
H662 C655 0.961 . S
H663 C655 0.960 . S
H664 C656 0.930 . S
H665 C657 0.929 . S
H666 C674 0.929 . S
H667 C676 0.930 1_655 S
H668 C678 0.930 1_655 S
H669 C681 0.929 . S
H670 C684 0.930 . S
H671 C686 0.960 . S
H672 C686 0.960 . S
H673 C686 0.960 . S
C674 H666 0.929 . S
C674 C675 1.377 . S
C674 C676 1.384 . S
C675 C674 1.377 . S
C675 C681 1.390 . S
C676 H667 0.930 1_455 S
C676 C674 1.384 . S
C676 C677 1.372 1_455 S
C677 C676 1.372 1_655 S
C677 C678 1.400 1_655 S
C677 C682 1.490 . S
C678 H668 0.930 1_455 S
C678 C677 1.400 1_455 S
C678 C681 1.386 . S
H679 C695 0.930 . S
H680 C696 0.931 . S
C681 H669 0.929 . S
C681 C675 1.390 . S
C681 C678 1.386 . S
C682 C677 1.490 . S
C682 C684 1.395 . S
C682 C685 1.403 . S
H683 C689 0.930 . S
C684 H670 0.930 . S
C684 C682 1.395 . S
C684 C687 1.403 . S
C685 C682 1.403 . S
C685 C686 1.524 1_655 S
C685 C689 1.400 . S
C686 H671 0.960 . S
C686 H672 0.960 . S
C686 H673 0.960 . S
C686 C685 1.524 1_455 S
C687 C684 1.403 . S
C687 C688 1.392 . S
C687 C691 1.495 . S
C688 C687 1.392 . S
C688 C689 1.385 . S
C688 C690 1.478 . S
C689 H683 0.930 . S
C689 C685 1.400 . S
C689 C688 1.385 . S
C690 C688 1.478 . S
C690 C692 1.381 . S
C690 C696 1.383 . S
C691 C687 1.495 . S
C691 H697 0.959 . S
C691 H698 0.961 . S
C691 H699 0.960 . S
C692 C690 1.381 . S
C692 C693 1.394 . S
C692 H700 0.930 . S
C693 C692 1.394 . S
C693 C694 1.383 . S
C693 H701 0.929 . S
C694 C693 1.383 . S
C694 C695 1.377 . S
C695 H679 0.930 . S
C695 C694 1.377 . S
C695 C696 1.379 . S
C696 H680 0.931 . S
C696 C690 1.383 . S
C696 C695 1.379 . S
H697 C691 0.959 . S
H698 C691 0.961 . S
H699 C691 0.960 . S
H700 C692 0.930 . S
H701 C693 0.929 . S
H702 C710 0.929 . S
H703 C712 0.930 . S
H704 C714 0.930 . S
H705 C717 0.929 . S
H706 C720 0.930 . S
H707 C722 0.960 . S
H708 C722 0.960 . S
H709 C722 0.960 . S
C710 H702 0.929 . S
C710 C711 1.377 . S
C710 C712 1.384 . S
C711 C710 1.377 . S
C711 C717 1.390 . S
C712 H703 0.930 . S
C712 C710 1.384 . S
C712 C713 1.372 . S
C713 C712 1.372 . S
C713 C714 1.400 . S
C713 C718 1.490 . S
C714 H704 0.930 . S
C714 C713 1.400 . S
C714 C717 1.386 . S
H715 C731 0.930 . S
H716 C732 0.931 . S
C717 H705 0.929 . S
C717 C711 1.390 . S
C717 C714 1.386 . S
C718 C713 1.490 . S
C718 C720 1.395 . S
C718 C721 1.403 . S
H719 C725 0.930 . S
C720 H706 0.930 . S
C720 C718 1.395 . S
C720 C723 1.403 . S
C721 C718 1.403 . S
C721 C722 1.524 . S
C721 C725 1.400 . S
C722 H707 0.960 . S
C722 H708 0.960 . S
C722 H709 0.960 . S
C722 C721 1.524 . S
C723 C720 1.403 . S
C723 C724 1.392 . S
C723 C727 1.495 . S
C724 C723 1.392 . S
C724 C725 1.385 . S
C724 C726 1.478 . S
C725 H719 0.930 . S
C725 C721 1.400 . S
C725 C724 1.385 . S
C726 C724 1.478 . S
C726 C728 1.381 . S
C726 C732 1.383 . S
C727 C723 1.495 . S
C727 H733 0.959 . S
C727 H734 0.961 . S
C727 H735 0.960 . S
C728 C726 1.381 . S
C728 C729 1.394 . S
C728 H736 0.930 . S
C729 C728 1.394 . S
C729 C730 1.383 . S
C729 H737 0.929 . S
C730 C729 1.383 . S
C730 C731 1.377 . S
C731 H715 0.930 . S
C731 C730 1.377 . S
C731 C732 1.379 . S
C732 H716 0.931 . S
C732 C726 1.383 . S
C732 C731 1.379 . S
H733 C727 0.959 . S
H734 C727 0.961 . S
H735 C727 0.960 . S
H736 C728 0.930 . S
H737 C729 0.929 . S
H738 C746 0.929 . S
H739 C748 0.930 . S
H740 C750 0.930 . S
H741 C753 0.929 . S
H742 C756 0.930 1_545 S
H743 C758 0.960 . S
H744 C758 0.960 . S
H745 C758 0.960 . S
C746 H738 0.929 . S
C746 C747 1.377 . S
C746 C748 1.384 . S
C747 C746 1.377 . S
C747 C753 1.390 . S
C748 H739 0.930 . S
C748 C746 1.384 . S
C748 C749 1.372 1_545 S
C749 C748 1.372 1_565 S
C749 C750 1.400 . S
C749 C754 1.490 . S
C750 H740 0.930 . S
C750 C749 1.400 . S
C750 C753 1.386 1_565 S
H751 C767 0.930 . S
H752 C768 0.931 . S
C753 H741 0.929 . S
C753 C747 1.390 . S
C753 C750 1.386 1_545 S
C754 C749 1.490 . S
C754 C756 1.395 . S
C754 C757 1.403 . S
H755 C761 0.930 . S
C756 H742 0.930 1_565 S
C756 C754 1.395 . S
C756 C759 1.403 . S
C757 C754 1.403 . S
C757 C758 1.524 . S
C757 C761 1.400 . S
C758 H743 0.960 . S
C758 H744 0.960 . S
C758 H745 0.960 . S
C758 C757 1.524 . S
C759 C756 1.403 . S
C759 C760 1.392 . S
C759 C763 1.495 . S
C760 C759 1.392 . S
C760 C761 1.385 . S
C760 C762 1.478 . S
C761 H755 0.930 . S
C761 C757 1.400 . S
C761 C760 1.385 . S
C762 C760 1.478 . S
C762 C764 1.381 . S
C762 C768 1.383 . S
C763 C759 1.495 . S
C763 H769 0.959 . S
C763 H770 0.961 . S
C763 H771 0.960 . S
C764 C762 1.381 . S
C764 C765 1.394 . S
C764 H772 0.930 . S
C765 C764 1.394 . S
C765 C766 1.383 . S
C765 H773 0.929 . S
C766 C765 1.383 . S
C766 C767 1.377 . S
C767 H751 0.930 . S
C767 C766 1.377 . S
C767 C768 1.379 . S
C768 H752 0.931 . S
C768 C762 1.383 . S
C768 C767 1.379 . S
H769 C763 0.959 . S
H770 C763 0.961 . S
H771 C763 0.960 . S
H772 C764 0.930 . S
H773 C765 0.929 . S
H774 C782 0.909 1_455 S
H775 C784 0.930 . S
H776 C786 0.930 . S
H777 C789 0.929 . S
H778 C792 0.930 . S
H779 C794 0.960 . S
H780 C794 0.960 . S
H781 C794 0.960 . S
C782 H774 0.909 1_655 S
C782 C783 1.377 . S
C782 C784 1.384 1_655 S
C783 C782 1.377 . S
C783 C789 1.390 . S
C784 H775 0.930 . S
C784 C782 1.384 1_455 S
C784 C785 1.372 . S
C785 C784 1.372 . S
C785 C786 1.400 1_455 S
C785 C790 1.490 . S
C786 H776 0.930 . S
C786 C785 1.400 1_655 S
C786 C789 1.386 . S
H787 C803 0.930 . S
H788 C804 0.931 . S
C789 H777 0.929 . S
C789 C783 1.390 . S
C789 C786 1.386 . S
C790 C785 1.490 . S
C790 C792 1.395 . S
C790 C793 1.403 . S
H791 C797 0.930 . S
C792 H778 0.930 . S
C792 C790 1.395 . S
C792 C795 1.403 . S
C793 C790 1.403 . S
C793 C794 1.524 . S
C793 C797 1.400 . S
C794 H779 0.960 . S
C794 H780 0.960 . S
C794 H781 0.960 . S
C794 C793 1.524 . S
C795 C792 1.403 . S
C795 C796 1.392 . S
C795 C799 1.495 . S
C796 C795 1.392 . S
C796 C797 1.385 . S
C796 C798 1.478 . S
C797 H791 0.930 . S
C797 C793 1.400 . S
C797 C796 1.385 . S
C798 C796 1.478 . S
C798 C800 1.381 . S
C798 C804 1.383 . S
C799 C795 1.495 . S
C799 H805 0.959 . S
C799 H806 0.961 . S
C799 H807 0.960 . S
C800 C798 1.381 . S
C800 C801 1.394 . S
C800 H808 0.930 . S
C801 C800 1.394 . S
C801 C802 1.383 . S
C801 H809 0.929 . S
C802 C801 1.383 . S
C802 C803 1.377 . S
C803 H787 0.930 . S
C803 C802 1.377 . S
C803 C804 1.379 . S
C804 H788 0.931 . S
C804 C798 1.383 . S
C804 C803 1.379 . S
H805 C799 0.959 . S
H806 C799 0.961 . S
H807 C799 0.960 . S
H808 C800 0.930 . S
H809 C801 0.929 . S
H810 C818 0.929 . S
H811 C820 0.930 . S
H812 C822 0.930 . S
H813 C825 0.929 . S
H814 C828 0.930 . S
H815 C830 0.960 . S
H816 C830 0.960 . S
H817 C830 0.960 . S
C818 H810 0.929 . S
C818 C819 1.377 . S
C818 C820 1.384 . S
C819 C818 1.377 . S
C819 C825 1.390 . S
C820 H811 0.930 . S
C820 C818 1.384 . S
C820 C821 1.372 . S
C821 C820 1.372 . S
C821 C822 1.400 . S
C821 C826 1.490 . S
C822 H812 0.930 . S
C822 C821 1.400 . S
C822 C825 1.386 . S
H823 C839 0.930 . S
H824 C840 0.931 . S
C825 H813 0.929 . S
C825 C819 1.390 . S
C825 C822 1.386 . S
C826 C821 1.490 . S
C826 C828 1.395 . S
C826 C829 1.403 . S
H827 C833 0.930 . S
C828 H814 0.930 . S
C828 C826 1.395 . S
C828 C831 1.403 . S
C829 C826 1.403 . S
C829 C830 1.524 . S
C829 C833 1.400 . S
C830 H815 0.960 . S
C830 H816 0.960 . S
C830 H817 0.960 . S
C830 C829 1.524 . S
C831 C828 1.403 . S
C831 C832 1.392 . S
C831 C835 1.495 . S
C832 C831 1.392 . S
C832 C833 1.385 . S
C832 C834 1.478 . S
C833 H827 0.930 . S
C833 C829 1.400 . S
C833 C832 1.385 . S
C834 C832 1.478 . S
C834 C836 1.381 1_655 S
C834 C840 1.383 . S
C835 C831 1.495 . S
C835 H841 0.959 . S
C835 H842 0.961 . S
C835 H843 0.960 . S
C836 C834 1.381 1_455 S
C836 C837 1.394 . S
C836 H844 0.971 . S
C837 C836 1.394 . S
C837 C838 1.383 . S
C837 H845 0.929 . S
C838 C837 1.383 . S
C838 C839 1.377 . S
C839 H823 0.930 . S
C839 C838 1.377 . S
C839 C840 1.379 1_455 S
C840 H824 0.931 . S
C840 C834 1.383 . S
C840 C839 1.379 1_655 S
H841 C835 0.959 . S
H842 C835 0.961 . S
H843 C835 0.960 . S
H844 C836 0.971 . S
H845 C837 0.929 . S
H846 C854 0.929 . S
H847 C856 0.930 . S
H848 C858 0.930 . S
H849 C861 0.929 . S
H850 C864 0.930 . S
H851 C866 0.960 . S
H852 C866 0.960 . S
H853 C866 0.960 . S
C854 H846 0.929 . S
C854 C855 1.377 . S
C854 C856 1.384 . S
C855 C854 1.377 . S
C855 C861 1.390 . S
C856 H847 0.930 . S
C856 C854 1.384 . S
C856 C857 1.372 . S
C857 C856 1.372 . S
C857 C858 1.400 . S
C857 C862 1.490 . S
C858 H848 0.930 . S
C858 C857 1.400 . S
C858 C861 1.386 . S
H859 C875 0.930 . S
H860 C876 0.931 . S
C861 H849 0.929 . S
C861 C855 1.390 . S
C861 C858 1.386 . S
C862 C857 1.490 . S
C862 C864 1.395 . S
C862 C865 1.403 . S
H863 C869 0.930 . S
C864 H850 0.930 . S
C864 C862 1.395 . S
C864 C867 1.403 . S
C865 C862 1.403 . S
C865 C866 1.524 . S
C865 C869 1.400 . S
C866 H851 0.960 . S
C866 H852 0.960 . S
C866 H853 0.960 . S
C866 C865 1.524 . S
C867 C864 1.403 . S
C867 C868 1.392 . S
C867 C871 1.495 . S
C868 C867 1.392 . S
C868 C869 1.385 . S
C868 C870 1.478 . S
C869 H863 0.930 . S
C869 C865 1.400 . S
C869 C868 1.385 . S
C870 C868 1.478 . S
C870 C872 1.381 . S
C870 C876 1.383 . S
C871 C867 1.495 . S
C871 H877 0.959 . S
C871 H878 0.961 . S
C871 H879 0.960 . S
C872 C870 1.381 . S
C872 C873 1.394 . S
C872 H880 0.930 . S
C873 C872 1.394 . S
C873 C874 1.383 . S
C873 H881 0.929 . S
C874 C873 1.383 . S
C874 C875 1.377 . S
C875 H859 0.930 . S
C875 C874 1.377 . S
C875 C876 1.379 . S
C876 H860 0.931 . S
C876 C870 1.383 . S
C876 C875 1.379 . S
H877 C871 0.959 . S
H878 C871 0.961 . S
H879 C871 0.960 . S
H880 C872 0.930 . S
H881 C873 0.929 . S
H882 C890 0.929 . S
H883 C892 0.930 . S
H884 C894 0.930 . S
H885 C897 0.929 . S
H886 C900 0.930 . S
H887 C902 0.960 . S
H888 C902 0.960 . S
H889 C902 0.960 . S
C890 H882 0.929 . S
C890 C891 1.377 . S
C890 C892 1.384 . S
C891 C890 1.377 . S
C891 C897 1.390 . S
C892 H883 0.930 . S
C892 C890 1.384 . S
C892 C893 1.372 1_565 S
C893 C892 1.372 1_545 S
C893 C894 1.400 . S
C893 C898 1.490 . S
C894 H884 0.930 . S
C894 C893 1.400 . S
C894 C897 1.386 1_545 S
H895 C911 0.930 . S
H896 C912 0.931 . S
C897 H885 0.929 . S
C897 C891 1.390 . S
C897 C894 1.386 1_565 S
C898 C893 1.490 . S
C898 C900 1.395 . S
C898 C901 1.403 . S
H899 C905 0.930 . S
C900 H886 0.930 . S
C900 C898 1.395 . S
C900 C903 1.403 . S
C901 C898 1.403 . S
C901 C902 1.524 . S
C901 C905 1.400 . S
C902 H887 0.960 . S
C902 H888 0.960 . S
C902 H889 0.960 . S
C902 C901 1.524 . S
C903 C900 1.403 . S
C903 C904 1.392 . S
C903 C907 1.495 . S
C904 C903 1.392 . S
C904 C905 1.385 . S
C904 C906 1.478 . S
C905 H899 0.930 . S
C905 C901 1.400 . S
C905 C904 1.385 . S
C906 C904 1.478 . S
C906 C908 1.381 . S
C906 C912 1.383 . S
C907 C903 1.495 . S
C907 H913 0.959 . S
C907 H914 0.961 . S
C907 H915 0.960 . S
C908 C906 1.381 . S
C908 C909 1.394 . S
C908 H916 0.930 . S
C909 C908 1.394 . S
C909 C910 1.383 . S
C909 H917 0.929 . S
C910 C909 1.383 . S
C910 C911 1.377 . S
C911 H895 0.930 . S
C911 C910 1.377 . S
C911 C912 1.379 . S
C912 H896 0.931 . S
C912 C906 1.383 . S
C912 C911 1.379 . S
H913 C907 0.959 . S
H914 C907 0.961 . S
H915 C907 0.960 . S
H916 C908 0.930 . S
H917 C909 0.929 . S
H918 C926 0.929 . S
H919 C928 0.930 . S
H920 C930 0.930 . S
H921 C933 0.929 . S
H922 C936 0.930 . S
H923 C938 0.960 . S
H924 C938 0.960 . S
H925 C938 0.960 . S
C926 H918 0.929 . S
C926 C927 1.377 . S
C926 C928 1.384 . S
C927 C926 1.377 . S
C927 C933 1.390 . S
C928 H919 0.930 . S
C928 C926 1.384 . S
C928 C929 1.372 . S
C929 C928 1.372 . S
C929 C930 1.400 . S
C929 C934 1.490 . S
C930 H920 0.930 . S
C930 C929 1.400 . S
C930 C933 1.386 . S
H931 C947 0.930 . S
H932 C948 0.931 . S
C933 H921 0.929 . S
C933 C927 1.390 . S
C933 C930 1.386 . S
C934 C929 1.490 . S
C934 C936 1.395 . S
C934 C937 1.403 . S
H935 C941 0.930 . S
C936 H922 0.930 . S
C936 C934 1.395 . S
C936 C939 1.403 . S
C937 C934 1.403 . S
C937 C938 1.524 . S
C937 C941 1.400 . S
C938 H923 0.960 . S
C938 H924 0.960 . S
C938 H925 0.960 . S
C938 C937 1.524 . S
C939 C936 1.403 . S
C939 C940 1.392 . S
C939 C943 1.495 . S
C940 C939 1.392 . S
C940 C941 1.385 . S
C940 C942 1.478 . S
C941 H935 0.930 . S
C941 C937 1.400 . S
C941 C940 1.385 . S
C942 C940 1.478 . S
C942 C944 1.381 1_554 S
C942 C948 1.383 . S
C943 C939 1.495 . S
C943 H949 0.959 . S
C943 H950 0.961 . S
C943 H951 0.960 . S
C944 C942 1.381 1_556 S
C944 C945 1.394 . S
C944 H952 0.930 . S
C945 C944 1.394 . S
C945 C946 1.383 . S
C945 H953 0.929 . S
C946 C945 1.383 . S
C946 C947 1.377 1_556 S
C947 H931 0.930 . S
C947 C946 1.377 1_554 S
C947 C948 1.379 . S
C948 H932 0.931 . S
C948 C942 1.383 . S
C948 C947 1.379 . S
H949 C943 0.959 . S
H950 C943 0.961 . S
H951 C943 0.960 . S
H952 C944 0.930 . S
H953 C945 0.929 . S
H954 C962 0.929 . S
H955 C964 0.930 . S
H956 C966 0.930 . S
H957 C969 0.929 . S
H958 C972 0.930 . S
H959 C974 0.960 . S
H960 C974 0.960 . S
H961 C974 0.960 . S
C962 H954 0.929 . S
C962 C963 1.377 . S
C962 C964 1.384 . S
C963 C962 1.377 . S
C963 C969 1.390 . S
C964 H955 0.930 . S
C964 C962 1.384 . S
C964 C965 1.372 . S
C965 C964 1.372 . S
C965 C966 1.400 . S
C965 C970 1.490 . S
C966 H956 0.930 . S
C966 C965 1.400 . S
C966 C969 1.386 . S
H967 C983 0.930 . S
H968 C984 0.931 . S
C969 H957 0.929 . S
C969 C963 1.390 . S
C969 C966 1.386 . S
C970 C965 1.490 . S
C970 C972 1.395 . S
C970 C973 1.403 . S
H971 C977 0.930 . S
C972 H958 0.930 . S
C972 C970 1.395 . S
C972 C975 1.403 . S
C973 C970 1.403 . S
C973 C974 1.524 . S
C973 C977 1.400 . S
C974 H959 0.960 . S
C974 H960 0.960 . S
C974 H961 0.960 . S
C974 C973 1.524 . S
C975 C972 1.403 . S
C975 C976 1.392 . S
C975 C979 1.495 1_554 S
C976 C975 1.392 . S
C976 C977 1.385 . S
C976 C978 1.478 . S
C977 H971 0.930 . S
C977 C973 1.400 . S
C977 C976 1.385 . S
C978 C976 1.478 . S
C978 C980 1.381 1_554 S
C978 C984 1.383 . S
C979 C975 1.495 1_556 S
C979 H985 0.959 . S
C979 H986 0.961 . S
C979 H987 0.960 . S
C980 C978 1.381 1_556 S
C980 C981 1.394 . S
C980 H988 0.930 . S
C981 C980 1.394 . S
C981 C982 1.383 . S
C981 H989 0.929 . S
C982 C981 1.383 . S
C982 C983 1.377 1_556 S
C983 H967 0.930 . S
C983 C982 1.377 1_554 S
C983 C984 1.379 . S
C984 H968 0.931 . S
C984 C978 1.383 . S
C984 C983 1.379 . S
H985 C979 0.959 . S
H986 C979 0.961 . S
H987 C979 0.960 . S
H988 C980 0.930 . S
H989 C981 0.929 . S
H990 C998 0.929 . S
H991 C1000 0.930 . S
H992 C1002 0.930 . S
H993 C1005 0.929 . S
H994 C1008 0.930 . S
H995 C1010 0.960 . S
H996 C1010 0.960 . S
H997 C1010 0.960 . S
C998 H990 0.929 . S
C998 C999 1.377 . S
C998 C1000 1.384 . S
C999 C998 1.377 . S
C999 C1005 1.390 . S
C1000 H991 0.930 . S
C1000 C998 1.384 . S
C1000 C1001 1.372 . S
C1001 C1000 1.372 . S
C1001 C1002 1.400 . S
C1001 C1006 1.490 . S
C1002 H992 0.930 . S
C1002 C1001 1.400 . S
C1002 C1005 1.386 . S
H1003 C1019 0.930 . S
H1004 C1020 0.931 . S
C1005 H993 0.929 . S
C1005 C999 1.390 . S
C1005 C1002 1.386 . S
C1006 C1001 1.490 . S
C1006 C1008 1.395 . S
C1006 C1009 1.403 . S
H1007 C1013 0.930 . S
C1008 H994 0.930 . S
C1008 C1006 1.395 . S
C1008 C1011 1.403 . S
C1009 C1006 1.403 . S
C1009 C1010 1.524 . S
C1009 C1013 1.400 . S
C1010 H995 0.960 . S
C1010 H996 0.960 . S
C1010 H997 0.960 . S
C1010 C1009 1.524 . S
C1011 C1008 1.403 . S
C1011 C1012 1.392 . S
C1011 C1015 1.495 . S
C1012 C1011 1.392 . S
C1012 C1013 1.385 . S
C1012 C1014 1.478 . S
C1013 H1007 0.930 . S
C1013 C1009 1.400 . S
C1013 C1012 1.385 . S
C1014 C1012 1.478 . S
C1014 C1016 1.381 . S
C1014 C1020 1.383 1_554 S
C1015 C1011 1.495 . S
C1015 H1021 0.959 . S
C1015 H1022 0.961 . S
C1015 H1023 0.960 . S
C1016 C1014 1.381 . S
C1016 C1017 1.394 . S
C1016 H1024 0.930 . S
C1017 C1016 1.394 . S
C1017 C1018 1.383 1_554 S
C1017 H1025 0.929 . S
C1018 C1017 1.383 1_556 S
C1018 C1019 1.377 . S
C1019 H1003 0.930 . S
C1019 C1018 1.377 . S
C1019 C1020 1.379 . S
C1020 H1004 0.931 . S
C1020 C1014 1.383 1_556 S
C1020 C1019 1.379 . S
H1021 C1015 0.959 . S
H1022 C1015 0.961 . S
H1023 C1015 0.960 . S
H1024 C1016 0.930 . S
H1025 C1017 0.929 . S
H1026 C1034 0.929 . S
H1027 C1036 0.930 . S
H1028 C1038 0.930 . S
H1029 C1041 0.929 . S
H1030 C1044 0.930 . S
H1031 C1046 0.960 . S
H1032 C1046 0.960 . S
H1033 C1046 0.960 . S
C1034 H1026 0.929 . S
C1034 C1035 1.377 . S
C1034 C1036 1.384 . S
C1035 C1034 1.377 . S
C1035 C1041 1.390 . S
C1036 H1027 0.930 . S
C1036 C1034 1.384 . S
C1036 C1037 1.372 . S
C1037 C1036 1.372 . S
C1037 C1038 1.400 . S
C1037 C1042 1.490 . S
C1038 H1028 0.930 . S
C1038 C1037 1.400 . S
C1038 C1041 1.386 . S
H1039 C1055 0.930 . S
H1040 C1056 0.931 . S
C1041 H1029 0.929 . S
C1041 C1035 1.390 . S
C1041 C1038 1.386 . S
C1042 C1037 1.490 . S
C1042 C1044 1.395 . S
C1042 C1045 1.403 . S
H1043 C1049 0.930 . S
C1044 H1030 0.930 . S
C1044 C1042 1.395 . S
C1044 C1047 1.403 . S
C1045 C1042 1.403 . S
C1045 C1046 1.524 . S
C1045 C1049 1.400 . S
C1046 H1031 0.960 . S
C1046 H1032 0.960 . S
C1046 H1033 0.960 . S
C1046 C1045 1.524 . S
C1047 C1044 1.403 . S
C1047 C1048 1.392 . S
C1047 C1051 1.495 1_556 S
C1048 C1047 1.392 . S
C1048 C1049 1.385 . S
C1048 C1050 1.478 . S
C1049 H1043 0.930 . S
C1049 C1045 1.400 . S
C1049 C1048 1.385 . S
C1050 C1048 1.478 . S
C1050 C1052 1.381 1_556 S
C1050 C1056 1.383 . S
C1051 C1047 1.495 1_554 S
C1051 H1057 0.959 . S
C1051 H1058 0.961 . S
C1051 H1059 0.960 . S
C1052 C1050 1.381 1_554 S
C1052 C1053 1.394 . S
C1052 H1060 0.930 . S
C1053 C1052 1.394 . S
C1053 C1054 1.383 . S
C1053 H1061 0.929 . S
C1054 C1053 1.383 . S
C1054 C1055 1.372 1_554 S
C1055 H1039 0.930 . S
C1055 C1054 1.372 1_556 S
C1055 C1056 1.383 . S
C1056 H1040 0.931 . S
C1056 C1050 1.383 . S
C1056 C1055 1.383 . S
H1057 C1051 0.959 . S
H1058 C1051 0.961 . S
H1059 C1051 0.960 . S
H1060 C1052 0.930 . S
H1061 C1053 0.929 . S
H1062 C1070 0.929 . S
H1063 C1072 0.930 . S
H1064 C1074 0.930 . S
H1065 C1077 0.929 . S
H1066 C1080 0.930 . S
H1067 C1082 0.960 . S
H1068 C1082 0.960 . S
H1069 C1082 0.960 . S
C1070 H1062 0.929 . S
C1070 C1071 1.377 . S
C1070 C1072 1.384 . S
C1071 C1070 1.377 . S
C1071 C1077 1.390 . S
C1072 H1063 0.930 . S
C1072 C1070 1.384 . S
C1072 C1073 1.372 . S
C1073 C1072 1.372 . S
C1073 C1074 1.400 . S
C1073 C1078 1.490 . S
C1074 H1064 0.930 . S
C1074 C1073 1.400 . S
C1074 C1077 1.386 . S
H1075 C1091 0.930 . S
H1076 C1092 0.931 . S
C1077 H1065 0.929 . S
C1077 C1071 1.390 . S
C1077 C1074 1.386 . S
C1078 C1073 1.490 . S
C1078 C1080 1.395 . S
C1078 C1081 1.403 . S
H1079 C1085 0.930 . S
C1080 H1066 0.930 . S
C1080 C1078 1.395 . S
C1080 C1083 1.403 . S
C1081 C1078 1.403 . S
C1081 C1082 1.524 . S
C1081 C1085 1.400 . S
C1082 H1067 0.960 . S
C1082 H1068 0.960 . S
C1082 H1069 0.960 . S
C1082 C1081 1.524 . S
C1083 C1080 1.403 . S
C1083 C1084 1.392 . S
C1083 C1087 1.495 1_556 S
C1084 C1083 1.392 . S
C1084 C1085 1.385 . S
C1084 C1086 1.478 . S
C1085 H1079 0.930 . S
C1085 C1081 1.400 . S
C1085 C1084 1.385 . S
C1086 C1084 1.478 . S
C1086 C1088 1.381 . S
C1086 C1092 1.383 . S
C1087 C1083 1.495 1_554 S
C1087 H1093 0.959 . S
C1087 H1094 0.961 . S
C1087 H1095 0.960 . S
C1088 C1086 1.381 . S
C1088 C1089 1.394 1_556 S
C1088 H1096 0.930 . S
C1089 C1088 1.394 1_554 S
C1089 C1090 1.383 . S
C1089 H1097 0.929 . S
C1090 C1089 1.383 . S
C1090 C1091 1.377 . S
C1091 H1075 0.930 . S
C1091 C1090 1.377 . S
C1091 C1092 1.379 1_554 S
C1092 H1076 0.931 . S
C1092 C1086 1.383 . S
C1092 C1091 1.379 1_556 S
H1093 C1087 0.959 . S
H1094 C1087 0.961 . S
H1095 C1087 0.960 . S
H1096 C1088 0.930 . S
H1097 C1089 0.929 . S
H1098 C1106 0.929 . S
H1099 C1108 0.930 . S
H1100 C1110 0.930 . S
H1101 C1113 0.929 . S
H1102 C1116 0.930 . S
H1103 C1118 0.960 . S
H1104 C1118 0.960 . S
H1105 C1118 0.960 . S
C1106 H1098 0.929 . S
C1106 C1107 1.377 . S
C1106 C1108 1.384 . S
C1107 C1106 1.377 . S
C1107 C1113 1.390 1_554 S
C1108 H1099 0.930 . S
C1108 C1106 1.384 . S
C1108 C1109 1.372 1_554 S
C1109 C1108 1.372 1_556 S
C1109 C1110 1.400 . S
C1109 C1114 1.490 . S
C1110 H1100 0.930 . S
C1110 C1109 1.400 . S
C1110 C1113 1.386 . S
H1111 C1127 0.930 . S
H1112 C1128 0.931 . S
C1113 H1101 0.929 . S
C1113 C1107 1.390 1_556 S
C1113 C1110 1.386 . S
C1114 C1109 1.490 . S
C1114 C1116 1.395 . S
C1114 C1117 1.403 . S
H1115 C1121 0.930 . S
C1116 H1102 0.930 . S
C1116 C1114 1.395 . S
C1116 C1119 1.403 . S
C1117 C1114 1.403 . S
C1117 C1118 1.524 . S
C1117 C1121 1.400 . S
C1118 H1103 0.960 . S
C1118 H1104 0.960 . S
C1118 H1105 0.960 . S
C1118 C1117 1.524 . S
C1119 C1116 1.403 . S
C1119 C1120 1.392 . S
C1119 C1123 1.495 . S
C1120 C1119 1.392 . S
C1120 C1121 1.385 . S
C1120 C1122 1.478 . S
C1121 H1115 0.930 . S
C1121 C1117 1.400 . S
C1121 C1120 1.385 . S
C1122 C1120 1.478 . S
C1122 C1124 1.381 . S
C1122 C1128 1.383 . S
C1123 C1119 1.495 . S
C1123 H1129 0.959 . S
C1123 H1130 0.961 . S
C1123 H1131 0.960 . S
C1124 C1122 1.381 . S
C1124 C1125 1.394 . S
C1124 H1132 0.930 . S
C1125 C1124 1.394 . S
C1125 C1126 1.383 . S
C1125 H1133 0.929 . S
C1126 C1125 1.383 . S
C1126 C1127 1.377 . S
C1127 H1111 0.930 . S
C1127 C1126 1.377 . S
C1127 C1128 1.379 . S
C1128 H1112 0.931 . S
C1128 C1122 1.383 . S
C1128 C1127 1.379 . S
H1129 C1123 0.959 . S
H1130 C1123 0.961 . S
H1131 C1123 0.960 . S
H1132 C1124 0.930 . S
H1133 C1125 0.929 . S
H1134 C1142 0.929 1_455 S
H1135 C1144 0.930 . S
H1136 C1146 0.930 . S
H1137 C1149 0.929 . S
H1138 C1152 0.930 . S
H1139 C1154 0.960 . S
H1140 C1154 0.960 . S
H1141 C1154 0.960 . S
C1142 H1134 0.929 1_655 S
C1142 C1143 1.377 . S
C1142 C1144 1.384 1_655 S
C1143 C1142 1.377 . S
C1143 C1149 1.390 . S
C1144 H1135 0.930 . S
C1144 C1142 1.384 1_455 S
C1144 C1145 1.372 . S
C1145 C1144 1.372 . S
C1145 C1146 1.400 1_455 S
C1145 C1150 1.490 . S
C1146 H1136 0.930 . S
C1146 C1145 1.400 1_655 S
C1146 C1149 1.386 . S
H1147 C1163 0.930 . S
H1148 C1164 0.931 . S
C1149 H1137 0.929 . S
C1149 C1143 1.390 . S
C1149 C1146 1.386 . S
C1150 C1145 1.490 . S
C1150 C1152 1.395 . S
C1150 C1153 1.403 . S
H1151 C1157 0.930 . S
C1152 H1138 0.930 . S
C1152 C1150 1.395 . S
C1152 C1155 1.403 . S
C1153 C1150 1.403 . S
C1153 C1154 1.524 . S
C1153 C1157 1.400 . S
C1154 H1139 0.960 . S
C1154 H1140 0.960 . S
C1154 H1141 0.960 . S
C1154 C1153 1.524 . S
C1155 C1152 1.403 . S
C1155 C1156 1.392 . S
C1155 C1159 1.495 . S
C1156 C1155 1.392 . S
C1156 C1157 1.385 . S
C1156 C1158 1.478 . S
C1157 H1151 0.930 . S
C1157 C1153 1.400 . S
C1157 C1156 1.385 . S
C1158 C1156 1.478 . S
C1158 C1160 1.381 . S
C1158 C1164 1.383 . S
C1159 C1155 1.495 . S
C1159 H1165 0.959 . S
C1159 H1166 0.961 . S
C1159 H1167 0.960 . S
C1160 C1158 1.381 . S
C1160 C1161 1.394 . S
C1160 H1168 0.930 . S
C1161 C1160 1.394 . S
C1161 C1162 1.383 . S
C1161 H1169 0.929 . S
C1162 C1161 1.383 . S
C1162 C1163 1.377 . S
C1163 H1147 0.930 . S
C1163 C1162 1.377 . S
C1163 C1164 1.379 . S
C1164 H1148 0.931 . S
C1164 C1158 1.383 . S
C1164 C1163 1.379 . S
H1165 C1159 0.959 . S
H1166 C1159 0.961 . S
H1167 C1159 0.960 . S
H1168 C1160 0.930 . S
H1169 C1161 0.929 . S
H1170 C1178 0.929 . S
H1171 C1180 0.930 . S
H1172 C1182 0.930 . S
H1173 C1185 0.929 . S
H1174 C1188 0.930 . S
H1175 C1190 0.960 . S
H1176 C1190 0.960 . S
H1177 C1190 0.960 . S
C1178 H1170 0.929 . S
C1178 C1179 1.377 . S
C1178 C1180 1.384 . S
C1179 C1178 1.377 . S
C1179 C1185 1.390 . S
C1180 H1171 0.930 . S
C1180 C1178 1.384 . S
C1180 C1181 1.372 . S
C1181 C1180 1.372 . S
C1181 C1182 1.400 . S
C1181 C1186 1.490 . S
C1182 H1172 0.930 . S
C1182 C1181 1.400 . S
C1182 C1185 1.386 . S
H1183 C1199 0.930 . S
H1184 C1200 0.931 . S
C1185 H1173 0.929 . S
C1185 C1179 1.390 . S
C1185 C1182 1.386 . S
C1186 C1181 1.490 . S
C1186 C1188 1.395 . S
C1186 C1189 1.403 . S
H1187 C1193 0.930 . S
C1188 H1174 0.930 . S
C1188 C1186 1.395 . S
C1188 C1191 1.403 . S
C1189 C1186 1.403 . S
C1189 C1190 1.524 . S
C1189 C1193 1.400 . S
C1190 H1175 0.960 . S
C1190 H1176 0.960 . S
C1190 H1177 0.960 . S
C1190 C1189 1.524 . S
C1191 C1188 1.403 . S
C1191 C1192 1.392 . S
C1191 C1195 1.495 . S
C1192 C1191 1.392 . S
C1192 C1193 1.385 . S
C1192 C1194 1.478 . S
C1193 H1187 0.930 . S
C1193 C1189 1.400 . S
C1193 C1192 1.385 . S
C1194 C1192 1.478 . S
C1194 C1196 1.381 . S
C1194 C1200 1.383 . S
C1195 C1191 1.495 . S
C1195 H1201 0.959 . S
C1195 H1202 0.961 . S
C1195 H1203 0.960 . S
C1196 C1194 1.381 . S
C1196 C1197 1.394 . S
C1196 H1204 0.930 . S
C1197 C1196 1.394 . S
C1197 C1198 1.383 . S
C1197 H1205 0.929 . S
C1198 C1197 1.383 . S
C1198 C1199 1.377 . S
C1199 H1183 0.930 . S
C1199 C1198 1.377 . S
C1199 C1200 1.379 . S
C1200 H1184 0.931 . S
C1200 C1194 1.383 . S
C1200 C1199 1.379 . S
H1201 C1195 0.959 . S
H1202 C1195 0.961 . S
H1203 C1195 0.960 . S
H1204 C1196 0.930 . S
H1205 C1197 0.929 . S
H1206 C1214 0.929 . S
H1207 C1216 0.930 . S
H1208 C1218 0.930 . S
H1209 C1221 0.929 . S
H1210 C1224 0.930 . S
H1211 C1226 0.960 . S
H1212 C1226 0.960 . S
H1213 C1226 0.960 . S
C1214 H1206 0.929 . S
C1214 C1215 1.377 . S
C1214 C1216 1.384 . S
C1215 C1214 1.377 . S
C1215 C1221 1.390 . S
C1216 H1207 0.930 . S
C1216 C1214 1.384 . S
C1216 C1217 1.372 . S
C1217 C1216 1.372 . S
C1217 C1218 1.400 . S
C1217 C1222 1.490 . S
C1218 H1208 0.930 . S
C1218 C1217 1.400 . S
C1218 C1221 1.386 . S
H1219 C1235 0.930 . S
H1220 C1236 0.931 . S
C1221 H1209 0.929 . S
C1221 C1215 1.390 . S
C1221 C1218 1.386 . S
C1222 C1217 1.490 . S
C1222 C1224 1.395 . S
C1222 C1225 1.403 . S
H1223 C1229 0.930 . S
C1224 H1210 0.930 . S
C1224 C1222 1.395 . S
C1224 C1227 1.403 . S
C1225 C1222 1.403 . S
C1225 C1226 1.524 . S
C1225 C1229 1.400 . S
C1226 H1211 0.960 . S
C1226 H1212 0.960 . S
C1226 H1213 0.960 . S
C1226 C1225 1.524 . S
C1227 C1224 1.403 . S
C1227 C1228 1.392 . S
C1227 C1231 1.495 . S
C1228 C1227 1.392 . S
C1228 C1229 1.385 . S
C1228 C1230 1.478 . S
C1229 H1223 0.930 . S
C1229 C1225 1.400 . S
C1229 C1228 1.385 . S
C1230 C1228 1.478 . S
C1230 C1232 1.381 . S
C1230 C1236 1.383 . S
C1231 C1227 1.495 . S
C1231 H1237 0.959 . S
C1231 H1238 0.961 1_565 S
C1231 H1239 0.960 . S
C1232 C1230 1.381 . S
C1232 C1233 1.394 1_565 S
C1232 H1240 0.930 . S
C1233 C1232 1.394 1_545 S
C1233 C1234 1.383 . S
C1233 H1241 0.929 . S
C1234 C1233 1.383 . S
C1234 C1235 1.377 . S
C1235 H1219 0.930 . S
C1235 C1234 1.377 . S
C1235 C1236 1.379 1_545 S
C1236 H1220 0.931 . S
C1236 C1230 1.383 . S
C1236 C1235 1.379 1_565 S
H1237 C1231 0.959 . S
H1238 C1231 0.961 1_545 S
H1239 C1231 0.960 . S
H1240 C1232 0.930 . S
H1241 C1233 0.929 . S
H1242 C1250 0.929 . S
H1243 C1252 0.930 . S
H1244 C1254 0.930 . S
H1245 C1257 0.929 . S
H1246 C1260 0.930 . S
H1247 C1262 0.960 . S
H1248 C1262 0.960 . S
H1249 C1262 0.960 . S
C1250 H1242 0.929 . S
C1250 C1251 1.377 . S
C1250 C1252 1.384 . S
C1251 C1250 1.377 . S
C1251 C1257 1.390 . S
C1252 H1243 0.930 . S
C1252 C1250 1.384 . S
C1252 C1253 1.372 . S
C1253 C1252 1.372 . S
C1253 C1254 1.400 . S
C1253 C1258 1.490 . S
C1254 H1244 0.930 . S
C1254 C1253 1.400 . S
C1254 C1257 1.386 . S
H1255 C1271 0.930 . S
H1256 C1272 0.931 . S
C1257 H1245 0.929 . S
C1257 C1251 1.390 . S
C1257 C1254 1.386 . S
C1258 C1253 1.490 . S
C1258 C1260 1.395 . S
C1258 C1261 1.403 . S
H1259 C1265 0.930 . S
C1260 H1246 0.930 . S
C1260 C1258 1.395 . S
C1260 C1263 1.403 . S
C1261 C1258 1.403 . S
C1261 C1262 1.524 . S
C1261 C1265 1.400 . S
C1262 H1247 0.960 . S
C1262 H1248 0.960 . S
C1262 H1249 0.960 . S
C1262 C1261 1.524 . S
C1263 C1260 1.403 . S
C1263 C1264 1.392 . S
C1263 C1267 1.495 . S
C1264 C1263 1.392 . S
C1264 C1265 1.385 . S
C1264 C1266 1.478 . S
C1265 H1259 0.930 . S
C1265 C1261 1.400 . S
C1265 C1264 1.385 . S
C1266 C1264 1.478 . S
C1266 C1268 1.381 . S
C1266 C1272 1.383 . S
C1267 C1263 1.495 . S
C1267 H1273 0.959 . S
C1267 H1274 0.961 . S
C1267 H1275 0.960 . S
C1268 C1266 1.381 . S
C1268 C1269 1.394 . S
C1268 H1276 0.930 . S
C1269 C1268 1.394 . S
C1269 C1270 1.383 . S
C1269 H1277 0.929 . S
C1270 C1269 1.383 . S
C1270 C1271 1.377 . S
C1271 H1255 0.930 . S
C1271 C1270 1.377 . S
C1271 C1272 1.379 . S
C1272 H1256 0.931 . S
C1272 C1266 1.383 . S
C1272 C1271 1.379 . S
H1273 C1267 0.959 . S
H1274 C1267 0.961 . S
H1275 C1267 0.960 . S
H1276 C1268 0.930 . S
H1277 C1269 0.929 . S
H1278 C1286 0.929 . S
H1279 C1288 0.930 . S
H1280 C1290 0.930 . S
H1281 C1293 0.929 . S
H1282 C1296 0.930 . S
H1283 C1298 0.960 . S
H1284 C1298 0.960 . S
H1285 C1298 0.960 . S
C1286 H1278 0.929 . S
C1286 C1287 1.377 . S
C1286 C1288 1.384 . S
C1287 C1286 1.377 . S
C1287 C1293 1.390 . S
C1288 H1279 0.930 . S
C1288 C1286 1.384 . S
C1288 C1289 1.372 . S
C1289 C1288 1.372 . S
C1289 C1290 1.400 . S
C1289 C1294 1.490 . S
C1290 H1280 0.930 . S
C1290 C1289 1.400 . S
C1290 C1293 1.386 . S
H1291 C1307 0.930 . S
H1292 C1308 0.931 . S
C1293 H1281 0.929 . S
C1293 C1287 1.390 . S
C1293 C1290 1.386 . S
C1294 C1289 1.490 . S
C1294 C1296 1.395 . S
C1294 C1297 1.403 . S
H1295 C1301 0.930 . S
C1296 H1282 0.930 . S
C1296 C1294 1.395 . S
C1296 C1299 1.403 . S
C1297 C1294 1.403 . S
C1297 C1298 1.524 . S
C1297 C1301 1.400 . S
C1298 H1283 0.960 . S
C1298 H1284 0.960 . S
C1298 H1285 0.960 . S
C1298 C1297 1.524 . S
C1299 C1296 1.403 . S
C1299 C1300 1.392 . S
C1299 C1303 1.495 . S
C1300 C1299 1.392 . S
C1300 C1301 1.385 . S
C1300 C1302 1.478 . S
C1301 H1295 0.930 . S
C1301 C1297 1.400 . S
C1301 C1300 1.385 . S
C1302 C1300 1.478 . S
C1302 C1304 1.381 . S
C1302 C1308 1.383 . S
C1303 C1299 1.495 . S
C1303 H1309 0.959 . S
C1303 H1310 0.961 . S
C1303 H1311 0.960 . S
C1304 C1302 1.381 . S
C1304 C1305 1.394 . S
C1304 H1312 0.930 . S
C1305 C1304 1.394 . S
C1305 C1306 1.383 . S
C1305 H1313 0.929 . S
C1306 C1305 1.383 . S
C1306 C1307 1.377 . S
C1307 H1291 0.930 . S
C1307 C1306 1.377 . S
C1307 C1308 1.379 . S
C1308 H1292 0.931 . S
C1308 C1302 1.383 . S
C1308 C1307 1.379 . S
H1309 C1303 0.959 . S
H1310 C1303 0.961 . S
H1311 C1303 0.960 . S
H1312 C1304 0.930 . S
H1313 C1305 0.929 . S
H1314 C1322 0.929 . S
H1315 C1324 0.930 . S
H1316 C1326 0.930 . S
H1317 C1329 0.929 . S
H1318 C1332 0.930 . S
H1319 C1334 0.960 . S
H1320 C1334 0.960 . S
H1321 C1334 0.960 . S
C1322 H1314 0.929 . S
C1322 C1323 1.377 . S
C1322 C1324 1.384 . S
C1323 C1322 1.377 . S
C1323 C1329 1.390 . S
C1324 H1315 0.930 . S
C1324 C1322 1.384 . S
C1324 C1325 1.372 . S
C1325 C1324 1.372 . S
C1325 C1326 1.400 . S
C1325 C1330 1.490 . S
C1326 H1316 0.930 . S
C1326 C1325 1.400 . S
C1326 C1329 1.386 . S
H1327 C1343 0.930 . S
H1328 C1344 0.931 . S
C1329 H1317 0.929 . S
C1329 C1323 1.390 . S
C1329 C1326 1.386 . S
C1330 C1325 1.490 . S
C1330 C1332 1.395 . S
C1330 C1333 1.403 . S
H1331 C1337 0.930 . S
C1332 H1318 0.930 . S
C1332 C1330 1.395 . S
C1332 C1335 1.403 . S
C1333 C1330 1.403 . S
C1333 C1334 1.524 . S
C1333 C1337 1.400 . S
C1334 H1319 0.960 . S
C1334 H1320 0.960 . S
C1334 H1321 0.960 . S
C1334 C1333 1.524 . S
C1335 C1332 1.403 . S
C1335 C1336 1.392 . S
C1335 C1339 1.495 . S
C1336 C1335 1.392 . S
C1336 C1337 1.385 . S
C1336 C1338 1.478 . S
C1337 H1331 0.930 . S
C1337 C1333 1.400 . S
C1337 C1336 1.385 . S
C1338 C1336 1.478 . S
C1338 C1340 1.381 . S
C1338 C1344 1.383 . S
C1339 C1335 1.495 . S
C1339 H1345 0.959 . S
C1339 H1346 0.961 . S
C1339 H1347 0.960 . S
C1340 C1338 1.381 . S
C1340 C1341 1.394 . S
C1340 H1348 0.930 . S
C1341 C1340 1.394 . S
C1341 C1342 1.383 . S
C1341 H1349 0.929 . S
C1342 C1341 1.383 . S
C1342 C1343 1.377 . S
C1343 H1327 0.930 . S
C1343 C1342 1.377 . S
C1343 C1344 1.379 . S
C1344 H1328 0.931 . S
C1344 C1338 1.383 . S
C1344 C1343 1.379 . S
H1345 C1339 0.959 . S
H1346 C1339 0.961 . S
H1347 C1339 0.960 . S
H1348 C1340 0.930 . S
H1349 C1341 0.929 . S
H1350 C1358 0.929 . S
H1351 C1360 0.930 . S
H1352 C1362 0.930 . S
H1353 C1365 0.929 . S
H1354 C1368 0.930 . S
H1355 C1370 0.960 . S
H1356 C1370 0.960 . S
H1357 C1370 0.960 . S
C1358 H1350 0.929 . S
C1358 C1359 1.377 . S
C1358 C1360 1.384 . S
C1359 C1358 1.377 . S
C1359 C1365 1.390 . S
C1360 H1351 0.930 . S
C1360 C1358 1.384 . S
C1360 C1361 1.372 . S
C1361 C1360 1.372 . S
C1361 C1362 1.400 . S
C1361 C1366 1.490 . S
C1362 H1352 0.930 . S
C1362 C1361 1.400 . S
C1362 C1365 1.386 . S
H1363 C1379 0.930 . S
H1364 C1380 0.931 . S
C1365 H1353 0.929 . S
C1365 C1359 1.390 . S
C1365 C1362 1.386 . S
C1366 C1361 1.490 . S
C1366 C1368 1.395 . S
C1366 C1369 1.403 . S
H1367 C1373 0.930 . S
C1368 H1354 0.930 . S
C1368 C1366 1.395 . S
C1368 C1371 1.403 . S
C1369 C1366 1.403 . S
C1369 C1370 1.524 . S
C1369 C1373 1.400 . S
C1370 H1355 0.960 . S
C1370 H1356 0.960 . S
C1370 H1357 0.960 . S
C1370 C1369 1.524 . S
C1371 C1368 1.403 . S
C1371 C1372 1.392 . S
C1371 C1375 1.495 . S
C1372 C1371 1.392 . S
C1372 C1373 1.385 . S
C1372 C1374 1.478 . S
C1373 H1367 0.930 . S
C1373 C1369 1.400 . S
C1373 C1372 1.385 . S
C1374 C1372 1.478 . S
C1374 C1376 1.381 . S
C1374 C1380 1.383 . S
C1375 C1371 1.495 . S
C1375 H1381 0.959 . S
C1375 H1382 0.961 . S
C1375 H1383 0.960 . S
C1376 C1374 1.381 . S
C1376 C1377 1.394 . S
C1376 H1384 0.930 . S
C1377 C1376 1.394 . S
C1377 C1378 1.383 . S
C1377 H1385 0.929 . S
C1378 C1377 1.383 . S
C1378 C1379 1.377 . S
C1379 H1363 0.930 . S
C1379 C1378 1.377 . S
C1379 C1380 1.379 . S
C1380 H1364 0.931 . S
C1380 C1374 1.383 . S
C1380 C1379 1.379 . S
H1381 C1375 0.959 . S
H1382 C1375 0.961 . S
H1383 C1375 0.960 . S
H1384 C1376 0.930 . S
H1385 C1377 0.929 . S
H1386 C1394 0.929 . S
H1387 C1396 0.930 . S
H1388 C1398 0.930 . S
H1389 C1401 0.929 . S
H1390 C1404 0.930 . S
H1391 C1406 0.960 . S
H1392 C1406 0.960 . S
H1393 C1406 0.960 . S
C1394 H1386 0.929 . S
C1394 C1395 1.377 . S
C1394 C1396 1.384 . S
C1395 C1394 1.377 . S
C1395 C1401 1.390 . S
C1396 H1387 0.930 . S
C1396 C1394 1.384 . S
C1396 C1397 1.372 . S
C1397 C1396 1.372 . S
C1397 C1398 1.400 . S
C1397 C1402 1.490 . S
C1398 H1388 0.930 . S
C1398 C1397 1.400 . S
C1398 C1401 1.386 . S
H1399 C1415 0.930 . S
H1400 C1416 0.931 . S
C1401 H1389 0.929 . S
C1401 C1395 1.390 . S
C1401 C1398 1.386 . S
C1402 C1397 1.490 . S
C1402 C1404 1.395 . S
C1402 C1405 1.403 . S
H1403 C1409 0.930 . S
C1404 H1390 0.930 . S
C1404 C1402 1.395 . S
C1404 C1407 1.403 . S
C1405 C1402 1.403 . S
C1405 C1406 1.524 . S
C1405 C1409 1.400 . S
C1406 H1391 0.960 . S
C1406 H1392 0.960 . S
C1406 H1393 0.960 . S
C1406 C1405 1.524 . S
C1407 C1404 1.403 . S
C1407 C1408 1.392 . S
C1407 C1411 1.495 . S
C1408 C1407 1.392 . S
C1408 C1409 1.385 . S
C1408 C1410 1.478 . S
C1409 H1403 0.930 . S
C1409 C1405 1.400 . S
C1409 C1408 1.385 . S
C1410 C1408 1.478 . S
C1410 C1412 1.381 . S
C1410 C1416 1.383 . S
C1411 C1407 1.495 . S
C1411 H1417 0.959 . S
C1411 H1418 0.961 . S
C1411 H1419 0.960 . S
C1412 C1410 1.381 . S
C1412 C1413 1.394 . S
C1412 H1420 0.930 . S
C1413 C1412 1.394 . S
C1413 C1414 1.383 . S
C1413 H1421 0.929 . S
C1414 C1413 1.383 . S
C1414 C1415 1.377 . S
C1415 H1399 0.930 . S
C1415 C1414 1.377 . S
C1415 C1416 1.379 . S
C1416 H1400 0.931 . S
C1416 C1410 1.383 . S
C1416 C1415 1.379 . S
H1417 C1411 0.959 . S
H1418 C1411 0.961 . S
H1419 C1411 0.960 . S
H1420 C1412 0.930 . S
H1421 C1413 0.929 . S
H1422 C1430 0.929 . S
H1423 C1432 0.930 . S
H1424 C1434 0.930 . S
H1425 C1437 0.929 . S
H1426 C1440 0.930 . S
H1427 C1442 0.960 . S
H1428 C1442 0.960 . S
H1429 C1442 0.960 . S
C1430 H1422 0.929 . S
C1430 C1431 1.377 . S
C1430 C1432 1.384 . S
C1431 C1430 1.377 . S
C1431 C1437 1.390 . S
C1432 H1423 0.930 . S
C1432 C1430 1.384 . S
C1432 C1433 1.372 . S
C1433 C1432 1.372 . S
C1433 C1434 1.400 . S
C1433 C1438 1.490 . S
C1434 H1424 0.930 . S
C1434 C1433 1.400 . S
C1434 C1437 1.386 . S
H1435 C1451 0.930 . S
H1436 C1452 0.931 . S
C1437 H1425 0.929 . S
C1437 C1431 1.390 . S
C1437 C1434 1.386 . S
C1438 C1433 1.490 . S
C1438 C1440 1.395 . S
C1438 C1441 1.403 . S
H1439 C1445 0.930 . S
C1440 H1426 0.930 . S
C1440 C1438 1.395 . S
C1440 C1443 1.403 . S
C1441 C1438 1.403 . S
C1441 C1442 1.524 . S
C1441 C1445 1.400 . S
C1442 H1427 0.960 . S
C1442 H1428 0.960 . S
C1442 H1429 0.960 . S
C1442 C1441 1.524 . S
C1443 C1440 1.403 . S
C1443 C1444 1.392 . S
C1443 C1447 1.495 . S
C1444 C1443 1.392 . S
C1444 C1445 1.385 . S
C1444 C1446 1.478 . S
C1445 H1439 0.930 . S
C1445 C1441 1.400 . S
C1445 C1444 1.385 . S
C1446 C1444 1.478 . S
C1446 C1448 1.381 . S
C1446 C1452 1.383 . S
C1447 C1443 1.495 . S
C1447 H1453 0.959 . S
C1447 H1454 0.961 . S
C1447 H1455 0.960 . S
C1448 C1446 1.381 . S
C1448 C1449 1.394 . S
C1448 H1456 0.930 . S
C1449 C1448 1.394 . S
C1449 C1450 1.383 . S
C1449 H1457 0.929 . S
C1450 C1449 1.383 . S
C1450 C1451 1.377 . S
C1451 H1435 0.930 . S
C1451 C1450 1.377 . S
C1451 C1452 1.379 . S
C1452 H1436 0.931 . S
C1452 C1446 1.383 . S
C1452 C1451 1.379 . S
H1453 C1447 0.959 . S
H1454 C1447 0.961 . S
H1455 C1447 0.960 . S
H1456 C1448 0.930 . S
H1457 C1449 0.929 . S
H1458 C1466 0.929 . S
H1459 C1468 0.930 . S
H1460 C1470 0.930 . S
H1461 C1473 0.929 . S
H1462 C1476 0.930 . S
H1463 C1478 0.960 . S
H1464 C1478 0.960 . S
H1465 C1478 0.960 . S
C1466 H1458 0.929 . S
C1466 C1467 1.377 . S
C1466 C1468 1.384 . S
C1467 C1466 1.377 . S
C1467 C1473 1.390 . S
C1468 H1459 0.930 . S
C1468 C1466 1.384 . S
C1468 C1469 1.372 . S
C1469 C1468 1.372 . S
C1469 C1470 1.400 . S
C1469 C1474 1.490 . S
C1470 H1460 0.930 . S
C1470 C1469 1.400 . S
C1470 C1473 1.386 . S
H1471 C1487 0.930 . S
H1472 C1488 0.931 . S
C1473 H1461 0.929 . S
C1473 C1467 1.390 . S
C1473 C1470 1.386 . S
C1474 C1469 1.490 . S
C1474 C1476 1.395 1_554 S
C1474 C1477 1.403 1_545 S
H1475 C1481 0.930 . S
C1476 H1462 0.930 . S
C1476 C1474 1.395 1_556 S
C1476 C1479 1.403 . S
C1477 C1474 1.403 1_565 S
C1477 C1478 1.524 . S
C1477 C1481 1.400 1_554 S
C1478 H1463 0.960 . S
C1478 H1464 0.960 . S
C1478 H1465 0.960 . S
C1478 C1477 1.524 . S
C1479 C1476 1.403 . S
C1479 C1480 1.392 1_545 S
C1479 C1483 1.495 . S
C1480 C1479 1.392 1_565 S
C1480 C1481 1.385 . S
C1480 C1482 1.478 . S
C1481 H1475 0.930 . S
C1481 C1477 1.400 1_556 S
C1481 C1480 1.385 . S
C1482 C1480 1.478 . S
C1482 C1484 1.381 . S
C1482 C1488 1.383 . S
C1483 C1479 1.495 . S
C1483 H1489 0.959 . S
C1483 H1490 0.961 . S
C1483 H1491 0.960 . S
C1484 C1482 1.381 . S
C1484 C1485 1.394 . S
C1484 H1492 0.930 . S
C1485 C1484 1.394 . S
C1485 C1486 1.383 . S
C1485 H1493 0.929 . S
C1486 C1485 1.383 . S
C1486 C1487 1.377 . S
C1487 H1471 0.930 . S
C1487 C1486 1.377 . S
C1487 C1488 1.379 . S
C1488 H1472 0.931 . S
C1488 C1482 1.383 . S
C1488 C1487 1.379 . S
H1489 C1483 0.959 . S
H1490 C1483 0.961 . S
H1491 C1483 0.960 . S
H1492 C1484 0.930 . S
H1493 C1485 0.929 . S
H1494 C1502 0.929 . S
H1495 C1504 0.930 . S
H1496 C1506 0.930 1_655 S
H1497 C1509 0.929 . S
H1498 C1512 0.930 . S
H1499 C1514 0.960 . S
H1500 C1514 0.949 1_455 S
H1501 C1514 0.969 . S
C1502 H1494 0.929 . S
C1502 C1503 1.377 . S
C1502 C1504 1.384 . S
C1503 C1502 1.377 . S
C1503 C1509 1.390 . S
C1504 H1495 0.930 . S
C1504 C1502 1.384 . S
C1504 C1505 1.372 . S
C1505 C1504 1.372 . S
C1505 C1506 1.400 . S
C1505 C1510 1.490 . S
C1506 H1496 0.930 1_455 S
C1506 C1505 1.400 . S
C1506 C1509 1.386 . S
H1507 C1523 0.930 . S
H1508 C1524 0.931 . S
C1509 H1497 0.929 . S
C1509 C1503 1.390 . S
C1509 C1506 1.386 . S
C1510 C1505 1.490 . S
C1510 C1512 1.395 1_556 S
C1510 C1513 1.401 . S
H1511 C1517 0.932 . S
C1512 H1498 0.930 . S
C1512 C1510 1.395 1_554 S
C1512 C1515 1.403 . S
C1513 C1510 1.401 . S
C1513 C1514 1.534 1_455 S
C1513 C1517 1.396 1_456 S
C1514 H1499 0.960 . S
C1514 H1500 0.949 1_655 S
C1514 H1501 0.969 . S
C1514 C1513 1.534 1_655 S
C1515 C1512 1.403 . S
C1515 C1516 1.392 1_455 S
C1515 C1519 1.495 . S
C1516 C1515 1.392 1_655 S
C1516 C1517 1.385 . S
C1516 C1518 1.478 . S
C1517 H1511 0.932 . S
C1517 C1513 1.396 1_654 S
C1517 C1516 1.385 . S
C1518 C1516 1.478 . S
C1518 C1520 1.381 . S
C1518 C1524 1.383 . S
C1519 C1515 1.495 . S
C1519 H1525 0.959 . S
C1519 H1526 0.961 1_455 S
C1519 H1527 0.960 . S
C1520 C1518 1.381 . S
C1520 C1521 1.394 . S
C1520 H1528 0.930 1_655 S
C1521 C1520 1.394 . S
C1521 C1522 1.383 . S
C1521 H1529 0.929 . S
C1522 C1521 1.383 . S
C1522 C1523 1.377 . S
C1523 H1507 0.930 . S
C1523 C1522 1.377 . S
C1523 C1524 1.379 . S
C1524 H1508 0.931 . S
C1524 C1518 1.383 . S
C1524 C1523 1.379 . S
H1525 C1519 0.959 . S
H1526 C1519 0.961 1_655 S
H1527 C1519 0.960 . S
H1528 C1520 0.930 1_455 S
H1529 C1521 0.929 . S
H1530 C1538 0.929 . S
H1531 C1540 0.930 . S
H1532 C1542 0.930 . S
H1533 C1545 0.929 . S
H1534 C1548 0.930 . S
H1535 C1550 0.960 . S
H1536 C1550 0.960 . S
H1537 C1550 0.960 1_556 S
C1538 H1530 0.929 . S
C1538 C1539 1.377 . S
C1538 C1540 1.384 . S
C1539 C1538 1.377 . S
C1539 C1545 1.390 . S
C1540 H1531 0.930 . S
C1540 C1538 1.384 . S
C1540 C1541 1.372 . S
C1541 C1540 1.372 . S
C1541 C1542 1.400 . S
C1541 C1546 1.490 . S
C1542 H1532 0.930 . S
C1542 C1541 1.400 . S
C1542 C1545 1.386 . S
H1543 C1559 0.930 . S
H1544 C1560 0.931 . S
C1545 H1533 0.929 . S
C1545 C1539 1.390 . S
C1545 C1542 1.386 . S
C1546 C1541 1.490 . S
C1546 C1548 1.395 . S
C1546 C1549 1.403 1_556 S
H1547 C1553 0.930 . S
C1548 H1534 0.930 . S
C1548 C1546 1.395 . S
C1548 C1551 1.403 . S
C1549 C1546 1.403 1_554 S
C1549 C1550 1.524 . S
C1549 C1553 1.400 . S
C1550 H1535 0.960 . S
C1550 H1536 0.960 . S
C1550 H1537 0.960 1_554 S
C1550 C1549 1.524 . S
C1551 C1548 1.403 . S
C1551 C1552 1.392 1_556 S
C1551 C1555 1.495 . S
C1552 C1551 1.392 1_554 S
C1552 C1553 1.385 . S
C1552 C1554 1.478 . S
C1553 H1547 0.930 . S
C1553 C1549 1.400 . S
C1553 C1552 1.385 . S
C1554 C1552 1.478 . S
C1554 C1556 1.381 . S
C1554 C1560 1.383 . S
C1555 C1551 1.495 . S
C1555 H1561 0.959 . S
C1555 H1562 0.961 . S
C1555 H1563 0.960 1_556 S
C1556 C1554 1.381 . S
C1556 C1557 1.394 . S
C1556 H1564 0.930 . S
C1557 C1556 1.394 . S
C1557 C1558 1.383 . S
C1557 H1565 0.929 . S
C1558 C1557 1.383 . S
C1558 C1559 1.377 . S
C1559 H1543 0.930 . S
C1559 C1558 1.377 . S
C1559 C1560 1.379 . S
C1560 H1544 0.931 . S
C1560 C1554 1.383 . S
C1560 C1559 1.379 . S
H1561 C1555 0.959 . S
H1562 C1555 0.961 . S
H1563 C1555 0.960 1_554 S
H1564 C1556 0.930 . S
H1565 C1557 0.929 . S
H1566 C1574 0.929 . S
H1567 C1576 0.930 . S
H1568 C1578 0.930 1_556 S
H1569 C1581 0.929 . S
H1570 C1584 0.930 . S
H1571 C1586 0.960 . S
H1572 C1586 0.960 . S
H1573 C1586 0.960 . S
C1574 H1566 0.929 . S
C1574 C1575 1.377 . S
C1574 C1576 1.384 . S
C1575 C1574 1.377 . S
C1575 C1581 1.390 . S
C1576 H1567 0.930 . S
C1576 C1574 1.384 . S
C1576 C1577 1.372 . S
C1577 C1576 1.372 . S
C1577 C1578 1.400 . S
C1577 C1582 1.490 1_554 S
C1578 H1568 0.930 1_554 S
C1578 C1577 1.400 . S
C1578 C1581 1.386 . S
H1579 C1595 0.930 . S
H1580 C1596 0.931 . S
C1581 H1569 0.929 . S
C1581 C1575 1.390 . S
C1581 C1578 1.386 . S
C1582 C1577 1.490 1_556 S
C1582 C1584 1.395 . S
C1582 C1585 1.403 1_556 S
H1583 C1589 0.930 . S
C1584 H1570 0.930 . S
C1584 C1582 1.395 . S
C1584 C1587 1.403 . S
C1585 C1582 1.403 1_554 S
C1585 C1586 1.524 . S
C1585 C1589 1.400 1_554 S
C1586 H1571 0.960 . S
C1586 H1572 0.960 . S
C1586 H1573 0.960 . S
C1586 C1585 1.524 . S
C1587 C1584 1.403 . S
C1587 C1588 1.392 . S
C1587 C1591 1.495 . S
C1588 C1587 1.392 . S
C1588 C1589 1.385 . S
C1588 C1590 1.478 . S
C1589 H1583 0.930 . S
C1589 C1585 1.400 1_556 S
C1589 C1588 1.385 . S
C1590 C1588 1.478 . S
C1590 C1592 1.381 . S
C1590 C1596 1.383 . S
C1591 C1587 1.495 . S
C1591 H1597 0.959 . S
C1591 H1598 0.961 . S
C1591 H1599 0.960 . S
C1592 C1590 1.381 . S
C1592 C1593 1.394 . S
C1592 H1600 0.930 . S
C1593 C1592 1.394 . S
C1593 C1594 1.383 . S
C1593 H1601 0.929 . S
C1594 C1593 1.383 . S
C1594 C1595 1.377 . S
C1595 H1579 0.930 . S
C1595 C1594 1.377 . S
C1595 C1596 1.379 . S
C1596 H1580 0.931 . S
C1596 C1590 1.383 . S
C1596 C1595 1.379 . S
H1597 C1591 0.959 . S
H1598 C1591 0.961 . S
H1599 C1591 0.960 . S
H1600 C1592 0.930 . S
H1601 C1593 0.929 . S
H1602 C1610 0.929 . S
H1603 C1612 0.930 . S
H1604 C1614 0.930 . S
H1605 C1617 0.929 . S
H1606 C1620 0.930 1_554 S
H1607 C1622 0.960 . S
H1608 C1622 0.960 . S
H1609 C1622 0.960 . S
C1610 H1602 0.929 . S
C1610 C1611 1.377 . S
C1610 C1612 1.384 . S
C1611 C1610 1.377 . S
C1611 C1617 1.390 . S
C1612 H1603 0.930 . S
C1612 C1610 1.384 . S
C1612 C1613 1.372 . S
C1613 C1612 1.372 . S
C1613 C1614 1.400 . S
C1613 C1618 1.490 . S
C1614 H1604 0.930 . S
C1614 C1613 1.400 . S
C1614 C1617 1.386 . S
H1615 C1631 0.930 1_556 S
H1616 C1632 0.931 . S
C1617 H1605 0.929 . S
C1617 C1611 1.390 . S
C1617 C1614 1.386 . S
C1618 C1613 1.490 . S
C1618 C1620 1.395 . S
C1618 C1621 1.403 . S
H1619 C1625 0.930 . S
C1620 H1606 0.930 1_556 S
C1620 C1618 1.395 . S
C1620 C1623 1.403 1_556 S
C1621 C1618 1.403 . S
C1621 C1622 1.524 . S
C1621 C1625 1.400 . S
C1622 H1607 0.960 . S
C1622 H1608 0.960 . S
C1622 H1609 0.960 . S
C1622 C1621 1.524 . S
C1623 C1620 1.403 1_554 S
C1623 C1624 1.392 1_554 S
C1623 C1627 1.495 . S
C1624 C1623 1.392 1_556 S
C1624 C1625 1.385 . S
C1624 C1626 1.478 1_556 S
C1625 H1619 0.930 . S
C1625 C1621 1.400 . S
C1625 C1624 1.385 . S
C1626 C1624 1.478 1_554 S
C1626 C1628 1.381 . S
C1626 C1632 1.383 1_554 S
C1627 C1623 1.495 . S
C1627 H1633 0.959 . S
C1627 H1634 0.961 . S
C1627 H1635 0.960 . S
C1628 C1626 1.381 . S
C1628 C1629 1.394 . S
C1628 H1636 0.930 . S
C1629 C1628 1.394 . S
C1629 C1630 1.383 . S
C1629 H1637 0.929 . S
C1630 C1629 1.383 . S
C1630 C1631 1.377 . S
C1631 H1615 0.930 1_554 S
C1631 C1630 1.377 . S
C1631 C1632 1.379 1_554 S
C1632 H1616 0.931 . S
C1632 C1626 1.383 1_556 S
C1632 C1631 1.379 1_556 S
H1633 C1627 0.959 . S
H1634 C1627 0.961 . S
H1635 C1627 0.960 . S
H1636 C1628 0.930 . S
H1637 C1629 0.929 . S
H1638 C1646 0.929 . S
H1639 C1648 0.930 . S
H1640 C1650 0.930 . S
H1641 C1653 0.929 . S
H1642 C1656 0.930 . S
H1643 C1658 0.960 . S
H1644 C1658 0.960 1_554 S
H1645 C1658 0.960 . S
C1646 H1638 0.929 . S
C1646 C1647 1.377 . S
C1646 C1648 1.384 . S
C1647 C1646 1.377 . S
C1647 C1653 1.390 1_554 S
C1648 H1639 0.930 . S
C1648 C1646 1.384 . S
C1648 C1649 1.372 . S
C1649 C1648 1.372 . S
C1649 C1650 1.400 1_554 S
C1649 C1654 1.490 1_554 S
C1650 H1640 0.930 . S
C1650 C1649 1.400 1_556 S
C1650 C1653 1.386 . S
H1651 C1667 0.930 . S
H1652 C1668 0.931 . S
C1653 H1641 0.929 . S
C1653 C1647 1.390 1_556 S
C1653 C1650 1.386 . S
C1654 C1649 1.490 1_556 S
C1654 C1656 1.395 . S
C1654 C1657 1.403 . S
H1655 C1661 0.930 . S
C1656 H1642 0.930 . S
C1656 C1654 1.395 . S
C1656 C1659 1.403 . S
C1657 C1654 1.403 . S
C1657 C1658 1.524 . S
C1657 C1661 1.400 . S
C1658 H1643 0.960 . S
C1658 H1644 0.960 1_556 S
C1658 H1645 0.960 . S
C1658 C1657 1.524 . S
C1659 C1656 1.403 . S
C1659 C1660 1.392 . S
C1659 C1663 1.495 . S
C1660 C1659 1.392 . S
C1660 C1661 1.385 . S
C1660 C1662 1.478 . S
C1661 H1655 0.930 . S
C1661 C1657 1.400 . S
C1661 C1660 1.385 . S
C1662 C1660 1.478 . S
C1662 C1664 1.381 . S
C1662 C1668 1.383 . S
C1663 C1659 1.495 . S
C1663 H1669 0.959 . S
C1663 H1670 0.961 . S
C1663 H1671 0.960 . S
C1664 C1662 1.381 . S
C1664 C1665 1.394 . S
C1664 H1672 0.930 . S
C1665 C1664 1.394 . S
C1665 C1666 1.383 . S
C1665 H1673 0.929 . S
C1666 C1665 1.383 . S
C1666 C1667 1.377 . S
C1667 H1651 0.930 . S
C1667 C1666 1.377 . S
C1667 C1668 1.379 . S
C1668 H1652 0.931 . S
C1668 C1662 1.383 . S
C1668 C1667 1.379 . S
H1669 C1663 0.959 . S
H1670 C1663 0.961 . S
H1671 C1663 0.960 . S
H1672 C1664 0.930 . S
H1673 C1665 0.929 . S
H1674 C1682 0.929 . S
H1675 C1684 0.930 . S
H1676 C1686 0.930 . S
H1677 C1689 0.929 . S
H1678 C1692 0.930 1_556 S
H1679 C1694 0.960 . S
H1680 C1694 0.960 . S
H1681 C1694 0.960 . S
C1682 H1674 0.929 . S
C1682 C1683 1.377 . S
C1682 C1684 1.384 . S
C1683 C1682 1.377 . S
C1683 C1689 1.390 . S
C1684 H1675 0.930 . S
C1684 C1682 1.384 . S
C1684 C1685 1.372 . S
C1685 C1684 1.372 . S
C1685 C1686 1.400 . S
C1685 C1690 1.490 . S
C1686 H1676 0.930 . S
C1686 C1685 1.400 . S
C1686 C1689 1.386 . S
H1687 C1703 0.920 1_554 S
H1688 C1704 0.931 . S
C1689 H1677 0.929 . S
C1689 C1683 1.390 . S
C1689 C1686 1.386 . S
C1690 C1685 1.490 . S
C1690 C1692 1.395 . S
C1690 C1693 1.403 . S
H1691 C1697 0.930 . S
C1692 H1678 0.930 1_554 S
C1692 C1690 1.395 . S
C1692 C1695 1.403 1_554 S
C1693 C1690 1.403 . S
C1693 C1694 1.524 . S
C1693 C1697 1.400 . S
C1694 H1679 0.960 . S
C1694 H1680 0.960 . S
C1694 H1681 0.960 . S
C1694 C1693 1.524 . S
C1695 C1692 1.403 1_556 S
C1695 C1696 1.392 1_556 S
C1695 C1699 1.495 . S
C1696 C1695 1.392 1_554 S
C1696 C1697 1.385 . S
C1696 C1698 1.478 1_554 S
C1697 H1691 0.930 . S
C1697 C1693 1.400 . S
C1697 C1696 1.385 . S
C1698 C1696 1.478 1_556 S
C1698 C1700 1.381 . S
C1698 C1704 1.383 1_556 S
C1699 C1695 1.495 . S
C1699 H1705 0.959 . S
C1699 H1706 0.961 . S
C1699 H1707 0.960 . S
C1700 C1698 1.381 . S
C1700 C1701 1.394 . S
C1700 H1708 0.930 . S
C1701 C1700 1.394 . S
C1701 C1702 1.383 . S
C1701 H1709 0.929 . S
C1702 C1701 1.383 . S
C1702 C1703 1.391 . S
C1703 H1687 0.920 1_556 S
C1703 C1702 1.391 . S
C1703 C1704 1.374 1_556 S
C1704 H1688 0.931 . S
C1704 C1698 1.383 1_554 S
C1704 C1703 1.374 1_554 S
H1705 C1699 0.959 . S
H1706 C1699 0.961 . S
H1707 C1699 0.960 . S
H1708 C1700 0.930 . S
H1709 C1701 0.929 . S
H1710 C1718 0.943 1_545 S
H1711 C1720 0.930 . S
H1712 C1722 0.930 . S
H1713 C1725 0.929 . S
H1714 C1728 0.930 . S
H1715 C1730 0.960 . S
H1716 C1730 0.960 . S
H1717 C1730 0.960 1_556 S
C1718 H1710 0.943 1_565 S
C1718 C1719 1.354 1_554 S
C1718 C1720 1.394 . S
C1719 C1718 1.354 1_556 S
C1719 C1725 1.390 . S
C1720 H1711 0.930 . S
C1720 C1718 1.394 . S
C1720 C1721 1.372 1_554 S
C1721 C1720 1.372 1_556 S
C1721 C1722 1.400 . S
C1721 C1726 1.490 1_556 S
C1722 H1712 0.930 . S
C1722 C1721 1.400 . S
C1722 C1725 1.386 . S
H1723 C1739 0.930 . S
H1724 C1740 0.931 . S
C1725 H1713 0.929 . S
C1725 C1719 1.390 . S
C1725 C1722 1.386 . S
C1726 C1721 1.490 1_554 S
C1726 C1728 1.395 . S
C1726 C1729 1.403 . S
H1727 C1733 0.930 . S
C1728 H1714 0.930 . S
C1728 C1726 1.395 . S
C1728 C1731 1.403 . S
C1729 C1726 1.403 . S
C1729 C1730 1.524 . S
C1729 C1733 1.400 . S
C1730 H1715 0.960 . S
C1730 H1716 0.960 . S
C1730 H1717 0.960 1_554 S
C1730 C1729 1.524 . S
C1731 C1728 1.403 . S
C1731 C1732 1.392 . S
C1731 C1735 1.495 . S
C1732 C1731 1.392 . S
C1732 C1733 1.385 . S
C1732 C1734 1.478 . S
C1733 H1727 0.930 . S
C1733 C1729 1.400 . S
C1733 C1732 1.385 . S
C1734 C1732 1.478 . S
C1734 C1736 1.381 . S
C1734 C1740 1.383 . S
C1735 C1731 1.495 . S
C1735 H1741 0.959 . S
C1735 H1742 0.961 . S
C1735 H1743 0.960 . S
C1736 C1734 1.381 . S
C1736 C1737 1.394 . S
C1736 H1744 0.930 . S
C1737 C1736 1.394 . S
C1737 C1738 1.383 . S
C1737 H1745 0.929 . S
C1738 C1737 1.383 . S
C1738 C1739 1.377 . S
C1739 H1723 0.930 . S
C1739 C1738 1.377 . S
C1739 C1740 1.379 . S
C1740 H1724 0.931 . S
C1740 C1734 1.383 . S
C1740 C1739 1.379 . S
H1741 C1735 0.959 . S
H1742 C1735 0.961 . S
H1743 C1735 0.960 . S
H1744 C1736 0.930 . S
H1745 C1737 0.929 . S
H1746 C1754 0.929 . S
H1747 C1756 0.930 . S
H1748 C1758 0.930 . S
H1749 C1761 0.929 . S
H1750 C1764 0.930 . S
H1751 C1766 0.960 . S
H1752 C1766 0.960 . S
H1753 C1766 0.960 . S
C1754 H1746 0.929 . S
C1754 C1755 1.377 . S
C1754 C1756 1.384 . S
C1755 C1754 1.377 . S
C1755 C1761 1.390 . S
C1756 H1747 0.930 . S
C1756 C1754 1.384 . S
C1756 C1757 1.372 . S
C1757 C1756 1.372 . S
C1757 C1758 1.400 . S
C1757 C1762 1.490 . S
C1758 H1748 0.930 . S
C1758 C1757 1.400 . S
C1758 C1761 1.386 . S
H1759 C1775 0.930 . S
H1760 C1776 0.931 . S
C1761 H1749 0.929 . S
C1761 C1755 1.390 . S
C1761 C1758 1.386 . S
C1762 C1757 1.490 . S
C1762 C1764 1.395 . S
C1762 C1765 1.403 . S
H1763 C1769 0.930 . S
C1764 H1750 0.930 . S
C1764 C1762 1.395 . S
C1764 C1767 1.403 . S
C1765 C1762 1.403 . S
C1765 C1766 1.524 1_554 S
C1765 C1769 1.400 1_554 S
C1766 H1751 0.960 . S
C1766 H1752 0.960 . S
C1766 H1753 0.960 . S
C1766 C1765 1.524 1_556 S
C1767 C1764 1.403 . S
C1767 C1768 1.392 . S
C1767 C1771 1.495 . S
C1768 C1767 1.392 . S
C1768 C1769 1.385 1_554 S
C1768 C1770 1.478 . S
C1769 H1763 0.930 . S
C1769 C1765 1.400 1_556 S
C1769 C1768 1.385 1_556 S
C1770 C1768 1.478 . S
C1770 C1772 1.381 . S
C1770 C1776 1.383 1_554 S
C1771 C1767 1.495 . S
C1771 H1777 0.959 . S
C1771 H1778 0.961 . S
C1771 H1779 0.960 . S
C1772 C1770 1.381 . S
C1772 C1773 1.405 . S
C1772 H1780 0.930 . S
C1773 C1772 1.405 . S
C1773 C1774 1.362 1_554 S
C1773 H1781 0.940 1_455 S
C1774 C1773 1.362 1_556 S
C1774 C1775 1.377 . S
C1775 H1759 0.930 . S
C1775 C1774 1.377 . S
C1775 C1776 1.379 . S
C1776 H1760 0.931 . S
C1776 C1770 1.383 1_556 S
C1776 C1775 1.379 . S
H1777 C1771 0.959 . S
H1778 C1771 0.961 . S
H1779 C1771 0.960 . S
H1780 C1772 0.930 . S
H1781 C1773 0.940 1_655 S
H1782 C1790 0.929 . S
H1783 C1792 0.930 . S
H1784 C1794 0.930 . S
H1785 C1797 0.929 . S
H1786 C1800 0.930 . S
H1787 C1802 0.960 . S
H1788 C1802 0.960 . S
H1789 C1802 0.960 . S
C1790 H1782 0.929 . S
C1790 C1791 1.377 . S
C1790 C1792 1.384 . S
C1791 C1790 1.377 . S
C1791 C1797 1.390 . S
C1792 H1783 0.930 . S
C1792 C1790 1.384 . S
C1792 C1793 1.372 . S
C1793 C1792 1.372 . S
C1793 C1794 1.400 . S
C1793 C1798 1.490 . S
C1794 H1784 0.930 . S
C1794 C1793 1.400 . S
C1794 C1797 1.386 . S
H1795 C1811 0.930 . S
H1796 C1812 0.931 . S
C1797 H1785 0.929 . S
C1797 C1791 1.390 . S
C1797 C1794 1.386 . S
C1798 C1793 1.490 . S
C1798 C1800 1.395 . S
C1798 C1801 1.403 . S
H1799 C1805 0.930 . S
C1800 H1786 0.930 . S
C1800 C1798 1.395 . S
C1800 C1803 1.403 . S
C1801 C1798 1.403 . S
C1801 C1802 1.524 . S
C1801 C1805 1.400 . S
C1802 H1787 0.960 . S
C1802 H1788 0.960 . S
C1802 H1789 0.960 . S
C1802 C1801 1.524 . S
C1803 C1800 1.403 . S
C1803 C1804 1.392 . S
C1803 C1807 1.495 . S
C1804 C1803 1.392 . S
C1804 C1805 1.385 . S
C1804 C1806 1.478 . S
C1805 H1799 0.930 . S
C1805 C1801 1.400 . S
C1805 C1804 1.385 . S
C1806 C1804 1.478 . S
C1806 C1808 1.381 . S
C1806 C1812 1.383 . S
C1807 C1803 1.495 . S
C1807 H1813 0.959 . S
C1807 H1814 0.961 . S
C1807 H1815 0.960 . S
C1808 C1806 1.381 . S
C1808 C1809 1.394 . S
C1808 H1816 0.930 . S
C1809 C1808 1.394 . S
C1809 C1810 1.383 . S
C1809 H1817 0.929 . S
C1810 C1809 1.383 . S
C1810 C1811 1.377 . S
C1811 H1795 0.930 . S
C1811 C1810 1.377 . S
C1811 C1812 1.379 . S
C1812 H1796 0.931 . S
C1812 C1806 1.383 . S
C1812 C1811 1.379 . S
H1813 C1807 0.959 . S
H1814 C1807 0.961 . S
H1815 C1807 0.960 . S
H1816 C1808 0.930 . S
H1817 C1809 0.929 . S
H1818 C1826 0.929 . S
H1819 C1828 0.930 . S
H1820 C1830 0.930 . S
H1821 C1833 0.929 . S
H1822 C1836 0.930 . S
H1823 C1838 0.960 . S
H1824 C1838 0.960 . S
H1825 C1838 0.960 . S
C1826 H1818 0.929 . S
C1826 C1827 1.377 . S
C1826 C1828 1.384 . S
C1827 C1826 1.377 . S
C1827 C1833 1.390 . S
C1828 H1819 0.930 . S
C1828 C1826 1.384 . S
C1828 C1829 1.372 . S
C1829 C1828 1.372 . S
C1829 C1830 1.400 . S
C1829 C1834 1.490 . S
C1830 H1820 0.930 . S
C1830 C1829 1.400 . S
C1830 C1833 1.386 . S
H1831 C1847 0.930 . S
H1832 C1848 0.931 . S
C1833 H1821 0.929 . S
C1833 C1827 1.390 . S
C1833 C1830 1.386 . S
C1834 C1829 1.490 . S
C1834 C1836 1.395 . S
C1834 C1837 1.403 . S
H1835 C1841 0.930 . S
C1836 H1822 0.930 . S
C1836 C1834 1.395 . S
C1836 C1839 1.403 . S
C1837 C1834 1.403 . S
C1837 C1838 1.524 . S
C1837 C1841 1.400 . S
C1838 H1823 0.960 . S
C1838 H1824 0.960 . S
C1838 H1825 0.960 . S
C1838 C1837 1.524 . S
C1839 C1836 1.403 . S
C1839 C1840 1.392 . S
C1839 C1843 1.495 . S
C1840 C1839 1.392 . S
C1840 C1841 1.385 . S
C1840 C1842 1.478 . S
C1841 H1835 0.930 . S
C1841 C1837 1.400 . S
C1841 C1840 1.385 . S
C1842 C1840 1.478 . S
C1842 C1844 1.381 . S
C1842 C1848 1.383 . S
C1843 C1839 1.495 . S
C1843 H1849 0.959 . S
C1843 H1850 0.961 . S
C1843 H1851 0.960 . S
C1844 C1842 1.381 . S
C1844 C1845 1.394 . S
C1844 H1852 0.930 . S
C1845 C1844 1.394 . S
C1845 C1846 1.383 . S
C1845 H1853 0.929 . S
C1846 C1845 1.383 . S
C1846 C1847 1.377 . S
C1847 H1831 0.930 . S
C1847 C1846 1.377 . S
C1847 C1848 1.379 . S
C1848 H1832 0.931 . S
C1848 C1842 1.383 . S
C1848 C1847 1.379 . S
H1849 C1843 0.959 . S
H1850 C1843 0.961 . S
H1851 C1843 0.960 . S
H1852 C1844 0.930 . S
H1853 C1845 0.929 . S
H1854 C1862 0.929 . S
H1855 C1864 0.930 . S
H1856 C1866 0.930 . S
H1857 C1869 0.929 . S
H1858 C1872 0.930 . S
H1859 C1874 0.960 . S
H1860 C1874 0.960 . S
H1861 C1874 0.960 . S
C1862 H1854 0.929 . S
C1862 C1863 1.377 . S
C1862 C1864 1.384 . S
C1863 C1862 1.377 . S
C1863 C1869 1.390 . S
C1864 H1855 0.930 . S
C1864 C1862 1.384 . S
C1864 C1865 1.372 . S
C1865 C1864 1.372 . S
C1865 C1866 1.400 . S
C1865 C1870 1.490 . S
C1866 H1856 0.930 . S
C1866 C1865 1.400 . S
C1866 C1869 1.386 . S
H1867 C1883 0.930 . S
H1868 C1884 0.931 . S
C1869 H1857 0.929 . S
C1869 C1863 1.390 . S
C1869 C1866 1.386 . S
C1870 C1865 1.490 . S
C1870 C1872 1.395 . S
C1870 C1873 1.403 . S
H1871 C1877 0.930 . S
C1872 H1858 0.930 . S
C1872 C1870 1.395 . S
C1872 C1875 1.403 . S
C1873 C1870 1.403 . S
C1873 C1874 1.524 . S
C1873 C1877 1.400 . S
C1874 H1859 0.960 . S
C1874 H1860 0.960 . S
C1874 H1861 0.960 . S
C1874 C1873 1.524 . S
C1875 C1872 1.403 . S
C1875 C1876 1.392 . S
C1875 C1879 1.495 . S
C1876 C1875 1.392 . S
C1876 C1877 1.385 . S
C1876 C1878 1.478 . S
C1877 H1871 0.930 . S
C1877 C1873 1.400 . S
C1877 C1876 1.385 . S
C1878 C1876 1.478 . S
C1878 C1880 1.381 . S
C1878 C1884 1.383 . S
C1879 C1875 1.495 . S
C1879 H1885 0.959 . S
C1879 H1886 0.961 . S
C1879 H1887 0.960 . S
C1880 C1878 1.381 . S
C1880 C1881 1.394 . S
C1880 H1888 0.930 . S
C1881 C1880 1.394 . S
C1881 C1882 1.383 . S
C1881 H1889 0.929 . S
C1882 C1881 1.383 . S
C1882 C1883 1.377 . S
C1883 H1867 0.930 . S
C1883 C1882 1.377 . S
C1883 C1884 1.379 . S
C1884 H1868 0.931 . S
C1884 C1878 1.383 . S
C1884 C1883 1.379 . S
H1885 C1879 0.959 . S
H1886 C1879 0.961 . S
H1887 C1879 0.960 . S
H1888 C1880 0.930 . S
H1889 C1881 0.929 . S
H1890 C1898 0.929 . S
H1891 C1900 0.930 . S
H1892 C1902 0.930 . S
H1893 C1905 0.929 . S
H1894 C1908 0.930 . S
H1895 C1910 0.960 . S
H1896 C1910 0.960 . S
H1897 C1910 0.960 . S
C1898 H1890 0.929 . S
C1898 C1899 1.377 . S
C1898 C1900 1.384 . S
C1899 C1898 1.377 . S
C1899 C1905 1.390 . S
C1900 H1891 0.930 . S
C1900 C1898 1.384 . S
C1900 C1901 1.372 . S
C1901 C1900 1.372 . S
C1901 C1902 1.400 . S
C1901 C1906 1.490 . S
C1902 H1892 0.930 . S
C1902 C1901 1.400 . S
C1902 C1905 1.386 . S
H1903 C1919 0.930 . S
H1904 C1920 0.931 . S
C1905 H1893 0.929 . S
C1905 C1899 1.390 . S
C1905 C1902 1.386 . S
C1906 C1901 1.490 . S
C1906 C1908 1.395 . S
C1906 C1909 1.403 . S
H1907 C1913 0.930 . S
C1908 H1894 0.930 . S
C1908 C1906 1.395 . S
C1908 C1911 1.403 . S
C1909 C1906 1.403 . S
C1909 C1910 1.524 . S
C1909 C1913 1.400 . S
C1910 H1895 0.960 . S
C1910 H1896 0.960 . S
C1910 H1897 0.960 . S
C1910 C1909 1.524 . S
C1911 C1908 1.403 . S
C1911 C1912 1.392 . S
C1911 C1915 1.495 . S
C1912 C1911 1.392 . S
C1912 C1913 1.385 . S
C1912 C1914 1.478 . S
C1913 H1907 0.930 . S
C1913 C1909 1.400 . S
C1913 C1912 1.385 . S
C1914 C1912 1.478 . S
C1914 C1916 1.381 . S
C1914 C1920 1.383 . S
C1915 C1911 1.495 . S
C1915 H1921 0.959 . S
C1915 H1922 0.961 . S
C1915 H1923 0.960 . S
C1916 C1914 1.381 . S
C1916 C1917 1.394 . S
C1916 H1924 0.930 . S
C1917 C1916 1.394 . S
C1917 C1918 1.383 . S
C1917 H1925 0.929 . S
C1918 C1917 1.383 . S
C1918 C1919 1.377 . S
C1919 H1903 0.930 . S
C1919 C1918 1.377 . S
C1919 C1920 1.379 . S
C1920 H1904 0.931 . S
C1920 C1914 1.383 . S
C1920 C1919 1.379 . S
H1921 C1915 0.959 . S
H1922 C1915 0.961 . S
H1923 C1915 0.960 . S
H1924 C1916 0.930 . S
H1925 C1917 0.929 . S
H1926 C1934 0.929 . S
H1927 C1936 0.930 . S
H1928 C1938 0.930 . S
H1929 C1941 0.929 . S
H1930 C1944 0.930 . S
H1931 C1946 0.960 . S
H1932 C1946 0.960 . S
H1933 C1946 0.960 . S
C1934 H1926 0.929 . S
C1934 C1935 1.377 . S
C1934 C1936 1.384 . S
C1935 C1934 1.377 . S
C1935 C1941 1.390 . S
C1936 H1927 0.930 . S
C1936 C1934 1.384 . S
C1936 C1937 1.372 . S
C1937 C1936 1.372 . S
C1937 C1938 1.400 . S
C1937 C1942 1.490 . S
C1938 H1928 0.930 . S
C1938 C1937 1.400 . S
C1938 C1941 1.386 . S
H1939 C1955 0.930 . S
H1940 C1956 0.931 . S
C1941 H1929 0.929 . S
C1941 C1935 1.390 . S
C1941 C1938 1.386 . S
C1942 C1937 1.490 . S
C1942 C1944 1.395 . S
C1942 C1945 1.403 . S
H1943 C1949 0.930 . S
C1944 H1930 0.930 . S
C1944 C1942 1.395 . S
C1944 C1947 1.403 . S
C1945 C1942 1.403 . S
C1945 C1946 1.524 . S
C1945 C1949 1.400 . S
C1946 H1931 0.960 . S
C1946 H1932 0.960 . S
C1946 H1933 0.960 . S
C1946 C1945 1.524 . S
C1947 C1944 1.403 . S
C1947 C1948 1.392 . S
C1947 C1951 1.495 . S
C1948 C1947 1.392 . S
C1948 C1949 1.385 . S
C1948 C1950 1.478 . S
C1949 H1943 0.930 . S
C1949 C1945 1.400 . S
C1949 C1948 1.385 . S
C1950 C1948 1.478 . S
C1950 C1952 1.381 . S
C1950 C1956 1.383 . S
C1951 C1947 1.495 . S
C1951 H1957 0.959 . S
C1951 H1958 0.961 . S
C1951 H1959 0.960 . S
C1952 C1950 1.381 . S
C1952 C1953 1.394 . S
C1952 H1960 0.930 . S
C1953 C1952 1.394 . S
C1953 C1954 1.383 . S
C1953 H1961 0.929 . S
C1954 C1953 1.383 . S
C1954 C1955 1.377 . S
C1955 H1939 0.930 . S
C1955 C1954 1.377 . S
C1955 C1956 1.379 . S
C1956 H1940 0.931 . S
C1956 C1950 1.383 . S
C1956 C1955 1.379 . S
H1957 C1951 0.959 . S
H1958 C1951 0.961 . S
H1959 C1951 0.960 . S
H1960 C1952 0.930 . S
H1961 C1953 0.929 . S
H1962 C1970 0.929 . S
H1963 C1972 0.930 . S
H1964 C1974 0.930 . S
H1965 C1977 0.929 . S
H1966 C1980 0.930 . S
H1967 C1982 0.960 . S
H1968 C1982 0.960 . S
H1969 C1982 0.960 . S
C1970 H1962 0.929 . S
C1970 C1971 1.377 . S
C1970 C1972 1.384 . S
C1971 C1970 1.377 . S
C1971 C1977 1.390 . S
C1972 H1963 0.930 . S
C1972 C1970 1.384 . S
C1972 C1973 1.372 . S
C1973 C1972 1.372 . S
C1973 C1974 1.400 . S
C1973 C1978 1.490 . S
C1974 H1964 0.930 . S
C1974 C1973 1.400 . S
C1974 C1977 1.386 . S
H1975 C1991 0.930 . S
H1976 C1992 0.931 . S
C1977 H1965 0.929 . S
C1977 C1971 1.390 . S
C1977 C1974 1.386 . S
C1978 C1973 1.490 . S
C1978 C1980 1.395 . S
C1978 C1981 1.403 . S
H1979 C1985 0.930 . S
C1980 H1966 0.930 . S
C1980 C1978 1.395 . S
C1980 C1983 1.403 . S
C1981 C1978 1.403 . S
C1981 C1982 1.524 . S
C1981 C1985 1.400 . S
C1982 H1967 0.960 . S
C1982 H1968 0.960 . S
C1982 H1969 0.960 . S
C1982 C1981 1.524 . S
C1983 C1980 1.403 . S
C1983 C1984 1.392 . S
C1983 C1987 1.495 . S
C1984 C1983 1.392 . S
C1984 C1985 1.385 . S
C1984 C1986 1.478 . S
C1985 H1979 0.930 . S
C1985 C1981 1.400 . S
C1985 C1984 1.385 . S
C1986 C1984 1.478 . S
C1986 C1988 1.381 . S
C1986 C1992 1.383 . S
C1987 C1983 1.495 . S
C1987 H1993 0.959 . S
C1987 H1994 0.961 . S
C1987 H1995 0.960 . S
C1988 C1986 1.381 . S
C1988 C1989 1.394 . S
C1988 H1996 0.930 . S
C1989 C1988 1.394 . S
C1989 C1990 1.383 . S
C1989 H1997 0.929 . S
C1990 C1989 1.383 . S
C1990 C1991 1.377 . S
C1991 H1975 0.930 . S
C1991 C1990 1.377 . S
C1991 C1992 1.379 . S
C1992 H1976 0.931 . S
C1992 C1986 1.383 . S
C1992 C1991 1.379 . S
H1993 C1987 0.959 . S
H1994 C1987 0.961 . S
H1995 C1987 0.960 . S
H1996 C1988 0.930 . S
H1997 C1989 0.929 . S
H1998 C2006 0.929 . S
H1999 C2008 0.930 . S
H2000 C2010 0.930 . S
H2001 C2013 0.929 . S
H2002 C2016 0.930 . S
H2003 C2018 0.960 . S
H2004 C2018 0.960 . S
H2005 C2018 0.960 . S
C2006 H1998 0.929 . S
C2006 C2007 1.377 . S
C2006 C2008 1.384 . S
C2007 C2006 1.377 . S
C2007 C2013 1.390 . S
C2008 H1999 0.930 . S
C2008 C2006 1.384 . S
C2008 C2009 1.372 . S
C2009 C2008 1.372 . S
C2009 C2010 1.400 . S
C2009 C2014 1.490 . S
C2010 H2000 0.930 . S
C2010 C2009 1.400 . S
C2010 C2013 1.386 . S
H2011 C2027 0.930 . S
H2012 C2028 0.931 . S
C2013 H2001 0.929 . S
C2013 C2007 1.390 . S
C2013 C2010 1.386 . S
C2014 C2009 1.490 . S
C2014 C2016 1.395 . S
C2014 C2017 1.403 . S
H2015 C2021 0.930 . S
C2016 H2002 0.930 . S
C2016 C2014 1.395 . S
C2016 C2019 1.403 . S
C2017 C2014 1.403 . S
C2017 C2018 1.524 . S
C2017 C2021 1.400 . S
C2018 H2003 0.960 . S
C2018 H2004 0.960 . S
C2018 H2005 0.960 . S
C2018 C2017 1.524 . S
C2019 C2016 1.403 . S
C2019 C2020 1.392 . S
C2019 C2023 1.495 . S
C2020 C2019 1.392 . S
C2020 C2021 1.385 . S
C2020 C2022 1.478 . S
C2021 H2015 0.930 . S
C2021 C2017 1.400 . S
C2021 C2020 1.385 . S
C2022 C2020 1.478 . S
C2022 C2024 1.381 . S
C2022 C2028 1.383 . S
C2023 C2019 1.495 . S
C2023 H2029 0.959 . S
C2023 H2030 0.961 . S
C2023 H2031 0.960 . S
C2024 C2022 1.381 . S
C2024 C2025 1.394 . S
C2024 H2032 0.930 . S
C2025 C2024 1.394 . S
C2025 C2026 1.383 . S
C2025 H2033 0.929 . S
C2026 C2025 1.383 . S
C2026 C2027 1.377 . S
C2027 H2011 0.930 . S
C2027 C2026 1.377 . S
C2027 C2028 1.379 . S
C2028 H2012 0.931 . S
C2028 C2022 1.383 . S
C2028 C2027 1.379 . S
H2029 C2023 0.959 . S
H2030 C2023 0.961 . S
H2031 C2023 0.960 . S
H2032 C2024 0.930 . S
H2033 C2025 0.929 . S
H2034 C2042 0.929 . S
H2035 C2044 0.930 . S
H2036 C2046 0.930 . S
H2037 C2049 0.929 . S
H2038 C2052 0.930 . S
H2039 C2054 0.960 . S
H2040 C2054 0.960 . S
H2041 C2054 0.960 . S
C2042 H2034 0.929 . S
C2042 C2043 1.377 . S
C2042 C2044 1.384 . S
C2043 C2042 1.377 . S
C2043 C2049 1.390 . S
C2044 H2035 0.930 . S
C2044 C2042 1.384 . S
C2044 C2045 1.372 . S
C2045 C2044 1.372 . S
C2045 C2046 1.400 . S
C2045 C2050 1.490 . S
C2046 H2036 0.930 . S
C2046 C2045 1.400 . S
C2046 C2049 1.386 . S
H2047 C2063 0.930 . S
H2048 C2064 0.931 . S
C2049 H2037 0.929 . S
C2049 C2043 1.390 . S
C2049 C2046 1.386 . S
C2050 C2045 1.490 . S
C2050 C2052 1.395 . S
C2050 C2053 1.403 . S
H2051 C2057 0.930 . S
C2052 H2038 0.930 . S
C2052 C2050 1.395 . S
C2052 C2055 1.403 . S
C2053 C2050 1.403 . S
C2053 C2054 1.524 . S
C2053 C2057 1.400 . S
C2054 H2039 0.960 . S
C2054 H2040 0.960 . S
C2054 H2041 0.960 . S
C2054 C2053 1.524 . S
C2055 C2052 1.403 . S
C2055 C2056 1.392 . S
C2055 C2059 1.495 . S
C2056 C2055 1.392 . S
C2056 C2057 1.385 . S
C2056 C2058 1.478 . S
C2057 H2051 0.930 . S
C2057 C2053 1.400 . S
C2057 C2056 1.385 . S
C2058 C2056 1.478 . S
C2058 C2060 1.381 . S
C2058 C2064 1.383 . S
C2059 C2055 1.495 . S
C2059 H2065 0.959 . S
C2059 H2066 0.961 . S
C2059 H2067 0.960 . S
C2060 C2058 1.381 . S
C2060 C2061 1.394 . S
C2060 H2068 0.930 . S
C2061 C2060 1.394 . S
C2061 C2062 1.383 . S
C2061 H2069 0.929 . S
C2062 C2061 1.383 . S
C2062 C2063 1.377 . S
C2063 H2047 0.930 . S
C2063 C2062 1.377 . S
C2063 C2064 1.379 . S
C2064 H2048 0.931 . S
C2064 C2058 1.383 . S
C2064 C2063 1.379 . S
H2065 C2059 0.959 . S
H2066 C2059 0.961 . S
H2067 C2059 0.960 . S
H2068 C2060 0.930 . S
H2069 C2061 0.929 . S
H2070 C2078 0.929 . S
H2071 C2080 0.930 . S
H2072 C2082 0.930 . S
H2073 C2085 0.929 . S
H2074 C2088 0.930 . S
H2075 C2090 0.960 . S
H2076 C2090 0.960 . S
H2077 C2090 0.960 . S
C2078 H2070 0.929 . S
C2078 C2079 1.377 . S
C2078 C2080 1.384 . S
C2079 C2078 1.377 . S
C2079 C2085 1.390 . S
C2080 H2071 0.930 . S
C2080 C2078 1.384 . S
C2080 C2081 1.372 . S
C2081 C2080 1.372 . S
C2081 C2082 1.400 . S
C2081 C2086 1.490 . S
C2082 H2072 0.930 . S
C2082 C2081 1.400 . S
C2082 C2085 1.386 . S
H2083 C2099 0.930 . S
H2084 C2100 0.931 . S
C2085 H2073 0.929 . S
C2085 C2079 1.390 . S
C2085 C2082 1.386 . S
C2086 C2081 1.490 . S
C2086 C2088 1.395 . S
C2086 C2089 1.403 . S
H2087 C2093 0.930 . S
C2088 H2074 0.930 . S
C2088 C2086 1.395 . S
C2088 C2091 1.403 . S
C2089 C2086 1.403 . S
C2089 C2090 1.524 . S
C2089 C2093 1.400 . S
C2090 H2075 0.960 . S
C2090 H2076 0.960 . S
C2090 H2077 0.960 . S
C2090 C2089 1.524 . S
C2091 C2088 1.403 . S
C2091 C2092 1.392 . S
C2091 C2095 1.495 . S
C2092 C2091 1.392 . S
C2092 C2093 1.385 . S
C2092 C2094 1.478 . S
C2093 H2087 0.930 . S
C2093 C2089 1.400 . S
C2093 C2092 1.385 . S
C2094 C2092 1.478 . S
C2094 C2096 1.381 . S
C2094 C2100 1.383 . S
C2095 C2091 1.495 . S
C2095 H2101 0.959 . S
C2095 H2102 0.961 . S
C2095 H2103 0.960 . S
C2096 C2094 1.381 . S
C2096 C2097 1.394 . S
C2096 H2104 0.930 . S
C2097 C2096 1.394 . S
C2097 C2098 1.383 . S
C2097 H2105 0.929 . S
C2098 C2097 1.383 . S
C2098 C2099 1.377 . S
C2099 H2083 0.930 . S
C2099 C2098 1.377 . S
C2099 C2100 1.379 . S
C2100 H2084 0.931 . S
C2100 C2094 1.383 . S
C2100 C2099 1.379 . S
H2101 C2095 0.959 . S
H2102 C2095 0.961 . S
H2103 C2095 0.960 . S
H2104 C2096 0.930 . S
H2105 C2097 0.929 . S
H2106 C2114 0.929 . S
H2107 C2116 0.930 . S
H2108 C2118 0.930 . S
H2109 C2121 0.929 . S
H2110 C2124 0.930 . S
H2111 C2126 0.960 . S
H2112 C2126 0.960 . S
H2113 C2126 0.960 . S
C2114 H2106 0.929 . S
C2114 C2115 1.377 . S
C2114 C2116 1.384 . S
C2115 C2114 1.377 . S
C2115 C2121 1.390 . S
C2116 H2107 0.930 . S
C2116 C2114 1.384 . S
C2116 C2117 1.372 . S
C2117 C2116 1.372 . S
C2117 C2118 1.400 . S
C2117 C2122 1.490 . S
C2118 H2108 0.930 . S
C2118 C2117 1.400 . S
C2118 C2121 1.386 . S
H2119 C2135 0.930 . S
H2120 C2136 0.931 . S
C2121 H2109 0.929 . S
C2121 C2115 1.390 . S
C2121 C2118 1.386 . S
C2122 C2117 1.490 . S
C2122 C2124 1.395 . S
C2122 C2125 1.403 . S
H2123 C2129 0.930 . S
C2124 H2110 0.930 . S
C2124 C2122 1.395 . S
C2124 C2127 1.403 . S
C2125 C2122 1.403 . S
C2125 C2126 1.524 . S
C2125 C2129 1.400 . S
C2126 H2111 0.960 . S
C2126 H2112 0.960 . S
C2126 H2113 0.960 . S
C2126 C2125 1.524 . S
C2127 C2124 1.403 . S
C2127 C2128 1.392 . S
C2127 C2131 1.495 . S
C2128 C2127 1.392 . S
C2128 C2129 1.385 . S
C2128 C2130 1.478 . S
C2129 H2123 0.930 . S
C2129 C2125 1.400 . S
C2129 C2128 1.385 . S
C2130 C2128 1.478 . S
C2130 C2132 1.381 . S
C2130 C2136 1.383 . S
C2131 C2127 1.495 . S
C2131 H2137 0.959 . S
C2131 H2138 0.961 . S
C2131 H2139 0.960 . S
C2132 C2130 1.381 . S
C2132 C2133 1.394 . S
C2132 H2140 0.930 . S
C2133 C2132 1.394 . S
C2133 C2134 1.383 . S
C2133 H2141 0.929 . S
C2134 C2133 1.383 . S
C2134 C2135 1.377 . S
C2135 H2119 0.930 . S
C2135 C2134 1.377 . S
C2135 C2136 1.379 . S
C2136 H2120 0.931 . S
C2136 C2130 1.383 . S
C2136 C2135 1.379 . S
H2137 C2131 0.959 . S
H2138 C2131 0.961 . S
H2139 C2131 0.960 . S
H2140 C2132 0.930 . S
H2141 C2133 0.929 . S
H2142 C2150 0.929 . S
H2143 C2152 0.930 . S
H2144 C2154 0.930 . S
H2145 C2157 0.929 . S
H2146 C2160 0.930 . S
H2147 C2162 0.960 . S
H2148 C2162 0.960 . S
H2149 C2162 0.960 . S
C2150 H2142 0.929 . S
C2150 C2151 1.377 . S
C2150 C2152 1.384 . S
C2151 C2150 1.377 . S
C2151 C2157 1.390 . S
C2152 H2143 0.930 . S
C2152 C2150 1.384 . S
C2152 C2153 1.372 . S
C2153 C2152 1.372 . S
C2153 C2154 1.400 . S
C2153 C2158 1.490 . S
C2154 H2144 0.930 . S
C2154 C2153 1.400 . S
C2154 C2157 1.386 . S
H2155 C2171 0.930 . S
H2156 C2172 0.931 . S
C2157 H2145 0.929 . S
C2157 C2151 1.390 . S
C2157 C2154 1.386 . S
C2158 C2153 1.490 . S
C2158 C2160 1.395 . S
C2158 C2161 1.403 . S
H2159 C2165 0.930 . S
C2160 H2146 0.930 . S
C2160 C2158 1.395 . S
C2160 C2163 1.403 . S
C2161 C2158 1.403 . S
C2161 C2162 1.524 . S
C2161 C2165 1.400 . S
C2162 H2147 0.960 . S
C2162 H2148 0.960 . S
C2162 H2149 0.960 . S
C2162 C2161 1.524 . S
C2163 C2160 1.403 . S
C2163 C2164 1.392 . S
C2163 C2167 1.495 . S
C2164 C2163 1.392 . S
C2164 C2165 1.385 . S
C2164 C2166 1.478 . S
C2165 H2159 0.930 . S
C2165 C2161 1.400 . S
C2165 C2164 1.385 . S
C2166 C2164 1.478 . S
C2166 C2168 1.381 . S
C2166 C2172 1.383 . S
C2167 C2163 1.495 . S
C2167 H2173 0.959 . S
C2167 H2174 0.961 . S
C2167 H2175 0.960 . S
C2168 C2166 1.381 . S
C2168 C2169 1.394 . S
C2168 H2176 0.930 . S
C2169 C2168 1.394 . S
C2169 C2170 1.383 . S
C2169 H2177 0.929 . S
C2170 C2169 1.383 . S
C2170 C2171 1.377 . S
C2171 H2155 0.930 . S
C2171 C2170 1.377 . S
C2171 C2172 1.379 . S
C2172 H2156 0.931 . S
C2172 C2166 1.383 . S
C2172 C2171 1.379 . S
H2173 C2167 0.959 . S
H2174 C2167 0.961 . S
H2175 C2167 0.960 . S
H2176 C2168 0.930 . S
H2177 C2169 0.929 . S
H2178 C2186 0.929 . S
H2179 C2188 0.930 . S
H2180 C2190 0.930 . S
H2181 C2193 0.929 . S
H2182 C2196 0.930 . S
H2183 C2198 0.960 . S
H2184 C2198 0.960 . S
H2185 C2198 0.960 . S
C2186 H2178 0.929 . S
C2186 C2187 1.377 . S
C2186 C2188 1.384 . S
C2187 C2186 1.377 . S
C2187 C2193 1.390 . S
C2188 H2179 0.930 . S
C2188 C2186 1.384 . S
C2188 C2189 1.372 . S
C2189 C2188 1.372 . S
C2189 C2190 1.400 . S
C2189 C2194 1.490 . S
C2190 H2180 0.930 . S
C2190 C2189 1.400 . S
C2190 C2193 1.386 . S
H2191 C2207 0.930 . S
H2192 C2208 0.931 . S
C2193 H2181 0.929 . S
C2193 C2187 1.390 . S
C2193 C2190 1.386 . S
C2194 C2189 1.490 . S
C2194 C2196 1.395 . S
C2194 C2197 1.403 . S
H2195 C2201 0.930 . S
C2196 H2182 0.930 . S
C2196 C2194 1.395 . S
C2196 C2199 1.403 . S
C2197 C2194 1.403 . S
C2197 C2198 1.524 . S
C2197 C2201 1.400 . S
C2198 H2183 0.960 . S
C2198 H2184 0.960 . S
C2198 H2185 0.960 . S
C2198 C2197 1.524 . S
C2199 C2196 1.403 . S
C2199 C2200 1.392 . S
C2199 C2203 1.495 . S
C2200 C2199 1.392 . S
C2200 C2201 1.385 . S
C2200 C2202 1.478 . S
C2201 H2195 0.930 . S
C2201 C2197 1.400 . S
C2201 C2200 1.385 . S
C2202 C2200 1.478 . S
C2202 C2204 1.381 . S
C2202 C2208 1.383 . S
C2203 C2199 1.495 . S
C2203 H2209 0.959 . S
C2203 H2210 0.961 . S
C2203 H2211 0.960 . S
C2204 C2202 1.381 . S
C2204 C2205 1.394 . S
C2204 H2212 0.930 . S
C2205 C2204 1.394 . S
C2205 C2206 1.383 . S
C2205 H2213 0.929 . S
C2206 C2205 1.383 . S
C2206 C2207 1.377 . S
C2207 H2191 0.930 . S
C2207 C2206 1.377 . S
C2207 C2208 1.379 . S
C2208 H2192 0.931 . S
C2208 C2202 1.383 . S
C2208 C2207 1.379 . S
H2209 C2203 0.959 . S
H2210 C2203 0.961 . S
H2211 C2203 0.960 . S
H2212 C2204 0.930 . S
H2213 C2205 0.929 . S
C603 C7 0.915 . S
C622 C252 0.936 . S
C639 C40 0.932 . S
C658 C285 0.952 . S
C675 C73 0.929 . S
C694 C219 0.947 . S
C711 C549 0.946 . S
C730 C106 0.883 . S
C747 C139 0.931 . S
C766 C582 0.940 . S
C783 C172 0.919 . S
C802 C516 0.938 . S
C819 C205 0.914 . S
C838 C450 0.936 . S
C855 C483 0.946 . S
C874 C238 0.914 . S
C891 C417 0.947 . S
C910 C271 0.929 . S
C927 C304 0.931 . S
C946 C153 0.947 . S
C963 C337 0.928 . S
C982 C186 0.937 . S
C999 C370 0.914 . S
C1018 C120 0.944 . S
C1035 C403 0.916 . S
C1054 C54 0.936 . S
C1071 C436 0.914 . S
C1090 C87 0.937 . S
C1107 C21 0.944 . S
C1126 C469 0.903 . S
C1143 C351 0.944 . S
C1162 C502 0.933 . S
C1179 C535 0.924 . S
C1198 C384 0.936 . S
C1215 C568 0.931 . S
C1234 C318 0.948 . S
C1251 N508 1.641 . S
C1270 N13 1.612 . S
C1287 N541 1.648 . S
C1306 N46 1.667 . S
C1323 N79 1.647 . S
C1342 N574 1.668 . S
C1359 N112 1.645 . S
C1378 N211 1.619 . S
C1395 N145 1.649 . S
C1414 N244 1.657 . S
C1431 N277 1.644 . S
C1450 N178 1.665 . S
C1467 N310 1.641 . S
C1486 N409 1.656 . S
C1503 N442 1.646 . S
C1522 N343 1.668 . S
C1539 N475 1.638 . S
C1558 N376 1.620 . S
C1575 N2 1.469 . S
C1594 C150 1.487 . S
C1611 C183 1.473 . S
C1630 N35 1.480 1_545 S
C1647 N68 1.472 1_655 S
C1666 C117 1.483 . S
C1683 C51 1.465 . S
C1702 N101 1.453 . S
C1719 N134 1.470 1_565 S
C1738 C84 1.483 . S
C1755 C18 1.473 . S
C1774 N167 1.476 1_455 S
C1791 N200 1.467 . S
C1810 C348 1.483 . S
C1827 C381 1.471 . S
C1846 N233 1.447 . S
C1863 C315 1.464 . S
C1882 N266 1.460 . S
C1899 N299 1.468 . S
C1918 C249 1.475 . S
C1935 C282 1.473 . S
C1954 N332 1.487 . S
C1971 N365 1.466 . S
C1990 C216 1.444 . S
C2007 C546 1.474 . S
C2026 N398 1.468 . S
C2043 C579 1.472 . S
C2062 N431 1.455 . S
C2079 C513 1.471 . S
C2098 N464 1.449 . S
C2115 C447 1.473 . S
C2134 N497 1.476 . S
C2151 C480 1.467 . S
C2170 N530 1.473 . S
C2187 N563 1.465 . S
C2206 C414 1.456 . S
