# Generated by pormake.
# Topology uoh, (4)-cn, num edge types: 1
# Building blocks:
#     Node 0, Type 0, BuildingBlock: ICAMEG_clean_sbu_1, # of connection points: 4
#     Node 1, Type 0, BuildingBlock: ICAMEG_clean_sbu_1, # of connection points: 4
#     Node 2, Type 0, BuildingBlock: ICAMEG_clean_sbu_1, # of connection points: 4
#     Node 3, Type 0, BuildingBlock: ICAMEG_clean_sbu_1, # of connection points: 4
#     Node 4, Type 0, BuildingBlock: ICAMEG_clean_sbu_1, # of connection points: 4
#     Node 5, Type 0, BuildingBlock: ICAMEG_clean_sbu_1, # of connection points: 4
#     Node 6, Type 0, BuildingBlock: ICAMEG_clean_sbu_1, # of connection points: 4
#     Node 7, Type 0, BuildingBlock: ICAMEG_clean_sbu_1, # of connection points: 4
#     Node 8, Type 0, BuildingBlock: ICAMEG_clean_sbu_1, # of connection points: 4
#     Node 9, Type 0, BuildingBlock: ICAMEG_clean_sbu_1, # of connection points: 4
#     Node 10, Type 0, BuildingBlock: ICAMEG_clean_sbu_1, # of connection points: 4
#     Node 11, Type 0, BuildingBlock: ICAMEG_clean_sbu_1, # of connection points: 4
#     Node 12, Type 0, BuildingBlock: ICAMEG_clean_sbu_1, # of connection points: 4
#     Node 13, Type 0, BuildingBlock: ICAMEG_clean_sbu_1, # of connection points: 4
#     Node 14, Type 0, BuildingBlock: ICAMEG_clean_sbu_1, # of connection points: 4
#     Node 15, Type 0, BuildingBlock: ICAMEG_clean_sbu_1, # of connection points: 4
#     Node 16, Type 0, BuildingBlock: ICAMEG_clean_sbu_1, # of connection points: 4
#     Node 17, Type 0, BuildingBlock: ICAMEG_clean_sbu_1, # of connection points: 4
#     Node 18, Type 0, BuildingBlock: ICAMEG_clean_sbu_1, # of connection points: 4
#     Node 19, Type 0, BuildingBlock: ICAMEG_clean_sbu_1, # of connection points: 4
#     Node 20, Type 0, BuildingBlock: ICAMEG_clean_sbu_1, # of connection points: 4
#     Node 21, Type 0, BuildingBlock: ICAMEG_clean_sbu_1, # of connection points: 4
#     Node 22, Type 0, BuildingBlock: ICAMEG_clean_sbu_1, # of connection points: 4
#     Node 23, Type 0, BuildingBlock: ICAMEG_clean_sbu_1, # of connection points: 4
#     Node 24, Type 0, BuildingBlock: ICAMEG_clean_sbu_1, # of connection points: 4
#     Node 25, Type 0, BuildingBlock: ICAMEG_clean_sbu_1, # of connection points: 4
#     Node 26, Type 0, BuildingBlock: ICAMEG_clean_sbu_1, # of connection points: 4
#     Node 27, Type 0, BuildingBlock: ICAMEG_clean_sbu_1, # of connection points: 4
#     Node 28, Type 0, BuildingBlock: ICAMEG_clean_sbu_1, # of connection points: 4
#     Node 29, Type 0, BuildingBlock: ICAMEG_clean_sbu_1, # of connection points: 4
#     Node 30, Type 0, BuildingBlock: ICAMEG_clean_sbu_1, # of connection points: 4
#     Node 31, Type 0, BuildingBlock: ICAMEG_clean_sbu_1, # of connection points: 4
#     Node 32, Type 0, BuildingBlock: ICAMEG_clean_sbu_1, # of connection points: 4
#     Node 33, Type 0, BuildingBlock: ICAMEG_clean_sbu_1, # of connection points: 4
#     Node 34, Type 0, BuildingBlock: ICAMEG_clean_sbu_1, # of connection points: 4
#     Node 35, Type 0, BuildingBlock: ICAMEG_clean_sbu_1, # of connection points: 4
#     Edge 36, Type (0, 0), BuildingBlock: KIFKEQ_clean_linker_1, # of connection points: 2
#     Edge 37, Type (0, 0), BuildingBlock: KIFKEQ_clean_linker_1, # of connection points: 2
#     Edge 38, Type (0, 0), BuildingBlock: KIFKEQ_clean_linker_1, # of connection points: 2
#     Edge 39, Type (0, 0), BuildingBlock: KIFKEQ_clean_linker_1, # of connection points: 2
#     Edge 40, Type (0, 0), BuildingBlock: KIFKEQ_clean_linker_1, # of connection points: 2
#     Edge 41, Type (0, 0), BuildingBlock: KIFKEQ_clean_linker_1, # of connection points: 2
#     Edge 42, Type (0, 0), BuildingBlock: KIFKEQ_clean_linker_1, # of connection points: 2
#     Edge 43, Type (0, 0), BuildingBlock: KIFKEQ_clean_linker_1, # of connection points: 2
#     Edge 44, Type (0, 0), BuildingBlock: KIFKEQ_clean_linker_1, # of connection points: 2
#     Edge 45, Type (0, 0), BuildingBlock: KIFKEQ_clean_linker_1, # of connection points: 2
#     Edge 46, Type (0, 0), BuildingBlock: KIFKEQ_clean_linker_1, # of connection points: 2
#     Edge 47, Type (0, 0), BuildingBlock: KIFKEQ_clean_linker_1, # of connection points: 2
#     Edge 48, Type (0, 0), BuildingBlock: KIFKEQ_clean_linker_1, # of connection points: 2
#     Edge 49, Type (0, 0), BuildingBlock: KIFKEQ_clean_linker_1, # of connection points: 2
#     Edge 50, Type (0, 0), BuildingBlock: KIFKEQ_clean_linker_1, # of connection points: 2
#     Edge 51, Type (0, 0), BuildingBlock: KIFKEQ_clean_linker_1, # of connection points: 2
#     Edge 52, Type (0, 0), BuildingBlock: KIFKEQ_clean_linker_1, # of connection points: 2
#     Edge 53, Type (0, 0), BuildingBlock: KIFKEQ_clean_linker_1, # of connection points: 2
#     Edge 54, Type (0, 0), BuildingBlock: KIFKEQ_clean_linker_1, # of connection points: 2
#     Edge 55, Type (0, 0), BuildingBlock: KIFKEQ_clean_linker_1, # of connection points: 2
#     Edge 56, Type (0, 0), BuildingBlock: KIFKEQ_clean_linker_1, # of connection points: 2
#     Edge 57, Type (0, 0), BuildingBlock: KIFKEQ_clean_linker_1, # of connection points: 2
#     Edge 58, Type (0, 0), BuildingBlock: KIFKEQ_clean_linker_1, # of connection points: 2
#     Edge 59, Type (0, 0), BuildingBlock: KIFKEQ_clean_linker_1, # of connection points: 2
#     Edge 60, Type (0, 0), BuildingBlock: KIFKEQ_clean_linker_1, # of connection points: 2
#     Edge 61, Type (0, 0), BuildingBlock: KIFKEQ_clean_linker_1, # of connection points: 2
#     Edge 62, Type (0, 0), BuildingBlock: KIFKEQ_clean_linker_1, # of connection points: 2
#     Edge 63, Type (0, 0), BuildingBlock: KIFKEQ_clean_linker_1, # of connection points: 2
#     Edge 64, Type (0, 0), BuildingBlock: KIFKEQ_clean_linker_1, # of connection points: 2
#     Edge 65, Type (0, 0), BuildingBlock: KIFKEQ_clean_linker_1, # of connection points: 2
#     Edge 66, Type (0, 0), BuildingBlock: KIFKEQ_clean_linker_1, # of connection points: 2
#     Edge 67, Type (0, 0), BuildingBlock: KIFKEQ_clean_linker_1, # of connection points: 2
#     Edge 68, Type (0, 0), BuildingBlock: KIFKEQ_clean_linker_1, # of connection points: 2
#     Edge 69, Type (0, 0), BuildingBlock: KIFKEQ_clean_linker_1, # of connection points: 2
#     Edge 70, Type (0, 0), BuildingBlock: KIFKEQ_clean_linker_1, # of connection points: 2
#     Edge 71, Type (0, 0), BuildingBlock: KIFKEQ_clean_linker_1, # of connection points: 2
#     Edge 72, Type (0, 0), BuildingBlock: KIFKEQ_clean_linker_1, # of connection points: 2
#     Edge 73, Type (0, 0), BuildingBlock: KIFKEQ_clean_linker_1, # of connection points: 2
#     Edge 74, Type (0, 0), BuildingBlock: KIFKEQ_clean_linker_1, # of connection points: 2
#     Edge 75, Type (0, 0), BuildingBlock: KIFKEQ_clean_linker_1, # of connection points: 2
#     Edge 76, Type (0, 0), BuildingBlock: KIFKEQ_clean_linker_1, # of connection points: 2
#     Edge 77, Type (0, 0), BuildingBlock: KIFKEQ_clean_linker_1, # of connection points: 2
#     Edge 78, Type (0, 0), BuildingBlock: KIFKEQ_clean_linker_1, # of connection points: 2
#     Edge 79, Type (0, 0), BuildingBlock: KIFKEQ_clean_linker_1, # of connection points: 2
#     Edge 80, Type (0, 0), BuildingBlock: KIFKEQ_clean_linker_1, # of connection points: 2
#     Edge 81, Type (0, 0), BuildingBlock: KIFKEQ_clean_linker_1, # of connection points: 2
#     Edge 82, Type (0, 0), BuildingBlock: KIFKEQ_clean_linker_1, # of connection points: 2
#     Edge 83, Type (0, 0), BuildingBlock: KIFKEQ_clean_linker_1, # of connection points: 2
#     Edge 84, Type (0, 0), BuildingBlock: KIFKEQ_clean_linker_1, # of connection points: 2
#     Edge 85, Type (0, 0), BuildingBlock: KIFKEQ_clean_linker_1, # of connection points: 2
#     Edge 86, Type (0, 0), BuildingBlock: KIFKEQ_clean_linker_1, # of connection points: 2
#     Edge 87, Type (0, 0), BuildingBlock: KIFKEQ_clean_linker_1, # of connection points: 2
#     Edge 88, Type (0, 0), BuildingBlock: KIFKEQ_clean_linker_1, # of connection points: 2
#     Edge 89, Type (0, 0), BuildingBlock: KIFKEQ_clean_linker_1, # of connection points: 2
#     Edge 90, Type (0, 0), BuildingBlock: KIFKEQ_clean_linker_1, # of connection points: 2
#     Edge 91, Type (0, 0), BuildingBlock: KIFKEQ_clean_linker_1, # of connection points: 2
#     Edge 92, Type (0, 0), BuildingBlock: KIFKEQ_clean_linker_1, # of connection points: 2
#     Edge 93, Type (0, 0), BuildingBlock: KIFKEQ_clean_linker_1, # of connection points: 2
#     Edge 94, Type (0, 0), BuildingBlock: KIFKEQ_clean_linker_1, # of connection points: 2
#     Edge 95, Type (0, 0), BuildingBlock: KIFKEQ_clean_linker_1, # of connection points: 2
#     Edge 96, Type (0, 0), BuildingBlock: KIFKEQ_clean_linker_1, # of connection points: 2
#     Edge 97, Type (0, 0), BuildingBlock: KIFKEQ_clean_linker_1, # of connection points: 2
#     Edge 98, Type (0, 0), BuildingBlock: KIFKEQ_clean_linker_1, # of connection points: 2
#     Edge 99, Type (0, 0), BuildingBlock: KIFKEQ_clean_linker_1, # of connection points: 2
#     Edge 100, Type (0, 0), BuildingBlock: KIFKEQ_clean_linker_1, # of connection points: 2
#     Edge 101, Type (0, 0), BuildingBlock: KIFKEQ_clean_linker_1, # of connection points: 2
#     Edge 102, Type (0, 0), BuildingBlock: KIFKEQ_clean_linker_1, # of connection points: 2
#     Edge 103, Type (0, 0), BuildingBlock: KIFKEQ_clean_linker_1, # of connection points: 2
#     Edge 104, Type (0, 0), BuildingBlock: KIFKEQ_clean_linker_1, # of connection points: 2
#     Edge 105, Type (0, 0), BuildingBlock: KIFKEQ_clean_linker_1, # of connection points: 2
#     Edge 106, Type (0, 0), BuildingBlock: KIFKEQ_clean_linker_1, # of connection points: 2
#     Edge 107, Type (0, 0), BuildingBlock: KIFKEQ_clean_linker_1, # of connection points: 2
# Relax obj value: 0.038
# Max RMSD: 0.079
# Mean RMSD: 0.079
data_MOF--net-uoh--node1-ICAMEG_clean_sbu_1--edge1-KIFKEQ_clean_linker_1
_symmetry_space_group_name_H-M    P1
_symmetry_Int_Tables_number       1
_symmetry_cell_setting            triclinic
loop_
_symmetry_equiv_pos_as_xyz
'x, y, z'
_cell_length_a     96.509323
_cell_length_b     96.507999
_cell_length_c     30.555361
_cell_angle_alpha  89.9938
_cell_angle_beta   90.001158
_cell_angle_gamma 120.00538
loop_
_atom_site_label
_atom_site_type_symbol
_atom_site_fract_x
_atom_site_fract_y
_atom_site_fract_z
_atom_type_partial_charge
Co0 Co 0.24383 0.1291 0.21921 0.0
Co1 Co 0.25639 0.16882 0.19818 0.0
O2 O 0.24416 0.14913 0.23216 0.0
C3 C 0.25319 0.13471 0.31233 0.0
O4 O 0.26373 0.14948 0.30161 0.0
C5 C 0.22353 0.16468 0.20448 0.0
O6 O 0.2172 0.14918 0.19945 0.0
O7 O 0.24709 0.1572 0.14208 0.0
O8 O 0.24352 0.13272 0.15527 0.0
H9 H 0.29174 0.20219 0.07472 0.0
H10 H 0.21999 0.12863 0.2813 0.0
O11 O 0.24419 0.12494 0.28319 0.0
H12 H 0.18839 0.09273 0.16073 0.0
H13 H 0.22625 0.07096 0.24275 0.0
H14 H 0.2601 0.1191 0.15466 0.0
H15 H 0.21786 0.10624 0.15986 0.0
H16 H 0.22673 0.0963 0.25772 0.0
O17 O 0.23866 0.17382 0.20395 0.0
H18 H 0.27643 0.17757 0.11818 0.0
H19 H 0.26205 0.20209 0.20619 0.0
H20 H 0.25989 0.09397 0.13835 0.0
H21 H 0.19053 0.11521 0.28375 0.0
H22 H 0.24287 0.06966 0.18257 0.0
H23 H 0.17453 0.09715 0.22306 0.0
O24 O 0.26768 0.14023 0.21716 0.0
H25 H 0.25433 0.18333 0.35504 0.0
H26 H 0.28948 0.19199 0.22859 0.0
H27 H 0.3013 0.20569 0.2983 0.0
H28 H 0.28367 0.20141 0.36215 0.0
H29 H 0.24304 0.16975 0.28482 0.0
H30 H 0.2771 0.22695 0.16346 0.0
H31 H 0.29214 0.22711 0.0973 0.0
O32 O 0.2746 0.1647 0.19179 0.0
C33 C 0.24414 0.14337 0.12937 0.0
C34 C 0.28527 0.20228 0.10355 0.0
C35 C 0.27703 0.21617 0.15331 0.0
N36 N 0.26842 0.1884 0.1648 0.0
C37 C 0.2766 0.18838 0.12835 0.0
C38 C 0.26849 0.20204 0.1773 0.0
C39 C 0.28547 0.21625 0.11621 0.0
C40 C 0.2131 0.12066 0.25501 0.0
N41 N 0.22064 0.11819 0.22055 0.0
C42 C 0.19643 0.11315 0.25647 0.0
C43 C 0.18746 0.10304 0.22237 0.0
C44 C 0.19523 0.10057 0.18736 0.0
C45 C 0.21192 0.1083 0.18697 0.0
C46 C 0.2337 0.08146 0.22322 0.0
C47 C 0.25261 0.10855 0.17391 0.0
C48 C 0.23405 0.09586 0.23161 0.0
N49 N 0.24337 0.10915 0.20693 0.0
C50 C 0.25256 0.09437 0.16459 0.0
C51 C 0.24303 0.08074 0.18944 0.0
C52 C 0.27796 0.1539 0.20194 0.0
C53 C 0.26213 0.18532 0.32743 0.0
C54 C 0.28175 0.19 0.25625 0.0
C55 C 0.2885 0.19784 0.29562 0.0
C56 C 0.2786 0.19544 0.33142 0.0
N57 N 0.26559 0.18009 0.25257 0.0
C58 C 0.2558 0.17771 0.28752 0.0
Co59 Co 0.87019 0.11593 0.22065 0.0
Co60 Co 0.83229 0.08691 0.19292 0.0
O61 O 0.85127 0.09485 0.2303 0.0
C62 C 0.86418 0.11561 0.31528 0.0
O63 O 0.84895 0.10957 0.30599 0.0
C64 C 0.83743 0.05884 0.20248 0.0
O65 O 0.85296 0.06839 0.19962 0.0
O66 O 0.84559 0.09 0.13996 0.0
O67 O 0.86671 0.11399 0.15607 0.0
H68 H 0.80143 0.08783 0.06154 0.0
H69 H 0.87365 0.09231 0.27457 0.0
O70 O 0.8743 0.11869 0.28492 0.0
H71 H 0.91052 0.10438 0.15018 0.0
H72 H 0.92686 0.15975 0.24802 0.0
H73 H 0.87737 0.1439 0.16479 0.0
H74 H 0.89437 0.11759 0.1567 0.0
H75 H 0.90311 0.13306 0.25835 0.0
O76 O 0.82798 0.06442 0.19958 0.0
H77 H 0.825 0.09779 0.10968 0.0
H78 H 0.79931 0.05855 0.19598 0.0
H79 H 0.90086 0.17065 0.15318 0.0
H80 H 0.88975 0.07899 0.26965 0.0
H81 H 0.92584 0.17873 0.19498 0.0
H82 H 0.9083 0.08496 0.20701 0.0
O83 O 0.85687 0.12629 0.22487 0.0
H84 H 0.81342 0.06857 0.34654 0.0
H85 H 0.80789 0.09599 0.2172 0.0
H86 H 0.79197 0.09296 0.28333 0.0
H87 H 0.79466 0.07913 0.34858 0.0
H88 H 0.82926 0.07203 0.27992 0.0
H89 H 0.7755 0.0481 0.14856 0.0
H90 H 0.77644 0.06281 0.08088 0.0
O91 O 0.83561 0.10905 0.18536 0.0
C92 C 0.858 0.10305 0.12887 0.0
C93 C 0.80085 0.08133 0.09099 0.0
C94 C 0.78631 0.05902 0.1398 0.0
N95 N 0.81352 0.07882 0.15574 0.0
C96 C 0.81416 0.08693 0.11844 0.0
C97 C 0.79985 0.06498 0.16647 0.0
C98 C 0.78685 0.06728 0.10184 0.0
C99 C 0.88183 0.0951 0.24748 0.0
N100 N 0.8831 0.10574 0.21605 0.0
C101 C 0.89086 0.08746 0.24475 0.0
C102 C 0.90124 0.0908 0.20955 0.0
C103 C 0.90248 0.10167 0.17763 0.0
C104 C 0.89325 0.10907 0.18141 0.0
C105 C 0.91606 0.15635 0.22951 0.0
C106 C 0.88822 0.14727 0.18285 0.0
C107 C 0.90257 0.14126 0.23526 0.0
N108 N 0.88891 0.13686 0.21185 0.0
C109 C 0.90148 0.16246 0.17625 0.0
C110 C 0.91548 0.167 0.19975 0.0
C111 C 0.84426 0.12274 0.20303 0.0
C112 C 0.81211 0.07457 0.31826 0.0
C113 C 0.80919 0.09003 0.24552 0.0
C114 C 0.8001 0.0883 0.28283 0.0
C115 C 0.8016 0.08052 0.31941 0.0
N116 N 0.81946 0.08414 0.24462 0.0
C117 C 0.82099 0.07649 0.28036 0.0
Co118 Co 0.88752 0.75972 0.21929 0.0
Co119 Co 0.91474 0.74738 0.19626 0.0
O120 O 0.90725 0.75931 0.23155 0.0
C121 C 0.88421 0.74982 0.31186 0.0
O122 O 0.88949 0.74018 0.30044 0.0
C123 C 0.94351 0.78017 0.20466 0.0
O124 O 0.93436 0.78656 0.20071 0.0
O125 O 0.91253 0.75723 0.14113 0.0
O126 O 0.89163 0.76073 0.1552 0.0
H127 H 0.91289 0.71322 0.06979 0.0
H128 H 0.91072 0.78292 0.28286 0.0
O129 O 0.88273 0.75861 0.28337 0.0
H130 H 0.90661 0.81573 0.16544 0.0
H131 H 0.84674 0.77683 0.24562 0.0
H132 H 0.86142 0.74407 0.15399 0.0
H133 H 0.8907 0.78628 0.16229 0.0
H134 H 0.87164 0.77631 0.25982 0.0
O135 O 0.93749 0.76504 0.20281 0.0
H136 H 0.90356 0.72814 0.11487 0.0
H137 H 0.9423 0.74158 0.20289 0.0
H138 H 0.83648 0.74434 0.13844 0.0
H139 H 0.92671 0.81234 0.28757 0.0
H140 H 0.82899 0.7608 0.18445 0.0
H141 H 0.92475 0.82896 0.22848 0.0
O142 O 0.87485 0.73592 0.21557 0.0
H143 H 0.93147 0.74794 0.35231 0.0
H144 H 0.90454 0.71397 0.22421 0.0
H145 H 0.90643 0.70148 0.29265 0.0
H146 H 0.92 0.71851 0.35732 0.0
H147 H 0.92915 0.7599 0.28335 0.0
H148 H 0.95212 0.72691 0.15856 0.0
H149 H 0.93735 0.71254 0.09156 0.0
O150 O 0.89239 0.72923 0.18896 0.0
C151 C 0.90171 0.76034 0.12897 0.0
C152 C 0.91942 0.7194 0.09896 0.0
C153 C 0.94145 0.7271 0.14875 0.0
N154 N 0.92233 0.73566 0.16158 0.0
C155 C 0.91417 0.72784 0.12468 0.0
C156 C 0.93585 0.73543 0.17365 0.0
C157 C 0.93314 0.71904 0.11118 0.0
C158 C 0.90968 0.79007 0.25726 0.0
N159 N 0.89975 0.78289 0.22242 0.0
C160 C 0.91882 0.80672 0.26 0.0
C161 C 0.91773 0.81604 0.2268 0.0
C162 C 0.90757 0.80862 0.19139 0.0
C163 C 0.89863 0.79194 0.18971 0.0
C164 C 0.84988 0.76963 0.2253 0.0
C165 C 0.85829 0.75134 0.17401 0.0
C166 C 0.86395 0.76926 0.23324 0.0
N167 N 0.86803 0.76025 0.20758 0.0
C168 C 0.84413 0.75141 0.16511 0.0
C169 C 0.83993 0.76064 0.19096 0.0
C170 C 0.87822 0.72578 0.19932 0.0
C171 C 0.92557 0.74039 0.32432 0.0
C172 C 0.91038 0.72145 0.25224 0.0
C173 C 0.91147 0.71431 0.29088 0.0
C174 C 0.9191 0.72388 0.32714 0.0
N175 N 0.91675 0.73765 0.24972 0.0
C176 C 0.92428 0.74711 0.28511 0.0
Co177 Co 0.13162 0.24596 0.2795 0.0
Co178 Co 0.16983 0.25557 0.30583 0.0
O179 O 0.15079 0.24438 0.26882 0.0
C180 C 0.13721 0.25274 0.18503 0.0
O181 O 0.15218 0.26303 0.19457 0.0
C182 C 0.16535 0.22268 0.29506 0.0
O183 O 0.14981 0.21643 0.29861 0.0
O184 O 0.15679 0.24497 0.35894 0.0
O185 O 0.13531 0.24737 0.34402 0.0
H186 H 0.20075 0.28712 0.43744 0.0
H187 H 0.12867 0.21937 0.22423 0.0
O188 O 0.12739 0.24473 0.21526 0.0
H189 H 0.09238 0.19343 0.34909 0.0
H190 H 0.0745 0.23183 0.25375 0.0
H191 H 0.12386 0.26597 0.33689 0.0
H192 H 0.10795 0.22285 0.34339 0.0
H193 H 0.09863 0.22965 0.24228 0.0
O194 O 0.1746 0.23775 0.2979 0.0
H195 H 0.17705 0.2733 0.38981 0.0
H196 H 0.20307 0.26096 0.30121 0.0
H197 H 0.09997 0.26846 0.34962 0.0
H198 H 0.11315 0.1899 0.22833 0.0
H199 H 0.07505 0.2513 0.30788 0.0
H200 H 0.09489 0.17675 0.2912 0.0
O201 O 0.14447 0.26972 0.27616 0.0
H202 H 0.18804 0.25725 0.15087 0.0
H203 H 0.19369 0.28931 0.28233 0.0
H204 H 0.20913 0.30273 0.21596 0.0
H205 H 0.20638 0.28667 0.14963 0.0
H206 H 0.17269 0.24433 0.2178 0.0
H207 H 0.22701 0.27453 0.34809 0.0
H208 H 0.22597 0.2878 0.41667 0.0
O209 O 0.16602 0.274 0.31469 0.0
C210 C 0.14432 0.24538 0.37072 0.0
C211 C 0.20137 0.28142 0.40758 0.0
C212 C 0.2161 0.27434 0.35746 0.0
N213 N 0.18869 0.26642 0.34261 0.0
C214 C 0.18799 0.2736 0.38042 0.0
C215 C 0.20249 0.26664 0.3311 0.0
C216 C 0.21551 0.28178 0.39593 0.0
C217 C 0.12062 0.21373 0.25144 0.0
N218 N 0.11919 0.22281 0.28346 0.0
C219 C 0.11192 0.19704 0.25369 0.0
C220 C 0.1017 0.18967 0.28902 0.0
C221 C 0.1003 0.19902 0.32154 0.0
C222 C 0.10919 0.21567 0.31822 0.0
C223 C 0.08527 0.23934 0.27222 0.0
C224 C 0.11304 0.25839 0.31882 0.0
C225 C 0.09898 0.23818 0.26582 0.0
N226 N 0.11261 0.24757 0.2892 0.0
C227 C 0.09956 0.25989 0.32607 0.0
C228 C 0.08559 0.25027 0.3026 0.0
C229 C 0.15705 0.27883 0.29802 0.0
C230 C 0.18938 0.26437 0.17961 0.0
C231 C 0.19239 0.28224 0.25356 0.0
C232 C 0.20119 0.2899 0.21611 0.0
C233 C 0.19965 0.28088 0.17892 0.0
N234 N 0.18236 0.26603 0.25402 0.0
C235 C 0.18078 0.25711 0.21767 0.0
Co236 Co 0.75711 0.88593 0.27894 0.0
Co237 Co 0.74765 0.9145 0.30706 0.0
O238 O 0.75872 0.90676 0.26911 0.0
C239 C 0.7505 0.88561 0.18473 0.0
O240 O 0.7411 0.89134 0.19467 0.0
C241 C 0.78052 0.94297 0.29589 0.0
O242 O 0.78681 0.93369 0.29878 0.0
O243 O 0.75844 0.91191 0.35949 0.0
O244 O 0.75596 0.88807 0.34358 0.0
H245 H 0.71657 0.91347 0.4402 0.0
H246 H 0.78352 0.90968 0.22345 0.0
O247 O 0.75804 0.88296 0.2146 0.0
H248 H 0.80985 0.89891 0.34651 0.0
H249 H 0.77096 0.84285 0.25092 0.0
H250 H 0.73718 0.85802 0.33602 0.0
H251 H 0.78042 0.88512 0.34165 0.0
H252 H 0.77321 0.86924 0.24039 0.0
O253 O 0.76546 0.93712 0.2993 0.0
H254 H 0.7302 0.90373 0.39138 0.0
H255 H 0.74227 0.94238 0.30405 0.0
H256 H 0.73463 0.83158 0.34785 0.0
H257 H 0.813 0.92358 0.22672 0.0
H258 H 0.7516 0.82384 0.30511 0.0
H259 H 0.82635 0.91826 0.28869 0.0
O260 O 0.73336 0.8751 0.27611 0.0
H261 H 0.74553 0.93193 0.15341 0.0
H262 H 0.71382 0.90461 0.28463 0.0
H263 H 0.70021 0.907 0.21919 0.0
H264 H 0.71609 0.92078 0.153 0.0
H265 H 0.75864 0.92911 0.21937 0.0
H266 H 0.72889 0.95262 0.35213 0.0
H267 H 0.71585 0.93809 0.42068 0.0
O268 O 0.72922 0.89222 0.31578 0.0
C269 C 0.75808 0.89901 0.37067 0.0
C270 C 0.72217 0.91989 0.41037 0.0
C271 C 0.7291 0.94187 0.36097 0.0
N272 N 0.73695 0.92241 0.34476 0.0
C273 C 0.72988 0.91441 0.38254 0.0
C274 C 0.7367 0.93603 0.33393 0.0
C275 C 0.72179 0.93371 0.39941 0.0
C276 C 0.78925 0.90717 0.25026 0.0
N277 N 0.78027 0.89657 0.28223 0.0
C278 C 0.80595 0.91514 0.25205 0.0
C279 C 0.81343 0.91217 0.28687 0.0
C280 C 0.80418 0.90133 0.31935 0.0
C281 C 0.78751 0.8936 0.31651 0.0
C282 C 0.76354 0.8461 0.26984 0.0
C283 C 0.7447 0.85481 0.31755 0.0
C284 C 0.76474 0.86102 0.26398 0.0
N285 N 0.75545 0.86524 0.28791 0.0
C286 C 0.74316 0.83978 0.32427 0.0
C287 C 0.75267 0.83544 0.30025 0.0
C288 C 0.72431 0.87848 0.29857 0.0
C289 C 0.73848 0.92595 0.1821 0.0
C290 C 0.72082 0.91056 0.2559 0.0
C291 C 0.71304 0.91192 0.21898 0.0
C292 C 0.72196 0.91966 0.18187 0.0
N293 N 0.73703 0.91677 0.2559 0.0
C294 C 0.74585 0.92439 0.21963 0.0
Co295 Co 0.11654 0.87199 0.28061 0.0
Co296 Co 0.08822 0.83338 0.30622 0.0
O297 O 0.09611 0.8525 0.26932 0.0
C298 C 0.11896 0.8662 0.18647 0.0
O299 O 0.1141 0.85121 0.19623 0.0
C300 C 0.05977 0.8378 0.29536 0.0
O301 O 0.06905 0.85334 0.29934 0.0
O302 O 0.09047 0.84616 0.35978 0.0
O303 O 0.11344 0.86873 0.34512 0.0
H304 H 0.08864 0.80212 0.43728 0.0
H305 H 0.09309 0.87379 0.22178 0.0
O306 O 0.12034 0.87599 0.21635 0.0
H307 H 0.1014 0.91094 0.34289 0.0
H308 H 0.1591 0.92932 0.25486 0.0
H309 H 0.14356 0.88061 0.34163 0.0
H310 H 0.11592 0.89597 0.3412 0.0
H311 H 0.13321 0.9048 0.24202 0.0
O312 O 0.06562 0.82857 0.298 0.0
H313 H 0.09861 0.82593 0.39005 0.0
H314 H 0.06042 0.80013 0.30081 0.0
H315 H 0.1695 0.9049 0.35579 0.0
H316 H 0.07847 0.88868 0.22187 0.0
H317 H 0.17742 0.92948 0.31223 0.0
H318 H 0.08255 0.90737 0.28284 0.0
O319 O 0.12798 0.85959 0.28017 0.0
H320 H 0.07208 0.8156 0.15079 0.0
H321 H 0.09826 0.80967 0.28236 0.0
H322 H 0.09645 0.79445 0.21571 0.0
H323 H 0.08325 0.79735 0.14932 0.0
H324 H 0.07429 0.83072 0.21801 0.0
H325 H 0.04996 0.77607 0.34726 0.0
H326 H 0.06414 0.77695 0.41597 0.0
O327 O 0.11041 0.83723 0.31532 0.0
C328 C 0.10263 0.85932 0.3717 0.0
C329 C 0.08237 0.80157 0.40737 0.0
C330 C 0.06066 0.78696 0.35687 0.0
N331 N 0.08016 0.81441 0.34259 0.0
C332 C 0.08798 0.81501 0.38044 0.0
C333 C 0.06662 0.80064 0.33076 0.0
C334 C 0.06862 0.78746 0.39541 0.0
C335 C 0.09505 0.88203 0.24819 0.0
N336 N 0.10537 0.88402 0.28139 0.0
C337 C 0.08668 0.89037 0.24816 0.0
C338 C 0.08895 0.90083 0.28242 0.0
C339 C 0.09952 0.90282 0.31616 0.0
C340 C 0.10766 0.89426 0.31512 0.0
C341 C 0.15578 0.91869 0.2741 0.0
C342 C 0.14688 0.89128 0.32268 0.0
C343 C 0.14115 0.90476 0.26691 0.0
N344 N 0.13683 0.89132 0.29124 0.0
C345 C 0.16161 0.90499 0.33078 0.0
C346 C 0.16605 0.91878 0.3063 0.0
C347 C 0.12438 0.84665 0.3004 0.0
C348 C 0.0778 0.8142 0.17956 0.0
C349 C 0.09254 0.81104 0.25358 0.0
C350 C 0.09152 0.80236 0.21596 0.0
C351 C 0.0841 0.80398 0.17873 0.0
N352 N 0.0863 0.82102 0.25416 0.0
C353 C 0.07903 0.82267 0.21778 0.0
Co354 Co 0.75635 0.87011 0.77922 0.0
Co355 Co 0.74679 0.83197 0.8064 0.0
O356 O 0.75799 0.85093 0.76902 0.0
C357 C 0.75009 0.86411 0.68485 0.0
O358 O 0.74067 0.84895 0.69447 0.0
C359 C 0.77968 0.83642 0.79563 0.0
O360 O 0.78593 0.85198 0.79885 0.0
O361 O 0.75744 0.84515 0.85924 0.0
O362 O 0.75502 0.86659 0.84378 0.0
H363 H 0.71526 0.8014 0.93845 0.0
H364 H 0.78294 0.87299 0.7241 0.0
O365 O 0.75747 0.87424 0.71496 0.0
H366 H 0.80889 0.90964 0.84826 0.0
H367 H 0.77025 0.92713 0.7525 0.0
H368 H 0.73632 0.8779 0.83643 0.0
H369 H 0.77947 0.89401 0.8427 0.0
H370 H 0.77253 0.90303 0.74144 0.0
O371 O 0.76462 0.82718 0.79874 0.0
H372 H 0.72909 0.82498 0.89038 0.0
H373 H 0.7414 0.79872 0.80258 0.0
H374 H 0.73374 0.90175 0.84876 0.0
H375 H 0.8124 0.88855 0.72806 0.0
H376 H 0.75079 0.9266 0.80662 0.0
H377 H 0.82556 0.907 0.79058 0.0
O378 O 0.73262 0.85721 0.77583 0.0
H379 H 0.7451 0.81297 0.65232 0.0
H380 H 0.71301 0.80815 0.78305 0.0
H381 H 0.69959 0.79242 0.71709 0.0
H382 H 0.71566 0.79475 0.65114 0.0
H383 H 0.75803 0.82864 0.71879 0.0
H384 H 0.72782 0.77489 0.84991 0.0
H385 H 0.71456 0.77612 0.9183 0.0
O386 O 0.72834 0.8358 0.81503 0.0
C387 C 0.75709 0.85768 0.87067 0.0
C388 C 0.72096 0.8007 0.90868 0.0
C389 C 0.72802 0.78583 0.85901 0.0
N390 N 0.73596 0.81321 0.84356 0.0
C391 C 0.72878 0.81401 0.88127 0.0
C392 C 0.73573 0.79938 0.8324 0.0
C393 C 0.72058 0.78653 0.89737 0.0
C394 C 0.78858 0.88112 0.75115 0.0
N395 N 0.7795 0.88262 0.78304 0.0
C396 C 0.80527 0.88984 0.75333 0.0
C397 C 0.81264 0.90017 0.78846 0.0
C398 C 0.8033 0.90164 0.82086 0.0
C399 C 0.78664 0.89271 0.81762 0.0
C400 C 0.76278 0.91639 0.77115 0.0
C401 C 0.74386 0.88869 0.81819 0.0
C402 C 0.764 0.9027 0.76499 0.0
N403 N 0.75467 0.88911 0.78858 0.0
C404 C 0.74231 0.90215 0.82521 0.0
C405 C 0.75186 0.91608 0.80152 0.0
C406 C 0.72349 0.84471 0.79796 0.0
C407 C 0.73797 0.81181 0.6809 0.0
C408 C 0.72009 0.8093 0.75442 0.0
C409 C 0.71242 0.80031 0.71721 0.0
C410 C 0.72145 0.80161 0.68023 0.0
N411 N 0.73631 0.81927 0.75484 0.0
C412 C 0.74524 0.82059 0.71872 0.0
Co413 Co 0.12997 0.88746 0.78125 0.0
Co414 Co 0.16943 0.91512 0.80373 0.0
O415 O 0.14983 0.90747 0.76908 0.0
C416 C 0.13585 0.8841 0.68793 0.0
O417 O 0.15068 0.88856 0.69858 0.0
C418 C 0.1649 0.94367 0.79679 0.0
O419 O 0.14935 0.93436 0.80033 0.0
O420 O 0.15748 0.91239 0.8595 0.0
O421 O 0.13334 0.89113 0.84533 0.0
H422 H 0.20254 0.91336 0.9282 0.0
H423 H 0.1291 0.91078 0.71979 0.0
O424 O 0.12602 0.88315 0.71712 0.0
H425 H 0.09252 0.90514 0.83992 0.0
H426 H 0.07218 0.84611 0.75615 0.0
H427 H 0.1203 0.86096 0.84488 0.0
H428 H 0.10661 0.88974 0.84053 0.0
H429 H 0.09726 0.87136 0.74212 0.0
O430 O 0.17413 0.93779 0.79836 0.0
H431 H 0.17808 0.90382 0.88387 0.0
H432 H 0.20255 0.94311 0.79697 0.0
H433 H 0.09543 0.83566 0.86025 0.0
H434 H 0.1151 0.92626 0.71758 0.0
H435 H 0.07114 0.82809 0.8157 0.0
H436 H 0.09669 0.92353 0.77805 0.0
O437 O 0.14153 0.87516 0.78297 0.0
H438 H 0.18441 0.93228 0.6474 0.0
H439 H 0.19321 0.90593 0.77394 0.0
H440 H 0.20732 0.90829 0.70465 0.0
H441 H 0.20297 0.92157 0.64075 0.0
H442 H 0.17043 0.92951 0.7172 0.0
H443 H 0.22723 0.95314 0.84058 0.0
H444 H 0.22734 0.93819 0.90663 0.0
O445 O 0.16569 0.8929 0.80973 0.0
C446 C 0.14372 0.9012 0.87169 0.0
C447 C 0.20265 0.91996 0.89944 0.0
C448 C 0.2165 0.9423 0.85029 0.0
N449 N 0.18889 0.92286 0.83776 0.0
C450 C 0.18885 0.9146 0.87414 0.0
C451 C 0.20247 0.93659 0.8258 0.0
C452 C 0.21656 0.9339 0.88734 0.0
C453 C 0.12098 0.9094 0.74598 0.0
N454 N 0.11865 0.89934 0.78018 0.0
C455 C 0.11314 0.91826 0.74466 0.0
C456 C 0.10284 0.91674 0.77863 0.0
C457 C 0.10051 0.90644 0.81339 0.0
C458 C 0.10857 0.89779 0.81364 0.0
C459 C 0.08268 0.84929 0.77582 0.0
C460 C 0.10976 0.85779 0.82549 0.0
C461 C 0.09693 0.86355 0.76796 0.0
N462 N 0.11021 0.86767 0.79281 0.0
C463 C 0.09572 0.84343 0.83428 0.0
C464 C 0.0821 0.83918 0.80925 0.0
C465 C 0.15517 0.87873 0.79876 0.0
C466 C 0.18643 0.9265 0.67503 0.0
C467 C 0.19119 0.91164 0.74625 0.0
C468 C 0.19926 0.91299 0.70712 0.0
C469 C 0.19682 0.92046 0.6713 0.0
N470 N 0.18101 0.91758 0.74968 0.0
C471 C 0.17859 0.92495 0.7147 0.0
Co472 Co 0.11665 0.24494 0.77934 0.0
Co473 Co 0.08847 0.25533 0.8063 0.0
O474 O 0.09629 0.24424 0.76865 0.0
C475 C 0.11842 0.25352 0.68599 0.0
O476 O 0.11276 0.26292 0.69671 0.0
C477 C 0.0601 0.22247 0.79547 0.0
O478 O 0.06942 0.21627 0.79973 0.0
O479 O 0.09074 0.24456 0.85924 0.0
O480 O 0.11344 0.2445 0.84384 0.0
H481 H 0.08908 0.28649 0.93875 0.0
H482 H 0.09311 0.22035 0.71924 0.0
O483 O 0.12058 0.24539 0.7151 0.0
H484 H 0.10109 0.19018 0.83728 0.0
H485 H 0.15903 0.23014 0.75084 0.0
H486 H 0.14357 0.26257 0.84122 0.0
H487 H 0.11581 0.21969 0.83766 0.0
H488 H 0.13324 0.22907 0.73868 0.0
O489 O 0.06589 0.23755 0.79798 0.0
H490 H 0.09899 0.27284 0.89055 0.0
H491 H 0.06065 0.26077 0.80209 0.0
H492 H 0.1694 0.2639 0.85473 0.0
H493 H 0.07828 0.19084 0.71728 0.0
H494 H 0.17728 0.2476 0.80935 0.0
H495 H 0.0822 0.17556 0.7767 0.0
O496 O 0.12826 0.26879 0.78049 0.0
H497 H 0.07174 0.25753 0.65188 0.0
H498 H 0.09864 0.28919 0.78352 0.0
H499 H 0.09664 0.30285 0.71765 0.0
H500 H 0.08307 0.28699 0.65125 0.0
H501 H 0.07416 0.24437 0.71828 0.0
H502 H 0.05026 0.27419 0.8495 0.0
H503 H 0.06454 0.28723 0.91832 0.0
O504 O 0.11069 0.27363 0.81553 0.0
C505 C 0.1027 0.24314 0.87061 0.0
C506 C 0.08277 0.28089 0.9088 0.0
C507 C 0.06098 0.27397 0.85874 0.0
N508 N 0.08047 0.26609 0.84342 0.0
C509 C 0.08835 0.27317 0.88132 0.0
C510 C 0.0669 0.26635 0.83207 0.0
C511 C 0.069 0.28129 0.89734 0.0
C512 C 0.095 0.21378 0.74497 0.0
N513 N 0.10534 0.22173 0.77846 0.0
C514 C 0.08651 0.19707 0.74379 0.0
C515 C 0.08869 0.18851 0.77718 0.0
C516 C 0.09928 0.1967 0.81121 0.0
C517 C 0.10754 0.21342 0.81134 0.0
C518 C 0.15572 0.23727 0.77089 0.0
C519 C 0.14687 0.25537 0.82149 0.0
C520 C 0.14115 0.23674 0.76409 0.0
N521 N 0.13685 0.24566 0.78942 0.0
C522 C 0.16153 0.25621 0.82922 0.0
C523 C 0.16595 0.24707 0.80372 0.0
C524 C 0.12469 0.27811 0.80092 0.0
C525 C 0.07762 0.26457 0.68066 0.0
C526 C 0.09278 0.28221 0.7547 0.0
C527 C 0.09164 0.29001 0.71754 0.0
C528 C 0.08401 0.2811 0.6803 0.0
N529 N 0.08647 0.26598 0.75482 0.0
C530 C 0.07897 0.25717 0.71844 0.0
Co531 Co 0.87234 0.75614 0.71891 0.0
Co532 Co 0.83322 0.74524 0.69772 0.0
O533 O 0.85302 0.75728 0.73135 0.0
C534 C 0.86765 0.7497 0.81371 0.0
O535 O 0.85263 0.73936 0.80481 0.0
C536 C 0.83773 0.77831 0.7045 0.0
O537 O 0.85325 0.78458 0.70001 0.0
O538 O 0.845 0.75451 0.64186 0.0
O539 O 0.86787 0.75438 0.65474 0.0
H540 H 0.79951 0.7102 0.57426 0.0
H541 H 0.87526 0.78262 0.77466 0.0
O542 O 0.87727 0.75764 0.78297 0.0
H543 H 0.90973 0.80877 0.64673 0.0
H544 H 0.93008 0.7717 0.74012 0.0
H545 H 0.88029 0.73672 0.65963 0.0
H546 H 0.89486 0.77936 0.65323 0.0
H547 H 0.90565 0.77314 0.7539 0.0
O548 O 0.82853 0.76319 0.7035 0.0
H549 H 0.8242 0.72525 0.6176 0.0
H550 H 0.80012 0.74006 0.70589 0.0
H551 H 0.90446 0.73496 0.64461 0.0
H552 H 0.89009 0.81208 0.76976 0.0
H553 H 0.9296 0.75254 0.68502 0.0
H554 H 0.90743 0.82534 0.70534 0.0
O555 O 0.86016 0.73237 0.72278 0.0
H556 H 0.81874 0.74762 0.8544 0.0
H557 H 0.80971 0.71224 0.72822 0.0
H558 H 0.79585 0.7006 0.79787 0.0
H559 H 0.80031 0.71834 0.86158 0.0
H560 H 0.83249 0.75873 0.78426 0.0
H561 H 0.77521 0.72529 0.66326 0.0
H562 H 0.77478 0.71016 0.59702 0.0
O563 O 0.8369 0.72665 0.69126 0.0
C564 C 0.85786 0.75508 0.62896 0.0
C565 C 0.79954 0.71672 0.60311 0.0
C566 C 0.78591 0.72521 0.65303 0.0
N567 N 0.81359 0.73346 0.66436 0.0
C568 C 0.81348 0.72524 0.62784 0.0
C569 C 0.80006 0.73359 0.67696 0.0
C570 C 0.78567 0.71671 0.61588 0.0
C571 C 0.88292 0.78831 0.74677 0.0
N572 N 0.88423 0.77928 0.71435 0.0
C573 C 0.89123 0.80499 0.74407 0.0
C574 C 0.90093 0.81242 0.70788 0.0
C575 C 0.90221 0.80313 0.67495 0.0
C576 C 0.89371 0.78648 0.67874 0.0
C577 C 0.91921 0.764 0.72225 0.0
C578 C 0.8912 0.74448 0.67715 0.0
C579 C 0.90533 0.76474 0.72996 0.0
N580 N 0.89157 0.7551 0.70737 0.0
C581 C 0.90484 0.7434 0.66859 0.0
C582 C 0.91893 0.75325 0.69132 0.0
C583 C 0.84682 0.72256 0.7051 0.0
C584 C 0.81666 0.73977 0.82684 0.0
C585 C 0.81178 0.72003 0.75582 0.0
C586 C 0.80385 0.71337 0.79515 0.0
C587 C 0.80635 0.72333 0.83087 0.0
N588 N 0.82188 0.73616 0.75211 0.0
C589 C 0.82436 0.746 0.78698 0.0
Co590 Co 0.24548 0.11702 0.71986 0.0
Co591 Co 0.25576 0.08861 0.69535 0.0
O592 O 0.24464 0.09668 0.73196 0.0
C593 C 0.25412 0.11984 0.81356 0.0
O594 O 0.26421 0.11496 0.80345 0.0
C595 C 0.22297 0.0601 0.70749 0.0
O596 O 0.2166 0.06927 0.70329 0.0
O597 O 0.24499 0.0905 0.64184 0.0
O598 O 0.24534 0.11352 0.65548 0.0
H599 H 0.28693 0.08833 0.56391 0.0
H600 H 0.22053 0.09386 0.77998 0.0
O601 O 0.24559 0.12117 0.78398 0.0
H602 H 0.19106 0.10136 0.65907 0.0
H603 H 0.2307 0.15961 0.74448 0.0
H604 H 0.26346 0.14365 0.65741 0.0
H605 H 0.22057 0.11595 0.65972 0.0
H606 H 0.22948 0.13385 0.75827 0.0
O607 O 0.23806 0.06603 0.7046 0.0
H608 H 0.27323 0.09852 0.61089 0.0
H609 H 0.26138 0.06094 0.70187 0.0
H610 H 0.26494 0.16946 0.64229 0.0
H611 H 0.19102 0.07918 0.78092 0.0
H612 H 0.24848 0.17759 0.686 0.0
H613 H 0.17609 0.08285 0.72006 0.0
O614 O 0.26933 0.12857 0.71943 0.0
H615 H 0.25804 0.07338 0.85134 0.0
H616 H 0.28963 0.09893 0.71853 0.0
H617 H 0.30332 0.09757 0.78514 0.0
H618 H 0.2875 0.08469 0.85214 0.0
H619 H 0.24485 0.07515 0.78415 0.0
H620 H 0.27485 0.05027 0.6557 0.0
H621 H 0.28781 0.06403 0.58624 0.0
O622 O 0.27401 0.11077 0.68516 0.0
C623 C 0.24388 0.10254 0.6294 0.0
C624 C 0.28137 0.08225 0.59416 0.0
C625 C 0.27457 0.06088 0.64564 0.0
N626 N 0.26658 0.0804 0.65921 0.0
C627 C 0.27362 0.08799 0.62095 0.0
C628 C 0.26692 0.06696 0.6716 0.0
C629 C 0.28184 0.06861 0.60668 0.0
C630 C 0.21412 0.09564 0.7536 0.0
N631 N 0.22227 0.10578 0.71989 0.0
C632 C 0.19741 0.08724 0.75422 0.0
C633 C 0.18904 0.08928 0.72002 0.0
C634 C 0.19743 0.09965 0.68576 0.0
C635 C 0.21414 0.10784 0.68622 0.0
C636 C 0.23791 0.15619 0.72516 0.0
C637 C 0.25619 0.14707 0.67642 0.0
C638 C 0.2373 0.14163 0.73289 0.0
N639 N 0.24631 0.1372 0.70848 0.0
C640 C 0.25711 0.16171 0.66778 0.0
C641 C 0.24789 0.16627 0.69234 0.0
C642 C 0.27859 0.12485 0.69923 0.0
C643 C 0.26506 0.07897 0.8223 0.0
C644 C 0.28266 0.09335 0.74759 0.0
C645 C 0.29048 0.09258 0.78518 0.0
C646 C 0.28159 0.08534 0.82275 0.0
N647 N 0.26643 0.08705 0.74737 0.0
C648 C 0.25765 0.07994 0.7841 0.0
Co649 Co 0.8871 0.13095 0.72086 0.0
Co650 Co 0.91597 0.16879 0.69198 0.0
O651 O 0.90811 0.15001 0.73013 0.0
C652 C 0.88717 0.13744 0.81509 0.0
O653 O 0.89316 0.1526 0.80511 0.0
C654 C 0.94419 0.16395 0.70267 0.0
O655 O 0.93473 0.14839 0.70066 0.0
O656 O 0.91299 0.15527 0.63959 0.0
O657 O 0.88908 0.13412 0.65617 0.0
H658 H 0.91494 0.19891 0.55897 0.0
H659 H 0.91075 0.12794 0.77589 0.0
O660 O 0.88427 0.12717 0.78525 0.0
H661 H 0.89913 0.09055 0.65308 0.0
H662 H 0.84356 0.07429 0.74989 0.0
H663 H 0.8591 0.12329 0.66456 0.0
H664 H 0.88573 0.10656 0.65819 0.0
H665 H 0.87015 0.09821 0.75977 0.0
O666 O 0.9385 0.17329 0.69903 0.0
H667 H 0.90509 0.17557 0.60797 0.0
H668 H 0.94417 0.20188 0.69426 0.0
H669 H 0.83244 0.09961 0.65338 0.0
H670 H 0.92426 0.112 0.77238 0.0
H671 H 0.82452 0.07487 0.69623 0.0
H672 H 0.91851 0.09318 0.71054 0.0
O673 O 0.87658 0.14415 0.7239 0.0
H674 H 0.93414 0.18846 0.84516 0.0
H675 H 0.90664 0.19312 0.71475 0.0
H676 H 0.90949 0.2093 0.78016 0.0
H677 H 0.92337 0.20706 0.84595 0.0
H678 H 0.93084 0.17235 0.77924 0.0
H679 H 0.95451 0.22546 0.64598 0.0
H680 H 0.93982 0.22409 0.57787 0.0
O681 O 0.89379 0.16527 0.6839 0.0
C682 C 0.89996 0.14279 0.62877 0.0
C683 C 0.92142 0.19967 0.58861 0.0
C684 C 0.94364 0.21456 0.63742 0.0
N685 N 0.92398 0.18737 0.65409 0.0
C686 C 0.91589 0.1865 0.61655 0.0
C687 C 0.93775 0.20115 0.66457 0.0
C688 C 0.93539 0.21379 0.59922 0.0
C689 C 0.90806 0.11965 0.74914 0.0
N690 N 0.89744 0.11815 0.71737 0.0
C691 C 0.9158 0.11071 0.74721 0.0
C692 C 0.91259 0.10018 0.71246 0.0
C693 C 0.90174 0.09871 0.68019 0.0
C694 C 0.89423 0.10786 0.68316 0.0
C695 C 0.84689 0.08498 0.73091 0.0
C696 C 0.8558 0.11254 0.68306 0.0
C697 C 0.86193 0.09857 0.7364 0.0
N698 N 0.86625 0.11209 0.7124 0.0
C699 C 0.84066 0.09918 0.67671 0.0
C700 C 0.83621 0.08531 0.7008 0.0
C701 C 0.88008 0.15661 0.7014 0.0
C702 C 0.92812 0.18958 0.81665 0.0
C703 C 0.91262 0.19201 0.74331 0.0
C704 C 0.91425 0.20125 0.78021 0.0
C705 C 0.92205 0.19999 0.81709 0.0
N706 N 0.91863 0.18184 0.7431 0.0
C707 C 0.92629 0.18055 0.77914 0.0
Co708 Co 0.90991 0.46195 0.55036 0.0
Co709 Co 0.9239 0.50225 0.53321 0.0
O710 O 0.91092 0.48217 0.56469 0.0
C711 C 0.92035 0.46598 0.64363 0.0
O712 O 0.93283 0.47974 0.63278 0.0
C713 C 0.8911 0.49834 0.53564 0.0
O714 O 0.88482 0.48292 0.52896 0.0
O715 O 0.91567 0.49155 0.47534 0.0
O716 O 0.90957 0.46602 0.48616 0.0
H717 H 0.9624 0.53744 0.41728 0.0
H718 H 0.88662 0.46221 0.61324 0.0
O719 O 0.91008 0.45742 0.61472 0.0
H720 H 0.85406 0.42705 0.4926 0.0
H721 H 0.8908 0.40339 0.57182 0.0
H722 H 0.92523 0.45146 0.48414 0.0
H723 H 0.88347 0.43969 0.49134 0.0
H724 H 0.8922 0.42908 0.58818 0.0
O725 O 0.90623 0.50741 0.53724 0.0
H726 H 0.94598 0.51219 0.45723 0.0
H727 H 0.92946 0.53543 0.54317 0.0
H728 H 0.92409 0.42598 0.46645 0.0
H729 H 0.85723 0.44966 0.61612 0.0
H730 H 0.90678 0.40171 0.51046 0.0
H731 H 0.84075 0.43199 0.55539 0.0
O732 O 0.93379 0.47243 0.54753 0.0
H733 H 0.91908 0.51438 0.69058 0.0
H734 H 0.95642 0.52473 0.5685 0.0
H735 H 0.96701 0.53735 0.64017 0.0
H736 H 0.94827 0.53222 0.70183 0.0
H737 H 0.90903 0.5019 0.61844 0.0
H738 H 0.9456 0.5609 0.50391 0.0
H739 H 0.96227 0.56204 0.44056 0.0
O740 O 0.94191 0.49787 0.52873 0.0
C741 C 0.91157 0.47752 0.46128 0.0
C742 C 0.95519 0.5371 0.44484 0.0
C743 C 0.94574 0.55026 0.49341 0.0
N744 N 0.93675 0.52231 0.50246 0.0
C745 C 0.94588 0.52284 0.46762 0.0
C746 C 0.93657 0.53578 0.5154 0.0
C747 C 0.9551 0.55089 0.4579 0.0
C748 C 0.87952 0.45441 0.5869 0.0
N749 N 0.88675 0.45168 0.55216 0.0
C750 C 0.86289 0.44739 0.58862 0.0
C751 C 0.85365 0.4375 0.5545 0.0
C752 C 0.86111 0.43474 0.51923 0.0
C753 C 0.87777 0.44198 0.5186 0.0
C754 C 0.89837 0.41387 0.55237 0.0
C755 C 0.9176 0.44093 0.50329 0.0
C756 C 0.89925 0.42847 0.56155 0.0
N757 N 0.90872 0.44173 0.53698 0.0
C758 C 0.91704 0.42654 0.49319 0.0
C759 C 0.90734 0.41294 0.51793 0.0
C760 C 0.94462 0.48644 0.5359 0.0
C761 C 0.92736 0.51673 0.66395 0.0
C762 C 0.94821 0.52238 0.59519 0.0
C763 C 0.95427 0.5296 0.63568 0.0
C764 C 0.94374 0.52673 0.67025 0.0
N765 N 0.93212 0.51262 0.58922 0.0
C766 C 0.92174 0.50974 0.62298 0.0
Co767 Co 0.53749 0.44888 0.55685 0.0
Co768 Co 0.4989 0.42047 0.53121 0.0
O769 O 0.51799 0.42847 0.56828 0.0
C770 C 0.53165 0.45138 0.65088 0.0
O771 O 0.5167 0.44668 0.64107 0.0
C772 C 0.50349 0.39226 0.54402 0.0
O773 O 0.51903 0.40172 0.54123 0.0
O774 O 0.51174 0.42266 0.47779 0.0
O775 O 0.53427 0.44567 0.49241 0.0
H776 H 0.46772 0.42067 0.39968 0.0
H777 H 0.5394 0.42565 0.61643 0.0
O778 O 0.54143 0.45274 0.62103 0.0
H779 H 0.57651 0.43367 0.49545 0.0
H780 H 0.5948 0.49149 0.58254 0.0
H781 H 0.54614 0.47579 0.4954 0.0
H782 H 0.56144 0.4481 0.4965 0.0
H783 H 0.57028 0.46562 0.59558 0.0
O784 O 0.49411 0.39788 0.53983 0.0
H785 H 0.49149 0.43075 0.44713 0.0
H786 H 0.46569 0.39258 0.53647 0.0
H787 H 0.57044 0.5017 0.48104 0.0
H788 H 0.55441 0.41115 0.61702 0.0
H789 H 0.595 0.5097 0.52479 0.0
H790 H 0.57307 0.41507 0.5561 0.0
O791 O 0.52509 0.46031 0.55681 0.0
H792 H 0.48102 0.40467 0.68674 0.0
H793 H 0.4751 0.43047 0.5543 0.0
H794 H 0.45981 0.42876 0.6207 0.0
H795 H 0.46269 0.41576 0.68751 0.0
H796 H 0.49621 0.40676 0.61976 0.0
H797 H 0.44167 0.38203 0.48982 0.0
H798 H 0.44257 0.39613 0.42094 0.0
O799 O 0.50274 0.44264 0.52171 0.0
C800 C 0.5249 0.43482 0.46587 0.0
C801 C 0.46716 0.41444 0.42967 0.0
C802 C 0.45255 0.39274 0.48022 0.0
N803 N 0.47996 0.41233 0.49467 0.0
C804 C 0.48058 0.42011 0.45672 0.0
C805 C 0.4662 0.39876 0.50646 0.0
C806 C 0.45306 0.40066 0.4416 0.0
C807 C 0.54763 0.42755 0.59005 0.0
N808 N 0.54955 0.43772 0.55649 0.0
C809 C 0.55604 0.41925 0.59046 0.0
C810 C 0.56648 0.42143 0.55623 0.0
C811 C 0.5684 0.43184 0.52215 0.0
C812 C 0.55978 0.43993 0.52282 0.0
C813 C 0.58418 0.48812 0.56322 0.0
C814 C 0.5568 0.47914 0.51444 0.0
C815 C 0.57025 0.47351 0.57052 0.0
N816 N 0.55682 0.46915 0.54609 0.0
C817 C 0.57052 0.49385 0.50622 0.0
C818 C 0.58429 0.49834 0.5308 0.0
C819 C 0.51217 0.45666 0.53637 0.0
C820 C 0.47961 0.41031 0.65778 0.0
C821 C 0.47646 0.42482 0.58327 0.0
C822 C 0.46774 0.42387 0.62075 0.0
C823 C 0.46935 0.41656 0.65822 0.0
N824 N 0.48647 0.41863 0.58306 0.0
C825 C 0.48813 0.41146 0.61969 0.0
Co826 Co 0.55466 0.09202 0.55233 0.0
Co827 Co 0.58199 0.07974 0.53071 0.0
O828 O 0.57449 0.09188 0.56492 0.0
C829 C 0.5511 0.08268 0.64543 0.0
O830 O 0.55541 0.07221 0.6346 0.0
C831 C 0.61067 0.11267 0.53751 0.0
O832 O 0.60144 0.11898 0.53341 0.0
O833 O 0.5795 0.08899 0.47471 0.0
O834 O 0.55848 0.09233 0.48833 0.0
H835 H 0.58001 0.04448 0.40702 0.0
H836 H 0.57801 0.11601 0.61419 0.0
O837 O 0.55025 0.09166 0.61636 0.0
H838 H 0.57319 0.14736 0.49377 0.0
H839 H 0.51381 0.10917 0.57664 0.0
H840 H 0.52827 0.07553 0.48822 0.0
H841 H 0.55746 0.11787 0.49299 0.0
H842 H 0.53884 0.10894 0.59116 0.0
O843 O 0.60472 0.09755 0.53625 0.0
H844 H 0.57066 0.05969 0.45073 0.0
H845 H 0.60973 0.07425 0.53824 0.0
H846 H 0.5032 0.0755 0.47237 0.0
H847 H 0.59381 0.14548 0.61657 0.0
H848 H 0.49583 0.09241 0.51676 0.0
H849 H 0.5915 0.16136 0.55596 0.0
O850 O 0.54209 0.06817 0.55045 0.0
H851 H 0.59883 0.08188 0.68735 0.0
H852 H 0.57229 0.04668 0.56101 0.0
H853 H 0.57434 0.0349 0.6306 0.0
H854 H 0.58772 0.05255 0.6944 0.0
H855 H 0.59636 0.09312 0.61725 0.0
H856 H 0.61957 0.0593 0.49527 0.0
H857 H 0.60464 0.04422 0.42923 0.0
O858 O 0.55969 0.06143 0.52454 0.0
C859 C 0.5685 0.0918 0.46223 0.0
C860 C 0.5866 0.05097 0.43579 0.0
C861 C 0.60882 0.05931 0.48528 0.0
N862 N 0.58959 0.0678 0.49711 0.0
C863 C 0.58135 0.05958 0.46072 0.0
C864 C 0.60321 0.0678 0.50941 0.0
C865 C 0.60043 0.05084 0.44824 0.0
C866 C 0.57681 0.12284 0.58793 0.0
N867 N 0.56679 0.11523 0.55355 0.0
C868 C 0.58584 0.13952 0.58935 0.0
C869 C 0.58456 0.14842 0.55529 0.0
C870 C 0.57431 0.14057 0.52037 0.0
C871 C 0.56547 0.12387 0.52002 0.0
C872 C 0.5169 0.10177 0.55703 0.0
C873 C 0.52519 0.08298 0.50754 0.0
C874 C 0.53104 0.10156 0.56517 0.0
N875 N 0.53505 0.0923 0.5404 0.0
C876 C 0.51095 0.08289 0.49848 0.0
C877 C 0.50682 0.09236 0.52342 0.0
C878 C 0.54553 0.05796 0.53503 0.0
C879 C 0.59301 0.07406 0.65976 0.0
C880 C 0.57805 0.05443 0.58864 0.0
C881 C 0.57923 0.0477 0.62794 0.0
C882 C 0.58675 0.05761 0.66371 0.0
N883 N 0.58422 0.07058 0.585 0.0
C884 C 0.59163 0.08037 0.61992 0.0
Co885 Co 0.79647 0.57651 0.61113 0.0
Co886 Co 0.83503 0.58723 0.63936 0.0
O887 O 0.81636 0.57621 0.60076 0.0
C888 C 0.80366 0.58582 0.51821 0.0
O889 O 0.81865 0.59524 0.52951 0.0
C890 C 0.83127 0.55475 0.62595 0.0
O891 O 0.81567 0.54826 0.62859 0.0
O892 O 0.82175 0.57588 0.69149 0.0
O893 O 0.79895 0.57568 0.6757 0.0
H894 H 0.8645 0.6176 0.77396 0.0
H895 H 0.79602 0.55253 0.54973 0.0
O896 O 0.79328 0.57738 0.54681 0.0
H897 H 0.7576 0.52116 0.66603 0.0
H898 H 0.73922 0.5611 0.58104 0.0
H899 H 0.78651 0.59339 0.67365 0.0
H900 H 0.77205 0.55065 0.66804 0.0
H901 H 0.76421 0.56053 0.56922 0.0
O902 O 0.84031 0.56981 0.63021 0.0
H903 H 0.84127 0.60401 0.72466 0.0
H904 H 0.86853 0.5933 0.63605 0.0
H905 H 0.76172 0.59421 0.68682 0.0
H906 H 0.78168 0.52305 0.54613 0.0
H907 H 0.73785 0.57799 0.64032 0.0
H908 H 0.76235 0.50716 0.60467 0.0
O909 O 0.80841 0.60033 0.61354 0.0
H910 H 0.85505 0.59114 0.48546 0.0
H911 H 0.8584 0.62141 0.6189 0.0
H912 H 0.87434 0.63582 0.55412 0.0
H913 H 0.87276 0.62066 0.48681 0.0
H914 H 0.83917 0.57722 0.55081 0.0
H915 H 0.89203 0.60668 0.68456 0.0
H916 H 0.89013 0.619 0.75401 0.0
O917 O 0.83064 0.60517 0.64957 0.0
C918 C 0.80828 0.57428 0.70262 0.0
C919 C 0.8655 0.61231 0.74374 0.0
C920 C 0.88094 0.60616 0.69359 0.0
N921 N 0.85355 0.59794 0.6774 0.0
C922 C 0.85239 0.60463 0.71563 0.0
C923 C 0.86758 0.59857 0.66631 0.0
C924 C 0.87987 0.61308 0.73254 0.0
C925 C 0.78751 0.5457 0.57508 0.0
N926 N 0.78485 0.55331 0.60899 0.0
C927 C 0.77947 0.52901 0.57297 0.0
C928 C 0.76865 0.5201 0.60587 0.0
C929 C 0.76599 0.52795 0.64033 0.0
C930 C 0.77426 0.54466 0.64139 0.0
C931 C 0.74953 0.5682 0.60157 0.0
C932 C 0.77614 0.58623 0.65342 0.0
C933 C 0.76373 0.56795 0.59498 0.0
N934 N 0.77677 0.57683 0.62093 0.0
C935 C 0.76215 0.58677 0.66097 0.0
C936 C 0.74877 0.57768 0.63485 0.0
C937 C 0.82108 0.60958 0.63494 0.0
C938 C 0.85589 0.59787 0.51465 0.0
C939 C 0.85758 0.61472 0.58968 0.0
C940 C 0.86668 0.62295 0.55314 0.0
C941 C 0.8658 0.61444 0.5154 0.0
N942 N 0.8479 0.59847 0.58872 0.0
C943 C 0.84698 0.59004 0.55183 0.0
Co944 Co 0.42616 0.21534 0.61143 0.0
Co945 Co 0.41689 0.24501 0.62926 0.0
O946 O 0.42755 0.23563 0.59659 0.0
C947 C 0.41636 0.21136 0.51889 0.0
O948 O 0.40648 0.2164 0.52992 0.0
C949 C 0.44458 0.27775 0.64534 0.0
O950 O 0.4419 0.27528 0.68755 0.0
O951 O 0.42615 0.24269 0.68557 0.0
O952 O 0.42717 0.22018 0.67493 0.0
H953 H 0.38504 0.24923 0.75338 0.0
H954 H 0.45075 0.2373 0.54849 0.0
O955 O 0.42513 0.21006 0.5478 0.0
H956 H 0.48083 0.23021 0.66848 0.0
H957 H 0.43877 0.17101 0.59146 0.0
H958 H 0.40866 0.19024 0.67831 0.0
H959 H 0.45135 0.21641 0.6703 0.0
H960 H 0.4406 0.19686 0.5743 0.0
O961 O 0.43609 0.26667 0.61821 0.0
H962 H 0.39816 0.23713 0.71151 0.0
H963 H 0.41354 0.27387 0.61591 0.0
H964 H 0.40657 0.16439 0.69681 0.0
H965 H 0.48023 0.25122 0.54514 0.0
H966 H 0.4217 0.15462 0.65322 0.0
H967 H 0.49546 0.24772 0.60547 0.0
O968 O 0.40238 0.20443 0.61434 0.0
H969 H 0.41817 0.25874 0.47001 0.0
H970 H 0.38405 0.23679 0.60074 0.0
H971 H 0.372 0.23826 0.53102 0.0
H972 H 0.3891 0.24933 0.46502 0.0
H973 H 0.4297 0.25688 0.54025 0.0
H974 H 0.40063 0.2864 0.65684 0.0
H975 H 0.38623 0.27405 0.72608 0.0
O976 O 0.39754 0.22351 0.63951 0.0
C977 C 0.42788 0.23116 0.69961 0.0
C978 C 0.39127 0.25472 0.72325 0.0
C979 C 0.40003 0.27559 0.66908 0.0
N980 N 0.4066 0.25478 0.66131 0.0
C981 C 0.39871 0.24792 0.69938 0.0
C982 C 0.40733 0.26845 0.64608 0.0
C983 C 0.39195 0.26865 0.70792 0.0
C984 C 0.4573 0.23564 0.57473 0.0
N985 N 0.44934 0.22599 0.60943 0.0
C986 C 0.47399 0.24359 0.57272 0.0
C987 C 0.48253 0.24163 0.6066 0.0
C988 C 0.47432 0.23182 0.64198 0.0
C989 C 0.45763 0.22407 0.64289 0.0
C990 C 0.43213 0.17515 0.61073 0.0
C991 C 0.41534 0.18611 0.65933 0.0
C992 C 0.4331 0.18976 0.6011 0.0
N993 N 0.42482 0.19509 0.62545 0.0
C994 C 0.41408 0.17144 0.66989 0.0
C995 C 0.42256 0.16596 0.6454 0.0
C996 C 0.39302 0.20896 0.63006 0.0
C997 C 0.4106 0.25394 0.49857 0.0
C998 C 0.39157 0.24156 0.57216 0.0
C999 C 0.38468 0.24241 0.53278 0.0
C1000 C 0.39429 0.24863 0.49578 0.0
N1001 N 0.40758 0.24681 0.57469 0.0
C1002 C 0.41708 0.25293 0.53852 0.0
Co1003 Co 0.78372 0.2063 0.61301 0.0
Co1004 Co 0.75593 0.16697 0.63357 0.0
O1005 O 0.76352 0.18675 0.60002 0.0
C1006 C 0.78602 0.20162 0.51855 0.0
O1007 O 0.78158 0.18669 0.52785 0.0
C1008 C 0.72712 0.17098 0.62622 0.0
O1009 O 0.7362 0.18648 0.63155 0.0
O1010 O 0.75799 0.1786 0.6894 0.0
O1011 O 0.78075 0.20179 0.67712 0.0
H1012 H 0.75738 0.13343 0.75736 0.0
H1013 H 0.7601 0.20866 0.55603 0.0
O1014 O 0.78739 0.21123 0.54897 0.0
H1015 H 0.7671 0.24289 0.68353 0.0
H1016 H 0.82521 0.26431 0.59238 0.0
H1017 H 0.81087 0.21477 0.67361 0.0
H1018 H 0.78219 0.22854 0.67807 0.0
H1019 H 0.79967 0.23958 0.57791 0.0
O1020 O 0.7332 0.16192 0.62694 0.0
H1021 H 0.76683 0.15813 0.71418 0.0
H1022 H 0.72841 0.13368 0.62466 0.0
H1023 H 0.83647 0.23924 0.68933 0.0
H1024 H 0.74493 0.22296 0.55989 0.0
H1025 H 0.84379 0.26425 0.64856 0.0
H1026 H 0.74835 0.24018 0.62408 0.0
O1027 O 0.79572 0.19453 0.61007 0.0
H1028 H 0.73987 0.15246 0.47644 0.0
H1029 H 0.76618 0.14399 0.60367 0.0
H1030 H 0.76455 0.13032 0.53409 0.0
H1031 H 0.75129 0.1345 0.46985 0.0
H1032 H 0.74192 0.16602 0.54653 0.0
H1033 H 0.71847 0.10875 0.66711 0.0
H1034 H 0.73302 0.1085 0.73388 0.0
O1035 O 0.77831 0.17106 0.6409 0.0
C1036 C 0.77005 0.19158 0.70259 0.0
C1037 C 0.75095 0.13338 0.72827 0.0
C1038 C 0.7291 0.11953 0.67765 0.0
N1039 N 0.74823 0.14734 0.66682 0.0
C1040 C 0.75626 0.14732 0.70364 0.0
C1041 C 0.73476 0.1337 0.65382 0.0
C1042 C 0.73728 0.1194 0.7151 0.0
C1043 C 0.76179 0.21627 0.58383 0.0
N1044 N 0.77206 0.2178 0.6167 0.0
C1045 C 0.7531 0.22428 0.58593 0.0
C1046 C 0.755 0.23391 0.622 0.0
C1047 C 0.76551 0.23542 0.65539 0.0
C1048 C 0.77398 0.22722 0.6522 0.0
C1049 C 0.82214 0.25349 0.61042 0.0
C1050 C 0.81391 0.22562 0.65592 0.0
C1051 C 0.80771 0.23945 0.6023 0.0
N1052 N 0.80373 0.22576 0.62509 0.0
C1053 C 0.82845 0.23944 0.66488 0.0
C1054 C 0.83256 0.25346 0.64195 0.0
C1055 C 0.79234 0.18122 0.62776 0.0
C1056 C 0.74564 0.1505 0.50423 0.0
C1057 C 0.76047 0.14593 0.57584 0.0
C1058 C 0.75953 0.13812 0.53655 0.0
C1059 C 0.75207 0.14045 0.50053 0.0
N1060 N 0.75412 0.15577 0.57923 0.0
C1061 C 0.74677 0.1581 0.54407 0.0
Co1062 Co 0.42398 0.20407 0.11039 0.0
Co1063 Co 0.41298 0.16499 0.13245 0.0
O1064 O 0.42447 0.18446 0.09719 0.0
C1065 C 0.41546 0.19882 0.01662 0.0
O1066 O 0.40508 0.1839 0.02647 0.0
C1067 C 0.44577 0.1693 0.12303 0.0
O1068 O 0.45202 0.18472 0.12984 0.0
O1069 O 0.42346 0.17708 0.18686 0.0
O1070 O 0.42395 0.20025 0.17459 0.0
H1071 H 0.38079 0.13246 0.26134 0.0
H1072 H 0.44881 0.20568 0.05012 0.0
O1073 O 0.42405 0.20851 0.04643 0.0
H1074 H 0.47851 0.24174 0.17242 0.0
H1075 H 0.43974 0.26183 0.08853 0.0
H1076 H 0.40628 0.21277 0.17366 0.0
H1077 H 0.44901 0.22732 0.17132 0.0
H1078 H 0.44047 0.23711 0.07338 0.0
O1079 O 0.43065 0.1601 0.12332 0.0
H1080 H 0.39497 0.15678 0.21609 0.0
H1081 H 0.40716 0.13169 0.12384 0.0
H1082 H 0.40527 0.23727 0.19013 0.0
H1083 H 0.47832 0.22001 0.04965 0.0
H1084 H 0.42209 0.26203 0.1474 0.0
H1085 H 0.49337 0.23815 0.1112 0.0
O1086 O 0.40012 0.19209 0.11062 0.0
H1087 H 0.4116 0.14889 0.97543 0.0
H1088 H 0.37921 0.14192 0.10715 0.0
H1089 H 0.36589 0.12758 0.03934 0.0
H1090 H 0.38212 0.13101 0.97287 0.0
H1091 H 0.42442 0.16311 0.04382 0.0
H1092 H 0.39322 0.10713 0.16827 0.0
H1093 H 0.37985 0.1074 0.23748 0.0
O1094 O 0.39481 0.16902 0.14252 0.0
C1095 C 0.42496 0.19032 0.20005 0.0
C1096 C 0.38653 0.13218 0.23118 0.0
C1097 C 0.39352 0.11797 0.17898 0.0
N1098 N 0.4018 0.14564 0.16722 0.0
C1099 C 0.39455 0.1459 0.20536 0.0
C1100 C 0.40143 0.13193 0.15401 0.0
C1101 C 0.38602 0.11812 0.2178 0.0
C1102 C 0.45528 0.21368 0.0768 0.0
N1103 N 0.44719 0.2157 0.11063 0.0
C1104 C 0.47198 0.22171 0.07645 0.0
C1105 C 0.48042 0.23186 0.11103 0.0
C1106 C 0.47209 0.23387 0.14541 0.0
C1107 C 0.45538 0.22562 0.14469 0.0
C1108 C 0.43237 0.25113 0.10742 0.0
C1109 C 0.41369 0.22352 0.15507 0.0
C1110 C 0.43271 0.23708 0.09893 0.0
N1111 N 0.42351 0.22354 0.12281 0.0
C1112 C 0.41304 0.23735 0.16448 0.0
C1113 C 0.42247 0.25123 0.14047 0.0
C1114 C 0.39058 0.17892 0.12957 0.0
C1115 C 0.40441 0.14725 0.00422 0.0
C1116 C 0.38635 0.14351 0.07834 0.0
C1117 C 0.37875 0.13533 0.04006 0.0
C1118 C 0.38786 0.13725 0.00279 0.0
N1119 N 0.40259 0.15329 0.0795 0.0
C1120 C 0.41161 0.15522 0.04309 0.0
Co1121 Co 0.79538 0.22039 0.11243 0.0
Co1122 Co 0.83504 0.24742 0.13492 0.0
O1123 O 0.81558 0.24003 0.09986 0.0
C1124 C 0.80175 0.21695 0.01982 0.0
O1125 O 0.81665 0.22205 0.03115 0.0
C1126 C 0.83134 0.27636 0.1259 0.0
O1127 O 0.81576 0.26731 0.12967 0.0
O1128 O 0.8231 0.24542 0.19014 0.0
O1129 O 0.79865 0.22455 0.17648 0.0
H1130 H 0.86736 0.24547 0.26126 0.0
H1131 H 0.79541 0.24362 0.04887 0.0
O1132 O 0.79156 0.21559 0.0484 0.0
H1133 H 0.75889 0.2399 0.16701 0.0
H1134 H 0.73734 0.17992 0.087 0.0
H1135 H 0.7849 0.19431 0.17781 0.0
H1136 H 0.77228 0.22384 0.16989 0.0
H1137 H 0.76282 0.20469 0.07242 0.0
O1138 O 0.84034 0.27023 0.12811 0.0
H1139 H 0.84306 0.23625 0.2164 0.0
H1140 H 0.8685 0.27477 0.12781 0.0
H1141 H 0.75962 0.16949 0.19373 0.0
H1142 H 0.78212 0.25975 0.04441 0.0
H1143 H 0.73561 0.16215 0.14814 0.0
H1144 H 0.76375 0.25799 0.10386 0.0
O1145 O 0.80637 0.20758 0.1159 0.0
H1146 H 0.85105 0.26377 0.97858 0.0
H1147 H 0.858 0.23689 0.10696 0.0
H1148 H 0.8722 0.23851 0.0384 0.0
H1149 H 0.86879 0.25206 0.97359 0.0
H1150 H 0.83693 0.26172 0.04765 0.0
H1151 H 0.89304 0.28448 0.17192 0.0
H1152 H 0.89258 0.26975 0.23908 0.0
O1153 O 0.83065 0.22501 0.14247 0.0
C1154 C 0.80917 0.23465 0.20252 0.0
C1155 C 0.86772 0.25196 0.232 0.0
C1156 C 0.88212 0.27387 0.1819 0.0
N1157 N 0.85438 0.25491 0.16941 0.0
C1158 C 0.85401 0.24678 0.20641 0.0
C1159 C 0.86818 0.26834 0.15712 0.0
C1160 C 0.88186 0.2656 0.21957 0.0
C1161 C 0.7873 0.24266 0.07463 0.0
N1162 N 0.78458 0.23276 0.10952 0.0
C1163 C 0.77987 0.25188 0.07203 0.0
C1164 C 0.76959 0.25091 0.10544 0.0
C1165 C 0.76687 0.24077 0.1409 0.0
C1166 C 0.77453 0.23175 0.14244 0.0
C1167 C 0.74771 0.183 0.10714 0.0
C1168 C 0.77448 0.19125 0.15797 0.0
C1169 C 0.76218 0.197 0.09899 0.0
N1170 N 0.77531 0.201 0.12442 0.0
C1171 C 0.76021 0.17716 0.16708 0.0
C1172 C 0.74674 0.17304 0.14146 0.0
C1173 C 0.81986 0.21087 0.13212 0.0
C1174 C 0.85267 0.25788 0.00663 0.0
C1175 C 0.85638 0.24272 0.07887 0.0
C1176 C 0.8645 0.24366 0.04016 0.0
C1177 C 0.86259 0.25128 0.00383 0.0
N1178 N 0.84665 0.24922 0.08138 0.0
C1179 C 0.84476 0.25674 0.0459 0.0
Co1180 Co 0.78343 0.58036 0.11118 0.0
Co1181 Co 0.75451 0.58954 0.13729 0.0
O1182 O 0.76242 0.57826 0.10084 0.0
C1183 C 0.78389 0.58601 0.016 0.0
O1184 O 0.77899 0.59619 0.02459 0.0
C1185 C 0.72623 0.55636 0.12836 0.0
O1186 O 0.73566 0.55025 0.13125 0.0
O1187 O 0.75745 0.57951 0.19093 0.0
O1188 O 0.78147 0.58231 0.1757 0.0
H1189 H 0.75538 0.62196 0.26706 0.0
H1190 H 0.75977 0.553 0.05808 0.0
O1191 O 0.78611 0.57853 0.04698 0.0
H1192 H 0.77159 0.52883 0.18446 0.0
H1193 H 0.82704 0.56707 0.086 0.0
H1194 H 0.81139 0.60131 0.1669 0.0
H1195 H 0.7849 0.55815 0.17661 0.0
H1196 H 0.80043 0.56422 0.07496 0.0
O1197 O 0.73196 0.57143 0.13079 0.0
H1198 H 0.76531 0.60803 0.22003 0.0
H1199 H 0.7263 0.59437 0.13282 0.0
H1200 H 0.83807 0.60448 0.17918 0.0
H1201 H 0.74635 0.52361 0.06432 0.0
H1202 H 0.84605 0.58727 0.13857 0.0
H1203 H 0.7522 0.51134 0.12797 0.0
O1204 O 0.79393 0.60405 0.10604 0.0
H1205 H 0.73691 0.58953 0.98253 0.0
H1206 H 0.7637 0.62293 0.1117 0.0
H1207 H 0.76101 0.63559 0.04461 0.0
H1208 H 0.7475 0.61885 0.97943 0.0
H1209 H 0.74 0.57738 0.05015 0.0
H1210 H 0.71588 0.60803 0.17913 0.0
H1211 H 0.73049 0.62201 0.24671 0.0
O1212 O 0.77667 0.60829 0.14472 0.0
C1213 C 0.77049 0.58023 0.20258 0.0
C1214 C 0.74893 0.61594 0.23765 0.0
C1215 C 0.72675 0.6081 0.18832 0.0
N1216 N 0.74646 0.60047 0.17357 0.0
C1217 C 0.75451 0.60806 0.21082 0.0
C1218 C 0.73269 0.60035 0.16229 0.0
C1219 C 0.73495 0.61595 0.22622 0.0
C1220 C 0.7625 0.54775 0.08562 0.0
N1221 N 0.77313 0.55728 0.11687 0.0
C1222 C 0.75481 0.5311 0.08909 0.0
C1223 C 0.75808 0.52423 0.12485 0.0
C1224 C 0.76894 0.53403 0.15659 0.0
C1225 C 0.77639 0.55063 0.15205 0.0
C1226 C 0.82369 0.57461 0.10398 0.0
C1227 C 0.81472 0.59371 0.14932 0.0
C1228 C 0.80864 0.57307 0.09781 0.0
N1229 N 0.80429 0.5825 0.12055 0.0
C1230 C 0.82987 0.59559 0.15631 0.0
C1231 C 0.83435 0.58595 0.13348 0.0
C1232 C 0.79039 0.61322 0.12739 0.0
C1233 C 0.74277 0.59694 0.01076 0.0
C1234 C 0.75785 0.61557 0.08344 0.0
C1235 C 0.75633 0.6228 0.04557 0.0
C1236 C 0.74874 0.6134 0.00902 0.0
N1237 N 0.75193 0.59941 0.08492 0.0
C1238 C 0.74449 0.59012 0.04921 0.0
Co1239 Co 0.54002 0.08988 0.05304 0.0
Co1240 Co 0.5014 0.07974 0.02783 0.0
O1241 O 0.52057 0.0909 0.06454 0.0
C1242 C 0.53413 0.08152 0.14701 0.0
O1243 O 0.51912 0.07149 0.13712 0.0
C1244 C 0.50589 0.11267 0.03876 0.0
O1245 O 0.52147 0.11897 0.03621 0.0
O1246 O 0.51414 0.09021 0.97422 0.0
O1247 O 0.53676 0.08986 0.98858 0.0
H1248 H 0.46994 0.04813 0.89693 0.0
H1249 H 0.54198 0.11507 0.11244 0.0
O1250 O 0.54398 0.08991 0.11725 0.0
H1251 H 0.57916 0.14403 0.99148 0.0
H1252 H 0.59726 0.10433 0.07861 0.0
H1253 H 0.54855 0.07155 0.99152 0.0
H1254 H 0.56403 0.11453 0.99265 0.0
H1255 H 0.57281 0.1058 0.0917 0.0
O1256 O 0.4967 0.09759 0.03578 0.0
H1257 H 0.49381 0.06189 0.944 0.0
H1258 H 0.4682 0.07443 0.03353 0.0
H1259 H 0.57277 0.0698 0.97711 0.0
H1260 H 0.55705 0.14458 0.11289 0.0
H1261 H 0.59736 0.08627 0.02084 0.0
H1262 H 0.57576 0.15926 0.05199 0.0
O1263 O 0.52756 0.06603 0.05312 0.0
H1264 H 0.48384 0.07838 0.18335 0.0
H1265 H 0.47761 0.04605 0.05203 0.0
H1266 H 0.46244 0.03277 0.11887 0.0
H1267 H 0.46549 0.04897 0.18513 0.0
H1268 H 0.4989 0.09116 0.11594 0.0
H1269 H 0.44409 0.0609 0.98725 0.0
H1270 H 0.44485 0.04757 0.91848 0.0
O1271 O 0.50511 0.06134 0.01873 0.0
C1272 C 0.5273 0.09127 0.96216 0.0
C1273 C 0.46945 0.05386 0.92688 0.0
C1274 C 0.45495 0.06104 0.97754 0.0
N1275 N 0.48238 0.06888 0.99162 0.0
C1276 C 0.48291 0.06164 0.95373 0.0
C1277 C 0.46865 0.06872 0.00357 0.0
C1278 C 0.45538 0.05356 0.93897 0.0
C1279 C 0.55022 0.12137 0.08606 0.0
N1280 N 0.55214 0.11308 0.05261 0.0
C1281 C 0.55867 0.13808 0.08639 0.0
C1282 C 0.56914 0.14631 0.05217 0.0
C1283 C 0.57104 0.13777 0.01818 0.0
C1284 C 0.56238 0.12107 0.01892 0.0
C1285 C 0.58663 0.09711 0.05929 0.0
C1286 C 0.55922 0.07881 0.01054 0.0
C1287 C 0.57274 0.09787 0.06662 0.0
N1288 N 0.55929 0.08884 0.04221 0.0
C1289 C 0.57289 0.07775 0.00229 0.0
C1290 C 0.58668 0.08698 0.02686 0.0
C1291 C 0.51455 0.05675 0.03312 0.0
C1292 C 0.48237 0.0712 0.15464 0.0
C1293 C 0.47904 0.05319 0.08076 0.0
C1294 C 0.47039 0.0456 0.11849 0.0
C1295 C 0.47209 0.05469 0.15564 0.0
N1296 N 0.48907 0.06939 0.08001 0.0
C1297 C 0.49081 0.07838 0.11631 0.0
Co1298 Co 0.9096 0.44807 0.05038 0.0
Co1299 Co 0.92353 0.42172 0.03302 0.0
O1300 O 0.91063 0.42886 0.06473 0.0
C1301 C 0.9202 0.45453 0.14349 0.0
O1302 O 0.9326 0.45315 0.13246 0.0
C1303 C 0.89075 0.39277 0.03663 0.0
O1304 O 0.8844 0.40186 0.03034 0.0
O1305 O 0.9151 0.42406 0.97533 0.0
O1306 O 0.90918 0.44361 0.98618 0.0
H1307 H 0.96164 0.42483 0.91617 0.0
H1308 H 0.88638 0.42461 0.1136 0.0
O1309 O 0.90988 0.45283 0.11473 0.0
H1310 H 0.85368 0.4271 0.99317 0.0
H1311 H 0.89056 0.48756 0.07199 0.0
H1312 H 0.92485 0.47383 0.98399 0.0
H1313 H 0.88309 0.44381 0.99154 0.0
H1314 H 0.89196 0.46326 0.08835 0.0
O1315 O 0.90589 0.39887 0.03755 0.0
H1316 H 0.94536 0.43374 0.95649 0.0
H1317 H 0.92918 0.39416 0.043 0.0
H1318 H 0.92371 0.49818 0.9663 0.0
H1319 H 0.85699 0.40784 0.11686 0.0
H1320 H 0.90647 0.50518 0.01047 0.0
H1321 H 0.84044 0.40897 0.05624 0.0
O1322 O 0.93347 0.46146 0.04732 0.0
H1323 H 0.91925 0.4051 0.19057 0.0
H1324 H 0.95618 0.4319 0.06754 0.0
H1325 H 0.96702 0.43005 0.13898 0.0
H1326 H 0.94849 0.41653 0.20112 0.0
H1327 H 0.90895 0.40736 0.11865 0.0
H1328 H 0.94518 0.38475 0.00337 0.0
H1329 H 0.96161 0.40016 0.93954 0.0
O1330 O 0.94152 0.44412 0.02803 0.0
C1331 C 0.91107 0.43404 0.96128 0.0
C1332 C 0.95454 0.41801 0.94393 0.0
C1333 C 0.94528 0.39551 0.99283 0.0
N1334 N 0.9363 0.41448 0.00202 0.0
C1335 C 0.9453 0.42301 0.96693 0.0
C1336 C 0.93618 0.40086 0.01503 0.0
C1337 C 0.9545 0.40417 0.95704 0.0
C1338 C 0.87925 0.42529 0.08731 0.0
N1339 N 0.88645 0.43519 0.05242 0.0
C1340 C 0.86262 0.41571 0.08925 0.0
C1341 C 0.85334 0.41634 0.05519 0.0
C1342 C 0.86076 0.42649 0.01976 0.0
C1343 C 0.87743 0.43587 0.01891 0.0
C1344 C 0.8981 0.48463 0.05247 0.0
C1345 C 0.91725 0.47675 0.00321 0.0
C1346 C 0.89897 0.47091 0.06165 0.0
N1347 N 0.90841 0.46709 0.03698 0.0
C1348 C 0.91669 0.49057 0.99311 0.0
C1349 C 0.90703 0.4945 0.01793 0.0
C1350 C 0.94426 0.45827 0.03532 0.0
C1351 C 0.92745 0.41099 0.16373 0.0
C1352 C 0.94806 0.42607 0.09444 0.0
C1353 C 0.95426 0.42501 0.1348 0.0
C1354 C 0.94385 0.41742 0.16964 0.0
N1355 N 0.93195 0.41971 0.08885 0.0
C1356 C 0.92168 0.41226 0.12288 0.0
Co1357 Co 0.55273 0.46275 0.0567 0.0
Co1358 Co 0.58086 0.5014 0.03066 0.0
O1359 O 0.57304 0.48239 0.06793 0.0
C1360 C 0.54994 0.46879 0.15034 0.0
O1361 O 0.55445 0.48366 0.13991 0.0
C1362 C 0.60952 0.49733 0.042 0.0
O1363 O 0.6004 0.48177 0.03794 0.0
O1364 O 0.5788 0.48853 0.97744 0.0
O1365 O 0.55595 0.46584 0.99223 0.0
H1366 H 0.5804 0.5322 0.89856 0.0
H1367 H 0.57624 0.46146 0.11644 0.0
O1368 O 0.54884 0.45897 0.12097 0.0
H1369 H 0.56856 0.42402 0.99669 0.0
H1370 H 0.51056 0.40535 0.08334 0.0
H1371 H 0.5258 0.45364 0.99495 0.0
H1372 H 0.55376 0.43873 0.9972 0.0
H1373 H 0.53626 0.43008 0.09615 0.0
O1374 O 0.6035 0.50642 0.03937 0.0
H1375 H 0.57051 0.50852 0.94628 0.0
H1376 H 0.60846 0.53477 0.03583 0.0
H1377 H 0.50005 0.42912 0.9808 0.0
H1378 H 0.59114 0.44684 0.11753 0.0
H1379 H 0.49228 0.40475 0.02518 0.0
H1380 H 0.58737 0.42801 0.05725 0.0
O1381 O 0.54105 0.47494 0.05605 0.0
H1382 H 0.59657 0.51956 0.18602 0.0
H1383 H 0.57049 0.52493 0.05343 0.0
H1384 H 0.572 0.54022 0.11967 0.0
H1385 H 0.58514 0.5376 0.18657 0.0
H1386 H 0.59466 0.50437 0.11918 0.0
H1387 H 0.61883 0.5587 0.9889 0.0
H1388 H 0.60474 0.55753 0.91978 0.0
O1389 O 0.55864 0.49732 0.021 0.0
C1390 C 0.56674 0.47528 0.96563 0.0
C1391 C 0.58663 0.53287 0.92864 0.0
C1392 C 0.60821 0.54774 0.97932 0.0
N1393 N 0.58884 0.52027 0.99392 0.0
C1394 C 0.58106 0.51951 0.95585 0.0
C1395 C 0.6023 0.53413 0.0057 0.0
C1396 C 0.60029 0.54708 0.94055 0.0
C1397 C 0.57442 0.45316 0.09033 0.0
N1398 N 0.56412 0.45093 0.05686 0.0
C1399 C 0.58294 0.44497 0.09102 0.0
C1400 C 0.58084 0.43443 0.05715 0.0
C1401 C 0.5703 0.4322 0.02313 0.0
C1402 C 0.562 0.44061 0.02351 0.0
C1403 C 0.51382 0.41589 0.06374 0.0
C1404 C 0.52255 0.44306 0.01426 0.0
C1405 C 0.52834 0.42994 0.07092 0.0
N1406 N 0.53258 0.44327 0.04614 0.0
C1407 C 0.50793 0.42922 0.00616 0.0
C1408 C 0.50357 0.41555 0.0311 0.0
C1409 C 0.54462 0.48781 0.03546 0.0
C1410 C 0.59086 0.52084 0.15703 0.0
C1411 C 0.57619 0.52369 0.08244 0.0
C1412 C 0.57704 0.53241 0.11982 0.0
C1413 C 0.58443 0.53095 0.15734 0.0
N1414 N 0.58256 0.51383 0.08236 0.0
C1415 C 0.58981 0.51233 0.11903 0.0
Co1416 Co 0.57771 0.79615 0.88688 0.0
Co1417 Co 0.58904 0.83524 0.8632 0.0
O1418 O 0.57707 0.8158 0.8983 0.0
C1419 C 0.58492 0.80195 0.98086 0.0
O1420 O 0.59473 0.81698 0.97071 0.0
C1421 C 0.55614 0.83096 0.87013 0.0
O1422 O 0.5499 0.81546 0.86519 0.0
O1423 O 0.57928 0.82303 0.80828 0.0
O1424 O 0.57884 0.79995 0.82252 0.0
H1425 H 0.62339 0.86758 0.737 0.0
H1426 H 0.55208 0.79437 0.94415 0.0
O1427 O 0.57691 0.79187 0.95114 0.0
H1428 H 0.52409 0.75873 0.81962 0.0
H1429 H 0.56145 0.73841 0.91195 0.0
H1430 H 0.59621 0.78715 0.82717 0.0
H1431 H 0.55357 0.77315 0.82378 0.0
H1432 H 0.56061 0.76322 0.92446 0.0
O1433 O 0.57126 0.84017 0.86926 0.0
H1434 H 0.60846 0.84333 0.78213 0.0
H1435 H 0.5946 0.86852 0.86928 0.0
H1436 H 0.59735 0.76258 0.81337 0.0
H1437 H 0.52258 0.78002 0.94158 0.0
H1438 H 0.57988 0.73797 0.85596 0.0
H1439 H 0.5084 0.76209 0.87889 0.0
O1440 O 0.6015 0.80802 0.88887 0.0
H1441 H 0.58803 0.85169 0.01868 0.0
H1442 H 0.62237 0.8586 0.89155 0.0
H1443 H 0.63464 0.87317 0.95991 0.0
H1444 H 0.61742 0.86978 0.02408 0.0
H1445 H 0.57628 0.8372 0.94983 0.0
H1446 H 0.60926 0.893 0.82486 0.0
H1447 H 0.62385 0.89265 0.75829 0.0
O1448 O 0.60741 0.83121 0.85644 0.0
C1449 C 0.57825 0.80989 0.7962 0.0
C1450 C 0.61711 0.8679 0.76599 0.0
C1451 C 0.60916 0.88216 0.81527 0.0
N1452 N 0.60073 0.85452 0.82843 0.0
C1453 C 0.60866 0.85421 0.79173 0.0
C1454 C 0.60084 0.86824 0.84022 0.0
C1455 C 0.61735 0.88195 0.77793 0.0
C1456 C 0.54598 0.78645 0.91702 0.0
N1457 N 0.55453 0.78456 0.88425 0.0
C1458 C 0.52928 0.77842 0.91563 0.0
C1459 C 0.52134 0.76838 0.8804 0.0
C1460 C 0.53014 0.76651 0.84711 0.0
C1461 C 0.54682 0.77475 0.84957 0.0
C1462 C 0.56909 0.74904 0.89312 0.0
C1463 C 0.58848 0.77647 0.84559 0.0
C1464 C 0.56869 0.76314 0.9001 0.0
N1465 N 0.57826 0.7766 0.8763 0.0
C1466 C 0.58922 0.7626 0.83774 0.0
C1467 C 0.57943 0.7488 0.86168 0.0
C1468 C 0.61135 0.82118 0.87036 0.0
C1469 C 0.59565 0.8533 0.99091 0.0
C1470 C 0.61481 0.85698 0.91938 0.0
C1471 C 0.62182 0.86531 0.95797 0.0
C1472 C 0.61215 0.86342 0.99394 0.0
N1473 N 0.59862 0.84707 0.91664 0.0
C1474 C 0.58906 0.84518 0.95176 0.0
Co1475 Co 0.20645 0.78269 0.88321 0.0
Co1476 Co 0.16692 0.75514 0.86234 0.0
O1477 O 0.18659 0.76287 0.89661 0.0
C1478 C 0.20111 0.78642 0.9769 0.0
O1479 O 0.18622 0.78192 0.96675 0.0
C1480 C 0.17093 0.7264 0.87103 0.0
O1481 O 0.18641 0.73547 0.86499 0.0
O1482 O 0.17859 0.75689 0.80684 0.0
O1483 O 0.2027 0.77856 0.81891 0.0
H1484 H 0.13345 0.75578 0.73714 0.0
H1485 H 0.20717 0.75938 0.94495 0.0
O1486 O 0.21081 0.78735 0.94728 0.0
H1487 H 0.24351 0.76446 0.82473 0.0
H1488 H 0.26446 0.82393 0.90539 0.0
H1489 H 0.21589 0.80878 0.81844 0.0
H1490 H 0.2297 0.78013 0.82407 0.0
H1491 H 0.23937 0.79887 0.92102 0.0
O1492 O 0.16186 0.73246 0.87034 0.0
H1493 H 0.15811 0.76553 0.78067 0.0
H1494 H 0.13364 0.7277 0.8718 0.0
H1495 H 0.24076 0.83387 0.80146 0.0
H1496 H 0.2209 0.74362 0.94726 0.0
H1497 H 0.26528 0.84159 0.84511 0.0
H1498 H 0.23917 0.74607 0.88674 0.0
O1499 O 0.19498 0.79511 0.88174 0.0
H1500 H 0.15183 0.73994 0.0197 0.0
H1501 H 0.14429 0.76606 0.8904 0.0
H1502 H 0.1305 0.76496 0.95935 0.0
H1503 H 0.13421 0.7518 0.02462 0.0
H1504 H 0.16551 0.74144 0.95022 0.0
H1505 H 0.10874 0.71745 0.82908 0.0
H1506 H 0.10852 0.73156 0.76129 0.0
O1507 O 0.17112 0.7774 0.85346 0.0
C1508 C 0.19221 0.76801 0.79355 0.0
C1509 C 0.13338 0.74954 0.76665 0.0
C1510 C 0.11952 0.72802 0.81821 0.0
N1511 N 0.14732 0.74724 0.82879 0.0
C1512 C 0.14731 0.75503 0.79148 0.0
C1513 C 0.13367 0.73385 0.8422 0.0
C1514 C 0.11941 0.73594 0.7802 0.0
C1515 C 0.21522 0.76062 0.9187 0.0
N1516 N 0.21763 0.77066 0.88439 0.0
C1517 C 0.22291 0.75162 0.9201 0.0
C1518 C 0.23314 0.75297 0.88609 0.0
C1519 C 0.23556 0.76327 0.85126 0.0
C1520 C 0.22765 0.77206 0.85095 0.0
C1521 C 0.25387 0.82068 0.8861 0.0
C1522 C 0.22653 0.81201 0.83743 0.0
C1523 C 0.23961 0.80653 0.89487 0.0
N1524 N 0.2262 0.80232 0.87048 0.0
C1525 C 0.24057 0.82626 0.82773 0.0
C1526 C 0.25432 0.83059 0.85226 0.0
C1527 C 0.18153 0.79157 0.86468 0.0
C1528 C 0.15007 0.74565 0.99145 0.0
C1529 C 0.146 0.76034 0.91867 0.0
C1530 C 0.13813 0.75973 0.9576 0.0
C1531 C 0.14021 0.75234 0.9942 0.0
N1532 N 0.15563 0.75373 0.9162 0.0
C1533 C 0.15773 0.74647 0.95195 0.0
Co1534 Co 0.22065 0.42543 0.88708 0.0
Co1535 Co 0.24829 0.41362 0.8642 0.0
O1536 O 0.24061 0.42545 0.89924 0.0
C1537 C 0.21778 0.4161 0.98006 0.0
O1538 O 0.22326 0.40657 0.96916 0.0
C1539 C 0.2768 0.44664 0.87182 0.0
O1540 O 0.26749 0.45286 0.8682 0.0
O1541 O 0.24574 0.42314 0.80884 0.0
O1542 O 0.2246 0.42623 0.823 0.0
H1543 H 0.24668 0.37926 0.73853 0.0
H1544 H 0.24383 0.44914 0.94973 0.0
O1545 O 0.21603 0.42457 0.95115 0.0
H1546 H 0.23867 0.48102 0.83138 0.0
H1547 H 0.17925 0.44175 0.91298 0.0
H1548 H 0.19441 0.40911 0.82248 0.0
H1549 H 0.22318 0.45153 0.82925 0.0
H1550 H 0.20443 0.44178 0.92709 0.0
O1551 O 0.27094 0.43154 0.87008 0.0
H1552 H 0.23713 0.39406 0.78335 0.0
H1553 H 0.2762 0.40836 0.87075 0.0
H1554 H 0.16919 0.40882 0.80703 0.0
H1555 H 0.25941 0.47861 0.95344 0.0
H1556 H 0.16146 0.42523 0.85247 0.0
H1557 H 0.25692 0.49475 0.89388 0.0
O1558 O 0.2083 0.40159 0.88427 0.0
H1559 H 0.26556 0.41511 0.02012 0.0
H1560 H 0.23874 0.38044 0.89306 0.0
H1561 H 0.24106 0.36839 0.96182 0.0
H1562 H 0.25458 0.38577 0.02597 0.0
H1563 H 0.2628 0.42663 0.95087 0.0
H1564 H 0.28624 0.39382 0.82667 0.0
H1565 H 0.27141 0.37908 0.76012 0.0
O1566 O 0.22605 0.39518 0.8576 0.0
C1567 C 0.23475 0.426 0.79672 0.0
C1568 C 0.25323 0.38561 0.76752 0.0
C1569 C 0.27544 0.3938 0.81695 0.0
N1570 N 0.25605 0.402 0.82975 0.0
C1571 C 0.24786 0.39398 0.79308 0.0
C1572 C 0.26972 0.40205 0.84171 0.0
C1573 C 0.26711 0.38552 0.77963 0.0
C1574 C 0.24255 0.45609 0.92392 0.0
N1575 N 0.23257 0.44863 0.88938 0.0
C1576 C 0.25146 0.47277 0.9261 0.0
C1577 C 0.25008 0.48181 0.89263 0.0
C1578 C 0.23986 0.47412 0.85753 0.0
C1579 C 0.23116 0.45741 0.85642 0.0
C1580 C 0.1825 0.43457 0.89291 0.0
C1581 C 0.19118 0.41635 0.84225 0.0
C1582 C 0.19672 0.43451 0.9008 0.0
N1583 N 0.20094 0.42553 0.87545 0.0
C1584 C 0.17686 0.41611 0.83341 0.0
C1585 C 0.17253 0.4253 0.85894 0.0
C1586 C 0.21185 0.39154 0.86832 0.0
C1587 C 0.25967 0.40741 0.99237 0.0
C1588 C 0.24454 0.38807 0.92087 0.0
C1589 C 0.24588 0.38119 0.95969 0.0
C1590 C 0.25349 0.39095 0.99565 0.0
N1591 N 0.25064 0.40423 0.91789 0.0
C1592 C 0.25814 0.41388 0.95299 0.0
Co1593 Co 0.46203 0.90934 0.94585 0.0
Co1594 Co 0.5016 0.92126 0.96712 0.0
O1595 O 0.48188 0.90925 0.93305 0.0
C1596 C 0.46776 0.91861 0.85267 0.0
O1597 O 0.48258 0.92898 0.86339 0.0
C1598 C 0.49718 0.88826 0.95971 0.0
O1599 O 0.48163 0.88195 0.96333 0.0
O1600 O 0.48987 0.91204 0.02315 0.0
O1601 O 0.46563 0.90904 0.00983 0.0
H1602 H 0.53513 0.95632 0.09081 0.0
H1603 H 0.46102 0.88519 0.88395 0.0
O1604 O 0.45792 0.90971 0.88183 0.0
H1605 H 0.42491 0.85415 0.00483 0.0
H1606 H 0.40413 0.89271 0.92222 0.0
H1607 H 0.45247 0.92606 0.01012 0.0
H1608 H 0.43894 0.88365 0.00548 0.0
H1609 H 0.42923 0.89267 0.90738 0.0
O1610 O 0.50636 0.90337 0.96138 0.0
H1611 H 0.5105 0.94125 0.04724 0.0
H1612 H 0.53474 0.92655 0.95921 0.0
H1613 H 0.42759 0.92637 0.02628 0.0
H1614 H 0.44707 0.8557 0.88169 0.0
H1615 H 0.40319 0.90961 0.98216 0.0
H1616 H 0.42891 0.83998 0.94254 0.0
O1617 O 0.47352 0.9332 0.94764 0.0
H1618 H 0.51603 0.91908 0.81026 0.0
H1619 H 0.52512 0.95428 0.93688 0.0
H1620 H 0.53891 0.96603 0.86722 0.0
H1621 H 0.53442 0.94837 0.80328 0.0
H1622 H 0.50236 0.90787 0.88042 0.0
H1623 H 0.5596 0.94135 0.00204 0.0
H1624 H 0.55991 0.95642 0.06827 0.0
O1625 O 0.49779 0.93966 0.97355 0.0
C1626 C 0.47614 0.90941 0.03581 0.0
C1627 C 0.53515 0.94982 0.06196 0.0
C1628 C 0.54888 0.9414 0.01218 0.0
N1629 N 0.52119 0.93308 0.00061 0.0
C1630 C 0.52125 0.9413 0.0371 0.0
C1631 C 0.53475 0.933 0.98813 0.0
C1632 C 0.54905 0.94986 0.04932 0.0
C1633 C 0.453 0.87843 0.91031 0.0
N1634 N 0.45077 0.88613 0.94474 0.0
C1635 C 0.4452 0.86173 0.90896 0.0
C1636 C 0.43503 0.85292 0.94315 0.0
C1637 C 0.4328 0.86087 0.97813 0.0
C1638 C 0.44082 0.87758 0.97841 0.0
C1639 C 0.41468 0.90005 0.94171 0.0
C1640 C 0.44188 0.91867 0.99091 0.0
C1641 C 0.42893 0.90011 0.93339 0.0
N1642 N 0.44228 0.90929 0.95802 0.0
C1643 C 0.42784 0.91893 0.00015 0.0
C1644 C 0.41416 0.90953 0.97536 0.0
C1645 C 0.48721 0.94329 0.96313 0.0
C1646 C 0.51812 0.92689 0.83791 0.0
C1647 C 0.52304 0.94653 0.90918 0.0
C1648 C 0.53093 0.95325 0.86984 0.0
C1649 C 0.52841 0.94333 0.834 0.0
N1650 N 0.51296 0.9304 0.91279 0.0
C1651 C 0.51046 0.9206 0.87779 0.0
Co1652 Co 0.09044 0.55333 0.94556 0.0
Co1653 Co 0.08017 0.58167 0.97151 0.0
O1654 O 0.09137 0.57378 0.93453 0.0
C1655 C 0.08202 0.55089 0.85159 0.0
O1656 O 0.07174 0.55554 0.86163 0.0
C1657 C 0.1131 0.61008 0.96085 0.0
O1658 O 0.11934 0.60076 0.96392 0.0
O1659 O 0.09057 0.57923 0.02514 0.0
O1660 O 0.09039 0.55639 0.01002 0.0
H1661 H 0.04826 0.581 0.10229 0.0
H1662 H 0.11558 0.57679 0.88645 0.0
O1663 O 0.09053 0.54959 0.88129 0.0
H1664 H 0.14466 0.56844 0.00684 0.0
H1665 H 0.10518 0.51081 0.91896 0.0
H1666 H 0.07216 0.52628 0.00661 0.0
H1667 H 0.11516 0.55394 0.00564 0.0
H1668 H 0.10651 0.53669 0.90639 0.0
O1669 O 0.09803 0.60425 0.96382 0.0
H1670 H 0.06212 0.57108 0.05498 0.0
H1671 H 0.0749 0.60959 0.96657 0.0
H1672 H 0.07056 0.50035 0.02049 0.0
H1673 H 0.14509 0.59138 0.88603 0.0
H1674 H 0.08716 0.49246 0.97649 0.0
H1675 H 0.15983 0.58728 0.94664 0.0
O1676 O 0.06658 0.54186 0.94553 0.0
H1677 H 0.07889 0.59813 0.81621 0.0
H1678 H 0.04651 0.57186 0.94734 0.0
H1679 H 0.03326 0.57385 0.88058 0.0
H1680 H 0.04948 0.58709 0.81442 0.0
H1681 H 0.09164 0.59575 0.88354 0.0
H1682 H 0.06127 0.61999 0.0131 0.0
H1683 H 0.04777 0.60563 0.08143 0.0
O1684 O 0.06177 0.55951 0.98012 0.0
C1685 C 0.09169 0.56711 0.03678 0.0
C1686 C 0.05407 0.58735 0.07255 0.0
C1687 C 0.06139 0.60924 0.02252 0.0
N1688 N 0.06925 0.58969 0.00794 0.0
C1689 C 0.06191 0.58177 0.04558 0.0
C1690 C 0.06912 0.60331 0.99636 0.0
C1691 C 0.05381 0.60118 0.06084 0.0
C1692 C 0.12191 0.57482 0.9127 0.0
N1693 N 0.11365 0.56451 0.94599 0.0
C1694 C 0.13862 0.58317 0.91239 0.0
C1695 C 0.14688 0.58089 0.94645 0.0
C1696 C 0.13837 0.57033 0.98026 0.0
C1697 C 0.12167 0.56221 0.97951 0.0
C1698 C 0.09791 0.51412 0.93839 0.0
C1699 C 0.07948 0.52297 0.98746 0.0
C1700 C 0.09859 0.52874 0.93135 0.0
N1701 N 0.0895 0.53304 0.95592 0.0
C1702 C 0.0785 0.50826 0.99541 0.0
C1703 C 0.0878 0.50383 0.97068 0.0
C1704 C 0.05723 0.54551 0.96549 0.0
C1705 C 0.0717 0.59239 0.84488 0.0
C1706 C 0.05365 0.5776 0.91866 0.0
C1707 C 0.04608 0.57873 0.88098 0.0
C1708 C 0.05519 0.58617 0.84387 0.0
N1709 N 0.06986 0.58376 0.91942 0.0
C1710 C 0.07886 0.59106 0.88316 0.0
Co1711 Co 0.44964 0.53991 0.94624 0.0
Co1712 Co 0.42182 0.50041 0.96736 0.0
O1713 O 0.42965 0.52013 0.93319 0.0
C1714 C 0.45313 0.53435 0.85276 0.0
O1715 O 0.44841 0.51942 0.863 0.0
C1716 C 0.39329 0.50491 0.95961 0.0
O1717 O 0.40254 0.52044 0.96388 0.0
O1718 O 0.42416 0.51215 0.02323 0.0
O1719 O 0.44567 0.53624 0.01024 0.0
H1720 H 0.42283 0.46688 0.09178 0.0
H1721 H 0.42658 0.54112 0.88444 0.0
O1722 O 0.45422 0.54415 0.88224 0.0
H1723 H 0.43185 0.57719 0.00561 0.0
H1724 H 0.49121 0.59777 0.92331 0.0
H1725 H 0.47586 0.54921 0.01057 0.0
H1726 H 0.44719 0.56304 0.00608 0.0
H1727 H 0.46597 0.57279 0.90822 0.0
O1728 O 0.39919 0.4957 0.961 0.0
H1729 H 0.4326 0.4915 0.04804 0.0
H1730 H 0.39394 0.46729 0.95911 0.0
H1731 H 0.50114 0.57396 0.02698 0.0
H1732 H 0.41117 0.55519 0.88238 0.0
H1733 H 0.50896 0.59847 0.98318 0.0
H1734 H 0.41371 0.57334 0.94336 0.0
O1735 O 0.46188 0.52829 0.94784 0.0
H1736 H 0.40551 0.48585 0.81037 0.0
H1737 H 0.43138 0.47688 0.93777 0.0
H1738 H 0.42945 0.46301 0.86834 0.0
H1739 H 0.41641 0.46744 0.80401 0.0
H1740 H 0.40785 0.4996 0.88032 0.0
H1741 H 0.38368 0.44244 0.00211 0.0
H1742 H 0.3982 0.44211 0.06888 0.0
O1743 O 0.444 0.50416 0.97443 0.0
C1744 C 0.43536 0.5258 0.03606 0.0
C1745 C 0.41642 0.46686 0.0627 0.0
C1746 C 0.39443 0.45315 0.0124 0.0
N1747 N 0.4139 0.48082 0.00094 0.0
C1748 C 0.42191 0.48075 0.03774 0.0
C1749 C 0.40028 0.46727 0.98826 0.0
C1750 C 0.40259 0.45297 0.04985 0.0
C1751 C 0.42788 0.54913 0.91087 0.0
N1752 N 0.43781 0.55129 0.94527 0.0
C1753 C 0.41907 0.55701 0.90962 0.0
C1754 C 0.42048 0.56716 0.94389 0.0
C1755 C 0.43064 0.56931 0.97885 0.0
C1756 C 0.43925 0.56122 0.97902 0.0
C1757 C 0.48792 0.58717 0.94267 0.0
C1758 C 0.47914 0.55984 0.9915 0.0
C1759 C 0.47366 0.57298 0.93421 0.0
N1760 N 0.4694 0.55958 0.95865 0.0
C1761 C 0.49349 0.57381 0.00089 0.0
C1762 C 0.49787 0.58756 0.97627 0.0
C1763 C 0.45823 0.51464 0.96376 0.0
C1764 C 0.41118 0.48379 0.83819 0.0
C1765 C 0.42577 0.47894 0.9099 0.0
C1766 C 0.42466 0.47101 0.87069 0.0
C1767 C 0.41732 0.47349 0.83462 0.0
N1768 N 0.41972 0.48902 0.91316 0.0
C1769 C 0.41249 0.49149 0.87795 0.0
Co1770 Co 0.09082 0.53849 0.4456 0.0
Co1771 Co 0.08095 0.49998 0.47146 0.0
O1772 O 0.09202 0.51911 0.43458 0.0
C1773 C 0.08243 0.53243 0.35168 0.0
O1774 O 0.07227 0.51747 0.36179 0.0
C1775 C 0.11402 0.50482 0.46063 0.0
O1776 O 0.12016 0.52037 0.46339 0.0
O1777 O 0.0912 0.51283 0.52517 0.0
O1778 O 0.09079 0.53537 0.51006 0.0
H1779 H 0.04911 0.46844 0.60201 0.0
H1780 H 0.11612 0.54052 0.38651 0.0
O1781 O 0.09088 0.5423 0.38132 0.0
H1782 H 0.14486 0.57803 0.507 0.0
H1783 H 0.10493 0.59558 0.41899 0.0
H1784 H 0.07232 0.54696 0.50663 0.0
H1785 H 0.11537 0.56273 0.50577 0.0
H1786 H 0.10659 0.5712 0.40644 0.0
O1787 O 0.09897 0.49549 0.46387 0.0
H1788 H 0.0628 0.49228 0.55482 0.0
H1789 H 0.07604 0.46692 0.46643 0.0
H1790 H 0.07039 0.57111 0.52049 0.0
H1791 H 0.14563 0.55575 0.38613 0.0
H1792 H 0.08678 0.59565 0.4765 0.0
H1793 H 0.1602 0.57463 0.44679 0.0
O1794 O 0.06697 0.52588 0.44553 0.0
H1795 H 0.08002 0.48244 0.31612 0.0
H1796 H 0.04739 0.47586 0.44704 0.0
H1797 H 0.03431 0.46059 0.38017 0.0
H1798 H 0.05066 0.46381 0.31411 0.0
H1799 H 0.0926 0.49759 0.38354 0.0
H1800 H 0.06259 0.44284 0.51284 0.0
H1801 H 0.04894 0.44348 0.58111 0.0
O1802 O 0.06238 0.50346 0.47997 0.0
C1803 C 0.09217 0.526 0.53683 0.0
C1804 C 0.05499 0.46799 0.5723 0.0
C1805 C 0.06257 0.45363 0.52228 0.0
N1806 N 0.07016 0.48099 0.5078 0.0
C1807 C 0.06274 0.48145 0.54539 0.0
C1808 C 0.0702 0.46733 0.49619 0.0
C1809 C 0.05491 0.454 0.56057 0.0
C1810 C 0.12238 0.54883 0.41278 0.0
N1811 N 0.11403 0.55074 0.44608 0.0
C1812 C 0.13909 0.55737 0.41249 0.0
C1813 C 0.14725 0.56794 0.44658 0.0
C1814 C 0.13865 0.56984 0.48041 0.0
C1815 C 0.12195 0.56108 0.47963 0.0
C1816 C 0.09775 0.58497 0.43842 0.0
C1817 C 0.07955 0.55761 0.48748 0.0
C1818 C 0.09861 0.57112 0.43139 0.0
N1819 N 0.08963 0.5577 0.45596 0.0
C1820 C 0.07838 0.57124 0.49542 0.0
C1821 C 0.08756 0.585 0.4707 0.0
C1822 C 0.05771 0.51282 0.46539 0.0
C1823 C 0.07278 0.48089 0.34474 0.0
C1824 C 0.05459 0.47736 0.4184 0.0
C1825 C 0.04712 0.46865 0.38066 0.0
C1826 C 0.0563 0.47046 0.34361 0.0
N1827 N 0.07077 0.48755 0.41929 0.0
C1828 C 0.07984 0.48938 0.38308 0.0
Co1829 Co 0.46173 0.55303 0.44635 0.0
Co1830 Co 0.50143 0.58032 0.46717 0.0
O1831 O 0.48172 0.57277 0.43318 0.0
C1832 C 0.46731 0.54916 0.35325 0.0
O1833 O 0.48214 0.55361 0.36394 0.0
C1834 C 0.4974 0.60912 0.45968 0.0
O1835 O 0.48185 0.60001 0.46407 0.0
O1836 O 0.48982 0.57812 0.52322 0.0
O1837 O 0.4654 0.55708 0.51031 0.0
H1838 H 0.53482 0.57863 0.59099 0.0
H1839 H 0.46107 0.57621 0.3839 0.0
O1840 O 0.45752 0.54837 0.38237 0.0
H1841 H 0.42528 0.57203 0.50465 0.0
H1842 H 0.40361 0.51228 0.42332 0.0
H1843 H 0.45186 0.52686 0.51118 0.0
H1844 H 0.4389 0.55618 0.50573 0.0
H1845 H 0.4289 0.53719 0.40805 0.0
O1846 O 0.50647 0.60307 0.46097 0.0
H1847 H 0.51019 0.56923 0.54754 0.0
H1848 H 0.53472 0.6079 0.45879 0.0
H1849 H 0.4268 0.50191 0.52777 0.0
H1850 H 0.44754 0.59214 0.38122 0.0
H1851 H 0.40244 0.49448 0.48367 0.0
H1852 H 0.42954 0.59015 0.44199 0.0
O1853 O 0.47292 0.54039 0.44851 0.0
H1854 H 0.51593 0.59657 0.3101 0.0
H1855 H 0.52457 0.5703 0.43716 0.0
H1856 H 0.53825 0.57203 0.36753 0.0
H1857 H 0.53399 0.58526 0.30337 0.0
H1858 H 0.50236 0.59442 0.38024 0.0
H1859 H 0.55958 0.61778 0.5015 0.0
H1860 H 0.55975 0.60308 0.56804 0.0
O1861 O 0.49732 0.55801 0.47404 0.0
C1862 C 0.47604 0.5672 0.5361 0.0
C1863 C 0.53491 0.58512 0.56201 0.0
C1864 C 0.5488 0.60711 0.51182 0.0
N1865 N 0.52102 0.58796 0.50055 0.0
C1866 C 0.521 0.57984 0.53721 0.0
C1867 C 0.53467 0.60148 0.48784 0.0
C1868 C 0.54889 0.59885 0.54913 0.0
C1869 C 0.45312 0.57515 0.41023 0.0
N1870 N 0.45074 0.56524 0.44486 0.0
C1871 C 0.44555 0.58426 0.40864 0.0
C1872 C 0.43548 0.58315 0.44278 0.0
C1873 C 0.4331 0.57301 0.47797 0.0
C1874 C 0.44089 0.5641 0.47849 0.0
C1875 C 0.41414 0.5154 0.4428 0.0
C1876 C 0.4413 0.52375 0.49198 0.0
C1877 C 0.4285 0.52947 0.43425 0.0
N1878 N 0.44182 0.53352 0.45886 0.0
C1879 C 0.42715 0.50959 0.50146 0.0
C1880 C 0.41349 0.50542 0.47668 0.0
C1881 C 0.48657 0.54383 0.46392 0.0
C1882 C 0.51792 0.5908 0.33785 0.0
C1883 C 0.52259 0.576 0.40937 0.0
C1884 C 0.53041 0.57699 0.37005 0.0
C1885 C 0.52803 0.58444 0.33408 0.0
N1886 N 0.51269 0.58227 0.41283 0.0
C1887 C 0.51032 0.58961 0.37771 0.0
Co1888 Co 0.44997 0.91167 0.44518 0.0
Co1889 Co 0.42189 0.9224 0.46982 0.0
O1890 O 0.42976 0.9111 0.43318 0.0
C1891 C 0.45289 0.9203 0.35137 0.0
O1892 O 0.44817 0.93053 0.36134 0.0
C1893 C 0.39327 0.88971 0.45807 0.0
O1894 O 0.4024 0.8833 0.46247 0.0
O1895 O 0.4237 0.9116 0.5234 0.0
O1896 O 0.44651 0.91157 0.50958 0.0
H1897 H 0.42207 0.95389 0.60103 0.0
H1898 H 0.42663 0.88687 0.3851 0.0
O1899 O 0.45408 0.91172 0.38105 0.0
H1900 H 0.43371 0.8571 0.50592 0.0
H1901 H 0.49208 0.89622 0.42051 0.0
H1902 H 0.47669 0.92944 0.50752 0.0
H1903 H 0.4486 0.8866 0.50528 0.0
H1904 H 0.46646 0.89533 0.40676 0.0
O1905 O 0.39925 0.90481 0.46075 0.0
H1906 H 0.43203 0.93997 0.55409 0.0
H1907 H 0.39438 0.92827 0.46346 0.0
H1908 H 0.50235 0.9306 0.5226 0.0
H1909 H 0.41166 0.85736 0.38414 0.0
H1910 H 0.51019 0.9139 0.47892 0.0
H1911 H 0.41511 0.84228 0.44496 0.0
O1912 O 0.46172 0.93552 0.44561 0.0
H1913 H 0.40665 0.92472 0.31386 0.0
H1914 H 0.43247 0.95631 0.44645 0.0
H1915 H 0.4312 0.97003 0.37978 0.0
H1916 H 0.41819 0.9542 0.31288 0.0
H1917 H 0.40831 0.91149 0.38112 0.0
H1918 H 0.38395 0.94197 0.5096 0.0
H1919 H 0.39786 0.95495 0.57887 0.0
O1920 O 0.44413 0.94052 0.4798 0.0
C1921 C 0.43564 0.91029 0.53574 0.0
C1922 C 0.41593 0.94831 0.57087 0.0
C1923 C 0.39452 0.9416 0.51959 0.0
N1924 N 0.41386 0.93339 0.50594 0.0
C1925 C 0.42153 0.94044 0.5441 0.0
C1926 C 0.40046 0.93383 0.49365 0.0
C1927 C 0.40233 0.94889 0.55844 0.0
C1928 C 0.42832 0.88039 0.41145 0.0
N1929 N 0.4385 0.88845 0.44515 0.0
C1930 C 0.41976 0.86368 0.41083 0.0
C1931 C 0.42168 0.85523 0.445 0.0
C1932 C 0.4321 0.86353 0.47925 0.0
C1933 C 0.44045 0.88024 0.4788 0.0
C1934 C 0.48878 0.90353 0.43981 0.0
C1935 C 0.47998 0.92208 0.48852 0.0
C1936 C 0.47431 0.90311 0.43211 0.0
N1937 N 0.47004 0.91225 0.4565 0.0
C1938 C 0.49454 0.92281 0.49714 0.0
C1939 C 0.49894 0.91345 0.47259 0.0
C1940 C 0.45816 0.94492 0.46567 0.0
C1941 C 0.4123 0.93174 0.34285 0.0
C1942 C 0.42683 0.94933 0.41744 0.0
C1943 C 0.42611 0.95717 0.37981 0.0
C1944 C 0.4188 0.94828 0.3423 0.0
N1945 N 0.42039 0.93309 0.41775 0.0
C1946 C 0.41321 0.9243 0.38109 0.0
Co1947 Co 0.20684 0.42479 0.38661 0.0
Co1948 Co 0.16764 0.4135 0.3648 0.0
O1949 O 0.18732 0.42558 0.39884 0.0
C1950 C 0.20179 0.41769 0.48093 0.0
O1951 O 0.18686 0.40728 0.47129 0.0
C1952 C 0.17193 0.44645 0.37121 0.0
O1953 O 0.18742 0.45274 0.36594 0.0
O1954 O 0.1795 0.42295 0.30917 0.0
O1955 O 0.20259 0.42329 0.3224 0.0
H1956 H 0.13438 0.37858 0.24056 0.0
H1957 H 0.20912 0.4508 0.44325 0.0
O1958 O 0.2115 0.42598 0.45076 0.0
H1959 H 0.24393 0.47797 0.31663 0.0
H1960 H 0.26467 0.44099 0.40917 0.0
H1961 H 0.21538 0.40596 0.32682 0.0
H1962 H 0.22942 0.44853 0.32203 0.0
H1963 H 0.23999 0.44199 0.4226 0.0
O1964 O 0.16278 0.43132 0.37081 0.0
H1965 H 0.15895 0.39369 0.28434 0.0
H1966 H 0.13442 0.40801 0.37254 0.0
H1967 H 0.23982 0.40466 0.31212 0.0
H1968 H 0.22356 0.48029 0.43945 0.0
H1969 H 0.2647 0.42226 0.35347 0.0
H1970 H 0.24108 0.49406 0.3757 0.0
O1971 O 0.19492 0.40101 0.38947 0.0
H1972 H 0.15263 0.41529 0.5213 0.0
H1973 H 0.14434 0.38034 0.39459 0.0
H1974 H 0.13035 0.36842 0.46391 0.0
H1975 H 0.13444 0.38594 0.52788 0.0
H1976 H 0.16651 0.42668 0.45148 0.0
H1977 H 0.10963 0.39318 0.32946 0.0
H1978 H 0.10949 0.37827 0.26305 0.0
O1979 O 0.17157 0.39509 0.3581 0.0
C1980 C 0.19249 0.42379 0.29648 0.0
C1981 C 0.13428 0.38501 0.26948 0.0
C1982 C 0.1204 0.39322 0.31935 0.0
N1983 N 0.14811 0.40167 0.33107 0.0
C1984 C 0.14815 0.39356 0.29446 0.0
C1985 C 0.13449 0.40164 0.34353 0.0
C1986 C 0.12033 0.38485 0.2821 0.0
C1987 C 0.21685 0.45672 0.41565 0.0
N1988 N 0.21847 0.44796 0.38299 0.0
C1989 C 0.22494 0.47341 0.41357 0.0
C1990 C 0.23474 0.48113 0.37775 0.0
C1991 C 0.23633 0.47211 0.34457 0.0
C1992 C 0.22804 0.45544 0.34773 0.0
C1993 C 0.25391 0.43328 0.39088 0.0
C1994 C 0.22618 0.41373 0.34474 0.0
C1995 C 0.23989 0.43377 0.3984 0.0
N1996 N 0.22627 0.42412 0.37529 0.0
C1997 C 0.23997 0.41291 0.33637 0.0
C1998 C 0.25392 0.42278 0.35961 0.0
C1999 C 0.18163 0.39114 0.37161 0.0
C2000 C 0.15072 0.40753 0.49363 0.0
C2001 C 0.14624 0.38804 0.42231 0.0
C2002 C 0.13825 0.38122 0.46145 0.0
C2003 C 0.14053 0.39106 0.49732 0.0
N2004 N 0.15621 0.4042 0.41893 0.0
C2005 C 0.15849 0.41392 0.45394 0.0
Co2006 Co 0.57831 0.78214 0.38655 0.0
Co2007 Co 0.58936 0.7541 0.36381 0.0
O2008 O 0.57739 0.76172 0.39836 0.0
C2009 C 0.58512 0.7834 0.48072 0.0
O2010 O 0.59485 0.77804 0.47093 0.0
C2011 C 0.55636 0.72554 0.37093 0.0
O2012 O 0.55013 0.73483 0.36647 0.0
O2013 O 0.57979 0.75659 0.30857 0.0
O2014 O 0.5796 0.77939 0.32229 0.0
H2015 H 0.62393 0.75576 0.23866 0.0
H2016 H 0.55234 0.75847 0.44342 0.0
O2017 O 0.57733 0.78565 0.45072 0.0
H2018 H 0.52506 0.7665 0.31774 0.0
H2019 H 0.56262 0.82411 0.41023 0.0
H2020 H 0.59715 0.80949 0.32671 0.0
H2021 H 0.55452 0.78125 0.32261 0.0
H2022 H 0.56143 0.79831 0.4233 0.0
O2023 O 0.57147 0.73142 0.36978 0.0
H2024 H 0.60897 0.76524 0.28305 0.0
H2025 H 0.5947 0.72626 0.37075 0.0
H2026 H 0.59865 0.83534 0.31237 0.0
H2027 H 0.52285 0.74363 0.44016 0.0
H2028 H 0.5813 0.8428 0.35432 0.0
H2029 H 0.50902 0.74757 0.37688 0.0
O2030 O 0.60208 0.79385 0.38916 0.0
H2031 H 0.5878 0.73672 0.51965 0.0
H2032 H 0.62256 0.7639 0.39301 0.0
H2033 H 0.63459 0.76159 0.46183 0.0
H2034 H 0.61715 0.74788 0.52576 0.0
H2035 H 0.5763 0.73948 0.45035 0.0
H2036 H 0.60939 0.71628 0.32708 0.0
H2037 H 0.6242 0.73111 0.2606 0.0
O2038 O 0.60785 0.77643 0.35708 0.0
C2039 C 0.57892 0.76876 0.29621 0.0
C2040 C 0.61755 0.74921 0.26761 0.0
C2041 C 0.60937 0.72704 0.3172 0.0
N2042 N 0.60104 0.74636 0.32958 0.0
C2043 C 0.60909 0.75454 0.29293 0.0
C2044 C 0.60104 0.73273 0.34173 0.0
C2045 C 0.61769 0.73537 0.27992 0.0
C2046 C 0.5464 0.76038 0.41604 0.0
N2047 N 0.55513 0.77075 0.38333 0.0
C2048 C 0.5297 0.75189 0.41426 0.0
C2049 C 0.52195 0.75408 0.3787 0.0
C2050 C 0.53095 0.76468 0.34548 0.0
C2051 C 0.54762 0.77296 0.34834 0.0
C2052 C 0.57022 0.82098 0.39168 0.0
C2053 C 0.58948 0.81259 0.34488 0.0
C2054 C 0.56962 0.8064 0.39898 0.0
N2055 N 0.57913 0.80234 0.37555 0.0
C2056 C 0.59042 0.82727 0.33671 0.0
C2057 C 0.5807 0.83146 0.3603 0.0
C2058 C 0.61188 0.79043 0.37091 0.0
C2059 C 0.59551 0.74268 0.49199 0.0
C2060 C 0.61491 0.75801 0.42073 0.0
C2061 C 0.62178 0.75668 0.45958 0.0
C2062 C 0.61199 0.74897 0.49542 0.0
N2063 N 0.59874 0.75182 0.4176 0.0
C2064 C 0.58906 0.74421 0.45259 0.0
Co2065 Co 0.22114 0.79597 0.38473 0.0
Co2066 Co 0.24808 0.83548 0.36146 0.0
O2067 O 0.24085 0.81609 0.39649 0.0
C2068 C 0.21597 0.80091 0.47809 0.0
O2069 O 0.21723 0.81464 0.46702 0.0
C2070 C 0.27695 0.8316 0.36788 0.0
O2071 O 0.26782 0.81608 0.36308 0.0
O2072 O 0.24563 0.82346 0.30601 0.0
O2073 O 0.22446 0.79927 0.32029 0.0
H2074 H 0.24546 0.86779 0.23608 0.0
H2075 H 0.24511 0.79588 0.44532 0.0
O2076 O 0.21738 0.79215 0.44932 0.0
H2077 H 0.23985 0.75947 0.32508 0.0
H2078 H 0.181 0.73794 0.41159 0.0
H2079 H 0.19423 0.78549 0.32204 0.0
H2080 H 0.22385 0.77294 0.3252 0.0
H2081 H 0.20594 0.76343 0.42465 0.0
O2082 O 0.27089 0.84067 0.36714 0.0
H2083 H 0.23642 0.84353 0.28095 0.0
H2084 H 0.2756 0.86888 0.36761 0.0
H2085 H 0.16923 0.76021 0.30767 0.0
H2086 H 0.2612 0.7825 0.44678 0.0
H2087 H 0.16247 0.7362 0.35263 0.0
H2088 H 0.25866 0.76419 0.38626 0.0
O2089 O 0.20834 0.80705 0.38308 0.0
H2090 H 0.26485 0.85101 0.51776 0.0
H2091 H 0.23824 0.85888 0.39026 0.0
H2092 H 0.24026 0.87307 0.45913 0.0
H2093 H 0.25368 0.8692 0.52351 0.0
H2094 H 0.26242 0.83694 0.44834 0.0
H2095 H 0.28514 0.89338 0.32346 0.0
H2096 H 0.26999 0.89295 0.25726 0.0
O2097 O 0.22568 0.83117 0.35525 0.0
C2098 C 0.23446 0.80969 0.29381 0.0
C2099 C 0.25214 0.86814 0.26491 0.0
C2100 C 0.27443 0.88249 0.31392 0.0
N2101 N 0.25543 0.85479 0.32698 0.0
C2102 C 0.24706 0.85445 0.2905 0.0
C2103 C 0.26899 0.86857 0.33871 0.0
C2104 C 0.26592 0.88225 0.27679 0.0
C2105 C 0.24381 0.78779 0.41911 0.0
N2106 N 0.23351 0.78515 0.38529 0.0
C2107 C 0.25301 0.78031 0.42001 0.0
C2108 C 0.2516 0.77006 0.386 0.0
C2109 C 0.24107 0.76743 0.35164 0.0
C2110 C 0.23207 0.77513 0.3518 0.0
C2111 C 0.18382 0.74831 0.39173 0.0
C2112 C 0.19142 0.77508 0.3416 0.0
C2113 C 0.19791 0.76279 0.39903 0.0
N2114 N 0.20159 0.77591 0.37394 0.0
C2115 C 0.17723 0.7608 0.33337 0.0
C2116 C 0.17344 0.74734 0.35864 0.0
C2117 C 0.21161 0.82053 0.36669 0.0
C2118 C 0.259 0.85282 0.48992 0.0
C2119 C 0.24401 0.85706 0.41816 0.0
C2120 C 0.24517 0.86518 0.45705 0.0
C2121 C 0.25271 0.86301 0.49314 0.0
N2122 N 0.25023 0.84711 0.41521 0.0
C2123 C 0.25763 0.84492 0.45048 0.0
H2124 H 0.23879 0.13538 0.8428 0.0
H2125 H 0.26552 0.11315 0.88783 0.0
H2126 H 0.23525 0.14123 0.91834 0.0
H2127 H 0.26195 0.11904 0.96339 0.0
H2128 H 0.23634 0.11483 0.09121 0.0
H2129 H 0.23856 0.10961 0.01467 0.0
H2130 H 0.25193 0.15828 0.98243 0.0
H2131 H 0.24979 0.16369 0.0597 0.0
C2132 C 0.24393 0.13176 0.8688 0.0
C2133 C 0.2524 0.12373 0.85935 0.0
C2134 C 0.24197 0.13521 0.91201 0.0
C2135 C 0.24825 0.13053 0.94671 0.0
C2136 C 0.25682 0.12262 0.93727 0.0
C2137 C 0.25894 0.11933 0.89402 0.0
C2138 C 0.23959 0.12445 0.06797 0.0
C2139 C 0.24302 0.13976 0.08187 0.0
C2140 C 0.24097 0.12144 0.02406 0.0
C2141 C 0.24568 0.1336 0.99274 0.0
C2142 C 0.24829 0.14868 0.00599 0.0
C2143 C 0.24703 0.15176 0.0502 0.0
H2144 H 0.86549 0.10761 0.84372 0.0
H2145 H 0.89994 0.15488 0.88938 0.0
H2146 H 0.85804 0.09868 0.91891 0.0
H2147 H 0.89326 0.14578 0.96477 0.0
H2148 H 0.8664 0.13133 0.09135 0.0
H2149 H 0.87323 0.13914 0.01566 0.0
H2150 H 0.86511 0.09183 0.98537 0.0
H2151 H 0.85732 0.0838 0.06165 0.0
C2152 C 0.87162 0.11604 0.86998 0.0
C2153 C 0.8832 0.13198 0.8608 0.0
C2154 C 0.86744 0.11088 0.91316 0.0
C2155 C 0.87494 0.12148 0.94818 0.0
C2156 C 0.88688 0.13735 0.93876 0.0
C2157 C 0.89082 0.14258 0.89556 0.0
C2158 C 0.8661 0.1226 0.06847 0.0
C2159 C 0.86153 0.10702 0.08225 0.0
C2160 C 0.87014 0.12711 0.02504 0.0
C2161 C 0.87006 0.11625 0.99426 0.0
C2162 C 0.86521 0.10051 0.008 0.0
C2163 C 0.8608 0.09588 0.05162 0.0
H2164 H 0.91657 0.75534 0.05868 0.0
H2165 H 0.88106 0.76848 0.09167 0.0
H2166 H 0.9091 0.75364 0.9815 0.0
H2167 H 0.87371 0.76674 0.01511 0.0
H2168 H 0.84996 0.73919 0.88875 0.0
H2169 H 0.85973 0.74343 0.96399 0.0
H2170 H 0.90842 0.7701 0.91735 0.0
H2171 H 0.8987 0.76587 0.84195 0.0
C2172 C 0.90741 0.75815 0.04953 0.0
C2173 C 0.89934 0.7619 0.0816 0.0
C2174 C 0.90312 0.75716 0.00532 0.0
C2175 C 0.89063 0.75979 0.99245 0.0
C2176 C 0.88315 0.76432 0.02418 0.0
C2177 C 0.88748 0.76542 0.06811 0.0
C2178 C 0.86275 0.74595 0.89449 0.0
C2179 C 0.87354 0.75221 0.85938 0.0
C2180 C 0.86834 0.74846 0.93758 0.0
C2181 C 0.88484 0.75717 0.94652 0.0
C2182 C 0.89565 0.76328 0.91142 0.0
C2183 C 0.89006 0.76092 0.8683 0.0
H2184 H 0.14478 0.22692 0.4386 0.0
H2185 H 0.13757 0.26648 0.4079 0.0
H2186 H 0.13808 0.22827 0.51534 0.0
H2187 H 0.13187 0.26857 0.48399 0.0
H2188 H 0.10624 0.25932 0.61222 0.0
H2189 H 0.11229 0.25643 0.53657 0.0
H2190 H 0.14623 0.24259 0.58094 0.0
H2191 H 0.13938 0.24456 0.65644 0.0
C2192 C 0.14194 0.23599 0.44851 0.0
C2193 C 0.14139 0.2464 0.41751 0.0
C2194 C 0.13817 0.23686 0.49239 0.0
C2195 C 0.13418 0.24841 0.50601 0.0
C2196 C 0.1343 0.25916 0.47479 0.0
C2197 C 0.13768 0.25805 0.43112 0.0
C2198 C 0.11499 0.25567 0.60567 0.0
C2199 C 0.12236 0.25222 0.64011 0.0
C2200 C 0.11856 0.25409 0.56229 0.0
C2201 C 0.12989 0.24939 0.55235 0.0
C2202 C 0.13727 0.24597 0.58708 0.0
C2203 C 0.13344 0.24723 0.63043 0.0
H2204 H 0.77653 0.91805 0.43846 0.0
H2205 H 0.73766 0.87086 0.40771 0.0
H2206 H 0.77562 0.90991 0.51498 0.0
H2207 H 0.73604 0.86296 0.48351 0.0
H2208 H 0.74565 0.8467 0.61068 0.0
H2209 H 0.74883 0.85594 0.5353 0.0
H2210 H 0.76122 0.90323 0.5808 0.0
H2211 H 0.75897 0.89412 0.65613 0.0
C2212 C 0.76772 0.90602 0.44828 0.0
C2213 C 0.75738 0.89498 0.41732 0.0
C2214 C 0.76712 0.90134 0.49203 0.0
C2215 C 0.7559 0.88565 0.50552 0.0
C2216 C 0.74521 0.87492 0.47436 0.0
C2217 C 0.74606 0.87948 0.43084 0.0
C2218 C 0.74908 0.85907 0.60445 0.0
C2219 C 0.75198 0.86966 0.63915 0.0
C2220 C 0.75083 0.86439 0.56123 0.0
C2221 C 0.75511 0.88034 0.5517 0.0
C2222 C 0.75813 0.89095 0.58667 0.0
C2223 C 0.75672 0.8857 0.62991 0.0
H2224 H 0.15396 0.88841 0.6148 0.0
H2225 H 0.10524 0.87088 0.65712 0.0
H2226 H 0.14479 0.8823 0.5391 0.0
H2227 H 0.09614 0.86491 0.5814 0.0
H2228 H 0.08615 0.8408 0.44285 0.0
H2229 H 0.09372 0.84656 0.52 0.0
H2230 H 0.13341 0.89271 0.48418 0.0
H2231 H 0.12604 0.88706 0.40774 0.0
C2232 C 0.14131 0.88325 0.608 0.0
C2233 C 0.13036 0.88019 0.64199 0.0
C2234 C 0.13606 0.87983 0.56462 0.0
C2235 C 0.11974 0.87319 0.5543 0.0
C2236 C 0.10876 0.86991 0.58835 0.0
C2237 C 0.11402 0.87343 0.63169 0.0
C2238 C 0.09634 0.85226 0.45151 0.0
C2239 C 0.10552 0.86339 0.41891 0.0
C2240 C 0.10068 0.85555 0.49569 0.0
C2241 C 0.11432 0.86999 0.50803 0.0
C2242 C 0.12306 0.88134 0.47563 0.0
C2243 C 0.11871 0.87811 0.43173 0.0
H2244 H 0.74517 0.8979 0.11047 0.0
H2245 H 0.75962 0.86467 0.15601 0.0
H2246 H 0.74785 0.89145 0.03508 0.0
H2247 H 0.76141 0.85744 0.08077 0.0
H2248 H 0.73634 0.8648 0.90836 0.0
H2249 H 0.73496 0.87125 0.98421 0.0
H2250 H 0.77537 0.86505 0.01426 0.0
H2251 H 0.77602 0.85763 0.9378 0.0
C2252 C 0.74876 0.88909 0.10427 0.0
C2253 C 0.75212 0.88175 0.13901 0.0
C2254 C 0.75021 0.88528 0.06106 0.0
C2255 C 0.75469 0.87375 0.05159 0.0
C2256 C 0.75816 0.86652 0.08658 0.0
C2257 C 0.75702 0.87058 0.12978 0.0
C2258 C 0.74494 0.86484 0.93124 0.0
C2259 C 0.75642 0.86093 0.91736 0.0
C2260 C 0.74424 0.86866 0.97475 0.0
C2261 C 0.75525 0.86903 0.00549 0.0
C2262 C 0.76661 0.86481 0.99164 0.0
C2263 C 0.76707 0.86061 0.94794 0.0
H2264 H 0.13426 0.89718 0.15797 0.0
H2265 H 0.11268 0.84841 0.11168 0.0
H2266 H 0.14038 0.90687 0.08276 0.0
H2267 H 0.11886 0.85818 0.03641 0.0
H2268 H 0.11513 0.87987 0.90858 0.0
H2269 H 0.10957 0.87205 0.98478 0.0
H2270 H 0.15781 0.90783 0.01929 0.0
H2271 H 0.16356 0.91578 0.94233 0.0
C2272 C 0.13083 0.88851 0.13177 0.0
C2273 C 0.12291 0.87199 0.1408 0.0
C2274 C 0.13444 0.8941 0.08873 0.0
C2275 C 0.13005 0.8833 0.05374 0.0
C2276 C 0.12223 0.86679 0.06275 0.0
C2277 C 0.11876 0.86119 0.10584 0.0
C2278 C 0.12459 0.88626 0.93224 0.0
C2279 C 0.13988 0.89842 0.91906 0.0
C2280 C 0.12138 0.88165 0.97597 0.0
C2281 C 0.13332 0.88912 0.00786 0.0
C2282 C 0.14838 0.90184 0.99531 0.0
C2283 C 0.15165 0.90642 0.95127 0.0
H2284 H 0.08675 0.24563 0.94222 0.0
H2285 H 0.12539 0.23748 0.90557 0.0
H2286 H 0.09456 0.24726 0.01904 0.0
H2287 H 0.13299 0.239 0.98178 0.0
H2288 H 0.15498 0.26508 0.11063 0.0
H2289 H 0.14532 0.26125 0.03532 0.0
H2290 H 0.09682 0.23134 0.08068 0.0
H2291 H 0.10639 0.23523 0.156 0.0
C2292 C 0.09669 0.2439 0.95049 0.0
C2293 C 0.10551 0.24158 0.91757 0.0
C2294 C 0.10117 0.24485 0.99447 0.0
C2295 C 0.11456 0.24353 0.00626 0.0
C2296 C 0.12284 0.24042 0.97359 0.0
C2297 C 0.11837 0.23942 0.92986 0.0
C2298 C 0.14226 0.2577 0.10456 0.0
C2299 C 0.13148 0.25045 0.13928 0.0
C2300 C 0.13674 0.25543 0.06143 0.0
C2301 C 0.12031 0.24594 0.05214 0.0
C2302 C 0.10951 0.2388 0.08687 0.0
C2303 C 0.11504 0.24097 0.12997 0.0
H2304 H 0.86334 0.7588 0.34253 0.0
H2305 H 0.89582 0.74298 0.38493 0.0
H2306 H 0.85606 0.7598 0.41832 0.0
H2307 H 0.88945 0.74497 0.46082 0.0
H2308 H 0.86464 0.73431 0.58991 0.0
H2309 H 0.87017 0.7327 0.5133 0.0
H2310 H 0.86347 0.77294 0.48524 0.0
H2311 H 0.85684 0.77369 0.56235 0.0
C2312 C 0.86904 0.75569 0.36821 0.0
C2313 C 0.88004 0.75067 0.35789 0.0
C2314 C 0.86497 0.75639 0.41177 0.0
C2315 C 0.87206 0.7524 0.44612 0.0
C2316 C 0.88335 0.74771 0.4355 0.0
C2317 C 0.88712 0.74666 0.39193 0.0
C2318 C 0.86432 0.74277 0.56722 0.0
C2319 C 0.86048 0.75421 0.58186 0.0
C2320 C 0.86763 0.74197 0.52324 0.0
C2321 C 0.86762 0.75288 0.49275 0.0
C2322 C 0.86348 0.76422 0.50747 0.0
C2323 C 0.85975 0.76474 0.55162 0.0
H2324 H 0.23943 0.1257 0.59214 0.0
H2325 H 0.24584 0.08567 0.55918 0.0
H2326 H 0.24128 0.13276 0.51538 0.0
H2327 H 0.24777 0.09292 0.48175 0.0
H2328 H 0.23551 0.10417 0.34347 0.0
H2329 H 0.23201 0.09525 0.41944 0.0
H2330 H 0.26344 0.14393 0.46121 0.0
H2331 H 0.26688 0.15293 0.38529 0.0
C2332 C 0.24108 0.11827 0.56855 0.0
C2333 C 0.24262 0.10516 0.58206 0.0
C2334 C 0.24227 0.12244 0.52449 0.0
C2335 C 0.24495 0.11358 0.49264 0.0
C2336 C 0.2457 0.09998 0.50565 0.0
C2337 C 0.24458 0.09582 0.54998 0.0
C2338 C 0.2417 0.11299 0.36884 0.0
C2339 C 0.25145 0.12929 0.35835 0.0
C2340 C 0.23975 0.10783 0.41232 0.0
C2341 C 0.24738 0.11888 0.44627 0.0
C2342 C 0.25723 0.13516 0.43575 0.0
C2343 C 0.25929 0.1403 0.39225 0.0
H2344 H 0.87158 0.13466 0.59248 0.0
H2345 H 0.91886 0.14352 0.56041 0.0
H2346 H 0.86345 0.12824 0.5169 0.0
H2347 H 0.9105 0.13616 0.48408 0.0
H2348 H 0.89417 0.137 0.34354 0.0
H2349 H 0.90346 0.14383 0.41869 0.0
H2350 H 0.8565 0.10844 0.46497 0.0
H2351 H 0.84705 0.10237 0.38975 0.0
C2352 C 0.88017 0.13496 0.56912 0.0
C2353 C 0.89577 0.13935 0.58222 0.0
C2354 C 0.87548 0.13117 0.52572 0.0
C2355 C 0.88618 0.13134 0.49425 0.0
C2356 C 0.90195 0.13599 0.5073 0.0
C2357 C 0.90676 0.14014 0.55093 0.0
C2358 C 0.88585 0.1307 0.36988 0.0
C2359 C 0.86984 0.11925 0.3609 0.0
C2360 C 0.89122 0.13453 0.41302 0.0
C2361 C 0.88075 0.12679 0.44816 0.0
C2362 C 0.86483 0.11499 0.4389 0.0
C2363 C 0.85939 0.1114 0.39578 0.0
H2364 H 0.89242 0.44771 0.1852 0.0
H2365 H 0.94339 0.46965 0.20559 0.0
H2366 H 0.88908 0.45359 0.26134 0.0
H2367 H 0.94004 0.47595 0.28121 0.0
H2368 H 0.89499 0.44897 0.41785 0.0
H2369 H 0.89627 0.44386 0.33996 0.0
H2370 H 0.92802 0.49426 0.31819 0.0
H2371 H 0.92633 0.49955 0.39579 0.0
C2372 C 0.90291 0.45388 0.20582 0.0
C2373 C 0.91817 0.45819 0.18943 0.0
C2374 C 0.90098 0.45721 0.24933 0.0
C2375 C 0.91431 0.4653 0.27694 0.0
C2376 C 0.92959 0.46981 0.26044 0.0
C2377 C 0.93148 0.46612 0.21729 0.0
C2378 C 0.90199 0.45902 0.3964 0.0
C2379 C 0.91056 0.47469 0.41323 0.0
C2380 C 0.90272 0.45607 0.35182 0.0
C2381 C 0.91233 0.46866 0.32325 0.0
C2382 C 0.92059 0.48435 0.33966 0.0
C2383 C 0.91953 0.48736 0.38406 0.0
H2384 H 0.53659 0.4381 0.18048 0.0
H2385 H 0.55438 0.48674 0.22393 0.0
H2386 H 0.53054 0.42878 0.25597 0.0
H2387 H 0.5482 0.47735 0.29946 0.0
H2388 H 0.55278 0.45807 0.43011 0.0
H2389 H 0.55849 0.46563 0.35382 0.0
H2390 H 0.51219 0.42631 0.31751 0.0
H2391 H 0.50635 0.41855 0.39454 0.0
C2392 C 0.53919 0.44682 0.20611 0.0
C2393 C 0.54603 0.4632 0.19619 0.0
C2394 C 0.53562 0.44143 0.24932 0.0
C2395 C 0.53895 0.45232 0.28363 0.0
C2396 C 0.54568 0.46869 0.27372 0.0
C2397 C 0.54914 0.47407 0.23045 0.0
C2398 C 0.54381 0.45086 0.40604 0.0
C2399 C 0.52901 0.43773 0.4187 0.0
C2400 C 0.54708 0.45532 0.36223 0.0
C2401 C 0.5357 0.44675 0.32976 0.0
C2402 C 0.5212 0.43315 0.3419 0.0
C2403 C 0.51786 0.42869 0.38601 0.0
H2404 H 0.58299 0.08613 0.39215 0.0
H2405 H 0.54759 0.09948 0.42461 0.0
H2406 H 0.57519 0.08389 0.31507 0.0
H2407 H 0.53992 0.09718 0.34827 0.0
H2408 H 0.51619 0.07026 0.22164 0.0
H2409 H 0.52584 0.07386 0.29704 0.0
H2410 H 0.57463 0.10042 0.25112 0.0
H2411 H 0.56506 0.09683 0.17578 0.0
C2412 C 0.57378 0.08885 0.3829 0.0
C2413 C 0.56586 0.09287 0.41479 0.0
C2414 C 0.56929 0.08753 0.33878 0.0
C2415 C 0.55675 0.09009 0.32586 0.0
C2416 C 0.54937 0.09479 0.3574 0.0
C2417 C 0.5539 0.09623 0.40121 0.0
C2418 C 0.52897 0.07682 0.22761 0.0
C2419 C 0.53984 0.0833 0.19274 0.0
C2420 C 0.53449 0.07896 0.27076 0.0
C2421 C 0.55099 0.0875 0.27992 0.0
C2422 C 0.56187 0.09373 0.24503 0.0
C2423 C 0.55635 0.09173 0.20192 0.0
H2424 H 0.8267 0.57705 0.77456 0.0
H2425 H 0.77975 0.56827 0.73723 0.0
H2426 H 0.82051 0.57904 0.8511 0.0
H2427 H 0.77365 0.57014 0.81325 0.0
H2428 H 0.7778 0.59725 0.94043 0.0
H2429 H 0.78333 0.59267 0.86552 0.0
H2430 H 0.80271 0.56377 0.91361 0.0
H2431 H 0.79733 0.56843 0.98851 0.0
C2432 C 0.81498 0.57523 0.78264 0.0
C2433 C 0.80382 0.57268 0.74956 0.0
C2434 C 0.81144 0.57639 0.8265 0.0
C2435 C 0.79669 0.57503 0.83804 0.0
C2436 C 0.78525 0.57161 0.80526 0.0
C2437 C 0.78874 0.57041 0.76164 0.0
C2438 C 0.78323 0.58992 0.93505 0.0
C2439 C 0.7871 0.58321 0.97044 0.0
C2440 C 0.78632 0.58721 0.89214 0.0
C2441 C 0.7934 0.57779 0.8837 0.0
C2442 C 0.79735 0.57116 0.9191 0.0
C2443 C 0.79418 0.57378 0.96198 0.0
H2444 H 0.42355 0.24736 0.76781 0.0
H2445 H 0.4344 0.20986 0.73983 0.0
H2446 H 0.42089 0.24026 0.84557 0.0
H2447 H 0.43174 0.20292 0.81677 0.0
H2448 H 0.40365 0.18081 0.94244 0.0
H2449 H 0.408 0.19019 0.86678 0.0
H2450 H 0.43647 0.23899 0.91134 0.0
H2451 H 0.43212 0.22967 0.9871 0.0
C2452 C 0.42566 0.23785 0.77819 0.0
C2453 C 0.42902 0.22909 0.74736 0.0
C2454 C 0.4241 0.23376 0.82269 0.0
C2455 C 0.42579 0.22082 0.83702 0.0
C2456 C 0.42999 0.21269 0.80655 0.0
C2457 C 0.43164 0.21679 0.76239 0.0
C2458 C 0.41077 0.19354 0.93615 0.0
C2459 C 0.41758 0.20447 0.97076 0.0
C2460 C 0.41335 0.19891 0.89283 0.0
C2461 C 0.42267 0.21532 0.88319 0.0
C2462 C 0.42919 0.22629 0.91781 0.0
C2463 C 0.42675 0.22092 0.96114 0.0
H2464 H 0.75064 0.19112 0.76907 0.0
H2465 H 0.79726 0.19741 0.74173 0.0
H2466 H 0.75804 0.19749 0.8463 0.0
H2467 H 0.80439 0.20268 0.81844 0.0
H2468 H 0.82029 0.22824 0.9468 0.0
H2469 H 0.81189 0.22209 0.87089 0.0
H2470 H 0.76338 0.18961 0.91321 0.0
H2471 H 0.77173 0.19667 0.98906 0.0
C2472 C 0.76237 0.19364 0.77989 0.0
C2473 C 0.77348 0.19402 0.74972 0.0
C2474 C 0.76663 0.19721 0.82408 0.0
C2475 C 0.78196 0.20086 0.83888 0.0
C2476 C 0.79272 0.20052 0.80843 0.0
C2477 C 0.7886 0.19735 0.76442 0.0
C2478 C 0.80784 0.21979 0.93977 0.0
C2479 C 0.79669 0.2129 0.97377 0.0
C2480 C 0.80299 0.21614 0.89619 0.0
C2481 C 0.78692 0.20516 0.88551 0.0
C2482 C 0.77578 0.19827 0.91982 0.0
C2483 C 0.78059 0.20222 0.9634 0.0
H2484 H 0.43311 0.19768 0.48642 0.0
H2485 H 0.40309 0.21692 0.44679 0.0
H2486 H 0.43645 0.19266 0.40991 0.0
H2487 H 0.40634 0.21176 0.37043 0.0
H2488 H 0.43016 0.21791 0.23926 0.0
H2489 H 0.42848 0.22261 0.31652 0.0
H2490 H 0.42056 0.17548 0.34664 0.0
H2491 H 0.42234 0.17067 0.26879 0.0
C2492 C 0.42717 0.20077 0.46142 0.0
C2493 C 0.41786 0.20774 0.47267 0.0
C2494 C 0.42903 0.19782 0.41764 0.0
C2495 C 0.42175 0.2019 0.3842 0.0
C2496 C 0.4123 0.2087 0.39549 0.0
C2497 C 0.41034 0.21155 0.43925 0.0
C2498 C 0.42823 0.20855 0.26219 0.0
C2499 C 0.42625 0.19383 0.2476 0.0
C2500 C 0.42714 0.21124 0.30654 0.0
C2501 C 0.42411 0.19933 0.33755 0.0
C2502 C 0.42291 0.18489 0.32342 0.0
C2503 C 0.42394 0.18215 0.27883 0.0
H2504 H 0.77911 0.18373 0.44402 0.0
H2505 H 0.80069 0.23258 0.48958 0.0
H2506 H 0.78461 0.19326 0.36857 0.0
H2507 H 0.80618 0.24208 0.41393 0.0
H2508 H 0.82913 0.2498 0.27249 0.0
H2509 H 0.82346 0.24261 0.34988 0.0
H2510 H 0.77499 0.20696 0.31704 0.0
H2511 H 0.78047 0.21403 0.24029 0.0
C2512 C 0.78504 0.19649 0.43796 0.0
C2513 C 0.78943 0.20739 0.47278 0.0
C2514 C 0.7881 0.20195 0.39474 0.0
C2515 C 0.79576 0.21841 0.38539 0.0
C2516 C 0.80034 0.22933 0.42019 0.0
C2517 C 0.79711 0.22387 0.46345 0.0
C2518 C 0.81718 0.24065 0.28185 0.0
C2519 C 0.80533 0.23241 0.24995 0.0
C2520 C 0.81395 0.23652 0.32617 0.0
C2521 C 0.79886 0.22404 0.33933 0.0
C2522 C 0.78682 0.2164 0.30775 0.0
C2523 C 0.78998 0.22056 0.26371 0.0
H2524 H 0.82183 0.59203 0.44464 0.0
H2525 H 0.77392 0.57746 0.48831 0.0
H2526 H 0.81317 0.58985 0.3689 0.0
H2527 H 0.76538 0.57626 0.41281 0.0
H2528 H 0.75127 0.5618 0.27001 0.0
H2529 H 0.75913 0.56257 0.34664 0.0
H2530 H 0.80617 0.60226 0.31646 0.0
H2531 H 0.79856 0.60068 0.24033 0.0
C2532 C 0.80949 0.58857 0.43795 0.0
C2533 C 0.79857 0.58495 0.47227 0.0
C2534 C 0.80449 0.58741 0.39451 0.0
C2535 C 0.78854 0.58298 0.38438 0.0
C2536 C 0.77766 0.57942 0.41901 0.0
C2537 C 0.78259 0.58024 0.4624 0.0
C2538 C 0.76326 0.57062 0.28013 0.0
C2539 C 0.77439 0.581 0.2494 0.0
C2540 C 0.76779 0.57116 0.324 0.0
C2541 C 0.78341 0.58237 0.33797 0.0
C2542 C 0.79425 0.5931 0.30703 0.0
C2543 C 0.78985 0.59229 0.26332 0.0
H2544 H 0.53822 0.1003 0.6767 0.0
H2545 H 0.55547 0.0688 0.71823 0.0
H2546 H 0.53256 0.10356 0.75263 0.0
H2547 H 0.54967 0.07198 0.79412 0.0
H2548 H 0.55496 0.09555 0.9256 0.0
H2549 H 0.56042 0.09386 0.84896 0.0
H2550 H 0.51428 0.08763 0.8142 0.0
H2551 H 0.5087 0.08941 0.89149 0.0
C2552 C 0.54077 0.09404 0.702 0.0
C2553 C 0.54735 0.08432 0.69144 0.0
C2554 C 0.53744 0.09584 0.74545 0.0
C2555 C 0.54074 0.08809 0.77931 0.0
C2556 C 0.5472 0.07828 0.76873 0.0
C2557 C 0.55043 0.07637 0.72525 0.0
C2558 C 0.54597 0.09399 0.90179 0.0
C2559 C 0.5313 0.0925 0.91493 0.0
C2560 C 0.5491 0.09289 0.85779 0.0
C2561 C 0.53769 0.09035 0.82565 0.0
C2562 C 0.52331 0.08961 0.83832 0.0
C2563 C 0.52013 0.09064 0.88258 0.0
H2564 H 0.9434 0.47376 0.70601 0.0
H2565 H 0.89242 0.44521 0.68502 0.0
H2566 H 0.93983 0.46401 0.78158 0.0
H2567 H 0.88887 0.43591 0.76112 0.0
H2568 H 0.89489 0.44649 0.91793 0.0
H2569 H 0.89629 0.45295 0.84006 0.0
H2570 H 0.92726 0.43339 0.81812 0.0
H2571 H 0.92543 0.42633 0.89568 0.0
C2572 C 0.93144 0.46547 0.71757 0.0
C2573 C 0.9182 0.46025 0.68955 0.0
C2574 C 0.92942 0.45983 0.76069 0.0
C2575 C 0.91408 0.44918 0.77701 0.0
C2576 C 0.90081 0.4441 0.74925 0.0
C2577 C 0.90287 0.44941 0.70577 0.0
C2578 C 0.90174 0.44325 0.89645 0.0
C2579 C 0.91005 0.43588 0.91323 0.0
C2580 C 0.90254 0.44697 0.85188 0.0
C2581 C 0.91198 0.44377 0.82327 0.0
C2582 C 0.91997 0.43606 0.83962 0.0
C2583 C 0.91884 0.43194 0.884 0.0
H2584 H 0.51394 0.44626 0.72539 0.0
H2585 H 0.56248 0.46492 0.67986 0.0
H2586 H 0.52364 0.45203 0.80073 0.0
H2587 H 0.5721 0.47054 0.7551 0.0
H2588 H 0.5827 0.49406 0.89441 0.0
H2589 H 0.57463 0.48842 0.81759 0.0
H2590 H 0.53586 0.44175 0.85361 0.0
H2591 H 0.54372 0.44727 0.9298 0.0
C2592 C 0.52665 0.4516 0.73141 0.0
C2593 C 0.53741 0.45508 0.69663 0.0
C2594 C 0.53221 0.45481 0.77456 0.0
C2595 C 0.54864 0.46167 0.78381 0.0
C2596 C 0.55941 0.46536 0.74898 0.0
C2597 C 0.55385 0.46204 0.7059 0.0
C2598 C 0.57262 0.4825 0.88585 0.0
C2599 C 0.56379 0.47121 0.91846 0.0
C2600 C 0.56798 0.47929 0.84186 0.0
C2601 C 0.55443 0.46475 0.82973 0.0
C2602 C 0.54612 0.4532 0.86206 0.0
C2603 C 0.55075 0.45636 0.90578 0.0
H2604 H 0.59848 0.8022 0.75813 0.0
H2605 H 0.55989 0.81109 0.72911 0.0
H2606 H 0.59995 0.79621 0.68191 0.0
H2607 H 0.56055 0.80408 0.65222 0.0
H2608 H 0.57617 0.80445 0.51006 0.0
H2609 H 0.57434 0.81142 0.58567 0.0
H2610 H 0.58708 0.77665 0.63003 0.0
H2611 H 0.58989 0.77055 0.55449 0.0
C2612 C 0.59013 0.80263 0.73522 0.0
C2613 C 0.57894 0.80689 0.74933 0.0
C2614 C 0.59087 0.79907 0.69148 0.0
C2615 C 0.58015 0.79929 0.66068 0.0
C2616 C 0.56908 0.80387 0.67481 0.0
C2617 C 0.56861 0.80782 0.71877 0.0
C2618 C 0.57859 0.79834 0.53613 0.0
C2619 C 0.58334 0.78708 0.52651 0.0
C2620 C 0.57743 0.80225 0.57953 0.0
C2621 C 0.58069 0.79474 0.6143 0.0
C2622 C 0.58494 0.78308 0.60434 0.0
C2623 C 0.58645 0.77946 0.56099 0.0
H2624 H 0.22212 0.77924 0.51793 0.0
H2625 H 0.20185 0.80961 0.54168 0.0
H2626 H 0.21609 0.76955 0.5936 0.0
H2627 H 0.19546 0.79948 0.61698 0.0
H2628 H 0.1708 0.75622 0.72534 0.0
H2629 H 0.17633 0.76356 0.64788 0.0
H2630 H 0.22675 0.7916 0.67606 0.0
H2631 H 0.22135 0.78488 0.75356 0.0
C2632 C 0.21631 0.78377 0.5392 0.0
C2633 C 0.21249 0.79523 0.52394 0.0
C2634 C 0.21286 0.7782 0.58233 0.0
C2635 C 0.20521 0.7837 0.6106 0.0
C2636 C 0.20126 0.79502 0.59544 0.0
C2637 C 0.20501 0.80086 0.55257 0.0
C2638 C 0.18309 0.76378 0.71507 0.0
C2639 C 0.19561 0.77003 0.74586 0.0
C2640 C 0.18621 0.76801 0.6708 0.0
C2641 C 0.20193 0.77818 0.65645 0.0
C2642 C 0.21453 0.78373 0.68658 0.0
C2643 C 0.2114 0.77983 0.73089 0.0
H2644 H 0.2327 0.43386 0.51026 0.0
H2645 H 0.18378 0.40619 0.55513 0.0
H2646 H 0.24208 0.43734 0.58592 0.0
H2647 H 0.19321 0.40967 0.63061 0.0
H2648 H 0.21382 0.43382 0.75983 0.0
H2649 H 0.20673 0.43255 0.68323 0.0
H2650 H 0.24267 0.4203 0.64888 0.0
H2651 H 0.24989 0.42152 0.72618 0.0
C2652 C 0.22395 0.42853 0.53624 0.0
C2653 C 0.20748 0.41977 0.52672 0.0
C2654 C 0.22935 0.43046 0.5795 0.0
C2655 C 0.21839 0.42384 0.61412 0.0
C2656 C 0.20193 0.41507 0.60458 0.0
C2657 C 0.19654 0.413 0.56135 0.0
C2658 C 0.2204 0.43102 0.73613 0.0
C2659 C 0.23237 0.42763 0.74941 0.0
C2660 C 0.21623 0.4302 0.69216 0.0
C2661 C 0.22396 0.42608 0.66019 0.0
C2662 C 0.23651 0.42351 0.67291 0.0
C2663 C 0.24066 0.42423 0.71717 0.0
H2664 H 0.49633 0.91477 0.10562 0.0
H2665 H 0.44774 0.90223 0.07383 0.0
H2666 H 0.49101 0.91717 0.1828 0.0
H2667 H 0.44261 0.9047 0.15027 0.0
H2668 H 0.44652 0.93188 0.27689 0.0
H2669 H 0.45235 0.92812 0.20141 0.0
H2670 H 0.47382 0.90081 0.24697 0.0
H2671 H 0.46804 0.90455 0.3224 0.0
C2672 C 0.48448 0.91226 0.11504 0.0
C2673 C 0.47253 0.90843 0.08331 0.0
C2674 C 0.48145 0.91368 0.15921 0.0
C2675 C 0.46647 0.9114 0.17235 0.0
C2676 C 0.45436 0.90687 0.14097 0.0
C2677 C 0.45732 0.90534 0.09711 0.0
C2678 C 0.45253 0.92513 0.27083 0.0
C2679 C 0.45675 0.91847 0.30562 0.0
C2680 C 0.45579 0.9229 0.22763 0.0
C2681 C 0.46347 0.9141 0.21834 0.0
C2682 C 0.46797 0.90771 0.25316 0.0
C2683 C 0.46456 0.90979 0.29632 0.0
H2684 H 0.08898 0.58299 0.10838 0.0
H2685 H 0.09667 0.54402 0.07211 0.0
H2686 H 0.08699 0.57503 0.18523 0.0
H2687 H 0.09478 0.53628 0.14825 0.0
H2688 H 0.06941 0.51456 0.27766 0.0
H2689 H 0.07272 0.52412 0.20227 0.0
H2690 H 0.10284 0.57269 0.24681 0.0
H2691 H 0.09946 0.56322 0.32213 0.0
C2692 C 0.09051 0.57294 0.11673 0.0
C2693 C 0.09286 0.5641 0.08389 0.0
C2694 C 0.08935 0.56836 0.16073 0.0
C2695 C 0.09046 0.55486 0.17263 0.0
C2696 C 0.09351 0.54651 0.14002 0.0
C2697 C 0.09472 0.55107 0.0963 0.0
C2698 C 0.0767 0.52727 0.27139 0.0
C2699 C 0.0842 0.5381 0.30589 0.0
C2700 C 0.07868 0.53275 0.22821 0.0
C2701 C 0.08811 0.54917 0.21863 0.0
C2702 C 0.09542 0.56 0.25318 0.0
C2703 C 0.09355 0.55453 0.29631 0.0
H2704 H 0.45693 0.554 0.07437 0.0
H2705 H 0.41968 0.50586 0.10573 0.0
H2706 H 0.46392 0.55915 0.15118 0.0
H2707 H 0.42679 0.5112 0.1833 0.0
H2708 H 0.4366 0.53464 0.32256 0.0
H2709 H 0.42761 0.52881 0.2466 0.0
H2710 H 0.47663 0.54896 0.20414 0.0
H2711 H 0.48567 0.55482 0.28001 0.0
C2712 C 0.45008 0.54452 0.09761 0.0
C2713 C 0.43778 0.52943 0.0836 0.0
C2714 C 0.4542 0.54749 0.1417 0.0
C2715 C 0.44609 0.53551 0.17313 0.0
C2716 C 0.43326 0.52066 0.1597 0.0
C2717 C 0.42917 0.51762 0.11529 0.0
C2718 C 0.44547 0.53781 0.29703 0.0
C2719 C 0.46187 0.54525 0.3073 0.0
C2720 C 0.44029 0.53438 0.25358 0.0
C2721 C 0.45141 0.5385 0.21947 0.0
C2722 C 0.46779 0.54582 0.22976 0.0
C2723 C 0.47296 0.54909 0.27322 0.0
H2724 H 0.06896 0.55559 0.77742 0.0
H2725 H 0.09934 0.53742 0.82224 0.0
H2726 H 0.07248 0.54948 0.70207 0.0
H2727 H 0.10293 0.53146 0.74698 0.0
H2728 H 0.08954 0.50742 0.60839 0.0
H2729 H 0.08731 0.51325 0.6852 0.0
H2730 H 0.09466 0.55964 0.64832 0.0
H2731 H 0.09679 0.55393 0.57221 0.0
C2732 C 0.07637 0.55029 0.77124 0.0
C2733 C 0.08389 0.54705 0.80583 0.0
C2734 C 0.07846 0.54687 0.72808 0.0
C2735 C 0.08805 0.54005 0.71862 0.0
C2736 C 0.09539 0.5366 0.75326 0.0
C2737 C 0.09339 0.54012 0.79635 0.0
C2738 C 0.09093 0.51895 0.61676 0.0
C2739 C 0.09322 0.53012 0.58395 0.0
C2740 C 0.08962 0.52228 0.66074 0.0
C2741 C 0.09054 0.53681 0.67265 0.0
C2742 C 0.09353 0.54821 0.64008 0.0
C2743 C 0.09489 0.54494 0.59639 0.0
H2744 H 0.46831 0.56519 0.82296 0.0
H2745 H 0.44668 0.51617 0.7788 0.0
H2746 H 0.474 0.57443 0.7472 0.0
H2747 H 0.4524 0.52546 0.70309 0.0
H2748 H 0.44766 0.54619 0.57471 0.0
H2749 H 0.44261 0.53896 0.65142 0.0
H2750 H 0.49109 0.57494 0.68299 0.0
H2751 H 0.49633 0.58228 0.60555 0.0
C2752 C 0.46479 0.55638 0.79711 0.0
C2753 C 0.45698 0.53992 0.80688 0.0
C2754 C 0.46814 0.5617 0.75377 0.0
C2755 C 0.46357 0.55068 0.71926 0.0
C2756 C 0.45589 0.53423 0.72904 0.0
C2757 C 0.4527 0.52891 0.77239 0.0
C2758 C 0.45727 0.55275 0.59782 0.0
C2759 C 0.47248 0.56477 0.58368 0.0
C2760 C 0.45436 0.54848 0.64185 0.0
C2761 C 0.46652 0.55619 0.67307 0.0
C2762 C 0.4815 0.56878 0.65955 0.0
C2763 C 0.48448 0.57301 0.61522 0.0
H2764 H 0.43717 0.90138 0.82157 0.0
H2765 H 0.48604 0.93216 0.77972 0.0
H2766 H 0.42824 0.89814 0.74563 0.0
H2767 H 0.47704 0.92898 0.70385 0.0
H2768 H 0.45851 0.90532 0.57272 0.0
H2769 H 0.46554 0.90693 0.64943 0.0
H2770 H 0.42623 0.9142 0.68357 0.0
H2771 H 0.419 0.91253 0.60618 0.0
C2772 C 0.44601 0.90749 0.7962 0.0
C2773 C 0.46234 0.917 0.80668 0.0
C2774 C 0.44085 0.90569 0.75274 0.0
C2775 C 0.45193 0.91323 0.7188 0.0
C2776 C 0.46824 0.92284 0.7293 0.0
C2777 C 0.47339 0.92474 0.77277 0.0
C2778 C 0.45119 0.9071 0.5964 0.0
C2779 C 0.43823 0.90893 0.58305 0.0
C2780 C 0.45534 0.90814 0.64045 0.0
C2781 C 0.44662 0.91097 0.67244 0.0
C2782 C 0.43317 0.91202 0.65957 0.0
C2783 C 0.42902 0.91104 0.61525 0.0
H2784 H 0.19147 0.44205 0.22887 0.0
H2785 H 0.19909 0.4027 0.25874 0.0
H2786 H 0.19785 0.4407 0.15183 0.0
H2787 H 0.20441 0.40053 0.18231 0.0
H2788 H 0.22972 0.40987 0.05355 0.0
H2789 H 0.22365 0.41249 0.1293 0.0
H2790 H 0.18997 0.42682 0.08582 0.0
H2791 H 0.19691 0.42515 0.01013 0.0
C2792 C 0.19431 0.433 0.21868 0.0
C2793 C 0.19506 0.42266 0.2495 0.0
C2794 C 0.19789 0.43213 0.1746 0.0
C2795 C 0.20191 0.42063 0.1606 0.0
C2796 C 0.20196 0.40991 0.1917 0.0
C2797 C 0.19878 0.41105 0.23558 0.0
C2798 C 0.22102 0.41356 0.0603 0.0
C2799 C 0.21375 0.41724 0.02602 0.0
C2800 C 0.21742 0.41499 0.10378 0.0
C2801 C 0.20615 0.41974 0.11407 0.0
C2802 C 0.19888 0.42338 0.07949 0.0
C2803 C 0.20275 0.4223 0.036 0.0
H2804 H 0.59084 0.81985 0.05468 0.0
H2805 H 0.57534 0.77181 0.01026 0.0
H2806 H 0.58841 0.811 0.13023 0.0
H2807 H 0.57384 0.76305 0.08576 0.0
H2808 H 0.55991 0.74942 0.22974 0.0
H2809 H 0.56047 0.75711 0.15292 0.0
H2810 H 0.60114 0.80374 0.18124 0.0
H2811 H 0.59979 0.7963 0.25752 0.0
C2812 C 0.58708 0.80742 0.06117 0.0
C2813 C 0.58335 0.79654 0.02668 0.0
C2814 C 0.58578 0.80232 0.10451 0.0
C2815 C 0.58112 0.7863 0.11442 0.0
C2816 C 0.57726 0.77541 0.07967 0.0
C2817 C 0.57823 0.78045 0.03631 0.0
C2818 C 0.5689 0.76127 0.21911 0.0
C2819 C 0.57965 0.77237 0.24929 0.0
C2820 C 0.56931 0.7657 0.17518 0.0
C2821 C 0.58071 0.78119 0.16072 0.0
C2822 C 0.59183 0.79194 0.19111 0.0
C2823 C 0.59117 0.78765 0.23485 0.0
H2824 H 0.2124 0.7815 0.2562 0.0
H2825 H 0.24987 0.82938 0.22349 0.0
H2826 H 0.20501 0.77625 0.17957 0.0
H2827 H 0.24236 0.82395 0.14622 0.0
H2828 H 0.23192 0.80081 0.007 0.0
H2829 H 0.24113 0.80645 0.0828 0.0
H2830 H 0.19226 0.78623 0.12656 0.0
H2831 H 0.18299 0.78055 0.05083 0.0
C2832 C 0.21921 0.7909 0.2327 0.0
C2833 C 0.2317 0.80595 0.24631 0.0
C2834 C 0.21486 0.78787 0.1887 0.0
C2835 C 0.22293 0.79975 0.15694 0.0
C2836 C 0.23592 0.81455 0.17 0.0
C2837 C 0.24023 0.81765 0.21428 0.0
C2838 C 0.22312 0.79758 0.03278 0.0
C2839 C 0.2067 0.79019 0.02286 0.0
C2840 C 0.22844 0.8009 0.07617 0.0
C2841 C 0.21743 0.79672 0.11065 0.0
C2842 C 0.20102 0.78942 0.10071 0.0
C2843 C 0.19572 0.78625 0.05731 0.0
H2844 H 0.19631 0.23039 0.30612 0.0
H2845 H 0.15072 0.19221 0.26064 0.0
H2846 H 0.20905 0.21534 0.28383 0.0
H2847 H 0.16368 0.17717 0.23681 0.0
H2848 H 0.19262 0.14992 0.23575 0.0
H2849 H 0.1775 0.16285 0.25904 0.0
H2850 H 0.2165 0.20853 0.21679 0.0
H2851 H 0.23162 0.1958 0.19506 0.0
C2852 C 0.18898 0.21875 0.29126 0.0
C2853 C 0.17251 0.21257 0.28479 0.0
C2854 C 0.19633 0.21014 0.27813 0.0
C2855 C 0.18749 0.19516 0.25759 0.0
C2856 C 0.17086 0.18866 0.25255 0.0
C2857 C 0.16343 0.19727 0.26615 0.0
C2858 C 0.19785 0.1627 0.23113 0.0
C2859 C 0.21339 0.17186 0.21404 0.0
C2860 C 0.18918 0.17011 0.24442 0.0
C2861 C 0.19589 0.1868 0.24062 0.0
C2862 C 0.21112 0.19575 0.22152 0.0
C2863 C 0.21978 0.18841 0.20871 0.0
H2864 H 0.77255 0.96607 0.30599 0.0
H2865 H 0.81109 0.95898 0.26195 0.0
H2866 H 0.78741 0.9938 0.28299 0.0
H2867 H 0.82596 0.98695 0.23764 0.0
H2868 H 0.85252 0.04331 0.23608 0.0
H2869 H 0.83991 0.01534 0.2601 0.0
H2870 H 0.79418 0.00755 0.21452 0.0
H2871 H 0.80657 0.03528 0.19183 0.0
C2872 C 0.78423 0.97044 0.29135 0.0
C2873 C 0.79055 0.96024 0.28542 0.0
C2874 C 0.79273 0.98636 0.27785 0.0
C2875 C 0.80776 0.99257 0.25755 0.0
C2876 C 0.81443 0.98257 0.25315 0.0
C2877 C 0.8059 0.96655 0.26703 0.0
C2878 C 0.8398 0.03554 0.23086 0.0
C2879 C 0.83052 0.04158 0.21254 0.0
C2880 C 0.83258 0.01951 0.24458 0.0
C2881 C 0.81596 0.00925 0.24006 0.0
C2882 C 0.80691 0.01519 0.21975 0.0
C2883 C 0.81406 0.03112 0.20643 0.0
H2884 H 0.96648 0.77202 0.19434 0.0
H2885 H 0.95974 0.81087 0.23741 0.0
H2886 H 0.99435 0.78697 0.2161 0.0
H2887 H 0.9878 0.8258 0.26071 0.0
H2888 H 0.04389 0.85257 0.26213 0.0
H2889 H 0.01588 0.83972 0.23842 0.0
H2890 H 0.00877 0.79409 0.28281 0.0
H2891 H 0.03657 0.80674 0.30499 0.0
C2892 C 0.97096 0.78379 0.20853 0.0
C2893 C 0.96083 0.79018 0.21448 0.0
C2894 C 0.98696 0.79234 0.22136 0.0
C2895 C 0.99331 0.80749 0.24109 0.0
C2896 C 0.98334 0.81419 0.24559 0.0
C2897 C 0.96726 0.80563 0.23229 0.0
C2898 C 0.03626 0.83982 0.26707 0.0
C2899 C 0.04251 0.83066 0.28498 0.0
C2900 C 0.02021 0.83245 0.25355 0.0
C2901 C 0.01009 0.81579 0.2579 0.0
C2902 C 0.01627 0.80685 0.27765 0.0
C2903 C 0.03224 0.81414 0.29072 0.0
H2904 H 0.80669 0.77038 0.69423 0.0
H2905 H 0.85246 0.80911 0.73661 0.0
H2906 H 0.79394 0.78548 0.71609 0.0
H2907 H 0.83951 0.82422 0.75998 0.0
H2908 H 0.77187 0.80539 0.80578 0.0
H2909 H 0.78693 0.79268 0.78329 0.0
H2910 H 0.82531 0.83819 0.7378 0.0
H2911 H 0.81025 0.85111 0.76178 0.0
C2912 C 0.81405 0.78216 0.70827 0.0
C2913 C 0.83057 0.78847 0.71406 0.0
C2914 C 0.80671 0.7908 0.72115 0.0
C2915 C 0.81561 0.80595 0.74076 0.0
C2916 C 0.83228 0.81259 0.74498 0.0
C2917 C 0.8397 0.80394 0.73164 0.0
C2918 C 0.78355 0.81275 0.79122 0.0
C2919 C 0.78978 0.82925 0.78523 0.0
C2920 C 0.79217 0.80542 0.77797 0.0
C2921 C 0.80722 0.81432 0.7578 0.0
C2922 C 0.81377 0.83097 0.75324 0.0
C2923 C 0.80514 0.83837 0.76693 0.0
H2924 H 0.2311 0.03707 0.69858 0.0
H2925 H 0.19226 0.04402 0.74041 0.0
H2926 H 0.21607 0.00926 0.72071 0.0
H2927 H 0.17721 0.01599 0.76405 0.0
H2928 H 0.15029 0.95977 0.76407 0.0
H2929 H 0.16328 0.9879 0.74141 0.0
H2930 H 0.20865 0.99476 0.78733 0.0
H2931 H 0.19586 0.96684 0.80846 0.0
C2932 C 0.21933 0.03266 0.71265 0.0
C2933 C 0.21296 0.04283 0.71808 0.0
C2934 C 0.21072 0.01668 0.72568 0.0
C2935 C 0.19553 0.01039 0.74509 0.0
C2936 C 0.18886 0.0204 0.74919 0.0
C2937 C 0.19749 0.03647 0.73572 0.0
C2938 C 0.163 0.96737 0.76964 0.0
C2939 C 0.17207 0.96102 0.78759 0.0
C2940 C 0.17046 0.9835 0.75671 0.0
C2941 C 0.18709 0.99357 0.76172 0.0
C2942 C 0.19592 0.9873 0.78167 0.0
C2943 C 0.18854 0.97126 0.79413 0.0
H2944 H 0.96757 0.19471 0.68954 0.0
H2945 H 0.95995 0.14941 0.7383 0.0
H2946 H 0.99537 0.20753 0.71192 0.0
H2947 H 0.98798 0.16246 0.76203 0.0
H2948 H 0.04429 0.19161 0.76367 0.0
H2949 H 0.01634 0.17633 0.7394 0.0
H2950 H 0.00918 0.21516 0.7802 0.0
H2951 H 0.03689 0.2304 0.8031 0.0
C2952 C 0.97185 0.18746 0.70506 0.0
C2953 C 0.96148 0.17106 0.71254 0.0
C2954 C 0.9878 0.19485 0.7182 0.0
C2955 C 0.99387 0.18612 0.7397 0.0
C2956 C 0.98371 0.16954 0.74557 0.0
C2957 C 0.96765 0.16207 0.73203 0.0
C2958 C 0.03666 0.19677 0.76773 0.0
C2959 C 0.04287 0.2123 0.78483 0.0
C2960 C 0.02065 0.18802 0.75389 0.0
C2961 C 0.01056 0.19462 0.75705 0.0
C2962 C 0.01668 0.20986 0.77602 0.0
C2963 C 0.03259 0.21858 0.78947 0.0
H2964 H 0.86225 0.56275 0.63837 0.0
H2965 H 0.81729 0.52471 0.58898 0.0
H2966 H 0.87546 0.54817 0.61585 0.0
H2967 H 0.83073 0.51018 0.56485 0.0
H2968 H 0.85981 0.48321 0.56379 0.0
H2969 H 0.84436 0.49582 0.58667 0.0
H2970 H 0.88385 0.54202 0.54971 0.0
H2971 H 0.8993 0.52956 0.5285 0.0
C2972 C 0.85517 0.55125 0.62257 0.0
C2973 C 0.83873 0.54496 0.61517 0.0
C2974 C 0.86279 0.54291 0.60929 0.0
C2975 C 0.85427 0.52811 0.58763 0.0
C2976 C 0.83768 0.52152 0.5815 0.0
C2977 C 0.82997 0.52985 0.59526 0.0
C2978 C 0.86508 0.49604 0.56023 0.0
C2979 C 0.88084 0.50541 0.54479 0.0
C2980 C 0.85623 0.50327 0.57328 0.0
C2981 C 0.86294 0.52 0.57087 0.0
C2982 C 0.87843 0.52918 0.55338 0.0
C2983 C 0.88728 0.52201 0.54085 0.0
H2984 H 0.46646 0.30421 0.69129 0.0
H2985 H 0.44765 0.28838 0.5611 0.0
H2986 H 0.48238 0.33169 0.66414 0.0
H2987 H 0.4634 0.31574 0.53442 0.0
H2988 H 0.47318 0.3682 0.52805 0.0
H2989 H 0.46079 0.34032 0.55079 0.0
H2990 H 0.50532 0.34948 0.60913 0.0
H2991 H 0.51791 0.37756 0.58573 0.0
C2992 C 0.46587 0.30653 0.65686 0.0
C2993 C 0.45569 0.29408 0.62849 0.0
C2994 C 0.47504 0.32225 0.6413 0.0
C2995 C 0.47404 0.32586 0.59723 0.0
C2996 C 0.4643 0.31333 0.56862 0.0
C2997 C 0.45532 0.29763 0.58397 0.0
C2998 C 0.48041 0.36427 0.54533 0.0
C2999 C 0.49654 0.37509 0.55502 0.0
C3000 C 0.47332 0.34827 0.55819 0.0
C3001 C 0.48209 0.34272 0.5817 0.0
C3002 C 0.49827 0.35347 0.59116 0.0
C3003 C 0.50549 0.36948 0.57752 0.0
H3004 H 0.6338 0.10483 0.52604 0.0
H3005 H 0.62673 0.14331 0.57065 0.0
H3006 H 0.66171 0.11993 0.5474 0.0
H3007 H 0.65482 0.15838 0.59366 0.0
H3008 H 0.70421 0.13978 0.6351 0.0
H3009 H 0.67634 0.12696 0.61347 0.0
H3010 H 0.6828 0.1726 0.57158 0.0
H3011 H 0.71086 0.18562 0.59487 0.0
C3012 C 0.63823 0.11655 0.54049 0.0
C3013 C 0.628 0.1228 0.54697 0.0
C3014 C 0.65425 0.12519 0.55311 0.0
C3015 C 0.66051 0.14027 0.57321 0.0
C3016 C 0.65044 0.14683 0.57823 0.0
C3017 C 0.63434 0.13819 0.5651 0.0
C3018 C 0.69971 0.14714 0.62152 0.0
C3019 C 0.70981 0.16371 0.61637 0.0
C3020 C 0.6837 0.13975 0.60875 0.0
C3021 C 0.67733 0.14865 0.58982 0.0
C3022 C 0.68728 0.16536 0.58608 0.0
C3023 C 0.70336 0.17283 0.59936 0.0
H3024 H 0.47718 0.1846 0.09548 0.0
H3025 H 0.43749 0.13803 0.12826 0.0
H3026 H 0.49284 0.17211 0.07321 0.0
H3027 H 0.4531 0.12573 0.10758 0.0
H3028 H 0.47538 0.10523 0.0217 0.0
H3029 H 0.46213 0.12003 0.04158 0.0
H3030 H 0.50622 0.1575 0.09713 0.0
H3031 H 0.51974 0.14273 0.07563 0.0
C3032 C 0.47188 0.17175 0.09846 0.0
C3033 C 0.45602 0.16229 0.11311 0.0
C3034 C 0.48085 0.16459 0.08579 0.0
C3035 C 0.47414 0.14786 0.08778 0.0
C3036 C 0.45852 0.13858 0.10426 0.0
C3037 C 0.44957 0.14566 0.11645 0.0
C3038 C 0.48232 0.11667 0.03791 0.0
C3039 C 0.49857 0.12272 0.04751 0.0
C3040 C 0.47468 0.12514 0.04962 0.0
C3041 C 0.48299 0.13982 0.07191 0.0
C3042 C 0.49945 0.14624 0.07999 0.0
C3043 C 0.5072 0.13778 0.06775 0.0
H3044 H 0.89897 0.36977 0.02874 0.0
H3045 H 0.85965 0.3766 0.06619 0.0
H3046 H 0.88365 0.34187 0.05008 0.0
H3047 H 0.84435 0.34855 0.08928 0.0
H3048 H 0.8172 0.29261 0.09123 0.0
H3049 H 0.83057 0.32064 0.06767 0.0
H3050 H 0.87556 0.32712 0.1157 0.0
H3051 H 0.8624 0.29925 0.13755 0.0
C3052 C 0.88701 0.3653 0.04162 0.0
C3053 C 0.88058 0.37545 0.04607 0.0
C3054 C 0.87824 0.34928 0.05425 0.0
C3055 C 0.86285 0.34296 0.07237 0.0
C3056 C 0.85614 0.35297 0.07539 0.0
C3057 C 0.86491 0.36905 0.06221 0.0
C3058 C 0.82992 0.30011 0.09701 0.0
C3059 C 0.83877 0.29367 0.11584 0.0
C3060 C 0.83759 0.31618 0.08357 0.0
C3061 C 0.85423 0.32613 0.08898 0.0
C3062 C 0.86284 0.31976 0.10967 0.0
C3063 C 0.85526 0.30376 0.12259 0.0
H3064 H 0.70289 0.56382 0.14127 0.0
H3065 H 0.71028 0.52574 0.09485 0.0
H3066 H 0.67492 0.54851 0.12077 0.0
H3067 H 0.68208 0.51043 0.07284 0.0
H3068 H 0.63235 0.52857 0.03307 0.0
H3069 H 0.66024 0.5415 0.05435 0.0
H3070 H 0.65405 0.49599 0.09648 0.0
H3071 H 0.62591 0.48285 0.07372 0.0
C3072 C 0.69853 0.55214 0.12661 0.0
C3073 C 0.70888 0.54608 0.11931 0.0
C3074 C 0.68246 0.54338 0.11452 0.0
C3075 C 0.67625 0.52835 0.09422 0.0
C3076 C 0.68644 0.52195 0.08843 0.0
C3077 C 0.7026 0.53073 0.10097 0.0
C3078 C 0.63689 0.52125 0.04669 0.0
C3079 C 0.62683 0.50468 0.05206 0.0
C3080 C 0.65292 0.52871 0.05923 0.0
C3081 C 0.65938 0.51987 0.07805 0.0
C3082 C 0.64949 0.50317 0.08207 0.0
C3083 C 0.63336 0.49564 0.0691 0.0
H3084 H 0.48277 0.85776 0.92559 0.0
H3085 H 0.5281 0.89607 0.97212 0.0
H3086 H 0.49596 0.84287 0.90231 0.0
H3087 H 0.54106 0.88117 0.95038 0.0
H3088 H 0.5641 0.86208 0.86156 0.0
H3089 H 0.5488 0.8746 0.88347 0.0
H3090 H 0.50988 0.82868 0.92457 0.0
H3091 H 0.52519 0.81596 0.90111 0.0
C3092 C 0.49547 0.86287 0.9315 0.0
C3093 C 0.50442 0.87818 0.95022 0.0
C3094 C 0.50303 0.85435 0.9182 0.0
C3095 C 0.51965 0.86094 0.92363 0.0
C3096 C 0.52835 0.8759 0.94437 0.0
C3097 C 0.52088 0.88442 0.95719 0.0
C3098 C 0.55224 0.85459 0.87501 0.0
C3099 C 0.54593 0.83803 0.87995 0.0
C3100 C 0.54348 0.8618 0.88793 0.0
C3101 C 0.52821 0.85273 0.90674 0.0
C3102 C 0.52159 0.83604 0.91019 0.0
C3103 C 0.53037 0.82875 0.8968 0.0
H3104 H 0.14342 0.62597 0.92542 0.0
H3105 H 0.10556 0.63334 0.97394 0.0
H3106 H 0.1584 0.65406 0.90225 0.0
H3107 H 0.12057 0.66122 0.95235 0.0
H3108 H 0.13966 0.7035 0.86398 0.0
H3109 H 0.12699 0.67567 0.8858 0.0
H3110 H 0.17292 0.68214 0.92462 0.0
H3111 H 0.18578 0.71019 0.90121 0.0
C3112 C 0.13842 0.63363 0.93175 0.0
C3113 C 0.12321 0.62738 0.95103 0.0
C3114 C 0.147 0.64973 0.91854 0.0
C3115 C 0.14057 0.65987 0.92462 0.0
C3116 C 0.12571 0.6537 0.94584 0.0
C3117 C 0.11712 0.63769 0.95856 0.0
C3118 C 0.14712 0.69902 0.87696 0.0
C3119 C 0.16373 0.70912 0.88122 0.0
C3120 C 0.13982 0.68303 0.88982 0.0
C3121 C 0.14886 0.67667 0.90792 0.0
C3122 C 0.16558 0.68661 0.91078 0.0
C3123 C 0.17296 0.70269 0.89744 0.0
H3124 H 0.29284 0.47734 0.90463 0.0
H3125 H 0.29998 0.43886 0.86044 0.0
H3126 H 0.32096 0.4925 0.92744 0.0
H3127 H 0.32788 0.45401 0.88175 0.0
H3128 H 0.37719 0.51961 0.92741 0.0
H3129 H 0.34908 0.50664 0.90447 0.0
H3130 H 0.3423 0.46112 0.94864 0.0
H3131 H 0.37018 0.47387 0.97007 0.0
C3132 C 0.30046 0.47224 0.89915 0.0
C3133 C 0.29413 0.45682 0.8812 0.0
C3134 C 0.31657 0.48092 0.91217 0.0
C3135 C 0.32665 0.47436 0.90726 0.0
C3136 C 0.3204 0.45927 0.88733 0.0
C3137 C 0.30438 0.45059 0.87477 0.0
C3138 C 0.3696 0.50686 0.93251 0.0
C3139 C 0.37597 0.49774 0.95008 0.0
C3140 C 0.3535 0.49942 0.91942 0.0
C3141 C 0.34346 0.48276 0.92387 0.0
C3142 C 0.34974 0.47388 0.9434 0.0
C3143 C 0.36575 0.48123 0.95604 0.0
H3144 H 0.10663 0.47406 0.47364 0.0
H3145 H 0.14433 0.51938 0.42507 0.0
H3146 H 0.1217 0.46129 0.45169 0.0
H3147 H 0.15939 0.50638 0.40166 0.0
H3148 H 0.14075 0.43826 0.36287 0.0
H3149 H 0.1281 0.45347 0.38445 0.0
H3150 H 0.17396 0.49276 0.42435 0.0
H3151 H 0.18682 0.47753 0.40126 0.0
C3152 C 0.11817 0.48132 0.4582 0.0
C3153 C 0.1242 0.49771 0.45073 0.0
C3154 C 0.12679 0.47396 0.44528 0.0
C3155 C 0.14163 0.4827 0.42397 0.0
C3156 C 0.14801 0.49928 0.41799 0.0
C3157 C 0.13938 0.50672 0.43136 0.0
C3158 C 0.14821 0.45018 0.37599 0.0
C3159 C 0.16478 0.45661 0.38074 0.0
C3160 C 0.14091 0.45889 0.3887 0.0
C3161 C 0.14993 0.47424 0.40711 0.0
C3162 C 0.16665 0.48098 0.4103 0.0
C3163 C 0.17401 0.47226 0.39712 0.0
H3164 H 0.5285 0.63204 0.47022 0.0
H3165 H 0.48296 0.62541 0.4271 0.0
H3166 H 0.54148 0.65992 0.44863 0.0
H3167 H 0.49615 0.65349 0.40392 0.0
H3168 H 0.52557 0.7096 0.4031 0.0
H3169 H 0.51031 0.68153 0.42622 0.0
H3170 H 0.54889 0.67445 0.38222 0.0
H3171 H 0.56416 0.70232 0.3607 0.0
C3172 C 0.52124 0.63655 0.45604 0.0
C3173 C 0.50471 0.62645 0.45003 0.0
C3174 C 0.52872 0.65256 0.4433 0.0
C3175 C 0.51996 0.65895 0.42358 0.0
C3176 C 0.50328 0.64901 0.41903 0.0
C3177 C 0.49572 0.63291 0.43226 0.0
C3178 C 0.53068 0.70196 0.39808 0.0
C3179 C 0.54615 0.70824 0.38053 0.0
C3180 C 0.52194 0.68587 0.41127 0.0
C3181 C 0.52847 0.67575 0.40691 0.0
C3182 C 0.54364 0.68195 0.3874 0.0
C3183 C 0.55238 0.69796 0.3747 0.0
H3184 H 0.37726 0.85913 0.42445 0.0
H3185 H 0.37023 0.8978 0.46748 0.0
H3186 H 0.34927 0.84415 0.4006 0.0
H3187 H 0.34243 0.8828 0.44526 0.0
H3188 H 0.29992 0.86272 0.35781 0.0
H3189 H 0.32783 0.87557 0.37913 0.0
H3190 H 0.32128 0.83006 0.42262 0.0
H3191 H 0.29319 0.81701 0.39964 0.0
C3192 C 0.3697 0.86432 0.42939 0.0
C3193 C 0.37602 0.87973 0.44741 0.0
C3194 C 0.35365 0.85574 0.41579 0.0
C3195 C 0.34361 0.86236 0.42021 0.0
C3196 C 0.34986 0.87748 0.44002 0.0
C3197 C 0.36583 0.88607 0.45312 0.0
C3198 C 0.30441 0.8554 0.37164 0.0
C3199 C 0.29428 0.83886 0.37736 0.0
C3200 C 0.32044 0.8628 0.38423 0.0
C3201 C 0.3268 0.85394 0.40354 0.0
C3202 C 0.31682 0.83726 0.4078 0.0
C3203 C 0.30072 0.82978 0.39469 0.0
H3204 H 0.28913 0.13275 0.19809 0.0
H3205 H 0.30437 0.18297 0.18551 0.0
H3206 H 0.31594 0.13846 0.1785 0.0
H3207 H 0.33126 0.1888 0.16834 0.0
H3208 H 0.37423 0.19311 0.09642 0.0
H3209 H 0.34694 0.18663 0.11333 0.0
H3210 H 0.34235 0.14989 0.203 0.0
H3211 H 0.36917 0.15582 0.18452 0.0
C3212 C 0.29825 0.14504 0.1919 0.0
C3213 C 0.29455 0.15738 0.19356 0.0
C3214 C 0.31368 0.14835 0.18076 0.0
C3215 C 0.32587 0.16412 0.1716 0.0
C3216 C 0.32218 0.17647 0.17416 0.0
C3217 C 0.30673 0.17313 0.18463 0.0
C3218 C 0.36734 0.1836 0.11955 0.0
C3219 C 0.37392 0.175 0.13899 0.0
C3220 C 0.35171 0.17994 0.12956 0.0
C3221 C 0.34236 0.16774 0.15975 0.0
C3222 C 0.34899 0.15915 0.17904 0.0
C3223 C 0.3645 0.16266 0.1686 0.0
H3224 H 0.84851 0.21327 0.15335 0.0
H3225 H 0.79861 0.17852 0.1326 0.0
H3226 H 0.85392 0.19194 0.17084 0.0
H3227 H 0.80389 0.15713 0.15228 0.0
H3228 H 0.82196 0.12159 0.14572 0.0
H3229 H 0.81603 0.14259 0.12823 0.0
H3230 H 0.85038 0.17322 0.22512 0.0
H3231 H 0.85686 0.15238 0.24123 0.0
C3232 C 0.83865 0.20107 0.15253 0.0
C3233 C 0.82312 0.19765 0.14119 0.0
C3234 C 0.84174 0.18879 0.16315 0.0
C3235 C 0.82935 0.17274 0.16337 0.0
C3236 C 0.81381 0.1693 0.1519 0.0
C3237 C 0.81075 0.1816 0.14071 0.0
C3238 C 0.82824 0.13278 0.16349 0.0
C3239 C 0.83996 0.13529 0.19484 0.0
C3240 C 0.82474 0.14483 0.15359 0.0
C3241 C 0.83272 0.15969 0.17509 0.0
C3242 C 0.84419 0.16207 0.20719 0.0
C3243 C 0.84784 0.15005 0.21675 0.0
H3244 H 0.82021 0.63016 0.08998 0.0
H3245 H 0.78911 0.63444 0.18403 0.0
H3246 H 0.84103 0.6575 0.10624 0.0
H3247 H 0.81005 0.66133 0.20171 0.0
H3248 H 0.84588 0.7146 0.19788 0.0
H3249 H 0.82462 0.68793 0.17773 0.0
H3250 H 0.85958 0.67283 0.16068 0.0
H3251 H 0.8808 0.69959 0.17859 0.0
C3252 C 0.81781 0.6369 0.11415 0.0
C3253 C 0.80296 0.63006 0.13559 0.0
C3254 C 0.82981 0.65256 0.12381 0.0
C3255 C 0.82732 0.66169 0.15555 0.0
C3256 C 0.81238 0.65485 0.1766 0.0
C3257 C 0.80035 0.63931 0.16659 0.0
C3258 C 0.84902 0.70556 0.19001 0.0
C3259 C 0.86508 0.70928 0.19007 0.0
C3260 C 0.8368 0.69021 0.17855 0.0
C3261 C 0.84031 0.67813 0.16738 0.0
C3262 C 0.85637 0.68184 0.16813 0.0
C3263 C 0.86858 0.69721 0.17899 0.0
H3264 H 0.15299 0.36548 0.34729 0.0
H3265 H 0.20206 0.37915 0.37599 0.0
H3266 H 0.14721 0.33858 0.32981 0.0
H3267 H 0.19649 0.35245 0.35616 0.0
H3268 H 0.17788 0.29904 0.35935 0.0
H3269 H 0.18351 0.32572 0.37839 0.0
H3270 H 0.15128 0.32343 0.27665 0.0
H3271 H 0.14503 0.29626 0.25899 0.0
C3272 C 0.16258 0.36277 0.34991 0.0
C3273 C 0.17799 0.37451 0.36336 0.0
C3274 C 0.15929 0.34734 0.33929 0.0
C3275 C 0.17138 0.34327 0.34118 0.0
C3276 C 0.18678 0.355 0.35491 0.0
C3277 C 0.19002 0.37039 0.36617 0.0
C3278 C 0.17201 0.30421 0.34084 0.0
C3279 C 0.16099 0.29547 0.30756 0.0
C3280 C 0.17533 0.31962 0.35166 0.0
C3281 C 0.1679 0.32685 0.32912 0.0
C3282 C 0.15704 0.31818 0.29534 0.0
C3283 C 0.15353 0.30263 0.2849 0.0
H3284 H 0.63748 0.7875 0.34538 0.0
H3285 H 0.62399 0.82283 0.37662 0.0
H3286 H 0.66442 0.80867 0.32834 0.0
H3287 H 0.65071 0.84404 0.35726 0.0
H3288 H 0.70412 0.87881 0.36056 0.0
H3289 H 0.67744 0.85767 0.37932 0.0
H3290 H 0.67968 0.82821 0.27606 0.0
H3291 H 0.70684 0.84921 0.25868 0.0
C3292 C 0.64024 0.79979 0.34864 0.0
C3293 C 0.62854 0.80343 0.3627 0.0
C3294 C 0.65569 0.81198 0.33829 0.0
C3295 C 0.65983 0.82815 0.34106 0.0
C3296 C 0.64812 0.83177 0.35535 0.0
C3297 C 0.63272 0.81958 0.36633 0.0
C3298 C 0.69894 0.86785 0.34167 0.0
C3299 C 0.70766 0.86574 0.30803 0.0
C3300 C 0.68353 0.85571 0.35233 0.0
C3301 C 0.67627 0.84115 0.32927 0.0
C3302 C 0.68493 0.83911 0.29516 0.0
C3303 C 0.70048 0.85122 0.28487 0.0
H3304 H 0.17915 0.79966 0.36705 0.0
H3305 H 0.21442 0.84945 0.34733 0.0
H3306 H 0.158 0.80551 0.34886 0.0
H3307 H 0.1934 0.85543 0.33158 0.0
H3308 H 0.15419 0.85956 0.26311 0.0
H3309 H 0.1748 0.85265 0.27828 0.0
H3310 H 0.14384 0.81786 0.37389 0.0
H3311 H 0.12309 0.8242 0.35722 0.0
C3312 C 0.18239 0.81189 0.35954 0.0
C3313 C 0.19851 0.82407 0.35884 0.0
C3314 C 0.17025 0.81527 0.34921 0.0
C3315 C 0.17393 0.83097 0.33849 0.0
C3316 C 0.19006 0.84315 0.33865 0.0
C3317 C 0.20216 0.83973 0.34831 0.0
C3318 C 0.15178 0.85039 0.2872 0.0
C3319 C 0.13698 0.84246 0.30888 0.0
C3320 C 0.16364 0.84648 0.29618 0.0
C3321 C 0.16108 0.83471 0.32755 0.0
C3322 C 0.14622 0.82677 0.34903 0.0
C3323 C 0.13431 0.83052 0.33963 0.0
H3324 H 0.70319 0.82419 0.85979 0.0
H3325 H 0.70616 0.85662 0.7579 0.0
H3326 H 0.67656 0.81882 0.87849 0.0
H3327 H 0.67905 0.85063 0.7752 0.0
H3328 H 0.63707 0.84956 0.8445 0.0
H3329 H 0.66392 0.85508 0.82737 0.0
H3330 H 0.64982 0.80593 0.85667 0.0
H3331 H 0.62319 0.80066 0.87614 0.0
C3332 C 0.69807 0.83002 0.84087 0.0
C3333 C 0.70686 0.84085 0.80728 0.0
C3334 C 0.68269 0.82685 0.8515 0.0
C3335 C 0.67552 0.83425 0.82844 0.0
C3336 C 0.68424 0.84491 0.79431 0.0
C3337 C 0.69975 0.84826 0.78408 0.0
C3338 C 0.63973 0.83996 0.84781 0.0
C3339 C 0.62794 0.82467 0.86202 0.0
C3340 C 0.65513 0.84308 0.83741 0.0
C3341 C 0.65913 0.83095 0.84026 0.0
C3342 C 0.64734 0.81567 0.85468 0.0
C3343 C 0.63199 0.81261 0.86573 0.0
H3344 H 0.15859 0.79025 0.81003 0.0
H3345 H 0.19584 0.822 0.89888 0.0
H3346 H 0.15249 0.81111 0.79323 0.0
H3347 H 0.18914 0.8428 0.8838 0.0
H3348 H 0.18446 0.88193 0.81568 0.0
H3349 H 0.1908 0.86111 0.83118 0.0
H3350 H 0.14073 0.82543 0.81915 0.0
H3351 H 0.13453 0.8463 0.80103 0.0
C3352 C 0.16538 0.80165 0.82647 0.0
C3353 C 0.17774 0.80443 0.85585 0.0
C3354 C 0.16177 0.81364 0.81702 0.0
C3355 C 0.17022 0.82871 0.83719 0.0
C3356 C 0.18252 0.83146 0.86697 0.0
C3357 C 0.18631 0.8195 0.87591 0.0
C3358 C 0.17479 0.86964 0.81578 0.0
C3359 C 0.15898 0.86581 0.80663 0.0
C3360 C 0.17843 0.85765 0.8253 0.0
C3361 C 0.16631 0.8415 0.82673 0.0
C3362 C 0.15046 0.83768 0.81763 0.0
C3363 C 0.14687 0.84967 0.80736 0.0
H3364 H 0.21494 0.36555 0.84889 0.0
H3365 H 0.17939 0.37972 0.86795 0.0
H3366 H 0.19401 0.33845 0.83303 0.0
H3367 H 0.15839 0.3527 0.84975 0.0
H3368 H 0.12347 0.29927 0.85794 0.0
H3369 H 0.1443 0.32629 0.87499 0.0
H3370 H 0.17537 0.32236 0.78 0.0
H3371 H 0.15467 0.2949 0.76444 0.0
C3372 C 0.20264 0.36291 0.84968 0.0
C3373 C 0.19889 0.37486 0.86011 0.0
C3374 C 0.1906 0.34733 0.84 0.0
C3375 C 0.17443 0.34328 0.83976 0.0
C3376 C 0.17066 0.35524 0.85025 0.0
C3377 C 0.18272 0.3708 0.86056 0.0
C3378 C 0.13473 0.30413 0.84057 0.0
C3379 C 0.13738 0.29485 0.80981 0.0
C3380 C 0.14669 0.31975 0.85019 0.0
C3381 C 0.1616 0.32664 0.82894 0.0
C3382 C 0.16418 0.31741 0.7977 0.0
C3383 C 0.15226 0.30167 0.78848 0.0
H3384 H 0.81793 0.69704 0.68172 0.0
H3385 H 0.86683 0.7101 0.71029 0.0
H3386 H 0.81163 0.66988 0.66584 0.0
H3387 H 0.86077 0.68311 0.69196 0.0
H3388 H 0.84179 0.62977 0.69651 0.0
H3389 H 0.84759 0.65654 0.71509 0.0
H3390 H 0.81513 0.65409 0.61383 0.0
H3391 H 0.80871 0.62683 0.59671 0.0
C3392 C 0.82737 0.69414 0.68465 0.0
C3393 C 0.84288 0.70579 0.69762 0.0
C3394 C 0.82378 0.67854 0.67496 0.0
C3395 C 0.83568 0.67421 0.67725 0.0
C3396 C 0.85119 0.68587 0.69047 0.0
C3397 C 0.85472 0.70142 0.70084 0.0
C3398 C 0.83587 0.63491 0.67811 0.0
C3399 C 0.82477 0.62612 0.64505 0.0
C3400 C 0.8393 0.65038 0.68863 0.0
C3401 C 0.83191 0.65763 0.66596 0.0
C3402 C 0.82087 0.64885 0.6326 0.0
C3403 C 0.81726 0.63324 0.6225 0.0
H3404 H 0.29583 0.15497 0.73502 0.0
H3405 H 0.29929 0.12317 0.64175 0.0
H3406 H 0.32351 0.17522 0.71922 0.0
H3407 H 0.32644 0.14349 0.62455 0.0
H3408 H 0.37985 0.1764 0.6326 0.0
H3409 H 0.35256 0.15643 0.65136 0.0
H3410 H 0.34049 0.1937 0.66627 0.0
H3411 H 0.368 0.21373 0.64971 0.0
C3412 C 0.30244 0.15233 0.71098 0.0
C3413 C 0.29533 0.1374 0.6899 0.0
C3414 C 0.31829 0.16399 0.70165 0.0
C3415 C 0.32733 0.16104 0.67063 0.0
C3416 C 0.32008 0.14613 0.64933 0.0
C3417 C 0.30438 0.13446 0.65904 0.0
C3418 C 0.37138 0.18035 0.63973 0.0
C3419 C 0.37615 0.1967 0.63935 0.0
C3420 C 0.35565 0.16886 0.65034 0.0
C3421 C 0.3442 0.17338 0.66023 0.0
C3422 C 0.34898 0.18974 0.65957 0.0
C3423 C 0.36477 0.20125 0.64955 0.0
H3424 H 0.85067 0.14471 0.74053 0.0
H3425 H 0.88086 0.17772 0.6406 0.0
H3426 H 0.8298 0.15104 0.72301 0.0
H3427 H 0.85986 0.18344 0.62171 0.0
H3428 H 0.82476 0.20179 0.62391 0.0
H3429 H 0.84596 0.19632 0.64387 0.0
H3430 H 0.81065 0.14694 0.66961 0.0
H3431 H 0.78949 0.15262 0.65195 0.0
C3432 C 0.85284 0.15327 0.71476 0.0
C3433 C 0.86747 0.16072 0.69212 0.0
C3434 C 0.84082 0.15682 0.7044 0.0
C3435 C 0.84305 0.16773 0.67073 0.0
C3436 C 0.85774 0.17521 0.64832 0.0
C3437 C 0.86981 0.17183 0.65905 0.0
C3438 C 0.82152 0.18975 0.63362 0.0
C3439 C 0.80539 0.17766 0.63619 0.0
C3440 C 0.83371 0.18657 0.64497 0.0
C3441 C 0.83009 0.17117 0.65858 0.0
C3442 C 0.81394 0.15903 0.66024 0.0
C3443 C 0.80177 0.16225 0.64952 0.0
H3444 H 0.04142 0.52752 0.4353 0.0
H3445 H 0.03572 0.48805 0.51531 0.0
H3446 H 0.01395 0.52047 0.45181 0.0
H3447 H 0.00864 0.48146 0.53318 0.0
H3448 H 0.95524 0.46495 0.52592 0.0
H3449 H 0.9822 0.47083 0.50655 0.0
H3450 H 0.99847 0.52147 0.51014 0.0
H3451 H 0.97161 0.51561 0.52748 0.0
C3452 C 0.03435 0.51738 0.45646 0.0
C3453 C 0.04085 0.5084 0.47397 0.0
C3454 C 0.01861 0.51339 0.46624 0.0
C3455 C 0.00904 0.50043 0.49414 0.0
C3456 C 0.01551 0.49136 0.51114 0.0
C3457 C 0.03116 0.49525 0.50106 0.0
C3458 C 0.96461 0.47732 0.52287 0.0
C3459 C 0.9612 0.48978 0.52832 0.0
C3460 C 0.98009 0.48072 0.5118 0.0
C3461 C 0.99255 0.49666 0.50634 0.0
C3462 C 0.98916 0.50906 0.51295 0.0
C3463 C 0.97372 0.50567 0.5235 0.0
H3464 H 0.46557 0.51145 0.46671 0.0
H3465 H 0.51563 0.54666 0.48182 0.0
H3466 H 0.47136 0.4904 0.48639 0.0
H3467 H 0.52152 0.52566 0.49918 0.0
H3468 H 0.52568 0.48694 0.57107 0.0
H3469 H 0.51901 0.50761 0.55422 0.0
H3470 H 0.48325 0.47577 0.46193 0.0
H3471 H 0.48937 0.45499 0.48025 0.0
C3472 C 0.47784 0.51469 0.47351 0.0
C3473 C 0.49011 0.53078 0.47249 0.0
C3474 C 0.48119 0.5026 0.4847 0.0
C3475 C 0.49693 0.50627 0.49461 0.0
C3476 C 0.50922 0.52235 0.49275 0.0
C3477 C 0.50584 0.53442 0.48218 0.0
C3478 C 0.51633 0.48434 0.54739 0.0
C3479 C 0.50808 0.46928 0.52711 0.0
C3480 C 0.51257 0.49624 0.53742 0.0
C3481 C 0.5006 0.49344 0.50649 0.0
C3482 C 0.49233 0.47833 0.48643 0.0
C3483 C 0.49594 0.4664 0.49678 0.0
H3484 H 0.54841 0.03175 0.51742 0.0
H3485 H 0.51313 0.04645 0.53317 0.0
H3486 H 0.52742 0.00474 0.50108 0.0
H3487 H 0.49207 0.0195 0.51449 0.0
H3488 H 0.45674 0.96614 0.52194 0.0
H3489 H 0.4776 0.99307 0.53965 0.0
H3490 H 0.50915 0.9889 0.44688 0.0
H3491 H 0.48841 0.96152 0.43065 0.0
C3492 C 0.53616 0.02924 0.51741 0.0
C3493 C 0.53249 0.04131 0.52699 0.0
C3494 C 0.52408 0.01372 0.50744 0.0
C3495 C 0.50798 0.00985 0.50606 0.0
C3496 C 0.50429 0.02192 0.51583 0.0
C3497 C 0.51638 0.03743 0.52645 0.0
C3498 C 0.46812 0.97093 0.50519 0.0
C3499 C 0.47089 0.9616 0.47487 0.0
C3500 C 0.48009 0.98649 0.51519 0.0
C3501 C 0.49513 0.99328 0.49477 0.0
C3502 C 0.49784 0.98402 0.46395 0.0
C3503 C 0.4859 0.96833 0.45434 0.0
H3504 H 0.4916 0.03566 0.97732 0.0
H3505 H 0.52779 0.03977 0.06821 0.0
H3506 H 0.48507 0.00861 0.9597 0.0
H3507 H 0.52069 0.01225 0.05207 0.0
H3508 H 0.51646 0.96925 0.98076 0.0
H3509 H 0.52281 0.99632 0.99757 0.0
H3510 H 0.47283 0.98216 0.98477 0.0
H3511 H 0.46659 0.95513 0.96557 0.0
C3512 C 0.49807 0.03074 0.99402 0.0
C3513 C 0.51028 0.03996 0.02417 0.0
C3514 C 0.49421 0.0151 0.98407 0.0
C3515 C 0.50231 0.00812 0.00438 0.0
C3516 C 0.51438 0.01728 0.0351 0.0
C3517 C 0.51839 0.03304 0.04465 0.0
C3518 C 0.50681 0.9719 0.98099 0.0
C3519 C 0.49101 0.95998 0.97141 0.0
C3520 C 0.51045 0.98745 0.99125 0.0
C3521 C 0.49836 0.99151 0.99294 0.0
C3522 C 0.48253 0.97959 0.98319 0.0
C3523 C 0.47892 0.96404 0.97227 0.0
H3524 H 0.97121 0.45609 0.02529 0.0
H3525 H 0.95488 0.49042 0.02653 0.0
H3526 H 0.99805 0.47717 0.00814 0.0
H3527 H 0.98181 0.51158 0.00734 0.0
H3528 H 0.03524 0.54789 0.01645 0.0
H3529 H 0.00821 0.52723 0.03405 0.0
H3530 H 0.01361 0.49407 0.95058 0.0
H3531 H 0.04105 0.51466 0.93434 0.0
C3532 C 0.97332 0.46816 0.02195 0.0
C3533 C 0.96083 0.47153 0.02755 0.0
C3534 C 0.98876 0.48027 0.01152 0.0
C3535 C 0.99215 0.49611 0.0058 0.0
C3536 C 0.97971 0.49955 0.01193 0.0
C3537 C 0.96424 0.48742 0.02289 0.0
C3538 C 0.03071 0.53621 0.00168 0.0
C3539 C 0.04042 0.53295 0.97406 0.0
C3540 C 0.01509 0.52435 0.01161 0.0
C3541 C 0.00865 0.50891 0.99391 0.0
C3542 C 0.01824 0.50573 0.96554 0.0
C3543 C 0.03396 0.51757 0.95592 0.0
H3544 H 0.51445 0.47464 0.07094 0.0
H3545 H 0.54612 0.51013 0.97795 0.0
H3546 H 0.49388 0.4815 0.05424 0.0
H3547 H 0.52547 0.51642 0.95981 0.0
H3548 H 0.49071 0.53513 0.96503 0.0
H3549 H 0.51148 0.52891 0.98441 0.0
H3550 H 0.47555 0.47909 0.00017 0.0
H3551 H 0.45484 0.48545 0.98313 0.0
C3552 C 0.517 0.48383 0.04679 0.0
C3553 C 0.53197 0.49184 0.02595 0.0
C3554 C 0.50517 0.48771 0.03692 0.0
C3555 C 0.50795 0.49954 0.00553 0.0
C3556 C 0.52293 0.50749 0.98473 0.0
C3557 C 0.53479 0.50377 0.99499 0.0
C3558 C 0.48726 0.52284 0.97242 0.0
C3559 C 0.47108 0.51081 0.97229 0.0
C3560 C 0.49919 0.51924 0.98344 0.0
C3561 C 0.49526 0.50346 0.99403 0.0
C3562 C 0.47907 0.49142 0.99315 0.0
C3563 C 0.46716 0.49505 0.98277 0.0
loop_
_geom_bond_atom_site_label_1
_geom_bond_atom_site_label_2
_geom_bond_distance
_geom_bond_site_symmetry_2
_ccdc_geom_bond_type
Co0 O2 2.143 . S
Co0 O8 2.074 . S
Co0 O11 2.093 . S
Co0 O24 2.097 . S
Co0 N41 2.151 . S
Co0 N49 2.214 . S
Co1 O2 2.160 . S
Co1 O7 2.058 . S
Co1 O17 2.057 . S
Co1 O32 2.037 . S
Co1 N36 2.145 . S
Co1 N57 2.257 . S
O2 Co0 2.143 . S
O2 Co1 2.160 . S
C3 O4 1.278 . S
C3 O11 1.224 . S
O4 C3 1.278 . S
C5 O6 1.245 . S
C5 O17 1.232 . S
O6 C5 1.245 . S
O7 Co1 2.058 . S
O7 C33 1.269 . S
O8 Co0 2.074 . S
O8 C33 1.257 . S
H9 C34 0.930 . S
H10 C40 0.930 . S
O11 Co0 2.093 . S
O11 C3 1.224 . S
H12 C44 0.929 . S
H13 C46 0.930 . S
H14 C47 0.930 . S
H15 C45 0.929 . S
H16 C48 0.928 . S
O17 Co1 2.057 . S
O17 C5 1.232 . S
H18 C37 0.929 . S
H19 C38 0.929 . S
H20 C50 0.931 . S
H21 C42 0.929 . S
H22 C51 0.930 . S
H23 C43 0.931 . S
O24 Co0 2.097 . S
O24 C52 1.214 . S
H25 C53 0.929 . S
H26 C54 0.929 . S
H27 C55 0.930 . S
H28 C56 0.929 . S
H29 C58 0.930 . S
H30 C35 0.930 . S
H31 C39 0.930 . S
O32 Co1 2.037 . S
O32 C52 1.234 . S
C33 O7 1.269 . S
C33 O8 1.257 . S
C34 H9 0.930 . S
C34 C37 1.388 . S
C34 C39 1.418 . S
C35 H30 0.930 . S
C35 C38 1.404 . S
C35 C39 1.353 . S
N36 Co1 2.145 . S
N36 C37 1.397 . S
N36 C38 1.334 . S
C37 H18 0.929 . S
C37 C34 1.388 . S
C37 N36 1.397 . S
C38 H19 0.929 . S
C38 C35 1.404 . S
C38 N36 1.334 . S
C39 H31 0.930 . S
C39 C34 1.418 . S
C39 C35 1.353 . S
C40 H10 0.930 . S
C40 N41 1.330 . S
C40 C42 1.446 . S
N41 Co0 2.151 . S
N41 C40 1.330 . S
N41 C45 1.418 . S
C42 H21 0.929 . S
C42 C40 1.446 . S
C42 C43 1.332 . S
C43 H23 0.931 . S
C43 C42 1.332 . S
C43 C44 1.267 . S
C44 H12 0.929 . S
C44 C43 1.267 . S
C44 C45 1.251 . S
C45 H15 0.929 . S
C45 N41 1.418 . S
C45 C44 1.251 . S
C46 H13 0.930 . S
C46 C48 1.406 . S
C46 C51 1.261 . S
C47 H14 0.930 . S
C47 N49 1.325 . S
C47 C50 1.357 . S
C48 H16 0.928 . S
C48 C46 1.406 . S
C48 N49 1.261 . S
N49 Co0 2.214 . S
N49 C47 1.325 . S
N49 C48 1.261 . S
C50 H20 0.931 . S
C50 C47 1.357 . S
C50 C51 1.312 . S
C51 H22 0.930 . S
C51 C46 1.261 . S
C51 C50 1.312 . S
C52 O24 1.214 . S
C52 O32 1.234 . S
C53 H25 0.929 . S
C53 C56 1.391 . S
C53 C58 1.391 . S
C54 H26 0.929 . S
C54 C55 1.390 . S
C54 N57 1.391 . S
C55 H27 0.930 . S
C55 C54 1.390 . S
C55 C56 1.392 . S
C56 H28 0.929 . S
C56 C53 1.391 . S
C56 C55 1.392 . S
N57 Co1 2.257 . S
N57 C54 1.391 . S
N57 C58 1.388 . S
C58 H29 0.930 . S
C58 C53 1.391 . S
C58 N57 1.388 . S
Co59 O61 2.143 . S
Co59 O67 2.074 . S
Co59 O70 2.093 . S
Co59 O83 2.097 . S
Co59 N100 2.151 . S
Co59 N108 2.214 . S
Co60 O61 2.160 . S
Co60 O66 2.058 . S
Co60 O76 2.057 . S
Co60 O91 2.037 . S
Co60 N95 2.145 . S
Co60 N116 2.257 . S
O61 Co59 2.143 . S
O61 Co60 2.160 . S
C62 O63 1.278 . S
C62 O70 1.224 . S
O63 C62 1.278 . S
C64 O65 1.245 . S
C64 O76 1.232 . S
O65 C64 1.245 . S
O66 Co60 2.058 . S
O66 C92 1.269 . S
O67 Co59 2.074 . S
O67 C92 1.257 . S
H68 C93 0.930 . S
H69 C99 0.930 . S
O70 Co59 2.093 . S
O70 C62 1.224 . S
H71 C103 0.929 . S
H72 C105 0.930 . S
H73 C106 0.930 . S
H74 C104 0.929 . S
H75 C107 0.928 . S
O76 Co60 2.057 . S
O76 C64 1.232 . S
H77 C96 0.929 . S
H78 C97 0.929 . S
H79 C109 0.931 . S
H80 C101 0.929 . S
H81 C110 0.930 . S
H82 C102 0.931 . S
O83 Co59 2.097 . S
O83 C111 1.214 . S
H84 C112 0.929 . S
H85 C113 0.929 . S
H86 C114 0.930 . S
H87 C115 0.929 . S
H88 C117 0.930 . S
H89 C94 0.930 . S
H90 C98 0.930 . S
O91 Co60 2.037 . S
O91 C111 1.234 . S
C92 O66 1.269 . S
C92 O67 1.257 . S
C93 H68 0.930 . S
C93 C96 1.388 . S
C93 C98 1.418 . S
C94 H89 0.930 . S
C94 C97 1.404 . S
C94 C98 1.353 . S
N95 Co60 2.145 . S
N95 C96 1.397 . S
N95 C97 1.334 . S
C96 H77 0.929 . S
C96 C93 1.388 . S
C96 N95 1.397 . S
C97 H78 0.929 . S
C97 C94 1.404 . S
C97 N95 1.334 . S
C98 H90 0.930 . S
C98 C93 1.418 . S
C98 C94 1.353 . S
C99 H69 0.930 . S
C99 N100 1.330 . S
C99 C101 1.446 . S
N100 Co59 2.151 . S
N100 C99 1.330 . S
N100 C104 1.418 . S
C101 H80 0.929 . S
C101 C99 1.446 . S
C101 C102 1.332 . S
C102 H82 0.931 . S
C102 C101 1.332 . S
C102 C103 1.267 . S
C103 H71 0.929 . S
C103 C102 1.267 . S
C103 C104 1.251 . S
C104 H74 0.929 . S
C104 N100 1.418 . S
C104 C103 1.251 . S
C105 H72 0.930 . S
C105 C107 1.406 . S
C105 C110 1.261 . S
C106 H73 0.930 . S
C106 N108 1.325 . S
C106 C109 1.357 . S
C107 H75 0.928 . S
C107 C105 1.406 . S
C107 N108 1.261 . S
N108 Co59 2.214 . S
N108 C106 1.325 . S
N108 C107 1.261 . S
C109 H79 0.931 . S
C109 C106 1.357 . S
C109 C110 1.312 . S
C110 H81 0.930 . S
C110 C105 1.261 . S
C110 C109 1.312 . S
C111 O83 1.214 . S
C111 O91 1.234 . S
C112 H84 0.929 . S
C112 C115 1.391 . S
C112 C117 1.391 . S
C113 H85 0.929 . S
C113 C114 1.390 . S
C113 N116 1.391 . S
C114 H86 0.930 . S
C114 C113 1.390 . S
C114 C115 1.392 . S
C115 H87 0.929 . S
C115 C112 1.391 . S
C115 C114 1.392 . S
N116 Co60 2.257 . S
N116 C113 1.391 . S
N116 C117 1.388 . S
C117 H88 0.930 . S
C117 C112 1.391 . S
C117 N116 1.388 . S
Co118 O120 2.143 . S
Co118 O126 2.074 . S
Co118 O129 2.093 . S
Co118 O142 2.097 . S
Co118 N159 2.151 . S
Co118 N167 2.214 . S
Co119 O120 2.160 . S
Co119 O125 2.058 . S
Co119 O135 2.057 . S
Co119 O150 2.037 . S
Co119 N154 2.145 . S
Co119 N175 2.257 . S
O120 Co118 2.143 . S
O120 Co119 2.160 . S
C121 O122 1.278 . S
C121 O129 1.224 . S
O122 C121 1.278 . S
C123 O124 1.245 . S
C123 O135 1.232 . S
O124 C123 1.245 . S
O125 Co119 2.058 . S
O125 C151 1.269 . S
O126 Co118 2.074 . S
O126 C151 1.257 . S
H127 C152 0.930 . S
H128 C158 0.930 . S
O129 Co118 2.093 . S
O129 C121 1.224 . S
H130 C162 0.929 . S
H131 C164 0.930 . S
H132 C165 0.930 . S
H133 C163 0.929 . S
H134 C166 0.928 . S
O135 Co119 2.057 . S
O135 C123 1.232 . S
H136 C155 0.929 . S
H137 C156 0.929 . S
H138 C168 0.931 . S
H139 C160 0.929 . S
H140 C169 0.930 . S
H141 C161 0.931 . S
O142 Co118 2.097 . S
O142 C170 1.214 . S
H143 C171 0.929 . S
H144 C172 0.929 . S
H145 C173 0.930 . S
H146 C174 0.929 . S
H147 C176 0.930 . S
H148 C153 0.930 . S
H149 C157 0.930 . S
O150 Co119 2.037 . S
O150 C170 1.234 . S
C151 O125 1.269 . S
C151 O126 1.257 . S
C152 H127 0.930 . S
C152 C155 1.388 . S
C152 C157 1.418 . S
C153 H148 0.930 . S
C153 C156 1.404 . S
C153 C157 1.353 . S
N154 Co119 2.145 . S
N154 C155 1.397 . S
N154 C156 1.334 . S
C155 H136 0.929 . S
C155 C152 1.388 . S
C155 N154 1.397 . S
C156 H137 0.929 . S
C156 C153 1.404 . S
C156 N154 1.334 . S
C157 H149 0.930 . S
C157 C152 1.418 . S
C157 C153 1.353 . S
C158 H128 0.930 . S
C158 N159 1.330 . S
C158 C160 1.446 . S
N159 Co118 2.151 . S
N159 C158 1.330 . S
N159 C163 1.418 . S
C160 H139 0.929 . S
C160 C158 1.446 . S
C160 C161 1.332 . S
C161 H141 0.931 . S
C161 C160 1.332 . S
C161 C162 1.267 . S
C162 H130 0.929 . S
C162 C161 1.267 . S
C162 C163 1.251 . S
C163 H133 0.929 . S
C163 N159 1.418 . S
C163 C162 1.251 . S
C164 H131 0.930 . S
C164 C166 1.406 . S
C164 C169 1.261 . S
C165 H132 0.930 . S
C165 N167 1.325 . S
C165 C168 1.357 . S
C166 H134 0.928 . S
C166 C164 1.406 . S
C166 N167 1.261 . S
N167 Co118 2.214 . S
N167 C165 1.325 . S
N167 C166 1.261 . S
C168 H138 0.931 . S
C168 C165 1.357 . S
C168 C169 1.312 . S
C169 H140 0.930 . S
C169 C164 1.261 . S
C169 C168 1.312 . S
C170 O142 1.214 . S
C170 O150 1.234 . S
C171 H143 0.929 . S
C171 C174 1.391 . S
C171 C176 1.391 . S
C172 H144 0.929 . S
C172 C173 1.390 . S
C172 N175 1.391 . S
C173 H145 0.930 . S
C173 C172 1.390 . S
C173 C174 1.392 . S
C174 H146 0.929 . S
C174 C171 1.391 . S
C174 C173 1.392 . S
N175 Co119 2.257 . S
N175 C172 1.391 . S
N175 C176 1.388 . S
C176 H147 0.930 . S
C176 C171 1.391 . S
C176 N175 1.388 . S
Co177 O179 2.143 . S
Co177 O185 2.074 . S
Co177 O188 2.093 . S
Co177 O201 2.097 . S
Co177 N218 2.151 . S
Co177 N226 2.214 . S
Co178 O179 2.160 . S
Co178 O184 2.058 . S
Co178 O194 2.057 . S
Co178 O209 2.037 . S
Co178 N213 2.145 . S
Co178 N234 2.257 . S
O179 Co177 2.143 . S
O179 Co178 2.160 . S
C180 O181 1.278 . S
C180 O188 1.224 . S
O181 C180 1.278 . S
C182 O183 1.245 . S
C182 O194 1.232 . S
O183 C182 1.245 . S
O184 Co178 2.058 . S
O184 C210 1.269 . S
O185 Co177 2.074 . S
O185 C210 1.257 . S
H186 C211 0.930 . S
H187 C217 0.930 . S
O188 Co177 2.093 . S
O188 C180 1.224 . S
H189 C221 0.929 . S
H190 C223 0.930 . S
H191 C224 0.930 . S
H192 C222 0.929 . S
H193 C225 0.928 . S
O194 Co178 2.057 . S
O194 C182 1.232 . S
H195 C214 0.929 . S
H196 C215 0.929 . S
H197 C227 0.931 . S
H198 C219 0.929 . S
H199 C228 0.930 . S
H200 C220 0.931 . S
O201 Co177 2.097 . S
O201 C229 1.214 . S
H202 C230 0.929 . S
H203 C231 0.929 . S
H204 C232 0.930 . S
H205 C233 0.929 . S
H206 C235 0.930 . S
H207 C212 0.930 . S
H208 C216 0.930 . S
O209 Co178 2.037 . S
O209 C229 1.234 . S
C210 O184 1.269 . S
C210 O185 1.257 . S
C211 H186 0.930 . S
C211 C214 1.388 . S
C211 C216 1.418 . S
C212 H207 0.930 . S
C212 C215 1.404 . S
C212 C216 1.353 . S
N213 Co178 2.145 . S
N213 C214 1.397 . S
N213 C215 1.334 . S
C214 H195 0.929 . S
C214 C211 1.388 . S
C214 N213 1.397 . S
C215 H196 0.929 . S
C215 C212 1.404 . S
C215 N213 1.334 . S
C216 H208 0.930 . S
C216 C211 1.418 . S
C216 C212 1.353 . S
C217 H187 0.930 . S
C217 N218 1.330 . S
C217 C219 1.446 . S
N218 Co177 2.151 . S
N218 C217 1.330 . S
N218 C222 1.418 . S
C219 H198 0.929 . S
C219 C217 1.446 . S
C219 C220 1.332 . S
C220 H200 0.931 . S
C220 C219 1.332 . S
C220 C221 1.267 . S
C221 H189 0.929 . S
C221 C220 1.267 . S
C221 C222 1.251 . S
C222 H192 0.929 . S
C222 N218 1.418 . S
C222 C221 1.251 . S
C223 H190 0.930 . S
C223 C225 1.406 . S
C223 C228 1.261 . S
C224 H191 0.930 . S
C224 N226 1.325 . S
C224 C227 1.357 . S
C225 H193 0.928 . S
C225 C223 1.406 . S
C225 N226 1.261 . S
N226 Co177 2.214 . S
N226 C224 1.325 . S
N226 C225 1.261 . S
C227 H197 0.931 . S
C227 C224 1.357 . S
C227 C228 1.312 . S
C228 H199 0.930 . S
C228 C223 1.261 . S
C228 C227 1.312 . S
C229 O201 1.214 . S
C229 O209 1.234 . S
C230 H202 0.929 . S
C230 C233 1.391 . S
C230 C235 1.391 . S
C231 H203 0.929 . S
C231 C232 1.390 . S
C231 N234 1.391 . S
C232 H204 0.930 . S
C232 C231 1.390 . S
C232 C233 1.392 . S
C233 H205 0.929 . S
C233 C230 1.391 . S
C233 C232 1.392 . S
N234 Co178 2.257 . S
N234 C231 1.391 . S
N234 C235 1.388 . S
C235 H206 0.930 . S
C235 C230 1.391 . S
C235 N234 1.388 . S
Co236 O238 2.143 . S
Co236 O244 2.074 . S
Co236 O247 2.093 . S
Co236 O260 2.097 . S
Co236 N277 2.151 . S
Co236 N285 2.214 . S
Co237 O238 2.160 . S
Co237 O243 2.058 . S
Co237 O253 2.057 . S
Co237 O268 2.037 . S
Co237 N272 2.145 . S
Co237 N293 2.257 . S
O238 Co236 2.143 . S
O238 Co237 2.160 . S
C239 O240 1.278 . S
C239 O247 1.224 . S
O240 C239 1.278 . S
C241 O242 1.245 . S
C241 O253 1.232 . S
O242 C241 1.245 . S
O243 Co237 2.058 . S
O243 C269 1.269 . S
O244 Co236 2.074 . S
O244 C269 1.257 . S
H245 C270 0.930 . S
H246 C276 0.930 . S
O247 Co236 2.093 . S
O247 C239 1.224 . S
H248 C280 0.929 . S
H249 C282 0.930 . S
H250 C283 0.930 . S
H251 C281 0.929 . S
H252 C284 0.928 . S
O253 Co237 2.057 . S
O253 C241 1.232 . S
H254 C273 0.929 . S
H255 C274 0.929 . S
H256 C286 0.931 . S
H257 C278 0.929 . S
H258 C287 0.930 . S
H259 C279 0.931 . S
O260 Co236 2.097 . S
O260 C288 1.214 . S
H261 C289 0.929 . S
H262 C290 0.929 . S
H263 C291 0.930 . S
H264 C292 0.929 . S
H265 C294 0.930 . S
H266 C271 0.930 . S
H267 C275 0.930 . S
O268 Co237 2.037 . S
O268 C288 1.234 . S
C269 O243 1.269 . S
C269 O244 1.257 . S
C270 H245 0.930 . S
C270 C273 1.388 . S
C270 C275 1.418 . S
C271 H266 0.930 . S
C271 C274 1.404 . S
C271 C275 1.353 . S
N272 Co237 2.145 . S
N272 C273 1.397 . S
N272 C274 1.334 . S
C273 H254 0.929 . S
C273 C270 1.388 . S
C273 N272 1.397 . S
C274 H255 0.929 . S
C274 C271 1.404 . S
C274 N272 1.334 . S
C275 H267 0.930 . S
C275 C270 1.418 . S
C275 C271 1.353 . S
C276 H246 0.930 . S
C276 N277 1.330 . S
C276 C278 1.446 . S
N277 Co236 2.151 . S
N277 C276 1.330 . S
N277 C281 1.418 . S
C278 H257 0.929 . S
C278 C276 1.446 . S
C278 C279 1.332 . S
C279 H259 0.931 . S
C279 C278 1.332 . S
C279 C280 1.267 . S
C280 H248 0.929 . S
C280 C279 1.267 . S
C280 C281 1.251 . S
C281 H251 0.929 . S
C281 N277 1.418 . S
C281 C280 1.251 . S
C282 H249 0.930 . S
C282 C284 1.406 . S
C282 C287 1.261 . S
C283 H250 0.930 . S
C283 N285 1.325 . S
C283 C286 1.357 . S
C284 H252 0.928 . S
C284 C282 1.406 . S
C284 N285 1.261 . S
N285 Co236 2.214 . S
N285 C283 1.325 . S
N285 C284 1.261 . S
C286 H256 0.931 . S
C286 C283 1.357 . S
C286 C287 1.312 . S
C287 H258 0.930 . S
C287 C282 1.261 . S
C287 C286 1.312 . S
C288 O260 1.214 . S
C288 O268 1.234 . S
C289 H261 0.929 . S
C289 C292 1.391 . S
C289 C294 1.391 . S
C290 H262 0.929 . S
C290 C291 1.390 . S
C290 N293 1.391 . S
C291 H263 0.930 . S
C291 C290 1.390 . S
C291 C292 1.392 . S
C292 H264 0.929 . S
C292 C289 1.391 . S
C292 C291 1.392 . S
N293 Co237 2.257 . S
N293 C290 1.391 . S
N293 C294 1.388 . S
C294 H265 0.930 . S
C294 C289 1.391 . S
C294 N293 1.388 . S
Co295 O297 2.143 . S
Co295 O303 2.074 . S
Co295 O306 2.093 . S
Co295 O319 2.097 . S
Co295 N336 2.151 . S
Co295 N344 2.214 . S
Co296 O297 2.160 . S
Co296 O302 2.058 . S
Co296 O312 2.057 . S
Co296 O327 2.037 . S
Co296 N331 2.145 . S
Co296 N352 2.257 . S
O297 Co295 2.143 . S
O297 Co296 2.160 . S
C298 O299 1.278 . S
C298 O306 1.224 . S
O299 C298 1.278 . S
C300 O301 1.245 . S
C300 O312 1.232 . S
O301 C300 1.245 . S
O302 Co296 2.058 . S
O302 C328 1.269 . S
O303 Co295 2.074 . S
O303 C328 1.257 . S
H304 C329 0.930 . S
H305 C335 0.930 . S
O306 Co295 2.093 . S
O306 C298 1.224 . S
H307 C339 0.929 . S
H308 C341 0.930 . S
H309 C342 0.930 . S
H310 C340 0.929 . S
H311 C343 0.928 . S
O312 Co296 2.057 . S
O312 C300 1.232 . S
H313 C332 0.929 . S
H314 C333 0.929 . S
H315 C345 0.931 . S
H316 C337 0.929 . S
H317 C346 0.930 . S
H318 C338 0.931 . S
O319 Co295 2.097 . S
O319 C347 1.214 . S
H320 C348 0.929 . S
H321 C349 0.929 . S
H322 C350 0.930 . S
H323 C351 0.929 . S
H324 C353 0.930 . S
H325 C330 0.930 . S
H326 C334 0.930 . S
O327 Co296 2.037 . S
O327 C347 1.234 . S
C328 O302 1.269 . S
C328 O303 1.257 . S
C329 H304 0.930 . S
C329 C332 1.388 . S
C329 C334 1.418 . S
C330 H325 0.930 . S
C330 C333 1.404 . S
C330 C334 1.353 . S
N331 Co296 2.145 . S
N331 C332 1.397 . S
N331 C333 1.334 . S
C332 H313 0.929 . S
C332 C329 1.388 . S
C332 N331 1.397 . S
C333 H314 0.929 . S
C333 C330 1.404 . S
C333 N331 1.334 . S
C334 H326 0.930 . S
C334 C329 1.418 . S
C334 C330 1.353 . S
C335 H305 0.930 . S
C335 N336 1.330 . S
C335 C337 1.446 . S
N336 Co295 2.151 . S
N336 C335 1.330 . S
N336 C340 1.418 . S
C337 H316 0.929 . S
C337 C335 1.446 . S
C337 C338 1.332 . S
C338 H318 0.931 . S
C338 C337 1.332 . S
C338 C339 1.267 . S
C339 H307 0.929 . S
C339 C338 1.267 . S
C339 C340 1.251 . S
C340 H310 0.929 . S
C340 N336 1.418 . S
C340 C339 1.251 . S
C341 H308 0.930 . S
C341 C343 1.406 . S
C341 C346 1.261 . S
C342 H309 0.930 . S
C342 N344 1.325 . S
C342 C345 1.357 . S
C343 H311 0.928 . S
C343 C341 1.406 . S
C343 N344 1.261 . S
N344 Co295 2.214 . S
N344 C342 1.325 . S
N344 C343 1.261 . S
C345 H315 0.931 . S
C345 C342 1.357 . S
C345 C346 1.312 . S
C346 H317 0.930 . S
C346 C341 1.261 . S
C346 C345 1.312 . S
C347 O319 1.214 . S
C347 O327 1.234 . S
C348 H320 0.929 . S
C348 C351 1.391 . S
C348 C353 1.391 . S
C349 H321 0.929 . S
C349 C350 1.390 . S
C349 N352 1.391 . S
C350 H322 0.930 . S
C350 C349 1.390 . S
C350 C351 1.392 . S
C351 H323 0.929 . S
C351 C348 1.391 . S
C351 C350 1.392 . S
N352 Co296 2.257 . S
N352 C349 1.391 . S
N352 C353 1.388 . S
C353 H324 0.930 . S
C353 C348 1.391 . S
C353 N352 1.388 . S
Co354 O356 2.143 . S
Co354 O362 2.074 . S
Co354 O365 2.093 . S
Co354 O378 2.097 . S
Co354 N395 2.151 . S
Co354 N403 2.214 . S
Co355 O356 2.160 . S
Co355 O361 2.058 . S
Co355 O371 2.057 . S
Co355 O386 2.037 . S
Co355 N390 2.145 . S
Co355 N411 2.257 . S
O356 Co354 2.143 . S
O356 Co355 2.160 . S
C357 O358 1.278 . S
C357 O365 1.224 . S
O358 C357 1.278 . S
C359 O360 1.245 . S
C359 O371 1.232 . S
O360 C359 1.245 . S
O361 Co355 2.058 . S
O361 C387 1.269 . S
O362 Co354 2.074 . S
O362 C387 1.257 . S
H363 C388 0.930 . S
H364 C394 0.930 . S
O365 Co354 2.093 . S
O365 C357 1.224 . S
H366 C398 0.929 . S
H367 C400 0.930 . S
H368 C401 0.930 . S
H369 C399 0.929 . S
H370 C402 0.928 . S
O371 Co355 2.057 . S
O371 C359 1.232 . S
H372 C391 0.929 . S
H373 C392 0.929 . S
H374 C404 0.931 . S
H375 C396 0.929 . S
H376 C405 0.930 . S
H377 C397 0.931 . S
O378 Co354 2.097 . S
O378 C406 1.214 . S
H379 C407 0.929 . S
H380 C408 0.929 . S
H381 C409 0.930 . S
H382 C410 0.929 . S
H383 C412 0.930 . S
H384 C389 0.930 . S
H385 C393 0.930 . S
O386 Co355 2.037 . S
O386 C406 1.234 . S
C387 O361 1.269 . S
C387 O362 1.257 . S
C388 H363 0.930 . S
C388 C391 1.388 . S
C388 C393 1.418 . S
C389 H384 0.930 . S
C389 C392 1.404 . S
C389 C393 1.353 . S
N390 Co355 2.145 . S
N390 C391 1.397 . S
N390 C392 1.334 . S
C391 H372 0.929 . S
C391 C388 1.388 . S
C391 N390 1.397 . S
C392 H373 0.929 . S
C392 C389 1.404 . S
C392 N390 1.334 . S
C393 H385 0.930 . S
C393 C388 1.418 . S
C393 C389 1.353 . S
C394 H364 0.930 . S
C394 N395 1.330 . S
C394 C396 1.446 . S
N395 Co354 2.151 . S
N395 C394 1.330 . S
N395 C399 1.418 . S
C396 H375 0.929 . S
C396 C394 1.446 . S
C396 C397 1.332 . S
C397 H377 0.931 . S
C397 C396 1.332 . S
C397 C398 1.267 . S
C398 H366 0.929 . S
C398 C397 1.267 . S
C398 C399 1.251 . S
C399 H369 0.929 . S
C399 N395 1.418 . S
C399 C398 1.251 . S
C400 H367 0.930 . S
C400 C402 1.406 . S
C400 C405 1.261 . S
C401 H368 0.930 . S
C401 N403 1.325 . S
C401 C404 1.357 . S
C402 H370 0.928 . S
C402 C400 1.406 . S
C402 N403 1.261 . S
N403 Co354 2.214 . S
N403 C401 1.325 . S
N403 C402 1.261 . S
C404 H374 0.931 . S
C404 C401 1.357 . S
C404 C405 1.312 . S
C405 H376 0.930 . S
C405 C400 1.261 . S
C405 C404 1.312 . S
C406 O378 1.214 . S
C406 O386 1.234 . S
C407 H379 0.929 . S
C407 C410 1.391 . S
C407 C412 1.391 . S
C408 H380 0.929 . S
C408 C409 1.390 . S
C408 N411 1.391 . S
C409 H381 0.930 . S
C409 C408 1.390 . S
C409 C410 1.392 . S
C410 H382 0.929 . S
C410 C407 1.391 . S
C410 C409 1.392 . S
N411 Co355 2.257 . S
N411 C408 1.391 . S
N411 C412 1.388 . S
C412 H383 0.930 . S
C412 C407 1.391 . S
C412 N411 1.388 . S
Co413 O415 2.143 . S
Co413 O421 2.074 . S
Co413 O424 2.093 . S
Co413 O437 2.097 . S
Co413 N454 2.151 . S
Co413 N462 2.214 . S
Co414 O415 2.160 . S
Co414 O420 2.058 . S
Co414 O430 2.057 . S
Co414 O445 2.037 . S
Co414 N449 2.145 . S
Co414 N470 2.257 . S
O415 Co413 2.143 . S
O415 Co414 2.160 . S
C416 O417 1.278 . S
C416 O424 1.224 . S
O417 C416 1.278 . S
C418 O419 1.245 . S
C418 O430 1.232 . S
O419 C418 1.245 . S
O420 Co414 2.058 . S
O420 C446 1.269 . S
O421 Co413 2.074 . S
O421 C446 1.257 . S
H422 C447 0.930 . S
H423 C453 0.930 . S
O424 Co413 2.093 . S
O424 C416 1.224 . S
H425 C457 0.929 . S
H426 C459 0.930 . S
H427 C460 0.930 . S
H428 C458 0.929 . S
H429 C461 0.928 . S
O430 Co414 2.057 . S
O430 C418 1.232 . S
H431 C450 0.929 . S
H432 C451 0.929 . S
H433 C463 0.931 . S
H434 C455 0.929 . S
H435 C464 0.930 . S
H436 C456 0.931 . S
O437 Co413 2.097 . S
O437 C465 1.214 . S
H438 C466 0.929 . S
H439 C467 0.929 . S
H440 C468 0.930 . S
H441 C469 0.929 . S
H442 C471 0.930 . S
H443 C448 0.930 . S
H444 C452 0.930 . S
O445 Co414 2.037 . S
O445 C465 1.234 . S
C446 O420 1.269 . S
C446 O421 1.257 . S
C447 H422 0.930 . S
C447 C450 1.388 . S
C447 C452 1.418 . S
C448 H443 0.930 . S
C448 C451 1.404 . S
C448 C452 1.353 . S
N449 Co414 2.145 . S
N449 C450 1.397 . S
N449 C451 1.334 . S
C450 H431 0.929 . S
C450 C447 1.388 . S
C450 N449 1.397 . S
C451 H432 0.929 . S
C451 C448 1.404 . S
C451 N449 1.334 . S
C452 H444 0.930 . S
C452 C447 1.418 . S
C452 C448 1.353 . S
C453 H423 0.930 . S
C453 N454 1.330 . S
C453 C455 1.446 . S
N454 Co413 2.151 . S
N454 C453 1.330 . S
N454 C458 1.418 . S
C455 H434 0.929 . S
C455 C453 1.446 . S
C455 C456 1.332 . S
C456 H436 0.931 . S
C456 C455 1.332 . S
C456 C457 1.267 . S
C457 H425 0.929 . S
C457 C456 1.267 . S
C457 C458 1.251 . S
C458 H428 0.929 . S
C458 N454 1.418 . S
C458 C457 1.251 . S
C459 H426 0.930 . S
C459 C461 1.406 . S
C459 C464 1.261 . S
C460 H427 0.930 . S
C460 N462 1.325 . S
C460 C463 1.357 . S
C461 H429 0.928 . S
C461 C459 1.406 . S
C461 N462 1.261 . S
N462 Co413 2.214 . S
N462 C460 1.325 . S
N462 C461 1.261 . S
C463 H433 0.931 . S
C463 C460 1.357 . S
C463 C464 1.312 . S
C464 H435 0.930 . S
C464 C459 1.261 . S
C464 C463 1.312 . S
C465 O437 1.214 . S
C465 O445 1.234 . S
C466 H438 0.929 . S
C466 C469 1.391 . S
C466 C471 1.391 . S
C467 H439 0.929 . S
C467 C468 1.390 . S
C467 N470 1.391 . S
C468 H440 0.930 . S
C468 C467 1.390 . S
C468 C469 1.392 . S
C469 H441 0.929 . S
C469 C466 1.391 . S
C469 C468 1.392 . S
N470 Co414 2.257 . S
N470 C467 1.391 . S
N470 C471 1.388 . S
C471 H442 0.930 . S
C471 C466 1.391 . S
C471 N470 1.388 . S
Co472 O474 2.143 . S
Co472 O480 2.074 . S
Co472 O483 2.093 . S
Co472 O496 2.097 . S
Co472 N513 2.151 . S
Co472 N521 2.214 . S
Co473 O474 2.160 . S
Co473 O479 2.058 . S
Co473 O489 2.057 . S
Co473 O504 2.037 . S
Co473 N508 2.145 . S
Co473 N529 2.257 . S
O474 Co472 2.143 . S
O474 Co473 2.160 . S
C475 O476 1.278 . S
C475 O483 1.224 . S
O476 C475 1.278 . S
C477 O478 1.245 . S
C477 O489 1.232 . S
O478 C477 1.245 . S
O479 Co473 2.058 . S
O479 C505 1.269 . S
O480 Co472 2.074 . S
O480 C505 1.257 . S
H481 C506 0.930 . S
H482 C512 0.930 . S
O483 Co472 2.093 . S
O483 C475 1.224 . S
H484 C516 0.929 . S
H485 C518 0.930 . S
H486 C519 0.930 . S
H487 C517 0.929 . S
H488 C520 0.928 . S
O489 Co473 2.057 . S
O489 C477 1.232 . S
H490 C509 0.929 . S
H491 C510 0.929 . S
H492 C522 0.931 . S
H493 C514 0.929 . S
H494 C523 0.930 . S
H495 C515 0.931 . S
O496 Co472 2.097 . S
O496 C524 1.214 . S
H497 C525 0.929 . S
H498 C526 0.929 . S
H499 C527 0.930 . S
H500 C528 0.929 . S
H501 C530 0.930 . S
H502 C507 0.930 . S
H503 C511 0.930 . S
O504 Co473 2.037 . S
O504 C524 1.234 . S
C505 O479 1.269 . S
C505 O480 1.257 . S
C506 H481 0.930 . S
C506 C509 1.388 . S
C506 C511 1.418 . S
C507 H502 0.930 . S
C507 C510 1.404 . S
C507 C511 1.353 . S
N508 Co473 2.145 . S
N508 C509 1.397 . S
N508 C510 1.334 . S
C509 H490 0.929 . S
C509 C506 1.388 . S
C509 N508 1.397 . S
C510 H491 0.929 . S
C510 C507 1.404 . S
C510 N508 1.334 . S
C511 H503 0.930 . S
C511 C506 1.418 . S
C511 C507 1.353 . S
C512 H482 0.930 . S
C512 N513 1.330 . S
C512 C514 1.446 . S
N513 Co472 2.151 . S
N513 C512 1.330 . S
N513 C517 1.418 . S
C514 H493 0.929 . S
C514 C512 1.446 . S
C514 C515 1.332 . S
C515 H495 0.931 . S
C515 C514 1.332 . S
C515 C516 1.267 . S
C516 H484 0.929 . S
C516 C515 1.267 . S
C516 C517 1.251 . S
C517 H487 0.929 . S
C517 N513 1.418 . S
C517 C516 1.251 . S
C518 H485 0.930 . S
C518 C520 1.406 . S
C518 C523 1.261 . S
C519 H486 0.930 . S
C519 N521 1.325 . S
C519 C522 1.357 . S
C520 H488 0.928 . S
C520 C518 1.406 . S
C520 N521 1.261 . S
N521 Co472 2.214 . S
N521 C519 1.325 . S
N521 C520 1.261 . S
C522 H492 0.931 . S
C522 C519 1.357 . S
C522 C523 1.312 . S
C523 H494 0.930 . S
C523 C518 1.261 . S
C523 C522 1.312 . S
C524 O496 1.214 . S
C524 O504 1.234 . S
C525 H497 0.929 . S
C525 C528 1.391 . S
C525 C530 1.391 . S
C526 H498 0.929 . S
C526 C527 1.390 . S
C526 N529 1.391 . S
C527 H499 0.930 . S
C527 C526 1.390 . S
C527 C528 1.392 . S
C528 H500 0.929 . S
C528 C525 1.391 . S
C528 C527 1.392 . S
N529 Co473 2.257 . S
N529 C526 1.391 . S
N529 C530 1.388 . S
C530 H501 0.930 . S
C530 C525 1.391 . S
C530 N529 1.388 . S
Co531 O533 2.143 . S
Co531 O539 2.074 . S
Co531 O542 2.093 . S
Co531 O555 2.097 . S
Co531 N572 2.151 . S
Co531 N580 2.214 . S
Co532 O533 2.160 . S
Co532 O538 2.058 . S
Co532 O548 2.057 . S
Co532 O563 2.037 . S
Co532 N567 2.145 . S
Co532 N588 2.257 . S
O533 Co531 2.143 . S
O533 Co532 2.160 . S
C534 O535 1.278 . S
C534 O542 1.224 . S
O535 C534 1.278 . S
C536 O537 1.245 . S
C536 O548 1.232 . S
O537 C536 1.245 . S
O538 Co532 2.058 . S
O538 C564 1.269 . S
O539 Co531 2.074 . S
O539 C564 1.257 . S
H540 C565 0.930 . S
H541 C571 0.930 . S
O542 Co531 2.093 . S
O542 C534 1.224 . S
H543 C575 0.929 . S
H544 C577 0.930 . S
H545 C578 0.930 . S
H546 C576 0.929 . S
H547 C579 0.928 . S
O548 Co532 2.057 . S
O548 C536 1.232 . S
H549 C568 0.929 . S
H550 C569 0.929 . S
H551 C581 0.931 . S
H552 C573 0.929 . S
H553 C582 0.930 . S
H554 C574 0.931 . S
O555 Co531 2.097 . S
O555 C583 1.214 . S
H556 C584 0.929 . S
H557 C585 0.929 . S
H558 C586 0.930 . S
H559 C587 0.929 . S
H560 C589 0.930 . S
H561 C566 0.930 . S
H562 C570 0.930 . S
O563 Co532 2.037 . S
O563 C583 1.234 . S
C564 O538 1.269 . S
C564 O539 1.257 . S
C565 H540 0.930 . S
C565 C568 1.388 . S
C565 C570 1.418 . S
C566 H561 0.930 . S
C566 C569 1.404 . S
C566 C570 1.353 . S
N567 Co532 2.145 . S
N567 C568 1.397 . S
N567 C569 1.334 . S
C568 H549 0.929 . S
C568 C565 1.388 . S
C568 N567 1.397 . S
C569 H550 0.929 . S
C569 C566 1.404 . S
C569 N567 1.334 . S
C570 H562 0.930 . S
C570 C565 1.418 . S
C570 C566 1.353 . S
C571 H541 0.930 . S
C571 N572 1.330 . S
C571 C573 1.446 . S
N572 Co531 2.151 . S
N572 C571 1.330 . S
N572 C576 1.418 . S
C573 H552 0.929 . S
C573 C571 1.446 . S
C573 C574 1.332 . S
C574 H554 0.931 . S
C574 C573 1.332 . S
C574 C575 1.267 . S
C575 H543 0.929 . S
C575 C574 1.267 . S
C575 C576 1.251 . S
C576 H546 0.929 . S
C576 N572 1.418 . S
C576 C575 1.251 . S
C577 H544 0.930 . S
C577 C579 1.406 . S
C577 C582 1.261 . S
C578 H545 0.930 . S
C578 N580 1.325 . S
C578 C581 1.357 . S
C579 H547 0.928 . S
C579 C577 1.406 . S
C579 N580 1.261 . S
N580 Co531 2.214 . S
N580 C578 1.325 . S
N580 C579 1.261 . S
C581 H551 0.931 . S
C581 C578 1.357 . S
C581 C582 1.312 . S
C582 H553 0.930 . S
C582 C577 1.261 . S
C582 C581 1.312 . S
C583 O555 1.214 . S
C583 O563 1.234 . S
C584 H556 0.929 . S
C584 C587 1.391 . S
C584 C589 1.391 . S
C585 H557 0.929 . S
C585 C586 1.390 . S
C585 N588 1.391 . S
C586 H558 0.930 . S
C586 C585 1.390 . S
C586 C587 1.392 . S
C587 H559 0.929 . S
C587 C584 1.391 . S
C587 C586 1.392 . S
N588 Co532 2.257 . S
N588 C585 1.391 . S
N588 C589 1.388 . S
C589 H560 0.930 . S
C589 C584 1.391 . S
C589 N588 1.388 . S
Co590 O592 2.143 . S
Co590 O598 2.074 . S
Co590 O601 2.093 . S
Co590 O614 2.097 . S
Co590 N631 2.151 . S
Co590 N639 2.214 . S
Co591 O592 2.160 . S
Co591 O597 2.058 . S
Co591 O607 2.057 . S
Co591 O622 2.037 . S
Co591 N626 2.145 . S
Co591 N647 2.257 . S
O592 Co590 2.143 . S
O592 Co591 2.160 . S
C593 O594 1.278 . S
C593 O601 1.224 . S
O594 C593 1.278 . S
C595 O596 1.245 . S
C595 O607 1.232 . S
O596 C595 1.245 . S
O597 Co591 2.058 . S
O597 C623 1.269 . S
O598 Co590 2.074 . S
O598 C623 1.257 . S
H599 C624 0.930 . S
H600 C630 0.930 . S
O601 Co590 2.093 . S
O601 C593 1.224 . S
H602 C634 0.929 . S
H603 C636 0.930 . S
H604 C637 0.930 . S
H605 C635 0.929 . S
H606 C638 0.928 . S
O607 Co591 2.057 . S
O607 C595 1.232 . S
H608 C627 0.929 . S
H609 C628 0.929 . S
H610 C640 0.931 . S
H611 C632 0.929 . S
H612 C641 0.930 . S
H613 C633 0.931 . S
O614 Co590 2.097 . S
O614 C642 1.214 . S
H615 C643 0.929 . S
H616 C644 0.929 . S
H617 C645 0.930 . S
H618 C646 0.929 . S
H619 C648 0.930 . S
H620 C625 0.930 . S
H621 C629 0.930 . S
O622 Co591 2.037 . S
O622 C642 1.234 . S
C623 O597 1.269 . S
C623 O598 1.257 . S
C624 H599 0.930 . S
C624 C627 1.388 . S
C624 C629 1.418 . S
C625 H620 0.930 . S
C625 C628 1.404 . S
C625 C629 1.353 . S
N626 Co591 2.145 . S
N626 C627 1.397 . S
N626 C628 1.334 . S
C627 H608 0.929 . S
C627 C624 1.388 . S
C627 N626 1.397 . S
C628 H609 0.929 . S
C628 C625 1.404 . S
C628 N626 1.334 . S
C629 H621 0.930 . S
C629 C624 1.418 . S
C629 C625 1.353 . S
C630 H600 0.930 . S
C630 N631 1.330 . S
C630 C632 1.446 . S
N631 Co590 2.151 . S
N631 C630 1.330 . S
N631 C635 1.418 . S
C632 H611 0.929 . S
C632 C630 1.446 . S
C632 C633 1.332 . S
C633 H613 0.931 . S
C633 C632 1.332 . S
C633 C634 1.267 . S
C634 H602 0.929 . S
C634 C633 1.267 . S
C634 C635 1.251 . S
C635 H605 0.929 . S
C635 N631 1.418 . S
C635 C634 1.251 . S
C636 H603 0.930 . S
C636 C638 1.406 . S
C636 C641 1.261 . S
C637 H604 0.930 . S
C637 N639 1.325 . S
C637 C640 1.357 . S
C638 H606 0.928 . S
C638 C636 1.406 . S
C638 N639 1.261 . S
N639 Co590 2.214 . S
N639 C637 1.325 . S
N639 C638 1.261 . S
C640 H610 0.931 . S
C640 C637 1.357 . S
C640 C641 1.312 . S
C641 H612 0.930 . S
C641 C636 1.261 . S
C641 C640 1.312 . S
C642 O614 1.214 . S
C642 O622 1.234 . S
C643 H615 0.929 . S
C643 C646 1.391 . S
C643 C648 1.391 . S
C644 H616 0.929 . S
C644 C645 1.390 . S
C644 N647 1.391 . S
C645 H617 0.930 . S
C645 C644 1.390 . S
C645 C646 1.392 . S
C646 H618 0.929 . S
C646 C643 1.391 . S
C646 C645 1.392 . S
N647 Co591 2.257 . S
N647 C644 1.391 . S
N647 C648 1.388 . S
C648 H619 0.930 . S
C648 C643 1.391 . S
C648 N647 1.388 . S
Co649 O651 2.143 . S
Co649 O657 2.074 . S
Co649 O660 2.093 . S
Co649 O673 2.097 . S
Co649 N690 2.151 . S
Co649 N698 2.214 . S
Co650 O651 2.160 . S
Co650 O656 2.058 . S
Co650 O666 2.057 . S
Co650 O681 2.037 . S
Co650 N685 2.145 . S
Co650 N706 2.257 . S
O651 Co649 2.143 . S
O651 Co650 2.160 . S
C652 O653 1.278 . S
C652 O660 1.224 . S
O653 C652 1.278 . S
C654 O655 1.245 . S
C654 O666 1.232 . S
O655 C654 1.245 . S
O656 Co650 2.058 . S
O656 C682 1.269 . S
O657 Co649 2.074 . S
O657 C682 1.257 . S
H658 C683 0.930 . S
H659 C689 0.930 . S
O660 Co649 2.093 . S
O660 C652 1.224 . S
H661 C693 0.929 . S
H662 C695 0.930 . S
H663 C696 0.930 . S
H664 C694 0.929 . S
H665 C697 0.928 . S
O666 Co650 2.057 . S
O666 C654 1.232 . S
H667 C686 0.929 . S
H668 C687 0.929 . S
H669 C699 0.931 . S
H670 C691 0.929 . S
H671 C700 0.930 . S
H672 C692 0.931 . S
O673 Co649 2.097 . S
O673 C701 1.214 . S
H674 C702 0.929 . S
H675 C703 0.929 . S
H676 C704 0.930 . S
H677 C705 0.929 . S
H678 C707 0.930 . S
H679 C684 0.930 . S
H680 C688 0.930 . S
O681 Co650 2.037 . S
O681 C701 1.234 . S
C682 O656 1.269 . S
C682 O657 1.257 . S
C683 H658 0.930 . S
C683 C686 1.388 . S
C683 C688 1.418 . S
C684 H679 0.930 . S
C684 C687 1.404 . S
C684 C688 1.353 . S
N685 Co650 2.145 . S
N685 C686 1.397 . S
N685 C687 1.334 . S
C686 H667 0.929 . S
C686 C683 1.388 . S
C686 N685 1.397 . S
C687 H668 0.929 . S
C687 C684 1.404 . S
C687 N685 1.334 . S
C688 H680 0.930 . S
C688 C683 1.418 . S
C688 C684 1.353 . S
C689 H659 0.930 . S
C689 N690 1.330 . S
C689 C691 1.446 . S
N690 Co649 2.151 . S
N690 C689 1.330 . S
N690 C694 1.418 . S
C691 H670 0.929 . S
C691 C689 1.446 . S
C691 C692 1.332 . S
C692 H672 0.931 . S
C692 C691 1.332 . S
C692 C693 1.267 . S
C693 H661 0.929 . S
C693 C692 1.267 . S
C693 C694 1.251 . S
C694 H664 0.929 . S
C694 N690 1.418 . S
C694 C693 1.251 . S
C695 H662 0.930 . S
C695 C697 1.406 . S
C695 C700 1.261 . S
C696 H663 0.930 . S
C696 N698 1.325 . S
C696 C699 1.357 . S
C697 H665 0.928 . S
C697 C695 1.406 . S
C697 N698 1.261 . S
N698 Co649 2.214 . S
N698 C696 1.325 . S
N698 C697 1.261 . S
C699 H669 0.931 . S
C699 C696 1.357 . S
C699 C700 1.312 . S
C700 H671 0.930 . S
C700 C695 1.261 . S
C700 C699 1.312 . S
C701 O673 1.214 . S
C701 O681 1.234 . S
C702 H674 0.929 . S
C702 C705 1.391 . S
C702 C707 1.391 . S
C703 H675 0.929 . S
C703 C704 1.390 . S
C703 N706 1.391 . S
C704 H676 0.930 . S
C704 C703 1.390 . S
C704 C705 1.392 . S
C705 H677 0.929 . S
C705 C702 1.391 . S
C705 C704 1.392 . S
N706 Co650 2.257 . S
N706 C703 1.391 . S
N706 C707 1.388 . S
C707 H678 0.930 . S
C707 C702 1.391 . S
C707 N706 1.388 . S
Co708 O710 2.143 . S
Co708 O716 2.074 . S
Co708 O719 2.093 . S
Co708 O732 2.097 . S
Co708 N749 2.151 . S
Co708 N757 2.214 . S
Co709 O710 2.160 . S
Co709 O715 2.058 . S
Co709 O725 2.057 . S
Co709 O740 2.037 . S
Co709 N744 2.145 . S
Co709 N765 2.257 . S
O710 Co708 2.143 . S
O710 Co709 2.160 . S
C711 O712 1.278 . S
C711 O719 1.224 . S
O712 C711 1.278 . S
C713 O714 1.245 . S
C713 O725 1.232 . S
O714 C713 1.245 . S
O715 Co709 2.058 . S
O715 C741 1.269 . S
O716 Co708 2.074 . S
O716 C741 1.257 . S
H717 C742 0.930 . S
H718 C748 0.930 . S
O719 Co708 2.093 . S
O719 C711 1.224 . S
H720 C752 0.929 . S
H721 C754 0.930 . S
H722 C755 0.930 . S
H723 C753 0.929 . S
H724 C756 0.928 . S
O725 Co709 2.057 . S
O725 C713 1.232 . S
H726 C745 0.929 . S
H727 C746 0.929 . S
H728 C758 0.931 . S
H729 C750 0.929 . S
H730 C759 0.930 . S
H731 C751 0.931 . S
O732 Co708 2.097 . S
O732 C760 1.214 . S
H733 C761 0.929 . S
H734 C762 0.929 . S
H735 C763 0.930 . S
H736 C764 0.929 . S
H737 C766 0.930 . S
H738 C743 0.930 . S
H739 C747 0.930 . S
O740 Co709 2.037 . S
O740 C760 1.234 . S
C741 O715 1.269 . S
C741 O716 1.257 . S
C742 H717 0.930 . S
C742 C745 1.388 . S
C742 C747 1.418 . S
C743 H738 0.930 . S
C743 C746 1.404 . S
C743 C747 1.353 . S
N744 Co709 2.145 . S
N744 C745 1.397 . S
N744 C746 1.334 . S
C745 H726 0.929 . S
C745 C742 1.388 . S
C745 N744 1.397 . S
C746 H727 0.929 . S
C746 C743 1.404 . S
C746 N744 1.334 . S
C747 H739 0.930 . S
C747 C742 1.418 . S
C747 C743 1.353 . S
C748 H718 0.930 . S
C748 N749 1.330 . S
C748 C750 1.446 . S
N749 Co708 2.151 . S
N749 C748 1.330 . S
N749 C753 1.418 . S
C750 H729 0.929 . S
C750 C748 1.446 . S
C750 C751 1.332 . S
C751 H731 0.931 . S
C751 C750 1.332 . S
C751 C752 1.267 . S
C752 H720 0.929 . S
C752 C751 1.267 . S
C752 C753 1.251 . S
C753 H723 0.929 . S
C753 N749 1.418 . S
C753 C752 1.251 . S
C754 H721 0.930 . S
C754 C756 1.406 . S
C754 C759 1.261 . S
C755 H722 0.930 . S
C755 N757 1.325 . S
C755 C758 1.357 . S
C756 H724 0.928 . S
C756 C754 1.406 . S
C756 N757 1.261 . S
N757 Co708 2.214 . S
N757 C755 1.325 . S
N757 C756 1.261 . S
C758 H728 0.931 . S
C758 C755 1.357 . S
C758 C759 1.312 . S
C759 H730 0.930 . S
C759 C754 1.261 . S
C759 C758 1.312 . S
C760 O732 1.214 . S
C760 O740 1.234 . S
C761 H733 0.929 . S
C761 C764 1.391 . S
C761 C766 1.391 . S
C762 H734 0.929 . S
C762 C763 1.390 . S
C762 N765 1.391 . S
C763 H735 0.930 . S
C763 C762 1.390 . S
C763 C764 1.392 . S
C764 H736 0.929 . S
C764 C761 1.391 . S
C764 C763 1.392 . S
N765 Co709 2.257 . S
N765 C762 1.391 . S
N765 C766 1.388 . S
C766 H737 0.930 . S
C766 C761 1.391 . S
C766 N765 1.388 . S
Co767 O769 2.143 . S
Co767 O775 2.074 . S
Co767 O778 2.093 . S
Co767 O791 2.097 . S
Co767 N808 2.151 . S
Co767 N816 2.214 . S
Co768 O769 2.160 . S
Co768 O774 2.058 . S
Co768 O784 2.057 . S
Co768 O799 2.037 . S
Co768 N803 2.145 . S
Co768 N824 2.257 . S
O769 Co767 2.143 . S
O769 Co768 2.160 . S
C770 O771 1.278 . S
C770 O778 1.224 . S
O771 C770 1.278 . S
C772 O773 1.245 . S
C772 O784 1.232 . S
O773 C772 1.245 . S
O774 Co768 2.058 . S
O774 C800 1.269 . S
O775 Co767 2.074 . S
O775 C800 1.257 . S
H776 C801 0.930 . S
H777 C807 0.930 . S
O778 Co767 2.093 . S
O778 C770 1.224 . S
H779 C811 0.929 . S
H780 C813 0.930 . S
H781 C814 0.930 . S
H782 C812 0.929 . S
H783 C815 0.928 . S
O784 Co768 2.057 . S
O784 C772 1.232 . S
H785 C804 0.929 . S
H786 C805 0.929 . S
H787 C817 0.931 . S
H788 C809 0.929 . S
H789 C818 0.930 . S
H790 C810 0.931 . S
O791 Co767 2.097 . S
O791 C819 1.214 . S
H792 C820 0.929 . S
H793 C821 0.929 . S
H794 C822 0.930 . S
H795 C823 0.929 . S
H796 C825 0.930 . S
H797 C802 0.930 . S
H798 C806 0.930 . S
O799 Co768 2.037 . S
O799 C819 1.234 . S
C800 O774 1.269 . S
C800 O775 1.257 . S
C801 H776 0.930 . S
C801 C804 1.388 . S
C801 C806 1.418 . S
C802 H797 0.930 . S
C802 C805 1.404 . S
C802 C806 1.353 . S
N803 Co768 2.145 . S
N803 C804 1.397 . S
N803 C805 1.334 . S
C804 H785 0.929 . S
C804 C801 1.388 . S
C804 N803 1.397 . S
C805 H786 0.929 . S
C805 C802 1.404 . S
C805 N803 1.334 . S
C806 H798 0.930 . S
C806 C801 1.418 . S
C806 C802 1.353 . S
C807 H777 0.930 . S
C807 N808 1.330 . S
C807 C809 1.446 . S
N808 Co767 2.151 . S
N808 C807 1.330 . S
N808 C812 1.418 . S
C809 H788 0.929 . S
C809 C807 1.446 . S
C809 C810 1.332 . S
C810 H790 0.931 . S
C810 C809 1.332 . S
C810 C811 1.267 . S
C811 H779 0.929 . S
C811 C810 1.267 . S
C811 C812 1.251 . S
C812 H782 0.929 . S
C812 N808 1.418 . S
C812 C811 1.251 . S
C813 H780 0.930 . S
C813 C815 1.406 . S
C813 C818 1.261 . S
C814 H781 0.930 . S
C814 N816 1.325 . S
C814 C817 1.357 . S
C815 H783 0.928 . S
C815 C813 1.406 . S
C815 N816 1.261 . S
N816 Co767 2.214 . S
N816 C814 1.325 . S
N816 C815 1.261 . S
C817 H787 0.931 . S
C817 C814 1.357 . S
C817 C818 1.312 . S
C818 H789 0.930 . S
C818 C813 1.261 . S
C818 C817 1.312 . S
C819 O791 1.214 . S
C819 O799 1.234 . S
C820 H792 0.929 . S
C820 C823 1.391 . S
C820 C825 1.391 . S
C821 H793 0.929 . S
C821 C822 1.390 . S
C821 N824 1.391 . S
C822 H794 0.930 . S
C822 C821 1.390 . S
C822 C823 1.392 . S
C823 H795 0.929 . S
C823 C820 1.391 . S
C823 C822 1.392 . S
N824 Co768 2.257 . S
N824 C821 1.391 . S
N824 C825 1.388 . S
C825 H796 0.930 . S
C825 C820 1.391 . S
C825 N824 1.388 . S
Co826 O828 2.143 . S
Co826 O834 2.074 . S
Co826 O837 2.093 . S
Co826 O850 2.097 . S
Co826 N867 2.151 . S
Co826 N875 2.214 . S
Co827 O828 2.160 . S
Co827 O833 2.058 . S
Co827 O843 2.057 . S
Co827 O858 2.037 . S
Co827 N862 2.145 . S
Co827 N883 2.257 . S
O828 Co826 2.143 . S
O828 Co827 2.160 . S
C829 O830 1.278 . S
C829 O837 1.224 . S
O830 C829 1.278 . S
C831 O832 1.245 . S
C831 O843 1.232 . S
O832 C831 1.245 . S
O833 Co827 2.058 . S
O833 C859 1.269 . S
O834 Co826 2.074 . S
O834 C859 1.257 . S
H835 C860 0.930 . S
H836 C866 0.930 . S
O837 Co826 2.093 . S
O837 C829 1.224 . S
H838 C870 0.929 . S
H839 C872 0.930 . S
H840 C873 0.930 . S
H841 C871 0.929 . S
H842 C874 0.928 . S
O843 Co827 2.057 . S
O843 C831 1.232 . S
H844 C863 0.929 . S
H845 C864 0.929 . S
H846 C876 0.931 . S
H847 C868 0.929 . S
H848 C877 0.930 . S
H849 C869 0.931 . S
O850 Co826 2.097 . S
O850 C878 1.214 . S
H851 C879 0.929 . S
H852 C880 0.929 . S
H853 C881 0.930 . S
H854 C882 0.929 . S
H855 C884 0.930 . S
H856 C861 0.930 . S
H857 C865 0.930 . S
O858 Co827 2.037 . S
O858 C878 1.234 . S
C859 O833 1.269 . S
C859 O834 1.257 . S
C860 H835 0.930 . S
C860 C863 1.388 . S
C860 C865 1.418 . S
C861 H856 0.930 . S
C861 C864 1.404 . S
C861 C865 1.353 . S
N862 Co827 2.145 . S
N862 C863 1.397 . S
N862 C864 1.334 . S
C863 H844 0.929 . S
C863 C860 1.388 . S
C863 N862 1.397 . S
C864 H845 0.929 . S
C864 C861 1.404 . S
C864 N862 1.334 . S
C865 H857 0.930 . S
C865 C860 1.418 . S
C865 C861 1.353 . S
C866 H836 0.930 . S
C866 N867 1.330 . S
C866 C868 1.446 . S
N867 Co826 2.151 . S
N867 C866 1.330 . S
N867 C871 1.418 . S
C868 H847 0.929 . S
C868 C866 1.446 . S
C868 C869 1.332 . S
C869 H849 0.931 . S
C869 C868 1.332 . S
C869 C870 1.267 . S
C870 H838 0.929 . S
C870 C869 1.267 . S
C870 C871 1.251 . S
C871 H841 0.929 . S
C871 N867 1.418 . S
C871 C870 1.251 . S
C872 H839 0.930 . S
C872 C874 1.406 . S
C872 C877 1.261 . S
C873 H840 0.930 . S
C873 N875 1.325 . S
C873 C876 1.357 . S
C874 H842 0.928 . S
C874 C872 1.406 . S
C874 N875 1.261 . S
N875 Co826 2.214 . S
N875 C873 1.325 . S
N875 C874 1.261 . S
C876 H846 0.931 . S
C876 C873 1.357 . S
C876 C877 1.312 . S
C877 H848 0.930 . S
C877 C872 1.261 . S
C877 C876 1.312 . S
C878 O850 1.214 . S
C878 O858 1.234 . S
C879 H851 0.929 . S
C879 C882 1.391 . S
C879 C884 1.391 . S
C880 H852 0.929 . S
C880 C881 1.390 . S
C880 N883 1.391 . S
C881 H853 0.930 . S
C881 C880 1.390 . S
C881 C882 1.392 . S
C882 H854 0.929 . S
C882 C879 1.391 . S
C882 C881 1.392 . S
N883 Co827 2.257 . S
N883 C880 1.391 . S
N883 C884 1.388 . S
C884 H855 0.930 . S
C884 C879 1.391 . S
C884 N883 1.388 . S
Co885 O887 2.143 . S
Co885 O893 2.074 . S
Co885 O896 2.093 . S
Co885 O909 2.097 . S
Co885 N926 2.151 . S
Co885 N934 2.214 . S
Co886 O887 2.160 . S
Co886 O892 2.058 . S
Co886 O902 2.057 . S
Co886 O917 2.037 . S
Co886 N921 2.145 . S
Co886 N942 2.257 . S
O887 Co885 2.143 . S
O887 Co886 2.160 . S
C888 O889 1.278 . S
C888 O896 1.224 . S
O889 C888 1.278 . S
C890 O891 1.245 . S
C890 O902 1.232 . S
O891 C890 1.245 . S
O892 Co886 2.058 . S
O892 C918 1.269 . S
O893 Co885 2.074 . S
O893 C918 1.257 . S
H894 C919 0.930 . S
H895 C925 0.930 . S
O896 Co885 2.093 . S
O896 C888 1.224 . S
H897 C929 0.929 . S
H898 C931 0.930 . S
H899 C932 0.930 . S
H900 C930 0.929 . S
H901 C933 0.928 . S
O902 Co886 2.057 . S
O902 C890 1.232 . S
H903 C922 0.929 . S
H904 C923 0.929 . S
H905 C935 0.931 . S
H906 C927 0.929 . S
H907 C936 0.930 . S
H908 C928 0.931 . S
O909 Co885 2.097 . S
O909 C937 1.214 . S
H910 C938 0.929 . S
H911 C939 0.929 . S
H912 C940 0.930 . S
H913 C941 0.929 . S
H914 C943 0.930 . S
H915 C920 0.930 . S
H916 C924 0.930 . S
O917 Co886 2.037 . S
O917 C937 1.234 . S
C918 O892 1.269 . S
C918 O893 1.257 . S
C919 H894 0.930 . S
C919 C922 1.388 . S
C919 C924 1.418 . S
C920 H915 0.930 . S
C920 C923 1.404 . S
C920 C924 1.353 . S
N921 Co886 2.145 . S
N921 C922 1.397 . S
N921 C923 1.334 . S
C922 H903 0.929 . S
C922 C919 1.388 . S
C922 N921 1.397 . S
C923 H904 0.929 . S
C923 C920 1.404 . S
C923 N921 1.334 . S
C924 H916 0.930 . S
C924 C919 1.418 . S
C924 C920 1.353 . S
C925 H895 0.930 . S
C925 N926 1.330 . S
C925 C927 1.446 . S
N926 Co885 2.151 . S
N926 C925 1.330 . S
N926 C930 1.418 . S
C927 H906 0.929 . S
C927 C925 1.446 . S
C927 C928 1.332 . S
C928 H908 0.931 . S
C928 C927 1.332 . S
C928 C929 1.267 . S
C929 H897 0.929 . S
C929 C928 1.267 . S
C929 C930 1.251 . S
C930 H900 0.929 . S
C930 N926 1.418 . S
C930 C929 1.251 . S
C931 H898 0.930 . S
C931 C933 1.406 . S
C931 C936 1.261 . S
C932 H899 0.930 . S
C932 N934 1.325 . S
C932 C935 1.357 . S
C933 H901 0.928 . S
C933 C931 1.406 . S
C933 N934 1.261 . S
N934 Co885 2.214 . S
N934 C932 1.325 . S
N934 C933 1.261 . S
C935 H905 0.931 . S
C935 C932 1.357 . S
C935 C936 1.312 . S
C936 H907 0.930 . S
C936 C931 1.261 . S
C936 C935 1.312 . S
C937 O909 1.214 . S
C937 O917 1.234 . S
C938 H910 0.929 . S
C938 C941 1.391 . S
C938 C943 1.391 . S
C939 H911 0.929 . S
C939 C940 1.390 . S
C939 N942 1.391 . S
C940 H912 0.930 . S
C940 C939 1.390 . S
C940 C941 1.392 . S
C941 H913 0.929 . S
C941 C938 1.391 . S
C941 C940 1.392 . S
N942 Co886 2.257 . S
N942 C939 1.391 . S
N942 C943 1.388 . S
C943 H914 0.930 . S
C943 C938 1.391 . S
C943 N942 1.388 . S
Co944 O946 2.143 . S
Co944 O952 2.074 . S
Co944 O955 2.093 . S
Co944 O968 2.097 . S
Co944 N985 2.151 . S
Co944 N993 2.214 . S
Co945 O946 2.160 . S
Co945 O951 2.058 . S
Co945 O961 2.057 . S
Co945 O976 2.037 . S
Co945 N980 2.145 . S
Co945 N1001 2.257 . S
O946 Co944 2.143 . S
O946 Co945 2.160 . S
C947 O948 1.278 . S
C947 O955 1.224 . S
O948 C947 1.278 . S
C949 O950 1.245 . S
C949 O961 1.232 . S
O950 C949 1.245 . S
O951 Co945 2.058 . S
O951 C977 1.269 . S
O952 Co944 2.074 . S
O952 C977 1.257 . S
H953 C978 0.930 . S
H954 C984 0.930 . S
O955 Co944 2.093 . S
O955 C947 1.224 . S
H956 C988 0.929 . S
H957 C990 0.930 . S
H958 C991 0.930 . S
H959 C989 0.929 . S
H960 C992 0.928 . S
O961 Co945 2.057 . S
O961 C949 1.232 . S
H962 C981 0.929 . S
H963 C982 0.929 . S
H964 C994 0.931 . S
H965 C986 0.929 . S
H966 C995 0.930 . S
H967 C987 0.931 . S
O968 Co944 2.097 . S
O968 C996 1.214 . S
H969 C997 0.929 . S
H970 C998 0.929 . S
H971 C999 0.930 . S
H972 C1000 0.929 . S
H973 C1002 0.930 . S
H974 C979 0.930 . S
H975 C983 0.930 . S
O976 Co945 2.037 . S
O976 C996 1.234 . S
C977 O951 1.269 . S
C977 O952 1.257 . S
C978 H953 0.930 . S
C978 C981 1.388 . S
C978 C983 1.418 . S
C979 H974 0.930 . S
C979 C982 1.404 . S
C979 C983 1.353 . S
N980 Co945 2.145 . S
N980 C981 1.397 . S
N980 C982 1.334 . S
C981 H962 0.929 . S
C981 C978 1.388 . S
C981 N980 1.397 . S
C982 H963 0.929 . S
C982 C979 1.404 . S
C982 N980 1.334 . S
C983 H975 0.930 . S
C983 C978 1.418 . S
C983 C979 1.353 . S
C984 H954 0.930 . S
C984 N985 1.330 . S
C984 C986 1.446 . S
N985 Co944 2.151 . S
N985 C984 1.330 . S
N985 C989 1.418 . S
C986 H965 0.929 . S
C986 C984 1.446 . S
C986 C987 1.332 . S
C987 H967 0.931 . S
C987 C986 1.332 . S
C987 C988 1.267 . S
C988 H956 0.929 . S
C988 C987 1.267 . S
C988 C989 1.251 . S
C989 H959 0.929 . S
C989 N985 1.418 . S
C989 C988 1.251 . S
C990 H957 0.930 . S
C990 C992 1.406 . S
C990 C995 1.261 . S
C991 H958 0.930 . S
C991 N993 1.325 . S
C991 C994 1.357 . S
C992 H960 0.928 . S
C992 C990 1.406 . S
C992 N993 1.261 . S
N993 Co944 2.214 . S
N993 C991 1.325 . S
N993 C992 1.261 . S
C994 H964 0.931 . S
C994 C991 1.357 . S
C994 C995 1.312 . S
C995 H966 0.930 . S
C995 C990 1.261 . S
C995 C994 1.312 . S
C996 O968 1.214 . S
C996 O976 1.234 . S
C997 H969 0.929 . S
C997 C1000 1.391 . S
C997 C1002 1.391 . S
C998 H970 0.929 . S
C998 C999 1.390 . S
C998 N1001 1.391 . S
C999 H971 0.930 . S
C999 C998 1.390 . S
C999 C1000 1.392 . S
C1000 H972 0.929 . S
C1000 C997 1.391 . S
C1000 C999 1.392 . S
N1001 Co945 2.257 . S
N1001 C998 1.391 . S
N1001 C1002 1.388 . S
C1002 H973 0.930 . S
C1002 C997 1.391 . S
C1002 N1001 1.388 . S
Co1003 O1005 2.143 . S
Co1003 O1011 2.074 . S
Co1003 O1014 2.093 . S
Co1003 O1027 2.097 . S
Co1003 N1044 2.151 . S
Co1003 N1052 2.214 . S
Co1004 O1005 2.160 . S
Co1004 O1010 2.058 . S
Co1004 O1020 2.057 . S
Co1004 O1035 2.037 . S
Co1004 N1039 2.145 . S
Co1004 N1060 2.257 . S
O1005 Co1003 2.143 . S
O1005 Co1004 2.160 . S
C1006 O1007 1.278 . S
C1006 O1014 1.224 . S
O1007 C1006 1.278 . S
C1008 O1009 1.245 . S
C1008 O1020 1.232 . S
O1009 C1008 1.245 . S
O1010 Co1004 2.058 . S
O1010 C1036 1.269 . S
O1011 Co1003 2.074 . S
O1011 C1036 1.257 . S
H1012 C1037 0.930 . S
H1013 C1043 0.930 . S
O1014 Co1003 2.093 . S
O1014 C1006 1.224 . S
H1015 C1047 0.929 . S
H1016 C1049 0.930 . S
H1017 C1050 0.930 . S
H1018 C1048 0.929 . S
H1019 C1051 0.928 . S
O1020 Co1004 2.057 . S
O1020 C1008 1.232 . S
H1021 C1040 0.929 . S
H1022 C1041 0.929 . S
H1023 C1053 0.931 . S
H1024 C1045 0.929 . S
H1025 C1054 0.930 . S
H1026 C1046 0.931 . S
O1027 Co1003 2.097 . S
O1027 C1055 1.214 . S
H1028 C1056 0.929 . S
H1029 C1057 0.929 . S
H1030 C1058 0.930 . S
H1031 C1059 0.929 . S
H1032 C1061 0.930 . S
H1033 C1038 0.930 . S
H1034 C1042 0.930 . S
O1035 Co1004 2.037 . S
O1035 C1055 1.234 . S
C1036 O1010 1.269 . S
C1036 O1011 1.257 . S
C1037 H1012 0.930 . S
C1037 C1040 1.388 . S
C1037 C1042 1.418 . S
C1038 H1033 0.930 . S
C1038 C1041 1.404 . S
C1038 C1042 1.353 . S
N1039 Co1004 2.145 . S
N1039 C1040 1.397 . S
N1039 C1041 1.334 . S
C1040 H1021 0.929 . S
C1040 C1037 1.388 . S
C1040 N1039 1.397 . S
C1041 H1022 0.929 . S
C1041 C1038 1.404 . S
C1041 N1039 1.334 . S
C1042 H1034 0.930 . S
C1042 C1037 1.418 . S
C1042 C1038 1.353 . S
C1043 H1013 0.930 . S
C1043 N1044 1.330 . S
C1043 C1045 1.446 . S
N1044 Co1003 2.151 . S
N1044 C1043 1.330 . S
N1044 C1048 1.418 . S
C1045 H1024 0.929 . S
C1045 C1043 1.446 . S
C1045 C1046 1.332 . S
C1046 H1026 0.931 . S
C1046 C1045 1.332 . S
C1046 C1047 1.267 . S
C1047 H1015 0.929 . S
C1047 C1046 1.267 . S
C1047 C1048 1.251 . S
C1048 H1018 0.929 . S
C1048 N1044 1.418 . S
C1048 C1047 1.251 . S
C1049 H1016 0.930 . S
C1049 C1051 1.406 . S
C1049 C1054 1.261 . S
C1050 H1017 0.930 . S
C1050 N1052 1.325 . S
C1050 C1053 1.357 . S
C1051 H1019 0.928 . S
C1051 C1049 1.406 . S
C1051 N1052 1.261 . S
N1052 Co1003 2.214 . S
N1052 C1050 1.325 . S
N1052 C1051 1.261 . S
C1053 H1023 0.931 . S
C1053 C1050 1.357 . S
C1053 C1054 1.312 . S
C1054 H1025 0.930 . S
C1054 C1049 1.261 . S
C1054 C1053 1.312 . S
C1055 O1027 1.214 . S
C1055 O1035 1.234 . S
C1056 H1028 0.929 . S
C1056 C1059 1.391 . S
C1056 C1061 1.391 . S
C1057 H1029 0.929 . S
C1057 C1058 1.390 . S
C1057 N1060 1.391 . S
C1058 H1030 0.930 . S
C1058 C1057 1.390 . S
C1058 C1059 1.392 . S
C1059 H1031 0.929 . S
C1059 C1056 1.391 . S
C1059 C1058 1.392 . S
N1060 Co1004 2.257 . S
N1060 C1057 1.391 . S
N1060 C1061 1.388 . S
C1061 H1032 0.930 . S
C1061 C1056 1.391 . S
C1061 N1060 1.388 . S
Co1062 O1064 2.143 . S
Co1062 O1070 2.074 . S
Co1062 O1073 2.093 . S
Co1062 O1086 2.097 . S
Co1062 N1103 2.151 . S
Co1062 N1111 2.214 . S
Co1063 O1064 2.160 . S
Co1063 O1069 2.058 . S
Co1063 O1079 2.057 . S
Co1063 O1094 2.037 . S
Co1063 N1098 2.145 . S
Co1063 N1119 2.257 . S
O1064 Co1062 2.143 . S
O1064 Co1063 2.160 . S
C1065 O1066 1.278 1_556 S
C1065 O1073 1.224 1_556 S
O1066 C1065 1.278 1_554 S
C1067 O1068 1.245 . S
C1067 O1079 1.232 . S
O1068 C1067 1.245 . S
O1069 Co1063 2.058 . S
O1069 C1095 1.269 . S
O1070 Co1062 2.074 . S
O1070 C1095 1.257 . S
H1071 C1096 0.930 . S
H1072 C1102 0.930 . S
O1073 Co1062 2.093 . S
O1073 C1065 1.224 1_554 S
H1074 C1106 0.929 . S
H1075 C1108 0.930 . S
H1076 C1109 0.930 . S
H1077 C1107 0.929 . S
H1078 C1110 0.928 . S
O1079 Co1063 2.057 . S
O1079 C1067 1.232 . S
H1080 C1099 0.929 . S
H1081 C1100 0.929 . S
H1082 C1112 0.931 . S
H1083 C1104 0.929 . S
H1084 C1113 0.930 . S
H1085 C1105 0.931 . S
O1086 Co1062 2.097 . S
O1086 C1114 1.214 . S
H1087 C1115 0.929 1_556 S
H1088 C1116 0.929 . S
H1089 C1117 0.930 . S
H1090 C1118 0.929 1_556 S
H1091 C1120 0.930 . S
H1092 C1097 0.930 . S
H1093 C1101 0.930 . S
O1094 Co1063 2.037 . S
O1094 C1114 1.234 . S
C1095 O1069 1.269 . S
C1095 O1070 1.257 . S
C1096 H1071 0.930 . S
C1096 C1099 1.388 . S
C1096 C1101 1.418 . S
C1097 H1092 0.930 . S
C1097 C1100 1.404 . S
C1097 C1101 1.353 . S
N1098 Co1063 2.145 . S
N1098 C1099 1.397 . S
N1098 C1100 1.334 . S
C1099 H1080 0.929 . S
C1099 C1096 1.388 . S
C1099 N1098 1.397 . S
C1100 H1081 0.929 . S
C1100 C1097 1.404 . S
C1100 N1098 1.334 . S
C1101 H1093 0.930 . S
C1101 C1096 1.418 . S
C1101 C1097 1.353 . S
C1102 H1072 0.930 . S
C1102 N1103 1.330 . S
C1102 C1104 1.446 . S
N1103 Co1062 2.151 . S
N1103 C1102 1.330 . S
N1103 C1107 1.418 . S
C1104 H1083 0.929 . S
C1104 C1102 1.446 . S
C1104 C1105 1.332 . S
C1105 H1085 0.931 . S
C1105 C1104 1.332 . S
C1105 C1106 1.267 . S
C1106 H1074 0.929 . S
C1106 C1105 1.267 . S
C1106 C1107 1.251 . S
C1107 H1077 0.929 . S
C1107 N1103 1.418 . S
C1107 C1106 1.251 . S
C1108 H1075 0.930 . S
C1108 C1110 1.406 . S
C1108 C1113 1.261 . S
C1109 H1076 0.930 . S
C1109 N1111 1.325 . S
C1109 C1112 1.357 . S
C1110 H1078 0.928 . S
C1110 C1108 1.406 . S
C1110 N1111 1.261 . S
N1111 Co1062 2.214 . S
N1111 C1109 1.325 . S
N1111 C1110 1.261 . S
C1112 H1082 0.931 . S
C1112 C1109 1.357 . S
C1112 C1113 1.312 . S
C1113 H1084 0.930 . S
C1113 C1108 1.261 . S
C1113 C1112 1.312 . S
C1114 O1086 1.214 . S
C1114 O1094 1.234 . S
C1115 H1087 0.929 1_554 S
C1115 C1118 1.391 . S
C1115 C1120 1.391 . S
C1116 H1088 0.929 . S
C1116 C1117 1.390 . S
C1116 N1119 1.391 . S
C1117 H1089 0.930 . S
C1117 C1116 1.390 . S
C1117 C1118 1.392 . S
C1118 H1090 0.929 1_554 S
C1118 C1115 1.391 . S
C1118 C1117 1.392 . S
N1119 Co1063 2.257 . S
N1119 C1116 1.391 . S
N1119 C1120 1.388 . S
C1120 H1091 0.930 . S
C1120 C1115 1.391 . S
C1120 N1119 1.388 . S
Co1121 O1123 2.143 . S
Co1121 O1129 2.074 . S
Co1121 O1132 2.093 . S
Co1121 O1145 2.097 . S
Co1121 N1162 2.151 . S
Co1121 N1170 2.214 . S
Co1122 O1123 2.160 . S
Co1122 O1128 2.058 . S
Co1122 O1138 2.057 . S
Co1122 O1153 2.037 . S
Co1122 N1157 2.145 . S
Co1122 N1178 2.257 . S
O1123 Co1121 2.143 . S
O1123 Co1122 2.160 . S
C1124 O1125 1.274 1_556 S
C1124 O1132 1.206 1_556 S
O1125 C1124 1.274 1_554 S
C1126 O1127 1.245 . S
C1126 O1138 1.232 . S
O1127 C1126 1.245 . S
O1128 Co1122 2.058 . S
O1128 C1154 1.269 . S
O1129 Co1121 2.074 . S
O1129 C1154 1.257 . S
H1130 C1155 0.930 . S
H1131 C1161 0.930 . S
O1132 Co1121 2.093 . S
O1132 C1124 1.206 1_554 S
H1133 C1165 0.929 . S
H1134 C1167 0.930 . S
H1135 C1168 0.930 . S
H1136 C1166 0.929 . S
H1137 C1169 0.928 . S
O1138 Co1122 2.057 . S
O1138 C1126 1.232 . S
H1139 C1158 0.929 . S
H1140 C1159 0.929 . S
H1141 C1171 0.931 . S
H1142 C1163 0.929 . S
H1143 C1172 0.930 . S
H1144 C1164 0.931 . S
O1145 Co1121 2.097 . S
O1145 C1173 1.214 . S
H1146 C1174 0.929 1_556 S
H1147 C1175 0.929 . S
H1148 C1176 0.930 . S
H1149 C1177 0.929 1_556 S
H1150 C1179 0.930 . S
H1151 C1156 0.930 . S
H1152 C1160 0.930 . S
O1153 Co1122 2.037 . S
O1153 C1173 1.234 . S
C1154 O1128 1.269 . S
C1154 O1129 1.257 . S
C1155 H1130 0.930 . S
C1155 C1158 1.388 . S
C1155 C1160 1.418 . S
C1156 H1151 0.930 . S
C1156 C1159 1.404 . S
C1156 C1160 1.353 . S
N1157 Co1122 2.145 . S
N1157 C1158 1.397 . S
N1157 C1159 1.334 . S
C1158 H1139 0.929 . S
C1158 C1155 1.388 . S
C1158 N1157 1.397 . S
C1159 H1140 0.929 . S
C1159 C1156 1.404 . S
C1159 N1157 1.334 . S
C1160 H1152 0.930 . S
C1160 C1155 1.418 . S
C1160 C1156 1.353 . S
C1161 H1131 0.930 . S
C1161 N1162 1.330 . S
C1161 C1163 1.446 . S
N1162 Co1121 2.151 . S
N1162 C1161 1.330 . S
N1162 C1166 1.418 . S
C1163 H1142 0.929 . S
C1163 C1161 1.446 . S
C1163 C1164 1.332 . S
C1164 H1144 0.931 . S
C1164 C1163 1.332 . S
C1164 C1165 1.267 . S
C1165 H1133 0.929 . S
C1165 C1164 1.267 . S
C1165 C1166 1.251 . S
C1166 H1136 0.929 . S
C1166 N1162 1.418 . S
C1166 C1165 1.251 . S
C1167 H1134 0.930 . S
C1167 C1169 1.406 . S
C1167 C1172 1.261 . S
C1168 H1135 0.930 . S
C1168 N1170 1.325 . S
C1168 C1171 1.357 . S
C1169 H1137 0.928 . S
C1169 C1167 1.406 . S
C1169 N1170 1.261 . S
N1170 Co1121 2.214 . S
N1170 C1168 1.325 . S
N1170 C1169 1.261 . S
C1171 H1141 0.931 . S
C1171 C1168 1.357 . S
C1171 C1172 1.312 . S
C1172 H1143 0.930 . S
C1172 C1167 1.261 . S
C1172 C1171 1.312 . S
C1173 O1145 1.214 . S
C1173 O1153 1.234 . S
C1174 H1146 0.929 1_554 S
C1174 C1177 1.391 . S
C1174 C1179 1.391 . S
C1175 H1147 0.929 . S
C1175 C1176 1.390 . S
C1175 N1178 1.391 . S
C1176 H1148 0.930 . S
C1176 C1175 1.390 . S
C1176 C1177 1.392 . S
C1177 H1149 0.929 1_554 S
C1177 C1174 1.391 . S
C1177 C1176 1.392 . S
N1178 Co1122 2.257 . S
N1178 C1175 1.391 . S
N1178 C1179 1.388 . S
C1179 H1150 0.930 . S
C1179 C1174 1.391 . S
C1179 N1178 1.388 . S
Co1180 O1182 2.143 . S
Co1180 O1188 2.074 . S
Co1180 O1191 2.093 . S
Co1180 O1204 2.097 . S
Co1180 N1221 2.151 . S
Co1180 N1229 2.214 . S
Co1181 O1182 2.160 . S
Co1181 O1187 2.058 . S
Co1181 O1197 2.057 . S
Co1181 O1212 2.037 . S
Co1181 N1216 2.145 . S
Co1181 N1237 2.257 . S
O1182 Co1180 2.143 . S
O1182 Co1181 2.160 . S
C1183 O1184 1.278 1_556 S
C1183 O1191 1.224 1_556 S
O1184 C1183 1.278 1_554 S
C1185 O1186 1.245 . S
C1185 O1197 1.232 . S
O1186 C1185 1.245 . S
O1187 Co1181 2.058 . S
O1187 C1213 1.269 . S
O1188 Co1180 2.074 . S
O1188 C1213 1.257 . S
H1189 C1214 0.930 . S
H1190 C1220 0.930 . S
O1191 Co1180 2.093 . S
O1191 C1183 1.224 1_554 S
H1192 C1224 0.929 . S
H1193 C1226 0.930 . S
H1194 C1227 0.930 . S
H1195 C1225 0.929 . S
H1196 C1228 0.928 . S
O1197 Co1181 2.057 . S
O1197 C1185 1.232 . S
H1198 C1217 0.929 . S
H1199 C1218 0.929 . S
H1200 C1230 0.931 . S
H1201 C1222 0.929 . S
H1202 C1231 0.930 . S
H1203 C1223 0.931 . S
O1204 Co1180 2.097 . S
O1204 C1232 1.214 . S
H1205 C1233 0.929 1_556 S
H1206 C1234 0.929 . S
H1207 C1235 0.930 . S
H1208 C1236 0.929 1_556 S
H1209 C1238 0.930 . S
H1210 C1215 0.930 . S
H1211 C1219 0.930 . S
O1212 Co1181 2.037 . S
O1212 C1232 1.234 . S
C1213 O1187 1.269 . S
C1213 O1188 1.257 . S
C1214 H1189 0.930 . S
C1214 C1217 1.388 . S
C1214 C1219 1.418 . S
C1215 H1210 0.930 . S
C1215 C1218 1.404 . S
C1215 C1219 1.353 . S
N1216 Co1181 2.145 . S
N1216 C1217 1.397 . S
N1216 C1218 1.334 . S
C1217 H1198 0.929 . S
C1217 C1214 1.388 . S
C1217 N1216 1.397 . S
C1218 H1199 0.929 . S
C1218 C1215 1.404 . S
C1218 N1216 1.334 . S
C1219 H1211 0.930 . S
C1219 C1214 1.418 . S
C1219 C1215 1.353 . S
C1220 H1190 0.930 . S
C1220 N1221 1.330 . S
C1220 C1222 1.446 . S
N1221 Co1180 2.151 . S
N1221 C1220 1.330 . S
N1221 C1225 1.418 . S
C1222 H1201 0.929 . S
C1222 C1220 1.446 . S
C1222 C1223 1.332 . S
C1223 H1203 0.931 . S
C1223 C1222 1.332 . S
C1223 C1224 1.267 . S
C1224 H1192 0.929 . S
C1224 C1223 1.267 . S
C1224 C1225 1.251 . S
C1225 H1195 0.929 . S
C1225 N1221 1.418 . S
C1225 C1224 1.251 . S
C1226 H1193 0.930 . S
C1226 C1228 1.406 . S
C1226 C1231 1.261 . S
C1227 H1194 0.930 . S
C1227 N1229 1.325 . S
C1227 C1230 1.357 . S
C1228 H1196 0.928 . S
C1228 C1226 1.406 . S
C1228 N1229 1.261 . S
N1229 Co1180 2.214 . S
N1229 C1227 1.325 . S
N1229 C1228 1.261 . S
C1230 H1200 0.931 . S
C1230 C1227 1.357 . S
C1230 C1231 1.312 . S
C1231 H1202 0.930 . S
C1231 C1226 1.261 . S
C1231 C1230 1.312 . S
C1232 O1204 1.214 . S
C1232 O1212 1.234 . S
C1233 H1205 0.929 1_554 S
C1233 C1236 1.391 . S
C1233 C1238 1.391 . S
C1234 H1206 0.929 . S
C1234 C1235 1.390 . S
C1234 N1237 1.391 . S
C1235 H1207 0.930 . S
C1235 C1234 1.390 . S
C1235 C1236 1.392 . S
C1236 H1208 0.929 1_554 S
C1236 C1233 1.391 . S
C1236 C1235 1.392 . S
N1237 Co1181 2.257 . S
N1237 C1234 1.391 . S
N1237 C1238 1.388 . S
C1238 H1209 0.930 . S
C1238 C1233 1.391 . S
C1238 N1237 1.388 . S
Co1239 O1241 2.143 . S
Co1239 O1247 2.074 . S
Co1239 O1250 2.093 . S
Co1239 O1263 2.097 . S
Co1239 N1280 2.151 . S
Co1239 N1288 2.214 . S
Co1240 O1241 2.160 . S
Co1240 O1246 2.058 1_554 S
Co1240 O1256 2.057 . S
Co1240 O1271 2.037 . S
Co1240 N1275 2.145 1_554 S
Co1240 N1296 2.257 . S
O1241 Co1239 2.143 . S
O1241 Co1240 2.160 . S
C1242 O1243 1.278 . S
C1242 O1250 1.224 . S
O1243 C1242 1.278 . S
C1244 O1245 1.245 . S
C1244 O1256 1.232 . S
O1245 C1244 1.245 . S
O1246 Co1240 2.058 1_556 S
O1246 C1272 1.269 . S
O1247 Co1239 2.074 . S
O1247 C1272 1.257 1_554 S
H1248 C1273 0.930 . S
H1249 C1279 0.930 . S
O1250 Co1239 2.093 . S
O1250 C1242 1.224 . S
H1251 C1283 0.929 . S
H1252 C1285 0.930 . S
H1253 C1286 0.930 . S
H1254 C1284 0.929 . S
H1255 C1287 0.928 . S
O1256 Co1240 2.057 . S
O1256 C1244 1.232 . S
H1257 C1276 0.929 . S
H1258 C1277 0.929 1_554 S
H1259 C1289 0.931 1_556 S
H1260 C1281 0.929 . S
H1261 C1290 0.930 . S
H1262 C1282 0.931 . S
O1263 Co1239 2.097 . S
O1263 C1291 1.214 . S
H1264 C1292 0.929 . S
H1265 C1293 0.929 . S
H1266 C1294 0.930 . S
H1267 C1295 0.929 . S
H1268 C1297 0.930 . S
H1269 C1274 0.930 . S
H1270 C1278 0.930 . S
O1271 Co1240 2.037 . S
O1271 C1291 1.234 . S
C1272 O1246 1.269 . S
C1272 O1247 1.257 1_556 S
C1273 H1248 0.930 . S
C1273 C1276 1.388 . S
C1273 C1278 1.418 . S
C1274 H1269 0.930 . S
C1274 C1277 1.404 . S
C1274 C1278 1.353 . S
N1275 Co1240 2.145 1_556 S
N1275 C1276 1.397 . S
N1275 C1277 1.334 . S
C1276 H1257 0.929 . S
C1276 C1273 1.388 . S
C1276 N1275 1.397 . S
C1277 H1258 0.929 1_556 S
C1277 C1274 1.404 . S
C1277 N1275 1.334 . S
C1278 H1270 0.930 . S
C1278 C1273 1.418 . S
C1278 C1274 1.353 . S
C1279 H1249 0.930 . S
C1279 N1280 1.330 . S
C1279 C1281 1.446 . S
N1280 Co1239 2.151 . S
N1280 C1279 1.330 . S
N1280 C1284 1.418 . S
C1281 H1260 0.929 . S
C1281 C1279 1.446 . S
C1281 C1282 1.332 . S
C1282 H1262 0.931 . S
C1282 C1281 1.332 . S
C1282 C1283 1.267 . S
C1283 H1251 0.929 . S
C1283 C1282 1.267 . S
C1283 C1284 1.251 . S
C1284 H1254 0.929 . S
C1284 N1280 1.418 . S
C1284 C1283 1.251 . S
C1285 H1252 0.930 . S
C1285 C1287 1.406 . S
C1285 C1290 1.261 . S
C1286 H1253 0.930 . S
C1286 N1288 1.325 . S
C1286 C1289 1.357 . S
C1287 H1255 0.928 . S
C1287 C1285 1.406 . S
C1287 N1288 1.261 . S
N1288 Co1239 2.214 . S
N1288 C1286 1.325 . S
N1288 C1287 1.261 . S
C1289 H1259 0.931 1_554 S
C1289 C1286 1.357 . S
C1289 C1290 1.312 . S
C1290 H1261 0.930 . S
C1290 C1285 1.261 . S
C1290 C1289 1.312 . S
C1291 O1263 1.214 . S
C1291 O1271 1.234 . S
C1292 H1264 0.929 . S
C1292 C1295 1.391 . S
C1292 C1297 1.391 . S
C1293 H1265 0.929 . S
C1293 C1294 1.390 . S
C1293 N1296 1.391 . S
C1294 H1266 0.930 . S
C1294 C1293 1.390 . S
C1294 C1295 1.392 . S
C1295 H1267 0.929 . S
C1295 C1292 1.391 . S
C1295 C1294 1.392 . S
N1296 Co1240 2.257 . S
N1296 C1293 1.391 . S
N1296 C1297 1.388 . S
C1297 H1268 0.930 . S
C1297 C1292 1.391 . S
C1297 N1296 1.388 . S
Co1298 O1300 2.143 . S
Co1298 O1306 2.074 . S
Co1298 O1309 2.093 . S
Co1298 O1322 2.097 . S
Co1298 N1339 2.151 . S
Co1298 N1347 2.214 . S
Co1299 O1300 2.160 . S
Co1299 O1305 2.058 1_554 S
Co1299 O1315 2.057 . S
Co1299 O1330 2.037 . S
Co1299 N1334 2.145 1_554 S
Co1299 N1355 2.257 . S
O1300 Co1298 2.143 . S
O1300 Co1299 2.160 . S
C1301 O1302 1.278 . S
C1301 O1309 1.224 . S
O1302 C1301 1.278 . S
C1303 O1304 1.245 . S
C1303 O1315 1.232 . S
O1304 C1303 1.245 . S
O1305 Co1299 2.058 1_556 S
O1305 C1331 1.269 . S
O1306 Co1298 2.074 . S
O1306 C1331 1.257 1_554 S
H1307 C1332 0.930 . S
H1308 C1338 0.930 . S
O1309 Co1298 2.093 . S
O1309 C1301 1.224 . S
H1310 C1342 0.929 . S
H1311 C1344 0.930 . S
H1312 C1345 0.930 . S
H1313 C1343 0.929 . S
H1314 C1346 0.928 . S
O1315 Co1299 2.057 . S
O1315 C1303 1.232 . S
H1316 C1335 0.929 . S
H1317 C1336 0.929 1_554 S
H1318 C1348 0.931 1_556 S
H1319 C1340 0.929 . S
H1320 C1349 0.930 . S
H1321 C1341 0.931 . S
O1322 Co1298 2.097 . S
O1322 C1350 1.214 . S
H1323 C1351 0.929 . S
H1324 C1352 0.929 . S
H1325 C1353 0.930 . S
H1326 C1354 0.929 . S
H1327 C1356 0.930 . S
H1328 C1333 0.930 . S
H1329 C1337 0.930 . S
O1330 Co1299 2.037 . S
O1330 C1350 1.234 . S
C1331 O1305 1.269 . S
C1331 O1306 1.257 1_556 S
C1332 H1307 0.930 . S
C1332 C1335 1.388 . S
C1332 C1337 1.418 . S
C1333 H1328 0.930 . S
C1333 C1336 1.404 . S
C1333 C1337 1.353 . S
N1334 Co1299 2.145 1_556 S
N1334 C1335 1.397 . S
N1334 C1336 1.334 . S
C1335 H1316 0.929 . S
C1335 C1332 1.388 . S
C1335 N1334 1.397 . S
C1336 H1317 0.929 1_556 S
C1336 C1333 1.404 . S
C1336 N1334 1.334 . S
C1337 H1329 0.930 . S
C1337 C1332 1.418 . S
C1337 C1333 1.353 . S
C1338 H1308 0.930 . S
C1338 N1339 1.330 . S
C1338 C1340 1.446 . S
N1339 Co1298 2.151 . S
N1339 C1338 1.330 . S
N1339 C1343 1.418 . S
C1340 H1319 0.929 . S
C1340 C1338 1.446 . S
C1340 C1341 1.332 . S
C1341 H1321 0.931 . S
C1341 C1340 1.332 . S
C1341 C1342 1.267 . S
C1342 H1310 0.929 . S
C1342 C1341 1.267 . S
C1342 C1343 1.251 . S
C1343 H1313 0.929 . S
C1343 N1339 1.418 . S
C1343 C1342 1.251 . S
C1344 H1311 0.930 . S
C1344 C1346 1.406 . S
C1344 C1349 1.261 . S
C1345 H1312 0.930 . S
C1345 N1347 1.325 . S
C1345 C1348 1.357 . S
C1346 H1314 0.928 . S
C1346 C1344 1.406 . S
C1346 N1347 1.261 . S
N1347 Co1298 2.214 . S
N1347 C1345 1.325 . S
N1347 C1346 1.261 . S
C1348 H1318 0.931 1_554 S
C1348 C1345 1.357 . S
C1348 C1349 1.312 . S
C1349 H1320 0.930 . S
C1349 C1344 1.261 . S
C1349 C1348 1.312 . S
C1350 O1322 1.214 . S
C1350 O1330 1.234 . S
C1351 H1323 0.929 . S
C1351 C1354 1.391 . S
C1351 C1356 1.391 . S
C1352 H1324 0.929 . S
C1352 C1353 1.390 . S
C1352 N1355 1.391 . S
C1353 H1325 0.930 . S
C1353 C1352 1.390 . S
C1353 C1354 1.392 . S
C1354 H1326 0.929 . S
C1354 C1351 1.391 . S
C1354 C1353 1.392 . S
N1355 Co1299 2.257 . S
N1355 C1352 1.391 . S
N1355 C1356 1.388 . S
C1356 H1327 0.930 . S
C1356 C1351 1.391 . S
C1356 N1355 1.388 . S
Co1357 O1359 2.143 . S
Co1357 O1365 2.074 . S
Co1357 O1368 2.093 . S
Co1357 O1381 2.097 . S
Co1357 N1398 2.151 . S
Co1357 N1406 2.214 . S
Co1358 O1359 2.160 . S
Co1358 O1364 2.058 1_554 S
Co1358 O1374 2.057 . S
Co1358 O1389 2.037 . S
Co1358 N1393 2.145 1_554 S
Co1358 N1414 2.257 . S
O1359 Co1357 2.143 . S
O1359 Co1358 2.160 . S
C1360 O1361 1.278 . S
C1360 O1368 1.224 . S
O1361 C1360 1.278 . S
C1362 O1363 1.245 . S
C1362 O1374 1.232 . S
O1363 C1362 1.245 . S
O1364 Co1358 2.058 1_556 S
O1364 C1390 1.269 . S
O1365 Co1357 2.074 . S
O1365 C1390 1.257 1_554 S
H1366 C1391 0.930 . S
H1367 C1397 0.930 . S
O1368 Co1357 2.093 . S
O1368 C1360 1.224 . S
H1369 C1401 0.929 . S
H1370 C1403 0.930 . S
H1371 C1404 0.930 . S
H1372 C1402 0.929 . S
H1373 C1405 0.928 . S
O1374 Co1358 2.057 . S
O1374 C1362 1.232 . S
H1375 C1394 0.929 . S
H1376 C1395 0.929 1_554 S
H1377 C1407 0.931 1_556 S
H1378 C1399 0.929 . S
H1379 C1408 0.930 . S
H1380 C1400 0.931 . S
O1381 Co1357 2.097 . S
O1381 C1409 1.214 . S
H1382 C1410 0.929 . S
H1383 C1411 0.929 . S
H1384 C1412 0.930 . S
H1385 C1413 0.929 . S
H1386 C1415 0.930 . S
H1387 C1392 0.930 . S
H1388 C1396 0.930 . S
O1389 Co1358 2.037 . S
O1389 C1409 1.234 . S
C1390 O1364 1.269 . S
C1390 O1365 1.257 1_556 S
C1391 H1366 0.930 . S
C1391 C1394 1.388 . S
C1391 C1396 1.418 . S
C1392 H1387 0.930 . S
C1392 C1395 1.404 . S
C1392 C1396 1.353 . S
N1393 Co1358 2.145 1_556 S
N1393 C1394 1.397 . S
N1393 C1395 1.334 . S
C1394 H1375 0.929 . S
C1394 C1391 1.388 . S
C1394 N1393 1.397 . S
C1395 H1376 0.929 1_556 S
C1395 C1392 1.404 . S
C1395 N1393 1.334 . S
C1396 H1388 0.930 . S
C1396 C1391 1.418 . S
C1396 C1392 1.353 . S
C1397 H1367 0.930 . S
C1397 N1398 1.330 . S
C1397 C1399 1.446 . S
N1398 Co1357 2.151 . S
N1398 C1397 1.330 . S
N1398 C1402 1.418 . S
C1399 H1378 0.929 . S
C1399 C1397 1.446 . S
C1399 C1400 1.332 . S
C1400 H1380 0.931 . S
C1400 C1399 1.332 . S
C1400 C1401 1.267 . S
C1401 H1369 0.929 . S
C1401 C1400 1.267 . S
C1401 C1402 1.251 . S
C1402 H1372 0.929 . S
C1402 N1398 1.418 . S
C1402 C1401 1.251 . S
C1403 H1370 0.930 . S
C1403 C1405 1.406 . S
C1403 C1408 1.261 . S
C1404 H1371 0.930 . S
C1404 N1406 1.325 . S
C1404 C1407 1.357 . S
C1405 H1373 0.928 . S
C1405 C1403 1.406 . S
C1405 N1406 1.261 . S
N1406 Co1357 2.214 . S
N1406 C1404 1.325 . S
N1406 C1405 1.261 . S
C1407 H1377 0.931 1_554 S
C1407 C1404 1.357 . S
C1407 C1408 1.312 . S
C1408 H1379 0.930 . S
C1408 C1403 1.261 . S
C1408 C1407 1.312 . S
C1409 O1381 1.214 . S
C1409 O1389 1.234 . S
C1410 H1382 0.929 . S
C1410 C1413 1.391 . S
C1410 C1415 1.391 . S
C1411 H1383 0.929 . S
C1411 C1412 1.390 . S
C1411 N1414 1.391 . S
C1412 H1384 0.930 . S
C1412 C1411 1.390 . S
C1412 C1413 1.392 . S
C1413 H1385 0.929 . S
C1413 C1410 1.391 . S
C1413 C1412 1.392 . S
N1414 Co1358 2.257 . S
N1414 C1411 1.391 . S
N1414 C1415 1.388 . S
C1415 H1386 0.930 . S
C1415 C1410 1.391 . S
C1415 N1414 1.388 . S
Co1416 O1418 2.143 . S
Co1416 O1424 2.074 . S
Co1416 O1427 2.093 . S
Co1416 O1440 2.097 . S
Co1416 N1457 2.151 . S
Co1416 N1465 2.214 . S
Co1417 O1418 2.160 . S
Co1417 O1423 2.058 . S
Co1417 O1433 2.057 . S
Co1417 O1448 2.037 . S
Co1417 N1452 2.145 . S
Co1417 N1473 2.257 . S
O1418 Co1416 2.143 . S
O1418 Co1417 2.160 . S
C1419 O1420 1.278 1_554 S
C1419 O1427 1.224 1_554 S
O1420 C1419 1.278 1_556 S
C1421 O1422 1.245 . S
C1421 O1433 1.232 . S
O1422 C1421 1.245 . S
O1423 Co1417 2.058 . S
O1423 C1449 1.269 . S
O1424 Co1416 2.074 . S
O1424 C1449 1.257 . S
H1425 C1450 0.930 . S
H1426 C1456 0.930 . S
O1427 Co1416 2.093 . S
O1427 C1419 1.224 1_556 S
H1428 C1460 0.929 . S
H1429 C1462 0.930 . S
H1430 C1463 0.930 . S
H1431 C1461 0.929 . S
H1432 C1464 0.928 . S
O1433 Co1417 2.057 . S
O1433 C1421 1.232 . S
H1434 C1453 0.929 . S
H1435 C1454 0.929 . S
H1436 C1466 0.931 . S
H1437 C1458 0.929 . S
H1438 C1467 0.930 . S
H1439 C1459 0.931 . S
O1440 Co1416 2.097 . S
O1440 C1468 1.214 . S
H1441 C1469 0.929 1_554 S
H1442 C1470 0.929 . S
H1443 C1471 0.930 . S
H1444 C1472 0.929 1_554 S
H1445 C1474 0.930 . S
H1446 C1451 0.930 . S
H1447 C1455 0.930 . S
O1448 Co1417 2.037 . S
O1448 C1468 1.234 . S
C1449 O1423 1.269 . S
C1449 O1424 1.257 . S
C1450 H1425 0.930 . S
C1450 C1453 1.388 . S
C1450 C1455 1.418 . S
C1451 H1446 0.930 . S
C1451 C1454 1.404 . S
C1451 C1455 1.353 . S
N1452 Co1417 2.145 . S
N1452 C1453 1.397 . S
N1452 C1454 1.334 . S
C1453 H1434 0.929 . S
C1453 C1450 1.388 . S
C1453 N1452 1.397 . S
C1454 H1435 0.929 . S
C1454 C1451 1.404 . S
C1454 N1452 1.334 . S
C1455 H1447 0.930 . S
C1455 C1450 1.418 . S
C1455 C1451 1.353 . S
C1456 H1426 0.930 . S
C1456 N1457 1.330 . S
C1456 C1458 1.446 . S
N1457 Co1416 2.151 . S
N1457 C1456 1.330 . S
N1457 C1461 1.418 . S
C1458 H1437 0.929 . S
C1458 C1456 1.446 . S
C1458 C1459 1.332 . S
C1459 H1439 0.931 . S
C1459 C1458 1.332 . S
C1459 C1460 1.267 . S
C1460 H1428 0.929 . S
C1460 C1459 1.267 . S
C1460 C1461 1.251 . S
C1461 H1431 0.929 . S
C1461 N1457 1.418 . S
C1461 C1460 1.251 . S
C1462 H1429 0.930 . S
C1462 C1464 1.406 . S
C1462 C1467 1.261 . S
C1463 H1430 0.930 . S
C1463 N1465 1.325 . S
C1463 C1466 1.357 . S
C1464 H1432 0.928 . S
C1464 C1462 1.406 . S
C1464 N1465 1.261 . S
N1465 Co1416 2.214 . S
N1465 C1463 1.325 . S
N1465 C1464 1.261 . S
C1466 H1436 0.931 . S
C1466 C1463 1.357 . S
C1466 C1467 1.312 . S
C1467 H1438 0.930 . S
C1467 C1462 1.261 . S
C1467 C1466 1.312 . S
C1468 O1440 1.214 . S
C1468 O1448 1.234 . S
C1469 H1441 0.929 1_556 S
C1469 C1472 1.391 . S
C1469 C1474 1.391 . S
C1470 H1442 0.929 . S
C1470 C1471 1.390 . S
C1470 N1473 1.391 . S
C1471 H1443 0.930 . S
C1471 C1470 1.390 . S
C1471 C1472 1.392 . S
C1472 H1444 0.929 1_556 S
C1472 C1469 1.391 . S
C1472 C1471 1.392 . S
N1473 Co1417 2.257 . S
N1473 C1470 1.391 . S
N1473 C1474 1.388 . S
C1474 H1445 0.930 . S
C1474 C1469 1.391 . S
C1474 N1473 1.388 . S
Co1475 O1477 2.143 . S
Co1475 O1483 2.074 . S
Co1475 O1486 2.093 . S
Co1475 O1499 2.097 . S
Co1475 N1516 2.151 . S
Co1475 N1524 2.214 . S
Co1476 O1477 2.160 . S
Co1476 O1482 2.058 . S
Co1476 O1492 2.057 . S
Co1476 O1507 2.037 . S
Co1476 N1511 2.145 . S
Co1476 N1532 2.257 . S
O1477 Co1475 2.143 . S
O1477 Co1476 2.160 . S
C1478 O1479 1.274 1_554 S
C1478 O1486 1.206 1_554 S
O1479 C1478 1.274 1_556 S
C1480 O1481 1.245 . S
C1480 O1492 1.232 . S
O1481 C1480 1.245 . S
O1482 Co1476 2.058 . S
O1482 C1508 1.269 . S
O1483 Co1475 2.074 . S
O1483 C1508 1.257 . S
H1484 C1509 0.930 . S
H1485 C1515 0.930 . S
O1486 Co1475 2.093 . S
O1486 C1478 1.206 1_556 S
H1487 C1519 0.929 . S
H1488 C1521 0.930 . S
H1489 C1522 0.930 . S
H1490 C1520 0.929 . S
H1491 C1523 0.928 . S
O1492 Co1476 2.057 . S
O1492 C1480 1.232 . S
H1493 C1512 0.929 . S
H1494 C1513 0.929 . S
H1495 C1525 0.931 . S
H1496 C1517 0.929 . S
H1497 C1526 0.930 . S
H1498 C1518 0.931 . S
O1499 Co1475 2.097 . S
O1499 C1527 1.214 . S
H1500 C1528 0.929 1_554 S
H1501 C1529 0.929 . S
H1502 C1530 0.930 . S
H1503 C1531 0.929 1_554 S
H1504 C1533 0.930 . S
H1505 C1510 0.930 . S
H1506 C1514 0.930 . S
O1507 Co1476 2.037 . S
O1507 C1527 1.234 . S
C1508 O1482 1.269 . S
C1508 O1483 1.257 . S
C1509 H1484 0.930 . S
C1509 C1512 1.388 . S
C1509 C1514 1.418 . S
C1510 H1505 0.930 . S
C1510 C1513 1.404 . S
C1510 C1514 1.353 . S
N1511 Co1476 2.145 . S
N1511 C1512 1.397 . S
N1511 C1513 1.334 . S
C1512 H1493 0.929 . S
C1512 C1509 1.388 . S
C1512 N1511 1.397 . S
C1513 H1494 0.929 . S
C1513 C1510 1.404 . S
C1513 N1511 1.334 . S
C1514 H1506 0.930 . S
C1514 C1509 1.418 . S
C1514 C1510 1.353 . S
C1515 H1485 0.930 . S
C1515 N1516 1.330 . S
C1515 C1517 1.446 . S
N1516 Co1475 2.151 . S
N1516 C1515 1.330 . S
N1516 C1520 1.418 . S
C1517 H1496 0.929 . S
C1517 C1515 1.446 . S
C1517 C1518 1.332 . S
C1518 H1498 0.931 . S
C1518 C1517 1.332 . S
C1518 C1519 1.267 . S
C1519 H1487 0.929 . S
C1519 C1518 1.267 . S
C1519 C1520 1.251 . S
C1520 H1490 0.929 . S
C1520 N1516 1.418 . S
C1520 C1519 1.251 . S
C1521 H1488 0.930 . S
C1521 C1523 1.406 . S
C1521 C1526 1.261 . S
C1522 H1489 0.930 . S
C1522 N1524 1.325 . S
C1522 C1525 1.357 . S
C1523 H1491 0.928 . S
C1523 C1521 1.406 . S
C1523 N1524 1.261 . S
N1524 Co1475 2.214 . S
N1524 C1522 1.325 . S
N1524 C1523 1.261 . S
C1525 H1495 0.931 . S
C1525 C1522 1.357 . S
C1525 C1526 1.312 . S
C1526 H1497 0.930 . S
C1526 C1521 1.261 . S
C1526 C1525 1.312 . S
C1527 O1499 1.214 . S
C1527 O1507 1.234 . S
C1528 H1500 0.929 1_556 S
C1528 C1531 1.391 . S
C1528 C1533 1.391 . S
C1529 H1501 0.929 . S
C1529 C1530 1.390 . S
C1529 N1532 1.391 . S
C1530 H1502 0.930 . S
C1530 C1529 1.390 . S
C1530 C1531 1.392 . S
C1531 H1503 0.929 1_556 S
C1531 C1528 1.391 . S
C1531 C1530 1.392 . S
N1532 Co1476 2.257 . S
N1532 C1529 1.391 . S
N1532 C1533 1.388 . S
C1533 H1504 0.930 . S
C1533 C1528 1.391 . S
C1533 N1532 1.388 . S
Co1534 O1536 2.143 . S
Co1534 O1542 2.074 . S
Co1534 O1545 2.093 . S
Co1534 O1558 2.097 . S
Co1534 N1575 2.151 . S
Co1534 N1583 2.214 . S
Co1535 O1536 2.160 . S
Co1535 O1541 2.058 . S
Co1535 O1551 2.057 . S
Co1535 O1566 2.037 . S
Co1535 N1570 2.145 . S
Co1535 N1591 2.257 . S
O1536 Co1534 2.143 . S
O1536 Co1535 2.160 . S
C1537 O1538 1.278 1_554 S
C1537 O1545 1.224 1_554 S
O1538 C1537 1.278 1_556 S
C1539 O1540 1.245 . S
C1539 O1551 1.232 . S
O1540 C1539 1.245 . S
O1541 Co1535 2.058 . S
O1541 C1567 1.269 . S
O1542 Co1534 2.074 . S
O1542 C1567 1.257 . S
H1543 C1568 0.930 . S
H1544 C1574 0.930 . S
O1545 Co1534 2.093 . S
O1545 C1537 1.224 1_556 S
H1546 C1578 0.929 . S
H1547 C1580 0.930 . S
H1548 C1581 0.930 . S
H1549 C1579 0.929 . S
H1550 C1582 0.928 . S
O1551 Co1535 2.057 . S
O1551 C1539 1.232 . S
H1552 C1571 0.929 . S
H1553 C1572 0.929 . S
H1554 C1584 0.931 . S
H1555 C1576 0.929 . S
H1556 C1585 0.930 . S
H1557 C1577 0.931 . S
O1558 Co1534 2.097 . S
O1558 C1586 1.214 . S
H1559 C1587 0.929 1_554 S
H1560 C1588 0.929 . S
H1561 C1589 0.930 . S
H1562 C1590 0.929 1_554 S
H1563 C1592 0.930 . S
H1564 C1569 0.930 . S
H1565 C1573 0.930 . S
O1566 Co1535 2.037 . S
O1566 C1586 1.234 . S
C1567 O1541 1.269 . S
C1567 O1542 1.257 . S
C1568 H1543 0.930 . S
C1568 C1571 1.388 . S
C1568 C1573 1.418 . S
C1569 H1564 0.930 . S
C1569 C1572 1.404 . S
C1569 C1573 1.353 . S
N1570 Co1535 2.145 . S
N1570 C1571 1.397 . S
N1570 C1572 1.334 . S
C1571 H1552 0.929 . S
C1571 C1568 1.388 . S
C1571 N1570 1.397 . S
C1572 H1553 0.929 . S
C1572 C1569 1.404 . S
C1572 N1570 1.334 . S
C1573 H1565 0.930 . S
C1573 C1568 1.418 . S
C1573 C1569 1.353 . S
C1574 H1544 0.930 . S
C1574 N1575 1.330 . S
C1574 C1576 1.446 . S
N1575 Co1534 2.151 . S
N1575 C1574 1.330 . S
N1575 C1579 1.418 . S
C1576 H1555 0.929 . S
C1576 C1574 1.446 . S
C1576 C1577 1.332 . S
C1577 H1557 0.931 . S
C1577 C1576 1.332 . S
C1577 C1578 1.267 . S
C1578 H1546 0.929 . S
C1578 C1577 1.267 . S
C1578 C1579 1.251 . S
C1579 H1549 0.929 . S
C1579 N1575 1.418 . S
C1579 C1578 1.251 . S
C1580 H1547 0.930 . S
C1580 C1582 1.406 . S
C1580 C1585 1.261 . S
C1581 H1548 0.930 . S
C1581 N1583 1.325 . S
C1581 C1584 1.357 . S
C1582 H1550 0.928 . S
C1582 C1580 1.406 . S
C1582 N1583 1.261 . S
N1583 Co1534 2.214 . S
N1583 C1581 1.325 . S
N1583 C1582 1.261 . S
C1584 H1554 0.931 . S
C1584 C1581 1.357 . S
C1584 C1585 1.312 . S
C1585 H1556 0.930 . S
C1585 C1580 1.261 . S
C1585 C1584 1.312 . S
C1586 O1558 1.214 . S
C1586 O1566 1.234 . S
C1587 H1559 0.929 1_556 S
C1587 C1590 1.391 . S
C1587 C1592 1.391 . S
C1588 H1560 0.929 . S
C1588 C1589 1.390 . S
C1588 N1591 1.391 . S
C1589 H1561 0.930 . S
C1589 C1588 1.390 . S
C1589 C1590 1.392 . S
C1590 H1562 0.929 1_556 S
C1590 C1587 1.391 . S
C1590 C1589 1.392 . S
N1591 Co1535 2.257 . S
N1591 C1588 1.391 . S
N1591 C1592 1.388 . S
C1592 H1563 0.930 . S
C1592 C1587 1.391 . S
C1592 N1591 1.388 . S
Co1593 O1595 2.143 . S
Co1593 O1601 2.074 . S
Co1593 O1604 2.093 . S
Co1593 O1617 2.097 . S
Co1593 N1634 2.151 . S
Co1593 N1642 2.214 . S
Co1594 O1595 2.160 . S
Co1594 O1600 2.058 1_556 S
Co1594 O1610 2.057 . S
Co1594 O1625 2.037 . S
Co1594 N1629 2.145 1_556 S
Co1594 N1650 2.257 . S
O1595 Co1593 2.143 . S
O1595 Co1594 2.160 . S
C1596 O1597 1.278 . S
C1596 O1604 1.224 . S
O1597 C1596 1.278 . S
C1598 O1599 1.245 . S
C1598 O1610 1.232 . S
O1599 C1598 1.245 . S
O1600 Co1594 2.058 1_554 S
O1600 C1626 1.269 . S
O1601 Co1593 2.074 . S
O1601 C1626 1.257 1_556 S
H1602 C1627 0.930 . S
H1603 C1633 0.930 . S
O1604 Co1593 2.093 . S
O1604 C1596 1.224 . S
H1605 C1637 0.929 . S
H1606 C1639 0.930 . S
H1607 C1640 0.930 . S
H1608 C1638 0.929 . S
H1609 C1641 0.928 . S
O1610 Co1594 2.057 . S
O1610 C1598 1.232 . S
H1611 C1630 0.929 . S
H1612 C1631 0.929 1_556 S
H1613 C1643 0.931 1_554 S
H1614 C1635 0.929 . S
H1615 C1644 0.930 . S
H1616 C1636 0.931 . S
O1617 Co1593 2.097 . S
O1617 C1645 1.214 . S
H1618 C1646 0.929 . S
H1619 C1647 0.929 . S
H1620 C1648 0.930 . S
H1621 C1649 0.929 . S
H1622 C1651 0.930 . S
H1623 C1628 0.930 . S
H1624 C1632 0.930 . S
O1625 Co1594 2.037 . S
O1625 C1645 1.234 . S
C1626 O1600 1.269 . S
C1626 O1601 1.257 1_554 S
C1627 H1602 0.930 . S
C1627 C1630 1.388 . S
C1627 C1632 1.418 . S
C1628 H1623 0.930 . S
C1628 C1631 1.404 . S
C1628 C1632 1.353 . S
N1629 Co1594 2.145 1_554 S
N1629 C1630 1.397 . S
N1629 C1631 1.334 . S
C1630 H1611 0.929 . S
C1630 C1627 1.388 . S
C1630 N1629 1.397 . S
C1631 H1612 0.929 1_554 S
C1631 C1628 1.404 . S
C1631 N1629 1.334 . S
C1632 H1624 0.930 . S
C1632 C1627 1.418 . S
C1632 C1628 1.353 . S
C1633 H1603 0.930 . S
C1633 N1634 1.330 . S
C1633 C1635 1.446 . S
N1634 Co1593 2.151 . S
N1634 C1633 1.330 . S
N1634 C1638 1.418 . S
C1635 H1614 0.929 . S
C1635 C1633 1.446 . S
C1635 C1636 1.332 . S
C1636 H1616 0.931 . S
C1636 C1635 1.332 . S
C1636 C1637 1.267 . S
C1637 H1605 0.929 . S
C1637 C1636 1.267 . S
C1637 C1638 1.251 . S
C1638 H1608 0.929 . S
C1638 N1634 1.418 . S
C1638 C1637 1.251 . S
C1639 H1606 0.930 . S
C1639 C1641 1.406 . S
C1639 C1644 1.261 . S
C1640 H1607 0.930 . S
C1640 N1642 1.325 . S
C1640 C1643 1.357 . S
C1641 H1609 0.928 . S
C1641 C1639 1.406 . S
C1641 N1642 1.261 . S
N1642 Co1593 2.214 . S
N1642 C1640 1.325 . S
N1642 C1641 1.261 . S
C1643 H1613 0.931 1_556 S
C1643 C1640 1.357 . S
C1643 C1644 1.312 . S
C1644 H1615 0.930 . S
C1644 C1639 1.261 . S
C1644 C1643 1.312 . S
C1645 O1617 1.214 . S
C1645 O1625 1.234 . S
C1646 H1618 0.929 . S
C1646 C1649 1.391 . S
C1646 C1651 1.391 . S
C1647 H1619 0.929 . S
C1647 C1648 1.390 . S
C1647 N1650 1.391 . S
C1648 H1620 0.930 . S
C1648 C1647 1.390 . S
C1648 C1649 1.392 . S
C1649 H1621 0.929 . S
C1649 C1646 1.391 . S
C1649 C1648 1.392 . S
N1650 Co1594 2.257 . S
N1650 C1647 1.391 . S
N1650 C1651 1.388 . S
C1651 H1622 0.930 . S
C1651 C1646 1.391 . S
C1651 N1650 1.388 . S
Co1652 O1654 2.143 . S
Co1652 O1660 2.074 . S
Co1652 O1663 2.093 . S
Co1652 O1676 2.097 . S
Co1652 N1693 2.151 . S
Co1652 N1701 2.214 . S
Co1653 O1654 2.160 . S
Co1653 O1659 2.058 1_556 S
Co1653 O1669 2.057 . S
Co1653 O1684 2.037 . S
Co1653 N1688 2.145 1_556 S
Co1653 N1709 2.257 . S
O1654 Co1652 2.143 . S
O1654 Co1653 2.160 . S
C1655 O1656 1.278 . S
C1655 O1663 1.224 . S
O1656 C1655 1.278 . S
C1657 O1658 1.245 . S
C1657 O1669 1.232 . S
O1658 C1657 1.245 . S
O1659 Co1653 2.058 1_554 S
O1659 C1685 1.269 . S
O1660 Co1652 2.074 . S
O1660 C1685 1.257 1_556 S
H1661 C1686 0.930 . S
H1662 C1692 0.930 . S
O1663 Co1652 2.093 . S
O1663 C1655 1.224 . S
H1664 C1696 0.929 . S
H1665 C1698 0.930 . S
H1666 C1699 0.930 . S
H1667 C1697 0.929 . S
H1668 C1700 0.928 . S
O1669 Co1653 2.057 . S
O1669 C1657 1.232 . S
H1670 C1689 0.929 . S
H1671 C1690 0.929 1_556 S
H1672 C1702 0.931 1_554 S
H1673 C1694 0.929 . S
H1674 C1703 0.930 . S
H1675 C1695 0.931 . S
O1676 Co1652 2.097 . S
O1676 C1704 1.214 . S
H1677 C1705 0.929 . S
H1678 C1706 0.929 . S
H1679 C1707 0.930 . S
H1680 C1708 0.929 . S
H1681 C1710 0.930 . S
H1682 C1687 0.930 . S
H1683 C1691 0.930 . S
O1684 Co1653 2.037 . S
O1684 C1704 1.234 . S
C1685 O1659 1.269 . S
C1685 O1660 1.257 1_554 S
C1686 H1661 0.930 . S
C1686 C1689 1.388 . S
C1686 C1691 1.418 . S
C1687 H1682 0.930 . S
C1687 C1690 1.404 . S
C1687 C1691 1.353 . S
N1688 Co1653 2.145 1_554 S
N1688 C1689 1.397 . S
N1688 C1690 1.334 . S
C1689 H1670 0.929 . S
C1689 C1686 1.388 . S
C1689 N1688 1.397 . S
C1690 H1671 0.929 1_554 S
C1690 C1687 1.404 . S
C1690 N1688 1.334 . S
C1691 H1683 0.930 . S
C1691 C1686 1.418 . S
C1691 C1687 1.353 . S
C1692 H1662 0.930 . S
C1692 N1693 1.330 . S
C1692 C1694 1.446 . S
N1693 Co1652 2.151 . S
N1693 C1692 1.330 . S
N1693 C1697 1.418 . S
C1694 H1673 0.929 . S
C1694 C1692 1.446 . S
C1694 C1695 1.332 . S
C1695 H1675 0.931 . S
C1695 C1694 1.332 . S
C1695 C1696 1.267 . S
C1696 H1664 0.929 . S
C1696 C1695 1.267 . S
C1696 C1697 1.251 . S
C1697 H1667 0.929 . S
C1697 N1693 1.418 . S
C1697 C1696 1.251 . S
C1698 H1665 0.930 . S
C1698 C1700 1.406 . S
C1698 C1703 1.261 . S
C1699 H1666 0.930 . S
C1699 N1701 1.325 . S
C1699 C1702 1.357 . S
C1700 H1668 0.928 . S
C1700 C1698 1.406 . S
C1700 N1701 1.261 . S
N1701 Co1652 2.214 . S
N1701 C1699 1.325 . S
N1701 C1700 1.261 . S
C1702 H1672 0.931 1_556 S
C1702 C1699 1.357 . S
C1702 C1703 1.312 . S
C1703 H1674 0.930 . S
C1703 C1698 1.261 . S
C1703 C1702 1.312 . S
C1704 O1676 1.214 . S
C1704 O1684 1.234 . S
C1705 H1677 0.929 . S
C1705 C1708 1.391 . S
C1705 C1710 1.391 . S
C1706 H1678 0.929 . S
C1706 C1707 1.390 . S
C1706 N1709 1.391 . S
C1707 H1679 0.930 . S
C1707 C1706 1.390 . S
C1707 C1708 1.392 . S
C1708 H1680 0.929 . S
C1708 C1705 1.391 . S
C1708 C1707 1.392 . S
N1709 Co1653 2.257 . S
N1709 C1706 1.391 . S
N1709 C1710 1.388 . S
C1710 H1681 0.930 . S
C1710 C1705 1.391 . S
C1710 N1709 1.388 . S
Co1711 O1713 2.143 . S
Co1711 O1719 2.074 . S
Co1711 O1722 2.093 . S
Co1711 O1735 2.097 . S
Co1711 N1752 2.151 . S
Co1711 N1760 2.214 . S
Co1712 O1713 2.160 . S
Co1712 O1718 2.058 1_556 S
Co1712 O1728 2.057 . S
Co1712 O1743 2.037 . S
Co1712 N1747 2.145 1_556 S
Co1712 N1768 2.257 . S
O1713 Co1711 2.143 . S
O1713 Co1712 2.160 . S
C1714 O1715 1.278 . S
C1714 O1722 1.224 . S
O1715 C1714 1.278 . S
C1716 O1717 1.245 . S
C1716 O1728 1.232 . S
O1717 C1716 1.245 . S
O1718 Co1712 2.058 1_554 S
O1718 C1744 1.269 . S
O1719 Co1711 2.074 . S
O1719 C1744 1.257 1_556 S
H1720 C1745 0.930 . S
H1721 C1751 0.930 . S
O1722 Co1711 2.093 . S
O1722 C1714 1.224 . S
H1723 C1755 0.929 . S
H1724 C1757 0.930 . S
H1725 C1758 0.930 . S
H1726 C1756 0.929 . S
H1727 C1759 0.928 . S
O1728 Co1712 2.057 . S
O1728 C1716 1.232 . S
H1729 C1748 0.929 . S
H1730 C1749 0.929 1_556 S
H1731 C1761 0.931 1_554 S
H1732 C1753 0.929 . S
H1733 C1762 0.930 . S
H1734 C1754 0.931 . S
O1735 Co1711 2.097 . S
O1735 C1763 1.214 . S
H1736 C1764 0.929 . S
H1737 C1765 0.929 . S
H1738 C1766 0.930 . S
H1739 C1767 0.929 . S
H1740 C1769 0.930 . S
H1741 C1746 0.930 . S
H1742 C1750 0.930 . S
O1743 Co1712 2.037 . S
O1743 C1763 1.234 . S
C1744 O1718 1.269 . S
C1744 O1719 1.257 1_554 S
C1745 H1720 0.930 . S
C1745 C1748 1.388 . S
C1745 C1750 1.418 . S
C1746 H1741 0.930 . S
C1746 C1749 1.404 . S
C1746 C1750 1.353 . S
N1747 Co1712 2.145 1_554 S
N1747 C1748 1.397 . S
N1747 C1749 1.334 . S
C1748 H1729 0.929 . S
C1748 C1745 1.388 . S
C1748 N1747 1.397 . S
C1749 H1730 0.929 1_554 S
C1749 C1746 1.404 . S
C1749 N1747 1.334 . S
C1750 H1742 0.930 . S
C1750 C1745 1.418 . S
C1750 C1746 1.353 . S
C1751 H1721 0.930 . S
C1751 N1752 1.330 . S
C1751 C1753 1.446 . S
N1752 Co1711 2.151 . S
N1752 C1751 1.330 . S
N1752 C1756 1.418 . S
C1753 H1732 0.929 . S
C1753 C1751 1.446 . S
C1753 C1754 1.332 . S
C1754 H1734 0.931 . S
C1754 C1753 1.332 . S
C1754 C1755 1.267 . S
C1755 H1723 0.929 . S
C1755 C1754 1.267 . S
C1755 C1756 1.251 . S
C1756 H1726 0.929 . S
C1756 N1752 1.418 . S
C1756 C1755 1.251 . S
C1757 H1724 0.930 . S
C1757 C1759 1.406 . S
C1757 C1762 1.261 . S
C1758 H1725 0.930 . S
C1758 N1760 1.325 . S
C1758 C1761 1.357 . S
C1759 H1727 0.928 . S
C1759 C1757 1.406 . S
C1759 N1760 1.261 . S
N1760 Co1711 2.214 . S
N1760 C1758 1.325 . S
N1760 C1759 1.261 . S
C1761 H1731 0.931 1_556 S
C1761 C1758 1.357 . S
C1761 C1762 1.312 . S
C1762 H1733 0.930 . S
C1762 C1757 1.261 . S
C1762 C1761 1.312 . S
C1763 O1735 1.214 . S
C1763 O1743 1.234 . S
C1764 H1736 0.929 . S
C1764 C1767 1.391 . S
C1764 C1769 1.391 . S
C1765 H1737 0.929 . S
C1765 C1766 1.390 . S
C1765 N1768 1.391 . S
C1766 H1738 0.930 . S
C1766 C1765 1.390 . S
C1766 C1767 1.392 . S
C1767 H1739 0.929 . S
C1767 C1764 1.391 . S
C1767 C1766 1.392 . S
N1768 Co1712 2.257 . S
N1768 C1765 1.391 . S
N1768 C1769 1.388 . S
C1769 H1740 0.930 . S
C1769 C1764 1.391 . S
C1769 N1768 1.388 . S
Co1770 O1772 2.143 . S
Co1770 O1778 2.074 . S
Co1770 O1781 2.093 . S
Co1770 O1794 2.097 . S
Co1770 N1811 2.151 . S
Co1770 N1819 2.214 . S
Co1771 O1772 2.160 . S
Co1771 O1777 2.058 . S
Co1771 O1787 2.057 . S
Co1771 O1802 2.037 . S
Co1771 N1806 2.145 . S
Co1771 N1827 2.257 . S
O1772 Co1770 2.143 . S
O1772 Co1771 2.160 . S
C1773 O1774 1.278 . S
C1773 O1781 1.224 . S
O1774 C1773 1.278 . S
C1775 O1776 1.245 . S
C1775 O1787 1.232 . S
O1776 C1775 1.245 . S
O1777 Co1771 2.058 . S
O1777 C1803 1.269 . S
O1778 Co1770 2.074 . S
O1778 C1803 1.257 . S
H1779 C1804 0.930 . S
H1780 C1810 0.930 . S
O1781 Co1770 2.093 . S
O1781 C1773 1.224 . S
H1782 C1814 0.929 . S
H1783 C1816 0.930 . S
H1784 C1817 0.930 . S
H1785 C1815 0.929 . S
H1786 C1818 0.928 . S
O1787 Co1771 2.057 . S
O1787 C1775 1.232 . S
H1788 C1807 0.929 . S
H1789 C1808 0.929 . S
H1790 C1820 0.931 . S
H1791 C1812 0.929 . S
H1792 C1821 0.930 . S
H1793 C1813 0.931 . S
O1794 Co1770 2.097 . S
O1794 C1822 1.214 . S
H1795 C1823 0.929 . S
H1796 C1824 0.929 . S
H1797 C1825 0.930 . S
H1798 C1826 0.929 . S
H1799 C1828 0.930 . S
H1800 C1805 0.930 . S
H1801 C1809 0.930 . S
O1802 Co1771 2.037 . S
O1802 C1822 1.234 . S
C1803 O1777 1.269 . S
C1803 O1778 1.257 . S
C1804 H1779 0.930 . S
C1804 C1807 1.388 . S
C1804 C1809 1.418 . S
C1805 H1800 0.930 . S
C1805 C1808 1.404 . S
C1805 C1809 1.353 . S
N1806 Co1771 2.145 . S
N1806 C1807 1.397 . S
N1806 C1808 1.334 . S
C1807 H1788 0.929 . S
C1807 C1804 1.388 . S
C1807 N1806 1.397 . S
C1808 H1789 0.929 . S
C1808 C1805 1.404 . S
C1808 N1806 1.334 . S
C1809 H1801 0.930 . S
C1809 C1804 1.418 . S
C1809 C1805 1.353 . S
C1810 H1780 0.930 . S
C1810 N1811 1.330 . S
C1810 C1812 1.446 . S
N1811 Co1770 2.151 . S
N1811 C1810 1.330 . S
N1811 C1815 1.418 . S
C1812 H1791 0.929 . S
C1812 C1810 1.446 . S
C1812 C1813 1.332 . S
C1813 H1793 0.931 . S
C1813 C1812 1.332 . S
C1813 C1814 1.267 . S
C1814 H1782 0.929 . S
C1814 C1813 1.267 . S
C1814 C1815 1.251 . S
C1815 H1785 0.929 . S
C1815 N1811 1.418 . S
C1815 C1814 1.251 . S
C1816 H1783 0.930 . S
C1816 C1818 1.406 . S
C1816 C1821 1.261 . S
C1817 H1784 0.930 . S
C1817 N1819 1.325 . S
C1817 C1820 1.357 . S
C1818 H1786 0.928 . S
C1818 C1816 1.406 . S
C1818 N1819 1.261 . S
N1819 Co1770 2.214 . S
N1819 C1817 1.325 . S
N1819 C1818 1.261 . S
C1820 H1790 0.931 . S
C1820 C1817 1.357 . S
C1820 C1821 1.312 . S
C1821 H1792 0.930 . S
C1821 C1816 1.261 . S
C1821 C1820 1.312 . S
C1822 O1794 1.214 . S
C1822 O1802 1.234 . S
C1823 H1795 0.929 . S
C1823 C1826 1.391 . S
C1823 C1828 1.391 . S
C1824 H1796 0.929 . S
C1824 C1825 1.390 . S
C1824 N1827 1.391 . S
C1825 H1797 0.930 . S
C1825 C1824 1.390 . S
C1825 C1826 1.392 . S
C1826 H1798 0.929 . S
C1826 C1823 1.391 . S
C1826 C1825 1.392 . S
N1827 Co1771 2.257 . S
N1827 C1824 1.391 . S
N1827 C1828 1.388 . S
C1828 H1799 0.930 . S
C1828 C1823 1.391 . S
C1828 N1827 1.388 . S
Co1829 O1831 2.143 . S
Co1829 O1837 2.074 . S
Co1829 O1840 2.093 . S
Co1829 O1853 2.097 . S
Co1829 N1870 2.151 . S
Co1829 N1878 2.214 . S
Co1830 O1831 2.160 . S
Co1830 O1836 2.058 . S
Co1830 O1846 2.057 . S
Co1830 O1861 2.037 . S
Co1830 N1865 2.145 . S
Co1830 N1886 2.257 . S
O1831 Co1829 2.143 . S
O1831 Co1830 2.160 . S
C1832 O1833 1.278 . S
C1832 O1840 1.224 . S
O1833 C1832 1.278 . S
C1834 O1835 1.245 . S
C1834 O1846 1.232 . S
O1835 C1834 1.245 . S
O1836 Co1830 2.058 . S
O1836 C1862 1.269 . S
O1837 Co1829 2.074 . S
O1837 C1862 1.257 . S
H1838 C1863 0.930 . S
H1839 C1869 0.930 . S
O1840 Co1829 2.093 . S
O1840 C1832 1.224 . S
H1841 C1873 0.929 . S
H1842 C1875 0.930 . S
H1843 C1876 0.930 . S
H1844 C1874 0.929 . S
H1845 C1877 0.928 . S
O1846 Co1830 2.057 . S
O1846 C1834 1.232 . S
H1847 C1866 0.929 . S
H1848 C1867 0.929 . S
H1849 C1879 0.931 . S
H1850 C1871 0.929 . S
H1851 C1880 0.930 . S
H1852 C1872 0.931 . S
O1853 Co1829 2.097 . S
O1853 C1881 1.214 . S
H1854 C1882 0.929 . S
H1855 C1883 0.929 . S
H1856 C1884 0.930 . S
H1857 C1885 0.929 . S
H1858 C1887 0.930 . S
H1859 C1864 0.930 . S
H1860 C1868 0.930 . S
O1861 Co1830 2.037 . S
O1861 C1881 1.234 . S
C1862 O1836 1.269 . S
C1862 O1837 1.257 . S
C1863 H1838 0.930 . S
C1863 C1866 1.388 . S
C1863 C1868 1.418 . S
C1864 H1859 0.930 . S
C1864 C1867 1.404 . S
C1864 C1868 1.353 . S
N1865 Co1830 2.145 . S
N1865 C1866 1.397 . S
N1865 C1867 1.334 . S
C1866 H1847 0.929 . S
C1866 C1863 1.388 . S
C1866 N1865 1.397 . S
C1867 H1848 0.929 . S
C1867 C1864 1.404 . S
C1867 N1865 1.334 . S
C1868 H1860 0.930 . S
C1868 C1863 1.418 . S
C1868 C1864 1.353 . S
C1869 H1839 0.930 . S
C1869 N1870 1.330 . S
C1869 C1871 1.446 . S
N1870 Co1829 2.151 . S
N1870 C1869 1.330 . S
N1870 C1874 1.418 . S
C1871 H1850 0.929 . S
C1871 C1869 1.446 . S
C1871 C1872 1.332 . S
C1872 H1852 0.931 . S
C1872 C1871 1.332 . S
C1872 C1873 1.267 . S
C1873 H1841 0.929 . S
C1873 C1872 1.267 . S
C1873 C1874 1.251 . S
C1874 H1844 0.929 . S
C1874 N1870 1.418 . S
C1874 C1873 1.251 . S
C1875 H1842 0.930 . S
C1875 C1877 1.406 . S
C1875 C1880 1.261 . S
C1876 H1843 0.930 . S
C1876 N1878 1.325 . S
C1876 C1879 1.357 . S
C1877 H1845 0.928 . S
C1877 C1875 1.406 . S
C1877 N1878 1.261 . S
N1878 Co1829 2.214 . S
N1878 C1876 1.325 . S
N1878 C1877 1.261 . S
C1879 H1849 0.931 . S
C1879 C1876 1.357 . S
C1879 C1880 1.312 . S
C1880 H1851 0.930 . S
C1880 C1875 1.261 . S
C1880 C1879 1.312 . S
C1881 O1853 1.214 . S
C1881 O1861 1.234 . S
C1882 H1854 0.929 . S
C1882 C1885 1.391 . S
C1882 C1887 1.391 . S
C1883 H1855 0.929 . S
C1883 C1884 1.390 . S
C1883 N1886 1.391 . S
C1884 H1856 0.930 . S
C1884 C1883 1.390 . S
C1884 C1885 1.392 . S
C1885 H1857 0.929 . S
C1885 C1882 1.391 . S
C1885 C1884 1.392 . S
N1886 Co1830 2.257 . S
N1886 C1883 1.391 . S
N1886 C1887 1.388 . S
C1887 H1858 0.930 . S
C1887 C1882 1.391 . S
C1887 N1886 1.388 . S
Co1888 O1890 2.143 . S
Co1888 O1896 2.074 . S
Co1888 O1899 2.093 . S
Co1888 O1912 2.097 . S
Co1888 N1929 2.151 . S
Co1888 N1937 2.214 . S
Co1889 O1890 2.160 . S
Co1889 O1895 2.058 . S
Co1889 O1905 2.057 . S
Co1889 O1920 2.037 . S
Co1889 N1924 2.145 . S
Co1889 N1945 2.257 . S
O1890 Co1888 2.143 . S
O1890 Co1889 2.160 . S
C1891 O1892 1.278 . S
C1891 O1899 1.224 . S
O1892 C1891 1.278 . S
C1893 O1894 1.245 . S
C1893 O1905 1.232 . S
O1894 C1893 1.245 . S
O1895 Co1889 2.058 . S
O1895 C1921 1.269 . S
O1896 Co1888 2.074 . S
O1896 C1921 1.257 . S
H1897 C1922 0.930 . S
H1898 C1928 0.930 . S
O1899 Co1888 2.093 . S
O1899 C1891 1.224 . S
H1900 C1932 0.929 . S
H1901 C1934 0.930 . S
H1902 C1935 0.930 . S
H1903 C1933 0.929 . S
H1904 C1936 0.928 . S
O1905 Co1889 2.057 . S
O1905 C1893 1.232 . S
H1906 C1925 0.929 . S
H1907 C1926 0.929 . S
H1908 C1938 0.931 . S
H1909 C1930 0.929 . S
H1910 C1939 0.930 . S
H1911 C1931 0.931 . S
O1912 Co1888 2.097 . S
O1912 C1940 1.214 . S
H1913 C1941 0.929 . S
H1914 C1942 0.929 . S
H1915 C1943 0.930 . S
H1916 C1944 0.929 . S
H1917 C1946 0.930 . S
H1918 C1923 0.930 . S
H1919 C1927 0.930 . S
O1920 Co1889 2.037 . S
O1920 C1940 1.234 . S
C1921 O1895 1.269 . S
C1921 O1896 1.257 . S
C1922 H1897 0.930 . S
C1922 C1925 1.388 . S
C1922 C1927 1.418 . S
C1923 H1918 0.930 . S
C1923 C1926 1.404 . S
C1923 C1927 1.353 . S
N1924 Co1889 2.145 . S
N1924 C1925 1.397 . S
N1924 C1926 1.334 . S
C1925 H1906 0.929 . S
C1925 C1922 1.388 . S
C1925 N1924 1.397 . S
C1926 H1907 0.929 . S
C1926 C1923 1.404 . S
C1926 N1924 1.334 . S
C1927 H1919 0.930 . S
C1927 C1922 1.418 . S
C1927 C1923 1.353 . S
C1928 H1898 0.930 . S
C1928 N1929 1.330 . S
C1928 C1930 1.446 . S
N1929 Co1888 2.151 . S
N1929 C1928 1.330 . S
N1929 C1933 1.418 . S
C1930 H1909 0.929 . S
C1930 C1928 1.446 . S
C1930 C1931 1.332 . S
C1931 H1911 0.931 . S
C1931 C1930 1.332 . S
C1931 C1932 1.267 . S
C1932 H1900 0.929 . S
C1932 C1931 1.267 . S
C1932 C1933 1.251 . S
C1933 H1903 0.929 . S
C1933 N1929 1.418 . S
C1933 C1932 1.251 . S
C1934 H1901 0.930 . S
C1934 C1936 1.406 . S
C1934 C1939 1.261 . S
C1935 H1902 0.930 . S
C1935 N1937 1.325 . S
C1935 C1938 1.357 . S
C1936 H1904 0.928 . S
C1936 C1934 1.406 . S
C1936 N1937 1.261 . S
N1937 Co1888 2.214 . S
N1937 C1935 1.325 . S
N1937 C1936 1.261 . S
C1938 H1908 0.931 . S
C1938 C1935 1.357 . S
C1938 C1939 1.312 . S
C1939 H1910 0.930 . S
C1939 C1934 1.261 . S
C1939 C1938 1.312 . S
C1940 O1912 1.214 . S
C1940 O1920 1.234 . S
C1941 H1913 0.929 . S
C1941 C1944 1.391 . S
C1941 C1946 1.391 . S
C1942 H1914 0.929 . S
C1942 C1943 1.390 . S
C1942 N1945 1.391 . S
C1943 H1915 0.930 . S
C1943 C1942 1.390 . S
C1943 C1944 1.392 . S
C1944 H1916 0.929 . S
C1944 C1941 1.391 . S
C1944 C1943 1.392 . S
N1945 Co1889 2.257 . S
N1945 C1942 1.391 . S
N1945 C1946 1.388 . S
C1946 H1917 0.930 . S
C1946 C1941 1.391 . S
C1946 N1945 1.388 . S
Co1947 O1949 2.143 . S
Co1947 O1955 2.074 . S
Co1947 O1958 2.093 . S
Co1947 O1971 2.097 . S
Co1947 N1988 2.151 . S
Co1947 N1996 2.214 . S
Co1948 O1949 2.160 . S
Co1948 O1954 2.058 . S
Co1948 O1964 2.057 . S
Co1948 O1979 2.037 . S
Co1948 N1983 2.145 . S
Co1948 N2004 2.257 . S
O1949 Co1947 2.143 . S
O1949 Co1948 2.160 . S
C1950 O1951 1.278 . S
C1950 O1958 1.224 . S
O1951 C1950 1.278 . S
C1952 O1953 1.245 . S
C1952 O1964 1.232 . S
O1953 C1952 1.245 . S
O1954 Co1948 2.058 . S
O1954 C1980 1.269 . S
O1955 Co1947 2.074 . S
O1955 C1980 1.257 . S
H1956 C1981 0.930 . S
H1957 C1987 0.930 . S
O1958 Co1947 2.093 . S
O1958 C1950 1.224 . S
H1959 C1991 0.929 . S
H1960 C1993 0.930 . S
H1961 C1994 0.930 . S
H1962 C1992 0.929 . S
H1963 C1995 0.928 . S
O1964 Co1948 2.057 . S
O1964 C1952 1.232 . S
H1965 C1984 0.929 . S
H1966 C1985 0.929 . S
H1967 C1997 0.931 . S
H1968 C1989 0.929 . S
H1969 C1998 0.930 . S
H1970 C1990 0.931 . S
O1971 Co1947 2.097 . S
O1971 C1999 1.214 . S
H1972 C2000 0.929 . S
H1973 C2001 0.929 . S
H1974 C2002 0.930 . S
H1975 C2003 0.929 . S
H1976 C2005 0.930 . S
H1977 C1982 0.930 . S
H1978 C1986 0.930 . S
O1979 Co1948 2.037 . S
O1979 C1999 1.234 . S
C1980 O1954 1.269 . S
C1980 O1955 1.257 . S
C1981 H1956 0.930 . S
C1981 C1984 1.388 . S
C1981 C1986 1.418 . S
C1982 H1977 0.930 . S
C1982 C1985 1.404 . S
C1982 C1986 1.353 . S
N1983 Co1948 2.145 . S
N1983 C1984 1.397 . S
N1983 C1985 1.334 . S
C1984 H1965 0.929 . S
C1984 C1981 1.388 . S
C1984 N1983 1.397 . S
C1985 H1966 0.929 . S
C1985 C1982 1.404 . S
C1985 N1983 1.334 . S
C1986 H1978 0.930 . S
C1986 C1981 1.418 . S
C1986 C1982 1.353 . S
C1987 H1957 0.930 . S
C1987 N1988 1.330 . S
C1987 C1989 1.446 . S
N1988 Co1947 2.151 . S
N1988 C1987 1.330 . S
N1988 C1992 1.418 . S
C1989 H1968 0.929 . S
C1989 C1987 1.446 . S
C1989 C1990 1.332 . S
C1990 H1970 0.931 . S
C1990 C1989 1.332 . S
C1990 C1991 1.267 . S
C1991 H1959 0.929 . S
C1991 C1990 1.267 . S
C1991 C1992 1.251 . S
C1992 H1962 0.929 . S
C1992 N1988 1.418 . S
C1992 C1991 1.251 . S
C1993 H1960 0.930 . S
C1993 C1995 1.406 . S
C1993 C1998 1.261 . S
C1994 H1961 0.930 . S
C1994 N1996 1.325 . S
C1994 C1997 1.357 . S
C1995 H1963 0.928 . S
C1995 C1993 1.406 . S
C1995 N1996 1.261 . S
N1996 Co1947 2.214 . S
N1996 C1994 1.325 . S
N1996 C1995 1.261 . S
C1997 H1967 0.931 . S
C1997 C1994 1.357 . S
C1997 C1998 1.312 . S
C1998 H1969 0.930 . S
C1998 C1993 1.261 . S
C1998 C1997 1.312 . S
C1999 O1971 1.214 . S
C1999 O1979 1.234 . S
C2000 H1972 0.929 . S
C2000 C2003 1.391 . S
C2000 C2005 1.391 . S
C2001 H1973 0.929 . S
C2001 C2002 1.390 . S
C2001 N2004 1.391 . S
C2002 H1974 0.930 . S
C2002 C2001 1.390 . S
C2002 C2003 1.392 . S
C2003 H1975 0.929 . S
C2003 C2000 1.391 . S
C2003 C2002 1.392 . S
N2004 Co1948 2.257 . S
N2004 C2001 1.391 . S
N2004 C2005 1.388 . S
C2005 H1976 0.930 . S
C2005 C2000 1.391 . S
C2005 N2004 1.388 . S
Co2006 O2008 2.143 . S
Co2006 O2014 2.074 . S
Co2006 O2017 2.093 . S
Co2006 O2030 2.097 . S
Co2006 N2047 2.151 . S
Co2006 N2055 2.214 . S
Co2007 O2008 2.160 . S
Co2007 O2013 2.058 . S
Co2007 O2023 2.057 . S
Co2007 O2038 2.037 . S
Co2007 N2042 2.145 . S
Co2007 N2063 2.257 . S
O2008 Co2006 2.143 . S
O2008 Co2007 2.160 . S
C2009 O2010 1.278 . S
C2009 O2017 1.224 . S
O2010 C2009 1.278 . S
C2011 O2012 1.245 . S
C2011 O2023 1.232 . S
O2012 C2011 1.245 . S
O2013 Co2007 2.058 . S
O2013 C2039 1.269 . S
O2014 Co2006 2.074 . S
O2014 C2039 1.257 . S
H2015 C2040 0.930 . S
H2016 C2046 0.930 . S
O2017 Co2006 2.093 . S
O2017 C2009 1.224 . S
H2018 C2050 0.929 . S
H2019 C2052 0.930 . S
H2020 C2053 0.930 . S
H2021 C2051 0.929 . S
H2022 C2054 0.928 . S
O2023 Co2007 2.057 . S
O2023 C2011 1.232 . S
H2024 C2043 0.929 . S
H2025 C2044 0.929 . S
H2026 C2056 0.931 . S
H2027 C2048 0.929 . S
H2028 C2057 0.930 . S
H2029 C2049 0.931 . S
O2030 Co2006 2.097 . S
O2030 C2058 1.214 . S
H2031 C2059 0.929 . S
H2032 C2060 0.929 . S
H2033 C2061 0.930 . S
H2034 C2062 0.929 . S
H2035 C2064 0.930 . S
H2036 C2041 0.930 . S
H2037 C2045 0.930 . S
O2038 Co2007 2.037 . S
O2038 C2058 1.234 . S
C2039 O2013 1.269 . S
C2039 O2014 1.257 . S
C2040 H2015 0.930 . S
C2040 C2043 1.388 . S
C2040 C2045 1.418 . S
C2041 H2036 0.930 . S
C2041 C2044 1.404 . S
C2041 C2045 1.353 . S
N2042 Co2007 2.145 . S
N2042 C2043 1.397 . S
N2042 C2044 1.334 . S
C2043 H2024 0.929 . S
C2043 C2040 1.388 . S
C2043 N2042 1.397 . S
C2044 H2025 0.929 . S
C2044 C2041 1.404 . S
C2044 N2042 1.334 . S
C2045 H2037 0.930 . S
C2045 C2040 1.418 . S
C2045 C2041 1.353 . S
C2046 H2016 0.930 . S
C2046 N2047 1.330 . S
C2046 C2048 1.446 . S
N2047 Co2006 2.151 . S
N2047 C2046 1.330 . S
N2047 C2051 1.418 . S
C2048 H2027 0.929 . S
C2048 C2046 1.446 . S
C2048 C2049 1.332 . S
C2049 H2029 0.931 . S
C2049 C2048 1.332 . S
C2049 C2050 1.267 . S
C2050 H2018 0.929 . S
C2050 C2049 1.267 . S
C2050 C2051 1.251 . S
C2051 H2021 0.929 . S
C2051 N2047 1.418 . S
C2051 C2050 1.251 . S
C2052 H2019 0.930 . S
C2052 C2054 1.406 . S
C2052 C2057 1.261 . S
C2053 H2020 0.930 . S
C2053 N2055 1.325 . S
C2053 C2056 1.357 . S
C2054 H2022 0.928 . S
C2054 C2052 1.406 . S
C2054 N2055 1.261 . S
N2055 Co2006 2.214 . S
N2055 C2053 1.325 . S
N2055 C2054 1.261 . S
C2056 H2026 0.931 . S
C2056 C2053 1.357 . S
C2056 C2057 1.312 . S
C2057 H2028 0.930 . S
C2057 C2052 1.261 . S
C2057 C2056 1.312 . S
C2058 O2030 1.214 . S
C2058 O2038 1.234 . S
C2059 H2031 0.929 . S
C2059 C2062 1.391 . S
C2059 C2064 1.391 . S
C2060 H2032 0.929 . S
C2060 C2061 1.390 . S
C2060 N2063 1.391 . S
C2061 H2033 0.930 . S
C2061 C2060 1.390 . S
C2061 C2062 1.392 . S
C2062 H2034 0.929 . S
C2062 C2059 1.391 . S
C2062 C2061 1.392 . S
N2063 Co2007 2.257 . S
N2063 C2060 1.391 . S
N2063 C2064 1.388 . S
C2064 H2035 0.930 . S
C2064 C2059 1.391 . S
C2064 N2063 1.388 . S
Co2065 O2067 2.143 . S
Co2065 O2073 2.074 . S
Co2065 O2076 2.093 . S
Co2065 O2089 2.097 . S
Co2065 N2106 2.151 . S
Co2065 N2114 2.214 . S
Co2066 O2067 2.160 . S
Co2066 O2072 2.058 . S
Co2066 O2082 2.057 . S
Co2066 O2097 2.037 . S
Co2066 N2101 2.145 . S
Co2066 N2122 2.257 . S
O2067 Co2065 2.143 . S
O2067 Co2066 2.160 . S
C2068 O2069 1.278 . S
C2068 O2076 1.224 . S
O2069 C2068 1.278 . S
C2070 O2071 1.245 . S
C2070 O2082 1.232 . S
O2071 C2070 1.245 . S
O2072 Co2066 2.058 . S
O2072 C2098 1.269 . S
O2073 Co2065 2.074 . S
O2073 C2098 1.257 . S
H2074 C2099 0.930 . S
H2075 C2105 0.930 . S
O2076 Co2065 2.093 . S
O2076 C2068 1.224 . S
H2077 C2109 0.929 . S
H2078 C2111 0.930 . S
H2079 C2112 0.930 . S
H2080 C2110 0.929 . S
H2081 C2113 0.928 . S
O2082 Co2066 2.057 . S
O2082 C2070 1.232 . S
H2083 C2102 0.929 . S
H2084 C2103 0.929 . S
H2085 C2115 0.931 . S
H2086 C2107 0.929 . S
H2087 C2116 0.930 . S
H2088 C2108 0.931 . S
O2089 Co2065 2.097 . S
O2089 C2117 1.214 . S
H2090 C2118 0.929 . S
H2091 C2119 0.929 . S
H2092 C2120 0.930 . S
H2093 C2121 0.929 . S
H2094 C2123 0.930 . S
H2095 C2100 0.930 . S
H2096 C2104 0.930 . S
O2097 Co2066 2.037 . S
O2097 C2117 1.234 . S
C2098 O2072 1.269 . S
C2098 O2073 1.257 . S
C2099 H2074 0.930 . S
C2099 C2102 1.388 . S
C2099 C2104 1.418 . S
C2100 H2095 0.930 . S
C2100 C2103 1.404 . S
C2100 C2104 1.353 . S
N2101 Co2066 2.145 . S
N2101 C2102 1.397 . S
N2101 C2103 1.334 . S
C2102 H2083 0.929 . S
C2102 C2099 1.388 . S
C2102 N2101 1.397 . S
C2103 H2084 0.929 . S
C2103 C2100 1.404 . S
C2103 N2101 1.334 . S
C2104 H2096 0.930 . S
C2104 C2099 1.418 . S
C2104 C2100 1.353 . S
C2105 H2075 0.930 . S
C2105 N2106 1.330 . S
C2105 C2107 1.446 . S
N2106 Co2065 2.151 . S
N2106 C2105 1.330 . S
N2106 C2110 1.418 . S
C2107 H2086 0.929 . S
C2107 C2105 1.446 . S
C2107 C2108 1.332 . S
C2108 H2088 0.931 . S
C2108 C2107 1.332 . S
C2108 C2109 1.267 . S
C2109 H2077 0.929 . S
C2109 C2108 1.267 . S
C2109 C2110 1.251 . S
C2110 H2080 0.929 . S
C2110 N2106 1.418 . S
C2110 C2109 1.251 . S
C2111 H2078 0.930 . S
C2111 C2113 1.406 . S
C2111 C2116 1.261 . S
C2112 H2079 0.930 . S
C2112 N2114 1.325 . S
C2112 C2115 1.357 . S
C2113 H2081 0.928 . S
C2113 C2111 1.406 . S
C2113 N2114 1.261 . S
N2114 Co2065 2.214 . S
N2114 C2112 1.325 . S
N2114 C2113 1.261 . S
C2115 H2085 0.931 . S
C2115 C2112 1.357 . S
C2115 C2116 1.312 . S
C2116 H2087 0.930 . S
C2116 C2111 1.261 . S
C2116 C2115 1.312 . S
C2117 O2089 1.214 . S
C2117 O2097 1.234 . S
C2118 H2090 0.929 . S
C2118 C2121 1.391 . S
C2118 C2123 1.391 . S
C2119 H2091 0.929 . S
C2119 C2120 1.390 . S
C2119 N2122 1.391 . S
C2120 H2092 0.930 . S
C2120 C2119 1.390 . S
C2120 C2121 1.392 . S
C2121 H2093 0.929 . S
C2121 C2118 1.391 . S
C2121 C2120 1.392 . S
N2122 Co2066 2.257 . S
N2122 C2119 1.391 . S
N2122 C2123 1.388 . S
C2123 H2094 0.930 . S
C2123 C2118 1.391 . S
C2123 N2122 1.388 . S
H2124 C2132 0.950 . S
H2125 C2137 0.950 . S
H2126 C2134 0.950 . S
H2127 C2136 0.950 . S
H2128 C2138 0.950 . S
H2129 C2140 0.950 . S
H2130 C2142 0.950 . S
H2131 C2143 0.950 . S
C2132 H2124 0.950 . S
C2132 C2133 1.386 . S
C2132 C2134 1.391 . S
C2133 C2132 1.386 . S
C2133 C2137 1.393 . S
C2134 H2126 0.950 . S
C2134 C2132 1.391 . S
C2134 C2135 1.400 . S
C2135 C2134 1.400 . S
C2135 C2136 1.398 . S
C2135 C2141 1.491 1_556 S
C2136 H2127 0.950 . S
C2136 C2135 1.398 . S
C2136 C2137 1.391 . S
C2137 H2125 0.950 . S
C2137 C2133 1.393 . S
C2137 C2136 1.391 . S
C2138 H2128 0.950 . S
C2138 C2139 1.386 . S
C2138 C2140 1.391 . S
C2139 C2138 1.386 . S
C2139 C2143 1.393 . S
C2140 H2129 0.950 . S
C2140 C2138 1.391 . S
C2140 C2141 1.400 . S
C2141 C2135 1.491 1_554 S
C2141 C2140 1.400 . S
C2141 C2142 1.398 . S
C2142 H2130 0.950 . S
C2142 C2141 1.398 . S
C2142 C2143 1.391 . S
C2143 H2131 0.950 . S
C2143 C2139 1.393 . S
C2143 C2142 1.391 . S
H2144 C2152 0.950 . S
H2145 C2157 0.950 . S
H2146 C2154 0.950 . S
H2147 C2156 0.950 . S
H2148 C2158 0.950 . S
H2149 C2160 0.950 . S
H2150 C2162 0.950 . S
H2151 C2163 0.950 . S
C2152 H2144 0.950 . S
C2152 C2153 1.386 . S
C2152 C2154 1.391 . S
C2153 C2152 1.386 . S
C2153 C2157 1.393 . S
C2154 H2146 0.950 . S
C2154 C2152 1.391 . S
C2154 C2155 1.400 . S
C2155 C2154 1.400 . S
C2155 C2156 1.398 . S
C2155 C2161 1.491 1_556 S
C2156 H2147 0.950 . S
C2156 C2155 1.398 . S
C2156 C2157 1.391 . S
C2157 H2145 0.950 . S
C2157 C2153 1.393 . S
C2157 C2156 1.391 . S
C2158 H2148 0.950 . S
C2158 C2159 1.386 . S
C2158 C2160 1.391 . S
C2159 C2158 1.386 . S
C2159 C2163 1.393 . S
C2160 H2149 0.950 . S
C2160 C2158 1.391 . S
C2160 C2161 1.400 . S
C2161 C2155 1.491 1_554 S
C2161 C2160 1.400 . S
C2161 C2162 1.398 . S
C2162 H2150 0.950 . S
C2162 C2161 1.398 . S
C2162 C2163 1.391 . S
C2163 H2151 0.950 . S
C2163 C2159 1.393 . S
C2163 C2162 1.391 . S
H2164 C2172 0.950 . S
H2165 C2177 0.950 . S
H2166 C2174 0.950 . S
H2167 C2176 0.950 . S
H2168 C2178 0.950 . S
H2169 C2180 0.950 . S
H2170 C2182 0.950 . S
H2171 C2183 0.950 . S
C2172 H2164 0.950 . S
C2172 C2173 1.386 . S
C2172 C2174 1.391 . S
C2173 C2172 1.386 . S
C2173 C2177 1.393 . S
C2174 H2166 0.950 . S
C2174 C2172 1.391 . S
C2174 C2175 1.400 . S
C2175 C2174 1.400 . S
C2175 C2176 1.398 . S
C2175 C2181 1.491 1_554 S
C2176 H2167 0.950 . S
C2176 C2175 1.398 . S
C2176 C2177 1.391 . S
C2177 H2165 0.950 . S
C2177 C2173 1.393 . S
C2177 C2176 1.391 . S
C2178 H2168 0.950 . S
C2178 C2179 1.386 . S
C2178 C2180 1.391 . S
C2179 C2178 1.386 . S
C2179 C2183 1.393 . S
C2180 H2169 0.950 . S
C2180 C2178 1.391 . S
C2180 C2181 1.400 . S
C2181 C2175 1.491 1_556 S
C2181 C2180 1.400 . S
C2181 C2182 1.398 . S
C2182 H2170 0.950 . S
C2182 C2181 1.398 . S
C2182 C2183 1.391 . S
C2183 H2171 0.950 . S
C2183 C2179 1.393 . S
C2183 C2182 1.391 . S
H2184 C2192 0.950 . S
H2185 C2197 0.950 . S
H2186 C2194 0.950 . S
H2187 C2196 0.950 . S
H2188 C2198 0.950 . S
H2189 C2200 0.950 . S
H2190 C2202 0.950 . S
H2191 C2203 0.950 . S
C2192 H2184 0.950 . S
C2192 C2193 1.386 . S
C2192 C2194 1.391 . S
C2193 C2192 1.386 . S
C2193 C2197 1.393 . S
C2194 H2186 0.950 . S
C2194 C2192 1.391 . S
C2194 C2195 1.400 . S
C2195 C2194 1.400 . S
C2195 C2196 1.398 . S
C2195 C2201 1.491 . S
C2196 H2187 0.950 . S
C2196 C2195 1.398 . S
C2196 C2197 1.391 . S
C2197 H2185 0.950 . S
C2197 C2193 1.393 . S
C2197 C2196 1.391 . S
C2198 H2188 0.950 . S
C2198 C2199 1.386 . S
C2198 C2200 1.391 . S
C2199 C2198 1.386 . S
C2199 C2203 1.393 . S
C2200 H2189 0.950 . S
C2200 C2198 1.391 . S
C2200 C2201 1.400 . S
C2201 C2195 1.491 . S
C2201 C2200 1.400 . S
C2201 C2202 1.398 . S
C2202 H2190 0.950 . S
C2202 C2201 1.398 . S
C2202 C2203 1.391 . S
C2203 H2191 0.950 . S
C2203 C2199 1.393 . S
C2203 C2202 1.391 . S
H2204 C2212 0.950 . S
H2205 C2217 0.950 . S
H2206 C2214 0.950 . S
H2207 C2216 0.950 . S
H2208 C2218 0.950 . S
H2209 C2220 0.950 . S
H2210 C2222 0.950 . S
H2211 C2223 0.950 . S
C2212 H2204 0.950 . S
C2212 C2213 1.386 . S
C2212 C2214 1.391 . S
C2213 C2212 1.386 . S
C2213 C2217 1.393 . S
C2214 H2206 0.950 . S
C2214 C2212 1.391 . S
C2214 C2215 1.400 . S
C2215 C2214 1.400 . S
C2215 C2216 1.398 . S
C2215 C2221 1.491 . S
C2216 H2207 0.950 . S
C2216 C2215 1.398 . S
C2216 C2217 1.391 . S
C2217 H2205 0.950 . S
C2217 C2213 1.393 . S
C2217 C2216 1.391 . S
C2218 H2208 0.950 . S
C2218 C2219 1.386 . S
C2218 C2220 1.391 . S
C2219 C2218 1.386 . S
C2219 C2223 1.393 . S
C2220 H2209 0.950 . S
C2220 C2218 1.391 . S
C2220 C2221 1.400 . S
C2221 C2215 1.491 . S
C2221 C2220 1.400 . S
C2221 C2222 1.398 . S
C2222 H2210 0.950 . S
C2222 C2221 1.398 . S
C2222 C2223 1.391 . S
C2223 H2211 0.950 . S
C2223 C2219 1.393 . S
C2223 C2222 1.391 . S
H2224 C2232 0.950 . S
H2225 C2237 0.950 . S
H2226 C2234 0.950 . S
H2227 C2236 0.950 . S
H2228 C2238 0.950 . S
H2229 C2240 0.950 . S
H2230 C2242 0.950 . S
H2231 C2243 0.950 . S
C2232 H2224 0.950 . S
C2232 C2233 1.386 . S
C2232 C2234 1.391 . S
C2233 C2232 1.386 . S
C2233 C2237 1.393 . S
C2234 H2226 0.950 . S
C2234 C2232 1.391 . S
C2234 C2235 1.400 . S
C2235 C2234 1.400 . S
C2235 C2236 1.398 . S
C2235 C2241 1.491 . S
C2236 H2227 0.950 . S
C2236 C2235 1.398 . S
C2236 C2237 1.391 . S
C2237 H2225 0.950 . S
C2237 C2233 1.393 . S
C2237 C2236 1.391 . S
C2238 H2228 0.950 . S
C2238 C2239 1.386 . S
C2238 C2240 1.391 . S
C2239 C2238 1.386 . S
C2239 C2243 1.393 . S
C2240 H2229 0.950 . S
C2240 C2238 1.391 . S
C2240 C2241 1.400 . S
C2241 C2235 1.491 . S
C2241 C2240 1.400 . S
C2241 C2242 1.398 . S
C2242 H2230 0.950 . S
C2242 C2241 1.398 . S
C2242 C2243 1.391 . S
C2243 H2231 0.950 . S
C2243 C2239 1.393 . S
C2243 C2242 1.391 . S
H2244 C2252 0.950 . S
H2245 C2257 0.950 . S
H2246 C2254 0.950 . S
H2247 C2256 0.950 . S
H2248 C2258 0.950 . S
H2249 C2260 0.950 . S
H2250 C2262 0.950 . S
H2251 C2263 0.950 . S
C2252 H2244 0.950 . S
C2252 C2253 1.386 . S
C2252 C2254 1.391 . S
C2253 C2252 1.386 . S
C2253 C2257 1.393 . S
C2254 H2246 0.950 . S
C2254 C2252 1.391 . S
C2254 C2255 1.400 . S
C2255 C2254 1.400 . S
C2255 C2256 1.398 . S
C2255 C2261 1.491 1_554 S
C2256 H2247 0.950 . S
C2256 C2255 1.398 . S
C2256 C2257 1.391 . S
C2257 H2245 0.950 . S
C2257 C2253 1.393 . S
C2257 C2256 1.391 . S
C2258 H2248 0.950 . S
C2258 C2259 1.386 . S
C2258 C2260 1.391 . S
C2259 C2258 1.386 . S
C2259 C2263 1.393 . S
C2260 H2249 0.950 . S
C2260 C2258 1.391 . S
C2260 C2261 1.400 . S
C2261 C2255 1.491 1_556 S
C2261 C2260 1.400 . S
C2261 C2262 1.398 . S
C2262 H2250 0.950 . S
C2262 C2261 1.398 . S
C2262 C2263 1.391 . S
C2263 H2251 0.950 . S
C2263 C2259 1.393 . S
C2263 C2262 1.391 . S
H2264 C2272 0.950 . S
H2265 C2277 0.950 . S
H2266 C2274 0.950 . S
H2267 C2276 0.950 . S
H2268 C2278 0.950 . S
H2269 C2280 0.950 . S
H2270 C2282 0.950 . S
H2271 C2283 0.950 . S
C2272 H2264 0.950 . S
C2272 C2273 1.386 . S
C2272 C2274 1.391 . S
C2273 C2272 1.386 . S
C2273 C2277 1.393 . S
C2274 H2266 0.950 . S
C2274 C2272 1.391 . S
C2274 C2275 1.400 . S
C2275 C2274 1.400 . S
C2275 C2276 1.398 . S
C2275 C2281 1.491 1_554 S
C2276 H2267 0.950 . S
C2276 C2275 1.398 . S
C2276 C2277 1.391 . S
C2277 H2265 0.950 . S
C2277 C2273 1.393 . S
C2277 C2276 1.391 . S
C2278 H2268 0.950 . S
C2278 C2279 1.386 . S
C2278 C2280 1.391 . S
C2279 C2278 1.386 . S
C2279 C2283 1.393 . S
C2280 H2269 0.950 . S
C2280 C2278 1.391 . S
C2280 C2281 1.400 . S
C2281 C2275 1.491 1_556 S
C2281 C2280 1.400 . S
C2281 C2282 1.398 . S
C2282 H2270 0.950 . S
C2282 C2281 1.398 . S
C2282 C2283 1.391 . S
C2283 H2271 0.950 . S
C2283 C2279 1.393 . S
C2283 C2282 1.391 . S
H2284 C2292 0.950 . S
H2285 C2297 0.950 . S
H2286 C2294 0.950 . S
H2287 C2296 0.950 . S
H2288 C2298 0.950 . S
H2289 C2300 0.950 . S
H2290 C2302 0.950 . S
H2291 C2303 0.950 . S
C2292 H2284 0.950 . S
C2292 C2293 1.386 . S
C2292 C2294 1.391 . S
C2293 C2292 1.386 . S
C2293 C2297 1.393 . S
C2294 H2286 0.950 . S
C2294 C2292 1.391 . S
C2294 C2295 1.400 . S
C2295 C2294 1.400 . S
C2295 C2296 1.398 . S
C2295 C2301 1.491 1_556 S
C2296 H2287 0.950 . S
C2296 C2295 1.398 . S
C2296 C2297 1.391 . S
C2297 H2285 0.950 . S
C2297 C2293 1.393 . S
C2297 C2296 1.391 . S
C2298 H2288 0.950 . S
C2298 C2299 1.386 . S
C2298 C2300 1.391 . S
C2299 C2298 1.386 . S
C2299 C2303 1.393 . S
C2300 H2289 0.950 . S
C2300 C2298 1.391 . S
C2300 C2301 1.400 . S
C2301 C2295 1.491 1_554 S
C2301 C2300 1.400 . S
C2301 C2302 1.398 . S
C2302 H2290 0.950 . S
C2302 C2301 1.398 . S
C2302 C2303 1.391 . S
C2303 H2291 0.950 . S
C2303 C2299 1.393 . S
C2303 C2302 1.391 . S
H2304 C2312 0.950 . S
H2305 C2317 0.950 . S
H2306 C2314 0.950 . S
H2307 C2316 0.950 . S
H2308 C2318 0.950 . S
H2309 C2320 0.950 . S
H2310 C2322 0.950 . S
H2311 C2323 0.950 . S
C2312 H2304 0.950 . S
C2312 C2313 1.386 . S
C2312 C2314 1.391 . S
C2313 C2312 1.386 . S
C2313 C2317 1.393 . S
C2314 H2306 0.950 . S
C2314 C2312 1.391 . S
C2314 C2315 1.400 . S
C2315 C2314 1.400 . S
C2315 C2316 1.398 . S
C2315 C2321 1.491 . S
C2316 H2307 0.950 . S
C2316 C2315 1.398 . S
C2316 C2317 1.391 . S
C2317 H2305 0.950 . S
C2317 C2313 1.393 . S
C2317 C2316 1.391 . S
C2318 H2308 0.950 . S
C2318 C2319 1.386 . S
C2318 C2320 1.391 . S
C2319 C2318 1.386 . S
C2319 C2323 1.393 . S
C2320 H2309 0.950 . S
C2320 C2318 1.391 . S
C2320 C2321 1.400 . S
C2321 C2315 1.491 . S
C2321 C2320 1.400 . S
C2321 C2322 1.398 . S
C2322 H2310 0.950 . S
C2322 C2321 1.398 . S
C2322 C2323 1.391 . S
C2323 H2311 0.950 . S
C2323 C2319 1.393 . S
C2323 C2322 1.391 . S
H2324 C2332 0.950 . S
H2325 C2337 0.950 . S
H2326 C2334 0.950 . S
H2327 C2336 0.950 . S
H2328 C2338 0.950 . S
H2329 C2340 0.950 . S
H2330 C2342 0.950 . S
H2331 C2343 0.950 . S
C2332 H2324 0.950 . S
C2332 C2333 1.386 . S
C2332 C2334 1.391 . S
C2333 C2332 1.386 . S
C2333 C2337 1.393 . S
C2334 H2326 0.950 . S
C2334 C2332 1.391 . S
C2334 C2335 1.400 . S
C2335 C2334 1.400 . S
C2335 C2336 1.398 . S
C2335 C2341 1.491 . S
C2336 H2327 0.950 . S
C2336 C2335 1.398 . S
C2336 C2337 1.391 . S
C2337 H2325 0.950 . S
C2337 C2333 1.393 . S
C2337 C2336 1.391 . S
C2338 H2328 0.950 . S
C2338 C2339 1.386 . S
C2338 C2340 1.391 . S
C2339 C2338 1.386 . S
C2339 C2343 1.393 . S
C2340 H2329 0.950 . S
C2340 C2338 1.391 . S
C2340 C2341 1.400 . S
C2341 C2335 1.491 . S
C2341 C2340 1.400 . S
C2341 C2342 1.398 . S
C2342 H2330 0.950 . S
C2342 C2341 1.398 . S
C2342 C2343 1.391 . S
C2343 H2331 0.950 . S
C2343 C2339 1.393 . S
C2343 C2342 1.391 . S
H2344 C2352 0.950 . S
H2345 C2357 0.950 . S
H2346 C2354 0.950 . S
H2347 C2356 0.950 . S
H2348 C2358 0.950 . S
H2349 C2360 0.950 . S
H2350 C2362 0.950 . S
H2351 C2363 0.950 . S
C2352 H2344 0.950 . S
C2352 C2353 1.386 . S
C2352 C2354 1.391 . S
C2353 C2352 1.386 . S
C2353 C2357 1.393 . S
C2354 H2346 0.950 . S
C2354 C2352 1.391 . S
C2354 C2355 1.400 . S
C2355 C2354 1.400 . S
C2355 C2356 1.398 . S
C2355 C2361 1.491 . S
C2356 H2347 0.950 . S
C2356 C2355 1.398 . S
C2356 C2357 1.391 . S
C2357 H2345 0.950 . S
C2357 C2353 1.393 . S
C2357 C2356 1.391 . S
C2358 H2348 0.950 . S
C2358 C2359 1.386 . S
C2358 C2360 1.391 . S
C2359 C2358 1.386 . S
C2359 C2363 1.393 . S
C2360 H2349 0.950 . S
C2360 C2358 1.391 . S
C2360 C2361 1.400 . S
C2361 C2355 1.491 . S
C2361 C2360 1.400 . S
C2361 C2362 1.398 . S
C2362 H2350 0.950 . S
C2362 C2361 1.398 . S
C2362 C2363 1.391 . S
C2363 H2351 0.950 . S
C2363 C2359 1.393 . S
C2363 C2362 1.391 . S
H2364 C2372 0.950 . S
H2365 C2377 0.950 . S
H2366 C2374 0.950 . S
H2367 C2376 0.950 . S
H2368 C2378 0.950 . S
H2369 C2380 0.950 . S
H2370 C2382 0.950 . S
H2371 C2383 0.950 . S
C2372 H2364 0.950 . S
C2372 C2373 1.386 . S
C2372 C2374 1.391 . S
C2373 C2372 1.386 . S
C2373 C2377 1.393 . S
C2374 H2366 0.950 . S
C2374 C2372 1.391 . S
C2374 C2375 1.400 . S
C2375 C2374 1.400 . S
C2375 C2376 1.398 . S
C2375 C2381 1.491 . S
C2376 H2367 0.950 . S
C2376 C2375 1.398 . S
C2376 C2377 1.391 . S
C2377 H2365 0.950 . S
C2377 C2373 1.393 . S
C2377 C2376 1.391 . S
C2378 H2368 0.950 . S
C2378 C2379 1.386 . S
C2378 C2380 1.391 . S
C2379 C2378 1.386 . S
C2379 C2383 1.393 . S
C2380 H2369 0.950 . S
C2380 C2378 1.391 . S
C2380 C2381 1.400 . S
C2381 C2375 1.491 . S
C2381 C2380 1.400 . S
C2381 C2382 1.398 . S
C2382 H2370 0.950 . S
C2382 C2381 1.398 . S
C2382 C2383 1.391 . S
C2383 H2371 0.950 . S
C2383 C2379 1.393 . S
C2383 C2382 1.391 . S
H2384 C2392 0.950 . S
H2385 C2397 0.950 . S
H2386 C2394 0.950 . S
H2387 C2396 0.950 . S
H2388 C2398 0.950 . S
H2389 C2400 0.950 . S
H2390 C2402 0.950 . S
H2391 C2403 0.950 . S
C2392 H2384 0.950 . S
C2392 C2393 1.386 . S
C2392 C2394 1.391 . S
C2393 C2392 1.386 . S
C2393 C2397 1.393 . S
C2394 H2386 0.950 . S
C2394 C2392 1.391 . S
C2394 C2395 1.400 . S
C2395 C2394 1.400 . S
C2395 C2396 1.398 . S
C2395 C2401 1.491 . S
C2396 H2387 0.950 . S
C2396 C2395 1.398 . S
C2396 C2397 1.391 . S
C2397 H2385 0.950 . S
C2397 C2393 1.393 . S
C2397 C2396 1.391 . S
C2398 H2388 0.950 . S
C2398 C2399 1.386 . S
C2398 C2400 1.391 . S
C2399 C2398 1.386 . S
C2399 C2403 1.393 . S
C2400 H2389 0.950 . S
C2400 C2398 1.391 . S
C2400 C2401 1.400 . S
C2401 C2395 1.491 . S
C2401 C2400 1.400 . S
C2401 C2402 1.398 . S
C2402 H2390 0.950 . S
C2402 C2401 1.398 . S
C2402 C2403 1.391 . S
C2403 H2391 0.950 . S
C2403 C2399 1.393 . S
C2403 C2402 1.391 . S
H2404 C2412 0.950 . S
H2405 C2417 0.950 . S
H2406 C2414 0.950 . S
H2407 C2416 0.950 . S
H2408 C2418 0.950 . S
H2409 C2420 0.950 . S
H2410 C2422 0.950 . S
H2411 C2423 0.950 . S
C2412 H2404 0.950 . S
C2412 C2413 1.386 . S
C2412 C2414 1.391 . S
C2413 C2412 1.386 . S
C2413 C2417 1.393 . S
C2414 H2406 0.950 . S
C2414 C2412 1.391 . S
C2414 C2415 1.400 . S
C2415 C2414 1.400 . S
C2415 C2416 1.398 . S
C2415 C2421 1.491 . S
C2416 H2407 0.950 . S
C2416 C2415 1.398 . S
C2416 C2417 1.391 . S
C2417 H2405 0.950 . S
C2417 C2413 1.393 . S
C2417 C2416 1.391 . S
C2418 H2408 0.950 . S
C2418 C2419 1.386 . S
C2418 C2420 1.391 . S
C2419 C2418 1.386 . S
C2419 C2423 1.393 . S
C2420 H2409 0.950 . S
C2420 C2418 1.391 . S
C2420 C2421 1.400 . S
C2421 C2415 1.491 . S
C2421 C2420 1.400 . S
C2421 C2422 1.398 . S
C2422 H2410 0.950 . S
C2422 C2421 1.398 . S
C2422 C2423 1.391 . S
C2423 H2411 0.950 . S
C2423 C2419 1.393 . S
C2423 C2422 1.391 . S
H2424 C2432 0.950 . S
H2425 C2437 0.950 . S
H2426 C2434 0.950 . S
H2427 C2436 0.950 . S
H2428 C2438 0.950 . S
H2429 C2440 0.950 . S
H2430 C2442 0.950 . S
H2431 C2443 0.950 . S
C2432 H2424 0.950 . S
C2432 C2433 1.386 . S
C2432 C2434 1.391 . S
C2433 C2432 1.386 . S
C2433 C2437 1.393 . S
C2434 H2426 0.950 . S
C2434 C2432 1.391 . S
C2434 C2435 1.400 . S
C2435 C2434 1.400 . S
C2435 C2436 1.398 . S
C2435 C2441 1.491 . S
C2436 H2427 0.950 . S
C2436 C2435 1.398 . S
C2436 C2437 1.391 . S
C2437 H2425 0.950 . S
C2437 C2433 1.393 . S
C2437 C2436 1.391 . S
C2438 H2428 0.950 . S
C2438 C2439 1.386 . S
C2438 C2440 1.391 . S
C2439 C2438 1.386 . S
C2439 C2443 1.393 . S
C2440 H2429 0.950 . S
C2440 C2438 1.391 . S
C2440 C2441 1.400 . S
C2441 C2435 1.491 . S
C2441 C2440 1.400 . S
C2441 C2442 1.398 . S
C2442 H2430 0.950 . S
C2442 C2441 1.398 . S
C2442 C2443 1.391 . S
C2443 H2431 0.950 . S
C2443 C2439 1.393 . S
C2443 C2442 1.391 . S
H2444 C2452 0.950 . S
H2445 C2457 0.950 . S
H2446 C2454 0.950 . S
H2447 C2456 0.950 . S
H2448 C2458 0.950 . S
H2449 C2460 0.950 . S
H2450 C2462 0.950 . S
H2451 C2463 0.950 . S
C2452 H2444 0.950 . S
C2452 C2453 1.386 . S
C2452 C2454 1.391 . S
C2453 C2452 1.386 . S
C2453 C2457 1.393 . S
C2454 H2446 0.950 . S
C2454 C2452 1.391 . S
C2454 C2455 1.400 . S
C2455 C2454 1.400 . S
C2455 C2456 1.398 . S
C2455 C2461 1.491 . S
C2456 H2447 0.950 . S
C2456 C2455 1.398 . S
C2456 C2457 1.391 . S
C2457 H2445 0.950 . S
C2457 C2453 1.393 . S
C2457 C2456 1.391 . S
C2458 H2448 0.950 . S
C2458 C2459 1.386 . S
C2458 C2460 1.391 . S
C2459 C2458 1.386 . S
C2459 C2463 1.393 . S
C2460 H2449 0.950 . S
C2460 C2458 1.391 . S
C2460 C2461 1.400 . S
C2461 C2455 1.491 . S
C2461 C2460 1.400 . S
C2461 C2462 1.398 . S
C2462 H2450 0.950 . S
C2462 C2461 1.398 . S
C2462 C2463 1.391 . S
C2463 H2451 0.950 . S
C2463 C2459 1.393 . S
C2463 C2462 1.391 . S
H2464 C2472 0.950 . S
H2465 C2477 0.950 . S
H2466 C2474 0.950 . S
H2467 C2476 0.950 . S
H2468 C2478 0.950 . S
H2469 C2480 0.950 . S
H2470 C2482 0.950 . S
H2471 C2483 0.950 . S
C2472 H2464 0.950 . S
C2472 C2473 1.386 . S
C2472 C2474 1.391 . S
C2473 C2472 1.386 . S
C2473 C2477 1.393 . S
C2474 H2466 0.950 . S
C2474 C2472 1.391 . S
C2474 C2475 1.400 . S
C2475 C2474 1.400 . S
C2475 C2476 1.398 . S
C2475 C2481 1.491 . S
C2476 H2467 0.950 . S
C2476 C2475 1.398 . S
C2476 C2477 1.391 . S
C2477 H2465 0.950 . S
C2477 C2473 1.393 . S
C2477 C2476 1.391 . S
C2478 H2468 0.950 . S
C2478 C2479 1.386 . S
C2478 C2480 1.391 . S
C2479 C2478 1.386 . S
C2479 C2483 1.393 . S
C2480 H2469 0.950 . S
C2480 C2478 1.391 . S
C2480 C2481 1.400 . S
C2481 C2475 1.491 . S
C2481 C2480 1.400 . S
C2481 C2482 1.398 . S
C2482 H2470 0.950 . S
C2482 C2481 1.398 . S
C2482 C2483 1.391 . S
C2483 H2471 0.950 . S
C2483 C2479 1.393 . S
C2483 C2482 1.391 . S
H2484 C2492 0.950 . S
H2485 C2497 0.950 . S
H2486 C2494 0.950 . S
H2487 C2496 0.950 . S
H2488 C2498 0.950 . S
H2489 C2500 0.950 . S
H2490 C2502 0.950 . S
H2491 C2503 0.950 . S
C2492 H2484 0.950 . S
C2492 C2493 1.386 . S
C2492 C2494 1.391 . S
C2493 C2492 1.386 . S
C2493 C2497 1.393 . S
C2494 H2486 0.950 . S
C2494 C2492 1.391 . S
C2494 C2495 1.400 . S
C2495 C2494 1.400 . S
C2495 C2496 1.398 . S
C2495 C2501 1.491 . S
C2496 H2487 0.950 . S
C2496 C2495 1.398 . S
C2496 C2497 1.391 . S
C2497 H2485 0.950 . S
C2497 C2493 1.393 . S
C2497 C2496 1.391 . S
C2498 H2488 0.950 . S
C2498 C2499 1.386 . S
C2498 C2500 1.391 . S
C2499 C2498 1.386 . S
C2499 C2503 1.393 . S
C2500 H2489 0.950 . S
C2500 C2498 1.391 . S
C2500 C2501 1.400 . S
C2501 C2495 1.491 . S
C2501 C2500 1.400 . S
C2501 C2502 1.398 . S
C2502 H2490 0.950 . S
C2502 C2501 1.398 . S
C2502 C2503 1.391 . S
C2503 H2491 0.950 . S
C2503 C2499 1.393 . S
C2503 C2502 1.391 . S
H2504 C2512 0.950 . S
H2505 C2517 0.950 . S
H2506 C2514 0.950 . S
H2507 C2516 0.950 . S
H2508 C2518 0.950 . S
H2509 C2520 0.950 . S
H2510 C2522 0.950 . S
H2511 C2523 0.950 . S
C2512 H2504 0.950 . S
C2512 C2513 1.386 . S
C2512 C2514 1.391 . S
C2513 C2512 1.386 . S
C2513 C2517 1.393 . S
C2514 H2506 0.950 . S
C2514 C2512 1.391 . S
C2514 C2515 1.400 . S
C2515 C2514 1.400 . S
C2515 C2516 1.398 . S
C2515 C2521 1.491 . S
C2516 H2507 0.950 . S
C2516 C2515 1.398 . S
C2516 C2517 1.391 . S
C2517 H2505 0.950 . S
C2517 C2513 1.393 . S
C2517 C2516 1.391 . S
C2518 H2508 0.950 . S
C2518 C2519 1.386 . S
C2518 C2520 1.391 . S
C2519 C2518 1.386 . S
C2519 C2523 1.393 . S
C2520 H2509 0.950 . S
C2520 C2518 1.391 . S
C2520 C2521 1.400 . S
C2521 C2515 1.491 . S
C2521 C2520 1.400 . S
C2521 C2522 1.398 . S
C2522 H2510 0.950 . S
C2522 C2521 1.398 . S
C2522 C2523 1.391 . S
C2523 H2511 0.950 . S
C2523 C2519 1.393 . S
C2523 C2522 1.391 . S
H2524 C2532 0.950 . S
H2525 C2537 0.950 . S
H2526 C2534 0.950 . S
H2527 C2536 0.950 . S
H2528 C2538 0.950 . S
H2529 C2540 0.950 . S
H2530 C2542 0.950 . S
H2531 C2543 0.950 . S
C2532 H2524 0.950 . S
C2532 C2533 1.386 . S
C2532 C2534 1.391 . S
C2533 C2532 1.386 . S
C2533 C2537 1.393 . S
C2534 H2526 0.950 . S
C2534 C2532 1.391 . S
C2534 C2535 1.400 . S
C2535 C2534 1.400 . S
C2535 C2536 1.398 . S
C2535 C2541 1.491 . S
C2536 H2527 0.950 . S
C2536 C2535 1.398 . S
C2536 C2537 1.391 . S
C2537 H2525 0.950 . S
C2537 C2533 1.393 . S
C2537 C2536 1.391 . S
C2538 H2528 0.950 . S
C2538 C2539 1.386 . S
C2538 C2540 1.391 . S
C2539 C2538 1.386 . S
C2539 C2543 1.393 . S
C2540 H2529 0.950 . S
C2540 C2538 1.391 . S
C2540 C2541 1.400 . S
C2541 C2535 1.491 . S
C2541 C2540 1.400 . S
C2541 C2542 1.398 . S
C2542 H2530 0.950 . S
C2542 C2541 1.398 . S
C2542 C2543 1.391 . S
C2543 H2531 0.950 . S
C2543 C2539 1.393 . S
C2543 C2542 1.391 . S
H2544 C2552 0.950 . S
H2545 C2557 0.950 . S
H2546 C2554 0.950 . S
H2547 C2556 0.950 . S
H2548 C2558 0.950 . S
H2549 C2560 0.950 . S
H2550 C2562 0.950 . S
H2551 C2563 0.950 . S
C2552 H2544 0.950 . S
C2552 C2553 1.386 . S
C2552 C2554 1.391 . S
C2553 C2552 1.386 . S
C2553 C2557 1.393 . S
C2554 H2546 0.950 . S
C2554 C2552 1.391 . S
C2554 C2555 1.400 . S
C2555 C2554 1.400 . S
C2555 C2556 1.398 . S
C2555 C2561 1.491 . S
C2556 H2547 0.950 . S
C2556 C2555 1.398 . S
C2556 C2557 1.391 . S
C2557 H2545 0.950 . S
C2557 C2553 1.393 . S
C2557 C2556 1.391 . S
C2558 H2548 0.950 . S
C2558 C2559 1.386 . S
C2558 C2560 1.391 . S
C2559 C2558 1.386 . S
C2559 C2563 1.393 . S
C2560 H2549 0.950 . S
C2560 C2558 1.391 . S
C2560 C2561 1.400 . S
C2561 C2555 1.491 . S
C2561 C2560 1.400 . S
C2561 C2562 1.398 . S
C2562 H2550 0.950 . S
C2562 C2561 1.398 . S
C2562 C2563 1.391 . S
C2563 H2551 0.950 . S
C2563 C2559 1.393 . S
C2563 C2562 1.391 . S
H2564 C2572 0.950 . S
H2565 C2577 0.950 . S
H2566 C2574 0.950 . S
H2567 C2576 0.950 . S
H2568 C2578 0.950 . S
H2569 C2580 0.950 . S
H2570 C2582 0.950 . S
H2571 C2583 0.950 . S
C2572 H2564 0.950 . S
C2572 C2573 1.386 . S
C2572 C2574 1.391 . S
C2573 C2572 1.386 . S
C2573 C2577 1.393 . S
C2574 H2566 0.950 . S
C2574 C2572 1.391 . S
C2574 C2575 1.400 . S
C2575 C2574 1.400 . S
C2575 C2576 1.398 . S
C2575 C2581 1.491 . S
C2576 H2567 0.950 . S
C2576 C2575 1.398 . S
C2576 C2577 1.391 . S
C2577 H2565 0.950 . S
C2577 C2573 1.393 . S
C2577 C2576 1.391 . S
C2578 H2568 0.950 . S
C2578 C2579 1.386 . S
C2578 C2580 1.391 . S
C2579 C2578 1.386 . S
C2579 C2583 1.393 . S
C2580 H2569 0.950 . S
C2580 C2578 1.391 . S
C2580 C2581 1.400 . S
C2581 C2575 1.491 . S
C2581 C2580 1.400 . S
C2581 C2582 1.398 . S
C2582 H2570 0.950 . S
C2582 C2581 1.398 . S
C2582 C2583 1.391 . S
C2583 H2571 0.950 . S
C2583 C2579 1.393 . S
C2583 C2582 1.391 . S
H2584 C2592 0.950 . S
H2585 C2597 0.950 . S
H2586 C2594 0.950 . S
H2587 C2596 0.950 . S
H2588 C2598 0.950 . S
H2589 C2600 0.950 . S
H2590 C2602 0.950 . S
H2591 C2603 0.950 . S
C2592 H2584 0.950 . S
C2592 C2593 1.386 . S
C2592 C2594 1.391 . S
C2593 C2592 1.386 . S
C2593 C2597 1.393 . S
C2594 H2586 0.950 . S
C2594 C2592 1.391 . S
C2594 C2595 1.400 . S
C2595 C2594 1.400 . S
C2595 C2596 1.398 . S
C2595 C2601 1.491 . S
C2596 H2587 0.950 . S
C2596 C2595 1.398 . S
C2596 C2597 1.391 . S
C2597 H2585 0.950 . S
C2597 C2593 1.393 . S
C2597 C2596 1.391 . S
C2598 H2588 0.950 . S
C2598 C2599 1.386 . S
C2598 C2600 1.391 . S
C2599 C2598 1.386 . S
C2599 C2603 1.393 . S
C2600 H2589 0.950 . S
C2600 C2598 1.391 . S
C2600 C2601 1.400 . S
C2601 C2595 1.491 . S
C2601 C2600 1.400 . S
C2601 C2602 1.398 . S
C2602 H2590 0.950 . S
C2602 C2601 1.398 . S
C2602 C2603 1.391 . S
C2603 H2591 0.950 . S
C2603 C2599 1.393 . S
C2603 C2602 1.391 . S
H2604 C2612 0.950 . S
H2605 C2617 0.950 . S
H2606 C2614 0.950 . S
H2607 C2616 0.950 . S
H2608 C2618 0.950 . S
H2609 C2620 0.950 . S
H2610 C2622 0.950 . S
H2611 C2623 0.950 . S
C2612 H2604 0.950 . S
C2612 C2613 1.386 . S
C2612 C2614 1.391 . S
C2613 C2612 1.386 . S
C2613 C2617 1.393 . S
C2614 H2606 0.950 . S
C2614 C2612 1.391 . S
C2614 C2615 1.400 . S
C2615 C2614 1.400 . S
C2615 C2616 1.398 . S
C2615 C2621 1.491 . S
C2616 H2607 0.950 . S
C2616 C2615 1.398 . S
C2616 C2617 1.391 . S
C2617 H2605 0.950 . S
C2617 C2613 1.393 . S
C2617 C2616 1.391 . S
C2618 H2608 0.950 . S
C2618 C2619 1.386 . S
C2618 C2620 1.391 . S
C2619 C2618 1.386 . S
C2619 C2623 1.393 . S
C2620 H2609 0.950 . S
C2620 C2618 1.391 . S
C2620 C2621 1.400 . S
C2621 C2615 1.491 . S
C2621 C2620 1.400 . S
C2621 C2622 1.398 . S
C2622 H2610 0.950 . S
C2622 C2621 1.398 . S
C2622 C2623 1.391 . S
C2623 H2611 0.950 . S
C2623 C2619 1.393 . S
C2623 C2622 1.391 . S
H2624 C2632 0.950 . S
H2625 C2637 0.950 . S
H2626 C2634 0.950 . S
H2627 C2636 0.950 . S
H2628 C2638 0.950 . S
H2629 C2640 0.950 . S
H2630 C2642 0.950 . S
H2631 C2643 0.950 . S
C2632 H2624 0.950 . S
C2632 C2633 1.386 . S
C2632 C2634 1.391 . S
C2633 C2632 1.386 . S
C2633 C2637 1.393 . S
C2634 H2626 0.950 . S
C2634 C2632 1.391 . S
C2634 C2635 1.400 . S
C2635 C2634 1.400 . S
C2635 C2636 1.398 . S
C2635 C2641 1.491 . S
C2636 H2627 0.950 . S
C2636 C2635 1.398 . S
C2636 C2637 1.391 . S
C2637 H2625 0.950 . S
C2637 C2633 1.393 . S
C2637 C2636 1.391 . S
C2638 H2628 0.950 . S
C2638 C2639 1.386 . S
C2638 C2640 1.391 . S
C2639 C2638 1.386 . S
C2639 C2643 1.393 . S
C2640 H2629 0.950 . S
C2640 C2638 1.391 . S
C2640 C2641 1.400 . S
C2641 C2635 1.491 . S
C2641 C2640 1.400 . S
C2641 C2642 1.398 . S
C2642 H2630 0.950 . S
C2642 C2641 1.398 . S
C2642 C2643 1.391 . S
C2643 H2631 0.950 . S
C2643 C2639 1.393 . S
C2643 C2642 1.391 . S
H2644 C2652 0.950 . S
H2645 C2657 0.950 . S
H2646 C2654 0.950 . S
H2647 C2656 0.950 . S
H2648 C2658 0.950 . S
H2649 C2660 0.950 . S
H2650 C2662 0.950 . S
H2651 C2663 0.950 . S
C2652 H2644 0.950 . S
C2652 C2653 1.386 . S
C2652 C2654 1.391 . S
C2653 C2652 1.386 . S
C2653 C2657 1.393 . S
C2654 H2646 0.950 . S
C2654 C2652 1.391 . S
C2654 C2655 1.400 . S
C2655 C2654 1.400 . S
C2655 C2656 1.398 . S
C2655 C2661 1.491 . S
C2656 H2647 0.950 . S
C2656 C2655 1.398 . S
C2656 C2657 1.391 . S
C2657 H2645 0.950 . S
C2657 C2653 1.393 . S
C2657 C2656 1.391 . S
C2658 H2648 0.950 . S
C2658 C2659 1.386 . S
C2658 C2660 1.391 . S
C2659 C2658 1.386 . S
C2659 C2663 1.393 . S
C2660 H2649 0.950 . S
C2660 C2658 1.391 . S
C2660 C2661 1.400 . S
C2661 C2655 1.491 . S
C2661 C2660 1.400 . S
C2661 C2662 1.398 . S
C2662 H2650 0.950 . S
C2662 C2661 1.398 . S
C2662 C2663 1.391 . S
C2663 H2651 0.950 . S
C2663 C2659 1.393 . S
C2663 C2662 1.391 . S
H2664 C2672 0.950 . S
H2665 C2677 0.950 . S
H2666 C2674 0.950 . S
H2667 C2676 0.950 . S
H2668 C2678 0.950 . S
H2669 C2680 0.950 . S
H2670 C2682 0.950 . S
H2671 C2683 0.950 . S
C2672 H2664 0.950 . S
C2672 C2673 1.386 . S
C2672 C2674 1.391 . S
C2673 C2672 1.386 . S
C2673 C2677 1.393 . S
C2674 H2666 0.950 . S
C2674 C2672 1.391 . S
C2674 C2675 1.400 . S
C2675 C2674 1.400 . S
C2675 C2676 1.398 . S
C2675 C2681 1.491 . S
C2676 H2667 0.950 . S
C2676 C2675 1.398 . S
C2676 C2677 1.391 . S
C2677 H2665 0.950 . S
C2677 C2673 1.393 . S
C2677 C2676 1.391 . S
C2678 H2668 0.950 . S
C2678 C2679 1.386 . S
C2678 C2680 1.391 . S
C2679 C2678 1.386 . S
C2679 C2683 1.393 . S
C2680 H2669 0.950 . S
C2680 C2678 1.391 . S
C2680 C2681 1.400 . S
C2681 C2675 1.491 . S
C2681 C2680 1.400 . S
C2681 C2682 1.398 . S
C2682 H2670 0.950 . S
C2682 C2681 1.398 . S
C2682 C2683 1.391 . S
C2683 H2671 0.950 . S
C2683 C2679 1.393 . S
C2683 C2682 1.391 . S
H2684 C2692 0.950 . S
H2685 C2697 0.950 . S
H2686 C2694 0.950 . S
H2687 C2696 0.950 . S
H2688 C2698 0.950 . S
H2689 C2700 0.950 . S
H2690 C2702 0.950 . S
H2691 C2703 0.950 . S
C2692 H2684 0.950 . S
C2692 C2693 1.386 . S
C2692 C2694 1.391 . S
C2693 C2692 1.386 . S
C2693 C2697 1.393 . S
C2694 H2686 0.950 . S
C2694 C2692 1.391 . S
C2694 C2695 1.400 . S
C2695 C2694 1.400 . S
C2695 C2696 1.398 . S
C2695 C2701 1.491 . S
C2696 H2687 0.950 . S
C2696 C2695 1.398 . S
C2696 C2697 1.391 . S
C2697 H2685 0.950 . S
C2697 C2693 1.393 . S
C2697 C2696 1.391 . S
C2698 H2688 0.950 . S
C2698 C2699 1.386 . S
C2698 C2700 1.391 . S
C2699 C2698 1.386 . S
C2699 C2703 1.393 . S
C2700 H2689 0.950 . S
C2700 C2698 1.391 . S
C2700 C2701 1.400 . S
C2701 C2695 1.491 . S
C2701 C2700 1.400 . S
C2701 C2702 1.398 . S
C2702 H2690 0.950 . S
C2702 C2701 1.398 . S
C2702 C2703 1.391 . S
C2703 H2691 0.950 . S
C2703 C2699 1.393 . S
C2703 C2702 1.391 . S
H2704 C2712 0.950 . S
H2705 C2717 0.950 . S
H2706 C2714 0.950 . S
H2707 C2716 0.950 . S
H2708 C2718 0.950 . S
H2709 C2720 0.950 . S
H2710 C2722 0.950 . S
H2711 C2723 0.950 . S
C2712 H2704 0.950 . S
C2712 C2713 1.386 . S
C2712 C2714 1.391 . S
C2713 C2712 1.386 . S
C2713 C2717 1.393 . S
C2714 H2706 0.950 . S
C2714 C2712 1.391 . S
C2714 C2715 1.400 . S
C2715 C2714 1.400 . S
C2715 C2716 1.398 . S
C2715 C2721 1.491 . S
C2716 H2707 0.950 . S
C2716 C2715 1.398 . S
C2716 C2717 1.391 . S
C2717 H2705 0.950 . S
C2717 C2713 1.393 . S
C2717 C2716 1.391 . S
C2718 H2708 0.950 . S
C2718 C2719 1.386 . S
C2718 C2720 1.391 . S
C2719 C2718 1.386 . S
C2719 C2723 1.393 . S
C2720 H2709 0.950 . S
C2720 C2718 1.391 . S
C2720 C2721 1.400 . S
C2721 C2715 1.491 . S
C2721 C2720 1.400 . S
C2721 C2722 1.398 . S
C2722 H2710 0.950 . S
C2722 C2721 1.398 . S
C2722 C2723 1.391 . S
C2723 H2711 0.950 . S
C2723 C2719 1.393 . S
C2723 C2722 1.391 . S
H2724 C2732 0.950 . S
H2725 C2737 0.950 . S
H2726 C2734 0.950 . S
H2727 C2736 0.950 . S
H2728 C2738 0.950 . S
H2729 C2740 0.950 . S
H2730 C2742 0.950 . S
H2731 C2743 0.950 . S
C2732 H2724 0.950 . S
C2732 C2733 1.386 . S
C2732 C2734 1.391 . S
C2733 C2732 1.386 . S
C2733 C2737 1.393 . S
C2734 H2726 0.950 . S
C2734 C2732 1.391 . S
C2734 C2735 1.400 . S
C2735 C2734 1.400 . S
C2735 C2736 1.398 . S
C2735 C2741 1.491 . S
C2736 H2727 0.950 . S
C2736 C2735 1.398 . S
C2736 C2737 1.391 . S
C2737 H2725 0.950 . S
C2737 C2733 1.393 . S
C2737 C2736 1.391 . S
C2738 H2728 0.950 . S
C2738 C2739 1.386 . S
C2738 C2740 1.391 . S
C2739 C2738 1.386 . S
C2739 C2743 1.393 . S
C2740 H2729 0.950 . S
C2740 C2738 1.391 . S
C2740 C2741 1.400 . S
C2741 C2735 1.491 . S
C2741 C2740 1.400 . S
C2741 C2742 1.398 . S
C2742 H2730 0.950 . S
C2742 C2741 1.398 . S
C2742 C2743 1.391 . S
C2743 H2731 0.950 . S
C2743 C2739 1.393 . S
C2743 C2742 1.391 . S
H2744 C2752 0.950 . S
H2745 C2757 0.950 . S
H2746 C2754 0.950 . S
H2747 C2756 0.950 . S
H2748 C2758 0.950 . S
H2749 C2760 0.950 . S
H2750 C2762 0.950 . S
H2751 C2763 0.950 . S
C2752 H2744 0.950 . S
C2752 C2753 1.386 . S
C2752 C2754 1.391 . S
C2753 C2752 1.386 . S
C2753 C2757 1.393 . S
C2754 H2746 0.950 . S
C2754 C2752 1.391 . S
C2754 C2755 1.400 . S
C2755 C2754 1.400 . S
C2755 C2756 1.398 . S
C2755 C2761 1.491 . S
C2756 H2747 0.950 . S
C2756 C2755 1.398 . S
C2756 C2757 1.391 . S
C2757 H2745 0.950 . S
C2757 C2753 1.393 . S
C2757 C2756 1.391 . S
C2758 H2748 0.950 . S
C2758 C2759 1.386 . S
C2758 C2760 1.391 . S
C2759 C2758 1.386 . S
C2759 C2763 1.393 . S
C2760 H2749 0.950 . S
C2760 C2758 1.391 . S
C2760 C2761 1.400 . S
C2761 C2755 1.491 . S
C2761 C2760 1.400 . S
C2761 C2762 1.398 . S
C2762 H2750 0.950 . S
C2762 C2761 1.398 . S
C2762 C2763 1.391 . S
C2763 H2751 0.950 . S
C2763 C2759 1.393 . S
C2763 C2762 1.391 . S
H2764 C2772 0.950 . S
H2765 C2777 0.950 . S
H2766 C2774 0.950 . S
H2767 C2776 0.950 . S
H2768 C2778 0.950 . S
H2769 C2780 0.950 . S
H2770 C2782 0.950 . S
H2771 C2783 0.950 . S
C2772 H2764 0.950 . S
C2772 C2773 1.386 . S
C2772 C2774 1.391 . S
C2773 C2772 1.386 . S
C2773 C2777 1.393 . S
C2774 H2766 0.950 . S
C2774 C2772 1.391 . S
C2774 C2775 1.400 . S
C2775 C2774 1.400 . S
C2775 C2776 1.398 . S
C2775 C2781 1.491 . S
C2776 H2767 0.950 . S
C2776 C2775 1.398 . S
C2776 C2777 1.391 . S
C2777 H2765 0.950 . S
C2777 C2773 1.393 . S
C2777 C2776 1.391 . S
C2778 H2768 0.950 . S
C2778 C2779 1.386 . S
C2778 C2780 1.391 . S
C2779 C2778 1.386 . S
C2779 C2783 1.393 . S
C2780 H2769 0.950 . S
C2780 C2778 1.391 . S
C2780 C2781 1.400 . S
C2781 C2775 1.491 . S
C2781 C2780 1.400 . S
C2781 C2782 1.398 . S
C2782 H2770 0.950 . S
C2782 C2781 1.398 . S
C2782 C2783 1.391 . S
C2783 H2771 0.950 . S
C2783 C2779 1.393 . S
C2783 C2782 1.391 . S
H2784 C2792 0.950 . S
H2785 C2797 0.950 . S
H2786 C2794 0.950 . S
H2787 C2796 0.950 . S
H2788 C2798 0.950 . S
H2789 C2800 0.950 . S
H2790 C2802 0.950 . S
H2791 C2803 0.950 . S
C2792 H2784 0.950 . S
C2792 C2793 1.386 . S
C2792 C2794 1.391 . S
C2793 C2792 1.386 . S
C2793 C2797 1.393 . S
C2794 H2786 0.950 . S
C2794 C2792 1.391 . S
C2794 C2795 1.400 . S
C2795 C2794 1.400 . S
C2795 C2796 1.398 . S
C2795 C2801 1.491 . S
C2796 H2787 0.950 . S
C2796 C2795 1.398 . S
C2796 C2797 1.391 . S
C2797 H2785 0.950 . S
C2797 C2793 1.393 . S
C2797 C2796 1.391 . S
C2798 H2788 0.950 . S
C2798 C2799 1.386 . S
C2798 C2800 1.391 . S
C2799 C2798 1.386 . S
C2799 C2803 1.393 . S
C2800 H2789 0.950 . S
C2800 C2798 1.391 . S
C2800 C2801 1.400 . S
C2801 C2795 1.491 . S
C2801 C2800 1.400 . S
C2801 C2802 1.398 . S
C2802 H2790 0.950 . S
C2802 C2801 1.398 . S
C2802 C2803 1.391 . S
C2803 H2791 0.950 . S
C2803 C2799 1.393 . S
C2803 C2802 1.391 . S
H2804 C2812 0.950 . S
H2805 C2817 0.950 . S
H2806 C2814 0.950 . S
H2807 C2816 0.950 . S
H2808 C2818 0.950 . S
H2809 C2820 0.950 . S
H2810 C2822 0.950 . S
H2811 C2823 0.950 . S
C2812 H2804 0.950 . S
C2812 C2813 1.386 . S
C2812 C2814 1.391 . S
C2813 C2812 1.386 . S
C2813 C2817 1.393 . S
C2814 H2806 0.950 . S
C2814 C2812 1.391 . S
C2814 C2815 1.400 . S
C2815 C2814 1.400 . S
C2815 C2816 1.398 . S
C2815 C2821 1.491 . S
C2816 H2807 0.950 . S
C2816 C2815 1.398 . S
C2816 C2817 1.391 . S
C2817 H2805 0.950 . S
C2817 C2813 1.393 . S
C2817 C2816 1.391 . S
C2818 H2808 0.950 . S
C2818 C2819 1.386 . S
C2818 C2820 1.391 . S
C2819 C2818 1.386 . S
C2819 C2823 1.393 . S
C2820 H2809 0.950 . S
C2820 C2818 1.391 . S
C2820 C2821 1.400 . S
C2821 C2815 1.491 . S
C2821 C2820 1.400 . S
C2821 C2822 1.398 . S
C2822 H2810 0.950 . S
C2822 C2821 1.398 . S
C2822 C2823 1.391 . S
C2823 H2811 0.950 . S
C2823 C2819 1.393 . S
C2823 C2822 1.391 . S
H2824 C2832 0.950 . S
H2825 C2837 0.950 . S
H2826 C2834 0.950 . S
H2827 C2836 0.950 . S
H2828 C2838 0.950 . S
H2829 C2840 0.950 . S
H2830 C2842 0.950 . S
H2831 C2843 0.950 . S
C2832 H2824 0.950 . S
C2832 C2833 1.386 . S
C2832 C2834 1.391 . S
C2833 C2832 1.386 . S
C2833 C2837 1.393 . S
C2834 H2826 0.950 . S
C2834 C2832 1.391 . S
C2834 C2835 1.400 . S
C2835 C2834 1.400 . S
C2835 C2836 1.398 . S
C2835 C2841 1.491 . S
C2836 H2827 0.950 . S
C2836 C2835 1.398 . S
C2836 C2837 1.391 . S
C2837 H2825 0.950 . S
C2837 C2833 1.393 . S
C2837 C2836 1.391 . S
C2838 H2828 0.950 . S
C2838 C2839 1.386 . S
C2838 C2840 1.391 . S
C2839 C2838 1.386 . S
C2839 C2843 1.393 . S
C2840 H2829 0.950 . S
C2840 C2838 1.391 . S
C2840 C2841 1.400 . S
C2841 C2835 1.491 . S
C2841 C2840 1.400 . S
C2841 C2842 1.398 . S
C2842 H2830 0.950 . S
C2842 C2841 1.398 . S
C2842 C2843 1.391 . S
C2843 H2831 0.950 . S
C2843 C2839 1.393 . S
C2843 C2842 1.391 . S
H2844 C2852 0.950 . S
H2845 C2857 0.950 . S
H2846 C2854 0.950 . S
H2847 C2856 0.950 . S
H2848 C2858 0.950 . S
H2849 C2860 0.950 . S
H2850 C2862 0.950 . S
H2851 C2863 0.950 . S
C2852 H2844 0.950 . S
C2852 C2853 1.386 . S
C2852 C2854 1.391 . S
C2853 C2852 1.386 . S
C2853 C2857 1.393 . S
C2854 H2846 0.950 . S
C2854 C2852 1.391 . S
C2854 C2855 1.400 . S
C2855 C2854 1.400 . S
C2855 C2856 1.398 . S
C2855 C2861 1.491 . S
C2856 H2847 0.950 . S
C2856 C2855 1.398 . S
C2856 C2857 1.391 . S
C2857 H2845 0.950 . S
C2857 C2853 1.393 . S
C2857 C2856 1.391 . S
C2858 H2848 0.950 . S
C2858 C2859 1.386 . S
C2858 C2860 1.391 . S
C2859 C2858 1.386 . S
C2859 C2863 1.393 . S
C2860 H2849 0.950 . S
C2860 C2858 1.391 . S
C2860 C2861 1.400 . S
C2861 C2855 1.491 . S
C2861 C2860 1.400 . S
C2861 C2862 1.398 . S
C2862 H2850 0.950 . S
C2862 C2861 1.398 . S
C2862 C2863 1.391 . S
C2863 H2851 0.950 . S
C2863 C2859 1.393 . S
C2863 C2862 1.391 . S
H2864 C2872 0.950 . S
H2865 C2877 0.950 . S
H2866 C2874 0.950 . S
H2867 C2876 0.950 . S
H2868 C2878 0.950 . S
H2869 C2880 0.950 . S
H2870 C2882 0.950 . S
H2871 C2883 0.950 . S
C2872 H2864 0.950 . S
C2872 C2873 1.386 . S
C2872 C2874 1.391 . S
C2873 C2872 1.386 . S
C2873 C2877 1.393 . S
C2874 H2866 0.950 . S
C2874 C2872 1.391 . S
C2874 C2875 1.400 . S
C2875 C2874 1.400 . S
C2875 C2876 1.398 . S
C2875 C2881 1.491 1_565 S
C2876 H2867 0.950 . S
C2876 C2875 1.398 . S
C2876 C2877 1.391 . S
C2877 H2865 0.950 . S
C2877 C2873 1.393 . S
C2877 C2876 1.391 . S
C2878 H2868 0.950 . S
C2878 C2879 1.386 . S
C2878 C2880 1.391 . S
C2879 C2878 1.386 . S
C2879 C2883 1.393 . S
C2880 H2869 0.950 . S
C2880 C2878 1.391 . S
C2880 C2881 1.400 . S
C2881 C2875 1.491 1_545 S
C2881 C2880 1.400 . S
C2881 C2882 1.398 . S
C2882 H2870 0.950 . S
C2882 C2881 1.398 . S
C2882 C2883 1.391 . S
C2883 H2871 0.950 . S
C2883 C2879 1.393 . S
C2883 C2882 1.391 . S
H2884 C2892 0.950 . S
H2885 C2897 0.950 . S
H2886 C2894 0.950 . S
H2887 C2896 0.950 . S
H2888 C2898 0.950 . S
H2889 C2900 0.950 . S
H2890 C2902 0.950 . S
H2891 C2903 0.950 . S
C2892 H2884 0.950 . S
C2892 C2893 1.386 . S
C2892 C2894 1.391 . S
C2893 C2892 1.386 . S
C2893 C2897 1.393 . S
C2894 H2886 0.950 . S
C2894 C2892 1.391 . S
C2894 C2895 1.400 . S
C2895 C2894 1.400 . S
C2895 C2896 1.398 . S
C2895 C2901 1.491 1_655 S
C2896 H2887 0.950 . S
C2896 C2895 1.398 . S
C2896 C2897 1.391 . S
C2897 H2885 0.950 . S
C2897 C2893 1.393 . S
C2897 C2896 1.391 . S
C2898 H2888 0.950 . S
C2898 C2899 1.386 . S
C2898 C2900 1.391 . S
C2899 C2898 1.386 . S
C2899 C2903 1.393 . S
C2900 H2889 0.950 . S
C2900 C2898 1.391 . S
C2900 C2901 1.400 . S
C2901 C2895 1.491 1_455 S
C2901 C2900 1.400 . S
C2901 C2902 1.398 . S
C2902 H2890 0.950 . S
C2902 C2901 1.398 . S
C2902 C2903 1.391 . S
C2903 H2891 0.950 . S
C2903 C2899 1.393 . S
C2903 C2902 1.391 . S
H2904 C2912 0.950 . S
H2905 C2917 0.950 . S
H2906 C2914 0.950 . S
H2907 C2916 0.950 . S
H2908 C2918 0.950 . S
H2909 C2920 0.950 . S
H2910 C2922 0.950 . S
H2911 C2923 0.950 . S
C2912 H2904 0.950 . S
C2912 C2913 1.386 . S
C2912 C2914 1.391 . S
C2913 C2912 1.386 . S
C2913 C2917 1.393 . S
C2914 H2906 0.950 . S
C2914 C2912 1.391 . S
C2914 C2915 1.400 . S
C2915 C2914 1.400 . S
C2915 C2916 1.398 . S
C2915 C2921 1.491 . S
C2916 H2907 0.950 . S
C2916 C2915 1.398 . S
C2916 C2917 1.391 . S
C2917 H2905 0.950 . S
C2917 C2913 1.393 . S
C2917 C2916 1.391 . S
C2918 H2908 0.950 . S
C2918 C2919 1.386 . S
C2918 C2920 1.391 . S
C2919 C2918 1.386 . S
C2919 C2923 1.393 . S
C2920 H2909 0.950 . S
C2920 C2918 1.391 . S
C2920 C2921 1.400 . S
C2921 C2915 1.491 . S
C2921 C2920 1.400 . S
C2921 C2922 1.398 . S
C2922 H2910 0.950 . S
C2922 C2921 1.398 . S
C2922 C2923 1.391 . S
C2923 H2911 0.950 . S
C2923 C2919 1.393 . S
C2923 C2922 1.391 . S
H2924 C2932 0.950 . S
H2925 C2937 0.950 . S
H2926 C2934 0.950 . S
H2927 C2936 0.950 . S
H2928 C2938 0.950 . S
H2929 C2940 0.950 . S
H2930 C2942 0.950 . S
H2931 C2943 0.950 . S
C2932 H2924 0.950 . S
C2932 C2933 1.386 . S
C2932 C2934 1.391 . S
C2933 C2932 1.386 . S
C2933 C2937 1.393 . S
C2934 H2926 0.950 . S
C2934 C2932 1.391 . S
C2934 C2935 1.400 . S
C2935 C2934 1.400 . S
C2935 C2936 1.398 . S
C2935 C2941 1.491 1_545 S
C2936 H2927 0.950 . S
C2936 C2935 1.398 . S
C2936 C2937 1.391 . S
C2937 H2925 0.950 . S
C2937 C2933 1.393 . S
C2937 C2936 1.391 . S
C2938 H2928 0.950 . S
C2938 C2939 1.386 . S
C2938 C2940 1.391 . S
C2939 C2938 1.386 . S
C2939 C2943 1.393 . S
C2940 H2929 0.950 . S
C2940 C2938 1.391 . S
C2940 C2941 1.400 . S
C2941 C2935 1.491 1_565 S
C2941 C2940 1.400 . S
C2941 C2942 1.398 . S
C2942 H2930 0.950 . S
C2942 C2941 1.398 . S
C2942 C2943 1.391 . S
C2943 H2931 0.950 . S
C2943 C2939 1.393 . S
C2943 C2942 1.391 . S
H2944 C2952 0.950 . S
H2945 C2957 0.950 . S
H2946 C2954 0.950 . S
H2947 C2956 0.950 . S
H2948 C2958 0.950 . S
H2949 C2960 0.950 . S
H2950 C2962 0.950 . S
H2951 C2963 0.950 . S
C2952 H2944 0.950 . S
C2952 C2953 1.386 . S
C2952 C2954 1.391 . S
C2953 C2952 1.386 . S
C2953 C2957 1.393 . S
C2954 H2946 0.950 . S
C2954 C2952 1.391 . S
C2954 C2955 1.400 . S
C2955 C2954 1.400 . S
C2955 C2956 1.398 . S
C2955 C2961 1.491 1_655 S
C2956 H2947 0.950 . S
C2956 C2955 1.398 . S
C2956 C2957 1.391 . S
C2957 H2945 0.950 . S
C2957 C2953 1.393 . S
C2957 C2956 1.391 . S
C2958 H2948 0.950 . S
C2958 C2959 1.386 . S
C2958 C2960 1.391 . S
C2959 C2958 1.386 . S
C2959 C2963 1.393 . S
C2960 H2949 0.950 . S
C2960 C2958 1.391 . S
C2960 C2961 1.400 . S
C2961 C2955 1.491 1_455 S
C2961 C2960 1.400 . S
C2961 C2962 1.398 . S
C2962 H2950 0.950 . S
C2962 C2961 1.398 . S
C2962 C2963 1.391 . S
C2963 H2951 0.950 . S
C2963 C2959 1.393 . S
C2963 C2962 1.391 . S
H2964 C2972 0.950 . S
H2965 C2977 0.950 . S
H2966 C2974 0.950 . S
H2967 C2976 0.950 . S
H2968 C2978 0.950 . S
H2969 C2980 0.950 . S
H2970 C2982 0.950 . S
H2971 C2983 0.950 . S
C2972 H2964 0.950 . S
C2972 C2973 1.386 . S
C2972 C2974 1.391 . S
C2973 C2972 1.386 . S
C2973 C2977 1.393 . S
C2974 H2966 0.950 . S
C2974 C2972 1.391 . S
C2974 C2975 1.400 . S
C2975 C2974 1.400 . S
C2975 C2976 1.398 . S
C2975 C2981 1.491 . S
C2976 H2967 0.950 . S
C2976 C2975 1.398 . S
C2976 C2977 1.391 . S
C2977 H2965 0.950 . S
C2977 C2973 1.393 . S
C2977 C2976 1.391 . S
C2978 H2968 0.950 . S
C2978 C2979 1.386 . S
C2978 C2980 1.391 . S
C2979 C2978 1.386 . S
C2979 C2983 1.393 . S
C2980 H2969 0.950 . S
C2980 C2978 1.391 . S
C2980 C2981 1.400 . S
C2981 C2975 1.491 . S
C2981 C2980 1.400 . S
C2981 C2982 1.398 . S
C2982 H2970 0.950 . S
C2982 C2981 1.398 . S
C2982 C2983 1.391 . S
C2983 H2971 0.950 . S
C2983 C2979 1.393 . S
C2983 C2982 1.391 . S
H2984 C2992 0.950 . S
H2985 C2997 0.950 . S
H2986 C2994 0.950 . S
H2987 C2996 0.950 . S
H2988 C2998 0.950 . S
H2989 C3000 0.950 . S
H2990 C3002 0.950 . S
H2991 C3003 0.950 . S
C2992 H2984 0.950 . S
C2992 C2993 1.386 . S
C2992 C2994 1.391 . S
C2993 C2992 1.386 . S
C2993 C2997 1.393 . S
C2994 H2986 0.950 . S
C2994 C2992 1.391 . S
C2994 C2995 1.400 . S
C2995 C2994 1.400 . S
C2995 C2996 1.398 . S
C2995 C3001 1.491 . S
C2996 H2987 0.950 . S
C2996 C2995 1.398 . S
C2996 C2997 1.391 . S
C2997 H2985 0.950 . S
C2997 C2993 1.393 . S
C2997 C2996 1.391 . S
C2998 H2988 0.950 . S
C2998 C2999 1.386 . S
C2998 C3000 1.391 . S
C2999 C2998 1.386 . S
C2999 C3003 1.393 . S
C3000 H2989 0.950 . S
C3000 C2998 1.391 . S
C3000 C3001 1.400 . S
C3001 C2995 1.491 . S
C3001 C3000 1.400 . S
C3001 C3002 1.398 . S
C3002 H2990 0.950 . S
C3002 C3001 1.398 . S
C3002 C3003 1.391 . S
C3003 H2991 0.950 . S
C3003 C2999 1.393 . S
C3003 C3002 1.391 . S
H3004 C3012 0.950 . S
H3005 C3017 0.950 . S
H3006 C3014 0.950 . S
H3007 C3016 0.950 . S
H3008 C3018 0.950 . S
H3009 C3020 0.950 . S
H3010 C3022 0.950 . S
H3011 C3023 0.950 . S
C3012 H3004 0.950 . S
C3012 C3013 1.386 . S
C3012 C3014 1.391 . S
C3013 C3012 1.386 . S
C3013 C3017 1.393 . S
C3014 H3006 0.950 . S
C3014 C3012 1.391 . S
C3014 C3015 1.400 . S
C3015 C3014 1.400 . S
C3015 C3016 1.398 . S
C3015 C3021 1.491 . S
C3016 H3007 0.950 . S
C3016 C3015 1.398 . S
C3016 C3017 1.391 . S
C3017 H3005 0.950 . S
C3017 C3013 1.393 . S
C3017 C3016 1.391 . S
C3018 H3008 0.950 . S
C3018 C3019 1.386 . S
C3018 C3020 1.391 . S
C3019 C3018 1.386 . S
C3019 C3023 1.393 . S
C3020 H3009 0.950 . S
C3020 C3018 1.391 . S
C3020 C3021 1.400 . S
C3021 C3015 1.491 . S
C3021 C3020 1.400 . S
C3021 C3022 1.398 . S
C3022 H3010 0.950 . S
C3022 C3021 1.398 . S
C3022 C3023 1.391 . S
C3023 H3011 0.950 . S
C3023 C3019 1.393 . S
C3023 C3022 1.391 . S
H3024 C3032 0.950 . S
H3025 C3037 0.950 . S
H3026 C3034 0.950 . S
H3027 C3036 0.950 . S
H3028 C3038 0.950 . S
H3029 C3040 0.950 . S
H3030 C3042 0.950 . S
H3031 C3043 0.950 . S
C3032 H3024 0.950 . S
C3032 C3033 1.386 . S
C3032 C3034 1.391 . S
C3033 C3032 1.386 . S
C3033 C3037 1.393 . S
C3034 H3026 0.950 . S
C3034 C3032 1.391 . S
C3034 C3035 1.400 . S
C3035 C3034 1.400 . S
C3035 C3036 1.398 . S
C3035 C3041 1.491 . S
C3036 H3027 0.950 . S
C3036 C3035 1.398 . S
C3036 C3037 1.391 . S
C3037 H3025 0.950 . S
C3037 C3033 1.393 . S
C3037 C3036 1.391 . S
C3038 H3028 0.950 . S
C3038 C3039 1.386 . S
C3038 C3040 1.391 . S
C3039 C3038 1.386 . S
C3039 C3043 1.393 . S
C3040 H3029 0.950 . S
C3040 C3038 1.391 . S
C3040 C3041 1.400 . S
C3041 C3035 1.491 . S
C3041 C3040 1.400 . S
C3041 C3042 1.398 . S
C3042 H3030 0.950 . S
C3042 C3041 1.398 . S
C3042 C3043 1.391 . S
C3043 H3031 0.950 . S
C3043 C3039 1.393 . S
C3043 C3042 1.391 . S
H3044 C3052 0.950 . S
H3045 C3057 0.950 . S
H3046 C3054 0.950 . S
H3047 C3056 0.950 . S
H3048 C3058 0.950 . S
H3049 C3060 0.950 . S
H3050 C3062 0.950 . S
H3051 C3063 0.950 . S
C3052 H3044 0.950 . S
C3052 C3053 1.386 . S
C3052 C3054 1.391 . S
C3053 C3052 1.386 . S
C3053 C3057 1.393 . S
C3054 H3046 0.950 . S
C3054 C3052 1.391 . S
C3054 C3055 1.400 . S
C3055 C3054 1.400 . S
C3055 C3056 1.398 . S
C3055 C3061 1.491 . S
C3056 H3047 0.950 . S
C3056 C3055 1.398 . S
C3056 C3057 1.391 . S
C3057 H3045 0.950 . S
C3057 C3053 1.393 . S
C3057 C3056 1.391 . S
C3058 H3048 0.950 . S
C3058 C3059 1.386 . S
C3058 C3060 1.391 . S
C3059 C3058 1.386 . S
C3059 C3063 1.393 . S
C3060 H3049 0.950 . S
C3060 C3058 1.391 . S
C3060 C3061 1.400 . S
C3061 C3055 1.491 . S
C3061 C3060 1.400 . S
C3061 C3062 1.398 . S
C3062 H3050 0.950 . S
C3062 C3061 1.398 . S
C3062 C3063 1.391 . S
C3063 H3051 0.950 . S
C3063 C3059 1.393 . S
C3063 C3062 1.391 . S
H3064 C3072 0.950 . S
H3065 C3077 0.950 . S
H3066 C3074 0.950 . S
H3067 C3076 0.950 . S
H3068 C3078 0.950 . S
H3069 C3080 0.950 . S
H3070 C3082 0.950 . S
H3071 C3083 0.950 . S
C3072 H3064 0.950 . S
C3072 C3073 1.386 . S
C3072 C3074 1.391 . S
C3073 C3072 1.386 . S
C3073 C3077 1.393 . S
C3074 H3066 0.950 . S
C3074 C3072 1.391 . S
C3074 C3075 1.400 . S
C3075 C3074 1.400 . S
C3075 C3076 1.398 . S
C3075 C3081 1.491 . S
C3076 H3067 0.950 . S
C3076 C3075 1.398 . S
C3076 C3077 1.391 . S
C3077 H3065 0.950 . S
C3077 C3073 1.393 . S
C3077 C3076 1.391 . S
C3078 H3068 0.950 . S
C3078 C3079 1.386 . S
C3078 C3080 1.391 . S
C3079 C3078 1.386 . S
C3079 C3083 1.393 . S
C3080 H3069 0.950 . S
C3080 C3078 1.391 . S
C3080 C3081 1.400 . S
C3081 C3075 1.491 . S
C3081 C3080 1.400 . S
C3081 C3082 1.398 . S
C3082 H3070 0.950 . S
C3082 C3081 1.398 . S
C3082 C3083 1.391 . S
C3083 H3071 0.950 . S
C3083 C3079 1.393 . S
C3083 C3082 1.391 . S
H3084 C3092 0.950 . S
H3085 C3097 0.950 . S
H3086 C3094 0.950 . S
H3087 C3096 0.950 . S
H3088 C3098 0.950 . S
H3089 C3100 0.950 . S
H3090 C3102 0.950 . S
H3091 C3103 0.950 . S
C3092 H3084 0.950 . S
C3092 C3093 1.386 . S
C3092 C3094 1.391 . S
C3093 C3092 1.386 . S
C3093 C3097 1.393 . S
C3094 H3086 0.950 . S
C3094 C3092 1.391 . S
C3094 C3095 1.400 . S
C3095 C3094 1.400 . S
C3095 C3096 1.398 . S
C3095 C3101 1.491 . S
C3096 H3087 0.950 . S
C3096 C3095 1.398 . S
C3096 C3097 1.391 . S
C3097 H3085 0.950 . S
C3097 C3093 1.393 . S
C3097 C3096 1.391 . S
C3098 H3088 0.950 . S
C3098 C3099 1.386 . S
C3098 C3100 1.391 . S
C3099 C3098 1.386 . S
C3099 C3103 1.393 . S
C3100 H3089 0.950 . S
C3100 C3098 1.391 . S
C3100 C3101 1.400 . S
C3101 C3095 1.491 . S
C3101 C3100 1.400 . S
C3101 C3102 1.398 . S
C3102 H3090 0.950 . S
C3102 C3101 1.398 . S
C3102 C3103 1.391 . S
C3103 H3091 0.950 . S
C3103 C3099 1.393 . S
C3103 C3102 1.391 . S
H3104 C3112 0.950 . S
H3105 C3117 0.950 . S
H3106 C3114 0.950 . S
H3107 C3116 0.950 . S
H3108 C3118 0.950 . S
H3109 C3120 0.950 . S
H3110 C3122 0.950 . S
H3111 C3123 0.950 . S
C3112 H3104 0.950 . S
C3112 C3113 1.386 . S
C3112 C3114 1.391 . S
C3113 C3112 1.386 . S
C3113 C3117 1.393 . S
C3114 H3106 0.950 . S
C3114 C3112 1.391 . S
C3114 C3115 1.400 . S
C3115 C3114 1.400 . S
C3115 C3116 1.398 . S
C3115 C3121 1.491 . S
C3116 H3107 0.950 . S
C3116 C3115 1.398 . S
C3116 C3117 1.391 . S
C3117 H3105 0.950 . S
C3117 C3113 1.393 . S
C3117 C3116 1.391 . S
C3118 H3108 0.950 . S
C3118 C3119 1.386 . S
C3118 C3120 1.391 . S
C3119 C3118 1.386 . S
C3119 C3123 1.393 . S
C3120 H3109 0.950 . S
C3120 C3118 1.391 . S
C3120 C3121 1.400 . S
C3121 C3115 1.491 . S
C3121 C3120 1.400 . S
C3121 C3122 1.398 . S
C3122 H3110 0.950 . S
C3122 C3121 1.398 . S
C3122 C3123 1.391 . S
C3123 H3111 0.950 . S
C3123 C3119 1.393 . S
C3123 C3122 1.391 . S
H3124 C3132 0.950 . S
H3125 C3137 0.950 . S
H3126 C3134 0.950 . S
H3127 C3136 0.950 . S
H3128 C3138 0.950 . S
H3129 C3140 0.950 . S
H3130 C3142 0.950 . S
H3131 C3143 0.950 . S
C3132 H3124 0.950 . S
C3132 C3133 1.386 . S
C3132 C3134 1.391 . S
C3133 C3132 1.386 . S
C3133 C3137 1.393 . S
C3134 H3126 0.950 . S
C3134 C3132 1.391 . S
C3134 C3135 1.400 . S
C3135 C3134 1.400 . S
C3135 C3136 1.398 . S
C3135 C3141 1.491 . S
C3136 H3127 0.950 . S
C3136 C3135 1.398 . S
C3136 C3137 1.391 . S
C3137 H3125 0.950 . S
C3137 C3133 1.393 . S
C3137 C3136 1.391 . S
C3138 H3128 0.950 . S
C3138 C3139 1.386 . S
C3138 C3140 1.391 . S
C3139 C3138 1.386 . S
C3139 C3143 1.393 . S
C3140 H3129 0.950 . S
C3140 C3138 1.391 . S
C3140 C3141 1.400 . S
C3141 C3135 1.491 . S
C3141 C3140 1.400 . S
C3141 C3142 1.398 . S
C3142 H3130 0.950 . S
C3142 C3141 1.398 . S
C3142 C3143 1.391 . S
C3143 H3131 0.950 . S
C3143 C3139 1.393 . S
C3143 C3142 1.391 . S
H3144 C3152 0.950 . S
H3145 C3157 0.950 . S
H3146 C3154 0.950 . S
H3147 C3156 0.950 . S
H3148 C3158 0.950 . S
H3149 C3160 0.950 . S
H3150 C3162 0.950 . S
H3151 C3163 0.950 . S
C3152 H3144 0.950 . S
C3152 C3153 1.386 . S
C3152 C3154 1.391 . S
C3153 C3152 1.386 . S
C3153 C3157 1.393 . S
C3154 H3146 0.950 . S
C3154 C3152 1.391 . S
C3154 C3155 1.400 . S
C3155 C3154 1.400 . S
C3155 C3156 1.398 . S
C3155 C3161 1.491 . S
C3156 H3147 0.950 . S
C3156 C3155 1.398 . S
C3156 C3157 1.391 . S
C3157 H3145 0.950 . S
C3157 C3153 1.393 . S
C3157 C3156 1.391 . S
C3158 H3148 0.950 . S
C3158 C3159 1.386 . S
C3158 C3160 1.391 . S
C3159 C3158 1.386 . S
C3159 C3163 1.393 . S
C3160 H3149 0.950 . S
C3160 C3158 1.391 . S
C3160 C3161 1.400 . S
C3161 C3155 1.491 . S
C3161 C3160 1.400 . S
C3161 C3162 1.398 . S
C3162 H3150 0.950 . S
C3162 C3161 1.398 . S
C3162 C3163 1.391 . S
C3163 H3151 0.950 . S
C3163 C3159 1.393 . S
C3163 C3162 1.391 . S
H3164 C3172 0.950 . S
H3165 C3177 0.950 . S
H3166 C3174 0.950 . S
H3167 C3176 0.950 . S
H3168 C3178 0.950 . S
H3169 C3180 0.950 . S
H3170 C3182 0.950 . S
H3171 C3183 0.950 . S
C3172 H3164 0.950 . S
C3172 C3173 1.386 . S
C3172 C3174 1.391 . S
C3173 C3172 1.386 . S
C3173 C3177 1.393 . S
C3174 H3166 0.950 . S
C3174 C3172 1.391 . S
C3174 C3175 1.400 . S
C3175 C3174 1.400 . S
C3175 C3176 1.398 . S
C3175 C3181 1.491 . S
C3176 H3167 0.950 . S
C3176 C3175 1.398 . S
C3176 C3177 1.391 . S
C3177 H3165 0.950 . S
C3177 C3173 1.393 . S
C3177 C3176 1.391 . S
C3178 H3168 0.950 . S
C3178 C3179 1.386 . S
C3178 C3180 1.391 . S
C3179 C3178 1.386 . S
C3179 C3183 1.393 . S
C3180 H3169 0.950 . S
C3180 C3178 1.391 . S
C3180 C3181 1.400 . S
C3181 C3175 1.491 . S
C3181 C3180 1.400 . S
C3181 C3182 1.398 . S
C3182 H3170 0.950 . S
C3182 C3181 1.398 . S
C3182 C3183 1.391 . S
C3183 H3171 0.950 . S
C3183 C3179 1.393 . S
C3183 C3182 1.391 . S
H3184 C3192 0.950 . S
H3185 C3197 0.950 . S
H3186 C3194 0.950 . S
H3187 C3196 0.950 . S
H3188 C3198 0.950 . S
H3189 C3200 0.950 . S
H3190 C3202 0.950 . S
H3191 C3203 0.950 . S
C3192 H3184 0.950 . S
C3192 C3193 1.386 . S
C3192 C3194 1.391 . S
C3193 C3192 1.386 . S
C3193 C3197 1.393 . S
C3194 H3186 0.950 . S
C3194 C3192 1.391 . S
C3194 C3195 1.400 . S
C3195 C3194 1.400 . S
C3195 C3196 1.398 . S
C3195 C3201 1.491 . S
C3196 H3187 0.950 . S
C3196 C3195 1.398 . S
C3196 C3197 1.391 . S
C3197 H3185 0.950 . S
C3197 C3193 1.393 . S
C3197 C3196 1.391 . S
C3198 H3188 0.950 . S
C3198 C3199 1.386 . S
C3198 C3200 1.391 . S
C3199 C3198 1.386 . S
C3199 C3203 1.393 . S
C3200 H3189 0.950 . S
C3200 C3198 1.391 . S
C3200 C3201 1.400 . S
C3201 C3195 1.491 . S
C3201 C3200 1.400 . S
C3201 C3202 1.398 . S
C3202 H3190 0.950 . S
C3202 C3201 1.398 . S
C3202 C3203 1.391 . S
C3203 H3191 0.950 . S
C3203 C3199 1.393 . S
C3203 C3202 1.391 . S
H3204 C3212 0.950 . S
H3205 C3217 0.950 . S
H3206 C3214 0.950 . S
H3207 C3216 0.950 . S
H3208 C3218 0.950 . S
H3209 C3220 0.950 . S
H3210 C3222 0.950 . S
H3211 C3223 0.950 . S
C3212 H3204 0.950 . S
C3212 C3213 1.386 . S
C3212 C3214 1.391 . S
C3213 C3212 1.386 . S
C3213 C3217 1.393 . S
C3214 H3206 0.950 . S
C3214 C3212 1.391 . S
C3214 C3215 1.400 . S
C3215 C3214 1.400 . S
C3215 C3216 1.398 . S
C3215 C3221 1.491 . S
C3216 H3207 0.950 . S
C3216 C3215 1.398 . S
C3216 C3217 1.391 . S
C3217 H3205 0.950 . S
C3217 C3213 1.393 . S
C3217 C3216 1.391 . S
C3218 H3208 0.950 . S
C3218 C3219 1.386 . S
C3218 C3220 1.391 . S
C3219 C3218 1.386 . S
C3219 C3223 1.393 . S
C3220 H3209 0.950 . S
C3220 C3218 1.391 . S
C3220 C3221 1.400 . S
C3221 C3215 1.491 . S
C3221 C3220 1.400 . S
C3221 C3222 1.398 . S
C3222 H3210 0.950 . S
C3222 C3221 1.398 . S
C3222 C3223 1.391 . S
C3223 H3211 0.950 . S
C3223 C3219 1.393 . S
C3223 C3222 1.391 . S
H3224 C3232 0.950 . S
H3225 C3237 0.950 . S
H3226 C3234 0.950 . S
H3227 C3236 0.950 . S
H3228 C3238 0.950 . S
H3229 C3240 0.950 . S
H3230 C3242 0.950 . S
H3231 C3243 0.950 . S
C3232 H3224 0.950 . S
C3232 C3233 1.386 . S
C3232 C3234 1.391 . S
C3233 C3232 1.386 . S
C3233 C3237 1.393 . S
C3234 H3226 0.950 . S
C3234 C3232 1.391 . S
C3234 C3235 1.400 . S
C3235 C3234 1.400 . S
C3235 C3236 1.398 . S
C3235 C3241 1.491 . S
C3236 H3227 0.950 . S
C3236 C3235 1.398 . S
C3236 C3237 1.391 . S
C3237 H3225 0.950 . S
C3237 C3233 1.393 . S
C3237 C3236 1.391 . S
C3238 H3228 0.950 . S
C3238 C3239 1.386 . S
C3238 C3240 1.391 . S
C3239 C3238 1.386 . S
C3239 C3243 1.393 . S
C3240 H3229 0.950 . S
C3240 C3238 1.391 . S
C3240 C3241 1.400 . S
C3241 C3235 1.491 . S
C3241 C3240 1.400 . S
C3241 C3242 1.398 . S
C3242 H3230 0.950 . S
C3242 C3241 1.398 . S
C3242 C3243 1.391 . S
C3243 H3231 0.950 . S
C3243 C3239 1.393 . S
C3243 C3242 1.391 . S
H3244 C3252 0.950 . S
H3245 C3257 0.950 . S
H3246 C3254 0.950 . S
H3247 C3256 0.950 . S
H3248 C3258 0.950 . S
H3249 C3260 0.950 . S
H3250 C3262 0.950 . S
H3251 C3263 0.950 . S
C3252 H3244 0.950 . S
C3252 C3253 1.386 . S
C3252 C3254 1.391 . S
C3253 C3252 1.386 . S
C3253 C3257 1.393 . S
C3254 H3246 0.950 . S
C3254 C3252 1.391 . S
C3254 C3255 1.400 . S
C3255 C3254 1.400 . S
C3255 C3256 1.398 . S
C3255 C3261 1.491 . S
C3256 H3247 0.950 . S
C3256 C3255 1.398 . S
C3256 C3257 1.391 . S
C3257 H3245 0.950 . S
C3257 C3253 1.393 . S
C3257 C3256 1.391 . S
C3258 H3248 0.950 . S
C3258 C3259 1.386 . S
C3258 C3260 1.391 . S
C3259 C3258 1.386 . S
C3259 C3263 1.393 . S
C3260 H3249 0.950 . S
C3260 C3258 1.391 . S
C3260 C3261 1.400 . S
C3261 C3255 1.491 . S
C3261 C3260 1.400 . S
C3261 C3262 1.398 . S
C3262 H3250 0.950 . S
C3262 C3261 1.398 . S
C3262 C3263 1.391 . S
C3263 H3251 0.950 . S
C3263 C3259 1.393 . S
C3263 C3262 1.391 . S
H3264 C3272 0.950 . S
H3265 C3277 0.950 . S
H3266 C3274 0.950 . S
H3267 C3276 0.950 . S
H3268 C3278 0.950 . S
H3269 C3280 0.950 . S
H3270 C3282 0.950 . S
H3271 C3283 0.950 . S
C3272 H3264 0.950 . S
C3272 C3273 1.386 . S
C3272 C3274 1.391 . S
C3273 C3272 1.386 . S
C3273 C3277 1.393 . S
C3274 H3266 0.950 . S
C3274 C3272 1.391 . S
C3274 C3275 1.400 . S
C3275 C3274 1.400 . S
C3275 C3276 1.398 . S
C3275 C3281 1.491 . S
C3276 H3267 0.950 . S
C3276 C3275 1.398 . S
C3276 C3277 1.391 . S
C3277 H3265 0.950 . S
C3277 C3273 1.393 . S
C3277 C3276 1.391 . S
C3278 H3268 0.950 . S
C3278 C3279 1.386 . S
C3278 C3280 1.391 . S
C3279 C3278 1.386 . S
C3279 C3283 1.393 . S
C3280 H3269 0.950 . S
C3280 C3278 1.391 . S
C3280 C3281 1.400 . S
C3281 C3275 1.491 . S
C3281 C3280 1.400 . S
C3281 C3282 1.398 . S
C3282 H3270 0.950 . S
C3282 C3281 1.398 . S
C3282 C3283 1.391 . S
C3283 H3271 0.950 . S
C3283 C3279 1.393 . S
C3283 C3282 1.391 . S
H3284 C3292 0.950 . S
H3285 C3297 0.950 . S
H3286 C3294 0.950 . S
H3287 C3296 0.950 . S
H3288 C3298 0.950 . S
H3289 C3300 0.950 . S
H3290 C3302 0.950 . S
H3291 C3303 0.950 . S
C3292 H3284 0.950 . S
C3292 C3293 1.386 . S
C3292 C3294 1.391 . S
C3293 C3292 1.386 . S
C3293 C3297 1.393 . S
C3294 H3286 0.950 . S
C3294 C3292 1.391 . S
C3294 C3295 1.400 . S
C3295 C3294 1.400 . S
C3295 C3296 1.398 . S
C3295 C3301 1.491 . S
C3296 H3287 0.950 . S
C3296 C3295 1.398 . S
C3296 C3297 1.391 . S
C3297 H3285 0.950 . S
C3297 C3293 1.393 . S
C3297 C3296 1.391 . S
C3298 H3288 0.950 . S
C3298 C3299 1.386 . S
C3298 C3300 1.391 . S
C3299 C3298 1.386 . S
C3299 C3303 1.393 . S
C3300 H3289 0.950 . S
C3300 C3298 1.391 . S
C3300 C3301 1.400 . S
C3301 C3295 1.491 . S
C3301 C3300 1.400 . S
C3301 C3302 1.398 . S
C3302 H3290 0.950 . S
C3302 C3301 1.398 . S
C3302 C3303 1.391 . S
C3303 H3291 0.950 . S
C3303 C3299 1.393 . S
C3303 C3302 1.391 . S
H3304 C3312 0.950 . S
H3305 C3317 0.950 . S
H3306 C3314 0.950 . S
H3307 C3316 0.950 . S
H3308 C3318 0.950 . S
H3309 C3320 0.950 . S
H3310 C3322 0.950 . S
H3311 C3323 0.950 . S
C3312 H3304 0.950 . S
C3312 C3313 1.386 . S
C3312 C3314 1.391 . S
C3313 C3312 1.386 . S
C3313 C3317 1.393 . S
C3314 H3306 0.950 . S
C3314 C3312 1.391 . S
C3314 C3315 1.400 . S
C3315 C3314 1.400 . S
C3315 C3316 1.398 . S
C3315 C3321 1.491 . S
C3316 H3307 0.950 . S
C3316 C3315 1.398 . S
C3316 C3317 1.391 . S
C3317 H3305 0.950 . S
C3317 C3313 1.393 . S
C3317 C3316 1.391 . S
C3318 H3308 0.950 . S
C3318 C3319 1.386 . S
C3318 C3320 1.391 . S
C3319 C3318 1.386 . S
C3319 C3323 1.393 . S
C3320 H3309 0.950 . S
C3320 C3318 1.391 . S
C3320 C3321 1.400 . S
C3321 C3315 1.491 . S
C3321 C3320 1.400 . S
C3321 C3322 1.398 . S
C3322 H3310 0.950 . S
C3322 C3321 1.398 . S
C3322 C3323 1.391 . S
C3323 H3311 0.950 . S
C3323 C3319 1.393 . S
C3323 C3322 1.391 . S
H3324 C3332 0.950 . S
H3325 C3337 0.950 . S
H3326 C3334 0.950 . S
H3327 C3336 0.950 . S
H3328 C3338 0.950 . S
H3329 C3340 0.950 . S
H3330 C3342 0.950 . S
H3331 C3343 0.950 . S
C3332 H3324 0.950 . S
C3332 C3333 1.386 . S
C3332 C3334 1.391 . S
C3333 C3332 1.386 . S
C3333 C3337 1.393 . S
C3334 H3326 0.950 . S
C3334 C3332 1.391 . S
C3334 C3335 1.400 . S
C3335 C3334 1.400 . S
C3335 C3336 1.398 . S
C3335 C3341 1.491 . S
C3336 H3327 0.950 . S
C3336 C3335 1.398 . S
C3336 C3337 1.391 . S
C3337 H3325 0.950 . S
C3337 C3333 1.393 . S
C3337 C3336 1.391 . S
C3338 H3328 0.950 . S
C3338 C3339 1.386 . S
C3338 C3340 1.391 . S
C3339 C3338 1.386 . S
C3339 C3343 1.393 . S
C3340 H3329 0.950 . S
C3340 C3338 1.391 . S
C3340 C3341 1.400 . S
C3341 C3335 1.491 . S
C3341 C3340 1.400 . S
C3341 C3342 1.398 . S
C3342 H3330 0.950 . S
C3342 C3341 1.398 . S
C3342 C3343 1.391 . S
C3343 H3331 0.950 . S
C3343 C3339 1.393 . S
C3343 C3342 1.391 . S
H3344 C3352 0.950 . S
H3345 C3357 0.950 . S
H3346 C3354 0.950 . S
H3347 C3356 0.950 . S
H3348 C3358 0.950 . S
H3349 C3360 0.950 . S
H3350 C3362 0.950 . S
H3351 C3363 0.950 . S
C3352 H3344 0.950 . S
C3352 C3353 1.386 . S
C3352 C3354 1.391 . S
C3353 C3352 1.386 . S
C3353 C3357 1.393 . S
C3354 H3346 0.950 . S
C3354 C3352 1.391 . S
C3354 C3355 1.400 . S
C3355 C3354 1.400 . S
C3355 C3356 1.398 . S
C3355 C3361 1.491 . S
C3356 H3347 0.950 . S
C3356 C3355 1.398 . S
C3356 C3357 1.391 . S
C3357 H3345 0.950 . S
C3357 C3353 1.393 . S
C3357 C3356 1.391 . S
C3358 H3348 0.950 . S
C3358 C3359 1.386 . S
C3358 C3360 1.391 . S
C3359 C3358 1.386 . S
C3359 C3363 1.393 . S
C3360 H3349 0.950 . S
C3360 C3358 1.391 . S
C3360 C3361 1.400 . S
C3361 C3355 1.491 . S
C3361 C3360 1.400 . S
C3361 C3362 1.398 . S
C3362 H3350 0.950 . S
C3362 C3361 1.398 . S
C3362 C3363 1.391 . S
C3363 H3351 0.950 . S
C3363 C3359 1.393 . S
C3363 C3362 1.391 . S
H3364 C3372 0.950 . S
H3365 C3377 0.950 . S
H3366 C3374 0.950 . S
H3367 C3376 0.950 . S
H3368 C3378 0.950 . S
H3369 C3380 0.950 . S
H3370 C3382 0.950 . S
H3371 C3383 0.950 . S
C3372 H3364 0.950 . S
C3372 C3373 1.386 . S
C3372 C3374 1.391 . S
C3373 C3372 1.386 . S
C3373 C3377 1.393 . S
C3374 H3366 0.950 . S
C3374 C3372 1.391 . S
C3374 C3375 1.400 . S
C3375 C3374 1.400 . S
C3375 C3376 1.398 . S
C3375 C3381 1.491 . S
C3376 H3367 0.950 . S
C3376 C3375 1.398 . S
C3376 C3377 1.391 . S
C3377 H3365 0.950 . S
C3377 C3373 1.393 . S
C3377 C3376 1.391 . S
C3378 H3368 0.950 . S
C3378 C3379 1.386 . S
C3378 C3380 1.391 . S
C3379 C3378 1.386 . S
C3379 C3383 1.393 . S
C3380 H3369 0.950 . S
C3380 C3378 1.391 . S
C3380 C3381 1.400 . S
C3381 C3375 1.491 . S
C3381 C3380 1.400 . S
C3381 C3382 1.398 . S
C3382 H3370 0.950 . S
C3382 C3381 1.398 . S
C3382 C3383 1.391 . S
C3383 H3371 0.950 . S
C3383 C3379 1.393 . S
C3383 C3382 1.391 . S
H3384 C3392 0.950 . S
H3385 C3397 0.950 . S
H3386 C3394 0.950 . S
H3387 C3396 0.950 . S
H3388 C3398 0.950 . S
H3389 C3400 0.950 . S
H3390 C3402 0.950 . S
H3391 C3403 0.950 . S
C3392 H3384 0.950 . S
C3392 C3393 1.386 . S
C3392 C3394 1.391 . S
C3393 C3392 1.386 . S
C3393 C3397 1.393 . S
C3394 H3386 0.950 . S
C3394 C3392 1.391 . S
C3394 C3395 1.400 . S
C3395 C3394 1.400 . S
C3395 C3396 1.398 . S
C3395 C3401 1.491 . S
C3396 H3387 0.950 . S
C3396 C3395 1.398 . S
C3396 C3397 1.391 . S
C3397 H3385 0.950 . S
C3397 C3393 1.393 . S
C3397 C3396 1.391 . S
C3398 H3388 0.950 . S
C3398 C3399 1.386 . S
C3398 C3400 1.391 . S
C3399 C3398 1.386 . S
C3399 C3403 1.393 . S
C3400 H3389 0.950 . S
C3400 C3398 1.391 . S
C3400 C3401 1.400 . S
C3401 C3395 1.491 . S
C3401 C3400 1.400 . S
C3401 C3402 1.398 . S
C3402 H3390 0.950 . S
C3402 C3401 1.398 . S
C3402 C3403 1.391 . S
C3403 H3391 0.950 . S
C3403 C3399 1.393 . S
C3403 C3402 1.391 . S
H3404 C3412 0.950 . S
H3405 C3417 0.950 . S
H3406 C3414 0.950 . S
H3407 C3416 0.950 . S
H3408 C3418 0.950 . S
H3409 C3420 0.950 . S
H3410 C3422 0.950 . S
H3411 C3423 0.950 . S
C3412 H3404 0.950 . S
C3412 C3413 1.386 . S
C3412 C3414 1.391 . S
C3413 C3412 1.386 . S
C3413 C3417 1.393 . S
C3414 H3406 0.950 . S
C3414 C3412 1.391 . S
C3414 C3415 1.400 . S
C3415 C3414 1.400 . S
C3415 C3416 1.398 . S
C3415 C3421 1.491 . S
C3416 H3407 0.950 . S
C3416 C3415 1.398 . S
C3416 C3417 1.391 . S
C3417 H3405 0.950 . S
C3417 C3413 1.393 . S
C3417 C3416 1.391 . S
C3418 H3408 0.950 . S
C3418 C3419 1.386 . S
C3418 C3420 1.391 . S
C3419 C3418 1.386 . S
C3419 C3423 1.393 . S
C3420 H3409 0.950 . S
C3420 C3418 1.391 . S
C3420 C3421 1.400 . S
C3421 C3415 1.491 . S
C3421 C3420 1.400 . S
C3421 C3422 1.398 . S
C3422 H3410 0.950 . S
C3422 C3421 1.398 . S
C3422 C3423 1.391 . S
C3423 H3411 0.950 . S
C3423 C3419 1.393 . S
C3423 C3422 1.391 . S
H3424 C3432 0.950 . S
H3425 C3437 0.950 . S
H3426 C3434 0.950 . S
H3427 C3436 0.950 . S
H3428 C3438 0.950 . S
H3429 C3440 0.950 . S
H3430 C3442 0.950 . S
H3431 C3443 0.950 . S
C3432 H3424 0.950 . S
C3432 C3433 1.386 . S
C3432 C3434 1.391 . S
C3433 C3432 1.386 . S
C3433 C3437 1.393 . S
C3434 H3426 0.950 . S
C3434 C3432 1.391 . S
C3434 C3435 1.400 . S
C3435 C3434 1.400 . S
C3435 C3436 1.398 . S
C3435 C3441 1.491 . S
C3436 H3427 0.950 . S
C3436 C3435 1.398 . S
C3436 C3437 1.391 . S
C3437 H3425 0.950 . S
C3437 C3433 1.393 . S
C3437 C3436 1.391 . S
C3438 H3428 0.950 . S
C3438 C3439 1.386 . S
C3438 C3440 1.391 . S
C3439 C3438 1.386 . S
C3439 C3443 1.393 . S
C3440 H3429 0.950 . S
C3440 C3438 1.391 . S
C3440 C3441 1.400 . S
C3441 C3435 1.491 . S
C3441 C3440 1.400 . S
C3441 C3442 1.398 . S
C3442 H3430 0.950 . S
C3442 C3441 1.398 . S
C3442 C3443 1.391 . S
C3443 H3431 0.950 . S
C3443 C3439 1.393 . S
C3443 C3442 1.391 . S
H3444 C3452 0.950 . S
H3445 C3457 0.950 . S
H3446 C3454 0.950 . S
H3447 C3456 0.950 . S
H3448 C3458 0.950 . S
H3449 C3460 0.950 . S
H3450 C3462 0.950 . S
H3451 C3463 0.950 . S
C3452 H3444 0.950 . S
C3452 C3453 1.386 . S
C3452 C3454 1.391 . S
C3453 C3452 1.386 . S
C3453 C3457 1.393 . S
C3454 H3446 0.950 . S
C3454 C3452 1.391 . S
C3454 C3455 1.400 . S
C3455 C3454 1.400 . S
C3455 C3456 1.398 . S
C3455 C3461 1.491 1_455 S
C3456 H3447 0.950 . S
C3456 C3455 1.398 . S
C3456 C3457 1.391 . S
C3457 H3445 0.950 . S
C3457 C3453 1.393 . S
C3457 C3456 1.391 . S
C3458 H3448 0.950 . S
C3458 C3459 1.386 . S
C3458 C3460 1.391 . S
C3459 C3458 1.386 . S
C3459 C3463 1.393 . S
C3460 H3449 0.950 . S
C3460 C3458 1.391 . S
C3460 C3461 1.400 . S
C3461 C3455 1.491 1_655 S
C3461 C3460 1.400 . S
C3461 C3462 1.398 . S
C3462 H3450 0.950 . S
C3462 C3461 1.398 . S
C3462 C3463 1.391 . S
C3463 H3451 0.950 . S
C3463 C3459 1.393 . S
C3463 C3462 1.391 . S
H3464 C3472 0.950 . S
H3465 C3477 0.950 . S
H3466 C3474 0.950 . S
H3467 C3476 0.950 . S
H3468 C3478 0.950 . S
H3469 C3480 0.950 . S
H3470 C3482 0.950 . S
H3471 C3483 0.950 . S
C3472 H3464 0.950 . S
C3472 C3473 1.386 . S
C3472 C3474 1.391 . S
C3473 C3472 1.386 . S
C3473 C3477 1.393 . S
C3474 H3466 0.950 . S
C3474 C3472 1.391 . S
C3474 C3475 1.400 . S
C3475 C3474 1.400 . S
C3475 C3476 1.398 . S
C3475 C3481 1.491 . S
C3476 H3467 0.950 . S
C3476 C3475 1.398 . S
C3476 C3477 1.391 . S
C3477 H3465 0.950 . S
C3477 C3473 1.393 . S
C3477 C3476 1.391 . S
C3478 H3468 0.950 . S
C3478 C3479 1.386 . S
C3478 C3480 1.391 . S
C3479 C3478 1.386 . S
C3479 C3483 1.393 . S
C3480 H3469 0.950 . S
C3480 C3478 1.391 . S
C3480 C3481 1.400 . S
C3481 C3475 1.491 . S
C3481 C3480 1.400 . S
C3481 C3482 1.398 . S
C3482 H3470 0.950 . S
C3482 C3481 1.398 . S
C3482 C3483 1.391 . S
C3483 H3471 0.950 . S
C3483 C3479 1.393 . S
C3483 C3482 1.391 . S
H3484 C3492 0.950 . S
H3485 C3497 0.950 . S
H3486 C3494 0.950 . S
H3487 C3496 0.950 . S
H3488 C3498 0.950 . S
H3489 C3500 0.950 . S
H3490 C3502 0.950 . S
H3491 C3503 0.950 . S
C3492 H3484 0.950 . S
C3492 C3493 1.386 . S
C3492 C3494 1.391 . S
C3493 C3492 1.386 . S
C3493 C3497 1.393 . S
C3494 H3486 0.950 . S
C3494 C3492 1.391 . S
C3494 C3495 1.400 . S
C3495 C3494 1.400 . S
C3495 C3496 1.398 . S
C3495 C3501 1.491 1_545 S
C3496 H3487 0.950 . S
C3496 C3495 1.398 . S
C3496 C3497 1.391 . S
C3497 H3485 0.950 . S
C3497 C3493 1.393 . S
C3497 C3496 1.391 . S
C3498 H3488 0.950 . S
C3498 C3499 1.386 . S
C3498 C3500 1.391 . S
C3499 C3498 1.386 . S
C3499 C3503 1.393 . S
C3500 H3489 0.950 . S
C3500 C3498 1.391 . S
C3500 C3501 1.400 . S
C3501 C3495 1.491 1_565 S
C3501 C3500 1.400 . S
C3501 C3502 1.398 . S
C3502 H3490 0.950 . S
C3502 C3501 1.398 . S
C3502 C3503 1.391 . S
C3503 H3491 0.950 . S
C3503 C3499 1.393 . S
C3503 C3502 1.391 . S
H3504 C3512 0.950 . S
H3505 C3517 0.950 . S
H3506 C3514 0.950 . S
H3507 C3516 0.950 . S
H3508 C3518 0.950 . S
H3509 C3520 0.950 . S
H3510 C3522 0.950 . S
H3511 C3523 0.950 . S
C3512 H3504 0.950 . S
C3512 C3513 1.386 . S
C3512 C3514 1.391 . S
C3513 C3512 1.386 . S
C3513 C3517 1.393 . S
C3514 H3506 0.950 . S
C3514 C3512 1.391 . S
C3514 C3515 1.400 . S
C3515 C3514 1.400 . S
C3515 C3516 1.398 . S
C3515 C3521 1.491 1_544 S
C3516 H3507 0.950 . S
C3516 C3515 1.398 . S
C3516 C3517 1.391 . S
C3517 H3505 0.950 . S
C3517 C3513 1.393 . S
C3517 C3516 1.391 . S
C3518 H3508 0.950 . S
C3518 C3519 1.386 . S
C3518 C3520 1.391 . S
C3519 C3518 1.386 . S
C3519 C3523 1.393 . S
C3520 H3509 0.950 . S
C3520 C3518 1.391 . S
C3520 C3521 1.400 . S
C3521 C3515 1.491 1_566 S
C3521 C3520 1.400 . S
C3521 C3522 1.398 . S
C3522 H3510 0.950 . S
C3522 C3521 1.398 . S
C3522 C3523 1.391 . S
C3523 H3511 0.950 . S
C3523 C3519 1.393 . S
C3523 C3522 1.391 . S
H3524 C3532 0.950 . S
H3525 C3537 0.950 . S
H3526 C3534 0.950 . S
H3527 C3536 0.950 . S
H3528 C3538 0.950 . S
H3529 C3540 0.950 . S
H3530 C3542 0.950 . S
H3531 C3543 0.950 . S
C3532 H3524 0.950 . S
C3532 C3533 1.386 1_556 S
C3532 C3534 1.391 . S
C3533 C3532 1.386 1_554 S
C3533 C3537 1.393 . S
C3534 H3526 0.950 . S
C3534 C3532 1.391 . S
C3534 C3535 1.400 1_556 S
C3535 C3534 1.400 1_554 S
C3535 C3536 1.398 . S
C3535 C3541 1.491 1_654 S
C3536 H3527 0.950 . S
C3536 C3535 1.398 . S
C3536 C3537 1.391 . S
C3537 H3525 0.950 . S
C3537 C3533 1.393 . S
C3537 C3536 1.391 . S
C3538 H3528 0.950 . S
C3538 C3539 1.386 1_554 S
C3538 C3540 1.391 . S
C3539 C3538 1.386 1_556 S
C3539 C3543 1.393 . S
C3540 H3529 0.950 . S
C3540 C3538 1.391 . S
C3540 C3541 1.400 1_554 S
C3541 C3535 1.491 1_456 S
C3541 C3540 1.400 1_556 S
C3541 C3542 1.398 . S
C3542 H3530 0.950 . S
C3542 C3541 1.398 . S
C3542 C3543 1.391 . S
C3543 H3531 0.950 . S
C3543 C3539 1.393 . S
C3543 C3542 1.391 . S
H3544 C3552 0.950 . S
H3545 C3557 0.950 . S
H3546 C3554 0.950 . S
H3547 C3556 0.950 . S
H3548 C3558 0.950 . S
H3549 C3560 0.950 . S
H3550 C3562 0.950 . S
H3551 C3563 0.950 . S
C3552 H3544 0.950 . S
C3552 C3553 1.386 . S
C3552 C3554 1.391 . S
C3553 C3552 1.386 . S
C3553 C3557 1.393 1_554 S
C3554 H3546 0.950 . S
C3554 C3552 1.391 . S
C3554 C3555 1.400 . S
C3555 C3554 1.400 . S
C3555 C3556 1.398 1_554 S
C3555 C3561 1.491 1_554 S
C3556 H3547 0.950 . S
C3556 C3555 1.398 1_556 S
C3556 C3557 1.391 . S
C3557 H3545 0.950 . S
C3557 C3553 1.393 1_556 S
C3557 C3556 1.391 . S
C3558 H3548 0.950 . S
C3558 C3559 1.386 . S
C3558 C3560 1.391 . S
C3559 C3558 1.386 . S
C3559 C3563 1.393 1_556 S
C3560 H3549 0.950 . S
C3560 C3558 1.391 . S
C3560 C3561 1.400 . S
C3561 C3555 1.491 1_556 S
C3561 C3560 1.400 . S
C3561 C3562 1.398 1_556 S
C3562 H3550 0.950 . S
C3562 C3561 1.398 1_554 S
C3562 C3563 1.391 . S
C3563 H3551 0.950 . S
C3563 C3559 1.393 1_554 S
C3563 C3562 1.391 . S
C2133 C593 1.296 . S
C2139 C33 1.278 . S
C2153 C652 1.293 . S
C2159 C92 1.275 . S
C2173 C151 1.276 . S
C2179 C534 1.297 . S
C2193 C210 1.276 . S
C2199 C475 1.292 . S
C2213 C269 1.278 . S
C2219 C357 1.290 . S
C2233 C416 1.293 . S
C2239 C328 1.285 . S
C2253 C239 1.293 . S
C2259 C387 1.284 . S
C2273 C298 1.286 . S
C2279 C446 1.284 . S
C2293 C505 1.286 . S
C2299 C180 1.292 . S
C2313 C121 1.283 . S
C2319 C564 1.289 . S
C2333 C623 1.284 . S
C2339 C3 1.285 . S
C2353 C682 1.275 . S
C2359 C62 1.293 . S
C2373 C1301 1.294 . S
C2379 C741 1.282 . S
C2393 C1360 1.286 . S
C2399 C800 1.283 . S
C2413 C859 1.283 . S
C2419 C1242 1.294 . S
C2433 C918 1.275 . S
C2439 C1183 1.296 . S
C2453 C977 1.277 . S
C2459 C1065 1.297 . S
C2473 C1036 1.277 . S
C2479 C1124 1.317 . S
C2493 C947 1.286 . S
C2499 C1095 1.283 . S
C2513 C1006 1.297 . S
C2519 C1154 1.278 . S
C2533 C888 1.294 . S
C2539 C1213 1.275 . S
C2553 C829 1.288 . S
C2559 C1272 1.290 . S
C2573 C711 1.285 . S
C2579 C1331 1.284 . S
C2593 C770 1.295 . S
C2599 C1390 1.280 . S
C2613 C1449 1.290 . S
C2619 C2009 1.283 . S
C2633 C2068 1.288 . S
C2639 C1508 1.280 . S
C2653 C1950 1.296 . S
C2659 C1567 1.275 . S
C2673 C1626 1.275 . S
C2679 C1891 1.296 . S
C2693 C1685 1.278 . S
C2699 C1773 1.296 . S
C2713 C1744 1.292 . S
C2719 C1832 1.283 . S
C2733 C1655 1.295 . S
C2739 C1803 1.282 . S
C2753 C1714 1.286 . S
C2759 C1862 1.283 . S
C2773 C1596 1.283 . S
C2779 C1921 1.292 . S
C2793 C1980 1.290 . S
C2799 C1537 1.283 . S
C2813 C1419 1.295 . S
C2819 C2039 1.274 . S
C2833 C2098 1.274 . S
C2839 C1478 1.322 . S
C2853 C182 1.576 . S
C2859 C5 1.576 . S
C2873 C241 1.577 . S
C2879 C64 1.576 . S
C2893 C123 1.577 . S
C2899 C300 1.576 . S
C2913 C536 1.575 . S
C2919 C359 1.576 . S
C2933 C595 1.574 . S
C2939 C418 1.575 . S
C2953 C654 1.576 . S
C2959 C477 1.574 . S
C2973 C890 1.576 . S
C2979 C713 1.576 . S
C2993 C949 1.575 . S
C2999 C772 1.574 . S
C3013 C831 1.576 . S
C3019 C1008 1.575 . S
C3033 C1067 1.575 . S
C3039 C1244 1.576 . S
C3053 C1303 1.575 . S
C3059 C1126 1.575 . S
C3073 C1185 1.575 . S
C3079 C1362 1.576 . S
C3093 C1598 1.574 . S
C3099 C1421 1.575 . S
C3113 C1657 1.575 . S
C3119 C1480 1.574 . S
C3133 C1539 1.575 . S
C3139 C1716 1.576 . S
C3153 C1775 1.575 . S
C3159 C1952 1.576 . S
C3173 C1834 1.575 . S
C3179 C2011 1.575 . S
C3193 C1893 1.576 . S
C3199 C2070 1.576 . S
C3213 C52 1.579 . S
C3219 C1114 1.579 . S
C3233 C1173 1.581 . S
C3239 C111 1.581 . S
C3253 C1232 1.580 . S
C3259 C170 1.580 . S
C3273 C1999 1.580 . S
C3279 C229 1.580 . S
C3293 C2058 1.581 . S
C3299 C288 1.581 . S
C3313 C2117 1.581 . S
C3319 C347 1.581 . S
C3333 C406 1.583 . S
C3339 C1468 1.583 . S
C3353 C1527 1.580 . S
C3359 C465 1.580 . S
C3373 C1586 1.582 . S
C3379 C524 1.582 . S
C3393 C583 1.580 . S
C3399 C937 1.580 . S
C3413 C642 1.580 . S
C3419 C996 1.580 . S
C3433 C701 1.582 . S
C3439 C1055 1.582 . S
C3453 C1822 1.580 . S
C3459 C760 1.580 . S
C3473 C1881 1.582 . S
C3479 C819 1.582 . S
C3493 C878 1.583 . S
C3499 C1940 1.583 . S
C3513 C1291 1.580 . S
C3519 C1645 1.580 . S
C3533 C1350 1.582 . S
C3539 C1704 1.582 . S
C3553 C1409 1.580 . S
C3559 C1763 1.580 . S
