# Generated by pormake.
# Topology snp, (6)-cn, num edge types: 1
# Building blocks:
#     Node 0, Type 0, BuildingBlock: GEDQOX_clean_sbu_0, # of connection points: 6
#     Node 1, Type 0, BuildingBlock: GEDQOX_clean_sbu_0, # of connection points: 6
#     Node 2, Type 0, BuildingBlock: GEDQOX_clean_sbu_0, # of connection points: 6
#     Node 3, Type 0, BuildingBlock: GEDQOX_clean_sbu_0, # of connection points: 6
#     Edge 4, Type (0, 0), BuildingBlock: OJICUG_clean_linker_0, # of connection points: 2
#     Edge 5, Type (0, 0), BuildingBlock: OJICUG_clean_linker_0, # of connection points: 2
#     Edge 6, Type (0, 0), BuildingBlock: OJICUG_clean_linker_0, # of connection points: 2
#     Edge 7, Type (0, 0), BuildingBlock: OJICUG_clean_linker_0, # of connection points: 2
#     Edge 8, Type (0, 0), BuildingBlock: OJICUG_clean_linker_0, # of connection points: 2
#     Edge 9, Type (0, 0), BuildingBlock: OJICUG_clean_linker_0, # of connection points: 2
#     Edge 10, Type (0, 0), BuildingBlock: OJICUG_clean_linker_0, # of connection points: 2
#     Edge 11, Type (0, 0), BuildingBlock: OJICUG_clean_linker_0, # of connection points: 2
#     Edge 12, Type (0, 0), BuildingBlock: OJICUG_clean_linker_0, # of connection points: 2
#     Edge 13, Type (0, 0), BuildingBlock: OJICUG_clean_linker_0, # of connection points: 2
#     Edge 14, Type (0, 0), BuildingBlock: OJICUG_clean_linker_0, # of connection points: 2
#     Edge 15, Type (0, 0), BuildingBlock: OJICUG_clean_linker_0, # of connection points: 2
# Relax obj value: 0.230
# Max RMSD: 0.253
# Mean RMSD: 0.236
data_MOF--net-snp--node1-GEDQOX_clean_sbu_0--edge1-OJICUG_clean_linker_0
_symmetry_space_group_name_H-M    P1
_symmetry_Int_Tables_number       1
_symmetry_cell_setting            triclinic
loop_
_symmetry_equiv_pos_as_xyz
'x, y, z'
_cell_length_a     19.220169
_cell_length_b     18.976928
_cell_length_c     28.76507
_cell_angle_alpha  81.009423
_cell_angle_beta   107.64934
_cell_angle_gamma 98.175824
loop_
_atom_site_label
_atom_site_type_symbol
_atom_site_fract_x
_atom_site_fract_y
_atom_site_fract_z
_atom_type_partial_charge
Nd0 Nd 0.2701 0.95224 0.10726 0.0
Nd1 Nd 0.27179 0.0932 0.1525 0.0
C2 C 0.30275 0.85567 0.06252 0.0
C3 C 0.28069 0.83585 1.01215 0.0
C4 C 0.33395 0.82057 0.99193 0.0
C5 C 0.31376 0.80238 0.94395 0.0
C6 C 0.23981 0.79861 0.91561 0.0
C7 C 0.18665 0.81411 0.936 0.0
C8 C 0.2069 0.8329 0.98368 0.0
C9 C 0.13675 -0.02271 0.11172 0.0
C10 C 0.24485 0.10935 1.03491 0.0
C11 C 0.25623 0.19409 0.20198 0.0
C12 C 0.25539 0.20398 0.25178 0.0
C13 C 0.22092 0.15152 0.28005 0.0
C14 C 0.21808 0.16401 0.32621 0.0
C15 C 0.24961 0.22919 0.34501 0.0
C16 C 0.28512 0.28085 0.3168 0.0
C17 C 0.28785 0.26836 0.27075 0.0
C18 C 0.405 0.05332 0.1541 0.0
C19 C 0.2743 0.93769 0.22126 0.0
O20 O 0.34213 0.91754 0.0694 0.0
O21 O 0.25252 0.84287 0.08589 0.0
O22 O 0.15408 0.91344 0.11192 0.0
O23 O 0.18543 0.02464 0.10213 0.0
O24 O 0.26313 0.04274 0.04107 0.0
O25 O 0.23786 0.13948 0.07151 0.0
O26 O 0.20137 0.15387 0.17661 0.0
O27 O 0.31913 0.18448 0.19645 0.0
O28 O 0.39014 0.1197 0.14475 0.0
O29 O 0.35207 0.01311 0.16295 0.0
O30 O 0.2531 0.0029 0.21204 0.0
O31 O 0.29707 0.90954 0.18976 0.0
H32 H 0.3912 0.82283 1.01324 0.0
H33 H 0.35583 0.79055 0.92921 0.0
H34 H 0.12942 0.81292 0.91475 0.0
H35 H 0.16479 0.84539 0.99814 0.0
H36 H 0.19542 0.10127 0.26625 0.0
H37 H 0.18978 0.12322 0.34665 0.0
H38 H 0.3112 0.33104 0.33037 0.0
H39 H 0.31493 0.30945 0.24968 0.0
Nd40 Nd 0.11722 0.26997 0.719 0.0
Nd41 Nd 0.97199 0.22732 0.74329 0.0
C42 C 0.21956 0.32436 0.67567 0.0
C43 C 0.22784 0.31659 0.627 0.0
C44 C 0.18056 0.34691 0.58303 0.0
C45 C 0.18428 0.33335 0.5374 0.0
C46 C 0.23568 0.28947 0.53448 0.0
C47 C 0.28418 0.26071 0.57846 0.0
C48 C 0.28038 0.27421 0.62409 0.0
C49 C 0.0742 0.12514 0.72247 0.0
C50 C 0.96147 0.25446 0.62879 0.0
C51 C 0.86427 0.167 0.77994 0.0
C52 C 0.84987 0.16271 0.82774 0.0
C53 C 0.80778 0.10281 0.84375 0.0
C54 C 0.79656 0.09651 0.89009 0.0
C55 C 0.82709 0.15026 0.92127 0.0
C56 C 0.8686 0.21074 0.90468 0.0
C57 C 0.88017 0.21674 0.85846 0.0
C58 C 0.00687 0.37186 0.72586 0.0
C59 C 0.12908 0.23117 0.83349 0.0
O60 O 0.16634 0.36016 0.67599 0.0
O61 O 0.22579 0.26672 0.70752 0.0
O62 O 0.14111 0.15256 0.73996 0.0
O63 O 0.03294 0.17436 0.70517 0.0
O64 O 0.02894 0.28649 0.64351 0.0
O65 O 0.92958 0.21707 0.66091 0.0
O66 O 0.91836 0.13247 0.77952 0.0
O67 O 0.86347 0.23035 0.75426 0.0
O68 O 0.94039 0.3408 0.71422 0.0
O69 O 0.05159 0.32747 0.75048 0.0
O70 O 0.05847 0.20889 0.8186 0.0
O71 O 0.16504 0.26562 0.80274 0.0
H72 H 0.13953 0.38003 0.58377 0.0
H73 H 0.14558 0.35592 0.50441 0.0
H74 H 0.32533 0.22776 0.57767 0.0
H75 H 0.31783 0.25038 0.65724 0.0
H76 H 0.78465 0.06025 0.82075 0.0
H77 H 0.76577 0.0484 0.902 0.0
H78 H 0.89252 0.25333 0.9275 0.0
H79 H 0.91343 0.26323 0.84691 0.0
Nd80 Nd 0.81865 0.911 0.18749 0.0
Nd81 Nd 0.82282 0.05284 0.23282 0.0
C82 C 0.83223 0.80959 0.13769 0.0
C83 C 0.83436 0.80012 0.0881 0.0
C84 C 0.87018 0.85253 0.06061 0.0
C85 C 0.8739 0.84051 1.01456 0.0
C86 C 0.84194 0.77586 0.9951 0.0
C87 C 0.80516 0.72427 1.02256 0.0
C88 C 0.80153 0.73629 0.06849 0.0
C89 C 0.68664 0.95144 0.18754 0.0
C90 C 0.81567 0.06632 0.11831 0.0
C91 C 0.79197 0.1501 0.27788 0.0
C92 C 0.81394 0.16978 0.3283 0.0
C93 C 0.76046 0.18412 0.34868 0.0
C94 C 0.78048 0.20226 0.39665 0.0
C95 C 0.8545 0.20696 0.42485 0.0
C96 C 0.9079 0.19243 0.40431 0.0
C97 C 0.88782 0.17369 0.35663 0.0
C98 C 0.95461 0.02698 0.22606 0.0
C99 C 0.84852 0.89589 0.30538 0.0
O100 O 0.88782 0.84766 0.16425 0.0
O101 O 0.76939 0.82156 0.14215 0.0
O102 O 0.70129 0.88498 0.19675 0.0
O103 O 0.7392 -0.00834 0.17808 0.0
O104 O 0.83579 0.00069 0.12724 0.0
O105 O 0.7949 0.09541 0.15033 0.0
O106 O 0.75155 0.08881 0.2707 0.0
O107 O 0.84246 0.16201 0.25473 0.0
O108 O 0.93809 0.09102 0.22629 0.0
O109 O 0.90629 -0.01994 0.23661 0.0
O110 O 0.83133 0.96286 0.29939 0.0
O111 O 0.85364 0.86502 0.26853 0.0
H112 H 0.89598 0.90236 0.07493 0.0
H113 H 0.90315 0.88122 0.9947 0.0
H114 H 0.77872 0.67451 1.00846 0.0
H115 H 0.7734 0.69529 0.08895 0.0
H116 H 0.70315 0.18116 0.32748 0.0
H117 H 0.73823 0.21334 0.4115 0.0
H118 H 0.96521 0.19436 0.42546 0.0
H119 H 0.93014 0.16199 0.34206 0.0
Nd120 Nd 0.12239 0.77812 0.5972 0.0
Nd121 Nd 0.97685 0.73619 0.62127 0.0
C122 C 0.23027 0.83796 0.56055 0.0
C123 C 0.24411 0.84138 0.51267 0.0
C124 C 0.29047 0.89817 0.49756 0.0
C125 C 0.30089 0.9038 0.45101 0.0
C126 C 0.26511 0.85255 0.41875 0.0
C127 C 0.21956 0.79497 0.43454 0.0
C128 C 0.20891 0.78963 0.48097 0.0
C129 C 0.08723 0.63376 0.61474 0.0
C130 C 0.9654 0.77434 0.50682 0.0
C131 C 0.87413 0.68271 0.66448 0.0
C132 C 0.86583 0.69049 0.71315 0.0
C133 C 0.91258 0.65951 0.75711 0.0
C134 C 0.90873 0.67288 0.80276 0.0
C135 C 0.85777 0.71725 0.8057 0.0
C136 C 0.80986 0.74676 0.76172 0.0
C137 C 0.81377 0.73342 0.71608 0.0
C138 C 0.02073 0.88101 0.61738 0.0
C139 C 0.1325 0.75131 0.71163 0.0
O140 O 0.17622 0.87265 0.56084 0.0
O141 O 0.231 0.77478 0.58644 0.0
O142 O 0.15377 0.66467 0.62624 0.0
O143 O 0.04244 0.67812 0.59015 0.0
O144 O 0.03606 0.79642 0.52176 0.0
O145 O 0.92926 0.74019 0.53754 0.0
O146 O 0.92695 0.64638 0.66413 0.0
O147 O 0.86848 0.74048 0.63276 0.0
O148 O 0.95375 0.85388 0.59972 0.0
O149 O 0.06139 0.83143 0.6351 0.0
O150 O 0.06491 0.71955 0.69685 0.0
O151 O 0.16463 0.78846 0.67957 0.0
H152 H 0.3175 0.93896 0.52139 0.0
H153 H 0.33507 0.94967 0.43974 0.0
H154 H 0.19158 0.75432 0.41085 0.0
H155 H 0.17244 0.74555 0.4919 0.0
H156 H 0.95325 0.62598 0.75637 0.0
H157 H 0.94696 0.64971 0.83576 0.0
H158 H 0.76906 0.78012 0.76251 0.0
H159 H 0.77673 0.75778 0.68293 0.0
C160 C 0.02181 0.94531 0.19953 0.0
C161 C 1.00383 0.01448 0.19858 0.0
H162 H 0.07465 0.87853 0.17023 0.0
C163 C 0.02789 0.07119 0.16762 0.0
H164 H 0.00505 0.90115 0.22387 0.0
C165 C 0.06774 0.05849 0.13707 0.0
C166 C 0.08601 -0.01063 0.13819 0.0
H167 H 0.01494 0.12527 0.16637 0.0
H168 H 0.085 0.10278 0.11301 0.0
C169 C 0.06149 0.93257 0.16888 0.0
C170 C 0.97817 -0.01264 0.63735 0.0
C171 C 0.03565 0.94684 0.64107 0.0
H172 H 0.94468 0.07376 0.66218 0.0
C173 C 0.1052 0.96336 0.6736 0.0
H174 H 0.92377 -0.02481 0.61306 0.0
C175 C 0.1169 0.01897 0.70233 0.0
C176 C 0.05939 0.05944 0.69864 0.0
H177 H 0.15034 0.93248 0.67753 0.0
H178 H 0.17129 0.03114 0.72663 0.0
C179 C 0.98985 0.04294 0.6661 0.0
C180 C 0.60639 0.05075 0.16752 0.0
C181 C 0.61478 -0.02296 0.18023 0.0
H182 H 0.53311 0.13288 0.14884 0.0
C183 C 0.55374 0.92891 0.18372 0.0
H184 H 0.65267 0.08916 0.16447 0.0
C185 C 0.48539 0.95407 0.17453 0.0
C186 C 0.47699 0.02777 0.16177 0.0
H187 H 0.55865 0.87193 0.19316 0.0
H188 H 0.43909 0.91566 0.17752 0.0
C189 C 0.53804 0.07591 0.15834 0.0
C190 C 0.10005 0.4715 0.71037 0.0
C191 C 0.02736 0.44018 0.69876 0.0
H192 H 0.17622 0.55681 0.69206 0.0
C193 C 0.97442 0.47223 0.65864 0.0
H194 H 0.1418 0.44778 0.74103 0.0
C195 C 0.99404 0.53422 0.63033 0.0
C196 C 0.06674 0.56551 0.64191 0.0
H197 H 0.91788 0.4489 0.64863 0.0
H198 H 0.95228 0.55795 0.59968 0.0
C199 C 0.11967 0.53348 0.68205 0.0
C200 C 0.25036 0.20468 0.47936 0.0
C201 C 0.23854 0.2736 0.48584 0.0
H202 H 0.26353 0.13663 0.43036 0.0
C203 C 0.22941 0.32729 0.44541 0.0
H204 H 0.25664 0.16171 0.50944 0.0
C205 C 0.23257 0.31269 0.39992 0.0
C206 C 0.24497 0.24398 0.39348 0.0
H207 H 0.22077 0.38109 0.44903 0.0
H208 H 0.22474 0.35536 0.36961 0.0
C209 C 0.25342 0.19003 0.43378 0.0
C210 C 0.87934 0.15969 1.01177 0.0
C211 C 0.81934 0.14072 0.97192 0.0
H212 H 0.92388 0.15278 0.09004 0.0
C213 C 0.75401 0.10728 0.98147 0.0
H214 H 0.93081 0.18469 1.006 0.0
C215 C 0.75065 0.0886 1.02978 0.0
C216 C 0.81202 0.10406 0.06929 0.0
H217 H 0.70634 0.093 0.95169 0.0
H218 H 0.70151 0.0585 1.03633 0.0
C219 C 0.87561 0.14143 0.06001 0.0
C220 C 0.95593 0.78212 0.41768 0.0
C221 C 0.92644 0.79451 0.45441 0.0
H222 H 0.95288 0.80261 0.3417 0.0
C223 C 0.86734 0.83668 0.44122 0.0
H224 H 1.00238 0.75092 0.42703 0.0
C225 C 0.84064 0.86869 0.39256 0.0
C226 C 0.87109 0.85724 0.35594 0.0
H227 H 0.84472 0.84837 0.46906 0.0
H228 H 0.79716 0.90342 0.38377 0.0
C229 C 0.92767 0.81196 0.36886 0.0
C230 C 0.12971 0.72014 0.79884 0.0
C231 C 0.1662 0.75563 0.76486 0.0
H232 H 0.12456 0.70563 0.87305 0.0
C233 C 0.23092 0.80075 0.78181 0.0
H234 H 0.08017 0.68449 0.78723 0.0
C235 C 0.25651 0.81272 0.83122 0.0
C236 C 0.21766 0.78011 0.86454 0.0
H237 H 0.2603 0.82906 0.75661 0.0
H238 H 0.30486 0.84994 0.84286 0.0
C239 C 0.15495 0.73247 0.84804 0.0
C240 C 0.85909 0.69279 0.93996 0.0
C241 C 0.84732 0.76157 0.94671 0.0
H242 H 0.87077 0.62473 0.89061 0.0
C243 C 0.84005 0.81601 0.90675 0.0
H244 H 0.86601 0.64974 0.97001 0.0
C245 C 0.84355 0.80176 0.86118 0.0
C246 C 0.85466 0.73275 0.85437 0.0
H247 H 0.83047 0.86949 0.91041 0.0
H248 H 0.8381 0.84508 0.83134 0.0
C249 C 0.86271 0.6786 0.89448 0.0
C250 C 0.3405 0.90865 0.30922 0.0
C251 C 0.27684 0.89946 0.27002 0.0
H252 H 0.38732 0.89951 0.38737 0.0
C253 C 0.21145 0.86808 0.27971 0.0
H254 H 0.39119 0.93421 0.30241 0.0
C255 C 0.20856 0.84942 0.32805 0.0
C256 C 0.27119 0.86223 0.36771 0.0
H257 H 0.16157 0.86156 0.25001 0.0
H258 H 0.15611 0.82907 0.3342 0.0
C259 C 0.33784 0.88987 0.35772 0.0
C260 C 0.13878 0.22398 0.92257 0.0
C261 C 0.16808 0.21109 0.88588 0.0
H262 H 0.14157 0.20374 0.99847 0.0
C263 C 0.22676 0.16839 0.89911 0.0
H264 H 0.09265 0.2556 0.91318 0.0
C265 C 0.25319 0.13632 0.94778 0.0
C266 C 0.22284 0.14817 0.98436 0.0
H267 H 0.2492 0.15631 0.87128 0.0
H268 H 0.29631 0.10116 0.9566 0.0
C269 C 0.16673 0.19403 0.97138 0.0
C270 C 0.93862 0.27378 0.49232 0.0
C271 C 0.87648 0.22544 0.47593 0.0
H272 H 0.01285 0.3224 0.55304 0.0
C273 C 0.83804 0.19217 0.50933 0.0
H274 H 0.96866 0.30114 0.46724 0.0
C275 C 0.86351 0.20421 0.55874 0.0
C276 C 0.92771 0.25005 0.57558 0.0
H277 H 0.79013 0.15439 0.49777 0.0
H278 H 0.83451 0.17538 0.584 0.0
C279 C 0.96374 0.28617 0.54151 0.0
loop_
_geom_bond_atom_site_label_1
_geom_bond_atom_site_label_2
_geom_bond_distance
_geom_bond_site_symmetry_2
_ccdc_geom_bond_type
Nd0 C2 2.836 1_554 S
Nd0 O20 2.500 . S
Nd0 O21 2.492 1_554 S
Nd0 O22 2.487 . S
Nd0 O23 2.682 1_565 S
Nd0 O24 2.410 1_565 S
Nd0 O29 2.414 1_565 S
Nd0 O31 2.424 . S
Nd1 C11 2.836 . S
Nd1 O23 2.414 . S
Nd1 O25 2.424 . S
Nd1 O26 2.500 . S
Nd1 O27 2.492 . S
Nd1 O28 2.487 . S
Nd1 O29 2.682 . S
Nd1 O30 2.410 . S
C2 Nd0 2.836 1_556 S
C2 C3 1.498 . S
C2 O20 1.258 1_556 S
C2 O21 1.239 . S
C3 C2 1.498 . S
C3 C4 1.366 . S
C3 C8 1.407 . S
C4 C3 1.366 . S
C4 C5 1.392 . S
C4 H32 0.930 . S
C5 C4 1.392 . S
C5 C6 1.398 . S
C5 H33 0.929 . S
C6 C5 1.398 . S
C6 C7 1.352 . S
C7 C6 1.352 . S
C7 C8 1.384 . S
C7 H34 0.930 . S
C8 C3 1.407 . S
C8 C7 1.384 . S
C8 H35 0.929 . S
C9 O22 1.241 1_545 S
C9 O23 1.273 . S
C10 O24 1.251 . S
C10 O25 1.268 . S
C11 Nd1 2.836 . S
C11 C12 1.498 . S
C11 O26 1.258 . S
C11 O27 1.239 . S
C12 C11 1.498 . S
C12 C13 1.366 . S
C12 C17 1.407 . S
C13 C12 1.366 . S
C13 C14 1.392 . S
C13 H36 0.930 . S
C14 C13 1.392 . S
C14 C15 1.398 . S
C14 H37 0.929 . S
C15 C14 1.398 . S
C15 C16 1.352 . S
C16 C15 1.352 . S
C16 C17 1.384 . S
C16 H38 0.930 . S
C17 C12 1.407 . S
C17 C16 1.384 . S
C17 H39 0.929 . S
C18 O28 1.241 . S
C18 O29 1.273 . S
C19 O30 1.251 1_565 S
C19 O31 1.268 . S
O20 Nd0 2.500 . S
O20 C2 1.258 1_554 S
O21 Nd0 2.492 1_556 S
O21 C2 1.239 . S
O22 Nd0 2.487 . S
O22 C9 1.241 1_565 S
O23 Nd0 2.682 1_545 S
O23 Nd1 2.414 . S
O23 C9 1.273 . S
O24 Nd0 2.410 1_545 S
O24 C10 1.251 . S
O25 Nd1 2.424 . S
O25 C10 1.268 . S
O26 Nd1 2.500 . S
O26 C11 1.258 . S
O27 Nd1 2.492 . S
O27 C11 1.239 . S
O28 Nd1 2.487 . S
O28 C18 1.241 . S
O29 Nd0 2.414 1_545 S
O29 Nd1 2.682 . S
O29 C18 1.273 . S
O30 Nd1 2.410 . S
O30 C19 1.251 1_545 S
O31 Nd0 2.424 . S
O31 C19 1.268 . S
H32 C4 0.930 . S
H33 C5 0.929 . S
H34 C7 0.930 . S
H35 C8 0.929 . S
H36 C13 0.930 . S
H37 C14 0.929 . S
H38 C16 0.930 . S
H39 C17 0.929 . S
Nd40 C42 2.836 . S
Nd40 O60 2.500 . S
Nd40 O61 2.492 . S
Nd40 O62 2.487 . S
Nd40 O63 2.682 . S
Nd40 O64 2.410 . S
Nd40 O69 2.414 . S
Nd40 O71 2.424 . S
Nd41 C51 2.836 . S
Nd41 O63 2.414 1_655 S
Nd41 O65 2.424 . S
Nd41 O66 2.500 . S
Nd41 O67 2.492 . S
Nd41 O68 2.487 1_655 S
Nd41 O69 2.682 1_655 S
Nd41 O70 2.410 1_655 S
C42 Nd40 2.836 . S
C42 C43 1.498 . S
C42 O60 1.258 . S
C42 O61 1.239 . S
C43 C42 1.498 . S
C43 C44 1.366 . S
C43 C48 1.407 . S
C44 C43 1.366 . S
C44 C45 1.392 . S
C44 H72 0.930 . S
C45 C44 1.392 . S
C45 C46 1.398 . S
C45 H73 0.929 . S
C46 C45 1.398 . S
C46 C47 1.352 . S
C47 C46 1.352 . S
C47 C48 1.384 . S
C47 H74 0.930 . S
C48 C43 1.407 . S
C48 C47 1.384 . S
C48 H75 0.929 . S
C49 O62 1.241 . S
C49 O63 1.273 . S
C50 O64 1.251 . S
C50 O65 1.268 1_455 S
C51 Nd41 2.836 . S
C51 C52 1.498 . S
C51 O66 1.258 . S
C51 O67 1.239 . S
C52 C51 1.498 . S
C52 C53 1.366 . S
C52 C57 1.407 . S
C53 C52 1.366 . S
C53 C54 1.392 . S
C53 H76 0.930 . S
C54 C53 1.392 . S
C54 C55 1.398 . S
C54 H77 0.929 . S
C55 C54 1.398 . S
C55 C56 1.352 . S
C56 C55 1.352 . S
C56 C57 1.384 . S
C56 H78 0.930 . S
C57 C52 1.407 . S
C57 C56 1.384 . S
C57 H79 0.929 . S
C58 O68 1.241 . S
C58 O69 1.273 . S
C59 O70 1.251 . S
C59 O71 1.268 . S
O60 Nd40 2.500 . S
O60 C42 1.258 . S
O61 Nd40 2.492 . S
O61 C42 1.239 . S
O62 Nd40 2.487 . S
O62 C49 1.241 . S
O63 Nd40 2.682 . S
O63 Nd41 2.414 1_455 S
O63 C49 1.273 . S
O64 Nd40 2.410 . S
O64 C50 1.251 . S
O65 Nd41 2.424 . S
O65 C50 1.268 1_655 S
O66 Nd41 2.500 . S
O66 C51 1.258 . S
O67 Nd41 2.492 . S
O67 C51 1.239 . S
O68 Nd41 2.487 1_455 S
O68 C58 1.241 . S
O69 Nd40 2.414 . S
O69 Nd41 2.682 1_455 S
O69 C58 1.273 . S
O70 Nd41 2.410 1_455 S
O70 C59 1.251 . S
O71 Nd40 2.424 . S
O71 C59 1.268 . S
H72 C44 0.930 . S
H73 C45 0.929 . S
H74 C47 0.930 . S
H75 C48 0.929 . S
H76 C53 0.930 . S
H77 C54 0.929 . S
H78 C56 0.930 . S
H79 C57 0.929 . S
Nd80 C82 2.836 . S
Nd80 O100 2.500 . S
Nd80 O101 2.492 . S
Nd80 O102 2.487 . S
Nd80 O103 2.682 1_565 S
Nd80 O104 2.410 1_565 S
Nd80 O109 2.414 . S
Nd80 O111 2.424 . S
Nd81 C91 2.836 . S
Nd81 O103 2.414 . S
Nd81 O105 2.424 . S
Nd81 O106 2.500 . S
Nd81 O107 2.492 . S
Nd81 O108 2.487 . S
Nd81 O109 2.682 1_545 S
Nd81 O110 2.410 1_545 S
C82 Nd80 2.836 . S
C82 C83 1.498 . S
C82 O100 1.258 . S
C82 O101 1.239 . S
C83 C82 1.498 . S
C83 C84 1.366 1_554 S
C83 C88 1.407 1_554 S
C84 C83 1.366 1_556 S
C84 C85 1.392 . S
C84 H112 0.930 1_556 S
C85 C84 1.392 . S
C85 C86 1.398 . S
C85 H113 0.929 . S
C86 C85 1.398 . S
C86 C87 1.352 . S
C87 C86 1.352 . S
C87 C88 1.384 . S
C87 H114 0.930 . S
C88 C83 1.407 1_556 S
C88 C87 1.384 . S
C88 H115 0.929 . S
C89 O102 1.241 . S
C89 O103 1.273 1_565 S
C90 O104 1.251 . S
C90 O105 1.268 . S
C91 Nd81 2.836 . S
C91 C92 1.498 . S
C91 O106 1.258 . S
C91 O107 1.239 . S
C92 C91 1.498 . S
C92 C93 1.366 . S
C92 C97 1.407 . S
C93 C92 1.366 . S
C93 C94 1.392 . S
C93 H116 0.930 . S
C94 C93 1.392 . S
C94 C95 1.398 . S
C94 H117 0.929 . S
C95 C94 1.398 . S
C95 C96 1.352 . S
C96 C95 1.352 . S
C96 C97 1.384 . S
C96 H118 0.930 . S
C97 C92 1.407 . S
C97 C96 1.384 . S
C97 H119 0.929 . S
C98 O108 1.241 . S
C98 O109 1.273 1_545 S
C99 O110 1.251 . S
C99 O111 1.268 . S
O100 Nd80 2.500 . S
O100 C82 1.258 . S
O101 Nd80 2.492 . S
O101 C82 1.239 . S
O102 Nd80 2.487 . S
O102 C89 1.241 . S
O103 Nd80 2.682 1_545 S
O103 Nd81 2.414 . S
O103 C89 1.273 1_545 S
O104 Nd80 2.410 1_545 S
O104 C90 1.251 . S
O105 Nd81 2.424 . S
O105 C90 1.268 . S
O106 Nd81 2.500 . S
O106 C91 1.258 . S
O107 Nd81 2.492 . S
O107 C91 1.239 . S
O108 Nd81 2.487 . S
O108 C98 1.241 . S
O109 Nd80 2.414 . S
O109 Nd81 2.682 1_565 S
O109 C98 1.273 1_565 S
O110 Nd81 2.410 1_565 S
O110 C99 1.251 . S
O111 Nd80 2.424 . S
O111 C99 1.268 . S
H112 C84 0.930 1_554 S
H113 C85 0.929 . S
H114 C87 0.930 . S
H115 C88 0.929 . S
H116 C93 0.930 . S
H117 C94 0.929 . S
H118 C96 0.930 . S
H119 C97 0.929 . S
Nd120 C122 2.836 . S
Nd120 O140 2.500 . S
Nd120 O141 2.492 . S
Nd120 O142 2.487 . S
Nd120 O143 2.682 1_455 S
Nd120 O144 2.410 1_455 S
Nd120 O149 2.414 . S
Nd120 O151 2.424 . S
Nd121 C131 2.836 . S
Nd121 O143 2.414 . S
Nd121 O145 2.424 . S
Nd121 O146 2.500 . S
Nd121 O147 2.492 . S
Nd121 O148 2.487 . S
Nd121 O149 2.682 1_655 S
Nd121 O150 2.410 1_655 S
C122 Nd120 2.836 . S
C122 C123 1.498 . S
C122 O140 1.258 . S
C122 O141 1.239 . S
C123 C122 1.498 . S
C123 C124 1.366 . S
C123 C128 1.407 . S
C124 C123 1.366 . S
C124 C125 1.392 . S
C124 H152 0.930 . S
C125 C124 1.392 . S
C125 C126 1.398 . S
C125 H153 0.929 . S
C126 C125 1.398 . S
C126 C127 1.352 . S
C127 C126 1.352 . S
C127 C128 1.384 . S
C127 H154 0.930 . S
C128 C123 1.407 . S
C128 C127 1.384 . S
C128 H155 0.929 . S
C129 O142 1.241 . S
C129 O143 1.273 1_455 S
C130 O144 1.251 . S
C130 O145 1.268 . S
C131 Nd121 2.836 . S
C131 C132 1.498 . S
C131 O146 1.258 . S
C131 O147 1.239 . S
C132 C131 1.498 . S
C132 C133 1.366 . S
C132 C137 1.407 . S
C133 C132 1.366 . S
C133 C134 1.392 . S
C133 H156 0.930 . S
C134 C133 1.392 . S
C134 C135 1.398 . S
C134 H157 0.929 . S
C135 C134 1.398 . S
C135 C136 1.352 . S
C136 C135 1.352 . S
C136 C137 1.384 . S
C136 H158 0.930 . S
C137 C132 1.407 . S
C137 C136 1.384 . S
C137 H159 0.929 . S
C138 O148 1.241 . S
C138 O149 1.273 1_655 S
C139 O150 1.251 . S
C139 O151 1.268 . S
O140 Nd120 2.500 . S
O140 C122 1.258 . S
O141 Nd120 2.492 . S
O141 C122 1.239 . S
O142 Nd120 2.487 . S
O142 C129 1.241 . S
O143 Nd120 2.682 1_655 S
O143 Nd121 2.414 . S
O143 C129 1.273 1_655 S
O144 Nd120 2.410 1_655 S
O144 C130 1.251 . S
O145 Nd121 2.424 . S
O145 C130 1.268 . S
O146 Nd121 2.500 . S
O146 C131 1.258 . S
O147 Nd121 2.492 . S
O147 C131 1.239 . S
O148 Nd121 2.487 . S
O148 C138 1.241 . S
O149 Nd120 2.414 . S
O149 Nd121 2.682 1_455 S
O149 C138 1.273 1_455 S
O150 Nd121 2.410 1_455 S
O150 C139 1.251 . S
O151 Nd120 2.424 . S
O151 C139 1.268 . S
H152 C124 0.930 . S
H153 C125 0.929 . S
H154 C127 0.930 . S
H155 C128 0.929 . S
H156 C133 0.930 . S
H157 C134 0.929 . S
H158 C136 0.930 . S
H159 C137 0.929 . S
C160 C161 1.387 1_565 S
C160 H164 0.950 1_455 S
C160 C169 1.390 . S
C161 C160 1.387 1_545 S
C161 C163 1.387 . S
H162 C169 0.950 . S
C163 C161 1.387 . S
C163 C165 1.390 . S
C163 H167 0.950 . S
H164 C160 0.950 1_655 S
C165 C163 1.390 . S
C165 C166 1.387 . S
C165 H168 0.950 . S
C166 C165 1.387 . S
C166 C169 1.387 1_545 S
H167 C163 0.950 . S
H168 C165 0.950 . S
C169 C160 1.390 . S
C169 H162 0.950 . S
C169 C166 1.387 1_565 S
C170 C171 1.387 1_665 S
C170 H174 0.950 . S
C170 C179 1.390 1_565 S
C171 C170 1.387 1_445 S
C171 C173 1.387 . S
H172 C179 0.950 1_565 S
C173 C171 1.387 . S
C173 C175 1.390 . S
C173 H177 0.950 . S
H174 C170 0.950 . S
C175 C173 1.390 . S
C175 C176 1.387 . S
C175 H178 0.950 . S
C176 C175 1.387 . S
C176 C179 1.387 1_455 S
H177 C173 0.950 . S
H178 C175 0.950 . S
C179 C170 1.390 1_545 S
C179 H172 0.950 1_545 S
C179 C176 1.387 1_655 S
C180 C181 1.387 . S
C180 H184 0.950 . S
C180 C189 1.390 . S
C181 C180 1.387 . S
C181 C183 1.387 . S
H182 C189 0.950 . S
C183 C181 1.387 . S
C183 C185 1.390 . S
C183 H187 0.950 1_545 S
H184 C180 0.950 . S
C185 C183 1.390 . S
C185 C186 1.387 . S
C185 H188 0.950 . S
C186 C185 1.387 . S
C186 C189 1.387 . S
H187 C183 0.950 1_565 S
H188 C185 0.950 . S
C189 C180 1.390 . S
C189 H182 0.950 . S
C189 C186 1.387 . S
C190 C191 1.387 . S
C190 H194 0.950 . S
C190 C199 1.390 . S
C191 C190 1.387 . S
C191 C193 1.387 . S
H192 C199 0.950 . S
C193 C191 1.387 . S
C193 C195 1.390 . S
C193 H197 0.950 . S
H194 C190 0.950 . S
C195 C193 1.390 . S
C195 C196 1.387 . S
C195 H198 0.950 1_455 S
C196 C195 1.387 . S
C196 C199 1.387 . S
H197 C193 0.950 . S
H198 C195 0.950 1_655 S
C199 C190 1.390 . S
C199 H192 0.950 . S
C199 C196 1.387 . S
C200 C201 1.387 . S
C200 H204 0.950 . S
C200 C209 1.390 . S
C201 C200 1.387 . S
C201 C203 1.387 . S
H202 C209 0.950 . S
C203 C201 1.387 . S
C203 C205 1.390 . S
C203 H207 0.950 . S
H204 C200 0.950 . S
C205 C203 1.390 . S
C205 C206 1.387 . S
C205 H208 0.950 . S
C206 C205 1.387 . S
C206 C209 1.387 . S
H207 C203 0.950 . S
H208 C205 0.950 . S
C209 C200 1.390 . S
C209 H202 0.950 . S
C209 C206 1.387 . S
C210 C211 1.387 . S
C210 H214 0.950 . S
C210 C219 1.390 1_556 S
C211 C210 1.387 . S
C211 C213 1.387 . S
H212 C219 0.950 . S
C213 C211 1.387 . S
C213 C215 1.390 1_556 S
C213 H217 0.950 . S
H214 C210 0.950 . S
C215 C213 1.390 1_554 S
C215 C216 1.387 . S
C215 H218 0.950 . S
C216 C215 1.387 . S
C216 C219 1.387 . S
H217 C213 0.950 . S
H218 C215 0.950 . S
C219 C210 1.390 1_554 S
C219 H212 0.950 . S
C219 C216 1.387 . S
C220 C221 1.387 . S
C220 H224 0.950 . S
C220 C229 1.390 . S
C221 C220 1.387 . S
C221 C223 1.387 . S
H222 C229 0.950 . S
C223 C221 1.387 . S
C223 C225 1.390 . S
C223 H227 0.950 . S
H224 C220 0.950 . S
C225 C223 1.390 . S
C225 C226 1.387 . S
C225 H228 0.950 . S
C226 C225 1.387 . S
C226 C229 1.387 . S
H227 C223 0.950 . S
H228 C225 0.950 . S
C229 C220 1.390 . S
C229 H222 0.950 . S
C229 C226 1.387 . S
C230 C231 1.387 . S
C230 H234 0.950 . S
C230 C239 1.390 . S
C231 C230 1.387 . S
C231 C233 1.387 . S
H232 C239 0.950 . S
C233 C231 1.387 . S
C233 C235 1.390 . S
C233 H237 0.950 . S
H234 C230 0.950 . S
C235 C233 1.390 . S
C235 C236 1.387 . S
C235 H238 0.950 . S
C236 C235 1.387 . S
C236 C239 1.387 . S
H237 C233 0.950 . S
H238 C235 0.950 . S
C239 C230 1.390 . S
C239 H232 0.950 . S
C239 C236 1.387 . S
C240 C241 1.387 . S
C240 H244 0.950 . S
C240 C249 1.390 . S
C241 C240 1.387 . S
C241 C243 1.387 . S
H242 C249 0.950 . S
C243 C241 1.387 . S
C243 C245 1.390 . S
C243 H247 0.950 . S
H244 C240 0.950 . S
C245 C243 1.390 . S
C245 C246 1.387 . S
C245 H248 0.950 . S
C246 C245 1.387 . S
C246 C249 1.387 . S
H247 C243 0.950 . S
H248 C245 0.950 . S
C249 C240 1.390 . S
C249 H242 0.950 . S
C249 C246 1.387 . S
C250 C251 1.387 . S
C250 H254 0.950 1_565 S
C250 C259 1.390 . S
C251 C250 1.387 . S
C251 C253 1.387 . S
H252 C259 0.950 1_545 S
C253 C251 1.387 . S
C253 C255 1.390 . S
C253 H257 0.950 . S
H254 C250 0.950 1_545 S
C255 C253 1.390 . S
C255 C256 1.387 . S
C255 H258 0.950 . S
C256 C255 1.387 . S
C256 C259 1.387 . S
H257 C253 0.950 . S
H258 C255 0.950 . S
C259 C250 1.390 . S
C259 H252 0.950 1_565 S
C259 C256 1.387 . S
C260 C261 1.387 . S
C260 H264 0.950 . S
C260 C269 1.390 . S
C261 C260 1.387 . S
C261 C263 1.387 . S
H262 C269 0.950 . S
C263 C261 1.387 . S
C263 C265 1.390 . S
C263 H267 0.950 . S
H264 C260 0.950 . S
C265 C263 1.390 . S
C265 C266 1.387 . S
C265 H268 0.950 . S
C266 C265 1.387 . S
C266 C269 1.387 . S
H267 C263 0.950 . S
H268 C265 0.950 . S
C269 C260 1.390 . S
C269 H262 0.950 . S
C269 C266 1.387 . S
C270 C271 1.387 . S
C270 H274 0.950 . S
C270 C279 1.390 . S
C271 C270 1.387 . S
C271 C273 1.387 . S
H272 C279 0.950 1_455 S
C273 C271 1.387 . S
C273 C275 1.390 . S
C273 H277 0.950 . S
H274 C270 0.950 . S
C275 C273 1.390 . S
C275 C276 1.387 . S
C275 H278 0.950 . S
C276 C275 1.387 . S
C276 C279 1.387 . S
H277 C273 0.950 . S
H278 C275 0.950 . S
C279 C270 1.390 . S
C279 H272 0.950 1_655 S
C279 C276 1.387 . S
C161 C98 1.245 1_455 S
C166 C9 1.245 . S
C171 C138 1.355 1_445 S
C176 C49 1.354 . S
C181 C89 1.135 1_545 S
C186 C18 1.135 . S
C191 C58 1.255 . S
C196 C129 1.255 . S
C201 C46 1.121 . S
C206 C15 1.138 . S
C211 C55 1.658 . S
C216 C90 1.669 . S
C221 C130 2.142 . S
C226 C99 2.093 . S
C231 C139 1.376 . S
C236 C6 1.391 . S
C241 C86 1.138 . S
C246 C135 1.122 . S
C251 C19 1.669 . S
C256 C126 1.658 . S
C261 C59 2.143 . S
C266 C10 2.092 1_556 S
C271 C95 1.388 . S
C276 C50 1.377 1_655 S
