# Generated by pormake.
# Topology rob, (6)-cn, num edge types: 1
# Building blocks:
#     Node 0, Type 0, BuildingBlock: FUNLAD_clean_sbu_0, # of connection points: 6
#     Node 1, Type 0, BuildingBlock: FUNLAD_clean_sbu_0, # of connection points: 6
#     Node 2, Type 0, BuildingBlock: FUNLAD_clean_sbu_0, # of connection points: 6
#     Node 3, Type 0, BuildingBlock: FUNLAD_clean_sbu_0, # of connection points: 6
#     Edge 4, Type (0, 0), BuildingBlock: XUDNAN_clean_linker_2, # of connection points: 2
#     Edge 5, Type (0, 0), BuildingBlock: XUDNAN_clean_linker_2, # of connection points: 2
#     Edge 6, Type (0, 0), BuildingBlock: XUDNAN_clean_linker_2, # of connection points: 2
#     Edge 7, Type (0, 0), BuildingBlock: XUDNAN_clean_linker_2, # of connection points: 2
#     Edge 8, Type (0, 0), BuildingBlock: XUDNAN_clean_linker_2, # of connection points: 2
#     Edge 9, Type (0, 0), BuildingBlock: XUDNAN_clean_linker_2, # of connection points: 2
#     Edge 10, Type (0, 0), BuildingBlock: XUDNAN_clean_linker_2, # of connection points: 2
#     Edge 11, Type (0, 0), BuildingBlock: XUDNAN_clean_linker_2, # of connection points: 2
#     Edge 12, Type (0, 0), BuildingBlock: XUDNAN_clean_linker_2, # of connection points: 2
#     Edge 13, Type (0, 0), BuildingBlock: XUDNAN_clean_linker_2, # of connection points: 2
#     Edge 14, Type (0, 0), BuildingBlock: XUDNAN_clean_linker_2, # of connection points: 2
#     Edge 15, Type (0, 0), BuildingBlock: XUDNAN_clean_linker_2, # of connection points: 2
# Relax obj value: 0.137
# Max RMSD: 0.158
# Mean RMSD: 0.158
data_MOF--net-rob--node1-FUNLAD_clean_sbu_0--edge1-XUDNAN_clean_linker_2
_symmetry_space_group_name_H-M    P1
_symmetry_Int_Tables_number       1
_symmetry_cell_setting            triclinic
loop_
_symmetry_equiv_pos_as_xyz
'x, y, z'
_cell_length_a     15.906558
_cell_length_b     40.244419
_cell_length_c     23.185158
_cell_angle_alpha  91.575558
_cell_angle_beta   90.133684
_cell_angle_gamma 89.919691
loop_
_atom_site_label
_atom_site_type_symbol
_atom_site_fract_x
_atom_site_fract_y
_atom_site_fract_z
_atom_type_partial_charge
C0 C 0.28986 0.25452 0.87746 0.0
N1 N 0.3164 0.33966 0.98428 0.0
C2 C 0.39638 0.34292 0.96444 0.0
C3 C 0.43622 0.37376 0.96692 0.0
C4 C 0.39274 0.40157 0.98888 0.0
C5 C 0.30913 0.39804 0.00662 0.0
C6 C 0.27199 0.36652 0.00434 0.0
Zn7 Zn 0.26854 0.29257 0.98854 0.0
C8 C 0.09323 0.28683 0.95409 0.0
N9 N 0.18288 0.19205 -0.00283 0.0
C10 C 0.22552 0.16749 0.96815 0.0
C11 C 0.10908 0.18568 0.02439 0.0
C12 C 0.07422 0.15377 0.02149 0.0
C13 C 0.1151 0.1285 0.98944 0.0
C14 C 0.19223 0.13549 0.9633 0.0
Zn15 Zn 0.22809 0.23966 -0.00621 0.0
O16 O 0.3026 0.28286 0.90143 0.0
C17 C 0.40341 0.24579 0.02894 0.0
O18 O 0.25942 0.23131 0.90678 0.0
H19 H 0.07596 0.20559 0.04694 0.0
H20 H 0.43045 0.32136 0.94828 0.0
H21 H 0.28439 0.17293 0.94721 0.0
O22 O 0.38606 0.27575 0.0179 0.0
O23 O 0.34799 0.22351 0.0203 0.0
H24 H 0.20868 0.36334 0.02016 0.0
O25 O 0.19896 0.24878 0.08117 0.0
O26 O 0.23328 0.30158 0.07539 0.0
O27 O 0.10808 0.25679 0.9668 0.0
O28 O 0.15089 0.30843 0.96026 0.0
C29 C 0.2081 0.2774 0.10485 0.0
H30 H 0.50092 0.37578 0.95295 0.0
H31 H 0.27428 0.41912 0.02419 0.0
H32 H 0.01426 0.14924 0.04188 0.0
H33 H 0.22572 0.11649 0.93854 0.0
C34 C 0.90374 0.75234 0.95065 0.0
N35 N 0.7935 0.84291 0.00076 0.0
C36 C 0.86581 0.85202 0.0285 0.0
C37 C 0.89543 0.88465 0.02583 0.0
C38 C 0.85084 0.90783 -0.00648 0.0
C39 C 0.7748 0.89815 0.96739 0.0
C40 C 0.74677 0.86549 0.97197 0.0
Zn41 Zn 0.75955 0.79379 -0.00544 0.0
C42 C 0.70044 0.77529 0.87551 0.0
N43 N 0.69502 0.69074 0.97702 0.0
C44 C 0.75219 0.66743 0.99244 0.0
C45 C 0.61478 0.68204 0.96282 0.0
C46 C 0.58836 0.64906 0.96653 0.0
C47 C 0.64539 0.62455 0.9841 0.0
C48 C 0.72898 0.6341 -0.00449 0.0
Zn49 Zn 0.72848 0.73992 0.98277 0.0
O50 O 0.88255 0.78142 0.96771 0.0
C51 C 0.78831 0.75731 0.10165 0.0
O52 O 0.85059 0.72886 0.95245 0.0
H53 H 0.5702 0.70088 0.95048 0.0
H54 H 0.90236 0.83364 0.05077 0.0
H55 H 0.8155 0.67476 0.00399 0.0
O56 O 0.79256 0.78647 0.08197 0.0
O57 O 0.76582 0.73331 0.06851 0.0
H58 H 0.68922 0.85787 0.95055 0.0
O59 O 0.60672 0.75251 0.01341 0.0
O60 O 0.63706 0.80562 0.02124 0.0
O61 O 0.69275 0.74676 0.89695 0.0
O62 O 0.72532 0.79973 0.90684 0.0
C63 C 0.58495 0.7821 0.02712 0.0
H64 H 0.9547 0.89123 0.04619 0.0
H65 H 0.73854 0.91547 0.94239 0.0
H66 H 0.5231 0.64321 0.95779 0.0
H67 H 0.77608 0.61616 0.00772 0.0
C68 C 0.40449 0.78886 0.52732 0.0
N69 N 0.30385 0.69717 0.47435 0.0
C70 C 0.38161 0.69264 0.45095 0.0
C71 C 0.41995 0.66145 0.45104 0.0
C72 C 0.37726 0.63458 0.47443 0.0
C73 C 0.29534 0.6393 0.49528 0.0
C74 C 0.25964 0.67113 0.49513 0.0
Zn75 Zn 0.26135 0.74511 0.48548 0.0
C76 C 0.20819 0.76038 0.60491 0.0
N77 N 0.18797 0.84695 0.50977 0.0
C78 C 0.21512 0.86531 0.55629 0.0
C79 C 0.13123 0.85951 0.47211 0.0
C80 C 0.09763 0.89128 0.48145 0.0
C81 C 0.12358 0.91074 0.52956 0.0
C82 C 0.18427 0.89743 0.56672 0.0
Zn83 Zn 0.22893 0.7989 0.49786 0.0
O84 O 0.38278 0.75948 0.51271 0.0
C85 C 0.2831 0.78422 0.3786 0.0
O86 O 0.35131 0.81231 0.52439 0.0
H87 H 0.11066 0.84465 0.43518 0.0
H88 H 0.41571 0.71358 0.43456 0.0
H89 H 0.26017 0.85491 0.58582 0.0
O90 O 0.29114 0.75531 0.39882 0.0
O91 O 0.25887 0.8081 0.41147 0.0
H92 H 0.1982 0.67531 0.51388 0.0
O93 O 0.10668 0.78431 0.47094 0.0
O94 O 0.14019 0.73165 0.45857 0.0
O95 O 0.20103 0.78914 0.58424 0.0
O96 O 0.2301 0.73592 0.57254 0.0
C97 C 0.08632 0.75486 0.45536 0.0
H98 H 0.48351 0.65857 0.43495 0.0
H99 H 0.26127 0.61904 0.51423 0.0
H100 H 0.05028 0.90005 0.4519 0.0
H101 H 0.20787 0.91158 0.60368 0.0
C102 C 0.79334 0.28895 0.6029 0.0
N103 N 0.81503 0.19858 0.51088 0.0
C104 C 0.88403 0.19497 0.54502 0.0
C105 C 0.9155 0.16343 0.5562 0.0
C106 C 0.87674 0.1353 0.53111 0.0
C107 C 0.80654 0.1396 0.49528 0.0
C108 C 0.77601 0.17166 0.4861 0.0
Zn109 Zn 0.77255 0.24591 0.49727 0.0
C110 C 0.59607 0.25566 0.52856 0.0
N111 N 0.69363 0.34657 0.47315 0.0
C112 C 0.74885 0.37149 0.48591 0.0
C113 C 0.61219 0.35338 0.45954 0.0
C114 C 0.58267 0.3862 0.46129 0.0
C115 C 0.63775 0.41235 0.47653 0.0
C116 C 0.72254 0.40456 0.48702 0.0
Zn117 Zn 0.73389 0.29848 0.48369 0.0
O118 O 0.7994 0.25926 0.58351 0.0
C119 C 0.91121 0.28808 0.45272 0.0
O120 O 0.77043 0.31166 0.56931 0.0
H121 H 0.56908 0.33329 0.44946 0.0
H122 H 0.91511 0.21661 0.56361 0.0
H123 H 0.81308 0.36575 0.49727 0.0
O124 O 0.89438 0.25953 0.47164 0.0
O125 O 0.8542 0.31019 0.45227 0.0
H126 H 0.72119 0.17502 0.4592 0.0
O127 O 0.69822 0.28452 0.39835 0.0
O128 O 0.74343 0.23352 0.41095 0.0
O129 O 0.61456 0.28522 0.51539 0.0
O130 O 0.65081 0.23282 0.52264 0.0
C131 C 0.71181 0.25518 0.37845 0.0
H132 H 0.9704 0.16107 0.58354 0.0
H133 H 0.7749 0.11838 0.47539 0.0
H134 H 0.51669 0.39078 0.45317 0.0
H135 H 0.7682 0.42374 0.49737 0.0
H136 H 0.52378 0.5883 0.92402 0.0
H137 H 0.70142 0.58166 0.06613 0.0
H138 H 0.65654 0.52424 0.08151 0.0
H139 H 0.35827 0.54283 -0.00578 0.0
H140 H 0.32216 0.52274 0.9283 0.0
H141 H 0.37049 0.56315 0.92642 0.0
H142 H 0.47969 0.5405 0.85245 0.0
H143 H 0.43177 0.50003 0.85411 0.0
H144 H 0.54225 0.50471 0.86971 0.0
H145 H 0.59576 0.46718 0.08058 0.0
H146 H 0.51669 0.41466 0.06597 0.0
H147 H 0.37002 0.45931 0.93066 0.0
C148 C 0.55294 0.57501 0.95875 0.0
C149 C 0.61738 0.58969 0.99317 0.0
C150 C 0.6539 0.57096 0.03782 0.0
C151 C 0.6282 0.53832 0.04741 0.0
C152 C 0.56489 0.52474 0.01269 0.0
C153 C 0.52708 0.54252 0.96962 0.0
C154 C 0.4589 0.52222 0.93943 0.0
C155 C 0.37233 0.53872 0.94761 0.0
C156 C 0.47942 0.51653 0.87512 0.0
C157 C 0.46492 0.49017 0.97204 0.0
C158 C 0.52693 0.49215 0.01389 0.0
C159 C 0.54654 0.46539 0.04835 0.0
C160 C 0.50158 0.43577 0.0398 0.0
C161 C 0.43734 0.43336 -0.00232 0.0
C162 C 0.41838 0.46089 0.96358 0.0
H163 H 0.35506 0.57413 0.41803 0.0
H164 H 0.50191 0.62492 0.55105 0.0
H165 H 0.58185 0.57326 0.56744 0.0
H166 H 0.34517 0.49361 0.4854 0.0
H167 H 0.35681 0.47017 0.41852 0.0
H168 H 0.30825 0.51066 0.41883 0.0
H169 H 0.41631 0.53005 0.34341 0.0
H170 H 0.46512 0.48964 0.34287 0.0
H171 H 0.52712 0.52627 0.35844 0.0
H172 H 0.64391 0.51672 0.57041 0.0
H173 H 0.69122 0.45899 0.55695 0.0
H174 H 0.51221 0.44488 0.41638 0.0
C175 C 0.40371 0.57408 0.45078 0.0
C176 C 0.42249 0.60317 0.48372 0.0
C177 C 0.48698 0.60267 0.52572 0.0
C178 C 0.53241 0.57352 0.53531 0.0
C179 C 0.51297 0.5452 0.50207 0.0
C180 C 0.45069 0.54519 0.46036 0.0
C181 C 0.44516 0.51157 0.42926 0.0
C182 C 0.35871 0.49556 0.43857 0.0
C183 C 0.46461 0.51457 0.36467 0.0
C184 C 0.51407 0.49281 0.46003 0.0
C185 C 0.55164 0.51268 0.50215 0.0
C186 C 0.61576 0.50099 0.53707 0.0
C187 C 0.64282 0.46813 0.52856 0.0
C188 C 0.60689 0.44723 0.48478 0.0
C189 C 0.54112 0.45993 0.45033 0.0
H190 H 0.05773 0.08524 0.07029 0.0
H191 H 0.08255 0.09804 0.88602 0.0
H192 H 0.01478 0.04357 0.86745 0.0
H193 H 0.10537 0.99748 0.06658 0.0
H194 H 0.03194 0.98767 0.12269 0.0
H195 H 0.07947 0.02825 0.12171 0.0
H196 H 0.93178 0.05547 0.12194 0.0
H197 H 0.88378 1.01497 0.12285 0.0
H198 H 0.85671 0.04336 0.06694 0.0
H199 H 0.94183 0.98889 0.86854 0.0
H200 H 0.87726 0.93472 0.88916 0.0
H201 H 0.90663 0.95509 0.07276 0.0
C202 C 0.0484 0.0765 0.02614 0.0
C203 C 0.07495 0.09571 0.97946 0.0
C204 C 0.06285 0.08351 0.92222 0.0
C205 C 0.02418 0.05273 0.91131 0.0
C206 C -0.00115 0.03431 0.95816 0.0
C207 C 0.01114 0.04548 0.01446 0.0
C208 C 0.98074 0.02007 0.05681 0.0
C209 C 0.05374 1.00763 0.09414 0.0
C210 C 0.90898 0.03432 0.09434 0.0
C211 C 0.9493 0.99298 0.01545 0.0
C212 C 0.95954 1.00196 0.95878 0.0
C213 C 0.93372 0.9815 0.9127 0.0
C214 C 0.89683 0.9509 0.92479 0.0
C215 C 0.88705 0.94088 0.98243 0.0
C216 C 0.91385 0.96218 0.02832 0.0
H217 H 0.91939 0.08626 0.45218 0.0
H218 H 0.91028 0.10916 0.6359 0.0
H219 H 0.97019 0.05385 0.65572 0.0
H220 H 0.86833 0.99861 0.45905 0.0
H221 H 0.9404 0.98639 0.40243 0.0
H222 H 0.89312 0.0271 0.40291 0.0
H223 H 0.04102 0.05395 0.40034 0.0
H224 H 0.08871 1.01334 0.39992 0.0
H225 H 0.11726 0.04387 0.45482 0.0
H226 H 0.02961 0.99604 0.65537 0.0
H227 H 0.09012 0.94063 0.63534 0.0
H228 H 0.07074 0.95706 0.45121 0.0
C229 C 0.92918 0.07938 0.49654 0.0
C230 C 0.90982 0.10173 0.54263 0.0
C231 C 0.92487 0.09228 0.60011 0.0
C232 C 0.95858 0.06095 0.61173 0.0
C233 C 0.97764 0.03954 0.56533 0.0
C234 C 0.964 0.04839 0.50887 0.0
C235 C 0.9933 0.02129 0.46689 0.0
C236 C 0.91937 1.00754 0.43069 0.0
C237 C 0.0643 0.03387 0.42823 0.0
C238 C 0.02538 0.99583 0.50858 0.0
C239 C 0.01512 1.00674 0.56511 0.0
C240 C 0.03874 0.98734 0.61124 0.0
C241 C 0.07392 0.95595 0.5993 0.0
C242 C 0.08634 0.94429 0.5416 0.0
C243 C 0.06156 0.96478 0.49583 0.0
H244 H 0.67901 0.29727 0.29099 0.0
H245 H 0.69373 0.1927 0.33058 0.0
H246 H 0.64327 0.17787 0.23246 0.0
H247 H 0.49395 0.29446 0.22006 0.0
H248 H 0.52026 0.32412 0.16613 0.0
H249 H 0.57279 0.32576 0.23465 0.0
H250 H 0.7169 0.32118 0.18262 0.0
H251 H 0.66408 0.31918 0.11369 0.0
H252 H 0.73657 0.28683 0.13293 0.0
H253 H 0.56454 0.17508 0.13934 0.0
H254 H 0.46399 0.18487 0.06031 0.0
H255 H 0.51014 0.29089 0.07804 0.0
C256 C 0.67348 0.27123 0.27851 0.0
C257 C 0.68985 0.24615 0.31827 0.0
C258 C 0.6817 0.21234 0.3006 0.0
C259 C 0.65361 0.20366 0.24486 0.0
C260 C 0.63595 0.22907 0.20699 0.0
C261 C 0.64667 0.26218 0.22289 0.0
C262 C 0.61469 0.28486 0.17681 0.0
C263 C 0.54637 0.30865 0.20086 0.0
C264 C 0.68742 0.30414 0.14991 0.0
C265 C 0.57877 0.25941 0.13436 0.0
C266 C 0.5931 0.22731 0.15183 0.0
C267 C 0.55505 0.2 0.12415 0.0
C268 C 0.49799 0.20577 0.07927 0.0
C269 C 0.47965 0.23861 0.06281 0.0
C270 C 0.52414 0.26544 0.08875 0.0
H271 H 0.4923 0.73616 0.08209 0.0
H272 H 0.50817 0.84178 0.05164 0.0
H273 H 0.40654 0.85283 0.13007 0.0
H274 H 0.26481 0.73496 0.13797 0.0
H275 H 0.29402 0.70497 0.19079 0.0
H276 H 0.34506 0.70452 0.1214 0.0
H277 H 0.48959 0.7086 0.17275 0.0
H278 H 0.43958 0.70993 0.24201 0.0
H279 H 0.5098 0.74289 0.22255 0.0
H280 H 0.33161 0.85353 0.22406 0.0
H281 H 0.28633 0.84373 0.32388 0.0
H282 H 0.32552 0.73778 0.29563 0.0
C283 C 0.47098 0.76145 0.08985 0.0
C284 C 0.50745 0.78809 0.06057 0.0
C285 C 0.48031 0.82098 0.07328 0.0
C286 C 0.4225 0.82748 0.11772 0.0
C287 C 0.39234 0.8008 0.14871 0.0
C288 C 0.41474 0.76832 0.13474 0.0
C289 C 0.38607 0.7447 0.1804 0.0
C290 C 0.31844 0.72089 0.15619 0.0
C291 C 0.4607 0.72545 0.20591 0.0
C292 C 0.3492 0.76917 0.22401 0.0
C293 C 0.3511 0.80127 0.20431 0.0
C294 C 0.32787 0.82842 0.23939 0.0
C295 C 0.30284 0.82263 0.29616 0.0
C296 C 0.30268 0.78999 0.31751 0.0
C297 C 0.32455 0.76298 0.28043 0.0
H298 H 0.60814 0.82364 0.82529 0.0
H299 H 0.75678 0.73543 0.78809 0.0
H300 H 0.72404 0.7396 0.68435 0.0
H301 H 0.4448 0.80037 0.73905 0.0
H302 H 0.41747 0.84133 0.71562 0.0
H303 H 0.47035 0.83653 0.78328 0.0
H304 H 0.58808 0.87626 0.74993 0.0
H305 H 0.53562 0.88063 0.68149 0.0
H306 H 0.64355 0.867 0.68368 0.0
H307 H 0.65676 0.7467 0.59042 0.0
H308 H 0.54652 0.75153 0.5164 0.0
H309 H 0.43705 0.83457 0.61275 0.0
C310 C 0.63567 0.80595 0.79473 0.0
C311 C 0.68533 0.77943 0.81384 0.0
C312 C 0.71851 0.75591 0.77366 0.0
C313 C 0.70115 0.75836 0.71476 0.0
C314 C 0.65007 0.78436 0.697 0.0
C315 C 0.61711 0.80761 0.73587 0.0
C316 C 0.55175 0.82918 0.7075 0.0
C317 C 0.4661 0.82666 0.73815 0.0
C318 C 0.58157 0.86542 0.70553 0.0
C319 C 0.54955 0.81316 0.64763 0.0
C320 C 0.60895 0.78812 0.64193 0.0
C321 C 0.61145 0.76675 0.59366 0.0
C322 C 0.54867 0.76968 0.55177 0.0
C323 C 0.4841 0.79364 0.55877 0.0
C324 C 0.48734 0.81677 0.60554 0.0
H325 H 0.49999 0.30137 0.58558 0.0
H326 H 0.52312 0.19553 0.54902 0.0
H327 H 0.42038 0.18453 0.62571 0.0
H328 H 0.51621 0.29626 0.72546 0.0
H329 H 0.44395 0.32887 0.74673 0.0
H330 H 0.49454 0.3299 0.67778 0.0
H331 H 0.35034 0.33233 0.62596 0.0
H332 H 0.29864 0.33219 0.69511 0.0
H333 H 0.27165 0.30144 0.6402 0.0
H334 H 0.34319 0.18427 0.7185 0.0
H335 H 0.29637 0.19468 0.81873 0.0
H336 H 0.33149 0.30062 0.79826 0.0
C337 C 0.48003 0.27599 0.59161 0.0
C338 C 0.51869 0.24931 0.56114 0.0
C339 C 0.49346 0.21633 0.57162 0.0
C340 C 0.43501 0.20987 0.61501 0.0
C341 C 0.40255 0.23668 0.64726 0.0
C342 C 0.42341 0.26918 0.63556 0.0
C343 C 0.39302 0.29306 0.6826 0.0
C344 C 0.4663 0.31316 0.70971 0.0
C345 C 0.3243 0.31611 0.65959 0.0
C346 C 0.3571 0.26876 0.72443 0.0
C347 C 0.36064 0.23648 0.70253 0.0
C348 C 0.33821 0.20949 0.73556 0.0
C349 C 0.31227 0.21564 0.79256 0.0
C350 C 0.31069 0.24847 0.8162 0.0
C351 C 0.33186 0.27529 0.78123 0.0
H352 H 0.83129 0.80301 0.18632 0.0
H353 H 0.79281 0.69734 0.15415 0.0
H354 H 0.83663 0.68631 0.25375 0.0
H355 H 0.01379 0.79657 0.26076 0.0
H356 H 0.9938 0.83018 0.31191 0.0
H357 H 0.94401 0.83004 0.24241 0.0
H358 H 0.79815 0.8345 0.29207 0.0
H359 H 0.84807 0.83416 0.36197 0.0
H360 H 0.76801 0.804 0.34362 0.0
H361 H 0.90956 0.68559 0.34819 0.0
H362 H 0.01005 0.69546 0.42806 0.0
H363 H 0.99336 0.8016 0.40232 0.0
C364 C 0.8302 0.77763 0.20067 0.0
C365 C 0.80882 0.75107 0.1625 0.0
C366 C 0.80896 0.71815 0.18266 0.0
C367 C 0.83303 0.71162 0.23936 0.0
C368 C 0.85536 0.73832 0.27567 0.0
C369 C 0.85351 0.77072 0.25726 0.0
C370 C 0.88993 0.79451 0.30228 0.0
C371 C 0.96481 0.81392 0.27788 0.0
C372 C 0.82196 0.81819 0.32642 0.0
C373 C 0.91773 0.77017 0.34716 0.0
C374 C 0.89554 0.73793 0.33167 0.0
C375 C 0.92517 0.71076 0.36183 0.0
C376 C 0.98219 0.71658 0.40717 0.0
C377 C 0.00873 0.74929 0.42167 0.0
C378 C 0.97245 0.77639 0.39327 0.0
H379 H 0.94341 0.33428 0.37218 0.0
H380 H 0.05418 0.2509 0.45943 0.0
H381 H 0.16553 0.24737 0.38607 0.0
H382 H 0.95292 0.30217 0.24295 0.0
H383 H 0.9789 0.33859 0.20314 0.0
H384 H 0.92591 0.34301 0.27108 0.0
H385 H 0.04357 0.38162 0.31111 0.0
H386 H 0.09645 0.37816 0.24246 0.0
H387 H 0.15159 0.3681 0.30772 0.0
H388 H 0.23366 0.2413 0.2921 0.0
H389 H 0.26619 0.2377 0.18805 0.0
H390 H 0.11672 0.32585 0.16015 0.0
C391 C 0.9939 0.31656 0.3776 0.0
C392 C 0.99049 0.29291 0.42139 0.0
C393 C 0.05594 0.26933 0.42626 0.0
C394 C 0.11959 0.2672 0.38481 0.0
C395 C 0.11735 0.2891 0.33931 0.0
C396 C 0.05742 0.31396 0.33614 0.0
C397 C 0.06012 0.33055 0.27824 0.0
C398 C 0.97443 0.32841 0.24707 0.0
C399 C 0.08974 0.36676 0.28532 0.0
C400 C 0.12578 0.3093 0.24777 0.0
C401 C 0.15916 0.28596 0.28419 0.0
C402 C 0.21067 0.26022 0.26374 0.0
C403 C 0.228 0.25811 0.20465 0.0
C404 C 0.19445 0.28174 0.16698 0.0
C405 C 0.14467 0.30811 0.18884 0.0
H406 H 0.81967 0.24462 0.68745 0.0
H407 H 0.81305 0.35035 0.65592 0.0
H408 H 0.8602 0.36202 0.75611 0.0
H409 H 0.75882 0.25077 0.84533 0.0
H410 H 0.82948 0.21732 0.86214 0.0
H411 H 0.77784 0.21776 0.79282 0.0
H412 H 0.92252 0.21367 0.74158 0.0
H413 H 0.97398 0.21288 0.81038 0.0
H414 H 0.00253 0.24396 0.75946 0.0
H415 H 0.93443 0.36145 0.85084 0.0
H416 H 0.03338 0.34869 0.92926 0.0
H417 H 0.9858 0.24344 0.90086 0.0
C418 C 0.82608 0.27029 0.70202 0.0
C419 C 0.81307 0.29659 0.664 0.0
C420 C 0.82258 0.32982 0.68448 0.0
C421 C 0.84869 0.33668 0.74142 0.0
C422 C 0.86326 0.31005 0.77745 0.0
C423 C 0.85144 0.27749 0.75859 0.0
C424 C 0.88156 0.25317 0.80267 0.0
C425 C 0.80749 0.23361 0.8272 0.0
C426 C 0.94916 0.22958 0.77699 0.0
C427 C 0.91787 0.27703 0.84759 0.0
C428 C 0.9048 0.30977 0.83308 0.0
C429 C 0.94302 0.33601 0.86359 0.0
C430 C -0.0008 0.32852 0.90809 0.0
C431 C 0.01682 0.29507 0.92127 0.0
C432 C 0.97205 0.26925 0.89269 0.0
H433 H 0.11521 0.71256 0.65595 0.0
H434 H 0.26679 0.80005 0.69181 0.0
H435 H 0.23049 0.79783 0.79506 0.0
H436 H 0.9507 0.73816 0.73709 0.0
H437 H 0.92051 0.69804 0.76275 0.0
H438 H 0.97636 0.70085 0.69596 0.0
H439 H 0.09117 0.66122 0.73444 0.0
H440 H 0.03553 0.65863 0.80187 0.0
H441 H 0.14405 0.67147 0.80144 0.0
H442 H 0.15753 0.79354 0.8875 0.0
H443 H 0.04492 0.79045 0.95991 0.0
H444 H 0.93708 0.70611 0.86606 0.0
C445 C 0.14304 0.73036 0.68623 0.0
C446 C 0.19434 0.7562 0.66675 0.0
C447 C 0.22754 0.77999 0.70652 0.0
C448 C 0.20796 0.77871 0.76519 0.0
C449 C 0.15471 0.75357 0.7832 0.0
C450 C 0.12241 0.72982 0.74489 0.0
C451 C 0.05492 0.70934 0.77306 0.0
C452 C 0.97071 0.71178 0.74029 0.0
C453 C 0.08314 0.673 0.778 0.0
C454 C 0.05074 0.7266 0.83189 0.0
C455 C 0.11072 0.75135 0.83744 0.0
C456 C 0.1118 0.77369 0.88447 0.0
C457 C 0.04757 0.77178 0.9254 0.0
C458 C 0.98306 0.74782 0.91878 0.0
C459 C 0.98715 0.72398 0.87305 0.0
loop_
_geom_bond_atom_site_label_1
_geom_bond_atom_site_label_2
_geom_bond_distance
_geom_bond_site_symmetry_2
_ccdc_geom_bond_type
C0 O16 1.251 . S
C0 O18 1.254 . S
N1 C2 1.333 1_554 S
N1 C6 1.307 . S
N1 Zn7 2.020 . S
C2 N1 1.333 1_556 S
C2 C3 1.379 . S
C2 H20 0.952 . S
C3 C2 1.379 . S
C3 C4 1.390 1_556 S
C3 H30 0.949 . S
C4 C3 1.390 1_554 S
C4 C5 1.357 . S
C5 C4 1.357 . S
C5 C6 1.370 . S
C5 H31 0.950 . S
C6 N1 1.307 . S
C6 C5 1.370 . S
C6 H24 0.948 . S
Zn7 N1 2.020 . S
Zn7 O16 2.039 1_554 S
Zn7 O22 2.034 . S
Zn7 O26 2.025 . S
Zn7 O28 2.024 1_554 S
C8 O27 1.246 . S
C8 O28 1.249 . S
N9 C10 1.307 . S
N9 C11 1.333 1_556 S
N9 Zn15 2.020 . S
C10 N9 1.307 . S
C10 C14 1.370 . S
C10 H21 0.948 . S
C11 N9 1.333 1_554 S
C11 C12 1.379 . S
C11 H19 0.952 . S
C12 C11 1.379 . S
C12 C13 1.390 1_554 S
C12 H32 0.949 . S
C13 C12 1.390 1_556 S
C13 C14 1.357 . S
C14 C10 1.370 . S
C14 C13 1.357 . S
C14 H33 0.950 . S
Zn15 N9 2.020 . S
Zn15 O18 2.025 . S
Zn15 O23 2.024 1_556 S
Zn15 O25 2.039 1_556 S
Zn15 O27 2.034 . S
O16 C0 1.251 . S
O16 Zn7 2.039 1_556 S
C17 O22 1.246 . S
C17 O23 1.249 . S
O18 C0 1.254 . S
O18 Zn15 2.025 . S
H19 C11 0.952 . S
H20 C2 0.952 . S
H21 C10 0.948 . S
O22 Zn7 2.034 . S
O22 C17 1.246 . S
O23 Zn15 2.024 1_554 S
O23 C17 1.249 . S
H24 C6 0.948 . S
O25 Zn15 2.039 1_554 S
O25 C29 1.251 . S
O26 Zn7 2.025 . S
O26 C29 1.254 . S
O27 C8 1.246 . S
O27 Zn15 2.034 . S
O28 Zn7 2.024 1_556 S
O28 C8 1.249 . S
C29 O25 1.251 . S
C29 O26 1.254 . S
H30 C3 0.949 . S
H31 C5 0.950 . S
H32 C12 0.949 . S
H33 C14 0.950 . S
C34 O50 1.251 . S
C34 O52 1.254 . S
N35 C36 1.333 1_554 S
N35 C40 1.307 . S
N35 Zn41 2.020 . S
C36 N35 1.333 1_556 S
C36 C37 1.379 . S
C36 H54 0.952 . S
C37 C36 1.379 . S
C37 C38 1.390 1_556 S
C37 H64 0.949 . S
C38 C37 1.390 1_554 S
C38 C39 1.357 . S
C39 C38 1.357 . S
C39 C40 1.370 . S
C39 H65 0.950 . S
C40 N35 1.307 . S
C40 C39 1.370 . S
C40 H58 0.948 . S
Zn41 N35 2.020 . S
Zn41 O50 2.039 1_554 S
Zn41 O56 2.034 . S
Zn41 O60 2.025 . S
Zn41 O62 2.024 1_554 S
C42 O61 1.246 . S
C42 O62 1.249 . S
N43 C44 1.307 . S
N43 C45 1.333 1_556 S
N43 Zn49 2.020 . S
C44 N43 1.307 . S
C44 C48 1.370 . S
C44 H55 0.948 . S
C45 N43 1.333 1_554 S
C45 C46 1.379 . S
C45 H53 0.952 . S
C46 C45 1.379 . S
C46 C47 1.390 1_554 S
C46 H66 0.949 . S
C47 C46 1.390 1_556 S
C47 C48 1.357 . S
C48 C44 1.370 . S
C48 C47 1.357 . S
C48 H67 0.950 . S
Zn49 N43 2.020 . S
Zn49 O52 2.025 . S
Zn49 O57 2.024 1_556 S
Zn49 O59 2.039 1_556 S
Zn49 O61 2.034 . S
O50 C34 1.251 . S
O50 Zn41 2.039 1_556 S
C51 O56 1.246 . S
C51 O57 1.249 . S
O52 C34 1.254 . S
O52 Zn49 2.025 . S
H53 C45 0.952 . S
H54 C36 0.952 . S
H55 C44 0.948 . S
O56 Zn41 2.034 . S
O56 C51 1.246 . S
O57 Zn49 2.024 1_554 S
O57 C51 1.249 . S
H58 C40 0.948 . S
O59 Zn49 2.039 1_554 S
O59 C63 1.251 . S
O60 Zn41 2.025 . S
O60 C63 1.254 . S
O61 C42 1.246 . S
O61 Zn49 2.034 . S
O62 Zn41 2.024 1_556 S
O62 C42 1.249 . S
C63 O59 1.251 . S
C63 O60 1.254 . S
H64 C37 0.949 . S
H65 C39 0.950 . S
H66 C46 0.949 . S
H67 C48 0.950 . S
C68 O84 1.251 . S
C68 O86 1.254 . S
N69 C70 1.333 . S
N69 C74 1.307 . S
N69 Zn75 2.020 . S
C70 N69 1.333 . S
C70 C71 1.379 . S
C70 H88 0.952 . S
C71 C70 1.379 . S
C71 C72 1.390 . S
C71 H98 0.949 . S
C72 C71 1.390 . S
C72 C73 1.357 . S
C73 C72 1.357 . S
C73 C74 1.370 . S
C73 H99 0.950 . S
C74 N69 1.307 . S
C74 C73 1.370 . S
C74 H92 0.948 . S
Zn75 N69 2.020 . S
Zn75 O84 2.039 . S
Zn75 O90 2.034 . S
Zn75 O94 2.025 . S
Zn75 O96 2.024 . S
C76 O95 1.246 . S
C76 O96 1.249 . S
N77 C78 1.307 . S
N77 C79 1.333 . S
N77 Zn83 2.020 . S
C78 N77 1.307 . S
C78 C82 1.370 . S
C78 H89 0.948 . S
C79 N77 1.333 . S
C79 C80 1.379 . S
C79 H87 0.952 . S
C80 C79 1.379 . S
C80 C81 1.390 . S
C80 H100 0.949 . S
C81 C80 1.390 . S
C81 C82 1.357 . S
C82 C78 1.370 . S
C82 C81 1.357 . S
C82 H101 0.950 . S
Zn83 N77 2.020 . S
Zn83 O86 2.025 . S
Zn83 O91 2.024 . S
Zn83 O93 2.039 . S
Zn83 O95 2.034 . S
O84 C68 1.251 . S
O84 Zn75 2.039 . S
C85 O90 1.246 . S
C85 O91 1.249 . S
O86 C68 1.254 . S
O86 Zn83 2.025 . S
H87 C79 0.952 . S
H88 C70 0.952 . S
H89 C78 0.948 . S
O90 Zn75 2.034 . S
O90 C85 1.246 . S
O91 Zn83 2.024 . S
O91 C85 1.249 . S
H92 C74 0.948 . S
O93 Zn83 2.039 . S
O93 C97 1.251 . S
O94 Zn75 2.025 . S
O94 C97 1.254 . S
O95 C76 1.246 . S
O95 Zn83 2.034 . S
O96 Zn75 2.024 . S
O96 C76 1.249 . S
C97 O93 1.251 . S
C97 O94 1.254 . S
H98 C71 0.949 . S
H99 C73 0.950 . S
H100 C80 0.949 . S
H101 C82 0.950 . S
C102 O118 1.251 . S
C102 O120 1.254 . S
N103 C104 1.333 . S
N103 C108 1.307 . S
N103 Zn109 2.020 . S
C104 N103 1.333 . S
C104 C105 1.379 . S
C104 H122 0.952 . S
C105 C104 1.379 . S
C105 C106 1.390 . S
C105 H132 0.949 . S
C106 C105 1.390 . S
C106 C107 1.357 . S
C107 C106 1.357 . S
C107 C108 1.370 . S
C107 H133 0.950 . S
C108 N103 1.307 . S
C108 C107 1.370 . S
C108 H126 0.948 . S
Zn109 N103 2.020 . S
Zn109 O118 2.039 . S
Zn109 O124 2.034 . S
Zn109 O128 2.025 . S
Zn109 O130 2.024 . S
C110 O129 1.246 . S
C110 O130 1.249 . S
N111 C112 1.307 . S
N111 C113 1.333 . S
N111 Zn117 2.020 . S
C112 N111 1.307 . S
C112 C116 1.370 . S
C112 H123 0.948 . S
C113 N111 1.333 . S
C113 C114 1.379 . S
C113 H121 0.952 . S
C114 C113 1.379 . S
C114 C115 1.390 . S
C114 H134 0.949 . S
C115 C114 1.390 . S
C115 C116 1.357 . S
C116 C112 1.370 . S
C116 C115 1.357 . S
C116 H135 0.950 . S
Zn117 N111 2.020 . S
Zn117 O120 2.025 . S
Zn117 O125 2.024 . S
Zn117 O127 2.039 . S
Zn117 O129 2.034 . S
O118 C102 1.251 . S
O118 Zn109 2.039 . S
C119 O124 1.246 . S
C119 O125 1.249 . S
O120 C102 1.254 . S
O120 Zn117 2.025 . S
H121 C113 0.952 . S
H122 C104 0.952 . S
H123 C112 0.948 . S
O124 Zn109 2.034 . S
O124 C119 1.246 . S
O125 Zn117 2.024 . S
O125 C119 1.249 . S
H126 C108 0.948 . S
O127 Zn117 2.039 . S
O127 C131 1.251 . S
O128 Zn109 2.025 . S
O128 C131 1.254 . S
O129 C110 1.246 . S
O129 Zn117 2.034 . S
O130 Zn109 2.024 . S
O130 C110 1.249 . S
C131 O127 1.251 . S
C131 O128 1.254 . S
H132 C105 0.949 . S
H133 C107 0.950 . S
H134 C114 0.949 . S
H135 C116 0.950 . S
H136 C148 0.930 . S
H137 C150 0.930 . S
H138 C151 0.930 . S
H139 C155 0.959 . S
H140 C155 0.959 . S
H141 C155 0.961 . S
H142 C156 0.960 . S
H143 C156 0.961 . S
H144 C156 0.959 . S
H145 C159 0.929 . S
H146 C160 0.931 . S
H147 C162 0.930 . S
C148 H136 0.930 . S
C148 C149 1.399 1_556 S
C148 C153 1.399 . S
C149 C148 1.399 1_554 S
C149 C150 1.376 . S
C150 H137 0.930 . S
C150 C149 1.376 . S
C150 C151 1.388 . S
C151 H138 0.930 . S
C151 C150 1.388 . S
C151 C152 1.390 . S
C152 C151 1.390 . S
C152 C153 1.394 1_554 S
C152 C158 1.465 . S
C153 C148 1.399 . S
C153 C152 1.394 1_556 S
C153 C154 1.516 . S
C154 C153 1.516 . S
C154 C155 1.502 . S
C154 C156 1.561 . S
C154 C157 1.526 . S
C155 H139 0.959 . S
C155 H140 0.959 . S
C155 H141 0.961 . S
C155 C154 1.502 . S
C156 H142 0.960 . S
C156 H143 0.961 . S
C156 H144 0.959 . S
C156 C154 1.561 . S
C157 C154 1.526 . S
C157 C158 1.396 1_556 S
C157 C162 1.390 . S
C158 C152 1.465 . S
C158 C157 1.396 1_554 S
C158 C159 1.399 . S
C159 H145 0.929 . S
C159 C158 1.399 . S
C159 C160 1.385 . S
C160 H146 0.931 . S
C160 C159 1.385 . S
C160 C161 1.389 . S
C161 C160 1.389 . S
C161 C162 1.387 1_554 S
C162 H147 0.930 . S
C162 C157 1.390 . S
C162 C161 1.387 1_556 S
H163 C175 0.930 . S
H164 C177 0.930 . S
H165 C178 0.930 . S
H166 C182 0.959 . S
H167 C182 0.959 . S
H168 C182 0.961 . S
H169 C183 0.960 . S
H170 C183 0.961 . S
H171 C183 0.959 . S
H172 C186 0.929 . S
H173 C187 0.931 . S
H174 C189 0.930 . S
C175 H163 0.930 . S
C175 C176 1.399 . S
C175 C180 1.399 . S
C176 C175 1.399 . S
C176 C177 1.376 . S
C177 H164 0.930 . S
C177 C176 1.376 . S
C177 C178 1.388 . S
C178 H165 0.930 . S
C178 C177 1.388 . S
C178 C179 1.390 . S
C179 C178 1.390 . S
C179 C180 1.394 . S
C179 C185 1.465 . S
C180 C175 1.399 . S
C180 C179 1.394 . S
C180 C181 1.516 . S
C181 C180 1.516 . S
C181 C182 1.502 . S
C181 C183 1.561 . S
C181 C184 1.526 . S
C182 H166 0.959 . S
C182 H167 0.959 . S
C182 H168 0.961 . S
C182 C181 1.502 . S
C183 H169 0.960 . S
C183 H170 0.961 . S
C183 H171 0.959 . S
C183 C181 1.561 . S
C184 C181 1.526 . S
C184 C185 1.396 . S
C184 C189 1.390 . S
C185 C179 1.465 . S
C185 C184 1.396 . S
C185 C186 1.399 . S
C186 H172 0.929 . S
C186 C185 1.399 . S
C186 C187 1.385 . S
C187 H173 0.931 . S
C187 C186 1.385 . S
C187 C188 1.389 . S
C188 C187 1.389 . S
C188 C189 1.387 . S
C189 H174 0.930 . S
C189 C184 1.390 . S
C189 C188 1.387 . S
H190 C202 0.930 . S
H191 C204 0.930 . S
H192 C205 0.930 . S
H193 C209 0.959 . S
H194 C209 0.959 . S
H195 C209 0.961 1_545 S
H196 C210 0.960 . S
H197 C210 0.961 . S
H198 C210 0.959 . S
H199 C213 0.929 . S
H200 C214 0.931 . S
H201 C216 0.930 . S
C202 H190 0.930 . S
C202 C203 1.399 1_554 S
C202 C207 1.399 . S
C203 C202 1.399 1_556 S
C203 C204 1.376 . S
C204 H191 0.930 . S
C204 C203 1.376 . S
C204 C205 1.388 . S
C205 H192 0.930 . S
C205 C204 1.388 . S
C205 C206 1.390 . S
C206 C205 1.390 . S
C206 C207 1.394 1_556 S
C206 C212 1.465 1_445 S
C207 C202 1.399 . S
C207 C206 1.394 1_554 S
C207 C208 1.516 1_455 S
C208 C207 1.516 1_655 S
C208 C209 1.502 1_645 S
C208 C210 1.561 . S
C208 C211 1.526 1_545 S
C209 H193 0.959 . S
C209 H194 0.959 . S
C209 H195 0.961 1_565 S
C209 C208 1.502 1_465 S
C210 H196 0.960 . S
C210 H197 0.961 . S
C210 H198 0.959 . S
C210 C208 1.561 . S
C211 C208 1.526 1_565 S
C211 C212 1.396 1_554 S
C211 C216 1.390 . S
C212 C206 1.465 1_665 S
C212 C211 1.396 1_556 S
C212 C213 1.399 . S
C213 H199 0.929 . S
C213 C212 1.399 . S
C213 C214 1.385 . S
C214 H200 0.931 . S
C214 C213 1.385 . S
C214 C215 1.389 . S
C215 C214 1.389 . S
C215 C216 1.387 1_556 S
C216 H201 0.930 . S
C216 C211 1.390 . S
C216 C215 1.387 1_554 S
H217 C229 0.930 . S
H218 C231 0.930 . S
H219 C232 0.930 1_455 S
H220 C236 0.959 . S
H221 C236 0.959 . S
H222 C236 0.961 . S
H223 C237 0.960 1_655 S
H224 C237 0.961 1_565 S
H225 C237 0.959 . S
H226 C240 0.929 . S
H227 C241 0.931 . S
H228 C243 0.930 . S
C229 H217 0.930 . S
C229 C230 1.399 . S
C229 C234 1.399 . S
C230 C229 1.399 . S
C230 C231 1.376 . S
C231 H218 0.930 . S
C231 C230 1.376 . S
C231 C232 1.388 . S
C232 H219 0.930 1_655 S
C232 C231 1.388 . S
C232 C233 1.390 . S
C233 C232 1.390 . S
C233 C234 1.394 . S
C233 C239 1.465 1_645 S
C234 C229 1.399 . S
C234 C233 1.394 . S
C234 C235 1.516 1_545 S
C235 C234 1.516 1_565 S
C235 C236 1.502 . S
C235 C237 1.561 1_665 S
C235 C238 1.526 1_655 S
C236 H220 0.959 . S
C236 H221 0.959 . S
C236 H222 0.961 . S
C236 C235 1.502 . S
C237 H223 0.960 1_455 S
C237 H224 0.961 1_545 S
C237 H225 0.959 . S
C237 C235 1.561 1_445 S
C238 C235 1.526 1_455 S
C238 C239 1.396 . S
C238 C243 1.390 . S
C239 C233 1.465 1_465 S
C239 C238 1.396 . S
C239 C240 1.399 . S
C240 H226 0.929 . S
C240 C239 1.399 . S
C240 C241 1.385 . S
C241 H227 0.931 . S
C241 C240 1.385 . S
C241 C242 1.389 . S
C242 C241 1.389 . S
C242 C243 1.387 . S
C243 H228 0.930 . S
C243 C238 1.390 . S
C243 C242 1.387 . S
H244 C256 0.930 . S
H245 C258 0.930 . S
H246 C259 0.930 . S
H247 C263 0.959 . S
H248 C263 0.959 . S
H249 C263 0.961 . S
H250 C264 0.960 . S
H251 C264 0.961 . S
H252 C264 0.959 . S
H253 C267 0.929 . S
H254 C268 0.931 . S
H255 C270 0.930 . S
C256 H244 0.930 . S
C256 C257 1.399 . S
C256 C261 1.399 . S
C257 C256 1.399 . S
C257 C258 1.376 . S
C258 H245 0.930 . S
C258 C257 1.376 . S
C258 C259 1.388 . S
C259 H246 0.930 . S
C259 C258 1.388 . S
C259 C260 1.390 . S
C260 C259 1.390 . S
C260 C261 1.394 . S
C260 C266 1.465 . S
C261 C256 1.399 . S
C261 C260 1.394 . S
C261 C262 1.516 . S
C262 C261 1.516 . S
C262 C263 1.502 . S
C262 C264 1.561 . S
C262 C265 1.526 . S
C263 H247 0.959 . S
C263 H248 0.959 . S
C263 H249 0.961 . S
C263 C262 1.502 . S
C264 H250 0.960 . S
C264 H251 0.961 . S
C264 H252 0.959 . S
C264 C262 1.561 . S
C265 C262 1.526 . S
C265 C266 1.396 . S
C265 C270 1.390 . S
C266 C260 1.465 . S
C266 C265 1.396 . S
C266 C267 1.399 . S
C267 H253 0.929 . S
C267 C266 1.399 . S
C267 C268 1.385 . S
C268 H254 0.931 . S
C268 C267 1.385 . S
C268 C269 1.389 . S
C269 C268 1.389 . S
C269 C270 1.387 . S
C270 H255 0.930 . S
C270 C265 1.390 . S
C270 C269 1.387 . S
H271 C283 0.930 . S
H272 C285 0.930 . S
H273 C286 0.930 . S
H274 C290 0.959 . S
H275 C290 0.959 . S
H276 C290 0.961 . S
H277 C291 0.960 . S
H278 C291 0.961 . S
H279 C291 0.959 . S
H280 C294 0.929 . S
H281 C295 0.931 . S
H282 C297 0.930 . S
C283 H271 0.930 . S
C283 C284 1.399 . S
C283 C288 1.399 . S
C284 C283 1.399 . S
C284 C285 1.376 . S
C285 H272 0.930 . S
C285 C284 1.376 . S
C285 C286 1.388 . S
C286 H273 0.930 . S
C286 C285 1.388 . S
C286 C287 1.390 . S
C287 C286 1.390 . S
C287 C288 1.394 . S
C287 C293 1.465 . S
C288 C283 1.399 . S
C288 C287 1.394 . S
C288 C289 1.516 . S
C289 C288 1.516 . S
C289 C290 1.502 . S
C289 C291 1.561 . S
C289 C292 1.526 . S
C290 H274 0.959 . S
C290 H275 0.959 . S
C290 H276 0.961 . S
C290 C289 1.502 . S
C291 H277 0.960 . S
C291 H278 0.961 . S
C291 H279 0.959 . S
C291 C289 1.561 . S
C292 C289 1.526 . S
C292 C293 1.396 . S
C292 C297 1.390 . S
C293 C287 1.465 . S
C293 C292 1.396 . S
C293 C294 1.399 . S
C294 H280 0.929 . S
C294 C293 1.399 . S
C294 C295 1.385 . S
C295 H281 0.931 . S
C295 C294 1.385 . S
C295 C296 1.389 . S
C296 C295 1.389 . S
C296 C297 1.387 . S
C297 H282 0.930 . S
C297 C292 1.390 . S
C297 C296 1.387 . S
H298 C310 0.930 . S
H299 C312 0.930 . S
H300 C313 0.930 . S
H301 C317 0.959 . S
H302 C317 0.959 . S
H303 C317 0.961 . S
H304 C318 0.960 . S
H305 C318 0.961 . S
H306 C318 0.959 . S
H307 C321 0.929 . S
H308 C322 0.931 . S
H309 C324 0.930 . S
C310 H298 0.930 . S
C310 C311 1.399 . S
C310 C315 1.399 . S
C311 C310 1.399 . S
C311 C312 1.376 . S
C312 H299 0.930 . S
C312 C311 1.376 . S
C312 C313 1.388 . S
C313 H300 0.930 . S
C313 C312 1.388 . S
C313 C314 1.390 . S
C314 C313 1.390 . S
C314 C315 1.394 . S
C314 C320 1.465 . S
C315 C310 1.399 . S
C315 C314 1.394 . S
C315 C316 1.516 . S
C316 C315 1.516 . S
C316 C317 1.502 . S
C316 C318 1.561 . S
C316 C319 1.526 . S
C317 H301 0.959 . S
C317 H302 0.959 . S
C317 H303 0.961 . S
C317 C316 1.502 . S
C318 H304 0.960 . S
C318 H305 0.961 . S
C318 H306 0.959 . S
C318 C316 1.561 . S
C319 C316 1.526 . S
C319 C320 1.396 . S
C319 C324 1.390 . S
C320 C314 1.465 . S
C320 C319 1.396 . S
C320 C321 1.399 . S
C321 H307 0.929 . S
C321 C320 1.399 . S
C321 C322 1.385 . S
C322 H308 0.931 . S
C322 C321 1.385 . S
C322 C323 1.389 . S
C323 C322 1.389 . S
C323 C324 1.387 . S
C324 H309 0.930 . S
C324 C319 1.390 . S
C324 C323 1.387 . S
H325 C337 0.930 . S
H326 C339 0.930 . S
H327 C340 0.930 . S
H328 C344 0.959 . S
H329 C344 0.959 . S
H330 C344 0.961 . S
H331 C345 0.960 . S
H332 C345 0.961 . S
H333 C345 0.959 . S
H334 C348 0.929 . S
H335 C349 0.931 . S
H336 C351 0.930 . S
C337 H325 0.930 . S
C337 C338 1.399 . S
C337 C342 1.399 . S
C338 C337 1.399 . S
C338 C339 1.376 . S
C339 H326 0.930 . S
C339 C338 1.376 . S
C339 C340 1.388 . S
C340 H327 0.930 . S
C340 C339 1.388 . S
C340 C341 1.390 . S
C341 C340 1.390 . S
C341 C342 1.394 . S
C341 C347 1.465 . S
C342 C337 1.399 . S
C342 C341 1.394 . S
C342 C343 1.516 . S
C343 C342 1.516 . S
C343 C344 1.502 . S
C343 C345 1.561 . S
C343 C346 1.526 . S
C344 H328 0.959 . S
C344 H329 0.959 . S
C344 H330 0.961 . S
C344 C343 1.502 . S
C345 H331 0.960 . S
C345 H332 0.961 . S
C345 H333 0.959 . S
C345 C343 1.561 . S
C346 C343 1.526 . S
C346 C347 1.396 . S
C346 C351 1.390 . S
C347 C341 1.465 . S
C347 C346 1.396 . S
C347 C348 1.399 . S
C348 H334 0.929 . S
C348 C347 1.399 . S
C348 C349 1.385 . S
C349 H335 0.931 . S
C349 C348 1.385 . S
C349 C350 1.389 . S
C350 C349 1.389 . S
C350 C351 1.387 . S
C351 H336 0.930 . S
C351 C346 1.390 . S
C351 C350 1.387 . S
H352 C364 0.930 . S
H353 C366 0.930 . S
H354 C367 0.930 . S
H355 C371 0.959 . S
H356 C371 0.959 . S
H357 C371 0.961 . S
H358 C372 0.960 . S
H359 C372 0.961 1_455 S
H360 C372 0.959 . S
H361 C375 0.929 1_655 S
H362 C376 0.931 . S
H363 C378 0.930 . S
C364 H352 0.930 . S
C364 C365 1.399 . S
C364 C369 1.399 . S
C365 C364 1.399 . S
C365 C366 1.376 . S
C366 H353 0.930 . S
C366 C365 1.376 . S
C366 C367 1.388 . S
C367 H354 0.930 . S
C367 C366 1.388 . S
C367 C368 1.390 . S
C368 C367 1.390 . S
C368 C369 1.394 . S
C368 C374 1.465 . S
C369 C364 1.399 . S
C369 C368 1.394 . S
C369 C370 1.516 1_655 S
C370 C369 1.516 1_455 S
C370 C371 1.502 . S
C370 C372 1.561 1_455 S
C370 C373 1.526 . S
C371 H355 0.959 . S
C371 H356 0.959 . S
C371 H357 0.961 . S
C371 C370 1.502 . S
C372 H358 0.960 . S
C372 H359 0.961 1_655 S
C372 H360 0.959 . S
C372 C370 1.561 1_655 S
C373 C370 1.526 . S
C373 C374 1.396 1_455 S
C373 C378 1.390 . S
C374 C368 1.465 . S
C374 C373 1.396 1_655 S
C374 C375 1.399 1_655 S
C375 H361 0.929 1_455 S
C375 C374 1.399 1_455 S
C375 C376 1.385 . S
C376 H362 0.931 . S
C376 C375 1.385 . S
C376 C377 1.389 . S
C377 C376 1.389 . S
C377 C378 1.387 . S
C378 H363 0.930 . S
C378 C373 1.390 . S
C378 C377 1.387 . S
H379 C391 0.930 . S
H380 C393 0.930 1_455 S
H381 C394 0.930 . S
H382 C398 0.959 . S
H383 C398 0.959 . S
H384 C398 0.961 . S
H385 C399 0.960 . S
H386 C399 0.961 . S
H387 C399 0.959 . S
H388 C402 0.929 . S
H389 C403 0.931 . S
H390 C405 0.930 1_655 S
C391 H379 0.930 . S
C391 C392 1.399 . S
C391 C396 1.399 . S
C392 C391 1.399 . S
C392 C393 1.376 . S
C393 H380 0.930 1_655 S
C393 C392 1.376 . S
C393 C394 1.388 1_655 S
C394 H381 0.930 . S
C394 C393 1.388 1_455 S
C394 C395 1.390 . S
C395 C394 1.390 . S
C395 C396 1.394 1_455 S
C395 C401 1.465 . S
C396 C391 1.399 . S
C396 C395 1.394 1_655 S
C396 C397 1.516 . S
C397 C396 1.516 . S
C397 C398 1.502 . S
C397 C399 1.561 . S
C397 C400 1.526 1_655 S
C398 H382 0.959 . S
C398 H383 0.959 . S
C398 H384 0.961 . S
C398 C397 1.502 . S
C399 H385 0.960 . S
C399 H386 0.961 . S
C399 H387 0.959 . S
C399 C397 1.561 . S
C400 C397 1.526 1_455 S
C400 C401 1.396 . S
C400 C405 1.390 . S
C401 C395 1.465 . S
C401 C400 1.396 . S
C401 C402 1.399 . S
C402 H388 0.929 . S
C402 C401 1.399 . S
C402 C403 1.385 . S
C403 H389 0.931 . S
C403 C402 1.385 . S
C403 C404 1.389 . S
C404 C403 1.389 . S
C404 C405 1.387 . S
C405 H390 0.930 1_455 S
C405 C400 1.390 . S
C405 C404 1.387 . S
H406 C418 0.930 . S
H407 C420 0.930 . S
H408 C421 0.930 . S
H409 C425 0.959 . S
H410 C425 0.959 1_455 S
H411 C425 0.961 . S
H412 C426 0.960 . S
H413 C426 0.961 . S
H414 C426 0.959 . S
H415 C429 0.929 . S
H416 C430 0.931 . S
H417 C432 0.930 . S
C418 H406 0.930 . S
C418 C419 1.399 . S
C418 C423 1.399 . S
C419 C418 1.399 . S
C419 C420 1.376 . S
C420 H407 0.930 . S
C420 C419 1.376 . S
C420 C421 1.388 . S
C421 H408 0.930 . S
C421 C420 1.388 . S
C421 C422 1.390 . S
C422 C421 1.390 . S
C422 C423 1.394 . S
C422 C428 1.465 1_655 S
C423 C418 1.399 . S
C423 C422 1.394 . S
C423 C424 1.516 1_655 S
C424 C423 1.516 1_455 S
C424 C425 1.502 1_455 S
C424 C426 1.561 . S
C424 C427 1.526 . S
C425 H409 0.959 . S
C425 H410 0.959 1_655 S
C425 H411 0.961 . S
C425 C424 1.502 1_655 S
C426 H412 0.960 . S
C426 H413 0.961 . S
C426 H414 0.959 . S
C426 C424 1.561 . S
C427 C424 1.526 . S
C427 C428 1.396 . S
C427 C432 1.390 . S
C428 C422 1.465 1_455 S
C428 C427 1.396 . S
C428 C429 1.399 . S
C429 H415 0.929 . S
C429 C428 1.399 . S
C429 C430 1.385 . S
C430 H416 0.931 . S
C430 C429 1.385 . S
C430 C431 1.389 . S
C431 C430 1.389 . S
C431 C432 1.387 . S
C432 H417 0.930 . S
C432 C427 1.390 . S
C432 C431 1.387 . S
H433 C445 0.930 . S
H434 C447 0.930 . S
H435 C448 0.930 . S
H436 C452 0.959 . S
H437 C452 0.959 . S
H438 C452 0.961 . S
H439 C453 0.960 . S
H440 C453 0.956 1_655 S
H441 C453 0.959 . S
H442 C456 0.929 1_455 S
H443 C457 0.931 . S
H444 C459 0.930 . S
C445 H433 0.930 . S
C445 C446 1.399 . S
C445 C450 1.399 . S
C446 C445 1.399 . S
C446 C447 1.376 . S
C447 H434 0.930 . S
C447 C446 1.376 . S
C447 C448 1.388 . S
C448 H435 0.930 . S
C448 C447 1.388 . S
C448 C449 1.390 . S
C449 C448 1.390 . S
C449 C450 1.394 . S
C449 C455 1.465 . S
C450 C445 1.399 . S
C450 C449 1.394 . S
C450 C451 1.516 1_455 S
C451 C450 1.516 1_655 S
C451 C452 1.502 . S
C451 C453 1.561 1_655 S
C451 C454 1.526 . S
C452 H436 0.959 . S
C452 H437 0.959 . S
C452 H438 0.961 . S
C452 C451 1.502 . S
C453 H439 0.960 . S
C453 H440 0.956 1_455 S
C453 H441 0.959 . S
C453 C451 1.561 1_455 S
C454 C451 1.526 . S
C454 C455 1.396 1_655 S
C454 C459 1.390 . S
C455 C449 1.465 . S
C455 C454 1.396 1_455 S
C455 C456 1.399 1_455 S
C456 H442 0.929 1_655 S
C456 C455 1.399 1_655 S
C456 C457 1.385 . S
C457 H443 0.931 . S
C457 C456 1.385 . S
C457 C458 1.389 . S
C458 C457 1.389 . S
C458 C459 1.387 . S
C459 H444 0.930 . S
C459 C454 1.390 . S
C459 C458 1.387 . S
C149 C47 1.644 1_554 S
C161 C4 1.613 . S
C176 C72 1.615 . S
C188 C115 1.634 . S
C203 C13 1.613 . S
C215 C38 1.636 1_556 S
C230 C106 1.617 . S
C242 C81 1.632 . S
C257 C131 0.991 . S
C269 C17 1.029 . S
C284 C63 1.002 . S
C296 C85 1.025 . S
C311 C42 0.999 . S
C323 C68 1.024 . S
C338 C110 1.030 . S
C350 C0 1.007 . S
C365 C51 1.007 . S
C377 C97 1.031 . S
C392 C119 1.030 . S
C404 C29 0.985 . S
C419 C102 1.026 . S
C431 C8 1.023 . S
C446 C76 1.000 . S
C458 C34 1.015 . S
