# Generated by pormake.
# Topology bcu-l, (5)-cn, num edge types: 1
# Building blocks:
#     Node 0, Type 0, BuildingBlock: BEQFEK_clean_sbu_0, # of connection points: 5
#     Node 1, Type 0, BuildingBlock: BEQFEK_clean_sbu_0, # of connection points: 5
#     Node 2, Type 0, BuildingBlock: BEQFEK_clean_sbu_0, # of connection points: 5
#     Node 3, Type 0, BuildingBlock: BEQFEK_clean_sbu_0, # of connection points: 5
#     Node 4, Type 0, BuildingBlock: BEQFEK_clean_sbu_0, # of connection points: 5
#     Node 5, Type 0, BuildingBlock: BEQFEK_clean_sbu_0, # of connection points: 5
#     Node 6, Type 0, BuildingBlock: BEQFEK_clean_sbu_0, # of connection points: 5
#     Node 7, Type 0, BuildingBlock: BEQFEK_clean_sbu_0, # of connection points: 5
#     Node 8, Type 0, BuildingBlock: BEQFEK_clean_sbu_0, # of connection points: 5
#     Node 9, Type 0, BuildingBlock: BEQFEK_clean_sbu_0, # of connection points: 5
#     Node 10, Type 0, BuildingBlock: BEQFEK_clean_sbu_0, # of connection points: 5
#     Node 11, Type 0, BuildingBlock: BEQFEK_clean_sbu_0, # of connection points: 5
#     Node 12, Type 0, BuildingBlock: BEQFEK_clean_sbu_0, # of connection points: 5
#     Node 13, Type 0, BuildingBlock: BEQFEK_clean_sbu_0, # of connection points: 5
#     Node 14, Type 0, BuildingBlock: BEQFEK_clean_sbu_0, # of connection points: 5
#     Node 15, Type 0, BuildingBlock: BEQFEK_clean_sbu_0, # of connection points: 5
#     Node 16, Type 0, BuildingBlock: BEQFEK_clean_sbu_0, # of connection points: 5
#     Node 17, Type 0, BuildingBlock: BEQFEK_clean_sbu_0, # of connection points: 5
#     Node 18, Type 0, BuildingBlock: BEQFEK_clean_sbu_0, # of connection points: 5
#     Node 19, Type 0, BuildingBlock: BEQFEK_clean_sbu_0, # of connection points: 5
#     Node 20, Type 0, BuildingBlock: BEQFEK_clean_sbu_0, # of connection points: 5
#     Node 21, Type 0, BuildingBlock: BEQFEK_clean_sbu_0, # of connection points: 5
#     Node 22, Type 0, BuildingBlock: BEQFEK_clean_sbu_0, # of connection points: 5
#     Node 23, Type 0, BuildingBlock: BEQFEK_clean_sbu_0, # of connection points: 5
#     Node 24, Type 0, BuildingBlock: BEQFEK_clean_sbu_0, # of connection points: 5
#     Node 25, Type 0, BuildingBlock: BEQFEK_clean_sbu_0, # of connection points: 5
#     Node 26, Type 0, BuildingBlock: BEQFEK_clean_sbu_0, # of connection points: 5
#     Node 27, Type 0, BuildingBlock: BEQFEK_clean_sbu_0, # of connection points: 5
#     Node 28, Type 0, BuildingBlock: BEQFEK_clean_sbu_0, # of connection points: 5
#     Node 29, Type 0, BuildingBlock: BEQFEK_clean_sbu_0, # of connection points: 5
#     Node 30, Type 0, BuildingBlock: BEQFEK_clean_sbu_0, # of connection points: 5
#     Node 31, Type 0, BuildingBlock: BEQFEK_clean_sbu_0, # of connection points: 5
#     Node 32, Type 0, BuildingBlock: BEQFEK_clean_sbu_0, # of connection points: 5
#     Node 33, Type 0, BuildingBlock: BEQFEK_clean_sbu_0, # of connection points: 5
#     Node 34, Type 0, BuildingBlock: BEQFEK_clean_sbu_0, # of connection points: 5
#     Node 35, Type 0, BuildingBlock: BEQFEK_clean_sbu_0, # of connection points: 5
#     Node 36, Type 0, BuildingBlock: BEQFEK_clean_sbu_0, # of connection points: 5
#     Node 37, Type 0, BuildingBlock: BEQFEK_clean_sbu_0, # of connection points: 5
#     Node 38, Type 0, BuildingBlock: BEQFEK_clean_sbu_0, # of connection points: 5
#     Node 39, Type 0, BuildingBlock: BEQFEK_clean_sbu_0, # of connection points: 5
#     Node 40, Type 0, BuildingBlock: BEQFEK_clean_sbu_0, # of connection points: 5
#     Node 41, Type 0, BuildingBlock: BEQFEK_clean_sbu_0, # of connection points: 5
#     Node 42, Type 0, BuildingBlock: BEQFEK_clean_sbu_0, # of connection points: 5
#     Node 43, Type 0, BuildingBlock: BEQFEK_clean_sbu_0, # of connection points: 5
#     Node 44, Type 0, BuildingBlock: BEQFEK_clean_sbu_0, # of connection points: 5
#     Node 45, Type 0, BuildingBlock: BEQFEK_clean_sbu_0, # of connection points: 5
#     Node 46, Type 0, BuildingBlock: BEQFEK_clean_sbu_0, # of connection points: 5
#     Node 47, Type 0, BuildingBlock: BEQFEK_clean_sbu_0, # of connection points: 5
#     Edge 48, Type (0, 0), BuildingBlock: AJUNOK_clean_linker_0, # of connection points: 2
#     Edge 49, Type (0, 0), BuildingBlock: AJUNOK_clean_linker_0, # of connection points: 2
#     Edge 50, Type (0, 0), BuildingBlock: AJUNOK_clean_linker_0, # of connection points: 2
#     Edge 51, Type (0, 0), BuildingBlock: AJUNOK_clean_linker_0, # of connection points: 2
#     Edge 52, Type (0, 0), BuildingBlock: AJUNOK_clean_linker_0, # of connection points: 2
#     Edge 53, Type (0, 0), BuildingBlock: AJUNOK_clean_linker_0, # of connection points: 2
#     Edge 54, Type (0, 0), BuildingBlock: AJUNOK_clean_linker_0, # of connection points: 2
#     Edge 55, Type (0, 0), BuildingBlock: AJUNOK_clean_linker_0, # of connection points: 2
#     Edge 56, Type (0, 0), BuildingBlock: AJUNOK_clean_linker_0, # of connection points: 2
#     Edge 57, Type (0, 0), BuildingBlock: AJUNOK_clean_linker_0, # of connection points: 2
#     Edge 58, Type (0, 0), BuildingBlock: AJUNOK_clean_linker_0, # of connection points: 2
#     Edge 59, Type (0, 0), BuildingBlock: AJUNOK_clean_linker_0, # of connection points: 2
#     Edge 60, Type (0, 0), BuildingBlock: AJUNOK_clean_linker_0, # of connection points: 2
#     Edge 61, Type (0, 0), BuildingBlock: AJUNOK_clean_linker_0, # of connection points: 2
#     Edge 62, Type (0, 0), BuildingBlock: AJUNOK_clean_linker_0, # of connection points: 2
#     Edge 63, Type (0, 0), BuildingBlock: AJUNOK_clean_linker_0, # of connection points: 2
#     Edge 64, Type (0, 0), BuildingBlock: AJUNOK_clean_linker_0, # of connection points: 2
#     Edge 65, Type (0, 0), BuildingBlock: AJUNOK_clean_linker_0, # of connection points: 2
#     Edge 66, Type (0, 0), BuildingBlock: AJUNOK_clean_linker_0, # of connection points: 2
#     Edge 67, Type (0, 0), BuildingBlock: AJUNOK_clean_linker_0, # of connection points: 2
#     Edge 68, Type (0, 0), BuildingBlock: AJUNOK_clean_linker_0, # of connection points: 2
#     Edge 69, Type (0, 0), BuildingBlock: AJUNOK_clean_linker_0, # of connection points: 2
#     Edge 70, Type (0, 0), BuildingBlock: AJUNOK_clean_linker_0, # of connection points: 2
#     Edge 71, Type (0, 0), BuildingBlock: AJUNOK_clean_linker_0, # of connection points: 2
#     Edge 72, Type (0, 0), BuildingBlock: AJUNOK_clean_linker_0, # of connection points: 2
#     Edge 73, Type (0, 0), BuildingBlock: AJUNOK_clean_linker_0, # of connection points: 2
#     Edge 74, Type (0, 0), BuildingBlock: AJUNOK_clean_linker_0, # of connection points: 2
#     Edge 75, Type (0, 0), BuildingBlock: AJUNOK_clean_linker_0, # of connection points: 2
#     Edge 76, Type (0, 0), BuildingBlock: AJUNOK_clean_linker_0, # of connection points: 2
#     Edge 77, Type (0, 0), BuildingBlock: AJUNOK_clean_linker_0, # of connection points: 2
#     Edge 78, Type (0, 0), BuildingBlock: AJUNOK_clean_linker_0, # of connection points: 2
#     Edge 79, Type (0, 0), BuildingBlock: AJUNOK_clean_linker_0, # of connection points: 2
#     Edge 80, Type (0, 0), BuildingBlock: AJUNOK_clean_linker_0, # of connection points: 2
#     Edge 81, Type (0, 0), BuildingBlock: AJUNOK_clean_linker_0, # of connection points: 2
#     Edge 82, Type (0, 0), BuildingBlock: AJUNOK_clean_linker_0, # of connection points: 2
#     Edge 83, Type (0, 0), BuildingBlock: AJUNOK_clean_linker_0, # of connection points: 2
#     Edge 84, Type (0, 0), BuildingBlock: AJUNOK_clean_linker_0, # of connection points: 2
#     Edge 85, Type (0, 0), BuildingBlock: AJUNOK_clean_linker_0, # of connection points: 2
#     Edge 86, Type (0, 0), BuildingBlock: AJUNOK_clean_linker_0, # of connection points: 2
#     Edge 87, Type (0, 0), BuildingBlock: AJUNOK_clean_linker_0, # of connection points: 2
#     Edge 88, Type (0, 0), BuildingBlock: AJUNOK_clean_linker_0, # of connection points: 2
#     Edge 89, Type (0, 0), BuildingBlock: AJUNOK_clean_linker_0, # of connection points: 2
#     Edge 90, Type (0, 0), BuildingBlock: AJUNOK_clean_linker_0, # of connection points: 2
#     Edge 91, Type (0, 0), BuildingBlock: AJUNOK_clean_linker_0, # of connection points: 2
#     Edge 92, Type (0, 0), BuildingBlock: AJUNOK_clean_linker_0, # of connection points: 2
#     Edge 93, Type (0, 0), BuildingBlock: AJUNOK_clean_linker_0, # of connection points: 2
#     Edge 94, Type (0, 0), BuildingBlock: AJUNOK_clean_linker_0, # of connection points: 2
#     Edge 95, Type (0, 0), BuildingBlock: AJUNOK_clean_linker_0, # of connection points: 2
#     Edge 96, Type (0, 0), BuildingBlock: AJUNOK_clean_linker_0, # of connection points: 2
#     Edge 97, Type (0, 0), BuildingBlock: AJUNOK_clean_linker_0, # of connection points: 2
#     Edge 98, Type (0, 0), BuildingBlock: AJUNOK_clean_linker_0, # of connection points: 2
#     Edge 99, Type (0, 0), BuildingBlock: AJUNOK_clean_linker_0, # of connection points: 2
#     Edge 100, Type (0, 0), BuildingBlock: AJUNOK_clean_linker_0, # of connection points: 2
#     Edge 101, Type (0, 0), BuildingBlock: AJUNOK_clean_linker_0, # of connection points: 2
#     Edge 102, Type (0, 0), BuildingBlock: AJUNOK_clean_linker_0, # of connection points: 2
#     Edge 103, Type (0, 0), BuildingBlock: AJUNOK_clean_linker_0, # of connection points: 2
#     Edge 104, Type (0, 0), BuildingBlock: AJUNOK_clean_linker_0, # of connection points: 2
#     Edge 105, Type (0, 0), BuildingBlock: AJUNOK_clean_linker_0, # of connection points: 2
#     Edge 106, Type (0, 0), BuildingBlock: AJUNOK_clean_linker_0, # of connection points: 2
#     Edge 107, Type (0, 0), BuildingBlock: AJUNOK_clean_linker_0, # of connection points: 2
#     Edge 108, Type (0, 0), BuildingBlock: AJUNOK_clean_linker_0, # of connection points: 2
#     Edge 109, Type (0, 0), BuildingBlock: AJUNOK_clean_linker_0, # of connection points: 2
#     Edge 110, Type (0, 0), BuildingBlock: AJUNOK_clean_linker_0, # of connection points: 2
#     Edge 111, Type (0, 0), BuildingBlock: AJUNOK_clean_linker_0, # of connection points: 2
#     Edge 112, Type (0, 0), BuildingBlock: AJUNOK_clean_linker_0, # of connection points: 2
#     Edge 113, Type (0, 0), BuildingBlock: AJUNOK_clean_linker_0, # of connection points: 2
#     Edge 114, Type (0, 0), BuildingBlock: AJUNOK_clean_linker_0, # of connection points: 2
#     Edge 115, Type (0, 0), BuildingBlock: AJUNOK_clean_linker_0, # of connection points: 2
#     Edge 116, Type (0, 0), BuildingBlock: AJUNOK_clean_linker_0, # of connection points: 2
#     Edge 117, Type (0, 0), BuildingBlock: AJUNOK_clean_linker_0, # of connection points: 2
#     Edge 118, Type (0, 0), BuildingBlock: AJUNOK_clean_linker_0, # of connection points: 2
#     Edge 119, Type (0, 0), BuildingBlock: AJUNOK_clean_linker_0, # of connection points: 2
#     Edge 120, Type (0, 0), BuildingBlock: AJUNOK_clean_linker_0, # of connection points: 2
#     Edge 121, Type (0, 0), BuildingBlock: AJUNOK_clean_linker_0, # of connection points: 2
#     Edge 122, Type (0, 0), BuildingBlock: AJUNOK_clean_linker_0, # of connection points: 2
#     Edge 123, Type (0, 0), BuildingBlock: AJUNOK_clean_linker_0, # of connection points: 2
#     Edge 124, Type (0, 0), BuildingBlock: AJUNOK_clean_linker_0, # of connection points: 2
#     Edge 125, Type (0, 0), BuildingBlock: AJUNOK_clean_linker_0, # of connection points: 2
#     Edge 126, Type (0, 0), BuildingBlock: AJUNOK_clean_linker_0, # of connection points: 2
#     Edge 127, Type (0, 0), BuildingBlock: AJUNOK_clean_linker_0, # of connection points: 2
#     Edge 128, Type (0, 0), BuildingBlock: AJUNOK_clean_linker_0, # of connection points: 2
#     Edge 129, Type (0, 0), BuildingBlock: AJUNOK_clean_linker_0, # of connection points: 2
#     Edge 130, Type (0, 0), BuildingBlock: AJUNOK_clean_linker_0, # of connection points: 2
#     Edge 131, Type (0, 0), BuildingBlock: AJUNOK_clean_linker_0, # of connection points: 2
#     Edge 132, Type (0, 0), BuildingBlock: AJUNOK_clean_linker_0, # of connection points: 2
#     Edge 133, Type (0, 0), BuildingBlock: AJUNOK_clean_linker_0, # of connection points: 2
#     Edge 134, Type (0, 0), BuildingBlock: AJUNOK_clean_linker_0, # of connection points: 2
#     Edge 135, Type (0, 0), BuildingBlock: AJUNOK_clean_linker_0, # of connection points: 2
#     Edge 136, Type (0, 0), BuildingBlock: AJUNOK_clean_linker_0, # of connection points: 2
#     Edge 137, Type (0, 0), BuildingBlock: AJUNOK_clean_linker_0, # of connection points: 2
#     Edge 138, Type (0, 0), BuildingBlock: AJUNOK_clean_linker_0, # of connection points: 2
#     Edge 139, Type (0, 0), BuildingBlock: AJUNOK_clean_linker_0, # of connection points: 2
#     Edge 140, Type (0, 0), BuildingBlock: AJUNOK_clean_linker_0, # of connection points: 2
#     Edge 141, Type (0, 0), BuildingBlock: AJUNOK_clean_linker_0, # of connection points: 2
#     Edge 142, Type (0, 0), BuildingBlock: AJUNOK_clean_linker_0, # of connection points: 2
#     Edge 143, Type (0, 0), BuildingBlock: AJUNOK_clean_linker_0, # of connection points: 2
#     Edge 144, Type (0, 0), BuildingBlock: AJUNOK_clean_linker_0, # of connection points: 2
#     Edge 145, Type (0, 0), BuildingBlock: AJUNOK_clean_linker_0, # of connection points: 2
#     Edge 146, Type (0, 0), BuildingBlock: AJUNOK_clean_linker_0, # of connection points: 2
#     Edge 147, Type (0, 0), BuildingBlock: AJUNOK_clean_linker_0, # of connection points: 2
#     Edge 148, Type (0, 0), BuildingBlock: AJUNOK_clean_linker_0, # of connection points: 2
#     Edge 149, Type (0, 0), BuildingBlock: AJUNOK_clean_linker_0, # of connection points: 2
#     Edge 150, Type (0, 0), BuildingBlock: AJUNOK_clean_linker_0, # of connection points: 2
#     Edge 151, Type (0, 0), BuildingBlock: AJUNOK_clean_linker_0, # of connection points: 2
#     Edge 152, Type (0, 0), BuildingBlock: AJUNOK_clean_linker_0, # of connection points: 2
#     Edge 153, Type (0, 0), BuildingBlock: AJUNOK_clean_linker_0, # of connection points: 2
#     Edge 154, Type (0, 0), BuildingBlock: AJUNOK_clean_linker_0, # of connection points: 2
#     Edge 155, Type (0, 0), BuildingBlock: AJUNOK_clean_linker_0, # of connection points: 2
#     Edge 156, Type (0, 0), BuildingBlock: AJUNOK_clean_linker_0, # of connection points: 2
#     Edge 157, Type (0, 0), BuildingBlock: AJUNOK_clean_linker_0, # of connection points: 2
#     Edge 158, Type (0, 0), BuildingBlock: AJUNOK_clean_linker_0, # of connection points: 2
#     Edge 159, Type (0, 0), BuildingBlock: AJUNOK_clean_linker_0, # of connection points: 2
#     Edge 160, Type (0, 0), BuildingBlock: AJUNOK_clean_linker_0, # of connection points: 2
#     Edge 161, Type (0, 0), BuildingBlock: AJUNOK_clean_linker_0, # of connection points: 2
#     Edge 162, Type (0, 0), BuildingBlock: AJUNOK_clean_linker_0, # of connection points: 2
#     Edge 163, Type (0, 0), BuildingBlock: AJUNOK_clean_linker_0, # of connection points: 2
#     Edge 164, Type (0, 0), BuildingBlock: AJUNOK_clean_linker_0, # of connection points: 2
#     Edge 165, Type (0, 0), BuildingBlock: AJUNOK_clean_linker_0, # of connection points: 2
#     Edge 166, Type (0, 0), BuildingBlock: AJUNOK_clean_linker_0, # of connection points: 2
#     Edge 167, Type (0, 0), BuildingBlock: AJUNOK_clean_linker_0, # of connection points: 2
# Relax obj value: 0.136
# Max RMSD: 0.105
# Mean RMSD: 0.105
data_MOF--net-bcu-l--node1-BEQFEK_clean_sbu_0--edge1-AJUNOK_clean_linker_0
_symmetry_space_group_name_H-M    P1
_symmetry_Int_Tables_number       1
_symmetry_cell_setting            triclinic
loop_
_symmetry_equiv_pos_as_xyz
'x, y, z'
_cell_length_a     51.490073
_cell_length_b     51.463439
_cell_length_c     51.490013
_cell_angle_alpha  90.03919
_cell_angle_beta   90.001569
_cell_angle_gamma 90.041802
loop_
_atom_site_label
_atom_site_type_symbol
_atom_site_fract_x
_atom_site_fract_y
_atom_site_fract_z
_atom_type_partial_charge
Co0 Co 0.04404 0.26421 0.40186 0.0
Co1 Co 1.00169 0.22906 0.3765 0.0
C2 C 0.98836 0.26652 0.41956 0.0
O3 O 1.01207 0.27297 0.42055 0.0
O4 O 0.98072 0.24951 0.40326 0.0
C5 C 0.07331 0.26957 0.44559 0.0
O6 O 0.05925 0.24903 0.45122 0.0
C7 C 0.96727 0.18399 0.3796 0.0
C8 C 0.96035 0.17348 0.33863 0.0
C9 C 0.9554 0.16554 0.36388 0.0
N10 N 0.97928 0.20158 0.36441 0.0
N11 N 0.97484 0.19533 0.3399 0.0
C12 C 0.96714 0.18526 0.40866 0.0
H13 H 0.95939 0.20436 0.41491 0.0
H14 H 0.98733 0.18384 0.41604 0.0
H15 H 0.95505 0.16967 0.41732 0.0
C16 C 0.07444 0.21688 0.39834 0.0
N17 N 0.05109 0.22866 0.39875 0.0
N18 N 0.03332 0.21297 0.38925 0.0
C19 C 0.04493 0.19003 0.38343 0.0
C20 C 0.07144 0.19183 0.38895 0.0
C21 C 0.09971 0.23117 0.4009 0.0
H22 H 0.09741 0.2517 0.39488 0.0
H23 H 0.10615 0.23055 0.42143 0.0
H24 H 0.11511 0.22224 0.38876 0.0
O25 O 0.04343 0.27775 0.36654 0.0
O26 O 1.01284 0.25354 0.3472 0.0
H27 H 0.02434 0.17302 0.35155 0.0
H28 H 0.04435 0.15027 0.36952 0.0
C29 C 0.03142 0.16743 0.37111 0.0
H30 H 1.01455 0.16185 0.38312 0.0
H31 H 0.98222 0.20558 0.32404 0.0
O32 O 0.07071 0.28048 0.42363 0.0
C33 C 0.03028 0.27141 0.34653 0.0
Co34 Co 0.82583 0.04476 0.40431 0.0
Co35 Co 0.8617 1.00444 0.37723 0.0
C36 C 0.82217 0.98804 0.41758 0.0
O37 O 0.81401 1.01123 0.41903 0.0
O38 O 0.84154 0.98242 0.4032 0.0
C39 C 0.80933 0.06782 0.44953 0.0
O40 O 0.82022 0.04658 0.45856 0.0
C41 C 0.9091 0.97339 0.37929 0.0
C42 C 0.91456 0.96068 0.33882 0.0
C43 C 0.92602 0.95928 0.36327 0.0
N44 N 0.88933 0.98258 0.36484 0.0
N45 N 0.89262 0.97478 0.34066 0.0
C46 C 0.91162 0.97942 0.40763 0.0
H47 H 0.89768 0.9947 0.41353 0.0
H48 H 0.93166 0.98593 0.41219 0.0
H49 H 0.90698 0.96178 0.41912 0.0
C50 C 0.87413 0.07419 0.40755 0.0
N51 N 0.86198 0.05113 0.40475 0.0
N52 N 0.87702 0.03529 0.39153 0.0
C53 C 0.8991 0.04806 0.38513 0.0
C54 C 0.89801 0.07315 0.39516 0.0
C55 C 0.86131 0.09823 0.41774 0.0
H56 H 0.84452 0.1032 0.4052 0.0
H57 H 0.85417 0.09458 0.4377 0.0
H58 H 0.87491 0.11495 0.41837 0.0
O59 O 0.81495 0.0472 0.36802 0.0
O60 O 0.83811 1.01643 0.34795 0.0
H61 H 0.90775 0.02905 0.34904 0.0
H62 H 0.93041 0.05452 0.35769 0.0
C63 C 0.91818 0.03851 0.36536 0.0
H64 H 0.9311 0.02393 0.3745 0.0
H65 H 0.88009 0.97934 0.3254 0.0
O66 O 0.80874 0.07154 0.42518 0.0
C67 C 0.82119 0.03472 0.34756 0.0
Co68 Co 0.04627 0.82739 0.40479 0.0
Co69 Co 0.08795 0.85896 0.37478 0.0
C70 C 0.10157 0.82493 0.42117 0.0
O71 O 0.07769 0.8201 0.42435 0.0
O72 O 0.10899 0.83942 0.4025 0.0
C73 C 1.01593 0.82047 0.4482 0.0
O74 O 0.02899 0.84118 0.45544 0.0
C75 C 0.12203 0.90397 0.37636 0.0
C76 C 0.13338 0.91003 0.33558 0.0
C77 C 0.13626 0.92066 0.36029 0.0
N78 N 0.11126 0.8851 0.36175 0.0
N79 N 0.11832 0.88868 0.33739 0.0
C80 C 0.11663 0.90653 0.40483 0.0
H81 H 0.09987 0.89427 0.41055 0.0
H82 H 0.11255 0.92707 0.40997 0.0
H83 H 0.13377 0.89974 0.41597 0.0
C84 C 1.01645 0.87525 0.39975 0.0
N85 N 0.03929 0.86254 0.39917 0.0
N86 N 0.05668 0.87655 0.38678 0.0
C87 C 0.04536 0.89925 0.37966 0.0
C88 C 1.01946 0.89912 0.38768 0.0
C89 C 0.99106 0.86263 0.40651 0.0
H90 H 0.99131 0.84186 0.40085 0.0
H91 H 0.98785 0.8641 0.42775 0.0
H92 H 0.97449 0.87208 0.39651 0.0
O93 O 0.04811 0.81074 0.37119 0.0
O94 O 0.07654 0.83282 0.34704 0.0
H95 H 0.06603 0.91137 0.34563 0.0
H96 H 0.04527 0.9363 0.35952 0.0
C97 C 0.05848 0.9199 0.36393 0.0
H98 H 0.07506 0.92783 0.37503 0.0
H99 H 0.11243 0.87691 0.32196 0.0
O100 O 1.01935 0.81109 0.42569 0.0
C101 C 0.06009 0.81429 0.34988 0.0
Co102 Co 0.26504 0.04769 0.40178 0.0
Co103 Co 0.22837 0.08661 0.37358 0.0
C104 C 0.26325 0.10303 0.41836 0.0
O105 O 0.27031 0.07973 0.42183 0.0
O106 O 0.24743 0.10891 0.40027 0.0
C107 C 0.27294 1.01734 0.44472 0.0
O108 O 0.25168 0.02984 0.45128 0.0
C109 C 0.18166 0.11827 0.37656 0.0
C110 C 0.17353 0.12864 0.33587 0.0
C111 C 0.16384 0.13156 0.36095 0.0
N112 N 0.20031 0.10798 0.36138 0.0
N113 N 0.19545 0.1144 0.33706 0.0
C114 C 0.18052 0.11338 0.40521 0.0
H115 H 0.19325 0.09687 0.4106 0.0
H116 H 0.16031 0.10913 0.41139 0.0
H117 H 0.18763 0.13083 0.4157 0.0
C118 C 0.21955 1.01372 0.39684 0.0
N119 N 0.23018 0.03768 0.39685 0.0
N120 N 0.21397 0.05421 0.3861 0.0
C121 C 0.19198 0.04122 0.37965 0.0
C122 C 0.19486 1.01505 0.38617 0.0
C123 C 0.23465 0.98928 0.40167 0.0
H124 H 0.25519 0.9919 0.39581 0.0
H125 H 0.23386 0.98452 0.42266 0.0
H126 H 0.22655 0.9726 0.39067 0.0
O127 O 0.28073 0.05128 0.36736 0.0
O128 O 0.25373 0.07695 0.34494 0.0
H129 H 0.1757 0.0611 0.34694 0.0
H130 H 0.15329 0.03912 0.36304 0.0
C131 C 0.16932 0.05322 0.36595 0.0
H132 H 0.16165 0.06943 0.37775 0.0
H133 H 0.20687 0.10879 0.32128 0.0
O134 O 0.28304 1.02143 0.4226 0.0
C135 C 0.274 0.06255 0.34638 0.0
Co136 Co 0.0416 0.82713 0.68846 0.0
Co137 Co 1.0005 0.86296 0.71455 0.0
C138 C 0.9855 0.82373 0.67323 0.0
O139 O 1.0091 0.81714 0.67129 0.0
O140 O 0.97869 0.84144 0.68917 0.0
C141 C 0.06659 0.81252 0.64404 0.0
O142 O 0.04726 0.82626 0.63463 0.0
C143 C 0.96759 0.90919 0.71128 0.0
C144 C 0.95951 0.91875 0.75227 0.0
C145 C 0.95561 0.92747 0.72709 0.0
N146 N 0.97867 0.89094 0.72638 0.0
N147 N 0.97357 0.89667 0.75089 0.0
C148 C 0.96836 0.90876 0.68221 0.0
H149 H 0.98759 0.91577 0.67546 0.0
H150 H 0.95297 0.92129 0.6738 0.0
H151 H 0.96596 0.88859 0.67507 0.0
C152 C 0.0718 0.87442 0.68728 0.0
N153 N 0.04842 0.86278 0.68888 0.0
N154 N 0.03171 0.87843 0.70019 0.0
C155 C 0.04415 0.90098 0.70584 0.0
C156 C 0.07001 0.89911 0.69792 0.0
C157 C 0.09644 0.85992 0.68169 0.0
H158 H 0.09661 0.84148 0.69281 0.0
H159 H 0.09729 0.85527 0.66068 0.0
H160 H 0.11406 0.87107 0.68698 0.0
O161 O 0.04232 0.81559 0.72443 0.0
O162 O 1.01226 0.83979 0.74438 0.0
H163 H 0.02563 0.91529 0.74025 0.0
H164 H 0.04645 0.93884 0.72428 0.0
C165 C 0.03247 0.92273 0.72123 0.0
H166 H 1.0156 0.93067 0.71062 0.0
H167 H 0.98012 0.88581 0.76669 0.0
O168 O 0.06854 0.80962 0.66841 0.0
C169 C 0.03002 0.82232 0.74479 0.0
Co170 Co 0.26433 0.0435 0.6894 0.0
Co171 Co 0.22971 1.00056 0.714 0.0
C172 C 0.26835 0.98781 0.67174 0.0
O173 O 0.27487 1.01152 0.6714 0.0
O174 O 0.25054 0.98007 0.68711 0.0
C175 C 0.27294 0.06903 0.6448 0.0
O176 O 0.25627 0.0508 0.63831 0.0
C177 C 0.18378 0.96782 0.71009 0.0
C178 C 0.17602 0.95629 0.75051 0.0
C179 C 0.1659 0.95421 0.7255 0.0
N180 N 0.20262 0.97757 0.72541 0.0
N181 N 0.19805 0.97036 0.74954 0.0
C182 C 0.18272 0.97352 0.68158 0.0
H183 H 0.19721 0.98855 0.67626 0.0
H184 H 0.16309 0.98039 0.67598 0.0
H185 H 0.18743 0.95562 0.67052 0.0
C186 C 0.21633 0.07274 0.69028 0.0
N187 N 0.22855 0.04962 0.691 0.0
N188 N 0.21332 0.03209 0.70159 0.0
C189 C 0.19043 0.04368 0.70759 0.0
C190 C 0.19164 0.06985 0.70059 0.0
C191 C 0.23005 0.09804 0.68558 0.0
H192 H 0.24948 0.09768 0.69483 0.0
H193 H 0.23255 0.10089 0.66438 0.0
H194 H 0.21919 0.11486 0.69349 0.0
O195 O 0.27674 0.04343 0.72513 0.0
O196 O 0.25361 1.01153 0.74364 0.0
H197 H 0.17631 1.02216 0.74033 0.0
H198 H 0.15275 0.04445 0.72654 0.0
C199 C 0.16877 0.03077 0.72209 0.0
H200 H 0.16052 1.01503 0.71003 0.0
H201 H 0.20954 0.97562 0.76539 0.0
O202 O 0.28016 0.07081 0.66832 0.0
C203 C 0.27065 0.02972 0.74482 0.0
Co204 Co 0.04763 0.26465 0.68954 0.0
Co205 Co 0.08798 0.22823 0.71577 0.0
C206 C 0.10407 0.2678 0.67547 0.0
O207 O 0.08099 0.27627 0.67447 0.0
O208 O 0.1097 0.24827 0.6896 0.0
C209 C 0.02438 0.28258 0.64503 0.0
O210 O 0.04532 0.27157 0.63548 0.0
C211 C 0.11863 0.18066 0.71234 0.0
C212 C 0.13205 0.17444 0.75246 0.0
C213 C 0.13293 0.16342 0.72777 0.0
N214 N 0.10981 0.20023 0.72732 0.0
N215 N 0.11803 0.19648 0.75128 0.0
C216 C 0.11209 0.17854 0.68408 0.0
H217 H 0.0964 0.19223 0.67876 0.0
H218 H 0.10599 0.15843 0.67923 0.0
H219 H 0.12937 0.18381 0.67235 0.0
C220 C 1.01799 0.21647 0.68566 0.0
N221 N 0.04103 0.22857 0.68872 0.0
N222 N 0.05681 0.21334 0.70175 0.0
C223 C 0.04404 0.19117 0.70781 0.0
C224 C 1.01897 0.19241 0.69777 0.0
C225 C 0.99414 0.22934 0.67514 0.0
H226 H 0.99828 0.23707 0.65551 0.0
H227 H 0.9776 0.21558 0.67366 0.0
H228 H 0.98863 0.24576 0.68797 0.0
O229 O 0.04587 0.27519 0.72594 0.0
O230 O 0.07688 0.25187 0.74544 0.0
H231 H 0.03755 0.15983 0.73523 0.0
H232 H 0.06774 0.15863 0.71773 0.0
C233 C 0.05363 0.17179 0.72727 0.0
H234 H 0.06362 0.18194 0.74344 0.0
H235 H 0.11383 0.20877 0.76685 0.0
O236 O 1.02078 0.28243 0.66941 0.0
C237 C 0.05863 0.26881 0.74614 0.0
Co238 Co 0.82694 0.04874 0.68768 0.0
Co239 Co 0.86277 0.08897 0.71501 0.0
C240 C 0.82336 0.10537 0.67471 0.0
O241 O 0.81524 0.08219 0.6731 0.0
O242 O 0.84262 0.11104 0.6892 0.0
C243 C 0.81102 0.02599 0.64226 0.0
O244 O 0.82254 0.04703 0.63353 0.0
C245 C 0.91017 0.11983 0.71255 0.0
C246 C 0.91638 0.13267 0.75296 0.0
C247 C 0.92714 0.1337 0.72828 0.0
N248 N 0.89067 0.11054 0.72729 0.0
N249 N 0.89446 0.11833 0.75146 0.0
C250 C 0.91169 0.11626 0.68373 0.0
H251 H 0.89192 0.11477 0.67532 0.0
H252 H 0.922 0.09785 0.67936 0.0
H253 H 0.9224 0.13255 0.67451 0.0
C254 C 0.8752 1.01949 0.68416 0.0
N255 N 0.86305 0.04251 0.68716 0.0
N256 N 0.87812 0.05832 0.7004 0.0
C257 C 0.90022 0.04554 0.70669 0.0
C258 C 0.89912 1.02051 0.69648 0.0
C259 C 0.86232 0.99545 0.67397 0.0
H260 H 0.85541 0.99903 0.65393 0.0
H261 H 0.8758 0.97865 0.67354 0.0
H262 H 0.84536 0.99061 0.68636 0.0
O263 O 0.81581 0.04622 0.72387 0.0
O264 O 0.8388 0.07706 0.74413 0.0
H265 H 0.93139 0.03874 0.73421 0.0
H266 H 0.93218 0.06956 0.71789 0.0
C267 C 0.91919 0.05483 0.72671 0.0
H268 H 0.90866 0.06401 0.74311 0.0
H269 H 0.88216 0.11383 0.76692 0.0
O270 O 0.80985 1.02221 0.66658 0.0
C271 C 0.82187 0.05876 0.74433 0.0
Co272 Co 0.407 0.04328 0.25602 0.0
Co273 Co 0.37382 1.00226 0.22665 0.0
C274 C 0.41851 0.98712 0.26264 0.0
O275 O 0.42321 1.01093 0.26641 0.0
O276 O 0.39992 0.98024 0.24769 0.0
C277 C 0.4536 0.06629 0.26736 0.0
O278 O 0.46136 0.04589 0.25414 0.0
C279 C 0.3741 0.97061 0.18003 0.0
C280 C 0.33374 0.95704 0.17554 0.0
C281 C 0.35793 0.95655 0.16363 0.0
N282 N 0.3601 0.97952 0.20023 0.0
N283 N 0.33594 0.97127 0.1975 0.0
C284 C 0.40271 0.97496 0.17719 0.0
H285 H 0.41197 0.9765 0.19658 0.0
H286 H 0.40608 0.99358 0.16688 0.0
H287 H 0.41185 0.95903 0.1659 0.0
C288 C 0.40588 0.06994 0.20661 0.0
N289 N 0.40354 0.04774 0.22026 0.0
N290 N 0.38774 0.03181 0.20809 0.0
C291 C 0.37894 0.04389 0.18643 0.0
C292 C 0.39025 0.06843 0.18476 0.0
C293 C 0.41884 0.09398 0.21671 0.0
H294 H 0.40873 0.10067 0.23452 0.0
H295 H 0.43927 0.08952 0.22171 0.0
H296 H 0.41874 0.10986 0.20213 0.0
O297 O 0.37236 0.04539 0.27151 0.0
O298 O 0.34674 1.01669 0.25153 0.0
H299 H 0.34722 0.05069 0.15959 0.0
H300 H 0.36267 1.01951 0.15707 0.0
C301 C 0.35613 0.03466 0.1709 0.0
H302 H 0.34133 0.02602 0.18395 0.0
H303 H 0.32092 0.97558 0.2104 0.0
O304 O 0.42945 0.07019 0.27041 0.0
C305 C 0.35025 0.03461 0.26854 0.0
Co306 Co 0.04604 0.40267 0.26124 0.0
Co307 Co 0.08678 0.37406 0.22697 0.0
C308 C 0.10242 0.41654 0.26493 0.0
O309 O 0.07874 0.41973 0.2708 0.0
O310 O 0.10897 0.39954 0.24811 0.0
C311 C 1.01861 0.44716 0.27215 0.0
O312 O 0.03355 0.45564 0.25328 0.0
C313 C 0.11814 0.37593 0.17969 0.0
C314 C 0.12909 0.33505 0.17294 0.0
C315 C 0.13099 0.35975 0.16228 0.0
N316 N 0.10855 0.36143 0.19923 0.0
N317 N 0.11527 0.33699 0.19513 0.0
C318 C 0.11553 0.40486 0.17842 0.0
H319 H 0.11546 0.4132 0.19829 0.0
H320 H 0.0967 0.40987 0.16923 0.0
H321 H 0.1315 0.4136 0.16688 0.0
C322 C 1.01644 0.40326 0.21296 0.0
N323 N 0.03943 0.40134 0.22539 0.0
N324 N 0.05589 0.38826 0.21086 0.0
C325 C 0.04353 0.38119 0.18871 0.0
C326 C 1.01828 0.39081 0.18918 0.0
C327 C 0.99164 0.41156 0.22579 0.0
H328 H 0.98992 0.40225 0.24513 0.0
H329 H 0.99184 0.43292 0.22836 0.0
H330 H 0.9743 0.40651 0.21404 0.0
O331 O 0.04478 0.36673 0.27395 0.0
O332 O 0.07454 0.34519 0.25079 0.0
H333 H 0.06207 0.34466 0.18113 0.0
H334 H 0.03795 0.3537 0.15725 0.0
C335 C 0.05353 0.36111 0.17018 0.0
H336 H 0.06888 0.36985 0.15789 0.0
H337 H 0.11016 0.32159 0.20728 0.0
O338 O 1.0198 0.42352 0.27896 0.0
C339 C 0.05668 0.34582 0.26814 0.0
Co340 Co 0.68968 0.0481 0.26899 0.0
Co341 Co 0.71305 0.08743 0.22973 0.0
C342 C 0.67352 0.10426 0.26938 0.0
O343 O 0.67339 0.08144 0.27858 0.0
O344 O 0.68712 0.10967 0.24943 0.0
C345 C 0.64589 1.02061 0.27911 0.0
O346 O 0.639 0.03422 0.25867 0.0
C347 C 0.7093 0.11935 0.18305 0.0
C348 C 0.75012 0.12797 0.17361 0.0
C349 C 0.72492 0.13193 0.16467 0.0
N350 N 0.72462 0.10845 0.2012 0.0
N351 N 0.74902 0.11386 0.19559 0.0
C352 C 0.68041 0.11584 0.18302 0.0
H353 H 0.67468 0.1 0.19646 0.0
H354 H 0.67336 0.11121 0.16319 0.0
H355 H 0.67103 0.134 0.18985 0.0
C356 C 0.68888 1.015 0.22307 0.0
N357 N 0.68987 0.03902 0.23347 0.0
N358 N 0.69894 0.05546 0.21619 0.0
C359 C 0.70298 0.0424 0.19367 0.0
C360 C 0.69657 1.01626 0.19724 0.0
C361 C 0.68723 0.99077 0.2392 0.0
H362 H 0.69583 0.9942 0.25864 0.0
H363 H 0.66656 0.98522 0.24166 0.0
H364 H 0.69765 0.97432 0.22999 0.0
O365 O 0.72561 0.04776 0.27983 0.0
O366 O 0.74345 0.0773 0.25337 0.0
H367 H 0.73488 0.06142 0.1749 0.0
H368 H 0.71645 0.04009 0.15374 0.0
C369 C 0.7152 0.05411 0.17002 0.0
H370 H 0.70332 0.07068 0.16334 0.0
H371 H 0.7649 0.1076 0.2065 0.0
O372 O 0.66878 1.02275 0.28798 0.0
C373 C 0.74519 0.06044 0.27166 0.0
Co374 Co 0.04447 0.68243 0.25843 0.0
Co375 Co 1.00286 0.71373 0.22794 0.0
C376 C 0.98903 0.66744 0.26271 0.0
O377 O 1.01284 0.66352 0.26724 0.0
O378 O 0.98203 0.68621 0.24811 0.0
C379 C 0.0708 0.63792 0.26961 0.0
O380 O 0.05166 0.62886 0.25539 0.0
C381 C 0.97068 0.71013 0.1816 0.0
C382 C 0.95395 0.74928 0.1771 0.0
C383 C 0.95419 0.72472 0.16583 0.0
N384 N 0.97935 0.72524 0.20116 0.0
N385 N 0.96921 0.74864 0.19841 0.0
C386 C 0.97973 0.68275 0.17739 0.0
H387 H 0.99944 0.6798 0.1852 0.0
H388 H 0.97972 0.67767 0.15644 0.0
H389 H 0.96682 0.66928 0.18816 0.0
C390 C 0.07275 0.68544 0.20959 0.0
N391 N 0.05037 0.68711 0.22306 0.0
N392 N 0.03399 0.7021 0.21054 0.0
C393 C 0.04574 0.7108 0.1887 0.0
C394 C 0.07059 0.7003 0.1873 0.0
C395 C 0.09727 0.67381 0.22002 0.0
H396 H 0.10271 0.68377 0.23834 0.0
H397 H 0.09402 0.65296 0.22426 0.0
H398 H 0.11356 0.67545 0.20601 0.0
O399 O 0.04314 0.71671 0.27449 0.0
O400 O 1.01435 0.74154 0.25359 0.0
H401 H 0.02534 0.74683 0.18403 0.0
H402 H 0.05063 0.74126 0.16011 0.0
C403 C 0.03512 0.73197 0.17186 0.0
H404 H 1.02051 0.72357 0.15844 0.0
H405 H 0.97288 0.7642 0.21088 0.0
O406 O 0.07249 0.66217 0.27362 0.0
C407 C 0.03134 0.73825 0.27152 0.0
Co408 Co 0.40273 0.04581 0.82967 0.0
Co409 Co 0.37383 0.08741 0.86272 0.0
C410 C 0.41572 0.10234 0.82412 0.0
O411 O 0.41848 0.07856 0.81845 0.0
O412 O 0.39934 0.1093 0.84136 0.0
C413 C 0.44819 1.02304 0.81388 0.0
O414 O 0.45701 0.04371 0.82598 0.0
C415 C 0.37532 0.11838 0.91 0.0
C416 C 0.335 0.13193 0.915 0.0
C417 C 0.35931 0.13232 0.92662 0.0
N418 N 0.36108 0.10963 0.8899 0.0
N419 N 0.33696 0.11786 0.89295 0.0
C420 C 0.40397 0.11413 0.91247 0.0
H421 H 0.41297 0.11254 0.89296 0.0
H422 H 0.40754 0.09559 0.92284 0.0
H423 H 0.41321 0.13015 0.92359 0.0
C424 C 0.40522 1.01853 0.87873 0.0
N425 N 0.40234 0.04103 0.86571 0.0
N426 N 0.38816 0.05714 0.87954 0.0
C427 C 0.38084 0.04484 0.90162 0.0
C428 C 0.39152 1.01998 0.90185 0.0
C429 C 0.4169 0.99448 0.86723 0.0
H430 H 0.40503 0.98802 0.85044 0.0
H431 H 0.43678 0.99884 0.86027 0.0
H432 H 0.41808 0.9785 0.88165 0.0
O433 O 0.36663 0.0436 0.81737 0.0
O434 O 0.34524 0.07449 0.83912 0.0
H435 H 0.34403 0.06359 0.90735 0.0
H436 H 0.35089 0.03807 0.93047 0.0
C437 C 0.35948 0.05419 0.91903 0.0
H438 H 0.36742 0.0687 0.93281 0.0
H439 H 0.32182 0.11371 0.88012 0.0
O440 O 0.42391 1.01878 0.81331 0.0
C441 C 0.34579 0.05598 0.82245 0.0
Co442 Co 0.04239 0.40229 0.82619 0.0
Co443 Co 1.00224 0.37567 0.86235 0.0
C444 C 0.98561 0.41532 0.82261 0.0
O445 O 1.00873 0.41646 0.8143 0.0
O446 O 0.98002 0.40155 0.84239 0.0
C447 C 0.06375 0.44812 0.81141 0.0
O448 O 0.04355 0.45558 0.82508 0.0
C449 C 0.97128 0.37853 0.90961 0.0
C450 C 0.95884 0.33809 0.91616 0.0
C451 C 0.95731 0.36288 0.92686 0.0
N452 N 0.98057 0.36362 0.89022 0.0
N453 N 0.97295 0.33946 0.89416 0.0
C454 C 0.97724 0.40694 0.91179 0.0
H455 H 0.99361 0.4124 0.89897 0.0
H456 H 0.98202 0.41214 0.93216 0.0
H457 H 0.96009 0.4183 0.90542 0.0
C458 C 0.07208 0.40589 0.87422 0.0
N459 N 0.04894 0.40309 0.86225 0.0
N460 N 0.03316 0.38999 0.87743 0.0
C461 C 0.04603 0.38364 0.89945 0.0
C462 C 0.07113 0.39362 0.8982 0.0
C463 C 0.09616 0.41545 0.86096 0.0
H464 H 0.0932 0.4358 0.85463 0.0
H465 H 0.11331 0.41483 0.874 0.0
H466 H 0.10004 0.40339 0.84351 0.0
O467 O 0.04509 0.36596 0.81542 0.0
O468 O 1.01399 0.34632 0.83858 0.0
H469 H 0.02752 0.34732 0.90816 0.0
H470 H 0.0525 0.35661 0.93111 0.0
C471 C 0.03655 0.36389 0.91858 0.0
H472 H 1.02162 0.37291 0.9312 0.0
H473 H 0.97762 0.3239 0.88203 0.0
O474 O 0.06822 0.42399 0.80885 0.0
C475 C 0.03231 0.34568 0.82168 0.0
Co476 Co 0.6879 0.04408 0.82685 0.0
Co477 Co 0.71559 1.0027 0.86121 0.0
C478 C 0.67238 0.98788 0.82412 0.0
O479 O 0.67027 1.01157 0.81784 0.0
O480 O 0.68924 0.98081 0.84083 0.0
C481 C 0.64307 0.07087 0.81764 0.0
O482 O 0.63578 0.0551 0.83632 0.0
C483 C 0.71425 0.97077 0.9081 0.0
C484 C 0.75539 0.96113 0.91504 0.0
C485 C 0.73069 0.95822 0.92551 0.0
N486 N 0.72856 0.9809 0.8887 0.0
N487 N 0.75316 0.97493 0.89288 0.0
C488 C 0.6853 0.97305 0.90951 0.0
H489 H 0.67703 0.97648 0.88994 0.0
H490 H 0.68009 0.98989 0.92191 0.0
H491 H 0.67668 0.95524 0.91807 0.0
C492 C 0.68819 0.07377 0.87512 0.0
N493 N 0.68981 0.05076 0.86266 0.0
N494 N 0.70209 0.0339 0.87741 0.0
C495 C 0.70873 0.04595 0.89989 0.0
C496 C 0.69988 0.07149 0.89921 0.0
C497 C 0.68 0.09867 0.86245 0.0
H498 H 0.65864 0.09863 0.86008 0.0
H499 H 0.68518 0.11596 0.87423 0.0
H500 H 0.68911 0.10036 0.84301 0.0
O501 O 0.72366 0.0447 0.81363 0.0
O502 O 0.74432 1.01441 0.83691 0.0
H503 H 0.73465 0.05049 0.93278 0.0
H504 H 0.71807 1.01983 0.93074 0.0
C505 C 0.72765 0.03526 0.9192 0.0
H506 H 0.7445 0.02667 0.90891 0.0
H507 H 0.76846 0.98068 0.8809 0.0
O508 O 0.66644 0.0704 0.80979 0.0
C509 C 0.7442 0.03212 0.8194 0.0
Co510 Co 0.04582 0.68849 0.82445 0.0
Co511 Co 0.08721 0.7146 0.85984 0.0
C512 C 0.10187 0.67256 0.82157 0.0
O513 O 0.07819 0.67062 0.8152 0.0
O514 O 0.10885 0.68882 0.83888 0.0
C515 C 1.01767 0.64437 0.81758 0.0
O516 O 0.03243 0.63817 0.83744 0.0
C517 C 0.12062 0.71145 0.90536 0.0
C518 C 0.13036 0.75227 0.91377 0.0
C519 C 0.13387 0.72716 0.92319 0.0
N520 N 0.10971 0.72663 0.88708 0.0
N521 N 0.11583 0.75102 0.89205 0.0
C522 C 0.1163 0.68267 0.90619 0.0
H523 H 0.10015 0.677 0.8931 0.0
H524 H 0.11177 0.67626 0.92626 0.0
H525 H 0.13408 0.6726 0.89938 0.0
C526 C 1.01518 0.69027 0.87175 0.0
N527 N 0.03859 0.69065 0.86006 0.0
N528 N 0.05592 0.7009 0.87578 0.0
C529 C 0.04398 0.70654 0.89859 0.0
C530 C 1.01771 0.70002 0.89671 0.0
C531 C 0.99007 0.68678 0.85737 0.0
H532 H 0.99203 0.69373 0.83711 0.0
H533 H 0.98484 0.66588 0.85716 0.0
H534 H 0.97395 0.69764 0.86665 0.0
O535 O 0.04541 0.72416 0.81173 0.0
O536 O 0.07533 0.74409 0.83623 0.0
H537 H 0.0646 0.73904 0.91452 0.0
H538 H 0.0433 0.72282 0.93748 0.0
C539 C 0.05682 0.72 0.92096 0.0
H540 H 0.07316 0.70802 0.92802 0.0
H541 H 0.10963 0.76682 0.88097 0.0
O542 O 1.01952 0.66686 0.80764 0.0
C543 C 0.05781 0.74451 0.81848 0.0
Co544 Co 0.26173 0.40205 0.04268 0.0
Co545 Co 0.22754 0.37471 1.00117 0.0
C546 C 0.26536 0.41776 0.98689 0.0
O547 O 0.27129 0.42019 1.01063 0.0
O548 O 0.24857 0.40093 0.97983 0.0
C549 C 0.27293 0.44607 0.06994 0.0
O550 O 0.25455 0.45454 0.05442 0.0
C551 C 0.1809 0.37756 0.96905 0.0
C552 C 0.17458 0.33712 0.95639 0.0
C553 C 0.16407 0.36192 0.95479 0.0
N554 N 0.2001 0.36272 0.97877 0.0
N555 N 0.19625 0.33853 0.97106 0.0
C556 C 0.17932 0.40633 0.97304 0.0
H557 H 0.19869 0.41437 0.97797 0.0
H558 H 0.16604 0.4105 0.98948 0.0
H559 H 0.17161 0.416 0.95539 0.0
C560 C 0.21334 0.402 0.07227 0.0
N561 N 0.22586 0.40045 0.0493 0.0
N562 N 0.21129 0.3879 0.03247 0.0
C563 C 0.18897 0.38081 0.04452 0.0
C564 C 0.18951 0.38964 0.07011 0.0
C565 C 0.22563 0.41136 0.09696 0.0
H566 H 0.22898 0.43256 0.09557 0.0
H567 H 0.21312 0.40794 0.11414 0.0
H568 H 0.24458 0.40157 0.09985 0.0
O569 O 0.2747 0.36618 0.04273 0.0
O570 O 0.2515 0.34555 1.01236 0.0
H571 H 0.15698 0.35373 0.04893 0.0
H572 H 0.15804 0.37106 1.01863 0.0
C573 C 0.17008 0.3615 0.03368 0.0
H574 H 0.18075 0.34519 0.0245 0.0
H575 H 0.20825 0.32297 0.97599 0.0
O576 O 0.27934 0.42229 0.06939 0.0
C577 C 0.26903 0.34567 0.03004 0.0
Co578 Co 0.26425 0.68772 0.04629 0.0
Co579 Co 0.2282 0.71402 0.08698 0.0
C580 C 0.2657 0.67156 0.10232 0.0
O581 O 0.2724 0.66953 0.07875 0.0
O582 O 0.24858 0.68814 0.10909 0.0
C583 C 0.27203 0.64412 1.01709 0.0
O584 O 0.25088 0.63762 0.0298 0.0
C585 C 0.18236 0.71288 0.12058 0.0
C586 C 0.17204 0.75431 0.1246 0.0
C587 C 0.16368 0.72946 0.13077 0.0
N588 N 0.20045 0.72719 0.10825 0.0
N589 N 0.19433 0.75199 0.111 0.0
C590 C 0.18329 0.68386 0.12251 0.0
H591 H 0.20292 0.6777 0.12885 0.0
H592 H 0.17982 0.67523 0.10307 0.0
H593 H 0.1687 0.67633 0.13646 0.0
C594 C 0.21759 0.69 1.01463 0.0
N595 N 0.22886 0.69019 0.03824 0.0
N596 N 0.21283 0.70019 0.05541 0.0
C597 C 0.19019 0.70575 0.04313 0.0
C598 C 0.19255 0.69959 1.01682 0.0
C599 C 0.23237 0.68663 0.98974 0.0
H600 H 0.25274 0.69314 0.99219 0.0
H601 H 0.23223 0.66581 0.98418 0.0
H602 H 0.22359 0.69795 0.97366 0.0
O603 O 0.27744 0.72314 0.04636 0.0
O604 O 0.2524 0.74321 0.07566 0.0
H605 H 0.17283 0.73831 0.0623 0.0
H606 H 0.15046 0.71963 0.04249 0.0
C607 C 0.16737 0.71851 0.05579 0.0
H608 H 0.16148 0.70707 0.07295 0.0
H609 H 0.20493 0.76728 0.10296 0.0
O610 O 0.2819 0.66647 1.02037 0.0
C611 C 0.27062 0.74349 0.05867 0.0
Co612 Co 0.4016 0.26094 0.04673 0.0
Co613 Co 0.37247 0.22755 0.08781 0.0
C614 C 0.41527 0.2653 0.10314 0.0
O615 O 0.41817 0.27133 0.07947 0.0
O616 O 0.39844 0.24833 0.10978 0.0
C617 C 0.44673 0.27653 1.0226 0.0
O618 O 0.4562 0.26504 0.0433 0.0
C619 C 0.37415 0.17965 0.11767 0.0
C620 C 0.33393 0.17422 0.13137 0.0
C621 C 0.35825 0.1626 0.13121 0.0
N622 N 0.35984 0.19998 0.10963 0.0
N623 N 0.33579 0.19668 0.11796 0.0
C624 C 0.40276 0.17729 0.11307 0.0
H625 H 0.40615 0.16746 0.0942 0.0
H626 H 0.41213 0.16571 0.12865 0.0
H627 H 0.41177 0.19685 0.11198 0.0
C628 C 0.40333 0.21212 1.01849 0.0
N629 N 0.4006 0.22494 0.04115 0.0
N630 N 0.38635 0.21103 0.05712 0.0
C631 C 0.37889 0.18908 0.0446 0.0
C632 C 0.38955 0.18902 1.01974 0.0
C633 C 0.41509 0.2237 0.99454 0.0
H634 H 0.40328 0.24058 0.98824 0.0
H635 H 0.43502 0.2305 0.99892 0.0
H636 H 0.41617 0.20939 0.97845 0.0
O637 O 0.36558 0.27361 0.04507 0.0
O638 O 0.34391 0.25158 0.07558 0.0
H639 H 0.34226 0.18317 0.06367 0.0
H640 H 0.34866 0.16058 0.03754 0.0
C641 C 0.35752 0.17161 0.05381 0.0
H642 H 0.36553 0.15744 0.06787 0.0
H643 H 0.3206 0.20957 0.11426 0.0
O644 O 0.4223 0.27737 1.01943 0.0
C645 C 0.34467 0.26844 0.05728 0.0
Co646 Co 0.82493 0.40141 0.04648 0.0
Co647 Co 0.85992 0.37594 0.08888 0.0
C648 C 0.82197 0.41866 0.10222 0.0
O649 O 0.81579 0.41977 0.07845 0.0
O650 O 0.83891 0.40235 0.10997 0.0
C651 C 0.81769 0.44499 1.01707 0.0
O652 O 0.83762 0.45197 0.0314 0.0
C653 C 0.9053 0.37758 0.12362 0.0
C654 C 0.91557 0.33621 0.12788 0.0
C655 C 0.92388 0.36107 0.13425 0.0
N656 N 0.88736 0.36321 0.11106 0.0
N657 N 0.89347 0.33844 0.11399 0.0
C658 C 0.90465 0.40665 0.1251 0.0
H659 H 0.8844 0.41378 0.12428 0.0
H660 H 0.91523 0.41495 0.10828 0.0
H661 H 0.914 0.41361 0.14324 0.0
C662 C 0.87264 0.39941 1.01661 0.0
N663 N 0.86058 0.39915 0.03981 0.0
N664 N 0.87612 0.38937 0.05756 0.0
C665 C 0.89921 0.38396 0.04606 0.0
C666 C 0.89767 0.39006 1.01969 0.0
C667 C 0.85868 0.40258 0.99123 0.0
H668 H 0.83838 0.39564 0.99293 0.0
H669 H 0.85858 0.42341 0.98577 0.0
H670 H 0.86824 0.39151 0.97541 0.0
O671 O 0.81196 0.36598 0.04655 0.0
O672 O 0.83588 0.34649 0.07712 0.0
H673 H 0.91589 0.35154 0.06603 0.0
H674 H 0.93881 0.3697 0.04642 0.0
C675 C 0.92167 0.3712 0.05937 0.0
H676 H 0.9274 0.38284 0.07648 0.0
H677 H 0.88306 0.3231 0.10578 0.0
O678 O 0.8081 0.42242 1.0197 0.0
C679 C 0.8183 0.34586 0.05943 0.0
Co680 Co 0.68693 0.82919 0.04311 0.0
Co681 Co 0.71319 0.86233 0.08632 0.0
C682 C 0.67171 0.82238 0.09884 0.0
O683 O 0.66969 0.81727 0.07487 0.0
O684 O 0.68754 0.83982 0.10654 0.0
C685 C 0.64293 0.81927 1.01575 0.0
O686 O 0.63484 0.83683 0.03241 0.0
C687 C 0.70811 0.90767 0.12027 0.0
C688 C 0.74746 0.91285 0.13638 0.0
C689 C 0.72258 0.92329 0.13706 0.0
N690 N 0.72364 0.88898 0.11051 0.0
N691 N 0.74714 0.89213 0.12032 0.0
C692 C 0.68049 0.91131 0.11186 0.0
H693 H 0.67751 0.90399 0.09191 0.0
H694 H 0.67482 0.9321 0.1127 0.0
H695 H 0.6676 0.89977 0.1247 0.0
C696 C 0.68664 0.87844 1.0155 0.0
N697 N 0.68765 0.86532 0.03814 0.0
N698 N 0.70023 0.87927 0.05546 0.0
C699 C 0.70792 0.90171 0.04409 0.0
C700 C 0.69931 0.90204 1.01847 0.0
C701 C 0.67896 0.86643 0.99009 0.0
H702 H 0.65777 0.86288 0.99008 0.0
H703 H 0.68346 0.8792 0.97333 0.0
H704 H 0.68911 0.8476 0.98754 0.0
O705 O 0.72318 0.81768 0.0423 0.0
O706 O 0.743 0.83973 0.07415 0.0
H707 H 0.73593 0.93302 0.04081 0.0
H708 H 0.71814 0.93171 0.07088 0.0
C709 C 0.72759 0.91978 0.05564 0.0
H710 H 0.74341 0.90842 0.06485 0.0
H711 H 0.76299 0.88031 0.11588 0.0
O712 O 0.66661 0.81249 1.0158 0.0
C713 C 0.74348 0.82343 0.05528 0.0
Co714 Co 0.82345 0.69081 0.04291 0.0
Co715 Co 0.85991 0.71499 1.00137 0.0
C716 C 0.82138 0.67282 0.98738 0.0
O717 O 0.81414 0.67229 1.01087 0.0
O718 O 0.83926 0.68838 0.98015 0.0
C719 C 0.81263 0.64689 0.06949 0.0
O720 O 0.82898 0.63878 0.05167 0.0
C721 C 0.9062 0.71139 0.9688 0.0
C722 C 0.91419 0.75211 0.95834 0.0
C723 C 0.92399 0.72707 0.95543 0.0
N724 N 0.88758 0.72656 0.97916 0.0
N725 N 0.89233 0.75088 0.97264 0.0
C726 C 0.90719 0.6827 0.97354 0.0
H727 H 0.89383 0.67717 0.98951 0.0
H728 H 0.92722 0.67655 0.97856 0.0
H729 H 0.90083 0.67229 0.95577 0.0
C730 C 0.87024 0.6912 0.07385 0.0
N731 N 0.85894 0.69213 0.05032 0.0
N732 N 0.8752 0.70189 0.03326 0.0
C733 C 0.89806 0.70666 0.04553 0.0
C734 C 0.89572 0.69973 0.0717 0.0
C735 C 0.85504 0.68875 0.09862 0.0
H736 H 0.8359 0.69833 0.09647 0.0
H737 H 0.85192 0.66789 0.103 0.0
H738 H 0.86513 0.69791 0.1153 0.0
O739 O 0.81144 0.72649 0.04232 0.0
O740 O 0.83627 0.74507 1.01189 0.0
H741 H 0.91453 0.73891 0.02501 0.0
H742 H 0.93698 0.72297 0.04699 0.0
C743 C 0.92077 0.71997 0.03316 0.0
H744 H 0.92819 0.70782 1.01709 0.0
H745 H 0.88096 0.76666 0.97834 0.0
O746 O 0.80632 0.6707 0.07011 0.0
C747 C 0.81843 0.74629 0.02926 0.0
Co748 Co 0.40165 0.82813 0.04195 0.0
Co749 Co 0.37333 0.86227 1.00146 0.0
C750 C 0.41601 0.82461 0.98576 0.0
O751 O 0.41886 0.8186 1.00941 0.0
O752 O 0.3991 0.84147 0.97914 0.0
C753 C 0.44629 0.81571 0.06707 0.0
O754 O 0.45453 0.83401 0.05131 0.0
C755 C 0.37544 0.91008 0.97153 0.0
C756 C 0.33528 0.91557 0.95766 0.0
C757 C 0.35969 0.92702 0.95771 0.0
N758 N 0.36096 0.88997 0.97981 0.0
N759 N 0.33693 0.89331 0.97141 0.0
C760 C 0.40408 0.91225 0.97608 0.0
H761 H 0.41289 0.89264 0.97743 0.0
H762 H 0.40757 0.92231 0.99481 0.0
H763 H 0.41355 0.92354 0.96034 0.0
C764 C 0.40208 0.87605 0.07206 0.0
N765 N 0.4004 0.86392 0.04889 0.0
N766 N 0.38695 0.87834 0.03268 0.0
C767 C 0.37921 0.90008 0.04541 0.0
C768 C 0.38866 0.89938 0.07076 0.0
C769 C 0.41263 0.86365 0.09618 0.0
H770 H 0.40234 0.84507 0.09987 0.0
H771 H 0.43352 0.85946 0.09342 0.0
H772 H 0.41075 0.87646 0.11341 0.0
O773 O 0.36579 0.81545 0.04309 0.0
O774 O 0.34437 0.83847 1.01317 0.0
H775 H 0.34315 0.90686 0.02564 0.0
H776 H 0.34978 0.92958 0.05159 0.0
C777 C 0.35859 0.9181 0.03562 0.0
H778 H 0.36728 0.93182 1.0215 0.0
H779 H 0.32166 0.88051 0.97518 0.0
O780 O 0.42234 0.81007 0.0678 0.0
C781 C 0.34494 0.82121 0.03109 0.0
Co782 Co 0.68614 0.26394 0.04348 0.0
Co783 Co 0.71272 0.22812 1.0025 0.0
C784 C 0.67068 0.26611 0.98719 0.0
O785 O 0.66836 0.27258 1.01083 0.0
O786 O 0.68727 0.249 0.98044 0.0
C787 C 0.64235 0.27062 0.07265 0.0
O788 O 0.6359 0.25036 0.05851 0.0
C789 C 0.71164 0.18283 0.96789 0.0
C790 C 0.75288 0.17145 0.96535 0.0
C791 C 0.7281 0.16378 0.95811 0.0
N792 N 0.72592 0.20041 0.98102 0.0
N793 N 0.75062 0.19365 0.97913 0.0
C794 C 0.68278 0.1846 0.96479 0.0
H795 H 0.67741 0.20452 0.95865 0.0
H796 H 0.67328 0.18093 0.98378 0.0
H797 H 0.67545 0.17053 0.95019 0.0
C798 C 0.68827 0.21686 0.0744 0.0
N799 N 0.6885 0.22842 0.05093 0.0
N800 N 0.69819 0.21244 0.03353 0.0
C801 C 0.70327 0.1895 0.04545 0.0
C802 C 0.69731 0.19165 0.07181 0.0
C803 C 0.68566 0.23148 0.09949 0.0
H804 H 0.69227 0.25182 0.09708 0.0
H805 H 0.66503 0.23143 0.10561 0.0
H806 H 0.69733 0.22245 0.11519 0.0
O807 O 0.72162 0.27694 0.04413 0.0
O808 O 0.74194 0.252 1.01487 0.0
H809 H 0.73536 0.17135 0.02623 0.0
H810 H 0.7157 0.14929 0.04536 0.0
C811 C 0.7153 0.16649 0.03239 0.0
H812 H 0.70383 0.16138 1.015 0.0
H813 H 0.76586 0.20372 0.98795 0.0
O814 O 0.66459 0.28085 0.06981 0.0
C815 C 0.74212 0.26997 0.03218 0.0
Co816 Co 0.54152 0.76491 0.9 0.0
Co817 Co 0.50051 0.72872 0.87404 0.0
C818 C 0.48533 0.76728 0.91582 0.0
O819 O 0.509 0.77371 0.91783 0.0
O820 O 0.47843 0.7499 0.89954 0.0
C821 C 0.57109 0.77342 0.94348 0.0
O822 O 0.55859 0.7523 0.95049 0.0
C823 C 0.46626 0.68297 0.87573 0.0
C824 C 0.46265 0.67192 0.83447 0.0
C825 C 0.45603 0.66404 0.85935 0.0
N826 N 0.479 0.7007 0.86128 0.0
N827 N 0.4765 0.6941 0.83658 0.0
C828 C 0.46383 0.68453 0.90467 0.0
H829 H 0.45875 0.70463 0.91047 0.0
H830 H 0.48281 0.67984 0.91372 0.0
H831 H 0.44878 0.671 0.91208 0.0
C832 C 0.57272 0.71785 0.89861 0.0
N833 N 0.54922 0.72937 0.89812 0.0
N834 N 0.53193 0.71331 0.88831 0.0
C835 C 0.544 0.69042 0.88324 0.0
C836 C 0.57031 0.69263 0.88947 0.0
C837 C 0.59775 0.73246 0.9018 0.0
H838 H 0.59551 0.75278 0.89508 0.0
H839 H 0.60333 0.7325 0.9226 0.0
H840 H 0.61373 0.72338 0.89056 0.0
O841 O 0.54175 0.77753 0.86442 0.0
O842 O 0.51232 0.75252 0.84447 0.0
H843 H 0.52481 0.67257 0.85095 0.0
H844 H 0.54429 0.6504 0.87014 0.0
C845 C 0.53114 0.66745 0.87088 0.0
H846 H 0.51385 0.66195 0.88233 0.0
H847 H 0.48485 0.70433 0.82121 0.0
O848 O 0.56754 0.78285 0.92101 0.0
C849 C 0.52952 0.77061 0.84407 0.0
Co850 Co 0.32499 0.5435 0.90106 0.0
Co851 Co 0.3597 0.50204 0.87425 0.0
C852 C 0.32241 0.48774 0.91754 0.0
O853 O 0.31601 0.5114 0.91962 0.0
O854 O 0.33938 0.48082 0.90091 0.0
C855 C 0.31573 0.57082 0.94501 0.0
O856 O 0.33429 0.55494 0.95238 0.0
C857 C 0.40702 0.47115 0.87769 0.0
C858 C 0.41244 0.45626 0.83797 0.0
C859 C 0.42392 0.45622 0.86246 0.0
N860 N 0.38722 0.47953 0.86278 0.0
N861 N 0.39049 0.47042 0.83906 0.0
C862 C 0.40969 0.47876 0.90564 0.0
H863 H 0.39606 0.49462 0.91065 0.0
H864 H 0.42987 0.4851 0.90983 0.0
H865 H 0.40474 0.4619 0.91811 0.0
C866 C 0.37285 0.57407 0.89966 0.0
N867 N 0.36067 0.55086 0.89864 0.0
N868 N 0.37549 0.53399 0.88647 0.0
C869 C 0.39774 0.54616 0.87936 0.0
C870 C 0.39687 0.57187 0.88775 0.0
C871 C 0.36 0.59895 0.90767 0.0
H872 H 0.34056 0.60041 0.89852 0.0
H873 H 0.35759 0.59905 0.92902 0.0
H874 H 0.37166 0.61627 0.90238 0.0
O875 O 0.31166 0.54276 0.8654 0.0
O876 O 0.33525 0.51231 0.84518 0.0
H877 H 0.40695 0.52462 0.84488 0.0
H878 H 0.42963 0.55049 0.85225 0.0
C879 C 0.41712 0.5351 0.86072 0.0
H880 H 0.42974 0.52112 0.87112 0.0
H881 H 0.37795 0.47414 0.82359 0.0
O882 O 0.3078 0.5702 0.92169 0.0
C883 C 0.3175 0.52978 0.84513 0.0
Co884 Co 0.54478 0.32606 0.90141 0.0
Co885 Co 0.58669 0.36014 0.87444 0.0
C886 C 0.6009 0.32193 0.9168 0.0
O887 O 0.57717 0.31578 0.91889 0.0
O888 O 0.60796 0.33916 0.90048 0.0
C889 C 0.51972 0.315 0.94654 0.0
O890 O 0.53917 0.32943 0.95463 0.0
C891 C 0.62012 0.40559 0.87745 0.0
C892 C 0.63099 0.41311 0.83678 0.0
C893 C 0.63383 0.42308 0.86177 0.0
N894 N 0.60961 0.38699 0.86236 0.0
N895 N 0.6164 0.39141 0.83806 0.0
C896 C 0.61499 0.40706 0.90606 0.0
H897 H 0.59887 0.3939 0.91161 0.0
H898 H 0.61006 0.42723 0.91186 0.0
H899 H 0.63256 0.4007 0.91677 0.0
C900 C 0.51564 0.37421 0.90104 0.0
N901 N 0.53868 0.36187 0.89971 0.0
N902 N 0.55579 0.37677 0.88801 0.0
C903 C 0.54404 0.39952 0.88185 0.0
C904 C 0.51815 0.39859 0.88984 0.0
C905 C 0.49059 0.36065 0.9072 0.0
H906 H 0.49001 0.34158 0.8972 0.0
H907 H 0.48939 0.35732 0.92843 0.0
H908 H 0.47334 0.37194 0.90105 0.0
O909 O 0.54385 0.31331 0.8657 0.0
O910 O 0.57454 0.33636 0.8453 0.0
H911 H 0.56418 0.41264 0.84785 0.0
H912 H 0.54278 0.43678 0.86211 0.0
C913 C 0.55649 0.42071 0.86629 0.0
H914 H 0.57288 0.42901 0.87742 0.0
H915 H 0.6106 0.38 0.82233 0.0
O916 O 0.51758 0.3101 0.92248 0.0
C917 C 0.55648 0.31916 0.84522 0.0
Co918 Co 0.76395 0.54594 0.90063 0.0
Co919 Co 0.72793 0.58735 0.87533 0.0
C920 C 0.76593 0.60175 0.91768 0.0
O921 O 0.77276 0.57816 0.91882 0.0
O922 O 0.7485 0.60891 0.90163 0.0
C923 C 0.77289 0.51691 0.94415 0.0
O924 O 0.7523 0.53015 0.95131 0.0
C925 C 0.68177 0.62025 0.8786 0.0
C926 C 0.67363 0.63014 0.83781 0.0
C927 C 0.66395 0.63342 0.86284 0.0
N928 N 0.70031 0.6096 0.86351 0.0
N929 N 0.69547 0.61581 0.83914 0.0
C930 C 0.68069 0.6158 0.90733 0.0
H931 H 0.69371 0.5996 0.91298 0.0
H932 H 0.66055 0.61127 0.91354 0.0
H933 H 0.68743 0.63355 0.91755 0.0
C934 C 0.71693 0.51481 0.89906 0.0
N935 N 0.7284 0.53835 0.89876 0.0
N936 N 0.71251 0.55557 0.88862 0.0
C937 C 0.68984 0.54339 0.88287 0.0
C938 C 0.69199 0.51711 0.88924 0.0
C939 C 0.73152 0.48984 0.90275 0.0
H940 H 0.75168 0.49187 0.89553 0.0
H941 H 0.73202 0.48498 0.92372 0.0
H942 H 0.72224 0.47347 0.89223 0.0
O943 O 0.77634 0.54618 0.86497 0.0
O944 O 0.7517 0.57622 0.84554 0.0
H945 H 0.67376 0.56407 0.85054 0.0
H946 H 0.65102 0.54234 0.8665 0.0
C947 C 0.66736 0.55605 0.86948 0.0
H948 H 0.66008 0.57222 0.88159 0.0
H949 H 0.70675 0.60984 0.82339 0.0
O950 O 0.78188 0.51972 0.92138 0.0
C951 C 0.76953 0.55879 0.84482 0.0
Co952 Co 0.5414 0.32192 0.19021 0.0
Co953 Co 0.50099 0.35912 0.21525 0.0
C954 C 0.48546 0.32065 0.17365 0.0
O955 O 0.50892 0.31344 0.17211 0.0
O956 O 0.47889 0.33846 0.18955 0.0
C957 C 0.56994 0.31286 0.14664 0.0
O958 O 0.55641 0.33336 0.13975 0.0
C959 C 0.46855 0.40545 0.21182 0.0
C960 C 0.459 0.41405 0.25262 0.0
C961 C 0.45549 0.42346 0.22752 0.0
N962 N 0.47928 0.38708 0.22703 0.0
N963 N 0.4733 0.3922 0.25141 0.0
C964 C 0.47265 0.40595 0.18303 0.0
H965 H 0.48841 0.3924 0.17736 0.0
H966 H 0.47771 0.42586 0.17646 0.0
H967 H 0.45461 0.39955 0.17313 0.0
C968 C 0.57334 0.36842 0.19066 0.0
N969 N 0.54966 0.35736 0.19166 0.0
N970 N 0.53281 0.3739 0.20136 0.0
C971 C 0.54534 0.39668 0.20587 0.0
C972 C 0.57146 0.39402 0.19895 0.0
C973 C 0.59798 0.35299 0.18841 0.0
H974 H 0.59519 0.33327 0.19661 0.0
H975 H 0.60341 0.35115 0.16766 0.0
H976 H 0.61428 0.36241 0.19892 0.0
O977 O 0.54111 0.30981 0.226 0.0
O978 O 0.51184 0.33558 0.2452 0.0
H979 H 0.52559 0.41385 0.23823 0.0
H980 H 0.54705 0.43601 0.22118 0.0
C981 C 0.53322 0.41967 0.21894 0.0
H982 H 0.51681 0.42674 0.20705 0.0
H983 H 0.47934 0.38105 0.26721 0.0
O984 O 0.5674 0.3037 0.16937 0.0
C985 C 0.52874 0.31727 0.24608 0.0
Co986 Co 0.7601 0.54587 0.18669 0.0
Co987 Co 0.72698 0.50303 0.21358 0.0
C988 C 0.76527 0.49015 0.1705 0.0
O989 O 0.77113 0.51399 0.16874 0.0
O990 O 0.74828 0.48267 0.18689 0.0
C991 C 0.77287 0.57203 0.14265 0.0
O992 O 0.75901 0.55265 0.13349 0.0
C993 C 0.68074 0.4703 0.20908 0.0
C994 C 0.67609 0.45367 0.24827 0.0
C995 C 0.66504 0.45366 0.22364 0.0
N996 N 0.70003 0.47932 0.22433 0.0
N997 N 0.69718 0.46922 0.24773 0.0
C998 C 0.6767 0.4792 0.18167 0.0
H999 H 0.68444 0.49899 0.17877 0.0
H1000 H 0.65579 0.47898 0.17644 0.0
H1001 H 0.68765 0.46629 0.16834 0.0
C1002 C 0.71108 0.57379 0.18651 0.0
N1003 N 0.72413 0.55115 0.18803 0.0
N1004 N 0.7103 0.53424 0.20125 0.0
C1005 C 0.68807 0.54595 0.20901 0.0
C1006 C 0.68781 0.57136 0.19978 0.0
C1007 C 0.72258 0.59867 0.17673 0.0
H1008 H 0.74019 0.60345 0.18819 0.0
H1009 H 0.7282 0.59627 0.15611 0.0
H1010 H 0.70866 0.61506 0.178 0.0
O1011 O 0.77248 0.54608 0.22269 0.0
O1012 O 0.75054 0.51454 0.24298 0.0
H1013 H 0.68128 0.52486 0.2443 0.0
H1014 H 0.65765 0.55013 0.23779 0.0
C1015 C 0.67 0.53486 0.22891 0.0
H1016 H 0.65716 0.52036 0.21947 0.0
H1017 H 0.70948 0.47311 0.26337 0.0
O1018 O 0.77619 0.57402 0.16698 0.0
C1019 C 0.76725 0.53305 0.24309 0.0
Co1020 Co 0.54757 0.76085 0.18109 0.0
Co1021 Co 0.58693 0.72804 0.21257 0.0
C1022 C 0.6033 0.76244 0.16717 0.0
O1023 O 0.5797 0.76717 0.16235 0.0
O1024 O 0.60954 0.74815 0.18643 0.0
C1025 C 0.51817 0.76717 0.13714 0.0
O1026 O 0.53079 0.7459 0.13088 0.0
C1027 C 0.62026 0.68231 0.21262 0.0
C1028 C 0.62594 0.67366 0.25419 0.0
C1029 C 0.63105 0.66425 0.22947 0.0
N1030 N 0.60858 0.70103 0.22666 0.0
N1031 N 0.6123 0.6959 0.25154 0.0
C1032 C 0.62074 0.68186 0.18354 0.0
H1033 H 0.62527 0.70152 0.17602 0.0
H1034 H 0.60124 0.67644 0.17613 0.0
H1035 H 0.63534 0.66787 0.17608 0.0
C1036 C 0.51568 0.71452 0.18646 0.0
N1037 N 0.53921 0.726 0.18656 0.0
N1038 N 0.55598 0.71123 0.19889 0.0
C1039 C 0.54358 0.68914 0.20619 0.0
C1040 C 0.51759 0.6906 0.19862 0.0
C1041 C 0.49087 0.72866 0.18069 0.0
H1042 H 0.49274 0.74947 0.18584 0.0
H1043 H 0.48648 0.72694 0.15969 0.0
H1044 H 0.47425 0.72051 0.19171 0.0
O1045 O 0.54846 0.77735 0.2149 0.0
O1046 O 0.57433 0.75354 0.2402 0.0
H1047 H 0.56182 0.67576 0.24107 0.0
H1048 H 0.54224 0.65136 0.22477 0.0
C1049 C 0.55569 0.66795 0.22194 0.0
H1050 H 0.57303 0.66057 0.21173 0.0
H1051 H 0.6049 0.70714 0.2667 0.0
O1052 O 0.52176 0.77752 0.15919 0.0
C1053 C 0.5587 0.77267 0.23691 0.0
Co1054 Co 0.32429 0.54528 0.18816 0.0
Co1055 Co 0.35968 0.58655 0.21431 0.0
C1056 C 0.3216 0.60128 0.17212 0.0
O1057 O 0.31524 0.5776 0.17003 0.0
O1058 O 0.33877 0.60819 0.18856 0.0
C1059 C 0.31737 0.51653 0.14436 0.0
O1060 O 0.33774 0.53058 0.1381 0.0
C1061 C 0.40526 0.61973 0.21099 0.0
C1062 C 0.4136 0.62988 0.25169 0.0
C1063 C 0.42315 0.63314 0.22658 0.0
N1064 N 0.38693 0.60904 0.22626 0.0
N1065 N 0.39185 0.61539 0.25058 0.0
C1066 C 0.40581 0.61516 0.18226 0.0
H1067 H 0.39167 0.59988 0.17668 0.0
H1068 H 0.4255 0.60911 0.17594 0.0
H1069 H 0.40028 0.6333 0.17203 0.0
C1070 C 0.37143 0.51438 0.19037 0.0
N1071 N 0.35985 0.53786 0.1905 0.0
N1072 N 0.3756 0.5552 0.20071 0.0
C1073 C 0.39833 0.54321 0.20652 0.0
C1074 C 0.39635 0.5169 0.20019 0.0
C1075 C 0.35693 0.48928 0.18713 0.0
H1076 H 0.33659 0.49147 0.19379 0.0
H1077 H 0.35698 0.4837 0.16635 0.0
H1078 H 0.36599 0.47331 0.19839 0.0
O1079 O 0.31145 0.54504 0.22377 0.0
O1080 O 0.33611 0.57478 0.24378 0.0
H1081 H 0.41422 0.56395 0.23896 0.0
H1082 H 0.43716 0.54251 0.2229 0.0
C1083 C 0.42069 0.55606 0.21998 0.0
H1084 H 0.42786 0.57233 0.20796 0.0
H1085 H 0.38072 0.60938 0.26641 0.0
O1086 O 0.30728 0.51898 0.16672 0.0
C1087 C 0.31825 0.55737 0.24414 0.0
Co1088 Co 0.9013 0.54223 0.76623 0.0
Co1089 Co 0.87644 0.50269 0.72774 0.0
C1090 C 0.91571 0.48552 0.76774 0.0
O1091 O 0.91688 0.50862 0.77621 0.0
O1092 O 0.90146 0.47997 0.74827 0.0
C1093 C 0.94545 0.57002 0.77558 0.0
O1094 O 0.95225 0.55666 0.75493 0.0
C1095 C 0.87767 0.46942 0.68116 0.0
C1096 C 0.83643 0.46773 0.66968 0.0
C1097 C 0.86109 0.46021 0.66187 0.0
N1098 N 0.86354 0.48227 0.69907 0.0
N1099 N 0.83884 0.4809 0.69221 0.0
C1100 C 0.90654 0.4662 0.68261 0.0
H1101 H 0.91326 0.46719 0.70297 0.0
H1102 H 0.91614 0.48217 0.6718 0.0
H1103 H 0.91255 0.4474 0.6739 0.0
C1104 C 0.90139 0.5746 0.71989 0.0
N1105 N 0.90094 0.55068 0.73059 0.0
N1106 N 0.89167 0.53391 0.71369 0.0
C1107 C 0.88702 0.54667 0.69114 0.0
C1108 C 0.89272 0.57296 0.69444 0.0
C1109 C 0.90388 0.59912 0.73546 0.0
H1110 H 0.89625 0.59615 0.75536 0.0
H1111 H 0.92467 0.60464 0.73669 0.0
H1112 H 0.89311 0.61545 0.72645 0.0
O1113 O 0.86542 0.54381 0.77724 0.0
O1114 O 0.84647 0.51459 0.75116 0.0
H1115 H 0.85518 0.52811 0.67183 0.0
H1116 H 0.875 0.54819 0.65084 0.0
C1117 C 0.87527 0.5345 0.66748 0.0
H1118 H 0.88683 0.51735 0.66173 0.0
H1119 H 0.82371 0.48964 0.70247 0.0
O1120 O 0.92272 0.56753 0.78474 0.0
C1121 C 0.84535 0.53181 0.7692 0.0
Co1122 Co 0.54521 0.90276 0.76275 0.0
Co1123 Co 0.58783 0.87728 0.72818 0.0
C1124 C 0.60141 0.91858 0.76779 0.0
O1125 O 0.57758 0.91974 0.77373 0.0
O1126 O 0.60902 0.90294 0.75013 0.0
C1127 C 0.52025 0.94794 0.772 0.0
O1128 O 0.53848 0.95462 0.75544 0.0
C1129 C 0.62274 0.87994 0.68318 0.0
C1130 C 0.62903 0.83877 0.67312 0.0
C1131 C 0.63451 0.86387 0.66491 0.0
N1132 N 0.61046 0.86509 0.7009 0.0
N1133 N 0.61454 0.84046 0.6949 0.0
C1134 C 0.62295 0.90904 0.68381 0.0
H1135 H 0.62045 0.91622 0.70393 0.0
H1136 H 0.60655 0.91658 0.67207 0.0
H1137 H 0.64135 0.9167 0.67559 0.0
C1138 C 0.5164 0.90273 0.71464 0.0
N1139 N 0.53948 0.90182 0.72691 0.0
N1140 N 0.55705 0.89139 0.71162 0.0
C1141 C 0.54554 0.88589 0.68855 0.0
C1142 C 0.51932 0.89278 0.68979 0.0
C1143 C 0.49112 0.90703 0.72851 0.0
H1144 H 0.49169 0.8976 0.74785 0.0
H1145 H 0.48808 0.92818 0.73125 0.0
H1146 H 0.47434 0.89901 0.71766 0.0
O1147 O 0.54389 0.86689 0.77462 0.0
O1148 O 0.57513 0.84755 0.75137 0.0
H1149 H 0.56514 0.85253 0.67328 0.0
H1150 H 0.54545 0.86968 0.64966 0.0
C1151 C 0.55854 0.87192 0.66661 0.0
H1152 H 0.5757 0.88312 0.66019 0.0
H1153 H 0.60685 0.8248 0.70522 0.0
O1154 O 0.51833 0.92429 0.77873 0.0
C1155 C 0.55674 0.84674 0.76821 0.0
Co1156 Co 0.18414 0.54569 0.76025 0.0
Co1157 Co 0.21371 0.58669 0.72723 0.0
C1158 C 0.17116 0.60236 0.76479 0.0
O1159 O 0.16815 0.57867 0.77068 0.0
O1160 O 0.18796 0.60902 0.74783 0.0
C1161 C 0.13791 0.52321 0.77307 0.0
O1162 O 0.13031 0.54336 0.75941 0.0
C1163 C 0.2132 0.61733 0.67991 0.0
C1164 C 0.25408 0.62889 0.6743 0.0
C1165 C 0.22971 0.63009 0.66284 0.0
N1166 N 0.2272 0.60838 0.70006 0.0
N1167 N 0.25164 0.61545 0.69668 0.0
C1168 C 0.18438 0.61417 0.67771 0.0
H1169 H 0.17541 0.6139 0.69729 0.0
H1170 H 0.17997 0.59529 0.66828 0.0
H1171 H 0.17575 0.63001 0.66592 0.0
C1172 C 0.18267 0.51755 0.71137 0.0
N1173 N 0.18541 0.54018 0.72427 0.0
N1174 N 0.19955 0.55627 0.71038 0.0
C1175 C 0.20683 0.5439 0.6883 0.0
C1176 C 0.19622 0.519 0.68816 0.0
C1177 C 0.17122 0.49344 0.723 0.0
H1178 H 0.15083 0.49727 0.72866 0.0
H1179 H 0.17135 0.47695 0.70911 0.0
H1180 H 0.18231 0.48799 0.74065 0.0
O1181 O 0.21995 0.54348 0.7735 0.0
O1182 O 0.24172 0.57396 0.75152 0.0
H1183 H 0.23625 0.5372 0.65889 0.0
H1184 H 0.22007 0.56803 0.65727 0.0
C1185 C 0.22804 0.55325 0.67071 0.0
H1186 H 0.24378 0.56229 0.6823 0.0
H1187 H 0.26671 0.61079 0.70941 0.0
O1188 O 0.16204 0.51919 0.77612 0.0
C1189 C 0.24088 0.55578 0.76851 0.0
Co1190 Co 0.5412 0.18694 0.76433 0.0
Co1191 Co 0.50049 0.21279 0.72758 0.0
C1192 C 0.48499 0.17139 0.76613 0.0
O1193 O 0.50857 0.16936 0.7728 0.0
O1194 O 0.47826 0.18755 0.74862 0.0
C1195 C 0.57054 0.14321 0.77281 0.0
O1196 O 0.55809 0.13642 0.75159 0.0
C1197 C 0.46723 0.21033 0.68139 0.0
C1198 C 0.46243 0.2515 0.67048 0.0
C1199 C 0.45676 0.22642 0.66243 0.0
N1200 N 0.47923 0.22515 0.69933 0.0
N1201 N 0.47603 0.24978 0.69282 0.0
C1202 C 0.46578 0.1813 0.68275 0.0
H1203 H 0.46054 0.17522 0.70271 0.0
H1204 H 0.48514 0.17294 0.67835 0.0
H1205 H 0.45127 0.17342 0.66889 0.0
C1206 C 0.57286 0.18875 0.71791 0.0
N1207 N 0.54913 0.18876 0.72893 0.0
N1208 N 0.53205 0.19854 0.71266 0.0
C1209 C 0.54451 0.20408 0.69012 0.0
C1210 C 0.57083 0.19819 0.69281 0.0
C1211 C 0.59761 0.18599 0.73305 0.0
H1212 H 0.59481 0.19279 0.75328 0.0
H1213 H 0.60346 0.16526 0.73331 0.0
H1214 H 0.61365 0.19742 0.72432 0.0
O1215 O 0.54127 0.22266 0.7767 0.0
O1216 O 0.51208 0.24243 0.75124 0.0
H1217 H 0.52529 0.23654 0.67265 0.0
H1218 H 0.54562 0.21821 0.65049 0.0
C1219 C 0.53206 0.21683 0.66718 0.0
H1220 H 0.51511 0.20525 0.66092 0.0
H1221 H 0.48371 0.2654 0.70324 0.0
O1222 O 0.56703 0.16567 0.78239 0.0
C1223 C 0.52914 0.24295 0.76941 0.0
Co1224 Co 0.89949 0.54501 0.3243 0.0
Co1225 Co 0.87558 0.58787 0.35982 0.0
C1226 C 0.91779 0.60048 0.32126 0.0
O1227 O 0.91772 0.57678 0.31476 0.0
O1228 O 0.90253 0.60854 0.33903 0.0
C1229 C 0.94312 0.51621 0.31708 0.0
O1230 O 0.94954 0.53051 0.33723 0.0
C1231 C 0.8788 0.62117 0.40591 0.0
C1232 C 0.83802 0.63161 0.4134 0.0
C1233 C 0.86292 0.63461 0.42348 0.0
N1234 N 0.86386 0.61066 0.38715 0.0
N1235 N 0.8395 0.61721 0.3916 0.0
C1236 C 0.90745 0.61638 0.4074 0.0
H1237 H 0.91311 0.6002 0.39434 0.0
H1238 H 0.9133 0.61166 0.4276 0.0
H1239 H 0.91797 0.63407 0.40098 0.0
C1240 C 0.89751 0.51494 0.37167 0.0
N1241 N 0.89755 0.53829 0.35993 0.0
N1242 N 0.888 0.55597 0.3757 0.0
C1243 C 0.88228 0.54422 0.39859 0.0
C1244 C 0.8882 0.51781 0.39672 0.0
C1245 C 0.90018 0.48968 0.35734 0.0
H1246 H 0.8931 0.49175 0.33713 0.0
H1247 H 0.92091 0.48393 0.35696 0.0
H1248 H 0.88899 0.47388 0.36679 0.0
O1249 O 0.86393 0.54555 0.31192 0.0
O1250 O 0.84573 0.577 0.33589 0.0
H1251 H 0.85049 0.56585 0.41452 0.0
H1252 H 0.86578 0.54381 0.43737 0.0
C1253 C 0.86919 0.55736 0.42099 0.0
H1254 H 0.88172 0.57322 0.42825 0.0
H1255 H 0.82384 0.61137 0.38012 0.0
O1256 O 0.9206 0.51838 0.30727 0.0
C1257 C 0.84433 0.5591 0.31853 0.0
Co1258 Co 0.5427 0.90389 0.32614 0.0
Co1259 Co 0.50135 0.8744 0.35875 0.0
C1260 C 0.48727 0.91933 0.3229 0.0
O1261 O 0.5111 0.92314 0.31831 0.0
O1262 O 0.48028 0.90099 0.33801 0.0
C1263 C 0.57246 0.94743 0.32097 0.0
O1264 O 0.55819 0.95353 0.34122 0.0
C1265 C 0.46709 0.8785 0.4032 0.0
C1266 C 0.45415 0.83835 0.41067 0.0
C1267 C 0.45175 0.86364 0.41992 0.0
N1268 N 0.47774 0.86275 0.38523 0.0
N1269 N 0.46978 0.83877 0.38965 0.0
C1270 C 0.47403 0.90671 0.40536 0.0
H1271 H 0.4933 0.91052 0.39663 0.0
H1272 H 0.47417 0.91313 0.42594 0.0
H1273 H 0.4598 0.9184 0.39419 0.0
C1274 C 0.57301 0.89884 0.3737 0.0
N1275 N 0.54994 0.89862 0.36136 0.0
N1276 N 0.53257 0.88677 0.37582 0.0
C1277 C 0.54407 0.87977 0.39846 0.0
C1278 C 0.57012 0.88726 0.3978 0.0
C1279 C 0.59839 0.90442 0.3605 0.0
H1280 H 0.59741 0.89886 0.33974 0.0
H1281 H 0.60269 0.92547 0.362 0.0
H1282 H 0.61465 0.89359 0.36956 0.0
O1283 O 0.54075 0.86981 0.31004 0.0
O1284 O 0.51302 0.84606 0.33368 0.0
H1285 H 0.52353 0.84592 0.4113 0.0
H1286 H 0.54417 0.86051 0.43595 0.0
C1287 C 0.53096 0.86446 0.41942 0.0
H1288 H 0.51427 0.87562 0.42704 0.0
H1289 H 0.47537 0.82268 0.37865 0.0
O1290 O 0.56967 0.92536 0.31034 0.0
C1291 C 0.52919 0.84844 0.31484 0.0
Co1292 Co 0.1885 0.54071 0.3272 0.0
Co1293 Co 0.21453 0.4991 0.36218 0.0
C1294 C 0.17321 0.48456 0.32279 0.0
O1295 O 0.17145 0.5083 0.31663 0.0
O1296 O 0.18904 0.47741 0.34046 0.0
C1297 C 0.14396 0.56543 0.3134 0.0
O1298 O 0.13492 0.54609 0.32739 0.0
C1299 C 0.21168 0.46548 0.40781 0.0
C1300 C 0.25278 0.45815 0.41748 0.0
C1301 C 0.22765 0.4537 0.42607 0.0
N1302 N 0.22666 0.477 0.38973 0.0
N1303 N 0.25123 0.47235 0.3955 0.0
C1304 C 0.18261 0.46574 0.40726 0.0
H1305 H 0.17562 0.46316 0.38707 0.0
H1306 H 0.17552 0.48488 0.41417 0.0
H1307 H 0.17438 0.45021 0.41973 0.0
C1308 C 0.18739 0.5703 0.3749 0.0
N1309 N 0.18898 0.54708 0.36291 0.0
N1310 N 0.20032 0.53014 0.37826 0.0
C1311 C 0.20603 0.54226 0.40097 0.0
C1312 C 0.19808 0.56817 0.39952 0.0
C1313 C 0.18166 0.59515 0.36081 0.0
H1314 H 0.19261 0.59562 0.34228 0.0
H1315 H 0.16061 0.59603 0.35635 0.0
H1316 H 0.18702 0.61262 0.37219 0.0
O1317 O 0.22438 0.5418 0.31553 0.0
O1318 O 0.24426 0.51118 0.33904 0.0
H1319 H 0.24046 0.52366 0.41502 0.0
H1320 H 0.22432 0.54396 0.43889 0.0
C1321 C 0.22138 0.53025 0.42252 0.0
H1322 H 0.21081 0.51316 0.43009 0.0
H1323 H 0.26695 0.47934 0.38478 0.0
O1324 O 0.16827 0.56765 0.31014 0.0
C1325 C 0.2447 0.5293 0.32195 0.0
Co1326 Co 0.54609 0.18635 0.32734 0.0
Co1327 Co 0.58569 0.21308 0.36398 0.0
C1328 C 0.60295 0.17412 0.3238 0.0
O1329 O 0.57991 0.17287 0.31535 0.0
O1330 O 0.60828 0.18763 0.34385 0.0
C1331 C 0.52583 0.14067 0.31038 0.0
O1332 O 0.5461 0.1329 0.32375 0.0
C1333 C 0.6168 0.21036 0.41133 0.0
C1334 C 0.63024 0.2506 0.41691 0.0
C1335 C 0.63158 0.22598 0.42802 0.0
N1336 N 0.60736 0.22513 0.39193 0.0
N1337 N 0.61555 0.24919 0.39532 0.0
C1338 C 0.61061 0.18203 0.41377 0.0
H1339 H 0.59442 0.1765 0.40074 0.0
H1340 H 0.60539 0.17719 0.43411 0.0
H1341 H 0.62777 0.17044 0.40784 0.0
C1342 C 0.51618 0.18174 0.37502 0.0
N1343 N 0.53938 0.18497 0.36332 0.0
N1344 N 0.55481 0.19823 0.37874 0.0
C1345 C 0.54164 0.20424 0.40069 0.0
C1346 C 0.51665 0.19397 0.39906 0.0
C1347 C 0.49264 0.17102 0.36167 0.0
H1348 H 0.48757 0.18357 0.34491 0.0
H1349 H 0.49698 0.15127 0.35429 0.0
H1350 H 0.47577 0.16971 0.375 0.0
O1351 O 0.54285 0.22266 0.31716 0.0
O1352 O 0.5737 0.24256 0.34045 0.0
H1353 H 0.56037 0.24033 0.40997 0.0
H1354 H 0.53457 0.23144 0.43212 0.0
C1355 C 0.55079 0.2239 0.4201 0.0
H1356 H 0.56522 0.2147 0.43316 0.0
H1357 H 0.61105 0.26461 0.38298 0.0
O1358 O 0.52077 0.16479 0.30921 0.0
C1359 C 0.55524 0.24307 0.3237 0.0
Co1360 Co 0.76282 0.90423 0.54376 0.0
Co1361 Co 0.72763 0.87695 0.50312 0.0
C1362 C 0.76709 0.91745 0.48712 0.0
O1363 O 0.77499 0.91893 0.51038 0.0
O1364 O 0.74775 0.90313 0.48125 0.0
C1365 C 0.77727 0.94982 0.56677 0.0
O1366 O 0.76527 0.95821 0.54588 0.0
C1367 C 0.68046 0.87875 0.47178 0.0
C1368 C 0.6752 0.83824 0.45898 0.0
C1369 C 0.66369 0.86268 0.45758 0.0
N1370 N 0.70024 0.86437 0.48105 0.0
N1371 N 0.69707 0.84018 0.4732 0.0
C1372 C 0.67763 0.90706 0.47791 0.0
H1373 H 0.69102 0.91293 0.49368 0.0
H1374 H 0.65736 0.91151 0.48371 0.0
H1375 H 0.68284 0.91868 0.46054 0.0
C1376 C 0.7142 0.90725 0.57269 0.0
N1377 N 0.72663 0.90449 0.54977 0.0
N1378 N 0.7119 0.89107 0.53381 0.0
C1379 C 0.68978 0.88443 0.54636 0.0
C1380 C 0.69039 0.89471 0.57135 0.0
C1381 C 0.72701 0.91658 0.59709 0.0
H1382 H 0.73328 0.93701 0.59449 0.0
H1383 H 0.71372 0.91566 0.61403 0.0
H1384 H 0.7444 0.90452 0.60112 0.0
O1385 O 0.774 0.86804 0.54647 0.0
O1386 O 0.75142 0.8479 0.51529 0.0
H1387 H 0.68189 0.84798 0.5277 0.0
H1388 H 0.65868 0.85668 0.55265 0.0
C1389 C 0.6711 0.86428 0.53675 0.0
H1390 H 0.65832 0.87306 0.52184 0.0
H1391 H 0.70963 0.82495 0.47781 0.0
O1392 O 0.7794 0.92553 0.57041 0.0
C1393 C 0.76811 0.84758 0.53379 0.0
Co1394 Co 0.76485 0.19033 0.54855 0.0
Co1395 Co 0.72872 0.2155 0.58984 0.0
C1396 C 0.76839 0.1754 0.60494 0.0
O1397 O 0.77647 0.17472 0.5817 0.0
O1398 O 0.74883 0.18922 0.6111 0.0
C1399 C 0.77667 0.14496 0.52444 0.0
O1400 O 0.76289 0.13715 0.54445 0.0
C1401 C 0.683 0.21185 0.62269 0.0
C1402 C 0.67435 0.25251 0.63287 0.0
C1403 C 0.665 0.22731 0.63594 0.0
N1404 N 0.70133 0.22726 0.61219 0.0
N1405 N 0.69623 0.25155 0.61856 0.0
C1406 C 0.68224 0.18314 0.61792 0.0
H1407 H 0.69546 0.17772 0.60181 0.0
H1408 H 0.66222 0.17674 0.61313 0.0
H1409 H 0.68894 0.17281 0.6356 0.0
C1410 C 0.71698 0.18931 0.51858 0.0
N1411 N 0.72887 0.19081 0.54187 0.0
N1412 N 0.71318 0.20176 0.55876 0.0
C1413 C 0.69041 0.20711 0.5467 0.0
C1414 C 0.69214 0.19952 0.52076 0.0
C1415 C 0.73113 0.18394 0.4937 0.0
H1416 H 0.74998 0.19437 0.49369 0.0
H1417 H 0.73495 0.16279 0.49219 0.0
H1418 H 0.71999 0.19014 0.47637 0.0
O1419 O 0.77627 0.22623 0.54714 0.0
O1420 O 0.75276 0.24506 0.57854 0.0
H1421 H 0.67536 0.24033 0.56685 0.0
H1422 H 0.65222 0.22495 0.54513 0.0
C1423 C 0.66833 0.22152 0.55899 0.0
H1424 H 0.66041 0.20989 0.5752 0.0
H1425 H 0.70731 0.26748 0.61268 0.0
O1426 O 0.78129 0.16904 0.52175 0.0
C1427 C 0.76986 0.24611 0.5604 0.0
Co1428 Co 0.89937 0.76544 0.54724 0.0
Co1429 Co 0.87406 0.72903 0.58816 0.0
C1430 C 0.91602 0.76732 0.60304 0.0
O1431 O 0.91778 0.77416 0.57949 0.0
O1432 O 0.89989 0.74981 0.6098 0.0
C1433 C 0.94285 0.77435 0.51903 0.0
O1434 O 0.94979 0.75449 0.53346 0.0
C1435 C 0.87827 0.6834 0.62142 0.0
C1436 C 0.83774 0.67476 0.63203 0.0
C1437 C 0.863 0.66569 0.63527 0.0
N1438 N 0.86272 0.70137 0.61051 0.0
N1439 N 0.83851 0.69624 0.61711 0.0
C1440 C 0.90697 0.68275 0.61673 0.0
H1441 H 0.91222 0.69525 0.6 0.0
H1442 H 0.91356 0.66257 0.61295 0.0
H1443 H 0.91719 0.69039 0.6341 0.0
C1444 C 0.89807 0.7185 0.51566 0.0
N1445 N 0.89749 0.72991 0.53922 0.0
N1446 N 0.88746 0.71382 0.55632 0.0
C1447 C 0.88211 0.69109 0.54407 0.0
C1448 C 0.88862 0.69337 0.51781 0.0
C1449 C 0.90173 0.73321 0.49077 0.0
H1450 H 0.89429 0.7533 0.49282 0.0
H1451 H 0.92272 0.73398 0.48602 0.0
H1452 H 0.89142 0.72383 0.47433 0.0
O1453 O 0.8637 0.77794 0.54786 0.0
O1454 O 0.84422 0.75273 0.57747 0.0
H1455 H 0.84987 0.67441 0.56442 0.0
H1456 H 0.86665 0.65187 0.54307 0.0
C1457 C 0.86906 0.66838 0.55671 0.0
H1458 H 0.88106 0.66154 0.57314 0.0
H1459 H 0.82251 0.70714 0.61113 0.0
O1460 O 0.92002 0.78339 0.52102 0.0
C1461 C 0.84358 0.77089 0.56041 0.0
Co1462 Co 0.32243 0.8994 0.54595 0.0
Co1463 Co 0.36095 0.87505 0.58583 0.0
C1464 C 0.32313 0.91697 0.60156 0.0
O1465 O 0.31515 0.91811 0.57834 0.0
O1466 O 0.341 0.90112 0.60798 0.0
C1467 C 0.3145 0.94275 0.51708 0.0
O1468 O 0.33487 0.94908 0.5311 0.0
C1469 C 0.40793 0.87935 0.61731 0.0
C1470 C 0.41714 0.83878 0.62719 0.0
C1471 C 0.42634 0.86406 0.63033 0.0
N1472 N 0.38959 0.86377 0.60701 0.0
N1473 N 0.3951 0.83952 0.61315 0.0
C1474 C 0.40791 0.90812 0.61294 0.0
H1475 H 0.3937 0.91344 0.59765 0.0
H1476 H 0.4275 0.91488 0.60701 0.0
H1477 H 0.40212 0.91813 0.63113 0.0
C1478 C 0.36767 0.89737 0.51271 0.0
N1479 N 0.35754 0.89728 0.53679 0.0
N1480 N 0.37474 0.88842 0.55341 0.0
C1481 C 0.39714 0.8838 0.5403 0.0
C1482 C 0.39345 0.88963 0.51402 0.0
C1483 C 0.35121 0.89789 0.48864 0.0
H1484 H 0.33171 0.88972 0.49277 0.0
H1485 H 0.34889 0.91822 0.48196 0.0
H1486 H 0.36007 0.88643 0.47269 0.0
O1487 O 0.31002 0.86374 0.54732 0.0
O1488 O 0.3369 0.84501 0.57597 0.0
H1489 H 0.41578 0.85221 0.55989 0.0
H1490 H 0.43696 0.87006 0.53809 0.0
C1491 C 0.42076 0.87171 0.55215 0.0
H1492 H 0.42759 0.88391 0.56844 0.0
H1493 H 0.38404 0.8235 0.60748 0.0
O1494 O 0.30435 0.92042 0.51982 0.0
C1495 C 0.31799 0.84389 0.55976 0.0
Co1496 Co 0.18793 0.32377 0.5481 0.0
Co1497 Co 0.21432 0.36095 0.58783 0.0
C1498 C 0.17394 0.32175 0.6046 0.0
O1499 O 0.17241 0.31339 0.5815 0.0
O1500 O 0.18847 0.34103 0.61015 0.0
C1501 C 0.14327 0.31145 0.52215 0.0
O1502 O 0.13505 0.33004 0.5376 0.0
C1503 C 0.21168 0.40907 0.61784 0.0
C1504 C 0.25218 0.41573 0.63015 0.0
C1505 C 0.22749 0.42645 0.63113 0.0
N1506 N 0.2264 0.3894 0.60889 0.0
N1507 N 0.25062 0.39345 0.61638 0.0
C1508 C 0.18283 0.41044 0.61448 0.0
H1509 H 0.17444 0.39061 0.61366 0.0
H1510 H 0.17828 0.42021 0.59584 0.0
H1511 H 0.17373 0.42163 0.63052 0.0
C1512 C 0.18583 0.3713 0.51702 0.0
N1513 N 0.18792 0.35973 0.54045 0.0
N1514 N 0.20013 0.37544 0.55651 0.0
C1515 C 0.20638 0.39749 0.54357 0.0
C1516 C 0.19731 0.39564 0.51819 0.0
C1517 C 0.17718 0.35765 0.49278 0.0
H1518 H 0.18731 0.33873 0.49099 0.0
H1519 H 0.15602 0.35406 0.49393 0.0
H1520 H 0.18076 0.36936 0.47508 0.0
O1521 O 0.22416 0.31252 0.54677 0.0
O1522 O 0.24381 0.337 0.57683 0.0
H1523 H 0.24205 0.40725 0.56281 0.0
H1524 H 0.23309 0.42951 0.53723 0.0
C1525 C 0.22555 0.41718 0.55321 0.0
H1526 H 0.21597 0.43001 0.56759 0.0
H1527 H 0.26608 0.38111 0.61201 0.0
O1528 O 0.16706 0.30506 0.52246 0.0
C1529 C 0.24441 0.31927 0.5593 0.0
Co1530 Co 0.32649 0.18683 0.54558 0.0
Co1531 Co 0.35994 0.21253 0.50241 0.0
C1532 C 0.31907 0.17212 0.48943 0.0
O1533 O 0.31346 0.17128 0.51334 0.0
O1534 O 0.33759 0.18671 0.48168 0.0
C1535 C 0.31186 0.14198 0.5691 0.0
O1536 O 0.32448 0.13348 0.54862 0.0
C1537 C 0.40653 0.20892 0.47028 0.0
C1538 C 0.41277 0.24902 0.45653 0.0
C1539 C 0.42347 0.22428 0.45594 0.0
N1540 N 0.38716 0.22394 0.4794 0.0
N1541 N 0.39095 0.24791 0.47103 0.0
C1542 C 0.40802 0.18021 0.47464 0.0
H1543 H 0.3882 0.17186 0.47605 0.0
H1544 H 0.41804 0.17638 0.49332 0.0
H1545 H 0.41897 0.17054 0.45878 0.0
C1546 C 0.37581 0.18341 0.57226 0.0
N1547 N 0.36262 0.18587 0.54979 0.0
N1548 N 0.37684 0.19869 0.53291 0.0
C1549 C 0.39946 0.20543 0.5446 0.0
C1550 C 0.39959 0.19576 0.56986 0.0
C1551 C 0.36396 0.17404 0.59713 0.0
H1552 H 0.34708 0.18644 0.60218 0.0
H1553 H 0.35709 0.15381 0.59456 0.0
H1554 H 0.37809 0.17436 0.6134 0.0
O1555 O 0.31584 0.22329 0.54751 0.0
O1556 O 0.3372 0.24236 0.51484 0.0
H1557 H 0.40683 0.24141 0.52484 0.0
H1558 H 0.43051 0.23349 0.54958 0.0
C1559 C 0.41785 0.2254 0.53411 0.0
H1560 H 0.43044 0.21628 0.51923 0.0
H1561 H 0.37884 0.26356 0.47542 0.0
O1562 O 0.31022 0.16627 0.57303 0.0
C1563 C 0.32136 0.24332 0.53406 0.0
Co1564 Co 0.9034 0.32985 0.54576 0.0
Co1565 Co 0.87575 0.36134 0.50238 0.0
C1566 C 0.91919 0.32352 0.48997 0.0
O1567 O 0.92106 0.31826 0.51392 0.0
O1568 O 0.90257 0.34013 0.48212 0.0
C1569 C 0.94825 0.32021 0.57168 0.0
O1570 O 0.95621 0.33458 0.55217 0.0
C1571 C 0.87815 0.40705 0.46926 0.0
C1572 C 0.83778 0.4124 0.45613 0.0
C1573 C 0.86231 0.4237 0.45482 0.0
N1574 N 0.86357 0.38749 0.47871 0.0
N1575 N 0.83947 0.39065 0.47061 0.0
C1576 C 0.90631 0.41022 0.47584 0.0
H1577 H 0.91186 0.39756 0.4923 0.0
H1578 H 0.91069 0.43077 0.48073 0.0
H1579 H 0.91826 0.40426 0.45894 0.0
C1580 C 0.90383 0.37996 0.57211 0.0
N1581 N 0.90183 0.36602 0.55001 0.0
N1582 N 0.88846 0.37926 0.53279 0.0
C1583 C 0.881 0.40197 0.54377 0.0
C1584 C 0.89085 0.4033 0.5689 0.0
C1585 C 0.9127 0.36893 0.59755 0.0
H1586 H 0.90214 0.35057 0.60155 0.0
H1587 H 0.93375 0.36467 0.59648 0.0
H1588 H 0.90946 0.38259 0.61391 0.0
O1589 O 0.86749 0.31684 0.54697 0.0
O1590 O 0.84699 0.33772 0.51492 0.0
H1591 H 0.84502 0.40799 0.52365 0.0
H1592 H 0.85253 0.43276 0.54749 0.0
C1593 C 0.86083 0.41963 0.53254 0.0
H1594 H 0.86983 0.43178 0.51722 0.0
H1595 H 0.82409 0.37837 0.47547 0.0
O1596 O 0.92423 0.31509 0.5738 0.0
C1597 C 0.84702 0.32151 0.53382 0.0
Co1598 Co 0.18604 0.75943 0.54623 0.0
Co1599 Co 0.21288 0.7272 0.5028 0.0
C1600 C 0.17024 0.76607 0.49053 0.0
O1601 O 0.16881 0.77136 0.5145 0.0
O1602 O 0.18626 0.74893 0.48252 0.0
C1603 C 0.14154 0.77107 0.57179 0.0
O1604 O 0.13308 0.7568 0.55239 0.0
C1605 C 0.20937 0.68055 0.47066 0.0
C1606 C 0.24917 0.67523 0.45599 0.0
C1607 C 0.22471 0.66366 0.45581 0.0
N1608 N 0.2242 0.70039 0.47921 0.0
N1609 N 0.24796 0.6972 0.47018 0.0
C1610 C 0.18143 0.67766 0.47819 0.0
H1611 H 0.17616 0.69148 0.4938 0.0
H1612 H 0.17744 0.6575 0.48475 0.0
H1613 H 0.16897 0.68221 0.46123 0.0
C1614 C 0.18518 0.70988 0.57302 0.0
N1615 N 0.18691 0.72333 0.55063 0.0
N1616 N 0.20027 0.70982 0.5336 0.0
C1617 C 0.20804 0.68742 0.54503 0.0
C1618 C 0.19864 0.68674 0.57037 0.0
C1619 C 0.17491 0.72089 0.59794 0.0
H1620 H 0.18612 0.73853 0.60322 0.0
H1621 H 0.15428 0.72633 0.59534 0.0
H1622 H 0.17598 0.70669 0.61409 0.0
O1623 O 0.22205 0.77169 0.54717 0.0
O1624 O 0.24221 0.7506 0.51501 0.0
H1625 H 0.24365 0.68142 0.5242 0.0
H1626 H 0.23743 0.65759 0.54929 0.0
C1627 C 0.22839 0.66981 0.53402 0.0
H1628 H 0.21931 0.65677 0.51947 0.0
H1629 H 0.26344 0.70968 0.47416 0.0
O1630 O 0.16575 0.77503 0.57415 0.0
C1631 C 0.24241 0.76683 0.53396 0.0
C1632 C 0.10902 0.3167 0.48871 0.0
C1633 C 0.12575 0.30033 0.50271 0.0
C1634 C 0.09252 0.30662 0.46962 0.0
C1635 C 0.09168 0.27982 0.4647 0.0
H1636 H 0.10896 0.33745 0.49227 0.0
H1637 H 0.07994 0.31978 0.45908 0.0
S1638 S 0.13115 0.22883 0.49663 0.0
N1639 N 0.14071 0.25624 0.51037 0.0
N1640 N 0.10857 0.23704 0.47537 0.0
C1641 C 0.10801 0.26321 0.47883 0.0
C1642 C 0.1254 0.27357 0.49765 0.0
C1643 C 0.78741 0.0997 0.51179 0.0
C1644 C 0.78521 0.126 0.50484 0.0
C1645 C 0.79499 0.08103 0.49363 0.0
C1646 C 0.80018 0.0879 0.46774 0.0
H1647 H 0.78353 0.09348 0.53151 0.0
H1648 H 0.79671 0.06103 0.49998 0.0
S1649 S 0.79646 0.15414 0.43947 0.0
N1650 N 0.78856 0.15806 0.47028 0.0
N1651 N 0.80215 0.12279 0.43587 0.0
C1652 C 0.79764 0.1141 0.46038 0.0
C1653 C 0.79038 0.13322 0.47903 0.0
C1654 C 0.9624 0.81275 0.49746 0.0
C1655 C 0.96122 0.78566 0.50054 0.0
C1656 C 0.98051 0.82401 0.48063 0.0
C1657 C 0.99728 0.8084 0.46586 0.0
H1658 H 0.94964 0.82532 0.50852 0.0
H1659 H 0.98117 0.84498 0.47889 0.0
S1660 S 1.00129 0.73652 0.46647 0.0
N1661 N 0.97818 0.74353 0.48759 0.0
N1662 N 1.01156 0.7647 0.45506 0.0
C1663 C 0.99596 0.7813 0.46842 0.0
C1664 C 0.97806 0.76989 0.48606 0.0
C1665 C 0.26739 0.9827 0.47781 0.0
C1666 C 0.284 0.99788 0.46233 0.0
C1667 C 0.27742 0.96425 0.49504 0.0
C1668 C 0.30434 0.96106 0.49784 0.0
H1669 H 0.24652 0.98495 0.47644 0.0
H1670 H 0.26407 0.95291 0.50672 0.0
S1671 S 0.35594 0.9958 0.46159 0.0
N1672 N 0.32852 1.00806 0.45034 0.0
N1673 N 0.34743 0.97404 0.48357 0.0
C1674 C 0.32114 0.97607 0.48248 0.0
C1675 C 0.31093 0.99433 0.46445 0.0
C1676 C 0.07921 0.79629 0.60053 0.0
C1677 C 0.08608 0.80149 0.6264 0.0
C1678 C 0.09732 0.7862 0.58309 0.0
C1679 C 0.12306 0.78151 0.59078 0.0
H1680 H 0.05962 0.79983 0.59371 0.0
H1681 H 0.09117 0.78236 0.56333 0.0
S1682 S 0.15087 0.79182 0.65643 0.0
N1683 N 0.12025 0.80093 0.65909 0.0
N1684 N 0.15458 0.78251 0.62597 0.0
C1685 C 0.13027 0.78669 0.61658 0.0
C1686 C 0.11167 0.79651 0.63451 0.0
C1687 C 0.2911 0.11222 0.6328 0.0
C1688 C 0.28239 0.08747 0.62519 0.0
C1689 C 0.30011 0.13008 0.61441 0.0
C1690 C 0.30126 0.12346 0.58796 0.0
H1691 H 0.29074 0.11794 0.65306 0.0
H1692 H 0.30671 0.14895 0.62102 0.0
S1693 S 0.28049 0.06127 0.55804 0.0
N1694 N 0.27476 0.05755 0.58936 0.0
N1695 N 0.29281 0.09072 0.55497 0.0
C1696 C 0.29268 0.09879 0.58012 0.0
C1697 C 0.28291 0.08088 0.59871 0.0
C1698 C 1.01163 0.29928 0.60167 0.0
C1699 C 1.00459 0.29312 0.6273 0.0
C1700 C 0.99322 0.30825 0.58392 0.0
C1701 C 0.96704 0.31097 0.59105 0.0
H1702 H 0.03154 0.29718 0.5952 0.0
H1703 H 0.99953 0.31269 0.56434 0.0
S1704 S 0.93859 0.29791 0.65593 0.0
N1705 N 0.9697 0.2909 0.65917 0.0
N1706 N 0.93493 0.30736 0.62552 0.0
C1707 C 0.95967 0.30501 0.61663 0.0
C1708 C 0.97853 0.29624 0.63487 0.0
C1709 C 0.78983 0.99463 0.57947 0.0
C1710 C 0.78622 0.96851 0.58649 0.0
C1711 C 0.79766 1.01308 0.59776 0.0
C1712 C 0.80178 1.00616 0.62382 0.0
H1713 H 0.78679 1.00092 0.55962 0.0
H1714 H 0.80039 0.03295 0.59137 0.0
S1715 S 0.79451 0.9403 0.6523 0.0
N1716 N 0.78724 0.93654 0.62131 0.0
N1717 N 0.80148 0.9714 0.65589 0.0
C1718 C 0.79797 0.98013 0.63123 0.0
C1719 C 0.79037 0.96123 0.61248 0.0
C1720 C 0.48234 0.12861 0.29322 0.0
C1721 C 0.50814 0.12157 0.29864 0.0
C1722 C 0.4648 0.11054 0.28311 0.0
C1723 C 0.47257 0.08492 0.27775 0.0
H1724 H 0.47547 0.1481 0.29725 0.0
H1725 H 0.44505 0.11675 0.27937 0.0
S1726 S 0.53817 0.05689 0.28791 0.0
N1727 N 0.54078 0.08738 0.29755 0.0
N1728 N 0.50777 0.05338 0.27835 0.0
C1729 C 0.49841 0.0777 0.28272 0.0
C1730 C 0.51621 0.09604 0.29326 0.0
C1731 C 0.98431 0.48072 0.26815 0.0
C1732 C 0.99938 0.4644 0.28396 0.0
C1733 C 0.96551 0.49703 0.27903 0.0
C1734 C 0.96194 0.49805 0.30604 0.0
H1735 H 0.98683 0.4806 0.24726 0.0
H1736 H 0.95412 0.50933 0.26631 0.0
S1737 S 0.99697 0.45957 0.35569 0.0
N1738 N 1.00948 0.44999 0.32773 0.0
N1739 N 0.97496 0.48171 0.34835 0.0
C1740 C 0.97712 0.48209 0.32205 0.0
C1741 C 0.99566 0.46492 0.31093 0.0
C1742 C 0.61254 0.98636 0.27378 0.0
C1743 C 0.62776 1.00183 0.29031 0.0
C1744 C 0.59501 0.9683 0.28394 0.0
C1745 C 0.59163 0.96585 0.31089 0.0
H1746 H 0.61444 0.988 0.25288 0.0
H1747 H 0.58363 0.95659 0.27064 0.0
S1748 S 0.62673 1.00218 0.36222 0.0
N1749 N 0.63876 1.01346 0.3347 0.0
N1750 N 0.60483 0.98023 0.35391 0.0
C1751 C 0.60658 0.98138 0.3276 0.0
C1752 C 0.62497 0.99921 0.31726 0.0
C1753 C 0.10036 0.57676 0.2966 0.0
C1754 C 0.126 0.58434 0.30202 0.0
C1755 C 0.08271 0.59425 0.2858 0.0
C1756 C 0.09 0.62002 0.28059 0.0
H1757 H 0.09392 0.55709 0.30046 0.0
H1758 H 0.06312 0.58761 0.28188 0.0
S1759 S 0.15479 0.6496 0.29153 0.0
N1760 N 0.15793 0.61924 0.30136 0.0
N1761 N 0.12445 0.6524 0.28155 0.0
C1762 C 0.11552 0.62795 0.28608 0.0
C1763 C 0.13364 0.61 0.29665 0.0
C1764 C 0.46026 0.9778 0.80199 0.0
C1765 C 0.46642 1.00438 0.80243 0.0
C1766 C 0.47789 0.9596 0.7922 0.0
C1767 C 0.502 0.96749 0.78206 0.0
H1768 H 0.44194 0.97095 0.80976 0.0
H1769 H 0.4725 0.93925 0.79244 0.0
S1770 S 0.52663 0.03518 0.77764 0.0
N1771 N 0.49781 0.03791 0.79141 0.0
N1772 N 0.53075 1.00381 0.77236 0.0
C1773 C 0.5081 0.99413 0.78187 0.0
C1774 C 0.49035 1.01258 0.79227 0.0
C1775 C 0.10796 0.46034 0.79617 0.0
C1776 C 0.08209 0.46748 0.80117 0.0
C1777 C 0.12603 0.47862 0.78741 0.0
C1778 C 0.11872 0.50454 0.78299 0.0
H1779 H 0.11443 0.44057 0.79942 0.0
H1780 H 0.14577 0.47229 0.78379 0.0
S1781 S 0.05328 0.53305 0.79289 0.0
N1782 N 0.05 0.50219 0.80099 0.0
N1783 N 0.08397 0.53654 0.78428 0.0
C1784 C 0.09288 0.51192 0.78773 0.0
C1785 C 0.07455 0.49338 0.79692 0.0
C1786 C 0.60694 0.11195 0.76899 0.0
C1787 C 0.58906 0.12527 0.78468 0.0
C1788 C 0.62481 0.09468 0.77994 0.0
C1789 C 0.62465 0.08961 0.80673 0.0
H1790 H 0.60731 0.11516 0.7482 0.0
H1791 H 0.63847 0.08484 0.76731 0.0
S1792 S 0.58116 0.11921 0.8559 0.0
N1793 N 0.57223 0.13256 0.82814 0.0
N1794 N 0.60505 0.09906 0.84866 0.0
C1795 C 0.60661 0.10257 0.82255 0.0
C1796 C 0.58899 0.12074 0.81152 0.0
C1797 C 0.99547 0.62321 0.78046 0.0
C1798 C 0.99887 0.62563 0.8074 0.0
C1799 C 0.97828 0.60481 0.77027 0.0
C1800 C 0.96344 0.58896 0.78677 0.0
H1801 H 1.00655 0.63523 0.7672 0.0
H1802 H 0.97633 0.60321 0.74937 0.0
S1803 S 0.96475 0.58839 0.85868 0.0
N1804 N 0.98615 0.61082 0.8504 0.0
N1805 N 0.95286 0.57695 0.83115 0.0
C1806 C 0.96628 0.59154 0.81372 0.0
C1807 C 0.98433 0.60972 0.82408 0.0
C1808 C 0.26871 0.47988 0.10389 0.0
C1809 C 0.28464 0.46356 0.08896 0.0
C1810 C 0.27949 0.49662 0.12237 0.0
C1811 C 0.30651 0.49809 0.12569 0.0
H1812 H 0.2478 0.47946 0.10151 0.0
H1813 H 0.26668 0.50889 0.1337 0.0
S1814 S 0.35642 0.45969 0.09086 0.0
N1815 N 0.32849 0.44954 0.07872 0.0
N1816 N 0.34896 0.48211 0.11259 0.0
C1817 C 0.32264 0.48211 0.11063 0.0
C1818 C 0.31161 0.46448 0.09245 0.0
C1819 C 0.27835 0.59504 0.96326 0.0
C1820 C 0.30511 0.58983 0.96327 0.0
C1821 C 0.26766 0.61255 0.98105 0.0
C1822 C 0.2836 0.62594 0.99866 0.0
H1823 H 0.26555 0.58511 0.9498 0.0
H1824 H 0.24688 0.61587 0.98083 0.0
S1825 S 0.35486 0.61965 1.00598 0.0
N1826 N 0.34729 0.59926 0.98237 0.0
N1827 N 0.32724 0.63323 1.01503 0.0
C1828 C 0.31041 0.6213 0.99854 0.0
C1829 C 0.32118 0.6029 0.98101 0.0
C1830 C 0.50776 0.30233 0.99142 0.0
C1831 C 0.50054 0.30524 0.96528 0.0
C1832 C 0.49011 0.29309 1.0098 0.0
C1833 C 0.46448 0.28688 1.00278 0.0
H1834 H 0.52732 0.30689 0.99771 0.0
H1835 H 0.49661 0.29094 0.02969 0.0
S1836 S 0.43568 0.29182 0.93688 0.0
N1837 N 0.46603 0.30152 0.93321 0.0
N1838 N 0.43256 0.2846 0.96796 0.0
C1839 C 0.45685 0.29007 0.97675 0.0
C1840 C 0.47499 0.29909 0.95792 0.0
C1841 C 0.77977 0.4645 0.99471 0.0
C1842 C 0.8068 0.46304 0.99799 0.0
C1843 C 0.76888 0.48225 0.9773 0.0
C1844 C 0.78476 0.49838 0.9621 0.0
H1845 H 0.76696 0.45227 1.00609 0.0
H1846 H 0.74793 0.48316 0.97549 0.0
S1847 S 0.85663 0.50144 0.96299 0.0
N1848 N 0.84921 0.47906 0.98474 0.0
N1849 N 0.82867 0.51174 0.95111 0.0
C1850 C 0.81181 0.49676 0.96482 0.0
C1851 C 0.82287 0.47923 0.98307 0.0
C1852 C 0.60772 0.77012 0.97448 0.0
C1853 C 0.58955 0.78555 0.96129 0.0
C1854 C 0.62549 0.78135 0.9917 0.0
C1855 C 0.62488 0.80814 0.99682 0.0
H1856 H 0.60838 0.74932 0.97125 0.0
H1857 H 0.63936 0.76894 1.00151 0.0
S1858 S 0.58063 0.85667 0.96745 0.0
N1859 N 0.57207 0.82877 0.95407 0.0
N1860 N 0.60468 0.8498 0.98753 0.0
C1861 C 0.60661 0.8237 0.98394 0.0
C1862 C 0.58911 0.8124 0.96582 0.0
C1863 C 0.79925 0.60231 0.08157 0.0
C1864 C 0.80233 0.62849 0.08861 0.0
C1865 C 0.78959 0.5842 0.09927 0.0
C1866 C 0.78334 0.59157 0.12478 0.0
H1867 H 0.80401 0.5958 0.06213 0.0
H1868 H 0.78727 0.56424 0.09299 0.0
S1869 S 0.78855 0.65768 0.15301 0.0
N1870 N 0.79849 0.66101 0.12271 0.0
N1871 N 0.7811 0.62665 0.1564 0.0
C1872 C 0.78669 0.61761 0.13223 0.0
C1873 C 0.79596 0.6362 0.11399 0.0
C1874 C 0.49947 0.80607 0.11609 0.0
C1875 C 0.49989 0.77893 0.11894 0.0
C1876 C 0.48224 0.81788 0.0988 0.0
C1877 C 0.46442 0.80291 0.08464 0.0
H1878 H 0.5128 0.81818 0.12701 0.0
H1879 H 0.48254 0.83884 0.09686 0.0
S1880 S 0.45751 0.73128 0.08554 0.0
N1881 N 0.48139 0.7374 0.10609 0.0
N1882 N 0.44799 0.75983 0.07441 0.0
C1883 C 0.46441 0.77583 0.08753 0.0
C1884 C 0.48248 0.76374 0.10451 0.0
C1885 C 0.62197 0.30783 0.09547 0.0
C1886 C 0.62425 0.28086 0.09204 0.0
C1887 C 0.60413 0.31808 0.1132 0.0
C1888 C 0.58873 0.30161 0.12855 0.0
H1889 H 0.63361 0.32107 0.08398 0.0
H1890 H 0.60256 0.33899 0.11508 0.0
S1891 S 0.58823 0.22965 0.12761 0.0
N1892 N 0.60995 0.23788 0.10548 0.0
N1893 N 0.57714 0.25723 0.1397 0.0
C1894 C 0.59128 0.27463 0.12577 0.0
C1895 C 0.60888 0.26421 0.10721 0.0
C1896 C 0.97448 0.80273 0.63093 0.0
C1897 C 0.96647 0.8103 0.65597 0.0
C1898 C 0.95813 0.78857 0.61437 0.0
C1899 C 0.93317 0.78065 0.62224 0.0
H1900 H 0.99363 0.80795 0.62392 0.0
H1901 H 0.96522 0.78365 0.59516 0.0
S1902 S 0.90279 0.795 0.686 0.0
N1903 N 0.93174 0.80879 0.68788 0.0
N1904 N 0.90115 0.78148 0.65691 0.0
C1905 C 0.9249 0.78778 0.64733 0.0
C1906 C 0.94145 0.80282 0.6641 0.0
C1907 C 0.30003 0.92613 0.644 0.0
C1908 C 0.31122 0.93508 0.62068 0.0
C1909 C 0.28563 0.943 0.66025 0.0
C1910 C 0.28234 0.96949 0.65397 0.0
H1911 H 0.30173 0.90584 0.64931 0.0
H1912 H 0.27725 0.93529 0.67794 0.0
S1913 S 0.30863 1.00233 0.59522 0.0
N1914 N 0.31829 0.97193 0.59231 0.0
N1915 N 0.29207 1.0036 0.62264 0.0
C1916 C 0.29392 0.97856 0.63082 0.0
C1917 C 0.30811 0.96138 0.61427 0.0
C1918 C 0.12404 0.30859 0.65757 0.0
C1919 C 0.12423 0.28123 0.65964 0.0
C1920 C 0.14121 0.32182 0.64086 0.0
C1921 C 0.15866 0.30811 0.62497 0.0
H1922 H 0.11022 0.31987 0.66874 0.0
H1923 H 0.13999 0.34279 0.63949 0.0
S1924 S 0.16741 0.23653 0.62334 0.0
N1925 N 0.14424 0.24111 0.64507 0.0
N1926 N 0.17563 0.26575 0.61287 0.0
C1927 C 0.15936 0.28083 0.62717 0.0
C1928 C 0.14241 0.26744 0.64472 0.0
C1929 C 0.76898 0.14265 0.64112 0.0
C1930 C 0.78246 0.15986 0.62479 0.0
C1931 C 0.78242 0.12553 0.65767 0.0
C1932 C 0.80979 0.12559 0.65917 0.0
H1933 H 0.74798 0.14159 0.64027 0.0
H1934 H 0.7713 0.11185 0.66918 0.0
S1935 S 0.85401 0.1682 0.62164 0.0
N1936 N 0.82466 0.17651 0.61169 0.0
N1937 N 0.84973 0.14522 0.64363 0.0
C1938 C 0.8234 0.14354 0.6438 0.0
C1939 C 0.80978 0.16041 0.62639 0.0
C1940 C 0.92854 0.30189 0.44658 0.0
C1941 C 0.93685 0.30962 0.47154 0.0
C1942 C 0.94474 0.287 0.43009 0.0
C1943 C 0.97002 0.27976 0.43776 0.0
H1944 H 0.90925 0.30699 0.43993 0.0
H1945 H 0.93766 0.28167 0.411 0.0
S1946 S 1.00118 0.29528 0.50097 0.0
N1947 N 0.97216 0.30872 0.50287 0.0
N1948 N 1.00237 0.28144 0.47209 0.0
C1949 C 0.97847 0.28748 0.4626 0.0
C1950 C 0.96199 0.30221 0.47939 0.0
C1951 C 0.78112 0.96822 0.43512 0.0
C1952 C 0.80847 0.96772 0.43306 0.0
C1953 C 0.76763 0.95087 0.45146 0.0
C1954 C 0.78103 0.93289 0.46701 0.0
H1955 H 0.77005 0.9824 0.42422 0.0
H1956 H 0.74669 0.95235 0.45282 0.0
S1957 S 0.85245 0.9232 0.46855 0.0
N1958 N 0.84824 0.94686 0.44729 0.0
N1959 N 0.82312 0.91516 0.47883 0.0
C1960 C 0.8083 0.93191 0.46484 0.0
C1961 C 0.82196 0.94904 0.44764 0.0
C1962 C 0.16039 0.78691 0.44678 0.0
C1963 C 0.15283 0.78073 0.4724 0.0
C1964 C 0.14448 0.80238 0.43051 0.0
C1965 C 0.12028 0.8119 0.43915 0.0
H1966 H 0.17883 0.78004 0.43936 0.0
H1967 H 0.15084 0.80625 0.41084 0.0
S1968 S 0.09139 0.80125 0.50439 0.0
N1969 N 0.1193 0.78558 0.50534 0.0
N1970 N 0.08985 0.81416 0.47514 0.0
C1971 C 0.11268 0.8059 0.46471 0.0
C1972 C 0.12878 0.79046 0.48118 0.0
C1973 C 0.30682 0.15739 0.44381 0.0
C1974 C 0.30343 0.15567 0.47098 0.0
C1975 C 0.29253 0.14147 0.42655 0.0
C1976 C 0.27444 0.12312 0.4358 0.0
H1977 H 0.32087 0.17085 0.4358 0.0
H1978 H 0.29643 0.14279 0.40592 0.0
S1979 S 0.25681 0.11143 0.50445 0.0
N1980 N 0.27907 0.13448 0.50579 0.0
N1981 N 0.25321 0.10463 0.47336 0.0
C1982 C 0.27043 0.12154 0.46263 0.0
C1983 C 0.2846 0.13779 0.48018 0.0
C1984 C 0.646 0.92904 0.78655 0.0
C1985 C 0.61988 0.93608 0.78201 0.0
C1986 C 0.66281 0.94513 0.80127 0.0
C1987 C 0.65424 0.96904 0.81154 0.0
H1988 H 0.65341 0.91088 0.77894 0.0
H1989 H 0.6828 0.93918 0.80397 0.0
S1990 S 0.58793 0.99654 0.80539 0.0
N1991 N 0.58653 0.96877 0.78942 0.0
N1992 N 0.61793 0.99867 0.81639 0.0
C1993 C 0.62825 0.97616 0.80716 0.0
C1994 C 0.61117 0.95982 0.7926 0.0
C1995 C 0.11256 0.63059 0.79968 0.0
C1996 C 0.12086 0.6553 0.80803 0.0
C1997 C 0.12889 0.61411 0.78543 0.0
C1998 C 0.15418 0.62167 0.77824 0.0
H1999 H 0.0932 0.62377 0.80434 0.0
H2000 H 0.12149 0.59518 0.7799 0.0
S2001 S 0.18541 0.68454 0.79475 0.0
N2002 N 0.15623 0.68661 0.80797 0.0
N2003 N 0.18681 0.65574 0.78058 0.0
C2004 C 0.16276 0.64644 0.78615 0.0
C2005 C 0.1462 0.66315 0.80124 0.0
C2006 C 0.47391 0.12957 0.78788 0.0
C2007 C 0.46583 0.15435 0.77965 0.0
C2008 C 0.45764 0.11339 0.8025 0.0
C2009 C 0.43261 0.12134 0.81016 0.0
H2010 H 0.4931 0.12249 0.78294 0.0
H2011 H 0.46491 0.09443 0.808 0.0
S2012 S 0.40198 0.18452 0.79401 0.0
N2013 N 0.43095 0.18615 0.78023 0.0
N2014 N 0.40042 0.1558 0.80829 0.0
C2015 C 0.42422 0.14616 0.8023 0.0
C2016 C 0.44074 0.16258 0.78684 0.0
C2017 C 0.94961 0.44834 0.82216 0.0
C2018 C 0.96539 0.43059 0.80871 0.0
C2019 C 0.93317 0.46559 0.80871 0.0
C2020 C 0.93125 0.46523 0.78135 0.0
H2021 H 0.95088 0.44974 0.84312 0.0
H2022 H 0.9221 0.47962 0.81983 0.0
S2023 S 0.96731 0.42122 0.73724 0.0
N2024 N 0.97751 0.41312 0.76656 0.0
N2025 N 0.94584 0.44468 0.74151 0.0
C2026 C 0.94605 0.44674 0.76781 0.0
C2027 C 0.96333 0.42969 0.78143 0.0
C2028 C 0.63966 0.14193 0.32348 0.0
C2029 C 0.62331 0.15903 0.30989 0.0
C2030 C 0.65622 0.1247 0.31015 0.0
C2031 C 0.65767 0.12445 0.28276 0.0
H2032 H 0.63875 0.14099 0.34448 0.0
H2033 H 0.66777 0.11119 0.3214 0.0
S2034 S 0.62011 0.16668 0.23826 0.0
N2035 N 0.61019 0.17526 0.26756 0.0
N2036 N 0.64211 0.14375 0.2427 0.0
C2037 C 0.64232 0.14231 0.26905 0.0
C2038 C 0.62493 0.15932 0.28256 0.0
C2039 C 0.9297 0.6442 0.30149 0.0
C2040 C 0.93607 0.61815 0.30717 0.0
C2041 C 0.9462 0.65989 0.28604 0.0
C2042 C 0.96982 0.65021 0.27605 0.0
H2043 H 0.91169 0.65237 0.30863 0.0
H2044 H 0.94075 0.6799 0.28247 0.0
S2045 S 0.99551 0.58341 0.2854 0.0
N2046 N 0.96782 0.58362 0.3015 0.0
N2047 N 0.99837 0.61276 0.27289 0.0
C2048 C 0.97626 0.62423 0.28166 0.0
C2049 C 0.95955 0.60834 0.29709 0.0
C2050 C 0.47646 0.96035 0.29948 0.0
C2051 C 0.46814 0.93601 0.30877 0.0
C2052 C 0.46045 0.97599 0.28409 0.0
C2053 C 0.43525 0.96812 0.27684 0.0
H2054 H 0.4957 0.96754 0.30412 0.0
H2055 H 0.46803 0.9946 0.27781 0.0
S2056 S 0.40381 0.90604 0.29572 0.0
N2057 N 0.4328 0.90461 0.30945 0.0
N2058 N 0.40259 0.93417 0.28029 0.0
C2059 C 0.42655 0.94375 0.28578 0.0
C2060 C 0.44292 0.92776 0.30186 0.0
C2061 C 0.13133 0.47454 0.30042 0.0
C2062 C 0.15585 0.46584 0.3089 0.0
C2063 C 0.11471 0.45856 0.2859 0.0
C2064 C 0.12192 0.43322 0.27854 0.0
H2065 H 0.12475 0.49395 0.3052 0.0
H2066 H 0.09594 0.46625 0.28031 0.0
S2067 S 0.18414 0.40095 0.29532 0.0
N2068 N 0.18657 0.43002 0.30879 0.0
N2069 N 0.15545 0.40008 0.2809 0.0
C2070 C 0.1465 0.42423 0.28658 0.0
C2071 C 0.16335 0.44045 0.30195 0.0
C2072 C 0.78586 0.64584 0.92759 0.0
C2073 C 0.77908 0.62049 0.93555 0.0
C2074 C 0.80051 0.6625 0.94388 0.0
C2075 C 0.8084 0.65459 0.96889 0.0
H2076 H 0.7803 0.65263 0.90849 0.0
H2077 H 0.80515 0.68187 0.9371 0.0
S2078 S 0.79544 0.59029 0.99899 0.0
N2079 N 0.78155 0.58849 0.97017 0.0
N2080 N 0.80832 0.61962 1.00056 0.0
C2081 C 0.80155 0.62937 0.97699 0.0
C2082 C 0.78711 0.61242 0.96042 0.0
C2083 C 0.80105 0.42956 0.14558 0.0
C2084 C 0.80875 0.43704 0.12039 0.0
C2085 C 0.7862 0.44635 0.16154 0.0
C2086 C 0.779 0.4714 0.15305 0.0
H2087 H 0.80598 0.41042 0.15278 0.0
H2088 H 0.78075 0.43985 0.18078 0.0
S2089 S 0.79468 0.50039 0.08884 0.0
N2090 N 0.80809 0.47131 0.08793 0.0
N2091 N 0.78084 0.50258 0.11765 0.0
C2092 C 0.78686 0.47904 0.12799 0.0
C2093 C 0.80155 0.46198 0.11177 0.0
C2094 C 0.63258 0.79503 0.10795 0.0
C2095 C 0.65531 0.80707 0.11734 0.0
C2096 C 0.61675 0.77981 0.12404 0.0
C2097 C 0.62298 0.7754 0.15028 0.0
H2098 H 0.62661 0.79768 0.08795 0.0
H2099 H 0.59914 0.77166 0.11583 0.0
S2100 S 0.68071 0.80157 0.18462 0.0
N2101 N 0.68355 0.81301 0.15476 0.0
N2102 N 0.6538 0.78403 0.18496 0.0
C2103 C 0.64594 0.78674 0.15994 0.0
C2104 C 0.662 0.80271 0.14355 0.0
C2105 C 0.30024 0.61248 0.13 0.0
C2106 C 0.30818 0.62041 0.15495 0.0
C2107 C 0.28619 0.62905 0.11357 0.0
C2108 C 0.27875 0.65416 0.12148 0.0
H2109 H 0.30512 0.59325 0.12294 0.0
H2110 H 0.28102 0.62201 0.09441 0.0
S2111 S 0.2941 0.68439 0.18511 0.0
N2112 N 0.30744 0.65523 0.18686 0.0
N2113 N 0.28038 0.6862 0.15614 0.0
C2114 C 0.28621 0.66234 0.14651 0.0
C2115 C 0.30113 0.64557 0.16314 0.0
C2116 C 0.45787 0.28526 0.115 0.0
C2117 C 0.43243 0.2785 0.12246 0.0
C2118 C 0.47444 0.29915 0.13158 0.0
C2119 C 0.46624 0.30758 0.15627 0.0
H2120 H 0.4652 0.27962 0.0961 0.0
H2121 H 0.49392 0.30345 0.12486 0.0
S2122 S 0.40139 0.2954 0.18527 0.0
N2123 N 0.39979 0.28134 0.15643 0.0
N2124 N 0.43082 0.3081 0.18746 0.0
C2125 C 0.44076 0.30126 0.16401 0.0
C2126 C 0.42395 0.2865 0.14722 0.0
C2127 C 0.30079 0.47658 0.95957 0.0
C2128 C 0.30896 0.46859 0.93471 0.0
C2129 C 0.28644 0.46011 0.97585 0.0
C2130 C 0.27891 0.43501 0.96789 0.0
H2131 H 0.30566 0.49582 0.96664 0.0
H2132 H 0.28105 0.46723 0.99492 0.0
S2133 S 0.29487 0.40461 0.90451 0.0
N2134 N 0.30839 0.4337 0.90287 0.0
N2135 N 0.2808 0.4029 0.93332 0.0
C2136 C 0.28666 0.42675 0.94298 0.0
C2137 C 0.30187 0.44343 0.9265 0.0
C2138 C 0.6283 0.28671 0.97563 0.0
C2139 C 0.65346 0.27925 0.96792 0.0
C2140 C 0.61183 0.30064 0.95902 0.0
C2141 C 0.61989 0.30845 0.93407 0.0
H2142 H 0.62115 0.28161 0.99476 0.0
H2143 H 0.59257 0.30555 0.96594 0.0
S2144 S 0.68401 0.29424 0.9044 0.0
N2145 N 0.68566 0.28068 0.93345 0.0
N2146 N 0.65487 0.30756 0.9024 0.0
C2147 C 0.64509 0.30137 0.92609 0.0
C2148 C 0.66176 0.28656 0.9429 0.0
C2149 C 0.47457 0.78944 0.95767 0.0
C2150 C 0.46628 0.78092 0.93302 0.0
C2151 C 0.45828 0.80389 0.97405 0.0
C2152 C 0.43303 0.81115 0.96645 0.0
H2153 H 0.4939 0.78477 0.96453 0.0
H2154 H 0.46566 0.80951 0.99295 0.0
S2155 S 0.40181 0.79427 0.9037 0.0
N2156 N 0.43094 0.78092 0.90173 0.0
N2157 N 0.40045 0.80866 0.93239 0.0
C2158 C 0.42446 0.80308 0.94173 0.0
C2159 C 0.44099 0.78778 0.92513 0.0
C2160 C 0.13535 0.15543 0.39341 0.0
C2161 C 0.13922 0.14549 0.36817 0.0
C2162 C 0.11269 0.16897 0.40016 0.0
C2163 C 0.09313 0.17402 0.38184 0.0
H2164 H 0.15016 0.15389 0.40809 0.0
H2165 H 0.1109 0.17645 0.41976 0.0
S2166 S 0.09415 0.15476 0.31243 0.0
N2167 N 0.12115 0.14242 0.32451 0.0
N2168 N 0.07978 0.16978 0.33683 0.0
C2169 C 0.09677 0.16485 0.3564 0.0
C2170 C 0.11953 0.15033 0.34965 0.0
C2171 C 0.91623 0.13682 0.36242 0.0
C2172 C 0.94148 0.14152 0.37168 0.0
C2173 C 0.90241 0.1145 0.36991 0.0
C2174 C 0.91352 0.09593 0.38662 0.0
H2175 H 0.90692 0.15073 0.34968 0.0
H2176 H 0.88282 0.11179 0.36272 0.0
S2177 S 0.97991 0.09776 0.41408 0.0
N2178 N 0.97768 0.12481 0.39696 0.0
N2179 N 0.95164 0.08286 0.41092 0.0
C2180 C 0.93902 0.09991 0.39525 0.0
C2181 C 0.95302 0.12273 0.38783 0.0
C2182 C 0.98098 0.92542 0.40073 0.0
C2183 C 0.99789 0.91717 0.38102 0.0
C2184 C 0.95804 0.93893 0.39506 0.0
C2185 C 0.95118 0.94564 0.36938 0.0
H2186 H 0.98499 0.92037 0.42077 0.0
H2187 H 0.94543 0.94289 0.41118 0.0
S2188 S 0.98897 0.92757 0.31036 0.0
N2189 N 1.00579 0.91516 0.33464 0.0
N2190 N 0.96397 0.94243 0.32383 0.0
C2191 C 0.9684 0.93774 0.34943 0.0
C2192 C 0.99143 0.92324 0.35525 0.0
C2193 C 0.17274 0.97354 0.39826 0.0
C2194 C 0.17823 0.99234 0.37928 0.0
C2195 C 0.15958 0.95047 0.39207 0.0
C2196 C 0.15044 0.94541 0.36673 0.0
H2197 H 0.1794 0.97636 0.41803 0.0
H2198 H 0.15754 0.93635 0.40735 0.0
S2199 S 0.16184 0.98781 0.3093 0.0
N2200 N 0.17581 1.00345 0.33355 0.0
N2201 N 0.14914 0.96132 0.32215 0.0
C2202 C 0.15604 0.96418 0.34747 0.0
C2203 C 0.17019 0.98735 0.35369 0.0
C2204 C 0.13398 0.93529 0.69259 0.0
C2205 C 0.14049 0.94137 0.71854 0.0
C2206 C 0.11042 0.9232 0.68611 0.0
C2207 C 0.09257 0.91567 0.70525 0.0
H2208 H 0.14723 0.93874 0.67686 0.0
H2209 H 0.10663 0.91862 0.66591 0.0
S2210 S 0.10027 0.92444 0.77629 0.0
N2211 N 0.12639 0.9381 0.76371 0.0
N2212 N 0.08341 0.91338 0.75139 0.0
C2213 C 0.09874 0.92094 0.73128 0.0
C2214 C 0.12238 0.93406 0.73793 0.0
C2215 C 0.16647 0.10945 0.68862 0.0
C2216 C 0.17403 0.09161 0.70776 0.0
C2217 C 0.1533 0.13242 0.69503 0.0
C2218 C 0.14627 0.13833 0.72087 0.0
H2219 H 0.17182 0.10614 0.66853 0.0
H2220 H 0.14984 0.14583 0.67942 0.0
S2221 S 0.16277 0.09799 0.77858 0.0
N2222 N 0.17522 0.08188 0.75383 0.0
N2223 N 0.14855 0.12377 0.76591 0.0
C2224 C 0.15357 0.12024 0.74023 0.0
C2225 C 0.16773 0.09719 0.73369 0.0
C2226 C 0.97661 0.18796 0.72122 0.0
C2227 C 0.99623 0.17662 0.70593 0.0
C2228 C 0.95453 0.17378 0.72861 0.0
C2229 C 0.95113 0.14783 0.72078 0.0
H2230 H 0.97833 0.208 0.72745 0.0
H2231 H 0.93976 0.18336 0.74015 0.0
S2232 S 0.99812 0.10853 0.6828 0.0
N2233 N 1.01174 0.13756 0.68465 0.0
N2234 N 0.97031 0.11074 0.69865 0.0
C2235 C 0.971 0.13604 0.70615 0.0
C2236 C 0.99357 0.15047 0.69875 0.0
C2237 C 0.91697 0.95677 0.72912 0.0
C2238 C 0.94201 0.95172 0.71949 0.0
C2239 C 0.90338 0.97926 0.72183 0.0
C2240 C 0.91451 0.99766 0.70495 0.0
H2241 H 0.90761 0.94298 0.74197 0.0
H2242 H 0.88392 0.98221 0.72927 0.0
S2243 S 0.98051 0.99506 0.67664 0.0
N2244 N 0.97813 0.96802 0.69376 0.0
N2245 N 0.95248 1.01029 0.68016 0.0
C2246 C 0.93982 0.99337 0.69597 0.0
C2247 C 0.95361 0.97037 0.70318 0.0
C2248 C 0.35854 0.13331 0.16987 0.0
C2249 C 0.36531 0.13764 0.14379 0.0
C2250 C 0.36613 0.11052 0.18276 0.0
C2251 C 0.38046 0.09111 0.16992 0.0
H2252 H 0.34793 0.14797 0.18062 0.0
H2253 H 0.36115 0.10824 0.20308 0.0
S2254 S 0.40027 0.09147 0.10084 0.0
N2255 N 0.38515 0.11949 0.10493 0.0
N2256 N 0.39947 0.07671 0.12932 0.0
C2257 C 0.38635 0.09461 0.14359 0.0
C2258 C 0.37879 0.1179 0.13047 0.0
C2259 C 0.96391 0.38895 0.13938 0.0
C2260 C 0.94859 0.36781 0.14779 0.0
C2261 C 0.987 0.3958 0.15227 0.0
C2262 C 0.9958 0.38152 0.17373 0.0
H2263 H 0.95816 0.40026 0.12265 0.0
H2264 H 0.99784 0.41259 0.14567 0.0
S2265 S 0.9639 0.32401 0.20293 0.0
N2266 N 0.94464 0.33225 0.17862 0.0
N2267 N 0.98814 0.34505 0.20253 0.0
C2268 C 0.98124 0.35995 0.18187 0.0
C2269 C 0.95769 0.35304 0.1689 0.0
C2270 C 0.73274 0.9677 0.15443 0.0
C2271 C 0.71482 0.94715 0.1517 0.0
C2272 C 0.72658 0.99026 0.16853 0.0
C2273 C 0.70202 0.99353 0.18004 0.0
H2274 H 0.75187 0.96625 0.1458 0.0
H2275 H 0.74149 1.0049 0.17103 0.0
S2276 S 0.64886 0.94492 0.18096 0.0
N2277 N 0.67239 0.93066 0.16454 0.0
N2278 N 0.65985 0.97414 0.18829 0.0
C2279 C 0.68389 0.97325 0.17742 0.0
C2280 C 0.69049 0.94984 0.16395 0.0
C2281 C 0.11029 0.72758 0.18159 0.0
C2282 C 0.09265 0.70943 0.1713 0.0
C2283 C 0.13302 0.73432 0.16809 0.0
C2284 C 0.13905 0.72275 0.1441 0.0
H2285 H 0.10675 0.73618 0.20048 0.0
H2286 H 0.14632 0.74811 0.17683 0.0
S2287 S 0.09789 0.67579 0.10801 0.0
N2288 N 0.08176 0.68119 0.13523 0.0
N2289 N 0.12439 0.69383 0.10969 0.0
C2290 C 0.12106 0.70521 0.13326 0.0
C2291 C 0.09786 0.69853 0.14694 0.0
C2292 C 0.36007 0.95531 0.91837 0.0
C2293 C 0.36702 0.95155 0.94448 0.0
C2294 C 0.3677 0.97774 0.9049 0.0
C2295 C 0.38234 0.99733 0.91714 0.0
H2296 H 0.34917 0.94052 0.90808 0.0
H2297 H 0.36236 0.97966 0.88464 0.0
S2298 S 0.40272 0.99845 0.98606 0.0
N2299 N 0.38737 0.97043 0.98274 0.0
N2300 N 0.40182 1.01254 0.95724 0.0
C2301 C 0.38846 0.99438 0.9435 0.0
C2302 C 0.38083 0.97146 0.95722 0.0
C2303 C 0.09994 0.39519 0.93752 0.0
C2304 C 0.09401 0.38447 0.91316 0.0
C2305 C 0.12251 0.38775 0.95102 0.0
C2306 C 0.13996 0.36938 0.94056 0.0
H2307 H 0.0872 0.40961 0.94604 0.0
H2308 H 0.12607 0.39626 0.96989 0.0
S2309 S 0.13208 0.33465 0.87783 0.0
N2310 N 0.10643 0.35381 0.8796 0.0
N2311 N 0.14887 0.33997 0.90466 0.0
C2312 C 0.13368 0.35803 0.91648 0.0
C2313 C 0.11076 0.3656 0.90283 0.0
C2314 C 0.72793 0.11044 0.90704 0.0
C2315 C 0.70836 0.09348 0.9158 0.0
C2316 C 0.73443 0.13294 0.92108 0.0
C2317 C 0.72136 0.13941 0.94417 0.0
H2318 H 0.73785 0.10653 0.8889 0.0
H2319 H 0.74932 0.14571 0.91345 0.0
S2320 S 0.67071 0.09969 0.97668 0.0
N2321 N 0.67737 0.0835 0.94977 0.0
N2322 N 0.68971 0.12557 0.97643 0.0
C2323 C 0.7025 0.12198 0.95364 0.0
C2324 C 0.69598 0.09905 0.93937 0.0
C2325 C 0.95376 0.69464 0.93293 0.0
C2326 C 0.94888 0.72013 0.94176 0.0
C2327 C 0.97676 0.68817 0.91981 0.0
C2328 C 0.99566 0.707 0.91409 0.0
H2329 H 0.93955 0.67945 0.93499 0.0
H2330 H 0.97933 0.66836 0.91316 0.0
S2331 S 0.99191 0.77715 0.9301 0.0
N2332 N 0.96533 0.76459 0.94291 0.0
N2333 N 1.00725 0.75265 0.91626 0.0
C2334 C 0.99098 0.73267 0.92205 0.0
C2335 C 0.96791 0.73918 0.93617 0.0
C2336 C 0.18378 0.36366 0.11083 0.0
C2337 C 0.17322 0.38061 0.09218 0.0
C2338 C 0.16977 0.35673 0.13317 0.0
C2339 C 0.14473 0.36663 0.1378 0.0
H2340 H 0.20328 0.35614 0.10836 0.0
H2341 H 0.17888 0.34406 0.14727 0.0
S2342 S 0.10716 0.40889 0.0931 0.0
N2343 N 0.13556 0.40533 0.07858 0.0
N2344 N 0.10891 0.39197 0.12031 0.0
C2345 C 0.1335 0.38261 0.11865 0.0
C2346 C 0.14781 0.38963 0.09587 0.0
C2347 C 0.15734 0.69481 0.95221 0.0
C2348 C 0.14772 0.72011 0.94792 0.0
C2349 C 0.17043 0.68817 0.97516 0.0
C2350 C 0.1754 0.70666 0.9946 0.0
H2351 H 0.15583 0.67996 0.93756 0.0
H2352 H 0.1776 0.66849 0.97731 0.0
S2353 S 0.15719 0.77634 0.99249 0.0
N2354 N 0.14505 0.76407 0.96546 0.0
N2355 N 0.17166 0.75192 1.00733 0.0
C2356 C 0.16668 0.73219 0.9905 0.0
C2357 C 0.15257 0.73884 0.96746 0.0
C2358 C 0.36635 0.18559 0.97716 0.0
C2359 C 0.38072 0.17354 0.99704 0.0
C2360 C 0.35913 0.17192 0.95469 0.0
C2361 C 0.36626 0.1458 0.95116 0.0
H2362 H 0.3609 0.20585 0.97889 0.0
H2363 H 0.34842 0.18206 0.93969 0.0
S2364 S 0.40142 0.1047 0.99878 0.0
N2365 N 0.40013 0.13361 1.01272 0.0
N2366 N 0.3865 0.10777 0.97053 0.0
C2367 C 0.37981 0.13328 0.97134 0.0
C2368 C 0.38701 0.14718 0.99431 0.0
C2369 C 0.93456 0.3953 0.95623 0.0
C2370 C 0.94376 0.36989 0.95171 0.0
C2371 C 0.92117 0.40184 0.97902 0.0
C2372 C 0.91555 0.38314 0.99805 0.0
H2373 H 0.93651 0.4103 0.9418 0.0
H2374 H 0.91417 0.42156 0.98129 0.0
S2375 S 0.933 0.3133 0.99535 0.0
N2376 N 0.94569 0.32571 0.96865 0.0
N2377 N 0.91861 0.33771 1.01032 0.0
C2378 C 0.92407 0.35756 0.99381 0.0
C2379 C 0.93844 0.351 0.97091 0.0
C2380 C 0.69729 0.94115 0.98962 0.0
C2381 C 0.70963 0.91795 0.99679 0.0
C2382 C 0.70454 0.95442 0.96687 0.0
C2383 C 0.72409 0.94472 0.95029 0.0
H2384 H 0.68156 0.94875 1.00134 0.0
H2385 H 0.69468 0.97239 0.96233 0.0
S2386 S 0.76312 0.88515 0.96161 0.0
N2387 N 0.74309 0.88641 0.98663 0.0
N2388 N 0.75647 0.91093 0.94371 0.0
C2389 C 0.73718 0.92197 0.95795 0.0
C2390 C 0.72993 0.90863 0.98117 0.0
C2391 C 0.93758 0.73564 0.12127 0.0
C2392 C 0.94045 0.71722 0.14133 0.0
C2393 C 0.92409 0.7297 0.09824 0.0
C2394 C 0.91353 0.70484 0.09401 0.0
H2395 H 0.94544 0.75504 0.12354 0.0
H2396 H 0.92111 0.74502 0.08416 0.0
S2397 S 0.91354 0.65014 0.14078 0.0
N2398 N 0.92859 0.67389 0.15619 0.0
N2399 N 0.90675 0.66169 0.11169 0.0
C2400 C 0.9167 0.6861 0.11361 0.0
C2401 C 0.92921 0.69252 0.13755 0.0
C2402 C 0.35723 0.91698 0.13534 0.0
C2403 C 0.36468 0.94302 0.13899 0.0
C2404 C 0.36459 0.90319 0.11296 0.0
C2405 C 0.37952 0.91499 0.09332 0.0
H2406 H 0.34622 0.90696 0.15022 0.0
H2407 H 0.35888 0.883 0.11117 0.0
S2408 S 0.4008 0.98369 0.09166 0.0
N2409 N 0.38543 0.98084 0.11968 0.0
N2410 N 0.39951 0.95473 0.07784 0.0
C2411 C 0.38598 0.94131 0.09609 0.0
C2412 C 0.37856 0.95537 0.1189 0.0
C2413 C 0.68593 0.16942 0.11338 0.0
C2414 C 0.70426 0.17413 0.09375 0.0
C2415 C 0.69259 0.15602 0.13615 0.0
C2416 C 0.71773 0.14586 0.14004 0.0
H2417 H 0.6664 0.17704 0.11155 0.0
H2418 H 0.67791 0.15476 0.15097 0.0
S2419 S 0.7735 0.15439 0.09479 0.0
N2420 N 0.74921 0.16949 0.08038 0.0
N2421 N 0.76135 0.14232 0.12187 0.0
C2422 C 0.73627 0.1504 0.12027 0.0
C2423 C 0.72962 0.16482 0.09743 0.0
C2424 C 0.61179 0.67032 0.90136 0.0
C2425 C 0.59243 0.67516 0.88275 0.0
C2426 C 0.63472 0.65704 0.89495 0.0
C2427 C 0.63911 0.64717 0.86975 0.0
H2428 H 0.60959 0.67776 0.92093 0.0
H2429 H 0.6493 0.6556 0.90986 0.0
S2430 S 0.59473 0.65595 0.81335 0.0
N2431 N 0.57983 0.67078 0.83754 0.0
N2432 N 0.62169 0.64394 0.82582 0.0
C2433 C 0.61963 0.65181 0.85094 0.0
C2434 C 0.59659 0.66605 0.85736 0.0
C2435 C 0.40454 0.61103 0.85994 0.0
C2436 C 0.41348 0.59385 0.8792 0.0
C2437 C 0.41863 0.63349 0.85342 0.0
C2438 C 0.44199 0.63972 0.86617 0.0
H2439 H 0.38622 0.60733 0.85026 0.0
H2440 H 0.41087 0.64641 0.83875 0.0
S2441 S 0.47499 0.5994 0.91596 0.0
N2442 N 0.44788 0.58343 0.90956 0.0
N2443 N 0.47461 0.62544 0.8972 0.0
C2444 C 0.45161 0.62209 0.88473 0.0
C2445 C 0.43729 0.59918 0.89126 0.0
C2446 C 0.45568 0.4372 0.89531 0.0
C2447 C 0.44914 0.4431 0.86933 0.0
C2448 C 0.4788 0.42429 0.90172 0.0
C2449 C 0.49615 0.41584 0.88249 0.0
H2450 H 0.44268 0.44137 0.91108 0.0
H2451 H 0.4826 0.41985 0.92194 0.0
S2452 S 0.48815 0.42416 0.81144 0.0
N2453 N 0.46266 0.43889 0.82411 0.0
N2454 N 0.50481 0.41273 0.83629 0.0
C2455 C 0.48996 0.42105 0.85646 0.0
C2456 C 0.46678 0.43495 0.84988 0.0
C2457 C 0.65626 0.45284 0.89424 0.0
C2458 C 0.6475 0.44797 0.86873 0.0
C2459 C 0.66918 0.47592 0.90083 0.0
C2460 C 0.67484 0.49491 0.88211 0.0
H2461 H 0.65426 0.43855 0.90935 0.0
H2462 H 0.67574 0.4785 0.92067 0.0
S2463 S 0.65909 0.49119 0.81193 0.0
N2464 N 0.64642 0.46448 0.82434 0.0
N2465 N 0.67276 0.50659 0.8365 0.0
C2466 C 0.66702 0.49023 0.8564 0.0
C2467 C 0.65306 0.46706 0.84976 0.0
C2468 C 0.59788 0.4227 0.22871 0.0
C2469 C 0.59389 0.41172 0.204 0.0
C2470 C 0.62068 0.43659 0.23454 0.0
C2471 C 0.64076 0.43954 0.21615 0.0
H2472 H 0.58373 0.41981 0.24399 0.0
H2473 H 0.62274 0.44475 0.25382 0.0
S2474 S 0.64089 0.41177 0.14946 0.0
N2475 N 0.61192 0.4045 0.16106 0.0
N2476 N 0.65594 0.42748 0.17301 0.0
C2477 C 0.63727 0.4279 0.19161 0.0
C2478 C 0.61358 0.4148 0.18533 0.0
C2479 C 0.68244 0.61145 0.22669 0.0
C2480 C 0.67176 0.59331 0.20923 0.0
C2481 C 0.66884 0.63406 0.23363 0.0
C2482 C 0.64426 0.63945 0.22305 0.0
H2483 H 0.70173 0.60842 0.23452 0.0
H2484 H 0.67795 0.6478 0.24672 0.0
S2485 S 0.60684 0.59665 0.17866 0.0
N2486 N 0.63459 0.58115 0.18304 0.0
N2487 N 0.60884 0.62353 0.19611 0.0
C2488 C 0.63296 0.62087 0.20642 0.0
C2489 C 0.64677 0.5978 0.19951 0.0
C2490 C 0.47691 0.66685 0.18719 0.0
C2491 C 0.49518 0.6739 0.20614 0.0
C2492 C 0.45374 0.65414 0.19377 0.0
C2493 C 0.44804 0.64689 0.21959 0.0
H2494 H 0.48014 0.67209 0.16706 0.0
H2495 H 0.44015 0.65107 0.17825 0.0
S2496 S 0.48918 0.66274 0.27702 0.0
N2497 N 0.50527 0.67495 0.25215 0.0
N2498 N 0.46307 0.64896 0.26453 0.0
C2499 C 0.46644 0.65392 0.23882 0.0
C2500 C 0.48968 0.66771 0.23212 0.0
C2501 C 0.43255 0.4529 0.19508 0.0
C2502 C 0.44158 0.44822 0.22053 0.0
C2503 C 0.41933 0.47582 0.18855 0.0
C2504 C 0.41367 0.49483 0.20727 0.0
H2505 H 0.43456 0.43862 0.17997 0.0
H2506 H 0.41259 0.47825 0.16876 0.0
S2507 S 0.42996 0.49154 0.27733 0.0
N2508 N 0.44283 0.46495 0.26488 0.0
N2509 N 0.41596 0.50668 0.25283 0.0
C2510 C 0.42173 0.49032 0.23293 0.0
C2511 C 0.43598 0.46735 0.23949 0.0
C2512 C 0.89589 0.63806 0.65963 0.0
C2513 C 0.87061 0.64142 0.64957 0.0
C2514 C 0.90305 0.61543 0.67308 0.0
C2515 C 0.88512 0.5954 0.67779 0.0
H2516 H 0.91027 0.65318 0.65807 0.0
H2517 H 0.92268 0.6139 0.68051 0.0
S2518 S 0.81565 0.59531 0.65872 0.0
N2519 N 0.82725 0.6226 0.64654 0.0
N2520 N 0.84031 0.58132 0.67362 0.0
C2521 C 0.85958 0.59872 0.66879 0.0
C2522 C 0.85241 0.62142 0.65442 0.0
C2523 C 0.45617 0.89727 0.652 0.0
C2524 C 0.45112 0.87145 0.64412 0.0
C2525 C 0.47899 0.90408 0.66527 0.0
C2526 C 0.49756 0.88537 0.67217 0.0
H2527 H 0.44225 0.91252 0.64907 0.0
H2528 H 0.48165 0.92413 0.67118 0.0
S2529 S 0.49355 0.81469 0.65878 0.0
N2530 N 0.4673 0.82688 0.64505 0.0
N2531 N 0.50883 0.83962 0.67192 0.0
C2532 C 0.49281 0.85945 0.66509 0.0
C2533 C 0.46994 0.85253 0.6508 0.0
C2534 C 0.2205 0.4771 0.68428 0.0
C2535 C 0.20512 0.49642 0.67259 0.0
C2536 C 0.22797 0.45476 0.67054 0.0
C2537 C 0.22008 0.45079 0.64471 0.0
H2538 H 0.22656 0.47918 0.70433 0.0
H2539 H 0.23952 0.4402 0.68041 0.0
S2540 S 0.18196 0.4969 0.60454 0.0
N2541 N 0.18382 0.51112 0.63327 0.0
N2542 N 0.19788 0.46916 0.60729 0.0
C2543 C 0.20543 0.4704 0.63253 0.0
C2544 C 0.19799 0.49325 0.64651 0.0
C2545 C 0.63596 0.19446 0.65864 0.0
C2546 C 0.64014 0.2199 0.64933 0.0
C2547 C 0.61286 0.18743 0.67124 0.0
C2548 C 0.59317 0.20566 0.67603 0.0
H2549 H 0.65079 0.17981 0.65729 0.0
H2550 H 0.61079 0.16767 0.67821 0.0
S2551 S 0.59494 0.27556 0.65864 0.0
N2552 N 0.62227 0.26371 0.64682 0.0
N2553 N 0.58007 0.25083 0.67259 0.0
C2554 C 0.59717 0.23133 0.66767 0.0
C2555 C 0.62036 0.23838 0.65403 0.0
C2556 C 0.90049 0.47718 0.41986 0.0
C2557 C 0.88149 0.49594 0.41436 0.0
C2558 C 0.89426 0.45403 0.43277 0.0
C2559 C 0.86885 0.44884 0.44157 0.0
H2560 H 0.92023 0.47994 0.4131 0.0
H2561 H 0.90951 0.43986 0.43467 0.0
S2562 S 0.81152 0.49146 0.43075 0.0
N2563 N 0.83581 0.50721 0.41697 0.0
N2564 N 0.82431 0.4648 0.44314 0.0
C2565 C 0.84963 0.46772 0.4363 0.0
C2566 C 0.85591 0.49102 0.42244 0.0
C2567 C 0.63229 0.89442 0.43644 0.0
C2568 C 0.63859 0.86882 0.44393 0.0
C2569 C 0.6093 0.90019 0.42306 0.0
C2570 C 0.59182 0.88061 0.41568 0.0
H2571 H 0.64541 0.91034 0.43968 0.0
H2572 H 0.6057 0.92016 0.41744 0.0
S2573 S 0.59939 0.81007 0.42807 0.0
N2574 N 0.62485 0.82346 0.44226 0.0
N2575 N 0.58291 0.83431 0.41513 0.0
C2576 C 0.5978 0.85487 0.42243 0.0
C2577 C 0.62088 0.84899 0.43683 0.0
C2578 C 0.19213 0.63146 0.43691 0.0
C2579 C 0.21803 0.63817 0.44302 0.0
C2580 C 0.18588 0.60804 0.42439 0.0
C2581 C 0.20521 0.5905 0.41654 0.0
H2582 H 0.17631 0.64455 0.44063 0.0
H2583 H 0.16572 0.60414 0.41973 0.0
S2584 S 0.27614 0.59872 0.42576 0.0
N2585 N 0.26329 0.62457 0.43973 0.0
N2586 N 0.25144 0.58177 0.41436 0.0
C2587 C 0.23117 0.59682 0.42203 0.0
C2588 C 0.23757 0.62035 0.43551 0.0
C2589 C 0.47395 0.21705 0.4026 0.0
C2590 C 0.49353 0.20204 0.41438 0.0
C2591 C 0.45152 0.2243 0.4163 0.0
C2592 C 0.44769 0.21661 0.44222 0.0
H2593 H 0.47599 0.22317 0.38258 0.0
H2594 H 0.43685 0.23566 0.40639 0.0
S2595 S 0.49441 0.1795 0.48263 0.0
N2596 N 0.50851 0.18124 0.45386 0.0
N2597 N 0.46647 0.19501 0.47979 0.0
C2598 C 0.46751 0.20229 0.45446 0.0
C2599 C 0.49043 0.19502 0.44051 0.0
C2600 C 0.63963 0.89171 0.62489 0.0
C2601 C 0.64857 0.87117 0.64068 0.0
C2602 C 0.65283 0.89888 0.60207 0.0
C2603 C 0.67526 0.88561 0.59412 0.0
H2604 H 0.62217 0.9022 0.62999 0.0
H2605 H 0.64563 0.91506 0.59072 0.0
S2606 S 0.70625 0.83001 0.62759 0.0
N2607 N 0.68102 0.83729 0.64602 0.0
N2608 N 0.70559 0.85073 0.60312 0.0
C2609 C 0.68407 0.86473 0.60925 0.0
C2610 C 0.67072 0.85745 0.63246 0.0
C2611 C 0.6672 0.18727 0.48096 0.0
C2612 C 0.67486 0.20652 0.49867 0.0
C2613 C 0.65342 0.19351 0.45829 0.0
C2614 C 0.64589 0.21927 0.45261 0.0
H2615 H 0.67272 0.16721 0.48423 0.0
H2616 H 0.64978 0.17785 0.44497 0.0
S2617 S 0.66286 0.27727 0.49244 0.0
N2618 N 0.67591 0.25267 0.50828 0.0
N2619 N 0.64818 0.26439 0.46701 0.0
C2620 C 0.65353 0.23876 0.47044 0.0
C2621 C 0.66828 0.23241 0.49314 0.0
C2622 C 0.901 0.67074 0.47663 0.0
C2623 C 0.88203 0.67604 0.49551 0.0
C2624 C 0.89486 0.65755 0.45353 0.0
C2625 C 0.86955 0.64829 0.44849 0.0
H2626 H 0.92068 0.67772 0.47932 0.0
H2627 H 0.9101 0.65573 0.43935 0.0
S2628 S 0.81226 0.65864 0.49143 0.0
N2629 N 0.83644 0.67287 0.50694 0.0
N2630 N 0.82511 0.64624 0.4648 0.0
C2631 C 0.85036 0.65346 0.4675 0.0
C2632 C 0.85655 0.66759 0.49069 0.0
C2633 C 0.42254 0.85999 0.48795 0.0
C2634 C 0.41053 0.88431 0.49119 0.0
C2635 C 0.43607 0.85382 0.46503 0.0
C2636 C 0.43754 0.8714 0.44407 0.0
H2637 H 0.42083 0.84523 0.50283 0.0
H2638 H 0.44518 0.83491 0.46365 0.0
S2639 S 0.40648 0.93657 0.44184 0.0
N2640 N 0.40076 0.92602 0.47154 0.0
N2641 N 0.42277 0.9131 0.42733 0.0
C2642 C 0.42472 0.89544 0.4468 0.0
C2643 C 0.4121 0.90218 0.4706 0.0
C2644 C 0.2236 0.40118 0.47766 0.0
C2645 C 0.20574 0.41145 0.49562 0.0
C2646 C 0.23079 0.41515 0.45539 0.0
C2647 C 0.22022 0.43978 0.45019 0.0
H2648 H 0.2318 0.38205 0.48074 0.0
H2649 H 0.24432 0.40639 0.44186 0.0
S2650 S 0.1751 0.47641 0.49285 0.0
N2651 N 0.17927 0.44838 0.50793 0.0
N2652 N 0.1929 0.47486 0.46619 0.0
C2653 C 0.20312 0.45066 0.46856 0.0
C2654 C 0.1959 0.43645 0.49129 0.0
C2655 C 0.40554 0.22339 0.6094 0.0
C2656 C 0.41567 0.20492 0.59196 0.0
C2657 C 0.41919 0.23052 0.63192 0.0
C2658 C 0.44324 0.21912 0.638 0.0
H2659 H 0.38669 0.232 0.6058 0.0
H2660 H 0.41055 0.24455 0.64502 0.0
S2661 S 0.47915 0.1717 0.59726 0.0
N2662 N 0.45179 0.17673 0.58125 0.0
N2663 N 0.4776 0.19011 0.62352 0.0
C2664 C 0.45396 0.20131 0.62021 0.0
C2665 C 0.44012 0.19422 0.59719 0.0
C2666 C 0.89011 0.4533 0.62298 0.0
C2667 C 0.86769 0.44654 0.63721 0.0
C2668 C 0.89701 0.43993 0.6002 0.0
C2669 C 0.88144 0.41976 0.59053 0.0
H2670 H 0.90246 0.46905 0.62936 0.0
H2671 H 0.91486 0.4451 0.59033 0.0
S2672 S 0.82028 0.39519 0.61933 0.0
N2673 N 0.82954 0.41869 0.63915 0.0
N2674 N 0.84243 0.39396 0.59616 0.0
C2675 C 0.85858 0.41337 0.60391 0.0
C2676 C 0.85164 0.42677 0.6272 0.0
C2677 C 0.23183 0.66872 0.63362 0.0
C2678 C 0.22319 0.64319 0.63802 0.0
C2679 C 0.22454 0.68233 0.61118 0.0
C2680 C 0.20852 0.67081 0.59224 0.0
H2681 H 0.24363 0.67855 0.64803 0.0
H2682 H 0.23092 0.70227 0.6089 0.0
S2683 S 0.18388 0.60326 0.5926 0.0
N2684 N 0.20018 0.60596 0.62011 0.0
N2685 N 0.18619 0.63181 0.57811 0.0
C2686 C 0.20091 0.64491 0.59567 0.0
C2687 C 0.20827 0.63103 0.61856 0.0
C2688 C 0.06244 0.29087 0.31613 0.0
C2689 C 0.03626 0.28556 0.32227 0.0
C2690 C 0.06912 0.30875 0.29668 0.0
C2691 C 0.04981 0.32236 0.28315 0.0
H2692 H 0.07789 0.28201 0.32733 0.0
H2693 H 0.08942 0.31336 0.29362 0.0
S2694 S 0.97859 0.31353 0.28975 0.0
N2695 N 0.99108 0.29342 0.31142 0.0
N2696 N 1.00355 0.32767 0.27534 0.0
C2697 C 0.02362 0.31603 0.28791 0.0
C2698 C 1.01684 0.29741 0.30734 0.0
C2699 C 0.78163 0.07435 0.30011 0.0
C2700 C 0.77004 0.05509 0.28474 0.0
C2701 C 0.79983 0.06768 0.31927 0.0
C2702 C 0.80725 0.04161 0.3234 0.0
H2703 H 0.775 0.09429 0.29887 0.0
H2704 H 0.80703 0.08288 0.33194 0.0
S2705 S 0.78491 0.9846 0.28558 0.0
N2706 N 0.76891 1.00939 0.27297 0.0
N2707 N 0.80362 0.99696 0.30855 0.0
C2708 C 0.79754 1.02256 0.3065 0.0
C2709 C 0.77873 0.0293 0.2873 0.0
C2710 C 0.04213 0.78459 0.28419 0.0
C2711 C 0.03712 0.75856 0.29106 0.0
C2712 C 0.05084 0.8027 0.30294 0.0
C2713 C 0.05453 0.79523 0.32902 0.0
H2714 H 0.03985 0.79081 0.26423 0.0
H2715 H 0.05411 0.82267 0.29717 0.0
S2716 S 0.04392 0.72939 0.35664 0.0
N2717 N 0.03616 0.72652 0.32571 0.0
N2718 N 0.05282 0.75994 0.3604 0.0
C2719 C 0.0496 0.76923 0.33586 0.0
C2720 C 0.04076 0.75108 0.31705 0.0
C2721 C 0.33622 0.05705 0.30903 0.0
C2722 C 0.3292 0.04305 0.28651 0.0
C2723 C 0.31779 0.06463 0.32738 0.0
C2724 C 0.29139 0.05904 0.32394 0.0
H2725 H 0.35635 0.06157 0.31314 0.0
H2726 H 0.32438 0.07429 0.3449 0.0
S2727 S 0.26205 0.02423 0.26816 0.0
N2728 N 0.29346 0.0248 0.26147 0.0
N2729 N 0.25862 0.03946 0.29624 0.0
C2730 C 0.28368 0.04596 0.30124 0.0
C2731 C 0.30263 0.03783 0.28249 0.0
C2732 C 1.01757 0.79336 0.7814 0.0
C2733 C 0.03658 0.80824 0.76882 0.0
C2734 C 0.02469 0.77381 0.79899 0.0
C2735 C 0.05098 0.76886 0.80491 0.0
H2736 H 0.99732 0.79535 0.77603 0.0
H2737 H 1.00956 0.76154 0.80699 0.0
S2738 S 0.10774 0.80508 0.77969 0.0
N2739 N 0.08251 0.81859 0.76519 0.0
N2740 N 0.09576 0.78229 0.79886 0.0
C2741 C 0.06995 0.78518 0.79422 0.0
C2742 C 0.06276 0.80476 0.77595 0.0
C2743 C 0.31871 1.02293 0.79947 0.0
C2744 C 0.32238 0.04896 0.80731 0.0
C2745 C 0.29995 1.01621 0.78086 0.0
C2746 C 0.2846 0.0354 0.76916 0.0
H2747 H 0.33129 1.00778 0.80689 0.0
H2748 H 0.29884 0.99626 0.77421 0.0
S2749 S 0.28448 0.10577 0.78472 0.0
N2750 N 0.30723 0.0935 0.80372 0.0
N2751 N 0.27246 0.081 0.7682 0.0
C2752 C 0.28686 0.06117 0.77802 0.0
C2753 C 0.3056 0.06794 0.7973 0.0
C2754 C 0.07161 0.2969 0.7834 0.0
C2755 C 0.05227 0.28284 0.77031 0.0
C2756 C 0.06493 0.3161 0.80159 0.0
C2757 C 0.03876 0.32145 0.80766 0.0
H2758 H 0.09183 0.29456 0.77805 0.0
H2759 H 0.08031 0.3278 0.80996 0.0
S2760 S 0.98121 0.28729 0.78126 0.0
N2761 N 1.00614 0.27364 0.76638 0.0
N2762 N 0.99369 0.30923 0.80112 0.0
C2763 C 1.01943 0.30589 0.79641 0.0
C2764 C 0.02619 0.28672 0.77753 0.0
C2765 C 0.79258 0.07161 0.7806 0.0
C2766 C 0.80723 0.05235 0.76811 0.0
C2767 C 0.77311 0.06485 0.79845 0.0
C2768 C 0.76806 0.03867 0.8048 0.0
H2769 H 0.79478 0.09182 0.77511 0.0
H2770 H 0.76112 0.08018 0.8065 0.0
S2771 S 0.80347 0.98131 0.77971 0.0
N2772 N 0.81703 1.00628 0.76477 0.0
N2773 N 0.781 0.9937 0.799 0.0
C2774 C 0.78404 1.01944 0.79402 0.0
C2775 C 0.80347 0.02627 0.77544 0.0
C2776 C 0.30748 0.29705 0.06942 0.0
C2777 C 0.32135 0.28356 0.05022 0.0
C2778 C 0.2893 0.31618 0.06258 0.0
C2779 C 0.2839 0.32195 0.03636 0.0
H2780 H 0.31202 0.29414 0.08976 0.0
H2781 H 0.28018 0.32732 0.07794 0.0
S2782 S 0.31276 0.2897 0.97893 0.0
N2783 N 0.32704 0.27567 1.00401 0.0
N2784 N 0.2922 0.31103 0.99127 0.0
C2785 C 0.29616 0.30717 1.01706 0.0
C2786 C 0.3151 0.28813 0.02399 0.0
C2787 C 0.30771 0.79274 1.01904 0.0
C2788 C 0.32144 0.80645 0.03815 0.0
C2789 C 0.28979 0.77343 0.02602 0.0
C2790 C 0.28461 0.76768 0.05229 0.0
H2791 H 0.31226 0.79552 0.99868 0.0
H2792 H 0.28084 0.762 1.01076 0.0
S2793 S 0.313 0.80072 0.10948 0.0
N2794 N 0.32704 0.81481 0.0843 0.0
N2795 N 0.29271 0.77899 0.09731 0.0
C2796 C 0.29657 0.78279 0.07149 0.0
C2797 C 0.31522 0.80207 0.06442 0.0
C2798 C 0.78033 0.2971 1.01989 0.0
C2799 C 0.76628 0.28379 0.03904 0.0
C2800 C 0.79879 0.31594 0.02684 0.0
C2801 C 0.80416 0.32168 0.05311 0.0
H2802 H 0.77559 0.29446 0.99956 0.0
H2803 H 0.80792 0.32715 1.01154 0.0
S2804 S 0.77514 0.28935 0.11035 0.0
N2805 N 0.76069 0.27558 0.0852 0.0
N2806 N 0.79592 0.31055 0.09814 0.0
C2807 C 0.79192 0.30682 0.07232 0.0
C2808 C 0.77278 0.288 0.06529 0.0
C2809 C 0.79946 0.77693 0.06133 0.0
C2810 C 0.80486 0.77084 0.03516 0.0
C2811 C 0.78126 0.79607 0.06795 0.0
C2812 C 0.76749 0.80933 0.04858 0.0
H2813 H 0.80829 0.76574 0.0768 0.0
H2814 H 0.77643 0.79893 0.08823 0.0
S2815 S 0.77699 0.80322 0.9774 0.0
N2816 N 0.79726 0.78175 0.98996 0.0
N2817 N 0.76252 0.81737 1.00231 0.0
C2818 C 0.77417 0.80488 1.02242 0.0
C2819 C 0.79306 0.78572 1.01571 0.0
C2820 C 0.5623 0.79054 0.81466 0.0
C2821 C 0.53605 0.78462 0.81988 0.0
C2822 C 0.56924 0.80894 0.79578 0.0
C2823 C 0.55009 0.82241 0.7819 0.0
H2824 H 0.57756 0.7819 0.82631 0.0
H2825 H 0.58952 0.81414 0.79359 0.0
S2826 S 0.47889 0.81193 0.78598 0.0
N2827 N 0.49111 0.79168 0.80767 0.0
N2828 N 0.504 0.82681 0.77262 0.0
C2829 C 0.52391 0.81533 0.78559 0.0
C2830 C 0.5169 0.79623 0.80446 0.0
C2831 C 0.28711 0.51631 0.80995 0.0
C2832 C 0.30263 0.53556 0.82139 0.0
C2833 C 0.268 0.52293 0.79167 0.0
C2834 C 0.26418 0.54893 0.78388 0.0
H2835 H 0.28849 0.49634 0.81646 0.0
H2836 H 0.25542 0.50772 0.78434 0.0
S2837 S 0.30207 0.60597 0.80617 0.0
N2838 N 0.31446 0.58125 0.82243 0.0
N2839 N 0.27911 0.59358 0.78746 0.0
C2840 C 0.28095 0.56802 0.79378 0.0
C2841 C 0.30001 0.56135 0.81276 0.0
C2842 C 0.51641 0.28006 0.79769 0.0
C2843 C 0.53552 0.26725 0.78314 0.0
C2844 C 0.52341 0.29837 0.81666 0.0
C2845 C 0.54965 0.30477 0.82132 0.0
H2846 H 0.49621 0.27443 0.79589 0.0
H2847 H 0.50824 0.30659 0.8287 0.0
S2848 S 0.60655 0.279 0.78573 0.0
N2849 N 0.58142 0.26379 0.77276 0.0
N2850 N 0.59445 0.29876 0.80795 0.0
C2851 C 0.56868 0.29374 0.80529 0.0
C2852 C 0.56162 0.27476 0.78633 0.0
C2853 C 0.80738 0.51907 0.79623 0.0
C2854 C 0.82068 0.53824 0.78222 0.0
C2855 C 0.7891 0.526 0.81521 0.0
C2856 C 0.78323 0.55228 0.82046 0.0
H2857 H 0.81271 0.49881 0.79413 0.0
H2858 H 0.78061 0.51074 0.82697 0.0
S2859 S 0.81012 0.60944 0.78616 0.0
N2860 N 0.82493 0.58431 0.77275 0.0
N2861 N 0.79004 0.59723 0.80803 0.0
C2862 C 0.7946 0.57143 0.80484 0.0
C2863 C 0.81353 0.56441 0.78583 0.0
C2864 C 0.56785 0.28059 0.29595 0.0
C2865 C 0.54856 0.26715 0.3097 0.0
C2866 C 0.5611 0.29845 0.27652 0.0
C2867 C 0.53491 0.30385 0.27064 0.0
H2868 H 0.58813 0.27569 0.29866 0.0
H2869 H 0.57649 0.30704 0.265 0.0
S2870 S 0.47735 0.2765 0.30387 0.0
N2871 N 0.50234 0.26226 0.31809 0.0
N2872 N 0.48979 0.29646 0.28203 0.0
C2873 C 0.51556 0.29234 0.2859 0.0
C2874 C 0.52238 0.27377 0.30532 0.0
C2875 C 0.78931 0.56594 0.27103 0.0
C2876 C 0.78196 0.53983 0.26685 0.0
C2877 C 0.8078 0.57266 0.28991 0.0
C2878 C 0.81981 0.5534 0.30492 0.0
H2879 H 0.7817 0.58118 0.25868 0.0
H2880 H 0.81419 0.59268 0.29129 0.0
S2881 S 0.80524 0.4828 0.30395 0.0
N2882 N 0.78613 0.49513 0.28132 0.0
N2883 N 0.82135 0.50764 0.3164 0.0
C2884 C 0.81127 0.52754 0.30229 0.0
C2885 C 0.79215 0.52076 0.28338 0.0
C2886 C 0.54357 0.81593 0.25133 0.0
C2887 C 0.55168 0.79075 0.25823 0.0
C2888 C 0.53511 0.83366 0.26988 0.0
C2889 C 0.53419 0.82716 0.29631 0.0
H2890 H 0.54395 0.82227 0.23126 0.0
H2891 H 0.52961 0.85295 0.26345 0.0
S2892 S 0.55281 0.76386 0.32505 0.0
N2893 N 0.55786 0.75998 0.29357 0.0
N2894 N 0.54192 0.79386 0.32883 0.0
C2895 C 0.54184 0.80202 0.30377 0.0
C2896 C 0.55073 0.78375 0.28466 0.0
C2897 C 0.29884 0.52415 0.27338 0.0
C2898 C 0.30471 0.55048 0.26846 0.0
C2899 C 0.28128 0.51697 0.29294 0.0
C2900 C 0.26869 0.53595 0.30784 0.0
H2901 H 0.30685 0.50906 0.26108 0.0
H2902 H 0.27596 0.49669 0.2949 0.0
S2903 S 0.27948 0.60717 0.30478 0.0
N2904 N 0.29863 0.59525 0.28195 0.0
N2905 N 0.26503 0.58188 0.31828 0.0
C2906 C 0.27579 0.56216 0.3044 0.0
C2907 C 0.29402 0.56942 0.28482 0.0
C2908 C 0.78905 0.81903 0.56682 0.0
C2909 C 0.78224 0.82353 0.54066 0.0
C2910 C 0.80716 0.79983 0.57365 0.0
C2911 C 0.81933 0.78484 0.55445 0.0
H2912 H 0.78133 0.83137 0.58203 0.0
H2913 H 0.81316 0.79817 0.59375 0.0
S2914 S 0.80627 0.78683 0.48364 0.0
N2915 N 0.78715 0.80952 0.49589 0.0
N2916 N 0.8217 0.77389 0.50861 0.0
C2917 C 0.81136 0.78786 0.52848 0.0
C2918 C 0.79261 0.80707 0.52159 0.0
C2919 C 0.79982 0.28161 0.57376 0.0
C2920 C 0.78401 0.27031 0.55467 0.0
C2921 C 0.81926 0.29947 0.56691 0.0
C2922 C 0.82325 0.30689 0.54083 0.0
H2923 H 0.79854 0.27511 0.59373 0.0
H2924 H 0.83206 0.3066 0.58203 0.0
S2925 S 0.78441 0.28524 0.48422 0.0
N2926 N 0.77181 0.26939 0.50911 0.0
N2927 N 0.80788 0.3035 0.49634 0.0
C2928 C 0.80606 0.29736 0.52193 0.0
C2929 C 0.78658 0.27886 0.52885 0.0
C2930 C 0.28881 0.80794 0.57356 0.0
C2931 C 0.30444 0.81927 0.55439 0.0
C2932 C 0.26988 0.78948 0.56688 0.0
C2933 C 0.26618 0.78154 0.54087 0.0
H2934 H 0.2898 0.81483 0.59343 0.0
H2935 H 0.25713 0.78236 0.58203 0.0
S2936 S 0.30483 0.80318 0.48419 0.0
N2937 N 0.31691 0.81973 0.50891 0.0
N2938 N 0.28173 0.78456 0.49643 0.0
C2939 C 0.28327 0.79113 0.52195 0.0
C2940 C 0.30227 0.8102 0.5287 0.0
C2941 C 0.27428 0.29888 0.52718 0.0
C2942 C 0.26863 0.30509 0.55326 0.0
C2943 C 0.29345 0.28058 0.5208 0.0
C2944 C 0.30714 0.26745 0.54034 0.0
H2945 H 0.26284 0.30727 0.51164 0.0
H2946 H 0.29604 0.27521 0.50061 0.0
S2947 S 0.3018 0.27874 0.61132 0.0
N2948 N 0.28016 0.29865 0.59849 0.0
N2949 N 0.31568 0.26366 0.58662 0.0
C2950 C 0.30294 0.27477 0.56636 0.0
C2951 C 0.28381 0.2938 0.57281 0.0
loop_
_geom_bond_atom_site_label_1
_geom_bond_atom_site_label_2
_geom_bond_distance
_geom_bond_site_symmetry_2
_ccdc_geom_bond_type
Co0 O3 1.992 . S
Co0 N17 1.989 . S
Co0 O25 1.967 . S
Co0 O32 1.920 . S
Co1 O4 1.966 . S
Co1 N10 2.022 . S
Co1 N18 1.993 1_655 S
Co1 O26 1.941 . S
C2 O3 1.233 1_655 S
C2 O4 1.263 . S
O3 Co0 1.992 . S
O3 C2 1.233 1_455 S
O4 Co1 1.966 . S
O4 C2 1.263 . S
C5 O6 1.235 . S
C5 O32 1.289 . S
O6 C5 1.235 . S
C7 C9 1.400 . S
C7 N10 1.351 . S
C7 C12 1.501 . S
C8 C9 1.387 . S
C8 N11 1.341 . S
C9 C7 1.400 . S
C9 C8 1.387 . S
N10 Co1 2.022 . S
N10 C7 1.351 . S
N10 N11 1.365 . S
N11 C8 1.341 . S
N11 N10 1.365 . S
N11 H31 0.862 . S
C12 C7 1.501 . S
C12 H13 0.961 . S
C12 H14 0.961 . S
C12 H15 0.960 . S
H13 C12 0.961 . S
H14 C12 0.961 . S
H15 C12 0.960 . S
C16 N17 1.342 . S
C16 C20 1.401 . S
C16 C21 1.499 . S
N17 Co0 1.989 . S
N17 C16 1.342 . S
N17 N18 1.388 . S
N18 Co1 1.993 1_455 S
N18 N17 1.388 . S
N18 C19 1.346 . S
C19 N18 1.346 . S
C19 C20 1.396 . S
C19 C29 1.510 . S
C20 C16 1.401 . S
C20 C19 1.396 . S
C21 C16 1.499 . S
C21 H22 0.959 . S
C21 H23 0.960 . S
C21 H24 0.961 . S
H22 C21 0.959 . S
H23 C21 0.960 . S
H24 C21 0.961 . S
O25 Co0 1.967 . S
O25 C33 1.258 . S
O26 Co1 1.941 . S
O26 C33 1.266 1_655 S
H27 C29 0.959 . S
H28 C29 0.961 . S
C29 C19 1.510 . S
C29 H27 0.959 . S
C29 H28 0.961 . S
C29 H30 0.960 1_455 S
H30 C29 0.960 1_655 S
H31 N11 0.862 . S
O32 Co0 1.920 . S
O32 C5 1.289 . S
C33 O25 1.258 . S
C33 O26 1.266 1_455 S
Co34 O37 1.992 . S
Co34 N51 1.989 . S
Co34 O59 1.967 . S
Co34 O66 1.920 . S
Co35 O38 1.966 . S
Co35 N44 2.022 . S
Co35 N52 1.993 1_565 S
Co35 O60 1.941 . S
C36 O37 1.234 1_565 S
C36 O38 1.263 . S
O37 Co34 1.992 . S
O37 C36 1.234 1_545 S
O38 Co35 1.966 . S
O38 C36 1.263 . S
C39 O40 1.235 . S
C39 O66 1.289 . S
O40 C39 1.235 . S
C41 C43 1.400 . S
C41 N44 1.351 . S
C41 C46 1.501 . S
C42 C43 1.387 . S
C42 N45 1.341 . S
C43 C41 1.400 . S
C43 C42 1.387 . S
N44 Co35 2.022 . S
N44 C41 1.351 . S
N44 N45 1.365 . S
N45 C42 1.341 . S
N45 N44 1.365 . S
N45 H65 0.862 . S
C46 C41 1.501 . S
C46 H47 0.961 . S
C46 H48 0.961 . S
C46 H49 0.960 . S
H47 C46 0.961 . S
H48 C46 0.961 . S
H49 C46 0.960 . S
C50 N51 1.342 . S
C50 C54 1.401 . S
C50 C55 1.499 . S
N51 Co34 1.989 . S
N51 C50 1.342 . S
N51 N52 1.388 . S
N52 Co35 1.993 1_545 S
N52 N51 1.388 . S
N52 C53 1.346 . S
C53 N52 1.346 . S
C53 C54 1.396 . S
C53 C63 1.510 . S
C54 C50 1.401 . S
C54 C53 1.396 . S
C55 C50 1.499 . S
C55 H56 0.959 . S
C55 H57 0.960 . S
C55 H58 0.961 . S
H56 C55 0.959 . S
H57 C55 0.960 . S
H58 C55 0.961 . S
O59 Co34 1.967 . S
O59 C67 1.258 . S
O60 Co35 1.941 . S
O60 C67 1.266 1_565 S
H61 C63 0.959 . S
H62 C63 0.961 . S
C63 C53 1.510 . S
C63 H61 0.959 . S
C63 H62 0.961 . S
C63 H64 0.960 1_545 S
H64 C63 0.960 1_565 S
H65 N45 0.862 . S
O66 Co34 1.920 . S
O66 C39 1.289 . S
C67 O59 1.258 . S
C67 O60 1.266 1_545 S
Co68 O71 1.970 . S
Co68 N85 1.989 . S
Co68 O93 1.967 . S
Co68 O100 1.920 1_455 S
Co69 O72 1.966 . S
Co69 N78 2.022 . S
Co69 N86 1.993 . S
Co69 O94 1.941 . S
C70 O71 1.258 . S
C70 O72 1.263 . S
O71 Co68 1.970 . S
O71 C70 1.258 . S
O72 Co69 1.966 . S
O72 C70 1.263 . S
C73 O74 1.235 . S
C73 O100 1.289 . S
O74 C73 1.235 . S
C75 C77 1.400 . S
C75 N78 1.351 . S
C75 C80 1.501 . S
C76 C77 1.387 . S
C76 N79 1.341 . S
C77 C75 1.400 . S
C77 C76 1.387 . S
N78 Co69 2.022 . S
N78 C75 1.351 . S
N78 N79 1.365 . S
N79 C76 1.341 . S
N79 N78 1.365 . S
N79 H99 0.862 . S
C80 C75 1.501 . S
C80 H81 0.961 . S
C80 H82 0.961 . S
C80 H83 0.960 . S
H81 C80 0.961 . S
H82 C80 0.961 . S
H83 C80 0.960 . S
C84 N85 1.342 1_655 S
C84 C88 1.401 . S
C84 C89 1.499 . S
N85 Co68 1.989 . S
N85 C84 1.342 1_455 S
N85 N86 1.388 . S
N86 Co69 1.993 . S
N86 N85 1.388 . S
N86 C87 1.346 . S
C87 N86 1.346 . S
C87 C88 1.396 1_455 S
C87 C97 1.510 . S
C88 C84 1.401 . S
C88 C87 1.396 1_655 S
C89 C84 1.499 . S
C89 H90 0.959 . S
C89 H91 0.960 . S
C89 H92 0.961 . S
H90 C89 0.959 . S
H91 C89 0.960 . S
H92 C89 0.961 . S
O93 Co68 1.967 . S
O93 C101 1.258 . S
O94 Co69 1.941 . S
O94 C101 1.266 . S
H95 C97 0.959 . S
H96 C97 0.961 . S
C97 C87 1.510 . S
C97 H95 0.959 . S
C97 H96 0.961 . S
C97 H98 0.960 . S
H98 C97 0.960 . S
H99 N79 0.862 . S
O100 Co68 1.920 1_655 S
O100 C73 1.289 . S
C101 O93 1.258 . S
C101 O94 1.266 . S
Co102 O105 1.970 . S
Co102 N119 1.989 . S
Co102 O127 1.967 . S
Co102 O134 1.920 1_545 S
Co103 O106 1.966 . S
Co103 N112 2.022 . S
Co103 N120 1.993 . S
Co103 O128 1.941 . S
C104 O105 1.258 . S
C104 O106 1.263 . S
O105 Co102 1.970 . S
O105 C104 1.258 . S
O106 Co103 1.966 . S
O106 C104 1.263 . S
C107 O108 1.235 . S
C107 O134 1.289 . S
O108 C107 1.235 . S
C109 C111 1.400 . S
C109 N112 1.351 . S
C109 C114 1.501 . S
C110 C111 1.387 . S
C110 N113 1.341 . S
C111 C109 1.400 . S
C111 C110 1.387 . S
N112 Co103 2.022 . S
N112 C109 1.351 . S
N112 N113 1.365 . S
N113 C110 1.341 . S
N113 N112 1.365 . S
N113 H133 0.862 . S
C114 C109 1.501 . S
C114 H115 0.961 . S
C114 H116 0.961 . S
C114 H117 0.960 . S
H115 C114 0.961 . S
H116 C114 0.961 . S
H117 C114 0.960 . S
C118 N119 1.342 1_565 S
C118 C122 1.401 . S
C118 C123 1.499 . S
N119 Co102 1.989 . S
N119 C118 1.342 1_545 S
N119 N120 1.388 . S
N120 Co103 1.993 . S
N120 N119 1.388 . S
N120 C121 1.346 . S
C121 N120 1.346 . S
C121 C122 1.396 1_545 S
C121 C131 1.510 . S
C122 C118 1.401 . S
C122 C121 1.396 1_565 S
C123 C118 1.499 . S
C123 H124 0.959 . S
C123 H125 0.960 . S
C123 H126 0.961 . S
H124 C123 0.959 . S
H125 C123 0.960 . S
H126 C123 0.961 . S
O127 Co102 1.967 . S
O127 C135 1.258 . S
O128 Co103 1.941 . S
O128 C135 1.266 . S
H129 C131 0.959 . S
H130 C131 0.961 . S
C131 C121 1.510 . S
C131 H129 0.959 . S
C131 H130 0.961 . S
C131 H132 0.960 . S
H132 C131 0.960 . S
H133 N113 0.862 . S
O134 Co102 1.920 1_565 S
O134 C107 1.289 . S
C135 O127 1.258 . S
C135 O128 1.266 . S
Co136 O139 1.992 . S
Co136 N153 1.989 . S
Co136 O161 1.967 . S
Co136 O168 1.920 . S
Co137 O140 1.966 . S
Co137 N146 2.022 . S
Co137 N154 1.993 1_655 S
Co137 O162 1.941 . S
C138 O139 1.233 1_655 S
C138 O140 1.263 . S
O139 Co136 1.992 . S
O139 C138 1.233 1_455 S
O140 Co137 1.966 . S
O140 C138 1.263 . S
C141 O142 1.235 . S
C141 O168 1.289 . S
O142 C141 1.235 . S
C143 C145 1.400 . S
C143 N146 1.351 . S
C143 C148 1.501 . S
C144 C145 1.387 . S
C144 N147 1.341 . S
C145 C143 1.400 . S
C145 C144 1.387 . S
N146 Co137 2.022 . S
N146 C143 1.351 . S
N146 N147 1.365 . S
N147 C144 1.341 . S
N147 N146 1.365 . S
N147 H167 0.862 . S
C148 C143 1.501 . S
C148 H149 0.961 . S
C148 H150 0.961 . S
C148 H151 0.960 . S
H149 C148 0.961 . S
H150 C148 0.961 . S
H151 C148 0.960 . S
C152 N153 1.342 . S
C152 C156 1.401 . S
C152 C157 1.499 . S
N153 Co136 1.989 . S
N153 C152 1.342 . S
N153 N154 1.388 . S
N154 Co137 1.993 1_455 S
N154 N153 1.388 . S
N154 C155 1.346 . S
C155 N154 1.346 . S
C155 C156 1.396 . S
C155 C165 1.510 . S
C156 C152 1.401 . S
C156 C155 1.396 . S
C157 C152 1.499 . S
C157 H158 0.959 . S
C157 H159 0.960 . S
C157 H160 0.961 . S
H158 C157 0.959 . S
H159 C157 0.960 . S
H160 C157 0.961 . S
O161 Co136 1.967 . S
O161 C169 1.258 . S
O162 Co137 1.941 . S
O162 C169 1.266 1_655 S
H163 C165 0.959 . S
H164 C165 0.961 . S
C165 C155 1.510 . S
C165 H163 0.959 . S
C165 H164 0.961 . S
C165 H166 0.960 1_455 S
H166 C165 0.960 1_655 S
H167 N147 0.862 . S
O168 Co136 1.920 . S
O168 C141 1.289 . S
C169 O161 1.258 . S
C169 O162 1.266 1_455 S
Co170 O173 1.992 . S
Co170 N187 1.989 . S
Co170 O195 1.967 . S
Co170 O202 1.920 . S
Co171 O174 1.966 . S
Co171 N180 2.022 . S
Co171 N188 1.993 1_565 S
Co171 O196 1.941 . S
C172 O173 1.234 1_565 S
C172 O174 1.263 . S
O173 Co170 1.992 . S
O173 C172 1.234 1_545 S
O174 Co171 1.966 . S
O174 C172 1.263 . S
C175 O176 1.235 . S
C175 O202 1.289 . S
O176 C175 1.235 . S
C177 C179 1.400 . S
C177 N180 1.351 . S
C177 C182 1.501 . S
C178 C179 1.387 . S
C178 N181 1.341 . S
C179 C177 1.400 . S
C179 C178 1.387 . S
N180 Co171 2.022 . S
N180 C177 1.351 . S
N180 N181 1.365 . S
N181 C178 1.341 . S
N181 N180 1.365 . S
N181 H201 0.862 . S
C182 C177 1.501 . S
C182 H183 0.961 . S
C182 H184 0.961 . S
C182 H185 0.960 . S
H183 C182 0.961 . S
H184 C182 0.961 . S
H185 C182 0.960 . S
C186 N187 1.342 . S
C186 C190 1.401 . S
C186 C191 1.499 . S
N187 Co170 1.989 . S
N187 C186 1.342 . S
N187 N188 1.388 . S
N188 Co171 1.993 1_545 S
N188 N187 1.388 . S
N188 C189 1.346 . S
C189 N188 1.346 . S
C189 C190 1.396 . S
C189 C199 1.510 . S
C190 C186 1.401 . S
C190 C189 1.396 . S
C191 C186 1.499 . S
C191 H192 0.959 . S
C191 H193 0.960 . S
C191 H194 0.961 . S
H192 C191 0.959 . S
H193 C191 0.960 . S
H194 C191 0.961 . S
O195 Co170 1.967 . S
O195 C203 1.258 . S
O196 Co171 1.941 . S
O196 C203 1.266 1_565 S
H197 C199 0.959 . S
H198 C199 0.961 . S
C199 C189 1.510 . S
C199 H197 0.959 . S
C199 H198 0.961 . S
C199 H200 0.960 1_545 S
H200 C199 0.960 1_565 S
H201 N181 0.862 . S
O202 Co170 1.920 . S
O202 C175 1.289 . S
C203 O195 1.258 . S
C203 O196 1.266 1_545 S
Co204 O207 1.970 . S
Co204 N221 1.989 . S
Co204 O229 1.967 . S
Co204 O236 1.920 1_455 S
Co205 O208 1.966 . S
Co205 N214 2.022 . S
Co205 N222 1.993 . S
Co205 O230 1.941 . S
C206 O207 1.258 . S
C206 O208 1.263 . S
O207 Co204 1.970 . S
O207 C206 1.258 . S
O208 Co205 1.966 . S
O208 C206 1.263 . S
C209 O210 1.235 . S
C209 O236 1.289 . S
O210 C209 1.235 . S
C211 C213 1.400 . S
C211 N214 1.351 . S
C211 C216 1.501 . S
C212 C213 1.387 . S
C212 N215 1.341 . S
C213 C211 1.400 . S
C213 C212 1.387 . S
N214 Co205 2.022 . S
N214 C211 1.351 . S
N214 N215 1.365 . S
N215 C212 1.341 . S
N215 N214 1.365 . S
N215 H235 0.862 . S
C216 C211 1.501 . S
C216 H217 0.961 . S
C216 H218 0.961 . S
C216 H219 0.960 . S
H217 C216 0.961 . S
H218 C216 0.961 . S
H219 C216 0.960 . S
C220 N221 1.342 1_655 S
C220 C224 1.401 . S
C220 C225 1.499 . S
N221 Co204 1.989 . S
N221 C220 1.342 1_455 S
N221 N222 1.388 . S
N222 Co205 1.993 . S
N222 N221 1.388 . S
N222 C223 1.346 . S
C223 N222 1.346 . S
C223 C224 1.396 1_455 S
C223 C233 1.510 . S
C224 C220 1.401 . S
C224 C223 1.396 1_655 S
C225 C220 1.499 . S
C225 H226 0.959 . S
C225 H227 0.960 . S
C225 H228 0.961 . S
H226 C225 0.959 . S
H227 C225 0.960 . S
H228 C225 0.961 . S
O229 Co204 1.967 . S
O229 C237 1.258 . S
O230 Co205 1.941 . S
O230 C237 1.266 . S
H231 C233 0.959 . S
H232 C233 0.961 . S
C233 C223 1.510 . S
C233 H231 0.959 . S
C233 H232 0.961 . S
C233 H234 0.960 . S
H234 C233 0.960 . S
H235 N215 0.862 . S
O236 Co204 1.920 1_655 S
O236 C209 1.289 . S
C237 O229 1.258 . S
C237 O230 1.266 . S
Co238 O241 1.970 . S
Co238 N255 1.989 . S
Co238 O263 1.967 . S
Co238 O270 1.920 1_545 S
Co239 O242 1.966 . S
Co239 N248 2.022 . S
Co239 N256 1.993 . S
Co239 O264 1.941 . S
C240 O241 1.258 . S
C240 O242 1.263 . S
O241 Co238 1.970 . S
O241 C240 1.258 . S
O242 Co239 1.966 . S
O242 C240 1.263 . S
C243 O244 1.235 . S
C243 O270 1.289 . S
O244 C243 1.235 . S
C245 C247 1.400 . S
C245 N248 1.351 . S
C245 C250 1.501 . S
C246 C247 1.387 . S
C246 N249 1.341 . S
C247 C245 1.400 . S
C247 C246 1.387 . S
N248 Co239 2.022 . S
N248 C245 1.351 . S
N248 N249 1.365 . S
N249 C246 1.341 . S
N249 N248 1.365 . S
N249 H269 0.862 . S
C250 C245 1.501 . S
C250 H251 0.961 . S
C250 H252 0.961 . S
C250 H253 0.960 . S
H251 C250 0.961 . S
H252 C250 0.961 . S
H253 C250 0.960 . S
C254 N255 1.342 1_565 S
C254 C258 1.401 . S
C254 C259 1.499 . S
N255 Co238 1.989 . S
N255 C254 1.342 1_545 S
N255 N256 1.388 . S
N256 Co239 1.993 . S
N256 N255 1.388 . S
N256 C257 1.346 . S
C257 N256 1.346 . S
C257 C258 1.396 1_545 S
C257 C267 1.510 . S
C258 C254 1.401 . S
C258 C257 1.396 1_565 S
C259 C254 1.499 . S
C259 H260 0.959 . S
C259 H261 0.960 . S
C259 H262 0.961 . S
H260 C259 0.959 . S
H261 C259 0.960 . S
H262 C259 0.961 . S
O263 Co238 1.967 . S
O263 C271 1.258 . S
O264 Co239 1.941 . S
O264 C271 1.266 . S
H265 C267 0.959 . S
H266 C267 0.961 . S
C267 C257 1.510 . S
C267 H265 0.959 . S
C267 H266 0.961 . S
C267 H268 0.960 . S
H268 C267 0.960 . S
H269 N249 0.862 . S
O270 Co238 1.920 1_565 S
O270 C243 1.289 . S
C271 O263 1.258 . S
C271 O264 1.266 . S
Co272 O275 1.992 . S
Co272 N289 1.989 . S
Co272 O297 1.967 . S
Co272 O304 1.920 . S
Co273 O276 1.966 . S
Co273 N282 2.022 . S
Co273 N290 1.993 1_565 S
Co273 O298 1.941 . S
C274 O275 1.233 1_565 S
C274 O276 1.263 . S
O275 Co272 1.992 . S
O275 C274 1.233 1_545 S
O276 Co273 1.966 . S
O276 C274 1.263 . S
C277 O278 1.235 . S
C277 O304 1.289 . S
O278 C277 1.235 . S
C279 C281 1.400 . S
C279 N282 1.351 . S
C279 C284 1.501 . S
C280 C281 1.387 . S
C280 N283 1.341 . S
C281 C279 1.400 . S
C281 C280 1.387 . S
N282 Co273 2.022 . S
N282 C279 1.351 . S
N282 N283 1.365 . S
N283 C280 1.341 . S
N283 N282 1.365 . S
N283 H303 0.862 . S
C284 C279 1.501 . S
C284 H285 0.961 . S
C284 H286 0.961 . S
C284 H287 0.960 . S
H285 C284 0.961 . S
H286 C284 0.961 . S
H287 C284 0.960 . S
C288 N289 1.342 . S
C288 C292 1.401 . S
C288 C293 1.499 . S
N289 Co272 1.989 . S
N289 C288 1.342 . S
N289 N290 1.388 . S
N290 Co273 1.993 1_545 S
N290 N289 1.388 . S
N290 C291 1.346 . S
C291 N290 1.346 . S
C291 C292 1.396 . S
C291 C301 1.510 . S
C292 C288 1.401 . S
C292 C291 1.396 . S
C293 C288 1.499 . S
C293 H294 0.959 . S
C293 H295 0.960 . S
C293 H296 0.961 . S
H294 C293 0.959 . S
H295 C293 0.960 . S
H296 C293 0.961 . S
O297 Co272 1.967 . S
O297 C305 1.258 . S
O298 Co273 1.941 . S
O298 C305 1.266 1_565 S
H299 C301 0.959 . S
H300 C301 0.961 . S
C301 C291 1.510 . S
C301 H299 0.959 . S
C301 H300 0.961 . S
C301 H302 0.960 1_545 S
H302 C301 0.960 1_565 S
H303 N283 0.862 . S
O304 Co272 1.920 . S
O304 C277 1.289 . S
C305 O297 1.258 . S
C305 O298 1.266 1_545 S
Co306 O309 1.970 . S
Co306 N323 1.989 . S
Co306 O331 1.967 . S
Co306 O338 1.920 1_455 S
Co307 O310 1.966 . S
Co307 N316 2.022 . S
Co307 N324 1.993 . S
Co307 O332 1.941 . S
C308 O309 1.258 . S
C308 O310 1.263 . S
O309 Co306 1.970 . S
O309 C308 1.258 . S
O310 Co307 1.966 . S
O310 C308 1.263 . S
C311 O312 1.235 . S
C311 O338 1.289 . S
O312 C311 1.235 . S
C313 C315 1.400 . S
C313 N316 1.351 . S
C313 C318 1.501 . S
C314 C315 1.387 . S
C314 N317 1.341 . S
C315 C313 1.400 . S
C315 C314 1.387 . S
N316 Co307 2.022 . S
N316 C313 1.351 . S
N316 N317 1.365 . S
N317 C314 1.341 . S
N317 N316 1.365 . S
N317 H337 0.862 . S
C318 C313 1.501 . S
C318 H319 0.961 . S
C318 H320 0.961 . S
C318 H321 0.960 . S
H319 C318 0.961 . S
H320 C318 0.961 . S
H321 C318 0.960 . S
C322 N323 1.342 1_655 S
C322 C326 1.401 . S
C322 C327 1.499 . S
N323 Co306 1.989 . S
N323 C322 1.342 1_455 S
N323 N324 1.388 . S
N324 Co307 1.993 . S
N324 N323 1.388 . S
N324 C325 1.346 . S
C325 N324 1.346 . S
C325 C326 1.396 1_455 S
C325 C335 1.510 . S
C326 C322 1.401 . S
C326 C325 1.396 1_655 S
C327 C322 1.499 . S
C327 H328 0.959 . S
C327 H329 0.960 . S
C327 H330 0.961 . S
H328 C327 0.959 . S
H329 C327 0.960 . S
H330 C327 0.961 . S
O331 Co306 1.967 . S
O331 C339 1.258 . S
O332 Co307 1.941 . S
O332 C339 1.266 . S
H333 C335 0.959 . S
H334 C335 0.961 . S
C335 C325 1.510 . S
C335 H333 0.959 . S
C335 H334 0.961 . S
C335 H336 0.960 . S
H336 C335 0.960 . S
H337 N317 0.862 . S
O338 Co306 1.920 1_655 S
O338 C311 1.289 . S
C339 O331 1.258 . S
C339 O332 1.266 . S
Co340 O343 1.970 . S
Co340 N357 1.989 . S
Co340 O365 1.967 . S
Co340 O372 1.920 1_545 S
Co341 O344 1.966 . S
Co341 N350 2.022 . S
Co341 N358 1.993 . S
Co341 O366 1.941 . S
C342 O343 1.258 . S
C342 O344 1.263 . S
O343 Co340 1.970 . S
O343 C342 1.258 . S
O344 Co341 1.966 . S
O344 C342 1.263 . S
C345 O346 1.235 . S
C345 O372 1.289 . S
O346 C345 1.235 . S
C347 C349 1.400 . S
C347 N350 1.351 . S
C347 C352 1.501 . S
C348 C349 1.387 . S
C348 N351 1.341 . S
C349 C347 1.400 . S
C349 C348 1.387 . S
N350 Co341 2.022 . S
N350 C347 1.351 . S
N350 N351 1.365 . S
N351 C348 1.341 . S
N351 N350 1.365 . S
N351 H371 0.862 . S
C352 C347 1.501 . S
C352 H353 0.961 . S
C352 H354 0.961 . S
C352 H355 0.960 . S
H353 C352 0.961 . S
H354 C352 0.961 . S
H355 C352 0.960 . S
C356 N357 1.342 1_565 S
C356 C360 1.401 . S
C356 C361 1.499 . S
N357 Co340 1.989 . S
N357 C356 1.342 1_545 S
N357 N358 1.388 . S
N358 Co341 1.993 . S
N358 N357 1.388 . S
N358 C359 1.346 . S
C359 N358 1.346 . S
C359 C360 1.396 1_545 S
C359 C369 1.510 . S
C360 C356 1.401 . S
C360 C359 1.396 1_565 S
C361 C356 1.499 . S
C361 H362 0.959 . S
C361 H363 0.960 . S
C361 H364 0.961 . S
H362 C361 0.959 . S
H363 C361 0.960 . S
H364 C361 0.961 . S
O365 Co340 1.967 . S
O365 C373 1.258 . S
O366 Co341 1.941 . S
O366 C373 1.266 . S
H367 C369 0.959 . S
H368 C369 0.961 . S
C369 C359 1.510 . S
C369 H367 0.959 . S
C369 H368 0.961 . S
C369 H370 0.960 . S
H370 C369 0.960 . S
H371 N351 0.862 . S
O372 Co340 1.920 1_565 S
O372 C345 1.289 . S
C373 O365 1.258 . S
C373 O366 1.266 . S
Co374 O377 1.992 . S
Co374 N391 1.989 . S
Co374 O399 1.967 . S
Co374 O406 1.920 . S
Co375 O378 1.966 . S
Co375 N384 2.022 . S
Co375 N392 1.993 1_655 S
Co375 O400 1.941 . S
C376 O377 1.234 1_655 S
C376 O378 1.263 . S
O377 Co374 1.992 . S
O377 C376 1.234 1_455 S
O378 Co375 1.966 . S
O378 C376 1.263 . S
C379 O380 1.235 . S
C379 O406 1.289 . S
O380 C379 1.235 . S
C381 C383 1.400 . S
C381 N384 1.351 . S
C381 C386 1.501 . S
C382 C383 1.387 . S
C382 N385 1.341 . S
C383 C381 1.400 . S
C383 C382 1.387 . S
N384 Co375 2.022 . S
N384 C381 1.351 . S
N384 N385 1.365 . S
N385 C382 1.341 . S
N385 N384 1.365 . S
N385 H405 0.862 . S
C386 C381 1.501 . S
C386 H387 0.961 . S
C386 H388 0.961 . S
C386 H389 0.960 . S
H387 C386 0.961 . S
H388 C386 0.961 . S
H389 C386 0.960 . S
C390 N391 1.342 . S
C390 C394 1.401 . S
C390 C395 1.499 . S
N391 Co374 1.989 . S
N391 C390 1.342 . S
N391 N392 1.388 . S
N392 Co375 1.993 1_455 S
N392 N391 1.388 . S
N392 C393 1.346 . S
C393 N392 1.346 . S
C393 C394 1.396 . S
C393 C403 1.510 . S
C394 C390 1.401 . S
C394 C393 1.396 . S
C395 C390 1.499 . S
C395 H396 0.959 . S
C395 H397 0.960 . S
C395 H398 0.961 . S
H396 C395 0.959 . S
H397 C395 0.960 . S
H398 C395 0.961 . S
O399 Co374 1.967 . S
O399 C407 1.258 . S
O400 Co375 1.941 . S
O400 C407 1.266 1_655 S
H401 C403 0.959 . S
H402 C403 0.961 . S
C403 C393 1.510 . S
C403 H401 0.959 . S
C403 H402 0.961 . S
C403 H404 0.960 1_455 S
H404 C403 0.960 1_655 S
H405 N385 0.862 . S
O406 Co374 1.920 . S
O406 C379 1.289 . S
C407 O399 1.258 . S
C407 O400 1.266 1_455 S
Co408 O411 1.970 . S
Co408 N425 1.989 . S
Co408 O433 1.967 . S
Co408 O440 1.920 1_545 S
Co409 O412 1.966 . S
Co409 N418 2.022 . S
Co409 N426 1.993 . S
Co409 O434 1.941 . S
C410 O411 1.258 . S
C410 O412 1.263 . S
O411 Co408 1.970 . S
O411 C410 1.258 . S
O412 Co409 1.966 . S
O412 C410 1.263 . S
C413 O414 1.235 . S
C413 O440 1.289 . S
O414 C413 1.235 . S
C415 C417 1.400 . S
C415 N418 1.351 . S
C415 C420 1.501 . S
C416 C417 1.387 . S
C416 N419 1.341 . S
C417 C415 1.400 . S
C417 C416 1.387 . S
N418 Co409 2.022 . S
N418 C415 1.351 . S
N418 N419 1.365 . S
N419 C416 1.341 . S
N419 N418 1.365 . S
N419 H439 0.862 . S
C420 C415 1.501 . S
C420 H421 0.961 . S
C420 H422 0.961 . S
C420 H423 0.960 . S
H421 C420 0.961 . S
H422 C420 0.961 . S
H423 C420 0.960 . S
C424 N425 1.342 1_565 S
C424 C428 1.401 . S
C424 C429 1.499 . S
N425 Co408 1.989 . S
N425 C424 1.342 1_545 S
N425 N426 1.388 . S
N426 Co409 1.993 . S
N426 N425 1.388 . S
N426 C427 1.346 . S
C427 N426 1.346 . S
C427 C428 1.396 1_545 S
C427 C437 1.510 . S
C428 C424 1.401 . S
C428 C427 1.396 1_565 S
C429 C424 1.499 . S
C429 H430 0.959 . S
C429 H431 0.960 . S
C429 H432 0.961 . S
H430 C429 0.959 . S
H431 C429 0.960 . S
H432 C429 0.961 . S
O433 Co408 1.967 . S
O433 C441 1.258 . S
O434 Co409 1.941 . S
O434 C441 1.266 . S
H435 C437 0.959 . S
H436 C437 0.961 . S
C437 C427 1.510 . S
C437 H435 0.959 . S
C437 H436 0.961 . S
C437 H438 0.960 . S
H438 C437 0.960 . S
H439 N419 0.862 . S
O440 Co408 1.920 1_565 S
O440 C413 1.289 . S
C441 O433 1.258 . S
C441 O434 1.266 . S
Co442 O445 1.992 . S
Co442 N459 1.989 . S
Co442 O467 1.967 . S
Co442 O474 1.920 . S
Co443 O446 1.966 . S
Co443 N452 2.022 . S
Co443 N460 1.993 1_655 S
Co443 O468 1.941 . S
C444 O445 1.234 1_655 S
C444 O446 1.263 . S
O445 Co442 1.992 . S
O445 C444 1.234 1_455 S
O446 Co443 1.966 . S
O446 C444 1.263 . S
C447 O448 1.235 . S
C447 O474 1.289 . S
O448 C447 1.235 . S
C449 C451 1.400 . S
C449 N452 1.351 . S
C449 C454 1.501 . S
C450 C451 1.387 . S
C450 N453 1.341 . S
C451 C449 1.400 . S
C451 C450 1.387 . S
N452 Co443 2.022 . S
N452 C449 1.351 . S
N452 N453 1.365 . S
N453 C450 1.341 . S
N453 N452 1.365 . S
N453 H473 0.862 . S
C454 C449 1.501 . S
C454 H455 0.961 . S
C454 H456 0.961 . S
C454 H457 0.960 . S
H455 C454 0.961 . S
H456 C454 0.961 . S
H457 C454 0.960 . S
C458 N459 1.342 . S
C458 C462 1.401 . S
C458 C463 1.499 . S
N459 Co442 1.989 . S
N459 C458 1.342 . S
N459 N460 1.388 . S
N460 Co443 1.993 1_455 S
N460 N459 1.388 . S
N460 C461 1.346 . S
C461 N460 1.346 . S
C461 C462 1.396 . S
C461 C471 1.510 . S
C462 C458 1.401 . S
C462 C461 1.396 . S
C463 C458 1.499 . S
C463 H464 0.959 . S
C463 H465 0.960 . S
C463 H466 0.961 . S
H464 C463 0.959 . S
H465 C463 0.960 . S
H466 C463 0.961 . S
O467 Co442 1.967 . S
O467 C475 1.258 . S
O468 Co443 1.941 . S
O468 C475 1.266 1_655 S
H469 C471 0.959 . S
H470 C471 0.961 . S
C471 C461 1.510 . S
C471 H469 0.959 . S
C471 H470 0.961 . S
C471 H472 0.960 1_455 S
H472 C471 0.960 1_655 S
H473 N453 0.862 . S
O474 Co442 1.920 . S
O474 C447 1.289 . S
C475 O467 1.258 . S
C475 O468 1.266 1_455 S
Co476 O479 1.992 . S
Co476 N493 1.989 . S
Co476 O501 1.967 . S
Co476 O508 1.920 . S
Co477 O480 1.966 . S
Co477 N486 2.022 . S
Co477 N494 1.993 1_565 S
Co477 O502 1.941 . S
C478 O479 1.233 1_565 S
C478 O480 1.263 . S
O479 Co476 1.992 . S
O479 C478 1.233 1_545 S
O480 Co477 1.966 . S
O480 C478 1.263 . S
C481 O482 1.235 . S
C481 O508 1.289 . S
O482 C481 1.235 . S
C483 C485 1.400 . S
C483 N486 1.351 . S
C483 C488 1.501 . S
C484 C485 1.387 . S
C484 N487 1.341 . S
C485 C483 1.400 . S
C485 C484 1.387 . S
N486 Co477 2.022 . S
N486 C483 1.351 . S
N486 N487 1.365 . S
N487 C484 1.341 . S
N487 N486 1.365 . S
N487 H507 0.862 . S
C488 C483 1.501 . S
C488 H489 0.961 . S
C488 H490 0.961 . S
C488 H491 0.960 . S
H489 C488 0.961 . S
H490 C488 0.961 . S
H491 C488 0.960 . S
C492 N493 1.342 . S
C492 C496 1.401 . S
C492 C497 1.499 . S
N493 Co476 1.989 . S
N493 C492 1.342 . S
N493 N494 1.388 . S
N494 Co477 1.993 1_545 S
N494 N493 1.388 . S
N494 C495 1.346 . S
C495 N494 1.346 . S
C495 C496 1.396 . S
C495 C505 1.510 . S
C496 C492 1.401 . S
C496 C495 1.396 . S
C497 C492 1.499 . S
C497 H498 0.959 . S
C497 H499 0.960 . S
C497 H500 0.961 . S
H498 C497 0.959 . S
H499 C497 0.960 . S
H500 C497 0.961 . S
O501 Co476 1.967 . S
O501 C509 1.258 . S
O502 Co477 1.941 . S
O502 C509 1.266 1_565 S
H503 C505 0.959 . S
H504 C505 0.961 . S
C505 C495 1.510 . S
C505 H503 0.959 . S
C505 H504 0.961 . S
C505 H506 0.960 1_545 S
H506 C505 0.960 1_565 S
H507 N487 0.862 . S
O508 Co476 1.920 . S
O508 C481 1.289 . S
C509 O501 1.258 . S
C509 O502 1.266 1_545 S
Co510 O513 1.970 . S
Co510 N527 1.989 . S
Co510 O535 1.967 . S
Co510 O542 1.920 1_455 S
Co511 O514 1.966 . S
Co511 N520 2.022 . S
Co511 N528 1.993 . S
Co511 O536 1.941 . S
C512 O513 1.258 . S
C512 O514 1.263 . S
O513 Co510 1.970 . S
O513 C512 1.258 . S
O514 Co511 1.966 . S
O514 C512 1.263 . S
C515 O516 1.235 . S
C515 O542 1.289 . S
O516 C515 1.235 . S
C517 C519 1.400 . S
C517 N520 1.351 . S
C517 C522 1.501 . S
C518 C519 1.387 . S
C518 N521 1.341 . S
C519 C517 1.400 . S
C519 C518 1.387 . S
N520 Co511 2.022 . S
N520 C517 1.351 . S
N520 N521 1.365 . S
N521 C518 1.341 . S
N521 N520 1.365 . S
N521 H541 0.862 . S
C522 C517 1.501 . S
C522 H523 0.961 . S
C522 H524 0.961 . S
C522 H525 0.960 . S
H523 C522 0.961 . S
H524 C522 0.961 . S
H525 C522 0.960 . S
C526 N527 1.342 1_655 S
C526 C530 1.401 . S
C526 C531 1.499 . S
N527 Co510 1.989 . S
N527 C526 1.342 1_455 S
N527 N528 1.388 . S
N528 Co511 1.993 . S
N528 N527 1.388 . S
N528 C529 1.346 . S
C529 N528 1.346 . S
C529 C530 1.396 1_455 S
C529 C539 1.510 . S
C530 C526 1.401 . S
C530 C529 1.396 1_655 S
C531 C526 1.499 . S
C531 H532 0.959 . S
C531 H533 0.960 . S
C531 H534 0.961 . S
H532 C531 0.959 . S
H533 C531 0.960 . S
H534 C531 0.961 . S
O535 Co510 1.967 . S
O535 C543 1.258 . S
O536 Co511 1.941 . S
O536 C543 1.266 . S
H537 C539 0.959 . S
H538 C539 0.961 . S
C539 C529 1.510 . S
C539 H537 0.959 . S
C539 H538 0.961 . S
C539 H540 0.960 . S
H540 C539 0.960 . S
H541 N521 0.862 . S
O542 Co510 1.920 1_655 S
O542 C515 1.289 . S
C543 O535 1.258 . S
C543 O536 1.266 . S
Co544 O547 1.992 . S
Co544 N561 1.989 . S
Co544 O569 1.967 . S
Co544 O576 1.920 . S
Co545 O548 1.966 . S
Co545 N554 2.022 . S
Co545 N562 1.993 1_556 S
Co545 O570 1.941 . S
C546 O547 1.233 1_556 S
C546 O548 1.263 . S
O547 Co544 1.992 . S
O547 C546 1.233 1_554 S
O548 Co545 1.966 . S
O548 C546 1.263 . S
C549 O550 1.235 . S
C549 O576 1.289 . S
O550 C549 1.235 . S
C551 C553 1.400 . S
C551 N554 1.351 . S
C551 C556 1.501 . S
C552 C553 1.387 . S
C552 N555 1.341 . S
C553 C551 1.400 . S
C553 C552 1.387 . S
N554 Co545 2.022 . S
N554 C551 1.351 . S
N554 N555 1.365 . S
N555 C552 1.341 . S
N555 N554 1.365 . S
N555 H575 0.862 . S
C556 C551 1.501 . S
C556 H557 0.961 . S
C556 H558 0.961 . S
C556 H559 0.960 . S
H557 C556 0.961 . S
H558 C556 0.961 . S
H559 C556 0.960 . S
C560 N561 1.342 . S
C560 C564 1.401 . S
C560 C565 1.499 . S
N561 Co544 1.989 . S
N561 C560 1.342 . S
N561 N562 1.388 . S
N562 Co545 1.993 1_554 S
N562 N561 1.388 . S
N562 C563 1.346 . S
C563 N562 1.346 . S
C563 C564 1.396 . S
C563 C573 1.510 . S
C564 C560 1.401 . S
C564 C563 1.396 . S
C565 C560 1.499 . S
C565 H566 0.959 . S
C565 H567 0.960 . S
C565 H568 0.961 . S
H566 C565 0.959 . S
H567 C565 0.960 . S
H568 C565 0.961 . S
O569 Co544 1.967 . S
O569 C577 1.258 . S
O570 Co545 1.941 . S
O570 C577 1.266 1_556 S
H571 C573 0.959 . S
H572 C573 0.961 . S
C573 C563 1.510 . S
C573 H571 0.959 . S
C573 H572 0.961 . S
C573 H574 0.960 1_554 S
H574 C573 0.960 1_556 S
H575 N555 0.862 . S
O576 Co544 1.920 . S
O576 C549 1.289 . S
C577 O569 1.258 . S
C577 O570 1.266 1_554 S
Co578 O581 1.970 . S
Co578 N595 1.989 . S
Co578 O603 1.967 . S
Co578 O610 1.920 1_554 S
Co579 O582 1.966 . S
Co579 N588 2.022 . S
Co579 N596 1.993 . S
Co579 O604 1.941 . S
C580 O581 1.258 . S
C580 O582 1.263 . S
O581 Co578 1.970 . S
O581 C580 1.258 . S
O582 Co579 1.966 . S
O582 C580 1.263 . S
C583 O584 1.235 . S
C583 O610 1.289 . S
O584 C583 1.235 . S
C585 C587 1.400 . S
C585 N588 1.351 . S
C585 C590 1.501 . S
C586 C587 1.387 . S
C586 N589 1.341 . S
C587 C585 1.400 . S
C587 C586 1.387 . S
N588 Co579 2.022 . S
N588 C585 1.351 . S
N588 N589 1.365 . S
N589 C586 1.341 . S
N589 N588 1.365 . S
N589 H609 0.862 . S
C590 C585 1.501 . S
C590 H591 0.961 . S
C590 H592 0.961 . S
C590 H593 0.960 . S
H591 C590 0.961 . S
H592 C590 0.961 . S
H593 C590 0.960 . S
C594 N595 1.342 1_556 S
C594 C598 1.401 . S
C594 C599 1.499 . S
N595 Co578 1.989 . S
N595 C594 1.342 1_554 S
N595 N596 1.388 . S
N596 Co579 1.993 . S
N596 N595 1.388 . S
N596 C597 1.346 . S
C597 N596 1.346 . S
C597 C598 1.396 1_554 S
C597 C607 1.510 . S
C598 C594 1.401 . S
C598 C597 1.396 1_556 S
C599 C594 1.499 . S
C599 H600 0.959 . S
C599 H601 0.960 . S
C599 H602 0.961 . S
H600 C599 0.959 . S
H601 C599 0.960 . S
H602 C599 0.961 . S
O603 Co578 1.967 . S
O603 C611 1.258 . S
O604 Co579 1.941 . S
O604 C611 1.266 . S
H605 C607 0.959 . S
H606 C607 0.961 . S
C607 C597 1.510 . S
C607 H605 0.959 . S
C607 H606 0.961 . S
C607 H608 0.960 . S
H608 C607 0.960 . S
H609 N589 0.862 . S
O610 Co578 1.920 1_556 S
O610 C583 1.289 . S
C611 O603 1.258 . S
C611 O604 1.266 . S
Co612 O615 1.970 . S
Co612 N629 1.989 . S
Co612 O637 1.967 . S
Co612 O644 1.920 1_554 S
Co613 O616 1.966 . S
Co613 N622 2.022 . S
Co613 N630 1.993 . S
Co613 O638 1.941 . S
C614 O615 1.258 . S
C614 O616 1.263 . S
O615 Co612 1.970 . S
O615 C614 1.258 . S
O616 Co613 1.966 . S
O616 C614 1.263 . S
C617 O618 1.235 . S
C617 O644 1.289 . S
O618 C617 1.235 . S
C619 C621 1.400 . S
C619 N622 1.351 . S
C619 C624 1.501 . S
C620 C621 1.387 . S
C620 N623 1.341 . S
C621 C619 1.400 . S
C621 C620 1.387 . S
N622 Co613 2.022 . S
N622 C619 1.351 . S
N622 N623 1.365 . S
N623 C620 1.341 . S
N623 N622 1.365 . S
N623 H643 0.862 . S
C624 C619 1.501 . S
C624 H625 0.961 . S
C624 H626 0.961 . S
C624 H627 0.960 . S
H625 C624 0.961 . S
H626 C624 0.961 . S
H627 C624 0.960 . S
C628 N629 1.342 1_556 S
C628 C632 1.401 . S
C628 C633 1.499 . S
N629 Co612 1.989 . S
N629 C628 1.342 1_554 S
N629 N630 1.388 . S
N630 Co613 1.993 . S
N630 N629 1.388 . S
N630 C631 1.346 . S
C631 N630 1.346 . S
C631 C632 1.396 1_554 S
C631 C641 1.510 . S
C632 C628 1.401 . S
C632 C631 1.396 1_556 S
C633 C628 1.499 . S
C633 H634 0.959 . S
C633 H635 0.960 . S
C633 H636 0.961 . S
H634 C633 0.959 . S
H635 C633 0.960 . S
H636 C633 0.961 . S
O637 Co612 1.967 . S
O637 C645 1.258 . S
O638 Co613 1.941 . S
O638 C645 1.266 . S
H639 C641 0.959 . S
H640 C641 0.961 . S
C641 C631 1.510 . S
C641 H639 0.959 . S
C641 H640 0.961 . S
C641 H642 0.960 . S
H642 C641 0.960 . S
H643 N623 0.862 . S
O644 Co612 1.920 1_556 S
O644 C617 1.289 . S
C645 O637 1.258 . S
C645 O638 1.266 . S
Co646 O649 1.970 . S
Co646 N663 1.989 . S
Co646 O671 1.967 . S
Co646 O678 1.920 1_554 S
Co647 O650 1.966 . S
Co647 N656 2.022 . S
Co647 N664 1.993 . S
Co647 O672 1.941 . S
C648 O649 1.258 . S
C648 O650 1.263 . S
O649 Co646 1.970 . S
O649 C648 1.258 . S
O650 Co647 1.966 . S
O650 C648 1.263 . S
C651 O652 1.235 . S
C651 O678 1.289 . S
O652 C651 1.235 . S
C653 C655 1.400 . S
C653 N656 1.351 . S
C653 C658 1.501 . S
C654 C655 1.387 . S
C654 N657 1.341 . S
C655 C653 1.400 . S
C655 C654 1.387 . S
N656 Co647 2.022 . S
N656 C653 1.351 . S
N656 N657 1.365 . S
N657 C654 1.341 . S
N657 N656 1.365 . S
N657 H677 0.862 . S
C658 C653 1.501 . S
C658 H659 0.961 . S
C658 H660 0.961 . S
C658 H661 0.960 . S
H659 C658 0.961 . S
H660 C658 0.961 . S
H661 C658 0.960 . S
C662 N663 1.342 1_556 S
C662 C666 1.401 . S
C662 C667 1.499 . S
N663 Co646 1.989 . S
N663 C662 1.342 1_554 S
N663 N664 1.388 . S
N664 Co647 1.993 . S
N664 N663 1.388 . S
N664 C665 1.346 . S
C665 N664 1.346 . S
C665 C666 1.396 1_554 S
C665 C675 1.510 . S
C666 C662 1.401 . S
C666 C665 1.396 1_556 S
C667 C662 1.499 . S
C667 H668 0.959 . S
C667 H669 0.960 . S
C667 H670 0.961 . S
H668 C667 0.959 . S
H669 C667 0.960 . S
H670 C667 0.961 . S
O671 Co646 1.967 . S
O671 C679 1.258 . S
O672 Co647 1.941 . S
O672 C679 1.266 . S
H673 C675 0.959 . S
H674 C675 0.961 . S
C675 C665 1.510 . S
C675 H673 0.959 . S
C675 H674 0.961 . S
C675 H676 0.960 . S
H676 C675 0.960 . S
H677 N657 0.862 . S
O678 Co646 1.920 1_556 S
O678 C651 1.289 . S
C679 O671 1.258 . S
C679 O672 1.266 . S
Co680 O683 1.970 . S
Co680 N697 1.989 . S
Co680 O705 1.967 . S
Co680 O712 1.920 1_554 S
Co681 O684 1.966 . S
Co681 N690 2.022 . S
Co681 N698 1.993 . S
Co681 O706 1.941 . S
C682 O683 1.258 . S
C682 O684 1.263 . S
O683 Co680 1.970 . S
O683 C682 1.258 . S
O684 Co681 1.966 . S
O684 C682 1.263 . S
C685 O686 1.235 . S
C685 O712 1.289 . S
O686 C685 1.235 . S
C687 C689 1.400 . S
C687 N690 1.351 . S
C687 C692 1.501 . S
C688 C689 1.387 . S
C688 N691 1.341 . S
C689 C687 1.400 . S
C689 C688 1.387 . S
N690 Co681 2.022 . S
N690 C687 1.351 . S
N690 N691 1.365 . S
N691 C688 1.341 . S
N691 N690 1.365 . S
N691 H711 0.862 . S
C692 C687 1.501 . S
C692 H693 0.961 . S
C692 H694 0.961 . S
C692 H695 0.960 . S
H693 C692 0.961 . S
H694 C692 0.961 . S
H695 C692 0.960 . S
C696 N697 1.342 1_556 S
C696 C700 1.401 . S
C696 C701 1.499 . S
N697 Co680 1.989 . S
N697 C696 1.342 1_554 S
N697 N698 1.388 . S
N698 Co681 1.993 . S
N698 N697 1.388 . S
N698 C699 1.346 . S
C699 N698 1.346 . S
C699 C700 1.396 1_554 S
C699 C709 1.510 . S
C700 C696 1.401 . S
C700 C699 1.396 1_556 S
C701 C696 1.499 . S
C701 H702 0.959 . S
C701 H703 0.960 . S
C701 H704 0.961 . S
H702 C701 0.959 . S
H703 C701 0.960 . S
H704 C701 0.961 . S
O705 Co680 1.967 . S
O705 C713 1.258 . S
O706 Co681 1.941 . S
O706 C713 1.266 . S
H707 C709 0.959 . S
H708 C709 0.961 . S
C709 C699 1.510 . S
C709 H707 0.959 . S
C709 H708 0.961 . S
C709 H710 0.960 . S
H710 C709 0.960 . S
H711 N691 0.862 . S
O712 Co680 1.920 1_556 S
O712 C685 1.289 . S
C713 O705 1.258 . S
C713 O706 1.266 . S
Co714 O717 1.992 . S
Co714 N731 1.989 . S
Co714 O739 1.967 . S
Co714 O746 1.920 . S
Co715 O718 1.966 . S
Co715 N724 2.022 . S
Co715 N732 1.993 1_556 S
Co715 O740 1.941 . S
C716 O717 1.233 1_556 S
C716 O718 1.263 . S
O717 Co714 1.992 . S
O717 C716 1.233 1_554 S
O718 Co715 1.966 . S
O718 C716 1.263 . S
C719 O720 1.235 . S
C719 O746 1.289 . S
O720 C719 1.235 . S
C721 C723 1.400 . S
C721 N724 1.351 . S
C721 C726 1.501 . S
C722 C723 1.387 . S
C722 N725 1.341 . S
C723 C721 1.400 . S
C723 C722 1.387 . S
N724 Co715 2.022 . S
N724 C721 1.351 . S
N724 N725 1.365 . S
N725 C722 1.341 . S
N725 N724 1.365 . S
N725 H745 0.862 . S
C726 C721 1.501 . S
C726 H727 0.961 . S
C726 H728 0.961 . S
C726 H729 0.960 . S
H727 C726 0.961 . S
H728 C726 0.961 . S
H729 C726 0.960 . S
C730 N731 1.342 . S
C730 C734 1.401 . S
C730 C735 1.499 . S
N731 Co714 1.989 . S
N731 C730 1.342 . S
N731 N732 1.388 . S
N732 Co715 1.993 1_554 S
N732 N731 1.388 . S
N732 C733 1.346 . S
C733 N732 1.346 . S
C733 C734 1.396 . S
C733 C743 1.510 . S
C734 C730 1.401 . S
C734 C733 1.396 . S
C735 C730 1.499 . S
C735 H736 0.959 . S
C735 H737 0.960 . S
C735 H738 0.961 . S
H736 C735 0.959 . S
H737 C735 0.960 . S
H738 C735 0.961 . S
O739 Co714 1.967 . S
O739 C747 1.258 . S
O740 Co715 1.941 . S
O740 C747 1.266 1_556 S
H741 C743 0.959 . S
H742 C743 0.961 . S
C743 C733 1.510 . S
C743 H741 0.959 . S
C743 H742 0.961 . S
C743 H744 0.960 1_554 S
H744 C743 0.960 1_556 S
H745 N725 0.862 . S
O746 Co714 1.920 . S
O746 C719 1.289 . S
C747 O739 1.258 . S
C747 O740 1.266 1_554 S
Co748 O751 1.992 . S
Co748 N765 1.989 . S
Co748 O773 1.967 . S
Co748 O780 1.920 . S
Co749 O752 1.966 . S
Co749 N758 2.022 . S
Co749 N766 1.993 1_556 S
Co749 O774 1.941 . S
C750 O751 1.234 1_556 S
C750 O752 1.263 . S
O751 Co748 1.992 . S
O751 C750 1.234 1_554 S
O752 Co749 1.966 . S
O752 C750 1.263 . S
C753 O754 1.235 . S
C753 O780 1.289 . S
O754 C753 1.235 . S
C755 C757 1.400 . S
C755 N758 1.351 . S
C755 C760 1.501 . S
C756 C757 1.387 . S
C756 N759 1.341 . S
C757 C755 1.400 . S
C757 C756 1.387 . S
N758 Co749 2.022 . S
N758 C755 1.351 . S
N758 N759 1.365 . S
N759 C756 1.341 . S
N759 N758 1.365 . S
N759 H779 0.862 . S
C760 C755 1.501 . S
C760 H761 0.961 . S
C760 H762 0.961 . S
C760 H763 0.960 . S
H761 C760 0.961 . S
H762 C760 0.961 . S
H763 C760 0.960 . S
C764 N765 1.342 . S
C764 C768 1.401 . S
C764 C769 1.499 . S
N765 Co748 1.989 . S
N765 C764 1.342 . S
N765 N766 1.388 . S
N766 Co749 1.993 1_554 S
N766 N765 1.388 . S
N766 C767 1.346 . S
C767 N766 1.346 . S
C767 C768 1.396 . S
C767 C777 1.510 . S
C768 C764 1.401 . S
C768 C767 1.396 . S
C769 C764 1.499 . S
C769 H770 0.959 . S
C769 H771 0.960 . S
C769 H772 0.961 . S
H770 C769 0.959 . S
H771 C769 0.960 . S
H772 C769 0.961 . S
O773 Co748 1.967 . S
O773 C781 1.258 . S
O774 Co749 1.941 . S
O774 C781 1.266 1_556 S
H775 C777 0.959 . S
H776 C777 0.961 . S
C777 C767 1.510 . S
C777 H775 0.959 . S
C777 H776 0.961 . S
C777 H778 0.960 1_554 S
H778 C777 0.960 1_556 S
H779 N759 0.862 . S
O780 Co748 1.920 . S
O780 C753 1.289 . S
C781 O773 1.258 . S
C781 O774 1.266 1_554 S
Co782 O785 1.992 . S
Co782 N799 1.989 . S
Co782 O807 1.967 . S
Co782 O814 1.920 . S
Co783 O786 1.966 . S
Co783 N792 2.022 . S
Co783 N800 1.993 1_556 S
Co783 O808 1.941 . S
C784 O785 1.234 1_556 S
C784 O786 1.263 . S
O785 Co782 1.992 . S
O785 C784 1.234 1_554 S
O786 Co783 1.966 . S
O786 C784 1.263 . S
C787 O788 1.235 . S
C787 O814 1.289 . S
O788 C787 1.235 . S
C789 C791 1.400 . S
C789 N792 1.351 . S
C789 C794 1.501 . S
C790 C791 1.387 . S
C790 N793 1.341 . S
C791 C789 1.400 . S
C791 C790 1.387 . S
N792 Co783 2.022 . S
N792 C789 1.351 . S
N792 N793 1.365 . S
N793 C790 1.341 . S
N793 N792 1.365 . S
N793 H813 0.862 . S
C794 C789 1.501 . S
C794 H795 0.961 . S
C794 H796 0.961 . S
C794 H797 0.960 . S
H795 C794 0.961 . S
H796 C794 0.961 . S
H797 C794 0.960 . S
C798 N799 1.342 . S
C798 C802 1.401 . S
C798 C803 1.499 . S
N799 Co782 1.989 . S
N799 C798 1.342 . S
N799 N800 1.388 . S
N800 Co783 1.993 1_554 S
N800 N799 1.388 . S
N800 C801 1.346 . S
C801 N800 1.346 . S
C801 C802 1.396 . S
C801 C811 1.510 . S
C802 C798 1.401 . S
C802 C801 1.396 . S
C803 C798 1.499 . S
C803 H804 0.959 . S
C803 H805 0.960 . S
C803 H806 0.961 . S
H804 C803 0.959 . S
H805 C803 0.960 . S
H806 C803 0.961 . S
O807 Co782 1.967 . S
O807 C815 1.258 . S
O808 Co783 1.941 . S
O808 C815 1.266 1_556 S
H809 C811 0.959 . S
H810 C811 0.961 . S
C811 C801 1.510 . S
C811 H809 0.959 . S
C811 H810 0.961 . S
C811 H812 0.960 1_554 S
H812 C811 0.960 1_556 S
H813 N793 0.862 . S
O814 Co782 1.920 . S
O814 C787 1.289 . S
C815 O807 1.258 . S
C815 O808 1.266 1_554 S
Co816 O819 1.970 . S
Co816 N833 1.989 . S
Co816 O841 1.967 . S
Co816 O848 1.920 . S
Co817 O820 1.966 . S
Co817 N826 2.022 . S
Co817 N834 1.993 . S
Co817 O842 1.941 . S
C818 O819 1.258 . S
C818 O820 1.263 . S
O819 Co816 1.970 . S
O819 C818 1.258 . S
O820 Co817 1.966 . S
O820 C818 1.263 . S
C821 O822 1.235 . S
C821 O848 1.289 . S
O822 C821 1.235 . S
C823 C825 1.400 . S
C823 N826 1.351 . S
C823 C828 1.501 . S
C824 C825 1.387 . S
C824 N827 1.341 . S
C825 C823 1.400 . S
C825 C824 1.387 . S
N826 Co817 2.022 . S
N826 C823 1.351 . S
N826 N827 1.365 . S
N827 C824 1.341 . S
N827 N826 1.365 . S
N827 H847 0.862 . S
C828 C823 1.501 . S
C828 H829 0.961 . S
C828 H830 0.961 . S
C828 H831 0.960 . S
H829 C828 0.961 . S
H830 C828 0.961 . S
H831 C828 0.960 . S
C832 N833 1.342 . S
C832 C836 1.401 . S
C832 C837 1.499 . S
N833 Co816 1.989 . S
N833 C832 1.342 . S
N833 N834 1.388 . S
N834 Co817 1.993 . S
N834 N833 1.388 . S
N834 C835 1.346 . S
C835 N834 1.346 . S
C835 C836 1.396 . S
C835 C845 1.510 . S
C836 C832 1.401 . S
C836 C835 1.396 . S
C837 C832 1.499 . S
C837 H838 0.959 . S
C837 H839 0.960 . S
C837 H840 0.961 . S
H838 C837 0.959 . S
H839 C837 0.960 . S
H840 C837 0.961 . S
O841 Co816 1.967 . S
O841 C849 1.258 . S
O842 Co817 1.941 . S
O842 C849 1.266 . S
H843 C845 0.959 . S
H844 C845 0.961 . S
C845 C835 1.510 . S
C845 H843 0.959 . S
C845 H844 0.961 . S
C845 H846 0.960 . S
H846 C845 0.960 . S
H847 N827 0.862 . S
O848 Co816 1.920 . S
O848 C821 1.289 . S
C849 O841 1.258 . S
C849 O842 1.266 . S
Co850 O853 1.970 . S
Co850 N867 1.989 . S
Co850 O875 1.967 . S
Co850 O882 1.920 . S
Co851 O854 1.966 . S
Co851 N860 2.022 . S
Co851 N868 1.993 . S
Co851 O876 1.941 . S
C852 O853 1.258 . S
C852 O854 1.263 . S
O853 Co850 1.970 . S
O853 C852 1.258 . S
O854 Co851 1.966 . S
O854 C852 1.263 . S
C855 O856 1.235 . S
C855 O882 1.289 . S
O856 C855 1.235 . S
C857 C859 1.400 . S
C857 N860 1.351 . S
C857 C862 1.501 . S
C858 C859 1.387 . S
C858 N861 1.341 . S
C859 C857 1.400 . S
C859 C858 1.387 . S
N860 Co851 2.022 . S
N860 C857 1.351 . S
N860 N861 1.365 . S
N861 C858 1.341 . S
N861 N860 1.365 . S
N861 H881 0.862 . S
C862 C857 1.501 . S
C862 H863 0.961 . S
C862 H864 0.961 . S
C862 H865 0.960 . S
H863 C862 0.961 . S
H864 C862 0.961 . S
H865 C862 0.960 . S
C866 N867 1.342 . S
C866 C870 1.401 . S
C866 C871 1.499 . S
N867 Co850 1.989 . S
N867 C866 1.342 . S
N867 N868 1.388 . S
N868 Co851 1.993 . S
N868 N867 1.388 . S
N868 C869 1.346 . S
C869 N868 1.346 . S
C869 C870 1.396 . S
C869 C879 1.510 . S
C870 C866 1.401 . S
C870 C869 1.396 . S
C871 C866 1.499 . S
C871 H872 0.959 . S
C871 H873 0.960 . S
C871 H874 0.961 . S
H872 C871 0.959 . S
H873 C871 0.960 . S
H874 C871 0.961 . S
O875 Co850 1.967 . S
O875 C883 1.258 . S
O876 Co851 1.941 . S
O876 C883 1.266 . S
H877 C879 0.959 . S
H878 C879 0.961 . S
C879 C869 1.510 . S
C879 H877 0.959 . S
C879 H878 0.961 . S
C879 H880 0.960 . S
H880 C879 0.960 . S
H881 N861 0.862 . S
O882 Co850 1.920 . S
O882 C855 1.289 . S
C883 O875 1.258 . S
C883 O876 1.266 . S
Co884 O887 1.970 . S
Co884 N901 1.989 . S
Co884 O909 1.967 . S
Co884 O916 1.920 . S
Co885 O888 1.966 . S
Co885 N894 2.022 . S
Co885 N902 1.993 . S
Co885 O910 1.941 . S
C886 O887 1.258 . S
C886 O888 1.263 . S
O887 Co884 1.970 . S
O887 C886 1.258 . S
O888 Co885 1.966 . S
O888 C886 1.263 . S
C889 O890 1.235 . S
C889 O916 1.289 . S
O890 C889 1.235 . S
C891 C893 1.400 . S
C891 N894 1.351 . S
C891 C896 1.501 . S
C892 C893 1.387 . S
C892 N895 1.341 . S
C893 C891 1.400 . S
C893 C892 1.387 . S
N894 Co885 2.022 . S
N894 C891 1.351 . S
N894 N895 1.365 . S
N895 C892 1.341 . S
N895 N894 1.365 . S
N895 H915 0.862 . S
C896 C891 1.501 . S
C896 H897 0.961 . S
C896 H898 0.961 . S
C896 H899 0.960 . S
H897 C896 0.961 . S
H898 C896 0.961 . S
H899 C896 0.960 . S
C900 N901 1.342 . S
C900 C904 1.401 . S
C900 C905 1.499 . S
N901 Co884 1.989 . S
N901 C900 1.342 . S
N901 N902 1.388 . S
N902 Co885 1.993 . S
N902 N901 1.388 . S
N902 C903 1.346 . S
C903 N902 1.346 . S
C903 C904 1.396 . S
C903 C913 1.510 . S
C904 C900 1.401 . S
C904 C903 1.396 . S
C905 C900 1.499 . S
C905 H906 0.959 . S
C905 H907 0.960 . S
C905 H908 0.961 . S
H906 C905 0.959 . S
H907 C905 0.960 . S
H908 C905 0.961 . S
O909 Co884 1.967 . S
O909 C917 1.258 . S
O910 Co885 1.941 . S
O910 C917 1.266 . S
H911 C913 0.959 . S
H912 C913 0.961 . S
C913 C903 1.510 . S
C913 H911 0.959 . S
C913 H912 0.961 . S
C913 H914 0.960 . S
H914 C913 0.960 . S
H915 N895 0.862 . S
O916 Co884 1.920 . S
O916 C889 1.289 . S
C917 O909 1.258 . S
C917 O910 1.266 . S
Co918 O921 1.970 . S
Co918 N935 1.989 . S
Co918 O943 1.967 . S
Co918 O950 1.920 . S
Co919 O922 1.966 . S
Co919 N928 2.022 . S
Co919 N936 1.993 . S
Co919 O944 1.941 . S
C920 O921 1.258 . S
C920 O922 1.263 . S
O921 Co918 1.970 . S
O921 C920 1.258 . S
O922 Co919 1.966 . S
O922 C920 1.263 . S
C923 O924 1.235 . S
C923 O950 1.289 . S
O924 C923 1.235 . S
C925 C927 1.400 . S
C925 N928 1.351 . S
C925 C930 1.501 . S
C926 C927 1.387 . S
C926 N929 1.341 . S
C927 C925 1.400 . S
C927 C926 1.387 . S
N928 Co919 2.022 . S
N928 C925 1.351 . S
N928 N929 1.365 . S
N929 C926 1.341 . S
N929 N928 1.365 . S
N929 H949 0.862 . S
C930 C925 1.501 . S
C930 H931 0.961 . S
C930 H932 0.961 . S
C930 H933 0.960 . S
H931 C930 0.961 . S
H932 C930 0.961 . S
H933 C930 0.960 . S
C934 N935 1.342 . S
C934 C938 1.401 . S
C934 C939 1.499 . S
N935 Co918 1.989 . S
N935 C934 1.342 . S
N935 N936 1.388 . S
N936 Co919 1.993 . S
N936 N935 1.388 . S
N936 C937 1.346 . S
C937 N936 1.346 . S
C937 C938 1.396 . S
C937 C947 1.510 . S
C938 C934 1.401 . S
C938 C937 1.396 . S
C939 C934 1.499 . S
C939 H940 0.959 . S
C939 H941 0.960 . S
C939 H942 0.961 . S
H940 C939 0.959 . S
H941 C939 0.960 . S
H942 C939 0.961 . S
O943 Co918 1.967 . S
O943 C951 1.258 . S
O944 Co919 1.941 . S
O944 C951 1.266 . S
H945 C947 0.959 . S
H946 C947 0.961 . S
C947 C937 1.510 . S
C947 H945 0.959 . S
C947 H946 0.961 . S
C947 H948 0.960 . S
H948 C947 0.960 . S
H949 N929 0.862 . S
O950 Co918 1.920 . S
O950 C923 1.289 . S
C951 O943 1.258 . S
C951 O944 1.266 . S
Co952 O955 1.970 . S
Co952 N969 1.989 . S
Co952 O977 1.967 . S
Co952 O984 1.920 . S
Co953 O956 1.966 . S
Co953 N962 2.022 . S
Co953 N970 1.993 . S
Co953 O978 1.941 . S
C954 O955 1.258 . S
C954 O956 1.263 . S
O955 Co952 1.970 . S
O955 C954 1.258 . S
O956 Co953 1.966 . S
O956 C954 1.263 . S
C957 O958 1.235 . S
C957 O984 1.289 . S
O958 C957 1.235 . S
C959 C961 1.400 . S
C959 N962 1.351 . S
C959 C964 1.501 . S
C960 C961 1.387 . S
C960 N963 1.341 . S
C961 C959 1.400 . S
C961 C960 1.387 . S
N962 Co953 2.022 . S
N962 C959 1.351 . S
N962 N963 1.365 . S
N963 C960 1.341 . S
N963 N962 1.365 . S
N963 H983 0.862 . S
C964 C959 1.501 . S
C964 H965 0.961 . S
C964 H966 0.961 . S
C964 H967 0.960 . S
H965 C964 0.961 . S
H966 C964 0.961 . S
H967 C964 0.960 . S
C968 N969 1.342 . S
C968 C972 1.401 . S
C968 C973 1.499 . S
N969 Co952 1.989 . S
N969 C968 1.342 . S
N969 N970 1.388 . S
N970 Co953 1.993 . S
N970 N969 1.388 . S
N970 C971 1.346 . S
C971 N970 1.346 . S
C971 C972 1.396 . S
C971 C981 1.510 . S
C972 C968 1.401 . S
C972 C971 1.396 . S
C973 C968 1.499 . S
C973 H974 0.959 . S
C973 H975 0.960 . S
C973 H976 0.961 . S
H974 C973 0.959 . S
H975 C973 0.960 . S
H976 C973 0.961 . S
O977 Co952 1.967 . S
O977 C985 1.258 . S
O978 Co953 1.941 . S
O978 C985 1.266 . S
H979 C981 0.959 . S
H980 C981 0.961 . S
C981 C971 1.510 . S
C981 H979 0.959 . S
C981 H980 0.961 . S
C981 H982 0.960 . S
H982 C981 0.960 . S
H983 N963 0.862 . S
O984 Co952 1.920 . S
O984 C957 1.289 . S
C985 O977 1.258 . S
C985 O978 1.266 . S
Co986 O989 1.970 . S
Co986 N1003 1.989 . S
Co986 O1011 1.967 . S
Co986 O1018 1.920 . S
Co987 O990 1.966 . S
Co987 N996 2.022 . S
Co987 N1004 1.993 . S
Co987 O1012 1.941 . S
C988 O989 1.258 . S
C988 O990 1.263 . S
O989 Co986 1.970 . S
O989 C988 1.258 . S
O990 Co987 1.966 . S
O990 C988 1.263 . S
C991 O992 1.235 . S
C991 O1018 1.289 . S
O992 C991 1.235 . S
C993 C995 1.400 . S
C993 N996 1.351 . S
C993 C998 1.501 . S
C994 C995 1.387 . S
C994 N997 1.341 . S
C995 C993 1.400 . S
C995 C994 1.387 . S
N996 Co987 2.022 . S
N996 C993 1.351 . S
N996 N997 1.365 . S
N997 C994 1.341 . S
N997 N996 1.365 . S
N997 H1017 0.862 . S
C998 C993 1.501 . S
C998 H999 0.961 . S
C998 H1000 0.961 . S
C998 H1001 0.960 . S
H999 C998 0.961 . S
H1000 C998 0.961 . S
H1001 C998 0.960 . S
C1002 N1003 1.342 . S
C1002 C1006 1.401 . S
C1002 C1007 1.499 . S
N1003 Co986 1.989 . S
N1003 C1002 1.342 . S
N1003 N1004 1.388 . S
N1004 Co987 1.993 . S
N1004 N1003 1.388 . S
N1004 C1005 1.346 . S
C1005 N1004 1.346 . S
C1005 C1006 1.396 . S
C1005 C1015 1.510 . S
C1006 C1002 1.401 . S
C1006 C1005 1.396 . S
C1007 C1002 1.499 . S
C1007 H1008 0.959 . S
C1007 H1009 0.960 . S
C1007 H1010 0.961 . S
H1008 C1007 0.959 . S
H1009 C1007 0.960 . S
H1010 C1007 0.961 . S
O1011 Co986 1.967 . S
O1011 C1019 1.258 . S
O1012 Co987 1.941 . S
O1012 C1019 1.266 . S
H1013 C1015 0.959 . S
H1014 C1015 0.961 . S
C1015 C1005 1.510 . S
C1015 H1013 0.959 . S
C1015 H1014 0.961 . S
C1015 H1016 0.960 . S
H1016 C1015 0.960 . S
H1017 N997 0.862 . S
O1018 Co986 1.920 . S
O1018 C991 1.289 . S
C1019 O1011 1.258 . S
C1019 O1012 1.266 . S
Co1020 O1023 1.970 . S
Co1020 N1037 1.989 . S
Co1020 O1045 1.967 . S
Co1020 O1052 1.920 . S
Co1021 O1024 1.966 . S
Co1021 N1030 2.022 . S
Co1021 N1038 1.993 . S
Co1021 O1046 1.941 . S
C1022 O1023 1.258 . S
C1022 O1024 1.263 . S
O1023 Co1020 1.970 . S
O1023 C1022 1.258 . S
O1024 Co1021 1.966 . S
O1024 C1022 1.263 . S
C1025 O1026 1.235 . S
C1025 O1052 1.289 . S
O1026 C1025 1.235 . S
C1027 C1029 1.400 . S
C1027 N1030 1.351 . S
C1027 C1032 1.501 . S
C1028 C1029 1.387 . S
C1028 N1031 1.341 . S
C1029 C1027 1.400 . S
C1029 C1028 1.387 . S
N1030 Co1021 2.022 . S
N1030 C1027 1.351 . S
N1030 N1031 1.365 . S
N1031 C1028 1.341 . S
N1031 N1030 1.365 . S
N1031 H1051 0.862 . S
C1032 C1027 1.501 . S
C1032 H1033 0.961 . S
C1032 H1034 0.961 . S
C1032 H1035 0.960 . S
H1033 C1032 0.961 . S
H1034 C1032 0.961 . S
H1035 C1032 0.960 . S
C1036 N1037 1.342 . S
C1036 C1040 1.401 . S
C1036 C1041 1.499 . S
N1037 Co1020 1.989 . S
N1037 C1036 1.342 . S
N1037 N1038 1.388 . S
N1038 Co1021 1.993 . S
N1038 N1037 1.388 . S
N1038 C1039 1.346 . S
C1039 N1038 1.346 . S
C1039 C1040 1.396 . S
C1039 C1049 1.510 . S
C1040 C1036 1.401 . S
C1040 C1039 1.396 . S
C1041 C1036 1.499 . S
C1041 H1042 0.959 . S
C1041 H1043 0.960 . S
C1041 H1044 0.961 . S
H1042 C1041 0.959 . S
H1043 C1041 0.960 . S
H1044 C1041 0.961 . S
O1045 Co1020 1.967 . S
O1045 C1053 1.258 . S
O1046 Co1021 1.941 . S
O1046 C1053 1.266 . S
H1047 C1049 0.959 . S
H1048 C1049 0.961 . S
C1049 C1039 1.510 . S
C1049 H1047 0.959 . S
C1049 H1048 0.961 . S
C1049 H1050 0.960 . S
H1050 C1049 0.960 . S
H1051 N1031 0.862 . S
O1052 Co1020 1.920 . S
O1052 C1025 1.289 . S
C1053 O1045 1.258 . S
C1053 O1046 1.266 . S
Co1054 O1057 1.970 . S
Co1054 N1071 1.989 . S
Co1054 O1079 1.967 . S
Co1054 O1086 1.920 . S
Co1055 O1058 1.966 . S
Co1055 N1064 2.022 . S
Co1055 N1072 1.993 . S
Co1055 O1080 1.941 . S
C1056 O1057 1.258 . S
C1056 O1058 1.263 . S
O1057 Co1054 1.970 . S
O1057 C1056 1.258 . S
O1058 Co1055 1.966 . S
O1058 C1056 1.263 . S
C1059 O1060 1.235 . S
C1059 O1086 1.289 . S
O1060 C1059 1.235 . S
C1061 C1063 1.400 . S
C1061 N1064 1.351 . S
C1061 C1066 1.501 . S
C1062 C1063 1.387 . S
C1062 N1065 1.341 . S
C1063 C1061 1.400 . S
C1063 C1062 1.387 . S
N1064 Co1055 2.022 . S
N1064 C1061 1.351 . S
N1064 N1065 1.365 . S
N1065 C1062 1.341 . S
N1065 N1064 1.365 . S
N1065 H1085 0.862 . S
C1066 C1061 1.501 . S
C1066 H1067 0.961 . S
C1066 H1068 0.961 . S
C1066 H1069 0.960 . S
H1067 C1066 0.961 . S
H1068 C1066 0.961 . S
H1069 C1066 0.960 . S
C1070 N1071 1.342 . S
C1070 C1074 1.401 . S
C1070 C1075 1.499 . S
N1071 Co1054 1.989 . S
N1071 C1070 1.342 . S
N1071 N1072 1.388 . S
N1072 Co1055 1.993 . S
N1072 N1071 1.388 . S
N1072 C1073 1.346 . S
C1073 N1072 1.346 . S
C1073 C1074 1.396 . S
C1073 C1083 1.510 . S
C1074 C1070 1.401 . S
C1074 C1073 1.396 . S
C1075 C1070 1.499 . S
C1075 H1076 0.959 . S
C1075 H1077 0.960 . S
C1075 H1078 0.961 . S
H1076 C1075 0.959 . S
H1077 C1075 0.960 . S
H1078 C1075 0.961 . S
O1079 Co1054 1.967 . S
O1079 C1087 1.258 . S
O1080 Co1055 1.941 . S
O1080 C1087 1.266 . S
H1081 C1083 0.959 . S
H1082 C1083 0.961 . S
C1083 C1073 1.510 . S
C1083 H1081 0.959 . S
C1083 H1082 0.961 . S
C1083 H1084 0.960 . S
H1084 C1083 0.960 . S
H1085 N1065 0.862 . S
O1086 Co1054 1.920 . S
O1086 C1059 1.289 . S
C1087 O1079 1.258 . S
C1087 O1080 1.266 . S
Co1088 O1091 1.970 . S
Co1088 N1105 1.989 . S
Co1088 O1113 1.967 . S
Co1088 O1120 1.920 . S
Co1089 O1092 1.966 . S
Co1089 N1098 2.022 . S
Co1089 N1106 1.993 . S
Co1089 O1114 1.941 . S
C1090 O1091 1.258 . S
C1090 O1092 1.263 . S
O1091 Co1088 1.970 . S
O1091 C1090 1.258 . S
O1092 Co1089 1.966 . S
O1092 C1090 1.263 . S
C1093 O1094 1.235 . S
C1093 O1120 1.289 . S
O1094 C1093 1.235 . S
C1095 C1097 1.400 . S
C1095 N1098 1.351 . S
C1095 C1100 1.501 . S
C1096 C1097 1.387 . S
C1096 N1099 1.341 . S
C1097 C1095 1.400 . S
C1097 C1096 1.387 . S
N1098 Co1089 2.022 . S
N1098 C1095 1.351 . S
N1098 N1099 1.365 . S
N1099 C1096 1.341 . S
N1099 N1098 1.365 . S
N1099 H1119 0.862 . S
C1100 C1095 1.501 . S
C1100 H1101 0.961 . S
C1100 H1102 0.961 . S
C1100 H1103 0.960 . S
H1101 C1100 0.961 . S
H1102 C1100 0.961 . S
H1103 C1100 0.960 . S
C1104 N1105 1.342 . S
C1104 C1108 1.401 . S
C1104 C1109 1.499 . S
N1105 Co1088 1.989 . S
N1105 C1104 1.342 . S
N1105 N1106 1.388 . S
N1106 Co1089 1.993 . S
N1106 N1105 1.388 . S
N1106 C1107 1.346 . S
C1107 N1106 1.346 . S
C1107 C1108 1.396 . S
C1107 C1117 1.510 . S
C1108 C1104 1.401 . S
C1108 C1107 1.396 . S
C1109 C1104 1.499 . S
C1109 H1110 0.959 . S
C1109 H1111 0.960 . S
C1109 H1112 0.961 . S
H1110 C1109 0.959 . S
H1111 C1109 0.960 . S
H1112 C1109 0.961 . S
O1113 Co1088 1.967 . S
O1113 C1121 1.258 . S
O1114 Co1089 1.941 . S
O1114 C1121 1.266 . S
H1115 C1117 0.959 . S
H1116 C1117 0.961 . S
C1117 C1107 1.510 . S
C1117 H1115 0.959 . S
C1117 H1116 0.961 . S
C1117 H1118 0.960 . S
H1118 C1117 0.960 . S
H1119 N1099 0.862 . S
O1120 Co1088 1.920 . S
O1120 C1093 1.289 . S
C1121 O1113 1.258 . S
C1121 O1114 1.266 . S
Co1122 O1125 1.970 . S
Co1122 N1139 1.989 . S
Co1122 O1147 1.967 . S
Co1122 O1154 1.920 . S
Co1123 O1126 1.966 . S
Co1123 N1132 2.022 . S
Co1123 N1140 1.993 . S
Co1123 O1148 1.941 . S
C1124 O1125 1.258 . S
C1124 O1126 1.263 . S
O1125 Co1122 1.970 . S
O1125 C1124 1.258 . S
O1126 Co1123 1.966 . S
O1126 C1124 1.263 . S
C1127 O1128 1.235 . S
C1127 O1154 1.289 . S
O1128 C1127 1.235 . S
C1129 C1131 1.400 . S
C1129 N1132 1.351 . S
C1129 C1134 1.501 . S
C1130 C1131 1.387 . S
C1130 N1133 1.341 . S
C1131 C1129 1.400 . S
C1131 C1130 1.387 . S
N1132 Co1123 2.022 . S
N1132 C1129 1.351 . S
N1132 N1133 1.365 . S
N1133 C1130 1.341 . S
N1133 N1132 1.365 . S
N1133 H1153 0.862 . S
C1134 C1129 1.501 . S
C1134 H1135 0.961 . S
C1134 H1136 0.961 . S
C1134 H1137 0.960 . S
H1135 C1134 0.961 . S
H1136 C1134 0.961 . S
H1137 C1134 0.960 . S
C1138 N1139 1.342 . S
C1138 C1142 1.401 . S
C1138 C1143 1.499 . S
N1139 Co1122 1.989 . S
N1139 C1138 1.342 . S
N1139 N1140 1.388 . S
N1140 Co1123 1.993 . S
N1140 N1139 1.388 . S
N1140 C1141 1.346 . S
C1141 N1140 1.346 . S
C1141 C1142 1.396 . S
C1141 C1151 1.510 . S
C1142 C1138 1.401 . S
C1142 C1141 1.396 . S
C1143 C1138 1.499 . S
C1143 H1144 0.959 . S
C1143 H1145 0.960 . S
C1143 H1146 0.961 . S
H1144 C1143 0.959 . S
H1145 C1143 0.960 . S
H1146 C1143 0.961 . S
O1147 Co1122 1.967 . S
O1147 C1155 1.258 . S
O1148 Co1123 1.941 . S
O1148 C1155 1.266 . S
H1149 C1151 0.959 . S
H1150 C1151 0.961 . S
C1151 C1141 1.510 . S
C1151 H1149 0.959 . S
C1151 H1150 0.961 . S
C1151 H1152 0.960 . S
H1152 C1151 0.960 . S
H1153 N1133 0.862 . S
O1154 Co1122 1.920 . S
O1154 C1127 1.289 . S
C1155 O1147 1.258 . S
C1155 O1148 1.266 . S
Co1156 O1159 1.970 . S
Co1156 N1173 1.989 . S
Co1156 O1181 1.967 . S
Co1156 O1188 1.920 . S
Co1157 O1160 1.966 . S
Co1157 N1166 2.022 . S
Co1157 N1174 1.993 . S
Co1157 O1182 1.941 . S
C1158 O1159 1.258 . S
C1158 O1160 1.263 . S
O1159 Co1156 1.970 . S
O1159 C1158 1.258 . S
O1160 Co1157 1.966 . S
O1160 C1158 1.263 . S
C1161 O1162 1.235 . S
C1161 O1188 1.289 . S
O1162 C1161 1.235 . S
C1163 C1165 1.400 . S
C1163 N1166 1.351 . S
C1163 C1168 1.501 . S
C1164 C1165 1.387 . S
C1164 N1167 1.341 . S
C1165 C1163 1.400 . S
C1165 C1164 1.387 . S
N1166 Co1157 2.022 . S
N1166 C1163 1.351 . S
N1166 N1167 1.365 . S
N1167 C1164 1.341 . S
N1167 N1166 1.365 . S
N1167 H1187 0.862 . S
C1168 C1163 1.501 . S
C1168 H1169 0.961 . S
C1168 H1170 0.961 . S
C1168 H1171 0.960 . S
H1169 C1168 0.961 . S
H1170 C1168 0.961 . S
H1171 C1168 0.960 . S
C1172 N1173 1.342 . S
C1172 C1176 1.401 . S
C1172 C1177 1.499 . S
N1173 Co1156 1.989 . S
N1173 C1172 1.342 . S
N1173 N1174 1.388 . S
N1174 Co1157 1.993 . S
N1174 N1173 1.388 . S
N1174 C1175 1.346 . S
C1175 N1174 1.346 . S
C1175 C1176 1.396 . S
C1175 C1185 1.510 . S
C1176 C1172 1.401 . S
C1176 C1175 1.396 . S
C1177 C1172 1.499 . S
C1177 H1178 0.959 . S
C1177 H1179 0.960 . S
C1177 H1180 0.961 . S
H1178 C1177 0.959 . S
H1179 C1177 0.960 . S
H1180 C1177 0.961 . S
O1181 Co1156 1.967 . S
O1181 C1189 1.258 . S
O1182 Co1157 1.941 . S
O1182 C1189 1.266 . S
H1183 C1185 0.959 . S
H1184 C1185 0.961 . S
C1185 C1175 1.510 . S
C1185 H1183 0.959 . S
C1185 H1184 0.961 . S
C1185 H1186 0.960 . S
H1186 C1185 0.960 . S
H1187 N1167 0.862 . S
O1188 Co1156 1.920 . S
O1188 C1161 1.289 . S
C1189 O1181 1.258 . S
C1189 O1182 1.266 . S
Co1190 O1193 1.970 . S
Co1190 N1207 1.989 . S
Co1190 O1215 1.967 . S
Co1190 O1222 1.920 . S
Co1191 O1194 1.966 . S
Co1191 N1200 2.022 . S
Co1191 N1208 1.993 . S
Co1191 O1216 1.941 . S
C1192 O1193 1.258 . S
C1192 O1194 1.263 . S
O1193 Co1190 1.970 . S
O1193 C1192 1.258 . S
O1194 Co1191 1.966 . S
O1194 C1192 1.263 . S
C1195 O1196 1.235 . S
C1195 O1222 1.289 . S
O1196 C1195 1.235 . S
C1197 C1199 1.400 . S
C1197 N1200 1.351 . S
C1197 C1202 1.501 . S
C1198 C1199 1.387 . S
C1198 N1201 1.341 . S
C1199 C1197 1.400 . S
C1199 C1198 1.387 . S
N1200 Co1191 2.022 . S
N1200 C1197 1.351 . S
N1200 N1201 1.365 . S
N1201 C1198 1.341 . S
N1201 N1200 1.365 . S
N1201 H1221 0.862 . S
C1202 C1197 1.501 . S
C1202 H1203 0.961 . S
C1202 H1204 0.961 . S
C1202 H1205 0.960 . S
H1203 C1202 0.961 . S
H1204 C1202 0.961 . S
H1205 C1202 0.960 . S
C1206 N1207 1.342 . S
C1206 C1210 1.401 . S
C1206 C1211 1.499 . S
N1207 Co1190 1.989 . S
N1207 C1206 1.342 . S
N1207 N1208 1.388 . S
N1208 Co1191 1.993 . S
N1208 N1207 1.388 . S
N1208 C1209 1.346 . S
C1209 N1208 1.346 . S
C1209 C1210 1.396 . S
C1209 C1219 1.510 . S
C1210 C1206 1.401 . S
C1210 C1209 1.396 . S
C1211 C1206 1.499 . S
C1211 H1212 0.959 . S
C1211 H1213 0.960 . S
C1211 H1214 0.961 . S
H1212 C1211 0.959 . S
H1213 C1211 0.960 . S
H1214 C1211 0.961 . S
O1215 Co1190 1.967 . S
O1215 C1223 1.258 . S
O1216 Co1191 1.941 . S
O1216 C1223 1.266 . S
H1217 C1219 0.959 . S
H1218 C1219 0.961 . S
C1219 C1209 1.510 . S
C1219 H1217 0.959 . S
C1219 H1218 0.961 . S
C1219 H1220 0.960 . S
H1220 C1219 0.960 . S
H1221 N1201 0.862 . S
O1222 Co1190 1.920 . S
O1222 C1195 1.289 . S
C1223 O1215 1.258 . S
C1223 O1216 1.266 . S
Co1224 O1227 1.970 . S
Co1224 N1241 1.989 . S
Co1224 O1249 1.967 . S
Co1224 O1256 1.920 . S
Co1225 O1228 1.966 . S
Co1225 N1234 2.022 . S
Co1225 N1242 1.993 . S
Co1225 O1250 1.941 . S
C1226 O1227 1.258 . S
C1226 O1228 1.263 . S
O1227 Co1224 1.970 . S
O1227 C1226 1.258 . S
O1228 Co1225 1.966 . S
O1228 C1226 1.263 . S
C1229 O1230 1.235 . S
C1229 O1256 1.289 . S
O1230 C1229 1.235 . S
C1231 C1233 1.400 . S
C1231 N1234 1.351 . S
C1231 C1236 1.501 . S
C1232 C1233 1.387 . S
C1232 N1235 1.341 . S
C1233 C1231 1.400 . S
C1233 C1232 1.387 . S
N1234 Co1225 2.022 . S
N1234 C1231 1.351 . S
N1234 N1235 1.365 . S
N1235 C1232 1.341 . S
N1235 N1234 1.365 . S
N1235 H1255 0.862 . S
C1236 C1231 1.501 . S
C1236 H1237 0.961 . S
C1236 H1238 0.961 . S
C1236 H1239 0.960 . S
H1237 C1236 0.961 . S
H1238 C1236 0.961 . S
H1239 C1236 0.960 . S
C1240 N1241 1.342 . S
C1240 C1244 1.401 . S
C1240 C1245 1.499 . S
N1241 Co1224 1.989 . S
N1241 C1240 1.342 . S
N1241 N1242 1.388 . S
N1242 Co1225 1.993 . S
N1242 N1241 1.388 . S
N1242 C1243 1.346 . S
C1243 N1242 1.346 . S
C1243 C1244 1.396 . S
C1243 C1253 1.510 . S
C1244 C1240 1.401 . S
C1244 C1243 1.396 . S
C1245 C1240 1.499 . S
C1245 H1246 0.959 . S
C1245 H1247 0.960 . S
C1245 H1248 0.961 . S
H1246 C1245 0.959 . S
H1247 C1245 0.960 . S
H1248 C1245 0.961 . S
O1249 Co1224 1.967 . S
O1249 C1257 1.258 . S
O1250 Co1225 1.941 . S
O1250 C1257 1.266 . S
H1251 C1253 0.959 . S
H1252 C1253 0.961 . S
C1253 C1243 1.510 . S
C1253 H1251 0.959 . S
C1253 H1252 0.961 . S
C1253 H1254 0.960 . S
H1254 C1253 0.960 . S
H1255 N1235 0.862 . S
O1256 Co1224 1.920 . S
O1256 C1229 1.289 . S
C1257 O1249 1.258 . S
C1257 O1250 1.266 . S
Co1258 O1261 1.970 . S
Co1258 N1275 1.989 . S
Co1258 O1283 1.967 . S
Co1258 O1290 1.920 . S
Co1259 O1262 1.966 . S
Co1259 N1268 2.022 . S
Co1259 N1276 1.993 . S
Co1259 O1284 1.941 . S
C1260 O1261 1.258 . S
C1260 O1262 1.263 . S
O1261 Co1258 1.970 . S
O1261 C1260 1.258 . S
O1262 Co1259 1.966 . S
O1262 C1260 1.263 . S
C1263 O1264 1.235 . S
C1263 O1290 1.289 . S
O1264 C1263 1.235 . S
C1265 C1267 1.400 . S
C1265 N1268 1.351 . S
C1265 C1270 1.501 . S
C1266 C1267 1.387 . S
C1266 N1269 1.341 . S
C1267 C1265 1.400 . S
C1267 C1266 1.387 . S
N1268 Co1259 2.022 . S
N1268 C1265 1.351 . S
N1268 N1269 1.365 . S
N1269 C1266 1.341 . S
N1269 N1268 1.365 . S
N1269 H1289 0.862 . S
C1270 C1265 1.501 . S
C1270 H1271 0.961 . S
C1270 H1272 0.961 . S
C1270 H1273 0.960 . S
H1271 C1270 0.961 . S
H1272 C1270 0.961 . S
H1273 C1270 0.960 . S
C1274 N1275 1.342 . S
C1274 C1278 1.401 . S
C1274 C1279 1.499 . S
N1275 Co1258 1.989 . S
N1275 C1274 1.342 . S
N1275 N1276 1.388 . S
N1276 Co1259 1.993 . S
N1276 N1275 1.388 . S
N1276 C1277 1.346 . S
C1277 N1276 1.346 . S
C1277 C1278 1.396 . S
C1277 C1287 1.510 . S
C1278 C1274 1.401 . S
C1278 C1277 1.396 . S
C1279 C1274 1.499 . S
C1279 H1280 0.959 . S
C1279 H1281 0.960 . S
C1279 H1282 0.961 . S
H1280 C1279 0.959 . S
H1281 C1279 0.960 . S
H1282 C1279 0.961 . S
O1283 Co1258 1.967 . S
O1283 C1291 1.258 . S
O1284 Co1259 1.941 . S
O1284 C1291 1.266 . S
H1285 C1287 0.959 . S
H1286 C1287 0.961 . S
C1287 C1277 1.510 . S
C1287 H1285 0.959 . S
C1287 H1286 0.961 . S
C1287 H1288 0.960 . S
H1288 C1287 0.960 . S
H1289 N1269 0.862 . S
O1290 Co1258 1.920 . S
O1290 C1263 1.289 . S
C1291 O1283 1.258 . S
C1291 O1284 1.266 . S
Co1292 O1295 1.970 . S
Co1292 N1309 1.989 . S
Co1292 O1317 1.967 . S
Co1292 O1324 1.920 . S
Co1293 O1296 1.966 . S
Co1293 N1302 2.022 . S
Co1293 N1310 1.993 . S
Co1293 O1318 1.941 . S
C1294 O1295 1.258 . S
C1294 O1296 1.263 . S
O1295 Co1292 1.970 . S
O1295 C1294 1.258 . S
O1296 Co1293 1.966 . S
O1296 C1294 1.263 . S
C1297 O1298 1.235 . S
C1297 O1324 1.289 . S
O1298 C1297 1.235 . S
C1299 C1301 1.400 . S
C1299 N1302 1.351 . S
C1299 C1304 1.501 . S
C1300 C1301 1.387 . S
C1300 N1303 1.341 . S
C1301 C1299 1.400 . S
C1301 C1300 1.387 . S
N1302 Co1293 2.022 . S
N1302 C1299 1.351 . S
N1302 N1303 1.365 . S
N1303 C1300 1.341 . S
N1303 N1302 1.365 . S
N1303 H1323 0.862 . S
C1304 C1299 1.501 . S
C1304 H1305 0.961 . S
C1304 H1306 0.961 . S
C1304 H1307 0.960 . S
H1305 C1304 0.961 . S
H1306 C1304 0.961 . S
H1307 C1304 0.960 . S
C1308 N1309 1.342 . S
C1308 C1312 1.401 . S
C1308 C1313 1.499 . S
N1309 Co1292 1.989 . S
N1309 C1308 1.342 . S
N1309 N1310 1.388 . S
N1310 Co1293 1.993 . S
N1310 N1309 1.388 . S
N1310 C1311 1.346 . S
C1311 N1310 1.346 . S
C1311 C1312 1.396 . S
C1311 C1321 1.510 . S
C1312 C1308 1.401 . S
C1312 C1311 1.396 . S
C1313 C1308 1.499 . S
C1313 H1314 0.959 . S
C1313 H1315 0.960 . S
C1313 H1316 0.961 . S
H1314 C1313 0.959 . S
H1315 C1313 0.960 . S
H1316 C1313 0.961 . S
O1317 Co1292 1.967 . S
O1317 C1325 1.258 . S
O1318 Co1293 1.941 . S
O1318 C1325 1.266 . S
H1319 C1321 0.959 . S
H1320 C1321 0.961 . S
C1321 C1311 1.510 . S
C1321 H1319 0.959 . S
C1321 H1320 0.961 . S
C1321 H1322 0.960 . S
H1322 C1321 0.960 . S
H1323 N1303 0.862 . S
O1324 Co1292 1.920 . S
O1324 C1297 1.289 . S
C1325 O1317 1.258 . S
C1325 O1318 1.266 . S
Co1326 O1329 1.970 . S
Co1326 N1343 1.989 . S
Co1326 O1351 1.967 . S
Co1326 O1358 1.920 . S
Co1327 O1330 1.966 . S
Co1327 N1336 2.022 . S
Co1327 N1344 1.993 . S
Co1327 O1352 1.941 . S
C1328 O1329 1.258 . S
C1328 O1330 1.263 . S
O1329 Co1326 1.970 . S
O1329 C1328 1.258 . S
O1330 Co1327 1.966 . S
O1330 C1328 1.263 . S
C1331 O1332 1.235 . S
C1331 O1358 1.289 . S
O1332 C1331 1.235 . S
C1333 C1335 1.400 . S
C1333 N1336 1.351 . S
C1333 C1338 1.501 . S
C1334 C1335 1.387 . S
C1334 N1337 1.341 . S
C1335 C1333 1.400 . S
C1335 C1334 1.387 . S
N1336 Co1327 2.022 . S
N1336 C1333 1.351 . S
N1336 N1337 1.365 . S
N1337 C1334 1.341 . S
N1337 N1336 1.365 . S
N1337 H1357 0.862 . S
C1338 C1333 1.501 . S
C1338 H1339 0.961 . S
C1338 H1340 0.961 . S
C1338 H1341 0.960 . S
H1339 C1338 0.961 . S
H1340 C1338 0.961 . S
H1341 C1338 0.960 . S
C1342 N1343 1.342 . S
C1342 C1346 1.401 . S
C1342 C1347 1.499 . S
N1343 Co1326 1.989 . S
N1343 C1342 1.342 . S
N1343 N1344 1.388 . S
N1344 Co1327 1.993 . S
N1344 N1343 1.388 . S
N1344 C1345 1.346 . S
C1345 N1344 1.346 . S
C1345 C1346 1.396 . S
C1345 C1355 1.510 . S
C1346 C1342 1.401 . S
C1346 C1345 1.396 . S
C1347 C1342 1.499 . S
C1347 H1348 0.959 . S
C1347 H1349 0.960 . S
C1347 H1350 0.961 . S
H1348 C1347 0.959 . S
H1349 C1347 0.960 . S
H1350 C1347 0.961 . S
O1351 Co1326 1.967 . S
O1351 C1359 1.258 . S
O1352 Co1327 1.941 . S
O1352 C1359 1.266 . S
H1353 C1355 0.959 . S
H1354 C1355 0.961 . S
C1355 C1345 1.510 . S
C1355 H1353 0.959 . S
C1355 H1354 0.961 . S
C1355 H1356 0.960 . S
H1356 C1355 0.960 . S
H1357 N1337 0.862 . S
O1358 Co1326 1.920 . S
O1358 C1331 1.289 . S
C1359 O1351 1.258 . S
C1359 O1352 1.266 . S
Co1360 O1363 1.970 . S
Co1360 N1377 1.989 . S
Co1360 O1385 1.967 . S
Co1360 O1392 1.920 . S
Co1361 O1364 1.966 . S
Co1361 N1370 2.022 . S
Co1361 N1378 1.993 . S
Co1361 O1386 1.941 . S
C1362 O1363 1.258 . S
C1362 O1364 1.263 . S
O1363 Co1360 1.970 . S
O1363 C1362 1.258 . S
O1364 Co1361 1.966 . S
O1364 C1362 1.263 . S
C1365 O1366 1.235 . S
C1365 O1392 1.289 . S
O1366 C1365 1.235 . S
C1367 C1369 1.400 . S
C1367 N1370 1.351 . S
C1367 C1372 1.501 . S
C1368 C1369 1.387 . S
C1368 N1371 1.341 . S
C1369 C1367 1.400 . S
C1369 C1368 1.387 . S
N1370 Co1361 2.022 . S
N1370 C1367 1.351 . S
N1370 N1371 1.365 . S
N1371 C1368 1.341 . S
N1371 N1370 1.365 . S
N1371 H1391 0.862 . S
C1372 C1367 1.501 . S
C1372 H1373 0.961 . S
C1372 H1374 0.961 . S
C1372 H1375 0.960 . S
H1373 C1372 0.961 . S
H1374 C1372 0.961 . S
H1375 C1372 0.960 . S
C1376 N1377 1.342 . S
C1376 C1380 1.401 . S
C1376 C1381 1.499 . S
N1377 Co1360 1.989 . S
N1377 C1376 1.342 . S
N1377 N1378 1.388 . S
N1378 Co1361 1.993 . S
N1378 N1377 1.388 . S
N1378 C1379 1.346 . S
C1379 N1378 1.346 . S
C1379 C1380 1.396 . S
C1379 C1389 1.510 . S
C1380 C1376 1.401 . S
C1380 C1379 1.396 . S
C1381 C1376 1.499 . S
C1381 H1382 0.959 . S
C1381 H1383 0.960 . S
C1381 H1384 0.961 . S
H1382 C1381 0.959 . S
H1383 C1381 0.960 . S
H1384 C1381 0.961 . S
O1385 Co1360 1.967 . S
O1385 C1393 1.258 . S
O1386 Co1361 1.941 . S
O1386 C1393 1.266 . S
H1387 C1389 0.959 . S
H1388 C1389 0.961 . S
C1389 C1379 1.510 . S
C1389 H1387 0.959 . S
C1389 H1388 0.961 . S
C1389 H1390 0.960 . S
H1390 C1389 0.960 . S
H1391 N1371 0.862 . S
O1392 Co1360 1.920 . S
O1392 C1365 1.289 . S
C1393 O1385 1.258 . S
C1393 O1386 1.266 . S
Co1394 O1397 1.970 . S
Co1394 N1411 1.989 . S
Co1394 O1419 1.967 . S
Co1394 O1426 1.920 . S
Co1395 O1398 1.966 . S
Co1395 N1404 2.022 . S
Co1395 N1412 1.993 . S
Co1395 O1420 1.941 . S
C1396 O1397 1.258 . S
C1396 O1398 1.263 . S
O1397 Co1394 1.970 . S
O1397 C1396 1.258 . S
O1398 Co1395 1.966 . S
O1398 C1396 1.263 . S
C1399 O1400 1.235 . S
C1399 O1426 1.289 . S
O1400 C1399 1.235 . S
C1401 C1403 1.400 . S
C1401 N1404 1.351 . S
C1401 C1406 1.501 . S
C1402 C1403 1.387 . S
C1402 N1405 1.341 . S
C1403 C1401 1.400 . S
C1403 C1402 1.387 . S
N1404 Co1395 2.022 . S
N1404 C1401 1.351 . S
N1404 N1405 1.365 . S
N1405 C1402 1.341 . S
N1405 N1404 1.365 . S
N1405 H1425 0.862 . S
C1406 C1401 1.501 . S
C1406 H1407 0.961 . S
C1406 H1408 0.961 . S
C1406 H1409 0.960 . S
H1407 C1406 0.961 . S
H1408 C1406 0.961 . S
H1409 C1406 0.960 . S
C1410 N1411 1.342 . S
C1410 C1414 1.401 . S
C1410 C1415 1.499 . S
N1411 Co1394 1.989 . S
N1411 C1410 1.342 . S
N1411 N1412 1.388 . S
N1412 Co1395 1.993 . S
N1412 N1411 1.388 . S
N1412 C1413 1.346 . S
C1413 N1412 1.346 . S
C1413 C1414 1.396 . S
C1413 C1423 1.510 . S
C1414 C1410 1.401 . S
C1414 C1413 1.396 . S
C1415 C1410 1.499 . S
C1415 H1416 0.959 . S
C1415 H1417 0.960 . S
C1415 H1418 0.961 . S
H1416 C1415 0.959 . S
H1417 C1415 0.960 . S
H1418 C1415 0.961 . S
O1419 Co1394 1.967 . S
O1419 C1427 1.258 . S
O1420 Co1395 1.941 . S
O1420 C1427 1.266 . S
H1421 C1423 0.959 . S
H1422 C1423 0.961 . S
C1423 C1413 1.510 . S
C1423 H1421 0.959 . S
C1423 H1422 0.961 . S
C1423 H1424 0.960 . S
H1424 C1423 0.960 . S
H1425 N1405 0.862 . S
O1426 Co1394 1.920 . S
O1426 C1399 1.289 . S
C1427 O1419 1.258 . S
C1427 O1420 1.266 . S
Co1428 O1431 1.970 . S
Co1428 N1445 1.989 . S
Co1428 O1453 1.967 . S
Co1428 O1460 1.920 . S
Co1429 O1432 1.966 . S
Co1429 N1438 2.022 . S
Co1429 N1446 1.993 . S
Co1429 O1454 1.941 . S
C1430 O1431 1.258 . S
C1430 O1432 1.263 . S
O1431 Co1428 1.970 . S
O1431 C1430 1.258 . S
O1432 Co1429 1.966 . S
O1432 C1430 1.263 . S
C1433 O1434 1.235 . S
C1433 O1460 1.289 . S
O1434 C1433 1.235 . S
C1435 C1437 1.400 . S
C1435 N1438 1.351 . S
C1435 C1440 1.501 . S
C1436 C1437 1.387 . S
C1436 N1439 1.341 . S
C1437 C1435 1.400 . S
C1437 C1436 1.387 . S
N1438 Co1429 2.022 . S
N1438 C1435 1.351 . S
N1438 N1439 1.365 . S
N1439 C1436 1.341 . S
N1439 N1438 1.365 . S
N1439 H1459 0.862 . S
C1440 C1435 1.501 . S
C1440 H1441 0.961 . S
C1440 H1442 0.961 . S
C1440 H1443 0.960 . S
H1441 C1440 0.961 . S
H1442 C1440 0.961 . S
H1443 C1440 0.960 . S
C1444 N1445 1.342 . S
C1444 C1448 1.401 . S
C1444 C1449 1.499 . S
N1445 Co1428 1.989 . S
N1445 C1444 1.342 . S
N1445 N1446 1.388 . S
N1446 Co1429 1.993 . S
N1446 N1445 1.388 . S
N1446 C1447 1.346 . S
C1447 N1446 1.346 . S
C1447 C1448 1.396 . S
C1447 C1457 1.510 . S
C1448 C1444 1.401 . S
C1448 C1447 1.396 . S
C1449 C1444 1.499 . S
C1449 H1450 0.959 . S
C1449 H1451 0.960 . S
C1449 H1452 0.961 . S
H1450 C1449 0.959 . S
H1451 C1449 0.960 . S
H1452 C1449 0.961 . S
O1453 Co1428 1.967 . S
O1453 C1461 1.258 . S
O1454 Co1429 1.941 . S
O1454 C1461 1.266 . S
H1455 C1457 0.959 . S
H1456 C1457 0.961 . S
C1457 C1447 1.510 . S
C1457 H1455 0.959 . S
C1457 H1456 0.961 . S
C1457 H1458 0.960 . S
H1458 C1457 0.960 . S
H1459 N1439 0.862 . S
O1460 Co1428 1.920 . S
O1460 C1433 1.289 . S
C1461 O1453 1.258 . S
C1461 O1454 1.266 . S
Co1462 O1465 1.970 . S
Co1462 N1479 1.989 . S
Co1462 O1487 1.967 . S
Co1462 O1494 1.920 . S
Co1463 O1466 1.966 . S
Co1463 N1472 2.022 . S
Co1463 N1480 1.993 . S
Co1463 O1488 1.941 . S
C1464 O1465 1.258 . S
C1464 O1466 1.263 . S
O1465 Co1462 1.970 . S
O1465 C1464 1.258 . S
O1466 Co1463 1.966 . S
O1466 C1464 1.263 . S
C1467 O1468 1.235 . S
C1467 O1494 1.289 . S
O1468 C1467 1.235 . S
C1469 C1471 1.400 . S
C1469 N1472 1.351 . S
C1469 C1474 1.501 . S
C1470 C1471 1.387 . S
C1470 N1473 1.341 . S
C1471 C1469 1.400 . S
C1471 C1470 1.387 . S
N1472 Co1463 2.022 . S
N1472 C1469 1.351 . S
N1472 N1473 1.365 . S
N1473 C1470 1.341 . S
N1473 N1472 1.365 . S
N1473 H1493 0.862 . S
C1474 C1469 1.501 . S
C1474 H1475 0.961 . S
C1474 H1476 0.961 . S
C1474 H1477 0.960 . S
H1475 C1474 0.961 . S
H1476 C1474 0.961 . S
H1477 C1474 0.960 . S
C1478 N1479 1.342 . S
C1478 C1482 1.401 . S
C1478 C1483 1.499 . S
N1479 Co1462 1.989 . S
N1479 C1478 1.342 . S
N1479 N1480 1.388 . S
N1480 Co1463 1.993 . S
N1480 N1479 1.388 . S
N1480 C1481 1.346 . S
C1481 N1480 1.346 . S
C1481 C1482 1.396 . S
C1481 C1491 1.510 . S
C1482 C1478 1.401 . S
C1482 C1481 1.396 . S
C1483 C1478 1.499 . S
C1483 H1484 0.959 . S
C1483 H1485 0.960 . S
C1483 H1486 0.961 . S
H1484 C1483 0.959 . S
H1485 C1483 0.960 . S
H1486 C1483 0.961 . S
O1487 Co1462 1.967 . S
O1487 C1495 1.258 . S
O1488 Co1463 1.941 . S
O1488 C1495 1.266 . S
H1489 C1491 0.959 . S
H1490 C1491 0.961 . S
C1491 C1481 1.510 . S
C1491 H1489 0.959 . S
C1491 H1490 0.961 . S
C1491 H1492 0.960 . S
H1492 C1491 0.960 . S
H1493 N1473 0.862 . S
O1494 Co1462 1.920 . S
O1494 C1467 1.289 . S
C1495 O1487 1.258 . S
C1495 O1488 1.266 . S
Co1496 O1499 1.970 . S
Co1496 N1513 1.989 . S
Co1496 O1521 1.967 . S
Co1496 O1528 1.920 . S
Co1497 O1500 1.966 . S
Co1497 N1506 2.022 . S
Co1497 N1514 1.993 . S
Co1497 O1522 1.941 . S
C1498 O1499 1.258 . S
C1498 O1500 1.263 . S
O1499 Co1496 1.970 . S
O1499 C1498 1.258 . S
O1500 Co1497 1.966 . S
O1500 C1498 1.263 . S
C1501 O1502 1.235 . S
C1501 O1528 1.289 . S
O1502 C1501 1.235 . S
C1503 C1505 1.400 . S
C1503 N1506 1.351 . S
C1503 C1508 1.501 . S
C1504 C1505 1.387 . S
C1504 N1507 1.341 . S
C1505 C1503 1.400 . S
C1505 C1504 1.387 . S
N1506 Co1497 2.022 . S
N1506 C1503 1.351 . S
N1506 N1507 1.365 . S
N1507 C1504 1.341 . S
N1507 N1506 1.365 . S
N1507 H1527 0.862 . S
C1508 C1503 1.501 . S
C1508 H1509 0.961 . S
C1508 H1510 0.961 . S
C1508 H1511 0.960 . S
H1509 C1508 0.961 . S
H1510 C1508 0.961 . S
H1511 C1508 0.960 . S
C1512 N1513 1.342 . S
C1512 C1516 1.401 . S
C1512 C1517 1.499 . S
N1513 Co1496 1.989 . S
N1513 C1512 1.342 . S
N1513 N1514 1.388 . S
N1514 Co1497 1.993 . S
N1514 N1513 1.388 . S
N1514 C1515 1.346 . S
C1515 N1514 1.346 . S
C1515 C1516 1.396 . S
C1515 C1525 1.510 . S
C1516 C1512 1.401 . S
C1516 C1515 1.396 . S
C1517 C1512 1.499 . S
C1517 H1518 0.959 . S
C1517 H1519 0.960 . S
C1517 H1520 0.961 . S
H1518 C1517 0.959 . S
H1519 C1517 0.960 . S
H1520 C1517 0.961 . S
O1521 Co1496 1.967 . S
O1521 C1529 1.258 . S
O1522 Co1497 1.941 . S
O1522 C1529 1.266 . S
H1523 C1525 0.959 . S
H1524 C1525 0.961 . S
C1525 C1515 1.510 . S
C1525 H1523 0.959 . S
C1525 H1524 0.961 . S
C1525 H1526 0.960 . S
H1526 C1525 0.960 . S
H1527 N1507 0.862 . S
O1528 Co1496 1.920 . S
O1528 C1501 1.289 . S
C1529 O1521 1.258 . S
C1529 O1522 1.266 . S
Co1530 O1533 1.970 . S
Co1530 N1547 1.989 . S
Co1530 O1555 1.967 . S
Co1530 O1562 1.920 . S
Co1531 O1534 1.966 . S
Co1531 N1540 2.022 . S
Co1531 N1548 1.993 . S
Co1531 O1556 1.941 . S
C1532 O1533 1.258 . S
C1532 O1534 1.263 . S
O1533 Co1530 1.970 . S
O1533 C1532 1.258 . S
O1534 Co1531 1.966 . S
O1534 C1532 1.263 . S
C1535 O1536 1.235 . S
C1535 O1562 1.289 . S
O1536 C1535 1.235 . S
C1537 C1539 1.400 . S
C1537 N1540 1.351 . S
C1537 C1542 1.501 . S
C1538 C1539 1.387 . S
C1538 N1541 1.341 . S
C1539 C1537 1.400 . S
C1539 C1538 1.387 . S
N1540 Co1531 2.022 . S
N1540 C1537 1.351 . S
N1540 N1541 1.365 . S
N1541 C1538 1.341 . S
N1541 N1540 1.365 . S
N1541 H1561 0.862 . S
C1542 C1537 1.501 . S
C1542 H1543 0.961 . S
C1542 H1544 0.961 . S
C1542 H1545 0.960 . S
H1543 C1542 0.961 . S
H1544 C1542 0.961 . S
H1545 C1542 0.960 . S
C1546 N1547 1.342 . S
C1546 C1550 1.401 . S
C1546 C1551 1.499 . S
N1547 Co1530 1.989 . S
N1547 C1546 1.342 . S
N1547 N1548 1.388 . S
N1548 Co1531 1.993 . S
N1548 N1547 1.388 . S
N1548 C1549 1.346 . S
C1549 N1548 1.346 . S
C1549 C1550 1.396 . S
C1549 C1559 1.510 . S
C1550 C1546 1.401 . S
C1550 C1549 1.396 . S
C1551 C1546 1.499 . S
C1551 H1552 0.959 . S
C1551 H1553 0.960 . S
C1551 H1554 0.961 . S
H1552 C1551 0.959 . S
H1553 C1551 0.960 . S
H1554 C1551 0.961 . S
O1555 Co1530 1.967 . S
O1555 C1563 1.258 . S
O1556 Co1531 1.941 . S
O1556 C1563 1.266 . S
H1557 C1559 0.959 . S
H1558 C1559 0.961 . S
C1559 C1549 1.510 . S
C1559 H1557 0.959 . S
C1559 H1558 0.961 . S
C1559 H1560 0.960 . S
H1560 C1559 0.960 . S
H1561 N1541 0.862 . S
O1562 Co1530 1.920 . S
O1562 C1535 1.289 . S
C1563 O1555 1.258 . S
C1563 O1556 1.266 . S
Co1564 O1567 1.970 . S
Co1564 N1581 1.989 . S
Co1564 O1589 1.967 . S
Co1564 O1596 1.920 . S
Co1565 O1568 1.966 . S
Co1565 N1574 2.022 . S
Co1565 N1582 1.993 . S
Co1565 O1590 1.941 . S
C1566 O1567 1.258 . S
C1566 O1568 1.263 . S
O1567 Co1564 1.970 . S
O1567 C1566 1.258 . S
O1568 Co1565 1.966 . S
O1568 C1566 1.263 . S
C1569 O1570 1.235 . S
C1569 O1596 1.289 . S
O1570 C1569 1.235 . S
C1571 C1573 1.400 . S
C1571 N1574 1.351 . S
C1571 C1576 1.501 . S
C1572 C1573 1.387 . S
C1572 N1575 1.341 . S
C1573 C1571 1.400 . S
C1573 C1572 1.387 . S
N1574 Co1565 2.022 . S
N1574 C1571 1.351 . S
N1574 N1575 1.365 . S
N1575 C1572 1.341 . S
N1575 N1574 1.365 . S
N1575 H1595 0.862 . S
C1576 C1571 1.501 . S
C1576 H1577 0.961 . S
C1576 H1578 0.961 . S
C1576 H1579 0.960 . S
H1577 C1576 0.961 . S
H1578 C1576 0.961 . S
H1579 C1576 0.960 . S
C1580 N1581 1.342 . S
C1580 C1584 1.401 . S
C1580 C1585 1.499 . S
N1581 Co1564 1.989 . S
N1581 C1580 1.342 . S
N1581 N1582 1.388 . S
N1582 Co1565 1.993 . S
N1582 N1581 1.388 . S
N1582 C1583 1.346 . S
C1583 N1582 1.346 . S
C1583 C1584 1.396 . S
C1583 C1593 1.510 . S
C1584 C1580 1.401 . S
C1584 C1583 1.396 . S
C1585 C1580 1.499 . S
C1585 H1586 0.959 . S
C1585 H1587 0.960 . S
C1585 H1588 0.961 . S
H1586 C1585 0.959 . S
H1587 C1585 0.960 . S
H1588 C1585 0.961 . S
O1589 Co1564 1.967 . S
O1589 C1597 1.258 . S
O1590 Co1565 1.941 . S
O1590 C1597 1.266 . S
H1591 C1593 0.959 . S
H1592 C1593 0.961 . S
C1593 C1583 1.510 . S
C1593 H1591 0.959 . S
C1593 H1592 0.961 . S
C1593 H1594 0.960 . S
H1594 C1593 0.960 . S
H1595 N1575 0.862 . S
O1596 Co1564 1.920 . S
O1596 C1569 1.289 . S
C1597 O1589 1.258 . S
C1597 O1590 1.266 . S
Co1598 O1601 1.970 . S
Co1598 N1615 1.989 . S
Co1598 O1623 1.967 . S
Co1598 O1630 1.920 . S
Co1599 O1602 1.966 . S
Co1599 N1608 2.022 . S
Co1599 N1616 1.993 . S
Co1599 O1624 1.941 . S
C1600 O1601 1.258 . S
C1600 O1602 1.263 . S
O1601 Co1598 1.970 . S
O1601 C1600 1.258 . S
O1602 Co1599 1.966 . S
O1602 C1600 1.263 . S
C1603 O1604 1.235 . S
C1603 O1630 1.289 . S
O1604 C1603 1.235 . S
C1605 C1607 1.400 . S
C1605 N1608 1.351 . S
C1605 C1610 1.501 . S
C1606 C1607 1.387 . S
C1606 N1609 1.341 . S
C1607 C1605 1.400 . S
C1607 C1606 1.387 . S
N1608 Co1599 2.022 . S
N1608 C1605 1.351 . S
N1608 N1609 1.365 . S
N1609 C1606 1.341 . S
N1609 N1608 1.365 . S
N1609 H1629 0.862 . S
C1610 C1605 1.501 . S
C1610 H1611 0.961 . S
C1610 H1612 0.961 . S
C1610 H1613 0.960 . S
H1611 C1610 0.961 . S
H1612 C1610 0.961 . S
H1613 C1610 0.960 . S
C1614 N1615 1.342 . S
C1614 C1618 1.401 . S
C1614 C1619 1.499 . S
N1615 Co1598 1.989 . S
N1615 C1614 1.342 . S
N1615 N1616 1.388 . S
N1616 Co1599 1.993 . S
N1616 N1615 1.388 . S
N1616 C1617 1.346 . S
C1617 N1616 1.346 . S
C1617 C1618 1.396 . S
C1617 C1627 1.510 . S
C1618 C1614 1.401 . S
C1618 C1617 1.396 . S
C1619 C1614 1.499 . S
C1619 H1620 0.959 . S
C1619 H1621 0.960 . S
C1619 H1622 0.961 . S
H1620 C1619 0.959 . S
H1621 C1619 0.960 . S
H1622 C1619 0.961 . S
O1623 Co1598 1.967 . S
O1623 C1631 1.258 . S
O1624 Co1599 1.941 . S
O1624 C1631 1.266 . S
H1625 C1627 0.959 . S
H1626 C1627 0.961 . S
C1627 C1617 1.510 . S
C1627 H1625 0.959 . S
C1627 H1626 0.961 . S
C1627 H1628 0.960 . S
H1628 C1627 0.960 . S
H1629 N1609 0.862 . S
O1630 Co1598 1.920 . S
O1630 C1603 1.289 . S
C1631 O1623 1.258 . S
C1631 O1624 1.266 . S
C1632 C1633 1.369 . S
C1632 C1634 1.419 . S
C1632 H1636 0.930 . S
C1633 C1632 1.369 . S
C1633 C1642 1.429 . S
C1634 C1632 1.419 . S
C1634 C1635 1.363 . S
C1634 H1637 0.929 . S
C1635 C1634 1.363 . S
C1635 C1641 1.428 . S
H1636 C1632 0.930 . S
H1637 C1634 0.929 . S
S1638 N1639 1.613 . S
S1638 N1640 1.610 . S
N1639 S1638 1.613 . S
N1639 C1642 1.350 . S
N1640 S1638 1.610 . S
N1640 C1641 1.351 . S
C1641 C1635 1.428 . S
C1641 N1640 1.351 . S
C1641 C1642 1.434 . S
C1642 C1633 1.429 . S
C1642 N1639 1.350 . S
C1642 C1641 1.434 . S
C1643 C1644 1.369 . S
C1643 C1645 1.419 . S
C1643 H1647 0.930 . S
C1644 C1643 1.369 . S
C1644 C1653 1.429 . S
C1645 C1643 1.419 . S
C1645 C1646 1.363 . S
C1645 H1648 0.929 . S
C1646 C1645 1.363 . S
C1646 C1652 1.428 . S
H1647 C1643 0.930 . S
H1648 C1645 0.929 . S
S1649 N1650 1.613 . S
S1649 N1651 1.610 . S
N1650 S1649 1.613 . S
N1650 C1653 1.350 . S
N1651 S1649 1.610 . S
N1651 C1652 1.351 . S
C1652 C1646 1.428 . S
C1652 N1651 1.351 . S
C1652 C1653 1.434 . S
C1653 C1644 1.429 . S
C1653 N1650 1.350 . S
C1653 C1652 1.434 . S
C1654 C1655 1.369 . S
C1654 C1656 1.419 . S
C1654 H1658 0.930 . S
C1655 C1654 1.369 . S
C1655 C1664 1.429 . S
C1656 C1654 1.419 . S
C1656 C1657 1.363 . S
C1656 H1659 0.929 . S
C1657 C1656 1.363 . S
C1657 C1663 1.428 . S
H1658 C1654 0.930 . S
H1659 C1656 0.929 . S
S1660 N1661 1.613 . S
S1660 N1662 1.610 . S
N1661 S1660 1.613 . S
N1661 C1664 1.350 . S
N1662 S1660 1.610 . S
N1662 C1663 1.351 . S
C1663 C1657 1.428 . S
C1663 N1662 1.351 . S
C1663 C1664 1.434 . S
C1664 C1655 1.429 . S
C1664 N1661 1.350 . S
C1664 C1663 1.434 . S
C1665 C1666 1.369 . S
C1665 C1667 1.419 . S
C1665 H1669 0.930 . S
C1666 C1665 1.369 . S
C1666 C1675 1.429 . S
C1667 C1665 1.419 . S
C1667 C1668 1.363 . S
C1667 H1670 0.929 . S
C1668 C1667 1.363 . S
C1668 C1674 1.428 . S
H1669 C1665 0.930 . S
H1670 C1667 0.929 . S
S1671 N1672 1.613 . S
S1671 N1673 1.610 . S
N1672 S1671 1.613 . S
N1672 C1675 1.350 . S
N1673 S1671 1.610 . S
N1673 C1674 1.351 . S
C1674 C1668 1.428 . S
C1674 N1673 1.351 . S
C1674 C1675 1.434 . S
C1675 C1666 1.429 . S
C1675 N1672 1.350 . S
C1675 C1674 1.434 . S
C1676 C1677 1.369 . S
C1676 C1678 1.419 . S
C1676 H1680 0.930 . S
C1677 C1676 1.369 . S
C1677 C1686 1.429 . S
C1678 C1676 1.419 . S
C1678 C1679 1.363 . S
C1678 H1681 0.929 . S
C1679 C1678 1.363 . S
C1679 C1685 1.428 . S
H1680 C1676 0.930 . S
H1681 C1678 0.929 . S
S1682 N1683 1.613 . S
S1682 N1684 1.610 . S
N1683 S1682 1.613 . S
N1683 C1686 1.350 . S
N1684 S1682 1.610 . S
N1684 C1685 1.351 . S
C1685 C1679 1.428 . S
C1685 N1684 1.351 . S
C1685 C1686 1.434 . S
C1686 C1677 1.429 . S
C1686 N1683 1.350 . S
C1686 C1685 1.434 . S
C1687 C1688 1.369 . S
C1687 C1689 1.419 . S
C1687 H1691 0.930 . S
C1688 C1687 1.369 . S
C1688 C1697 1.429 . S
C1689 C1687 1.419 . S
C1689 C1690 1.363 . S
C1689 H1692 0.929 . S
C1690 C1689 1.363 . S
C1690 C1696 1.428 . S
H1691 C1687 0.930 . S
H1692 C1689 0.929 . S
S1693 N1694 1.613 . S
S1693 N1695 1.610 . S
N1694 S1693 1.613 . S
N1694 C1697 1.350 . S
N1695 S1693 1.610 . S
N1695 C1696 1.351 . S
C1696 C1690 1.428 . S
C1696 N1695 1.351 . S
C1696 C1697 1.434 . S
C1697 C1688 1.429 . S
C1697 N1694 1.350 . S
C1697 C1696 1.434 . S
C1698 C1699 1.369 . S
C1698 C1700 1.419 . S
C1698 H1702 0.930 . S
C1699 C1698 1.369 . S
C1699 C1708 1.429 . S
C1700 C1698 1.419 . S
C1700 C1701 1.363 . S
C1700 H1703 0.929 . S
C1701 C1700 1.363 . S
C1701 C1707 1.428 . S
H1702 C1698 0.930 . S
H1703 C1700 0.929 . S
S1704 N1705 1.613 . S
S1704 N1706 1.610 . S
N1705 S1704 1.613 . S
N1705 C1708 1.350 . S
N1706 S1704 1.610 . S
N1706 C1707 1.351 . S
C1707 C1701 1.428 . S
C1707 N1706 1.351 . S
C1707 C1708 1.434 . S
C1708 C1699 1.429 . S
C1708 N1705 1.350 . S
C1708 C1707 1.434 . S
C1709 C1710 1.369 . S
C1709 C1711 1.419 . S
C1709 H1713 0.930 . S
C1710 C1709 1.369 . S
C1710 C1719 1.429 . S
C1711 C1709 1.419 . S
C1711 C1712 1.363 . S
C1711 H1714 0.929 . S
C1712 C1711 1.363 . S
C1712 C1718 1.428 . S
H1713 C1709 0.930 . S
H1714 C1711 0.929 . S
S1715 N1716 1.613 . S
S1715 N1717 1.610 . S
N1716 S1715 1.613 . S
N1716 C1719 1.350 . S
N1717 S1715 1.610 . S
N1717 C1718 1.351 . S
C1718 C1712 1.428 . S
C1718 N1717 1.351 . S
C1718 C1719 1.434 . S
C1719 C1710 1.429 . S
C1719 N1716 1.350 . S
C1719 C1718 1.434 . S
C1720 C1721 1.369 . S
C1720 C1722 1.419 . S
C1720 H1724 0.930 . S
C1721 C1720 1.369 . S
C1721 C1730 1.429 . S
C1722 C1720 1.419 . S
C1722 C1723 1.363 . S
C1722 H1725 0.929 . S
C1723 C1722 1.363 . S
C1723 C1729 1.428 . S
H1724 C1720 0.930 . S
H1725 C1722 0.929 . S
S1726 N1727 1.613 . S
S1726 N1728 1.610 . S
N1727 S1726 1.613 . S
N1727 C1730 1.350 . S
N1728 S1726 1.610 . S
N1728 C1729 1.351 . S
C1729 C1723 1.428 . S
C1729 N1728 1.351 . S
C1729 C1730 1.434 . S
C1730 C1721 1.429 . S
C1730 N1727 1.350 . S
C1730 C1729 1.434 . S
C1731 C1732 1.369 . S
C1731 C1733 1.419 . S
C1731 H1735 0.930 . S
C1732 C1731 1.369 . S
C1732 C1741 1.429 . S
C1733 C1731 1.419 . S
C1733 C1734 1.363 . S
C1733 H1736 0.929 . S
C1734 C1733 1.363 . S
C1734 C1740 1.428 . S
H1735 C1731 0.930 . S
H1736 C1733 0.929 . S
S1737 N1738 1.613 . S
S1737 N1739 1.610 . S
N1738 S1737 1.613 . S
N1738 C1741 1.350 . S
N1739 S1737 1.610 . S
N1739 C1740 1.351 . S
C1740 C1734 1.428 . S
C1740 N1739 1.351 . S
C1740 C1741 1.434 . S
C1741 C1732 1.429 . S
C1741 N1738 1.350 . S
C1741 C1740 1.434 . S
C1742 C1743 1.369 . S
C1742 C1744 1.419 . S
C1742 H1746 0.930 . S
C1743 C1742 1.369 . S
C1743 C1752 1.429 . S
C1744 C1742 1.419 . S
C1744 C1745 1.363 . S
C1744 H1747 0.929 . S
C1745 C1744 1.363 . S
C1745 C1751 1.428 . S
H1746 C1742 0.930 . S
H1747 C1744 0.929 . S
S1748 N1749 1.613 . S
S1748 N1750 1.610 . S
N1749 S1748 1.613 . S
N1749 C1752 1.350 . S
N1750 S1748 1.610 . S
N1750 C1751 1.351 . S
C1751 C1745 1.428 . S
C1751 N1750 1.351 . S
C1751 C1752 1.434 . S
C1752 C1743 1.429 . S
C1752 N1749 1.350 . S
C1752 C1751 1.434 . S
C1753 C1754 1.369 . S
C1753 C1755 1.419 . S
C1753 H1757 0.930 . S
C1754 C1753 1.369 . S
C1754 C1763 1.429 . S
C1755 C1753 1.419 . S
C1755 C1756 1.363 . S
C1755 H1758 0.929 . S
C1756 C1755 1.363 . S
C1756 C1762 1.428 . S
H1757 C1753 0.930 . S
H1758 C1755 0.929 . S
S1759 N1760 1.613 . S
S1759 N1761 1.610 . S
N1760 S1759 1.613 . S
N1760 C1763 1.350 . S
N1761 S1759 1.610 . S
N1761 C1762 1.351 . S
C1762 C1756 1.428 . S
C1762 N1761 1.351 . S
C1762 C1763 1.434 . S
C1763 C1754 1.429 . S
C1763 N1760 1.350 . S
C1763 C1762 1.434 . S
C1764 C1765 1.369 . S
C1764 C1766 1.419 . S
C1764 H1768 0.930 . S
C1765 C1764 1.369 . S
C1765 C1774 1.429 . S
C1766 C1764 1.419 . S
C1766 C1767 1.363 . S
C1766 H1769 0.929 . S
C1767 C1766 1.363 . S
C1767 C1773 1.428 . S
H1768 C1764 0.930 . S
H1769 C1766 0.929 . S
S1770 N1771 1.613 . S
S1770 N1772 1.610 . S
N1771 S1770 1.613 . S
N1771 C1774 1.350 . S
N1772 S1770 1.610 . S
N1772 C1773 1.351 . S
C1773 C1767 1.428 . S
C1773 N1772 1.351 . S
C1773 C1774 1.434 . S
C1774 C1765 1.429 . S
C1774 N1771 1.350 . S
C1774 C1773 1.434 . S
C1775 C1776 1.369 . S
C1775 C1777 1.419 . S
C1775 H1779 0.930 . S
C1776 C1775 1.369 . S
C1776 C1785 1.429 . S
C1777 C1775 1.419 . S
C1777 C1778 1.363 . S
C1777 H1780 0.929 . S
C1778 C1777 1.363 . S
C1778 C1784 1.428 . S
H1779 C1775 0.930 . S
H1780 C1777 0.929 . S
S1781 N1782 1.613 . S
S1781 N1783 1.610 . S
N1782 S1781 1.613 . S
N1782 C1785 1.350 . S
N1783 S1781 1.610 . S
N1783 C1784 1.351 . S
C1784 C1778 1.428 . S
C1784 N1783 1.351 . S
C1784 C1785 1.434 . S
C1785 C1776 1.429 . S
C1785 N1782 1.350 . S
C1785 C1784 1.434 . S
C1786 C1787 1.369 . S
C1786 C1788 1.419 . S
C1786 H1790 0.930 . S
C1787 C1786 1.369 . S
C1787 C1796 1.429 . S
C1788 C1786 1.419 . S
C1788 C1789 1.363 . S
C1788 H1791 0.929 . S
C1789 C1788 1.363 . S
C1789 C1795 1.428 . S
H1790 C1786 0.930 . S
H1791 C1788 0.929 . S
S1792 N1793 1.613 . S
S1792 N1794 1.610 . S
N1793 S1792 1.613 . S
N1793 C1796 1.350 . S
N1794 S1792 1.610 . S
N1794 C1795 1.351 . S
C1795 C1789 1.428 . S
C1795 N1794 1.351 . S
C1795 C1796 1.434 . S
C1796 C1787 1.429 . S
C1796 N1793 1.350 . S
C1796 C1795 1.434 . S
C1797 C1798 1.369 . S
C1797 C1799 1.419 . S
C1797 H1801 0.930 . S
C1798 C1797 1.369 . S
C1798 C1807 1.429 . S
C1799 C1797 1.419 . S
C1799 C1800 1.363 . S
C1799 H1802 0.929 . S
C1800 C1799 1.363 . S
C1800 C1806 1.428 . S
H1801 C1797 0.930 . S
H1802 C1799 0.929 . S
S1803 N1804 1.613 . S
S1803 N1805 1.610 . S
N1804 S1803 1.613 . S
N1804 C1807 1.350 . S
N1805 S1803 1.610 . S
N1805 C1806 1.351 . S
C1806 C1800 1.428 . S
C1806 N1805 1.351 . S
C1806 C1807 1.434 . S
C1807 C1798 1.429 . S
C1807 N1804 1.350 . S
C1807 C1806 1.434 . S
C1808 C1809 1.369 . S
C1808 C1810 1.419 . S
C1808 H1812 0.930 . S
C1809 C1808 1.369 . S
C1809 C1818 1.429 . S
C1810 C1808 1.419 . S
C1810 C1811 1.363 . S
C1810 H1813 0.929 . S
C1811 C1810 1.363 . S
C1811 C1817 1.428 . S
H1812 C1808 0.930 . S
H1813 C1810 0.929 . S
S1814 N1815 1.613 . S
S1814 N1816 1.610 . S
N1815 S1814 1.613 . S
N1815 C1818 1.350 . S
N1816 S1814 1.610 . S
N1816 C1817 1.351 . S
C1817 C1811 1.428 . S
C1817 N1816 1.351 . S
C1817 C1818 1.434 . S
C1818 C1809 1.429 . S
C1818 N1815 1.350 . S
C1818 C1817 1.434 . S
C1819 C1820 1.369 . S
C1819 C1821 1.419 . S
C1819 H1823 0.930 . S
C1820 C1819 1.369 . S
C1820 C1829 1.429 . S
C1821 C1819 1.419 . S
C1821 C1822 1.363 . S
C1821 H1824 0.929 . S
C1822 C1821 1.363 . S
C1822 C1828 1.428 . S
H1823 C1819 0.930 . S
H1824 C1821 0.929 . S
S1825 N1826 1.613 . S
S1825 N1827 1.610 . S
N1826 S1825 1.613 . S
N1826 C1829 1.350 . S
N1827 S1825 1.610 . S
N1827 C1828 1.351 . S
C1828 C1822 1.428 . S
C1828 N1827 1.351 . S
C1828 C1829 1.434 . S
C1829 C1820 1.429 . S
C1829 N1826 1.350 . S
C1829 C1828 1.434 . S
C1830 C1831 1.369 . S
C1830 C1832 1.419 . S
C1830 H1834 0.930 . S
C1831 C1830 1.369 . S
C1831 C1840 1.429 . S
C1832 C1830 1.419 . S
C1832 C1833 1.363 . S
C1832 H1835 0.929 . S
C1833 C1832 1.363 . S
C1833 C1839 1.428 . S
H1834 C1830 0.930 . S
H1835 C1832 0.929 . S
S1836 N1837 1.613 . S
S1836 N1838 1.610 . S
N1837 S1836 1.613 . S
N1837 C1840 1.350 . S
N1838 S1836 1.610 . S
N1838 C1839 1.351 . S
C1839 C1833 1.428 . S
C1839 N1838 1.351 . S
C1839 C1840 1.434 . S
C1840 C1831 1.429 . S
C1840 N1837 1.350 . S
C1840 C1839 1.434 . S
C1841 C1842 1.369 . S
C1841 C1843 1.419 . S
C1841 H1845 0.930 . S
C1842 C1841 1.369 . S
C1842 C1851 1.429 . S
C1843 C1841 1.419 . S
C1843 C1844 1.363 . S
C1843 H1846 0.929 . S
C1844 C1843 1.363 . S
C1844 C1850 1.428 . S
H1845 C1841 0.930 . S
H1846 C1843 0.929 . S
S1847 N1848 1.613 . S
S1847 N1849 1.610 . S
N1848 S1847 1.613 . S
N1848 C1851 1.350 . S
N1849 S1847 1.610 . S
N1849 C1850 1.351 . S
C1850 C1844 1.428 . S
C1850 N1849 1.351 . S
C1850 C1851 1.434 . S
C1851 C1842 1.429 . S
C1851 N1848 1.350 . S
C1851 C1850 1.434 . S
C1852 C1853 1.369 . S
C1852 C1854 1.419 . S
C1852 H1856 0.930 . S
C1853 C1852 1.369 . S
C1853 C1862 1.429 . S
C1854 C1852 1.419 . S
C1854 C1855 1.363 . S
C1854 H1857 0.929 . S
C1855 C1854 1.363 . S
C1855 C1861 1.428 . S
H1856 C1852 0.930 . S
H1857 C1854 0.929 . S
S1858 N1859 1.613 . S
S1858 N1860 1.610 . S
N1859 S1858 1.613 . S
N1859 C1862 1.350 . S
N1860 S1858 1.610 . S
N1860 C1861 1.351 . S
C1861 C1855 1.428 . S
C1861 N1860 1.351 . S
C1861 C1862 1.434 . S
C1862 C1853 1.429 . S
C1862 N1859 1.350 . S
C1862 C1861 1.434 . S
C1863 C1864 1.369 . S
C1863 C1865 1.419 . S
C1863 H1867 0.930 . S
C1864 C1863 1.369 . S
C1864 C1873 1.429 . S
C1865 C1863 1.419 . S
C1865 C1866 1.363 . S
C1865 H1868 0.929 . S
C1866 C1865 1.363 . S
C1866 C1872 1.428 . S
H1867 C1863 0.930 . S
H1868 C1865 0.929 . S
S1869 N1870 1.613 . S
S1869 N1871 1.610 . S
N1870 S1869 1.613 . S
N1870 C1873 1.350 . S
N1871 S1869 1.610 . S
N1871 C1872 1.351 . S
C1872 C1866 1.428 . S
C1872 N1871 1.351 . S
C1872 C1873 1.434 . S
C1873 C1864 1.429 . S
C1873 N1870 1.350 . S
C1873 C1872 1.434 . S
C1874 C1875 1.369 . S
C1874 C1876 1.419 . S
C1874 H1878 0.930 . S
C1875 C1874 1.369 . S
C1875 C1884 1.429 . S
C1876 C1874 1.419 . S
C1876 C1877 1.363 . S
C1876 H1879 0.929 . S
C1877 C1876 1.363 . S
C1877 C1883 1.428 . S
H1878 C1874 0.930 . S
H1879 C1876 0.929 . S
S1880 N1881 1.613 . S
S1880 N1882 1.610 . S
N1881 S1880 1.613 . S
N1881 C1884 1.350 . S
N1882 S1880 1.610 . S
N1882 C1883 1.351 . S
C1883 C1877 1.428 . S
C1883 N1882 1.351 . S
C1883 C1884 1.434 . S
C1884 C1875 1.429 . S
C1884 N1881 1.350 . S
C1884 C1883 1.434 . S
C1885 C1886 1.369 . S
C1885 C1887 1.419 . S
C1885 H1889 0.930 . S
C1886 C1885 1.369 . S
C1886 C1895 1.429 . S
C1887 C1885 1.419 . S
C1887 C1888 1.363 . S
C1887 H1890 0.929 . S
C1888 C1887 1.363 . S
C1888 C1894 1.428 . S
H1889 C1885 0.930 . S
H1890 C1887 0.929 . S
S1891 N1892 1.613 . S
S1891 N1893 1.610 . S
N1892 S1891 1.613 . S
N1892 C1895 1.350 . S
N1893 S1891 1.610 . S
N1893 C1894 1.351 . S
C1894 C1888 1.428 . S
C1894 N1893 1.351 . S
C1894 C1895 1.434 . S
C1895 C1886 1.429 . S
C1895 N1892 1.350 . S
C1895 C1894 1.434 . S
C1896 C1897 1.369 . S
C1896 C1898 1.419 . S
C1896 H1900 0.930 . S
C1897 C1896 1.369 . S
C1897 C1906 1.429 . S
C1898 C1896 1.419 . S
C1898 C1899 1.363 . S
C1898 H1901 0.929 . S
C1899 C1898 1.363 . S
C1899 C1905 1.428 . S
H1900 C1896 0.930 . S
H1901 C1898 0.929 . S
S1902 N1903 1.613 . S
S1902 N1904 1.610 . S
N1903 S1902 1.613 . S
N1903 C1906 1.350 . S
N1904 S1902 1.610 . S
N1904 C1905 1.351 . S
C1905 C1899 1.428 . S
C1905 N1904 1.351 . S
C1905 C1906 1.434 . S
C1906 C1897 1.429 . S
C1906 N1903 1.350 . S
C1906 C1905 1.434 . S
C1907 C1908 1.369 . S
C1907 C1909 1.419 . S
C1907 H1911 0.930 . S
C1908 C1907 1.369 . S
C1908 C1917 1.429 . S
C1909 C1907 1.419 . S
C1909 C1910 1.363 . S
C1909 H1912 0.929 . S
C1910 C1909 1.363 . S
C1910 C1916 1.428 . S
H1911 C1907 0.930 . S
H1912 C1909 0.929 . S
S1913 N1914 1.613 . S
S1913 N1915 1.610 . S
N1914 S1913 1.613 . S
N1914 C1917 1.350 . S
N1915 S1913 1.610 . S
N1915 C1916 1.351 . S
C1916 C1910 1.428 . S
C1916 N1915 1.351 . S
C1916 C1917 1.434 . S
C1917 C1908 1.429 . S
C1917 N1914 1.350 . S
C1917 C1916 1.434 . S
C1918 C1919 1.369 . S
C1918 C1920 1.419 . S
C1918 H1922 0.930 . S
C1919 C1918 1.369 . S
C1919 C1928 1.429 . S
C1920 C1918 1.419 . S
C1920 C1921 1.363 . S
C1920 H1923 0.929 . S
C1921 C1920 1.363 . S
C1921 C1927 1.428 . S
H1922 C1918 0.930 . S
H1923 C1920 0.929 . S
S1924 N1925 1.613 . S
S1924 N1926 1.610 . S
N1925 S1924 1.613 . S
N1925 C1928 1.350 . S
N1926 S1924 1.610 . S
N1926 C1927 1.351 . S
C1927 C1921 1.428 . S
C1927 N1926 1.351 . S
C1927 C1928 1.434 . S
C1928 C1919 1.429 . S
C1928 N1925 1.350 . S
C1928 C1927 1.434 . S
C1929 C1930 1.369 . S
C1929 C1931 1.419 . S
C1929 H1933 0.930 . S
C1930 C1929 1.369 . S
C1930 C1939 1.429 . S
C1931 C1929 1.419 . S
C1931 C1932 1.363 . S
C1931 H1934 0.929 . S
C1932 C1931 1.363 . S
C1932 C1938 1.428 . S
H1933 C1929 0.930 . S
H1934 C1931 0.929 . S
S1935 N1936 1.613 . S
S1935 N1937 1.610 . S
N1936 S1935 1.613 . S
N1936 C1939 1.350 . S
N1937 S1935 1.610 . S
N1937 C1938 1.351 . S
C1938 C1932 1.428 . S
C1938 N1937 1.351 . S
C1938 C1939 1.434 . S
C1939 C1930 1.429 . S
C1939 N1936 1.350 . S
C1939 C1938 1.434 . S
C1940 C1941 1.369 . S
C1940 C1942 1.419 . S
C1940 H1944 0.930 . S
C1941 C1940 1.369 . S
C1941 C1950 1.429 . S
C1942 C1940 1.419 . S
C1942 C1943 1.363 . S
C1942 H1945 0.929 . S
C1943 C1942 1.363 . S
C1943 C1949 1.428 . S
H1944 C1940 0.930 . S
H1945 C1942 0.929 . S
S1946 N1947 1.613 . S
S1946 N1948 1.610 . S
N1947 S1946 1.613 . S
N1947 C1950 1.350 . S
N1948 S1946 1.610 . S
N1948 C1949 1.351 . S
C1949 C1943 1.428 . S
C1949 N1948 1.351 . S
C1949 C1950 1.434 . S
C1950 C1941 1.429 . S
C1950 N1947 1.350 . S
C1950 C1949 1.434 . S
C1951 C1952 1.369 . S
C1951 C1953 1.419 . S
C1951 H1955 0.930 . S
C1952 C1951 1.369 . S
C1952 C1961 1.429 . S
C1953 C1951 1.419 . S
C1953 C1954 1.363 . S
C1953 H1956 0.929 . S
C1954 C1953 1.363 . S
C1954 C1960 1.428 . S
H1955 C1951 0.930 . S
H1956 C1953 0.929 . S
S1957 N1958 1.613 . S
S1957 N1959 1.610 . S
N1958 S1957 1.613 . S
N1958 C1961 1.350 . S
N1959 S1957 1.610 . S
N1959 C1960 1.351 . S
C1960 C1954 1.428 . S
C1960 N1959 1.351 . S
C1960 C1961 1.434 . S
C1961 C1952 1.429 . S
C1961 N1958 1.350 . S
C1961 C1960 1.434 . S
C1962 C1963 1.369 . S
C1962 C1964 1.419 . S
C1962 H1966 0.930 . S
C1963 C1962 1.369 . S
C1963 C1972 1.429 . S
C1964 C1962 1.419 . S
C1964 C1965 1.363 . S
C1964 H1967 0.929 . S
C1965 C1964 1.363 . S
C1965 C1971 1.428 . S
H1966 C1962 0.930 . S
H1967 C1964 0.929 . S
S1968 N1969 1.613 . S
S1968 N1970 1.610 . S
N1969 S1968 1.613 . S
N1969 C1972 1.350 . S
N1970 S1968 1.610 . S
N1970 C1971 1.351 . S
C1971 C1965 1.428 . S
C1971 N1970 1.351 . S
C1971 C1972 1.434 . S
C1972 C1963 1.429 . S
C1972 N1969 1.350 . S
C1972 C1971 1.434 . S
C1973 C1974 1.369 . S
C1973 C1975 1.419 . S
C1973 H1977 0.930 . S
C1974 C1973 1.369 . S
C1974 C1983 1.429 . S
C1975 C1973 1.419 . S
C1975 C1976 1.363 . S
C1975 H1978 0.929 . S
C1976 C1975 1.363 . S
C1976 C1982 1.428 . S
H1977 C1973 0.930 . S
H1978 C1975 0.929 . S
S1979 N1980 1.613 . S
S1979 N1981 1.610 . S
N1980 S1979 1.613 . S
N1980 C1983 1.350 . S
N1981 S1979 1.610 . S
N1981 C1982 1.351 . S
C1982 C1976 1.428 . S
C1982 N1981 1.351 . S
C1982 C1983 1.434 . S
C1983 C1974 1.429 . S
C1983 N1980 1.350 . S
C1983 C1982 1.434 . S
C1984 C1985 1.369 . S
C1984 C1986 1.419 . S
C1984 H1988 0.930 . S
C1985 C1984 1.369 . S
C1985 C1994 1.429 . S
C1986 C1984 1.419 . S
C1986 C1987 1.363 . S
C1986 H1989 0.929 . S
C1987 C1986 1.363 . S
C1987 C1993 1.428 . S
H1988 C1984 0.930 . S
H1989 C1986 0.929 . S
S1990 N1991 1.613 . S
S1990 N1992 1.610 . S
N1991 S1990 1.613 . S
N1991 C1994 1.350 . S
N1992 S1990 1.610 . S
N1992 C1993 1.351 . S
C1993 C1987 1.428 . S
C1993 N1992 1.351 . S
C1993 C1994 1.434 . S
C1994 C1985 1.429 . S
C1994 N1991 1.350 . S
C1994 C1993 1.434 . S
C1995 C1996 1.369 . S
C1995 C1997 1.419 . S
C1995 H1999 0.930 . S
C1996 C1995 1.369 . S
C1996 C2005 1.429 . S
C1997 C1995 1.419 . S
C1997 C1998 1.363 . S
C1997 H2000 0.929 . S
C1998 C1997 1.363 . S
C1998 C2004 1.428 . S
H1999 C1995 0.930 . S
H2000 C1997 0.929 . S
S2001 N2002 1.613 . S
S2001 N2003 1.610 . S
N2002 S2001 1.613 . S
N2002 C2005 1.350 . S
N2003 S2001 1.610 . S
N2003 C2004 1.351 . S
C2004 C1998 1.428 . S
C2004 N2003 1.351 . S
C2004 C2005 1.434 . S
C2005 C1996 1.429 . S
C2005 N2002 1.350 . S
C2005 C2004 1.434 . S
C2006 C2007 1.369 . S
C2006 C2008 1.419 . S
C2006 H2010 0.930 . S
C2007 C2006 1.369 . S
C2007 C2016 1.429 . S
C2008 C2006 1.419 . S
C2008 C2009 1.363 . S
C2008 H2011 0.929 . S
C2009 C2008 1.363 . S
C2009 C2015 1.428 . S
H2010 C2006 0.930 . S
H2011 C2008 0.929 . S
S2012 N2013 1.613 . S
S2012 N2014 1.610 . S
N2013 S2012 1.613 . S
N2013 C2016 1.350 . S
N2014 S2012 1.610 . S
N2014 C2015 1.351 . S
C2015 C2009 1.428 . S
C2015 N2014 1.351 . S
C2015 C2016 1.434 . S
C2016 C2007 1.429 . S
C2016 N2013 1.350 . S
C2016 C2015 1.434 . S
C2017 C2018 1.369 . S
C2017 C2019 1.419 . S
C2017 H2021 0.930 . S
C2018 C2017 1.369 . S
C2018 C2027 1.429 . S
C2019 C2017 1.419 . S
C2019 C2020 1.363 . S
C2019 H2022 0.929 . S
C2020 C2019 1.363 . S
C2020 C2026 1.428 . S
H2021 C2017 0.930 . S
H2022 C2019 0.929 . S
S2023 N2024 1.613 . S
S2023 N2025 1.610 . S
N2024 S2023 1.613 . S
N2024 C2027 1.350 . S
N2025 S2023 1.610 . S
N2025 C2026 1.351 . S
C2026 C2020 1.428 . S
C2026 N2025 1.351 . S
C2026 C2027 1.434 . S
C2027 C2018 1.429 . S
C2027 N2024 1.350 . S
C2027 C2026 1.434 . S
C2028 C2029 1.369 . S
C2028 C2030 1.419 . S
C2028 H2032 0.930 . S
C2029 C2028 1.369 . S
C2029 C2038 1.429 . S
C2030 C2028 1.419 . S
C2030 C2031 1.363 . S
C2030 H2033 0.929 . S
C2031 C2030 1.363 . S
C2031 C2037 1.428 . S
H2032 C2028 0.930 . S
H2033 C2030 0.929 . S
S2034 N2035 1.613 . S
S2034 N2036 1.610 . S
N2035 S2034 1.613 . S
N2035 C2038 1.350 . S
N2036 S2034 1.610 . S
N2036 C2037 1.351 . S
C2037 C2031 1.428 . S
C2037 N2036 1.351 . S
C2037 C2038 1.434 . S
C2038 C2029 1.429 . S
C2038 N2035 1.350 . S
C2038 C2037 1.434 . S
C2039 C2040 1.369 . S
C2039 C2041 1.419 . S
C2039 H2043 0.930 . S
C2040 C2039 1.369 . S
C2040 C2049 1.429 . S
C2041 C2039 1.419 . S
C2041 C2042 1.363 . S
C2041 H2044 0.929 . S
C2042 C2041 1.363 . S
C2042 C2048 1.428 . S
H2043 C2039 0.930 . S
H2044 C2041 0.929 . S
S2045 N2046 1.613 . S
S2045 N2047 1.610 . S
N2046 S2045 1.613 . S
N2046 C2049 1.350 . S
N2047 S2045 1.610 . S
N2047 C2048 1.351 . S
C2048 C2042 1.428 . S
C2048 N2047 1.351 . S
C2048 C2049 1.434 . S
C2049 C2040 1.429 . S
C2049 N2046 1.350 . S
C2049 C2048 1.434 . S
C2050 C2051 1.369 . S
C2050 C2052 1.419 . S
C2050 H2054 0.930 . S
C2051 C2050 1.369 . S
C2051 C2060 1.429 . S
C2052 C2050 1.419 . S
C2052 C2053 1.363 . S
C2052 H2055 0.929 . S
C2053 C2052 1.363 . S
C2053 C2059 1.428 . S
H2054 C2050 0.930 . S
H2055 C2052 0.929 . S
S2056 N2057 1.613 . S
S2056 N2058 1.610 . S
N2057 S2056 1.613 . S
N2057 C2060 1.350 . S
N2058 S2056 1.610 . S
N2058 C2059 1.351 . S
C2059 C2053 1.428 . S
C2059 N2058 1.351 . S
C2059 C2060 1.434 . S
C2060 C2051 1.429 . S
C2060 N2057 1.350 . S
C2060 C2059 1.434 . S
C2061 C2062 1.369 . S
C2061 C2063 1.419 . S
C2061 H2065 0.930 . S
C2062 C2061 1.369 . S
C2062 C2071 1.429 . S
C2063 C2061 1.419 . S
C2063 C2064 1.363 . S
C2063 H2066 0.929 . S
C2064 C2063 1.363 . S
C2064 C2070 1.428 . S
H2065 C2061 0.930 . S
H2066 C2063 0.929 . S
S2067 N2068 1.613 . S
S2067 N2069 1.610 . S
N2068 S2067 1.613 . S
N2068 C2071 1.350 . S
N2069 S2067 1.610 . S
N2069 C2070 1.351 . S
C2070 C2064 1.428 . S
C2070 N2069 1.351 . S
C2070 C2071 1.434 . S
C2071 C2062 1.429 . S
C2071 N2068 1.350 . S
C2071 C2070 1.434 . S
C2072 C2073 1.369 . S
C2072 C2074 1.419 . S
C2072 H2076 0.930 . S
C2073 C2072 1.369 . S
C2073 C2082 1.429 . S
C2074 C2072 1.419 . S
C2074 C2075 1.363 . S
C2074 H2077 0.929 . S
C2075 C2074 1.363 . S
C2075 C2081 1.428 . S
H2076 C2072 0.930 . S
H2077 C2074 0.929 . S
S2078 N2079 1.613 . S
S2078 N2080 1.610 . S
N2079 S2078 1.613 . S
N2079 C2082 1.350 . S
N2080 S2078 1.610 . S
N2080 C2081 1.351 . S
C2081 C2075 1.428 . S
C2081 N2080 1.351 . S
C2081 C2082 1.434 . S
C2082 C2073 1.429 . S
C2082 N2079 1.350 . S
C2082 C2081 1.434 . S
C2083 C2084 1.369 . S
C2083 C2085 1.419 . S
C2083 H2087 0.930 . S
C2084 C2083 1.369 . S
C2084 C2093 1.429 . S
C2085 C2083 1.419 . S
C2085 C2086 1.363 . S
C2085 H2088 0.929 . S
C2086 C2085 1.363 . S
C2086 C2092 1.428 . S
H2087 C2083 0.930 . S
H2088 C2085 0.929 . S
S2089 N2090 1.613 . S
S2089 N2091 1.610 . S
N2090 S2089 1.613 . S
N2090 C2093 1.350 . S
N2091 S2089 1.610 . S
N2091 C2092 1.351 . S
C2092 C2086 1.428 . S
C2092 N2091 1.351 . S
C2092 C2093 1.434 . S
C2093 C2084 1.429 . S
C2093 N2090 1.350 . S
C2093 C2092 1.434 . S
C2094 C2095 1.369 . S
C2094 C2096 1.419 . S
C2094 H2098 0.930 . S
C2095 C2094 1.369 . S
C2095 C2104 1.429 . S
C2096 C2094 1.419 . S
C2096 C2097 1.363 . S
C2096 H2099 0.929 . S
C2097 C2096 1.363 . S
C2097 C2103 1.428 . S
H2098 C2094 0.930 . S
H2099 C2096 0.929 . S
S2100 N2101 1.613 . S
S2100 N2102 1.610 . S
N2101 S2100 1.613 . S
N2101 C2104 1.350 . S
N2102 S2100 1.610 . S
N2102 C2103 1.351 . S
C2103 C2097 1.428 . S
C2103 N2102 1.351 . S
C2103 C2104 1.434 . S
C2104 C2095 1.429 . S
C2104 N2101 1.350 . S
C2104 C2103 1.434 . S
C2105 C2106 1.369 . S
C2105 C2107 1.419 . S
C2105 H2109 0.930 . S
C2106 C2105 1.369 . S
C2106 C2115 1.429 . S
C2107 C2105 1.419 . S
C2107 C2108 1.363 . S
C2107 H2110 0.929 . S
C2108 C2107 1.363 . S
C2108 C2114 1.428 . S
H2109 C2105 0.930 . S
H2110 C2107 0.929 . S
S2111 N2112 1.613 . S
S2111 N2113 1.610 . S
N2112 S2111 1.613 . S
N2112 C2115 1.350 . S
N2113 S2111 1.610 . S
N2113 C2114 1.351 . S
C2114 C2108 1.428 . S
C2114 N2113 1.351 . S
C2114 C2115 1.434 . S
C2115 C2106 1.429 . S
C2115 N2112 1.350 . S
C2115 C2114 1.434 . S
C2116 C2117 1.369 . S
C2116 C2118 1.419 . S
C2116 H2120 0.930 . S
C2117 C2116 1.369 . S
C2117 C2126 1.429 . S
C2118 C2116 1.419 . S
C2118 C2119 1.363 . S
C2118 H2121 0.929 . S
C2119 C2118 1.363 . S
C2119 C2125 1.428 . S
H2120 C2116 0.930 . S
H2121 C2118 0.929 . S
S2122 N2123 1.613 . S
S2122 N2124 1.610 . S
N2123 S2122 1.613 . S
N2123 C2126 1.350 . S
N2124 S2122 1.610 . S
N2124 C2125 1.351 . S
C2125 C2119 1.428 . S
C2125 N2124 1.351 . S
C2125 C2126 1.434 . S
C2126 C2117 1.429 . S
C2126 N2123 1.350 . S
C2126 C2125 1.434 . S
C2127 C2128 1.369 . S
C2127 C2129 1.419 . S
C2127 H2131 0.930 . S
C2128 C2127 1.369 . S
C2128 C2137 1.429 . S
C2129 C2127 1.419 . S
C2129 C2130 1.363 . S
C2129 H2132 0.929 . S
C2130 C2129 1.363 . S
C2130 C2136 1.428 . S
H2131 C2127 0.930 . S
H2132 C2129 0.929 . S
S2133 N2134 1.613 . S
S2133 N2135 1.610 . S
N2134 S2133 1.613 . S
N2134 C2137 1.350 . S
N2135 S2133 1.610 . S
N2135 C2136 1.351 . S
C2136 C2130 1.428 . S
C2136 N2135 1.351 . S
C2136 C2137 1.434 . S
C2137 C2128 1.429 . S
C2137 N2134 1.350 . S
C2137 C2136 1.434 . S
C2138 C2139 1.369 . S
C2138 C2140 1.419 . S
C2138 H2142 0.930 . S
C2139 C2138 1.369 . S
C2139 C2148 1.429 . S
C2140 C2138 1.419 . S
C2140 C2141 1.363 . S
C2140 H2143 0.929 . S
C2141 C2140 1.363 . S
C2141 C2147 1.428 . S
H2142 C2138 0.930 . S
H2143 C2140 0.929 . S
S2144 N2145 1.613 . S
S2144 N2146 1.610 . S
N2145 S2144 1.613 . S
N2145 C2148 1.350 . S
N2146 S2144 1.610 . S
N2146 C2147 1.351 . S
C2147 C2141 1.428 . S
C2147 N2146 1.351 . S
C2147 C2148 1.434 . S
C2148 C2139 1.429 . S
C2148 N2145 1.350 . S
C2148 C2147 1.434 . S
C2149 C2150 1.369 . S
C2149 C2151 1.419 . S
C2149 H2153 0.930 . S
C2150 C2149 1.369 . S
C2150 C2159 1.429 . S
C2151 C2149 1.419 . S
C2151 C2152 1.363 . S
C2151 H2154 0.929 . S
C2152 C2151 1.363 . S
C2152 C2158 1.428 . S
H2153 C2149 0.930 . S
H2154 C2151 0.929 . S
S2155 N2156 1.613 . S
S2155 N2157 1.610 . S
N2156 S2155 1.613 . S
N2156 C2159 1.350 . S
N2157 S2155 1.610 . S
N2157 C2158 1.351 . S
C2158 C2152 1.428 . S
C2158 N2157 1.351 . S
C2158 C2159 1.434 . S
C2159 C2150 1.429 . S
C2159 N2156 1.350 . S
C2159 C2158 1.434 . S
C2160 C2161 1.369 . S
C2160 C2162 1.419 . S
C2160 H2164 0.930 . S
C2161 C2160 1.369 . S
C2161 C2170 1.429 . S
C2162 C2160 1.419 . S
C2162 C2163 1.363 . S
C2162 H2165 0.929 . S
C2163 C2162 1.363 . S
C2163 C2169 1.428 . S
H2164 C2160 0.930 . S
H2165 C2162 0.929 . S
S2166 N2167 1.613 . S
S2166 N2168 1.610 . S
N2167 S2166 1.613 . S
N2167 C2170 1.350 . S
N2168 S2166 1.610 . S
N2168 C2169 1.351 . S
C2169 C2163 1.428 . S
C2169 N2168 1.351 . S
C2169 C2170 1.434 . S
C2170 C2161 1.429 . S
C2170 N2167 1.350 . S
C2170 C2169 1.434 . S
C2171 C2172 1.369 . S
C2171 C2173 1.419 . S
C2171 H2175 0.930 . S
C2172 C2171 1.369 . S
C2172 C2181 1.429 . S
C2173 C2171 1.419 . S
C2173 C2174 1.363 . S
C2173 H2176 0.929 . S
C2174 C2173 1.363 . S
C2174 C2180 1.428 . S
H2175 C2171 0.930 . S
H2176 C2173 0.929 . S
S2177 N2178 1.613 . S
S2177 N2179 1.610 . S
N2178 S2177 1.613 . S
N2178 C2181 1.350 . S
N2179 S2177 1.610 . S
N2179 C2180 1.351 . S
C2180 C2174 1.428 . S
C2180 N2179 1.351 . S
C2180 C2181 1.434 . S
C2181 C2172 1.429 . S
C2181 N2178 1.350 . S
C2181 C2180 1.434 . S
C2182 C2183 1.369 . S
C2182 C2184 1.419 . S
C2182 H2186 0.930 . S
C2183 C2182 1.369 . S
C2183 C2192 1.429 . S
C2184 C2182 1.419 . S
C2184 C2185 1.363 . S
C2184 H2187 0.929 . S
C2185 C2184 1.363 . S
C2185 C2191 1.428 . S
H2186 C2182 0.930 . S
H2187 C2184 0.929 . S
S2188 N2189 1.613 . S
S2188 N2190 1.610 . S
N2189 S2188 1.613 . S
N2189 C2192 1.350 . S
N2190 S2188 1.610 . S
N2190 C2191 1.351 . S
C2191 C2185 1.428 . S
C2191 N2190 1.351 . S
C2191 C2192 1.434 . S
C2192 C2183 1.429 . S
C2192 N2189 1.350 . S
C2192 C2191 1.434 . S
C2193 C2194 1.369 . S
C2193 C2195 1.419 . S
C2193 H2197 0.930 . S
C2194 C2193 1.369 . S
C2194 C2203 1.429 . S
C2195 C2193 1.419 . S
C2195 C2196 1.363 . S
C2195 H2198 0.929 . S
C2196 C2195 1.363 . S
C2196 C2202 1.428 . S
H2197 C2193 0.930 . S
H2198 C2195 0.929 . S
S2199 N2200 1.613 . S
S2199 N2201 1.610 . S
N2200 S2199 1.613 . S
N2200 C2203 1.350 . S
N2201 S2199 1.610 . S
N2201 C2202 1.351 . S
C2202 C2196 1.428 . S
C2202 N2201 1.351 . S
C2202 C2203 1.434 . S
C2203 C2194 1.429 . S
C2203 N2200 1.350 . S
C2203 C2202 1.434 . S
C2204 C2205 1.369 . S
C2204 C2206 1.419 . S
C2204 H2208 0.930 . S
C2205 C2204 1.369 . S
C2205 C2214 1.429 . S
C2206 C2204 1.419 . S
C2206 C2207 1.363 . S
C2206 H2209 0.929 . S
C2207 C2206 1.363 . S
C2207 C2213 1.428 . S
H2208 C2204 0.930 . S
H2209 C2206 0.929 . S
S2210 N2211 1.613 . S
S2210 N2212 1.610 . S
N2211 S2210 1.613 . S
N2211 C2214 1.350 . S
N2212 S2210 1.610 . S
N2212 C2213 1.351 . S
C2213 C2207 1.428 . S
C2213 N2212 1.351 . S
C2213 C2214 1.434 . S
C2214 C2205 1.429 . S
C2214 N2211 1.350 . S
C2214 C2213 1.434 . S
C2215 C2216 1.369 . S
C2215 C2217 1.419 . S
C2215 H2219 0.930 . S
C2216 C2215 1.369 . S
C2216 C2225 1.429 . S
C2217 C2215 1.419 . S
C2217 C2218 1.363 . S
C2217 H2220 0.929 . S
C2218 C2217 1.363 . S
C2218 C2224 1.428 . S
H2219 C2215 0.930 . S
H2220 C2217 0.929 . S
S2221 N2222 1.613 . S
S2221 N2223 1.610 . S
N2222 S2221 1.613 . S
N2222 C2225 1.350 . S
N2223 S2221 1.610 . S
N2223 C2224 1.351 . S
C2224 C2218 1.428 . S
C2224 N2223 1.351 . S
C2224 C2225 1.434 . S
C2225 C2216 1.429 . S
C2225 N2222 1.350 . S
C2225 C2224 1.434 . S
C2226 C2227 1.369 . S
C2226 C2228 1.419 . S
C2226 H2230 0.930 . S
C2227 C2226 1.369 . S
C2227 C2236 1.429 . S
C2228 C2226 1.419 . S
C2228 C2229 1.363 . S
C2228 H2231 0.929 . S
C2229 C2228 1.363 . S
C2229 C2235 1.428 . S
H2230 C2226 0.930 . S
H2231 C2228 0.929 . S
S2232 N2233 1.613 . S
S2232 N2234 1.610 . S
N2233 S2232 1.613 . S
N2233 C2236 1.350 . S
N2234 S2232 1.610 . S
N2234 C2235 1.351 . S
C2235 C2229 1.428 . S
C2235 N2234 1.351 . S
C2235 C2236 1.434 . S
C2236 C2227 1.429 . S
C2236 N2233 1.350 . S
C2236 C2235 1.434 . S
C2237 C2238 1.369 . S
C2237 C2239 1.419 . S
C2237 H2241 0.930 . S
C2238 C2237 1.369 . S
C2238 C2247 1.429 . S
C2239 C2237 1.419 . S
C2239 C2240 1.363 . S
C2239 H2242 0.929 . S
C2240 C2239 1.363 . S
C2240 C2246 1.428 . S
H2241 C2237 0.930 . S
H2242 C2239 0.929 . S
S2243 N2244 1.613 . S
S2243 N2245 1.610 . S
N2244 S2243 1.613 . S
N2244 C2247 1.350 . S
N2245 S2243 1.610 . S
N2245 C2246 1.351 . S
C2246 C2240 1.428 . S
C2246 N2245 1.351 . S
C2246 C2247 1.434 . S
C2247 C2238 1.429 . S
C2247 N2244 1.350 . S
C2247 C2246 1.434 . S
C2248 C2249 1.369 . S
C2248 C2250 1.419 . S
C2248 H2252 0.930 . S
C2249 C2248 1.369 . S
C2249 C2258 1.429 . S
C2250 C2248 1.419 . S
C2250 C2251 1.363 . S
C2250 H2253 0.929 . S
C2251 C2250 1.363 . S
C2251 C2257 1.428 . S
H2252 C2248 0.930 . S
H2253 C2250 0.929 . S
S2254 N2255 1.613 . S
S2254 N2256 1.610 . S
N2255 S2254 1.613 . S
N2255 C2258 1.350 . S
N2256 S2254 1.610 . S
N2256 C2257 1.351 . S
C2257 C2251 1.428 . S
C2257 N2256 1.351 . S
C2257 C2258 1.434 . S
C2258 C2249 1.429 . S
C2258 N2255 1.350 . S
C2258 C2257 1.434 . S
C2259 C2260 1.369 . S
C2259 C2261 1.419 . S
C2259 H2263 0.930 . S
C2260 C2259 1.369 . S
C2260 C2269 1.429 . S
C2261 C2259 1.419 . S
C2261 C2262 1.363 . S
C2261 H2264 0.929 . S
C2262 C2261 1.363 . S
C2262 C2268 1.428 . S
H2263 C2259 0.930 . S
H2264 C2261 0.929 . S
S2265 N2266 1.613 . S
S2265 N2267 1.610 . S
N2266 S2265 1.613 . S
N2266 C2269 1.350 . S
N2267 S2265 1.610 . S
N2267 C2268 1.351 . S
C2268 C2262 1.428 . S
C2268 N2267 1.351 . S
C2268 C2269 1.434 . S
C2269 C2260 1.429 . S
C2269 N2266 1.350 . S
C2269 C2268 1.434 . S
C2270 C2271 1.369 . S
C2270 C2272 1.419 . S
C2270 H2274 0.930 . S
C2271 C2270 1.369 . S
C2271 C2280 1.429 . S
C2272 C2270 1.419 . S
C2272 C2273 1.363 . S
C2272 H2275 0.929 . S
C2273 C2272 1.363 . S
C2273 C2279 1.428 . S
H2274 C2270 0.930 . S
H2275 C2272 0.929 . S
S2276 N2277 1.613 . S
S2276 N2278 1.610 . S
N2277 S2276 1.613 . S
N2277 C2280 1.350 . S
N2278 S2276 1.610 . S
N2278 C2279 1.351 . S
C2279 C2273 1.428 . S
C2279 N2278 1.351 . S
C2279 C2280 1.434 . S
C2280 C2271 1.429 . S
C2280 N2277 1.350 . S
C2280 C2279 1.434 . S
C2281 C2282 1.369 . S
C2281 C2283 1.419 . S
C2281 H2285 0.930 . S
C2282 C2281 1.369 . S
C2282 C2291 1.429 . S
C2283 C2281 1.419 . S
C2283 C2284 1.363 . S
C2283 H2286 0.929 . S
C2284 C2283 1.363 . S
C2284 C2290 1.428 . S
H2285 C2281 0.930 . S
H2286 C2283 0.929 . S
S2287 N2288 1.613 . S
S2287 N2289 1.610 . S
N2288 S2287 1.613 . S
N2288 C2291 1.350 . S
N2289 S2287 1.610 . S
N2289 C2290 1.351 . S
C2290 C2284 1.428 . S
C2290 N2289 1.351 . S
C2290 C2291 1.434 . S
C2291 C2282 1.429 . S
C2291 N2288 1.350 . S
C2291 C2290 1.434 . S
C2292 C2293 1.369 . S
C2292 C2294 1.419 . S
C2292 H2296 0.930 . S
C2293 C2292 1.369 . S
C2293 C2302 1.429 . S
C2294 C2292 1.419 . S
C2294 C2295 1.363 . S
C2294 H2297 0.929 . S
C2295 C2294 1.363 . S
C2295 C2301 1.428 . S
H2296 C2292 0.930 . S
H2297 C2294 0.929 . S
S2298 N2299 1.613 . S
S2298 N2300 1.610 . S
N2299 S2298 1.613 . S
N2299 C2302 1.350 . S
N2300 S2298 1.610 . S
N2300 C2301 1.351 . S
C2301 C2295 1.428 . S
C2301 N2300 1.351 . S
C2301 C2302 1.434 . S
C2302 C2293 1.429 . S
C2302 N2299 1.350 . S
C2302 C2301 1.434 . S
C2303 C2304 1.369 . S
C2303 C2305 1.419 . S
C2303 H2307 0.930 . S
C2304 C2303 1.369 . S
C2304 C2313 1.429 . S
C2305 C2303 1.419 . S
C2305 C2306 1.363 . S
C2305 H2308 0.929 . S
C2306 C2305 1.363 . S
C2306 C2312 1.428 . S
H2307 C2303 0.930 . S
H2308 C2305 0.929 . S
S2309 N2310 1.613 . S
S2309 N2311 1.610 . S
N2310 S2309 1.613 . S
N2310 C2313 1.350 . S
N2311 S2309 1.610 . S
N2311 C2312 1.351 . S
C2312 C2306 1.428 . S
C2312 N2311 1.351 . S
C2312 C2313 1.434 . S
C2313 C2304 1.429 . S
C2313 N2310 1.350 . S
C2313 C2312 1.434 . S
C2314 C2315 1.369 . S
C2314 C2316 1.419 . S
C2314 H2318 0.930 . S
C2315 C2314 1.369 . S
C2315 C2324 1.429 . S
C2316 C2314 1.419 . S
C2316 C2317 1.363 . S
C2316 H2319 0.929 . S
C2317 C2316 1.363 . S
C2317 C2323 1.428 . S
H2318 C2314 0.930 . S
H2319 C2316 0.929 . S
S2320 N2321 1.613 . S
S2320 N2322 1.610 . S
N2321 S2320 1.613 . S
N2321 C2324 1.350 . S
N2322 S2320 1.610 . S
N2322 C2323 1.351 . S
C2323 C2317 1.428 . S
C2323 N2322 1.351 . S
C2323 C2324 1.434 . S
C2324 C2315 1.429 . S
C2324 N2321 1.350 . S
C2324 C2323 1.434 . S
C2325 C2326 1.369 . S
C2325 C2327 1.419 . S
C2325 H2329 0.930 . S
C2326 C2325 1.369 . S
C2326 C2335 1.429 . S
C2327 C2325 1.419 . S
C2327 C2328 1.363 . S
C2327 H2330 0.929 . S
C2328 C2327 1.363 . S
C2328 C2334 1.428 . S
H2329 C2325 0.930 . S
H2330 C2327 0.929 . S
S2331 N2332 1.613 . S
S2331 N2333 1.610 . S
N2332 S2331 1.613 . S
N2332 C2335 1.350 . S
N2333 S2331 1.610 . S
N2333 C2334 1.351 . S
C2334 C2328 1.428 . S
C2334 N2333 1.351 . S
C2334 C2335 1.434 . S
C2335 C2326 1.429 . S
C2335 N2332 1.350 . S
C2335 C2334 1.434 . S
C2336 C2337 1.369 . S
C2336 C2338 1.419 . S
C2336 H2340 0.930 . S
C2337 C2336 1.369 . S
C2337 C2346 1.429 . S
C2338 C2336 1.419 . S
C2338 C2339 1.363 . S
C2338 H2341 0.929 . S
C2339 C2338 1.363 . S
C2339 C2345 1.428 . S
H2340 C2336 0.930 . S
H2341 C2338 0.929 . S
S2342 N2343 1.613 . S
S2342 N2344 1.610 . S
N2343 S2342 1.613 . S
N2343 C2346 1.350 . S
N2344 S2342 1.610 . S
N2344 C2345 1.351 . S
C2345 C2339 1.428 . S
C2345 N2344 1.351 . S
C2345 C2346 1.434 . S
C2346 C2337 1.429 . S
C2346 N2343 1.350 . S
C2346 C2345 1.434 . S
C2347 C2348 1.369 . S
C2347 C2349 1.419 . S
C2347 H2351 0.930 . S
C2348 C2347 1.369 . S
C2348 C2357 1.429 . S
C2349 C2347 1.419 . S
C2349 C2350 1.363 . S
C2349 H2352 0.929 . S
C2350 C2349 1.363 . S
C2350 C2356 1.428 . S
H2351 C2347 0.930 . S
H2352 C2349 0.929 . S
S2353 N2354 1.613 . S
S2353 N2355 1.610 . S
N2354 S2353 1.613 . S
N2354 C2357 1.350 . S
N2355 S2353 1.610 . S
N2355 C2356 1.351 . S
C2356 C2350 1.428 . S
C2356 N2355 1.351 . S
C2356 C2357 1.434 . S
C2357 C2348 1.429 . S
C2357 N2354 1.350 . S
C2357 C2356 1.434 . S
C2358 C2359 1.369 . S
C2358 C2360 1.419 . S
C2358 H2362 0.930 . S
C2359 C2358 1.369 . S
C2359 C2368 1.429 . S
C2360 C2358 1.419 . S
C2360 C2361 1.363 . S
C2360 H2363 0.929 . S
C2361 C2360 1.363 . S
C2361 C2367 1.428 . S
H2362 C2358 0.930 . S
H2363 C2360 0.929 . S
S2364 N2365 1.613 . S
S2364 N2366 1.610 . S
N2365 S2364 1.613 . S
N2365 C2368 1.350 . S
N2366 S2364 1.610 . S
N2366 C2367 1.351 . S
C2367 C2361 1.428 . S
C2367 N2366 1.351 . S
C2367 C2368 1.434 . S
C2368 C2359 1.429 . S
C2368 N2365 1.350 . S
C2368 C2367 1.434 . S
C2369 C2370 1.369 . S
C2369 C2371 1.419 . S
C2369 H2373 0.930 . S
C2370 C2369 1.369 . S
C2370 C2379 1.429 . S
C2371 C2369 1.419 . S
C2371 C2372 1.363 . S
C2371 H2374 0.929 . S
C2372 C2371 1.363 . S
C2372 C2378 1.428 . S
H2373 C2369 0.930 . S
H2374 C2371 0.929 . S
S2375 N2376 1.613 . S
S2375 N2377 1.610 . S
N2376 S2375 1.613 . S
N2376 C2379 1.350 . S
N2377 S2375 1.610 . S
N2377 C2378 1.351 . S
C2378 C2372 1.428 . S
C2378 N2377 1.351 . S
C2378 C2379 1.434 . S
C2379 C2370 1.429 . S
C2379 N2376 1.350 . S
C2379 C2378 1.434 . S
C2380 C2381 1.369 . S
C2380 C2382 1.419 . S
C2380 H2384 0.930 . S
C2381 C2380 1.369 . S
C2381 C2390 1.429 . S
C2382 C2380 1.419 . S
C2382 C2383 1.363 . S
C2382 H2385 0.929 . S
C2383 C2382 1.363 . S
C2383 C2389 1.428 . S
H2384 C2380 0.930 . S
H2385 C2382 0.929 . S
S2386 N2387 1.613 . S
S2386 N2388 1.610 . S
N2387 S2386 1.613 . S
N2387 C2390 1.350 . S
N2388 S2386 1.610 . S
N2388 C2389 1.351 . S
C2389 C2383 1.428 . S
C2389 N2388 1.351 . S
C2389 C2390 1.434 . S
C2390 C2381 1.429 . S
C2390 N2387 1.350 . S
C2390 C2389 1.434 . S
C2391 C2392 1.369 . S
C2391 C2393 1.419 . S
C2391 H2395 0.930 . S
C2392 C2391 1.369 . S
C2392 C2401 1.429 . S
C2393 C2391 1.419 . S
C2393 C2394 1.363 . S
C2393 H2396 0.929 . S
C2394 C2393 1.363 . S
C2394 C2400 1.428 . S
H2395 C2391 0.930 . S
H2396 C2393 0.929 . S
S2397 N2398 1.613 . S
S2397 N2399 1.610 . S
N2398 S2397 1.613 . S
N2398 C2401 1.350 . S
N2399 S2397 1.610 . S
N2399 C2400 1.351 . S
C2400 C2394 1.428 . S
C2400 N2399 1.351 . S
C2400 C2401 1.434 . S
C2401 C2392 1.429 . S
C2401 N2398 1.350 . S
C2401 C2400 1.434 . S
C2402 C2403 1.369 . S
C2402 C2404 1.419 . S
C2402 H2406 0.930 . S
C2403 C2402 1.369 . S
C2403 C2412 1.429 . S
C2404 C2402 1.419 . S
C2404 C2405 1.363 . S
C2404 H2407 0.929 . S
C2405 C2404 1.363 . S
C2405 C2411 1.428 . S
H2406 C2402 0.930 . S
H2407 C2404 0.929 . S
S2408 N2409 1.613 . S
S2408 N2410 1.610 . S
N2409 S2408 1.613 . S
N2409 C2412 1.350 . S
N2410 S2408 1.610 . S
N2410 C2411 1.351 . S
C2411 C2405 1.428 . S
C2411 N2410 1.351 . S
C2411 C2412 1.434 . S
C2412 C2403 1.429 . S
C2412 N2409 1.350 . S
C2412 C2411 1.434 . S
C2413 C2414 1.369 . S
C2413 C2415 1.419 . S
C2413 H2417 0.930 . S
C2414 C2413 1.369 . S
C2414 C2423 1.429 . S
C2415 C2413 1.419 . S
C2415 C2416 1.363 . S
C2415 H2418 0.929 . S
C2416 C2415 1.363 . S
C2416 C2422 1.428 . S
H2417 C2413 0.930 . S
H2418 C2415 0.929 . S
S2419 N2420 1.613 . S
S2419 N2421 1.610 . S
N2420 S2419 1.613 . S
N2420 C2423 1.350 . S
N2421 S2419 1.610 . S
N2421 C2422 1.351 . S
C2422 C2416 1.428 . S
C2422 N2421 1.351 . S
C2422 C2423 1.434 . S
C2423 C2414 1.429 . S
C2423 N2420 1.350 . S
C2423 C2422 1.434 . S
C2424 C2425 1.369 . S
C2424 C2426 1.419 . S
C2424 H2428 0.930 . S
C2425 C2424 1.369 . S
C2425 C2434 1.429 . S
C2426 C2424 1.419 . S
C2426 C2427 1.363 . S
C2426 H2429 0.929 . S
C2427 C2426 1.363 . S
C2427 C2433 1.428 . S
H2428 C2424 0.930 . S
H2429 C2426 0.929 . S
S2430 N2431 1.613 . S
S2430 N2432 1.610 . S
N2431 S2430 1.613 . S
N2431 C2434 1.350 . S
N2432 S2430 1.610 . S
N2432 C2433 1.351 . S
C2433 C2427 1.428 . S
C2433 N2432 1.351 . S
C2433 C2434 1.434 . S
C2434 C2425 1.429 . S
C2434 N2431 1.350 . S
C2434 C2433 1.434 . S
C2435 C2436 1.369 . S
C2435 C2437 1.419 . S
C2435 H2439 0.930 . S
C2436 C2435 1.369 . S
C2436 C2445 1.429 . S
C2437 C2435 1.419 . S
C2437 C2438 1.363 . S
C2437 H2440 0.929 . S
C2438 C2437 1.363 . S
C2438 C2444 1.428 . S
H2439 C2435 0.930 . S
H2440 C2437 0.929 . S
S2441 N2442 1.613 . S
S2441 N2443 1.610 . S
N2442 S2441 1.613 . S
N2442 C2445 1.350 . S
N2443 S2441 1.610 . S
N2443 C2444 1.351 . S
C2444 C2438 1.428 . S
C2444 N2443 1.351 . S
C2444 C2445 1.434 . S
C2445 C2436 1.429 . S
C2445 N2442 1.350 . S
C2445 C2444 1.434 . S
C2446 C2447 1.369 . S
C2446 C2448 1.419 . S
C2446 H2450 0.930 . S
C2447 C2446 1.369 . S
C2447 C2456 1.429 . S
C2448 C2446 1.419 . S
C2448 C2449 1.363 . S
C2448 H2451 0.929 . S
C2449 C2448 1.363 . S
C2449 C2455 1.428 . S
H2450 C2446 0.930 . S
H2451 C2448 0.929 . S
S2452 N2453 1.613 . S
S2452 N2454 1.610 . S
N2453 S2452 1.613 . S
N2453 C2456 1.350 . S
N2454 S2452 1.610 . S
N2454 C2455 1.351 . S
C2455 C2449 1.428 . S
C2455 N2454 1.351 . S
C2455 C2456 1.434 . S
C2456 C2447 1.429 . S
C2456 N2453 1.350 . S
C2456 C2455 1.434 . S
C2457 C2458 1.369 . S
C2457 C2459 1.419 . S
C2457 H2461 0.930 . S
C2458 C2457 1.369 . S
C2458 C2467 1.429 . S
C2459 C2457 1.419 . S
C2459 C2460 1.363 . S
C2459 H2462 0.929 . S
C2460 C2459 1.363 . S
C2460 C2466 1.428 . S
H2461 C2457 0.930 . S
H2462 C2459 0.929 . S
S2463 N2464 1.613 . S
S2463 N2465 1.610 . S
N2464 S2463 1.613 . S
N2464 C2467 1.350 . S
N2465 S2463 1.610 . S
N2465 C2466 1.351 . S
C2466 C2460 1.428 . S
C2466 N2465 1.351 . S
C2466 C2467 1.434 . S
C2467 C2458 1.429 . S
C2467 N2464 1.350 . S
C2467 C2466 1.434 . S
C2468 C2469 1.369 . S
C2468 C2470 1.419 . S
C2468 H2472 0.930 . S
C2469 C2468 1.369 . S
C2469 C2478 1.429 . S
C2470 C2468 1.419 . S
C2470 C2471 1.363 . S
C2470 H2473 0.929 . S
C2471 C2470 1.363 . S
C2471 C2477 1.428 . S
H2472 C2468 0.930 . S
H2473 C2470 0.929 . S
S2474 N2475 1.613 . S
S2474 N2476 1.610 . S
N2475 S2474 1.613 . S
N2475 C2478 1.350 . S
N2476 S2474 1.610 . S
N2476 C2477 1.351 . S
C2477 C2471 1.428 . S
C2477 N2476 1.351 . S
C2477 C2478 1.434 . S
C2478 C2469 1.429 . S
C2478 N2475 1.350 . S
C2478 C2477 1.434 . S
C2479 C2480 1.369 . S
C2479 C2481 1.419 . S
C2479 H2483 0.930 . S
C2480 C2479 1.369 . S
C2480 C2489 1.429 . S
C2481 C2479 1.419 . S
C2481 C2482 1.363 . S
C2481 H2484 0.929 . S
C2482 C2481 1.363 . S
C2482 C2488 1.428 . S
H2483 C2479 0.930 . S
H2484 C2481 0.929 . S
S2485 N2486 1.613 . S
S2485 N2487 1.610 . S
N2486 S2485 1.613 . S
N2486 C2489 1.350 . S
N2487 S2485 1.610 . S
N2487 C2488 1.351 . S
C2488 C2482 1.428 . S
C2488 N2487 1.351 . S
C2488 C2489 1.434 . S
C2489 C2480 1.429 . S
C2489 N2486 1.350 . S
C2489 C2488 1.434 . S
C2490 C2491 1.369 . S
C2490 C2492 1.419 . S
C2490 H2494 0.930 . S
C2491 C2490 1.369 . S
C2491 C2500 1.429 . S
C2492 C2490 1.419 . S
C2492 C2493 1.363 . S
C2492 H2495 0.929 . S
C2493 C2492 1.363 . S
C2493 C2499 1.428 . S
H2494 C2490 0.930 . S
H2495 C2492 0.929 . S
S2496 N2497 1.613 . S
S2496 N2498 1.610 . S
N2497 S2496 1.613 . S
N2497 C2500 1.350 . S
N2498 S2496 1.610 . S
N2498 C2499 1.351 . S
C2499 C2493 1.428 . S
C2499 N2498 1.351 . S
C2499 C2500 1.434 . S
C2500 C2491 1.429 . S
C2500 N2497 1.350 . S
C2500 C2499 1.434 . S
C2501 C2502 1.369 . S
C2501 C2503 1.419 . S
C2501 H2505 0.930 . S
C2502 C2501 1.369 . S
C2502 C2511 1.429 . S
C2503 C2501 1.419 . S
C2503 C2504 1.363 . S
C2503 H2506 0.929 . S
C2504 C2503 1.363 . S
C2504 C2510 1.428 . S
H2505 C2501 0.930 . S
H2506 C2503 0.929 . S
S2507 N2508 1.613 . S
S2507 N2509 1.610 . S
N2508 S2507 1.613 . S
N2508 C2511 1.350 . S
N2509 S2507 1.610 . S
N2509 C2510 1.351 . S
C2510 C2504 1.428 . S
C2510 N2509 1.351 . S
C2510 C2511 1.434 . S
C2511 C2502 1.429 . S
C2511 N2508 1.350 . S
C2511 C2510 1.434 . S
C2512 C2513 1.369 . S
C2512 C2514 1.419 . S
C2512 H2516 0.930 . S
C2513 C2512 1.369 . S
C2513 C2522 1.429 . S
C2514 C2512 1.419 . S
C2514 C2515 1.363 . S
C2514 H2517 0.929 . S
C2515 C2514 1.363 . S
C2515 C2521 1.428 . S
H2516 C2512 0.930 . S
H2517 C2514 0.929 . S
S2518 N2519 1.613 . S
S2518 N2520 1.610 . S
N2519 S2518 1.613 . S
N2519 C2522 1.350 . S
N2520 S2518 1.610 . S
N2520 C2521 1.351 . S
C2521 C2515 1.428 . S
C2521 N2520 1.351 . S
C2521 C2522 1.434 . S
C2522 C2513 1.429 . S
C2522 N2519 1.350 . S
C2522 C2521 1.434 . S
C2523 C2524 1.369 . S
C2523 C2525 1.419 . S
C2523 H2527 0.930 . S
C2524 C2523 1.369 . S
C2524 C2533 1.429 . S
C2525 C2523 1.419 . S
C2525 C2526 1.363 . S
C2525 H2528 0.929 . S
C2526 C2525 1.363 . S
C2526 C2532 1.428 . S
H2527 C2523 0.930 . S
H2528 C2525 0.929 . S
S2529 N2530 1.613 . S
S2529 N2531 1.610 . S
N2530 S2529 1.613 . S
N2530 C2533 1.350 . S
N2531 S2529 1.610 . S
N2531 C2532 1.351 . S
C2532 C2526 1.428 . S
C2532 N2531 1.351 . S
C2532 C2533 1.434 . S
C2533 C2524 1.429 . S
C2533 N2530 1.350 . S
C2533 C2532 1.434 . S
C2534 C2535 1.369 . S
C2534 C2536 1.419 . S
C2534 H2538 0.930 . S
C2535 C2534 1.369 . S
C2535 C2544 1.429 . S
C2536 C2534 1.419 . S
C2536 C2537 1.363 . S
C2536 H2539 0.929 . S
C2537 C2536 1.363 . S
C2537 C2543 1.428 . S
H2538 C2534 0.930 . S
H2539 C2536 0.929 . S
S2540 N2541 1.613 . S
S2540 N2542 1.610 . S
N2541 S2540 1.613 . S
N2541 C2544 1.350 . S
N2542 S2540 1.610 . S
N2542 C2543 1.351 . S
C2543 C2537 1.428 . S
C2543 N2542 1.351 . S
C2543 C2544 1.434 . S
C2544 C2535 1.429 . S
C2544 N2541 1.350 . S
C2544 C2543 1.434 . S
C2545 C2546 1.369 . S
C2545 C2547 1.419 . S
C2545 H2549 0.930 . S
C2546 C2545 1.369 . S
C2546 C2555 1.429 . S
C2547 C2545 1.419 . S
C2547 C2548 1.363 . S
C2547 H2550 0.929 . S
C2548 C2547 1.363 . S
C2548 C2554 1.428 . S
H2549 C2545 0.930 . S
H2550 C2547 0.929 . S
S2551 N2552 1.613 . S
S2551 N2553 1.610 . S
N2552 S2551 1.613 . S
N2552 C2555 1.350 . S
N2553 S2551 1.610 . S
N2553 C2554 1.351 . S
C2554 C2548 1.428 . S
C2554 N2553 1.351 . S
C2554 C2555 1.434 . S
C2555 C2546 1.429 . S
C2555 N2552 1.350 . S
C2555 C2554 1.434 . S
C2556 C2557 1.369 . S
C2556 C2558 1.419 . S
C2556 H2560 0.930 . S
C2557 C2556 1.369 . S
C2557 C2566 1.429 . S
C2558 C2556 1.419 . S
C2558 C2559 1.363 . S
C2558 H2561 0.929 . S
C2559 C2558 1.363 . S
C2559 C2565 1.428 . S
H2560 C2556 0.930 . S
H2561 C2558 0.929 . S
S2562 N2563 1.613 . S
S2562 N2564 1.610 . S
N2563 S2562 1.613 . S
N2563 C2566 1.350 . S
N2564 S2562 1.610 . S
N2564 C2565 1.351 . S
C2565 C2559 1.428 . S
C2565 N2564 1.351 . S
C2565 C2566 1.434 . S
C2566 C2557 1.429 . S
C2566 N2563 1.350 . S
C2566 C2565 1.434 . S
C2567 C2568 1.369 . S
C2567 C2569 1.419 . S
C2567 H2571 0.930 . S
C2568 C2567 1.369 . S
C2568 C2577 1.429 . S
C2569 C2567 1.419 . S
C2569 C2570 1.363 . S
C2569 H2572 0.929 . S
C2570 C2569 1.363 . S
C2570 C2576 1.428 . S
H2571 C2567 0.930 . S
H2572 C2569 0.929 . S
S2573 N2574 1.613 . S
S2573 N2575 1.610 . S
N2574 S2573 1.613 . S
N2574 C2577 1.350 . S
N2575 S2573 1.610 . S
N2575 C2576 1.351 . S
C2576 C2570 1.428 . S
C2576 N2575 1.351 . S
C2576 C2577 1.434 . S
C2577 C2568 1.429 . S
C2577 N2574 1.350 . S
C2577 C2576 1.434 . S
C2578 C2579 1.369 . S
C2578 C2580 1.419 . S
C2578 H2582 0.930 . S
C2579 C2578 1.369 . S
C2579 C2588 1.429 . S
C2580 C2578 1.419 . S
C2580 C2581 1.363 . S
C2580 H2583 0.929 . S
C2581 C2580 1.363 . S
C2581 C2587 1.428 . S
H2582 C2578 0.930 . S
H2583 C2580 0.929 . S
S2584 N2585 1.613 . S
S2584 N2586 1.610 . S
N2585 S2584 1.613 . S
N2585 C2588 1.350 . S
N2586 S2584 1.610 . S
N2586 C2587 1.351 . S
C2587 C2581 1.428 . S
C2587 N2586 1.351 . S
C2587 C2588 1.434 . S
C2588 C2579 1.429 . S
C2588 N2585 1.350 . S
C2588 C2587 1.434 . S
C2589 C2590 1.369 . S
C2589 C2591 1.419 . S
C2589 H2593 0.930 . S
C2590 C2589 1.369 . S
C2590 C2599 1.429 . S
C2591 C2589 1.419 . S
C2591 C2592 1.363 . S
C2591 H2594 0.929 . S
C2592 C2591 1.363 . S
C2592 C2598 1.428 . S
H2593 C2589 0.930 . S
H2594 C2591 0.929 . S
S2595 N2596 1.613 . S
S2595 N2597 1.610 . S
N2596 S2595 1.613 . S
N2596 C2599 1.350 . S
N2597 S2595 1.610 . S
N2597 C2598 1.351 . S
C2598 C2592 1.428 . S
C2598 N2597 1.351 . S
C2598 C2599 1.434 . S
C2599 C2590 1.429 . S
C2599 N2596 1.350 . S
C2599 C2598 1.434 . S
C2600 C2601 1.369 . S
C2600 C2602 1.419 . S
C2600 H2604 0.930 . S
C2601 C2600 1.369 . S
C2601 C2610 1.429 . S
C2602 C2600 1.419 . S
C2602 C2603 1.363 . S
C2602 H2605 0.929 . S
C2603 C2602 1.363 . S
C2603 C2609 1.428 . S
H2604 C2600 0.930 . S
H2605 C2602 0.929 . S
S2606 N2607 1.613 . S
S2606 N2608 1.610 . S
N2607 S2606 1.613 . S
N2607 C2610 1.350 . S
N2608 S2606 1.610 . S
N2608 C2609 1.351 . S
C2609 C2603 1.428 . S
C2609 N2608 1.351 . S
C2609 C2610 1.434 . S
C2610 C2601 1.429 . S
C2610 N2607 1.350 . S
C2610 C2609 1.434 . S
C2611 C2612 1.369 . S
C2611 C2613 1.419 . S
C2611 H2615 0.930 . S
C2612 C2611 1.369 . S
C2612 C2621 1.429 . S
C2613 C2611 1.419 . S
C2613 C2614 1.363 . S
C2613 H2616 0.929 . S
C2614 C2613 1.363 . S
C2614 C2620 1.428 . S
H2615 C2611 0.930 . S
H2616 C2613 0.929 . S
S2617 N2618 1.613 . S
S2617 N2619 1.610 . S
N2618 S2617 1.613 . S
N2618 C2621 1.350 . S
N2619 S2617 1.610 . S
N2619 C2620 1.351 . S
C2620 C2614 1.428 . S
C2620 N2619 1.351 . S
C2620 C2621 1.434 . S
C2621 C2612 1.429 . S
C2621 N2618 1.350 . S
C2621 C2620 1.434 . S
C2622 C2623 1.369 . S
C2622 C2624 1.419 . S
C2622 H2626 0.930 . S
C2623 C2622 1.369 . S
C2623 C2632 1.429 . S
C2624 C2622 1.419 . S
C2624 C2625 1.363 . S
C2624 H2627 0.929 . S
C2625 C2624 1.363 . S
C2625 C2631 1.428 . S
H2626 C2622 0.930 . S
H2627 C2624 0.929 . S
S2628 N2629 1.613 . S
S2628 N2630 1.610 . S
N2629 S2628 1.613 . S
N2629 C2632 1.350 . S
N2630 S2628 1.610 . S
N2630 C2631 1.351 . S
C2631 C2625 1.428 . S
C2631 N2630 1.351 . S
C2631 C2632 1.434 . S
C2632 C2623 1.429 . S
C2632 N2629 1.350 . S
C2632 C2631 1.434 . S
C2633 C2634 1.369 . S
C2633 C2635 1.419 . S
C2633 H2637 0.930 . S
C2634 C2633 1.369 . S
C2634 C2643 1.429 . S
C2635 C2633 1.419 . S
C2635 C2636 1.363 . S
C2635 H2638 0.929 . S
C2636 C2635 1.363 . S
C2636 C2642 1.428 . S
H2637 C2633 0.930 . S
H2638 C2635 0.929 . S
S2639 N2640 1.613 . S
S2639 N2641 1.610 . S
N2640 S2639 1.613 . S
N2640 C2643 1.350 . S
N2641 S2639 1.610 . S
N2641 C2642 1.351 . S
C2642 C2636 1.428 . S
C2642 N2641 1.351 . S
C2642 C2643 1.434 . S
C2643 C2634 1.429 . S
C2643 N2640 1.350 . S
C2643 C2642 1.434 . S
C2644 C2645 1.369 . S
C2644 C2646 1.419 . S
C2644 H2648 0.930 . S
C2645 C2644 1.369 . S
C2645 C2654 1.429 . S
C2646 C2644 1.419 . S
C2646 C2647 1.363 . S
C2646 H2649 0.929 . S
C2647 C2646 1.363 . S
C2647 C2653 1.428 . S
H2648 C2644 0.930 . S
H2649 C2646 0.929 . S
S2650 N2651 1.613 . S
S2650 N2652 1.610 . S
N2651 S2650 1.613 . S
N2651 C2654 1.350 . S
N2652 S2650 1.610 . S
N2652 C2653 1.351 . S
C2653 C2647 1.428 . S
C2653 N2652 1.351 . S
C2653 C2654 1.434 . S
C2654 C2645 1.429 . S
C2654 N2651 1.350 . S
C2654 C2653 1.434 . S
C2655 C2656 1.369 . S
C2655 C2657 1.419 . S
C2655 H2659 0.930 . S
C2656 C2655 1.369 . S
C2656 C2665 1.429 . S
C2657 C2655 1.419 . S
C2657 C2658 1.363 . S
C2657 H2660 0.929 . S
C2658 C2657 1.363 . S
C2658 C2664 1.428 . S
H2659 C2655 0.930 . S
H2660 C2657 0.929 . S
S2661 N2662 1.613 . S
S2661 N2663 1.610 . S
N2662 S2661 1.613 . S
N2662 C2665 1.350 . S
N2663 S2661 1.610 . S
N2663 C2664 1.351 . S
C2664 C2658 1.428 . S
C2664 N2663 1.351 . S
C2664 C2665 1.434 . S
C2665 C2656 1.429 . S
C2665 N2662 1.350 . S
C2665 C2664 1.434 . S
C2666 C2667 1.369 . S
C2666 C2668 1.419 . S
C2666 H2670 0.930 . S
C2667 C2666 1.369 . S
C2667 C2676 1.429 . S
C2668 C2666 1.419 . S
C2668 C2669 1.363 . S
C2668 H2671 0.929 . S
C2669 C2668 1.363 . S
C2669 C2675 1.428 . S
H2670 C2666 0.930 . S
H2671 C2668 0.929 . S
S2672 N2673 1.613 . S
S2672 N2674 1.610 . S
N2673 S2672 1.613 . S
N2673 C2676 1.350 . S
N2674 S2672 1.610 . S
N2674 C2675 1.351 . S
C2675 C2669 1.428 . S
C2675 N2674 1.351 . S
C2675 C2676 1.434 . S
C2676 C2667 1.429 . S
C2676 N2673 1.350 . S
C2676 C2675 1.434 . S
C2677 C2678 1.369 . S
C2677 C2679 1.419 . S
C2677 H2681 0.930 . S
C2678 C2677 1.369 . S
C2678 C2687 1.429 . S
C2679 C2677 1.419 . S
C2679 C2680 1.363 . S
C2679 H2682 0.929 . S
C2680 C2679 1.363 . S
C2680 C2686 1.428 . S
H2681 C2677 0.930 . S
H2682 C2679 0.929 . S
S2683 N2684 1.613 . S
S2683 N2685 1.610 . S
N2684 S2683 1.613 . S
N2684 C2687 1.350 . S
N2685 S2683 1.610 . S
N2685 C2686 1.351 . S
C2686 C2680 1.428 . S
C2686 N2685 1.351 . S
C2686 C2687 1.434 . S
C2687 C2678 1.429 . S
C2687 N2684 1.350 . S
C2687 C2686 1.434 . S
C2688 C2689 1.369 . S
C2688 C2690 1.419 . S
C2688 H2692 0.930 . S
C2689 C2688 1.369 . S
C2689 C2698 1.429 1_455 S
C2690 C2688 1.419 . S
C2690 C2691 1.363 . S
C2690 H2693 0.929 . S
C2691 C2690 1.363 . S
C2691 C2697 1.428 . S
H2692 C2688 0.930 . S
H2693 C2690 0.929 . S
S2694 N2695 1.613 . S
S2694 N2696 1.610 . S
N2695 S2694 1.613 . S
N2695 C2698 1.350 . S
N2696 S2694 1.610 . S
N2696 C2697 1.351 1_655 S
C2697 C2691 1.428 . S
C2697 N2696 1.351 1_455 S
C2697 C2698 1.434 1_455 S
C2698 C2689 1.429 1_655 S
C2698 N2695 1.350 . S
C2698 C2697 1.434 1_655 S
C2699 C2700 1.369 . S
C2699 C2701 1.419 . S
C2699 H2703 0.930 . S
C2700 C2699 1.369 . S
C2700 C2709 1.429 . S
C2701 C2699 1.419 . S
C2701 C2702 1.363 . S
C2701 H2704 0.929 . S
C2702 C2701 1.363 . S
C2702 C2708 1.428 1_545 S
H2703 C2699 0.930 . S
H2704 C2701 0.929 . S
S2705 N2706 1.613 . S
S2705 N2707 1.610 . S
N2706 S2705 1.613 . S
N2706 C2709 1.350 1_565 S
N2707 S2705 1.610 . S
N2707 C2708 1.351 . S
C2708 C2702 1.428 1_565 S
C2708 N2707 1.351 . S
C2708 C2709 1.434 1_565 S
C2709 C2700 1.429 . S
C2709 N2706 1.350 1_545 S
C2709 C2708 1.434 1_545 S
C2710 C2711 1.369 . S
C2710 C2712 1.419 . S
C2710 H2714 0.930 . S
C2711 C2710 1.369 . S
C2711 C2720 1.429 . S
C2712 C2710 1.419 . S
C2712 C2713 1.363 . S
C2712 H2715 0.929 . S
C2713 C2712 1.363 . S
C2713 C2719 1.428 . S
H2714 C2710 0.930 . S
H2715 C2712 0.929 . S
S2716 N2717 1.613 . S
S2716 N2718 1.610 1_655 S
N2717 S2716 1.613 . S
N2717 C2720 1.350 1_655 S
N2718 S2716 1.610 1_455 S
N2718 C2719 1.351 . S
C2719 C2713 1.428 . S
C2719 N2718 1.351 . S
C2719 C2720 1.434 . S
C2720 C2711 1.429 . S
C2720 N2717 1.350 1_455 S
C2720 C2719 1.434 . S
C2721 C2722 1.369 . S
C2721 C2723 1.419 . S
C2721 H2725 0.930 . S
C2722 C2721 1.369 . S
C2722 C2731 1.429 . S
C2723 C2721 1.419 . S
C2723 C2724 1.363 . S
C2723 H2726 0.929 . S
C2724 C2723 1.363 . S
C2724 C2730 1.428 . S
H2725 C2721 0.930 . S
H2726 C2723 0.929 . S
S2727 N2728 1.613 . S
S2727 N2729 1.610 . S
N2728 S2727 1.613 . S
N2728 C2731 1.350 . S
N2729 S2727 1.610 . S
N2729 C2730 1.351 . S
C2730 C2724 1.428 . S
C2730 N2729 1.351 . S
C2730 C2731 1.434 . S
C2731 C2722 1.429 . S
C2731 N2728 1.350 . S
C2731 C2730 1.434 . S
C2732 C2733 1.369 . S
C2732 C2734 1.419 . S
C2732 H2736 0.930 1_455 S
C2733 C2732 1.369 . S
C2733 C2742 1.429 . S
C2734 C2732 1.419 . S
C2734 C2735 1.363 . S
C2734 H2737 0.929 . S
C2735 C2734 1.363 . S
C2735 C2741 1.428 . S
H2736 C2732 0.930 1_655 S
H2737 C2734 0.929 . S
S2738 N2739 1.613 . S
S2738 N2740 1.610 . S
N2739 S2738 1.613 . S
N2739 C2742 1.350 . S
N2740 S2738 1.610 . S
N2740 C2741 1.351 . S
C2741 C2735 1.428 . S
C2741 N2740 1.351 . S
C2741 C2742 1.434 . S
C2742 C2733 1.429 . S
C2742 N2739 1.350 . S
C2742 C2741 1.434 . S
C2743 C2744 1.369 . S
C2743 C2745 1.419 . S
C2743 H2747 0.930 . S
C2744 C2743 1.369 . S
C2744 C2753 1.429 . S
C2745 C2743 1.419 . S
C2745 C2746 1.363 . S
C2745 H2748 0.929 1_545 S
C2746 C2745 1.363 . S
C2746 C2752 1.428 . S
H2747 C2743 0.930 . S
H2748 C2745 0.929 1_565 S
S2749 N2750 1.613 . S
S2749 N2751 1.610 . S
N2750 S2749 1.613 . S
N2750 C2753 1.350 . S
N2751 S2749 1.610 . S
N2751 C2752 1.351 . S
C2752 C2746 1.428 . S
C2752 N2751 1.351 . S
C2752 C2753 1.434 . S
C2753 C2744 1.429 . S
C2753 N2750 1.350 . S
C2753 C2752 1.434 . S
C2754 C2755 1.369 . S
C2754 C2756 1.419 . S
C2754 H2758 0.930 . S
C2755 C2754 1.369 . S
C2755 C2764 1.429 . S
C2756 C2754 1.419 . S
C2756 C2757 1.363 . S
C2756 H2759 0.929 . S
C2757 C2756 1.363 . S
C2757 C2763 1.428 1_455 S
H2758 C2754 0.930 . S
H2759 C2756 0.929 . S
S2760 N2761 1.613 . S
S2760 N2762 1.610 . S
N2761 S2760 1.613 . S
N2761 C2764 1.350 1_655 S
N2762 S2760 1.610 . S
N2762 C2763 1.351 . S
C2763 C2757 1.428 1_655 S
C2763 N2762 1.351 . S
C2763 C2764 1.434 1_655 S
C2764 C2755 1.429 . S
C2764 N2761 1.350 1_455 S
C2764 C2763 1.434 1_455 S
C2765 C2766 1.369 . S
C2765 C2767 1.419 . S
C2765 H2769 0.930 . S
C2766 C2765 1.369 . S
C2766 C2775 1.429 . S
C2767 C2765 1.419 . S
C2767 C2768 1.363 . S
C2767 H2770 0.929 . S
C2768 C2767 1.363 . S
C2768 C2774 1.428 . S
H2769 C2765 0.930 . S
H2770 C2767 0.929 . S
S2771 N2772 1.613 1_565 S
S2771 N2773 1.610 . S
N2772 S2771 1.613 1_545 S
N2772 C2775 1.350 . S
N2773 S2771 1.610 . S
N2773 C2774 1.351 1_565 S
C2774 C2768 1.428 . S
C2774 N2773 1.351 1_545 S
C2774 C2775 1.434 . S
C2775 C2766 1.429 . S
C2775 N2772 1.350 . S
C2775 C2774 1.434 . S
C2776 C2777 1.369 . S
C2776 C2778 1.419 . S
C2776 H2780 0.930 . S
C2777 C2776 1.369 . S
C2777 C2786 1.429 . S
C2778 C2776 1.419 . S
C2778 C2779 1.363 . S
C2778 H2781 0.929 . S
C2779 C2778 1.363 . S
C2779 C2785 1.428 . S
H2780 C2776 0.930 . S
H2781 C2778 0.929 . S
S2782 N2783 1.612 . S
S2782 N2784 1.610 . S
N2783 S2782 1.612 . S
N2783 C2786 1.351 1_556 S
N2784 S2782 1.610 . S
N2784 C2785 1.351 1_556 S
C2785 C2779 1.428 . S
C2785 N2784 1.351 1_554 S
C2785 C2786 1.434 . S
C2786 C2777 1.429 . S
C2786 N2783 1.351 1_554 S
C2786 C2785 1.434 . S
C2787 C2788 1.369 . S
C2787 C2789 1.419 . S
C2787 H2791 0.930 1_554 S
C2788 C2787 1.369 . S
C2788 C2797 1.429 . S
C2789 C2787 1.419 . S
C2789 C2790 1.363 . S
C2789 H2792 0.929 . S
C2790 C2789 1.363 . S
C2790 C2796 1.428 . S
H2791 C2787 0.930 1_556 S
H2792 C2789 0.929 . S
S2793 N2794 1.613 . S
S2793 N2795 1.610 . S
N2794 S2793 1.613 . S
N2794 C2797 1.350 . S
N2795 S2793 1.610 . S
N2795 C2796 1.351 . S
C2796 C2790 1.428 . S
C2796 N2795 1.351 . S
C2796 C2797 1.434 . S
C2797 C2788 1.429 . S
C2797 N2794 1.350 . S
C2797 C2796 1.434 . S
C2798 C2799 1.369 . S
C2798 C2800 1.419 . S
C2798 H2802 0.909 1_554 S
C2799 C2798 1.369 . S
C2799 C2808 1.429 . S
C2800 C2798 1.419 . S
C2800 C2801 1.363 . S
C2800 H2803 0.929 . S
C2801 C2800 1.363 . S
C2801 C2807 1.428 . S
H2802 C2798 0.909 1_556 S
H2803 C2800 0.929 . S
S2804 N2805 1.613 . S
S2804 N2806 1.610 . S
N2805 S2804 1.613 . S
N2805 C2808 1.350 . S
N2806 S2804 1.610 . S
N2806 C2807 1.351 . S
C2807 C2801 1.428 . S
C2807 N2806 1.351 . S
C2807 C2808 1.434 . S
C2808 C2799 1.429 . S
C2808 N2805 1.350 . S
C2808 C2807 1.434 . S
C2809 C2810 1.369 . S
C2809 C2811 1.419 . S
C2809 H2813 0.930 . S
C2810 C2809 1.369 . S
C2810 C2819 1.429 1_554 S
C2811 C2809 1.419 . S
C2811 C2812 1.363 . S
C2811 H2814 0.929 . S
C2812 C2811 1.363 . S
C2812 C2818 1.428 . S
H2813 C2809 0.930 . S
H2814 C2811 0.929 . S
S2815 N2816 1.613 . S
S2815 N2817 1.610 . S
N2816 S2815 1.613 . S
N2816 C2819 1.350 . S
N2817 S2815 1.610 . S
N2817 C2818 1.351 1_556 S
C2818 C2812 1.428 . S
C2818 N2817 1.351 1_554 S
C2818 C2819 1.434 1_554 S
C2819 C2810 1.429 1_556 S
C2819 N2816 1.350 . S
C2819 C2818 1.434 1_556 S
C2820 C2821 1.369 . S
C2820 C2822 1.419 . S
C2820 H2824 0.930 . S
C2821 C2820 1.369 . S
C2821 C2830 1.429 . S
C2822 C2820 1.419 . S
C2822 C2823 1.363 . S
C2822 H2825 0.929 . S
C2823 C2822 1.363 . S
C2823 C2829 1.428 . S
H2824 C2820 0.930 . S
H2825 C2822 0.929 . S
S2826 N2827 1.613 . S
S2826 N2828 1.610 . S
N2827 S2826 1.613 . S
N2827 C2830 1.350 . S
N2828 S2826 1.610 . S
N2828 C2829 1.351 . S
C2829 C2823 1.428 . S
C2829 N2828 1.351 . S
C2829 C2830 1.434 . S
C2830 C2821 1.429 . S
C2830 N2827 1.350 . S
C2830 C2829 1.434 . S
C2831 C2832 1.369 . S
C2831 C2833 1.419 . S
C2831 H2835 0.930 . S
C2832 C2831 1.369 . S
C2832 C2841 1.429 . S
C2833 C2831 1.419 . S
C2833 C2834 1.363 . S
C2833 H2836 0.929 . S
C2834 C2833 1.363 . S
C2834 C2840 1.428 . S
H2835 C2831 0.930 . S
H2836 C2833 0.929 . S
S2837 N2838 1.613 . S
S2837 N2839 1.610 . S
N2838 S2837 1.613 . S
N2838 C2841 1.350 . S
N2839 S2837 1.610 . S
N2839 C2840 1.351 . S
C2840 C2834 1.428 . S
C2840 N2839 1.351 . S
C2840 C2841 1.434 . S
C2841 C2832 1.429 . S
C2841 N2838 1.350 . S
C2841 C2840 1.434 . S
C2842 C2843 1.369 . S
C2842 C2844 1.419 . S
C2842 H2846 0.930 . S
C2843 C2842 1.369 . S
C2843 C2852 1.429 . S
C2844 C2842 1.419 . S
C2844 C2845 1.363 . S
C2844 H2847 0.929 . S
C2845 C2844 1.363 . S
C2845 C2851 1.428 . S
H2846 C2842 0.930 . S
H2847 C2844 0.929 . S
S2848 N2849 1.613 . S
S2848 N2850 1.610 . S
N2849 S2848 1.613 . S
N2849 C2852 1.350 . S
N2850 S2848 1.610 . S
N2850 C2851 1.351 . S
C2851 C2845 1.428 . S
C2851 N2850 1.351 . S
C2851 C2852 1.434 . S
C2852 C2843 1.429 . S
C2852 N2849 1.350 . S
C2852 C2851 1.434 . S
C2853 C2854 1.369 . S
C2853 C2855 1.419 . S
C2853 H2857 0.930 . S
C2854 C2853 1.369 . S
C2854 C2863 1.429 . S
C2855 C2853 1.419 . S
C2855 C2856 1.363 . S
C2855 H2858 0.929 . S
C2856 C2855 1.363 . S
C2856 C2862 1.428 . S
H2857 C2853 0.930 . S
H2858 C2855 0.929 . S
S2859 N2860 1.613 . S
S2859 N2861 1.610 . S
N2860 S2859 1.613 . S
N2860 C2863 1.350 . S
N2861 S2859 1.610 . S
N2861 C2862 1.351 . S
C2862 C2856 1.428 . S
C2862 N2861 1.351 . S
C2862 C2863 1.434 . S
C2863 C2854 1.429 . S
C2863 N2860 1.350 . S
C2863 C2862 1.434 . S
C2864 C2865 1.369 . S
C2864 C2866 1.419 . S
C2864 H2868 0.930 . S
C2865 C2864 1.369 . S
C2865 C2874 1.429 . S
C2866 C2864 1.419 . S
C2866 C2867 1.363 . S
C2866 H2869 0.929 . S
C2867 C2866 1.363 . S
C2867 C2873 1.428 . S
H2868 C2864 0.930 . S
H2869 C2866 0.929 . S
S2870 N2871 1.613 . S
S2870 N2872 1.610 . S
N2871 S2870 1.613 . S
N2871 C2874 1.350 . S
N2872 S2870 1.610 . S
N2872 C2873 1.351 . S
C2873 C2867 1.428 . S
C2873 N2872 1.351 . S
C2873 C2874 1.434 . S
C2874 C2865 1.429 . S
C2874 N2871 1.350 . S
C2874 C2873 1.434 . S
C2875 C2876 1.369 . S
C2875 C2877 1.419 . S
C2875 H2879 0.930 . S
C2876 C2875 1.369 . S
C2876 C2885 1.429 . S
C2877 C2875 1.419 . S
C2877 C2878 1.363 . S
C2877 H2880 0.929 . S
C2878 C2877 1.363 . S
C2878 C2884 1.428 . S
H2879 C2875 0.930 . S
H2880 C2877 0.929 . S
S2881 N2882 1.613 . S
S2881 N2883 1.610 . S
N2882 S2881 1.613 . S
N2882 C2885 1.350 . S
N2883 S2881 1.610 . S
N2883 C2884 1.351 . S
C2884 C2878 1.428 . S
C2884 N2883 1.351 . S
C2884 C2885 1.434 . S
C2885 C2876 1.429 . S
C2885 N2882 1.350 . S
C2885 C2884 1.434 . S
C2886 C2887 1.369 . S
C2886 C2888 1.419 . S
C2886 H2890 0.930 . S
C2887 C2886 1.369 . S
C2887 C2896 1.429 . S
C2888 C2886 1.419 . S
C2888 C2889 1.363 . S
C2888 H2891 0.929 . S
C2889 C2888 1.363 . S
C2889 C2895 1.428 . S
H2890 C2886 0.930 . S
H2891 C2888 0.929 . S
S2892 N2893 1.613 . S
S2892 N2894 1.610 . S
N2893 S2892 1.613 . S
N2893 C2896 1.350 . S
N2894 S2892 1.610 . S
N2894 C2895 1.351 . S
C2895 C2889 1.428 . S
C2895 N2894 1.351 . S
C2895 C2896 1.434 . S
C2896 C2887 1.429 . S
C2896 N2893 1.350 . S
C2896 C2895 1.434 . S
C2897 C2898 1.369 . S
C2897 C2899 1.419 . S
C2897 H2901 0.930 . S
C2898 C2897 1.369 . S
C2898 C2907 1.429 . S
C2899 C2897 1.419 . S
C2899 C2900 1.363 . S
C2899 H2902 0.929 . S
C2900 C2899 1.363 . S
C2900 C2906 1.428 . S
H2901 C2897 0.930 . S
H2902 C2899 0.929 . S
S2903 N2904 1.613 . S
S2903 N2905 1.610 . S
N2904 S2903 1.613 . S
N2904 C2907 1.350 . S
N2905 S2903 1.610 . S
N2905 C2906 1.351 . S
C2906 C2900 1.428 . S
C2906 N2905 1.351 . S
C2906 C2907 1.434 . S
C2907 C2898 1.429 . S
C2907 N2904 1.350 . S
C2907 C2906 1.434 . S
C2908 C2909 1.369 . S
C2908 C2910 1.419 . S
C2908 H2912 0.930 . S
C2909 C2908 1.369 . S
C2909 C2918 1.429 . S
C2910 C2908 1.419 . S
C2910 C2911 1.363 . S
C2910 H2913 0.929 . S
C2911 C2910 1.363 . S
C2911 C2917 1.428 . S
H2912 C2908 0.930 . S
H2913 C2910 0.929 . S
S2914 N2915 1.613 . S
S2914 N2916 1.610 . S
N2915 S2914 1.613 . S
N2915 C2918 1.350 . S
N2916 S2914 1.610 . S
N2916 C2917 1.351 . S
C2917 C2911 1.428 . S
C2917 N2916 1.351 . S
C2917 C2918 1.434 . S
C2918 C2909 1.429 . S
C2918 N2915 1.350 . S
C2918 C2917 1.434 . S
C2919 C2920 1.369 . S
C2919 C2921 1.419 . S
C2919 H2923 0.930 . S
C2920 C2919 1.369 . S
C2920 C2929 1.429 . S
C2921 C2919 1.419 . S
C2921 C2922 1.363 . S
C2921 H2924 0.929 . S
C2922 C2921 1.363 . S
C2922 C2928 1.428 . S
H2923 C2919 0.930 . S
H2924 C2921 0.929 . S
S2925 N2926 1.613 . S
S2925 N2927 1.610 . S
N2926 S2925 1.613 . S
N2926 C2929 1.350 . S
N2927 S2925 1.610 . S
N2927 C2928 1.351 . S
C2928 C2922 1.428 . S
C2928 N2927 1.351 . S
C2928 C2929 1.434 . S
C2929 C2920 1.429 . S
C2929 N2926 1.350 . S
C2929 C2928 1.434 . S
C2930 C2931 1.369 . S
C2930 C2932 1.419 . S
C2930 H2934 0.930 . S
C2931 C2930 1.369 . S
C2931 C2940 1.429 . S
C2932 C2930 1.419 . S
C2932 C2933 1.363 . S
C2932 H2935 0.929 . S
C2933 C2932 1.363 . S
C2933 C2939 1.428 . S
H2934 C2930 0.930 . S
H2935 C2932 0.929 . S
S2936 N2937 1.613 . S
S2936 N2938 1.610 . S
N2937 S2936 1.613 . S
N2937 C2940 1.350 . S
N2938 S2936 1.610 . S
N2938 C2939 1.351 . S
C2939 C2933 1.428 . S
C2939 N2938 1.351 . S
C2939 C2940 1.434 . S
C2940 C2931 1.429 . S
C2940 N2937 1.350 . S
C2940 C2939 1.434 . S
C2941 C2942 1.369 . S
C2941 C2943 1.419 . S
C2941 H2945 0.930 . S
C2942 C2941 1.369 . S
C2942 C2951 1.429 . S
C2943 C2941 1.419 . S
C2943 C2944 1.363 . S
C2943 H2946 0.929 . S
C2944 C2943 1.363 . S
C2944 C2950 1.428 . S
H2945 C2941 0.930 . S
H2946 C2943 0.929 . S
S2947 N2948 1.613 . S
S2947 N2949 1.610 . S
N2948 S2947 1.613 . S
N2948 C2951 1.350 . S
N2949 S2947 1.610 . S
N2949 C2950 1.351 . S
C2950 C2944 1.428 . S
C2950 N2949 1.351 . S
C2950 C2951 1.434 . S
C2951 C2942 1.429 . S
C2951 N2948 1.350 . S
C2951 C2950 1.434 . S
C1633 C1501 1.292 . S
C1635 C5 1.283 . S
C1644 C1399 1.282 . S
C1646 C39 1.291 . S
C1655 C1433 1.280 . S
C1657 C73 1.285 . S
C1666 C107 1.292 . S
C1668 C1467 1.283 . S
C1677 C141 1.287 . S
C1679 C1603 1.289 . S
C1688 C175 1.281 . S
C1690 C1535 1.284 . S
C1699 C209 1.291 . S
C1701 C1569 1.286 . S
C1710 C1365 1.281 . S
C1712 C243 1.291 . S
C1721 C1331 1.285 . S
C1723 C277 1.281 . S
C1732 C311 1.292 . S
C1734 C1229 1.282 . S
C1743 C345 1.292 . S
C1745 C1263 1.282 . S
C1754 C1297 1.286 . S
C1756 C379 1.290 . S
C1765 C413 1.287 . S
C1767 C1127 1.280 . S
C1776 C447 1.280 . S
C1778 C1161 1.285 . S
C1787 C1195 1.292 . S
C1789 C481 1.281 . S
C1798 C515 1.279 . S
C1800 C1093 1.289 . S
C1809 C549 1.292 . S
C1811 C1059 1.283 . S
C1820 C855 1.279 . S
C1822 C583 1.287 . S
C1831 C889 1.283 . S
C1833 C617 1.291 . S
C1842 C651 1.279 . S
C1844 C923 1.287 . S
C1853 C821 1.291 . S
C1855 C685 1.281 . S
C1864 C719 1.288 . S
C1866 C991 1.289 . S
C1875 C1025 1.279 . S
C1877 C753 1.286 . S
C1886 C787 1.281 . S
C1888 C957 1.284 . S
C1897 C138 2.307 . S
C1899 C1430 2.307 . S
C1908 C1464 2.306 . S
C1910 C172 2.306 . S
C1919 C206 2.307 . S
C1921 C1498 2.307 . S
C1930 C1396 2.306 . S
C1932 C240 2.307 . S
C1941 C1566 2.306 . S
C1943 C2 2.306 . S
C1952 C36 2.307 . S
C1954 C1362 2.306 . S
C1963 C1600 2.307 . S
C1965 C70 2.306 . S
C1974 C1532 2.306 . S
C1976 C104 2.306 . S
C1985 C1124 2.306 . S
C1987 C478 2.306 . S
C1996 C512 2.308 . S
C1998 C1158 2.307 . S
C2007 C1192 2.307 . S
C2009 C410 2.307 . S
C2018 C444 2.306 . S
C2020 C1090 2.307 . S
C2029 C1328 2.306 . S
C2031 C342 2.307 . S
C2040 C1226 2.306 . S
C2042 C376 2.306 . S
C2051 C1260 2.307 . S
C2053 C274 2.307 . S
C2062 C1294 2.307 . S
C2064 C308 2.307 . S
C2073 C920 2.307 . S
C2075 C716 2.306 . S
C2084 C648 2.307 . S
C2086 C988 2.306 . S
C2095 C682 2.307 . S
C2097 C1022 2.307 . S
C2106 C1056 2.307 . S
C2108 C580 2.307 . S
C2117 C614 2.307 . S
C2119 C954 2.307 . S
C2128 C852 2.307 . S
C2130 C546 2.307 . S
C2139 C784 2.307 . S
C2141 C886 2.307 . S
C2150 C818 2.307 . S
C2152 C750 2.307 . S
C2161 C111 1.654 . S
C2163 C20 1.640 . S
C2172 C9 1.654 . S
C2174 C54 1.641 . S
C2183 C88 1.637 . S
C2185 C43 1.655 . S
C2194 C122 1.637 . S
C2196 C77 1.655 . S
C2205 C179 1.655 . S
C2207 C156 1.638 . S
C2216 C190 1.638 . S
C2218 C213 1.655 . S
C2227 C224 1.641 . S
C2229 C247 1.654 . S
C2238 C145 1.654 . S
C2240 C258 1.640 . S
C2249 C621 1.653 . S
C2251 C292 1.641 . S
C2260 C655 1.656 . S
C2262 C326 1.637 . S
C2271 C689 1.655 . S
C2273 C360 1.640 . S
C2282 C394 1.641 . S
C2284 C587 1.654 . S
C2293 C757 1.654 . S
C2295 C428 1.641 . S
C2304 C462 1.636 . S
C2306 C553 1.656 . S
C2315 C496 1.642 . S
C2317 C791 1.654 . S
C2326 C723 1.654 . S
C2328 C530 1.639 . S
C2337 C564 1.642 . S
C2339 C315 1.654 . S
C2348 C519 1.656 . S
C2350 C598 1.637 . S
C2359 C632 1.641 . S
C2361 C417 1.655 . S
C2370 C451 1.654 . S
C2372 C666 1.639 . S
C2381 C700 1.636 . S
C2383 C485 1.656 . S
C2392 C383 1.656 . S
C2394 C734 1.639 . S
C2403 C281 1.654 . S
C2405 C768 1.641 . S
C2414 C802 1.637 . S
C2416 C349 1.655 . S
C2425 C836 1.640 . S
C2427 C927 1.654 . S
C2436 C870 1.639 . S
C2438 C825 1.656 . S
C2447 C859 1.655 . S
C2449 C904 1.638 . S
C2458 C893 1.655 . S
C2460 C938 1.638 . S
C2469 C972 1.636 . S
C2471 C995 1.656 . S
C2480 C1006 1.641 . S
C2482 C1029 1.654 . S
C2491 C1040 1.637 . S
C2493 C1063 1.655 . S
C2502 C961 1.654 . S
C2504 C1074 1.640 . S
C2513 C1437 1.655 . S
C2515 C1108 1.637 . S
C2524 C1471 1.655 . S
C2526 C1142 1.638 . S
C2535 C1176 1.642 . S
C2537 C1505 1.654 . S
C2546 C1403 1.656 . S
C2548 C1210 1.637 . S
C2557 C1244 1.638 . S
C2559 C1573 1.655 . S
C2568 C1369 1.654 . S
C2570 C1278 1.640 . S
C2579 C1607 1.655 . S
C2581 C1312 1.638 . S
C2590 C1346 1.642 . S
C2592 C1539 1.654 . S
C2601 C1131 1.656 . S
C2603 C1380 1.637 . S
C2612 C1414 1.638 . S
C2614 C1335 1.655 . S
C2623 C1448 1.639 . S
C2625 C1233 1.654 . S
C2634 C1482 1.637 . S
C2636 C1267 1.656 . S
C2645 C1516 1.638 . S
C2647 C1301 1.656 . S
C2656 C1550 1.641 . S
C2658 C1199 1.654 . S
C2667 C1097 1.656 . S
C2669 C1584 1.637 . S
C2678 C1165 1.653 . S
C2680 C1618 1.641 . S
C2689 C33 1.600 . S
C2691 C339 1.597 . S
C2700 C373 1.596 . S
C2702 C67 1.599 . S
C2711 C407 1.599 . S
C2713 C101 1.597 . S
C2722 C305 1.598 . S
C2724 C135 1.599 . S
C2733 C169 1.597 . S
C2735 C543 1.598 . S
C2744 C441 1.599 . S
C2746 C203 1.598 . S
C2755 C237 1.596 . S
C2757 C475 1.599 . S
C2766 C271 1.597 . S
C2768 C509 1.599 . S
C2777 C645 1.597 . S
C2779 C577 1.598 . S
C2788 C781 1.596 . S
C2790 C611 1.600 . S
C2799 C815 1.597 . S
C2801 C679 1.598 . S
C2810 C747 1.600 . S
C2812 C713 1.597 . S
C2821 C849 1.599 . S
C2823 C1155 1.598 . S
C2832 C883 1.596 . S
C2834 C1189 1.599 . S
C2843 C1223 1.596 . S
C2845 C917 1.599 . S
C2854 C1121 1.596 . S
C2856 C951 1.599 . S
C2865 C1359 1.596 . S
C2867 C985 1.599 . S
C2876 C1019 1.599 . S
C2878 C1257 1.598 . S
C2887 C1053 1.598 . S
C2889 C1291 1.599 . S
C2898 C1087 1.600 . S
C2900 C1325 1.597 . S
C2909 C1393 1.600 . S
C2911 C1461 1.597 . S
C2920 C1427 1.597 . S
C2922 C1597 1.599 . S
C2931 C1495 1.597 . S
C2933 C1631 1.599 . S
C2942 C1529 1.599 . S
C2944 C1563 1.597 . S
