# Generated by pormake.
# Topology nfb, (4)-cn, num edge types: 1
# Building blocks:
#     Node 0, Type 0, BuildingBlock: TATPOV_clean_sbu_0, # of connection points: 4
#     Node 1, Type 0, BuildingBlock: TATPOV_clean_sbu_0, # of connection points: 4
#     Node 2, Type 0, BuildingBlock: TATPOV_clean_sbu_0, # of connection points: 4
#     Node 3, Type 0, BuildingBlock: TATPOV_clean_sbu_0, # of connection points: 4
#     Node 4, Type 0, BuildingBlock: TATPOV_clean_sbu_0, # of connection points: 4
#     Node 5, Type 0, BuildingBlock: TATPOV_clean_sbu_0, # of connection points: 4
#     Node 6, Type 0, BuildingBlock: TATPOV_clean_sbu_0, # of connection points: 4
#     Node 7, Type 0, BuildingBlock: TATPOV_clean_sbu_0, # of connection points: 4
#     Node 8, Type 0, BuildingBlock: TATPOV_clean_sbu_0, # of connection points: 4
#     Node 9, Type 0, BuildingBlock: TATPOV_clean_sbu_0, # of connection points: 4
#     Node 10, Type 0, BuildingBlock: TATPOV_clean_sbu_0, # of connection points: 4
#     Node 11, Type 0, BuildingBlock: TATPOV_clean_sbu_0, # of connection points: 4
#     Node 12, Type 0, BuildingBlock: TATPOV_clean_sbu_0, # of connection points: 4
#     Node 13, Type 0, BuildingBlock: TATPOV_clean_sbu_0, # of connection points: 4
#     Node 14, Type 0, BuildingBlock: TATPOV_clean_sbu_0, # of connection points: 4
#     Node 15, Type 0, BuildingBlock: TATPOV_clean_sbu_0, # of connection points: 4
#     Node 16, Type 0, BuildingBlock: TATPOV_clean_sbu_0, # of connection points: 4
#     Node 17, Type 0, BuildingBlock: TATPOV_clean_sbu_0, # of connection points: 4
#     Node 18, Type 0, BuildingBlock: TATPOV_clean_sbu_0, # of connection points: 4
#     Node 19, Type 0, BuildingBlock: TATPOV_clean_sbu_0, # of connection points: 4
#     Node 20, Type 0, BuildingBlock: TATPOV_clean_sbu_0, # of connection points: 4
#     Node 21, Type 0, BuildingBlock: TATPOV_clean_sbu_0, # of connection points: 4
#     Node 22, Type 0, BuildingBlock: TATPOV_clean_sbu_0, # of connection points: 4
#     Node 23, Type 0, BuildingBlock: TATPOV_clean_sbu_0, # of connection points: 4
#     Node 24, Type 0, BuildingBlock: TATPOV_clean_sbu_0, # of connection points: 4
#     Node 25, Type 0, BuildingBlock: TATPOV_clean_sbu_0, # of connection points: 4
#     Node 26, Type 0, BuildingBlock: TATPOV_clean_sbu_0, # of connection points: 4
#     Node 27, Type 0, BuildingBlock: TATPOV_clean_sbu_0, # of connection points: 4
#     Node 28, Type 0, BuildingBlock: TATPOV_clean_sbu_0, # of connection points: 4
#     Node 29, Type 0, BuildingBlock: TATPOV_clean_sbu_0, # of connection points: 4
#     Node 30, Type 0, BuildingBlock: TATPOV_clean_sbu_0, # of connection points: 4
#     Node 31, Type 0, BuildingBlock: TATPOV_clean_sbu_0, # of connection points: 4
#     Node 32, Type 0, BuildingBlock: TATPOV_clean_sbu_0, # of connection points: 4
#     Node 33, Type 0, BuildingBlock: TATPOV_clean_sbu_0, # of connection points: 4
#     Node 34, Type 0, BuildingBlock: TATPOV_clean_sbu_0, # of connection points: 4
#     Node 35, Type 0, BuildingBlock: TATPOV_clean_sbu_0, # of connection points: 4
#     Node 36, Type 0, BuildingBlock: TATPOV_clean_sbu_0, # of connection points: 4
#     Node 37, Type 0, BuildingBlock: TATPOV_clean_sbu_0, # of connection points: 4
#     Node 38, Type 0, BuildingBlock: TATPOV_clean_sbu_0, # of connection points: 4
#     Node 39, Type 0, BuildingBlock: TATPOV_clean_sbu_0, # of connection points: 4
#     Node 40, Type 0, BuildingBlock: TATPOV_clean_sbu_0, # of connection points: 4
#     Node 41, Type 0, BuildingBlock: TATPOV_clean_sbu_0, # of connection points: 4
#     Node 42, Type 0, BuildingBlock: TATPOV_clean_sbu_0, # of connection points: 4
#     Node 43, Type 0, BuildingBlock: TATPOV_clean_sbu_0, # of connection points: 4
#     Node 44, Type 0, BuildingBlock: TATPOV_clean_sbu_0, # of connection points: 4
#     Node 45, Type 0, BuildingBlock: TATPOV_clean_sbu_0, # of connection points: 4
#     Node 46, Type 0, BuildingBlock: TATPOV_clean_sbu_0, # of connection points: 4
#     Node 47, Type 0, BuildingBlock: TATPOV_clean_sbu_0, # of connection points: 4
#     Edge 48, Type (0, 0), BuildingBlock: KIFKEQ_clean_linker_1, # of connection points: 2
#     Edge 49, Type (0, 0), BuildingBlock: KIFKEQ_clean_linker_1, # of connection points: 2
#     Edge 50, Type (0, 0), BuildingBlock: KIFKEQ_clean_linker_1, # of connection points: 2
#     Edge 51, Type (0, 0), BuildingBlock: KIFKEQ_clean_linker_1, # of connection points: 2
#     Edge 52, Type (0, 0), BuildingBlock: KIFKEQ_clean_linker_1, # of connection points: 2
#     Edge 53, Type (0, 0), BuildingBlock: KIFKEQ_clean_linker_1, # of connection points: 2
#     Edge 54, Type (0, 0), BuildingBlock: KIFKEQ_clean_linker_1, # of connection points: 2
#     Edge 55, Type (0, 0), BuildingBlock: KIFKEQ_clean_linker_1, # of connection points: 2
#     Edge 56, Type (0, 0), BuildingBlock: KIFKEQ_clean_linker_1, # of connection points: 2
#     Edge 57, Type (0, 0), BuildingBlock: KIFKEQ_clean_linker_1, # of connection points: 2
#     Edge 58, Type (0, 0), BuildingBlock: KIFKEQ_clean_linker_1, # of connection points: 2
#     Edge 59, Type (0, 0), BuildingBlock: KIFKEQ_clean_linker_1, # of connection points: 2
#     Edge 60, Type (0, 0), BuildingBlock: KIFKEQ_clean_linker_1, # of connection points: 2
#     Edge 61, Type (0, 0), BuildingBlock: KIFKEQ_clean_linker_1, # of connection points: 2
#     Edge 62, Type (0, 0), BuildingBlock: KIFKEQ_clean_linker_1, # of connection points: 2
#     Edge 63, Type (0, 0), BuildingBlock: KIFKEQ_clean_linker_1, # of connection points: 2
#     Edge 64, Type (0, 0), BuildingBlock: KIFKEQ_clean_linker_1, # of connection points: 2
#     Edge 65, Type (0, 0), BuildingBlock: KIFKEQ_clean_linker_1, # of connection points: 2
#     Edge 66, Type (0, 0), BuildingBlock: KIFKEQ_clean_linker_1, # of connection points: 2
#     Edge 67, Type (0, 0), BuildingBlock: KIFKEQ_clean_linker_1, # of connection points: 2
#     Edge 68, Type (0, 0), BuildingBlock: KIFKEQ_clean_linker_1, # of connection points: 2
#     Edge 69, Type (0, 0), BuildingBlock: KIFKEQ_clean_linker_1, # of connection points: 2
#     Edge 70, Type (0, 0), BuildingBlock: KIFKEQ_clean_linker_1, # of connection points: 2
#     Edge 71, Type (0, 0), BuildingBlock: KIFKEQ_clean_linker_1, # of connection points: 2
#     Edge 72, Type (0, 0), BuildingBlock: KIFKEQ_clean_linker_1, # of connection points: 2
#     Edge 73, Type (0, 0), BuildingBlock: KIFKEQ_clean_linker_1, # of connection points: 2
#     Edge 74, Type (0, 0), BuildingBlock: KIFKEQ_clean_linker_1, # of connection points: 2
#     Edge 75, Type (0, 0), BuildingBlock: KIFKEQ_clean_linker_1, # of connection points: 2
#     Edge 76, Type (0, 0), BuildingBlock: KIFKEQ_clean_linker_1, # of connection points: 2
#     Edge 77, Type (0, 0), BuildingBlock: KIFKEQ_clean_linker_1, # of connection points: 2
#     Edge 78, Type (0, 0), BuildingBlock: KIFKEQ_clean_linker_1, # of connection points: 2
#     Edge 79, Type (0, 0), BuildingBlock: KIFKEQ_clean_linker_1, # of connection points: 2
#     Edge 80, Type (0, 0), BuildingBlock: KIFKEQ_clean_linker_1, # of connection points: 2
#     Edge 81, Type (0, 0), BuildingBlock: KIFKEQ_clean_linker_1, # of connection points: 2
#     Edge 82, Type (0, 0), BuildingBlock: KIFKEQ_clean_linker_1, # of connection points: 2
#     Edge 83, Type (0, 0), BuildingBlock: KIFKEQ_clean_linker_1, # of connection points: 2
#     Edge 84, Type (0, 0), BuildingBlock: KIFKEQ_clean_linker_1, # of connection points: 2
#     Edge 85, Type (0, 0), BuildingBlock: KIFKEQ_clean_linker_1, # of connection points: 2
#     Edge 86, Type (0, 0), BuildingBlock: KIFKEQ_clean_linker_1, # of connection points: 2
#     Edge 87, Type (0, 0), BuildingBlock: KIFKEQ_clean_linker_1, # of connection points: 2
#     Edge 88, Type (0, 0), BuildingBlock: KIFKEQ_clean_linker_1, # of connection points: 2
#     Edge 89, Type (0, 0), BuildingBlock: KIFKEQ_clean_linker_1, # of connection points: 2
#     Edge 90, Type (0, 0), BuildingBlock: KIFKEQ_clean_linker_1, # of connection points: 2
#     Edge 91, Type (0, 0), BuildingBlock: KIFKEQ_clean_linker_1, # of connection points: 2
#     Edge 92, Type (0, 0), BuildingBlock: KIFKEQ_clean_linker_1, # of connection points: 2
#     Edge 93, Type (0, 0), BuildingBlock: KIFKEQ_clean_linker_1, # of connection points: 2
#     Edge 94, Type (0, 0), BuildingBlock: KIFKEQ_clean_linker_1, # of connection points: 2
#     Edge 95, Type (0, 0), BuildingBlock: KIFKEQ_clean_linker_1, # of connection points: 2
#     Edge 96, Type (0, 0), BuildingBlock: KIFKEQ_clean_linker_1, # of connection points: 2
#     Edge 97, Type (0, 0), BuildingBlock: KIFKEQ_clean_linker_1, # of connection points: 2
#     Edge 98, Type (0, 0), BuildingBlock: KIFKEQ_clean_linker_1, # of connection points: 2
#     Edge 99, Type (0, 0), BuildingBlock: KIFKEQ_clean_linker_1, # of connection points: 2
#     Edge 100, Type (0, 0), BuildingBlock: KIFKEQ_clean_linker_1, # of connection points: 2
#     Edge 101, Type (0, 0), BuildingBlock: KIFKEQ_clean_linker_1, # of connection points: 2
#     Edge 102, Type (0, 0), BuildingBlock: KIFKEQ_clean_linker_1, # of connection points: 2
#     Edge 103, Type (0, 0), BuildingBlock: KIFKEQ_clean_linker_1, # of connection points: 2
#     Edge 104, Type (0, 0), BuildingBlock: KIFKEQ_clean_linker_1, # of connection points: 2
#     Edge 105, Type (0, 0), BuildingBlock: KIFKEQ_clean_linker_1, # of connection points: 2
#     Edge 106, Type (0, 0), BuildingBlock: KIFKEQ_clean_linker_1, # of connection points: 2
#     Edge 107, Type (0, 0), BuildingBlock: KIFKEQ_clean_linker_1, # of connection points: 2
#     Edge 108, Type (0, 0), BuildingBlock: KIFKEQ_clean_linker_1, # of connection points: 2
#     Edge 109, Type (0, 0), BuildingBlock: KIFKEQ_clean_linker_1, # of connection points: 2
#     Edge 110, Type (0, 0), BuildingBlock: KIFKEQ_clean_linker_1, # of connection points: 2
#     Edge 111, Type (0, 0), BuildingBlock: KIFKEQ_clean_linker_1, # of connection points: 2
#     Edge 112, Type (0, 0), BuildingBlock: KIFKEQ_clean_linker_1, # of connection points: 2
#     Edge 113, Type (0, 0), BuildingBlock: KIFKEQ_clean_linker_1, # of connection points: 2
#     Edge 114, Type (0, 0), BuildingBlock: KIFKEQ_clean_linker_1, # of connection points: 2
#     Edge 115, Type (0, 0), BuildingBlock: KIFKEQ_clean_linker_1, # of connection points: 2
#     Edge 116, Type (0, 0), BuildingBlock: KIFKEQ_clean_linker_1, # of connection points: 2
#     Edge 117, Type (0, 0), BuildingBlock: KIFKEQ_clean_linker_1, # of connection points: 2
#     Edge 118, Type (0, 0), BuildingBlock: KIFKEQ_clean_linker_1, # of connection points: 2
#     Edge 119, Type (0, 0), BuildingBlock: KIFKEQ_clean_linker_1, # of connection points: 2
#     Edge 120, Type (0, 0), BuildingBlock: KIFKEQ_clean_linker_1, # of connection points: 2
#     Edge 121, Type (0, 0), BuildingBlock: KIFKEQ_clean_linker_1, # of connection points: 2
#     Edge 122, Type (0, 0), BuildingBlock: KIFKEQ_clean_linker_1, # of connection points: 2
#     Edge 123, Type (0, 0), BuildingBlock: KIFKEQ_clean_linker_1, # of connection points: 2
#     Edge 124, Type (0, 0), BuildingBlock: KIFKEQ_clean_linker_1, # of connection points: 2
#     Edge 125, Type (0, 0), BuildingBlock: KIFKEQ_clean_linker_1, # of connection points: 2
#     Edge 126, Type (0, 0), BuildingBlock: KIFKEQ_clean_linker_1, # of connection points: 2
#     Edge 127, Type (0, 0), BuildingBlock: KIFKEQ_clean_linker_1, # of connection points: 2
#     Edge 128, Type (0, 0), BuildingBlock: KIFKEQ_clean_linker_1, # of connection points: 2
#     Edge 129, Type (0, 0), BuildingBlock: KIFKEQ_clean_linker_1, # of connection points: 2
#     Edge 130, Type (0, 0), BuildingBlock: KIFKEQ_clean_linker_1, # of connection points: 2
#     Edge 131, Type (0, 0), BuildingBlock: KIFKEQ_clean_linker_1, # of connection points: 2
#     Edge 132, Type (0, 0), BuildingBlock: KIFKEQ_clean_linker_1, # of connection points: 2
#     Edge 133, Type (0, 0), BuildingBlock: KIFKEQ_clean_linker_1, # of connection points: 2
#     Edge 134, Type (0, 0), BuildingBlock: KIFKEQ_clean_linker_1, # of connection points: 2
#     Edge 135, Type (0, 0), BuildingBlock: KIFKEQ_clean_linker_1, # of connection points: 2
#     Edge 136, Type (0, 0), BuildingBlock: KIFKEQ_clean_linker_1, # of connection points: 2
#     Edge 137, Type (0, 0), BuildingBlock: KIFKEQ_clean_linker_1, # of connection points: 2
#     Edge 138, Type (0, 0), BuildingBlock: KIFKEQ_clean_linker_1, # of connection points: 2
#     Edge 139, Type (0, 0), BuildingBlock: KIFKEQ_clean_linker_1, # of connection points: 2
#     Edge 140, Type (0, 0), BuildingBlock: KIFKEQ_clean_linker_1, # of connection points: 2
#     Edge 141, Type (0, 0), BuildingBlock: KIFKEQ_clean_linker_1, # of connection points: 2
#     Edge 142, Type (0, 0), BuildingBlock: KIFKEQ_clean_linker_1, # of connection points: 2
#     Edge 143, Type (0, 0), BuildingBlock: KIFKEQ_clean_linker_1, # of connection points: 2
# Relax obj value: 0.381
# Max RMSD: 0.221
# Mean RMSD: 0.178
data_MOF--net-nfb--node1-TATPOV_clean_sbu_0--edge1-KIFKEQ_clean_linker_1
_symmetry_space_group_name_H-M    P1
_symmetry_Int_Tables_number       1
_symmetry_cell_setting            triclinic
loop_
_symmetry_equiv_pos_as_xyz
'x, y, z'
_cell_length_a     59.139186
_cell_length_b     58.194726
_cell_length_c     58.191345
_cell_angle_alpha  89.934076
_cell_angle_beta   90.028913
_cell_angle_gamma 89.502598
loop_
_atom_site_label
_atom_site_type_symbol
_atom_site_fract_x
_atom_site_fract_y
_atom_site_fract_z
_atom_type_partial_charge
Zn0 Zn 0.13024 0.14372 0.32527 0.0
Zn1 Zn 0.12487 0.13621 0.37001 0.0
O2 O 0.09696 0.12192 0.35487 0.0
O3 O 0.1009 0.12571 0.31761 0.0
O4 O 0.12129 0.12662 0.40257 0.0
O5 O 0.16357 0.13234 0.32712 0.0
O6 O 0.1581 0.12782 0.36413 0.0
C7 C 0.08914 0.11927 0.33467 0.0
C8 C 0.12416 0.1849 0.35405 0.0
O9 O 0.1225 0.17074 0.37062 0.0
O10 O 0.12687 0.17769 0.33364 0.0
C11 C 0.10305 0.13009 0.41354 0.0
O12 O 0.08606 0.1406 0.40329 0.0
C13 C 0.17145 0.12803 0.34699 0.0
Zn14 Zn 0.42515 0.60009 0.86696 0.0
Zn15 Zn 0.38311 0.5903 0.88322 0.0
O16 O 0.37979 0.62414 0.87465 0.0
O17 O 0.41276 0.63331 0.86009 0.0
O18 O 0.35223 0.58254 0.89412 0.0
O19 O 0.42258 0.57063 0.84624 0.0
O20 O 0.38844 0.56518 0.85979 0.0
C21 C 0.39291 0.6392 0.8663 0.0
C22 C 0.42345 0.58892 0.91562 0.0
O23 O 0.40263 0.5862 0.9111 0.0
O24 O 0.43704 0.59516 0.89997 0.0
C25 C 0.34498 0.58654 0.91426 0.0
O26 O 0.35829 0.59642 0.92932 0.0
C27 C 0.40477 0.55858 0.84718 0.0
Zn28 Zn 0.89206 0.8592 0.32965 0.0
Zn29 Zn 0.89296 0.87285 0.37353 0.0
O30 O 0.92055 0.88905 0.35904 0.0
O31 O 0.91914 0.88001 0.3224 0.0
O32 O 0.89354 0.88329 0.40633 0.0
O33 O 0.85774 0.86649 0.32939 0.0
O34 O 0.85969 0.87923 0.36487 0.0
C35 C 0.92912 0.88988 0.33895 0.0
C36 C 0.90085 0.82236 0.36143 0.0
O37 O 0.8982 0.83825 0.3762 0.0
O38 O 0.89997 0.8269 0.34015 0.0
C39 C 0.88309 0.8707 0.42057 0.0
O40 O 0.8726 0.85235 0.41313 0.0
C41 C 0.84796 0.87429 0.34722 0.0
Zn42 Zn 0.57242 0.40949 0.87327 0.0
Zn43 Zn 0.61723 0.41598 0.88169 0.0
O44 O 0.61728 0.3827 0.87079 0.0
O45 O 0.58137 0.3758 0.86438 0.0
O46 O 0.64972 0.42026 0.88926 0.0
O47 O 0.574 0.43957 0.85359 0.0
O48 O 0.61047 0.4427 0.8601 0.0
C49 C 0.60172 0.36868 0.86567 0.0
C50 C 0.58236 0.41785 0.92076 0.0
O51 O 0.60231 0.41926 0.91275 0.0
O52 O 0.56588 0.41381 0.90747 0.0
C53 C 0.65858 0.40621 0.9034 0.0
O54 O 0.64599 0.39011 0.91255 0.0
C55 C 0.59235 0.45054 0.85118 0.0
Zn56 Zn 0.1303 0.91953 0.64023 0.0
Zn57 Zn 0.1232 0.8766 0.62416 0.0
O58 O 0.1558 0.87583 0.63585 0.0
O59 O 0.16275 0.90939 0.65119 0.0
O60 O 0.12039 0.84416 0.614 0.0
O61 O 0.09926 0.91641 0.65774 0.0
O62 O 0.09553 0.88132 0.6445 0.0
C63 C 0.16958 0.88943 0.64546 0.0
C64 C 0.12335 0.91614 0.59061 0.0
O65 O 0.12041 0.89502 0.5952 0.0
O66 O 0.1284 0.93023 0.60641 0.0
C67 C 0.13533 0.83622 0.60043 0.0
O68 O 0.15058 0.85019 0.59199 0.0
C69 C 0.0876 0.89822 0.65586 0.0
Zn70 Zn 0.5901 0.62456 0.14229 0.0
Zn71 Zn 0.63425 0.61585 0.13331 0.0
O72 O 0.63466 0.64978 0.14326 0.0
O73 O 0.59915 0.65784 0.15113 0.0
O74 O 0.667 0.60924 0.1279 0.0
O75 O 0.58942 0.59501 0.16266 0.0
O76 O 0.62512 0.58911 0.154 0.0
C77 C 0.61948 0.66437 0.14882 0.0
C78 C 0.60016 0.61509 0.0944 0.0
O79 O 0.62024 0.61265 0.10191 0.0
O80 O 0.58413 0.62033 0.10793 0.0
C81 C 0.67884 0.62305 0.11616 0.0
O82 O 0.6692 0.64144 0.10725 0.0
C83 C 0.60704 0.58238 0.16366 0.0
Zn84 Zn 0.87715 0.08139 0.6281 0.0
Zn85 Zn 0.88443 0.1269 0.62289 0.0
O86 O 0.85134 0.12543 0.63272 0.0
O87 O 0.84428 0.08915 0.63962 0.0
O88 O 0.88796 0.16066 0.61959 0.0
O89 O 0.90749 0.08037 0.64678 0.0
O90 O 0.91107 0.11778 0.64345 0.0
C91 C 0.83737 0.10987 0.63816 0.0
C92 C 0.88503 0.09595 0.58099 0.0
O93 O 0.88779 0.11536 0.59055 0.0
O94 O 0.88015 0.07847 0.59301 0.0
C95 C 0.87457 0.17106 0.60598 0.0
O96 O 0.8601 0.15906 0.59388 0.0
C97 C 0.91873 0.09853 0.65048 0.0
Zn98 Zn 0.41801 0.38253 0.13164 0.0
Zn99 Zn 0.37328 0.39032 0.12665 0.0
O100 O 0.37476 0.35603 0.13557 0.0
O101 O 0.41103 0.34881 0.14006 0.0
O102 O 0.33999 0.39631 0.12458 0.0
O103 O 0.42032 0.41085 0.15313 0.0
O104 O 0.38413 0.41685 0.1469 0.0
C105 C 0.39078 0.34174 0.13928 0.0
C106 C 0.40352 0.39306 0.08495 0.0
O107 O 0.38402 0.39452 0.09405 0.0
O108 O 0.42074 0.38831 0.09713 0.0
C109 C 0.32746 0.38247 0.11366 0.0
O110 O 0.33666 0.36442 0.10371 0.0
C111 C 0.40279 0.42337 0.15554 0.0
Zn112 Zn 0.33293 0.131 0.12273 0.0
Zn113 Zn 0.37733 0.12465 0.11354 0.0
O114 O 0.36168 0.09832 0.09682 0.0
O115 O 0.32518 0.10299 0.10207 0.0
O116 O 0.40976 0.12031 0.10501 0.0
O117 O 0.3359 0.16558 0.11366 0.0
O118 O 0.37211 0.15897 0.10816 0.0
C119 C 0.34156 0.09121 0.09409 0.0
C120 C 0.36163 0.11948 0.16235 0.0
O121 O 0.37741 0.11928 0.14757 0.0
O122 O 0.34137 0.12358 0.15625 0.0
C123 C 0.42052 0.10312 0.11304 0.0
O124 O 0.40979 0.08816 0.12588 0.0
C125 C 0.35562 0.17309 0.1096 0.0
Zn126 Zn 0.37753 0.86517 0.59243 0.0
Zn127 Zn 0.38472 0.87949 0.63624 0.0
O128 O 0.35153 0.86957 0.63567 0.0
O129 O 0.34449 0.8559 0.60137 0.0
O130 O 0.38771 0.88912 0.66899 0.0
O131 O 0.40749 0.8457 0.59605 0.0
O132 O 0.41128 0.85748 0.63169 0.0
C133 C 0.33759 0.86122 0.62136 0.0
C134 C 0.38782 0.9138 0.59732 0.0
O135 O 0.38988 0.9084 0.61839 0.0
O136 O 0.38174 0.89899 0.58261 0.0
C137 C 0.37179 0.90108 0.6776 0.0
O138 O 0.35508 0.90809 0.66438 0.0
C139 C 0.41891 0.84624 0.61458 0.0
Zn140 Zn 0.67858 0.87602 0.12877 0.0
Zn141 Zn 0.63462 0.88152 0.11887 0.0
O142 O 0.65007 0.90657 0.10013 0.0
O143 O 0.68651 0.90261 0.10624 0.0
O144 O 0.60268 0.88315 0.10844 0.0
O145 O 0.67691 0.84063 0.12237 0.0
O146 O 0.64061 0.8469 0.11754 0.0
C147 C 0.67015 0.9137 0.09723 0.0
C148 C 0.64894 0.89197 0.16671 0.0
O149 O 0.63323 0.89109 0.15186 0.0
O150 O 0.66908 0.88641 0.16128 0.0
C151 C 0.59081 0.90139 0.10938 0.0
O152 O 0.59995 0.92043 0.11697 0.0
C153 C 0.65709 0.83285 0.11955 0.0
Zn154 Zn 0.62901 0.12906 0.58629 0.0
Zn155 Zn 0.62194 0.12262 0.63166 0.0
O156 O 0.65523 0.13163 0.62941 0.0
O157 O 0.6622 0.13943 0.59327 0.0
O158 O 0.61892 0.11931 0.66559 0.0
O159 O 0.59915 0.14858 0.58586 0.0
O160 O 0.59508 0.14346 0.62305 0.0
C161 C 0.6692 0.13718 0.61381 0.0
C162 C 0.61932 0.08185 0.59966 0.0
O163 O 0.61749 0.09064 0.61957 0.0
O164 O 0.62445 0.09431 0.58255 0.0
C165 C 0.63343 0.10702 0.67615 0.0
O166 O 0.64882 0.09576 0.66428 0.0
C167 C 0.58758 0.15135 0.60408 0.0
Zn168 Zn 0.33016 0.85116 0.88434 0.0
Zn169 Zn 0.3748 0.85633 0.89119 0.0
O170 O 0.35986 0.88125 0.91136 0.0
O171 O 0.32319 0.87678 0.90779 0.0
O172 O 0.4077 0.86079 0.89749 0.0
O173 O 0.33446 0.81607 0.88977 0.0
O174 O 0.37076 0.82151 0.89536 0.0
C175 C 0.33977 0.88798 0.91572 0.0
C176 C 0.35506 0.86765 0.84464 0.0
O177 O 0.37217 0.86509 0.85765 0.0
O178 O 0.33535 0.86323 0.8519 0.0
C179 C 0.41587 0.88087 0.8964 0.0
O180 O 0.4024 0.89831 0.8916 0.0
C181 C 0.35414 0.80787 0.89335 0.0
Zn182 Zn 0.63545 0.83439 0.36276 0.0
Zn183 Zn 0.63577 0.8752 0.3818 0.0
O184 O 0.6075 0.85883 0.39534 0.0
O185 O 0.60946 0.82324 0.38295 0.0
O186 O 0.63577 0.90592 0.39721 0.0
O187 O 0.66982 0.83152 0.36768 0.0
O188 O 0.66918 0.86475 0.38555 0.0
C189 C 0.59906 0.83874 0.39416 0.0
C190 C 0.62625 0.87143 0.33104 0.0
O191 O 0.63054 0.88397 0.34835 0.0
O192 O 0.62611 0.84974 0.33297 0.0
C193 C 0.61842 0.91888 0.3962 0.0
O194 O 0.60001 0.91119 0.38628 0.0
C195 C 0.68031 0.84773 0.37748 0.0
Zn196 Zn 0.67207 0.16002 0.88451 0.0
Zn197 Zn 0.62769 0.15078 0.88952 0.0
O198 O 0.64212 0.12806 0.91204 0.0
O199 O 0.67858 0.13301 0.90709 0.0
O200 O 0.59488 0.14467 0.89323 0.0
O201 O 0.66506 0.19454 0.89171 0.0
O202 O 0.62905 0.18572 0.89241 0.0
C203 C 0.66242 0.1218 0.91594 0.0
C204 C 0.6503 0.14177 0.84369 0.0
O205 O 0.63324 0.14083 0.85691 0.0
O206 O 0.66881 0.14995 0.85092 0.0
C207 C 0.58763 0.12424 0.89198 0.0
O208 O 0.6021 0.10725 0.88891 0.0
C209 C 0.64445 0.20085 0.89266 0.0
Zn210 Zn 0.37956 0.17819 0.36523 0.0
Zn211 Zn 0.38179 0.13463 0.37887 0.0
O212 O 0.41014 0.14961 0.39242 0.0
O213 O 0.4076 0.18649 0.38504 0.0
O214 O 0.38338 0.1029 0.39123 0.0
O215 O 0.34528 0.17866 0.37351 0.0
O216 O 0.34886 0.14312 0.38567 0.0
C217 C 0.41858 0.16963 0.39349 0.0
C218 C 0.38685 0.14463 0.32862 0.0
O219 O 0.38497 0.13001 0.34472 0.0
O220 O 0.38619 0.166 0.33297 0.0
C221 C 0.40103 0.09058 0.38898 0.0
O222 O 0.4189 0.09928 0.37891 0.0
C223 C 0.33633 0.16044 0.38122 0.0
Zn224 Zn 0.06704 0.38866 0.1184 0.0
Zn225 Zn 0.11221 0.38966 0.11065 0.0
O226 O 0.10994 0.38205 0.14506 0.0
O227 O 0.07357 0.37964 0.15223 0.0
O228 O 0.14568 0.3897 0.10572 0.0
O229 O 0.06418 0.3677 0.08972 0.0
O230 O 0.10107 0.3683 0.08517 0.0
C231 C 0.09388 0.3794 0.15935 0.0
C232 C 0.0843 0.43361 0.10678 0.0
O233 O 0.10297 0.42275 0.10483 0.0
O234 O 0.06649 0.42318 0.11268 0.0
C235 C 0.15812 0.40066 0.11965 0.0
O236 O 0.14863 0.41206 0.13663 0.0
C237 C 0.08165 0.36203 0.07829 0.0
Zn238 Zn 0.10043 0.65 0.89415 0.0
Zn239 Zn 0.1425 0.63341 0.90459 0.0
O240 O 0.14628 0.64185 0.87074 0.0
O241 O 0.11319 0.65633 0.86105 0.0
O242 O 0.17318 0.62202 0.91346 0.0
O243 O 0.10265 0.67072 0.92362 0.0
O244 O 0.13669 0.65674 0.9298 0.0
C245 C 0.1331 0.65005 0.85544 0.0
C246 C 0.1019 0.60149 0.90546 0.0
O247 O 0.12275 0.60582 0.90819 0.0
O248 O 0.08828 0.61728 0.89923 0.0
C249 C 0.17965 0.60123 0.91182 0.0
O250 O 0.16591 0.58588 0.90318 0.0
C251 C 0.12026 0.66944 0.93613 0.0
Zn252 Zn 0.85131 0.61618 0.36641 0.0
Zn253 Zn 0.89548 0.60634 0.37391 0.0
O254 O 0.87929 0.58752 0.39857 0.0
O255 O 0.84312 0.59502 0.39381 0.0
O256 O 0.92792 0.59874 0.37974 0.0
O257 O 0.85609 0.60751 0.33197 0.0
O258 O 0.89212 0.60157 0.33932 0.0
C259 C 0.8589 0.58534 0.40514 0.0
C260 C 0.87858 0.65529 0.38005 0.0
O261 O 0.89438 0.64036 0.38052 0.0
O262 O 0.85861 0.64949 0.37476 0.0
C263 C 0.93636 0.60532 0.39867 0.0
O264 O 0.92329 0.61573 0.41373 0.0
C265 C 0.87603 0.60333 0.32487 0.0
Zn266 Zn 0.91292 0.35919 0.9109 0.0
Zn267 Zn 0.86847 0.36873 0.91717 0.0
O268 O 0.86817 0.35721 0.88397 0.0
O269 O 0.90425 0.35132 0.87698 0.0
O270 O 0.83605 0.37653 0.92224 0.0
O271 O 0.91172 0.3385 0.94031 0.0
O272 O 0.87612 0.34851 0.94482 0.0
C273 C 0.88394 0.35253 0.86985 0.0
C274 C 0.90316 0.4072 0.91834 0.0
O275 O 0.88303 0.39978 0.91896 0.0
O276 O 0.91962 0.39331 0.91586 0.0
C277 C 0.82688 0.39056 0.90829 0.0
O278 O 0.83901 0.39916 0.89148 0.0
C279 C 0.89372 0.33819 0.95224 0.0
Zn280 Zn 0.16417 0.39803 0.36556 0.0
Zn281 Zn 0.11975 0.3981 0.37647 0.0
O282 O 0.13259 0.41919 0.40117 0.0
O283 O 0.16924 0.41771 0.39495 0.0
O284 O 0.08692 0.39755 0.38365 0.0
O285 O 0.15561 0.40864 0.33242 0.0
O286 O 0.11992 0.40517 0.34208 0.0
C287 C 0.15262 0.4242 0.40723 0.0
C288 C 0.14617 0.35335 0.37761 0.0
O289 O 0.12833 0.36498 0.38156 0.0
O290 O 0.16379 0.36317 0.37017 0.0
C291 C 0.07453 0.41518 0.38676 0.0
O292 O 0.08344 0.43574 0.38542 0.0
C293 C 0.13487 0.40835 0.3267 0.0
Zn294 Zn 0.93914 0.62031 0.11462 0.0
Zn295 Zn 0.8937 0.61873 0.1091 0.0
O296 O 0.89642 0.62892 0.14267 0.0
O297 O 0.93312 0.62936 0.14858 0.0
O298 O 0.86025 0.61818 0.10451 0.0
O299 O 0.94112 0.64155 0.08591 0.0
O300 O 0.90443 0.63787 0.0818 0.0
C301 C 0.91308 0.63102 0.15632 0.0
C302 C 0.92165 0.57466 0.10666 0.0
O303 O 0.90282 0.5854 0.10625 0.0
O304 O 0.93995 0.58556 0.10929 0.0
C305 C 0.84816 0.60717 0.1187 0.0
O306 O 0.858 0.59623 0.13582 0.0
C307 C 0.92324 0.64524 0.07432 0.0
Zn308 Zn 0.81904 0.37404 0.66062 0.0
Zn309 Zn 0.86233 0.38436 0.65229 0.0
O310 O 0.84472 0.40339 0.6285 0.0
O311 O 0.80891 0.39543 0.63396 0.0
O312 O 0.89384 0.39504 0.64668 0.0
O313 O 0.82342 0.38124 0.69541 0.0
O314 O 0.85935 0.38601 0.68744 0.0
C315 C 0.82416 0.40525 0.62226 0.0
C316 C 0.84705 0.3363 0.64278 0.0
O317 O 0.86263 0.3512 0.64252 0.0
O318 O 0.82746 0.34155 0.65009 0.0
C319 C 0.90416 0.38874 0.6286 0.0
O320 O 0.8941 0.37494 0.61404 0.0
C321 C 0.84361 0.38413 0.70223 0.0
Zn322 Zn 0.19479 0.63153 0.64376 0.0
Zn323 Zn 0.1502 0.6232 0.63858 0.0
O324 O 0.16514 0.60373 0.61355 0.0
O325 O 0.20172 0.60861 0.61717 0.0
O326 O 0.1175 0.61649 0.63368 0.0
O327 O 0.19083 0.62522 0.6788 0.0
O328 O 0.15459 0.61916 0.67342 0.0
C329 C 0.18514 0.60022 0.60621 0.0
C330 C 0.16816 0.67062 0.62789 0.0
O331 O 0.15197 0.65653 0.62965 0.0
O332 O 0.18815 0.66446 0.63307 0.0
C333 C 0.10888 0.6227 0.61464 0.0
O334 O 0.12175 0.63257 0.59917 0.0
C335 C 0.17132 0.62136 0.68704 0.0
Zn336 Zn 0.87528 0.91443 0.63676 0.0
Zn337 Zn 0.8808 0.86782 0.63461 0.0
O338 O 0.90962 0.87748 0.65171 0.0
O339 O 0.90579 0.91496 0.65491 0.0
O340 O 0.88343 0.83369 0.63182 0.0
O341 O 0.84237 0.90766 0.64866 0.0
O342 O 0.84916 0.87053 0.64788 0.0
C343 C 0.91752 0.89679 0.65797 0.0
C344 C 0.87925 0.89721 0.59085 0.0
O345 O 0.87997 0.87824 0.60163 0.0
O346 O 0.87828 0.9161 0.60164 0.0
C347 C 0.89204 0.82373 0.61445 0.0
O348 O 0.90162 0.83608 0.59831 0.0
C349 C 0.83543 0.88715 0.651 0.0
Zn350 Zn 0.58083 0.37232 0.13417 0.0
Zn351 Zn 0.62374 0.38395 0.12374 0.0
O352 O 0.61738 0.40627 0.14986 0.0
O353 O 0.58119 0.40086 0.15612 0.0
O354 O 0.65527 0.39221 0.11556 0.0
O355 O 0.59254 0.33884 0.14044 0.0
O356 O 0.62625 0.3491 0.12874 0.0
C357 C 0.59906 0.41235 0.15958 0.0
C358 C 0.58604 0.39005 0.08842 0.0
O359 O 0.60617 0.39301 0.09542 0.0
O360 O 0.5717 0.37996 0.10099 0.0
C361 C 0.66601 0.38241 0.09939 0.0
O362 O 0.65605 0.36634 0.08731 0.0
C363 C 0.61276 0.33343 0.13514 0.0
Zn364 Zn 0.12726 0.08956 0.6276 0.0
Zn365 Zn 0.12246 0.13583 0.62743 0.0
O366 O 0.09525 0.12557 0.6466 0.0
O367 O 0.09905 0.08804 0.64903 0.0
O368 O 0.12066 0.17014 0.62758 0.0
O369 O 0.16122 0.09378 0.63597 0.0
O370 O 0.1558 0.13114 0.63633 0.0
C371 C 0.08763 0.1062 0.6531 0.0
C372 C 0.11637 0.10901 0.58308 0.0
O373 O 0.11713 0.12778 0.5942 0.0
O374 O 0.1201 0.09004 0.5932 0.0
C375 C 0.10853 0.18164 0.61361 0.0
O376 O 0.09508 0.1708 0.59938 0.0
C377 C 0.16912 0.11393 0.63792 0.0
Zn378 Zn 0.43572 0.63189 0.12691 0.0
Zn379 Zn 0.39258 0.62116 0.11539 0.0
O380 O 0.39802 0.59865 0.14153 0.0
O381 O 0.43404 0.60365 0.14917 0.0
O382 O 0.36114 0.61325 0.10634 0.0
O383 O 0.42423 0.66543 0.13203 0.0
O384 O 0.38995 0.65587 0.12126 0.0
C385 C 0.41589 0.59245 0.15205 0.0
C386 C 0.43154 0.61483 0.08111 0.0
O387 O 0.41109 0.61237 0.08735 0.0
O388 O 0.44582 0.62417 0.09428 0.0
C389 C 0.35071 0.62346 0.09017 0.0
O390 O 0.36105 0.63956 0.07844 0.0
C391 C 0.40396 0.67117 0.12734 0.0
Zn392 Zn 0.88229 0.15288 0.33117 0.0
Zn393 Zn 0.88152 0.12811 0.36933 0.0
O394 O 0.84865 0.12445 0.35768 0.0
O395 O 0.84808 0.14694 0.32735 0.0
O396 O 0.88183 0.10958 0.39832 0.0
O397 O 0.90967 0.13463 0.31886 0.0
O398 O 0.91046 0.11703 0.35225 0.0
C399 C 0.83759 0.13464 0.34182 0.0
C400 C 0.88867 0.17963 0.3722 0.0
O401 O 0.88513 0.16045 0.38198 0.0
O402 O 0.88951 0.18089 0.35047 0.0
C403 C 0.86593 0.11382 0.41238 0.0
O404 O 0.85007 0.12863 0.40645 0.0
C405 C 0.91963 0.12121 0.33286 0.0
Zn406 Zn 0.41471 0.35053 0.87138 0.0
Zn407 Zn 0.36979 0.35819 0.87365 0.0
O408 O 0.38127 0.38286 0.85116 0.0
O409 O 0.41783 0.3768 0.8478 0.0
O410 O 0.33645 0.36453 0.87431 0.0
O411 O 0.40798 0.31612 0.86584 0.0
O412 O 0.37147 0.32326 0.86765 0.0
C413 C 0.4004 0.38884 0.84321 0.0
C414 C 0.39896 0.36635 0.91576 0.0
O415 O 0.37966 0.36572 0.90611 0.0
O416 O 0.41663 0.36082 0.90469 0.0
C417 C 0.32902 0.38491 0.87699 0.0
O418 O 0.34346 0.40178 0.87934 0.0
C419 C 0.38777 0.3089 0.86592 0.0
Zn420 Zn 0.13634 0.86617 0.34401 0.0
Zn421 Zn 0.13405 0.88424 0.38573 0.0
O422 O 0.16765 0.88812 0.37702 0.0
O423 O 0.1705 0.8735 0.34236 0.0
O424 O 0.13014 0.90139 0.41529 0.0
O425 O 0.1092 0.88504 0.33161 0.0
O426 O 0.10606 0.89552 0.36762 0.0
C427 C 0.17987 0.88205 0.36001 0.0
C428 C 0.12788 0.83365 0.38176 0.0
O429 O 0.13005 0.85105 0.39474 0.0
O430 O 0.1289 0.83585 0.36007 0.0
C431 C 0.14393 0.91527 0.42445 0.0
O432 O 0.16345 0.91929 0.41454 0.0
C433 C 0.09794 0.89494 0.34735 0.0
Zn434 Zn 0.5927 0.6599 0.88003 0.0
Zn435 Zn 0.63724 0.65037 0.88608 0.0
O436 O 0.62612 0.62555 0.86398 0.0
O437 O 0.59032 0.6329 0.85687 0.0
O438 O 0.67025 0.6429 0.88837 0.0
O439 O 0.60129 0.69388 0.87329 0.0
O440 O 0.63695 0.68499 0.87945 0.0
C441 C 0.60759 0.62 0.85441 0.0
C442 C 0.6055 0.6448 0.92623 0.0
O443 O 0.62529 0.6441 0.91772 0.0
O444 O 0.58874 0.65088 0.91394 0.0
C445 C 0.68274 0.65147 0.90385 0.0
O446 O 0.67384 0.66574 0.91889 0.0
C447 C 0.62174 0.70008 0.87542 0.0
Zn448 Zn 0.67338 0.91299 0.88801 0.0
Zn449 Zn 0.62838 0.91612 0.89524 0.0
O450 O 0.63647 0.88235 0.90214 0.0
O451 O 0.67303 0.8785 0.89684 0.0
O452 O 0.59501 0.91626 0.9012 0.0
O453 O 0.67759 0.94118 0.90936 0.0
O454 O 0.64067 0.94375 0.91313 0.0
C455 C 0.65401 0.86955 0.90121 0.0
C456 C 0.64632 0.92278 0.84711 0.0
O457 O 0.62988 0.92209 0.86115 0.0
O458 O 0.66642 0.91961 0.85416 0.0
C459 C 0.58426 0.90093 0.89027 0.0
O460 O 0.59548 0.88719 0.87636 0.0
C461 C 0.66028 0.95192 0.91676 0.0
Zn462 Zn 0.62396 0.1728 0.35661 0.0
Zn463 Zn 0.62483 0.13227 0.37674 0.0
O464 O 0.65821 0.14255 0.38043 0.0
O465 O 0.65829 0.17547 0.3619 0.0
O466 O 0.62391 0.1017 0.39263 0.0
O467 O 0.59767 0.18443 0.37645 0.0
O468 O 0.59654 0.14925 0.39003 0.0
C469 C 0.66907 0.15939 0.37196 0.0
C470 C 0.61587 0.13516 0.32565 0.0
O471 O 0.62001 0.12308 0.34341 0.0
O472 O 0.61531 0.15689 0.32698 0.0
C473 C 0.63965 0.08723 0.3888 0.0
O474 O 0.65661 0.0932 0.37555 0.0
C475 C 0.58774 0.16929 0.38835 0.0
Zn476 Zn 0.33027 0.09748 0.88253 0.0
Zn477 Zn 0.37551 0.0909 0.88634 0.0
O478 O 0.37019 0.1252 0.89199 0.0
O479 O 0.33368 0.13199 0.89167 0.0
O480 O 0.40896 0.08867 0.8902 0.0
O481 O 0.32622 0.06908 0.90414 0.0
O482 O 0.36314 0.06506 0.90624 0.0
C483 C 0.35377 0.13941 0.89311 0.0
C484 C 0.35403 0.08509 0.83989 0.0
O485 O 0.3712 0.08387 0.85294 0.0
O486 O 0.33484 0.09073 0.84802 0.0
C487 C 0.42014 0.10191 0.87719 0.0
O488 O 0.4092 0.11494 0.86237 0.0
C489 C 0.34345 0.05781 0.91105 0.0
Zn490 Zn 0.3897 0.83061 0.36659 0.0
Zn491 Zn 0.39243 0.87496 0.37812 0.0
O492 O 0.36002 0.86747 0.3877 0.0
O493 O 0.35595 0.83156 0.37706 0.0
O494 O 0.39581 0.90733 0.3883 0.0
O495 O 0.41871 0.82297 0.38563 0.0
O496 O 0.42112 0.86009 0.39141 0.0
C497 C 0.34737 0.85016 0.38467 0.0
C498 C 0.39441 0.86227 0.328 0.0
O499 O 0.39349 0.87751 0.3436 0.0
O500 O 0.3943 0.8411 0.33327 0.0
C501 C 0.38002 0.92171 0.38445 0.0
O502 O 0.36158 0.91486 0.37399 0.0
C503 C 0.4297 0.84003 0.39318 0.0
Zn504 Zn 0.67828 0.12239 0.12692 0.0
Zn505 Zn 0.63482 0.1164 0.11394 0.0
O506 O 0.63942 0.1511 0.10913 0.0
O507 O 0.67488 0.15702 0.11848 0.0
O508 O 0.60229 0.11239 0.10547 0.0
O509 O 0.68678 0.09477 0.10612 0.0
O510 O 0.65123 0.09098 0.09578 0.0
C511 C 0.65569 0.16493 0.11238 0.0
C512 C 0.64887 0.10847 0.16385 0.0
O513 O 0.63426 0.10867 0.14784 0.0
O514 O 0.6692 0.1138 0.15963 0.0
C515 C 0.58807 0.12147 0.11914 0.0
O516 O 0.59542 0.13352 0.13665 0.0
C517 C 0.67163 0.08376 0.09537 0.0
Zn518 Zn 0.37716 0.13185 0.5828 0.0
Zn519 Zn 0.38061 0.12405 0.62873 0.0
O520 O 0.40925 0.1426 0.62241 0.0
O521 O 0.40678 0.15119 0.58569 0.0
O522 O 0.38098 0.11846 0.66263 0.0
O523 O 0.34353 0.14169 0.58855 0.0
O524 O 0.34842 0.13672 0.62561 0.0
C525 C 0.41777 0.15168 0.60449 0.0
C526 C 0.3837 0.08411 0.59473 0.0
O527 O 0.38322 0.09234 0.61496 0.0
O528 O 0.38186 0.09731 0.57746 0.0
C529 C 0.38907 0.10068 0.6724 0.0
O530 O 0.39991 0.08519 0.66013 0.0
C531 C 0.3355 0.14159 0.60881 0.0
Zn532 Zn 0.33314 0.87942 0.12269 0.0
Zn533 Zn 0.37689 0.88817 0.11254 0.0
O534 O 0.37344 0.85408 0.1053 0.0
O535 O 0.33779 0.84566 0.11113 0.0
O536 O 0.40908 0.89393 0.10446 0.0
O537 O 0.32422 0.90868 0.10404 0.0
O538 O 0.36006 0.91411 0.09585 0.0
C539 C 0.3578 0.83924 0.10615 0.0
C540 C 0.36185 0.88973 0.16215 0.0
O541 O 0.37704 0.89212 0.14692 0.0
O542 O 0.3418 0.88462 0.15642 0.0
C543 C 0.42363 0.88057 0.11351 0.0
O544 O 0.41676 0.86401 0.12712 0.0
C545 C 0.33952 0.92072 0.09472 0.0
Zn546 Zn 0.62947 0.86343 0.59527 0.0
Zn547 Zn 0.61975 0.87539 0.63913 0.0
O548 O 0.5946 0.85223 0.63328 0.0
O549 O 0.59959 0.84443 0.59664 0.0
O550 O 0.6166 0.88337 0.67235 0.0
O551 O 0.66224 0.85364 0.60502 0.0
O552 O 0.65356 0.86762 0.63885 0.0
C553 C 0.5878 0.84276 0.61485 0.0
C554 C 0.61692 0.9113 0.60149 0.0
O555 O 0.61331 0.90477 0.622 0.0
O556 O 0.62515 0.89748 0.58679 0.0
C557 C 0.60992 0.90243 0.68065 0.0
O558 O 0.60222 0.9186 0.66688 0.0
C559 C 0.66831 0.85957 0.62509 0.0
Zn560 Zn 0.93868 0.61646 0.86666 0.0
Zn561 Zn 0.89367 0.6192 0.87388 0.0
O562 O 0.90608 0.6417 0.89771 0.0
O563 O 0.94295 0.63929 0.89353 0.0
O564 O 0.8602 0.62236 0.87795 0.0
O565 O 0.93352 0.6233 0.8322 0.0
O566 O 0.89697 0.62345 0.83888 0.0
C567 C 0.92587 0.64685 0.90447 0.0
C568 C 0.9187 0.5745 0.8837 0.0
O569 O 0.90064 0.58656 0.88399 0.0
O570 O 0.93702 0.58289 0.87627 0.0
C571 C 0.85078 0.62219 0.89756 0.0
O572 O 0.86328 0.61953 0.91606 0.0
C573 C 0.91336 0.62426 0.82472 0.0
Zn574 Zn 0.91199 0.36356 0.16279 0.0
Zn575 Zn 0.8688 0.37268 0.15045 0.0
O576 O 0.87632 0.34647 0.12851 0.0
O577 O 0.91267 0.34133 0.13458 0.0
O578 O 0.83722 0.38042 0.14133 0.0
O579 O 0.90021 0.35771 0.19617 0.0
O580 O 0.86608 0.36817 0.18534 0.0
C581 C 0.89507 0.33737 0.12271 0.0
C582 C 0.90551 0.40875 0.14409 0.0
O583 O 0.88557 0.4013 0.14127 0.0
O584 O 0.92025 0.39663 0.15444 0.0
C585 C 0.83195 0.38286 0.12029 0.0
O586 O 0.8476 0.38036 0.10445 0.0
C587 C 0.87979 0.36247 0.20127 0.0
Zn588 Zn 0.15905 0.39447 0.61763 0.0
Zn589 Zn 0.11391 0.39886 0.61016 0.0
O590 O 0.11862 0.4045 0.64448 0.0
O591 O 0.155 0.40463 0.65177 0.0
O592 O 0.08074 0.40436 0.60593 0.0
O593 O 0.16481 0.41521 0.589 0.0
O594 O 0.12803 0.41744 0.58423 0.0
C595 C 0.13472 0.40604 0.65887 0.0
C596 C 0.1346 0.3519 0.60607 0.0
O597 O 0.11747 0.36511 0.60431 0.0
O598 O 0.15376 0.36 0.61151 0.0
C599 C 0.06985 0.41852 0.6184 0.0
O600 O 0.08065 0.43054 0.63395 0.0
C601 C 0.14789 0.42193 0.57723 0.0
Zn602 Zn 0.10266 0.6475 0.14684 0.0
Zn603 Zn 0.14614 0.63694 0.13623 0.0
O604 O 0.13796 0.66131 0.11216 0.0
O605 O 0.10228 0.66975 0.11878 0.0
O606 O 0.17804 0.62937 0.128 0.0
O607 O 0.11366 0.65347 0.18052 0.0
O608 O 0.14825 0.64358 0.17072 0.0
C609 C 0.11985 0.67178 0.10642 0.0
C610 C 0.10974 0.60063 0.1316 0.0
O611 O 0.13014 0.60717 0.13001 0.0
O612 O 0.09451 0.61439 0.13863 0.0
C613 C 0.18394 0.62636 0.10722 0.0
O614 O 0.16874 0.62816 0.09083 0.0
C615 C 0.13407 0.6493 0.18619 0.0
Zn616 Zn 0.84904 0.60971 0.61532 0.0
Zn617 Zn 0.89432 0.60877 0.6067 0.0
O618 O 0.89164 0.6021 0.64103 0.0
O619 O 0.85549 0.59975 0.64913 0.0
O620 O 0.92785 0.60691 0.60204 0.0
O621 O 0.84494 0.58885 0.58653 0.0
O622 O 0.88174 0.58844 0.58133 0.0
C623 C 0.87598 0.59945 0.65574 0.0
C624 C 0.86875 0.65385 0.60279 0.0
O625 O 0.88663 0.64186 0.60044 0.0
O626 O 0.85052 0.64452 0.60934 0.0
C627 C 0.93993 0.624 0.60751 0.0
O628 O 0.9302 0.64256 0.61586 0.0
C629 C 0.86203 0.58292 0.57463 0.0
Zn630 Zn 0.06962 0.38927 0.86945 0.0
Zn631 Zn 0.1145 0.39416 0.87771 0.0
O632 O 0.1048 0.37119 0.90214 0.0
O633 O 0.06834 0.36649 0.89707 0.0
O634 O 0.14784 0.39578 0.88323 0.0
O635 O 0.07718 0.38231 0.83541 0.0
O636 O 0.11313 0.38784 0.84294 0.0
C637 C 0.08616 0.36261 0.9087 0.0
C638 C 0.08267 0.43465 0.88493 0.0
O639 O 0.10231 0.42561 0.88613 0.0
O640 O 0.06598 0.42329 0.87755 0.0
C641 C 0.16044 0.40962 0.87237 0.0
O642 O 0.15128 0.42399 0.85755 0.0
C643 C 0.09746 0.38402 0.82848 0.0
Zn644 Zn 0.19352 0.63558 0.39811 0.0
Zn645 Zn 0.15046 0.62146 0.40246 0.0
O646 O 0.15664 0.61759 0.36787 0.0
O647 O 0.19192 0.62806 0.36321 0.0
O648 O 0.11833 0.61127 0.40503 0.0
O649 O 0.20213 0.61439 0.42541 0.0
O650 O 0.16671 0.6036 0.42831 0.0
C651 C 0.17326 0.62168 0.3546 0.0
C652 C 0.16207 0.67157 0.41122 0.0
O653 O 0.14795 0.65527 0.41031 0.0
O654 O 0.18279 0.6678 0.40689 0.0
C655 C 0.10363 0.62443 0.39589 0.0
O656 O 0.11027 0.64294 0.38495 0.0
C657 C 0.18691 0.60329 0.43596 0.0
Zn658 Zn 0.81997 0.37223 0.41285 0.0
Zn659 Zn 0.8633 0.38574 0.41611 0.0
O660 O 0.85513 0.39157 0.38228 0.0
O661 O 0.82002 0.38056 0.37798 0.0
O662 O 0.89533 0.39639 0.41672 0.0
O663 O 0.81223 0.39304 0.44091 0.0
O664 O 0.84825 0.40155 0.44371 0.0
C665 C 0.83832 0.38775 0.36922 0.0
C666 C 0.8525 0.33547 0.42269 0.0
O667 O 0.86672 0.35168 0.42162 0.0
O668 O 0.83156 0.33967 0.42006 0.0
C669 C 0.90788 0.38677 0.4018 0.0
O670 O 0.89908 0.37123 0.38816 0.0
C671 C 0.82824 0.4026 0.45179 0.0
H672 H 0.17619 0.32215 0.35988 0.0
H673 H 0.11352 0.32745 0.39784 0.0
H674 H 0.17066 0.28084 0.3559 0.0
H675 H 0.10802 0.2862 0.3937 0.0
H676 H 0.11755 0.20676 0.39517 0.0
H677 H 0.12452 0.24716 0.40385 0.0
H678 H 0.14146 0.25933 0.33272 0.0
H679 H 0.1346 0.21912 0.32396 0.0
C680 C 0.16149 0.31446 0.36776 0.0
C681 C 0.14516 0.32807 0.37894 0.0
C682 C 0.15824 0.29087 0.36531 0.0
C683 C 0.13873 0.28049 0.37417 0.0
C684 C 0.12319 0.29381 0.3867 0.0
C685 C 0.12634 0.31742 0.389 0.0
C686 C 0.12254 0.21811 0.38134 0.0
C687 C 0.12558 0.20973 0.35888 0.0
C688 C 0.12656 0.24119 0.38634 0.0
C689 C 0.13389 0.25618 0.36902 0.0
C690 C 0.13629 0.24797 0.34648 0.0
C691 C 0.13209 0.22501 0.34143 0.0
H692 H 0.31441 0.56396 0.88789 0.0
H693 H 0.32126 0.59992 0.95246 0.0
H694 H 0.27374 0.56314 0.89286 0.0
H695 H 0.28031 0.59861 0.95771 0.0
H696 H 0.20067 0.55937 0.90728 0.0
H697 H 0.24059 0.55052 0.9139 0.0
H698 H 0.2511 0.62011 0.93721 0.0
H699 H 0.21137 0.62878 0.93113 0.0
C700 C 0.30726 0.57126 0.90341 0.0
C701 C 0.32097 0.58247 0.91953 0.0
C702 C 0.28392 0.57056 0.90638 0.0
C703 C 0.2738 0.58103 0.92556 0.0
C704 C 0.28766 0.5907 0.94258 0.0
C705 C 0.31108 0.5914 0.9396 0.0
C706 C 0.21145 0.57264 0.91418 0.0
C707 C 0.203 0.59489 0.91827 0.0
C708 C 0.23428 0.56757 0.91797 0.0
C709 C 0.249 0.58466 0.92592 0.0
C710 C 0.24018 0.60647 0.93133 0.0
C711 C 0.21742 0.61152 0.92757 0.0
H712 H 0.91907 0.78627 0.33794 0.0
H713 H 0.88566 0.80399 0.40162 0.0
H714 H 0.91628 0.74557 0.34767 0.0
H715 H 0.88248 0.76314 0.41106 0.0
H716 H 0.84932 0.69107 0.38794 0.0
H717 H 0.85828 0.732 0.38823 0.0
H718 H 0.92908 0.71565 0.37961 0.0
H719 H 0.92033 0.67474 0.37968 0.0
C720 C 0.9115 0.78147 0.35418 0.0
C721 C 0.90247 0.79823 0.36896 0.0
C722 C 0.91 0.75823 0.35978 0.0
C723 C 0.89909 0.75136 0.38005 0.0
C724 C 0.89091 0.76811 0.39532 0.0
C725 C 0.89283 0.79141 0.38995 0.0
C726 C 0.86683 0.69619 0.38656 0.0
C727 C 0.88407 0.67972 0.38355 0.0
C728 C 0.87196 0.71957 0.38688 0.0
C729 C 0.89434 0.72682 0.38385 0.0
C730 C 0.9117 0.71038 0.3819 0.0
C731 C 0.90664 0.68702 0.38198 0.0
H732 H 0.80033 0.41247 0.87673 0.0
H733 H 0.79861 0.38099 0.94401 0.0
H734 H 0.75964 0.41852 0.87827 0.0
H735 H 0.75795 0.38779 0.94594 0.0
H736 H 0.68426 0.37338 0.9246 0.0
H737 H 0.72521 0.37209 0.92799 0.0
H738 H 0.72926 0.43909 0.89612 0.0
H739 H 0.68826 0.43999 0.89198 0.0
C740 C 0.7913 0.40719 0.89202 0.0
C741 C 0.80259 0.39605 0.91014 0.0
C742 C 0.76799 0.41081 0.89298 0.0
C743 C 0.75553 0.40356 0.91221 0.0
C744 C 0.767 0.39321 0.93072 0.0
C745 C 0.7903 0.3894 0.92966 0.0
C746 C 0.69387 0.38795 0.91855 0.0
C747 C 0.6831 0.40666 0.9078 0.0
C748 C 0.71735 0.38728 0.92062 0.0
C749 C 0.73052 0.40544 0.91219 0.0
C750 C 0.71962 0.42464 0.90239 0.0
C751 C 0.69614 0.4252 0.90012 0.0
H752 H 0.12859 0.68708 0.61012 0.0
H753 H 0.19693 0.70719 0.62657 0.0
H754 H 0.11991 0.72615 0.59794 0.0
H755 H 0.18803 0.74648 0.61485 0.0
H756 H 0.17028 0.81283 0.58016 0.0
H757 H 0.17799 0.77162 0.58247 0.0
H758 H 0.11482 0.76204 0.6184 0.0
H759 H 0.10689 0.80296 0.61568 0.0
C760 C 0.14178 0.69984 0.61113 0.0
C761 C 0.16339 0.69413 0.61959 0.0
C762 C 0.13678 0.72222 0.60414 0.0
C763 C 0.15324 0.73939 0.60554 0.0
C764 C 0.17507 0.73354 0.61329 0.0
C765 C 0.18012 0.71109 0.62021 0.0
C766 C 0.15781 0.80184 0.58808 0.0
C767 C 0.1381 0.81115 0.59799 0.0
C768 C 0.16232 0.77829 0.58956 0.0
C769 C 0.14716 0.76367 0.60087 0.0
C770 C 0.12678 0.77282 0.60944 0.0
C771 C 0.12229 0.79631 0.60798 0.0
H772 H 0.703 0.58477 0.12831 0.0
H773 H 0.71025 0.65263 0.09909 0.0
H774 H 0.74384 0.57928 0.12692 0.0
H775 H 0.75114 0.64742 0.09836 0.0
H776 H 0.82285 0.6245 0.08333 0.0
H777 H 0.78177 0.62662 0.08061 0.0
H778 H 0.77627 0.59361 0.14693 0.0
H779 H 0.81727 0.59086 0.14932 0.0
C780 C 0.71332 0.59851 0.12156 0.0
C781 C 0.70343 0.61919 0.11392 0.0
C782 C 0.73673 0.59541 0.12089 0.0
C783 C 0.75077 0.61297 0.1127 0.0
C784 C 0.74081 0.63343 0.10451 0.0
C785 C 0.71737 0.63647 0.10505 0.0
C786 C 0.81285 0.61756 0.09725 0.0
C787 C 0.82329 0.60758 0.11658 0.0
C788 C 0.78932 0.61889 0.09575 0.0
C789 C 0.77573 0.61037 0.11359 0.0
C790 C 0.78621 0.60004 0.13273 0.0
C791 C 0.80974 0.59858 0.13417 0.0
H792 H 0.90263 0.20076 0.62799 0.0
H793 H 0.84281 0.19843 0.58532 0.0
H794 H 0.89671 0.24178 0.63376 0.0
H795 H 0.83709 0.23961 0.59092 0.0
H796 H 0.81742 0.30083 0.63847 0.0
H797 H 0.8256 0.26186 0.62557 0.0
H798 H 0.89548 0.27988 0.61461 0.0
H799 H 0.88744 0.31886 0.62776 0.0
C800 C 0.88845 0.20908 0.61951 0.0
C801 C 0.87302 0.19634 0.60645 0.0
C802 C 0.88514 0.2326 0.62272 0.0
C803 C 0.86631 0.24378 0.61297 0.0
C804 C 0.85156 0.2313 0.59889 0.0
C805 C 0.85492 0.20778 0.59559 0.0
C806 C 0.83451 0.29653 0.63324 0.0
C807 C 0.85182 0.31287 0.63433 0.0
C808 C 0.83914 0.27427 0.62564 0.0
C809 C 0.86116 0.2679 0.61905 0.0
C810 C 0.87839 0.28432 0.61975 0.0
C811 C 0.87376 0.30662 0.62727 0.0
H812 H 0.30382 0.42043 0.12768 0.0
H813 H 0.29527 0.35303 0.09798 0.0
H814 H 0.26299 0.42619 0.12757 0.0
H815 H 0.25441 0.35847 0.09855 0.0
H816 H 0.18953 0.41613 0.15015 0.0
H817 H 0.23047 0.41244 0.14761 0.0
H818 H 0.22389 0.37969 0.08133 0.0
H819 H 0.18287 0.38273 0.08423 0.0
C820 C 0.29321 0.40682 0.12117 0.0
C821 C 0.30275 0.38624 0.1129 0.0
C822 C 0.2698 0.41008 0.12122 0.0
C823 C 0.25541 0.39276 0.11316 0.0
C824 C 0.26501 0.3723 0.10459 0.0
C825 C 0.28843 0.36911 0.10439 0.0
C826 C 0.19682 0.40825 0.13498 0.0
C827 C 0.18297 0.39963 0.11744 0.0
C828 C 0.22031 0.40625 0.13346 0.0
C829 C 0.23047 0.39573 0.11428 0.0
C830 C 0.2166 0.38754 0.09651 0.0
C831 C 0.1931 0.3894 0.09811 0.0
H832 H 0.40348 0.12183 0.18167 0.0
H833 H 0.33292 0.11248 0.19852 0.0
H834 H 0.4126 0.12408 0.22247 0.0
H835 H 0.3423 0.11436 0.23941 0.0
H836 H 0.37209 0.10382 0.31166 0.0
H837 H 0.36799 0.0932 0.27122 0.0
H838 H 0.39882 0.15707 0.25103 0.0
H839 H 0.40255 0.16798 0.29138 0.0
C840 C 0.38998 0.11977 0.19406 0.0
C841 C 0.36741 0.11724 0.1869 0.0
C842 C 0.39525 0.1211 0.21736 0.0
C843 C 0.37813 0.11948 0.2339 0.0
C844 C 0.35579 0.11551 0.22688 0.0
C845 C 0.35043 0.11456 0.20353 0.0
C846 C 0.37837 0.1154 0.2986 0.0
C847 C 0.38752 0.1368 0.30459 0.0
C848 C 0.37592 0.10934 0.27554 0.0
C849 C 0.38307 0.12435 0.2582 0.0
C850 C 0.39334 0.14516 0.26419 0.0
C851 C 0.39537 0.15143 0.28721 0.0
H852 H 0.33315 0.90138 0.70253 0.0
H853 H 0.40579 0.90358 0.70902 0.0
H854 H 0.32962 0.89619 0.74368 0.0
H855 H 0.4024 0.90021 0.75063 0.0
H856 H 0.39081 0.85957 0.81651 0.0
H857 H 0.39526 0.87175 0.77685 0.0
H858 H 0.33151 0.90874 0.78082 0.0
H859 H 0.32645 0.89487 0.81995 0.0
C860 C 0.34834 0.90156 0.71295 0.0
C861 C 0.36975 0.90267 0.7027 0.0
C862 C 0.34636 0.89868 0.73665 0.0
C863 C 0.36575 0.89744 0.75066 0.0
C864 C 0.38711 0.90032 0.7404 0.0
C865 C 0.3891 0.90254 0.71661 0.0
C866 C 0.37781 0.87031 0.8088 0.0
C867 C 0.35817 0.87604 0.82105 0.0
C868 C 0.38043 0.87758 0.78612 0.0
C869 C 0.36374 0.8913 0.77542 0.0
C870 C 0.34448 0.89775 0.78817 0.0
C871 C 0.34158 0.8899 0.81064 0.0
H872 H 0.67804 0.89901 0.20252 0.0
H873 H 0.6069 0.89715 0.1854 0.0
H874 H 0.66838 0.90125 0.2432 0.0
H875 H 0.59739 0.89926 0.2261 0.0
H876 H 0.60325 0.85417 0.2947 0.0
H877 H 0.60574 0.86667 0.25484 0.0
H878 H 0.64722 0.92381 0.27535 0.0
H879 H 0.64445 0.91146 0.31551 0.0
C880 C 0.66037 0.89957 0.20739 0.0
C881 C 0.64326 0.89745 0.19079 0.0
C882 C 0.65485 0.90107 0.23065 0.0
C883 C 0.63215 0.90027 0.23769 0.0
C884 C 0.61501 0.89979 0.22104 0.0
C885 C 0.6205 0.89854 0.19778 0.0
C886 C 0.61238 0.86975 0.29077 0.0
C887 C 0.62386 0.88172 0.30807 0.0
C888 C 0.61368 0.87699 0.268 0.0
C889 C 0.62677 0.89612 0.26209 0.0
C890 C 0.63708 0.90897 0.27955 0.0
C891 C 0.63542 0.90196 0.30245 0.0
H892 H 0.61314 0.12319 0.82344 0.0
H893 H 0.68259 0.14157 0.80994 0.0
H894 H 0.60879 0.11121 0.78368 0.0
H895 H 0.67804 0.1298 0.76996 0.0
H896 H 0.66708 0.0901 0.70374 0.0
H897 H 0.67125 0.09563 0.74512 0.0
H898 H 0.60731 0.13206 0.74681 0.0
H899 H 0.60298 0.12636 0.70564 0.0
C900 C 0.62751 0.12463 0.81202 0.0
C901 C 0.64817 0.13355 0.8198 0.0
C902 C 0.62497 0.1178 0.78923 0.0
C903 C 0.64303 0.11968 0.77373 0.0
C904 C 0.6639 0.12795 0.78162 0.0
C905 C 0.66645 0.13485 0.80445 0.0
C906 C 0.65376 0.09898 0.71302 0.0
C907 C 0.63475 0.10791 0.70144 0.0
C908 C 0.65624 0.10228 0.73665 0.0
C909 C 0.63968 0.11439 0.74912 0.0
C910 C 0.62026 0.12248 0.73768 0.0
C911 C 0.61784 0.11931 0.71407 0.0
H912 H 0.87196 0.79386 0.64405 0.0
H913 H 0.9045 0.79735 0.57762 0.0
H914 H 0.86471 0.75324 0.63814 0.0
H915 H 0.89686 0.75665 0.57158 0.0
H916 H 0.90432 0.6783 0.5863 0.0
H917 H 0.90927 0.71966 0.58746 0.0
H918 H 0.8415 0.72795 0.61407 0.0
H919 H 0.83662 0.68634 0.61338 0.0
C920 C 0.87758 0.78596 0.62818 0.0
C921 C 0.88888 0.79881 0.61132 0.0
C922 C 0.87318 0.76274 0.62469 0.0
C923 C 0.87999 0.75184 0.60429 0.0
C924 C 0.89149 0.7646 0.58751 0.0
C925 C 0.89589 0.78788 0.59099 0.0
C926 C 0.89032 0.68892 0.59212 0.0
C927 C 0.87015 0.67901 0.60003 0.0
C928 C 0.89315 0.71265 0.59265 0.0
C929 C 0.87588 0.727 0.6011 0.0
C930 C 0.85525 0.71723 0.60785 0.0
C931 C 0.85239 0.69344 0.60728 0.0
H932 H 0.79742 0.39499 0.14866 0.0
H933 H 0.81278 0.38032 0.07751 0.0
H934 H 0.75764 0.39881 0.13912 0.0
H935 H 0.77263 0.38442 0.06788 0.0
H936 H 0.6973 0.3571 0.07551 0.0
H937 H 0.73833 0.36124 0.07698 0.0
H938 H 0.7304 0.42273 0.11781 0.0
H939 H 0.68953 0.41839 0.11675 0.0
C940 C 0.79233 0.39286 0.13091 0.0
C941 C 0.80819 0.38718 0.11386 0.0
C942 C 0.76954 0.39527 0.1254 0.0
C943 C 0.76206 0.39199 0.10273 0.0
C944 C 0.77797 0.38693 0.08551 0.0
C945 C 0.8009 0.38467 0.09101 0.0
C946 C 0.70432 0.37176 0.08437 0.0
C947 C 0.69028 0.38713 0.09644 0.0
C948 C 0.7278 0.37419 0.08512 0.0
C949 C 0.73751 0.3921 0.09784 0.0
C950 C 0.72335 0.40851 0.10828 0.0
C951 C 0.69996 0.40602 0.10764 0.0
H952 H 0.13398 0.20899 0.64125 0.0
H953 H 0.09012 0.21096 0.5818 0.0
H954 H 0.14081 0.24993 0.63713 0.0
H955 H 0.09738 0.25194 0.5774 0.0
H956 H 0.09568 0.32927 0.59581 0.0
H957 H 0.08934 0.28809 0.59666 0.0
H958 H 0.16011 0.27644 0.61154 0.0
H959 H 0.16643 0.3178 0.61126 0.0
C960 C 0.12578 0.21816 0.62729 0.0
C961 C 0.11148 0.20674 0.61186 0.0
C962 C 0.12989 0.24158 0.6248 0.0
C963 C 0.11984 0.25411 0.60679 0.0
C964 C 0.10527 0.24277 0.59153 0.0
C965 C 0.10111 0.2193 0.59405 0.0
C966 C 0.10998 0.31795 0.59903 0.0
C967 C 0.13154 0.32684 0.60369 0.0
C968 C 0.10633 0.29432 0.59941 0.0
C969 C 0.12416 0.27904 0.60439 0.0
C970 C 0.14594 0.28785 0.60808 0.0
C971 C 0.1496 0.31152 0.60773 0.0
H972 H 0.21771 0.61528 0.13702 0.0
H973 H 0.20433 0.62756 0.06497 0.0
H974 H 0.25771 0.61082 0.12873 0.0
H975 H 0.24469 0.62286 0.05663 0.0
H976 H 0.32038 0.64891 0.06505 0.0
H977 H 0.27924 0.64587 0.06592 0.0
H978 H 0.28495 0.58548 0.10882 0.0
H979 H 0.32594 0.58867 0.1083 0.0
C980 C 0.22329 0.61678 0.11935 0.0
C981 C 0.2079 0.62192 0.10167 0.0
C982 C 0.2462 0.61401 0.11457 0.0
C983 C 0.25429 0.6164 0.09201 0.0
C984 C 0.23888 0.62103 0.07419 0.0
C985 C 0.21582 0.62363 0.07896 0.0
C986 C 0.31286 0.63472 0.07426 0.0
C987 C 0.32634 0.61932 0.087 0.0
C988 C 0.28931 0.63292 0.07466 0.0
C989 C 0.27894 0.61565 0.08775 0.0
C990 C 0.29251 0.59922 0.09897 0.0
C991 C 0.31598 0.60105 0.09863 0.0
H992 H 0.90635 0.22081 0.35974 0.0
H993 H 0.87167 0.18658 0.41527 0.0
H994 H 0.90096 0.25754 0.37905 0.0
H995 H 0.86609 0.22355 0.43453 0.0
H996 H 0.8275 0.29632 0.42686 0.0
H997 H 0.84072 0.25698 0.4208 0.0
H998 H 0.90935 0.28098 0.41498 0.0
H999 H 0.89628 0.32032 0.42108 0.0
C1000 C 0.89801 0.22109 0.37632 0.0
C1001 C 0.88922 0.20091 0.38588 0.0
C1002 C 0.89507 0.24209 0.38745 0.0
C1003 C 0.88301 0.24334 0.40822 0.0
C1004 C 0.87536 0.223 0.41848 0.0
C1005 C 0.87863 0.20189 0.4075 0.0
C1006 C 0.84547 0.29316 0.42489 0.0
C1007 C 0.86077 0.31148 0.42403 0.0
C1008 C 0.85306 0.27062 0.42158 0.0
C1009 C 0.87602 0.26605 0.41719 0.0
C1010 C 0.89153 0.28413 0.41812 0.0
C1011 C 0.884 0.30663 0.42164 0.0
H1012 H 0.18435 0.38054 0.90023 0.0
H1013 H 0.19272 0.43512 0.85056 0.0
H1014 H 0.2252 0.37577 0.90255 0.0
H1015 H 0.23372 0.4301 0.85275 0.0
H1016 H 0.30737 0.42664 0.87884 0.0
H1017 H 0.26663 0.43403 0.87924 0.0
H1018 H 0.25444 0.36103 0.87607 0.0
H1019 H 0.29499 0.35359 0.87591 0.0
C1020 C 0.19489 0.39161 0.88989 0.0
C1021 C 0.18527 0.4081 0.87507 0.0
C1022 C 0.2183 0.38878 0.89115 0.0
C1023 C 0.23263 0.4024 0.87767 0.0
C1024 C 0.22308 0.41944 0.86344 0.0
C1025 C 0.19961 0.42224 0.86212 0.0
C1026 C 0.29599 0.41217 0.87829 0.0
C1027 C 0.30441 0.38953 0.87736 0.0
C1028 C 0.27268 0.41643 0.87842 0.0
C1029 C 0.25737 0.39811 0.87778 0.0
C1030 C 0.26583 0.37549 0.87692 0.0
C1031 C 0.28907 0.37124 0.87667 0.0
H1032 H 0.14233 0.81997 0.42417 0.0
H1033 H 0.11144 0.79497 0.3618 0.0
H1034 H 0.14722 0.7804 0.43767 0.0
H1035 H 0.11604 0.75558 0.37547 0.0
H1036 H 0.11842 0.68705 0.40963 0.0
H1037 H 0.10557 0.72696 0.40807 0.0
H1038 H 0.17402 0.74967 0.41901 0.0
H1039 H 0.18705 0.70979 0.42032 0.0
C1040 C 0.136 0.80608 0.41366 0.0
C1041 C 0.12673 0.81046 0.39182 0.0
C1042 C 0.13888 0.7835 0.42136 0.0
C1043 C 0.13207 0.76506 0.40756 0.0
C1044 C 0.12125 0.76954 0.38652 0.0
C1045 C 0.11876 0.79205 0.37863 0.0
C1046 C 0.13069 0.70052 0.41223 0.0
C1047 C 0.15383 0.69531 0.41473 0.0
C1048 C 0.12328 0.72333 0.41132 0.0
C1049 C 0.13883 0.74127 0.4133 0.0
C1050 C 0.16168 0.73609 0.41761 0.0
C1051 C 0.16915 0.71328 0.41819 0.0
H1052 H 0.82059 0.62768 0.86254 0.0
H1053 H 0.82497 0.62426 0.93663 0.0
H1054 H 0.78002 0.63397 0.86521 0.0
H1055 H 0.78409 0.63018 0.93926 0.0
H1056 H 0.71505 0.66862 0.93273 0.0
H1057 H 0.75565 0.66062 0.93207 0.0
H1058 H 0.74605 0.61327 0.87585 0.0
H1059 H 0.70567 0.62152 0.87618 0.0
C1060 C 0.81288 0.62812 0.87942 0.0
C1061 C 0.82603 0.62546 0.89938 0.0
C1062 C 0.78958 0.6316 0.88093 0.0
C1063 C 0.77883 0.63247 0.90244 0.0
C1064 C 0.79193 0.62978 0.92245 0.0
C1065 C 0.81532 0.62627 0.92093 0.0
C1066 C 0.72161 0.65643 0.9203 0.0
C1067 C 0.70716 0.64586 0.90438 0.0
C1068 C 0.74484 0.65176 0.92002 0.0
C1069 C 0.75406 0.63643 0.90381 0.0
C1070 C 0.73951 0.62546 0.88829 0.0
C1071 C 0.71634 0.63013 0.88856 0.0
H1072 H 0.60607 0.93369 0.82656 0.0
H1073 H 0.67582 0.91658 0.81153 0.0
H1074 H 0.59698 0.93128 0.78572 0.0
H1075 H 0.66661 0.91421 0.77076 0.0
H1076 H 0.63272 0.87554 0.71124 0.0
H1077 H 0.64205 0.88427 0.75088 0.0
H1078 H 0.60583 0.9488 0.74568 0.0
H1079 H 0.59643 0.94016 0.70556 0.0
C1080 C 0.61953 0.92981 0.81453 0.0
C1081 C 0.64162 0.92502 0.82229 0.0
C1082 C 0.61432 0.92855 0.79116 0.0
C1083 C 0.63104 0.92228 0.77523 0.0
C1084 C 0.65336 0.91878 0.78281 0.0
C1085 C 0.65864 0.92024 0.80612 0.0
C1086 C 0.62659 0.89157 0.71848 0.0
C1087 C 0.61385 0.9072 0.70523 0.0
C1088 C 0.63216 0.89664 0.74113 0.0
C1089 C 0.62494 0.91734 0.75115 0.0
C1090 C 0.61165 0.93275 0.73823 0.0
C1091 C 0.60627 0.92779 0.71535 0.0
H1092 H 0.60561 0.10537 0.17975 0.0
H1093 H 0.6754 0.10215 0.20188 0.0
H1094 H 0.59336 0.10512 0.21975 0.0
H1095 H 0.663 0.10175 0.24185 0.0
H1096 H 0.63437 0.09416 0.31248 0.0
H1097 H 0.63952 0.08064 0.273 0.0
H1098 H 0.60002 0.13827 0.24815 0.0
H1099 H 0.59513 0.15195 0.2874 0.0
C1100 C 0.61833 0.10407 0.1931 0.0
C1101 C 0.64152 0.10419 0.18769 0.0
C1102 C 0.61127 0.10391 0.21596 0.0
C1103 C 0.62724 0.10354 0.23378 0.0
C1104 C 0.65034 0.10185 0.22839 0.0
C1105 C 0.65744 0.10229 0.20552 0.0
C1106 C 0.62625 0.10355 0.29862 0.0
C1107 C 0.61458 0.12425 0.30289 0.0
C1108 C 0.62929 0.09585 0.27609 0.0
C1109 C 0.62028 0.1085 0.25763 0.0
C1110 C 0.607 0.12811 0.26211 0.0
C1111 C 0.60431 0.13601 0.28454 0.0
H1112 H 0.36526 0.12842 0.70148 0.0
H1113 H 0.40112 0.0634 0.69863 0.0
H1114 H 0.35522 0.12101 0.74124 0.0
H1115 H 0.39074 0.05588 0.73858 0.0
H1116 H 0.392 0.07014 0.81777 0.0
H1117 H 0.39973 0.07169 0.77679 0.0
H1118 H 0.33132 0.09515 0.76424 0.0
H1119 H 0.3236 0.094 0.80543 0.0
C1120 C 0.37101 0.11252 0.70933 0.0
C1121 C 0.38406 0.09651 0.6969 0.0
C1122 C 0.36502 0.10817 0.73206 0.0
C1123 C 0.37196 0.08775 0.74292 0.0
C1124 C 0.38519 0.0718 0.73062 0.0
C1125 C 0.39116 0.07612 0.70778 0.0
C1126 C 0.37846 0.07529 0.80628 0.0
C1127 C 0.35725 0.08225 0.81488 0.0
C1128 C 0.38289 0.07605 0.78276 0.0
C1129 C 0.36623 0.08382 0.76737 0.0
C1130 C 0.34461 0.08947 0.7758 0.0
C1131 C 0.34014 0.08865 0.79936 0.0
H1132 H 0.33419 0.89544 0.19941 0.0
H1133 H 0.40412 0.88495 0.18011 0.0
H1134 H 0.34473 0.89175 0.23995 0.0
H1135 H 0.4144 0.8808 0.22055 0.0
H1136 H 0.40701 0.83735 0.2903 0.0
H1137 H 0.401 0.84761 0.24995 0.0
H1138 H 0.37225 0.91281 0.27053 0.0
H1139 H 0.37867 0.9029 0.31085 0.0
C1140 C 0.3518 0.89265 0.20383 0.0
C1141 C 0.3683 0.89042 0.18662 0.0
C1142 C 0.35781 0.89062 0.22697 0.0
C1143 C 0.38033 0.8859 0.23318 0.0
C1144 C 0.39693 0.88437 0.21607 0.0
C1145 C 0.39102 0.88685 0.19299 0.0
C1146 C 0.39976 0.85401 0.28619 0.0
C1147 C 0.39329 0.8693 0.30368 0.0
C1148 C 0.3964 0.85989 0.26316 0.0
C1149 C 0.38611 0.88093 0.25732 0.0
C1150 C 0.38015 0.89646 0.27472 0.0
C1151 C 0.38394 0.89081 0.29772 0.0
H1152 H 0.10161 0.14577 0.55813 0.0
H1153 H 0.11927 0.07376 0.552 0.0
H1154 H 0.09507 0.14781 0.517 0.0
H1155 H 0.11252 0.07587 0.51057 0.0
H1156 H 0.13297 0.1037 0.43768 0.0
H1157 H 0.13294 0.09592 0.47875 0.0
H1158 H 0.06997 0.13342 0.48574 0.0
H1159 H 0.07003 0.14144 0.4445 0.0
C1160 C 0.10391 0.1303 0.54804 0.0
C1161 C 0.11117 0.10964 0.55829 0.0
C1162 C 0.09993 0.13144 0.52449 0.0
C1163 C 0.10325 0.11199 0.51064 0.0
C1164 C 0.10996 0.09115 0.5209 0.0
C1165 C 0.11379 0.08995 0.54457 0.0
C1166 C 0.11898 0.11009 0.44791 0.0
C1167 C 0.10165 0.12345 0.43794 0.0
C1168 C 0.11887 0.10544 0.4714 0.0
C1169 C 0.10151 0.11416 0.4854 0.0
C1170 C 0.08367 0.1267 0.47531 0.0
C1171 C 0.08369 0.13123 0.45174 0.0
H1172 H 0.39982 0.57029 0.95072 0.0
H1173 H 0.46355 0.60263 0.93522 0.0
H1174 H 0.40781 0.57275 0.99117 0.0
H1175 H 0.47217 0.60428 0.97636 0.0
H1176 H 0.45487 0.63798 0.04819 0.0
H1177 H 0.45873 0.62692 0.00785 0.0
H1178 H 0.42838 0.56128 0.02322 0.0
H1179 H 0.42311 0.57321 0.06297 0.0
C1180 C 0.41587 0.57745 0.95596 0.0
C1181 C 0.43088 0.58661 0.93975 0.0
C1182 C 0.42062 0.57863 0.9793 0.0
C1183 C 0.44066 0.5888 0.98716 0.0
C1184 C 0.45644 0.59663 0.97089 0.0
C1185 C 0.45159 0.59553 0.94734 0.0
C1186 C 0.44946 0.62106 0.04286 0.0
C1187 C 0.43828 0.60658 0.05832 0.0
C1188 C 0.4518 0.6146 0.01983 0.0
C1189 C 0.44338 0.59338 0.01213 0.0
C1190 C 0.43436 0.57804 0.02836 0.0
C1191 C 0.43143 0.58477 0.05113 0.0
H1192 H 0.88729 0.91281 0.44094 0.0
H1193 H 0.87903 0.84066 0.4557 0.0
H1194 H 0.88513 0.92145 0.48201 0.0
H1195 H 0.87832 0.84888 0.4965 0.0
H1196 H 0.85443 0.86851 0.56535 0.0
H1197 H 0.85445 0.86416 0.52393 0.0
H1198 H 0.90323 0.9189 0.51818 0.0
H1199 H 0.9018 0.9242 0.55996 0.0
C1200 C 0.88528 0.89881 0.45303 0.0
C1201 C 0.88304 0.87612 0.44524 0.0
C1202 C 0.88416 0.90372 0.47654 0.0
C1203 C 0.88119 0.88592 0.49264 0.0
C1204 C 0.87981 0.86315 0.48466 0.0
C1205 C 0.8804 0.85836 0.46125 0.0
C1206 C 0.86494 0.87977 0.55515 0.0
C1207 C 0.87826 0.89654 0.56568 0.0
C1208 C 0.86517 0.87716 0.53142 0.0
C1209 C 0.87931 0.89075 0.51766 0.0
C1210 C 0.89207 0.90817 0.5282 0.0
C1211 C 0.89136 0.9112 0.55207 0.0
H1212 H 0.61412 0.42726 0.953 0.0
H1213 H 0.54339 0.41063 0.94544 0.0
H1214 H 0.61079 0.42401 0.99419 0.0
H1215 H 0.53983 0.40808 0.98727 0.0
H1216 H 0.55701 0.37079 0.05745 0.0
H1217 H 0.55239 0.38175 0.01709 0.0
H1218 H 0.59574 0.4402 0.02806 0.0
H1219 H 0.60124 0.42848 0.0678 0.0
C1220 C 0.59769 0.42337 0.96017 0.0
C1221 C 0.57906 0.41902 0.9459 0.0
C1222 C 0.59571 0.42169 0.98391 0.0
C1223 C 0.575 0.41582 0.9941 0.0
C1224 C 0.55606 0.41241 0.97992 0.0
C1225 C 0.55807 0.41402 0.956 0.0
C1226 C 0.56521 0.38616 0.0512 0.0
C1227 C 0.57986 0.39853 0.06544 0.0
C1228 C 0.56247 0.39254 0.02816 0.0
C1229 C 0.57407 0.4116 0.01924 0.0
C1230 C 0.58711 0.42504 0.03419 0.0
C1231 C 0.59021 0.41839 0.05696 0.0
H1232 H 0.14402 0.9529 0.57006 0.0
H1233 H 0.10005 0.89558 0.55653 0.0
H1234 H 0.14654 0.96045 0.52863 0.0
H1235 H 0.10267 0.90286 0.51567 0.0
H1236 H 0.1025 0.92055 0.44389 0.0
H1237 H 0.09418 0.9287 0.48405 0.0
H1238 H 0.16537 0.93842 0.49722 0.0
H1239 H 0.17362 0.93096 0.45678 0.0
C1240 C 0.1345 0.94229 0.55829 0.0
C1241 C 0.12203 0.92351 0.56642 0.0
C1242 C 0.13604 0.94652 0.53464 0.0
C1243 C 0.12485 0.93224 0.5189 0.0
C1244 C 0.11126 0.91441 0.52729 0.0
C1245 C 0.10992 0.91008 0.55074 0.0
C1246 C 0.11632 0.92494 0.45526 0.0
C1247 C 0.13876 0.9246 0.4474 0.0
C1248 C 0.11155 0.92962 0.47823 0.0
C1249 C 0.12916 0.93372 0.49387 0.0
C1250 C 0.15142 0.93541 0.48557 0.0
C1251 C 0.15617 0.93098 0.46244 0.0
H1252 H 0.56564 0.63771 0.94929 0.0
H1253 H 0.63826 0.6369 0.95801 0.0
H1254 H 0.5611 0.62606 0.98944 0.0
H1255 H 0.63374 0.62603 0.99785 0.0
H1256 H 0.62448 0.59083 0.06309 0.0
H1257 H 0.62283 0.59452 0.02147 0.0
H1258 H 0.56624 0.64162 0.02782 0.0
H1259 H 0.56732 0.63707 0.06952 0.0
C1260 C 0.58059 0.63512 0.95977 0.0
C1261 C 0.6023 0.63817 0.95048 0.0
C1262 C 0.57799 0.62847 0.98273 0.0
C1263 C 0.59706 0.62483 0.99675 0.0
C1264 C 0.6187 0.62805 0.98739 0.0
C1265 C 0.62129 0.63453 0.96455 0.0
C1266 C 0.61138 0.60157 0.05554 0.0
C1267 C 0.59626 0.61395 0.06946 0.0
C1268 C 0.61051 0.60381 0.03173 0.0
C1269 C 0.59479 0.61884 0.0214 0.0
C1270 C 0.57854 0.62989 0.03525 0.0
C1271 C 0.57919 0.62734 0.05913 0.0
H1272 H 0.83802 0.12507 0.44781 0.0
H1273 H 0.89684 0.08368 0.43105 0.0
H1274 H 0.84387 0.11686 0.48844 0.0
H1275 H 0.90236 0.07529 0.47202 0.0
H1276 H 0.8793 0.05803 0.55336 0.0
H1277 H 0.87432 0.05795 0.5114 0.0
H1278 H 0.88526 0.1311 0.50981 0.0
H1279 H 0.89061 0.13138 0.55118 0.0
C1280 C 0.85189 0.11381 0.45271 0.0
C1281 C 0.86718 0.10532 0.43626 0.0
C1282 C 0.85518 0.10913 0.47594 0.0
C1283 C 0.87361 0.09562 0.48311 0.0
C1284 C 0.888 0.08569 0.46671 0.0
C1285 C 0.88486 0.09059 0.44337 0.0
C1286 C 0.88104 0.074 0.54398 0.0
C1287 C 0.88515 0.09474 0.55563 0.0
C1288 C 0.87819 0.0739 0.52007 0.0
C1289 C 0.87915 0.09457 0.50771 0.0
C1290 C 0.88424 0.11502 0.51917 0.0
C1291 C 0.88736 0.11511 0.54284 0.0
H1292 H 0.43701 0.37861 0.93928 0.0
H1293 H 0.36482 0.37047 0.94689 0.0
H1294 H 0.43979 0.38991 0.9795 0.0
H1295 H 0.36768 0.38077 0.98716 0.0
H1296 H 0.37404 0.41338 0.05512 0.0
H1297 H 0.37443 0.41093 0.01336 0.0
H1298 H 0.43737 0.37263 0.01637 0.0
H1299 H 0.43745 0.37606 0.05803 0.0
C1300 C 0.42176 0.37915 0.94957 0.0
C1301 C 0.40071 0.37355 0.93998 0.0
C1302 C 0.42336 0.38558 0.97262 0.0
C1303 C 0.40397 0.38628 0.98658 0.0
C1304 C 0.3829 0.38091 0.97683 0.0
C1305 C 0.38127 0.37476 0.95376 0.0
C1306 C 0.38816 0.40482 0.04679 0.0
C1307 C 0.40558 0.39468 0.05979 0.0
C1308 C 0.38831 0.40326 0.02289 0.0
C1309 C 0.40569 0.39119 0.01153 0.0
C1310 C 0.4238 0.3822 0.02451 0.0
C1311 C 0.42381 0.38408 0.04842 0.0
H1312 H 0.56551 0.10779 0.08049 0.0
H1313 H 0.55575 0.12529 0.152 0.0
H1314 H 0.52487 0.10042 0.07678 0.0
H1315 H 0.51548 0.11754 0.14831 0.0
H1316 H 0.45011 0.07814 0.13908 0.0
H1317 H 0.49133 0.08053 0.13886 0.0
H1318 H 0.48816 0.12762 0.08158 0.0
H1319 H 0.44686 0.12558 0.08191 0.0
C1320 C 0.55471 0.10997 0.09538 0.0
C1321 C 0.56371 0.11719 0.11651 0.0
C1322 C 0.53157 0.10578 0.09323 0.0
C1323 C 0.51725 0.10824 0.11232 0.0
C1324 C 0.52629 0.11527 0.13344 0.0
C1325 C 0.54927 0.11988 0.13547 0.0
C1326 C 0.4582 0.08869 0.12618 0.0
C1327 C 0.4453 0.10186 0.11066 0.0
C1328 C 0.48173 0.0901 0.12613 0.0
C1329 C 0.49274 0.10436 0.11031 0.0
C1330 C 0.47998 0.11645 0.09388 0.0
C1331 C 0.4564 0.11535 0.09416 0.0
H1332 H 0.41871 0.94219 0.61563 0.0
H1333 H 0.3659 0.93942 0.56448 0.0
H1334 H 0.42082 0.98363 0.61094 0.0
H1335 H 0.36745 0.98136 0.56029 0.0
H1336 H 0.38522 0.05919 0.55448 0.0
H1337 H 0.38968 0.01738 0.55063 0.0
H1338 H 0.3922 0.01104 0.62456 0.0
H1339 H 0.38804 0.05214 0.62844 0.0
C1340 C 0.40779 0.95049 0.60311 0.0
C1341 C 0.39186 0.93779 0.59071 0.0
C1342 C 0.40895 0.97419 0.60047 0.0
C1343 C 0.3939 0.98574 0.58569 0.0
C1344 C 0.37923 0.97286 0.57182 0.0
C1345 C 0.3783 0.94893 0.57424 0.0
C1346 C 0.38685 0.0488 0.56985 0.0
C1347 C 0.38642 0.05902 0.59176 0.0
C1348 C 0.38935 0.02493 0.56763 0.0
C1349 C 0.39165 0.01104 0.58727 0.0
C1350 C 0.39106 0.02133 0.60907 0.0
C1351 C 0.38851 0.04496 0.61129 0.0
H1352 H 0.44401 0.91686 0.0922 0.0
H1353 H 0.4582 0.85202 0.12583 0.0
H1354 H 0.48457 0.92298 0.08716 0.0
H1355 H 0.49851 0.85823 0.12089 0.0
H1356 H 0.56773 0.86507 0.09201 0.0
H1357 H 0.52695 0.86073 0.08946 0.0
H1358 H 0.51759 0.93025 0.1138 0.0
H1359 H 0.55857 0.93477 0.1162 0.0
C1360 C 0.45576 0.90387 0.09837 0.0
C1361 C 0.44796 0.88398 0.10947 0.0
C1362 C 0.47892 0.90744 0.09555 0.0
C1363 C 0.49461 0.89105 0.10355 0.0
C1364 C 0.48676 0.871 0.11426 0.0
C1365 C 0.46368 0.86753 0.11724 0.0
C1366 C 0.55703 0.87957 0.09654 0.0
C1367 C 0.56635 0.90016 0.10467 0.0
C1368 C 0.53369 0.87703 0.09512 0.0
C1369 C 0.51918 0.89503 0.10176 0.0
C1370 C 0.52844 0.91612 0.10852 0.0
C1371 C 0.55188 0.91867 0.10998 0.0
H1372 H 0.61052 0.05082 0.63329 0.0
H1373 H 0.62063 0.05637 0.55989 0.0
H1374 H 0.60667 0.0097 0.62974 0.0
H1375 H 0.61613 0.01474 0.55626 0.0
H1376 H 0.6393 0.93782 0.57022 0.0
H1377 H 0.6369 0.97966 0.56666 0.0
H1378 H 0.5819 0.98081 0.61557 0.0
H1379 H 0.58501 0.93933 0.61981 0.0
C1380 C 0.61163 0.0433 0.6163 0.0
C1381 C 0.61593 0.0569 0.59687 0.0
C1382 C 0.60921 0.01966 0.61424 0.0
C1383 C 0.61084 0.00895 0.59267 0.0
C1384 C 0.61488 0.02251 0.57311 0.0
C1385 C 0.61738 0.04632 0.5752 0.0
C1386 C 0.62643 0.94705 0.5798 0.0
C1387 C 0.61264 0.93552 0.59562 0.0
C1388 C 0.62499 0.97097 0.57773 0.0
C1389 C 0.60954 0.98357 0.59123 0.0
C1390 C 0.59442 0.97166 0.60545 0.0
C1391 C 0.59612 0.94791 0.6078 0.0
H1392 H 0.44833 0.84826 0.90461 0.0
H1393 H 0.43905 0.92123 0.89363 0.0
H1394 H 0.48914 0.85342 0.90551 0.0
H1395 H 0.47997 0.92628 0.89421 0.0
H1396 H 0.55504 0.92813 0.91498 0.0
H1397 H 0.51417 0.92343 0.91914 0.0
H1398 H 0.51719 0.86318 0.87592 0.0
H1399 H 0.55781 0.86763 0.87197 0.0
C1400 C 0.45498 0.86542 0.90252 0.0
C1401 C 0.44047 0.88431 0.89882 0.0
C1402 C 0.47836 0.86835 0.90294 0.0
C1403 C 0.48772 0.89021 0.89971 0.0
C1404 C 0.47321 0.90925 0.8969 0.0
C1405 C 0.44979 0.90632 0.89643 0.0
C1406 C 0.54695 0.91385 0.90645 0.0
C1407 C 0.55963 0.89827 0.89313 0.0
C1408 C 0.52358 0.91122 0.90877 0.0
C1409 C 0.51254 0.89288 0.89794 0.0
C1410 C 0.52528 0.87727 0.88476 0.0
C1411 C 0.54854 0.87994 0.88236 0.0
H1412 H 0.65456 0.9405 0.4156 0.0
H1413 H 0.58654 0.95275 0.39096 0.0
H1414 H 0.65986 0.98175 0.41995 0.0
H1415 H 0.59202 0.99396 0.3949 0.0
H1416 H 0.60425 0.06775 0.41181 0.0
H1417 H 0.59874 0.02701 0.41993 0.0
H1418 H 0.66441 0.01165 0.39099 0.0
H1419 H 0.67009 0.05223 0.38324 0.0
C1420 C 0.64061 0.95196 0.41144 0.0
C1421 C 0.62024 0.94338 0.40258 0.0
C1422 C 0.6437 0.97559 0.41385 0.0
C1423 C 0.62649 0.99112 0.40747 0.0
C1424 C 0.60558 0.98245 0.40012 0.0
C1425 C 0.60248 0.95881 0.39772 0.0
C1426 C 0.61767 0.05571 0.40755 0.0
C1427 C 0.63751 0.06318 0.39663 0.0
C1428 C 0.61446 0.03238 0.41212 0.0
C1429 C 0.63106 0.0161 0.40596 0.0
C1430 C 0.65139 0.02376 0.39619 0.0
C1431 C 0.65457 0.04704 0.39157 0.0
H1432 H 0.44773 0.13193 0.85525 0.0
H1433 H 0.44841 0.07612 0.9044 0.0
H1434 H 0.4883 0.13639 0.86015 0.0
H1435 H 0.48919 0.08078 0.90937 0.0
H1436 H 0.56607 0.0829 0.88923 0.0
H1437 H 0.52536 0.0765 0.88626 0.0
H1438 H 0.51324 0.14955 0.89211 0.0
H1439 H 0.55372 0.15604 0.89491 0.0
C1440 C 0.45654 0.12056 0.86705 0.0
C1441 C 0.44487 0.10374 0.87951 0.0
C1442 C 0.47974 0.12323 0.86996 0.0
C1443 C 0.49178 0.10906 0.88529 0.0
C1444 C 0.48027 0.09186 0.89739 0.0
C1445 C 0.45696 0.08928 0.89459 0.0
C1446 C 0.55469 0.09756 0.89006 0.0
C1447 C 0.56309 0.11999 0.8921 0.0
C1448 C 0.53143 0.09388 0.88844 0.0
C1449 C 0.51625 0.11257 0.88871 0.0
C1450 C 0.52463 0.13488 0.89147 0.0
C1451 C 0.5478 0.13856 0.8932 0.0
H1452 H 0.41743 0.9418 0.40291 0.0
H1453 H 0.34964 0.95677 0.37896 0.0
H1454 H 0.4236 0.98268 0.40936 0.0
H1455 H 0.35596 0.99755 0.38513 0.0
H1456 H 0.36716 0.06812 0.4111 0.0
H1457 H 0.36264 0.02676 0.41494 0.0
H1458 H 0.42785 0.01591 0.3831 0.0
H1459 H 0.43258 0.05733 0.37955 0.0
C1460 C 0.40378 0.95378 0.39922 0.0
C1461 C 0.3831 0.94612 0.39023 0.0
C1462 C 0.40737 0.97716 0.40286 0.0
C1463 C 0.3903 0.99325 0.3977 0.0
C1464 C 0.36934 0.9855 0.38954 0.0
C1465 C 0.36578 0.96215 0.38583 0.0
C1466 C 0.38071 0.05693 0.40526 0.0
C1467 C 0.40008 0.06593 0.39467 0.0
C1468 C 0.37807 0.03327 0.40741 0.0
C1469 C 0.39473 0.01816 0.39902 0.0
C1470 C 0.41477 0.02717 0.38983 0.0
C1471 C 0.41743 0.05089 0.38769 0.0
H1472 H 0.11382 0.4601 0.0829 0.0
H1473 H 0.05465 0.46394 0.12627 0.0
H1474 H 0.11758 0.50167 0.08492 0.0
H1475 H 0.05902 0.50538 0.1293 0.0
H1476 H 0.06777 0.58242 0.12397 0.0
H1477 H 0.059 0.54295 0.11302 0.0
H1478 H 0.13031 0.52587 0.11455 0.0
H1479 H 0.13901 0.56516 0.12449 0.0
C1480 C 0.10149 0.4699 0.09267 0.0
C1481 C 0.08414 0.45882 0.10467 0.0
C1482 C 0.10372 0.49369 0.09398 0.0
C1483 C 0.08893 0.50681 0.10774 0.0
C1484 C 0.07065 0.49585 0.11847 0.0
C1485 C 0.06819 0.47207 0.11681 0.0
C1486 C 0.08152 0.57019 0.12184 0.0
C1487 C 0.10407 0.57687 0.12512 0.0
C1488 C 0.07651 0.54759 0.1156 0.0
C1489 C 0.09395 0.53125 0.11272 0.0
C1490 C 0.11646 0.53808 0.116 0.0
C1491 C 0.12146 0.56061 0.12197 0.0
H1492 H 0.12684 0.56544 0.92103 0.0
H1493 H 0.06025 0.58307 0.89549 0.0
H1494 H 0.11772 0.52533 0.91956 0.0
H1495 H 0.05046 0.54228 0.8952 0.0
H1496 H 0.05905 0.46868 0.86322 0.0
H1497 H 0.05935 0.50959 0.87259 0.0
H1498 H 0.09814 0.49448 0.93397 0.0
H1499 H 0.09923 0.45403 0.92342 0.0
C1500 C 0.11 0.56077 0.91553 0.0
C1501 C 0.09441 0.57747 0.90799 0.0
C1502 C 0.10461 0.5376 0.91497 0.0
C1503 C 0.08331 0.5304 0.90723 0.0
C1504 C 0.06715 0.54719 0.90093 0.0
C1505 C 0.07268 0.57056 0.90126 0.0
C1506 C 0.06737 0.47425 0.87881 0.0
C1507 C 0.07955 0.45852 0.89237 0.0
C1508 C 0.0674 0.49763 0.88434 0.0
C1509 C 0.07919 0.50547 0.90382 0.0
C1510 C 0.08957 0.48921 0.91842 0.0
C1511 C 0.09012 0.46604 0.91249 0.0
H1512 H 0.06906 0.65516 0.39263 0.0
H1513 H 0.0835 0.58325 0.4049 0.0
H1514 H 0.02872 0.64784 0.39672 0.0
H1515 H 0.04283 0.5759 0.40851 0.0
H1516 H 0.96714 0.57862 0.37582 0.0
H1517 H 0.00838 0.58112 0.37791 0.0
H1518 H 1.00238 0.63268 0.43085 0.0
H1519 H 0.96123 0.63001 0.42913 0.0
C1520 C 0.06359 0.63778 0.39615 0.0
C1521 C 0.07935 0.61974 0.3984 0.0
C1522 C 0.04057 0.63366 0.39867 0.0
C1523 C 0.03285 0.61136 0.40306 0.0
C1524 C 0.04851 0.59323 0.40518 0.0
C1525 C 0.07167 0.59745 0.40314 0.0
C1526 C 0.97465 0.59016 0.38821 0.0
C1527 C 0.96102 0.60428 0.40217 0.0
C1528 C 0.99818 0.59149 0.38946 0.0
C1529 C 0.00836 0.6072 0.40442 0.0
C1530 C 0.9948 0.62053 0.41911 0.0
C1531 C 0.9713 0.61893 0.41815 0.0
H1532 H 0.88895 0.55604 0.91397 0.0
H1533 H 0.94772 0.53944 0.87298 0.0
H1534 H 0.88726 0.51643 0.92718 0.0
H1535 H 0.94538 0.49946 0.88517 0.0
H1536 H 0.94346 0.43034 0.91936 0.0
H1537 H 0.94887 0.47169 0.91489 0.0
H1538 H 0.87636 0.48146 0.91122 0.0
H1539 H 0.87102 0.44076 0.9167 0.0
C1540 C 0.90144 0.54384 0.90769 0.0
C1541 C 0.91829 0.55069 0.89224 0.0
C1542 C 0.90046 0.52112 0.91521 0.0
C1543 C 0.91601 0.50464 0.90703 0.0
C1544 C 0.9333 0.51171 0.89207 0.0
C1545 C 0.93453 0.53457 0.88489 0.0
C1546 C 0.92872 0.44145 0.918 0.0
C1547 C 0.90683 0.43226 0.91828 0.0
C1548 C 0.93181 0.4651 0.91527 0.0
C1549 C 0.91306 0.47993 0.91256 0.0
C1550 C 0.89121 0.47071 0.91366 0.0
C1551 C 0.88814 0.44723 0.91664 0.0
H1552 H 0.04184 0.44859 0.39185 0.0
H1553 H 0.05197 0.3749 0.3908 0.0
H1554 H 1.00105 0.44289 0.39605 0.0
H1555 H 0.01161 0.36937 0.39519 0.0
H1556 H 0.93861 0.36808 0.37243 0.0
H1557 H 0.9787 0.37633 0.36966 0.0
H1558 H 0.97222 0.42652 0.42393 0.0
H1559 H 0.93174 0.41843 0.42663 0.0
C1560 C 0.03542 0.43124 0.39269 0.0
C1561 C 0.05009 0.41221 0.39077 0.0
C1562 C 0.01213 0.428 0.39517 0.0
C1563 C 1.00322 0.4057 0.39567 0.0
C1564 C 0.01799 0.38675 0.39442 0.0
C1565 C 0.04114 0.38996 0.39201 0.0
C1566 C 0.94565 0.38092 0.38377 0.0
C1567 C 0.93205 0.39248 0.39988 0.0
C1568 C 0.96864 0.38557 0.38223 0.0
C1569 C 0.97856 0.40189 0.39674 0.0
C1570 C 0.96493 0.41391 0.41249 0.0
C1571 C 0.94184 0.40919 0.41411 0.0
H1572 H 0.88568 0.4304 0.10806 0.0
H1573 H 0.93839 0.43817 0.15879 0.0
H1574 H 0.89262 0.46903 0.09405 0.0
H1575 H 0.94468 0.47747 0.1455 0.0
H1576 H 0.95797 0.54517 0.11063 0.0
H1577 H 0.95682 0.50351 0.11581 0.0
H1578 H 0.88403 0.50568 0.10888 0.0
H1579 H 0.88524 0.54673 0.10294 0.0
C1580 C 0.89875 0.44045 0.11625 0.0
C1581 C 0.91124 0.4315 0.13477 0.0
C1582 C 0.9027 0.4626 0.10824 0.0
C1583 C 0.91892 0.47651 0.1189 0.0
C1584 C 0.93217 0.46716 0.13677 0.0
C1585 C 0.92847 0.44474 0.14453 0.0
C1586 C 0.9418 0.53662 0.10975 0.0
C1587 C 0.92169 0.54928 0.10652 0.0
C1588 C 0.94113 0.5128 0.11291 0.0
C1589 C 0.92033 0.50125 0.1129 0.0
C1590 C 0.90039 0.51388 0.10865 0.0
C1591 C 0.90107 0.53754 0.10538 0.0
H1592 H 0.93593 0.36781 0.6019 0.0
H1593 H 0.92499 0.42645 0.64603 0.0
H1594 H 0.97539 0.37825 0.59758 0.0
H1595 H 0.96418 0.4378 0.6407 0.0
H1596 H 0.04076 0.43105 0.6524 0.0
H1597 H 1.00001 0.42632 0.65291 0.0
H1598 H 1.00197 0.40327 0.58225 0.0
H1599 H 0.04299 0.40677 0.58234 0.0
C1600 C 0.94191 0.3832 0.61031 0.0
C1601 C 0.92753 0.39618 0.62449 0.0
C1602 C 0.96451 0.38934 0.6077 0.0
C1603 C 0.9731 0.40888 0.61885 0.0
C1604 C 0.95834 0.42238 0.63227 0.0
C1605 C 0.93585 0.41596 0.63525 0.0
C1606 C 0.03242 0.42528 0.63689 0.0
C1607 C 0.04499 0.41903 0.61742 0.0
C1608 C 0.00899 0.42267 0.63711 0.0
C1609 C 0.99762 0.41417 0.61768 0.0
C1610 C 0.01018 0.40927 0.59772 0.0
C1611 C 0.03366 0.41144 0.59769 0.0
H1612 H 0.08336 0.64482 0.58235 0.0
H1613 H 0.0791 0.59593 0.63815 0.0
H1614 H 0.04228 0.64389 0.57801 0.0
H1615 H 0.03804 0.59488 0.63356 0.0
H1616 H 0.96642 0.58553 0.60356 0.0
H1617 H 0.00777 0.58358 0.6028 0.0
H1618 H 0.01059 0.65761 0.60604 0.0
H1619 H 0.96937 0.65964 0.60708 0.0
C1620 C 0.0737 0.63365 0.59347 0.0
C1621 C 0.08438 0.62056 0.61069 0.0
C1622 C 0.05024 0.6332 0.59102 0.0
C1623 C 0.03713 0.61936 0.60549 0.0
C1624 C 0.04786 0.60557 0.6221 0.0
C1625 C 0.07129 0.60628 0.6248 0.0
C1626 C 0.97588 0.60138 0.60391 0.0
C1627 C 0.96473 0.62274 0.60549 0.0
C1628 C 0.99948 0.60023 0.60355 0.0
C1629 C 0.01223 0.62044 0.60434 0.0
C1630 C 1.00108 0.6418 0.60522 0.0
C1631 C 0.97753 0.64294 0.60596 0.0
H1632 H 0.94875 0.13695 0.29978 0.0
H1633 H 0.94541 0.0899 0.35703 0.0
H1634 H 0.98956 0.13193 0.29832 0.0
H1635 H 0.98619 0.08398 0.35495 0.0
H1636 H 0.05906 0.1076 0.36831 0.0
H1637 H 0.01846 0.10381 0.36522 0.0
H1638 H 0.02302 0.11131 0.29147 0.0
H1639 H 0.06392 0.11613 0.29477 0.0
C1640 C 0.95661 0.12495 0.31164 0.0
C1641 C 0.94364 0.114 0.32867 0.0
C1642 C 0.9802 0.122 0.31077 0.0
C1643 C 0.99158 0.1078 0.32676 0.0
C1644 C 0.97833 0.09557 0.34272 0.0
C1645 C 0.95478 0.09875 0.34376 0.0
C1646 C 0.05156 0.10806 0.35132 0.0
C1647 C 0.06497 0.11234 0.33181 0.0
C1648 C 0.02806 0.10574 0.34951 0.0
C1649 C 0.01706 0.1074 0.32808 0.0
C1650 C 0.03064 0.11038 0.30837 0.0
C1651 C 0.05423 0.11288 0.31021 0.0
H1652 H 0.36781 0.41582 0.82288 0.0
H1653 H 0.43811 0.41579 0.8427 0.0
H1654 H 0.3693 0.45706 0.816 0.0
H1655 H 0.43936 0.45715 0.83731 0.0
H1656 H 0.439 0.53317 0.82661 0.0
H1657 H 0.43876 0.49206 0.81793 0.0
H1658 H 0.36863 0.48909 0.83865 0.0
H1659 H 0.36865 0.52984 0.84599 0.0
C1660 C 0.38373 0.42456 0.82536 0.0
C1661 C 0.40279 0.41242 0.83346 0.0
C1662 C 0.38454 0.44838 0.82175 0.0
C1663 C 0.40428 0.46092 0.82671 0.0
C1664 C 0.42382 0.44841 0.83313 0.0
C1665 C 0.42312 0.42449 0.83627 0.0
C1666 C 0.42337 0.52382 0.82862 0.0
C1667 C 0.4039 0.53494 0.83718 0.0
C1668 C 0.42328 0.50008 0.82394 0.0
C1669 C 0.40376 0.4868 0.82783 0.0
C1670 C 0.38399 0.49838 0.83504 0.0
C1671 C 0.38403 0.522 0.83947 0.0
H1672 H 0.0666 0.90666 0.37981 0.0
H1673 H 0.07407 0.89795 0.30656 0.0
H1674 H 0.02613 0.90994 0.37543 0.0
H1675 H 0.0333 0.90279 0.30179 0.0
H1676 H 0.95959 0.87765 0.30572 0.0
H1677 H 1.00012 0.88352 0.30594 0.0
H1678 H 0.99315 0.92733 0.36558 0.0
H1679 H 0.95268 0.91994 0.36616 0.0
C1680 C 0.05968 0.90616 0.36258 0.0
C1681 C 0.07379 0.90184 0.34357 0.0
C1682 C 0.0362 0.9082 0.36 0.0
C1683 C 0.0259 0.90644 0.33822 0.0
C1684 C 0.04024 0.90364 0.31897 0.0
C1685 C 0.06379 0.90116 0.32164 0.0
C1686 C 0.96663 0.88893 0.31862 0.0
C1687 C 0.95278 0.89817 0.33603 0.0
C1688 C 0.99009 0.8924 0.31875 0.0
C1689 C 1.00046 0.90563 0.33604 0.0
C1690 C 0.98622 0.91636 0.35238 0.0
C1691 C 0.96282 0.91243 0.35256 0.0
H1692 H 0.62692 0.47311 0.82996 0.0
H1693 H 0.55815 0.48243 0.85289 0.0
H1694 H 0.62991 0.51425 0.82314 0.0
H1695 H 0.56144 0.52375 0.84767 0.0
H1696 H 0.56978 0.59906 0.83625 0.0
H1697 H 0.56498 0.5582 0.82824 0.0
H1698 H 0.63538 0.54618 0.84491 0.0
H1699 H 0.6403 0.58673 0.85151 0.0
C1700 C 0.61229 0.48396 0.8332 0.0
C1701 C 0.59233 0.47445 0.84202 0.0
C1702 C 0.61407 0.50771 0.82963 0.0
C1703 C 0.59616 0.5228 0.83543 0.0
C1704 C 0.57565 0.51299 0.84279 0.0
C1705 C 0.57371 0.48914 0.84583 0.0
C1706 C 0.58437 0.58774 0.83752 0.0
C1707 C 0.60541 0.59634 0.84468 0.0
C1708 C 0.58156 0.56415 0.83323 0.0
C1709 C 0.59965 0.54842 0.83621 0.0
C1710 C 0.62097 0.5574 0.84203 0.0
C1711 C 0.62382 0.58091 0.846 0.0
H1712 H 0.9449 0.86224 0.67452 0.0
H1713 H 0.94547 0.93427 0.65698 0.0
H1714 H 0.98572 0.86274 0.67979 0.0
H1715 H 0.98646 0.93462 0.66103 0.0
H1716 H 0.06145 0.93275 0.67544 0.0
H1717 H 0.02051 0.93292 0.68144 0.0
H1718 H 0.0177 0.86277 0.65736 0.0
H1719 H 0.05827 0.86235 0.65247 0.0
C1720 C 0.95371 0.87829 0.67202 0.0
C1721 C 0.94176 0.89818 0.66524 0.0
C1722 C 0.9773 0.87855 0.67478 0.0
C1723 C 0.98984 0.89861 0.67039 0.0
C1724 C 0.97767 0.91882 0.6648 0.0
C1725 C 0.954 0.91863 0.66241 0.0
C1726 C 0.05213 0.91719 0.67198 0.0
C1727 C 0.06337 0.89756 0.66342 0.0
C1728 C 0.0285 0.91736 0.67515 0.0
C1729 C 0.01537 0.89793 0.66973 0.0
C1730 C 0.02689 0.87803 0.66215 0.0
C1731 C 0.0504 0.87782 0.65917 0.0
H1732 H 0.63278 0.43539 0.18177 0.0
H1733 H 0.5633 0.44248 0.16029 0.0
H1734 H 0.63406 0.47633 0.19018 0.0
H1735 H 0.56483 0.48366 0.16715 0.0
H1736 H 0.57034 0.55898 0.18125 0.0
H1737 H 0.56731 0.51761 0.18766 0.0
H1738 H 0.63774 0.50923 0.16929 0.0
H1739 H 0.64092 0.55021 0.16421 0.0
C1740 C 0.61761 0.44565 0.17926 0.0
C1741 C 0.59796 0.43559 0.17032 0.0
C1742 C 0.61841 0.46932 0.18372 0.0
C1743 C 0.59978 0.48382 0.17875 0.0
C1744 C 0.57958 0.47336 0.17139 0.0
C1745 C 0.57864 0.44957 0.16744 0.0
C1746 C 0.58532 0.54833 0.17923 0.0
C1747 C 0.60585 0.5581 0.17209 0.0
C1748 C 0.58353 0.52445 0.18262 0.0
C1749 C 0.60217 0.50962 0.17876 0.0
C1750 C 0.62296 0.51971 0.17285 0.0
C1751 C 0.62479 0.54348 0.16975 0.0
H1752 H 0.94898 0.06275 0.64695 0.0
H1753 H 0.94263 0.13196 0.67263 0.0
H1754 H 0.98972 0.06404 0.65262 0.0
H1755 H 0.98316 0.13292 0.67981 0.0
H1756 H 0.05625 0.1409 0.65561 0.0
H1757 H 0.01578 0.13772 0.65978 0.0
H1758 H 0.02315 0.0649 0.67301 0.0
H1759 H 0.06393 0.06802 0.66746 0.0
C1760 C 0.9562 0.07798 0.65462 0.0
C1761 C 0.94247 0.0973 0.65919 0.0
C1762 C 0.97973 0.07877 0.65793 0.0
C1763 C 0.99024 0.09878 0.66632 0.0
C1764 C 0.97611 0.11743 0.67258 0.0
C1765 C 0.95268 0.1168 0.66878 0.0
C1766 C 0.0494 0.12422 0.65985 0.0
C1767 C 0.06358 0.1047 0.66103 0.0
C1768 C 0.02592 0.12237 0.66238 0.0
C1769 C 0.01569 0.10096 0.66657 0.0
C1770 C 0.03007 0.08164 0.66924 0.0
C1771 C 0.05363 0.08346 0.66637 0.0
H1772 H 0.38137 0.57072 0.17426 0.0
H1773 H 0.45075 0.56138 0.15334 0.0
H1774 H 0.3788 0.52988 0.18291 0.0
H1775 H 0.44792 0.52033 0.16034 0.0
H1776 H 0.44009 0.44534 0.17353 0.0
H1777 H 0.4443 0.48645 0.1805 0.0
H1778 H 0.37411 0.4972 0.16217 0.0
H1779 H 0.36975 0.45642 0.15662 0.0
C1780 C 0.39624 0.55997 0.17194 0.0
C1781 C 0.41624 0.56935 0.16308 0.0
C1782 C 0.3947 0.53637 0.17653 0.0
C1783 C 0.4129 0.5213 0.1717 0.0
C1784 C 0.43347 0.53108 0.16447 0.0
C1785 C 0.43516 0.5548 0.16043 0.0
C1786 C 0.42542 0.45646 0.17163 0.0
C1787 C 0.40461 0.44742 0.16435 0.0
C1788 C 0.42789 0.48019 0.17535 0.0
C1789 C 0.40969 0.49561 0.17162 0.0
C1790 C 0.38859 0.48624 0.16563 0.0
C1791 C 0.38607 0.46259 0.16226 0.0
H1792 H 0.37383 0.0605 0.07999 0.0
H1793 H 0.30174 0.06694 0.09012 0.0
H1794 H 0.37017 0.01954 0.07514 0.0
H1795 H 0.29777 0.02565 0.08397 0.0
H1796 H 0.36278 0.94579 0.06287 0.0
H1797 H 0.36008 0.987 0.05599 0.0
H1798 H 0.30385 0.9913 0.10333 0.0
H1799 H 0.30578 0.9499 0.1089 0.0
C1800 C 0.35701 0.05329 0.08048 0.0
C1801 C 0.33812 0.06721 0.08569 0.0
C1802 C 0.35485 0.02955 0.07753 0.0
C1803 C 0.33365 0.01881 0.07934 0.0
C1804 C 0.31449 0.033 0.08296 0.0
C1805 C 0.3167 0.05684 0.08619 0.0
C1806 C 0.34942 0.95548 0.07126 0.0
C1807 C 0.33456 0.9445 0.0865 0.0
C1808 C 0.34803 0.97928 0.06759 0.0
C1809 C 0.33213 0.99296 0.07955 0.0
C1810 C 0.31628 0.98164 0.0936 0.0
C1811 C 0.31736 0.95773 0.09686 0.0
H1812 H 0.44863 0.84879 0.65043 0.0
H1813 H 0.44398 0.82488 0.58041 0.0
H1814 H 0.48902 0.84264 0.64991 0.0
H1815 H 0.48471 0.81742 0.5802 0.0
H1816 H 0.55969 0.84078 0.57746 0.0
H1817 H 0.51884 0.83639 0.57758 0.0
H1818 H 0.52104 0.82056 0.65018 0.0
H1819 H 0.56175 0.82644 0.65016 0.0
C1820 C 0.45612 0.84155 0.63505 0.0
C1821 C 0.44282 0.83753 0.6154 0.0
C1822 C 0.47955 0.83783 0.63478 0.0
C1823 C 0.49063 0.82962 0.61494 0.0
C1824 C 0.47711 0.82423 0.59569 0.0
C1825 C 0.45358 0.82823 0.59588 0.0
C1826 C 0.55153 0.83582 0.59335 0.0
C1827 C 0.56409 0.83414 0.61384 0.0
C1828 C 0.52791 0.83327 0.59345 0.0
C1829 C 0.51615 0.82856 0.614 0.0
C1830 C 0.52911 0.82497 0.6341 0.0
C1831 C 0.55263 0.82801 0.63407 0.0
H1832 H 0.70591 0.0547 0.10838 0.0
H1833 H 0.64755 0.05855 0.06403 0.0
H1834 H 0.70784 0.01343 0.10298 0.0
H1835 H 0.65027 0.01732 0.05723 0.0
H1836 H 0.63765 0.9437 0.08206 0.0
H1837 H 0.64101 0.98454 0.07615 0.0
H1838 H 0.71353 0.97903 0.08444 0.0
H1839 H 0.70985 0.93792 0.09181 0.0
C1840 C 0.69399 0.04686 0.09671 0.0
C1841 C 0.67643 0.06003 0.08684 0.0
C1842 C 0.6951 0.02297 0.09353 0.0
C1843 C 0.67892 0.01151 0.08001 0.0
C1844 C 0.66261 0.02512 0.06844 0.0
C1845 C 0.66121 0.04895 0.07205 0.0
C1846 C 0.65444 0.95101 0.0822 0.0
C1847 C 0.67344 0.93734 0.08773 0.0
C1848 C 0.65642 0.9747 0.07863 0.0
C1849 C 0.67755 0.98563 0.08008 0.0
C1850 C 0.69684 0.9716 0.08379 0.0
C1851 C 0.69479 0.94783 0.08771 0.0
H1852 H 0.55908 0.15175 0.56683 0.0
H1853 H 0.56127 0.16862 0.63894 0.0
H1854 H 0.51815 0.1564 0.56699 0.0
H1855 H 0.52048 0.17462 0.63896 0.0
H1856 H 0.44768 0.14853 0.64027 0.0
H1857 H 0.48825 0.15315 0.63946 0.0
H1858 H 0.48418 0.17647 0.569 0.0
H1859 H 0.44333 0.17063 0.56957 0.0
C1860 C 0.55091 0.15725 0.58258 0.0
C1861 C 0.56358 0.15965 0.6029 0.0
C1862 C 0.52726 0.15996 0.5827 0.0
C1863 C 0.51552 0.16551 0.60311 0.0
C1864 C 0.52853 0.16961 0.62301 0.0
C1865 C 0.5521 0.16648 0.62297 0.0
C1866 C 0.45528 0.15503 0.62466 0.0
C1867 C 0.442 0.15908 0.60495 0.0
C1868 C 0.4788 0.15783 0.6242 0.0
C1869 C 0.48999 0.1651 0.6041 0.0
C1870 C 0.47651 0.17037 0.58472 0.0
C1871 C 0.45291 0.16729 0.5851 0.0
H1872 H 0.37719 0.02713 0.92121 0.0
H1873 H 0.30449 0.03432 0.92221 0.0
H1874 H 0.37398 0.98648 0.92835 0.0
H1875 H 0.30114 0.99342 0.93087 0.0
H1876 H 0.30402 0.91706 0.90798 0.0
H1877 H 0.30341 0.95845 0.91279 0.0
H1878 H 0.36704 0.95443 0.94933 0.0
H1879 H 0.36825 0.91309 0.94294 0.0
C1880 C 0.36044 0.02018 0.92368 0.0
C1881 C 0.3411 0.03416 0.92082 0.0
C1882 C 0.35856 0.9966 0.92798 0.0
C1883 C 0.33724 0.98613 0.93001 0.0
C1884 C 0.31789 1.00049 0.92885 0.0
C1885 C 0.31978 0.02413 0.92416 0.0
C1886 C 0.3176 0.92492 0.9176 0.0
C1887 C 0.33629 0.91168 0.92489 0.0
C1888 C 0.31727 0.94887 0.9204 0.0
C1889 C 0.33546 0.9603 0.931 0.0
C1890 C 0.35307 0.94663 0.9403 0.0
C1891 C 0.35364 0.92275 0.93699 0.0
H1892 H 0.57284 0.86537 0.4229 0.0
H1893 H 0.57069 0.80406 0.38136 0.0
H1894 H 0.53208 0.86334 0.42856 0.0
H1895 H 0.52995 0.80273 0.38572 0.0
H1896 H 0.4554 0.8004 0.39852 0.0
H1897 H 0.4962 0.79752 0.40468 0.0
H1898 H 0.49972 0.8716 0.40867 0.0
H1899 H 0.45923 0.87424 0.40387 0.0
C1900 C 0.56372 0.85126 0.41522 0.0
C1901 C 0.57518 0.83495 0.4016 0.0
C1902 C 0.54017 0.85023 0.41818 0.0
C1903 C 0.52724 0.83316 0.40719 0.0
C1904 C 0.53899 0.81608 0.39471 0.0
C1905 C 0.56257 0.81687 0.39212 0.0
C1906 C 0.46486 0.81602 0.40127 0.0
C1907 C 0.45385 0.83755 0.4006 0.0
C1908 C 0.48841 0.81442 0.40454 0.0
C1909 C 0.50172 0.83433 0.40694 0.0
C1910 C 0.49041 0.85574 0.40729 0.0
C1911 C 0.46694 0.8573 0.40435 0.0
H1912 H 0.63498 0.09737 0.9448 0.0
H1913 H 0.69826 0.09279 0.9082 0.0
H1914 H 0.63653 0.0562 0.95226 0.0
H1915 H 0.69923 0.05152 0.91428 0.0
H1916 H 0.69901 0.97606 0.92688 0.0
H1917 H 0.70214 0.01723 0.93405 0.0
H1918 H 0.62926 0.0236 0.93178 0.0
H1919 H 0.62626 0.98265 0.92596 0.0
C1920 C 0.64949 0.08763 0.93875 0.0
C1921 C 0.66644 0.09846 0.92583 0.0
C1922 C 0.65024 0.06385 0.94269 0.0
C1923 C 0.66767 0.05004 0.93335 0.0
C1924 C 0.68553 0.06126 0.92195 0.0
C1925 C 0.685 0.08513 0.91843 0.0
C1926 C 0.68365 0.9862 0.92854 0.0
C1927 C 0.66238 0.9759 0.92568 0.0
C1928 C 0.68543 0.00997 0.93239 0.0
C1929 C 0.666 0.02421 0.93318 0.0
C1930 C 0.64473 0.01354 0.93164 0.0
C1931 C 0.64296 0.98982 0.92814 0.0
H1932 H 0.44405 0.20912 0.39684 0.0
H1933 H 0.44849 0.1355 0.40518 0.0
H1934 H 0.48499 0.21172 0.40142 0.0
H1935 H 0.48913 0.13782 0.40839 0.0
H1936 H 0.55839 0.20348 0.37506 0.0
H1937 H 0.51784 0.20534 0.38109 0.0
H1938 H 0.52237 0.14647 0.42633 0.0
H1939 H 0.56288 0.14389 0.41906 0.0
C1940 C 0.45368 0.19351 0.39996 0.0
C1941 C 0.44279 0.17211 0.40053 0.0
C1942 C 0.47732 0.19493 0.40229 0.0
C1943 C 0.49084 0.17496 0.40495 0.0
C1944 C 0.47967 0.15373 0.40671 0.0
C1945 C 0.45611 0.15236 0.40472 0.0
C1946 C 0.55084 0.19118 0.38667 0.0
C1947 C 0.56403 0.17341 0.3964 0.0
C1948 C 0.52738 0.19228 0.39024 0.0
C1949 C 0.51633 0.17584 0.40396 0.0
C1950 C 0.52988 0.15908 0.41506 0.0
C1951 C 0.5533 0.15774 0.41115 0.0
H1952 H 0.04861 0.34732 0.93231 0.0
H1953 H 0.12072 0.35608 0.93921 0.0
H1954 H 0.0459 0.33958 0.97346 0.0
H1955 H 0.11796 0.34978 0.98006 0.0
H1956 H 0.11296 0.33708 0.05394 0.0
H1957 H 0.11279 0.32915 0.01286 0.0
H1958 H 0.04608 0.35976 0.00756 0.0
H1959 H 0.04582 0.36615 0.0488 0.0
C1960 C 0.06396 0.34718 0.94248 0.0
C1961 C 0.08485 0.35255 0.93231 0.0
C1962 C 0.06238 0.34306 0.96625 0.0
C1963 C 0.08161 0.34444 0.98056 0.0
C1964 C 0.10268 0.34824 0.96997 0.0
C1965 C 0.10428 0.35203 0.94628 0.0
C1966 C 0.09799 0.34145 0.04407 0.0
C1967 C 0.07946 0.35235 0.0547 0.0
C1968 C 0.09798 0.33721 0.02034 0.0
C1969 C 0.07968 0.34435 0.00639 0.0
C1970 C 0.0605 0.35379 0.01742 0.0
C1971 C 0.06032 0.35753 0.04124 0.0
H1972 H 0.15548 0.66886 0.96638 0.0
H1973 H 0.08575 0.69067 0.96062 0.0
H1974 H 0.15447 0.67551 0.00722 0.0
H1975 H 0.08499 0.69869 1.00187 0.0
H1976 H 0.08287 0.67408 0.07818 0.0
H1977 H 0.08288 0.67954 0.03674 0.0
H1978 H 0.15362 0.69757 0.03944 0.0
H1979 H 0.15378 0.6905 0.08068 0.0
C1980 C 0.14003 0.67577 0.97372 0.0
C1981 C 0.12063 0.67898 0.96001 0.0
C1982 C 0.13948 0.67981 0.99741 0.0
C1983 C 0.11957 0.68754 0.00835 0.0
C1984 C 0.10055 0.69227 0.99437 0.0
C1985 C 0.10104 0.68797 0.97055 0.0
C1986 C 0.09827 0.67982 0.07 0.0
C1987 C 0.11836 0.68169 0.08281 0.0
C1988 C 0.09832 0.68298 0.04605 0.0
C1989 C 0.11839 0.6885 0.03425 0.0
C1990 C 0.13796 0.6925 0.04752 0.0
C1991 C 0.13802 0.68881 0.07135 0.0
H1992 H 0.8847 0.55437 0.4293 0.0
H1993 H 0.824 0.59568 0.43431 0.0
H1994 H 0.88282 0.54625 0.47032 0.0
H1995 H 0.82276 0.58884 0.4755 0.0
H1996 H 0.82257 0.57468 0.55068 0.0
H1997 H 0.81875 0.56812 0.50941 0.0
H1998 H 0.89159 0.5661 0.50308 0.0
H1999 H 0.89524 0.5714 0.54404 0.0
C2000 C 0.87069 0.56139 0.43911 0.0
C2001 C 0.85458 0.57578 0.42848 0.0
C2002 C 0.86975 0.55701 0.46279 0.0
C2003 C 0.853 0.56737 0.47668 0.0
C2004 C 0.83591 0.58036 0.46565 0.0
C2005 C 0.83659 0.58435 0.44186 0.0
C2006 C 0.83773 0.57213 0.54054 0.0
C2007 C 0.85922 0.57378 0.55081 0.0
C2008 C 0.83557 0.56866 0.51672 0.0
C2009 C 0.85483 0.56693 0.50249 0.0
C2010 C 0.87624 0.56705 0.51315 0.0
C2011 C 0.87837 0.57026 0.53687 0.0
H2012 H 0.85876 0.33844 0.98287 0.0
H2013 H 0.9291 0.3189 0.97698 0.0
H2014 H 0.86025 0.33213 0.02383 0.0
H2015 H 0.9304 0.31132 0.01829 0.0
H2016 H 0.93201 0.33646 0.09438 0.0
H2017 H 0.93197 0.33094 0.05298 0.0
H2018 H 0.86215 0.30973 0.0561 0.0
H2019 H 0.86196 0.3167 0.09734 0.0
C2020 C 0.87447 0.33213 0.99021 0.0
C2021 C 0.89386 0.3294 0.97643 0.0
C2022 C 0.87531 0.32831 0.01395 0.0
C2023 C 0.89551 0.32129 0.02485 0.0
C2024 C 0.9146 0.31716 0.01082 0.0
C2025 C 0.91381 0.32125 0.98698 0.0
C2026 C 0.91684 0.32997 0.08633 0.0
C2027 C 0.89694 0.32719 0.09926 0.0
C2028 C 0.91677 0.3268 0.06239 0.0
C2029 C 0.89688 0.32038 0.05072 0.0
C2030 C 0.87762 0.31547 0.06411 0.0
C2031 C 0.87757 0.3191 0.08794 0.0
H2032 H 0.11476 0.43303 0.54643 0.0
H2033 H 0.18742 0.4308 0.5535 0.0
H2034 H 0.11847 0.43923 0.50568 0.0
H2035 H 0.19132 0.43852 0.51242 0.0
H2036 H 0.18784 0.41479 0.43622 0.0
H2037 H 0.18852 0.42002 0.47763 0.0
H2038 H 0.12633 0.45951 0.47347 0.0
H2039 H 0.12498 0.45265 0.43222 0.0
C2040 C 0.13164 0.43458 0.53941 0.0
C2041 C 0.15078 0.43112 0.55342 0.0
C2042 C 0.13382 0.43835 0.51577 0.0
C2043 C 0.15525 0.43922 0.50524 0.0
C2044 C 0.17448 0.43741 0.51957 0.0
C2045 C 0.17227 0.43328 0.5433 0.0
C2046 C 0.17462 0.4251 0.44409 0.0
C2047 C 0.15626 0.43314 0.4309 0.0
C2048 C 0.17498 0.42816 0.46802 0.0
C2049 C 0.15718 0.43976 0.4794 0.0
C2050 C 0.13995 0.4497 0.46572 0.0
C2051 C 0.13931 0.44611 0.44191 0.0
H2052 H 0.89518 0.67214 0.92937 0.0
H2053 H 0.96229 0.64273 0.93324 0.0
H2054 H 0.89582 0.67922 0.9706 0.0
H2055 H 0.96251 0.64841 0.97455 0.0
H2056 H 0.96059 0.6602 0.05019 0.0
H2057 H 0.96296 0.66824 0.00905 0.0
H2058 H 0.89101 0.65712 1.00281 0.0
H2059 H 0.88859 0.6504 0.04366 0.0
C2060 C 0.91028 0.6676 0.93896 0.0
C2061 C 0.92861 0.65674 0.92792 0.0
C2062 C 0.91055 0.67133 0.96277 0.0
C2063 C 0.92895 0.66382 0.97636 0.0
C2064 C 0.94802 0.65461 0.96496 0.0
C2065 C 0.94791 0.65131 0.94107 0.0
C2066 C 0.9452 0.66009 0.04009 0.0
C2067 C 0.92443 0.65447 0.05037 0.0
C2068 C 0.94658 0.66445 0.01635 0.0
C2069 C 0.92725 0.66307 1.00218 0.0
C2070 C 0.90632 0.65874 0.01284 0.0
C2071 C 0.90492 0.65468 0.0365 0.0
H2072 H 0.86037 0.41643 0.48245 0.0
H2073 H 0.78828 0.40749 0.47599 0.0
H2074 H 0.85629 0.42239 0.52329 0.0
H2075 H 0.78386 0.41483 0.51705 0.0
H2076 H 0.79001 0.39232 0.59344 0.0
H2077 H 0.78882 0.39691 0.55198 0.0
H2078 H 0.84629 0.44224 0.55545 0.0
H2079 H 0.84824 0.43626 0.59683 0.0
C2080 C 0.84347 0.41643 0.48961 0.0
C2081 C 0.82469 0.41124 0.47575 0.0
C2082 C 0.84106 0.42003 0.51329 0.0
C2083 C 0.8197 0.41894 0.52399 0.0
C2084 C 0.80069 0.41528 0.5098 0.0
C2085 C 0.80317 0.41133 0.48607 0.0
C2086 C 0.802 0.4038 0.58544 0.0
C2087 C 0.81932 0.41379 0.59855 0.0
C2088 C 0.80136 0.40646 0.56145 0.0
C2089 C 0.8178 0.41955 0.54986 0.0
C2090 C 0.83379 0.43131 0.56338 0.0
C2091 C 0.83472 0.42823 0.58729 0.0
H2092 H 0.22467 0.59407 0.58151 0.0
H2093 H 0.15227 0.58683 0.57615 0.0
H2094 H 0.22816 0.58799 0.54016 0.0
H2095 H 0.15548 0.58215 0.53509 0.0
H2096 H 0.16209 0.57204 0.46055 0.0
H2097 H 0.16447 0.564 0.50158 0.0
H2098 H 0.22272 0.60814 0.50652 0.0
H2099 H 0.22107 0.61485 0.46541 0.0
C2100 C 0.20952 0.59075 0.57164 0.0
C2101 C 0.18818 0.59112 0.58234 0.0
C2102 C 0.21146 0.5876 0.54774 0.0
C2103 C 0.19209 0.58501 0.53379 0.0
C2104 C 0.17094 0.58382 0.54487 0.0
C2105 C 0.16905 0.58664 0.56869 0.0
C2106 C 0.1758 0.57947 0.47032 0.0
C2107 C 0.19131 0.59419 0.45958 0.0
C2108 C 0.17702 0.57513 0.49403 0.0
C2109 C 0.19346 0.58583 0.50789 0.0
C2110 C 0.20987 0.59933 0.49676 0.0
C2111 C 0.20892 0.60327 0.47297 0.0
H2112 H 0.31162 0.1249 0.39896 0.0
H2113 H 0.30428 0.18773 0.36003 0.0
H2114 H 0.27251 0.11515 0.39035 0.0
H2115 H 0.26503 0.17804 0.3516 0.0
H2116 H 0.20542 0.14174 0.31785 0.0
H2117 H 0.24461 0.15013 0.32786 0.0
H2118 H 0.23304 0.12522 0.39672 0.0
H2119 H 0.19398 0.11664 0.38668 0.0
C2120 C 0.30154 0.13694 0.389 0.0
C2121 C 0.31126 0.15718 0.38028 0.0
C2122 C 0.27904 0.13127 0.38398 0.0
C2123 C 0.26558 0.14557 0.36993 0.0
C2124 C 0.27497 0.16633 0.36206 0.0
C2125 C 0.29744 0.1721 0.36724 0.0
C2126 C 0.21134 0.13752 0.33497 0.0
C2127 C 0.19639 0.12841 0.35139 0.0
C2128 C 0.23378 0.1427 0.34085 0.0
C2129 C 0.24202 0.13876 0.36326 0.0
C2130 C 0.22741 0.12851 0.3793 0.0
C2131 C 0.20494 0.1235 0.37349 0.0
H2132 H 0.41781 0.6776 0.85537 0.0
H2133 H 0.35225 0.65718 0.88038 0.0
H2134 H 0.4078 0.71783 0.86226 0.0
H2135 H 0.34253 0.69711 0.88789 0.0
H2136 H 0.32457 0.77378 0.88096 0.0
H2137 H 0.33327 0.73363 0.87255 0.0
H2138 H 0.4026 0.74428 0.89305 0.0
H2139 H 0.39401 0.78452 0.90085 0.0
C2140 C 0.40117 0.68165 0.86208 0.0
C2141 C 0.38589 0.66397 0.86724 0.0
C2142 C 0.3955 0.70478 0.86635 0.0
C2143 C 0.37439 0.71094 0.87596 0.0
C2144 C 0.35885 0.69327 0.88033 0.0
C2145 C 0.36449 0.67021 0.87602 0.0
C2146 C 0.3416 0.76751 0.88401 0.0
C2147 C 0.35853 0.78255 0.89166 0.0
C2148 C 0.34665 0.74438 0.87913 0.0
C2149 C 0.36877 0.73553 0.88181 0.0
C2150 C 0.3855 0.75043 0.89021 0.0
C2151 C 0.38048 0.77355 0.89501 0.0
H2152 H 0.70596 0.83148 0.34233 0.0
H2153 H 0.71106 0.86926 0.40572 0.0
H2154 H 0.74485 0.8398 0.33356 0.0
H2155 H 0.75106 0.87586 0.39832 0.0
H2156 H 0.81908 0.90079 0.3735 0.0
H2157 H 0.77907 0.89439 0.38089 0.0
H2158 H 0.78143 0.83492 0.3362 0.0
H2159 H 0.8204 0.84297 0.32735 0.0
C2160 C 0.71573 0.8409 0.35489 0.0
C2161 C 0.70535 0.84944 0.37488 0.0
C2162 C 0.73837 0.84571 0.34989 0.0
C2163 C 0.75187 0.85862 0.3651 0.0
C2164 C 0.74155 0.86641 0.38565 0.0
C2165 C 0.71856 0.86226 0.39023 0.0
C2166 C 0.81072 0.88677 0.36481 0.0
C2167 C 0.82288 0.87271 0.34947 0.0
C2168 C 0.78772 0.88271 0.36938 0.0
C2169 C 0.77633 0.86389 0.35942 0.0
C2170 C 0.78877 0.84999 0.34394 0.0
C2171 C 0.81144 0.85457 0.33878 0.0
H2172 H 0.60335 0.21836 0.88016 0.0
H2173 H 0.67067 0.23952 0.89874 0.0
H2174 H 0.59317 0.25765 0.87121 0.0
H2175 H 0.66006 0.27949 0.89127 0.0
H2176 H 0.64268 0.34758 0.85796 0.0
H2177 H 0.65282 0.30743 0.86439 0.0
H2178 H 0.58351 0.29333 0.88309 0.0
H2179 H 0.57334 0.33303 0.87513 0.0
C2180 C 0.6159 0.23152 0.88292 0.0
C2181 C 0.63787 0.22562 0.89033 0.0
C2182 C 0.60998 0.25432 0.87781 0.0
C2183 C 0.62566 0.27223 0.88038 0.0
C2184 C 0.64752 0.26636 0.88847 0.0
C2185 C 0.65359 0.24338 0.89312 0.0
C2186 C 0.62952 0.33572 0.86289 0.0
C2187 C 0.60712 0.34357 0.86573 0.0
C2188 C 0.63541 0.31265 0.86702 0.0
C2189 C 0.61917 0.29674 0.87464 0.0
C2190 C 0.59661 0.30461 0.8769 0.0
C2191 C 0.59067 0.32756 0.87228 0.0
H2192 H 0.30137 0.84778 0.59466 0.0
H2193 H 0.31754 0.8754 0.66147 0.0
H2194 H 0.26108 0.85306 0.60284 0.0
H2195 H 0.27742 0.88066 0.66956 0.0
H2196 H 0.20586 0.91478 0.66106 0.0
H2197 H 0.24614 0.90574 0.65681 0.0
H2198 H 0.22941 0.84029 0.62675 0.0
H2199 H 0.18935 0.84924 0.63094 0.0
C2200 C 0.29639 0.8546 0.61123 0.0
C2201 C 0.31291 0.86114 0.62733 0.0
C2202 C 0.27322 0.85765 0.61596 0.0
C2203 C 0.26585 0.86751 0.63683 0.0
C2204 C 0.28235 0.87337 0.65317 0.0
C2205 C 0.30546 0.87013 0.64856 0.0
C2206 C 0.21074 0.89829 0.65394 0.0
C2207 C 0.19415 0.88282 0.64638 0.0
C2208 C 0.23391 0.89307 0.65147 0.0
C2209 C 0.24118 0.87232 0.64119 0.0
C2210 C 0.22457 0.85657 0.63438 0.0
C2211 C 0.20149 0.86167 0.63702 0.0
H2212 H 0.66078 0.68517 0.15445 0.0
H2213 H 0.59073 0.70016 0.13977 0.0
H2214 H 0.6702 0.72535 0.14777 0.0
H2215 H 0.60009 0.73961 0.13128 0.0
H2216 H 0.6172 0.81422 0.13261 0.0
H2217 H 0.60879 0.77497 0.1422 0.0
H2218 H 0.67668 0.75465 0.12269 0.0
H2219 H 0.68556 0.7949 0.11487 0.0
C2220 C 0.64733 0.69711 0.14998 0.0
C2221 C 0.62491 0.6894 0.14806 0.0
C2222 C 0.65278 0.72023 0.1457 0.0
C2223 C 0.63607 0.73629 0.13876 0.0
C2224 C 0.61359 0.72839 0.13711 0.0
C2225 C 0.60809 0.7055 0.14198 0.0
C2226 C 0.63037 0.80141 0.13011 0.0
C2227 C 0.65205 0.80787 0.12268 0.0
C2228 C 0.62546 0.77856 0.13555 0.0
C2229 C 0.64184 0.76098 0.13315 0.0
C2230 C 0.66354 0.76742 0.12527 0.0
C2231 C 0.66864 0.79057 0.12042 0.0
H2232 H 0.81712 0.15049 0.62575 0.0
H2233 H 0.80129 0.08258 0.65072 0.0
H2234 H 0.77696 0.15885 0.62091 0.0
H2235 H 0.76086 0.09126 0.64621 0.0
H2236 H 0.68956 0.12352 0.65389 0.0
H2237 H 0.72973 0.11788 0.66162 0.0
H2238 H 0.74569 0.14438 0.59437 0.0
H2239 H 0.70526 0.14968 0.58631 0.0
C2240 C 0.80511 0.13741 0.63063 0.0
C2241 C 0.81265 0.11579 0.63872 0.0
C2242 C 0.782 0.14221 0.62761 0.0
C2243 C 0.76562 0.12572 0.63297 0.0
C2244 C 0.77301 0.10442 0.64197 0.0
C2245 C 0.79622 0.09944 0.64462 0.0
C2246 C 0.70155 0.12847 0.64075 0.0
C2247 C 0.69397 0.13713 0.6194 0.0
C2248 C 0.72465 0.12501 0.64519 0.0
C2249 C 0.741 0.13048 0.6286 0.0
C2250 C 0.73357 0.14004 0.6076 0.0
C2251 C 0.71036 0.14313 0.60297 0.0
H2252 H 0.39634 0.19269 0.11809 0.0
H2253 H 0.32625 0.21039 0.10653 0.0
H2254 H 0.40449 0.23204 0.12741 0.0
H2255 H 0.33471 0.25072 0.11407 0.0
H2256 H 0.35081 0.31924 0.14749 0.0
H2257 H 0.3422 0.27903 0.13994 0.0
H2258 H 0.41107 0.26811 0.117 0.0
H2259 H 0.4198 0.3075 0.12635 0.0
C2260 C 0.3827 0.20517 0.1168 0.0
C2261 C 0.36061 0.19819 0.11133 0.0
C2262 C 0.38743 0.22807 0.12213 0.0
C2263 C 0.3704 0.24516 0.12157 0.0
C2264 C 0.34836 0.23828 0.11529 0.0
C2265 C 0.34348 0.2151 0.11054 0.0
C2266 C 0.3642 0.308 0.1414 0.0
C2267 C 0.38611 0.3166 0.13793 0.0
C2268 C 0.35919 0.2849 0.13662 0.0
C2269 C 0.37578 0.2698 0.12761 0.0
C2270 C 0.39775 0.27858 0.12441 0.0
C2271 C 0.40288 0.30142 0.12978 0.0
H2272 H 0.13451 0.37201 0.18114 0.0
H2273 H 0.06503 0.39093 0.19435 0.0
H2274 H 0.14399 0.37984 0.2211 0.0
H2275 H 0.07459 0.40011 0.23383 0.0
H2276 H 0.09355 0.39713 0.30926 0.0
H2277 H 0.08369 0.38831 0.26996 0.0
H2278 H 0.15059 0.40816 0.24802 0.0
H2279 H 0.16088 0.41565 0.28794 0.0
C2280 C 0.12118 0.37764 0.19264 0.0
C2281 C 0.09893 0.38057 0.18447 0.0
C2282 C 0.12669 0.38256 0.21559 0.0
C2283 C 0.11022 0.39099 0.23103 0.0
C2284 C 0.08783 0.39335 0.22287 0.0
C2285 C 0.08226 0.38803 0.20006 0.0
C2286 C 0.10615 0.39995 0.29608 0.0
C2287 C 0.12807 0.40718 0.30196 0.0
C2288 C 0.10042 0.39489 0.27329 0.0
C2289 C 0.11628 0.39727 0.2554 0.0
C2290 C 0.13797 0.40548 0.26118 0.0
C2291 C 0.14383 0.41017 0.28413 0.0
H2292 H 0.20104 0.63387 0.72119 0.0
H2293 H 0.13172 0.61386 0.71042 0.0
H2294 H 0.19251 0.64255 0.76127 0.0
H2295 H 0.12331 0.62197 0.75058 0.0
H2296 H 0.10806 0.66052 0.81671 0.0
H2297 H 0.11798 0.65309 0.77664 0.0
H2298 H 0.18352 0.62768 0.79803 0.0
H2299 H 0.17386 0.63568 0.83785 0.0
C2300 C 0.18408 0.63085 0.72744 0.0
C2301 C 0.16712 0.62309 0.71238 0.0
C2302 C 0.17913 0.63589 0.75054 0.0
C2303 C 0.15708 0.6333 0.75936 0.0
C2304 C 0.14035 0.62476 0.74446 0.0
C2305 C 0.14528 0.61978 0.72138 0.0
C2306 C 0.12474 0.65373 0.81286 0.0
C2307 C 0.14011 0.64879 0.8307 0.0
C2308 C 0.13036 0.64915 0.78981 0.0
C2309 C 0.15152 0.63944 0.78387 0.0
C2310 C 0.16715 0.63529 0.80169 0.0
C2311 C 0.16155 0.63989 0.82469 0.0
H2312 H 0.94177 0.61633 0.19017 0.0
H2313 H 0.87425 0.64289 0.17956 0.0
H2314 H 0.93271 0.60775 0.22982 0.0
H2315 H 0.86544 0.63587 0.21986 0.0
H2316 H 0.84727 0.60165 0.28742 0.0
H2317 H 0.85654 0.60908 0.24721 0.0
H2318 H 0.92651 0.61896 0.26624 0.0
H2319 H 0.91746 0.60994 0.30565 0.0
C2320 C 0.92517 0.6211 0.19653 0.0
C2321 C 0.90883 0.63049 0.1816 0.0
C2322 C 0.91987 0.61614 0.21948 0.0
C2323 C 0.89817 0.62089 0.2285 0.0
C2324 C 0.88214 0.63129 0.21371 0.0
C2325 C 0.88731 0.63576 0.19058 0.0
C2326 C 0.8647 0.60492 0.28285 0.0
C2327 C 0.88159 0.6049 0.29986 0.0
C2328 C 0.87004 0.60959 0.25975 0.0
C2329 C 0.89237 0.61491 0.25305 0.0
C2330 C 0.90922 0.61454 0.27019 0.0
C2331 C 0.90397 0.60937 0.29307 0.0
H2332 H 0.84348 0.34476 0.84807 0.0
H2333 H 0.91256 0.36372 0.83479 0.0
H2334 H 0.83388 0.35224 0.80802 0.0
H2335 H 0.90289 0.37287 0.79535 0.0
H2336 H 0.88489 0.37308 0.72011 0.0
H2337 H 0.89453 0.36295 0.75918 0.0
H2338 H 0.82609 0.37894 0.78044 0.0
H2339 H 0.81612 0.38743 0.74058 0.0
C2340 C 0.8567 0.35032 0.83651 0.0
C2341 C 0.87888 0.3533 0.84469 0.0
C2342 C 0.85112 0.35507 0.81349 0.0
C2343 C 0.86742 0.36355 0.79797 0.0
C2344 C 0.88975 0.36601 0.80621 0.0
C2345 C 0.89541 0.36071 0.82906 0.0
C2346 C 0.87188 0.37471 0.73313 0.0
C2347 C 0.8497 0.38127 0.72705 0.0
C2348 C 0.87748 0.36891 0.75582 0.0
C2349 C 0.86124 0.36998 0.77354 0.0
C2350 C 0.83912 0.37726 0.76751 0.0
C2351 C 0.83339 0.38253 0.74459 0.0
H2352 H 0.6868 0.88087 0.66245 0.0
H2353 H 0.70552 0.84135 0.60252 0.0
H2354 H 0.72661 0.88694 0.67123 0.0
H2355 H 0.74556 0.84716 0.61168 0.0
H2356 H 0.81498 0.84528 0.6474 0.0
H2357 H 0.77491 0.83725 0.6426 0.0
H2358 H 0.75912 0.90903 0.65259 0.0
H2359 H 0.79947 0.91731 0.657 0.0
C2360 C 0.69937 0.87312 0.65129 0.0
C2361 C 0.69277 0.86052 0.63173 0.0
C2362 C 0.72226 0.87681 0.65629 0.0
C2363 C 0.73933 0.86768 0.64214 0.0
C2364 C 0.73284 0.85437 0.62303 0.0
C2365 C 0.70987 0.85101 0.61777 0.0
C2366 C 0.80304 0.85941 0.64899 0.0
C2367 C 0.81068 0.88204 0.65263 0.0
C2368 C 0.78 0.85476 0.64598 0.0
C2369 C 0.76376 0.87248 0.64693 0.0
C2370 C 0.77117 0.89493 0.65178 0.0
C2371 C 0.79434 0.89969 0.6544 0.0
H2372 H 0.61627 0.18754 0.10111 0.0
H2373 H 0.684 0.1999 0.12558 0.0
H2374 H 0.60662 0.22784 0.10719 0.0
H2375 H 0.6742 0.24017 0.13217 0.0
H2376 H 0.65423 0.31626 0.12232 0.0
H2377 H 0.66513 0.27645 0.11541 0.0
H2378 H 0.59904 0.25447 0.13747 0.0
H2379 H 0.58793 0.29446 0.14386 0.0
C2380 C 0.62924 0.19888 0.10755 0.0
C2381 C 0.65099 0.19028 0.11275 0.0
C2382 C 0.62358 0.22204 0.11135 0.0
C2383 C 0.63946 0.23744 0.12054 0.0
C2384 C 0.66148 0.22902 0.12496 0.0
C2385 C 0.66715 0.20582 0.12112 0.0
C2386 C 0.64203 0.30297 0.12596 0.0
C2387 C 0.62013 0.30877 0.1337 0.0
C2388 C 0.64835 0.27999 0.122 0.0
C2389 C 0.63298 0.262 0.12564 0.0
C2390 C 0.61126 0.26776 0.13399 0.0
C2391 C 0.60493 0.29077 0.13794 0.0
H2392 H 0.19219 0.15239 0.65155 0.0
H2393 H 0.20253 0.08496 0.62235 0.0
H2394 H 0.23211 0.16126 0.6448 0.0
H2395 H 0.2422 0.09411 0.6151 0.0
H2396 H 0.30156 0.13092 0.57866 0.0
H2397 H 0.26171 0.12422 0.58761 0.0
H2398 H 0.27291 0.14635 0.65735 0.0
H2399 H 0.31296 0.15251 0.64862 0.0
C2400 C 0.20303 0.13931 0.64405 0.0
C2401 C 0.19408 0.11788 0.63767 0.0
C2402 C 0.2259 0.14446 0.64009 0.0
C2403 C 0.24027 0.12852 0.62911 0.0
C2404 C 0.23151 0.10687 0.62333 0.0
C2405 C 0.2088 0.10153 0.62777 0.0
C2406 C 0.29547 0.13488 0.59577 0.0
C2407 C 0.31054 0.1424 0.61287 0.0
C2408 C 0.27267 0.13074 0.60098 0.0
C2409 C 0.26418 0.13448 0.62327 0.0
C2410 C 0.2789 0.14326 0.64003 0.0
C2411 C 0.30184 0.1469 0.63497 0.0
H2412 H 0.33066 0.80099 0.10047 0.0
H2413 H 0.39965 0.8209 0.11305 0.0
H2414 H 0.34161 0.76065 0.10495 0.0
H2415 H 0.41023 0.78148 0.11956 0.0
H2416 H 0.43056 0.70732 0.1157 0.0
H2417 H 0.41924 0.74658 0.10771 0.0
H2418 H 0.35069 0.7307 0.12803 0.0
H2419 H 0.36201 0.69074 0.13394 0.0
C2420 C 0.34818 0.79677 0.10408 0.0
C2421 C 0.36426 0.81432 0.10607 0.0
C2422 C 0.3545 0.77354 0.10707 0.0
C2423 C 0.37698 0.76721 0.11281 0.0
C2424 C 0.39293 0.78499 0.11458 0.0
C2425 C 0.38677 0.80796 0.11093 0.0
C2426 C 0.41312 0.7123 0.11871 0.0
C2427 C 0.39728 0.6959 0.12573 0.0
C2428 C 0.40649 0.73505 0.11419 0.0
C2429 C 0.38387 0.74248 0.11727 0.0
C2430 C 0.36814 0.72599 0.12487 0.0
C2431 C 0.37468 0.703 0.12868 0.0
H2432 H 0.69519 0.17935 0.33914 0.0
H2433 H 0.69975 0.13449 0.39799 0.0
H2434 H 0.73436 0.17174 0.33013 0.0
H2435 H 0.73988 0.12824 0.39032 0.0
H2436 H 0.80792 0.10487 0.36277 0.0
H2437 H 0.76773 0.11095 0.37016 0.0
H2438 H 0.77105 0.17644 0.335 0.0
H2439 H 0.81032 0.1692 0.3261 0.0
C2440 C 0.70483 0.16843 0.3507 0.0
C2441 C 0.69422 0.15776 0.36947 0.0
C2442 C 0.72761 0.16401 0.34554 0.0
C2443 C 0.74097 0.14925 0.35936 0.0
C2444 C 0.73044 0.13924 0.37873 0.0
C2445 C 0.70737 0.14315 0.38348 0.0
C2446 C 0.7998 0.12025 0.35611 0.0
C2447 C 0.81238 0.13632 0.34348 0.0
C2448 C 0.77669 0.12405 0.36072 0.0
C2449 C 0.76554 0.1444 0.35348 0.0
C2450 C 0.7783 0.16026 0.34057 0.0
C2451 C 0.80113 0.15612 0.3354 0.0
H2452 H 0.34799 0.28603 0.8577 0.0
H2453 H 0.41687 0.27489 0.87972 0.0
H2454 H 0.33972 0.24567 0.86499 0.0
H2455 H 0.40845 0.23519 0.88852 0.0
H2456 H 0.39431 0.15944 0.8842 0.0
H2457 H 0.40217 0.19921 0.87611 0.0
H2458 H 0.33265 0.21713 0.89139 0.0
H2459 H 0.32446 0.17654 0.89797 0.0
C2460 C 0.36142 0.27493 0.864 0.0
C2461 C 0.3832 0.28374 0.86779 0.0
C2462 C 0.3566 0.25174 0.86856 0.0
C2463 C 0.37328 0.23672 0.87755 0.0
C2464 C 0.39511 0.24569 0.88115 0.0
C2465 C 0.40002 0.26868 0.87611 0.0
C2466 C 0.38065 0.17181 0.88613 0.0
C2467 C 0.3587 0.16457 0.89188 0.0
C2468 C 0.38523 0.19492 0.88154 0.0
C2469 C 0.36816 0.2119 0.883 0.0
C2470 C 0.34628 0.20475 0.88952 0.0
C2471 C 0.34158 0.18141 0.89368 0.0
H2472 H 0.21133 0.86268 0.33088 0.0
H2473 H 0.20553 0.89733 0.39621 0.0
H2474 H 0.25115 0.85454 0.33873 0.0
H2475 H 0.2452 0.88889 0.40419 0.0
H2476 H 0.31413 0.82105 0.36936 0.0
H2477 H 0.27415 0.83007 0.36336 0.0
H2478 H 0.28376 0.89687 0.39386 0.0
H2479 H 0.32355 0.88774 0.4002 0.0
C2480 C 0.21858 0.86892 0.34676 0.0
C2481 C 0.20504 0.88077 0.36283 0.0
C2482 C 0.24141 0.86392 0.35144 0.0
C2483 C 0.25148 0.87069 0.3723 0.0
C2484 C 0.23819 0.88342 0.38792 0.0
C2485 C 0.21534 0.88833 0.38329 0.0
C2486 C 0.30765 0.83746 0.37529 0.0
C2487 C 0.32224 0.85359 0.38534 0.0
C2488 C 0.28471 0.8428 0.3715 0.0
C2489 C 0.27563 0.8644 0.37774 0.0
C2490 C 0.28998 0.88005 0.38885 0.0
C2491 C 0.31291 0.87476 0.39254 0.0
H2492 H 0.66268 0.71895 0.88633 0.0
H2493 H 0.5941 0.73786 0.86859 0.0
H2494 H 0.67115 0.75894 0.89433 0.0
H2495 H 0.6028 0.77812 0.87577 0.0
H2496 H 0.68465 0.83643 0.8876 0.0
H2497 H 0.67742 0.796 0.87993 0.0
H2498 H 0.60938 0.80426 0.90585 0.0
H2499 H 0.61641 0.84482 0.91273 0.0
C2500 C 0.64947 0.73169 0.88365 0.0
C2501 C 0.62764 0.725 0.87678 0.0
C2502 C 0.65438 0.75478 0.88825 0.0
C2503 C 0.63767 0.77202 0.886 0.0
C2504 C 0.61604 0.76541 0.87829 0.0
C2505 C 0.61109 0.74226 0.87384 0.0
C2506 C 0.66827 0.82955 0.89207 0.0
C2507 C 0.65116 0.84404 0.90083 0.0
C2508 C 0.66406 0.80625 0.8876 0.0
C2509 C 0.64264 0.79666 0.89189 0.0
C2510 C 0.62589 0.81097 0.90168 0.0
C2511 C 0.63005 0.83427 0.90598 0.0
H2512 H 0.87359 0.63346 0.80195 0.0
H2513 H 0.94221 0.61041 0.79057 0.0
H2514 H 0.86479 0.6265 0.76165 0.0
H2515 H 0.93324 0.60218 0.75072 0.0
H2516 H 0.91708 0.60854 0.67486 0.0
H2517 H 0.92603 0.61586 0.71469 0.0
H2518 H 0.8575 0.599 0.73384 0.0
H2519 H 0.84821 0.59296 0.69339 0.0
C2520 C 0.88686 0.62701 0.79081 0.0
C2521 C 0.90869 0.62273 0.79955 0.0
C2522 C 0.88172 0.62266 0.76766 0.0
C2523 C 0.89816 0.61349 0.75259 0.0
C2524 C 0.9201 0.60957 0.76139 0.0
C2525 C 0.92532 0.61431 0.78441 0.0
C2526 C 0.9039 0.60607 0.68753 0.0
C2527 C 0.88187 0.60007 0.68073 0.0
C2528 C 0.9091 0.61025 0.71061 0.0
C2529 C 0.89256 0.6082 0.72789 0.0
C2530 C 0.87068 0.60133 0.72117 0.0
C2531 C 0.86536 0.5975 0.69792 0.0
H2532 H 0.80992 0.37175 0.33525 0.0
H2533 H 0.87561 0.40196 0.34532 0.0
H2534 H 0.8192 0.36462 0.29494 0.0
H2535 H 0.8847 0.39521 0.30511 0.0
H2536 H 0.90532 0.35653 0.24049 0.0
H2537 H 0.89413 0.36375 0.28021 0.0
H2538 H 0.82647 0.38077 0.25761 0.0
H2539 H 0.83754 0.37312 0.21798 0.0
C2540 C 0.82613 0.37738 0.3288 0.0
C2541 C 0.84195 0.38746 0.34373 0.0
C2542 C 0.83152 0.3732 0.30561 0.0
C2543 C 0.85291 0.37894 0.29666 0.0
C2544 C 0.86829 0.38998 0.31138 0.0
C2545 C 0.86291 0.39416 0.33448 0.0
C2546 C 0.88797 0.36151 0.24397 0.0
C2547 C 0.8724 0.36419 0.22585 0.0
C2548 C 0.88158 0.36594 0.26682 0.0
C2549 C 0.8594 0.37319 0.2723 0.0
C2550 C 0.84365 0.37513 0.25423 0.0
C2551 C 0.85005 0.37074 0.2314 0.0
H2552 H 0.13818 0.37675 0.80681 0.0
H2553 H 0.06861 0.39517 0.79347 0.0
H2554 H 0.14723 0.38271 0.76637 0.0
H2555 H 0.07772 0.40278 0.75361 0.0
H2556 H 0.09415 0.39627 0.67847 0.0
H2557 H 0.08558 0.38939 0.71835 0.0
H2558 H 0.15388 0.40796 0.73688 0.0
H2559 H 0.16288 0.4132 0.69623 0.0
C2560 C 0.12477 0.38199 0.79519 0.0
C2561 C 0.10259 0.38514 0.80339 0.0
C2562 C 0.13002 0.3858 0.77194 0.0
C2563 C 0.11334 0.39342 0.75626 0.0
C2564 C 0.09111 0.39642 0.76465 0.0
C2565 C 0.08578 0.39207 0.78771 0.0
C2566 C 0.10738 0.39915 0.69099 0.0
C2567 C 0.12925 0.40541 0.68395 0.0
C2568 C 0.10238 0.39528 0.71416 0.0
C2569 C 0.11891 0.39805 0.73137 0.0
C2570 C 0.14068 0.40508 0.72436 0.0
C2571 C 0.14584 0.40846 0.70097 0.0
H2572 H 0.20193 0.63759 0.32095 0.0
H2573 H 0.13521 0.60963 0.33053 0.0
H2574 H 0.19299 0.64571 0.28082 0.0
H2575 H 0.12646 0.6172 0.29032 0.0
H2576 H 0.10772 0.65558 0.22482 0.0
H2577 H 0.11801 0.64816 0.2648 0.0
H2578 H 0.18598 0.63061 0.24366 0.0
H2579 H 0.17587 0.63862 0.20391 0.0
C2580 C 0.18552 0.63268 0.31442 0.0
C2581 C 0.16936 0.62289 0.32917 0.0
C2582 C 0.18033 0.6374 0.29129 0.0
C2583 C 0.15883 0.63245 0.28215 0.0
C2584 C 0.143 0.62182 0.29671 0.0
C2585 C 0.14816 0.61715 0.31981 0.0
C2586 C 0.12496 0.6505 0.22872 0.0
C2587 C 0.14091 0.64779 0.21096 0.0
C2588 C 0.13083 0.64592 0.25171 0.0
C2589 C 0.15283 0.63844 0.25768 0.0
C2590 C 0.16894 0.63647 0.23996 0.0
C2591 C 0.16309 0.64107 0.21702 0.0
loop_
_geom_bond_atom_site_label_1
_geom_bond_atom_site_label_2
_geom_bond_distance
_geom_bond_site_symmetry_2
_ccdc_geom_bond_type
Zn0 O3 2.031 . S
Zn0 O5 2.049 . S
Zn0 O10 2.067 . S
Zn1 O2 1.962 . S
Zn1 O4 1.986 . S
Zn1 O6 1.996 . S
Zn1 O9 1.943 . S
O2 Zn1 1.962 . S
O2 C7 1.254 . S
O3 Zn0 2.031 . S
O3 C7 1.269 . S
O4 Zn1 1.986 . S
O4 C11 1.262 . S
O5 Zn0 2.049 . S
O5 C13 1.260 . S
O6 Zn1 1.996 . S
O6 C13 1.257 . S
C7 O2 1.254 . S
C7 O3 1.269 . S
C8 O9 1.249 . S
C8 O10 1.270 . S
O9 Zn1 1.943 . S
O9 C8 1.249 . S
O10 Zn0 2.067 . S
O10 C8 1.270 . S
C11 O4 1.262 . S
C11 O12 1.232 . S
O12 C11 1.232 . S
C13 O5 1.260 . S
C13 O6 1.257 . S
Zn14 O17 2.031 . S
Zn14 O19 2.049 . S
Zn14 O24 2.067 . S
Zn15 O16 1.962 . S
Zn15 O18 1.986 . S
Zn15 O20 1.996 . S
Zn15 O23 1.943 . S
O16 Zn15 1.962 . S
O16 C21 1.254 . S
O17 Zn14 2.031 . S
O17 C21 1.269 . S
O18 Zn15 1.986 . S
O18 C25 1.262 . S
O19 Zn14 2.049 . S
O19 C27 1.260 . S
O20 Zn15 1.996 . S
O20 C27 1.257 . S
C21 O16 1.254 . S
C21 O17 1.269 . S
C22 O23 1.249 . S
C22 O24 1.270 . S
O23 Zn15 1.943 . S
O23 C22 1.249 . S
O24 Zn14 2.067 . S
O24 C22 1.270 . S
C25 O18 1.262 . S
C25 O26 1.232 . S
O26 C25 1.232 . S
C27 O19 1.260 . S
C27 O20 1.257 . S
Zn28 O31 2.031 . S
Zn28 O33 2.049 . S
Zn28 O38 2.067 . S
Zn29 O30 1.962 . S
Zn29 O32 1.986 . S
Zn29 O34 1.996 . S
Zn29 O37 1.943 . S
O30 Zn29 1.962 . S
O30 C35 1.254 . S
O31 Zn28 2.031 . S
O31 C35 1.269 . S
O32 Zn29 1.986 . S
O32 C39 1.262 . S
O33 Zn28 2.049 . S
O33 C41 1.260 . S
O34 Zn29 1.996 . S
O34 C41 1.257 . S
C35 O30 1.254 . S
C35 O31 1.269 . S
C36 O37 1.249 . S
C36 O38 1.270 . S
O37 Zn29 1.943 . S
O37 C36 1.249 . S
O38 Zn28 2.067 . S
O38 C36 1.270 . S
C39 O32 1.262 . S
C39 O40 1.232 . S
O40 C39 1.232 . S
C41 O33 1.260 . S
C41 O34 1.257 . S
Zn42 O45 2.031 . S
Zn42 O47 2.049 . S
Zn42 O52 2.067 . S
Zn43 O44 1.962 . S
Zn43 O46 1.986 . S
Zn43 O48 1.996 . S
Zn43 O51 1.943 . S
O44 Zn43 1.962 . S
O44 C49 1.254 . S
O45 Zn42 2.031 . S
O45 C49 1.269 . S
O46 Zn43 1.986 . S
O46 C53 1.262 . S
O47 Zn42 2.049 . S
O47 C55 1.260 . S
O48 Zn43 1.996 . S
O48 C55 1.257 . S
C49 O44 1.254 . S
C49 O45 1.269 . S
C50 O51 1.249 . S
C50 O52 1.270 . S
O51 Zn43 1.943 . S
O51 C50 1.249 . S
O52 Zn42 2.067 . S
O52 C50 1.270 . S
C53 O46 1.262 . S
C53 O54 1.232 . S
O54 C53 1.232 . S
C55 O47 1.260 . S
C55 O48 1.257 . S
Zn56 O59 2.031 . S
Zn56 O61 2.049 . S
Zn56 O66 2.067 . S
Zn57 O58 1.962 . S
Zn57 O60 1.986 . S
Zn57 O62 1.996 . S
Zn57 O65 1.943 . S
O58 Zn57 1.962 . S
O58 C63 1.254 . S
O59 Zn56 2.031 . S
O59 C63 1.269 . S
O60 Zn57 1.986 . S
O60 C67 1.262 . S
O61 Zn56 2.049 . S
O61 C69 1.260 . S
O62 Zn57 1.996 . S
O62 C69 1.257 . S
C63 O58 1.254 . S
C63 O59 1.269 . S
C64 O65 1.249 . S
C64 O66 1.270 . S
O65 Zn57 1.943 . S
O65 C64 1.249 . S
O66 Zn56 2.067 . S
O66 C64 1.270 . S
C67 O60 1.262 . S
C67 O68 1.232 . S
O68 C67 1.232 . S
C69 O61 1.260 . S
C69 O62 1.257 . S
Zn70 O73 2.031 . S
Zn70 O75 2.049 . S
Zn70 O80 2.067 . S
Zn71 O72 1.962 . S
Zn71 O74 1.986 . S
Zn71 O76 1.996 . S
Zn71 O79 1.943 . S
O72 Zn71 1.962 . S
O72 C77 1.254 . S
O73 Zn70 2.031 . S
O73 C77 1.269 . S
O74 Zn71 1.986 . S
O74 C81 1.262 . S
O75 Zn70 2.049 . S
O75 C83 1.260 . S
O76 Zn71 1.996 . S
O76 C83 1.257 . S
C77 O72 1.254 . S
C77 O73 1.269 . S
C78 O79 1.249 . S
C78 O80 1.270 . S
O79 Zn71 1.943 . S
O79 C78 1.249 . S
O80 Zn70 2.067 . S
O80 C78 1.270 . S
C81 O74 1.262 . S
C81 O82 1.232 . S
O82 C81 1.232 . S
C83 O75 1.260 . S
C83 O76 1.257 . S
Zn84 O87 2.031 . S
Zn84 O89 2.049 . S
Zn84 O94 2.067 . S
Zn85 O86 1.962 . S
Zn85 O88 1.986 . S
Zn85 O90 1.996 . S
Zn85 O93 1.943 . S
O86 Zn85 1.962 . S
O86 C91 1.254 . S
O87 Zn84 2.031 . S
O87 C91 1.269 . S
O88 Zn85 1.986 . S
O88 C95 1.262 . S
O89 Zn84 2.049 . S
O89 C97 1.260 . S
O90 Zn85 1.996 . S
O90 C97 1.257 . S
C91 O86 1.254 . S
C91 O87 1.269 . S
C92 O93 1.249 . S
C92 O94 1.270 . S
O93 Zn85 1.943 . S
O93 C92 1.249 . S
O94 Zn84 2.067 . S
O94 C92 1.270 . S
C95 O88 1.262 . S
C95 O96 1.232 . S
O96 C95 1.232 . S
C97 O89 1.260 . S
C97 O90 1.257 . S
Zn98 O101 2.031 . S
Zn98 O103 2.049 . S
Zn98 O108 2.067 . S
Zn99 O100 1.962 . S
Zn99 O102 1.986 . S
Zn99 O104 1.996 . S
Zn99 O107 1.943 . S
O100 Zn99 1.962 . S
O100 C105 1.254 . S
O101 Zn98 2.031 . S
O101 C105 1.269 . S
O102 Zn99 1.986 . S
O102 C109 1.262 . S
O103 Zn98 2.049 . S
O103 C111 1.260 . S
O104 Zn99 1.996 . S
O104 C111 1.257 . S
C105 O100 1.254 . S
C105 O101 1.269 . S
C106 O107 1.249 . S
C106 O108 1.270 . S
O107 Zn99 1.943 . S
O107 C106 1.249 . S
O108 Zn98 2.067 . S
O108 C106 1.270 . S
C109 O102 1.262 . S
C109 O110 1.232 . S
O110 C109 1.232 . S
C111 O103 1.260 . S
C111 O104 1.257 . S
Zn112 O115 2.031 . S
Zn112 O117 2.049 . S
Zn112 O122 2.067 . S
Zn113 O114 1.962 . S
Zn113 O116 1.986 . S
Zn113 O118 1.996 . S
Zn113 O121 1.943 . S
O114 Zn113 1.962 . S
O114 C119 1.254 . S
O115 Zn112 2.031 . S
O115 C119 1.269 . S
O116 Zn113 1.986 . S
O116 C123 1.262 . S
O117 Zn112 2.049 . S
O117 C125 1.260 . S
O118 Zn113 1.996 . S
O118 C125 1.257 . S
C119 O114 1.254 . S
C119 O115 1.269 . S
C120 O121 1.249 . S
C120 O122 1.270 . S
O121 Zn113 1.943 . S
O121 C120 1.249 . S
O122 Zn112 2.067 . S
O122 C120 1.270 . S
C123 O116 1.262 . S
C123 O124 1.232 . S
O124 C123 1.232 . S
C125 O117 1.260 . S
C125 O118 1.257 . S
Zn126 O129 2.031 . S
Zn126 O131 2.049 . S
Zn126 O136 2.067 . S
Zn127 O128 1.962 . S
Zn127 O130 1.986 . S
Zn127 O132 1.996 . S
Zn127 O135 1.943 . S
O128 Zn127 1.962 . S
O128 C133 1.254 . S
O129 Zn126 2.031 . S
O129 C133 1.269 . S
O130 Zn127 1.986 . S
O130 C137 1.262 . S
O131 Zn126 2.049 . S
O131 C139 1.260 . S
O132 Zn127 1.996 . S
O132 C139 1.257 . S
C133 O128 1.254 . S
C133 O129 1.269 . S
C134 O135 1.249 . S
C134 O136 1.270 . S
O135 Zn127 1.943 . S
O135 C134 1.249 . S
O136 Zn126 2.067 . S
O136 C134 1.270 . S
C137 O130 1.262 . S
C137 O138 1.232 . S
O138 C137 1.232 . S
C139 O131 1.260 . S
C139 O132 1.257 . S
Zn140 O143 2.031 . S
Zn140 O145 2.049 . S
Zn140 O150 2.067 . S
Zn141 O142 1.962 . S
Zn141 O144 1.986 . S
Zn141 O146 1.996 . S
Zn141 O149 1.943 . S
O142 Zn141 1.962 . S
O142 C147 1.254 . S
O143 Zn140 2.031 . S
O143 C147 1.269 . S
O144 Zn141 1.986 . S
O144 C151 1.262 . S
O145 Zn140 2.049 . S
O145 C153 1.260 . S
O146 Zn141 1.996 . S
O146 C153 1.257 . S
C147 O142 1.254 . S
C147 O143 1.269 . S
C148 O149 1.249 . S
C148 O150 1.270 . S
O149 Zn141 1.943 . S
O149 C148 1.249 . S
O150 Zn140 2.067 . S
O150 C148 1.270 . S
C151 O144 1.262 . S
C151 O152 1.232 . S
O152 C151 1.232 . S
C153 O145 1.260 . S
C153 O146 1.257 . S
Zn154 O157 2.031 . S
Zn154 O159 2.049 . S
Zn154 O164 2.067 . S
Zn155 O156 1.962 . S
Zn155 O158 1.986 . S
Zn155 O160 1.996 . S
Zn155 O163 1.943 . S
O156 Zn155 1.962 . S
O156 C161 1.254 . S
O157 Zn154 2.031 . S
O157 C161 1.269 . S
O158 Zn155 1.986 . S
O158 C165 1.262 . S
O159 Zn154 2.049 . S
O159 C167 1.260 . S
O160 Zn155 1.996 . S
O160 C167 1.257 . S
C161 O156 1.254 . S
C161 O157 1.269 . S
C162 O163 1.249 . S
C162 O164 1.270 . S
O163 Zn155 1.943 . S
O163 C162 1.249 . S
O164 Zn154 2.067 . S
O164 C162 1.270 . S
C165 O158 1.262 . S
C165 O166 1.232 . S
O166 C165 1.232 . S
C167 O159 1.260 . S
C167 O160 1.257 . S
Zn168 O171 2.031 . S
Zn168 O173 2.049 . S
Zn168 O178 2.067 . S
Zn169 O170 1.962 . S
Zn169 O172 1.986 . S
Zn169 O174 1.996 . S
Zn169 O177 1.943 . S
O170 Zn169 1.962 . S
O170 C175 1.254 . S
O171 Zn168 2.031 . S
O171 C175 1.269 . S
O172 Zn169 1.986 . S
O172 C179 1.262 . S
O173 Zn168 2.049 . S
O173 C181 1.260 . S
O174 Zn169 1.996 . S
O174 C181 1.257 . S
C175 O170 1.254 . S
C175 O171 1.269 . S
C176 O177 1.249 . S
C176 O178 1.270 . S
O177 Zn169 1.943 . S
O177 C176 1.249 . S
O178 Zn168 2.067 . S
O178 C176 1.270 . S
C179 O172 1.262 . S
C179 O180 1.232 . S
O180 C179 1.232 . S
C181 O173 1.260 . S
C181 O174 1.257 . S
Zn182 O185 2.031 . S
Zn182 O187 2.049 . S
Zn182 O192 2.067 . S
Zn183 O184 1.962 . S
Zn183 O186 1.986 . S
Zn183 O188 1.996 . S
Zn183 O191 1.943 . S
O184 Zn183 1.962 . S
O184 C189 1.254 . S
O185 Zn182 2.031 . S
O185 C189 1.269 . S
O186 Zn183 1.986 . S
O186 C193 1.262 . S
O187 Zn182 2.049 . S
O187 C195 1.260 . S
O188 Zn183 1.996 . S
O188 C195 1.257 . S
C189 O184 1.254 . S
C189 O185 1.269 . S
C190 O191 1.249 . S
C190 O192 1.270 . S
O191 Zn183 1.943 . S
O191 C190 1.249 . S
O192 Zn182 2.067 . S
O192 C190 1.270 . S
C193 O186 1.262 . S
C193 O194 1.232 . S
O194 C193 1.232 . S
C195 O187 1.260 . S
C195 O188 1.257 . S
Zn196 O199 2.031 . S
Zn196 O201 2.049 . S
Zn196 O206 2.067 . S
Zn197 O198 1.962 . S
Zn197 O200 1.986 . S
Zn197 O202 1.996 . S
Zn197 O205 1.943 . S
O198 Zn197 1.962 . S
O198 C203 1.254 . S
O199 Zn196 2.031 . S
O199 C203 1.269 . S
O200 Zn197 1.986 . S
O200 C207 1.262 . S
O201 Zn196 2.049 . S
O201 C209 1.260 . S
O202 Zn197 1.996 . S
O202 C209 1.257 . S
C203 O198 1.254 . S
C203 O199 1.269 . S
C204 O205 1.249 . S
C204 O206 1.270 . S
O205 Zn197 1.943 . S
O205 C204 1.249 . S
O206 Zn196 2.067 . S
O206 C204 1.270 . S
C207 O200 1.262 . S
C207 O208 1.232 . S
O208 C207 1.232 . S
C209 O201 1.260 . S
C209 O202 1.257 . S
Zn210 O213 2.031 . S
Zn210 O215 2.049 . S
Zn210 O220 2.067 . S
Zn211 O212 1.962 . S
Zn211 O214 1.986 . S
Zn211 O216 1.996 . S
Zn211 O219 1.943 . S
O212 Zn211 1.962 . S
O212 C217 1.254 . S
O213 Zn210 2.031 . S
O213 C217 1.269 . S
O214 Zn211 1.986 . S
O214 C221 1.262 . S
O215 Zn210 2.049 . S
O215 C223 1.260 . S
O216 Zn211 1.996 . S
O216 C223 1.257 . S
C217 O212 1.254 . S
C217 O213 1.269 . S
C218 O219 1.249 . S
C218 O220 1.270 . S
O219 Zn211 1.943 . S
O219 C218 1.249 . S
O220 Zn210 2.067 . S
O220 C218 1.270 . S
C221 O214 1.262 . S
C221 O222 1.232 . S
O222 C221 1.232 . S
C223 O215 1.260 . S
C223 O216 1.257 . S
Zn224 O227 2.031 . S
Zn224 O229 2.049 . S
Zn224 O234 2.067 . S
Zn225 O226 1.962 . S
Zn225 O228 1.986 . S
Zn225 O230 1.996 . S
Zn225 O233 1.943 . S
O226 Zn225 1.962 . S
O226 C231 1.254 . S
O227 Zn224 2.031 . S
O227 C231 1.269 . S
O228 Zn225 1.986 . S
O228 C235 1.262 . S
O229 Zn224 2.049 . S
O229 C237 1.260 . S
O230 Zn225 1.996 . S
O230 C237 1.257 . S
C231 O226 1.254 . S
C231 O227 1.269 . S
C232 O233 1.249 . S
C232 O234 1.270 . S
O233 Zn225 1.943 . S
O233 C232 1.249 . S
O234 Zn224 2.067 . S
O234 C232 1.270 . S
C235 O228 1.262 . S
C235 O236 1.232 . S
O236 C235 1.232 . S
C237 O229 1.260 . S
C237 O230 1.257 . S
Zn238 O241 2.031 . S
Zn238 O243 2.049 . S
Zn238 O248 2.067 . S
Zn239 O240 1.962 . S
Zn239 O242 1.986 . S
Zn239 O244 1.996 . S
Zn239 O247 1.943 . S
O240 Zn239 1.962 . S
O240 C245 1.254 . S
O241 Zn238 2.031 . S
O241 C245 1.269 . S
O242 Zn239 1.986 . S
O242 C249 1.262 . S
O243 Zn238 2.049 . S
O243 C251 1.260 . S
O244 Zn239 1.996 . S
O244 C251 1.257 . S
C245 O240 1.254 . S
C245 O241 1.269 . S
C246 O247 1.249 . S
C246 O248 1.270 . S
O247 Zn239 1.943 . S
O247 C246 1.249 . S
O248 Zn238 2.067 . S
O248 C246 1.270 . S
C249 O242 1.262 . S
C249 O250 1.232 . S
O250 C249 1.232 . S
C251 O243 1.260 . S
C251 O244 1.257 . S
Zn252 O255 2.031 . S
Zn252 O257 2.049 . S
Zn252 O262 2.067 . S
Zn253 O254 1.962 . S
Zn253 O256 1.986 . S
Zn253 O258 1.996 . S
Zn253 O261 1.943 . S
O254 Zn253 1.962 . S
O254 C259 1.254 . S
O255 Zn252 2.031 . S
O255 C259 1.269 . S
O256 Zn253 1.986 . S
O256 C263 1.262 . S
O257 Zn252 2.049 . S
O257 C265 1.260 . S
O258 Zn253 1.996 . S
O258 C265 1.257 . S
C259 O254 1.254 . S
C259 O255 1.269 . S
C260 O261 1.249 . S
C260 O262 1.270 . S
O261 Zn253 1.943 . S
O261 C260 1.249 . S
O262 Zn252 2.067 . S
O262 C260 1.270 . S
C263 O256 1.262 . S
C263 O264 1.232 . S
O264 C263 1.232 . S
C265 O257 1.260 . S
C265 O258 1.257 . S
Zn266 O269 2.031 . S
Zn266 O271 2.049 . S
Zn266 O276 2.067 . S
Zn267 O268 1.962 . S
Zn267 O270 1.986 . S
Zn267 O272 1.996 . S
Zn267 O275 1.943 . S
O268 Zn267 1.962 . S
O268 C273 1.254 . S
O269 Zn266 2.031 . S
O269 C273 1.269 . S
O270 Zn267 1.986 . S
O270 C277 1.262 . S
O271 Zn266 2.049 . S
O271 C279 1.260 . S
O272 Zn267 1.996 . S
O272 C279 1.257 . S
C273 O268 1.254 . S
C273 O269 1.269 . S
C274 O275 1.249 . S
C274 O276 1.270 . S
O275 Zn267 1.943 . S
O275 C274 1.249 . S
O276 Zn266 2.067 . S
O276 C274 1.270 . S
C277 O270 1.262 . S
C277 O278 1.232 . S
O278 C277 1.232 . S
C279 O271 1.260 . S
C279 O272 1.257 . S
Zn280 O283 2.031 . S
Zn280 O285 2.049 . S
Zn280 O290 2.067 . S
Zn281 O282 1.962 . S
Zn281 O284 1.986 . S
Zn281 O286 1.996 . S
Zn281 O289 1.943 . S
O282 Zn281 1.962 . S
O282 C287 1.254 . S
O283 Zn280 2.031 . S
O283 C287 1.269 . S
O284 Zn281 1.986 . S
O284 C291 1.262 . S
O285 Zn280 2.049 . S
O285 C293 1.260 . S
O286 Zn281 1.996 . S
O286 C293 1.257 . S
C287 O282 1.254 . S
C287 O283 1.269 . S
C288 O289 1.249 . S
C288 O290 1.270 . S
O289 Zn281 1.943 . S
O289 C288 1.249 . S
O290 Zn280 2.067 . S
O290 C288 1.270 . S
C291 O284 1.262 . S
C291 O292 1.232 . S
O292 C291 1.232 . S
C293 O285 1.260 . S
C293 O286 1.257 . S
Zn294 O297 2.031 . S
Zn294 O299 2.049 . S
Zn294 O304 2.067 . S
Zn295 O296 1.962 . S
Zn295 O298 1.986 . S
Zn295 O300 1.996 . S
Zn295 O303 1.943 . S
O296 Zn295 1.962 . S
O296 C301 1.254 . S
O297 Zn294 2.031 . S
O297 C301 1.269 . S
O298 Zn295 1.986 . S
O298 C305 1.262 . S
O299 Zn294 2.049 . S
O299 C307 1.260 . S
O300 Zn295 1.996 . S
O300 C307 1.257 . S
C301 O296 1.254 . S
C301 O297 1.269 . S
C302 O303 1.249 . S
C302 O304 1.270 . S
O303 Zn295 1.943 . S
O303 C302 1.249 . S
O304 Zn294 2.067 . S
O304 C302 1.270 . S
C305 O298 1.262 . S
C305 O306 1.232 . S
O306 C305 1.232 . S
C307 O299 1.260 . S
C307 O300 1.257 . S
Zn308 O311 2.031 . S
Zn308 O313 2.049 . S
Zn308 O318 2.067 . S
Zn309 O310 1.962 . S
Zn309 O312 1.986 . S
Zn309 O314 1.996 . S
Zn309 O317 1.943 . S
O310 Zn309 1.962 . S
O310 C315 1.254 . S
O311 Zn308 2.031 . S
O311 C315 1.269 . S
O312 Zn309 1.986 . S
O312 C319 1.262 . S
O313 Zn308 2.049 . S
O313 C321 1.260 . S
O314 Zn309 1.996 . S
O314 C321 1.257 . S
C315 O310 1.254 . S
C315 O311 1.269 . S
C316 O317 1.249 . S
C316 O318 1.270 . S
O317 Zn309 1.943 . S
O317 C316 1.249 . S
O318 Zn308 2.067 . S
O318 C316 1.270 . S
C319 O312 1.262 . S
C319 O320 1.232 . S
O320 C319 1.232 . S
C321 O313 1.260 . S
C321 O314 1.257 . S
Zn322 O325 2.031 . S
Zn322 O327 2.049 . S
Zn322 O332 2.067 . S
Zn323 O324 1.962 . S
Zn323 O326 1.986 . S
Zn323 O328 1.996 . S
Zn323 O331 1.943 . S
O324 Zn323 1.962 . S
O324 C329 1.254 . S
O325 Zn322 2.031 . S
O325 C329 1.269 . S
O326 Zn323 1.986 . S
O326 C333 1.262 . S
O327 Zn322 2.049 . S
O327 C335 1.260 . S
O328 Zn323 1.996 . S
O328 C335 1.257 . S
C329 O324 1.254 . S
C329 O325 1.269 . S
C330 O331 1.249 . S
C330 O332 1.270 . S
O331 Zn323 1.943 . S
O331 C330 1.249 . S
O332 Zn322 2.067 . S
O332 C330 1.270 . S
C333 O326 1.262 . S
C333 O334 1.232 . S
O334 C333 1.232 . S
C335 O327 1.260 . S
C335 O328 1.257 . S
Zn336 O339 2.031 . S
Zn336 O341 2.049 . S
Zn336 O346 2.067 . S
Zn337 O338 1.962 . S
Zn337 O340 1.986 . S
Zn337 O342 1.996 . S
Zn337 O345 1.943 . S
O338 Zn337 1.962 . S
O338 C343 1.254 . S
O339 Zn336 2.031 . S
O339 C343 1.269 . S
O340 Zn337 1.986 . S
O340 C347 1.262 . S
O341 Zn336 2.049 . S
O341 C349 1.260 . S
O342 Zn337 1.996 . S
O342 C349 1.257 . S
C343 O338 1.254 . S
C343 O339 1.269 . S
C344 O345 1.249 . S
C344 O346 1.270 . S
O345 Zn337 1.943 . S
O345 C344 1.249 . S
O346 Zn336 2.067 . S
O346 C344 1.270 . S
C347 O340 1.262 . S
C347 O348 1.232 . S
O348 C347 1.232 . S
C349 O341 1.260 . S
C349 O342 1.257 . S
Zn350 O353 2.031 . S
Zn350 O355 2.049 . S
Zn350 O360 2.067 . S
Zn351 O352 1.962 . S
Zn351 O354 1.986 . S
Zn351 O356 1.996 . S
Zn351 O359 1.943 . S
O352 Zn351 1.962 . S
O352 C357 1.254 . S
O353 Zn350 2.031 . S
O353 C357 1.269 . S
O354 Zn351 1.986 . S
O354 C361 1.262 . S
O355 Zn350 2.049 . S
O355 C363 1.260 . S
O356 Zn351 1.996 . S
O356 C363 1.257 . S
C357 O352 1.254 . S
C357 O353 1.269 . S
C358 O359 1.249 . S
C358 O360 1.270 . S
O359 Zn351 1.943 . S
O359 C358 1.249 . S
O360 Zn350 2.067 . S
O360 C358 1.270 . S
C361 O354 1.262 . S
C361 O362 1.232 . S
O362 C361 1.232 . S
C363 O355 1.260 . S
C363 O356 1.257 . S
Zn364 O367 2.031 . S
Zn364 O369 2.049 . S
Zn364 O374 2.067 . S
Zn365 O366 1.962 . S
Zn365 O368 1.986 . S
Zn365 O370 1.996 . S
Zn365 O373 1.943 . S
O366 Zn365 1.962 . S
O366 C371 1.254 . S
O367 Zn364 2.031 . S
O367 C371 1.269 . S
O368 Zn365 1.986 . S
O368 C375 1.262 . S
O369 Zn364 2.049 . S
O369 C377 1.260 . S
O370 Zn365 1.996 . S
O370 C377 1.257 . S
C371 O366 1.254 . S
C371 O367 1.269 . S
C372 O373 1.249 . S
C372 O374 1.270 . S
O373 Zn365 1.943 . S
O373 C372 1.249 . S
O374 Zn364 2.067 . S
O374 C372 1.270 . S
C375 O368 1.262 . S
C375 O376 1.232 . S
O376 C375 1.232 . S
C377 O369 1.260 . S
C377 O370 1.257 . S
Zn378 O381 2.031 . S
Zn378 O383 2.049 . S
Zn378 O388 2.067 . S
Zn379 O380 1.962 . S
Zn379 O382 1.986 . S
Zn379 O384 1.996 . S
Zn379 O387 1.943 . S
O380 Zn379 1.962 . S
O380 C385 1.254 . S
O381 Zn378 2.031 . S
O381 C385 1.269 . S
O382 Zn379 1.986 . S
O382 C389 1.262 . S
O383 Zn378 2.049 . S
O383 C391 1.260 . S
O384 Zn379 1.996 . S
O384 C391 1.257 . S
C385 O380 1.254 . S
C385 O381 1.269 . S
C386 O387 1.249 . S
C386 O388 1.270 . S
O387 Zn379 1.943 . S
O387 C386 1.249 . S
O388 Zn378 2.067 . S
O388 C386 1.270 . S
C389 O382 1.262 . S
C389 O390 1.232 . S
O390 C389 1.232 . S
C391 O383 1.260 . S
C391 O384 1.257 . S
Zn392 O395 2.031 . S
Zn392 O397 2.049 . S
Zn392 O402 2.067 . S
Zn393 O394 1.962 . S
Zn393 O396 1.986 . S
Zn393 O398 1.996 . S
Zn393 O401 1.943 . S
O394 Zn393 1.962 . S
O394 C399 1.254 . S
O395 Zn392 2.031 . S
O395 C399 1.269 . S
O396 Zn393 1.986 . S
O396 C403 1.262 . S
O397 Zn392 2.049 . S
O397 C405 1.260 . S
O398 Zn393 1.996 . S
O398 C405 1.257 . S
C399 O394 1.254 . S
C399 O395 1.269 . S
C400 O401 1.249 . S
C400 O402 1.270 . S
O401 Zn393 1.943 . S
O401 C400 1.249 . S
O402 Zn392 2.067 . S
O402 C400 1.270 . S
C403 O396 1.262 . S
C403 O404 1.232 . S
O404 C403 1.232 . S
C405 O397 1.260 . S
C405 O398 1.257 . S
Zn406 O409 2.031 . S
Zn406 O411 2.049 . S
Zn406 O416 2.067 . S
Zn407 O408 1.962 . S
Zn407 O410 1.986 . S
Zn407 O412 1.996 . S
Zn407 O415 1.943 . S
O408 Zn407 1.962 . S
O408 C413 1.254 . S
O409 Zn406 2.031 . S
O409 C413 1.269 . S
O410 Zn407 1.986 . S
O410 C417 1.262 . S
O411 Zn406 2.049 . S
O411 C419 1.260 . S
O412 Zn407 1.996 . S
O412 C419 1.257 . S
C413 O408 1.254 . S
C413 O409 1.269 . S
C414 O415 1.249 . S
C414 O416 1.270 . S
O415 Zn407 1.943 . S
O415 C414 1.249 . S
O416 Zn406 2.067 . S
O416 C414 1.270 . S
C417 O410 1.262 . S
C417 O418 1.232 . S
O418 C417 1.232 . S
C419 O411 1.260 . S
C419 O412 1.257 . S
Zn420 O423 2.031 . S
Zn420 O425 2.049 . S
Zn420 O430 2.067 . S
Zn421 O422 1.962 . S
Zn421 O424 1.986 . S
Zn421 O426 1.996 . S
Zn421 O429 1.943 . S
O422 Zn421 1.962 . S
O422 C427 1.254 . S
O423 Zn420 2.031 . S
O423 C427 1.269 . S
O424 Zn421 1.986 . S
O424 C431 1.262 . S
O425 Zn420 2.049 . S
O425 C433 1.260 . S
O426 Zn421 1.996 . S
O426 C433 1.257 . S
C427 O422 1.254 . S
C427 O423 1.269 . S
C428 O429 1.249 . S
C428 O430 1.270 . S
O429 Zn421 1.943 . S
O429 C428 1.249 . S
O430 Zn420 2.067 . S
O430 C428 1.270 . S
C431 O424 1.262 . S
C431 O432 1.232 . S
O432 C431 1.232 . S
C433 O425 1.260 . S
C433 O426 1.257 . S
Zn434 O437 2.031 . S
Zn434 O439 2.049 . S
Zn434 O444 2.067 . S
Zn435 O436 1.962 . S
Zn435 O438 1.986 . S
Zn435 O440 1.996 . S
Zn435 O443 1.943 . S
O436 Zn435 1.962 . S
O436 C441 1.254 . S
O437 Zn434 2.031 . S
O437 C441 1.269 . S
O438 Zn435 1.986 . S
O438 C445 1.262 . S
O439 Zn434 2.049 . S
O439 C447 1.260 . S
O440 Zn435 1.996 . S
O440 C447 1.257 . S
C441 O436 1.254 . S
C441 O437 1.269 . S
C442 O443 1.249 . S
C442 O444 1.270 . S
O443 Zn435 1.943 . S
O443 C442 1.249 . S
O444 Zn434 2.067 . S
O444 C442 1.270 . S
C445 O438 1.262 . S
C445 O446 1.232 . S
O446 C445 1.232 . S
C447 O439 1.260 . S
C447 O440 1.257 . S
Zn448 O451 2.031 . S
Zn448 O453 2.049 . S
Zn448 O458 2.067 . S
Zn449 O450 1.962 . S
Zn449 O452 1.986 . S
Zn449 O454 1.996 . S
Zn449 O457 1.943 . S
O450 Zn449 1.962 . S
O450 C455 1.254 . S
O451 Zn448 2.031 . S
O451 C455 1.269 . S
O452 Zn449 1.986 . S
O452 C459 1.262 . S
O453 Zn448 2.049 . S
O453 C461 1.260 . S
O454 Zn449 1.996 . S
O454 C461 1.257 . S
C455 O450 1.254 . S
C455 O451 1.269 . S
C456 O457 1.249 . S
C456 O458 1.270 . S
O457 Zn449 1.943 . S
O457 C456 1.249 . S
O458 Zn448 2.067 . S
O458 C456 1.270 . S
C459 O452 1.262 . S
C459 O460 1.232 . S
O460 C459 1.232 . S
C461 O453 1.260 . S
C461 O454 1.257 . S
Zn462 O465 2.031 . S
Zn462 O467 2.049 . S
Zn462 O472 2.067 . S
Zn463 O464 1.962 . S
Zn463 O466 1.986 . S
Zn463 O468 1.996 . S
Zn463 O471 1.943 . S
O464 Zn463 1.962 . S
O464 C469 1.254 . S
O465 Zn462 2.031 . S
O465 C469 1.269 . S
O466 Zn463 1.986 . S
O466 C473 1.262 . S
O467 Zn462 2.049 . S
O467 C475 1.260 . S
O468 Zn463 1.996 . S
O468 C475 1.257 . S
C469 O464 1.254 . S
C469 O465 1.269 . S
C470 O471 1.249 . S
C470 O472 1.270 . S
O471 Zn463 1.943 . S
O471 C470 1.249 . S
O472 Zn462 2.067 . S
O472 C470 1.270 . S
C473 O466 1.262 . S
C473 O474 1.232 . S
O474 C473 1.232 . S
C475 O467 1.260 . S
C475 O468 1.257 . S
Zn476 O479 2.031 . S
Zn476 O481 2.049 . S
Zn476 O486 2.067 . S
Zn477 O478 1.962 . S
Zn477 O480 1.986 . S
Zn477 O482 1.996 . S
Zn477 O485 1.943 . S
O478 Zn477 1.962 . S
O478 C483 1.254 . S
O479 Zn476 2.031 . S
O479 C483 1.269 . S
O480 Zn477 1.986 . S
O480 C487 1.262 . S
O481 Zn476 2.049 . S
O481 C489 1.260 . S
O482 Zn477 1.996 . S
O482 C489 1.257 . S
C483 O478 1.254 . S
C483 O479 1.269 . S
C484 O485 1.249 . S
C484 O486 1.270 . S
O485 Zn477 1.943 . S
O485 C484 1.249 . S
O486 Zn476 2.067 . S
O486 C484 1.270 . S
C487 O480 1.262 . S
C487 O488 1.232 . S
O488 C487 1.232 . S
C489 O481 1.260 . S
C489 O482 1.257 . S
Zn490 O493 2.031 . S
Zn490 O495 2.049 . S
Zn490 O500 2.067 . S
Zn491 O492 1.962 . S
Zn491 O494 1.986 . S
Zn491 O496 1.996 . S
Zn491 O499 1.943 . S
O492 Zn491 1.962 . S
O492 C497 1.254 . S
O493 Zn490 2.031 . S
O493 C497 1.269 . S
O494 Zn491 1.986 . S
O494 C501 1.262 . S
O495 Zn490 2.049 . S
O495 C503 1.260 . S
O496 Zn491 1.996 . S
O496 C503 1.257 . S
C497 O492 1.254 . S
C497 O493 1.269 . S
C498 O499 1.249 . S
C498 O500 1.270 . S
O499 Zn491 1.943 . S
O499 C498 1.249 . S
O500 Zn490 2.067 . S
O500 C498 1.270 . S
C501 O494 1.262 . S
C501 O502 1.232 . S
O502 C501 1.232 . S
C503 O495 1.260 . S
C503 O496 1.257 . S
Zn504 O507 2.031 . S
Zn504 O509 2.049 . S
Zn504 O514 2.067 . S
Zn505 O506 1.962 . S
Zn505 O508 1.986 . S
Zn505 O510 1.996 . S
Zn505 O513 1.943 . S
O506 Zn505 1.962 . S
O506 C511 1.254 . S
O507 Zn504 2.031 . S
O507 C511 1.269 . S
O508 Zn505 1.986 . S
O508 C515 1.262 . S
O509 Zn504 2.049 . S
O509 C517 1.260 . S
O510 Zn505 1.996 . S
O510 C517 1.257 . S
C511 O506 1.254 . S
C511 O507 1.269 . S
C512 O513 1.249 . S
C512 O514 1.270 . S
O513 Zn505 1.943 . S
O513 C512 1.249 . S
O514 Zn504 2.067 . S
O514 C512 1.270 . S
C515 O508 1.262 . S
C515 O516 1.232 . S
O516 C515 1.232 . S
C517 O509 1.260 . S
C517 O510 1.257 . S
Zn518 O521 2.031 . S
Zn518 O523 2.049 . S
Zn518 O528 2.067 . S
Zn519 O520 1.962 . S
Zn519 O522 1.986 . S
Zn519 O524 1.996 . S
Zn519 O527 1.943 . S
O520 Zn519 1.962 . S
O520 C525 1.254 . S
O521 Zn518 2.031 . S
O521 C525 1.269 . S
O522 Zn519 1.986 . S
O522 C529 1.262 . S
O523 Zn518 2.049 . S
O523 C531 1.260 . S
O524 Zn519 1.996 . S
O524 C531 1.257 . S
C525 O520 1.254 . S
C525 O521 1.269 . S
C526 O527 1.249 . S
C526 O528 1.270 . S
O527 Zn519 1.943 . S
O527 C526 1.249 . S
O528 Zn518 2.067 . S
O528 C526 1.270 . S
C529 O522 1.262 . S
C529 O530 1.232 . S
O530 C529 1.232 . S
C531 O523 1.260 . S
C531 O524 1.257 . S
Zn532 O535 2.031 . S
Zn532 O537 2.049 . S
Zn532 O542 2.067 . S
Zn533 O534 1.962 . S
Zn533 O536 1.986 . S
Zn533 O538 1.996 . S
Zn533 O541 1.943 . S
O534 Zn533 1.962 . S
O534 C539 1.254 . S
O535 Zn532 2.031 . S
O535 C539 1.269 . S
O536 Zn533 1.986 . S
O536 C543 1.262 . S
O537 Zn532 2.049 . S
O537 C545 1.260 . S
O538 Zn533 1.996 . S
O538 C545 1.257 . S
C539 O534 1.254 . S
C539 O535 1.269 . S
C540 O541 1.249 . S
C540 O542 1.270 . S
O541 Zn533 1.943 . S
O541 C540 1.249 . S
O542 Zn532 2.067 . S
O542 C540 1.270 . S
C543 O536 1.262 . S
C543 O544 1.232 . S
O544 C543 1.232 . S
C545 O537 1.260 . S
C545 O538 1.257 . S
Zn546 O549 2.031 . S
Zn546 O551 2.049 . S
Zn546 O556 2.067 . S
Zn547 O548 1.962 . S
Zn547 O550 1.986 . S
Zn547 O552 1.996 . S
Zn547 O555 1.943 . S
O548 Zn547 1.962 . S
O548 C553 1.254 . S
O549 Zn546 2.031 . S
O549 C553 1.269 . S
O550 Zn547 1.986 . S
O550 C557 1.262 . S
O551 Zn546 2.049 . S
O551 C559 1.260 . S
O552 Zn547 1.996 . S
O552 C559 1.257 . S
C553 O548 1.254 . S
C553 O549 1.269 . S
C554 O555 1.249 . S
C554 O556 1.270 . S
O555 Zn547 1.943 . S
O555 C554 1.249 . S
O556 Zn546 2.067 . S
O556 C554 1.270 . S
C557 O550 1.262 . S
C557 O558 1.232 . S
O558 C557 1.232 . S
C559 O551 1.260 . S
C559 O552 1.257 . S
Zn560 O563 2.031 . S
Zn560 O565 2.049 . S
Zn560 O570 2.067 . S
Zn561 O562 1.962 . S
Zn561 O564 1.986 . S
Zn561 O566 1.996 . S
Zn561 O569 1.943 . S
O562 Zn561 1.962 . S
O562 C567 1.254 . S
O563 Zn560 2.031 . S
O563 C567 1.269 . S
O564 Zn561 1.986 . S
O564 C571 1.262 . S
O565 Zn560 2.049 . S
O565 C573 1.260 . S
O566 Zn561 1.996 . S
O566 C573 1.257 . S
C567 O562 1.254 . S
C567 O563 1.269 . S
C568 O569 1.249 . S
C568 O570 1.270 . S
O569 Zn561 1.943 . S
O569 C568 1.249 . S
O570 Zn560 2.067 . S
O570 C568 1.270 . S
C571 O564 1.262 . S
C571 O572 1.232 . S
O572 C571 1.232 . S
C573 O565 1.260 . S
C573 O566 1.257 . S
Zn574 O577 2.031 . S
Zn574 O579 2.049 . S
Zn574 O584 2.067 . S
Zn575 O576 1.962 . S
Zn575 O578 1.986 . S
Zn575 O580 1.996 . S
Zn575 O583 1.943 . S
O576 Zn575 1.962 . S
O576 C581 1.254 . S
O577 Zn574 2.031 . S
O577 C581 1.269 . S
O578 Zn575 1.986 . S
O578 C585 1.262 . S
O579 Zn574 2.049 . S
O579 C587 1.260 . S
O580 Zn575 1.996 . S
O580 C587 1.257 . S
C581 O576 1.254 . S
C581 O577 1.269 . S
C582 O583 1.249 . S
C582 O584 1.270 . S
O583 Zn575 1.943 . S
O583 C582 1.249 . S
O584 Zn574 2.067 . S
O584 C582 1.270 . S
C585 O578 1.262 . S
C585 O586 1.232 . S
O586 C585 1.232 . S
C587 O579 1.260 . S
C587 O580 1.257 . S
Zn588 O591 2.031 . S
Zn588 O593 2.049 . S
Zn588 O598 2.067 . S
Zn589 O590 1.962 . S
Zn589 O592 1.986 . S
Zn589 O594 1.996 . S
Zn589 O597 1.943 . S
O590 Zn589 1.962 . S
O590 C595 1.254 . S
O591 Zn588 2.031 . S
O591 C595 1.269 . S
O592 Zn589 1.986 . S
O592 C599 1.262 . S
O593 Zn588 2.049 . S
O593 C601 1.260 . S
O594 Zn589 1.996 . S
O594 C601 1.257 . S
C595 O590 1.254 . S
C595 O591 1.269 . S
C596 O597 1.249 . S
C596 O598 1.270 . S
O597 Zn589 1.943 . S
O597 C596 1.249 . S
O598 Zn588 2.067 . S
O598 C596 1.270 . S
C599 O592 1.262 . S
C599 O600 1.232 . S
O600 C599 1.232 . S
C601 O593 1.260 . S
C601 O594 1.257 . S
Zn602 O605 2.031 . S
Zn602 O607 2.049 . S
Zn602 O612 2.067 . S
Zn603 O604 1.962 . S
Zn603 O606 1.986 . S
Zn603 O608 1.996 . S
Zn603 O611 1.943 . S
O604 Zn603 1.962 . S
O604 C609 1.254 . S
O605 Zn602 2.031 . S
O605 C609 1.269 . S
O606 Zn603 1.986 . S
O606 C613 1.262 . S
O607 Zn602 2.049 . S
O607 C615 1.260 . S
O608 Zn603 1.996 . S
O608 C615 1.257 . S
C609 O604 1.254 . S
C609 O605 1.269 . S
C610 O611 1.249 . S
C610 O612 1.270 . S
O611 Zn603 1.943 . S
O611 C610 1.249 . S
O612 Zn602 2.067 . S
O612 C610 1.270 . S
C613 O606 1.262 . S
C613 O614 1.232 . S
O614 C613 1.232 . S
C615 O607 1.260 . S
C615 O608 1.257 . S
Zn616 O619 2.031 . S
Zn616 O621 2.049 . S
Zn616 O626 2.067 . S
Zn617 O618 1.962 . S
Zn617 O620 1.986 . S
Zn617 O622 1.996 . S
Zn617 O625 1.943 . S
O618 Zn617 1.962 . S
O618 C623 1.254 . S
O619 Zn616 2.031 . S
O619 C623 1.269 . S
O620 Zn617 1.986 . S
O620 C627 1.262 . S
O621 Zn616 2.049 . S
O621 C629 1.260 . S
O622 Zn617 1.996 . S
O622 C629 1.257 . S
C623 O618 1.254 . S
C623 O619 1.269 . S
C624 O625 1.249 . S
C624 O626 1.270 . S
O625 Zn617 1.943 . S
O625 C624 1.249 . S
O626 Zn616 2.067 . S
O626 C624 1.270 . S
C627 O620 1.262 . S
C627 O628 1.232 . S
O628 C627 1.232 . S
C629 O621 1.260 . S
C629 O622 1.257 . S
Zn630 O633 2.031 . S
Zn630 O635 2.049 . S
Zn630 O640 2.067 . S
Zn631 O632 1.962 . S
Zn631 O634 1.986 . S
Zn631 O636 1.996 . S
Zn631 O639 1.943 . S
O632 Zn631 1.962 . S
O632 C637 1.254 . S
O633 Zn630 2.031 . S
O633 C637 1.269 . S
O634 Zn631 1.986 . S
O634 C641 1.262 . S
O635 Zn630 2.049 . S
O635 C643 1.260 . S
O636 Zn631 1.996 . S
O636 C643 1.257 . S
C637 O632 1.254 . S
C637 O633 1.269 . S
C638 O639 1.249 . S
C638 O640 1.270 . S
O639 Zn631 1.943 . S
O639 C638 1.249 . S
O640 Zn630 2.067 . S
O640 C638 1.270 . S
C641 O634 1.262 . S
C641 O642 1.232 . S
O642 C641 1.232 . S
C643 O635 1.260 . S
C643 O636 1.257 . S
Zn644 O647 2.031 . S
Zn644 O649 2.049 . S
Zn644 O654 2.067 . S
Zn645 O646 1.962 . S
Zn645 O648 1.986 . S
Zn645 O650 1.996 . S
Zn645 O653 1.943 . S
O646 Zn645 1.962 . S
O646 C651 1.254 . S
O647 Zn644 2.031 . S
O647 C651 1.269 . S
O648 Zn645 1.986 . S
O648 C655 1.262 . S
O649 Zn644 2.049 . S
O649 C657 1.260 . S
O650 Zn645 1.996 . S
O650 C657 1.257 . S
C651 O646 1.254 . S
C651 O647 1.269 . S
C652 O653 1.249 . S
C652 O654 1.270 . S
O653 Zn645 1.943 . S
O653 C652 1.249 . S
O654 Zn644 2.067 . S
O654 C652 1.270 . S
C655 O648 1.262 . S
C655 O656 1.232 . S
O656 C655 1.232 . S
C657 O649 1.260 . S
C657 O650 1.257 . S
Zn658 O661 2.031 . S
Zn658 O663 2.049 . S
Zn658 O668 2.067 . S
Zn659 O660 1.962 . S
Zn659 O662 1.986 . S
Zn659 O664 1.996 . S
Zn659 O667 1.943 . S
O660 Zn659 1.962 . S
O660 C665 1.254 . S
O661 Zn658 2.031 . S
O661 C665 1.269 . S
O662 Zn659 1.986 . S
O662 C669 1.262 . S
O663 Zn658 2.049 . S
O663 C671 1.260 . S
O664 Zn659 1.996 . S
O664 C671 1.257 . S
C665 O660 1.254 . S
C665 O661 1.269 . S
C666 O667 1.249 . S
C666 O668 1.270 . S
O667 Zn659 1.943 . S
O667 C666 1.249 . S
O668 Zn658 2.067 . S
O668 C666 1.270 . S
C669 O662 1.262 . S
C669 O670 1.232 . S
O670 C669 1.232 . S
C671 O663 1.260 . S
C671 O664 1.257 . S
H672 C680 0.950 . S
H673 C685 0.950 . S
H674 C682 0.950 . S
H675 C684 0.950 . S
H676 C686 0.950 . S
H677 C688 0.950 . S
H678 C690 0.950 . S
H679 C691 0.950 . S
C680 H672 0.950 . S
C680 C681 1.386 . S
C680 C682 1.391 . S
C681 C680 1.386 . S
C681 C685 1.393 . S
C682 H674 0.950 . S
C682 C680 1.391 . S
C682 C683 1.400 . S
C683 C682 1.400 . S
C683 C684 1.398 . S
C683 C689 1.491 . S
C684 H675 0.950 . S
C684 C683 1.398 . S
C684 C685 1.391 . S
C685 H673 0.950 . S
C685 C681 1.393 . S
C685 C684 1.391 . S
C686 H676 0.950 . S
C686 C687 1.386 . S
C686 C688 1.391 . S
C687 C686 1.386 . S
C687 C691 1.393 . S
C688 H677 0.950 . S
C688 C686 1.391 . S
C688 C689 1.400 . S
C689 C683 1.491 . S
C689 C688 1.400 . S
C689 C690 1.398 . S
C690 H678 0.950 . S
C690 C689 1.398 . S
C690 C691 1.391 . S
C691 H679 0.950 . S
C691 C687 1.393 . S
C691 C690 1.391 . S
H692 C700 0.950 . S
H693 C705 0.950 . S
H694 C702 0.950 . S
H695 C704 0.950 . S
H696 C706 0.950 . S
H697 C708 0.950 . S
H698 C710 0.950 . S
H699 C711 0.950 . S
C700 H692 0.950 . S
C700 C701 1.386 . S
C700 C702 1.391 . S
C701 C700 1.386 . S
C701 C705 1.393 . S
C702 H694 0.950 . S
C702 C700 1.391 . S
C702 C703 1.400 . S
C703 C702 1.400 . S
C703 C704 1.398 . S
C703 C709 1.491 . S
C704 H695 0.950 . S
C704 C703 1.398 . S
C704 C705 1.391 . S
C705 H693 0.950 . S
C705 C701 1.393 . S
C705 C704 1.391 . S
C706 H696 0.950 . S
C706 C707 1.386 . S
C706 C708 1.391 . S
C707 C706 1.386 . S
C707 C711 1.393 . S
C708 H697 0.950 . S
C708 C706 1.391 . S
C708 C709 1.400 . S
C709 C703 1.491 . S
C709 C708 1.400 . S
C709 C710 1.398 . S
C710 H698 0.950 . S
C710 C709 1.398 . S
C710 C711 1.391 . S
C711 H699 0.950 . S
C711 C707 1.393 . S
C711 C710 1.391 . S
H712 C720 0.950 . S
H713 C725 0.950 . S
H714 C722 0.950 . S
H715 C724 0.950 . S
H716 C726 0.950 . S
H717 C728 0.950 . S
H718 C730 0.950 . S
H719 C731 0.950 . S
C720 H712 0.950 . S
C720 C721 1.386 . S
C720 C722 1.391 . S
C721 C720 1.386 . S
C721 C725 1.393 . S
C722 H714 0.950 . S
C722 C720 1.391 . S
C722 C723 1.400 . S
C723 C722 1.400 . S
C723 C724 1.398 . S
C723 C729 1.491 . S
C724 H715 0.950 . S
C724 C723 1.398 . S
C724 C725 1.391 . S
C725 H713 0.950 . S
C725 C721 1.393 . S
C725 C724 1.391 . S
C726 H716 0.950 . S
C726 C727 1.386 . S
C726 C728 1.391 . S
C727 C726 1.386 . S
C727 C731 1.393 . S
C728 H717 0.950 . S
C728 C726 1.391 . S
C728 C729 1.400 . S
C729 C723 1.491 . S
C729 C728 1.400 . S
C729 C730 1.398 . S
C730 H718 0.950 . S
C730 C729 1.398 . S
C730 C731 1.391 . S
C731 H719 0.950 . S
C731 C727 1.393 . S
C731 C730 1.391 . S
H732 C740 0.950 . S
H733 C745 0.950 . S
H734 C742 0.950 . S
H735 C744 0.950 . S
H736 C746 0.950 . S
H737 C748 0.950 . S
H738 C750 0.950 . S
H739 C751 0.950 . S
C740 H732 0.950 . S
C740 C741 1.386 . S
C740 C742 1.391 . S
C741 C740 1.386 . S
C741 C745 1.393 . S
C742 H734 0.950 . S
C742 C740 1.391 . S
C742 C743 1.400 . S
C743 C742 1.400 . S
C743 C744 1.398 . S
C743 C749 1.491 . S
C744 H735 0.950 . S
C744 C743 1.398 . S
C744 C745 1.391 . S
C745 H733 0.950 . S
C745 C741 1.393 . S
C745 C744 1.391 . S
C746 H736 0.950 . S
C746 C747 1.386 . S
C746 C748 1.391 . S
C747 C746 1.386 . S
C747 C751 1.393 . S
C748 H737 0.950 . S
C748 C746 1.391 . S
C748 C749 1.400 . S
C749 C743 1.491 . S
C749 C748 1.400 . S
C749 C750 1.398 . S
C750 H738 0.950 . S
C750 C749 1.398 . S
C750 C751 1.391 . S
C751 H739 0.950 . S
C751 C747 1.393 . S
C751 C750 1.391 . S
H752 C760 0.950 . S
H753 C765 0.950 . S
H754 C762 0.950 . S
H755 C764 0.950 . S
H756 C766 0.950 . S
H757 C768 0.950 . S
H758 C770 0.950 . S
H759 C771 0.950 . S
C760 H752 0.950 . S
C760 C761 1.386 . S
C760 C762 1.391 . S
C761 C760 1.386 . S
C761 C765 1.393 . S
C762 H754 0.950 . S
C762 C760 1.391 . S
C762 C763 1.400 . S
C763 C762 1.400 . S
C763 C764 1.398 . S
C763 C769 1.491 . S
C764 H755 0.950 . S
C764 C763 1.398 . S
C764 C765 1.391 . S
C765 H753 0.950 . S
C765 C761 1.393 . S
C765 C764 1.391 . S
C766 H756 0.950 . S
C766 C767 1.386 . S
C766 C768 1.391 . S
C767 C766 1.386 . S
C767 C771 1.393 . S
C768 H757 0.950 . S
C768 C766 1.391 . S
C768 C769 1.400 . S
C769 C763 1.491 . S
C769 C768 1.400 . S
C769 C770 1.398 . S
C770 H758 0.950 . S
C770 C769 1.398 . S
C770 C771 1.391 . S
C771 H759 0.950 . S
C771 C767 1.393 . S
C771 C770 1.391 . S
H772 C780 0.950 . S
H773 C785 0.950 . S
H774 C782 0.950 . S
H775 C784 0.950 . S
H776 C786 0.950 . S
H777 C788 0.950 . S
H778 C790 0.950 . S
H779 C791 0.950 . S
C780 H772 0.950 . S
C780 C781 1.386 . S
C780 C782 1.391 . S
C781 C780 1.386 . S
C781 C785 1.393 . S
C782 H774 0.950 . S
C782 C780 1.391 . S
C782 C783 1.400 . S
C783 C782 1.400 . S
C783 C784 1.398 . S
C783 C789 1.491 . S
C784 H775 0.950 . S
C784 C783 1.398 . S
C784 C785 1.391 . S
C785 H773 0.950 . S
C785 C781 1.393 . S
C785 C784 1.391 . S
C786 H776 0.950 . S
C786 C787 1.386 . S
C786 C788 1.391 . S
C787 C786 1.386 . S
C787 C791 1.393 . S
C788 H777 0.950 . S
C788 C786 1.391 . S
C788 C789 1.400 . S
C789 C783 1.491 . S
C789 C788 1.400 . S
C789 C790 1.398 . S
C790 H778 0.950 . S
C790 C789 1.398 . S
C790 C791 1.391 . S
C791 H779 0.950 . S
C791 C787 1.393 . S
C791 C790 1.391 . S
H792 C800 0.950 . S
H793 C805 0.950 . S
H794 C802 0.950 . S
H795 C804 0.950 . S
H796 C806 0.950 . S
H797 C808 0.950 . S
H798 C810 0.950 . S
H799 C811 0.950 . S
C800 H792 0.950 . S
C800 C801 1.386 . S
C800 C802 1.391 . S
C801 C800 1.386 . S
C801 C805 1.393 . S
C802 H794 0.950 . S
C802 C800 1.391 . S
C802 C803 1.400 . S
C803 C802 1.400 . S
C803 C804 1.398 . S
C803 C809 1.491 . S
C804 H795 0.950 . S
C804 C803 1.398 . S
C804 C805 1.391 . S
C805 H793 0.950 . S
C805 C801 1.393 . S
C805 C804 1.391 . S
C806 H796 0.950 . S
C806 C807 1.386 . S
C806 C808 1.391 . S
C807 C806 1.386 . S
C807 C811 1.393 . S
C808 H797 0.950 . S
C808 C806 1.391 . S
C808 C809 1.400 . S
C809 C803 1.491 . S
C809 C808 1.400 . S
C809 C810 1.398 . S
C810 H798 0.950 . S
C810 C809 1.398 . S
C810 C811 1.391 . S
C811 H799 0.950 . S
C811 C807 1.393 . S
C811 C810 1.391 . S
H812 C820 0.950 . S
H813 C825 0.950 . S
H814 C822 0.950 . S
H815 C824 0.950 . S
H816 C826 0.950 . S
H817 C828 0.950 . S
H818 C830 0.950 . S
H819 C831 0.950 . S
C820 H812 0.950 . S
C820 C821 1.386 . S
C820 C822 1.391 . S
C821 C820 1.386 . S
C821 C825 1.393 . S
C822 H814 0.950 . S
C822 C820 1.391 . S
C822 C823 1.400 . S
C823 C822 1.400 . S
C823 C824 1.398 . S
C823 C829 1.491 . S
C824 H815 0.950 . S
C824 C823 1.398 . S
C824 C825 1.391 . S
C825 H813 0.950 . S
C825 C821 1.393 . S
C825 C824 1.391 . S
C826 H816 0.950 . S
C826 C827 1.386 . S
C826 C828 1.391 . S
C827 C826 1.386 . S
C827 C831 1.393 . S
C828 H817 0.950 . S
C828 C826 1.391 . S
C828 C829 1.400 . S
C829 C823 1.491 . S
C829 C828 1.400 . S
C829 C830 1.398 . S
C830 H818 0.950 . S
C830 C829 1.398 . S
C830 C831 1.391 . S
C831 H819 0.950 . S
C831 C827 1.393 . S
C831 C830 1.391 . S
H832 C840 0.950 . S
H833 C845 0.950 . S
H834 C842 0.950 . S
H835 C844 0.950 . S
H836 C846 0.950 . S
H837 C848 0.950 . S
H838 C850 0.950 . S
H839 C851 0.950 . S
C840 H832 0.950 . S
C840 C841 1.386 . S
C840 C842 1.391 . S
C841 C840 1.386 . S
C841 C845 1.393 . S
C842 H834 0.950 . S
C842 C840 1.391 . S
C842 C843 1.400 . S
C843 C842 1.400 . S
C843 C844 1.398 . S
C843 C849 1.491 . S
C844 H835 0.950 . S
C844 C843 1.398 . S
C844 C845 1.391 . S
C845 H833 0.950 . S
C845 C841 1.393 . S
C845 C844 1.391 . S
C846 H836 0.950 . S
C846 C847 1.386 . S
C846 C848 1.391 . S
C847 C846 1.386 . S
C847 C851 1.393 . S
C848 H837 0.950 . S
C848 C846 1.391 . S
C848 C849 1.400 . S
C849 C843 1.491 . S
C849 C848 1.400 . S
C849 C850 1.398 . S
C850 H838 0.950 . S
C850 C849 1.398 . S
C850 C851 1.391 . S
C851 H839 0.950 . S
C851 C847 1.393 . S
C851 C850 1.391 . S
H852 C860 0.950 . S
H853 C865 0.950 . S
H854 C862 0.950 . S
H855 C864 0.950 . S
H856 C866 0.950 . S
H857 C868 0.950 . S
H858 C870 0.950 . S
H859 C871 0.950 . S
C860 H852 0.950 . S
C860 C861 1.386 . S
C860 C862 1.391 . S
C861 C860 1.386 . S
C861 C865 1.393 . S
C862 H854 0.950 . S
C862 C860 1.391 . S
C862 C863 1.400 . S
C863 C862 1.400 . S
C863 C864 1.398 . S
C863 C869 1.491 . S
C864 H855 0.950 . S
C864 C863 1.398 . S
C864 C865 1.391 . S
C865 H853 0.950 . S
C865 C861 1.393 . S
C865 C864 1.391 . S
C866 H856 0.950 . S
C866 C867 1.386 . S
C866 C868 1.391 . S
C867 C866 1.386 . S
C867 C871 1.393 . S
C868 H857 0.950 . S
C868 C866 1.391 . S
C868 C869 1.400 . S
C869 C863 1.491 . S
C869 C868 1.400 . S
C869 C870 1.398 . S
C870 H858 0.950 . S
C870 C869 1.398 . S
C870 C871 1.391 . S
C871 H859 0.950 . S
C871 C867 1.393 . S
C871 C870 1.391 . S
H872 C880 0.950 . S
H873 C885 0.950 . S
H874 C882 0.950 . S
H875 C884 0.950 . S
H876 C886 0.950 . S
H877 C888 0.950 . S
H878 C890 0.950 . S
H879 C891 0.950 . S
C880 H872 0.950 . S
C880 C881 1.386 . S
C880 C882 1.391 . S
C881 C880 1.386 . S
C881 C885 1.393 . S
C882 H874 0.950 . S
C882 C880 1.391 . S
C882 C883 1.400 . S
C883 C882 1.400 . S
C883 C884 1.398 . S
C883 C889 1.491 . S
C884 H875 0.950 . S
C884 C883 1.398 . S
C884 C885 1.391 . S
C885 H873 0.950 . S
C885 C881 1.393 . S
C885 C884 1.391 . S
C886 H876 0.950 . S
C886 C887 1.386 . S
C886 C888 1.391 . S
C887 C886 1.386 . S
C887 C891 1.393 . S
C888 H877 0.950 . S
C888 C886 1.391 . S
C888 C889 1.400 . S
C889 C883 1.491 . S
C889 C888 1.400 . S
C889 C890 1.398 . S
C890 H878 0.950 . S
C890 C889 1.398 . S
C890 C891 1.391 . S
C891 H879 0.950 . S
C891 C887 1.393 . S
C891 C890 1.391 . S
H892 C900 0.950 . S
H893 C905 0.950 . S
H894 C902 0.950 . S
H895 C904 0.950 . S
H896 C906 0.950 . S
H897 C908 0.950 . S
H898 C910 0.950 . S
H899 C911 0.950 . S
C900 H892 0.950 . S
C900 C901 1.386 . S
C900 C902 1.391 . S
C901 C900 1.386 . S
C901 C905 1.393 . S
C902 H894 0.950 . S
C902 C900 1.391 . S
C902 C903 1.400 . S
C903 C902 1.400 . S
C903 C904 1.398 . S
C903 C909 1.491 . S
C904 H895 0.950 . S
C904 C903 1.398 . S
C904 C905 1.391 . S
C905 H893 0.950 . S
C905 C901 1.393 . S
C905 C904 1.391 . S
C906 H896 0.950 . S
C906 C907 1.386 . S
C906 C908 1.391 . S
C907 C906 1.386 . S
C907 C911 1.393 . S
C908 H897 0.950 . S
C908 C906 1.391 . S
C908 C909 1.400 . S
C909 C903 1.491 . S
C909 C908 1.400 . S
C909 C910 1.398 . S
C910 H898 0.950 . S
C910 C909 1.398 . S
C910 C911 1.391 . S
C911 H899 0.950 . S
C911 C907 1.393 . S
C911 C910 1.391 . S
H912 C920 0.950 . S
H913 C925 0.950 . S
H914 C922 0.950 . S
H915 C924 0.950 . S
H916 C926 0.950 . S
H917 C928 0.950 . S
H918 C930 0.950 . S
H919 C931 0.950 . S
C920 H912 0.950 . S
C920 C921 1.386 . S
C920 C922 1.391 . S
C921 C920 1.386 . S
C921 C925 1.393 . S
C922 H914 0.950 . S
C922 C920 1.391 . S
C922 C923 1.400 . S
C923 C922 1.400 . S
C923 C924 1.398 . S
C923 C929 1.491 . S
C924 H915 0.950 . S
C924 C923 1.398 . S
C924 C925 1.391 . S
C925 H913 0.950 . S
C925 C921 1.393 . S
C925 C924 1.391 . S
C926 H916 0.950 . S
C926 C927 1.386 . S
C926 C928 1.391 . S
C927 C926 1.386 . S
C927 C931 1.393 . S
C928 H917 0.950 . S
C928 C926 1.391 . S
C928 C929 1.400 . S
C929 C923 1.491 . S
C929 C928 1.400 . S
C929 C930 1.398 . S
C930 H918 0.950 . S
C930 C929 1.398 . S
C930 C931 1.391 . S
C931 H919 0.950 . S
C931 C927 1.393 . S
C931 C930 1.391 . S
H932 C940 0.950 . S
H933 C945 0.950 . S
H934 C942 0.950 . S
H935 C944 0.950 . S
H936 C946 0.950 . S
H937 C948 0.950 . S
H938 C950 0.950 . S
H939 C951 0.950 . S
C940 H932 0.950 . S
C940 C941 1.386 . S
C940 C942 1.391 . S
C941 C940 1.386 . S
C941 C945 1.393 . S
C942 H934 0.950 . S
C942 C940 1.391 . S
C942 C943 1.400 . S
C943 C942 1.400 . S
C943 C944 1.398 . S
C943 C949 1.491 . S
C944 H935 0.950 . S
C944 C943 1.398 . S
C944 C945 1.391 . S
C945 H933 0.950 . S
C945 C941 1.393 . S
C945 C944 1.391 . S
C946 H936 0.950 . S
C946 C947 1.386 . S
C946 C948 1.391 . S
C947 C946 1.386 . S
C947 C951 1.393 . S
C948 H937 0.950 . S
C948 C946 1.391 . S
C948 C949 1.400 . S
C949 C943 1.491 . S
C949 C948 1.400 . S
C949 C950 1.398 . S
C950 H938 0.950 . S
C950 C949 1.398 . S
C950 C951 1.391 . S
C951 H939 0.950 . S
C951 C947 1.393 . S
C951 C950 1.391 . S
H952 C960 0.950 . S
H953 C965 0.950 . S
H954 C962 0.950 . S
H955 C964 0.950 . S
H956 C966 0.950 . S
H957 C968 0.950 . S
H958 C970 0.950 . S
H959 C971 0.950 . S
C960 H952 0.950 . S
C960 C961 1.386 . S
C960 C962 1.391 . S
C961 C960 1.386 . S
C961 C965 1.393 . S
C962 H954 0.950 . S
C962 C960 1.391 . S
C962 C963 1.400 . S
C963 C962 1.400 . S
C963 C964 1.398 . S
C963 C969 1.491 . S
C964 H955 0.950 . S
C964 C963 1.398 . S
C964 C965 1.391 . S
C965 H953 0.950 . S
C965 C961 1.393 . S
C965 C964 1.391 . S
C966 H956 0.950 . S
C966 C967 1.386 . S
C966 C968 1.391 . S
C967 C966 1.386 . S
C967 C971 1.393 . S
C968 H957 0.950 . S
C968 C966 1.391 . S
C968 C969 1.400 . S
C969 C963 1.491 . S
C969 C968 1.400 . S
C969 C970 1.398 . S
C970 H958 0.950 . S
C970 C969 1.398 . S
C970 C971 1.391 . S
C971 H959 0.950 . S
C971 C967 1.393 . S
C971 C970 1.391 . S
H972 C980 0.950 . S
H973 C985 0.950 . S
H974 C982 0.950 . S
H975 C984 0.950 . S
H976 C986 0.950 . S
H977 C988 0.950 . S
H978 C990 0.950 . S
H979 C991 0.950 . S
C980 H972 0.950 . S
C980 C981 1.386 . S
C980 C982 1.391 . S
C981 C980 1.386 . S
C981 C985 1.393 . S
C982 H974 0.950 . S
C982 C980 1.391 . S
C982 C983 1.400 . S
C983 C982 1.400 . S
C983 C984 1.398 . S
C983 C989 1.491 . S
C984 H975 0.950 . S
C984 C983 1.398 . S
C984 C985 1.391 . S
C985 H973 0.950 . S
C985 C981 1.393 . S
C985 C984 1.391 . S
C986 H976 0.950 . S
C986 C987 1.386 . S
C986 C988 1.391 . S
C987 C986 1.386 . S
C987 C991 1.393 . S
C988 H977 0.950 . S
C988 C986 1.391 . S
C988 C989 1.400 . S
C989 C983 1.491 . S
C989 C988 1.400 . S
C989 C990 1.398 . S
C990 H978 0.950 . S
C990 C989 1.398 . S
C990 C991 1.391 . S
C991 H979 0.950 . S
C991 C987 1.393 . S
C991 C990 1.391 . S
H992 C1000 0.950 . S
H993 C1005 0.950 . S
H994 C1002 0.950 . S
H995 C1004 0.950 . S
H996 C1006 0.950 . S
H997 C1008 0.950 . S
H998 C1010 0.950 . S
H999 C1011 0.950 . S
C1000 H992 0.950 . S
C1000 C1001 1.386 . S
C1000 C1002 1.391 . S
C1001 C1000 1.386 . S
C1001 C1005 1.393 . S
C1002 H994 0.950 . S
C1002 C1000 1.391 . S
C1002 C1003 1.400 . S
C1003 C1002 1.400 . S
C1003 C1004 1.398 . S
C1003 C1009 1.491 . S
C1004 H995 0.950 . S
C1004 C1003 1.398 . S
C1004 C1005 1.391 . S
C1005 H993 0.950 . S
C1005 C1001 1.393 . S
C1005 C1004 1.391 . S
C1006 H996 0.950 . S
C1006 C1007 1.386 . S
C1006 C1008 1.391 . S
C1007 C1006 1.386 . S
C1007 C1011 1.393 . S
C1008 H997 0.950 . S
C1008 C1006 1.391 . S
C1008 C1009 1.400 . S
C1009 C1003 1.491 . S
C1009 C1008 1.400 . S
C1009 C1010 1.398 . S
C1010 H998 0.950 . S
C1010 C1009 1.398 . S
C1010 C1011 1.391 . S
C1011 H999 0.950 . S
C1011 C1007 1.393 . S
C1011 C1010 1.391 . S
H1012 C1020 0.950 . S
H1013 C1025 0.950 . S
H1014 C1022 0.950 . S
H1015 C1024 0.950 . S
H1016 C1026 0.950 . S
H1017 C1028 0.950 . S
H1018 C1030 0.950 . S
H1019 C1031 0.950 . S
C1020 H1012 0.950 . S
C1020 C1021 1.386 . S
C1020 C1022 1.391 . S
C1021 C1020 1.386 . S
C1021 C1025 1.393 . S
C1022 H1014 0.950 . S
C1022 C1020 1.391 . S
C1022 C1023 1.400 . S
C1023 C1022 1.400 . S
C1023 C1024 1.398 . S
C1023 C1029 1.491 . S
C1024 H1015 0.950 . S
C1024 C1023 1.398 . S
C1024 C1025 1.391 . S
C1025 H1013 0.950 . S
C1025 C1021 1.393 . S
C1025 C1024 1.391 . S
C1026 H1016 0.950 . S
C1026 C1027 1.386 . S
C1026 C1028 1.391 . S
C1027 C1026 1.386 . S
C1027 C1031 1.393 . S
C1028 H1017 0.950 . S
C1028 C1026 1.391 . S
C1028 C1029 1.400 . S
C1029 C1023 1.491 . S
C1029 C1028 1.400 . S
C1029 C1030 1.398 . S
C1030 H1018 0.950 . S
C1030 C1029 1.398 . S
C1030 C1031 1.391 . S
C1031 H1019 0.950 . S
C1031 C1027 1.393 . S
C1031 C1030 1.391 . S
H1032 C1040 0.950 . S
H1033 C1045 0.950 . S
H1034 C1042 0.950 . S
H1035 C1044 0.950 . S
H1036 C1046 0.950 . S
H1037 C1048 0.950 . S
H1038 C1050 0.950 . S
H1039 C1051 0.950 . S
C1040 H1032 0.950 . S
C1040 C1041 1.386 . S
C1040 C1042 1.391 . S
C1041 C1040 1.386 . S
C1041 C1045 1.393 . S
C1042 H1034 0.950 . S
C1042 C1040 1.391 . S
C1042 C1043 1.400 . S
C1043 C1042 1.400 . S
C1043 C1044 1.398 . S
C1043 C1049 1.491 . S
C1044 H1035 0.950 . S
C1044 C1043 1.398 . S
C1044 C1045 1.391 . S
C1045 H1033 0.950 . S
C1045 C1041 1.393 . S
C1045 C1044 1.391 . S
C1046 H1036 0.950 . S
C1046 C1047 1.386 . S
C1046 C1048 1.391 . S
C1047 C1046 1.386 . S
C1047 C1051 1.393 . S
C1048 H1037 0.950 . S
C1048 C1046 1.391 . S
C1048 C1049 1.400 . S
C1049 C1043 1.491 . S
C1049 C1048 1.400 . S
C1049 C1050 1.398 . S
C1050 H1038 0.950 . S
C1050 C1049 1.398 . S
C1050 C1051 1.391 . S
C1051 H1039 0.950 . S
C1051 C1047 1.393 . S
C1051 C1050 1.391 . S
H1052 C1060 0.950 . S
H1053 C1065 0.950 . S
H1054 C1062 0.950 . S
H1055 C1064 0.950 . S
H1056 C1066 0.950 . S
H1057 C1068 0.950 . S
H1058 C1070 0.950 . S
H1059 C1071 0.950 . S
C1060 H1052 0.950 . S
C1060 C1061 1.386 . S
C1060 C1062 1.391 . S
C1061 C1060 1.386 . S
C1061 C1065 1.393 . S
C1062 H1054 0.950 . S
C1062 C1060 1.391 . S
C1062 C1063 1.400 . S
C1063 C1062 1.400 . S
C1063 C1064 1.398 . S
C1063 C1069 1.491 . S
C1064 H1055 0.950 . S
C1064 C1063 1.398 . S
C1064 C1065 1.391 . S
C1065 H1053 0.950 . S
C1065 C1061 1.393 . S
C1065 C1064 1.391 . S
C1066 H1056 0.950 . S
C1066 C1067 1.386 . S
C1066 C1068 1.391 . S
C1067 C1066 1.386 . S
C1067 C1071 1.393 . S
C1068 H1057 0.950 . S
C1068 C1066 1.391 . S
C1068 C1069 1.400 . S
C1069 C1063 1.491 . S
C1069 C1068 1.400 . S
C1069 C1070 1.398 . S
C1070 H1058 0.950 . S
C1070 C1069 1.398 . S
C1070 C1071 1.391 . S
C1071 H1059 0.950 . S
C1071 C1067 1.393 . S
C1071 C1070 1.391 . S
H1072 C1080 0.950 . S
H1073 C1085 0.950 . S
H1074 C1082 0.950 . S
H1075 C1084 0.950 . S
H1076 C1086 0.950 . S
H1077 C1088 0.950 . S
H1078 C1090 0.950 . S
H1079 C1091 0.950 . S
C1080 H1072 0.950 . S
C1080 C1081 1.386 . S
C1080 C1082 1.391 . S
C1081 C1080 1.386 . S
C1081 C1085 1.393 . S
C1082 H1074 0.950 . S
C1082 C1080 1.391 . S
C1082 C1083 1.400 . S
C1083 C1082 1.400 . S
C1083 C1084 1.398 . S
C1083 C1089 1.491 . S
C1084 H1075 0.950 . S
C1084 C1083 1.398 . S
C1084 C1085 1.391 . S
C1085 H1073 0.950 . S
C1085 C1081 1.393 . S
C1085 C1084 1.391 . S
C1086 H1076 0.950 . S
C1086 C1087 1.386 . S
C1086 C1088 1.391 . S
C1087 C1086 1.386 . S
C1087 C1091 1.393 . S
C1088 H1077 0.950 . S
C1088 C1086 1.391 . S
C1088 C1089 1.400 . S
C1089 C1083 1.491 . S
C1089 C1088 1.400 . S
C1089 C1090 1.398 . S
C1090 H1078 0.950 . S
C1090 C1089 1.398 . S
C1090 C1091 1.391 . S
C1091 H1079 0.950 . S
C1091 C1087 1.393 . S
C1091 C1090 1.391 . S
H1092 C1100 0.950 . S
H1093 C1105 0.950 . S
H1094 C1102 0.950 . S
H1095 C1104 0.950 . S
H1096 C1106 0.950 . S
H1097 C1108 0.950 . S
H1098 C1110 0.950 . S
H1099 C1111 0.950 . S
C1100 H1092 0.950 . S
C1100 C1101 1.386 . S
C1100 C1102 1.391 . S
C1101 C1100 1.386 . S
C1101 C1105 1.393 . S
C1102 H1094 0.950 . S
C1102 C1100 1.391 . S
C1102 C1103 1.400 . S
C1103 C1102 1.400 . S
C1103 C1104 1.398 . S
C1103 C1109 1.491 . S
C1104 H1095 0.950 . S
C1104 C1103 1.398 . S
C1104 C1105 1.391 . S
C1105 H1093 0.950 . S
C1105 C1101 1.393 . S
C1105 C1104 1.391 . S
C1106 H1096 0.950 . S
C1106 C1107 1.386 . S
C1106 C1108 1.391 . S
C1107 C1106 1.386 . S
C1107 C1111 1.393 . S
C1108 H1097 0.950 . S
C1108 C1106 1.391 . S
C1108 C1109 1.400 . S
C1109 C1103 1.491 . S
C1109 C1108 1.400 . S
C1109 C1110 1.398 . S
C1110 H1098 0.950 . S
C1110 C1109 1.398 . S
C1110 C1111 1.391 . S
C1111 H1099 0.950 . S
C1111 C1107 1.393 . S
C1111 C1110 1.391 . S
H1112 C1120 0.950 . S
H1113 C1125 0.950 . S
H1114 C1122 0.950 . S
H1115 C1124 0.950 . S
H1116 C1126 0.950 . S
H1117 C1128 0.950 . S
H1118 C1130 0.950 . S
H1119 C1131 0.950 . S
C1120 H1112 0.950 . S
C1120 C1121 1.386 . S
C1120 C1122 1.391 . S
C1121 C1120 1.386 . S
C1121 C1125 1.393 . S
C1122 H1114 0.950 . S
C1122 C1120 1.391 . S
C1122 C1123 1.400 . S
C1123 C1122 1.400 . S
C1123 C1124 1.398 . S
C1123 C1129 1.491 . S
C1124 H1115 0.950 . S
C1124 C1123 1.398 . S
C1124 C1125 1.391 . S
C1125 H1113 0.950 . S
C1125 C1121 1.393 . S
C1125 C1124 1.391 . S
C1126 H1116 0.950 . S
C1126 C1127 1.386 . S
C1126 C1128 1.391 . S
C1127 C1126 1.386 . S
C1127 C1131 1.393 . S
C1128 H1117 0.950 . S
C1128 C1126 1.391 . S
C1128 C1129 1.400 . S
C1129 C1123 1.491 . S
C1129 C1128 1.400 . S
C1129 C1130 1.398 . S
C1130 H1118 0.950 . S
C1130 C1129 1.398 . S
C1130 C1131 1.391 . S
C1131 H1119 0.950 . S
C1131 C1127 1.393 . S
C1131 C1130 1.391 . S
H1132 C1140 0.950 . S
H1133 C1145 0.950 . S
H1134 C1142 0.950 . S
H1135 C1144 0.950 . S
H1136 C1146 0.950 . S
H1137 C1148 0.950 . S
H1138 C1150 0.950 . S
H1139 C1151 0.950 . S
C1140 H1132 0.950 . S
C1140 C1141 1.386 . S
C1140 C1142 1.391 . S
C1141 C1140 1.386 . S
C1141 C1145 1.393 . S
C1142 H1134 0.950 . S
C1142 C1140 1.391 . S
C1142 C1143 1.400 . S
C1143 C1142 1.400 . S
C1143 C1144 1.398 . S
C1143 C1149 1.491 . S
C1144 H1135 0.950 . S
C1144 C1143 1.398 . S
C1144 C1145 1.391 . S
C1145 H1133 0.950 . S
C1145 C1141 1.393 . S
C1145 C1144 1.391 . S
C1146 H1136 0.950 . S
C1146 C1147 1.386 . S
C1146 C1148 1.391 . S
C1147 C1146 1.386 . S
C1147 C1151 1.393 . S
C1148 H1137 0.950 . S
C1148 C1146 1.391 . S
C1148 C1149 1.400 . S
C1149 C1143 1.491 . S
C1149 C1148 1.400 . S
C1149 C1150 1.398 . S
C1150 H1138 0.950 . S
C1150 C1149 1.398 . S
C1150 C1151 1.391 . S
C1151 H1139 0.950 . S
C1151 C1147 1.393 . S
C1151 C1150 1.391 . S
H1152 C1160 0.950 . S
H1153 C1165 0.950 . S
H1154 C1162 0.950 . S
H1155 C1164 0.950 . S
H1156 C1166 0.950 . S
H1157 C1168 0.950 . S
H1158 C1170 0.950 . S
H1159 C1171 0.950 . S
C1160 H1152 0.950 . S
C1160 C1161 1.386 . S
C1160 C1162 1.391 . S
C1161 C1160 1.386 . S
C1161 C1165 1.393 . S
C1162 H1154 0.950 . S
C1162 C1160 1.391 . S
C1162 C1163 1.400 . S
C1163 C1162 1.400 . S
C1163 C1164 1.398 . S
C1163 C1169 1.491 . S
C1164 H1155 0.950 . S
C1164 C1163 1.398 . S
C1164 C1165 1.391 . S
C1165 H1153 0.950 . S
C1165 C1161 1.393 . S
C1165 C1164 1.391 . S
C1166 H1156 0.950 . S
C1166 C1167 1.386 . S
C1166 C1168 1.391 . S
C1167 C1166 1.386 . S
C1167 C1171 1.393 . S
C1168 H1157 0.950 . S
C1168 C1166 1.391 . S
C1168 C1169 1.400 . S
C1169 C1163 1.491 . S
C1169 C1168 1.400 . S
C1169 C1170 1.398 . S
C1170 H1158 0.950 . S
C1170 C1169 1.398 . S
C1170 C1171 1.391 . S
C1171 H1159 0.950 . S
C1171 C1167 1.393 . S
C1171 C1170 1.391 . S
H1172 C1180 0.950 . S
H1173 C1185 0.950 . S
H1174 C1182 0.950 . S
H1175 C1184 0.950 . S
H1176 C1186 0.950 . S
H1177 C1188 0.950 . S
H1178 C1190 0.950 . S
H1179 C1191 0.950 . S
C1180 H1172 0.950 . S
C1180 C1181 1.386 . S
C1180 C1182 1.391 . S
C1181 C1180 1.386 . S
C1181 C1185 1.393 . S
C1182 H1174 0.950 . S
C1182 C1180 1.391 . S
C1182 C1183 1.400 . S
C1183 C1182 1.400 . S
C1183 C1184 1.398 . S
C1183 C1189 1.491 1_556 S
C1184 H1175 0.950 . S
C1184 C1183 1.398 . S
C1184 C1185 1.391 . S
C1185 H1173 0.950 . S
C1185 C1181 1.393 . S
C1185 C1184 1.391 . S
C1186 H1176 0.950 . S
C1186 C1187 1.386 . S
C1186 C1188 1.391 . S
C1187 C1186 1.386 . S
C1187 C1191 1.393 . S
C1188 H1177 0.950 . S
C1188 C1186 1.391 . S
C1188 C1189 1.400 . S
C1189 C1183 1.491 1_554 S
C1189 C1188 1.400 . S
C1189 C1190 1.398 . S
C1190 H1178 0.950 . S
C1190 C1189 1.398 . S
C1190 C1191 1.391 . S
C1191 H1179 0.950 . S
C1191 C1187 1.393 . S
C1191 C1190 1.391 . S
H1192 C1200 0.950 . S
H1193 C1205 0.950 . S
H1194 C1202 0.950 . S
H1195 C1204 0.950 . S
H1196 C1206 0.950 . S
H1197 C1208 0.950 . S
H1198 C1210 0.950 . S
H1199 C1211 0.950 . S
C1200 H1192 0.950 . S
C1200 C1201 1.386 . S
C1200 C1202 1.391 . S
C1201 C1200 1.386 . S
C1201 C1205 1.393 . S
C1202 H1194 0.950 . S
C1202 C1200 1.391 . S
C1202 C1203 1.400 . S
C1203 C1202 1.400 . S
C1203 C1204 1.398 . S
C1203 C1209 1.491 . S
C1204 H1195 0.950 . S
C1204 C1203 1.398 . S
C1204 C1205 1.391 . S
C1205 H1193 0.950 . S
C1205 C1201 1.393 . S
C1205 C1204 1.391 . S
C1206 H1196 0.950 . S
C1206 C1207 1.386 . S
C1206 C1208 1.391 . S
C1207 C1206 1.386 . S
C1207 C1211 1.393 . S
C1208 H1197 0.950 . S
C1208 C1206 1.391 . S
C1208 C1209 1.400 . S
C1209 C1203 1.491 . S
C1209 C1208 1.400 . S
C1209 C1210 1.398 . S
C1210 H1198 0.950 . S
C1210 C1209 1.398 . S
C1210 C1211 1.391 . S
C1211 H1199 0.950 . S
C1211 C1207 1.393 . S
C1211 C1210 1.391 . S
H1212 C1220 0.950 . S
H1213 C1225 0.950 . S
H1214 C1222 0.950 . S
H1215 C1224 0.950 . S
H1216 C1226 0.950 . S
H1217 C1228 0.950 . S
H1218 C1230 0.950 . S
H1219 C1231 0.950 . S
C1220 H1212 0.950 . S
C1220 C1221 1.386 . S
C1220 C1222 1.391 . S
C1221 C1220 1.386 . S
C1221 C1225 1.393 . S
C1222 H1214 0.950 . S
C1222 C1220 1.391 . S
C1222 C1223 1.400 . S
C1223 C1222 1.400 . S
C1223 C1224 1.398 . S
C1223 C1229 1.491 1_556 S
C1224 H1215 0.950 . S
C1224 C1223 1.398 . S
C1224 C1225 1.391 . S
C1225 H1213 0.950 . S
C1225 C1221 1.393 . S
C1225 C1224 1.391 . S
C1226 H1216 0.950 . S
C1226 C1227 1.386 . S
C1226 C1228 1.391 . S
C1227 C1226 1.386 . S
C1227 C1231 1.393 . S
C1228 H1217 0.950 . S
C1228 C1226 1.391 . S
C1228 C1229 1.400 . S
C1229 C1223 1.491 1_554 S
C1229 C1228 1.400 . S
C1229 C1230 1.398 . S
C1230 H1218 0.950 . S
C1230 C1229 1.398 . S
C1230 C1231 1.391 . S
C1231 H1219 0.950 . S
C1231 C1227 1.393 . S
C1231 C1230 1.391 . S
H1232 C1240 0.950 . S
H1233 C1245 0.950 . S
H1234 C1242 0.950 . S
H1235 C1244 0.950 . S
H1236 C1246 0.950 . S
H1237 C1248 0.950 . S
H1238 C1250 0.950 . S
H1239 C1251 0.950 . S
C1240 H1232 0.950 . S
C1240 C1241 1.386 . S
C1240 C1242 1.391 . S
C1241 C1240 1.386 . S
C1241 C1245 1.393 . S
C1242 H1234 0.950 . S
C1242 C1240 1.391 . S
C1242 C1243 1.400 . S
C1243 C1242 1.400 . S
C1243 C1244 1.398 . S
C1243 C1249 1.491 . S
C1244 H1235 0.950 . S
C1244 C1243 1.398 . S
C1244 C1245 1.391 . S
C1245 H1233 0.950 . S
C1245 C1241 1.393 . S
C1245 C1244 1.391 . S
C1246 H1236 0.950 . S
C1246 C1247 1.386 . S
C1246 C1248 1.391 . S
C1247 C1246 1.386 . S
C1247 C1251 1.393 . S
C1248 H1237 0.950 . S
C1248 C1246 1.391 . S
C1248 C1249 1.400 . S
C1249 C1243 1.491 . S
C1249 C1248 1.400 . S
C1249 C1250 1.398 . S
C1250 H1238 0.950 . S
C1250 C1249 1.398 . S
C1250 C1251 1.391 . S
C1251 H1239 0.950 . S
C1251 C1247 1.393 . S
C1251 C1250 1.391 . S
H1252 C1260 0.950 . S
H1253 C1265 0.950 . S
H1254 C1262 0.950 . S
H1255 C1264 0.950 . S
H1256 C1266 0.950 . S
H1257 C1268 0.950 . S
H1258 C1270 0.950 . S
H1259 C1271 0.950 . S
C1260 H1252 0.950 . S
C1260 C1261 1.386 . S
C1260 C1262 1.391 . S
C1261 C1260 1.386 . S
C1261 C1265 1.393 . S
C1262 H1254 0.950 . S
C1262 C1260 1.391 . S
C1262 C1263 1.400 . S
C1263 C1262 1.400 . S
C1263 C1264 1.398 . S
C1263 C1269 1.491 1_556 S
C1264 H1255 0.950 . S
C1264 C1263 1.398 . S
C1264 C1265 1.391 . S
C1265 H1253 0.950 . S
C1265 C1261 1.393 . S
C1265 C1264 1.391 . S
C1266 H1256 0.950 . S
C1266 C1267 1.386 . S
C1266 C1268 1.391 . S
C1267 C1266 1.386 . S
C1267 C1271 1.393 . S
C1268 H1257 0.950 . S
C1268 C1266 1.391 . S
C1268 C1269 1.400 . S
C1269 C1263 1.491 1_554 S
C1269 C1268 1.400 . S
C1269 C1270 1.398 . S
C1270 H1258 0.950 . S
C1270 C1269 1.398 . S
C1270 C1271 1.391 . S
C1271 H1259 0.950 . S
C1271 C1267 1.393 . S
C1271 C1270 1.391 . S
H1272 C1280 0.950 . S
H1273 C1285 0.950 . S
H1274 C1282 0.950 . S
H1275 C1284 0.950 . S
H1276 C1286 0.950 . S
H1277 C1288 0.950 . S
H1278 C1290 0.950 . S
H1279 C1291 0.950 . S
C1280 H1272 0.950 . S
C1280 C1281 1.386 . S
C1280 C1282 1.391 . S
C1281 C1280 1.386 . S
C1281 C1285 1.393 . S
C1282 H1274 0.950 . S
C1282 C1280 1.391 . S
C1282 C1283 1.400 . S
C1283 C1282 1.400 . S
C1283 C1284 1.398 . S
C1283 C1289 1.491 . S
C1284 H1275 0.950 . S
C1284 C1283 1.398 . S
C1284 C1285 1.391 . S
C1285 H1273 0.950 . S
C1285 C1281 1.393 . S
C1285 C1284 1.391 . S
C1286 H1276 0.950 . S
C1286 C1287 1.386 . S
C1286 C1288 1.391 . S
C1287 C1286 1.386 . S
C1287 C1291 1.393 . S
C1288 H1277 0.950 . S
C1288 C1286 1.391 . S
C1288 C1289 1.400 . S
C1289 C1283 1.491 . S
C1289 C1288 1.400 . S
C1289 C1290 1.398 . S
C1290 H1278 0.950 . S
C1290 C1289 1.398 . S
C1290 C1291 1.391 . S
C1291 H1279 0.950 . S
C1291 C1287 1.393 . S
C1291 C1290 1.391 . S
H1292 C1300 0.950 . S
H1293 C1305 0.950 . S
H1294 C1302 0.950 . S
H1295 C1304 0.950 . S
H1296 C1306 0.950 . S
H1297 C1308 0.950 . S
H1298 C1310 0.950 . S
H1299 C1311 0.950 . S
C1300 H1292 0.950 . S
C1300 C1301 1.386 . S
C1300 C1302 1.391 . S
C1301 C1300 1.386 . S
C1301 C1305 1.393 . S
C1302 H1294 0.950 . S
C1302 C1300 1.391 . S
C1302 C1303 1.400 . S
C1303 C1302 1.400 . S
C1303 C1304 1.398 . S
C1303 C1309 1.491 1_556 S
C1304 H1295 0.950 . S
C1304 C1303 1.398 . S
C1304 C1305 1.391 . S
C1305 H1293 0.950 . S
C1305 C1301 1.393 . S
C1305 C1304 1.391 . S
C1306 H1296 0.950 . S
C1306 C1307 1.386 . S
C1306 C1308 1.391 . S
C1307 C1306 1.386 . S
C1307 C1311 1.393 . S
C1308 H1297 0.950 . S
C1308 C1306 1.391 . S
C1308 C1309 1.400 . S
C1309 C1303 1.491 1_554 S
C1309 C1308 1.400 . S
C1309 C1310 1.398 . S
C1310 H1298 0.950 . S
C1310 C1309 1.398 . S
C1310 C1311 1.391 . S
C1311 H1299 0.950 . S
C1311 C1307 1.393 . S
C1311 C1310 1.391 . S
H1312 C1320 0.950 . S
H1313 C1325 0.950 . S
H1314 C1322 0.950 . S
H1315 C1324 0.950 . S
H1316 C1326 0.950 . S
H1317 C1328 0.950 . S
H1318 C1330 0.950 . S
H1319 C1331 0.950 . S
C1320 H1312 0.950 . S
C1320 C1321 1.386 . S
C1320 C1322 1.391 . S
C1321 C1320 1.386 . S
C1321 C1325 1.393 . S
C1322 H1314 0.950 . S
C1322 C1320 1.391 . S
C1322 C1323 1.400 . S
C1323 C1322 1.400 . S
C1323 C1324 1.398 . S
C1323 C1329 1.491 . S
C1324 H1315 0.950 . S
C1324 C1323 1.398 . S
C1324 C1325 1.391 . S
C1325 H1313 0.950 . S
C1325 C1321 1.393 . S
C1325 C1324 1.391 . S
C1326 H1316 0.950 . S
C1326 C1327 1.386 . S
C1326 C1328 1.391 . S
C1327 C1326 1.386 . S
C1327 C1331 1.393 . S
C1328 H1317 0.950 . S
C1328 C1326 1.391 . S
C1328 C1329 1.400 . S
C1329 C1323 1.491 . S
C1329 C1328 1.400 . S
C1329 C1330 1.398 . S
C1330 H1318 0.950 . S
C1330 C1329 1.398 . S
C1330 C1331 1.391 . S
C1331 H1319 0.950 . S
C1331 C1327 1.393 . S
C1331 C1330 1.391 . S
H1332 C1340 0.950 . S
H1333 C1345 0.950 . S
H1334 C1342 0.950 . S
H1335 C1344 0.950 . S
H1336 C1346 0.950 . S
H1337 C1348 0.950 . S
H1338 C1350 0.950 . S
H1339 C1351 0.950 . S
C1340 H1332 0.950 . S
C1340 C1341 1.386 . S
C1340 C1342 1.391 . S
C1341 C1340 1.386 . S
C1341 C1345 1.393 . S
C1342 H1334 0.950 . S
C1342 C1340 1.391 . S
C1342 C1343 1.400 . S
C1343 C1342 1.400 . S
C1343 C1344 1.398 . S
C1343 C1349 1.491 1_565 S
C1344 H1335 0.950 . S
C1344 C1343 1.398 . S
C1344 C1345 1.391 . S
C1345 H1333 0.950 . S
C1345 C1341 1.393 . S
C1345 C1344 1.391 . S
C1346 H1336 0.950 . S
C1346 C1347 1.386 . S
C1346 C1348 1.391 . S
C1347 C1346 1.386 . S
C1347 C1351 1.393 . S
C1348 H1337 0.950 . S
C1348 C1346 1.391 . S
C1348 C1349 1.400 . S
C1349 C1343 1.491 1_545 S
C1349 C1348 1.400 . S
C1349 C1350 1.398 . S
C1350 H1338 0.950 . S
C1350 C1349 1.398 . S
C1350 C1351 1.391 . S
C1351 H1339 0.950 . S
C1351 C1347 1.393 . S
C1351 C1350 1.391 . S
H1352 C1360 0.950 . S
H1353 C1365 0.950 . S
H1354 C1362 0.950 . S
H1355 C1364 0.950 . S
H1356 C1366 0.950 . S
H1357 C1368 0.950 . S
H1358 C1370 0.950 . S
H1359 C1371 0.950 . S
C1360 H1352 0.950 . S
C1360 C1361 1.386 . S
C1360 C1362 1.391 . S
C1361 C1360 1.386 . S
C1361 C1365 1.393 . S
C1362 H1354 0.950 . S
C1362 C1360 1.391 . S
C1362 C1363 1.400 . S
C1363 C1362 1.400 . S
C1363 C1364 1.398 . S
C1363 C1369 1.491 . S
C1364 H1355 0.950 . S
C1364 C1363 1.398 . S
C1364 C1365 1.391 . S
C1365 H1353 0.950 . S
C1365 C1361 1.393 . S
C1365 C1364 1.391 . S
C1366 H1356 0.950 . S
C1366 C1367 1.386 . S
C1366 C1368 1.391 . S
C1367 C1366 1.386 . S
C1367 C1371 1.393 . S
C1368 H1357 0.950 . S
C1368 C1366 1.391 . S
C1368 C1369 1.400 . S
C1369 C1363 1.491 . S
C1369 C1368 1.400 . S
C1369 C1370 1.398 . S
C1370 H1358 0.950 . S
C1370 C1369 1.398 . S
C1370 C1371 1.391 . S
C1371 H1359 0.950 . S
C1371 C1367 1.393 . S
C1371 C1370 1.391 . S
H1372 C1380 0.950 . S
H1373 C1385 0.950 . S
H1374 C1382 0.950 . S
H1375 C1384 0.950 . S
H1376 C1386 0.950 . S
H1377 C1388 0.950 . S
H1378 C1390 0.950 . S
H1379 C1391 0.950 . S
C1380 H1372 0.950 . S
C1380 C1381 1.386 . S
C1380 C1382 1.391 . S
C1381 C1380 1.386 . S
C1381 C1385 1.393 . S
C1382 H1374 0.950 . S
C1382 C1380 1.391 . S
C1382 C1383 1.400 . S
C1383 C1382 1.400 . S
C1383 C1384 1.398 . S
C1383 C1389 1.491 1_545 S
C1384 H1375 0.950 . S
C1384 C1383 1.398 . S
C1384 C1385 1.391 . S
C1385 H1373 0.950 . S
C1385 C1381 1.393 . S
C1385 C1384 1.391 . S
C1386 H1376 0.950 . S
C1386 C1387 1.386 . S
C1386 C1388 1.391 . S
C1387 C1386 1.386 . S
C1387 C1391 1.393 . S
C1388 H1377 0.950 . S
C1388 C1386 1.391 . S
C1388 C1389 1.400 . S
C1389 C1383 1.491 1_565 S
C1389 C1388 1.400 . S
C1389 C1390 1.398 . S
C1390 H1378 0.950 . S
C1390 C1389 1.398 . S
C1390 C1391 1.391 . S
C1391 H1379 0.950 . S
C1391 C1387 1.393 . S
C1391 C1390 1.391 . S
H1392 C1400 0.950 . S
H1393 C1405 0.950 . S
H1394 C1402 0.950 . S
H1395 C1404 0.950 . S
H1396 C1406 0.950 . S
H1397 C1408 0.950 . S
H1398 C1410 0.950 . S
H1399 C1411 0.950 . S
C1400 H1392 0.950 . S
C1400 C1401 1.386 . S
C1400 C1402 1.391 . S
C1401 C1400 1.386 . S
C1401 C1405 1.393 . S
C1402 H1394 0.950 . S
C1402 C1400 1.391 . S
C1402 C1403 1.400 . S
C1403 C1402 1.400 . S
C1403 C1404 1.398 . S
C1403 C1409 1.491 . S
C1404 H1395 0.950 . S
C1404 C1403 1.398 . S
C1404 C1405 1.391 . S
C1405 H1393 0.950 . S
C1405 C1401 1.393 . S
C1405 C1404 1.391 . S
C1406 H1396 0.950 . S
C1406 C1407 1.386 . S
C1406 C1408 1.391 . S
C1407 C1406 1.386 . S
C1407 C1411 1.393 . S
C1408 H1397 0.950 . S
C1408 C1406 1.391 . S
C1408 C1409 1.400 . S
C1409 C1403 1.491 . S
C1409 C1408 1.400 . S
C1409 C1410 1.398 . S
C1410 H1398 0.950 . S
C1410 C1409 1.398 . S
C1410 C1411 1.391 . S
C1411 H1399 0.950 . S
C1411 C1407 1.393 . S
C1411 C1410 1.391 . S
H1412 C1420 0.950 . S
H1413 C1425 0.950 . S
H1414 C1422 0.950 . S
H1415 C1424 0.950 . S
H1416 C1426 0.950 . S
H1417 C1428 0.950 . S
H1418 C1430 0.950 . S
H1419 C1431 0.950 . S
C1420 H1412 0.950 . S
C1420 C1421 1.386 . S
C1420 C1422 1.391 . S
C1421 C1420 1.386 . S
C1421 C1425 1.393 . S
C1422 H1414 0.950 . S
C1422 C1420 1.391 . S
C1422 C1423 1.400 . S
C1423 C1422 1.400 . S
C1423 C1424 1.398 . S
C1423 C1429 1.491 1_565 S
C1424 H1415 0.950 . S
C1424 C1423 1.398 . S
C1424 C1425 1.391 . S
C1425 H1413 0.950 . S
C1425 C1421 1.393 . S
C1425 C1424 1.391 . S
C1426 H1416 0.950 . S
C1426 C1427 1.386 . S
C1426 C1428 1.391 . S
C1427 C1426 1.386 . S
C1427 C1431 1.393 . S
C1428 H1417 0.950 . S
C1428 C1426 1.391 . S
C1428 C1429 1.400 . S
C1429 C1423 1.491 1_545 S
C1429 C1428 1.400 . S
C1429 C1430 1.398 . S
C1430 H1418 0.950 . S
C1430 C1429 1.398 . S
C1430 C1431 1.391 . S
C1431 H1419 0.950 . S
C1431 C1427 1.393 . S
C1431 C1430 1.391 . S
H1432 C1440 0.950 . S
H1433 C1445 0.950 . S
H1434 C1442 0.950 . S
H1435 C1444 0.950 . S
H1436 C1446 0.950 . S
H1437 C1448 0.950 . S
H1438 C1450 0.950 . S
H1439 C1451 0.950 . S
C1440 H1432 0.950 . S
C1440 C1441 1.386 . S
C1440 C1442 1.391 . S
C1441 C1440 1.386 . S
C1441 C1445 1.393 . S
C1442 H1434 0.950 . S
C1442 C1440 1.391 . S
C1442 C1443 1.400 . S
C1443 C1442 1.400 . S
C1443 C1444 1.398 . S
C1443 C1449 1.491 . S
C1444 H1435 0.950 . S
C1444 C1443 1.398 . S
C1444 C1445 1.391 . S
C1445 H1433 0.950 . S
C1445 C1441 1.393 . S
C1445 C1444 1.391 . S
C1446 H1436 0.950 . S
C1446 C1447 1.386 . S
C1446 C1448 1.391 . S
C1447 C1446 1.386 . S
C1447 C1451 1.393 . S
C1448 H1437 0.950 . S
C1448 C1446 1.391 . S
C1448 C1449 1.400 . S
C1449 C1443 1.491 . S
C1449 C1448 1.400 . S
C1449 C1450 1.398 . S
C1450 H1438 0.950 . S
C1450 C1449 1.398 . S
C1450 C1451 1.391 . S
C1451 H1439 0.950 . S
C1451 C1447 1.393 . S
C1451 C1450 1.391 . S
H1452 C1460 0.950 . S
H1453 C1465 0.950 . S
H1454 C1462 0.950 . S
H1455 C1464 0.950 . S
H1456 C1466 0.950 . S
H1457 C1468 0.950 . S
H1458 C1470 0.950 . S
H1459 C1471 0.950 . S
C1460 H1452 0.950 . S
C1460 C1461 1.386 . S
C1460 C1462 1.391 . S
C1461 C1460 1.386 . S
C1461 C1465 1.393 . S
C1462 H1454 0.950 . S
C1462 C1460 1.391 . S
C1462 C1463 1.400 . S
C1463 C1462 1.400 . S
C1463 C1464 1.398 . S
C1463 C1469 1.491 1_565 S
C1464 H1455 0.950 . S
C1464 C1463 1.398 . S
C1464 C1465 1.391 . S
C1465 H1453 0.950 . S
C1465 C1461 1.393 . S
C1465 C1464 1.391 . S
C1466 H1456 0.950 . S
C1466 C1467 1.386 . S
C1466 C1468 1.391 . S
C1467 C1466 1.386 . S
C1467 C1471 1.393 . S
C1468 H1457 0.950 . S
C1468 C1466 1.391 . S
C1468 C1469 1.400 . S
C1469 C1463 1.491 1_545 S
C1469 C1468 1.400 . S
C1469 C1470 1.398 . S
C1470 H1458 0.950 . S
C1470 C1469 1.398 . S
C1470 C1471 1.391 . S
C1471 H1459 0.950 . S
C1471 C1467 1.393 . S
C1471 C1470 1.391 . S
H1472 C1480 0.950 . S
H1473 C1485 0.950 . S
H1474 C1482 0.950 . S
H1475 C1484 0.950 . S
H1476 C1486 0.950 . S
H1477 C1488 0.950 . S
H1478 C1490 0.950 . S
H1479 C1491 0.950 . S
C1480 H1472 0.950 . S
C1480 C1481 1.386 . S
C1480 C1482 1.391 . S
C1481 C1480 1.386 . S
C1481 C1485 1.393 . S
C1482 H1474 0.950 . S
C1482 C1480 1.391 . S
C1482 C1483 1.400 . S
C1483 C1482 1.400 . S
C1483 C1484 1.398 . S
C1483 C1489 1.491 . S
C1484 H1475 0.950 . S
C1484 C1483 1.398 . S
C1484 C1485 1.391 . S
C1485 H1473 0.950 . S
C1485 C1481 1.393 . S
C1485 C1484 1.391 . S
C1486 H1476 0.950 . S
C1486 C1487 1.386 . S
C1486 C1488 1.391 . S
C1487 C1486 1.386 . S
C1487 C1491 1.393 . S
C1488 H1477 0.950 . S
C1488 C1486 1.391 . S
C1488 C1489 1.400 . S
C1489 C1483 1.491 . S
C1489 C1488 1.400 . S
C1489 C1490 1.398 . S
C1490 H1478 0.950 . S
C1490 C1489 1.398 . S
C1490 C1491 1.391 . S
C1491 H1479 0.950 . S
C1491 C1487 1.393 . S
C1491 C1490 1.391 . S
H1492 C1500 0.950 . S
H1493 C1505 0.950 . S
H1494 C1502 0.950 . S
H1495 C1504 0.950 . S
H1496 C1506 0.950 . S
H1497 C1508 0.950 . S
H1498 C1510 0.950 . S
H1499 C1511 0.950 . S
C1500 H1492 0.950 . S
C1500 C1501 1.386 . S
C1500 C1502 1.391 . S
C1501 C1500 1.386 . S
C1501 C1505 1.393 . S
C1502 H1494 0.950 . S
C1502 C1500 1.391 . S
C1502 C1503 1.400 . S
C1503 C1502 1.400 . S
C1503 C1504 1.398 . S
C1503 C1509 1.491 . S
C1504 H1495 0.950 . S
C1504 C1503 1.398 . S
C1504 C1505 1.391 . S
C1505 H1493 0.950 . S
C1505 C1501 1.393 . S
C1505 C1504 1.391 . S
C1506 H1496 0.950 . S
C1506 C1507 1.386 . S
C1506 C1508 1.391 . S
C1507 C1506 1.386 . S
C1507 C1511 1.393 . S
C1508 H1497 0.950 . S
C1508 C1506 1.391 . S
C1508 C1509 1.400 . S
C1509 C1503 1.491 . S
C1509 C1508 1.400 . S
C1509 C1510 1.398 . S
C1510 H1498 0.950 . S
C1510 C1509 1.398 . S
C1510 C1511 1.391 . S
C1511 H1499 0.950 . S
C1511 C1507 1.393 . S
C1511 C1510 1.391 . S
H1512 C1520 0.950 . S
H1513 C1525 0.950 . S
H1514 C1522 0.950 . S
H1515 C1524 0.950 . S
H1516 C1526 0.950 . S
H1517 C1528 0.950 1_455 S
H1518 C1530 0.950 1_455 S
H1519 C1531 0.950 . S
C1520 H1512 0.950 . S
C1520 C1521 1.386 . S
C1520 C1522 1.391 . S
C1521 C1520 1.386 . S
C1521 C1525 1.393 . S
C1522 H1514 0.950 . S
C1522 C1520 1.391 . S
C1522 C1523 1.400 . S
C1523 C1522 1.400 . S
C1523 C1524 1.398 . S
C1523 C1529 1.491 . S
C1524 H1515 0.950 . S
C1524 C1523 1.398 . S
C1524 C1525 1.391 . S
C1525 H1513 0.950 . S
C1525 C1521 1.393 . S
C1525 C1524 1.391 . S
C1526 H1516 0.950 . S
C1526 C1527 1.386 . S
C1526 C1528 1.391 . S
C1527 C1526 1.386 . S
C1527 C1531 1.393 . S
C1528 H1517 0.950 1_655 S
C1528 C1526 1.391 . S
C1528 C1529 1.400 1_655 S
C1529 C1523 1.491 . S
C1529 C1528 1.400 1_455 S
C1529 C1530 1.398 1_455 S
C1530 H1518 0.950 1_655 S
C1530 C1529 1.398 1_655 S
C1530 C1531 1.391 . S
C1531 H1519 0.950 . S
C1531 C1527 1.393 . S
C1531 C1530 1.391 . S
H1532 C1540 0.950 . S
H1533 C1545 0.950 . S
H1534 C1542 0.950 . S
H1535 C1544 0.950 . S
H1536 C1546 0.950 . S
H1537 C1548 0.950 . S
H1538 C1550 0.950 . S
H1539 C1551 0.950 . S
C1540 H1532 0.950 . S
C1540 C1541 1.386 . S
C1540 C1542 1.391 . S
C1541 C1540 1.386 . S
C1541 C1545 1.393 . S
C1542 H1534 0.950 . S
C1542 C1540 1.391 . S
C1542 C1543 1.400 . S
C1543 C1542 1.400 . S
C1543 C1544 1.398 . S
C1543 C1549 1.491 . S
C1544 H1535 0.950 . S
C1544 C1543 1.398 . S
C1544 C1545 1.391 . S
C1545 H1533 0.950 . S
C1545 C1541 1.393 . S
C1545 C1544 1.391 . S
C1546 H1536 0.950 . S
C1546 C1547 1.386 . S
C1546 C1548 1.391 . S
C1547 C1546 1.386 . S
C1547 C1551 1.393 . S
C1548 H1537 0.950 . S
C1548 C1546 1.391 . S
C1548 C1549 1.400 . S
C1549 C1543 1.491 . S
C1549 C1548 1.400 . S
C1549 C1550 1.398 . S
C1550 H1538 0.950 . S
C1550 C1549 1.398 . S
C1550 C1551 1.391 . S
C1551 H1539 0.950 . S
C1551 C1547 1.393 . S
C1551 C1550 1.391 . S
H1552 C1560 0.950 . S
H1553 C1565 0.950 . S
H1554 C1562 0.950 1_655 S
H1555 C1564 0.950 1_655 S
H1556 C1566 0.950 . S
H1557 C1568 0.950 . S
H1558 C1570 0.950 . S
H1559 C1571 0.950 . S
C1560 H1552 0.950 . S
C1560 C1561 1.386 . S
C1560 C1562 1.391 . S
C1561 C1560 1.386 . S
C1561 C1565 1.393 . S
C1562 H1554 0.950 1_455 S
C1562 C1560 1.391 . S
C1562 C1563 1.400 1_455 S
C1563 C1562 1.400 1_655 S
C1563 C1564 1.398 1_655 S
C1563 C1569 1.491 . S
C1564 H1555 0.950 1_455 S
C1564 C1563 1.398 1_455 S
C1564 C1565 1.391 . S
C1565 H1553 0.950 . S
C1565 C1561 1.393 . S
C1565 C1564 1.391 . S
C1566 H1556 0.950 . S
C1566 C1567 1.386 . S
C1566 C1568 1.391 . S
C1567 C1566 1.386 . S
C1567 C1571 1.393 . S
C1568 H1557 0.950 . S
C1568 C1566 1.391 . S
C1568 C1569 1.400 . S
C1569 C1563 1.491 . S
C1569 C1568 1.400 . S
C1569 C1570 1.398 . S
C1570 H1558 0.950 . S
C1570 C1569 1.398 . S
C1570 C1571 1.391 . S
C1571 H1559 0.950 . S
C1571 C1567 1.393 . S
C1571 C1570 1.391 . S
H1572 C1580 0.950 . S
H1573 C1585 0.950 . S
H1574 C1582 0.950 . S
H1575 C1584 0.950 . S
H1576 C1586 0.950 . S
H1577 C1588 0.950 . S
H1578 C1590 0.950 . S
H1579 C1591 0.950 . S
C1580 H1572 0.950 . S
C1580 C1581 1.386 . S
C1580 C1582 1.391 . S
C1581 C1580 1.386 . S
C1581 C1585 1.393 . S
C1582 H1574 0.950 . S
C1582 C1580 1.391 . S
C1582 C1583 1.400 . S
C1583 C1582 1.400 . S
C1583 C1584 1.398 . S
C1583 C1589 1.491 . S
C1584 H1575 0.950 . S
C1584 C1583 1.398 . S
C1584 C1585 1.391 . S
C1585 H1573 0.950 . S
C1585 C1581 1.393 . S
C1585 C1584 1.391 . S
C1586 H1576 0.950 . S
C1586 C1587 1.386 . S
C1586 C1588 1.391 . S
C1587 C1586 1.386 . S
C1587 C1591 1.393 . S
C1588 H1577 0.950 . S
C1588 C1586 1.391 . S
C1588 C1589 1.400 . S
C1589 C1583 1.491 . S
C1589 C1588 1.400 . S
C1589 C1590 1.398 . S
C1590 H1578 0.950 . S
C1590 C1589 1.398 . S
C1590 C1591 1.391 . S
C1591 H1579 0.950 . S
C1591 C1587 1.393 . S
C1591 C1590 1.391 . S
H1592 C1600 0.950 . S
H1593 C1605 0.950 . S
H1594 C1602 0.950 . S
H1595 C1604 0.950 . S
H1596 C1606 0.950 . S
H1597 C1608 0.950 . S
H1598 C1610 0.950 . S
H1599 C1611 0.950 . S
C1600 H1592 0.950 . S
C1600 C1601 1.386 . S
C1600 C1602 1.391 . S
C1601 C1600 1.386 . S
C1601 C1605 1.393 . S
C1602 H1594 0.950 . S
C1602 C1600 1.391 . S
C1602 C1603 1.400 . S
C1603 C1602 1.400 . S
C1603 C1604 1.398 . S
C1603 C1609 1.491 1_655 S
C1604 H1595 0.950 . S
C1604 C1603 1.398 . S
C1604 C1605 1.391 . S
C1605 H1593 0.950 . S
C1605 C1601 1.393 . S
C1605 C1604 1.391 . S
C1606 H1596 0.950 . S
C1606 C1607 1.386 . S
C1606 C1608 1.391 . S
C1607 C1606 1.386 . S
C1607 C1611 1.393 . S
C1608 H1597 0.950 . S
C1608 C1606 1.391 . S
C1608 C1609 1.400 . S
C1609 C1603 1.491 1_455 S
C1609 C1608 1.400 . S
C1609 C1610 1.398 . S
C1610 H1598 0.950 . S
C1610 C1609 1.398 . S
C1610 C1611 1.391 . S
C1611 H1599 0.950 . S
C1611 C1607 1.393 . S
C1611 C1610 1.391 . S
H1612 C1620 0.950 . S
H1613 C1625 0.950 . S
H1614 C1622 0.950 . S
H1615 C1624 0.950 . S
H1616 C1626 0.950 . S
H1617 C1628 0.950 . S
H1618 C1630 0.950 . S
H1619 C1631 0.950 . S
C1620 H1612 0.950 . S
C1620 C1621 1.386 . S
C1620 C1622 1.391 . S
C1621 C1620 1.386 . S
C1621 C1625 1.393 . S
C1622 H1614 0.950 . S
C1622 C1620 1.391 . S
C1622 C1623 1.400 . S
C1623 C1622 1.400 . S
C1623 C1624 1.398 . S
C1623 C1629 1.491 1_455 S
C1624 H1615 0.950 . S
C1624 C1623 1.398 . S
C1624 C1625 1.391 . S
C1625 H1613 0.950 . S
C1625 C1621 1.393 . S
C1625 C1624 1.391 . S
C1626 H1616 0.950 . S
C1626 C1627 1.386 . S
C1626 C1628 1.391 . S
C1627 C1626 1.386 . S
C1627 C1631 1.393 . S
C1628 H1617 0.950 . S
C1628 C1626 1.391 . S
C1628 C1629 1.400 . S
C1629 C1623 1.491 1_655 S
C1629 C1628 1.400 . S
C1629 C1630 1.398 . S
C1630 H1618 0.950 . S
C1630 C1629 1.398 . S
C1630 C1631 1.391 . S
C1631 H1619 0.950 . S
C1631 C1627 1.393 . S
C1631 C1630 1.391 . S
H1632 C1640 0.950 . S
H1633 C1645 0.950 . S
H1634 C1642 0.950 . S
H1635 C1644 0.950 . S
H1636 C1646 0.950 . S
H1637 C1648 0.950 . S
H1638 C1650 0.950 . S
H1639 C1651 0.950 . S
C1640 H1632 0.950 . S
C1640 C1641 1.386 . S
C1640 C1642 1.391 . S
C1641 C1640 1.386 . S
C1641 C1645 1.393 . S
C1642 H1634 0.950 . S
C1642 C1640 1.391 . S
C1642 C1643 1.400 . S
C1643 C1642 1.400 . S
C1643 C1644 1.398 . S
C1643 C1649 1.491 1_655 S
C1644 H1635 0.950 . S
C1644 C1643 1.398 . S
C1644 C1645 1.391 . S
C1645 H1633 0.950 . S
C1645 C1641 1.393 . S
C1645 C1644 1.391 . S
C1646 H1636 0.950 . S
C1646 C1647 1.386 . S
C1646 C1648 1.391 . S
C1647 C1646 1.386 . S
C1647 C1651 1.393 . S
C1648 H1637 0.950 . S
C1648 C1646 1.391 . S
C1648 C1649 1.400 . S
C1649 C1643 1.491 1_455 S
C1649 C1648 1.400 . S
C1649 C1650 1.398 . S
C1650 H1638 0.950 . S
C1650 C1649 1.398 . S
C1650 C1651 1.391 . S
C1651 H1639 0.950 . S
C1651 C1647 1.393 . S
C1651 C1650 1.391 . S
H1652 C1660 0.950 . S
H1653 C1665 0.950 . S
H1654 C1662 0.950 . S
H1655 C1664 0.950 . S
H1656 C1666 0.950 . S
H1657 C1668 0.950 . S
H1658 C1670 0.950 . S
H1659 C1671 0.950 . S
C1660 H1652 0.950 . S
C1660 C1661 1.386 . S
C1660 C1662 1.391 . S
C1661 C1660 1.386 . S
C1661 C1665 1.393 . S
C1662 H1654 0.950 . S
C1662 C1660 1.391 . S
C1662 C1663 1.400 . S
C1663 C1662 1.400 . S
C1663 C1664 1.398 . S
C1663 C1669 1.491 . S
C1664 H1655 0.950 . S
C1664 C1663 1.398 . S
C1664 C1665 1.391 . S
C1665 H1653 0.950 . S
C1665 C1661 1.393 . S
C1665 C1664 1.391 . S
C1666 H1656 0.950 . S
C1666 C1667 1.386 . S
C1666 C1668 1.391 . S
C1667 C1666 1.386 . S
C1667 C1671 1.393 . S
C1668 H1657 0.950 . S
C1668 C1666 1.391 . S
C1668 C1669 1.400 . S
C1669 C1663 1.491 . S
C1669 C1668 1.400 . S
C1669 C1670 1.398 . S
C1670 H1658 0.950 . S
C1670 C1669 1.398 . S
C1670 C1671 1.391 . S
C1671 H1659 0.950 . S
C1671 C1667 1.393 . S
C1671 C1670 1.391 . S
H1672 C1680 0.950 . S
H1673 C1685 0.950 . S
H1674 C1682 0.950 . S
H1675 C1684 0.950 . S
H1676 C1686 0.950 . S
H1677 C1688 0.950 . S
H1678 C1690 0.950 . S
H1679 C1691 0.950 . S
C1680 H1672 0.950 . S
C1680 C1681 1.386 . S
C1680 C1682 1.391 . S
C1681 C1680 1.386 . S
C1681 C1685 1.393 . S
C1682 H1674 0.950 . S
C1682 C1680 1.391 . S
C1682 C1683 1.400 . S
C1683 C1682 1.400 . S
C1683 C1684 1.398 . S
C1683 C1689 1.491 1_455 S
C1684 H1675 0.950 . S
C1684 C1683 1.398 . S
C1684 C1685 1.391 . S
C1685 H1673 0.950 . S
C1685 C1681 1.393 . S
C1685 C1684 1.391 . S
C1686 H1676 0.950 . S
C1686 C1687 1.386 . S
C1686 C1688 1.391 . S
C1687 C1686 1.386 . S
C1687 C1691 1.393 . S
C1688 H1677 0.950 . S
C1688 C1686 1.391 . S
C1688 C1689 1.400 . S
C1689 C1683 1.491 1_655 S
C1689 C1688 1.400 . S
C1689 C1690 1.398 . S
C1690 H1678 0.950 . S
C1690 C1689 1.398 . S
C1690 C1691 1.391 . S
C1691 H1679 0.950 . S
C1691 C1687 1.393 . S
C1691 C1690 1.391 . S
H1692 C1700 0.950 . S
H1693 C1705 0.950 . S
H1694 C1702 0.950 . S
H1695 C1704 0.950 . S
H1696 C1706 0.950 . S
H1697 C1708 0.950 . S
H1698 C1710 0.950 . S
H1699 C1711 0.950 . S
C1700 H1692 0.950 . S
C1700 C1701 1.386 . S
C1700 C1702 1.391 . S
C1701 C1700 1.386 . S
C1701 C1705 1.393 . S
C1702 H1694 0.950 . S
C1702 C1700 1.391 . S
C1702 C1703 1.400 . S
C1703 C1702 1.400 . S
C1703 C1704 1.398 . S
C1703 C1709 1.491 . S
C1704 H1695 0.950 . S
C1704 C1703 1.398 . S
C1704 C1705 1.391 . S
C1705 H1693 0.950 . S
C1705 C1701 1.393 . S
C1705 C1704 1.391 . S
C1706 H1696 0.950 . S
C1706 C1707 1.386 . S
C1706 C1708 1.391 . S
C1707 C1706 1.386 . S
C1707 C1711 1.393 . S
C1708 H1697 0.950 . S
C1708 C1706 1.391 . S
C1708 C1709 1.400 . S
C1709 C1703 1.491 . S
C1709 C1708 1.400 . S
C1709 C1710 1.398 . S
C1710 H1698 0.950 . S
C1710 C1709 1.398 . S
C1710 C1711 1.391 . S
C1711 H1699 0.950 . S
C1711 C1707 1.393 . S
C1711 C1710 1.391 . S
H1712 C1720 0.950 . S
H1713 C1725 0.950 . S
H1714 C1722 0.950 . S
H1715 C1724 0.950 . S
H1716 C1726 0.950 . S
H1717 C1728 0.950 . S
H1718 C1730 0.950 . S
H1719 C1731 0.950 . S
C1720 H1712 0.950 . S
C1720 C1721 1.386 . S
C1720 C1722 1.391 . S
C1721 C1720 1.386 . S
C1721 C1725 1.393 . S
C1722 H1714 0.950 . S
C1722 C1720 1.391 . S
C1722 C1723 1.400 . S
C1723 C1722 1.400 . S
C1723 C1724 1.398 . S
C1723 C1729 1.491 1_655 S
C1724 H1715 0.950 . S
C1724 C1723 1.398 . S
C1724 C1725 1.391 . S
C1725 H1713 0.950 . S
C1725 C1721 1.393 . S
C1725 C1724 1.391 . S
C1726 H1716 0.950 . S
C1726 C1727 1.386 . S
C1726 C1728 1.391 . S
C1727 C1726 1.386 . S
C1727 C1731 1.393 . S
C1728 H1717 0.950 . S
C1728 C1726 1.391 . S
C1728 C1729 1.400 . S
C1729 C1723 1.491 1_455 S
C1729 C1728 1.400 . S
C1729 C1730 1.398 . S
C1730 H1718 0.950 . S
C1730 C1729 1.398 . S
C1730 C1731 1.391 . S
C1731 H1719 0.950 . S
C1731 C1727 1.393 . S
C1731 C1730 1.391 . S
H1732 C1740 0.950 . S
H1733 C1745 0.950 . S
H1734 C1742 0.950 . S
H1735 C1744 0.950 . S
H1736 C1746 0.950 . S
H1737 C1748 0.950 . S
H1738 C1750 0.950 . S
H1739 C1751 0.950 . S
C1740 H1732 0.950 . S
C1740 C1741 1.386 . S
C1740 C1742 1.391 . S
C1741 C1740 1.386 . S
C1741 C1745 1.393 . S
C1742 H1734 0.950 . S
C1742 C1740 1.391 . S
C1742 C1743 1.400 . S
C1743 C1742 1.400 . S
C1743 C1744 1.398 . S
C1743 C1749 1.491 . S
C1744 H1735 0.950 . S
C1744 C1743 1.398 . S
C1744 C1745 1.391 . S
C1745 H1733 0.950 . S
C1745 C1741 1.393 . S
C1745 C1744 1.391 . S
C1746 H1736 0.950 . S
C1746 C1747 1.386 . S
C1746 C1748 1.391 . S
C1747 C1746 1.386 . S
C1747 C1751 1.393 . S
C1748 H1737 0.950 . S
C1748 C1746 1.391 . S
C1748 C1749 1.400 . S
C1749 C1743 1.491 . S
C1749 C1748 1.400 . S
C1749 C1750 1.398 . S
C1750 H1738 0.950 . S
C1750 C1749 1.398 . S
C1750 C1751 1.391 . S
C1751 H1739 0.950 . S
C1751 C1747 1.393 . S
C1751 C1750 1.391 . S
H1752 C1760 0.950 . S
H1753 C1765 0.950 . S
H1754 C1762 0.950 . S
H1755 C1764 0.950 . S
H1756 C1766 0.950 . S
H1757 C1768 0.950 . S
H1758 C1770 0.950 . S
H1759 C1771 0.950 . S
C1760 H1752 0.950 . S
C1760 C1761 1.386 . S
C1760 C1762 1.391 . S
C1761 C1760 1.386 . S
C1761 C1765 1.393 . S
C1762 H1754 0.950 . S
C1762 C1760 1.391 . S
C1762 C1763 1.400 . S
C1763 C1762 1.400 . S
C1763 C1764 1.398 . S
C1763 C1769 1.491 1_655 S
C1764 H1755 0.950 . S
C1764 C1763 1.398 . S
C1764 C1765 1.391 . S
C1765 H1753 0.950 . S
C1765 C1761 1.393 . S
C1765 C1764 1.391 . S
C1766 H1756 0.950 . S
C1766 C1767 1.386 . S
C1766 C1768 1.391 . S
C1767 C1766 1.386 . S
C1767 C1771 1.393 . S
C1768 H1757 0.950 . S
C1768 C1766 1.391 . S
C1768 C1769 1.400 . S
C1769 C1763 1.491 1_455 S
C1769 C1768 1.400 . S
C1769 C1770 1.398 . S
C1770 H1758 0.950 . S
C1770 C1769 1.398 . S
C1770 C1771 1.391 . S
C1771 H1759 0.950 . S
C1771 C1767 1.393 . S
C1771 C1770 1.391 . S
H1772 C1780 0.950 . S
H1773 C1785 0.950 . S
H1774 C1782 0.950 . S
H1775 C1784 0.950 . S
H1776 C1786 0.950 . S
H1777 C1788 0.950 . S
H1778 C1790 0.950 . S
H1779 C1791 0.950 . S
C1780 H1772 0.950 . S
C1780 C1781 1.386 . S
C1780 C1782 1.391 . S
C1781 C1780 1.386 . S
C1781 C1785 1.393 . S
C1782 H1774 0.950 . S
C1782 C1780 1.391 . S
C1782 C1783 1.400 . S
C1783 C1782 1.400 . S
C1783 C1784 1.398 . S
C1783 C1789 1.491 . S
C1784 H1775 0.950 . S
C1784 C1783 1.398 . S
C1784 C1785 1.391 . S
C1785 H1773 0.950 . S
C1785 C1781 1.393 . S
C1785 C1784 1.391 . S
C1786 H1776 0.950 . S
C1786 C1787 1.386 . S
C1786 C1788 1.391 . S
C1787 C1786 1.386 . S
C1787 C1791 1.393 . S
C1788 H1777 0.950 . S
C1788 C1786 1.391 . S
C1788 C1789 1.400 . S
C1789 C1783 1.491 . S
C1789 C1788 1.400 . S
C1789 C1790 1.398 . S
C1790 H1778 0.950 . S
C1790 C1789 1.398 . S
C1790 C1791 1.391 . S
C1791 H1779 0.950 . S
C1791 C1787 1.393 . S
C1791 C1790 1.391 . S
H1792 C1800 0.950 . S
H1793 C1805 0.950 . S
H1794 C1802 0.950 . S
H1795 C1804 0.950 . S
H1796 C1806 0.950 . S
H1797 C1808 0.950 . S
H1798 C1810 0.950 . S
H1799 C1811 0.950 . S
C1800 H1792 0.950 . S
C1800 C1801 1.386 . S
C1800 C1802 1.391 . S
C1801 C1800 1.386 . S
C1801 C1805 1.393 . S
C1802 H1794 0.950 . S
C1802 C1800 1.391 . S
C1802 C1803 1.400 . S
C1803 C1802 1.400 . S
C1803 C1804 1.398 . S
C1803 C1809 1.491 1_545 S
C1804 H1795 0.950 . S
C1804 C1803 1.398 . S
C1804 C1805 1.391 . S
C1805 H1793 0.950 . S
C1805 C1801 1.393 . S
C1805 C1804 1.391 . S
C1806 H1796 0.950 . S
C1806 C1807 1.386 . S
C1806 C1808 1.391 . S
C1807 C1806 1.386 . S
C1807 C1811 1.393 . S
C1808 H1797 0.950 . S
C1808 C1806 1.391 . S
C1808 C1809 1.400 . S
C1809 C1803 1.491 1_565 S
C1809 C1808 1.400 . S
C1809 C1810 1.398 . S
C1810 H1798 0.950 . S
C1810 C1809 1.398 . S
C1810 C1811 1.391 . S
C1811 H1799 0.950 . S
C1811 C1807 1.393 . S
C1811 C1810 1.391 . S
H1812 C1820 0.950 . S
H1813 C1825 0.950 . S
H1814 C1822 0.950 . S
H1815 C1824 0.950 . S
H1816 C1826 0.950 . S
H1817 C1828 0.950 . S
H1818 C1830 0.950 . S
H1819 C1831 0.950 . S
C1820 H1812 0.950 . S
C1820 C1821 1.386 . S
C1820 C1822 1.391 . S
C1821 C1820 1.386 . S
C1821 C1825 1.393 . S
C1822 H1814 0.950 . S
C1822 C1820 1.391 . S
C1822 C1823 1.400 . S
C1823 C1822 1.400 . S
C1823 C1824 1.398 . S
C1823 C1829 1.491 . S
C1824 H1815 0.950 . S
C1824 C1823 1.398 . S
C1824 C1825 1.391 . S
C1825 H1813 0.950 . S
C1825 C1821 1.393 . S
C1825 C1824 1.391 . S
C1826 H1816 0.950 . S
C1826 C1827 1.386 . S
C1826 C1828 1.391 . S
C1827 C1826 1.386 . S
C1827 C1831 1.393 . S
C1828 H1817 0.950 . S
C1828 C1826 1.391 . S
C1828 C1829 1.400 . S
C1829 C1823 1.491 . S
C1829 C1828 1.400 . S
C1829 C1830 1.398 . S
C1830 H1818 0.950 . S
C1830 C1829 1.398 . S
C1830 C1831 1.391 . S
C1831 H1819 0.950 . S
C1831 C1827 1.393 . S
C1831 C1830 1.391 . S
H1832 C1840 0.950 . S
H1833 C1845 0.950 . S
H1834 C1842 0.950 . S
H1835 C1844 0.950 . S
H1836 C1846 0.950 . S
H1837 C1848 0.950 . S
H1838 C1850 0.950 . S
H1839 C1851 0.950 . S
C1840 H1832 0.950 . S
C1840 C1841 1.386 . S
C1840 C1842 1.391 . S
C1841 C1840 1.386 . S
C1841 C1845 1.393 . S
C1842 H1834 0.950 . S
C1842 C1840 1.391 . S
C1842 C1843 1.400 . S
C1843 C1842 1.400 . S
C1843 C1844 1.398 . S
C1843 C1849 1.491 1_545 S
C1844 H1835 0.950 . S
C1844 C1843 1.398 . S
C1844 C1845 1.391 . S
C1845 H1833 0.950 . S
C1845 C1841 1.393 . S
C1845 C1844 1.391 . S
C1846 H1836 0.950 . S
C1846 C1847 1.386 . S
C1846 C1848 1.391 . S
C1847 C1846 1.386 . S
C1847 C1851 1.393 . S
C1848 H1837 0.950 . S
C1848 C1846 1.391 . S
C1848 C1849 1.400 . S
C1849 C1843 1.491 1_565 S
C1849 C1848 1.400 . S
C1849 C1850 1.398 . S
C1850 H1838 0.950 . S
C1850 C1849 1.398 . S
C1850 C1851 1.391 . S
C1851 H1839 0.950 . S
C1851 C1847 1.393 . S
C1851 C1850 1.391 . S
H1852 C1860 0.950 . S
H1853 C1865 0.950 . S
H1854 C1862 0.950 . S
H1855 C1864 0.950 . S
H1856 C1866 0.950 . S
H1857 C1868 0.950 . S
H1858 C1870 0.950 . S
H1859 C1871 0.950 . S
C1860 H1852 0.950 . S
C1860 C1861 1.386 . S
C1860 C1862 1.391 . S
C1861 C1860 1.386 . S
C1861 C1865 1.393 . S
C1862 H1854 0.950 . S
C1862 C1860 1.391 . S
C1862 C1863 1.400 . S
C1863 C1862 1.400 . S
C1863 C1864 1.398 . S
C1863 C1869 1.491 . S
C1864 H1855 0.950 . S
C1864 C1863 1.398 . S
C1864 C1865 1.391 . S
C1865 H1853 0.950 . S
C1865 C1861 1.393 . S
C1865 C1864 1.391 . S
C1866 H1856 0.950 . S
C1866 C1867 1.386 . S
C1866 C1868 1.391 . S
C1867 C1866 1.386 . S
C1867 C1871 1.393 . S
C1868 H1857 0.950 . S
C1868 C1866 1.391 . S
C1868 C1869 1.400 . S
C1869 C1863 1.491 . S
C1869 C1868 1.400 . S
C1869 C1870 1.398 . S
C1870 H1858 0.950 . S
C1870 C1869 1.398 . S
C1870 C1871 1.391 . S
C1871 H1859 0.950 . S
C1871 C1867 1.393 . S
C1871 C1870 1.391 . S
H1872 C1880 0.950 . S
H1873 C1885 0.950 . S
H1874 C1882 0.950 . S
H1875 C1884 0.950 . S
H1876 C1886 0.950 . S
H1877 C1888 0.950 . S
H1878 C1890 0.950 . S
H1879 C1891 0.950 . S
C1880 H1872 0.950 . S
C1880 C1881 1.386 . S
C1880 C1882 1.391 . S
C1881 C1880 1.386 . S
C1881 C1885 1.393 . S
C1882 H1874 0.950 . S
C1882 C1880 1.391 . S
C1882 C1883 1.400 . S
C1883 C1882 1.400 . S
C1883 C1884 1.398 . S
C1883 C1889 1.491 1_545 S
C1884 H1875 0.950 . S
C1884 C1883 1.398 . S
C1884 C1885 1.391 . S
C1885 H1873 0.950 . S
C1885 C1881 1.393 . S
C1885 C1884 1.391 . S
C1886 H1876 0.950 . S
C1886 C1887 1.386 . S
C1886 C1888 1.391 . S
C1887 C1886 1.386 . S
C1887 C1891 1.393 . S
C1888 H1877 0.950 . S
C1888 C1886 1.391 . S
C1888 C1889 1.400 . S
C1889 C1883 1.491 1_565 S
C1889 C1888 1.400 . S
C1889 C1890 1.398 . S
C1890 H1878 0.950 . S
C1890 C1889 1.398 . S
C1890 C1891 1.391 . S
C1891 H1879 0.950 . S
C1891 C1887 1.393 . S
C1891 C1890 1.391 . S
H1892 C1900 0.950 . S
H1893 C1905 0.950 . S
H1894 C1902 0.950 . S
H1895 C1904 0.950 . S
H1896 C1906 0.950 . S
H1897 C1908 0.950 . S
H1898 C1910 0.950 . S
H1899 C1911 0.950 . S
C1900 H1892 0.950 . S
C1900 C1901 1.386 . S
C1900 C1902 1.391 . S
C1901 C1900 1.386 . S
C1901 C1905 1.393 . S
C1902 H1894 0.950 . S
C1902 C1900 1.391 . S
C1902 C1903 1.400 . S
C1903 C1902 1.400 . S
C1903 C1904 1.398 . S
C1903 C1909 1.491 . S
C1904 H1895 0.950 . S
C1904 C1903 1.398 . S
C1904 C1905 1.391 . S
C1905 H1893 0.950 . S
C1905 C1901 1.393 . S
C1905 C1904 1.391 . S
C1906 H1896 0.950 . S
C1906 C1907 1.386 . S
C1906 C1908 1.391 . S
C1907 C1906 1.386 . S
C1907 C1911 1.393 . S
C1908 H1897 0.950 . S
C1908 C1906 1.391 . S
C1908 C1909 1.400 . S
C1909 C1903 1.491 . S
C1909 C1908 1.400 . S
C1909 C1910 1.398 . S
C1910 H1898 0.950 . S
C1910 C1909 1.398 . S
C1910 C1911 1.391 . S
C1911 H1899 0.950 . S
C1911 C1907 1.393 . S
C1911 C1910 1.391 . S
H1912 C1920 0.950 . S
H1913 C1925 0.950 . S
H1914 C1922 0.950 . S
H1915 C1924 0.950 . S
H1916 C1926 0.950 . S
H1917 C1928 0.950 . S
H1918 C1930 0.950 . S
H1919 C1931 0.950 . S
C1920 H1912 0.950 . S
C1920 C1921 1.386 . S
C1920 C1922 1.391 . S
C1921 C1920 1.386 . S
C1921 C1925 1.393 . S
C1922 H1914 0.950 . S
C1922 C1920 1.391 . S
C1922 C1923 1.400 . S
C1923 C1922 1.400 . S
C1923 C1924 1.398 . S
C1923 C1929 1.491 1_545 S
C1924 H1915 0.950 . S
C1924 C1923 1.398 . S
C1924 C1925 1.391 . S
C1925 H1913 0.950 . S
C1925 C1921 1.393 . S
C1925 C1924 1.391 . S
C1926 H1916 0.950 . S
C1926 C1927 1.386 . S
C1926 C1928 1.391 . S
C1927 C1926 1.386 . S
C1927 C1931 1.393 . S
C1928 H1917 0.950 . S
C1928 C1926 1.391 . S
C1928 C1929 1.400 . S
C1929 C1923 1.491 1_565 S
C1929 C1928 1.400 . S
C1929 C1930 1.398 . S
C1930 H1918 0.950 . S
C1930 C1929 1.398 . S
C1930 C1931 1.391 . S
C1931 H1919 0.950 . S
C1931 C1927 1.393 . S
C1931 C1930 1.391 . S
H1932 C1940 0.950 . S
H1933 C1945 0.950 . S
H1934 C1942 0.950 . S
H1935 C1944 0.950 . S
H1936 C1946 0.950 . S
H1937 C1948 0.950 . S
H1938 C1950 0.950 . S
H1939 C1951 0.950 . S
C1940 H1932 0.950 . S
C1940 C1941 1.386 . S
C1940 C1942 1.391 . S
C1941 C1940 1.386 . S
C1941 C1945 1.393 . S
C1942 H1934 0.950 . S
C1942 C1940 1.391 . S
C1942 C1943 1.400 . S
C1943 C1942 1.400 . S
C1943 C1944 1.398 . S
C1943 C1949 1.491 . S
C1944 H1935 0.950 . S
C1944 C1943 1.398 . S
C1944 C1945 1.391 . S
C1945 H1933 0.950 . S
C1945 C1941 1.393 . S
C1945 C1944 1.391 . S
C1946 H1936 0.950 . S
C1946 C1947 1.386 . S
C1946 C1948 1.391 . S
C1947 C1946 1.386 . S
C1947 C1951 1.393 . S
C1948 H1937 0.950 . S
C1948 C1946 1.391 . S
C1948 C1949 1.400 . S
C1949 C1943 1.491 . S
C1949 C1948 1.400 . S
C1949 C1950 1.398 . S
C1950 H1938 0.950 . S
C1950 C1949 1.398 . S
C1950 C1951 1.391 . S
C1951 H1939 0.950 . S
C1951 C1947 1.393 . S
C1951 C1950 1.391 . S
H1952 C1960 0.950 . S
H1953 C1965 0.950 . S
H1954 C1962 0.950 . S
H1955 C1964 0.950 . S
H1956 C1966 0.950 . S
H1957 C1968 0.950 . S
H1958 C1970 0.950 . S
H1959 C1971 0.950 . S
C1960 H1952 0.950 . S
C1960 C1961 1.386 . S
C1960 C1962 1.391 . S
C1961 C1960 1.386 . S
C1961 C1965 1.393 . S
C1962 H1954 0.950 . S
C1962 C1960 1.391 . S
C1962 C1963 1.400 . S
C1963 C1962 1.400 . S
C1963 C1964 1.398 . S
C1963 C1969 1.491 1_556 S
C1964 H1955 0.950 . S
C1964 C1963 1.398 . S
C1964 C1965 1.391 . S
C1965 H1953 0.950 . S
C1965 C1961 1.393 . S
C1965 C1964 1.391 . S
C1966 H1956 0.950 . S
C1966 C1967 1.386 . S
C1966 C1968 1.391 . S
C1967 C1966 1.386 . S
C1967 C1971 1.393 . S
C1968 H1957 0.950 . S
C1968 C1966 1.391 . S
C1968 C1969 1.400 . S
C1969 C1963 1.491 1_554 S
C1969 C1968 1.400 . S
C1969 C1970 1.398 . S
C1970 H1958 0.950 . S
C1970 C1969 1.398 . S
C1970 C1971 1.391 . S
C1971 H1959 0.950 . S
C1971 C1967 1.393 . S
C1971 C1970 1.391 . S
H1972 C1980 0.950 . S
H1973 C1985 0.950 . S
H1974 C1982 0.950 . S
H1975 C1984 0.950 . S
H1976 C1986 0.950 . S
H1977 C1988 0.950 . S
H1978 C1990 0.950 . S
H1979 C1991 0.950 . S
C1980 H1972 0.950 . S
C1980 C1981 1.386 . S
C1980 C1982 1.391 . S
C1981 C1980 1.386 . S
C1981 C1985 1.393 . S
C1982 H1974 0.950 . S
C1982 C1980 1.391 . S
C1982 C1983 1.400 . S
C1983 C1982 1.400 . S
C1983 C1984 1.398 . S
C1983 C1989 1.491 1_556 S
C1984 H1975 0.950 . S
C1984 C1983 1.398 . S
C1984 C1985 1.391 . S
C1985 H1973 0.950 . S
C1985 C1981 1.393 . S
C1985 C1984 1.391 . S
C1986 H1976 0.950 . S
C1986 C1987 1.386 . S
C1986 C1988 1.391 . S
C1987 C1986 1.386 . S
C1987 C1991 1.393 . S
C1988 H1977 0.950 . S
C1988 C1986 1.391 . S
C1988 C1989 1.400 . S
C1989 C1983 1.491 1_554 S
C1989 C1988 1.400 . S
C1989 C1990 1.398 . S
C1990 H1978 0.950 . S
C1990 C1989 1.398 . S
C1990 C1991 1.391 . S
C1991 H1979 0.950 . S
C1991 C1987 1.393 . S
C1991 C1990 1.391 . S
H1992 C2000 0.950 . S
H1993 C2005 0.950 . S
H1994 C2002 0.950 . S
H1995 C2004 0.950 . S
H1996 C2006 0.950 . S
H1997 C2008 0.950 . S
H1998 C2010 0.950 . S
H1999 C2011 0.950 . S
C2000 H1992 0.950 . S
C2000 C2001 1.386 . S
C2000 C2002 1.391 . S
C2001 C2000 1.386 . S
C2001 C2005 1.393 . S
C2002 H1994 0.950 . S
C2002 C2000 1.391 . S
C2002 C2003 1.400 . S
C2003 C2002 1.400 . S
C2003 C2004 1.398 . S
C2003 C2009 1.491 . S
C2004 H1995 0.950 . S
C2004 C2003 1.398 . S
C2004 C2005 1.391 . S
C2005 H1993 0.950 . S
C2005 C2001 1.393 . S
C2005 C2004 1.391 . S
C2006 H1996 0.950 . S
C2006 C2007 1.386 . S
C2006 C2008 1.391 . S
C2007 C2006 1.386 . S
C2007 C2011 1.393 . S
C2008 H1997 0.950 . S
C2008 C2006 1.391 . S
C2008 C2009 1.400 . S
C2009 C2003 1.491 . S
C2009 C2008 1.400 . S
C2009 C2010 1.398 . S
C2010 H1998 0.950 . S
C2010 C2009 1.398 . S
C2010 C2011 1.391 . S
C2011 H1999 0.950 . S
C2011 C2007 1.393 . S
C2011 C2010 1.391 . S
H2012 C2020 0.950 . S
H2013 C2025 0.950 . S
H2014 C2022 0.950 . S
H2015 C2024 0.950 . S
H2016 C2026 0.950 . S
H2017 C2028 0.950 . S
H2018 C2030 0.950 . S
H2019 C2031 0.950 . S
C2020 H2012 0.950 . S
C2020 C2021 1.386 . S
C2020 C2022 1.391 . S
C2021 C2020 1.386 . S
C2021 C2025 1.393 . S
C2022 H2014 0.950 . S
C2022 C2020 1.391 . S
C2022 C2023 1.400 . S
C2023 C2022 1.400 . S
C2023 C2024 1.398 . S
C2023 C2029 1.491 1_556 S
C2024 H2015 0.950 . S
C2024 C2023 1.398 . S
C2024 C2025 1.391 . S
C2025 H2013 0.950 . S
C2025 C2021 1.393 . S
C2025 C2024 1.391 . S
C2026 H2016 0.950 . S
C2026 C2027 1.386 . S
C2026 C2028 1.391 . S
C2027 C2026 1.386 . S
C2027 C2031 1.393 . S
C2028 H2017 0.950 . S
C2028 C2026 1.391 . S
C2028 C2029 1.400 . S
C2029 C2023 1.491 1_554 S
C2029 C2028 1.400 . S
C2029 C2030 1.398 . S
C2030 H2018 0.950 . S
C2030 C2029 1.398 . S
C2030 C2031 1.391 . S
C2031 H2019 0.950 . S
C2031 C2027 1.393 . S
C2031 C2030 1.391 . S
H2032 C2040 0.950 . S
H2033 C2045 0.950 . S
H2034 C2042 0.950 . S
H2035 C2044 0.950 . S
H2036 C2046 0.950 . S
H2037 C2048 0.950 . S
H2038 C2050 0.950 . S
H2039 C2051 0.950 . S
C2040 H2032 0.950 . S
C2040 C2041 1.386 . S
C2040 C2042 1.391 . S
C2041 C2040 1.386 . S
C2041 C2045 1.393 . S
C2042 H2034 0.950 . S
C2042 C2040 1.391 . S
C2042 C2043 1.400 . S
C2043 C2042 1.400 . S
C2043 C2044 1.398 . S
C2043 C2049 1.491 . S
C2044 H2035 0.950 . S
C2044 C2043 1.398 . S
C2044 C2045 1.391 . S
C2045 H2033 0.950 . S
C2045 C2041 1.393 . S
C2045 C2044 1.391 . S
C2046 H2036 0.950 . S
C2046 C2047 1.386 . S
C2046 C2048 1.391 . S
C2047 C2046 1.386 . S
C2047 C2051 1.393 . S
C2048 H2037 0.950 . S
C2048 C2046 1.391 . S
C2048 C2049 1.400 . S
C2049 C2043 1.491 . S
C2049 C2048 1.400 . S
C2049 C2050 1.398 . S
C2050 H2038 0.950 . S
C2050 C2049 1.398 . S
C2050 C2051 1.391 . S
C2051 H2039 0.950 . S
C2051 C2047 1.393 . S
C2051 C2050 1.391 . S
H2052 C2060 0.950 . S
H2053 C2065 0.950 . S
H2054 C2062 0.950 . S
H2055 C2064 0.950 . S
H2056 C2066 0.950 . S
H2057 C2068 0.950 . S
H2058 C2070 0.950 . S
H2059 C2071 0.950 . S
C2060 H2052 0.950 . S
C2060 C2061 1.386 . S
C2060 C2062 1.391 . S
C2061 C2060 1.386 . S
C2061 C2065 1.393 . S
C2062 H2054 0.950 . S
C2062 C2060 1.391 . S
C2062 C2063 1.400 . S
C2063 C2062 1.400 . S
C2063 C2064 1.398 . S
C2063 C2069 1.491 1_556 S
C2064 H2055 0.950 . S
C2064 C2063 1.398 . S
C2064 C2065 1.391 . S
C2065 H2053 0.950 . S
C2065 C2061 1.393 . S
C2065 C2064 1.391 . S
C2066 H2056 0.950 . S
C2066 C2067 1.386 . S
C2066 C2068 1.391 . S
C2067 C2066 1.386 . S
C2067 C2071 1.393 . S
C2068 H2057 0.950 . S
C2068 C2066 1.391 . S
C2068 C2069 1.400 . S
C2069 C2063 1.491 1_554 S
C2069 C2068 1.400 . S
C2069 C2070 1.398 . S
C2070 H2058 0.950 . S
C2070 C2069 1.398 . S
C2070 C2071 1.391 . S
C2071 H2059 0.950 . S
C2071 C2067 1.393 . S
C2071 C2070 1.391 . S
H2072 C2080 0.950 . S
H2073 C2085 0.950 . S
H2074 C2082 0.950 . S
H2075 C2084 0.950 . S
H2076 C2086 0.950 . S
H2077 C2088 0.950 . S
H2078 C2090 0.950 . S
H2079 C2091 0.950 . S
C2080 H2072 0.950 . S
C2080 C2081 1.386 . S
C2080 C2082 1.391 . S
C2081 C2080 1.386 . S
C2081 C2085 1.393 . S
C2082 H2074 0.950 . S
C2082 C2080 1.391 . S
C2082 C2083 1.400 . S
C2083 C2082 1.400 . S
C2083 C2084 1.398 . S
C2083 C2089 1.491 . S
C2084 H2075 0.950 . S
C2084 C2083 1.398 . S
C2084 C2085 1.391 . S
C2085 H2073 0.950 . S
C2085 C2081 1.393 . S
C2085 C2084 1.391 . S
C2086 H2076 0.950 . S
C2086 C2087 1.386 . S
C2086 C2088 1.391 . S
C2087 C2086 1.386 . S
C2087 C2091 1.393 . S
C2088 H2077 0.950 . S
C2088 C2086 1.391 . S
C2088 C2089 1.400 . S
C2089 C2083 1.491 . S
C2089 C2088 1.400 . S
C2089 C2090 1.398 . S
C2090 H2078 0.950 . S
C2090 C2089 1.398 . S
C2090 C2091 1.391 . S
C2091 H2079 0.950 . S
C2091 C2087 1.393 . S
C2091 C2090 1.391 . S
H2092 C2100 0.950 . S
H2093 C2105 0.950 . S
H2094 C2102 0.950 . S
H2095 C2104 0.950 . S
H2096 C2106 0.950 . S
H2097 C2108 0.950 . S
H2098 C2110 0.950 . S
H2099 C2111 0.950 . S
C2100 H2092 0.950 . S
C2100 C2101 1.386 . S
C2100 C2102 1.391 . S
C2101 C2100 1.386 . S
C2101 C2105 1.393 . S
C2102 H2094 0.950 . S
C2102 C2100 1.391 . S
C2102 C2103 1.400 . S
C2103 C2102 1.400 . S
C2103 C2104 1.398 . S
C2103 C2109 1.491 . S
C2104 H2095 0.950 . S
C2104 C2103 1.398 . S
C2104 C2105 1.391 . S
C2105 H2093 0.950 . S
C2105 C2101 1.393 . S
C2105 C2104 1.391 . S
C2106 H2096 0.950 . S
C2106 C2107 1.386 . S
C2106 C2108 1.391 . S
C2107 C2106 1.386 . S
C2107 C2111 1.393 . S
C2108 H2097 0.950 . S
C2108 C2106 1.391 . S
C2108 C2109 1.400 . S
C2109 C2103 1.491 . S
C2109 C2108 1.400 . S
C2109 C2110 1.398 . S
C2110 H2098 0.950 . S
C2110 C2109 1.398 . S
C2110 C2111 1.391 . S
C2111 H2099 0.950 . S
C2111 C2107 1.393 . S
C2111 C2110 1.391 . S
H2112 C2120 0.950 . S
H2113 C2125 0.950 . S
H2114 C2122 0.950 . S
H2115 C2124 0.950 . S
H2116 C2126 0.950 . S
H2117 C2128 0.950 . S
H2118 C2130 0.950 . S
H2119 C2131 0.950 . S
C2120 H2112 0.950 . S
C2120 C2121 1.386 . S
C2120 C2122 1.391 . S
C2121 C2120 1.386 . S
C2121 C2125 1.393 . S
C2122 H2114 0.950 . S
C2122 C2120 1.391 . S
C2122 C2123 1.400 . S
C2123 C2122 1.400 . S
C2123 C2124 1.398 . S
C2123 C2129 1.491 . S
C2124 H2115 0.950 . S
C2124 C2123 1.398 . S
C2124 C2125 1.391 . S
C2125 H2113 0.950 . S
C2125 C2121 1.393 . S
C2125 C2124 1.391 . S
C2126 H2116 0.950 . S
C2126 C2127 1.386 . S
C2126 C2128 1.391 . S
C2127 C2126 1.386 . S
C2127 C2131 1.393 . S
C2128 H2117 0.950 . S
C2128 C2126 1.391 . S
C2128 C2129 1.400 . S
C2129 C2123 1.491 . S
C2129 C2128 1.400 . S
C2129 C2130 1.398 . S
C2130 H2118 0.950 . S
C2130 C2129 1.398 . S
C2130 C2131 1.391 . S
C2131 H2119 0.950 . S
C2131 C2127 1.393 . S
C2131 C2130 1.391 . S
H2132 C2140 0.950 . S
H2133 C2145 0.950 . S
H2134 C2142 0.950 . S
H2135 C2144 0.950 . S
H2136 C2146 0.950 . S
H2137 C2148 0.950 . S
H2138 C2150 0.950 . S
H2139 C2151 0.950 . S
C2140 H2132 0.950 . S
C2140 C2141 1.386 . S
C2140 C2142 1.391 . S
C2141 C2140 1.386 . S
C2141 C2145 1.393 . S
C2142 H2134 0.950 . S
C2142 C2140 1.391 . S
C2142 C2143 1.400 . S
C2143 C2142 1.400 . S
C2143 C2144 1.398 . S
C2143 C2149 1.491 . S
C2144 H2135 0.950 . S
C2144 C2143 1.398 . S
C2144 C2145 1.391 . S
C2145 H2133 0.950 . S
C2145 C2141 1.393 . S
C2145 C2144 1.391 . S
C2146 H2136 0.950 . S
C2146 C2147 1.386 . S
C2146 C2148 1.391 . S
C2147 C2146 1.386 . S
C2147 C2151 1.393 . S
C2148 H2137 0.950 . S
C2148 C2146 1.391 . S
C2148 C2149 1.400 . S
C2149 C2143 1.491 . S
C2149 C2148 1.400 . S
C2149 C2150 1.398 . S
C2150 H2138 0.950 . S
C2150 C2149 1.398 . S
C2150 C2151 1.391 . S
C2151 H2139 0.950 . S
C2151 C2147 1.393 . S
C2151 C2150 1.391 . S
H2152 C2160 0.950 . S
H2153 C2165 0.950 . S
H2154 C2162 0.950 . S
H2155 C2164 0.950 . S
H2156 C2166 0.950 . S
H2157 C2168 0.950 . S
H2158 C2170 0.950 . S
H2159 C2171 0.950 . S
C2160 H2152 0.950 . S
C2160 C2161 1.386 . S
C2160 C2162 1.391 . S
C2161 C2160 1.386 . S
C2161 C2165 1.393 . S
C2162 H2154 0.950 . S
C2162 C2160 1.391 . S
C2162 C2163 1.400 . S
C2163 C2162 1.400 . S
C2163 C2164 1.398 . S
C2163 C2169 1.491 . S
C2164 H2155 0.950 . S
C2164 C2163 1.398 . S
C2164 C2165 1.391 . S
C2165 H2153 0.950 . S
C2165 C2161 1.393 . S
C2165 C2164 1.391 . S
C2166 H2156 0.950 . S
C2166 C2167 1.386 . S
C2166 C2168 1.391 . S
C2167 C2166 1.386 . S
C2167 C2171 1.393 . S
C2168 H2157 0.950 . S
C2168 C2166 1.391 . S
C2168 C2169 1.400 . S
C2169 C2163 1.491 . S
C2169 C2168 1.400 . S
C2169 C2170 1.398 . S
C2170 H2158 0.950 . S
C2170 C2169 1.398 . S
C2170 C2171 1.391 . S
C2171 H2159 0.950 . S
C2171 C2167 1.393 . S
C2171 C2170 1.391 . S
H2172 C2180 0.950 . S
H2173 C2185 0.950 . S
H2174 C2182 0.950 . S
H2175 C2184 0.950 . S
H2176 C2186 0.950 . S
H2177 C2188 0.950 . S
H2178 C2190 0.950 . S
H2179 C2191 0.950 . S
C2180 H2172 0.950 . S
C2180 C2181 1.386 . S
C2180 C2182 1.391 . S
C2181 C2180 1.386 . S
C2181 C2185 1.393 . S
C2182 H2174 0.950 . S
C2182 C2180 1.391 . S
C2182 C2183 1.400 . S
C2183 C2182 1.400 . S
C2183 C2184 1.398 . S
C2183 C2189 1.491 . S
C2184 H2175 0.950 . S
C2184 C2183 1.398 . S
C2184 C2185 1.391 . S
C2185 H2173 0.950 . S
C2185 C2181 1.393 . S
C2185 C2184 1.391 . S
C2186 H2176 0.950 . S
C2186 C2187 1.386 . S
C2186 C2188 1.391 . S
C2187 C2186 1.386 . S
C2187 C2191 1.393 . S
C2188 H2177 0.950 . S
C2188 C2186 1.391 . S
C2188 C2189 1.400 . S
C2189 C2183 1.491 . S
C2189 C2188 1.400 . S
C2189 C2190 1.398 . S
C2190 H2178 0.950 . S
C2190 C2189 1.398 . S
C2190 C2191 1.391 . S
C2191 H2179 0.950 . S
C2191 C2187 1.393 . S
C2191 C2190 1.391 . S
H2192 C2200 0.950 . S
H2193 C2205 0.950 . S
H2194 C2202 0.950 . S
H2195 C2204 0.950 . S
H2196 C2206 0.950 . S
H2197 C2208 0.950 . S
H2198 C2210 0.950 . S
H2199 C2211 0.950 . S
C2200 H2192 0.950 . S
C2200 C2201 1.386 . S
C2200 C2202 1.391 . S
C2201 C2200 1.386 . S
C2201 C2205 1.393 . S
C2202 H2194 0.950 . S
C2202 C2200 1.391 . S
C2202 C2203 1.400 . S
C2203 C2202 1.400 . S
C2203 C2204 1.398 . S
C2203 C2209 1.491 . S
C2204 H2195 0.950 . S
C2204 C2203 1.398 . S
C2204 C2205 1.391 . S
C2205 H2193 0.950 . S
C2205 C2201 1.393 . S
C2205 C2204 1.391 . S
C2206 H2196 0.950 . S
C2206 C2207 1.386 . S
C2206 C2208 1.391 . S
C2207 C2206 1.386 . S
C2207 C2211 1.393 . S
C2208 H2197 0.950 . S
C2208 C2206 1.391 . S
C2208 C2209 1.400 . S
C2209 C2203 1.491 . S
C2209 C2208 1.400 . S
C2209 C2210 1.398 . S
C2210 H2198 0.950 . S
C2210 C2209 1.398 . S
C2210 C2211 1.391 . S
C2211 H2199 0.950 . S
C2211 C2207 1.393 . S
C2211 C2210 1.391 . S
H2212 C2220 0.950 . S
H2213 C2225 0.950 . S
H2214 C2222 0.950 . S
H2215 C2224 0.950 . S
H2216 C2226 0.950 . S
H2217 C2228 0.950 . S
H2218 C2230 0.950 . S
H2219 C2231 0.950 . S
C2220 H2212 0.950 . S
C2220 C2221 1.386 . S
C2220 C2222 1.391 . S
C2221 C2220 1.386 . S
C2221 C2225 1.393 . S
C2222 H2214 0.950 . S
C2222 C2220 1.391 . S
C2222 C2223 1.400 . S
C2223 C2222 1.400 . S
C2223 C2224 1.398 . S
C2223 C2229 1.491 . S
C2224 H2215 0.950 . S
C2224 C2223 1.398 . S
C2224 C2225 1.391 . S
C2225 H2213 0.950 . S
C2225 C2221 1.393 . S
C2225 C2224 1.391 . S
C2226 H2216 0.950 . S
C2226 C2227 1.386 . S
C2226 C2228 1.391 . S
C2227 C2226 1.386 . S
C2227 C2231 1.393 . S
C2228 H2217 0.950 . S
C2228 C2226 1.391 . S
C2228 C2229 1.400 . S
C2229 C2223 1.491 . S
C2229 C2228 1.400 . S
C2229 C2230 1.398 . S
C2230 H2218 0.950 . S
C2230 C2229 1.398 . S
C2230 C2231 1.391 . S
C2231 H2219 0.950 . S
C2231 C2227 1.393 . S
C2231 C2230 1.391 . S
H2232 C2240 0.950 . S
H2233 C2245 0.950 . S
H2234 C2242 0.950 . S
H2235 C2244 0.950 . S
H2236 C2246 0.950 . S
H2237 C2248 0.950 . S
H2238 C2250 0.950 . S
H2239 C2251 0.950 . S
C2240 H2232 0.950 . S
C2240 C2241 1.386 . S
C2240 C2242 1.391 . S
C2241 C2240 1.386 . S
C2241 C2245 1.393 . S
C2242 H2234 0.950 . S
C2242 C2240 1.391 . S
C2242 C2243 1.400 . S
C2243 C2242 1.400 . S
C2243 C2244 1.398 . S
C2243 C2249 1.491 . S
C2244 H2235 0.950 . S
C2244 C2243 1.398 . S
C2244 C2245 1.391 . S
C2245 H2233 0.950 . S
C2245 C2241 1.393 . S
C2245 C2244 1.391 . S
C2246 H2236 0.950 . S
C2246 C2247 1.386 . S
C2246 C2248 1.391 . S
C2247 C2246 1.386 . S
C2247 C2251 1.393 . S
C2248 H2237 0.950 . S
C2248 C2246 1.391 . S
C2248 C2249 1.400 . S
C2249 C2243 1.491 . S
C2249 C2248 1.400 . S
C2249 C2250 1.398 . S
C2250 H2238 0.950 . S
C2250 C2249 1.398 . S
C2250 C2251 1.391 . S
C2251 H2239 0.950 . S
C2251 C2247 1.393 . S
C2251 C2250 1.391 . S
H2252 C2260 0.950 . S
H2253 C2265 0.950 . S
H2254 C2262 0.950 . S
H2255 C2264 0.950 . S
H2256 C2266 0.950 . S
H2257 C2268 0.950 . S
H2258 C2270 0.950 . S
H2259 C2271 0.950 . S
C2260 H2252 0.950 . S
C2260 C2261 1.386 . S
C2260 C2262 1.391 . S
C2261 C2260 1.386 . S
C2261 C2265 1.393 . S
C2262 H2254 0.950 . S
C2262 C2260 1.391 . S
C2262 C2263 1.400 . S
C2263 C2262 1.400 . S
C2263 C2264 1.398 . S
C2263 C2269 1.491 . S
C2264 H2255 0.950 . S
C2264 C2263 1.398 . S
C2264 C2265 1.391 . S
C2265 H2253 0.950 . S
C2265 C2261 1.393 . S
C2265 C2264 1.391 . S
C2266 H2256 0.950 . S
C2266 C2267 1.386 . S
C2266 C2268 1.391 . S
C2267 C2266 1.386 . S
C2267 C2271 1.393 . S
C2268 H2257 0.950 . S
C2268 C2266 1.391 . S
C2268 C2269 1.400 . S
C2269 C2263 1.491 . S
C2269 C2268 1.400 . S
C2269 C2270 1.398 . S
C2270 H2258 0.950 . S
C2270 C2269 1.398 . S
C2270 C2271 1.391 . S
C2271 H2259 0.950 . S
C2271 C2267 1.393 . S
C2271 C2270 1.391 . S
H2272 C2280 0.950 . S
H2273 C2285 0.950 . S
H2274 C2282 0.950 . S
H2275 C2284 0.950 . S
H2276 C2286 0.950 . S
H2277 C2288 0.950 . S
H2278 C2290 0.950 . S
H2279 C2291 0.950 . S
C2280 H2272 0.950 . S
C2280 C2281 1.386 . S
C2280 C2282 1.391 . S
C2281 C2280 1.386 . S
C2281 C2285 1.393 . S
C2282 H2274 0.950 . S
C2282 C2280 1.391 . S
C2282 C2283 1.400 . S
C2283 C2282 1.400 . S
C2283 C2284 1.398 . S
C2283 C2289 1.491 . S
C2284 H2275 0.950 . S
C2284 C2283 1.398 . S
C2284 C2285 1.391 . S
C2285 H2273 0.950 . S
C2285 C2281 1.393 . S
C2285 C2284 1.391 . S
C2286 H2276 0.950 . S
C2286 C2287 1.386 . S
C2286 C2288 1.391 . S
C2287 C2286 1.386 . S
C2287 C2291 1.393 . S
C2288 H2277 0.950 . S
C2288 C2286 1.391 . S
C2288 C2289 1.400 . S
C2289 C2283 1.491 . S
C2289 C2288 1.400 . S
C2289 C2290 1.398 . S
C2290 H2278 0.950 . S
C2290 C2289 1.398 . S
C2290 C2291 1.391 . S
C2291 H2279 0.950 . S
C2291 C2287 1.393 . S
C2291 C2290 1.391 . S
H2292 C2300 0.950 . S
H2293 C2305 0.950 . S
H2294 C2302 0.950 . S
H2295 C2304 0.950 . S
H2296 C2306 0.950 . S
H2297 C2308 0.950 . S
H2298 C2310 0.950 . S
H2299 C2311 0.950 . S
C2300 H2292 0.950 . S
C2300 C2301 1.386 . S
C2300 C2302 1.391 . S
C2301 C2300 1.386 . S
C2301 C2305 1.393 . S
C2302 H2294 0.950 . S
C2302 C2300 1.391 . S
C2302 C2303 1.400 . S
C2303 C2302 1.400 . S
C2303 C2304 1.398 . S
C2303 C2309 1.491 . S
C2304 H2295 0.950 . S
C2304 C2303 1.398 . S
C2304 C2305 1.391 . S
C2305 H2293 0.950 . S
C2305 C2301 1.393 . S
C2305 C2304 1.391 . S
C2306 H2296 0.950 . S
C2306 C2307 1.386 . S
C2306 C2308 1.391 . S
C2307 C2306 1.386 . S
C2307 C2311 1.393 . S
C2308 H2297 0.950 . S
C2308 C2306 1.391 . S
C2308 C2309 1.400 . S
C2309 C2303 1.491 . S
C2309 C2308 1.400 . S
C2309 C2310 1.398 . S
C2310 H2298 0.950 . S
C2310 C2309 1.398 . S
C2310 C2311 1.391 . S
C2311 H2299 0.950 . S
C2311 C2307 1.393 . S
C2311 C2310 1.391 . S
H2312 C2320 0.950 . S
H2313 C2325 0.950 . S
H2314 C2322 0.950 . S
H2315 C2324 0.950 . S
H2316 C2326 0.950 . S
H2317 C2328 0.950 . S
H2318 C2330 0.950 . S
H2319 C2331 0.950 . S
C2320 H2312 0.950 . S
C2320 C2321 1.386 . S
C2320 C2322 1.391 . S
C2321 C2320 1.386 . S
C2321 C2325 1.393 . S
C2322 H2314 0.950 . S
C2322 C2320 1.391 . S
C2322 C2323 1.400 . S
C2323 C2322 1.400 . S
C2323 C2324 1.398 . S
C2323 C2329 1.491 . S
C2324 H2315 0.950 . S
C2324 C2323 1.398 . S
C2324 C2325 1.391 . S
C2325 H2313 0.950 . S
C2325 C2321 1.393 . S
C2325 C2324 1.391 . S
C2326 H2316 0.950 . S
C2326 C2327 1.386 . S
C2326 C2328 1.391 . S
C2327 C2326 1.386 . S
C2327 C2331 1.393 . S
C2328 H2317 0.950 . S
C2328 C2326 1.391 . S
C2328 C2329 1.400 . S
C2329 C2323 1.491 . S
C2329 C2328 1.400 . S
C2329 C2330 1.398 . S
C2330 H2318 0.950 . S
C2330 C2329 1.398 . S
C2330 C2331 1.391 . S
C2331 H2319 0.950 . S
C2331 C2327 1.393 . S
C2331 C2330 1.391 . S
H2332 C2340 0.950 . S
H2333 C2345 0.950 . S
H2334 C2342 0.950 . S
H2335 C2344 0.950 . S
H2336 C2346 0.950 . S
H2337 C2348 0.950 . S
H2338 C2350 0.950 . S
H2339 C2351 0.950 . S
C2340 H2332 0.950 . S
C2340 C2341 1.386 . S
C2340 C2342 1.391 . S
C2341 C2340 1.386 . S
C2341 C2345 1.393 . S
C2342 H2334 0.950 . S
C2342 C2340 1.391 . S
C2342 C2343 1.400 . S
C2343 C2342 1.400 . S
C2343 C2344 1.398 . S
C2343 C2349 1.491 . S
C2344 H2335 0.950 . S
C2344 C2343 1.398 . S
C2344 C2345 1.391 . S
C2345 H2333 0.950 . S
C2345 C2341 1.393 . S
C2345 C2344 1.391 . S
C2346 H2336 0.950 . S
C2346 C2347 1.386 . S
C2346 C2348 1.391 . S
C2347 C2346 1.386 . S
C2347 C2351 1.393 . S
C2348 H2337 0.950 . S
C2348 C2346 1.391 . S
C2348 C2349 1.400 . S
C2349 C2343 1.491 . S
C2349 C2348 1.400 . S
C2349 C2350 1.398 . S
C2350 H2338 0.950 . S
C2350 C2349 1.398 . S
C2350 C2351 1.391 . S
C2351 H2339 0.950 . S
C2351 C2347 1.393 . S
C2351 C2350 1.391 . S
H2352 C2360 0.950 . S
H2353 C2365 0.950 . S
H2354 C2362 0.950 . S
H2355 C2364 0.950 . S
H2356 C2366 0.950 . S
H2357 C2368 0.950 . S
H2358 C2370 0.950 . S
H2359 C2371 0.950 . S
C2360 H2352 0.950 . S
C2360 C2361 1.386 . S
C2360 C2362 1.391 . S
C2361 C2360 1.386 . S
C2361 C2365 1.393 . S
C2362 H2354 0.950 . S
C2362 C2360 1.391 . S
C2362 C2363 1.400 . S
C2363 C2362 1.400 . S
C2363 C2364 1.398 . S
C2363 C2369 1.491 . S
C2364 H2355 0.950 . S
C2364 C2363 1.398 . S
C2364 C2365 1.391 . S
C2365 H2353 0.950 . S
C2365 C2361 1.393 . S
C2365 C2364 1.391 . S
C2366 H2356 0.950 . S
C2366 C2367 1.386 . S
C2366 C2368 1.391 . S
C2367 C2366 1.386 . S
C2367 C2371 1.393 . S
C2368 H2357 0.950 . S
C2368 C2366 1.391 . S
C2368 C2369 1.400 . S
C2369 C2363 1.491 . S
C2369 C2368 1.400 . S
C2369 C2370 1.398 . S
C2370 H2358 0.950 . S
C2370 C2369 1.398 . S
C2370 C2371 1.391 . S
C2371 H2359 0.950 . S
C2371 C2367 1.393 . S
C2371 C2370 1.391 . S
H2372 C2380 0.950 . S
H2373 C2385 0.950 . S
H2374 C2382 0.950 . S
H2375 C2384 0.950 . S
H2376 C2386 0.950 . S
H2377 C2388 0.950 . S
H2378 C2390 0.950 . S
H2379 C2391 0.950 . S
C2380 H2372 0.950 . S
C2380 C2381 1.386 . S
C2380 C2382 1.391 . S
C2381 C2380 1.386 . S
C2381 C2385 1.393 . S
C2382 H2374 0.950 . S
C2382 C2380 1.391 . S
C2382 C2383 1.400 . S
C2383 C2382 1.400 . S
C2383 C2384 1.398 . S
C2383 C2389 1.491 . S
C2384 H2375 0.950 . S
C2384 C2383 1.398 . S
C2384 C2385 1.391 . S
C2385 H2373 0.950 . S
C2385 C2381 1.393 . S
C2385 C2384 1.391 . S
C2386 H2376 0.950 . S
C2386 C2387 1.386 . S
C2386 C2388 1.391 . S
C2387 C2386 1.386 . S
C2387 C2391 1.393 . S
C2388 H2377 0.950 . S
C2388 C2386 1.391 . S
C2388 C2389 1.400 . S
C2389 C2383 1.491 . S
C2389 C2388 1.400 . S
C2389 C2390 1.398 . S
C2390 H2378 0.950 . S
C2390 C2389 1.398 . S
C2390 C2391 1.391 . S
C2391 H2379 0.950 . S
C2391 C2387 1.393 . S
C2391 C2390 1.391 . S
H2392 C2400 0.950 . S
H2393 C2405 0.950 . S
H2394 C2402 0.950 . S
H2395 C2404 0.950 . S
H2396 C2406 0.950 . S
H2397 C2408 0.950 . S
H2398 C2410 0.950 . S
H2399 C2411 0.950 . S
C2400 H2392 0.950 . S
C2400 C2401 1.386 . S
C2400 C2402 1.391 . S
C2401 C2400 1.386 . S
C2401 C2405 1.393 . S
C2402 H2394 0.950 . S
C2402 C2400 1.391 . S
C2402 C2403 1.400 . S
C2403 C2402 1.400 . S
C2403 C2404 1.398 . S
C2403 C2409 1.491 . S
C2404 H2395 0.950 . S
C2404 C2403 1.398 . S
C2404 C2405 1.391 . S
C2405 H2393 0.950 . S
C2405 C2401 1.393 . S
C2405 C2404 1.391 . S
C2406 H2396 0.950 . S
C2406 C2407 1.386 . S
C2406 C2408 1.391 . S
C2407 C2406 1.386 . S
C2407 C2411 1.393 . S
C2408 H2397 0.950 . S
C2408 C2406 1.391 . S
C2408 C2409 1.400 . S
C2409 C2403 1.491 . S
C2409 C2408 1.400 . S
C2409 C2410 1.398 . S
C2410 H2398 0.950 . S
C2410 C2409 1.398 . S
C2410 C2411 1.391 . S
C2411 H2399 0.950 . S
C2411 C2407 1.393 . S
C2411 C2410 1.391 . S
H2412 C2420 0.950 . S
H2413 C2425 0.950 . S
H2414 C2422 0.950 . S
H2415 C2424 0.950 . S
H2416 C2426 0.950 . S
H2417 C2428 0.950 . S
H2418 C2430 0.950 . S
H2419 C2431 0.950 . S
C2420 H2412 0.950 . S
C2420 C2421 1.386 . S
C2420 C2422 1.391 . S
C2421 C2420 1.386 . S
C2421 C2425 1.393 . S
C2422 H2414 0.950 . S
C2422 C2420 1.391 . S
C2422 C2423 1.400 . S
C2423 C2422 1.400 . S
C2423 C2424 1.398 . S
C2423 C2429 1.491 . S
C2424 H2415 0.950 . S
C2424 C2423 1.398 . S
C2424 C2425 1.391 . S
C2425 H2413 0.950 . S
C2425 C2421 1.393 . S
C2425 C2424 1.391 . S
C2426 H2416 0.950 . S
C2426 C2427 1.386 . S
C2426 C2428 1.391 . S
C2427 C2426 1.386 . S
C2427 C2431 1.393 . S
C2428 H2417 0.950 . S
C2428 C2426 1.391 . S
C2428 C2429 1.400 . S
C2429 C2423 1.491 . S
C2429 C2428 1.400 . S
C2429 C2430 1.398 . S
C2430 H2418 0.950 . S
C2430 C2429 1.398 . S
C2430 C2431 1.391 . S
C2431 H2419 0.950 . S
C2431 C2427 1.393 . S
C2431 C2430 1.391 . S
H2432 C2440 0.950 . S
H2433 C2445 0.950 . S
H2434 C2442 0.950 . S
H2435 C2444 0.950 . S
H2436 C2446 0.950 . S
H2437 C2448 0.950 . S
H2438 C2450 0.950 . S
H2439 C2451 0.950 . S
C2440 H2432 0.950 . S
C2440 C2441 1.386 . S
C2440 C2442 1.391 . S
C2441 C2440 1.386 . S
C2441 C2445 1.393 . S
C2442 H2434 0.950 . S
C2442 C2440 1.391 . S
C2442 C2443 1.400 . S
C2443 C2442 1.400 . S
C2443 C2444 1.398 . S
C2443 C2449 1.491 . S
C2444 H2435 0.950 . S
C2444 C2443 1.398 . S
C2444 C2445 1.391 . S
C2445 H2433 0.950 . S
C2445 C2441 1.393 . S
C2445 C2444 1.391 . S
C2446 H2436 0.950 . S
C2446 C2447 1.386 . S
C2446 C2448 1.391 . S
C2447 C2446 1.386 . S
C2447 C2451 1.393 . S
C2448 H2437 0.950 . S
C2448 C2446 1.391 . S
C2448 C2449 1.400 . S
C2449 C2443 1.491 . S
C2449 C2448 1.400 . S
C2449 C2450 1.398 . S
C2450 H2438 0.950 . S
C2450 C2449 1.398 . S
C2450 C2451 1.391 . S
C2451 H2439 0.950 . S
C2451 C2447 1.393 . S
C2451 C2450 1.391 . S
H2452 C2460 0.950 . S
H2453 C2465 0.950 . S
H2454 C2462 0.950 . S
H2455 C2464 0.950 . S
H2456 C2466 0.950 . S
H2457 C2468 0.950 . S
H2458 C2470 0.950 . S
H2459 C2471 0.950 . S
C2460 H2452 0.950 . S
C2460 C2461 1.386 . S
C2460 C2462 1.391 . S
C2461 C2460 1.386 . S
C2461 C2465 1.393 . S
C2462 H2454 0.950 . S
C2462 C2460 1.391 . S
C2462 C2463 1.400 . S
C2463 C2462 1.400 . S
C2463 C2464 1.398 . S
C2463 C2469 1.491 . S
C2464 H2455 0.950 . S
C2464 C2463 1.398 . S
C2464 C2465 1.391 . S
C2465 H2453 0.950 . S
C2465 C2461 1.393 . S
C2465 C2464 1.391 . S
C2466 H2456 0.950 . S
C2466 C2467 1.386 . S
C2466 C2468 1.391 . S
C2467 C2466 1.386 . S
C2467 C2471 1.393 . S
C2468 H2457 0.950 . S
C2468 C2466 1.391 . S
C2468 C2469 1.400 . S
C2469 C2463 1.491 . S
C2469 C2468 1.400 . S
C2469 C2470 1.398 . S
C2470 H2458 0.950 . S
C2470 C2469 1.398 . S
C2470 C2471 1.391 . S
C2471 H2459 0.950 . S
C2471 C2467 1.393 . S
C2471 C2470 1.391 . S
H2472 C2480 0.950 . S
H2473 C2485 0.950 . S
H2474 C2482 0.950 . S
H2475 C2484 0.950 . S
H2476 C2486 0.950 . S
H2477 C2488 0.950 . S
H2478 C2490 0.950 . S
H2479 C2491 0.950 . S
C2480 H2472 0.950 . S
C2480 C2481 1.386 . S
C2480 C2482 1.391 . S
C2481 C2480 1.386 . S
C2481 C2485 1.393 . S
C2482 H2474 0.950 . S
C2482 C2480 1.391 . S
C2482 C2483 1.400 . S
C2483 C2482 1.400 . S
C2483 C2484 1.398 . S
C2483 C2489 1.491 . S
C2484 H2475 0.950 . S
C2484 C2483 1.398 . S
C2484 C2485 1.391 . S
C2485 H2473 0.950 . S
C2485 C2481 1.393 . S
C2485 C2484 1.391 . S
C2486 H2476 0.950 . S
C2486 C2487 1.386 . S
C2486 C2488 1.391 . S
C2487 C2486 1.386 . S
C2487 C2491 1.393 . S
C2488 H2477 0.950 . S
C2488 C2486 1.391 . S
C2488 C2489 1.400 . S
C2489 C2483 1.491 . S
C2489 C2488 1.400 . S
C2489 C2490 1.398 . S
C2490 H2478 0.950 . S
C2490 C2489 1.398 . S
C2490 C2491 1.391 . S
C2491 H2479 0.950 . S
C2491 C2487 1.393 . S
C2491 C2490 1.391 . S
H2492 C2500 0.950 . S
H2493 C2505 0.950 . S
H2494 C2502 0.950 . S
H2495 C2504 0.950 . S
H2496 C2506 0.950 . S
H2497 C2508 0.950 . S
H2498 C2510 0.950 . S
H2499 C2511 0.950 . S
C2500 H2492 0.950 . S
C2500 C2501 1.386 . S
C2500 C2502 1.391 . S
C2501 C2500 1.386 . S
C2501 C2505 1.393 . S
C2502 H2494 0.950 . S
C2502 C2500 1.391 . S
C2502 C2503 1.400 . S
C2503 C2502 1.400 . S
C2503 C2504 1.398 . S
C2503 C2509 1.491 . S
C2504 H2495 0.950 . S
C2504 C2503 1.398 . S
C2504 C2505 1.391 . S
C2505 H2493 0.950 . S
C2505 C2501 1.393 . S
C2505 C2504 1.391 . S
C2506 H2496 0.950 . S
C2506 C2507 1.386 . S
C2506 C2508 1.391 . S
C2507 C2506 1.386 . S
C2507 C2511 1.393 . S
C2508 H2497 0.950 . S
C2508 C2506 1.391 . S
C2508 C2509 1.400 . S
C2509 C2503 1.491 . S
C2509 C2508 1.400 . S
C2509 C2510 1.398 . S
C2510 H2498 0.950 . S
C2510 C2509 1.398 . S
C2510 C2511 1.391 . S
C2511 H2499 0.950 . S
C2511 C2507 1.393 . S
C2511 C2510 1.391 . S
H2512 C2520 0.950 . S
H2513 C2525 0.950 . S
H2514 C2522 0.950 . S
H2515 C2524 0.950 . S
H2516 C2526 0.950 . S
H2517 C2528 0.950 . S
H2518 C2530 0.950 . S
H2519 C2531 0.950 . S
C2520 H2512 0.950 . S
C2520 C2521 1.386 . S
C2520 C2522 1.391 . S
C2521 C2520 1.386 . S
C2521 C2525 1.393 . S
C2522 H2514 0.950 . S
C2522 C2520 1.391 . S
C2522 C2523 1.400 . S
C2523 C2522 1.400 . S
C2523 C2524 1.398 . S
C2523 C2529 1.491 . S
C2524 H2515 0.950 . S
C2524 C2523 1.398 . S
C2524 C2525 1.391 . S
C2525 H2513 0.950 . S
C2525 C2521 1.393 . S
C2525 C2524 1.391 . S
C2526 H2516 0.950 . S
C2526 C2527 1.386 . S
C2526 C2528 1.391 . S
C2527 C2526 1.386 . S
C2527 C2531 1.393 . S
C2528 H2517 0.950 . S
C2528 C2526 1.391 . S
C2528 C2529 1.400 . S
C2529 C2523 1.491 . S
C2529 C2528 1.400 . S
C2529 C2530 1.398 . S
C2530 H2518 0.950 . S
C2530 C2529 1.398 . S
C2530 C2531 1.391 . S
C2531 H2519 0.950 . S
C2531 C2527 1.393 . S
C2531 C2530 1.391 . S
H2532 C2540 0.950 . S
H2533 C2545 0.950 . S
H2534 C2542 0.950 . S
H2535 C2544 0.950 . S
H2536 C2546 0.950 . S
H2537 C2548 0.950 . S
H2538 C2550 0.950 . S
H2539 C2551 0.950 . S
C2540 H2532 0.950 . S
C2540 C2541 1.386 . S
C2540 C2542 1.391 . S
C2541 C2540 1.386 . S
C2541 C2545 1.393 . S
C2542 H2534 0.950 . S
C2542 C2540 1.391 . S
C2542 C2543 1.400 . S
C2543 C2542 1.400 . S
C2543 C2544 1.398 . S
C2543 C2549 1.491 . S
C2544 H2535 0.950 . S
C2544 C2543 1.398 . S
C2544 C2545 1.391 . S
C2545 H2533 0.950 . S
C2545 C2541 1.393 . S
C2545 C2544 1.391 . S
C2546 H2536 0.950 . S
C2546 C2547 1.386 . S
C2546 C2548 1.391 . S
C2547 C2546 1.386 . S
C2547 C2551 1.393 . S
C2548 H2537 0.950 . S
C2548 C2546 1.391 . S
C2548 C2549 1.400 . S
C2549 C2543 1.491 . S
C2549 C2548 1.400 . S
C2549 C2550 1.398 . S
C2550 H2538 0.950 . S
C2550 C2549 1.398 . S
C2550 C2551 1.391 . S
C2551 H2539 0.950 . S
C2551 C2547 1.393 . S
C2551 C2550 1.391 . S
H2552 C2560 0.950 . S
H2553 C2565 0.950 . S
H2554 C2562 0.950 . S
H2555 C2564 0.950 . S
H2556 C2566 0.950 . S
H2557 C2568 0.950 . S
H2558 C2570 0.950 . S
H2559 C2571 0.950 . S
C2560 H2552 0.950 . S
C2560 C2561 1.386 . S
C2560 C2562 1.391 . S
C2561 C2560 1.386 . S
C2561 C2565 1.393 . S
C2562 H2554 0.950 . S
C2562 C2560 1.391 . S
C2562 C2563 1.400 . S
C2563 C2562 1.400 . S
C2563 C2564 1.398 . S
C2563 C2569 1.491 . S
C2564 H2555 0.950 . S
C2564 C2563 1.398 . S
C2564 C2565 1.391 . S
C2565 H2553 0.950 . S
C2565 C2561 1.393 . S
C2565 C2564 1.391 . S
C2566 H2556 0.950 . S
C2566 C2567 1.386 . S
C2566 C2568 1.391 . S
C2567 C2566 1.386 . S
C2567 C2571 1.393 . S
C2568 H2557 0.950 . S
C2568 C2566 1.391 . S
C2568 C2569 1.400 . S
C2569 C2563 1.491 . S
C2569 C2568 1.400 . S
C2569 C2570 1.398 . S
C2570 H2558 0.950 . S
C2570 C2569 1.398 . S
C2570 C2571 1.391 . S
C2571 H2559 0.950 . S
C2571 C2567 1.393 . S
C2571 C2570 1.391 . S
H2572 C2580 0.950 . S
H2573 C2585 0.950 . S
H2574 C2582 0.950 . S
H2575 C2584 0.950 . S
H2576 C2586 0.950 . S
H2577 C2588 0.950 . S
H2578 C2590 0.950 . S
H2579 C2591 0.950 . S
C2580 H2572 0.950 . S
C2580 C2581 1.386 . S
C2580 C2582 1.391 . S
C2581 C2580 1.386 . S
C2581 C2585 1.393 . S
C2582 H2574 0.950 . S
C2582 C2580 1.391 . S
C2582 C2583 1.400 . S
C2583 C2582 1.400 . S
C2583 C2584 1.398 . S
C2583 C2589 1.491 . S
C2584 H2575 0.950 . S
C2584 C2583 1.398 . S
C2584 C2585 1.391 . S
C2585 H2573 0.950 . S
C2585 C2581 1.393 . S
C2585 C2584 1.391 . S
C2586 H2576 0.950 . S
C2586 C2587 1.386 . S
C2586 C2588 1.391 . S
C2587 C2586 1.386 . S
C2587 C2591 1.393 . S
C2588 H2577 0.950 . S
C2588 C2586 1.391 . S
C2588 C2589 1.400 . S
C2589 C2583 1.491 . S
C2589 C2588 1.400 . S
C2589 C2590 1.398 . S
C2590 H2578 0.950 . S
C2590 C2589 1.398 . S
C2590 C2591 1.391 . S
C2591 H2579 0.950 . S
C2591 C2587 1.393 . S
C2591 C2590 1.391 . S
C681 C288 1.356 . S
C687 C8 1.351 . S
C701 C25 0.985 . S
C707 C249 0.985 . S
C721 C36 1.359 . S
C727 C260 1.337 . S
C741 C277 0.983 . S
C747 C53 0.985 . S
C761 C330 1.185 . S
C767 C67 1.199 . S
C781 C81 1.054 . S
C787 C305 1.052 . S
C801 C95 1.197 . S
C807 C316 1.190 . S
C821 C109 1.042 . S
C827 C235 1.041 . S
C841 C120 1.245 . S
C847 C218 1.265 . S
C861 C137 1.297 . S
C867 C176 1.295 . S
C881 C148 1.265 . S
C887 C190 1.256 . S
C901 C204 1.279 . S
C907 C165 1.292 . S
C921 C347 1.157 . S
C927 C624 1.175 . S
C941 C585 0.882 . S
C947 C361 0.879 . S
C961 C375 1.156 . S
C967 C596 1.177 . S
C981 C613 0.875 . S
C987 C389 0.887 . S
C1001 C400 1.176 . S
C1007 C666 1.172 . S
C1021 C641 0.956 . S
C1027 C417 0.975 . S
C1041 C428 1.164 . S
C1047 C652 1.172 . S
C1061 C571 0.956 . S
C1067 C445 0.974 . S
C1081 C456 1.166 . S
C1087 C557 1.174 . S
C1101 C512 1.174 . S
C1107 C470 1.174 . S
C1121 C529 1.167 . S
C1127 C484 1.180 . S
C1141 C540 1.187 . S
C1147 C498 1.176 . S
C1161 C372 0.902 . S
C1167 C11 0.905 . S
C1181 C22 0.874 . S
C1187 C386 0.882 . S
C1201 C39 0.922 . S
C1207 C344 0.922 . S
C1221 C50 0.879 . S
C1227 C358 0.871 . S
C1241 C64 0.917 . S
C1247 C431 0.928 . S
C1261 C442 0.880 . S
C1267 C78 0.889 . S
C1281 C403 0.921 . S
C1287 C92 0.905 . S
C1301 C414 0.882 . S
C1307 C106 0.889 . S
C1321 C515 0.737 . S
C1327 C123 0.743 . S
C1341 C134 0.937 . S
C1347 C526 0.944 . S
C1361 C543 0.733 . S
C1367 C151 0.743 . S
C1381 C162 0.943 . S
C1387 C554 0.957 . S
C1401 C179 0.713 . S
C1407 C459 0.726 . S
C1421 C193 0.886 . S
C1427 C473 0.895 . S
C1441 C487 0.735 . S
C1447 C207 0.723 . S
C1461 C501 0.882 . S
C1467 C221 0.889 . S
C1481 C232 0.879 . S
C1487 C610 0.872 . S
C1501 C246 0.873 . S
C1507 C638 0.865 . S
C1521 C655 0.717 . S
C1527 C263 0.720 . S
C1541 C568 0.869 . S
C1547 C274 0.863 . S
C1561 C291 0.736 . S
C1567 C669 0.722 . S
C1581 C582 0.889 . S
C1587 C302 0.881 . S
C1601 C319 0.733 . S
C1607 C599 0.722 . S
C1621 C333 0.722 . S
C1627 C627 0.729 . S
C1641 C405 1.775 . S
C1647 C7 1.818 . S
C1661 C413 1.710 . S
C1667 C27 1.729 . S
C1681 C433 1.786 . S
C1687 C35 1.809 . S
C1701 C55 1.733 . S
C1707 C441 1.718 . S
C1721 C343 1.802 . S
C1727 C69 1.793 . S
C1741 C357 1.669 . S
C1747 C83 1.690 . S
C1761 C97 1.779 . S
C1767 C371 1.802 . S
C1781 C385 1.669 . S
C1787 C111 1.690 . S
C1801 C119 1.813 . S
C1807 C545 1.793 . S
C1821 C139 1.778 . S
C1827 C553 1.785 . S
C1841 C517 1.779 . S
C1847 C147 1.814 . S
C1861 C167 1.781 . S
C1867 C525 1.797 . S
C1881 C489 1.711 . S
C1887 C175 1.722 . S
C1901 C189 1.808 . S
C1907 C503 1.791 . S
C1921 C203 1.723 . S
C1927 C461 1.713 . S
C1941 C217 1.812 . S
C1947 C475 1.781 . S
C1961 C637 1.662 . S
C1967 C237 1.656 . S
C1981 C251 1.745 . S
C1987 C609 1.723 . S
C2001 C259 1.738 . S
C2007 C629 1.715 . S
C2021 C279 1.747 . S
C2027 C581 1.724 . S
C2041 C601 1.724 . S
C2047 C287 1.738 . S
C2061 C567 1.653 . S
C2067 C307 1.672 . S
C2081 C671 1.790 . S
C2087 C315 1.796 . S
C2101 C329 1.809 . S
C2107 C657 1.775 . S
C2121 C223 1.683 . S
C2127 C13 1.714 . S
C2141 C21 1.739 . S
C2147 C181 1.797 . S
C2161 C195 1.696 . S
C2167 C41 1.695 . S
C2181 C209 1.799 . S
C2187 C49 1.751 . S
C2201 C133 1.736 . S
C2207 C63 1.734 . S
C2221 C77 1.638 . S
C2227 C153 1.648 . S
C2241 C91 1.743 . S
C2247 C161 1.745 . S
C2261 C125 1.667 . S
C2267 C105 1.643 . S
C2281 C231 1.657 . S
C2287 C293 1.691 . S
C2301 C335 1.745 . S
C2307 C245 1.700 . S
C2321 C301 1.678 . S
C2327 C265 1.713 . S
C2341 C273 1.712 . S
C2347 C321 1.736 . S
C2361 C559 1.618 . S
C2367 C349 1.582 . S
C2381 C511 1.705 . S
C2387 C363 1.769 . S
C2401 C377 1.594 . S
C2407 C531 1.614 . S
C2421 C539 1.736 . S
C2427 C391 1.788 . S
C2441 C469 1.660 . S
C2447 C399 1.656 . S
C2461 C419 1.749 . S
C2467 C483 1.694 . S
C2481 C427 1.642 . S
C2487 C497 1.644 . S
C2501 C447 1.745 . S
C2507 C455 1.685 . S
C2521 C573 1.715 . S
C2527 C623 1.685 . S
C2541 C665 1.742 . S
C2547 C587 1.818 . S
C2561 C643 1.727 . S
C2567 C595 1.679 . S
C2581 C651 1.749 . S
C2587 C615 1.820 . S
