# Generated by pormake.
# Topology wjt, (5)-cn, num edge types: 1
# Building blocks:
#     Node 0, Type 0, BuildingBlock: XOMCOT_clean_sbu_0, # of connection points: 5
#     Node 1, Type 0, BuildingBlock: XOMCOT_clean_sbu_0, # of connection points: 5
#     Node 2, Type 0, BuildingBlock: XOMCOT_clean_sbu_0, # of connection points: 5
#     Node 3, Type 0, BuildingBlock: XOMCOT_clean_sbu_0, # of connection points: 5
#     Node 4, Type 0, BuildingBlock: XOMCOT_clean_sbu_0, # of connection points: 5
#     Node 5, Type 0, BuildingBlock: XOMCOT_clean_sbu_0, # of connection points: 5
#     Node 6, Type 0, BuildingBlock: XOMCOT_clean_sbu_0, # of connection points: 5
#     Node 7, Type 0, BuildingBlock: XOMCOT_clean_sbu_0, # of connection points: 5
#     Node 8, Type 0, BuildingBlock: XOMCOT_clean_sbu_0, # of connection points: 5
#     Node 9, Type 0, BuildingBlock: XOMCOT_clean_sbu_0, # of connection points: 5
#     Node 10, Type 0, BuildingBlock: XOMCOT_clean_sbu_0, # of connection points: 5
#     Node 11, Type 0, BuildingBlock: XOMCOT_clean_sbu_0, # of connection points: 5
#     Edge 12, Type (0, 0), BuildingBlock: MIFKUJ_clean_linker_0, # of connection points: 2
#     Edge 13, Type (0, 0), BuildingBlock: MIFKUJ_clean_linker_0, # of connection points: 2
#     Edge 14, Type (0, 0), BuildingBlock: MIFKUJ_clean_linker_0, # of connection points: 2
#     Edge 15, Type (0, 0), BuildingBlock: MIFKUJ_clean_linker_0, # of connection points: 2
#     Edge 16, Type (0, 0), BuildingBlock: MIFKUJ_clean_linker_0, # of connection points: 2
#     Edge 17, Type (0, 0), BuildingBlock: MIFKUJ_clean_linker_0, # of connection points: 2
#     Edge 18, Type (0, 0), BuildingBlock: MIFKUJ_clean_linker_0, # of connection points: 2
#     Edge 19, Type (0, 0), BuildingBlock: MIFKUJ_clean_linker_0, # of connection points: 2
#     Edge 20, Type (0, 0), BuildingBlock: MIFKUJ_clean_linker_0, # of connection points: 2
#     Edge 21, Type (0, 0), BuildingBlock: MIFKUJ_clean_linker_0, # of connection points: 2
#     Edge 22, Type (0, 0), BuildingBlock: MIFKUJ_clean_linker_0, # of connection points: 2
#     Edge 23, Type (0, 0), BuildingBlock: MIFKUJ_clean_linker_0, # of connection points: 2
#     Edge 24, Type (0, 0), BuildingBlock: MIFKUJ_clean_linker_0, # of connection points: 2
#     Edge 25, Type (0, 0), BuildingBlock: MIFKUJ_clean_linker_0, # of connection points: 2
#     Edge 26, Type (0, 0), BuildingBlock: MIFKUJ_clean_linker_0, # of connection points: 2
#     Edge 27, Type (0, 0), BuildingBlock: MIFKUJ_clean_linker_0, # of connection points: 2
#     Edge 28, Type (0, 0), BuildingBlock: MIFKUJ_clean_linker_0, # of connection points: 2
#     Edge 29, Type (0, 0), BuildingBlock: MIFKUJ_clean_linker_0, # of connection points: 2
#     Edge 30, Type (0, 0), BuildingBlock: MIFKUJ_clean_linker_0, # of connection points: 2
#     Edge 31, Type (0, 0), BuildingBlock: MIFKUJ_clean_linker_0, # of connection points: 2
#     Edge 32, Type (0, 0), BuildingBlock: MIFKUJ_clean_linker_0, # of connection points: 2
#     Edge 33, Type (0, 0), BuildingBlock: MIFKUJ_clean_linker_0, # of connection points: 2
#     Edge 34, Type (0, 0), BuildingBlock: MIFKUJ_clean_linker_0, # of connection points: 2
#     Edge 35, Type (0, 0), BuildingBlock: MIFKUJ_clean_linker_0, # of connection points: 2
#     Edge 36, Type (0, 0), BuildingBlock: MIFKUJ_clean_linker_0, # of connection points: 2
#     Edge 37, Type (0, 0), BuildingBlock: MIFKUJ_clean_linker_0, # of connection points: 2
#     Edge 38, Type (0, 0), BuildingBlock: MIFKUJ_clean_linker_0, # of connection points: 2
#     Edge 39, Type (0, 0), BuildingBlock: MIFKUJ_clean_linker_0, # of connection points: 2
#     Edge 40, Type (0, 0), BuildingBlock: MIFKUJ_clean_linker_0, # of connection points: 2
#     Edge 41, Type (0, 0), BuildingBlock: MIFKUJ_clean_linker_0, # of connection points: 2
# Relax obj value: 0.228
# Max RMSD: 0.184
# Mean RMSD: 0.184
data_MOF--net-wjt--node1-XOMCOT_clean_sbu_0--edge1-MIFKUJ_clean_linker_0
_symmetry_space_group_name_H-M    P1
_symmetry_Int_Tables_number       1
_symmetry_cell_setting            triclinic
loop_
_symmetry_equiv_pos_as_xyz
'x, y, z'
_cell_length_a     86.747059
_cell_length_b     86.731522
_cell_length_c     21.656076
_cell_angle_alpha  89.984354
_cell_angle_beta   89.991
_cell_angle_gamma 119.99096
loop_
_atom_site_label
_atom_site_type_symbol
_atom_site_fract_x
_atom_site_fract_y
_atom_site_fract_z
_atom_type_partial_charge
Co0 Co 0.31351 0.43512 0.24724 0.0
C1 C 0.30718 0.43207 0.38221 0.0
C2 C 0.28272 0.42068 0.33213 0.0
C3 C 0.27885 0.41798 0.39423 0.0
N4 N 0.30054 0.43011 0.32465 0.0
N5 N 0.29433 0.42522 0.42566 0.0
H6 H 0.32101 0.43695 0.39221 0.0
H7 H 0.2731 0.41542 0.29507 0.0
C8 C 0.28474 0.4436 0.21591 0.0
O9 O 0.28814 0.45267 0.26758 0.0
N10 N 0.32602 0.43936 0.17035 0.0
C11 C 0.34371 0.44836 0.16063 0.0
C12 C 0.34675 0.44757 0.09851 0.0
C13 C 0.31856 0.43312 0.11494 0.0
N14 N 0.33087 0.43797 0.06986 0.0
C15 C 0.3378 0.46731 0.31011 0.0
C16 C 0.33591 0.49086 0.22892 0.0
C17 C 0.34724 0.49762 0.28023 0.0
C18 C 0.34813 0.48553 0.32078 0.0
C19 C 0.32561 0.4724 0.22024 0.0
N20 N 0.3261 0.4608 0.26201 0.0
H21 H 0.34009 0.45859 0.33888 0.0
H22 H 0.31773 0.46751 0.17873 0.0
H23 H 0.35365 0.45496 0.19616 0.0
H24 H 0.30434 0.42534 0.10805 0.0
O25 O 0.33036 0.42971 0.28487 0.0
O26 O 0.30532 0.40986 0.23952 0.0
O27 O 0.29351 0.43585 0.20183 0.0
C28 C 0.31988 0.4133 0.26843 0.0
H29 H 0.26568 0.41086 0.41429 0.0
H30 H 0.35966 0.45351 0.07653 0.0
H31 H 0.33518 0.49973 0.19534 0.0
H32 H 0.35741 0.4901 0.35905 0.0
Co33 Co 0.8824 0.31062 0.59784 0.0
C34 C 0.87573 0.30272 0.73239 0.0
C35 C 0.87295 0.28046 0.68046 0.0
C36 C 0.87094 0.27602 0.74215 0.0
N37 N 0.87575 0.29714 0.67424 0.0
N38 N 0.8727 0.29007 0.77464 0.0
H39 H 0.87889 0.31599 0.74455 0.0
H40 H 0.87284 0.27225 0.64268 0.0
C41 C 0.84586 0.27934 0.57274 0.0
O42 O 0.84115 0.27945 0.63029 0.0
N43 N 0.88924 0.32357 0.52131 0.0
C44 C 0.89524 0.34099 0.5113 0.0
C45 C 0.89722 0.34404 0.44846 0.0
C46 C 0.88791 0.31634 0.46529 0.0
N47 N 0.89262 0.3285 0.41989 0.0
C48 C 0.87704 0.33653 0.66038 0.0
C49 C 0.84737 0.33137 0.59581 0.0
C50 C 0.85546 0.34553 0.63759 0.0
C51 C 0.87027 0.34785 0.67072 0.0
C52 C 0.85469 0.32034 0.58637 0.0
N53 N 0.86925 0.32278 0.61924 0.0
H54 H 0.88921 0.33955 0.68361 0.0
H55 H 0.84926 0.31071 0.54965 0.0
H56 H 0.89767 0.35069 0.54689 0.0
H57 H 0.883 0.3023 0.45786 0.0
O58 O 0.90507 0.32732 0.6332 0.0
O59 O 0.89968 0.30294 0.58289 0.0
O60 O 0.86138 0.29076 0.55367 0.0
C61 C 0.91099 0.31721 0.61267 0.0
H62 H 0.8687 0.26356 0.76157 0.0
H63 H 0.90161 0.35667 0.4256 0.0
H64 H 0.83621 0.32953 0.56792 0.0
H65 H 0.87706 0.35883 0.70278 0.0
Co66 Co 0.56782 0.8813 0.90757 0.0
C67 C 0.56908 0.87592 0.04222 0.0
C68 C 0.58524 0.8681 0.99176 0.0
C69 C 0.58727 0.86616 0.05383 0.0
N70 N 0.57339 0.87371 0.98444 0.0
N71 N 0.57705 0.8711 0.08548 0.0
H72 H 0.56147 0.88224 0.05297 0.0
H73 H 0.59236 0.86606 0.95459 0.0
C74 C 0.56264 0.84514 0.87778 0.0
O75 O 0.55461 0.83921 0.93115 0.0
N76 N 0.56298 0.88915 0.83098 0.0
C77 C 0.55295 0.89675 0.82115 0.0
C78 C 0.55302 0.89993 0.75871 0.0
C79 C 0.56912 0.88794 0.77536 0.0
N80 N 0.5632 0.89434 0.73009 0.0
C81 C 0.53494 0.8726 0.96666 0.0
C82 C 0.51258 0.84504 0.88977 0.0
C83 C 0.50514 0.85012 0.93762 0.0
C84 C 0.51664 0.86415 0.9761 0.0
C85 C 0.53111 0.85383 0.88222 0.0
N86 N 0.54217 0.86704 0.92198 0.0
H87 H 0.54312 0.88436 0.99333 0.0
H88 H 0.5364 0.8505 0.84259 0.0
H89 H 0.546 0.89963 0.85671 0.0
H90 H 0.57744 0.88209 0.76827 0.0
O91 O 0.57198 0.90301 0.94614 0.0
O92 O 0.59281 0.89947 0.9003 0.0
O93 O 0.56846 0.86132 0.86187 0.0
C94 C 0.58855 0.90986 0.93017 0.0
H95 H 0.59592 0.86186 0.07381 0.0
H96 H 0.5461 0.90588 0.73636 0.0
H97 H 0.50416 0.83463 0.85766 0.0
H98 H 0.51153 0.86925 0.01139 0.0
Co99 Co 0.68787 0.57074 0.22584 0.0
C100 C 0.69461 0.57247 0.36112 0.0
C101 C 0.71722 0.59192 0.31059 0.0
C102 C 0.72153 0.59383 0.37241 0.0
N103 N 0.70038 0.57838 0.3036 0.0
N104 N 0.70728 0.58146 0.40373 0.0
H105 H 0.68138 0.56225 0.3728 0.0
H106 H 0.72578 0.59984 0.27315 0.0
C107 C 0.71826 0.56371 0.21408 0.0
O108 O 0.71464 0.5566 0.26953 0.0
N109 N 0.67592 0.56366 0.14784 0.0
C110 C 0.65828 0.55474 0.13715 0.0
C111 C 0.65561 0.55191 0.07451 0.0
C112 C 0.68373 0.56618 0.09243 0.0
N113 N 0.67167 0.55909 0.04653 0.0
C114 C 0.66139 0.54034 0.29048 0.0
C115 C 0.66604 0.51477 0.23128 0.0
C116 C 0.65215 0.50936 0.27421 0.0
C117 C 0.65017 0.5225 0.30456 0.0
C118 C 0.67723 0.53298 0.21903 0.0
N119 N 0.67521 0.54563 0.25004 0.0
H120 H 0.65846 0.54988 0.3112 0.0
H121 H 0.6868 0.5367 0.18215 0.0
H122 H 0.64812 0.5505 0.17237 0.0
H123 H 0.69798 0.57281 0.08623 0.0
O124 O 0.67061 0.5769 0.25375 0.0
O125 O 0.69582 0.59558 0.20665 0.0
O126 O 0.70861 0.56941 0.19004 0.0
C127 C 0.68098 0.59272 0.23192 0.0
H128 H 0.73415 0.60342 0.39259 0.0
H129 H 0.64282 0.5452 0.05165 0.0
H130 H 0.66769 0.50504 0.2052 0.0
H131 H 0.63965 0.51906 0.33798 0.0
Co132 Co 0.12102 0.69079 0.58063 0.0
C133 C 0.12349 0.69727 0.71541 0.0
C134 C 0.13343 0.72146 0.66401 0.0
C135 C 0.13358 0.72535 0.72577 0.0
N136 N 0.12754 0.70389 0.65767 0.0
N137 N 0.12717 0.71003 0.75767 0.0
H138 H 0.11713 0.68336 0.72672 0.0
H139 H 0.1366 0.7307 0.62615 0.0
C140 C 0.15809 0.72098 0.55598 0.0
O141 O 0.16304 0.71881 0.61112 0.0
N142 N 0.11424 0.6782 0.50369 0.0
C143 C 0.10673 0.66057 0.49366 0.0
C144 C 0.10441 0.6576 0.43086 0.0
C145 C 0.11627 0.68569 0.44785 0.0
N146 N 0.11054 0.67346 0.40242 0.0
C147 C 0.12722 0.66555 0.6444 0.0
C148 C 0.15495 0.66888 0.57207 0.0
C149 C 0.14774 0.65549 0.6171 0.0
C150 C 0.13396 0.6542 0.65427 0.0
C151 C 0.14777 0.68009 0.56372 0.0
N152 N 0.13422 0.67858 0.60047 0.0
H153 H 0.11539 0.66275 0.66926 0.0
H154 H 0.15235 0.68906 0.52483 0.0
H155 H 0.10335 0.65065 0.52931 0.0
H156 H 0.12168 0.69982 0.44077 0.0
O157 O 0.09835 0.67371 0.615 0.0
O158 O 0.1037 0.69849 0.56726 0.0
O159 O 0.1421 0.71099 0.53767 0.0
C160 C 0.09238 0.6839 0.59559 0.0
H161 H 0.13718 0.7382 0.74534 0.0
H162 H 0.09902 0.64485 0.40791 0.0
H163 H 0.16521 0.66992 0.54096 0.0
H164 H 0.12778 0.64384 0.68888 0.0
Co165 Co 0.43639 0.12226 0.89871 0.0
C166 C 0.43301 0.1261 0.03419 0.0
C167 C 0.41324 0.12816 0.98154 0.0
C168 C 0.40936 0.12803 0.04329 0.0
N169 N 0.42816 0.12706 0.97576 0.0
N170 N 0.42187 0.12677 0.07603 0.0
H171 H 0.44365 0.12376 0.04681 0.0
H172 H 0.40529 0.12828 0.94327 0.0
C173 C 0.43972 0.15821 0.87936 0.0
O174 O 0.44378 0.16214 0.93784 0.0
N175 N 0.44373 0.1171 0.82148 0.0
C176 C 0.45678 0.11333 0.81035 0.0
C177 C 0.45743 0.11094 0.7476 0.0
C178 C 0.43645 0.11666 0.76628 0.0
N179 N 0.44456 0.11295 0.72037 0.0
C180 C 0.46768 0.12923 0.96525 0.0
C181 C 0.49144 0.16039 0.90608 0.0
C182 C 0.49773 0.15352 0.95196 0.0
C183 C 0.48557 0.13773 0.98151 0.0
C184 C 0.47322 0.15158 0.89197 0.0
N185 N 0.46142 0.13644 0.9229 0.0
H186 H 0.45898 0.11642 0.98565 0.0
H187 H 0.46891 0.15655 0.85402 0.0
H188 H 0.46528 0.1125 0.84512 0.0
H189 H 0.42567 0.11939 0.75977 0.0
O190 O 0.43166 0.09956 0.93017 0.0
O191 O 0.41192 0.10418 0.881 0.0
O192 O 0.43653 0.1432 0.85774 0.0
C193 C 0.41563 0.09311 0.90884 0.0
H194 H 0.39803 0.1284 0.06256 0.0
H195 H 0.46656 0.10788 0.72387 0.0
H196 H 0.50055 0.17225 0.88064 0.0
H197 H 0.48999 0.13148 0.01505 0.0
Co198 Co 0.56914 0.69294 0.39251 0.0
C199 C 0.56844 0.70012 0.25833 0.0
C200 C 0.58606 0.72368 0.30856 0.0
C201 C 0.5871 0.72796 0.24684 0.0
N202 N 0.57404 0.70627 0.31597 0.0
N203 N 0.57595 0.71308 0.21531 0.0
H204 H 0.56001 0.68631 0.24703 0.0
H205 H 0.59386 0.73259 0.34542 0.0
C206 C 0.56394 0.72379 0.42724 0.0
O207 O 0.55585 0.72236 0.37449 0.0
N208 N 0.56479 0.68004 0.46885 0.0
C209 C 0.55425 0.66246 0.4785 0.0
C210 C 0.55348 0.65929 0.54118 0.0
C211 C 0.5705 0.68728 0.525 0.0
N212 N 0.56365 0.67497 0.5703 0.0
C213 C 0.53621 0.66799 0.33596 0.0
C214 C 0.51375 0.67307 0.41276 0.0
C215 C 0.50633 0.66009 0.36629 0.0
C216 C 0.5179 0.65765 0.32785 0.0
C217 C 0.53231 0.68325 0.41916 0.0
N218 N 0.54339 0.68111 0.37949 0.0
H219 H 0.5445 0.66459 0.309 0.0
H220 H 0.53757 0.69216 0.45805 0.0
H221 H 0.54717 0.65273 0.44277 0.0
H222 H 0.57891 0.70141 0.53259 0.0
O223 O 0.57363 0.67579 0.35229 0.0
O224 O 0.59427 0.70024 0.39821 0.0
O225 O 0.5697 0.7132 0.44023 0.0
C226 C 0.59018 0.68569 0.36807 0.0
H227 H 0.59562 0.74095 0.22685 0.0
H228 H 0.54575 0.64649 0.56346 0.0
H229 H 0.50533 0.67507 0.44483 0.0
H230 H 0.51288 0.64715 0.29361 0.0
Co231 Co 0.88161 0.56804 0.75708 0.0
C232 C 0.87699 0.56986 0.62195 0.0
C233 C 0.86259 0.57977 0.67236 0.0
C234 C 0.86085 0.58197 0.61014 0.0
N235 N 0.87227 0.57161 0.67984 0.0
N236 N 0.86985 0.57558 0.57873 0.0
H237 H 0.88667 0.56594 0.61107 0.0
H238 H 0.85776 0.58459 0.70935 0.0
C239 C 0.84459 0.55824 0.79584 0.0
O240 O 0.83843 0.54735 0.74845 0.0
N241 N 0.89123 0.56517 0.83346 0.0
C242 C 0.89999 0.55619 0.84236 0.0
C243 C 0.90369 0.55659 0.9044 0.0
C244 C 0.8899 0.57111 0.88947 0.0
N245 N 0.89732 0.56598 0.93381 0.0
C246 C 0.87312 0.53532 0.69754 0.0
C247 C 0.85169 0.51249 0.78915 0.0
C248 C 0.85601 0.50548 0.73798 0.0
C249 C 0.86658 0.51716 0.69142 0.0
C250 C 0.85852 0.53094 0.79334 0.0
N251 N 0.86885 0.54215 0.7471 0.0
H252 H 0.88266 0.54387 0.66413 0.0
H253 H 0.85619 0.53625 0.83518 0.0
H254 H 0.9031 0.5495 0.80647 0.0
H255 H 0.8831 0.5785 0.89789 0.0
O256 O 0.90329 0.57311 0.71618 0.0
O257 O 0.89848 0.59349 0.75931 0.0
O258 O 0.86136 0.56764 0.80488 0.0
C259 C 0.90925 0.58975 0.72937 0.0
H260 H 0.85382 0.58809 0.58974 0.0
H261 H 0.9104 0.55034 0.9262 0.0
H262 H 0.84393 0.50395 0.82695 0.0
H263 H 0.87043 0.51237 0.65137 0.0
Co264 Co 0.31889 0.8839 0.10713 0.0
C265 C 0.3121 0.88236 0.97229 0.0
C266 C 0.28789 0.8713 0.02401 0.0
C267 C 0.28382 0.87075 0.96224 0.0
N268 N 0.30561 0.87798 0.03018 0.0
N269 N 0.29914 0.87782 0.93011 0.0
H270 H 0.32602 0.88938 0.9607 0.0
H271 H 0.27856 0.86757 0.06182 0.0
C272 C 0.28806 0.84737 0.13353 0.0
O273 O 0.29077 0.84196 0.08003 0.0
N274 N 0.33171 0.89007 0.18387 0.0
C275 C 0.34936 0.89733 0.19283 0.0
C276 C 0.35256 0.8986 0.2556 0.0
C277 C 0.32443 0.88711 0.24047 0.0
N278 N 0.33681 0.89199 0.28509 0.0
C279 C 0.34122 0.87447 0.03875 0.0
C280 C 0.33672 0.84651 0.1123 0.0
C281 C 0.34781 0.85106 0.06037 0.0
C282 C 0.35006 0.86531 0.02372 0.0
C283 C 0.32782 0.85591 0.12511 0.0
N284 N 0.32952 0.86926 0.08689 0.0
H285 H 0.34474 0.88642 0.01349 0.0
H286 H 0.32009 0.85283 0.16703 0.0
H287 H 0.35912 0.90109 0.15639 0.0
H288 H 0.31035 0.88153 0.24895 0.0
O289 O 0.3369 0.90596 0.07194 0.0
O290 O 0.31282 0.90243 0.12015 0.0
O291 O 0.29795 0.86354 0.15041 0.0
C292 C 0.32751 0.91293 0.09064 0.0
H293 H 0.27074 0.86611 0.94269 0.0
H294 H 0.36535 0.90349 0.27777 0.0
H295 H 0.33516 0.836 0.14319 0.0
H296 H 0.35936 0.86999 0.98543 0.0
Co297 Co 0.43313 0.3137 0.41304 0.0
C298 C 0.4325 0.30605 0.27807 0.0
C299 C 0.41461 0.28308 0.33071 0.0
C300 C 0.41227 0.27856 0.2691 0.0
N301 N 0.42747 0.30028 0.33651 0.0
N302 N 0.42358 0.29304 0.23626 0.0
H303 H 0.4415 0.31963 0.26521 0.0
H304 H 0.40698 0.27458 0.36867 0.0
C305 C 0.43947 0.28353 0.44248 0.0
O306 O 0.44749 0.28604 0.38889 0.0
N307 N 0.43802 0.32647 0.4898 0.0
C308 C 0.44955 0.34383 0.50052 0.0
C309 C 0.45021 0.34676 0.56334 0.0
C310 C 0.4316 0.31917 0.54543 0.0
N311 N 0.43889 0.33123 0.59121 0.0
C312 C 0.46539 0.33871 0.3532 0.0
C313 C 0.48878 0.33529 0.43077 0.0
C314 C 0.49554 0.34866 0.38564 0.0
C315 C 0.48359 0.35001 0.34587 0.0
C316 C 0.4703 0.32414 0.43658 0.0
N317 N 0.45877 0.32568 0.39721 0.0
H318 H 0.45669 0.34148 0.32603 0.0
H319 H 0.4654 0.31522 0.47555 0.0
H320 H 0.45735 0.3535 0.46549 0.0
H321 H 0.42238 0.30514 0.55251 0.0
O322 O 0.42824 0.33079 0.37465 0.0
O323 O 0.40802 0.30632 0.4217 0.0
O324 O 0.43316 0.29344 0.45875 0.0
C325 C 0.4118 0.3208 0.39151 0.0
H326 H 0.4027 0.26578 0.24992 0.0
H327 H 0.45858 0.35925 0.58678 0.0
H328 H 0.49758 0.33424 0.46379 0.0
H329 H 0.48825 0.36038 0.31112 0.0
Co330 Co 0.12386 0.43253 0.73169 0.0
C331 C 0.13173 0.43324 0.59797 0.0
C332 C 0.13908 0.41686 0.64943 0.0
C333 C 0.14114 0.41473 0.58753 0.0
N334 N 0.13338 0.42866 0.65604 0.0
N335 N 0.13636 0.42497 0.55522 0.0
H336 H 0.12633 0.44163 0.58661 0.0
H337 H 0.14061 0.40948 0.68691 0.0
C338 C 0.16086 0.44095 0.76753 0.0
O339 O 0.16698 0.44874 0.71394 0.0
N340 N 0.11428 0.43555 0.80761 0.0
C341 C 0.10809 0.4466 0.82138 0.0
C342 C 0.10529 0.44589 0.88435 0.0
C343 C 0.1148 0.42806 0.86119 0.0
N344 N 0.10969 0.43431 0.90932 0.0
C345 C 0.12878 0.46432 0.67464 0.0
C346 C 0.15498 0.48863 0.7519 0.0
C347 C 0.14786 0.4948 0.70645 0.0
C348 C 0.13484 0.48235 0.66699 0.0
C349 C 0.14856 0.47027 0.75781 0.0
N350 N 0.13585 0.4583 0.71839 0.0
H351 H 0.11759 0.45521 0.64715 0.0
H352 H 0.1531 0.46579 0.79654 0.0
H353 H 0.10657 0.45518 0.7887 0.0
H354 H 0.11944 0.41862 0.86457 0.0
O355 O 0.10184 0.4261 0.69025 0.0
O356 O 0.10767 0.40693 0.73722 0.0
O357 O 0.14437 0.43409 0.78062 0.0
C358 C 0.09651 0.40975 0.70571 0.0
H359 H 0.1447 0.40545 0.56794 0.0
H360 H 0.10128 0.45403 0.90986 0.0
H361 H 0.16469 0.49778 0.78459 0.0
H362 H 0.12882 0.48644 0.63151 0.0
Co363 Co 0.68811 0.12148 0.10277 0.0
C364 C 0.69412 0.1218 0.96806 0.0
C365 C 0.71868 0.13658 0.01676 0.0
C366 C 0.72245 0.136 0.95532 0.0
N367 N 0.70085 0.1282 0.02457 0.0
N368 N 0.70693 0.12659 0.92502 0.0
H369 H 0.6802 0.11293 0.95872 0.0
H370 H 0.72841 0.14183 0.05343 0.0
C371 C 0.71768 0.15844 0.13252 0.0
O372 O 0.71406 0.16427 0.08164 0.0
N373 N 0.67586 0.11437 0.18054 0.0
C374 C 0.65824 0.10663 0.19114 0.0
C375 C 0.65534 0.10348 0.25369 0.0
C376 C 0.68342 0.11574 0.23589 0.0
N377 N 0.67123 0.10932 0.28149 0.0
C378 C 0.66579 0.13153 0.03688 0.0
C379 C 0.6671 0.15585 0.1221 0.0
C380 C 0.6561 0.15196 0.07014 0.0
C381 C 0.65565 0.1397 0.02713 0.0
C382 C 0.67714 0.1474 0.12993 0.0
N383 N 0.67673 0.13565 0.08685 0.0
H384 H 0.66385 0.12107 0.00597 0.0
H385 H 0.68468 0.14979 0.17202 0.0
H386 H 0.64826 0.10356 0.15596 0.0
H387 H 0.69755 0.12105 0.2425 0.0
O388 O 0.67019 0.09933 0.06762 0.0
O389 O 0.69506 0.10353 0.11203 0.0
O390 O 0.70889 0.1419 0.14622 0.0
C391 C 0.68012 0.09277 0.08444 0.0
H392 H 0.73554 0.14123 0.93515 0.0
H393 H 0.6426 0.09765 0.27697 0.0
H394 H 0.66763 0.165 0.15716 0.0
H395 H 0.64675 0.13561 0.98783 0.0
H396 H 0.25872 0.45202 0.23858 0.0
H397 H 0.23665 0.45114 0.1655 0.0
H398 H 0.25803 0.43272 0.02245 0.0
H399 H 0.28003 0.43346 0.09472 0.0
H400 H 0.25281 0.46643 0.00214 0.0
H401 H 0.22498 0.40378 0.06162 0.0
H402 H 0.2132 0.37953 0.13835 0.0
H403 H 0.17632 0.39531 0.20297 0.0
H404 H 0.18808 0.41981 0.12724 0.0
H405 H 0.19403 0.4452 0.75111 0.0
H406 H 0.21421 0.44548 0.8305 0.0
H407 H 0.176 0.4383 0.97156 0.0
H408 H 0.15557 0.43738 0.89214 0.0
H409 H 0.1894 0.41876 -0.00043 0.0
H410 H 0.21494 0.47989 0.94524 0.0
H411 H 0.22632 0.50586 0.87581 0.0
H412 H 0.26671 0.49521 0.80926 0.0
H413 H 0.25539 0.46902 0.87761 0.0
C414 C 0.25873 0.44779 0.19154 0.0
C415 C 0.27116 0.44284 0.17248 0.0
C416 C 0.2461 0.44727 0.14999 0.0
C417 C 0.24585 0.44199 0.08861 0.0
C418 C 0.25819 0.43702 0.06946 0.0
C419 C 0.27065 0.43733 0.11104 0.0
C420 C 0.23295 0.44198 0.04381 0.0
C421 C 0.239 0.45588 0.0008 0.0
C422 C 0.2148 0.42866 0.04425 0.0
C423 C 0.20765 0.41385 0.0895 0.0
C424 C 0.21453 0.40224 0.09275 0.0
C425 C 0.20781 0.3884 0.13592 0.0
C426 C 0.19408 0.38593 0.17574 0.0
C427 C 0.187 0.39726 0.17227 0.0
C428 C 0.19369 0.41113 0.12922 0.0
C429 C 0.18996 0.44371 0.79905 0.0
C430 C 0.17321 0.44126 0.81533 0.0
C431 C 0.20154 0.44397 0.84452 0.0
C432 C 0.19682 0.44224 0.90737 0.0
C433 C 0.18002 0.43968 0.92358 0.0
C434 C 0.16833 0.43914 0.87806 0.0
C435 C 0.20933 0.44296 0.95595 0.0
C436 C 0.20321 0.4293 0.00031 0.0
C437 C 0.22739 0.4567 0.95749 0.0
C438 C 0.23429 0.47247 0.91643 0.0
C439 C 0.2262 0.48304 0.91559 0.0
C440 C 0.23264 0.4978 0.87642 0.0
C441 C 0.24722 0.50218 0.83813 0.0
C442 C 0.25542 0.49182 0.83899 0.0
C443 C 0.24903 0.47703 0.87803 0.0
H444 H 0.25218 0.5136 0.80782 0.0
H445 H 0.18888 0.37521 0.20911 0.0
H446 H 0.74029 0.1943 0.11719 0.0
H447 H 0.76234 0.21512 0.19063 0.0
H448 H 0.74828 0.17207 0.319 0.0
H449 H 0.72622 0.15123 0.24631 0.0
H450 H 0.75001 0.20118 0.37442 0.0
H451 H 0.78639 0.18929 0.23388 0.0
H452 H 0.79844 0.18827 0.13175 0.0
H453 H 0.81954 0.24451 0.10993 0.0
H454 H 0.80738 0.24582 0.21145 0.0
H455 H 0.81927 0.24518 0.59223 0.0
H456 H 0.79797 0.22464 0.5165 0.0
H457 H 0.82081 0.26576 0.37725 0.0
H458 H 0.84291 0.28575 0.45173 0.0
H459 H 0.81425 0.23785 0.32526 0.0
H460 H 0.77842 0.25127 0.45815 0.0
H461 H 0.76571 0.25406 0.55657 0.0
H462 H 0.74261 0.19793 0.58843 0.0
H463 H 0.75536 0.19483 0.49055 0.0
C464 C 0.74194 0.18924 0.16093 0.0
C465 C 0.73149 0.17108 0.17573 0.0
C466 C 0.7546 0.20116 0.20278 0.0
C467 C 0.75705 0.19512 0.26014 0.0
C468 C 0.74663 0.17701 0.27501 0.0
C469 C 0.73404 0.1651 0.23321 0.0
C470 C 0.7702 0.20767 0.30545 0.0
C471 C 0.7641 0.20908 0.36403 0.0
C472 C 0.78847 0.21843 0.29104 0.0
C473 C 0.79581 0.21761 0.23003 0.0
C474 C 0.79347 0.20141 0.20707 0.0
C475 C 0.80034 0.20079 0.1493 0.0
C476 C 0.8097 0.21631 0.11426 0.0
C477 C 0.81225 0.23249 0.137 0.0
C478 C 0.80538 0.23318 0.19467 0.0
C479 C 0.81968 0.24976 0.5454 0.0
C480 C 0.83267 0.26702 0.52779 0.0
C481 C 0.80741 0.23808 0.50215 0.0
C482 C 0.8074 0.24368 0.4411 0.0
C483 C 0.82044 0.26101 0.42379 0.0
C484 C 0.83305 0.27247 0.46646 0.0
C485 C 0.79413 0.23148 0.39486 0.0
C486 C 0.80017 0.23008 0.33597 0.0
C487 C 0.77571 0.22104 0.40846 0.0
C488 C 0.76799 0.22286 0.4673 0.0
C489 C 0.77073 0.23954 0.48635 0.0
C490 C 0.7635 0.24118 0.54201 0.0
C491 C 0.7534 0.22619 0.5788 0.0
C492 C 0.75045 0.20953 0.55993 0.0
C493 C 0.75767 0.20782 0.50434 0.0
H494 H 0.74782 0.22749 0.62188 0.0
H495 H 0.81502 0.2158 0.06957 0.0
H496 H 0.56046 0.75327 0.41094 0.0
H497 H 0.5623 0.77435 0.49016 0.0
H498 H 0.572 0.74459 0.62914 0.0
H499 H 0.57028 0.72362 0.55064 0.0
H500 H 0.54647 0.75233 0.66472 0.0
H501 H 0.60471 0.78229 0.58184 0.0
H502 H 0.62858 0.79599 0.50422 0.0
H503 H 0.61261 0.83424 0.46021 0.0
H504 H 0.58813 0.82032 0.53579 0.0
H505 H 0.56443 0.81528 0.90449 0.0
H506 H 0.56685 0.79503 0.83152 0.0
H507 H 0.56548 0.82655 0.67944 0.0
H508 H 0.56414 0.84732 0.75233 0.0
H509 H 0.58844 0.81736 0.65454 0.0
H510 H 0.52776 0.78431 0.73322 0.0
H511 H 0.50507 0.77064 0.81513 0.0
H512 H 0.52749 0.73854 0.87156 0.0
H513 H 0.55049 0.75223 0.79069 0.0
C514 C 0.56303 0.75126 0.45834 0.0
C515 C 0.56529 0.7368 0.47437 0.0
C516 C 0.56416 0.76335 0.50349 0.0
C517 C 0.56739 0.76109 0.5655 0.0
C518 C 0.56954 0.74661 0.58159 0.0
C519 C 0.56863 0.73468 0.53649 0.0
C520 C 0.56801 0.77349 0.614 0.0
C521 C 0.55577 0.76654 0.66285 0.0
C522 C 0.58008 0.79203 0.61132 0.0
C523 C 0.59437 0.80005 0.56398 0.0
C524 C 0.60603 0.7934 0.5548 0.0
C525 C 0.6197 0.80122 0.51116 0.0
C526 C 0.62202 0.81589 0.47696 0.0
C527 C 0.61068 0.82276 0.48635 0.0
C528 C 0.59687 0.81487 0.52946 0.0
C529 C 0.56467 0.81785 0.85545 0.0
C530 C 0.56404 0.83282 0.83405 0.0
C531 C 0.56594 0.80622 0.81369 0.0
C532 C 0.56596 0.80899 0.74965 0.0
C533 C 0.56548 0.82406 0.72847 0.0
C534 C 0.56468 0.83592 0.77018 0.0
C535 C 0.56649 0.79632 0.70432 0.0
C536 C 0.57905 0.80318 0.65622 0.0
C537 C 0.55477 0.77767 0.70781 0.0
C538 C 0.54091 0.7694 0.75624 0.0
C539 C 0.5279 0.77442 0.76336 0.0
C540 C 0.515 0.76667 0.80962 0.0
C541 C 0.51488 0.75378 0.84866 0.0
C542 C 0.52764 0.74857 0.84143 0.0
C543 C 0.5406 0.7563 0.79538 0.0
H544 H 0.50488 0.74779 0.88442 0.0
H545 H 0.63267 0.82199 0.44344 0.0
H546 H 0.85124 0.58471 0.87853 0.0
H547 H 0.83058 0.58575 0.95295 0.0
H548 H 0.78938 0.53403 0.89156 0.0
H549 H 0.80972 0.5334 0.81495 0.0
H550 H 0.77504 0.55266 0.90669 0.0
H551 H 0.81493 0.54298 0.03534 0.0
H552 H 0.84323 0.54884 0.08301 0.0
H553 H 0.85229 0.59937 0.14904 0.0
H554 H 0.82424 0.59397 0.10114 0.0
H555 H 0.73619 0.5456 0.2349 0.0
H556 H 0.75864 0.54477 0.16837 0.0
H557 H 0.7561 0.58245 0.0448 0.0
H558 H 0.73334 0.5829 0.1096 0.0
H559 H 0.79145 0.56884 0.12633 0.0
H560 H 0.75767 0.57283 0.90557 0.0
H561 H 0.72755 0.56619 0.8755 0.0
H562 H 0.70456 0.52261 0.00378 0.0
H563 H 0.73458 0.52905 0.03473 0.0
C564 C 0.83775 0.57358 0.88088 0.0
C565 C 0.83209 0.55898 0.84077 0.0
C566 C 0.82597 0.57411 0.92389 0.0
C567 C 0.80843 0.55981 0.92902 0.0
C568 C 0.8028 0.54525 0.88876 0.0
C569 C 0.81445 0.54489 0.84489 0.0
C570 C 0.79576 0.56016 0.97495 0.0
C571 C 0.77873 0.55614 0.95466 0.0
C572 C 0.80028 0.56457 0.03806 0.0
C573 C 0.81754 0.56811 0.06428 0.0
C574 C 0.82306 0.55543 0.0594 0.0
C575 C 0.83903 0.55865 0.08659 0.0
C576 C 0.84948 0.57445 0.11904 0.0
C577 C 0.84414 0.58714 0.12391 0.0
C578 C 0.82823 0.584 0.09677 0.0
C579 C 0.74049 0.55377 0.19369 0.0
C580 C 0.73281 0.56412 0.17706 0.0
C581 C 0.75337 0.55333 0.15587 0.0
C582 C 0.75882 0.56331 0.10104 0.0
C583 C 0.75181 0.57433 0.08613 0.0
C584 C 0.7388 0.57459 0.12332 0.0
C585 C 0.77112 0.56155 0.05756 0.0
C586 C 0.78793 0.5653 0.07827 0.0
C587 C 0.76634 0.55652 0.99533 0.0
C588 C 0.74833 0.55144 0.97242 0.0
C589 C 0.74617 0.56171 0.92676 0.0
C590 C 0.72913 0.5581 0.91011 0.0
C591 C 0.71415 0.54409 0.93819 0.0
C592 C 0.71617 0.53352 0.98239 0.0
C593 C 0.73319 0.53715 -0.00047 0.0
H594 H 0.70095 0.54129 0.92533 0.0
H595 H 0.86166 0.57686 0.14079 0.0
H596 H 0.15683 0.72068 0.43027 0.0
H597 H 0.17874 0.74249 0.35872 0.0
H598 H 0.21077 0.77348 0.51254 0.0
H599 H 0.18907 0.75144 0.58467 0.0
H600 H 0.20238 0.79228 0.4059 0.0
H601 H 0.22622 0.75322 0.45301 0.0
H602 H 0.22358 0.72364 0.46181 0.0
H603 H 0.20986 0.71378 0.26972 0.0
H604 H 0.21216 0.74321 0.26004 0.0
H605 H 0.28217 0.8527 0.25377 0.0
H606 H 0.25966 0.83144 0.32424 0.0
H607 H 0.23938 0.79188 0.17981 0.0
H608 H 0.26227 0.81299 0.10939 0.0
H609 H 0.24083 0.77694 0.28112 0.0
H610 H 0.21795 0.81423 0.22612 0.0
H611 H 0.21708 0.84187 0.20924 0.0
H612 H 0.22412 0.85312 0.40339 0.0
H613 H 0.22569 0.82583 0.42138 0.0
C614 C 0.1685 0.73217 0.44892 0.0
C615 C 0.17125 0.73437 0.51308 0.0
C616 C 0.181 0.74458 0.40799 0.0
C617 C 0.19631 0.75956 0.43048 0.0
C618 C 0.19898 0.76199 0.49446 0.0
C619 C 0.18665 0.74937 0.53549 0.0
C620 C 0.20971 0.77246 0.3869 0.0
C621 C 0.21105 0.78913 0.37925 0.0
C622 C 0.22033 0.76791 0.35035 0.0
C623 C 0.21919 0.75033 0.35597 0.0
C624 C 0.22249 0.74468 0.41279 0.0
C625 C 0.22109 0.72795 0.41791 0.0
C626 C 0.21651 0.71682 0.3664 0.0
C627 C 0.21338 0.72241 0.3096 0.0
C628 C 0.21475 0.73911 0.30426 0.0
C629 C 0.27291 0.83951 0.2368 0.0
C630 C 0.27402 0.83458 0.17578 0.0
C631 C 0.25996 0.82736 0.27719 0.0
C632 C 0.24763 0.81008 0.25725 0.0
C633 C 0.24873 0.80512 0.19635 0.0
C634 C 0.26179 0.81723 0.15605 0.0
C635 C 0.23387 0.79711 0.30033 0.0
C636 C 0.23233 0.7803 0.30778 0.0
C637 C 0.22273 0.80141 0.33552 0.0
C638 C 0.22218 0.81806 0.32498 0.0
C639 C 0.2196 0.82272 0.26517 0.0
C640 C 0.21898 0.83833 0.25541 0.0
C641 C 0.22069 0.84931 0.30519 0.0
C642 C 0.22298 0.84467 0.36487 0.0
C643 C 0.22376 0.82915 0.37486 0.0
H644 H 0.22014 0.86136 0.29759 0.0
H645 H 0.21543 0.70387 0.37046 0.0
H646 H 0.45202 0.26043 0.42544 0.0
H647 H 0.45213 0.23929 0.50002 0.0
H648 H 0.42591 0.25523 0.63361 0.0
H649 H 0.42598 0.27657 0.55989 0.0
H650 H 0.45406 0.25385 0.68366 0.0
H651 H 0.40255 0.21523 0.55941 0.0
H652 H 0.38673 0.20185 0.46199 0.0
H653 H 0.4226 0.18237 0.42448 0.0
H654 H 0.43881 0.19598 0.52102 0.0
H655 H 0.43155 0.18428 0.90325 0.0
H656 H 0.43165 0.20591 0.83008 0.0
H657 H 0.45089 0.18514 0.6871 0.0
H658 H 0.44951 0.16275 0.75865 0.0
H659 H 0.42644 0.18929 0.64071 0.0
H660 H 0.47733 0.22688 0.76671 0.0
H661 H 0.49413 0.24122 0.86159 0.0
H662 H 0.46074 0.26387 0.89452 0.0
H663 H 0.44351 0.24937 0.80057 0.0
C664 C 0.44621 0.2594 0.47059 0.0
C665 C 0.43897 0.2702 0.48657 0.0
C666 C 0.44624 0.24726 0.51312 0.0
C667 C 0.43894 0.24561 0.57231 0.0
C668 C 0.43166 0.25632 0.58829 0.0
C669 C 0.43164 0.26846 0.54589 0.0
C670 C 0.4392 0.23299 0.61812 0.0
C671 C 0.44773 0.23968 0.67489 0.0
C672 C 0.43155 0.21461 0.60564 0.0
C673 C 0.42189 0.2066 0.54734 0.0
C674 C 0.40711 0.20819 0.53015 0.0
C675 C 0.39808 0.20057 0.47509 0.0
C676 C 0.40365 0.19127 0.43704 0.0
C677 C 0.41827 0.18956 0.45397 0.0
C678 C 0.42737 0.1972 0.50888 0.0
C679 C 0.43577 0.18438 0.85611 0.0
C680 C 0.4404 0.17179 0.83646 0.0
C681 C 0.43596 0.19682 0.81437 0.0
C682 C 0.44138 0.19729 0.7528 0.0
C683 C 0.44639 0.18492 0.73384 0.0
C684 C 0.44568 0.17217 0.7749 0.0
C685 C 0.4412 0.21009 0.70718 0.0
C686 C 0.4327 0.20344 0.6501 0.0
C687 C 0.44894 0.22855 0.71946 0.0
C688 C 0.45901 0.23687 0.77692 0.0
C689 C 0.47343 0.23474 0.79457 0.0
C690 C 0.48305 0.24293 0.84816 0.0
C691 C 0.47847 0.2534 0.88418 0.0
C692 C 0.46424 0.2557 0.86674 0.0
C693 C 0.45454 0.24749 0.81335 0.0
H694 H 0.48597 0.25977 0.92553 0.0
H695 H 0.39663 0.18537 0.39447 0.0
H696 H 0.48179 0.64443 0.45945 0.0
H697 H 0.45098 0.6203 0.44957 0.0
H698 H 0.45616 0.62297 0.25117 0.0
H699 H 0.4866 0.64768 0.2606 0.0
H700 H 0.42323 0.61409 0.28148 0.0
H701 H 0.4644 0.59441 0.33803 0.0
H702 H 0.48736 0.5935 0.40255 0.0
H703 H 0.45179 0.57608 0.55779 0.0
H704 H 0.42869 0.57712 0.49433 0.0
H705 H 0.36717 0.52295 0.19371 0.0
H706 H 0.39044 0.55375 0.21272 0.0
H707 H 0.37818 0.54685 0.40729 0.0
H708 H 0.35485 0.51612 0.38857 0.0
H709 H 0.41283 0.55885 0.38644 0.0
H710 H 0.36994 0.57476 0.3208 0.0
H711 H 0.34749 0.57492 0.2514 0.0
H712 H 0.3866 0.59837 0.10762 0.0
H713 H 0.40923 0.59812 0.17587 0.0
C714 C 0.47621 0.64029 0.41368 0.0
C715 C 0.48679 0.6478 0.36081 0.0
C716 C 0.45863 0.62635 0.4081 0.0
C717 C 0.4514 0.61949 0.34964 0.0
C718 C 0.46147 0.6279 0.29678 0.0
C719 C 0.47895 0.64193 0.30229 0.0
C720 C 0.43417 0.60257 0.34335 0.0
C721 C 0.42096 0.60199 0.30426 0.0
C722 C 0.43108 0.58679 0.37357 0.0
C723 C 0.44491 0.58605 0.41167 0.0
C724 C 0.46153 0.5905 0.38604 0.0
C725 C 0.47456 0.58995 0.4224 0.0
C726 C 0.47106 0.58479 0.48429 0.0
C727 C 0.45449 0.58011 0.50989 0.0
C728 C 0.44143 0.58068 0.47375 0.0
C729 C 0.36909 0.52814 0.24027 0.0
C730 C 0.35926 0.51705 0.28971 0.0
C731 C 0.38242 0.54576 0.25111 0.0
C732 C 0.38607 0.55262 0.31148 0.0
C733 C 0.37566 0.54183 0.3604 0.0
C734 C 0.36236 0.52426 0.34963 0.0
C735 C 0.40185 0.57031 0.32446 0.0
C736 C 0.4149 0.571 0.36451 0.0
C737 C 0.40482 0.58606 0.29445 0.0
C738 C 0.39125 0.58629 0.25335 0.0
C739 C 0.37372 0.57982 0.27423 0.0
C740 C 0.36097 0.57995 0.23512 0.0
C741 C 0.3656 0.58662 0.1751 0.0
C742 C 0.38302 0.5932 0.15411 0.0
C743 C 0.39583 0.59309 0.19302 0.0
H744 H 0.35571 0.5867 0.14489 0.0
H745 H 0.48116 0.58437 0.51236 0.0
H746 H 0.87771 0.49245 0.70905 0.0
H747 H 0.86961 0.46164 0.69055 0.0
H748 H 0.81527 0.44436 0.74111 0.0
H749 H 0.82335 0.47561 0.75927 0.0
H750 H 0.83005 0.42247 0.78862 0.0
H751 H 0.82112 0.44414 0.59829 0.0
H752 H 0.82834 0.46599 0.51462 0.0
H753 H 0.87556 0.46382 0.47208 0.0
H754 H 0.86879 0.44218 0.55616 0.0
H755 H 0.82235 0.3408 0.66393 0.0
H756 H 0.81457 0.36432 0.67874 0.0
H757 H 0.86867 0.40419 0.63587 0.0
H758 H 0.8764 0.38097 0.62157 0.0
H759 H 0.84365 0.41026 0.57763 0.0
H760 H 0.85582 0.39465 0.78222 0.0
H761 H 0.84982 0.37377 0.86834 0.0
H762 H 0.79657 0.36472 0.88359 0.0
H763 H 0.8022 0.3854 0.79691 0.0
C764 C 0.86401 0.48213 0.71627 0.0
C765 C 0.85107 0.48646 0.73433 0.0
C766 C 0.85942 0.46452 0.70587 0.0
C767 C 0.84179 0.45078 0.71328 0.0
C768 C 0.82894 0.45484 0.73472 0.0
C769 C 0.83356 0.47263 0.74515 0.0
C770 C 0.83716 0.43245 0.69578 0.0
C771 C 0.83247 0.41955 0.74209 0.0
C772 C 0.84041 0.42871 0.6351 0.0
C773 C 0.84445 0.44154 0.58373 0.0
C774 C 0.83309 0.44839 0.57133 0.0
C775 C 0.83711 0.46074 0.5238 0.0
C776 C 0.85241 0.4663 0.48808 0.0
C777 C 0.86371 0.45949 0.49975 0.0
C778 C 0.85977 0.44715 0.54728 0.0
C779 C 0.83245 0.3546 0.65715 0.0
C780 C 0.84999 0.35916 0.64218 0.0
C781 C 0.82803 0.36798 0.66578 0.0
C782 C 0.84108 0.38598 0.65861 0.0
C783 C 0.8584 0.39039 0.64152 0.0
C784 C 0.86283 0.37714 0.63372 0.0
C785 C 0.83732 0.4006 0.671 0.0
C786 C 0.84051 0.41286 0.62359 0.0
C787 C 0.83267 0.40369 0.73054 0.0
C788 C 0.82934 0.39135 0.78263 0.0
C789 C 0.84278 0.38808 0.8036 0.0
C790 C 0.83946 0.37631 0.85256 0.0
C791 C 0.8228 0.36787 0.88127 0.0
C792 C 0.80945 0.37123 0.86119 0.0
C793 C 0.8127 0.38297 0.81217 0.0
H794 H 0.82026 0.35877 0.91919 0.0
H795 H 0.8555 0.47587 0.45133 0.0
H796 H 0.48597 0.84112 0.04479 0.0
H797 H 0.45514 0.83378 0.0582 0.0
H798 H 0.44899 0.83382 0.86049 0.0
H799 H 0.48015 0.8419 0.84687 0.0
H800 H 0.4387 0.85433 0.91256 0.0
H801 H 0.42595 0.79502 0.94869 0.0
H802 H 0.42969 0.77107 0.99439 0.0
H803 H 0.41973 0.78461 0.17496 0.0
H804 H 0.41617 0.80882 0.13049 0.0
H805 H 0.35218 0.83905 0.94916 0.0
H806 H 0.37463 0.83097 0.92231 0.0
H807 H 0.39067 0.83637 0.11326 0.0
H808 H 0.36806 0.84426 0.14048 0.0
H809 H 0.39349 0.80948 0.05397 0.0
H810 H 0.4112 0.87134 0.01897 0.0
H811 H 0.40756 0.89552 0.97465 0.0
H812 H 0.40845 0.87691 0.7917 0.0
H813 H 0.41186 0.85244 0.83505 0.0
C814 C 0.47799 0.83932 0.00408 0.0
C815 C 0.48558 0.84227 0.94478 0.0
C816 C 0.46027 0.83492 0.01179 0.0
C817 C 0.44965 0.83313 0.96035 0.0
C818 C 0.4569 0.8351 0.90088 0.0
C819 C 0.47469 0.83958 0.89313 0.0
C820 C 0.43181 0.83132 0.96921 0.0
C821 C 0.42865 0.84421 0.94221 0.0
C822 C 0.41883 0.81843 0.00921 0.0
C823 C 0.4209 0.80383 0.03623 0.0
C824 C 0.42468 0.79299 -0.0018 0.0
C825 C 0.42675 0.77934 0.02389 0.0
C826 C 0.42498 0.77634 0.08755 0.0
C827 C 0.4211 0.78695 0.12565 0.0
C828 C 0.41903 0.80062 0.10021 0.0
C829 C 0.36022 0.8381 0.9856 0.0
C830 C 0.35854 0.84248 0.04679 0.0
C831 C 0.37303 0.83349 0.97023 0.0
C832 C 0.38455 0.83342 0.0156 0.0
C833 C 0.38193 0.83637 0.07752 0.0
C834 C 0.369 0.84086 0.09305 0.0
C835 C 0.40059 0.83252 0.99763 0.0
C836 C 0.40343 0.81929 0.02324 0.0
C837 C 0.41336 0.8451 0.9564 0.0
C838 C 0.41161 0.85997 0.93024 0.0
C839 C 0.41053 0.87235 0.9693 0.0
C840 C 0.40852 0.88611 0.94437 0.0
C841 C 0.40776 0.88774 0.8804 0.0
C842 C 0.40904 0.87562 0.84124 0.0
C843 C 0.41102 0.86181 0.86595 0.0
H844 H 0.40622 0.89841 0.86118 0.0
H845 H 0.42659 0.76577 0.10734 0.0
H846 H 0.6578 0.48082 0.28563 0.0
H847 H 0.63554 0.44986 0.31201 0.0
H848 H 0.59457 0.46418 0.31429 0.0
H849 H 0.61627 0.49457 0.28613 0.0
H850 H 0.59683 0.44631 0.42408 0.0
H851 H 0.59625 0.44264 0.19764 0.0
H852 H 0.61042 0.44434 0.09719 0.0
H853 H 0.62302 0.40471 0.15704 0.0
H854 H 0.60911 0.40297 0.25823 0.0
H855 H 0.5089 0.38427 0.38482 0.0
H856 H 0.53983 0.40772 0.37601 0.0
H857 H 0.55649 0.36845 0.3746 0.0
H858 H 0.52509 0.34459 0.383 0.0
H859 H 0.57273 0.39472 0.28124 0.0
H860 H 0.56634 0.39314 0.49801 0.0
H861 H 0.5517 0.39115 0.59762 0.0
H862 H 0.55284 0.44027 0.55919 0.0
H863 H 0.56723 0.44244 0.4589 0.0
C864 C 0.64399 0.47726 0.29093 0.0
C865 C 0.63888 0.49026 0.28503 0.0
C866 C 0.63135 0.45963 0.30629 0.0
C867 C 0.6135 0.45486 0.316 0.0
C868 C 0.60834 0.46767 0.308 0.0
C869 C 0.62081 0.48508 0.29219 0.0
C870 C 0.59987 0.43675 0.33583 0.0
C871 C 0.59162 0.43495 0.39318 0.0
C872 C 0.59358 0.4218 0.29646 0.0
C873 C 0.60189 0.42287 0.23572 0.0
C874 C 0.60221 0.43443 0.18959 0.0
C875 C 0.61015 0.43537 0.13248 0.0
C876 C 0.61768 0.4247 0.12082 0.0
C877 C 0.61723 0.41301 0.16619 0.0
C878 C 0.60932 0.41204 0.22341 0.0
C879 C 0.51912 0.38058 0.38265 0.0
C880 C 0.5146 0.36261 0.38408 0.0
C881 C 0.53681 0.39401 0.37809 0.0
C882 C 0.55048 0.38985 0.37518 0.0
C883 C 0.54612 0.37192 0.37702 0.0
C884 C 0.52826 0.35836 0.38211 0.0
C885 C 0.56911 0.40458 0.3682 0.0
C886 C 0.5783 0.40579 0.31337 0.0
C887 C 0.57638 0.41902 0.41011 0.0
C888 C 0.56786 0.41793 0.47077 0.0
C889 C 0.56339 0.40348 0.51062 0.0
C890 C 0.55514 0.40232 0.56724 0.0
C891 C 0.55134 0.41557 0.58472 0.0
C892 C 0.55581 0.43003 0.54563 0.0
C893 C 0.56406 0.43125 0.48892 0.0
H894 H 0.54494 0.41465 0.62857 0.0
H895 H 0.62382 0.42544 0.07657 0.0
H896 H 0.18115 0.52489 0.70962 0.0
H897 H 0.18834 0.55585 0.69113 0.0
H898 H 0.13236 0.5381 0.67494 0.0
H899 H 0.12517 0.50759 0.69424 0.0
H900 H 0.1526 0.55871 0.57494 0.0
H901 H 0.15421 0.55903 0.80071 0.0
H902 H 0.16614 0.55647 0.90118 0.0
H903 H 0.21809 0.59869 0.85008 0.0
H904 H 0.20649 0.60132 0.74891 0.0
H905 H 0.12543 0.61983 0.62044 0.0
H906 H 0.1329 0.59639 0.63036 0.0
H907 H 0.18881 0.63563 0.6315 0.0
H908 H 0.18131 0.65949 0.62201 0.0
H909 H 0.17815 0.60852 0.72531 0.0
H910 H 0.17451 0.61223 0.50792 0.0
H911 H 0.16202 0.61498 0.40901 0.0
H912 H 0.11421 0.56531 0.44292 0.0
H913 H 0.12628 0.56238 0.5425 0.0
C914 C 0.17043 0.5277 0.70299 0.0
C915 C 0.15262 0.51378 0.70217 0.0
C916 C 0.17454 0.54534 0.69223 0.0
C917 C 0.16087 0.54919 0.68078 0.0
C918 C 0.14312 0.53538 0.68266 0.0
C919 C 0.13904 0.51793 0.69355 0.0
C920 C 0.16458 0.56735 0.66459 0.0
C921 C 0.15828 0.56965 0.60765 0.0
C922 C 0.17263 0.58181 0.70627 0.0
C923 C 0.17955 0.5802 0.76699 0.0
C924 C 0.16821 0.56764 0.81067 0.0
C925 C 0.1749 0.5662 0.86779 0.0
C926 C 0.19287 0.57736 0.88191 0.0
C927 C 0.20418 0.59002 0.83901 0.0
C928 C 0.19756 0.59149 0.7818 0.0
C929 C 0.13934 0.62354 0.62312 0.0
C930 C 0.15279 0.64151 0.62099 0.0
C931 C 0.14359 0.61011 0.62835 0.0
C932 C 0.16141 0.61426 0.63127 0.0
C933 C 0.17498 0.63218 0.6292 0.0
C934 C 0.1707 0.64574 0.62345 0.0
C935 C 0.16533 0.59951 0.63693 0.0
C936 C 0.17304 0.59783 0.69167 0.0
C937 C 0.1586 0.58556 0.59313 0.0
C938 C 0.15131 0.58712 0.53284 0.0
C939 C 0.16129 0.60194 0.49447 0.0
C940 C 0.15429 0.60352 0.43825 0.0
C941 C 0.13733 0.59033 0.4197 0.0
C942 C 0.12735 0.57551 0.45731 0.0
C943 C 0.13429 0.57386 0.51361 0.0
H944 H 0.13193 0.59159 0.37617 0.0
H945 H 0.19803 0.57623 0.92616 0.0
H946 H 0.64769 0.16348 0.96433 0.0
H947 H 0.62377 0.17023 0.9499 0.0
H948 H 0.61269 0.16355 0.14533 0.0
H949 H 0.63617 0.15613 0.15974 0.0
H950 H 0.58348 0.14398 0.08128 0.0
H951 H 0.62995 0.20474 0.07356 0.0
H952 H 0.65825 0.23037 0.03882 0.0
H953 H 0.63826 0.22308 0.85342 0.0
H954 H 0.60992 0.19723 0.88685 0.0
H955 H 0.51343 0.1611 0.06516 0.0
H956 H 0.54369 0.16783 0.08974 0.0
H957 H 0.55546 0.16983 0.89541 0.0
H958 H 0.52519 0.16332 0.87058 0.0
H959 H 0.58506 0.19395 0.96417 0.0
H960 H 0.54038 0.13177 0.96937 0.0
H961 H 0.51194 0.10596 0.00225 0.0
H962 H 0.52908 0.11577 0.19133 0.0
H963 H 0.55751 0.14185 0.15962 0.0
C964 C 0.6403 0.16364 0.00438 0.0
C965 C 0.64376 0.15911 0.06312 0.0
C966 C 0.62673 0.1677 0.99614 0.0
C967 C 0.61645 0.16748 0.04657 0.0
C968 C 0.62046 0.16383 0.10574 0.0
C969 C 0.634 0.15973 0.114 0.0
C970 C 0.60037 0.16913 0.03657 0.0
C971 C 0.58394 0.15514 0.05689 0.0
C972 C 0.60083 0.18338 0.00296 0.0
C973 C 0.61785 0.19895 0.98267 0.0
C974 C 0.63164 0.20851 0.02528 0.0
C975 C 0.64768 0.2231 0.00584 0.0
C976 C 0.65007 0.22833 0.94393 0.0
C977 C 0.6364 0.21901 0.90135 0.0
C978 C 0.62033 0.2044 0.92055 0.0
C979 C 0.52263 0.16343 0.02771 0.0
C980 C 0.51694 0.16149 0.966 0.0
C981 C 0.53989 0.16726 0.04178 0.0
C982 C 0.55169 0.16897 0.99441 0.0
C983 C 0.54655 0.16852 0.93265 0.0
C984 C 0.52927 0.16482 0.91851 0.0
C985 C 0.56836 0.16889 0.00935 0.0
C986 C 0.58477 0.18301 0.98946 0.0
C987 C 0.56796 0.15471 0.04314 0.0
C988 C 0.55099 0.13887 0.0622 0.0
C989 C 0.53803 0.12849 0.018 0.0
C990 C 0.52192 0.11382 0.03641 0.0
C991 C 0.51869 0.10926 0.09886 0.0
C992 C 0.53159 0.11934 0.14299 0.0
C993 C 0.5477 0.13407 0.12483 0.0
H994 H 0.5062 0.09789 0.11303 0.0
H995 H 0.6625 0.23963 0.92897 0.0
H996 H 0.35228 0.41885 0.30312 0.0
H997 H 0.36138 0.39675 0.32013 0.0
H998 H 0.30815 0.35461 0.27974 0.0
H999 H 0.2989 0.37685 0.26096 0.0
H1000 H 0.33355 0.35631 0.40424 0.0
H1001 H 0.32481 0.35182 0.18104 0.0
H1002 H 0.32749 0.36497 0.07782 0.0
H1003 H 0.38429 0.39537 0.09814 0.0
H1004 H 0.3819 0.38263 0.20197 0.0
H1005 H 0.37567 0.30238 0.41384 0.0
H1006 H 0.35409 0.31199 0.38894 0.0
H1007 H 0.39645 0.36086 0.31256 0.0
H1008 H 0.41774 0.35126 0.33572 0.0
H1009 H 0.36898 0.34861 0.23984 0.0
H1010 H 0.37892 0.35779 0.46082 0.0
H1011 H 0.37871 0.34833 0.5684 0.0
H1012 H 0.32237 0.31231 0.55722 0.0
H1013 H 0.3223 0.32142 0.44923 0.0
C1014 C 0.34243 0.40489 0.29802 0.0
C1015 C 0.32487 0.39958 0.28051 0.0
C1016 C 0.34767 0.3923 0.30781 0.0
C1017 C 0.33544 0.37412 0.30111 0.0
C1018 C 0.31776 0.36863 0.28506 0.0
C1019 C 0.31253 0.38131 0.2742 0.0
C1020 C 0.34175 0.36125 0.30911 0.0
C1021 C 0.34084 0.35409 0.36792 0.0
C1022 C 0.35164 0.35887 0.26211 0.0
C1023 C 0.35315 0.3664 0.19946 0.0
C1024 C 0.33785 0.36144 0.16373 0.0
C1025 C 0.33932 0.36879 0.10507 0.0
C1026 C 0.35605 0.38103 0.08149 0.0
C1027 C 0.37134 0.38591 0.11648 0.0
C1028 C 0.36994 0.37861 0.1752 0.0
C1029 C 0.3803 0.31513 0.39157 0.0
C1030 C 0.39841 0.32607 0.37689 0.0
C1031 C 0.36798 0.32063 0.37749 0.0
C1032 C 0.37364 0.3372 0.34907 0.0
C1033 C 0.39169 0.34797 0.33406 0.0
C1034 C 0.4039 0.34248 0.34768 0.0
C1035 C 0.36116 0.34385 0.33562 0.0
C1036 C 0.3611 0.35009 0.27578 0.0
C1037 C 0.3506 0.34558 0.38204 0.0
C1038 C 0.35065 0.34009 0.44678 0.0
C1039 C 0.36652 0.34774 0.48116 0.0
C1040 C 0.36644 0.34247 0.54222 0.0
C1041 C 0.35055 0.32968 0.56955 0.0
C1042 C 0.33468 0.32218 0.53593 0.0
C1043 C 0.33469 0.32739 0.47481 0.0
H1044 H 0.35051 0.32561 0.61684 0.0
H1045 H 0.35716 0.38671 0.03608 0.0
H1046 H 0.07362 0.41211 0.62644 0.0
H1047 H 0.04262 0.39017 0.60721 0.0
H1048 H 0.04713 0.35295 0.72749 0.0
H1049 H 0.07842 0.37518 0.7478 0.0
H1050 H 0.02407 0.35745 0.56108 0.0
H1051 H 0.00746 0.33079 0.80849 0.0
H1052 H 0.01921 0.33941 0.91441 0.0
H1053 H 0.0428 0.39465 0.86575 0.0
H1054 H 0.03098 0.38633 0.75991 0.0
H1055 H 0.92869 0.30047 0.56903 0.0
H1056 H 0.96034 0.30998 0.58342 0.0
H1057 H 0.9671 0.3546 0.69228 0.0
H1058 H 0.93579 0.34515 0.67892 0.0
H1059 H 0.98443 0.34005 0.74408 0.0
H1060 H 0.97808 0.35866 0.53853 0.0
H1061 H 0.96647 0.35373 0.43205 0.0
H1062 H 0.98896 0.32038 0.39561 0.0
H1063 H 1.0005 0.32492 0.50225 0.0
C1064 C 0.06811 0.3992 0.64844 0.0
C1065 C 0.07839 0.39545 0.68935 0.0
C1066 C 0.05039 0.3866 0.63694 0.0
C1067 C 0.04247 0.36996 0.66625 0.0
C1068 C 0.05293 0.36578 0.70478 0.0
C1069 C 0.07079 0.37846 0.71629 0.0
C1070 C 0.02293 0.35795 0.66042 0.0
C1071 C 0.01539 0.35336 0.60115 0.0
C1072 C 0.01158 0.35276 0.71256 0.0
C1073 C 0.01856 0.35792 0.77619 0.0
C1074 C 0.01513 0.34476 0.82052 0.0
C1075 C 0.02179 0.3496 0.8805 0.0
C1076 C 0.03181 0.36757 0.89672 0.0
C1077 C 0.0351 0.38074 0.85307 0.0
C1078 C 0.02844 0.37597 0.79309 0.0
C1079 C 0.93694 0.31222 0.59638 0.0
C1080 C 0.92977 0.32211 0.62257 0.0
C1081 C 0.955 0.31765 0.60448 0.0
C1082 C 0.96611 0.33305 0.63876 0.0
C1083 C 0.9588 0.34263 0.66596 0.0
C1084 C 0.94087 0.33725 0.65793 0.0
C1085 C 0.98555 0.33995 0.64468 0.0
C1086 C 0.99307 0.34357 0.70404 0.0
C1087 C 0.99687 0.34466 0.59254 0.0
C1088 C 0.98992 0.34192 0.52855 0.0
C1089 C 0.98041 0.35014 0.50796 0.0
C1090 C 0.97386 0.34744 0.44757 0.0
C1091 C 0.97691 0.33669 0.40715 0.0
C1092 C 0.98656 0.32866 0.42702 0.0
C1093 C 0.9931 0.33129 0.48742 0.0
H1094 H 0.97185 0.33463 0.3604 0.0
H1095 H 0.03698 0.37128 0.94314 0.0
H1096 H 0.70077 0.07726 0.06984 0.0
H1097 H 0.69037 0.04573 0.04644 0.0
H1098 H 0.636 0.03441 0.05228 0.0
H1099 H 0.64623 0.06573 0.07353 0.0
H1100 H 0.64575 0.01023 0.12389 0.0
H1101 H 0.64978 0.0382 0.92274 0.0
H1102 H 0.66678 0.06063 0.84284 0.0
H1103 H 0.70315 0.0408 0.82834 0.0
H1104 H 0.6865 0.01842 0.90903 0.0
H1105 H 0.58156 0.93379 0.98468 0.0
H1106 H 0.60238 0.96434 0.01362 0.0
H1107 H 0.64595 0.95916 0.9417 0.0
H1108 H 0.62487 0.92823 0.9113 0.0
H1109 H 0.64885 0.99131 0.91007 0.0
H1110 H 0.64086 0.95892 0.09446 0.0
H1111 H 0.62439 0.93673 0.17554 0.0
H1112 H 0.59717 0.9648 0.22563 0.0
H1113 H 0.61322 0.987 0.1441 0.0
C1114 C 0.68662 0.06797 0.06635 0.0
C1115 C 0.67428 0.07387 0.07327 0.0
C1116 C 0.68072 0.05005 0.05295 0.0
C1117 C 0.66244 0.03783 0.0478 0.0
C1118 C 0.65016 0.04366 0.05626 0.0
C1119 C 0.65602 0.06155 0.06811 0.0
C1120 C 0.65577 0.01895 0.03208 0.0
C1121 C 0.64646 0.00602 0.07731 0.0
C1122 C 0.65728 0.01361 0.97177 0.0
C1123 C 0.66705 0.02681 0.92248 0.0
C1124 C 0.6615 0.03873 0.90294 0.0
C1125 C 0.67105 0.05142 0.85744 0.0
C1126 C 0.68608 0.0522 0.8307 0.0
C1127 C 0.69153 0.04022 0.84921 0.0
C1128 C 0.68204 0.02753 0.89481 0.0
C1129 C 0.59555 0.93906 0.97491 0.0
C1130 C 0.60158 0.92853 0.94608 0.0
C1131 C 0.60748 0.95655 0.99176 0.0
C1132 C 0.62578 0.96394 0.98098 0.0
C1133 C 0.63189 0.95366 0.95087 0.0
C1134 C 0.61986 0.93602 0.93366 0.0
C1135 C 0.63816 0.98247 0.00146 0.0
C1136 C 0.64854 0.99538 0.9572 0.0
C1137 C 0.6378 0.98782 0.06304 0.0
C1138 C 0.62823 0.97462 0.11288 0.0
C1139 C 0.63129 0.96032 0.1225 0.0
C1140 C 0.62202 0.94773 0.16857 0.0
C1141 C 0.60973 0.94935 0.20568 0.0
C1142 C 0.6067 0.96358 0.19686 0.0
C1143 C 0.61591 0.97619 0.15077 0.0
H1144 H 0.60256 0.93958 0.2413 0.0
H1145 H 0.69347 0.06204 0.79553 0.0
H1146 H 0.62678 0.70521 0.37558 0.0
H1147 H 0.64788 0.6947 0.35319 0.0
H1148 H 0.60394 0.64279 0.30817 0.0
H1149 H 0.58304 0.65311 0.32926 0.0
H1150 H 0.62919 0.64288 0.39371 0.0
H1151 H 0.62616 0.66851 0.19603 0.0
H1152 H 0.63021 0.69337 0.12964 0.0
H1153 H 0.68575 0.72249 0.17613 0.0
H1154 H 0.68195 0.69787 0.24356 0.0
H1155 H 0.64751 0.587 0.23195 0.0
H1156 H 0.63773 0.60835 0.25293 0.0
H1157 H 0.6924 0.65061 0.26485 0.0
H1158 H 0.70235 0.62909 0.24156 0.0
H1159 H 0.66896 0.6614 0.21063 0.0
H1160 H 0.67278 0.6327 0.39224 0.0
H1161 H 0.66844 0.6065 0.45083 0.0
H1162 H 0.61174 0.58345 0.4374 0.0
H1163 H 0.61574 0.60922 0.37654 0.0
C1164 C 0.6217 0.69159 0.36072 0.0
C1165 C 0.60327 0.67998 0.35415 0.0
C1166 C 0.63373 0.68563 0.34788 0.0
C1167 C 0.62742 0.66797 0.32918 0.0
C1168 C 0.60906 0.65645 0.32274 0.0
C1169 C 0.59714 0.66241 0.33462 0.0
C1170 C 0.6396 0.66098 0.31685 0.0
C1171 C 0.63798 0.647 0.35395 0.0
C1172 C 0.65147 0.66675 0.26611 0.0
C1173 C 0.65373 0.68147 0.22547 0.0
C1174 C 0.6392 0.68029 0.19259 0.0
C1175 C 0.64145 0.69432 0.15466 0.0
C1176 C 0.65821 0.70953 0.14885 0.0
C1177 C 0.67277 0.71072 0.1808 0.0
C1178 C 0.67057 0.69673 0.21886 0.0
C1179 C 0.65748 0.60089 0.23806 0.0
C1180 C 0.67567 0.60639 0.2361 0.0
C1181 C 0.65188 0.61308 0.24994 0.0
C1182 C 0.66433 0.63099 0.26183 0.0
C1183 C 0.68258 0.63682 0.25609 0.0
C1184 C 0.68824 0.62456 0.24298 0.0
C1185 C 0.65791 0.64279 0.28602 0.0
C1186 C 0.66063 0.65765 0.2515 0.0
C1187 C 0.64709 0.63792 0.33957 0.0
C1188 C 0.64457 0.6229 0.37955 0.0
C1189 C 0.65938 0.62203 0.40163 0.0
C1190 C 0.65698 0.60722 0.43507 0.0
C1191 C 0.63982 0.59331 0.44787 0.0
C1192 C 0.62502 0.59423 0.42743 0.0
C1193 C 0.62735 0.60894 0.39336 0.0
H1194 H 0.63797 0.58181 0.47364 0.0
H1195 H 0.65994 0.72037 0.11945 0.0
H1196 H 0.06551 0.65118 0.62645 0.0
H1197 H 0.03412 0.64162 0.6403 0.0
H1198 H 0.04475 0.69474 0.60012 0.0
H1199 H 0.07652 0.70449 0.58479 0.0
H1200 H 0.02132 0.67338 0.717 0.0
H1201 H 0.02573 0.67248 0.49588 0.0
H1202 H 0.03611 0.66615 0.39822 0.0
H1203 H 0.00899 0.61041 0.44223 0.0
H1204 H 0.99869 0.61645 0.54066 0.0
H1205 H 0.92497 0.62633 0.7342 0.0
H1206 H 0.95546 0.64829 0.70261 0.0
H1207 H 0.96508 0.60554 0.65419 0.0
H1208 H 0.93485 0.58385 0.68352 0.0
H1209 H 0.9781 0.62952 0.56857 0.0
H1210 H 0.97958 0.63011 0.79379 0.0
H1211 H 0.97057 0.63472 0.89711 0.0
H1212 H 0.98728 0.68899 0.85073 0.0
H1213 H 0.9962 0.68463 0.74684 0.0
C1214 C 0.06126 0.6609 0.62062 0.0
C1215 C 0.07347 0.67859 0.60441 0.0
C1216 C 0.04331 0.6554 0.62856 0.0
C1217 C 0.03718 0.66748 0.62117 0.0
C1218 C 0.04931 0.68526 0.60604 0.0
C1219 C 0.06736 0.69076 0.59706 0.0
C1220 C 0.01792 0.66092 0.62826 0.0
C1221 C 0.01177 0.66418 0.68387 0.0
C1222 C 0.0056 0.64869 0.58548 0.0
C1223 C 0.01151 0.64494 0.52581 0.0
C1224 C 0.02208 0.65889 0.48493 0.0
C1225 C 0.02793 0.65535 0.4294 0.0
C1226 C 0.02323 0.63789 0.41406 0.0
C1227 C 0.01262 0.62393 0.45416 0.0
C1228 C 0.00674 0.6274 0.50979 0.0
C1229 C 0.93364 0.6217 0.71666 0.0
C1230 C 0.92752 0.60337 0.71135 0.0
C1231 C 0.95105 0.63423 0.69875 0.0
C1232 C 0.96263 0.62859 0.67614 0.0
C1233 C 0.95641 0.61028 0.6709 0.0
C1234 C 0.93909 0.59786 0.68803 0.0
C1235 C 0.98139 0.64136 0.65864 0.0
C1236 C 0.98749 0.63919 0.60097 0.0
C1237 C 0.99365 0.65437 0.70002 0.0
C1238 C 0.98832 0.65698 0.76238 0.0
C1239 C 0.9812 0.64299 0.80551 0.0
C1240 C 0.97613 0.64556 0.86418 0.0
C1241 C 0.97829 0.66212 0.8804 0.0
C1242 C 0.98558 0.67616 0.83805 0.0
C1243 C 0.99064 0.67365 0.77929 0.0
H1244 H 0.97437 0.66408 0.92584 0.0
H1245 H 0.02779 0.63518 0.37107 0.0
H1246 H 0.37941 0.07762 0.92076 0.0
H1247 H 0.35835 0.04625 0.94659 0.0
H1248 H 0.40139 0.03487 0.94128 0.0
H1249 H 0.42234 0.066 0.91726 0.0
H1250 H 0.36884 0.00913 0.8801 0.0
H1251 H 0.39066 0.04458 0.06797 0.0
H1252 H 0.39384 0.06893 0.13498 0.0
H1253 H 0.33713 0.0427 0.15762 0.0
H1254 H 0.33353 0.01868 0.08756 0.0
H1255 H 0.3596 0.93785 0.04632 0.0
H1256 H 0.36874 0.96795 0.01261 0.0
H1257 H 0.3177 0.96085 0.06624 0.0
H1258 H 0.30842 0.93041 0.10135 0.0
H1259 H 0.34623 0.99494 0.09524 0.0
H1260 H 0.32428 0.95753 0.91889 0.0
H1261 H 0.32056 0.93403 0.84615 0.0
H1262 H 0.37621 0.96363 0.8017 0.0
H1263 H 0.38036 0.98715 0.87496 0.0
C1264 C 0.38424 0.0683 0.9243 0.0
C1265 C 0.40245 0.07415 0.91735 0.0
C1266 C 0.37226 0.05047 0.93914 0.0
C1267 C 0.37838 0.03832 0.94593 0.0
C1268 C 0.39642 0.04405 0.9361 0.0
C1269 C 0.40838 0.06183 0.92268 0.0
C1270 C 0.36653 0.01982 0.9669 0.0
C1271 C 0.36379 0.00598 0.92698 0.0
C1272 C 0.35952 0.0158 0.02759 0.0
C1273 C 0.36179 0.02996 0.07145 0.0
C1274 C 0.37883 0.04411 0.08633 0.0
C1275 C 0.38072 0.05789 0.12482 0.0
C1276 C 0.36571 0.05736 0.15059 0.0
C1277 C 0.34876 0.04311 0.13754 0.0
C1278 C 0.34678 0.02947 0.09805 0.0
C1279 C 0.3503 0.94266 0.05147 0.0
C1280 C 0.33321 0.93168 0.07593 0.0
C1281 C 0.35555 0.95989 0.03201 0.0
C1282 C 0.34377 0.96652 0.03571 0.0
C1283 C 0.32694 0.95593 0.06261 0.0
C1284 C 0.32167 0.93857 0.08257 0.0
C1285 C 0.3492 0.98428 0.00902 0.0
C1286 C 0.35078 0.99799 0.04779 0.0
C1287 C 0.35508 0.98824 0.94699 0.0
C1288 C 0.35263 0.97411 0.90263 0.0
C1289 C 0.33576 0.95898 0.89393 0.0
C1290 C 0.33357 0.94566 0.85258 0.0
C1291 C 0.34814 0.94736 0.81933 0.0
C1292 C 0.36494 0.96235 0.82744 0.0
C1293 C 0.36721 0.9757 0.86883 0.0
H1294 H 0.34644 0.93711 0.78713 0.0
H1295 H 0.36722 0.06797 0.18083 0.0
H1296 H 0.32422 0.44704 0.49022 0.0
H1297 H 0.32929 0.44591 0.60005 0.0
H1298 H 0.2755 0.40267 0.62234 0.0
H1299 H 0.2704 0.40312 0.51138 0.0
H1300 H 0.28739 0.4319 0.71032 0.0
H1301 H 0.30492 0.39168 0.62791 0.0
H1302 H 0.32078 0.38222 0.5566 0.0
H1303 H 0.37093 0.42495 0.62005 0.0
H1304 H 0.35536 0.43485 0.69108 0.0
H1305 H 0.30046 0.41223 0.01607 0.0
H1306 H 0.29375 0.4081 0.90631 0.0
H1307 H 0.34684 0.45029 0.86445 0.0
H1308 H 0.35359 0.45513 0.97454 0.0
H1309 H 0.33389 0.4192 0.78676 0.0
H1310 H 0.3178 0.46125 0.85948 0.0
H1311 H 0.30339 0.47273 0.92913 0.0
H1312 H 0.25207 0.42879 0.882 0.0
H1313 H 0.26623 0.41683 0.81267 0.0
C1314 C 0.31349 0.43704 0.51788 0.0
C1315 C 0.29696 0.42497 0.49135 0.0
C1316 C 0.31642 0.43652 0.58085 0.0
C1317 C 0.30284 0.42408 0.61886 0.0
C1318 C 0.28615 0.41232 0.59338 0.0
C1319 C 0.28326 0.41267 0.53 0.0
C1320 C 0.30622 0.42366 0.68541 0.0
C1321 C 0.29726 0.42874 0.72728 0.0
C1322 C 0.31952 0.42008 0.70685 0.0
C1323 C 0.32895 0.4141 0.66447 0.0
C1324 C 0.31932 0.39916 0.6263 0.0
C1325 C 0.32826 0.39369 0.58599 0.0
C1326 C 0.34684 0.403 0.5837 0.0
C1327 C 0.35653 0.41776 0.62184 0.0
C1328 C 0.34765 0.42329 0.66218 0.0
C1329 C 0.31075 0.42078 0.98397 0.0
C1330 C 0.32751 0.43428 0.00473 0.0
C1331 C 0.3069 0.41825 0.92108 0.0
C1332 C 0.31976 0.42899 0.87761 0.0
C1333 C 0.33676 0.44186 0.89758 0.0
C1334 C 0.34059 0.44458 0.96063 0.0
C1335 C 0.31506 0.42745 0.81155 0.0
C1336 C 0.32382 0.42208 0.76985 0.0
C1337 C 0.30172 0.43095 0.79008 0.0
C1338 C 0.29309 0.43802 0.83153 0.0
C1339 C 0.30345 0.45392 0.86444 0.0
C1340 C 0.29534 0.46053 0.90372 0.0
C1341 C 0.27685 0.45146 0.91003 0.0
C1342 C 0.26641 0.43577 0.87703 0.0
C1343 C 0.27447 0.42906 0.83774 0.0
H1344 H 0.27064 0.45663 0.94048 0.0
H1345 H 0.35374 0.39875 0.55246 0.0
H1346 H 0.89787 0.30388 0.36239 0.0
H1347 H 0.8941 0.29653 0.25238 0.0
H1348 H 0.88118 0.33783 0.21944 0.0
H1349 H 0.88474 0.34509 0.3298 0.0
H1350 H 0.85726 0.30507 0.16488 0.0
H1351 H 0.92071 0.34477 0.17835 0.0
H1352 H 0.95066 0.35509 0.22101 0.0
H1353 H 0.9475 0.30593 0.16745 0.0
H1354 H 0.9174 0.2952 0.12527 0.0
H1355 H 0.86395 0.31122 0.83964 0.0
H1356 H 0.86676 0.31641 0.95083 0.0
H1357 H 0.88465 0.27837 0.9715 0.0
H1358 H 0.88241 0.27353 0.85978 0.0
H1359 H 0.90568 0.30818 0.03387 0.0
H1360 H 0.84333 0.26813 0.01961 0.0
H1361 H 0.81269 0.25601 0.98112 0.0
H1362 H 0.81292 0.3035 0.03875 0.0
H1363 H 0.84367 0.31599 0.07706 0.0
C1364 C 0.89424 0.31139 0.33169 0.0
C1365 C 0.89158 0.32505 0.35462 0.0
C1366 C 0.89219 0.30725 0.26889 0.0
C1367 C 0.88743 0.31669 0.22789 0.0
C1368 C 0.88488 0.33042 0.25047 0.0
C1369 C 0.88707 0.33465 0.3133 0.0
C1370 C 0.88479 0.31198 0.16158 0.0
C1371 C 0.86789 0.30598 0.13588 0.0
C1372 C 0.89852 0.31256 0.12468 0.0
C1373 C 0.91673 0.31911 0.14919 0.0
C1374 C 0.92634 0.3361 0.17607 0.0
C1375 C 0.94336 0.34204 0.2001 0.0
C1376 C 0.95096 0.33116 0.19711 0.0
C1377 C 0.94158 0.31434 0.16982 0.0
C1378 C 0.92455 0.30833 0.14579 0.0
C1379 C 0.8685 0.30397 0.86778 0.0
C1380 C 0.87304 0.29203 0.84077 0.0
C1381 C 0.86993 0.30681 0.93144 0.0
C1382 C 0.87579 0.29767 0.96953 0.0
C1383 C 0.88007 0.28553 0.94293 0.0
C1384 C 0.87863 0.28267 0.87914 0.0
C1385 C 0.87816 0.30143 0.0367 0.0
C1386 C 0.89501 0.30722 0.06271 0.0
C1387 C 0.86432 0.30046 0.0741 0.0
C1388 C 0.84588 0.29307 0.05066 0.0
C1389 C 0.83692 0.27607 0.02353 0.0
C1390 C 0.81951 0.26911 0.00188 0.0
C1391 C 0.81088 0.279 0.0073 0.0
C1392 C 0.81963 0.29586 0.03453 0.0
C1393 C 0.83704 0.30287 0.05631 0.0
H1394 H 0.7974 0.27358 0.99053 0.0
H1395 H 0.96412 0.33577 0.21582 0.0
H1396 H 0.6002 0.87233 0.17325 0.0
H1397 H 0.5985 0.87614 0.28438 0.0
H1398 H 0.54991 0.87749 0.25889 0.0
H1399 H 0.55091 0.87282 0.14863 0.0
H1400 H 0.57704 0.9065 0.32933 0.0
H1401 H 0.54506 0.84303 0.31738 0.0
H1402 H 0.53993 0.81332 0.28896 0.0
H1403 H 0.58477 0.82193 0.39831 0.0
H1404 H 0.5904 0.85189 0.42687 0.0
H1405 H 0.54307 0.8955 0.63594 0.0
H1406 H 0.54726 0.89278 0.52584 0.0
H1407 H 0.59402 0.88911 0.56545 0.0
H1408 H 0.59036 0.89241 0.67526 0.0
H1409 H 0.56939 0.86191 0.48801 0.0
H1410 H 0.59979 0.92558 0.50421 0.0
H1411 H 0.60336 0.95473 0.53231 0.0
H1412 H 0.55961 0.94497 0.41435 0.0
H1413 H 0.5556 0.91562 0.38627 0.0
C1414 C 0.58899 0.87315 0.19113 0.0
C1415 C 0.57582 0.87249 0.15145 0.0
C1416 C 0.58811 0.87542 0.25465 0.0
C1417 C 0.57415 0.87721 0.27933 0.0
C1418 C 0.56088 0.87631 0.24032 0.0
C1419 C 0.56157 0.87376 0.17715 0.0
C1420 C 0.57352 0.88044 0.34581 0.0
C1421 C 0.57521 0.89672 0.36413 0.0
C1422 C 0.57146 0.86774 0.39073 0.0
C1423 C 0.56832 0.84983 0.37344 0.0
C1424 C 0.55399 0.8387 0.33477 0.0
C1425 C 0.55096 0.8218 0.31884 0.0
C1426 C 0.56208 0.81579 0.34171 0.0
C1427 C 0.57623 0.82666 0.38067 0.0
C1428 C 0.57934 0.84361 0.39673 0.0
C1429 C 0.55444 0.89446 0.62138 0.0
C1430 C 0.56628 0.89403 0.66481 0.0
C1431 C 0.55676 0.89283 0.55841 0.0
C1432 C 0.57092 0.89071 0.53783 0.0
C1433 C 0.58294 0.8906 0.58068 0.0
C1434 C 0.58074 0.8924 0.64352 0.0
C1435 C 0.57282 0.88797 0.47166 0.0
C1436 C 0.57138 0.87177 0.45333 0.0
C1437 C 0.57494 0.90069 0.42666 0.0
C1438 C 0.57728 0.91831 0.44366 0.0
C1439 C 0.59081 0.92956 0.48474 0.0
C1440 C 0.59294 0.94614 0.50056 0.0
C1441 C 0.58168 0.95168 0.47527 0.0
C1442 C 0.5683 0.94065 0.43399 0.0
C1443 C 0.5661 0.92405 0.41807 0.0
H1444 H 0.58336 0.96452 0.48754 0.0
H1445 H 0.55971 0.80268 0.3294 0.0
H1446 H 0.64878 0.53832 0.95646 0.0
H1447 H 0.65499 0.53973 0.84611 0.0
H1448 H 0.70913 0.58094 0.87818 0.0
H1449 H 0.70302 0.58049 0.98766 0.0
H1450 H 0.68056 0.58351 0.78539 0.0
H1451 H 0.7215 0.5487 0.759 0.0
H1452 H 0.72441 0.524 0.80255 0.0
H1453 H 0.66926 0.49697 0.85453 0.0
H1454 H 0.6659 0.52115 0.80924 0.0
H1455 H 0.7239 0.60566 0.4948 0.0
H1456 H 0.71871 0.60041 0.60601 0.0
H1457 H 0.68064 0.54515 0.57087 0.0
H1458 H 0.68638 0.55011 0.46066 0.0
H1459 H 0.7005 0.54785 0.66583 0.0
H1460 H 0.66515 0.57502 0.60691 0.0
H1461 H 0.65994 0.59812 0.56189 0.0
H1462 H 0.70126 0.63785 0.67537 0.0
H1463 H 0.70637 0.61483 0.72245 0.0
C1464 C 0.66204 0.54766 0.94042 0.0
C1465 C 0.67539 0.5592 0.98162 0.0
C1466 C 0.66563 0.54818 0.87741 0.0
C1467 C 0.68273 0.55982 0.85493 0.0
C1468 C 0.69605 0.57137 0.89543 0.0
C1469 C 0.69246 0.57107 0.95817 0.0
C1470 C 0.68614 0.56196 0.78829 0.0
C1471 C 0.68491 0.5757 0.75913 0.0
C1472 C 0.69177 0.5517 0.75458 0.0
C1473 C 0.69362 0.53713 0.7829 0.0
C1474 C 0.71 0.5375 0.77985 0.0
C1475 C 0.71171 0.52352 0.80442 0.0
C1476 C 0.69707 0.509 0.83185 0.0
C1477 C 0.68066 0.50834 0.83406 0.0
C1478 C 0.67887 0.52225 0.8092 0.0
C1479 C 0.71465 0.59237 0.511 0.0
C1480 C 0.70535 0.57835 0.4691 0.0
C1481 C 0.71154 0.58942 0.57433 0.0
C1482 C 0.69903 0.57247 0.59637 0.0
C1483 C 0.69025 0.55836 0.55473 0.0
C1484 C 0.69342 0.56126 0.49173 0.0
C1485 C 0.69476 0.56931 0.66271 0.0
C1486 C 0.69609 0.5556 0.69205 0.0
C1487 C 0.68898 0.5794 0.69658 0.0
C1488 C 0.68626 0.59329 0.66756 0.0
C1489 C 0.67319 0.58871 0.62189 0.0
C1490 C 0.67023 0.60178 0.59612 0.0
C1491 C 0.6804 0.61949 0.61508 0.0
C1492 C 0.69344 0.62414 0.66049 0.0
C1493 C 0.69629 0.61108 0.68704 0.0
H1494 H 0.6781 0.62958 0.59486 0.0
H1495 H 0.69843 0.49822 0.85111 0.0
H1496 H 0.08824 0.6517 0.31386 0.0
H1497 H 0.08965 0.65812 0.20315 0.0
H1498 H 0.13621 0.70953 0.23333 0.0
H1499 H 0.13488 0.7032 0.34344 0.0
H1500 H 0.11283 0.71201 0.15806 0.0
H1501 H 0.14013 0.67564 0.17468 0.0
H1502 H 0.14175 0.64906 0.2048 0.0
H1503 H 0.09601 0.61622 0.09288 0.0
H1504 H 0.09397 0.64259 0.06275 0.0
H1505 H 0.14633 0.73264 0.84943 0.0
H1506 H 0.14179 0.72682 0.96068 0.0
H1507 H 0.09561 0.67562 0.92371 0.0
H1508 H 0.1001 0.68137 0.81306 0.0
H1509 H 0.11771 0.67271 0.00243 0.0
H1510 H 0.09126 0.70959 0.98223 0.0
H1511 H 0.09001 0.73635 0.95204 0.0
H1512 H 0.13446 0.76848 0.07013 0.0
H1513 H 0.13614 0.74194 0.1004 0.0
C1514 C 0.09883 0.66429 0.29671 0.0
C1515 C 0.11141 0.67696 0.33729 0.0
C1516 C 0.0996 0.66797 0.23362 0.0
C1517 C 0.11308 0.68428 0.21018 0.0
C1518 C 0.12563 0.69693 0.25062 0.0
C1519 C 0.12483 0.6933 0.31354 0.0
C1520 C 0.11428 0.6882 0.1434 0.0
C1521 C 0.11407 0.70353 0.12397 0.0
C1522 C 0.11554 0.67691 0.09911 0.0
C1523 C 0.11679 0.66106 0.11699 0.0
C1524 C 0.13034 0.66273 0.15688 0.0
C1525 C 0.13134 0.64771 0.17389 0.0
C1526 C 0.11896 0.63096 0.15091 0.0
C1527 C 0.10558 0.6292 0.11073 0.0
C1528 C 0.10449 0.64418 0.09364 0.0
C1529 C 0.13508 0.72029 0.86527 0.0
C1530 C 0.12371 0.70737 0.82278 0.0
C1531 C 0.13249 0.71697 0.92865 0.0
C1532 C 0.11835 0.70078 0.95029 0.0
C1533 C 0.10667 0.68813 0.90789 0.0
C1534 C 0.1093 0.6914 0.84473 0.0
C1535 C 0.11625 0.69654 0.01693 0.0
C1536 C 0.11635 0.68115 0.03639 0.0
C1537 C 0.11493 0.70781 0.06117 0.0
C1538 C 0.11393 0.72379 0.04313 0.0
C1539 C 0.10087 0.72238 0.00138 0.0
C1540 C 0.10006 0.73751 0.98433 0.0
C1541 C 0.11218 0.75412 0.00903 0.0
C1542 C 0.1251 0.75562 0.05097 0.0
C1543 C 0.12597 0.74053 0.06814 0.0
H1544 H 0.11153 0.76581 0.99578 0.0
H1545 H 0.11977 0.61934 0.16413 0.0
H1546 H 0.46827 0.1249 0.62689 0.0
H1547 H 0.46183 0.12585 0.51712 0.0
H1548 H 0.40572 0.10042 0.55797 0.0
H1549 H 0.41216 0.09966 0.66801 0.0
H1550 H 0.41598 0.08675 0.44913 0.0
H1551 H 0.42143 0.1399 0.53494 0.0
H1552 H 0.43533 0.167 0.59855 0.0
H1553 H 0.48267 0.1884 0.48769 0.0
H1554 H 0.46904 0.16122 0.42358 0.0
H1555 H 0.39404 0.10911 0.15415 0.0
H1556 H 0.39565 0.10514 0.2658 0.0
H1557 H 0.45297 0.13599 0.25712 0.0
H1558 H 0.45138 0.14002 0.14596 0.0
H1559 H 0.4391 0.14623 0.35266 0.0
H1560 H 0.43333 0.0918 0.26912 0.0
H1561 H 0.41939 0.06363 0.21063 0.0
H1562 H 0.37175 0.04438 0.31861 0.0
H1563 H 0.3854 0.07248 0.37764 0.0
C1564 C 0.45457 0.11932 0.61222 0.0
C1565 C 0.44071 0.11227 0.65564 0.0
C1566 C 0.45091 0.11993 0.54979 0.0
C1567 C 0.43332 0.11326 0.52983 0.0
C1568 C 0.41937 0.10561 0.57271 0.0
C1569 C 0.42306 0.10529 0.63533 0.0
C1570 C 0.42968 0.11505 0.46444 0.0
C1571 C 0.42075 0.09971 0.42804 0.0
C1572 C 0.43607 0.13198 0.4373 0.0
C1573 C 0.4443 0.14845 0.47499 0.0
C1574 C 0.43487 0.15031 0.52449 0.0
C1575 C 0.44271 0.16569 0.56066 0.0
C1576 C 0.45995 0.17939 0.54757 0.0
C1577 C 0.46934 0.17775 0.49794 0.0
C1578 C 0.46156 0.16237 0.4616 0.0
C1579 C 0.40694 0.11517 0.17637 0.0
C1580 C 0.4226 0.12492 0.14171 0.0
C1581 C 0.40785 0.11276 0.23984 0.0
C1582 C 0.42444 0.12019 0.26949 0.0
C1583 C 0.44005 0.13013 0.23503 0.0
C1584 C 0.43914 0.13237 0.17165 0.0
C1585 C 0.42569 0.11792 0.33663 0.0
C1586 C 0.43417 0.13323 0.37359 0.0
C1587 C 0.41875 0.10092 0.36421 0.0
C1588 C 0.41032 0.0843 0.32738 0.0
C1589 C 0.41983 0.08163 0.27999 0.0
C1590 C 0.41202 0.06563 0.24703 0.0
C1591 C 0.39473 0.0522 0.26111 0.0
C1592 C 0.38517 0.05477 0.30794 0.0
C1593 C 0.39294 0.07071 0.34122 0.0
H1594 H 0.38871 0.03982 0.23552 0.0
H1595 H 0.46598 0.19132 0.57557 0.0
H1596 H 0.59855 0.7343 0.12513 0.0
H1597 H 0.59516 0.72893 0.01384 0.0
H1598 H 0.54464 0.68133 0.04385 0.0
H1599 H 0.54756 0.68686 0.15468 0.0
H1600 H 0.56794 0.67559 0.97408 0.0
H1601 H 0.54507 0.71531 0.98041 0.0
H1602 H 0.54386 0.74265 0.00039 0.0
H1603 H 0.58926 0.77235 0.88333 0.0
H1604 H 0.59105 0.74528 0.86378 0.0
H1605 H 0.54052 0.6547 0.66037 0.0
H1606 H 0.54243 0.66173 0.77021 0.0
H1607 H 0.59208 0.71028 0.73927 0.0
H1608 H 0.59048 0.70322 0.6296 0.0
H1609 H 0.56879 0.71567 0.80909 0.0
H1610 H 0.59216 0.67575 0.80709 0.0
H1611 H 0.59199 0.64787 0.78332 0.0
H1612 H 0.54436 0.61828 0.89046 0.0
H1613 H 0.5441 0.64598 0.91419 0.0
C1614 C 0.58654 0.72289 0.10817 0.0
C1615 C 0.57346 0.71088 0.14928 0.0
C1616 C 0.58464 0.71983 0.04445 0.0
C1617 C 0.56967 0.70471 0.02074 0.0
C1618 C 0.55635 0.69303 0.06133 0.0
C1619 C 0.55814 0.69615 0.12481 0.0
C1620 C 0.56854 0.70023 0.95432 0.0
C1621 C 0.56789 0.68425 0.93802 0.0
C1622 C 0.56889 0.71176 0.9074 0.0
C1623 C 0.56837 0.72827 0.92141 0.0
C1624 C 0.55502 0.72772 0.95983 0.0
C1625 C 0.55419 0.74317 0.97094 0.0
C1626 C 0.56653 0.75924 0.94339 0.0
C1627 C 0.57976 0.75991 0.90484 0.0
C1628 C 0.5807 0.74451 0.89382 0.0
C1629 C 0.55202 0.66671 0.67691 0.0
C1630 C 0.56533 0.6784 0.63586 0.0
C1631 C 0.55304 0.67076 0.73975 0.0
C1632 C 0.56741 0.68652 0.76283 0.0
C1633 C 0.58082 0.6981 0.72228 0.0
C1634 C 0.57985 0.69404 0.65953 0.0
C1635 C 0.5683 0.69111 0.8291 0.0
C1636 C 0.5689 0.70708 0.84531 0.0
C1637 C 0.56788 0.67959 0.87606 0.0
C1638 C 0.56801 0.66292 0.86188 0.0
C1639 C 0.58156 0.66328 0.82514 0.0
C1640 C 0.58156 0.64751 0.81176 0.0
C1641 C 0.56814 0.63131 0.83522 0.0
C1642 C 0.55472 0.63084 0.87225 0.0
C1643 C 0.55465 0.64657 0.88571 0.0
H1644 H 0.56817 0.61911 0.82483 0.0
H1645 H 0.56577 0.77116 0.95163 0.0
H1646 H 0.8973 0.59369 0.99109 0.0
H1647 H 0.89403 0.59684 0.10166 0.0
H1648 H 0.89331 0.54746 0.13566 0.0
H1649 H 0.89625 0.5441 0.02498 0.0
H1650 H 0.86615 0.54776 0.19135 0.0
H1651 H 0.92913 0.58807 0.17704 0.0
H1652 H 0.95648 0.61354 0.13542 0.0
H1653 H 0.93757 0.64899 0.18703 0.0
H1654 H 0.90998 0.62368 0.22823 0.0
H1655 H 0.87414 0.55138 0.51459 0.0
H1656 H 0.8793 0.5513 0.40392 0.0
H1657 H 0.87581 0.59891 0.38234 0.0
H1658 H 0.87091 0.59921 0.49399 0.0
H1659 H 0.90463 0.6006 0.31991 0.0
H1660 H 0.84203 0.56087 0.33428 0.0
H1661 H 0.81433 0.53564 0.37502 0.0
H1662 H 0.83218 0.49945 0.32181 0.0
H1663 H 0.8601 0.5245 0.28142 0.0
C1664 C 0.89652 0.58356 0.02217 0.0
C1665 C 0.89696 0.56861 -0.00071 0.0
C1666 C 0.89484 0.58546 0.08542 0.0
C1667 C 0.89351 0.57242 0.127 0.0
C1668 C 0.89434 0.55769 0.10439 0.0
C1669 C 0.89614 0.55585 0.04118 0.0
C1670 C 0.88999 0.57348 0.19343 0.0
C1671 C 0.87476 0.55918 0.21973 0.0
C1672 C 0.9008 0.58871 0.22971 0.0
C1673 C 0.91741 0.60395 0.20522 0.0
C1674 C 0.93074 0.60128 0.17909 0.0
C1675 C 0.9463 0.61568 0.15565 0.0
C1676 C 0.94874 0.63286 0.15844 0.0
C1677 C 0.93565 0.63567 0.18484 0.0
C1678 C 0.92006 0.6213 0.20831 0.0
C1679 C 0.87455 0.56189 0.48639 0.0
C1680 C 0.87218 0.57534 0.51298 0.0
C1681 C 0.87736 0.56175 0.4231 0.0
C1682 C 0.87781 0.57503 0.38492 0.0
C1683 C 0.87547 0.58852 0.41112 0.0
C1684 C 0.87254 0.58861 0.47468 0.0
C1685 C 0.88098 0.57476 0.31782 0.0
C1686 C 0.89608 0.58919 0.29143 0.0
C1687 C 0.87 0.5597 0.28118 0.0
C1688 C 0.85323 0.54459 0.30537 0.0
C1689 C 0.84011 0.54755 0.33174 0.0
C1690 C 0.82436 0.53328 0.35465 0.0
C1691 C 0.82152 0.51596 0.35115 0.0
C1692 C 0.83441 0.51287 0.32455 0.0
C1693 C 0.85019 0.5271 0.30156 0.0
H1694 H 0.80932 0.50493 0.36892 0.0
H1695 H 0.9608 0.644 0.14025 0.0
H1696 H 0.3085 0.86501 0.34171 0.0
H1697 H 0.30185 0.86196 0.45206 0.0
H1698 H 0.35082 0.91097 0.48666 0.0
H1699 H 0.35769 0.91385 0.37588 0.0
H1700 H 0.34516 0.88618 0.57225 0.0
H1701 H 0.30991 0.90917 0.47818 0.0
H1702 H 0.28806 0.90844 0.40354 0.0
H1703 H 0.24819 0.85796 0.47599 0.0
H1704 H 0.26984 0.85825 0.55007 0.0
H1705 H 0.32685 0.90452 0.86948 0.0
H1706 H 0.33266 0.90623 0.75868 0.0
H1707 H 0.28272 0.85776 0.7308 0.0
H1708 H 0.27684 0.85595 0.84212 0.0
H1709 H 0.28835 0.88127 0.64189 0.0
H1710 H 0.32162 0.8572 0.73424 0.0
H1711 H 0.34238 0.85582 0.80878 0.0
H1712 H 0.38476 0.90548 0.74024 0.0
H1713 H 0.36417 0.9073 0.66587 0.0
C1714 C 0.31782 0.87514 0.37288 0.0
C1715 C 0.33349 0.8898 0.35037 0.0
C1716 C 0.31402 0.87339 0.43586 0.0
C1717 C 0.32565 0.88645 0.47738 0.0
C1718 C 0.34162 0.9008 0.45529 0.0
C1719 C 0.34555 0.90243 0.3922 0.0
C1720 C 0.32096 0.88532 0.54362 0.0
C1721 C 0.33286 0.88536 0.58756 0.0
C1722 C 0.30462 0.88363 0.56338 0.0
C1723 C 0.29154 0.88367 0.51935 0.0
C1724 C 0.2965 0.89788 0.47789 0.0
C1725 C 0.28415 0.89753 0.43562 0.0
C1726 C 0.26675 0.88313 0.43477 0.0
C1727 C 0.26166 0.86909 0.47637 0.0
C1728 C 0.27396 0.86934 0.51857 0.0
C1729 C 0.3171 0.89423 0.83975 0.0
C1730 C 0.30151 0.87994 0.86439 0.0
C1731 C 0.32042 0.89526 0.77653 0.0
C1732 C 0.3083 0.88195 0.7368 0.0
C1733 C 0.29229 0.86812 0.7608 0.0
C1734 C 0.28891 0.86713 0.82421 0.0
C1735 C 0.31262 0.88232 0.67051 0.0
C1736 C 0.30066 0.88212 0.6266 0.0
C1737 C 0.32879 0.8836 0.65074 0.0
C1738 C 0.3413 0.88246 0.6948 0.0
C1739 C 0.33534 0.86788 0.7353 0.0
C1740 C 0.34707 0.86702 0.7775 0.0
C1741 C 0.36486 0.88057 0.77931 0.0
C1742 C 0.37097 0.895 0.7388 0.0
C1743 C 0.35927 0.89595 0.69657 0.0
H1744 H 0.37391 0.87986 0.81203 0.0
H1745 H 0.25721 0.88289 0.40199 0.0
H1746 H 0.46389 0.34597 0.68043 0.0
H1747 H 0.46018 0.33796 0.79019 0.0
H1748 H 0.4047 0.30013 0.75887 0.0
H1749 H 0.40841 0.30803 0.64893 0.0
H1750 H 0.41128 0.32144 0.86576 0.0
H1751 H 0.43095 0.28538 0.76807 0.0
H1752 H 0.45024 0.27892 0.70309 0.0
H1753 H 0.4937 0.3075 0.82871 0.0
H1754 H 0.47491 0.315 0.893 0.0
H1755 H 0.39682 0.27639 0.15346 0.0
H1756 H 0.39857 0.28144 0.0417 0.0
H1757 H 0.45465 0.31933 0.0579 0.0
H1758 H 0.45298 0.31423 0.16955 0.0
H1759 H 0.4463 0.29611 0.95713 0.0
H1760 H 0.42698 0.3344 0.04844 0.0
H1761 H 0.40744 0.34096 0.11242 0.0
H1762 H 0.36267 0.30648 -0.00084 0.0
H1763 H 0.38191 0.2995 0.93504 0.0
C1764 C 0.45087 0.33614 0.69719 0.0
C1765 C 0.43643 0.32759 0.65634 0.0
C1766 C 0.44879 0.33149 0.75966 0.0
C1767 C 0.4322 0.31836 0.78235 0.0
C1768 C 0.41761 0.31026 0.74211 0.0
C1769 C 0.41975 0.31471 0.67946 0.0
C1770 C 0.43021 0.31281 0.84785 0.0
C1771 C 0.41875 0.31568 0.88559 0.0
C1772 C 0.44014 0.30547 0.87359 0.0
C1773 C 0.45155 0.30101 0.83497 0.0
C1774 C 0.44469 0.29057 0.78143 0.0
C1775 C 0.45555 0.28668 0.74469 0.0
C1776 C 0.47319 0.29275 0.76174 0.0
C1777 C 0.48004 0.30284 0.81544 0.0
C1778 C 0.46931 0.30699 0.85192 0.0
C1779 C 0.40956 0.28559 0.13303 0.0
C1780 C 0.42476 0.295 0.17016 0.0
C1781 C 0.41052 0.28854 0.06934 0.0
C1782 C 0.42671 0.30087 0.04177 0.0
C1783 C 0.44203 0.30979 0.07839 0.0
C1784 C 0.44104 0.30697 0.14209 0.0
C1785 C 0.4276 0.30501 0.97511 0.0
C1786 C 0.43882 0.30183 0.93714 0.0
C1787 C 0.41742 0.31201 0.94907 0.0
C1788 C 0.40585 0.31627 0.98737 0.0
C1789 C 0.41294 0.32809 0.0375 0.0
C1790 C 0.40193 0.33191 0.07373 0.0
C1791 C 0.38382 0.3241 0.05997 0.0
C1792 C 0.3767 0.3125 0.00983 0.0
C1793 C 0.38765 0.30861 0.97351 0.0
H1794 H 0.37531 0.32708 0.08806 0.0
H1795 H 0.48153 0.28959 0.73345 0.0
H1796 H 0.11463 0.43387 0.49316 0.0
H1797 H 0.11073 0.43393 0.38259 0.0
H1798 H 0.1481 0.41549 0.3548 0.0
H1799 H 0.15295 0.41638 0.46645 0.0
H1800 H 0.15339 0.44046 0.27231 0.0
H1801 H 0.10323 0.38685 0.34286 0.0
H1802 H 0.07731 0.36806 0.4087 0.0
H1803 H 0.05155 0.39662 0.34732 0.0
H1804 H 0.07743 0.41578 0.28177 0.0
H1805 H 0.12894 0.42045 0.96 0.0
H1806 H 0.13276 0.41663 0.06842 0.0
H1807 H 0.09858 0.43766 0.11618 0.0
H1808 H 0.09395 0.44087 0.00668 0.0
H1809 H 0.09208 0.40908 0.18692 0.0
H1810 H 0.14383 0.46367 0.11995 0.0
H1811 H 0.16955 0.48128 0.05179 0.0
H1812 H 0.19239 0.44935 0.10496 0.0
H1813 H 0.16659 0.43125 0.1727 0.0
C1814 C 0.12234 0.43013 0.46406 0.0
C1815 C 0.13419 0.42516 0.48921 0.0
C1816 C 0.11986 0.42991 0.40052 0.0
C1817 C 0.12885 0.42437 0.36051 0.0
C1818 C 0.14092 0.41968 0.38499 0.0
C1819 C 0.14356 0.42006 0.44882 0.0
C1820 C 0.12554 0.4236 0.2932 0.0
C1821 C 0.14002 0.43334 0.25348 0.0
C1822 C 0.10806 0.41447 0.2688 0.0
C1823 C 0.09235 0.40285 0.30771 0.0
C1824 C 0.09209 0.38921 0.34368 0.0
C1825 C 0.0774 0.37848 0.38093 0.0
C1826 C 0.06281 0.38117 0.3823 0.0
C1827 C 0.06287 0.39456 0.34626 0.0
C1828 C 0.07754 0.40535 0.30898 0.0
C1829 C 0.12192 0.42404 0.99287 0.0
C1830 C 0.11118 0.43113 0.97391 0.0
C1831 C 0.1243 0.42197 0.05526 0.0
C1832 C 0.11624 0.42718 0.10027 0.0
C1833 C 0.10504 0.43369 0.08196 0.0
C1834 C 0.10253 0.43566 0.01933 0.0
C1835 C 0.11987 0.42622 0.16645 0.0
C1836 C 0.10545 0.4161 0.20583 0.0
C1837 C 0.13742 0.43484 0.19035 0.0
C1838 C 0.15318 0.44599 0.15098 0.0
C1839 C 0.15427 0.46032 0.11688 0.0
C1840 C 0.16886 0.47037 0.0783 0.0
C1841 C 0.18254 0.46637 0.07392 0.0
C1842 C 0.18172 0.45235 0.10836 0.0
C1843 C 0.16713 0.4422 0.14686 0.0
H1844 H 0.1938 0.47413 0.04392 0.0
H1845 H 0.05145 0.37286 0.4112 0.0
H1846 H 0.64992 0.08504 0.36622 0.0
H1847 H 0.65603 0.08496 0.47661 0.0
H1848 H 0.70644 0.13334 0.45351 0.0
H1849 H 0.70047 0.13332 0.34337 0.0
H1850 H 0.71022 0.1108 0.52604 0.0
H1851 H 0.66969 0.13356 0.51297 0.0
H1852 H 0.64191 0.13286 0.48311 0.0
H1853 H 0.61149 0.08495 0.5882 0.0
H1854 H 0.6391 0.08525 0.61804 0.0
H1855 H 0.7279 0.14618 0.8305 0.0
H1856 H 0.72202 0.13984 0.72024 0.0
H1857 H 0.6743 0.09046 0.76327 0.0
H1858 H 0.68018 0.09668 0.87343 0.0
H1859 H 0.6681 0.11049 0.68169 0.0
H1860 H 0.70949 0.08969 0.7028 0.0
H1861 H 0.73761 0.09132 0.73379 0.0
H1862 H 0.76683 0.13644 0.61492 0.0
H1863 H 0.7389 0.13524 0.58384 0.0
C1864 C 0.66224 0.09568 0.38488 0.0
C1865 C 0.6747 0.10919 0.34632 0.0
C1866 C 0.66574 0.09561 0.44781 0.0
C1867 C 0.68163 0.10923 0.47333 0.0
C1868 C 0.69414 0.12265 0.43474 0.0
C1869 C 0.69072 0.12262 0.37183 0.0
C1870 C 0.68515 0.1098 0.54044 0.0
C1871 C 0.70108 0.11087 0.5601 0.0
C1872 C 0.67303 0.10947 0.58486 0.0
C1873 C 0.65643 0.10932 0.56716 0.0
C1874 C 0.65707 0.12281 0.52932 0.0
C1875 C 0.64136 0.12249 0.51247 0.0
C1876 C 0.62494 0.10884 0.53359 0.0
C1877 C 0.62421 0.0955 0.57178 0.0
C1878 C 0.63988 0.09574 0.58871 0.0
C1879 C 0.71635 0.13384 0.8164 0.0
C1880 C 0.70439 0.12205 0.86052 0.0
C1881 C 0.71299 0.13022 0.75348 0.0
C1882 C 0.69772 0.11468 0.7337 0.0
C1883 C 0.68609 0.10259 0.77766 0.0
C1884 C 0.68942 0.10621 0.84053 0.0
C1885 C 0.69326 0.11169 0.66726 0.0
C1886 C 0.67715 0.1102 0.64771 0.0
C1887 C 0.70527 0.11175 0.62303 0.0
C1888 C 0.7221 0.11245 0.64134 0.0
C1889 C 0.72192 0.10004 0.6836 0.0
C1890 C 0.73783 0.10087 0.70112 0.0
C1891 C 0.754 0.11399 0.67643 0.0
C1892 C 0.75429 0.12628 0.63403 0.0
C1893 C 0.73842 0.12552 0.61638 0.0
H1894 H 0.7663 0.11462 0.69007 0.0
H1895 H 0.61279 0.10862 0.52049 0.0
loop_
_geom_bond_atom_site_label_1
_geom_bond_atom_site_label_2
_geom_bond_distance
_geom_bond_site_symmetry_2
_ccdc_geom_bond_type
Co0 N4 2.148 . S
Co0 N10 2.128 . S
Co0 N20 2.194 . S
Co0 O25 2.351 . S
Co0 O26 2.155 . S
Co0 O27 2.096 . S
C1 N4 1.301 . S
C1 N5 1.328 . S
C1 H6 0.930 . S
C2 C3 1.333 . S
C2 N4 1.317 . S
C2 H7 0.930 . S
C3 C2 1.333 . S
C3 N5 1.350 . S
C3 H29 0.931 . S
N4 Co0 2.148 . S
N4 C1 1.301 . S
N4 C2 1.317 . S
N5 C1 1.328 . S
N5 C3 1.350 . S
H6 C1 0.930 . S
H7 C2 0.930 . S
C8 O9 1.224 . S
C8 O27 1.247 . S
O9 C8 1.224 . S
N10 Co0 2.128 . S
N10 C11 1.355 . S
N10 C13 1.311 . S
C11 N10 1.355 . S
C11 C12 1.363 . S
C11 H23 0.929 . S
C12 C11 1.363 . S
C12 N14 1.375 . S
C12 H30 0.931 . S
C13 N10 1.311 . S
C13 N14 1.347 . S
C13 H24 0.929 . S
N14 C12 1.375 . S
N14 C13 1.347 . S
C15 C18 1.365 . S
C15 N20 1.328 . S
C15 H21 0.929 . S
C16 C17 1.362 . S
C16 C19 1.378 . S
C16 H31 0.929 . S
C17 C16 1.362 . S
C17 C18 1.366 . S
C18 C15 1.365 . S
C18 C17 1.366 . S
C18 H32 0.930 . S
C19 C16 1.378 . S
C19 N20 1.315 . S
C19 H22 0.930 . S
N20 Co0 2.194 . S
N20 C15 1.328 . S
N20 C19 1.315 . S
H21 C15 0.929 . S
H22 C19 0.930 . S
H23 C11 0.929 . S
H24 C13 0.929 . S
O25 Co0 2.351 . S
O25 C28 1.244 . S
O26 Co0 2.155 . S
O26 C28 1.240 . S
O27 Co0 2.096 . S
O27 C8 1.247 . S
C28 O25 1.244 . S
C28 O26 1.240 . S
H29 C3 0.931 . S
H30 C12 0.931 . S
H31 C16 0.929 . S
H32 C18 0.930 . S
Co33 N37 2.148 . S
Co33 N43 2.128 . S
Co33 N53 2.194 . S
Co33 O58 2.351 . S
Co33 O59 2.155 . S
Co33 O60 2.096 . S
C34 N37 1.301 . S
C34 N38 1.328 . S
C34 H39 0.930 . S
C35 C36 1.333 . S
C35 N37 1.317 . S
C35 H40 0.930 . S
C36 C35 1.333 . S
C36 N38 1.350 . S
C36 H62 0.931 . S
N37 Co33 2.148 . S
N37 C34 1.301 . S
N37 C35 1.317 . S
N38 C34 1.328 . S
N38 C36 1.350 . S
H39 C34 0.930 . S
H40 C35 0.930 . S
C41 O42 1.224 . S
C41 O60 1.247 . S
O42 C41 1.224 . S
N43 Co33 2.128 . S
N43 C44 1.355 . S
N43 C46 1.311 . S
C44 N43 1.355 . S
C44 C45 1.363 . S
C44 H56 0.929 . S
C45 C44 1.363 . S
C45 N47 1.375 . S
C45 H63 0.931 . S
C46 N43 1.311 . S
C46 N47 1.347 . S
C46 H57 0.929 . S
N47 C45 1.375 . S
N47 C46 1.347 . S
C48 C51 1.365 . S
C48 N53 1.328 . S
C48 H54 0.929 . S
C49 C50 1.362 . S
C49 C52 1.378 . S
C49 H64 0.929 . S
C50 C49 1.362 . S
C50 C51 1.366 . S
C51 C48 1.365 . S
C51 C50 1.366 . S
C51 H65 0.930 . S
C52 C49 1.378 . S
C52 N53 1.315 . S
C52 H55 0.930 . S
N53 Co33 2.194 . S
N53 C48 1.328 . S
N53 C52 1.315 . S
H54 C48 0.929 . S
H55 C52 0.930 . S
H56 C44 0.929 . S
H57 C46 0.929 . S
O58 Co33 2.351 . S
O58 C61 1.244 . S
O59 Co33 2.155 . S
O59 C61 1.240 . S
O60 Co33 2.096 . S
O60 C41 1.247 . S
C61 O58 1.244 . S
C61 O59 1.240 . S
H62 C36 0.931 . S
H63 C45 0.931 . S
H64 C49 0.929 . S
H65 C51 0.930 . S
Co66 N70 2.148 1_556 S
Co66 N76 2.128 . S
Co66 N86 2.194 . S
Co66 O91 2.351 . S
Co66 O92 2.155 . S
Co66 O93 2.096 . S
C67 N70 1.301 . S
C67 N71 1.328 . S
C67 H72 0.930 . S
C68 C69 1.333 . S
C68 N70 1.317 . S
C68 H73 0.930 . S
C69 C68 1.333 . S
C69 N71 1.350 . S
C69 H95 0.931 . S
N70 Co66 2.148 1_554 S
N70 C67 1.301 . S
N70 C68 1.317 . S
N71 C67 1.328 . S
N71 C69 1.350 . S
H72 C67 0.930 . S
H73 C68 0.930 . S
C74 O75 1.224 . S
C74 O93 1.247 . S
O75 C74 1.224 . S
N76 Co66 2.128 . S
N76 C77 1.355 . S
N76 C79 1.311 . S
C77 N76 1.355 . S
C77 C78 1.363 . S
C77 H89 0.929 . S
C78 C77 1.363 . S
C78 N80 1.375 . S
C78 H96 0.931 . S
C79 N76 1.311 . S
C79 N80 1.347 . S
C79 H90 0.929 . S
N80 C78 1.375 . S
N80 C79 1.347 . S
C81 C84 1.365 . S
C81 N86 1.328 . S
C81 H87 0.929 . S
C82 C83 1.362 . S
C82 C85 1.378 . S
C82 H97 0.929 . S
C83 C82 1.362 . S
C83 C84 1.366 . S
C84 C81 1.365 . S
C84 C83 1.366 . S
C84 H98 0.930 . S
C85 C82 1.378 . S
C85 N86 1.315 . S
C85 H88 0.930 . S
N86 Co66 2.194 . S
N86 C81 1.328 . S
N86 C85 1.315 . S
H87 C81 0.929 . S
H88 C85 0.930 . S
H89 C77 0.929 . S
H90 C79 0.929 . S
O91 Co66 2.351 . S
O91 C94 1.244 . S
O92 Co66 2.155 . S
O92 C94 1.240 . S
O93 Co66 2.096 . S
O93 C74 1.247 . S
C94 O91 1.244 . S
C94 O92 1.240 . S
H95 C69 0.931 . S
H96 C78 0.931 . S
H97 C82 0.929 . S
H98 C84 0.930 . S
Co99 N103 2.148 . S
Co99 N109 2.128 . S
Co99 N119 2.194 . S
Co99 O124 2.351 . S
Co99 O125 2.155 . S
Co99 O126 2.096 . S
C100 N103 1.301 . S
C100 N104 1.328 . S
C100 H105 0.930 . S
C101 C102 1.333 . S
C101 N103 1.317 . S
C101 H106 0.930 . S
C102 C101 1.333 . S
C102 N104 1.350 . S
C102 H128 0.931 . S
N103 Co99 2.148 . S
N103 C100 1.301 . S
N103 C101 1.317 . S
N104 C100 1.328 . S
N104 C102 1.350 . S
H105 C100 0.930 . S
H106 C101 0.930 . S
C107 O108 1.224 . S
C107 O126 1.247 . S
O108 C107 1.224 . S
N109 Co99 2.128 . S
N109 C110 1.355 . S
N109 C112 1.311 . S
C110 N109 1.355 . S
C110 C111 1.363 . S
C110 H122 0.929 . S
C111 C110 1.363 . S
C111 N113 1.375 . S
C111 H129 0.931 . S
C112 N109 1.311 . S
C112 N113 1.347 . S
C112 H123 0.929 . S
N113 C111 1.375 . S
N113 C112 1.347 . S
C114 C117 1.365 . S
C114 N119 1.328 . S
C114 H120 0.929 . S
C115 C116 1.362 . S
C115 C118 1.378 . S
C115 H130 0.929 . S
C116 C115 1.362 . S
C116 C117 1.366 . S
C117 C114 1.365 . S
C117 C116 1.366 . S
C117 H131 0.930 . S
C118 C115 1.378 . S
C118 N119 1.315 . S
C118 H121 0.930 . S
N119 Co99 2.194 . S
N119 C114 1.328 . S
N119 C118 1.315 . S
H120 C114 0.929 . S
H121 C118 0.930 . S
H122 C110 0.929 . S
H123 C112 0.929 . S
O124 Co99 2.351 . S
O124 C127 1.244 . S
O125 Co99 2.155 . S
O125 C127 1.240 . S
O126 Co99 2.096 . S
O126 C107 1.247 . S
C127 O124 1.244 . S
C127 O125 1.240 . S
H128 C102 0.931 . S
H129 C111 0.931 . S
H130 C115 0.929 . S
H131 C117 0.930 . S
Co132 N136 2.148 . S
Co132 N142 2.128 . S
Co132 N152 2.194 . S
Co132 O157 2.351 . S
Co132 O158 2.155 . S
Co132 O159 2.096 . S
C133 N136 1.301 . S
C133 N137 1.328 . S
C133 H138 0.930 . S
C134 C135 1.333 . S
C134 N136 1.317 . S
C134 H139 0.930 . S
C135 C134 1.333 . S
C135 N137 1.350 . S
C135 H161 0.931 . S
N136 Co132 2.148 . S
N136 C133 1.301 . S
N136 C134 1.317 . S
N137 C133 1.328 . S
N137 C135 1.350 . S
H138 C133 0.930 . S
H139 C134 0.930 . S
C140 O141 1.224 . S
C140 O159 1.247 . S
O141 C140 1.224 . S
N142 Co132 2.128 . S
N142 C143 1.355 . S
N142 C145 1.311 . S
C143 N142 1.355 . S
C143 C144 1.363 . S
C143 H155 0.929 . S
C144 C143 1.363 . S
C144 N146 1.375 . S
C144 H162 0.931 . S
C145 N142 1.311 . S
C145 N146 1.347 . S
C145 H156 0.929 . S
N146 C144 1.375 . S
N146 C145 1.347 . S
C147 C150 1.365 . S
C147 N152 1.328 . S
C147 H153 0.929 . S
C148 C149 1.362 . S
C148 C151 1.378 . S
C148 H163 0.929 . S
C149 C148 1.362 . S
C149 C150 1.366 . S
C150 C147 1.365 . S
C150 C149 1.366 . S
C150 H164 0.930 . S
C151 C148 1.378 . S
C151 N152 1.315 . S
C151 H154 0.930 . S
N152 Co132 2.194 . S
N152 C147 1.328 . S
N152 C151 1.315 . S
H153 C147 0.929 . S
H154 C151 0.930 . S
H155 C143 0.929 . S
H156 C145 0.929 . S
O157 Co132 2.351 . S
O157 C160 1.244 . S
O158 Co132 2.155 . S
O158 C160 1.240 . S
O159 Co132 2.096 . S
O159 C140 1.247 . S
C160 O157 1.244 . S
C160 O158 1.240 . S
H161 C135 0.931 . S
H162 C144 0.931 . S
H163 C148 0.929 . S
H164 C150 0.930 . S
Co165 N169 2.148 1_556 S
Co165 N175 2.128 . S
Co165 N185 2.194 . S
Co165 O190 2.351 . S
Co165 O191 2.155 . S
Co165 O192 2.096 . S
C166 N169 1.301 . S
C166 N170 1.328 . S
C166 H171 0.930 . S
C167 C168 1.333 . S
C167 N169 1.317 . S
C167 H172 0.930 . S
C168 C167 1.333 . S
C168 N170 1.350 . S
C168 H194 0.931 . S
N169 Co165 2.148 1_554 S
N169 C166 1.301 . S
N169 C167 1.317 . S
N170 C166 1.328 . S
N170 C168 1.350 . S
H171 C166 0.930 . S
H172 C167 0.930 . S
C173 O174 1.224 . S
C173 O192 1.247 . S
O174 C173 1.224 . S
N175 Co165 2.128 . S
N175 C176 1.355 . S
N175 C178 1.311 . S
C176 N175 1.355 . S
C176 C177 1.363 . S
C176 H188 0.929 . S
C177 C176 1.363 . S
C177 N179 1.375 . S
C177 H195 0.931 . S
C178 N175 1.311 . S
C178 N179 1.347 . S
C178 H189 0.929 . S
N179 C177 1.375 . S
N179 C178 1.347 . S
C180 C183 1.365 . S
C180 N185 1.328 . S
C180 H186 0.929 . S
C181 C182 1.362 . S
C181 C184 1.378 . S
C181 H196 0.929 . S
C182 C181 1.362 . S
C182 C183 1.366 . S
C183 C180 1.365 . S
C183 C182 1.366 . S
C183 H197 0.930 . S
C184 C181 1.378 . S
C184 N185 1.315 . S
C184 H187 0.930 . S
N185 Co165 2.194 . S
N185 C180 1.328 . S
N185 C184 1.315 . S
H186 C180 0.929 . S
H187 C184 0.930 . S
H188 C176 0.929 . S
H189 C178 0.929 . S
O190 Co165 2.351 . S
O190 C193 1.244 . S
O191 Co165 2.155 . S
O191 C193 1.240 . S
O192 Co165 2.096 . S
O192 C173 1.247 . S
C193 O190 1.244 . S
C193 O191 1.240 . S
H194 C168 0.931 . S
H195 C177 0.931 . S
H196 C181 0.929 . S
H197 C183 0.930 . S
Co198 N202 2.148 . S
Co198 N208 2.128 . S
Co198 N218 2.194 . S
Co198 O223 2.351 . S
Co198 O224 2.155 . S
Co198 O225 2.096 . S
C199 N202 1.301 . S
C199 N203 1.328 . S
C199 H204 0.930 . S
C200 C201 1.333 . S
C200 N202 1.317 . S
C200 H205 0.930 . S
C201 C200 1.333 . S
C201 N203 1.350 . S
C201 H227 0.931 . S
N202 Co198 2.148 . S
N202 C199 1.301 . S
N202 C200 1.317 . S
N203 C199 1.328 . S
N203 C201 1.350 . S
H204 C199 0.930 . S
H205 C200 0.930 . S
C206 O207 1.224 . S
C206 O225 1.247 . S
O207 C206 1.224 . S
N208 Co198 2.128 . S
N208 C209 1.355 . S
N208 C211 1.311 . S
C209 N208 1.355 . S
C209 C210 1.363 . S
C209 H221 0.929 . S
C210 C209 1.363 . S
C210 N212 1.375 . S
C210 H228 0.931 . S
C211 N208 1.311 . S
C211 N212 1.347 . S
C211 H222 0.929 . S
N212 C210 1.375 . S
N212 C211 1.347 . S
C213 C216 1.365 . S
C213 N218 1.328 . S
C213 H219 0.929 . S
C214 C215 1.362 . S
C214 C217 1.378 . S
C214 H229 0.929 . S
C215 C214 1.362 . S
C215 C216 1.366 . S
C216 C213 1.365 . S
C216 C215 1.366 . S
C216 H230 0.930 . S
C217 C214 1.378 . S
C217 N218 1.315 . S
C217 H220 0.930 . S
N218 Co198 2.194 . S
N218 C213 1.328 . S
N218 C217 1.315 . S
H219 C213 0.929 . S
H220 C217 0.930 . S
H221 C209 0.929 . S
H222 C211 0.929 . S
O223 Co198 2.351 . S
O223 C226 1.244 . S
O224 Co198 2.155 . S
O224 C226 1.240 . S
O225 Co198 2.096 . S
O225 C206 1.247 . S
C226 O223 1.244 . S
C226 O224 1.240 . S
H227 C201 0.931 . S
H228 C210 0.931 . S
H229 C214 0.929 . S
H230 C216 0.930 . S
Co231 N235 2.148 . S
Co231 N241 2.128 . S
Co231 N251 2.194 . S
Co231 O256 2.351 . S
Co231 O257 2.155 . S
Co231 O258 2.096 . S
C232 N235 1.301 . S
C232 N236 1.328 . S
C232 H237 0.930 . S
C233 C234 1.333 . S
C233 N235 1.317 . S
C233 H238 0.930 . S
C234 C233 1.333 . S
C234 N236 1.350 . S
C234 H260 0.931 . S
N235 Co231 2.148 . S
N235 C232 1.301 . S
N235 C233 1.317 . S
N236 C232 1.328 . S
N236 C234 1.350 . S
H237 C232 0.930 . S
H238 C233 0.930 . S
C239 O240 1.224 . S
C239 O258 1.247 . S
O240 C239 1.224 . S
N241 Co231 2.128 . S
N241 C242 1.355 . S
N241 C244 1.311 . S
C242 N241 1.355 . S
C242 C243 1.363 . S
C242 H254 0.929 . S
C243 C242 1.363 . S
C243 N245 1.375 . S
C243 H261 0.931 . S
C244 N241 1.311 . S
C244 N245 1.347 . S
C244 H255 0.929 . S
N245 C243 1.375 . S
N245 C244 1.347 . S
C246 C249 1.365 . S
C246 N251 1.328 . S
C246 H252 0.929 . S
C247 C248 1.362 . S
C247 C250 1.378 . S
C247 H262 0.929 . S
C248 C247 1.362 . S
C248 C249 1.366 . S
C249 C246 1.365 . S
C249 C248 1.366 . S
C249 H263 0.930 . S
C250 C247 1.378 . S
C250 N251 1.315 . S
C250 H253 0.930 . S
N251 Co231 2.194 . S
N251 C246 1.328 . S
N251 C250 1.315 . S
H252 C246 0.929 . S
H253 C250 0.930 . S
H254 C242 0.929 . S
H255 C244 0.929 . S
O256 Co231 2.351 . S
O256 C259 1.244 . S
O257 Co231 2.155 . S
O257 C259 1.240 . S
O258 Co231 2.096 . S
O258 C239 1.247 . S
C259 O256 1.244 . S
C259 O257 1.240 . S
H260 C234 0.931 . S
H261 C243 0.931 . S
H262 C247 0.929 . S
H263 C249 0.930 . S
Co264 N268 2.148 1_554 S
Co264 N274 2.128 . S
Co264 N284 2.194 . S
Co264 O289 2.351 . S
Co264 O290 2.155 . S
Co264 O291 2.096 . S
C265 N268 1.301 . S
C265 N269 1.328 . S
C265 H270 0.930 . S
C266 C267 1.333 . S
C266 N268 1.317 . S
C266 H271 0.930 . S
C267 C266 1.333 . S
C267 N269 1.350 . S
C267 H293 0.931 . S
N268 Co264 2.148 1_556 S
N268 C265 1.301 . S
N268 C266 1.317 . S
N269 C265 1.328 . S
N269 C267 1.350 . S
H270 C265 0.930 . S
H271 C266 0.930 . S
C272 O273 1.224 . S
C272 O291 1.247 . S
O273 C272 1.224 . S
N274 Co264 2.128 . S
N274 C275 1.355 . S
N274 C277 1.311 . S
C275 N274 1.355 . S
C275 C276 1.363 . S
C275 H287 0.929 . S
C276 C275 1.363 . S
C276 N278 1.375 . S
C276 H294 0.931 . S
C277 N274 1.311 . S
C277 N278 1.347 . S
C277 H288 0.929 . S
N278 C276 1.375 . S
N278 C277 1.347 . S
C279 C282 1.365 . S
C279 N284 1.328 . S
C279 H285 0.929 . S
C280 C281 1.362 . S
C280 C283 1.378 . S
C280 H295 0.929 . S
C281 C280 1.362 . S
C281 C282 1.366 . S
C282 C279 1.365 . S
C282 C281 1.366 . S
C282 H296 0.930 . S
C283 C280 1.378 . S
C283 N284 1.315 . S
C283 H286 0.930 . S
N284 Co264 2.194 . S
N284 C279 1.328 . S
N284 C283 1.315 . S
H285 C279 0.929 . S
H286 C283 0.930 . S
H287 C275 0.929 . S
H288 C277 0.929 . S
O289 Co264 2.351 . S
O289 C292 1.244 . S
O290 Co264 2.155 . S
O290 C292 1.240 . S
O291 Co264 2.096 . S
O291 C272 1.247 . S
C292 O289 1.244 . S
C292 O290 1.240 . S
H293 C267 0.931 . S
H294 C276 0.931 . S
H295 C280 0.929 . S
H296 C282 0.930 . S
Co297 N301 2.148 . S
Co297 N307 2.128 . S
Co297 N317 2.194 . S
Co297 O322 2.351 . S
Co297 O323 2.155 . S
Co297 O324 2.096 . S
C298 N301 1.301 . S
C298 N302 1.328 . S
C298 H303 0.930 . S
C299 C300 1.333 . S
C299 N301 1.317 . S
C299 H304 0.930 . S
C300 C299 1.333 . S
C300 N302 1.350 . S
C300 H326 0.931 . S
N301 Co297 2.148 . S
N301 C298 1.301 . S
N301 C299 1.317 . S
N302 C298 1.328 . S
N302 C300 1.350 . S
H303 C298 0.930 . S
H304 C299 0.930 . S
C305 O306 1.224 . S
C305 O324 1.247 . S
O306 C305 1.224 . S
N307 Co297 2.128 . S
N307 C308 1.355 . S
N307 C310 1.311 . S
C308 N307 1.355 . S
C308 C309 1.363 . S
C308 H320 0.929 . S
C309 C308 1.363 . S
C309 N311 1.375 . S
C309 H327 0.931 . S
C310 N307 1.311 . S
C310 N311 1.347 . S
C310 H321 0.929 . S
N311 C309 1.375 . S
N311 C310 1.347 . S
C312 C315 1.365 . S
C312 N317 1.328 . S
C312 H318 0.929 . S
C313 C314 1.362 . S
C313 C316 1.378 . S
C313 H328 0.929 . S
C314 C313 1.362 . S
C314 C315 1.366 . S
C315 C312 1.365 . S
C315 C314 1.366 . S
C315 H329 0.930 . S
C316 C313 1.378 . S
C316 N317 1.315 . S
C316 H319 0.930 . S
N317 Co297 2.194 . S
N317 C312 1.328 . S
N317 C316 1.315 . S
H318 C312 0.929 . S
H319 C316 0.930 . S
H320 C308 0.929 . S
H321 C310 0.929 . S
O322 Co297 2.351 . S
O322 C325 1.244 . S
O323 Co297 2.155 . S
O323 C325 1.240 . S
O324 Co297 2.096 . S
O324 C305 1.247 . S
C325 O322 1.244 . S
C325 O323 1.240 . S
H326 C300 0.931 . S
H327 C309 0.931 . S
H328 C313 0.929 . S
H329 C315 0.930 . S
Co330 N334 2.148 . S
Co330 N340 2.128 . S
Co330 N350 2.194 . S
Co330 O355 2.351 . S
Co330 O356 2.155 . S
Co330 O357 2.096 . S
C331 N334 1.301 . S
C331 N335 1.328 . S
C331 H336 0.930 . S
C332 C333 1.333 . S
C332 N334 1.317 . S
C332 H337 0.930 . S
C333 C332 1.333 . S
C333 N335 1.350 . S
C333 H359 0.931 . S
N334 Co330 2.148 . S
N334 C331 1.301 . S
N334 C332 1.317 . S
N335 C331 1.328 . S
N335 C333 1.350 . S
H336 C331 0.930 . S
H337 C332 0.930 . S
C338 O339 1.224 . S
C338 O357 1.247 . S
O339 C338 1.224 . S
N340 Co330 2.128 . S
N340 C341 1.355 . S
N340 C343 1.311 . S
C341 N340 1.355 . S
C341 C342 1.363 . S
C341 H353 0.929 . S
C342 C341 1.363 . S
C342 N344 1.375 . S
C342 H360 0.931 . S
C343 N340 1.311 . S
C343 N344 1.347 . S
C343 H354 0.929 . S
N344 C342 1.375 . S
N344 C343 1.347 . S
C345 C348 1.365 . S
C345 N350 1.328 . S
C345 H351 0.929 . S
C346 C347 1.362 . S
C346 C349 1.378 . S
C346 H361 0.929 . S
C347 C346 1.362 . S
C347 C348 1.366 . S
C348 C345 1.365 . S
C348 C347 1.366 . S
C348 H362 0.930 . S
C349 C346 1.378 . S
C349 N350 1.315 . S
C349 H352 0.930 . S
N350 Co330 2.194 . S
N350 C345 1.328 . S
N350 C349 1.315 . S
H351 C345 0.929 . S
H352 C349 0.930 . S
H353 C341 0.929 . S
H354 C343 0.929 . S
O355 Co330 2.351 . S
O355 C358 1.244 . S
O356 Co330 2.155 . S
O356 C358 1.240 . S
O357 Co330 2.096 . S
O357 C338 1.247 . S
C358 O355 1.244 . S
C358 O356 1.240 . S
H359 C333 0.931 . S
H360 C342 0.931 . S
H361 C346 0.929 . S
H362 C348 0.930 . S
Co363 N367 2.148 1_554 S
Co363 N373 2.128 . S
Co363 N383 2.194 . S
Co363 O388 2.351 . S
Co363 O389 2.155 . S
Co363 O390 2.096 . S
C364 N367 1.301 . S
C364 N368 1.328 . S
C364 H369 0.930 . S
C365 C366 1.333 . S
C365 N367 1.317 . S
C365 H370 0.930 . S
C366 C365 1.333 . S
C366 N368 1.350 . S
C366 H392 0.931 . S
N367 Co363 2.148 1_556 S
N367 C364 1.301 . S
N367 C365 1.317 . S
N368 C364 1.328 . S
N368 C366 1.350 . S
H369 C364 0.930 . S
H370 C365 0.930 . S
C371 O372 1.224 . S
C371 O390 1.247 . S
O372 C371 1.224 . S
N373 Co363 2.128 . S
N373 C374 1.355 . S
N373 C376 1.311 . S
C374 N373 1.355 . S
C374 C375 1.363 . S
C374 H386 0.929 . S
C375 C374 1.363 . S
C375 N377 1.375 . S
C375 H393 0.931 . S
C376 N373 1.311 . S
C376 N377 1.347 . S
C376 H387 0.929 . S
N377 C375 1.375 . S
N377 C376 1.347 . S
C378 C381 1.365 . S
C378 N383 1.328 . S
C378 H384 0.929 . S
C379 C380 1.362 . S
C379 C382 1.378 . S
C379 H394 0.929 . S
C380 C379 1.362 . S
C380 C381 1.366 . S
C381 C378 1.365 . S
C381 C380 1.366 . S
C381 H395 0.930 . S
C382 C379 1.378 . S
C382 N383 1.315 . S
C382 H385 0.930 . S
N383 Co363 2.194 . S
N383 C378 1.328 . S
N383 C382 1.315 . S
H384 C378 0.929 . S
H385 C382 0.930 . S
H386 C374 0.929 . S
H387 C376 0.929 . S
O388 Co363 2.351 . S
O388 C391 1.244 . S
O389 Co363 2.155 . S
O389 C391 1.240 . S
O390 Co363 2.096 . S
O390 C371 1.247 . S
C391 O388 1.244 . S
C391 O389 1.240 . S
H392 C366 0.931 . S
H393 C375 0.931 . S
H394 C379 0.929 . S
H395 C381 0.930 . S
H396 C414 0.951 . S
H397 C416 0.951 . S
H398 C418 0.950 . S
H399 C419 0.950 . S
H400 C421 0.950 . S
H401 C424 0.950 . S
H402 C425 0.950 . S
H403 C427 0.950 . S
H404 C428 0.950 . S
H405 C429 0.951 . S
H406 C431 0.951 . S
H407 C433 0.950 . S
H408 C434 0.950 . S
H409 C436 0.950 . S
H410 C439 0.950 . S
H411 C440 0.950 . S
H412 C442 0.950 . S
H413 C443 0.950 . S
C414 H396 0.951 . S
C414 C415 1.366 . S
C414 C416 1.388 . S
C415 C414 1.366 . S
C415 C419 1.385 . S
C416 H397 0.951 . S
C416 C414 1.388 . S
C416 C417 1.366 . S
C417 C416 1.366 . S
C417 C418 1.414 . S
C417 C420 1.499 . S
C418 H398 0.950 . S
C418 C417 1.414 . S
C418 C419 1.374 . S
C419 H399 0.950 . S
C419 C415 1.385 . S
C419 C418 1.374 . S
C420 C417 1.499 . S
C420 C421 1.373 1_554 S
C420 C422 1.389 . S
C421 H400 0.950 . S
C421 C420 1.373 1_556 S
C421 C437 1.377 . S
C422 C420 1.389 . S
C422 C423 1.524 . S
C422 C436 1.377 . S
C423 C422 1.524 . S
C423 C424 1.397 . S
C423 C428 1.363 . S
C424 H401 0.950 . S
C424 C423 1.397 . S
C424 C425 1.334 . S
C425 H402 0.950 . S
C425 C424 1.334 . S
C425 C426 1.287 . S
C426 C425 1.287 . S
C426 C427 1.524 . S
C426 H445 0.913 . S
C427 H403 0.950 . S
C427 C426 1.524 . S
C427 C428 1.415 . S
C428 H404 0.950 . S
C428 C423 1.363 . S
C428 C427 1.415 . S
C429 H405 0.951 . S
C429 C430 1.366 . S
C429 C431 1.388 . S
C430 C429 1.366 . S
C430 C434 1.385 . S
C431 H406 0.951 . S
C431 C429 1.388 . S
C431 C432 1.366 . S
C432 C431 1.366 . S
C432 C433 1.414 . S
C432 C435 1.499 . S
C433 H407 0.950 . S
C433 C432 1.414 . S
C433 C434 1.374 . S
C434 H408 0.950 . S
C434 C430 1.385 . S
C434 C433 1.374 . S
C435 C432 1.499 . S
C435 C436 1.373 1_556 S
C435 C437 1.389 . S
C436 H409 0.950 . S
C436 C422 1.377 . S
C436 C435 1.373 1_554 S
C437 C421 1.377 . S
C437 C435 1.389 . S
C437 C438 1.524 . S
C438 C437 1.524 . S
C438 C439 1.397 . S
C438 C443 1.363 . S
C439 H410 0.950 . S
C439 C438 1.397 . S
C439 C440 1.334 . S
C440 H411 0.950 . S
C440 C439 1.334 . S
C440 C441 1.287 . S
C441 C440 1.287 . S
C441 C442 1.524 . S
C441 H444 0.999 . S
C442 H412 0.950 . S
C442 C441 1.524 . S
C442 C443 1.415 . S
C443 H413 0.950 . S
C443 C438 1.363 . S
C443 C442 1.415 . S
H444 C441 0.999 . S
H445 C426 0.913 . S
H446 C464 0.951 . S
H447 C466 0.951 . S
H448 C468 0.950 . S
H449 C469 0.950 . S
H450 C471 0.950 . S
H451 C474 0.950 . S
H452 C475 0.950 . S
H453 C477 0.950 . S
H454 C478 0.950 . S
H455 C479 0.951 . S
H456 C481 0.951 . S
H457 C483 0.950 . S
H458 C484 0.950 . S
H459 C486 0.950 . S
H460 C489 0.950 . S
H461 C490 0.950 . S
H462 C492 0.950 . S
H463 C493 0.950 . S
C464 H446 0.951 . S
C464 C465 1.366 . S
C464 C466 1.388 . S
C465 C464 1.366 . S
C465 C469 1.385 . S
C466 H447 0.951 . S
C466 C464 1.388 . S
C466 C467 1.366 . S
C467 C466 1.366 . S
C467 C468 1.414 . S
C467 C470 1.499 . S
C468 H448 0.950 . S
C468 C467 1.414 . S
C468 C469 1.374 . S
C469 H449 0.950 . S
C469 C465 1.385 . S
C469 C468 1.374 . S
C470 C467 1.499 . S
C470 C471 1.373 . S
C470 C472 1.389 . S
C471 H450 0.950 . S
C471 C470 1.373 . S
C471 C487 1.377 . S
C472 C470 1.389 . S
C472 C473 1.524 . S
C472 C486 1.377 . S
C473 C472 1.524 . S
C473 C474 1.397 . S
C473 C478 1.363 . S
C474 H451 0.950 . S
C474 C473 1.397 . S
C474 C475 1.334 . S
C475 H452 0.950 . S
C475 C474 1.334 . S
C475 C476 1.287 . S
C476 C475 1.287 . S
C476 C477 1.524 . S
C476 H495 0.913 . S
C477 H453 0.950 . S
C477 C476 1.524 . S
C477 C478 1.415 . S
C478 H454 0.950 . S
C478 C473 1.363 . S
C478 C477 1.415 . S
C479 H455 0.951 . S
C479 C480 1.366 . S
C479 C481 1.388 . S
C480 C479 1.366 . S
C480 C484 1.385 . S
C481 H456 0.951 . S
C481 C479 1.388 . S
C481 C482 1.366 . S
C482 C481 1.366 . S
C482 C483 1.414 . S
C482 C485 1.499 . S
C483 H457 0.950 . S
C483 C482 1.414 . S
C483 C484 1.374 . S
C484 H458 0.950 . S
C484 C480 1.385 . S
C484 C483 1.374 . S
C485 C482 1.499 . S
C485 C486 1.373 . S
C485 C487 1.389 . S
C486 H459 0.950 . S
C486 C472 1.377 . S
C486 C485 1.373 . S
C487 C471 1.377 . S
C487 C485 1.389 . S
C487 C488 1.524 . S
C488 C487 1.524 . S
C488 C489 1.397 . S
C488 C493 1.363 . S
C489 H460 0.950 . S
C489 C488 1.397 . S
C489 C490 1.334 . S
C490 H461 0.950 . S
C490 C489 1.334 . S
C490 C491 1.287 . S
C491 C490 1.287 . S
C491 C492 1.524 . S
C491 H494 0.999 . S
C492 H462 0.950 . S
C492 C491 1.524 . S
C492 C493 1.415 . S
C493 H463 0.950 . S
C493 C488 1.363 . S
C493 C492 1.415 . S
H494 C491 0.999 . S
H495 C476 0.913 . S
H496 C514 0.951 . S
H497 C516 0.951 . S
H498 C518 0.950 . S
H499 C519 0.950 . S
H500 C521 0.950 . S
H501 C524 0.950 . S
H502 C525 0.950 . S
H503 C527 0.950 . S
H504 C528 0.950 . S
H505 C529 0.951 . S
H506 C531 0.951 . S
H507 C533 0.950 . S
H508 C534 0.950 . S
H509 C536 0.950 . S
H510 C539 0.950 . S
H511 C540 0.950 . S
H512 C542 0.950 . S
H513 C543 0.950 . S
C514 H496 0.951 . S
C514 C515 1.366 . S
C514 C516 1.388 . S
C515 C514 1.366 . S
C515 C519 1.385 . S
C516 H497 0.951 . S
C516 C514 1.388 . S
C516 C517 1.366 . S
C517 C516 1.366 . S
C517 C518 1.414 . S
C517 C520 1.499 . S
C518 H498 0.950 . S
C518 C517 1.414 . S
C518 C519 1.374 . S
C519 H499 0.950 . S
C519 C515 1.385 . S
C519 C518 1.374 . S
C520 C517 1.499 . S
C520 C521 1.373 . S
C520 C522 1.389 . S
C521 H500 0.950 . S
C521 C520 1.373 . S
C521 C537 1.377 . S
C522 C520 1.389 . S
C522 C523 1.524 . S
C522 C536 1.377 . S
C523 C522 1.524 . S
C523 C524 1.397 . S
C523 C528 1.363 . S
C524 H501 0.950 . S
C524 C523 1.397 . S
C524 C525 1.334 . S
C525 H502 0.950 . S
C525 C524 1.334 . S
C525 C526 1.287 . S
C526 C525 1.287 . S
C526 C527 1.524 . S
C526 H545 0.913 . S
C527 H503 0.950 . S
C527 C526 1.524 . S
C527 C528 1.415 . S
C528 H504 0.950 . S
C528 C523 1.363 . S
C528 C527 1.415 . S
C529 H505 0.951 . S
C529 C530 1.366 . S
C529 C531 1.388 . S
C530 C529 1.366 . S
C530 C534 1.385 . S
C531 H506 0.951 . S
C531 C529 1.388 . S
C531 C532 1.366 . S
C532 C531 1.366 . S
C532 C533 1.414 . S
C532 C535 1.499 . S
C533 H507 0.950 . S
C533 C532 1.414 . S
C533 C534 1.374 . S
C534 H508 0.950 . S
C534 C530 1.385 . S
C534 C533 1.374 . S
C535 C532 1.499 . S
C535 C536 1.373 . S
C535 C537 1.389 . S
C536 H509 0.950 . S
C536 C522 1.377 . S
C536 C535 1.373 . S
C537 C521 1.377 . S
C537 C535 1.389 . S
C537 C538 1.524 . S
C538 C537 1.524 . S
C538 C539 1.397 . S
C538 C543 1.363 . S
C539 H510 0.950 . S
C539 C538 1.397 . S
C539 C540 1.334 . S
C540 H511 0.950 . S
C540 C539 1.334 . S
C540 C541 1.287 . S
C541 C540 1.287 . S
C541 C542 1.524 . S
C541 H544 0.999 . S
C542 H512 0.950 . S
C542 C541 1.524 . S
C542 C543 1.415 . S
C543 H513 0.950 . S
C543 C538 1.363 . S
C543 C542 1.415 . S
H544 C541 0.999 . S
H545 C526 0.913 . S
H546 C564 0.951 . S
H547 C566 0.951 . S
H548 C568 0.950 . S
H549 C569 0.950 . S
H550 C571 0.950 . S
H551 C574 0.950 . S
H552 C575 0.950 . S
H553 C577 0.950 . S
H554 C578 0.950 . S
H555 C579 0.951 . S
H556 C581 0.951 . S
H557 C583 0.950 . S
H558 C584 0.950 . S
H559 C586 0.950 . S
H560 C589 0.950 . S
H561 C590 0.950 . S
H562 C592 0.950 . S
H563 C593 0.950 . S
C564 H546 0.951 . S
C564 C565 1.366 . S
C564 C566 1.388 . S
C565 C564 1.366 . S
C565 C569 1.385 . S
C566 H547 0.951 . S
C566 C564 1.388 . S
C566 C567 1.366 . S
C567 C566 1.366 . S
C567 C568 1.414 . S
C567 C570 1.499 . S
C568 H548 0.950 . S
C568 C567 1.414 . S
C568 C569 1.374 . S
C569 H549 0.950 . S
C569 C565 1.385 . S
C569 C568 1.374 . S
C570 C567 1.499 . S
C570 C571 1.373 . S
C570 C572 1.389 1_556 S
C571 H550 0.950 . S
C571 C570 1.373 . S
C571 C587 1.377 . S
C572 C570 1.389 1_554 S
C572 C573 1.524 . S
C572 C586 1.377 . S
C573 C572 1.524 . S
C573 C574 1.397 . S
C573 C578 1.363 . S
C574 H551 0.950 . S
C574 C573 1.397 . S
C574 C575 1.334 . S
C575 H552 0.950 . S
C575 C574 1.334 . S
C575 C576 1.287 . S
C576 C575 1.287 . S
C576 C577 1.524 . S
C576 H595 0.913 . S
C577 H553 0.950 . S
C577 C576 1.524 . S
C577 C578 1.415 . S
C578 H554 0.950 . S
C578 C573 1.363 . S
C578 C577 1.415 . S
C579 H555 0.951 . S
C579 C580 1.366 . S
C579 C581 1.388 . S
C580 C579 1.366 . S
C580 C584 1.385 . S
C581 H556 0.951 . S
C581 C579 1.388 . S
C581 C582 1.366 . S
C582 C581 1.366 . S
C582 C583 1.414 . S
C582 C585 1.499 . S
C583 H557 0.950 . S
C583 C582 1.414 . S
C583 C584 1.374 . S
C584 H558 0.950 . S
C584 C580 1.385 . S
C584 C583 1.374 . S
C585 C582 1.499 . S
C585 C586 1.373 . S
C585 C587 1.389 1_554 S
C586 H559 0.950 . S
C586 C572 1.377 . S
C586 C585 1.373 . S
C587 C571 1.377 . S
C587 C585 1.389 1_556 S
C587 C588 1.524 . S
C588 C587 1.524 . S
C588 C589 1.397 . S
C588 C593 1.363 . S
C589 H560 0.950 . S
C589 C588 1.397 . S
C589 C590 1.334 . S
C590 H561 0.950 . S
C590 C589 1.334 . S
C590 C591 1.287 . S
C591 C590 1.287 . S
C591 C592 1.524 . S
C591 H594 0.999 . S
C592 H562 0.950 . S
C592 C591 1.524 . S
C592 C593 1.415 . S
C593 H563 0.950 . S
C593 C588 1.363 . S
C593 C592 1.415 . S
H594 C591 0.999 . S
H595 C576 0.913 . S
H596 C614 0.951 . S
H597 C616 0.951 . S
H598 C618 0.950 . S
H599 C619 0.950 . S
H600 C621 0.950 . S
H601 C624 0.950 . S
H602 C625 0.950 . S
H603 C627 0.950 . S
H604 C628 0.950 . S
H605 C629 0.951 . S
H606 C631 0.951 . S
H607 C633 0.950 . S
H608 C634 0.950 . S
H609 C636 0.950 . S
H610 C639 0.950 . S
H611 C640 0.950 . S
H612 C642 0.950 . S
H613 C643 0.950 . S
C614 H596 0.951 . S
C614 C615 1.366 . S
C614 C616 1.388 . S
C615 C614 1.366 . S
C615 C619 1.385 . S
C616 H597 0.951 . S
C616 C614 1.388 . S
C616 C617 1.366 . S
C617 C616 1.366 . S
C617 C618 1.414 . S
C617 C620 1.499 . S
C618 H598 0.950 . S
C618 C617 1.414 . S
C618 C619 1.374 . S
C619 H599 0.950 . S
C619 C615 1.385 . S
C619 C618 1.374 . S
C620 C617 1.499 . S
C620 C621 1.373 . S
C620 C622 1.389 . S
C621 H600 0.950 . S
C621 C620 1.373 . S
C621 C637 1.377 . S
C622 C620 1.389 . S
C622 C623 1.524 . S
C622 C636 1.377 . S
C623 C622 1.524 . S
C623 C624 1.397 . S
C623 C628 1.363 . S
C624 H601 0.950 . S
C624 C623 1.397 . S
C624 C625 1.334 . S
C625 H602 0.950 . S
C625 C624 1.334 . S
C625 C626 1.287 . S
C626 C625 1.287 . S
C626 C627 1.524 . S
C626 H645 0.913 . S
C627 H603 0.950 . S
C627 C626 1.524 . S
C627 C628 1.415 . S
C628 H604 0.950 . S
C628 C623 1.363 . S
C628 C627 1.415 . S
C629 H605 0.951 . S
C629 C630 1.366 . S
C629 C631 1.388 . S
C630 C629 1.366 . S
C630 C634 1.385 . S
C631 H606 0.951 . S
C631 C629 1.388 . S
C631 C632 1.366 . S
C632 C631 1.366 . S
C632 C633 1.414 . S
C632 C635 1.499 . S
C633 H607 0.950 . S
C633 C632 1.414 . S
C633 C634 1.374 . S
C634 H608 0.950 . S
C634 C630 1.385 . S
C634 C633 1.374 . S
C635 C632 1.499 . S
C635 C636 1.373 . S
C635 C637 1.389 . S
C636 H609 0.950 . S
C636 C622 1.377 . S
C636 C635 1.373 . S
C637 C621 1.377 . S
C637 C635 1.389 . S
C637 C638 1.524 . S
C638 C637 1.524 . S
C638 C639 1.397 . S
C638 C643 1.363 . S
C639 H610 0.950 . S
C639 C638 1.397 . S
C639 C640 1.334 . S
C640 H611 0.950 . S
C640 C639 1.334 . S
C640 C641 1.287 . S
C641 C640 1.287 . S
C641 C642 1.524 . S
C641 H644 0.999 . S
C642 H612 0.950 . S
C642 C641 1.524 . S
C642 C643 1.415 . S
C643 H613 0.950 . S
C643 C638 1.363 . S
C643 C642 1.415 . S
H644 C641 0.999 . S
H645 C626 0.913 . S
H646 C664 0.951 . S
H647 C666 0.951 . S
H648 C668 0.950 . S
H649 C669 0.950 . S
H650 C671 0.950 . S
H651 C674 0.950 . S
H652 C675 0.950 . S
H653 C677 0.950 . S
H654 C678 0.950 . S
H655 C679 0.951 . S
H656 C681 0.951 . S
H657 C683 0.950 . S
H658 C684 0.950 . S
H659 C686 0.950 . S
H660 C689 0.950 . S
H661 C690 0.950 . S
H662 C692 0.950 . S
H663 C693 0.950 . S
C664 H646 0.951 . S
C664 C665 1.366 . S
C664 C666 1.388 . S
C665 C664 1.366 . S
C665 C669 1.385 . S
C666 H647 0.951 . S
C666 C664 1.388 . S
C666 C667 1.366 . S
C667 C666 1.366 . S
C667 C668 1.414 . S
C667 C670 1.499 . S
C668 H648 0.950 . S
C668 C667 1.414 . S
C668 C669 1.374 . S
C669 H649 0.950 . S
C669 C665 1.385 . S
C669 C668 1.374 . S
C670 C667 1.499 . S
C670 C671 1.373 . S
C670 C672 1.389 . S
C671 H650 0.950 . S
C671 C670 1.373 . S
C671 C687 1.377 . S
C672 C670 1.389 . S
C672 C673 1.524 . S
C672 C686 1.377 . S
C673 C672 1.524 . S
C673 C674 1.397 . S
C673 C678 1.363 . S
C674 H651 0.950 . S
C674 C673 1.397 . S
C674 C675 1.334 . S
C675 H652 0.950 . S
C675 C674 1.334 . S
C675 C676 1.287 . S
C676 C675 1.287 . S
C676 C677 1.524 . S
C676 H695 0.913 . S
C677 H653 0.950 . S
C677 C676 1.524 . S
C677 C678 1.415 . S
C678 H654 0.950 . S
C678 C673 1.363 . S
C678 C677 1.415 . S
C679 H655 0.951 . S
C679 C680 1.366 . S
C679 C681 1.388 . S
C680 C679 1.366 . S
C680 C684 1.385 . S
C681 H656 0.951 . S
C681 C679 1.388 . S
C681 C682 1.366 . S
C682 C681 1.366 . S
C682 C683 1.414 . S
C682 C685 1.499 . S
C683 H657 0.950 . S
C683 C682 1.414 . S
C683 C684 1.374 . S
C684 H658 0.950 . S
C684 C680 1.385 . S
C684 C683 1.374 . S
C685 C682 1.499 . S
C685 C686 1.373 . S
C685 C687 1.389 . S
C686 H659 0.950 . S
C686 C672 1.377 . S
C686 C685 1.373 . S
C687 C671 1.377 . S
C687 C685 1.389 . S
C687 C688 1.524 . S
C688 C687 1.524 . S
C688 C689 1.397 . S
C688 C693 1.363 . S
C689 H660 0.950 . S
C689 C688 1.397 . S
C689 C690 1.334 . S
C690 H661 0.950 . S
C690 C689 1.334 . S
C690 C691 1.287 . S
C691 C690 1.287 . S
C691 C692 1.524 . S
C691 H694 0.999 . S
C692 H662 0.950 . S
C692 C691 1.524 . S
C692 C693 1.415 . S
C693 H663 0.950 . S
C693 C688 1.363 . S
C693 C692 1.415 . S
H694 C691 0.999 . S
H695 C676 0.913 . S
H696 C714 0.951 . S
H697 C716 0.951 . S
H698 C718 0.950 . S
H699 C719 0.950 . S
H700 C721 0.950 . S
H701 C724 0.950 . S
H702 C725 0.950 . S
H703 C727 0.950 . S
H704 C728 0.950 . S
H705 C729 0.951 . S
H706 C731 0.951 . S
H707 C733 0.950 . S
H708 C734 0.950 . S
H709 C736 0.950 . S
H710 C739 0.950 . S
H711 C740 0.950 . S
H712 C742 0.950 . S
H713 C743 0.950 . S
C714 H696 0.951 . S
C714 C715 1.366 . S
C714 C716 1.388 . S
C715 C714 1.366 . S
C715 C719 1.385 . S
C716 H697 0.951 . S
C716 C714 1.388 . S
C716 C717 1.366 . S
C717 C716 1.366 . S
C717 C718 1.414 . S
C717 C720 1.499 . S
C718 H698 0.950 . S
C718 C717 1.414 . S
C718 C719 1.374 . S
C719 H699 0.950 . S
C719 C715 1.385 . S
C719 C718 1.374 . S
C720 C717 1.499 . S
C720 C721 1.373 . S
C720 C722 1.389 . S
C721 H700 0.950 . S
C721 C720 1.373 . S
C721 C737 1.377 . S
C722 C720 1.389 . S
C722 C723 1.524 . S
C722 C736 1.377 . S
C723 C722 1.524 . S
C723 C724 1.397 . S
C723 C728 1.363 . S
C724 H701 0.950 . S
C724 C723 1.397 . S
C724 C725 1.334 . S
C725 H702 0.950 . S
C725 C724 1.334 . S
C725 C726 1.287 . S
C726 C725 1.287 . S
C726 C727 1.524 . S
C726 H745 0.913 . S
C727 H703 0.950 . S
C727 C726 1.524 . S
C727 C728 1.415 . S
C728 H704 0.950 . S
C728 C723 1.363 . S
C728 C727 1.415 . S
C729 H705 0.951 . S
C729 C730 1.366 . S
C729 C731 1.388 . S
C730 C729 1.366 . S
C730 C734 1.385 . S
C731 H706 0.951 . S
C731 C729 1.388 . S
C731 C732 1.366 . S
C732 C731 1.366 . S
C732 C733 1.414 . S
C732 C735 1.499 . S
C733 H707 0.950 . S
C733 C732 1.414 . S
C733 C734 1.374 . S
C734 H708 0.950 . S
C734 C730 1.385 . S
C734 C733 1.374 . S
C735 C732 1.499 . S
C735 C736 1.373 . S
C735 C737 1.389 . S
C736 H709 0.950 . S
C736 C722 1.377 . S
C736 C735 1.373 . S
C737 C721 1.377 . S
C737 C735 1.389 . S
C737 C738 1.524 . S
C738 C737 1.524 . S
C738 C739 1.397 . S
C738 C743 1.363 . S
C739 H710 0.950 . S
C739 C738 1.397 . S
C739 C740 1.334 . S
C740 H711 0.950 . S
C740 C739 1.334 . S
C740 C741 1.287 . S
C741 C740 1.287 . S
C741 C742 1.524 . S
C741 H744 0.999 . S
C742 H712 0.950 . S
C742 C741 1.524 . S
C742 C743 1.415 . S
C743 H713 0.950 . S
C743 C738 1.363 . S
C743 C742 1.415 . S
H744 C741 0.999 . S
H745 C726 0.913 . S
H746 C764 0.951 . S
H747 C766 0.951 . S
H748 C768 0.950 . S
H749 C769 0.950 . S
H750 C771 0.950 . S
H751 C774 0.950 . S
H752 C775 0.950 . S
H753 C777 0.950 . S
H754 C778 0.950 . S
H755 C779 0.951 . S
H756 C781 0.951 . S
H757 C783 0.950 . S
H758 C784 0.950 . S
H759 C786 0.950 . S
H760 C789 0.950 . S
H761 C790 0.950 . S
H762 C792 0.950 . S
H763 C793 0.950 . S
C764 H746 0.951 . S
C764 C765 1.366 . S
C764 C766 1.388 . S
C765 C764 1.366 . S
C765 C769 1.385 . S
C766 H747 0.951 . S
C766 C764 1.388 . S
C766 C767 1.366 . S
C767 C766 1.366 . S
C767 C768 1.414 . S
C767 C770 1.499 . S
C768 H748 0.950 . S
C768 C767 1.414 . S
C768 C769 1.374 . S
C769 H749 0.950 . S
C769 C765 1.385 . S
C769 C768 1.374 . S
C770 C767 1.499 . S
C770 C771 1.373 . S
C770 C772 1.389 . S
C771 H750 0.950 . S
C771 C770 1.373 . S
C771 C787 1.377 . S
C772 C770 1.389 . S
C772 C773 1.524 . S
C772 C786 1.377 . S
C773 C772 1.524 . S
C773 C774 1.397 . S
C773 C778 1.363 . S
C774 H751 0.950 . S
C774 C773 1.397 . S
C774 C775 1.334 . S
C775 H752 0.950 . S
C775 C774 1.334 . S
C775 C776 1.287 . S
C776 C775 1.287 . S
C776 C777 1.524 . S
C776 H795 0.913 . S
C777 H753 0.950 . S
C777 C776 1.524 . S
C777 C778 1.415 . S
C778 H754 0.950 . S
C778 C773 1.363 . S
C778 C777 1.415 . S
C779 H755 0.951 . S
C779 C780 1.366 . S
C779 C781 1.388 . S
C780 C779 1.366 . S
C780 C784 1.385 . S
C781 H756 0.951 . S
C781 C779 1.388 . S
C781 C782 1.366 . S
C782 C781 1.366 . S
C782 C783 1.414 . S
C782 C785 1.499 . S
C783 H757 0.950 . S
C783 C782 1.414 . S
C783 C784 1.374 . S
C784 H758 0.950 . S
C784 C780 1.385 . S
C784 C783 1.374 . S
C785 C782 1.499 . S
C785 C786 1.373 . S
C785 C787 1.389 . S
C786 H759 0.950 . S
C786 C772 1.377 . S
C786 C785 1.373 . S
C787 C771 1.377 . S
C787 C785 1.389 . S
C787 C788 1.524 . S
C788 C787 1.524 . S
C788 C789 1.397 . S
C788 C793 1.363 . S
C789 H760 0.950 . S
C789 C788 1.397 . S
C789 C790 1.334 . S
C790 H761 0.950 . S
C790 C789 1.334 . S
C790 C791 1.287 . S
C791 C790 1.287 . S
C791 C792 1.524 . S
C791 H794 0.999 . S
C792 H762 0.950 . S
C792 C791 1.524 . S
C792 C793 1.415 . S
C793 H763 0.950 . S
C793 C788 1.363 . S
C793 C792 1.415 . S
H794 C791 0.999 . S
H795 C776 0.913 . S
H796 C814 0.951 . S
H797 C816 0.951 . S
H798 C818 0.950 . S
H799 C819 0.950 . S
H800 C821 0.950 . S
H801 C824 0.950 . S
H802 C825 0.950 . S
H803 C827 0.950 . S
H804 C828 0.950 . S
H805 C829 0.951 . S
H806 C831 0.951 . S
H807 C833 0.950 . S
H808 C834 0.950 . S
H809 C836 0.950 . S
H810 C839 0.950 . S
H811 C840 0.950 . S
H812 C842 0.950 . S
H813 C843 0.950 . S
C814 H796 0.951 . S
C814 C815 1.366 1_554 S
C814 C816 1.388 . S
C815 C814 1.366 1_556 S
C815 C819 1.385 . S
C816 H797 0.951 . S
C816 C814 1.388 . S
C816 C817 1.366 1_554 S
C817 C816 1.366 1_556 S
C817 C818 1.414 . S
C817 C820 1.499 . S
C818 H798 0.950 . S
C818 C817 1.414 . S
C818 C819 1.374 . S
C819 H799 0.950 . S
C819 C815 1.385 . S
C819 C818 1.374 . S
C820 C817 1.499 . S
C820 C821 1.373 . S
C820 C822 1.389 1_556 S
C821 H800 0.950 . S
C821 C820 1.373 . S
C821 C837 1.377 . S
C822 C820 1.389 1_554 S
C822 C823 1.524 . S
C822 C836 1.377 . S
C823 C822 1.524 . S
C823 C824 1.397 1_554 S
C823 C828 1.363 . S
C824 H801 0.950 . S
C824 C823 1.397 1_556 S
C824 C825 1.334 . S
C825 H802 0.950 . S
C825 C824 1.334 . S
C825 C826 1.287 1_556 S
C826 C825 1.287 1_554 S
C826 C827 1.524 . S
C826 H845 0.913 . S
C827 H803 0.950 . S
C827 C826 1.524 . S
C827 C828 1.415 . S
C828 H804 0.950 . S
C828 C823 1.363 . S
C828 C827 1.415 . S
C829 H805 0.951 . S
C829 C830 1.366 1_556 S
C829 C831 1.388 . S
C830 C829 1.366 1_554 S
C830 C834 1.385 . S
C831 H806 0.951 . S
C831 C829 1.388 . S
C831 C832 1.366 1_556 S
C832 C831 1.366 1_554 S
C832 C833 1.414 . S
C832 C835 1.499 . S
C833 H807 0.950 . S
C833 C832 1.414 . S
C833 C834 1.374 . S
C834 H808 0.950 . S
C834 C830 1.385 . S
C834 C833 1.374 . S
C835 C832 1.499 . S
C835 C836 1.373 . S
C835 C837 1.389 1_554 S
C836 H809 0.950 . S
C836 C822 1.377 . S
C836 C835 1.373 . S
C837 C821 1.377 . S
C837 C835 1.389 1_556 S
C837 C838 1.524 . S
C838 C837 1.524 . S
C838 C839 1.397 1_556 S
C838 C843 1.363 . S
C839 H810 0.950 . S
C839 C838 1.397 1_554 S
C839 C840 1.334 . S
C840 H811 0.950 . S
C840 C839 1.334 . S
C840 C841 1.287 1_554 S
C841 C840 1.287 1_556 S
C841 C842 1.524 . S
C841 H844 0.999 . S
C842 H812 0.950 . S
C842 C841 1.524 . S
C842 C843 1.415 . S
C843 H813 0.950 . S
C843 C838 1.363 . S
C843 C842 1.415 . S
H844 C841 0.999 . S
H845 C826 0.913 . S
H846 C864 0.951 . S
H847 C866 0.951 . S
H848 C868 0.950 . S
H849 C869 0.950 . S
H850 C871 0.950 . S
H851 C874 0.950 . S
H852 C875 0.950 . S
H853 C877 0.950 . S
H854 C878 0.950 . S
H855 C879 0.951 . S
H856 C881 0.951 . S
H857 C883 0.950 . S
H858 C884 0.950 . S
H859 C886 0.950 . S
H860 C889 0.950 . S
H861 C890 0.950 . S
H862 C892 0.950 . S
H863 C893 0.950 . S
C864 H846 0.951 . S
C864 C865 1.366 . S
C864 C866 1.388 . S
C865 C864 1.366 . S
C865 C869 1.385 . S
C866 H847 0.951 . S
C866 C864 1.388 . S
C866 C867 1.366 . S
C867 C866 1.366 . S
C867 C868 1.414 . S
C867 C870 1.499 . S
C868 H848 0.950 . S
C868 C867 1.414 . S
C868 C869 1.374 . S
C869 H849 0.950 . S
C869 C865 1.385 . S
C869 C868 1.374 . S
C870 C867 1.499 . S
C870 C871 1.373 . S
C870 C872 1.389 . S
C871 H850 0.950 . S
C871 C870 1.373 . S
C871 C887 1.377 . S
C872 C870 1.389 . S
C872 C873 1.524 . S
C872 C886 1.377 . S
C873 C872 1.524 . S
C873 C874 1.397 . S
C873 C878 1.363 . S
C874 H851 0.950 . S
C874 C873 1.397 . S
C874 C875 1.334 . S
C875 H852 0.950 . S
C875 C874 1.334 . S
C875 C876 1.287 . S
C876 C875 1.287 . S
C876 C877 1.524 . S
C876 H895 0.913 . S
C877 H853 0.950 . S
C877 C876 1.524 . S
C877 C878 1.415 . S
C878 H854 0.950 . S
C878 C873 1.363 . S
C878 C877 1.415 . S
C879 H855 0.951 . S
C879 C880 1.366 . S
C879 C881 1.388 . S
C880 C879 1.366 . S
C880 C884 1.385 . S
C881 H856 0.951 . S
C881 C879 1.388 . S
C881 C882 1.366 . S
C882 C881 1.366 . S
C882 C883 1.414 . S
C882 C885 1.499 . S
C883 H857 0.950 . S
C883 C882 1.414 . S
C883 C884 1.374 . S
C884 H858 0.950 . S
C884 C880 1.385 . S
C884 C883 1.374 . S
C885 C882 1.499 . S
C885 C886 1.373 . S
C885 C887 1.389 . S
C886 H859 0.950 . S
C886 C872 1.377 . S
C886 C885 1.373 . S
C887 C871 1.377 . S
C887 C885 1.389 . S
C887 C888 1.524 . S
C888 C887 1.524 . S
C888 C889 1.397 . S
C888 C893 1.363 . S
C889 H860 0.950 . S
C889 C888 1.397 . S
C889 C890 1.334 . S
C890 H861 0.950 . S
C890 C889 1.334 . S
C890 C891 1.287 . S
C891 C890 1.287 . S
C891 C892 1.524 . S
C891 H894 0.999 . S
C892 H862 0.950 . S
C892 C891 1.524 . S
C892 C893 1.415 . S
C893 H863 0.950 . S
C893 C888 1.363 . S
C893 C892 1.415 . S
H894 C891 0.999 . S
H895 C876 0.913 . S
H896 C914 0.951 . S
H897 C916 0.951 . S
H898 C918 0.950 . S
H899 C919 0.950 . S
H900 C921 0.950 . S
H901 C924 0.950 . S
H902 C925 0.950 . S
H903 C927 0.950 . S
H904 C928 0.950 . S
H905 C929 0.951 . S
H906 C931 0.951 . S
H907 C933 0.950 . S
H908 C934 0.950 . S
H909 C936 0.950 . S
H910 C939 0.950 . S
H911 C940 0.950 . S
H912 C942 0.950 . S
H913 C943 0.950 . S
C914 H896 0.951 . S
C914 C915 1.366 . S
C914 C916 1.388 . S
C915 C914 1.366 . S
C915 C919 1.385 . S
C916 H897 0.951 . S
C916 C914 1.388 . S
C916 C917 1.366 . S
C917 C916 1.366 . S
C917 C918 1.414 . S
C917 C920 1.499 . S
C918 H898 0.950 . S
C918 C917 1.414 . S
C918 C919 1.374 . S
C919 H899 0.950 . S
C919 C915 1.385 . S
C919 C918 1.374 . S
C920 C917 1.499 . S
C920 C921 1.373 . S
C920 C922 1.389 . S
C921 H900 0.950 . S
C921 C920 1.373 . S
C921 C937 1.377 . S
C922 C920 1.389 . S
C922 C923 1.524 . S
C922 C936 1.377 . S
C923 C922 1.524 . S
C923 C924 1.397 . S
C923 C928 1.363 . S
C924 H901 0.950 . S
C924 C923 1.397 . S
C924 C925 1.334 . S
C925 H902 0.950 . S
C925 C924 1.334 . S
C925 C926 1.287 . S
C926 C925 1.287 . S
C926 C927 1.524 . S
C926 H945 0.913 . S
C927 H903 0.950 . S
C927 C926 1.524 . S
C927 C928 1.415 . S
C928 H904 0.950 . S
C928 C923 1.363 . S
C928 C927 1.415 . S
C929 H905 0.951 . S
C929 C930 1.366 . S
C929 C931 1.388 . S
C930 C929 1.366 . S
C930 C934 1.385 . S
C931 H906 0.951 . S
C931 C929 1.388 . S
C931 C932 1.366 . S
C932 C931 1.366 . S
C932 C933 1.414 . S
C932 C935 1.499 . S
C933 H907 0.950 . S
C933 C932 1.414 . S
C933 C934 1.374 . S
C934 H908 0.950 . S
C934 C930 1.385 . S
C934 C933 1.374 . S
C935 C932 1.499 . S
C935 C936 1.373 . S
C935 C937 1.389 . S
C936 H909 0.950 . S
C936 C922 1.377 . S
C936 C935 1.373 . S
C937 C921 1.377 . S
C937 C935 1.389 . S
C937 C938 1.524 . S
C938 C937 1.524 . S
C938 C939 1.397 . S
C938 C943 1.363 . S
C939 H910 0.950 . S
C939 C938 1.397 . S
C939 C940 1.334 . S
C940 H911 0.950 . S
C940 C939 1.334 . S
C940 C941 1.287 . S
C941 C940 1.287 . S
C941 C942 1.524 . S
C941 H944 0.999 . S
C942 H912 0.950 . S
C942 C941 1.524 . S
C942 C943 1.415 . S
C943 H913 0.950 . S
C943 C938 1.363 . S
C943 C942 1.415 . S
H944 C941 0.999 . S
H945 C926 0.913 . S
H946 C964 0.951 . S
H947 C966 0.951 . S
H948 C968 0.950 . S
H949 C969 0.950 . S
H950 C971 0.950 . S
H951 C974 0.950 1_554 S
H952 C975 0.950 . S
H953 C977 0.950 . S
H954 C978 0.950 . S
H955 C979 0.951 . S
H956 C981 0.951 . S
H957 C983 0.950 . S
H958 C984 0.950 . S
H959 C986 0.950 . S
H960 C989 0.950 1_556 S
H961 C990 0.950 . S
H962 C992 0.950 . S
H963 C993 0.950 . S
C964 H946 0.951 . S
C964 C965 1.366 1_556 S
C964 C966 1.388 . S
C965 C964 1.366 1_554 S
C965 C969 1.385 . S
C966 H947 0.951 . S
C966 C964 1.388 . S
C966 C967 1.366 1_556 S
C967 C966 1.366 1_554 S
C967 C968 1.414 . S
C967 C970 1.499 . S
C968 H948 0.950 . S
C968 C967 1.414 . S
C968 C969 1.374 . S
C969 H949 0.950 . S
C969 C965 1.385 . S
C969 C968 1.374 . S
C970 C967 1.499 . S
C970 C971 1.373 . S
C970 C972 1.389 1_554 S
C971 H950 0.950 . S
C971 C970 1.373 . S
C971 C987 1.377 . S
C972 C970 1.389 1_556 S
C972 C973 1.524 . S
C972 C986 1.377 . S
C973 C972 1.524 . S
C973 C974 1.397 . S
C973 C978 1.363 . S
C974 H951 0.950 1_556 S
C974 C973 1.397 . S
C974 C975 1.334 . S
C975 H952 0.950 . S
C975 C974 1.334 . S
C975 C976 1.287 . S
C976 C975 1.287 . S
C976 C977 1.524 . S
C976 H995 0.913 . S
C977 H953 0.950 . S
C977 C976 1.524 . S
C977 C978 1.415 . S
C978 H954 0.950 . S
C978 C973 1.363 . S
C978 C977 1.415 . S
C979 H955 0.951 . S
C979 C980 1.366 1_554 S
C979 C981 1.388 . S
C980 C979 1.366 1_556 S
C980 C984 1.385 . S
C981 H956 0.951 . S
C981 C979 1.388 . S
C981 C982 1.366 1_554 S
C982 C981 1.366 1_556 S
C982 C983 1.414 . S
C982 C985 1.499 . S
C983 H957 0.950 . S
C983 C982 1.414 . S
C983 C984 1.374 . S
C984 H958 0.950 . S
C984 C980 1.385 . S
C984 C983 1.374 . S
C985 C982 1.499 . S
C985 C986 1.373 . S
C985 C987 1.389 1_556 S
C986 H959 0.950 . S
C986 C972 1.377 . S
C986 C985 1.373 . S
C987 C971 1.377 . S
C987 C985 1.389 1_554 S
C987 C988 1.524 . S
C988 C987 1.524 . S
C988 C989 1.397 . S
C988 C993 1.363 . S
C989 H960 0.950 1_554 S
C989 C988 1.397 . S
C989 C990 1.334 . S
C990 H961 0.950 . S
C990 C989 1.334 . S
C990 C991 1.287 . S
C991 C990 1.287 . S
C991 C992 1.524 . S
C991 H994 0.999 . S
C992 H962 0.950 . S
C992 C991 1.524 . S
C992 C993 1.415 . S
C993 H963 0.950 . S
C993 C988 1.363 . S
C993 C992 1.415 . S
H994 C991 0.999 . S
H995 C976 0.913 . S
H996 C1014 0.951 . S
H997 C1016 0.951 . S
H998 C1018 0.950 . S
H999 C1019 0.950 . S
H1000 C1021 0.950 . S
H1001 C1024 0.950 . S
H1002 C1025 0.950 . S
H1003 C1027 0.950 . S
H1004 C1028 0.950 . S
H1005 C1029 0.951 . S
H1006 C1031 0.951 . S
H1007 C1033 0.950 . S
H1008 C1034 0.950 . S
H1009 C1036 0.950 . S
H1010 C1039 0.950 . S
H1011 C1040 0.950 . S
H1012 C1042 0.950 . S
H1013 C1043 0.950 . S
C1014 H996 0.951 . S
C1014 C1015 1.366 . S
C1014 C1016 1.388 . S
C1015 C1014 1.366 . S
C1015 C1019 1.385 . S
C1016 H997 0.951 . S
C1016 C1014 1.388 . S
C1016 C1017 1.366 . S
C1017 C1016 1.366 . S
C1017 C1018 1.414 . S
C1017 C1020 1.499 . S
C1018 H998 0.950 . S
C1018 C1017 1.414 . S
C1018 C1019 1.374 . S
C1019 H999 0.950 . S
C1019 C1015 1.385 . S
C1019 C1018 1.374 . S
C1020 C1017 1.499 . S
C1020 C1021 1.373 . S
C1020 C1022 1.389 . S
C1021 H1000 0.950 . S
C1021 C1020 1.373 . S
C1021 C1037 1.377 . S
C1022 C1020 1.389 . S
C1022 C1023 1.524 . S
C1022 C1036 1.377 . S
C1023 C1022 1.524 . S
C1023 C1024 1.397 . S
C1023 C1028 1.363 . S
C1024 H1001 0.950 . S
C1024 C1023 1.397 . S
C1024 C1025 1.334 . S
C1025 H1002 0.950 . S
C1025 C1024 1.334 . S
C1025 C1026 1.287 . S
C1026 C1025 1.287 . S
C1026 C1027 1.524 . S
C1026 H1045 0.913 . S
C1027 H1003 0.950 . S
C1027 C1026 1.524 . S
C1027 C1028 1.415 . S
C1028 H1004 0.950 . S
C1028 C1023 1.363 . S
C1028 C1027 1.415 . S
C1029 H1005 0.951 . S
C1029 C1030 1.366 . S
C1029 C1031 1.388 . S
C1030 C1029 1.366 . S
C1030 C1034 1.385 . S
C1031 H1006 0.951 . S
C1031 C1029 1.388 . S
C1031 C1032 1.366 . S
C1032 C1031 1.366 . S
C1032 C1033 1.414 . S
C1032 C1035 1.499 . S
C1033 H1007 0.950 . S
C1033 C1032 1.414 . S
C1033 C1034 1.374 . S
C1034 H1008 0.950 . S
C1034 C1030 1.385 . S
C1034 C1033 1.374 . S
C1035 C1032 1.499 . S
C1035 C1036 1.373 . S
C1035 C1037 1.389 . S
C1036 H1009 0.950 . S
C1036 C1022 1.377 . S
C1036 C1035 1.373 . S
C1037 C1021 1.377 . S
C1037 C1035 1.389 . S
C1037 C1038 1.524 . S
C1038 C1037 1.524 . S
C1038 C1039 1.397 . S
C1038 C1043 1.363 . S
C1039 H1010 0.950 . S
C1039 C1038 1.397 . S
C1039 C1040 1.334 . S
C1040 H1011 0.950 . S
C1040 C1039 1.334 . S
C1040 C1041 1.287 . S
C1041 C1040 1.287 . S
C1041 C1042 1.524 . S
C1041 H1044 0.999 . S
C1042 H1012 0.950 . S
C1042 C1041 1.524 . S
C1042 C1043 1.415 . S
C1043 H1013 0.950 . S
C1043 C1038 1.363 . S
C1043 C1042 1.415 . S
H1044 C1041 0.999 . S
H1045 C1026 0.913 . S
H1046 C1064 0.951 . S
H1047 C1066 0.951 . S
H1048 C1068 0.950 . S
H1049 C1069 0.950 . S
H1050 C1071 0.950 . S
H1051 C1074 0.950 . S
H1052 C1075 0.950 . S
H1053 C1077 0.950 . S
H1054 C1078 0.917 1_655 S
H1055 C1079 0.951 . S
H1056 C1081 0.951 . S
H1057 C1083 0.950 . S
H1058 C1084 0.950 . S
H1059 C1086 0.950 . S
H1060 C1089 0.950 . S
H1061 C1090 0.950 . S
H1062 C1092 0.950 . S
H1063 C1093 0.916 1_455 S
C1064 H1046 0.951 . S
C1064 C1065 1.366 . S
C1064 C1066 1.388 . S
C1065 C1064 1.366 . S
C1065 C1069 1.385 . S
C1066 H1047 0.951 . S
C1066 C1064 1.388 . S
C1066 C1067 1.366 . S
C1067 C1066 1.366 . S
C1067 C1068 1.414 . S
C1067 C1070 1.499 . S
C1068 H1048 0.950 . S
C1068 C1067 1.414 . S
C1068 C1069 1.374 . S
C1069 H1049 0.950 . S
C1069 C1065 1.385 . S
C1069 C1068 1.374 . S
C1070 C1067 1.499 . S
C1070 C1071 1.373 . S
C1070 C1072 1.389 . S
C1071 H1050 0.950 . S
C1071 C1070 1.373 . S
C1071 C1087 1.377 1_455 S
C1072 C1070 1.389 . S
C1072 C1073 1.524 . S
C1072 C1086 1.377 1_455 S
C1073 C1072 1.524 . S
C1073 C1074 1.397 . S
C1073 C1078 1.363 . S
C1074 H1051 0.950 . S
C1074 C1073 1.397 . S
C1074 C1075 1.334 . S
C1075 H1052 0.950 . S
C1075 C1074 1.334 . S
C1075 C1076 1.287 . S
C1076 C1075 1.287 . S
C1076 C1077 1.524 . S
C1076 H1095 0.913 . S
C1077 H1053 0.950 . S
C1077 C1076 1.524 . S
C1077 C1078 1.415 . S
C1078 H1054 0.917 1_455 S
C1078 C1073 1.363 . S
C1078 C1077 1.415 . S
C1079 H1055 0.951 . S
C1079 C1080 1.366 . S
C1079 C1081 1.388 . S
C1080 C1079 1.366 . S
C1080 C1084 1.385 . S
C1081 H1056 0.951 . S
C1081 C1079 1.388 . S
C1081 C1082 1.366 . S
C1082 C1081 1.366 . S
C1082 C1083 1.414 . S
C1082 C1085 1.499 . S
C1083 H1057 0.950 . S
C1083 C1082 1.414 . S
C1083 C1084 1.374 . S
C1084 H1058 0.950 . S
C1084 C1080 1.385 . S
C1084 C1083 1.374 . S
C1085 C1082 1.499 . S
C1085 C1086 1.373 . S
C1085 C1087 1.389 . S
C1086 H1059 0.950 . S
C1086 C1072 1.377 1_655 S
C1086 C1085 1.373 . S
C1087 C1071 1.377 1_655 S
C1087 C1085 1.389 . S
C1087 C1088 1.524 . S
C1088 C1087 1.524 . S
C1088 C1089 1.397 . S
C1088 C1093 1.363 . S
C1089 H1060 0.950 . S
C1089 C1088 1.397 . S
C1089 C1090 1.334 . S
C1090 H1061 0.950 . S
C1090 C1089 1.334 . S
C1090 C1091 1.287 . S
C1091 C1090 1.287 . S
C1091 C1092 1.524 . S
C1091 H1094 0.999 . S
C1092 H1062 0.950 . S
C1092 C1091 1.524 . S
C1092 C1093 1.415 . S
C1093 H1063 0.916 1_655 S
C1093 C1088 1.363 . S
C1093 C1092 1.415 . S
H1094 C1091 0.999 . S
H1095 C1076 0.913 . S
H1096 C1114 0.951 . S
H1097 C1116 0.951 . S
H1098 C1118 0.950 . S
H1099 C1119 0.950 . S
H1100 C1121 0.950 . S
H1101 C1124 0.950 . S
H1102 C1125 0.950 . S
H1103 C1127 0.950 . S
H1104 C1128 0.950 . S
H1105 C1129 0.951 . S
H1106 C1131 0.951 . S
H1107 C1133 0.950 . S
H1108 C1134 0.950 . S
H1109 C1136 0.950 . S
H1110 C1139 0.950 . S
H1111 C1140 0.950 . S
H1112 C1142 0.950 . S
H1113 C1143 0.950 . S
C1114 H1096 0.951 . S
C1114 C1115 1.366 . S
C1114 C1116 1.388 . S
C1115 C1114 1.366 . S
C1115 C1119 1.385 . S
C1116 H1097 0.951 . S
C1116 C1114 1.388 . S
C1116 C1117 1.366 . S
C1117 C1116 1.366 . S
C1117 C1118 1.414 . S
C1117 C1120 1.499 . S
C1118 H1098 0.950 . S
C1118 C1117 1.414 . S
C1118 C1119 1.374 . S
C1119 H1099 0.950 . S
C1119 C1115 1.385 . S
C1119 C1118 1.374 . S
C1120 C1117 1.499 . S
C1120 C1121 1.373 . S
C1120 C1122 1.389 1_554 S
C1121 H1100 0.950 . S
C1121 C1120 1.373 . S
C1121 C1137 1.377 1_545 S
C1122 C1120 1.389 1_556 S
C1122 C1123 1.524 . S
C1122 C1136 1.377 1_545 S
C1123 C1122 1.524 . S
C1123 C1124 1.397 . S
C1123 C1128 1.363 . S
C1124 H1101 0.950 . S
C1124 C1123 1.397 . S
C1124 C1125 1.334 . S
C1125 H1102 0.950 . S
C1125 C1124 1.334 . S
C1125 C1126 1.287 . S
C1126 C1125 1.287 . S
C1126 C1127 1.524 . S
C1126 H1145 0.913 . S
C1127 H1103 0.950 . S
C1127 C1126 1.524 . S
C1127 C1128 1.415 . S
C1128 H1104 0.950 . S
C1128 C1123 1.363 . S
C1128 C1127 1.415 . S
C1129 H1105 0.951 . S
C1129 C1130 1.366 . S
C1129 C1131 1.388 . S
C1130 C1129 1.366 . S
C1130 C1134 1.385 . S
C1131 H1106 0.951 . S
C1131 C1129 1.388 . S
C1131 C1132 1.366 . S
C1132 C1131 1.366 . S
C1132 C1133 1.414 . S
C1132 C1135 1.499 . S
C1133 H1107 0.950 . S
C1133 C1132 1.414 . S
C1133 C1134 1.374 . S
C1134 H1108 0.950 . S
C1134 C1130 1.385 . S
C1134 C1133 1.374 . S
C1135 C1132 1.499 . S
C1135 C1136 1.373 . S
C1135 C1137 1.389 1_556 S
C1136 H1109 0.950 . S
C1136 C1122 1.377 1_565 S
C1136 C1135 1.373 . S
C1137 C1121 1.377 1_565 S
C1137 C1135 1.389 1_554 S
C1137 C1138 1.524 . S
C1138 C1137 1.524 . S
C1138 C1139 1.397 . S
C1138 C1143 1.363 . S
C1139 H1110 0.950 . S
C1139 C1138 1.397 . S
C1139 C1140 1.334 . S
C1140 H1111 0.950 . S
C1140 C1139 1.334 . S
C1140 C1141 1.287 . S
C1141 C1140 1.287 . S
C1141 C1142 1.524 . S
C1141 H1144 0.999 . S
C1142 H1112 0.950 . S
C1142 C1141 1.524 . S
C1142 C1143 1.415 . S
C1143 H1113 0.950 . S
C1143 C1138 1.363 . S
C1143 C1142 1.415 . S
H1144 C1141 0.999 . S
H1145 C1126 0.913 . S
H1146 C1164 0.951 . S
H1147 C1166 0.951 . S
H1148 C1168 0.950 . S
H1149 C1169 0.950 . S
H1150 C1171 0.950 . S
H1151 C1174 0.950 . S
H1152 C1175 0.950 . S
H1153 C1177 0.950 . S
H1154 C1178 0.950 . S
H1155 C1179 0.951 . S
H1156 C1181 0.951 . S
H1157 C1183 0.950 . S
H1158 C1184 0.950 . S
H1159 C1186 0.950 . S
H1160 C1189 0.950 . S
H1161 C1190 0.950 . S
H1162 C1192 0.950 . S
H1163 C1193 0.950 . S
C1164 H1146 0.951 . S
C1164 C1165 1.366 . S
C1164 C1166 1.388 . S
C1165 C1164 1.366 . S
C1165 C1169 1.385 . S
C1166 H1147 0.951 . S
C1166 C1164 1.388 . S
C1166 C1167 1.366 . S
C1167 C1166 1.366 . S
C1167 C1168 1.414 . S
C1167 C1170 1.499 . S
C1168 H1148 0.950 . S
C1168 C1167 1.414 . S
C1168 C1169 1.374 . S
C1169 H1149 0.950 . S
C1169 C1165 1.385 . S
C1169 C1168 1.374 . S
C1170 C1167 1.499 . S
C1170 C1171 1.373 . S
C1170 C1172 1.389 . S
C1171 H1150 0.950 . S
C1171 C1170 1.373 . S
C1171 C1187 1.377 . S
C1172 C1170 1.389 . S
C1172 C1173 1.524 . S
C1172 C1186 1.377 . S
C1173 C1172 1.524 . S
C1173 C1174 1.397 . S
C1173 C1178 1.363 . S
C1174 H1151 0.950 . S
C1174 C1173 1.397 . S
C1174 C1175 1.334 . S
C1175 H1152 0.950 . S
C1175 C1174 1.334 . S
C1175 C1176 1.287 . S
C1176 C1175 1.287 . S
C1176 C1177 1.524 . S
C1176 H1195 0.913 . S
C1177 H1153 0.950 . S
C1177 C1176 1.524 . S
C1177 C1178 1.415 . S
C1178 H1154 0.950 . S
C1178 C1173 1.363 . S
C1178 C1177 1.415 . S
C1179 H1155 0.951 . S
C1179 C1180 1.366 . S
C1179 C1181 1.388 . S
C1180 C1179 1.366 . S
C1180 C1184 1.385 . S
C1181 H1156 0.951 . S
C1181 C1179 1.388 . S
C1181 C1182 1.366 . S
C1182 C1181 1.366 . S
C1182 C1183 1.414 . S
C1182 C1185 1.499 . S
C1183 H1157 0.950 . S
C1183 C1182 1.414 . S
C1183 C1184 1.374 . S
C1184 H1158 0.950 . S
C1184 C1180 1.385 . S
C1184 C1183 1.374 . S
C1185 C1182 1.499 . S
C1185 C1186 1.373 . S
C1185 C1187 1.389 . S
C1186 H1159 0.950 . S
C1186 C1172 1.377 . S
C1186 C1185 1.373 . S
C1187 C1171 1.377 . S
C1187 C1185 1.389 . S
C1187 C1188 1.524 . S
C1188 C1187 1.524 . S
C1188 C1189 1.397 . S
C1188 C1193 1.363 . S
C1189 H1160 0.950 . S
C1189 C1188 1.397 . S
C1189 C1190 1.334 . S
C1190 H1161 0.950 . S
C1190 C1189 1.334 . S
C1190 C1191 1.287 . S
C1191 C1190 1.287 . S
C1191 C1192 1.524 . S
C1191 H1194 0.999 . S
C1192 H1162 0.950 . S
C1192 C1191 1.524 . S
C1192 C1193 1.415 . S
C1193 H1163 0.950 . S
C1193 C1188 1.363 . S
C1193 C1192 1.415 . S
H1194 C1191 0.999 . S
H1195 C1176 0.913 . S
H1196 C1214 0.951 . S
H1197 C1216 0.951 . S
H1198 C1218 0.950 . S
H1199 C1219 0.950 . S
H1200 C1221 0.950 . S
H1201 C1224 0.950 . S
H1202 C1225 0.950 . S
H1203 C1227 0.950 . S
H1204 C1228 0.950 . S
H1205 C1229 0.951 . S
H1206 C1231 0.951 . S
H1207 C1233 0.950 . S
H1208 C1234 0.950 . S
H1209 C1236 0.950 . S
H1210 C1239 0.950 . S
H1211 C1240 0.950 . S
H1212 C1242 0.950 . S
H1213 C1243 0.950 . S
C1214 H1196 0.951 . S
C1214 C1215 1.366 . S
C1214 C1216 1.388 . S
C1215 C1214 1.366 . S
C1215 C1219 1.385 . S
C1216 H1197 0.951 . S
C1216 C1214 1.388 . S
C1216 C1217 1.366 . S
C1217 C1216 1.366 . S
C1217 C1218 1.414 . S
C1217 C1220 1.499 . S
C1218 H1198 0.950 . S
C1218 C1217 1.414 . S
C1218 C1219 1.374 . S
C1219 H1199 0.950 . S
C1219 C1215 1.385 . S
C1219 C1218 1.374 . S
C1220 C1217 1.499 . S
C1220 C1221 1.373 . S
C1220 C1222 1.389 . S
C1221 H1200 0.950 . S
C1221 C1220 1.373 . S
C1221 C1237 1.377 1_455 S
C1222 C1220 1.389 . S
C1222 C1223 1.524 . S
C1222 C1236 1.377 1_455 S
C1223 C1222 1.524 . S
C1223 C1224 1.397 . S
C1223 C1228 1.363 . S
C1224 H1201 0.950 . S
C1224 C1223 1.397 . S
C1224 C1225 1.334 . S
C1225 H1202 0.950 . S
C1225 C1224 1.334 . S
C1225 C1226 1.287 . S
C1226 C1225 1.287 . S
C1226 C1227 1.524 . S
C1226 H1245 0.913 . S
C1227 H1203 0.950 . S
C1227 C1226 1.524 . S
C1227 C1228 1.415 . S
C1228 H1204 0.950 . S
C1228 C1223 1.363 . S
C1228 C1227 1.415 . S
C1229 H1205 0.951 . S
C1229 C1230 1.366 . S
C1229 C1231 1.388 . S
C1230 C1229 1.366 . S
C1230 C1234 1.385 . S
C1231 H1206 0.951 . S
C1231 C1229 1.388 . S
C1231 C1232 1.366 . S
C1232 C1231 1.366 . S
C1232 C1233 1.414 . S
C1232 C1235 1.499 . S
C1233 H1207 0.950 . S
C1233 C1232 1.414 . S
C1233 C1234 1.374 . S
C1234 H1208 0.950 . S
C1234 C1230 1.385 . S
C1234 C1233 1.374 . S
C1235 C1232 1.499 . S
C1235 C1236 1.373 . S
C1235 C1237 1.389 . S
C1236 H1209 0.950 . S
C1236 C1222 1.377 1_655 S
C1236 C1235 1.373 . S
C1237 C1221 1.377 1_655 S
C1237 C1235 1.389 . S
C1237 C1238 1.524 . S
C1238 C1237 1.524 . S
C1238 C1239 1.397 . S
C1238 C1243 1.363 . S
C1239 H1210 0.950 . S
C1239 C1238 1.397 . S
C1239 C1240 1.334 . S
C1240 H1211 0.950 . S
C1240 C1239 1.334 . S
C1240 C1241 1.287 . S
C1241 C1240 1.287 . S
C1241 C1242 1.524 . S
C1241 H1244 0.999 . S
C1242 H1212 0.950 . S
C1242 C1241 1.524 . S
C1242 C1243 1.415 . S
C1243 H1213 0.950 . S
C1243 C1238 1.363 . S
C1243 C1242 1.415 . S
H1244 C1241 0.999 . S
H1245 C1226 0.913 . S
H1246 C1264 0.951 1_554 S
H1247 C1266 0.951 . S
H1248 C1268 0.950 . S
H1249 C1269 0.950 . S
H1250 C1271 0.950 . S
H1251 C1274 0.950 . S
H1252 C1275 0.950 . S
H1253 C1277 0.950 . S
H1254 C1278 0.950 . S
H1255 C1279 0.951 1_556 S
H1256 C1281 0.951 1_556 S
H1257 C1283 0.950 . S
H1258 C1284 0.950 . S
H1259 C1286 0.950 . S
H1260 C1289 0.950 . S
H1261 C1290 0.950 . S
H1262 C1292 0.950 . S
H1263 C1293 0.950 . S
C1264 H1246 0.951 1_556 S
C1264 C1265 1.366 . S
C1264 C1266 1.388 1_556 S
C1265 C1264 1.366 . S
C1265 C1269 1.385 . S
C1266 H1247 0.951 . S
C1266 C1264 1.388 1_554 S
C1266 C1267 1.366 1_554 S
C1267 C1266 1.366 1_556 S
C1267 C1268 1.414 . S
C1267 C1270 1.499 . S
C1268 H1248 0.950 . S
C1268 C1267 1.414 . S
C1268 C1269 1.374 . S
C1269 H1249 0.950 . S
C1269 C1265 1.385 . S
C1269 C1268 1.374 . S
C1270 C1267 1.499 . S
C1270 C1271 1.373 . S
C1270 C1272 1.389 1_556 S
C1271 H1250 0.950 . S
C1271 C1270 1.373 . S
C1271 C1287 1.377 1_545 S
C1272 C1270 1.389 1_554 S
C1272 C1273 1.524 . S
C1272 C1286 1.377 1_545 S
C1273 C1272 1.524 . S
C1273 C1274 1.397 . S
C1273 C1278 1.363 . S
C1274 H1251 0.950 . S
C1274 C1273 1.397 . S
C1274 C1275 1.334 . S
C1275 H1252 0.950 . S
C1275 C1274 1.334 . S
C1275 C1276 1.287 . S
C1276 C1275 1.287 . S
C1276 C1277 1.524 . S
C1276 H1295 0.913 . S
C1277 H1253 0.950 . S
C1277 C1276 1.524 . S
C1277 C1278 1.415 . S
C1278 H1254 0.950 . S
C1278 C1273 1.363 . S
C1278 C1277 1.415 . S
C1279 H1255 0.951 1_554 S
C1279 C1280 1.366 . S
C1279 C1281 1.388 . S
C1280 C1279 1.366 . S
C1280 C1284 1.385 . S
C1281 H1256 0.951 1_554 S
C1281 C1279 1.388 . S
C1281 C1282 1.365 . S
C1282 C1281 1.365 . S
C1282 C1283 1.414 . S
C1282 C1285 1.499 . S
C1283 H1257 0.950 . S
C1283 C1282 1.414 . S
C1283 C1284 1.374 . S
C1284 H1258 0.950 . S
C1284 C1280 1.385 . S
C1284 C1283 1.374 . S
C1285 C1282 1.499 . S
C1285 C1286 1.373 . S
C1285 C1287 1.389 1_554 S
C1286 H1259 0.950 . S
C1286 C1272 1.377 1_565 S
C1286 C1285 1.373 . S
C1287 C1271 1.377 1_565 S
C1287 C1285 1.389 1_556 S
C1287 C1288 1.524 . S
C1288 C1287 1.524 . S
C1288 C1289 1.397 . S
C1288 C1293 1.363 . S
C1289 H1260 0.950 . S
C1289 C1288 1.397 . S
C1289 C1290 1.334 . S
C1290 H1261 0.950 . S
C1290 C1289 1.334 . S
C1290 C1291 1.287 . S
C1291 C1290 1.287 . S
C1291 C1292 1.524 . S
C1291 H1294 0.999 . S
C1292 H1262 0.950 . S
C1292 C1291 1.524 . S
C1292 C1293 1.415 . S
C1293 H1263 0.950 . S
C1293 C1288 1.363 . S
C1293 C1292 1.415 . S
H1294 C1291 0.999 . S
H1295 C1276 0.913 . S
H1296 C1314 0.951 . S
H1297 C1316 0.951 . S
H1298 C1318 0.950 . S
H1299 C1319 0.950 . S
H1300 C1321 0.950 . S
H1301 C1324 0.950 . S
H1302 C1325 0.950 . S
H1303 C1327 0.950 . S
H1304 C1328 0.950 . S
H1305 C1329 0.951 1_554 S
H1306 C1331 0.951 . S
H1307 C1333 0.950 . S
H1308 C1334 0.950 . S
H1309 C1336 0.950 . S
H1310 C1339 0.950 . S
H1311 C1340 0.950 . S
H1312 C1342 0.950 . S
H1313 C1343 0.950 . S
C1314 H1296 0.951 . S
C1314 C1315 1.366 . S
C1314 C1316 1.388 . S
C1315 C1314 1.366 . S
C1315 C1319 1.385 . S
C1316 H1297 0.951 . S
C1316 C1314 1.388 . S
C1316 C1317 1.366 . S
C1317 C1316 1.366 . S
C1317 C1318 1.414 . S
C1317 C1320 1.499 . S
C1318 H1298 0.950 . S
C1318 C1317 1.414 . S
C1318 C1319 1.374 . S
C1319 H1299 0.950 . S
C1319 C1315 1.385 . S
C1319 C1318 1.374 . S
C1320 C1317 1.499 . S
C1320 C1321 1.373 . S
C1320 C1322 1.389 . S
C1321 H1300 0.950 . S
C1321 C1320 1.373 . S
C1321 C1337 1.377 . S
C1322 C1320 1.389 . S
C1322 C1323 1.524 . S
C1322 C1336 1.377 . S
C1323 C1322 1.524 . S
C1323 C1324 1.397 . S
C1323 C1328 1.363 . S
C1324 H1301 0.950 . S
C1324 C1323 1.397 . S
C1324 C1325 1.334 . S
C1325 H1302 0.950 . S
C1325 C1324 1.334 . S
C1325 C1326 1.287 . S
C1326 C1325 1.287 . S
C1326 C1327 1.524 . S
C1326 H1345 0.913 . S
C1327 H1303 0.950 . S
C1327 C1326 1.524 . S
C1327 C1328 1.415 . S
C1328 H1304 0.950 . S
C1328 C1323 1.363 . S
C1328 C1327 1.415 . S
C1329 H1305 0.951 1_556 S
C1329 C1330 1.366 1_556 S
C1329 C1331 1.388 . S
C1330 C1329 1.366 1_554 S
C1330 C1334 1.385 1_554 S
C1331 H1306 0.951 . S
C1331 C1329 1.388 . S
C1331 C1332 1.366 . S
C1332 C1331 1.366 . S
C1332 C1333 1.414 . S
C1332 C1335 1.499 . S
C1333 H1307 0.950 . S
C1333 C1332 1.414 . S
C1333 C1334 1.374 . S
C1334 H1308 0.950 . S
C1334 C1330 1.385 1_556 S
C1334 C1333 1.374 . S
C1335 C1332 1.499 . S
C1335 C1336 1.373 . S
C1335 C1337 1.389 . S
C1336 H1309 0.950 . S
C1336 C1322 1.377 . S
C1336 C1335 1.373 . S
C1337 C1321 1.377 . S
C1337 C1335 1.389 . S
C1337 C1338 1.524 . S
C1338 C1337 1.524 . S
C1338 C1339 1.397 . S
C1338 C1343 1.363 . S
C1339 H1310 0.950 . S
C1339 C1338 1.397 . S
C1339 C1340 1.334 . S
C1340 H1311 0.950 . S
C1340 C1339 1.334 . S
C1340 C1341 1.287 . S
C1341 C1340 1.287 . S
C1341 C1342 1.524 . S
C1341 H1344 0.999 . S
C1342 H1312 0.950 . S
C1342 C1341 1.524 . S
C1342 C1343 1.415 . S
C1343 H1313 0.950 . S
C1343 C1338 1.363 . S
C1343 C1342 1.415 . S
H1344 C1341 0.999 . S
H1345 C1326 0.913 . S
H1346 C1364 0.951 . S
H1347 C1366 0.951 . S
H1348 C1368 0.950 . S
H1349 C1369 0.950 . S
H1350 C1371 0.950 . S
H1351 C1374 0.950 . S
H1352 C1375 0.950 . S
H1353 C1377 0.950 . S
H1354 C1378 0.950 . S
H1355 C1379 0.951 . S
H1356 C1381 0.951 . S
H1357 C1383 0.950 . S
H1358 C1384 0.950 . S
H1359 C1386 0.950 . S
H1360 C1389 0.950 . S
H1361 C1390 0.950 . S
H1362 C1392 0.950 . S
H1363 C1393 0.950 . S
C1364 H1346 0.951 . S
C1364 C1365 1.366 . S
C1364 C1366 1.388 . S
C1365 C1364 1.366 . S
C1365 C1369 1.385 . S
C1366 H1347 0.951 . S
C1366 C1364 1.388 . S
C1366 C1367 1.366 . S
C1367 C1366 1.366 . S
C1367 C1368 1.414 . S
C1367 C1370 1.499 . S
C1368 H1348 0.950 . S
C1368 C1367 1.414 . S
C1368 C1369 1.374 . S
C1369 H1349 0.950 . S
C1369 C1365 1.385 . S
C1369 C1368 1.374 . S
C1370 C1367 1.499 . S
C1370 C1371 1.373 . S
C1370 C1372 1.389 . S
C1371 H1350 0.950 . S
C1371 C1370 1.373 . S
C1371 C1387 1.377 . S
C1372 C1370 1.389 . S
C1372 C1373 1.524 . S
C1372 C1386 1.377 . S
C1373 C1372 1.524 . S
C1373 C1374 1.397 . S
C1373 C1378 1.363 . S
C1374 H1351 0.950 . S
C1374 C1373 1.397 . S
C1374 C1375 1.334 . S
C1375 H1352 0.950 . S
C1375 C1374 1.334 . S
C1375 C1376 1.287 . S
C1376 C1375 1.287 . S
C1376 C1377 1.524 . S
C1376 H1395 0.913 . S
C1377 H1353 0.950 . S
C1377 C1376 1.524 . S
C1377 C1378 1.415 . S
C1378 H1354 0.950 . S
C1378 C1373 1.363 . S
C1378 C1377 1.415 . S
C1379 H1355 0.951 . S
C1379 C1380 1.366 . S
C1379 C1381 1.388 . S
C1380 C1379 1.366 . S
C1380 C1384 1.385 . S
C1381 H1356 0.951 . S
C1381 C1379 1.388 . S
C1381 C1382 1.366 . S
C1382 C1381 1.366 . S
C1382 C1383 1.414 . S
C1382 C1385 1.499 1_556 S
C1383 H1357 0.950 . S
C1383 C1382 1.414 . S
C1383 C1384 1.374 . S
C1384 H1358 0.950 . S
C1384 C1380 1.385 . S
C1384 C1383 1.374 . S
C1385 C1382 1.499 1_554 S
C1385 C1386 1.373 . S
C1385 C1387 1.389 . S
C1386 H1359 0.950 . S
C1386 C1372 1.377 . S
C1386 C1385 1.373 . S
C1387 C1371 1.377 . S
C1387 C1385 1.389 . S
C1387 C1388 1.524 . S
C1388 C1387 1.524 . S
C1388 C1389 1.397 1_554 S
C1388 C1393 1.363 . S
C1389 H1360 0.950 . S
C1389 C1388 1.397 1_556 S
C1389 C1390 1.334 . S
C1390 H1361 0.950 . S
C1390 C1389 1.334 . S
C1390 C1391 1.287 . S
C1391 C1390 1.287 . S
C1391 C1392 1.524 1_556 S
C1391 H1394 0.999 . S
C1392 H1362 0.950 . S
C1392 C1391 1.524 1_554 S
C1392 C1393 1.415 . S
C1393 H1363 0.950 . S
C1393 C1388 1.363 . S
C1393 C1392 1.415 . S
H1394 C1391 0.999 . S
H1395 C1376 0.913 . S
H1396 C1414 0.951 . S
H1397 C1416 0.951 . S
H1398 C1418 0.950 . S
H1399 C1419 0.950 . S
H1400 C1421 0.950 . S
H1401 C1424 0.950 . S
H1402 C1425 0.950 . S
H1403 C1427 0.950 . S
H1404 C1428 0.950 . S
H1405 C1429 0.951 . S
H1406 C1431 0.951 . S
H1407 C1433 0.950 . S
H1408 C1434 0.950 . S
H1409 C1436 0.950 . S
H1410 C1439 0.950 . S
H1411 C1440 0.950 . S
H1412 C1442 0.950 . S
H1413 C1443 0.950 . S
C1414 H1396 0.951 . S
C1414 C1415 1.366 . S
C1414 C1416 1.388 . S
C1415 C1414 1.366 . S
C1415 C1419 1.385 . S
C1416 H1397 0.951 . S
C1416 C1414 1.388 . S
C1416 C1417 1.366 . S
C1417 C1416 1.366 . S
C1417 C1418 1.414 . S
C1417 C1420 1.499 . S
C1418 H1398 0.950 . S
C1418 C1417 1.414 . S
C1418 C1419 1.374 . S
C1419 H1399 0.950 . S
C1419 C1415 1.385 . S
C1419 C1418 1.374 . S
C1420 C1417 1.499 . S
C1420 C1421 1.373 . S
C1420 C1422 1.389 . S
C1421 H1400 0.950 . S
C1421 C1420 1.373 . S
C1421 C1437 1.377 . S
C1422 C1420 1.389 . S
C1422 C1423 1.524 . S
C1422 C1436 1.377 . S
C1423 C1422 1.524 . S
C1423 C1424 1.397 . S
C1423 C1428 1.363 . S
C1424 H1401 0.950 . S
C1424 C1423 1.397 . S
C1424 C1425 1.334 . S
C1425 H1402 0.950 . S
C1425 C1424 1.334 . S
C1425 C1426 1.287 . S
C1426 C1425 1.287 . S
C1426 C1427 1.524 . S
C1426 H1445 0.913 . S
C1427 H1403 0.950 . S
C1427 C1426 1.524 . S
C1427 C1428 1.415 . S
C1428 H1404 0.950 . S
C1428 C1423 1.363 . S
C1428 C1427 1.415 . S
C1429 H1405 0.951 . S
C1429 C1430 1.366 . S
C1429 C1431 1.388 . S
C1430 C1429 1.366 . S
C1430 C1434 1.385 . S
C1431 H1406 0.951 . S
C1431 C1429 1.388 . S
C1431 C1432 1.366 . S
C1432 C1431 1.366 . S
C1432 C1433 1.414 . S
C1432 C1435 1.499 . S
C1433 H1407 0.950 . S
C1433 C1432 1.414 . S
C1433 C1434 1.374 . S
C1434 H1408 0.950 . S
C1434 C1430 1.385 . S
C1434 C1433 1.374 . S
C1435 C1432 1.499 . S
C1435 C1436 1.373 . S
C1435 C1437 1.389 . S
C1436 H1409 0.950 . S
C1436 C1422 1.377 . S
C1436 C1435 1.373 . S
C1437 C1421 1.377 . S
C1437 C1435 1.389 . S
C1437 C1438 1.524 . S
C1438 C1437 1.524 . S
C1438 C1439 1.397 . S
C1438 C1443 1.363 . S
C1439 H1410 0.950 . S
C1439 C1438 1.397 . S
C1439 C1440 1.334 . S
C1440 H1411 0.950 . S
C1440 C1439 1.334 . S
C1440 C1441 1.287 . S
C1441 C1440 1.287 . S
C1441 C1442 1.524 . S
C1441 H1444 0.999 . S
C1442 H1412 0.950 . S
C1442 C1441 1.524 . S
C1442 C1443 1.415 . S
C1443 H1413 0.950 . S
C1443 C1438 1.363 . S
C1443 C1442 1.415 . S
H1444 C1441 0.999 . S
H1445 C1426 0.913 . S
H1446 C1464 0.951 . S
H1447 C1466 0.951 . S
H1448 C1468 0.950 . S
H1449 C1469 0.950 1_554 S
H1450 C1471 0.950 . S
H1451 C1474 0.950 . S
H1452 C1475 0.950 . S
H1453 C1477 0.950 . S
H1454 C1478 0.950 . S
H1455 C1479 0.951 . S
H1456 C1481 0.951 . S
H1457 C1483 0.950 . S
H1458 C1484 0.950 . S
H1459 C1486 0.950 . S
H1460 C1489 0.950 . S
H1461 C1490 0.950 . S
H1462 C1492 0.950 . S
H1463 C1493 0.950 . S
C1464 H1446 0.951 . S
C1464 C1465 1.366 1_556 S
C1464 C1466 1.388 . S
C1465 C1464 1.366 1_554 S
C1465 C1469 1.385 1_554 S
C1466 H1447 0.951 . S
C1466 C1464 1.388 . S
C1466 C1467 1.366 . S
C1467 C1466 1.366 . S
C1467 C1468 1.414 . S
C1467 C1470 1.499 . S
C1468 H1448 0.950 . S
C1468 C1467 1.414 . S
C1468 C1469 1.374 . S
C1469 H1449 0.950 1_556 S
C1469 C1465 1.385 1_556 S
C1469 C1468 1.374 . S
C1470 C1467 1.499 . S
C1470 C1471 1.373 . S
C1470 C1472 1.389 . S
C1471 H1450 0.950 . S
C1471 C1470 1.373 . S
C1471 C1487 1.377 . S
C1472 C1470 1.389 . S
C1472 C1473 1.524 . S
C1472 C1486 1.377 . S
C1473 C1472 1.524 . S
C1473 C1474 1.397 . S
C1473 C1478 1.363 . S
C1474 H1451 0.950 . S
C1474 C1473 1.397 . S
C1474 C1475 1.334 . S
C1475 H1452 0.950 . S
C1475 C1474 1.334 . S
C1475 C1476 1.287 . S
C1476 C1475 1.287 . S
C1476 C1477 1.524 . S
C1476 H1495 0.913 . S
C1477 H1453 0.950 . S
C1477 C1476 1.524 . S
C1477 C1478 1.415 . S
C1478 H1454 0.950 . S
C1478 C1473 1.363 . S
C1478 C1477 1.415 . S
C1479 H1455 0.951 . S
C1479 C1480 1.366 . S
C1479 C1481 1.388 . S
C1480 C1479 1.366 . S
C1480 C1484 1.385 . S
C1481 H1456 0.951 . S
C1481 C1479 1.388 . S
C1481 C1482 1.366 . S
C1482 C1481 1.366 . S
C1482 C1483 1.414 . S
C1482 C1485 1.499 . S
C1483 H1457 0.950 . S
C1483 C1482 1.414 . S
C1483 C1484 1.374 . S
C1484 H1458 0.950 . S
C1484 C1480 1.385 . S
C1484 C1483 1.374 . S
C1485 C1482 1.499 . S
C1485 C1486 1.373 . S
C1485 C1487 1.389 . S
C1486 H1459 0.950 . S
C1486 C1472 1.377 . S
C1486 C1485 1.373 . S
C1487 C1471 1.377 . S
C1487 C1485 1.389 . S
C1487 C1488 1.524 . S
C1488 C1487 1.524 . S
C1488 C1489 1.397 . S
C1488 C1493 1.363 . S
C1489 H1460 0.950 . S
C1489 C1488 1.397 . S
C1489 C1490 1.334 . S
C1490 H1461 0.950 . S
C1490 C1489 1.334 . S
C1490 C1491 1.287 . S
C1491 C1490 1.287 . S
C1491 C1492 1.524 . S
C1491 H1494 0.999 . S
C1492 H1462 0.950 . S
C1492 C1491 1.524 . S
C1492 C1493 1.415 . S
C1493 H1463 0.950 . S
C1493 C1488 1.363 . S
C1493 C1492 1.415 . S
H1494 C1491 0.999 . S
H1495 C1476 0.913 . S
H1496 C1514 0.951 . S
H1497 C1516 0.951 . S
H1498 C1518 0.950 . S
H1499 C1519 0.950 . S
H1500 C1521 0.950 . S
H1501 C1524 0.950 . S
H1502 C1525 0.950 . S
H1503 C1527 0.950 . S
H1504 C1528 0.950 . S
H1505 C1529 0.951 . S
H1506 C1531 0.951 . S
H1507 C1533 0.950 . S
H1508 C1534 0.950 . S
H1509 C1536 0.950 . S
H1510 C1539 0.950 . S
H1511 C1540 0.950 . S
H1512 C1542 0.950 . S
H1513 C1543 0.950 . S
C1514 H1496 0.951 . S
C1514 C1515 1.366 . S
C1514 C1516 1.388 . S
C1515 C1514 1.366 . S
C1515 C1519 1.385 . S
C1516 H1497 0.951 . S
C1516 C1514 1.388 . S
C1516 C1517 1.366 . S
C1517 C1516 1.366 . S
C1517 C1518 1.414 . S
C1517 C1520 1.499 . S
C1518 H1498 0.950 . S
C1518 C1517 1.414 . S
C1518 C1519 1.374 . S
C1519 H1499 0.950 . S
C1519 C1515 1.385 . S
C1519 C1518 1.374 . S
C1520 C1517 1.499 . S
C1520 C1521 1.373 . S
C1520 C1522 1.389 . S
C1521 H1500 0.950 . S
C1521 C1520 1.373 . S
C1521 C1537 1.377 . S
C1522 C1520 1.389 . S
C1522 C1523 1.524 . S
C1522 C1536 1.377 . S
C1523 C1522 1.524 . S
C1523 C1524 1.397 . S
C1523 C1528 1.363 . S
C1524 H1501 0.950 . S
C1524 C1523 1.397 . S
C1524 C1525 1.334 . S
C1525 H1502 0.950 . S
C1525 C1524 1.334 . S
C1525 C1526 1.287 . S
C1526 C1525 1.287 . S
C1526 C1527 1.524 . S
C1526 H1545 0.913 . S
C1527 H1503 0.950 . S
C1527 C1526 1.524 . S
C1527 C1528 1.415 . S
C1528 H1504 0.950 . S
C1528 C1523 1.363 . S
C1528 C1527 1.415 . S
C1529 H1505 0.951 . S
C1529 C1530 1.366 . S
C1529 C1531 1.388 . S
C1530 C1529 1.366 . S
C1530 C1534 1.385 . S
C1531 H1506 0.951 . S
C1531 C1529 1.388 . S
C1531 C1532 1.366 . S
C1532 C1531 1.366 . S
C1532 C1533 1.414 . S
C1532 C1535 1.499 1_556 S
C1533 H1507 0.950 . S
C1533 C1532 1.414 . S
C1533 C1534 1.374 . S
C1534 H1508 0.950 . S
C1534 C1530 1.385 . S
C1534 C1533 1.374 . S
C1535 C1532 1.499 1_554 S
C1535 C1536 1.373 . S
C1535 C1537 1.389 . S
C1536 H1509 0.950 . S
C1536 C1522 1.377 . S
C1536 C1535 1.373 . S
C1537 C1521 1.377 . S
C1537 C1535 1.389 . S
C1537 C1538 1.524 . S
C1538 C1537 1.524 . S
C1538 C1539 1.397 1_554 S
C1538 C1543 1.363 . S
C1539 H1510 0.950 . S
C1539 C1538 1.397 1_556 S
C1539 C1540 1.334 . S
C1540 H1511 0.950 . S
C1540 C1539 1.334 . S
C1540 C1541 1.287 . S
C1541 C1540 1.287 . S
C1541 C1542 1.524 1_556 S
C1541 H1544 0.999 . S
C1542 H1512 0.950 . S
C1542 C1541 1.524 1_554 S
C1542 C1543 1.415 . S
C1543 H1513 0.950 . S
C1543 C1538 1.363 . S
C1543 C1542 1.415 . S
H1544 C1541 0.999 . S
H1545 C1526 0.913 . S
H1546 C1564 0.951 . S
H1547 C1566 0.951 . S
H1548 C1568 0.950 . S
H1549 C1569 0.950 . S
H1550 C1571 0.950 . S
H1551 C1574 0.950 . S
H1552 C1575 0.950 . S
H1553 C1577 0.950 . S
H1554 C1578 0.950 . S
H1555 C1579 0.951 . S
H1556 C1581 0.951 . S
H1557 C1583 0.950 . S
H1558 C1584 0.950 . S
H1559 C1586 0.950 . S
H1560 C1589 0.950 . S
H1561 C1590 0.950 . S
H1562 C1592 0.950 . S
H1563 C1593 0.950 . S
C1564 H1546 0.951 . S
C1564 C1565 1.366 . S
C1564 C1566 1.388 . S
C1565 C1564 1.366 . S
C1565 C1569 1.385 . S
C1566 H1547 0.951 . S
C1566 C1564 1.388 . S
C1566 C1567 1.366 . S
C1567 C1566 1.366 . S
C1567 C1568 1.414 . S
C1567 C1570 1.499 . S
C1568 H1548 0.950 . S
C1568 C1567 1.414 . S
C1568 C1569 1.374 . S
C1569 H1549 0.950 . S
C1569 C1565 1.385 . S
C1569 C1568 1.374 . S
C1570 C1567 1.499 . S
C1570 C1571 1.373 . S
C1570 C1572 1.389 . S
C1571 H1550 0.950 . S
C1571 C1570 1.373 . S
C1571 C1587 1.377 . S
C1572 C1570 1.389 . S
C1572 C1573 1.524 . S
C1572 C1586 1.377 . S
C1573 C1572 1.524 . S
C1573 C1574 1.397 . S
C1573 C1578 1.363 . S
C1574 H1551 0.950 . S
C1574 C1573 1.397 . S
C1574 C1575 1.334 . S
C1575 H1552 0.950 . S
C1575 C1574 1.334 . S
C1575 C1576 1.287 . S
C1576 C1575 1.287 . S
C1576 C1577 1.524 . S
C1576 H1595 0.913 . S
C1577 H1553 0.950 . S
C1577 C1576 1.524 . S
C1577 C1578 1.415 . S
C1578 H1554 0.950 . S
C1578 C1573 1.363 . S
C1578 C1577 1.415 . S
C1579 H1555 0.951 . S
C1579 C1580 1.366 . S
C1579 C1581 1.388 . S
C1580 C1579 1.366 . S
C1580 C1584 1.385 . S
C1581 H1556 0.951 . S
C1581 C1579 1.388 . S
C1581 C1582 1.366 . S
C1582 C1581 1.366 . S
C1582 C1583 1.414 . S
C1582 C1585 1.499 . S
C1583 H1557 0.950 . S
C1583 C1582 1.414 . S
C1583 C1584 1.374 . S
C1584 H1558 0.950 . S
C1584 C1580 1.385 . S
C1584 C1583 1.374 . S
C1585 C1582 1.499 . S
C1585 C1586 1.373 . S
C1585 C1587 1.389 . S
C1586 H1559 0.950 . S
C1586 C1572 1.377 . S
C1586 C1585 1.373 . S
C1587 C1571 1.377 . S
C1587 C1585 1.389 . S
C1587 C1588 1.524 . S
C1588 C1587 1.524 . S
C1588 C1589 1.397 . S
C1588 C1593 1.363 . S
C1589 H1560 0.950 . S
C1589 C1588 1.397 . S
C1589 C1590 1.334 . S
C1590 H1561 0.950 . S
C1590 C1589 1.334 . S
C1590 C1591 1.287 . S
C1591 C1590 1.287 . S
C1591 C1592 1.524 . S
C1591 H1594 0.999 . S
C1592 H1562 0.950 . S
C1592 C1591 1.524 . S
C1592 C1593 1.415 . S
C1593 H1563 0.950 . S
C1593 C1588 1.363 . S
C1593 C1592 1.415 . S
H1594 C1591 0.999 . S
H1595 C1576 0.913 . S
H1596 C1614 0.951 . S
H1597 C1616 0.951 . S
H1598 C1618 0.950 . S
H1599 C1619 0.950 . S
H1600 C1621 0.950 . S
H1601 C1624 0.954 . S
H1602 C1625 0.950 . S
H1603 C1627 0.950 . S
H1604 C1628 0.950 . S
H1605 C1629 0.951 . S
H1606 C1631 0.951 . S
H1607 C1633 0.950 . S
H1608 C1634 0.950 . S
H1609 C1636 0.950 . S
H1610 C1639 0.950 . S
H1611 C1640 0.950 . S
H1612 C1642 0.950 . S
H1613 C1643 0.950 . S
C1614 H1596 0.951 . S
C1614 C1615 1.366 . S
C1614 C1616 1.388 . S
C1615 C1614 1.366 . S
C1615 C1619 1.385 . S
C1616 H1597 0.951 . S
C1616 C1614 1.388 . S
C1616 C1617 1.366 . S
C1617 C1616 1.366 . S
C1617 C1618 1.414 . S
C1617 C1620 1.499 1_554 S
C1618 H1598 0.950 . S
C1618 C1617 1.414 . S
C1618 C1619 1.374 . S
C1619 H1599 0.950 . S
C1619 C1615 1.385 . S
C1619 C1618 1.374 . S
C1620 C1617 1.499 1_556 S
C1620 C1621 1.373 . S
C1620 C1622 1.389 . S
C1621 H1600 0.950 . S
C1621 C1620 1.373 . S
C1621 C1637 1.377 . S
C1622 C1620 1.389 . S
C1622 C1623 1.524 . S
C1622 C1636 1.377 . S
C1623 C1622 1.524 . S
C1623 C1624 1.386 1_556 S
C1623 C1628 1.363 . S
C1624 H1601 0.954 . S
C1624 C1623 1.386 1_554 S
C1624 C1625 1.341 . S
C1625 H1602 0.950 . S
C1625 C1624 1.341 . S
C1625 C1626 1.287 . S
C1626 C1625 1.287 . S
C1626 C1627 1.524 1_554 S
C1626 H1645 0.913 . S
C1627 H1603 0.950 . S
C1627 C1626 1.524 1_556 S
C1627 C1628 1.415 . S
C1628 H1604 0.950 . S
C1628 C1623 1.363 . S
C1628 C1627 1.415 . S
C1629 H1605 0.951 . S
C1629 C1630 1.366 . S
C1629 C1631 1.388 . S
C1630 C1629 1.366 . S
C1630 C1634 1.385 . S
C1631 H1606 0.951 . S
C1631 C1629 1.388 . S
C1631 C1632 1.366 . S
C1632 C1631 1.366 . S
C1632 C1633 1.414 . S
C1632 C1635 1.499 . S
C1633 H1607 0.950 . S
C1633 C1632 1.414 . S
C1633 C1634 1.374 . S
C1634 H1608 0.950 . S
C1634 C1630 1.385 . S
C1634 C1633 1.374 . S
C1635 C1632 1.499 . S
C1635 C1636 1.373 . S
C1635 C1637 1.389 . S
C1636 H1609 0.950 . S
C1636 C1622 1.377 . S
C1636 C1635 1.373 . S
C1637 C1621 1.377 . S
C1637 C1635 1.389 . S
C1637 C1638 1.524 . S
C1638 C1637 1.524 . S
C1638 C1639 1.397 . S
C1638 C1643 1.363 . S
C1639 H1610 0.950 . S
C1639 C1638 1.397 . S
C1639 C1640 1.334 . S
C1640 H1611 0.950 . S
C1640 C1639 1.334 . S
C1640 C1641 1.287 . S
C1641 C1640 1.287 . S
C1641 C1642 1.524 . S
C1641 H1644 0.999 . S
C1642 H1612 0.950 . S
C1642 C1641 1.524 . S
C1642 C1643 1.415 . S
C1643 H1613 0.950 . S
C1643 C1638 1.363 . S
C1643 C1642 1.415 . S
H1644 C1641 0.999 . S
H1645 C1626 0.913 . S
H1646 C1664 0.951 1_556 S
H1647 C1666 0.951 . S
H1648 C1668 0.950 . S
H1649 C1669 0.950 . S
H1650 C1671 0.950 . S
H1651 C1674 0.950 . S
H1652 C1675 0.950 . S
H1653 C1677 0.950 . S
H1654 C1678 0.950 . S
H1655 C1679 0.951 . S
H1656 C1681 0.951 . S
H1657 C1683 0.950 . S
H1658 C1684 0.950 . S
H1659 C1686 0.950 . S
H1660 C1689 0.950 . S
H1661 C1690 0.950 . S
H1662 C1692 0.950 . S
H1663 C1693 0.950 . S
C1664 H1646 0.951 1_554 S
C1664 C1665 1.366 1_554 S
C1664 C1666 1.388 . S
C1665 C1664 1.366 1_556 S
C1665 C1669 1.385 1_556 S
C1666 H1647 0.951 . S
C1666 C1664 1.388 . S
C1666 C1667 1.366 . S
C1667 C1666 1.366 . S
C1667 C1668 1.414 . S
C1667 C1670 1.499 . S
C1668 H1648 0.950 . S
C1668 C1667 1.414 . S
C1668 C1669 1.374 . S
C1669 H1649 0.950 . S
C1669 C1665 1.385 1_554 S
C1669 C1668 1.374 . S
C1670 C1667 1.499 . S
C1670 C1671 1.373 . S
C1670 C1672 1.389 . S
C1671 H1650 0.950 . S
C1671 C1670 1.373 . S
C1671 C1687 1.377 . S
C1672 C1670 1.389 . S
C1672 C1673 1.524 . S
C1672 C1686 1.377 . S
C1673 C1672 1.524 . S
C1673 C1674 1.397 . S
C1673 C1678 1.363 . S
C1674 H1651 0.950 . S
C1674 C1673 1.397 . S
C1674 C1675 1.334 . S
C1675 H1652 0.950 . S
C1675 C1674 1.334 . S
C1675 C1676 1.287 . S
C1676 C1675 1.287 . S
C1676 C1677 1.524 . S
C1676 H1695 0.913 . S
C1677 H1653 0.950 . S
C1677 C1676 1.524 . S
C1677 C1678 1.415 . S
C1678 H1654 0.950 . S
C1678 C1673 1.363 . S
C1678 C1677 1.415 . S
C1679 H1655 0.951 . S
C1679 C1680 1.366 . S
C1679 C1681 1.388 . S
C1680 C1679 1.366 . S
C1680 C1684 1.385 . S
C1681 H1656 0.951 . S
C1681 C1679 1.388 . S
C1681 C1682 1.366 . S
C1682 C1681 1.366 . S
C1682 C1683 1.414 . S
C1682 C1685 1.499 . S
C1683 H1657 0.950 . S
C1683 C1682 1.414 . S
C1683 C1684 1.374 . S
C1684 H1658 0.950 . S
C1684 C1680 1.385 . S
C1684 C1683 1.374 . S
C1685 C1682 1.499 . S
C1685 C1686 1.373 . S
C1685 C1687 1.389 . S
C1686 H1659 0.950 . S
C1686 C1672 1.377 . S
C1686 C1685 1.373 . S
C1687 C1671 1.377 . S
C1687 C1685 1.389 . S
C1687 C1688 1.524 . S
C1688 C1687 1.524 . S
C1688 C1689 1.397 . S
C1688 C1693 1.363 . S
C1689 H1660 0.950 . S
C1689 C1688 1.397 . S
C1689 C1690 1.334 . S
C1690 H1661 0.950 . S
C1690 C1689 1.334 . S
C1690 C1691 1.287 . S
C1691 C1690 1.287 . S
C1691 C1692 1.524 . S
C1691 H1694 0.999 . S
C1692 H1662 0.950 . S
C1692 C1691 1.524 . S
C1692 C1693 1.415 . S
C1693 H1663 0.950 . S
C1693 C1688 1.363 . S
C1693 C1692 1.415 . S
H1694 C1691 0.999 . S
H1695 C1676 0.913 . S
H1696 C1714 0.951 . S
H1697 C1716 0.951 . S
H1698 C1718 0.950 . S
H1699 C1719 0.950 . S
H1700 C1721 0.950 . S
H1701 C1724 0.950 . S
H1702 C1725 0.950 . S
H1703 C1727 0.950 . S
H1704 C1728 0.950 . S
H1705 C1729 0.951 . S
H1706 C1731 0.951 . S
H1707 C1733 0.950 . S
H1708 C1734 0.950 . S
H1709 C1736 0.950 . S
H1710 C1739 0.950 . S
H1711 C1740 0.950 . S
H1712 C1742 0.950 . S
H1713 C1743 0.950 . S
C1714 H1696 0.951 . S
C1714 C1715 1.366 . S
C1714 C1716 1.388 . S
C1715 C1714 1.366 . S
C1715 C1719 1.385 . S
C1716 H1697 0.951 . S
C1716 C1714 1.388 . S
C1716 C1717 1.366 . S
C1717 C1716 1.366 . S
C1717 C1718 1.414 . S
C1717 C1720 1.499 . S
C1718 H1698 0.950 . S
C1718 C1717 1.414 . S
C1718 C1719 1.374 . S
C1719 H1699 0.950 . S
C1719 C1715 1.385 . S
C1719 C1718 1.374 . S
C1720 C1717 1.499 . S
C1720 C1721 1.373 . S
C1720 C1722 1.389 . S
C1721 H1700 0.950 . S
C1721 C1720 1.373 . S
C1721 C1737 1.377 . S
C1722 C1720 1.389 . S
C1722 C1723 1.524 . S
C1722 C1736 1.377 . S
C1723 C1722 1.524 . S
C1723 C1724 1.397 . S
C1723 C1728 1.363 . S
C1724 H1701 0.950 . S
C1724 C1723 1.397 . S
C1724 C1725 1.334 . S
C1725 H1702 0.950 . S
C1725 C1724 1.334 . S
C1725 C1726 1.287 . S
C1726 C1725 1.287 . S
C1726 C1727 1.524 . S
C1726 H1745 0.913 . S
C1727 H1703 0.950 . S
C1727 C1726 1.524 . S
C1727 C1728 1.415 . S
C1728 H1704 0.950 . S
C1728 C1723 1.363 . S
C1728 C1727 1.415 . S
C1729 H1705 0.951 . S
C1729 C1730 1.366 . S
C1729 C1731 1.388 . S
C1730 C1729 1.366 . S
C1730 C1734 1.385 . S
C1731 H1706 0.951 . S
C1731 C1729 1.388 . S
C1731 C1732 1.366 . S
C1732 C1731 1.366 . S
C1732 C1733 1.414 . S
C1732 C1735 1.499 . S
C1733 H1707 0.950 . S
C1733 C1732 1.414 . S
C1733 C1734 1.374 . S
C1734 H1708 0.950 . S
C1734 C1730 1.385 . S
C1734 C1733 1.374 . S
C1735 C1732 1.499 . S
C1735 C1736 1.373 . S
C1735 C1737 1.389 . S
C1736 H1709 0.950 . S
C1736 C1722 1.377 . S
C1736 C1735 1.373 . S
C1737 C1721 1.377 . S
C1737 C1735 1.389 . S
C1737 C1738 1.524 . S
C1738 C1737 1.524 . S
C1738 C1739 1.397 . S
C1738 C1743 1.363 . S
C1739 H1710 0.950 . S
C1739 C1738 1.397 . S
C1739 C1740 1.334 . S
C1740 H1711 0.950 . S
C1740 C1739 1.334 . S
C1740 C1741 1.287 . S
C1741 C1740 1.287 . S
C1741 C1742 1.524 . S
C1741 H1744 0.999 . S
C1742 H1712 0.950 . S
C1742 C1741 1.524 . S
C1742 C1743 1.415 . S
C1743 H1713 0.950 . S
C1743 C1738 1.363 . S
C1743 C1742 1.415 . S
H1744 C1741 0.999 . S
H1745 C1726 0.913 . S
H1746 C1764 0.951 . S
H1747 C1766 0.951 . S
H1748 C1768 0.950 . S
H1749 C1769 0.950 . S
H1750 C1771 0.950 . S
H1751 C1774 0.950 . S
H1752 C1775 0.950 . S
H1753 C1777 0.950 . S
H1754 C1778 0.950 . S
H1755 C1779 0.951 . S
H1756 C1781 0.951 . S
H1757 C1783 0.950 . S
H1758 C1784 0.950 . S
H1759 C1786 0.950 . S
H1760 C1789 0.950 . S
H1761 C1790 0.950 . S
H1762 C1792 0.950 . S
H1763 C1793 0.950 . S
C1764 H1746 0.951 . S
C1764 C1765 1.366 . S
C1764 C1766 1.388 . S
C1765 C1764 1.366 . S
C1765 C1769 1.385 . S
C1766 H1747 0.951 . S
C1766 C1764 1.388 . S
C1766 C1767 1.366 . S
C1767 C1766 1.366 . S
C1767 C1768 1.414 . S
C1767 C1770 1.499 . S
C1768 H1748 0.950 . S
C1768 C1767 1.414 . S
C1768 C1769 1.374 . S
C1769 H1749 0.950 . S
C1769 C1765 1.385 . S
C1769 C1768 1.374 . S
C1770 C1767 1.499 . S
C1770 C1771 1.373 . S
C1770 C1772 1.389 . S
C1771 H1750 0.950 . S
C1771 C1770 1.373 . S
C1771 C1787 1.377 . S
C1772 C1770 1.389 . S
C1772 C1773 1.524 . S
C1772 C1786 1.377 . S
C1773 C1772 1.524 . S
C1773 C1774 1.397 . S
C1773 C1778 1.363 . S
C1774 H1751 0.950 . S
C1774 C1773 1.397 . S
C1774 C1775 1.334 . S
C1775 H1752 0.950 . S
C1775 C1774 1.334 . S
C1775 C1776 1.287 . S
C1776 C1775 1.287 . S
C1776 C1777 1.524 . S
C1776 H1795 0.913 . S
C1777 H1753 0.950 . S
C1777 C1776 1.524 . S
C1777 C1778 1.415 . S
C1778 H1754 0.950 . S
C1778 C1773 1.363 . S
C1778 C1777 1.415 . S
C1779 H1755 0.951 . S
C1779 C1780 1.366 . S
C1779 C1781 1.388 . S
C1780 C1779 1.366 . S
C1780 C1784 1.385 . S
C1781 H1756 0.951 . S
C1781 C1779 1.388 . S
C1781 C1782 1.366 . S
C1782 C1781 1.366 . S
C1782 C1783 1.414 . S
C1782 C1785 1.499 1_554 S
C1783 H1757 0.950 . S
C1783 C1782 1.414 . S
C1783 C1784 1.374 . S
C1784 H1758 0.950 . S
C1784 C1780 1.385 . S
C1784 C1783 1.374 . S
C1785 C1782 1.499 1_556 S
C1785 C1786 1.373 . S
C1785 C1787 1.389 . S
C1786 H1759 0.950 . S
C1786 C1772 1.377 . S
C1786 C1785 1.373 . S
C1787 C1771 1.377 . S
C1787 C1785 1.389 . S
C1787 C1788 1.524 . S
C1788 C1787 1.524 . S
C1788 C1789 1.397 1_556 S
C1788 C1793 1.363 . S
C1789 H1760 0.950 . S
C1789 C1788 1.397 1_554 S
C1789 C1790 1.334 . S
C1790 H1761 0.950 . S
C1790 C1789 1.334 . S
C1790 C1791 1.287 . S
C1791 C1790 1.287 . S
C1791 C1792 1.524 1_554 S
C1791 H1794 0.999 . S
C1792 H1762 0.950 . S
C1792 C1791 1.524 1_556 S
C1792 C1793 1.415 . S
C1793 H1763 0.950 . S
C1793 C1788 1.363 . S
C1793 C1792 1.415 . S
H1794 C1791 0.999 . S
H1795 C1776 0.913 . S
H1796 C1814 0.951 . S
H1797 C1816 0.951 . S
H1798 C1818 0.950 . S
H1799 C1819 0.950 . S
H1800 C1821 0.950 . S
H1801 C1824 0.950 . S
H1802 C1825 0.950 . S
H1803 C1827 0.950 . S
H1804 C1828 0.950 . S
H1805 C1829 0.951 1_556 S
H1806 C1831 0.951 . S
H1807 C1833 0.950 . S
H1808 C1834 0.950 . S
H1809 C1836 0.950 . S
H1810 C1839 0.950 . S
H1811 C1840 0.950 . S
H1812 C1842 0.950 . S
H1813 C1843 0.950 . S
C1814 H1796 0.951 . S
C1814 C1815 1.366 . S
C1814 C1816 1.388 . S
C1815 C1814 1.366 . S
C1815 C1819 1.385 . S
C1816 H1797 0.951 . S
C1816 C1814 1.388 . S
C1816 C1817 1.366 . S
C1817 C1816 1.366 . S
C1817 C1818 1.414 . S
C1817 C1820 1.499 . S
C1818 H1798 0.950 . S
C1818 C1817 1.414 . S
C1818 C1819 1.374 . S
C1819 H1799 0.950 . S
C1819 C1815 1.385 . S
C1819 C1818 1.374 . S
C1820 C1817 1.499 . S
C1820 C1821 1.373 . S
C1820 C1822 1.389 . S
C1821 H1800 0.950 . S
C1821 C1820 1.373 . S
C1821 C1837 1.377 . S
C1822 C1820 1.389 . S
C1822 C1823 1.524 . S
C1822 C1836 1.377 . S
C1823 C1822 1.524 . S
C1823 C1824 1.397 . S
C1823 C1828 1.363 . S
C1824 H1801 0.950 . S
C1824 C1823 1.397 . S
C1824 C1825 1.334 . S
C1825 H1802 0.950 . S
C1825 C1824 1.334 . S
C1825 C1826 1.287 . S
C1826 C1825 1.287 . S
C1826 C1827 1.524 . S
C1826 H1845 0.913 . S
C1827 H1803 0.950 . S
C1827 C1826 1.524 . S
C1827 C1828 1.415 . S
C1828 H1804 0.950 . S
C1828 C1823 1.363 . S
C1828 C1827 1.415 . S
C1829 H1805 0.951 1_554 S
C1829 C1830 1.366 1_554 S
C1829 C1831 1.388 . S
C1830 C1829 1.366 1_556 S
C1830 C1834 1.385 1_556 S
C1831 H1806 0.951 . S
C1831 C1829 1.388 . S
C1831 C1832 1.366 . S
C1832 C1831 1.366 . S
C1832 C1833 1.414 . S
C1832 C1835 1.499 . S
C1833 H1807 0.950 . S
C1833 C1832 1.414 . S
C1833 C1834 1.374 . S
C1834 H1808 0.950 . S
C1834 C1830 1.385 1_554 S
C1834 C1833 1.374 . S
C1835 C1832 1.499 . S
C1835 C1836 1.373 . S
C1835 C1837 1.389 . S
C1836 H1809 0.950 . S
C1836 C1822 1.377 . S
C1836 C1835 1.373 . S
C1837 C1821 1.377 . S
C1837 C1835 1.389 . S
C1837 C1838 1.524 . S
C1838 C1837 1.524 . S
C1838 C1839 1.397 . S
C1838 C1843 1.363 . S
C1839 H1810 0.950 . S
C1839 C1838 1.397 . S
C1839 C1840 1.334 . S
C1840 H1811 0.950 . S
C1840 C1839 1.334 . S
C1840 C1841 1.287 . S
C1841 C1840 1.287 . S
C1841 C1842 1.524 . S
C1841 H1844 0.999 . S
C1842 H1812 0.950 . S
C1842 C1841 1.524 . S
C1842 C1843 1.415 . S
C1843 H1813 0.950 . S
C1843 C1838 1.363 . S
C1843 C1842 1.415 . S
H1844 C1841 0.999 . S
H1845 C1826 0.913 . S
H1846 C1864 0.951 . S
H1847 C1866 0.951 . S
H1848 C1868 0.950 . S
H1849 C1869 0.950 . S
H1850 C1871 0.950 . S
H1851 C1874 0.950 . S
H1852 C1875 0.950 . S
H1853 C1877 0.950 . S
H1854 C1878 0.950 . S
H1855 C1879 0.951 . S
H1856 C1881 0.951 . S
H1857 C1883 0.950 . S
H1858 C1884 0.950 . S
H1859 C1886 0.950 . S
H1860 C1889 0.950 . S
H1861 C1890 0.950 . S
H1862 C1892 0.950 . S
H1863 C1893 0.950 . S
C1864 H1846 0.951 . S
C1864 C1865 1.366 . S
C1864 C1866 1.388 . S
C1865 C1864 1.366 . S
C1865 C1869 1.385 . S
C1866 H1847 0.951 . S
C1866 C1864 1.388 . S
C1866 C1867 1.366 . S
C1867 C1866 1.366 . S
C1867 C1868 1.414 . S
C1867 C1870 1.499 . S
C1868 H1848 0.950 . S
C1868 C1867 1.414 . S
C1868 C1869 1.374 . S
C1869 H1849 0.950 . S
C1869 C1865 1.385 . S
C1869 C1868 1.374 . S
C1870 C1867 1.499 . S
C1870 C1871 1.373 . S
C1870 C1872 1.389 . S
C1871 H1850 0.950 . S
C1871 C1870 1.373 . S
C1871 C1887 1.377 . S
C1872 C1870 1.389 . S
C1872 C1873 1.524 . S
C1872 C1886 1.377 . S
C1873 C1872 1.524 . S
C1873 C1874 1.397 . S
C1873 C1878 1.363 . S
C1874 H1851 0.950 . S
C1874 C1873 1.397 . S
C1874 C1875 1.334 . S
C1875 H1852 0.950 . S
C1875 C1874 1.334 . S
C1875 C1876 1.287 . S
C1876 C1875 1.287 . S
C1876 C1877 1.524 . S
C1876 H1895 0.913 . S
C1877 H1853 0.950 . S
C1877 C1876 1.524 . S
C1877 C1878 1.415 . S
C1878 H1854 0.950 . S
C1878 C1873 1.363 . S
C1878 C1877 1.415 . S
C1879 H1855 0.951 . S
C1879 C1880 1.366 . S
C1879 C1881 1.388 . S
C1880 C1879 1.366 . S
C1880 C1884 1.385 . S
C1881 H1856 0.951 . S
C1881 C1879 1.388 . S
C1881 C1882 1.366 . S
C1882 C1881 1.366 . S
C1882 C1883 1.414 . S
C1882 C1885 1.499 . S
C1883 H1857 0.950 . S
C1883 C1882 1.414 . S
C1883 C1884 1.374 . S
C1884 H1858 0.950 . S
C1884 C1880 1.385 . S
C1884 C1883 1.374 . S
C1885 C1882 1.499 . S
C1885 C1886 1.373 . S
C1885 C1887 1.389 . S
C1886 H1859 0.950 . S
C1886 C1872 1.377 . S
C1886 C1885 1.373 . S
C1887 C1871 1.377 . S
C1887 C1885 1.389 . S
C1887 C1888 1.524 . S
C1888 C1887 1.524 . S
C1888 C1889 1.397 . S
C1888 C1893 1.363 . S
C1889 H1860 0.950 . S
C1889 C1888 1.397 . S
C1889 C1890 1.334 . S
C1890 H1861 0.950 . S
C1890 C1889 1.334 . S
C1890 C1891 1.287 . S
C1891 C1890 1.287 . S
C1891 C1892 1.524 . S
C1891 H1894 0.999 . S
C1892 H1862 0.950 . S
C1892 C1891 1.524 . S
C1892 C1893 1.415 . S
C1893 H1863 0.950 . S
C1893 C1888 1.363 . S
C1893 C1892 1.415 . S
H1894 C1891 0.999 . S
H1895 C1876 0.913 . S
C415 C8 1.128 . S
C430 C338 1.129 . S
C465 C371 1.128 . S
C480 C41 1.128 . S
C515 C206 1.128 . S
C530 C74 1.129 . S
C565 C239 1.129 . S
C580 C107 1.130 . S
C615 C140 1.129 . S
C630 C272 1.128 . S
C665 C305 1.128 . S
C680 C173 1.128 . S
C715 C215 1.635 . S
C730 C17 1.635 . S
C765 C248 1.635 . S
C780 C50 1.635 . S
C815 C83 1.635 . S
C830 C281 1.635 . S
C865 C116 1.635 . S
C880 C314 1.635 . S
C915 C347 1.635 . S
C930 C149 1.635 . S
C965 C380 1.635 . S
C980 C182 1.635 . S
C1015 C28 1.297 . S
C1030 C325 1.297 . S
C1065 C358 1.296 . S
C1080 C61 1.296 . S
C1115 C391 1.296 . S
C1130 C94 1.296 . S
C1165 C226 1.295 . S
C1180 C127 1.296 . S
C1215 C160 1.297 . S
C1230 C259 1.296 . S
C1265 C193 1.296 . S
C1280 C292 1.296 . S
C1315 N5 0.945 . S
C1330 N14 0.945 . S
C1365 N47 0.945 . S
C1380 N38 0.946 . S
C1415 N71 0.946 . S
C1430 N80 0.945 . S
C1465 N113 0.945 . S
C1480 N104 0.945 . S
C1515 N146 0.945 . S
C1530 N137 0.946 . S
C1565 N179 0.944 . S
C1580 N170 0.945 . S
C1615 N203 0.946 . S
C1630 N212 0.945 . S
C1665 N245 0.945 . S
C1680 N236 0.946 . S
C1715 N278 0.945 . S
C1730 N269 0.946 . S
C1765 N311 0.945 . S
C1780 N302 0.945 . S
C1815 N335 0.946 . S
C1830 N344 0.945 . S
C1865 N377 0.945 . S
C1880 N368 0.946 . S
