# Generated by pormake.
# Topology uob, (4)-cn, num edge types: 1
# Building blocks:
#     Node 0, Type 0, BuildingBlock: MUDLON_clean_sbu_0, # of connection points: 4
#     Node 1, Type 0, BuildingBlock: MUDLON_clean_sbu_0, # of connection points: 4
#     Node 2, Type 0, BuildingBlock: MUDLON_clean_sbu_0, # of connection points: 4
#     Node 3, Type 0, BuildingBlock: MUDLON_clean_sbu_0, # of connection points: 4
#     Node 4, Type 0, BuildingBlock: MUDLON_clean_sbu_0, # of connection points: 4
#     Node 5, Type 0, BuildingBlock: MUDLON_clean_sbu_0, # of connection points: 4
#     Node 6, Type 0, BuildingBlock: MUDLON_clean_sbu_0, # of connection points: 4
#     Node 7, Type 0, BuildingBlock: MUDLON_clean_sbu_0, # of connection points: 4
#     Node 8, Type 0, BuildingBlock: MUDLON_clean_sbu_0, # of connection points: 4
#     Node 9, Type 0, BuildingBlock: MUDLON_clean_sbu_0, # of connection points: 4
#     Node 10, Type 0, BuildingBlock: MUDLON_clean_sbu_0, # of connection points: 4
#     Node 11, Type 0, BuildingBlock: MUDLON_clean_sbu_0, # of connection points: 4
#     Node 12, Type 0, BuildingBlock: MUDLON_clean_sbu_0, # of connection points: 4
#     Node 13, Type 0, BuildingBlock: MUDLON_clean_sbu_0, # of connection points: 4
#     Node 14, Type 0, BuildingBlock: MUDLON_clean_sbu_0, # of connection points: 4
#     Node 15, Type 0, BuildingBlock: MUDLON_clean_sbu_0, # of connection points: 4
#     Edge 16, Type (0, 0), BuildingBlock: ZUJKAS_clean_linker_0, # of connection points: 2
#     Edge 17, Type (0, 0), BuildingBlock: ZUJKAS_clean_linker_0, # of connection points: 2
#     Edge 18, Type (0, 0), BuildingBlock: ZUJKAS_clean_linker_0, # of connection points: 2
#     Edge 19, Type (0, 0), BuildingBlock: ZUJKAS_clean_linker_0, # of connection points: 2
#     Edge 20, Type (0, 0), BuildingBlock: ZUJKAS_clean_linker_0, # of connection points: 2
#     Edge 21, Type (0, 0), BuildingBlock: ZUJKAS_clean_linker_0, # of connection points: 2
#     Edge 22, Type (0, 0), BuildingBlock: ZUJKAS_clean_linker_0, # of connection points: 2
#     Edge 23, Type (0, 0), BuildingBlock: ZUJKAS_clean_linker_0, # of connection points: 2
#     Edge 24, Type (0, 0), BuildingBlock: ZUJKAS_clean_linker_0, # of connection points: 2
#     Edge 25, Type (0, 0), BuildingBlock: ZUJKAS_clean_linker_0, # of connection points: 2
#     Edge 26, Type (0, 0), BuildingBlock: ZUJKAS_clean_linker_0, # of connection points: 2
#     Edge 27, Type (0, 0), BuildingBlock: ZUJKAS_clean_linker_0, # of connection points: 2
#     Edge 28, Type (0, 0), BuildingBlock: ZUJKAS_clean_linker_0, # of connection points: 2
#     Edge 29, Type (0, 0), BuildingBlock: ZUJKAS_clean_linker_0, # of connection points: 2
#     Edge 30, Type (0, 0), BuildingBlock: ZUJKAS_clean_linker_0, # of connection points: 2
#     Edge 31, Type (0, 0), BuildingBlock: ZUJKAS_clean_linker_0, # of connection points: 2
#     Edge 32, Type (0, 0), BuildingBlock: ZUJKAS_clean_linker_0, # of connection points: 2
#     Edge 33, Type (0, 0), BuildingBlock: ZUJKAS_clean_linker_0, # of connection points: 2
#     Edge 34, Type (0, 0), BuildingBlock: ZUJKAS_clean_linker_0, # of connection points: 2
#     Edge 35, Type (0, 0), BuildingBlock: ZUJKAS_clean_linker_0, # of connection points: 2
#     Edge 36, Type (0, 0), BuildingBlock: ZUJKAS_clean_linker_0, # of connection points: 2
#     Edge 37, Type (0, 0), BuildingBlock: ZUJKAS_clean_linker_0, # of connection points: 2
#     Edge 38, Type (0, 0), BuildingBlock: ZUJKAS_clean_linker_0, # of connection points: 2
#     Edge 39, Type (0, 0), BuildingBlock: ZUJKAS_clean_linker_0, # of connection points: 2
#     Edge 40, Type (0, 0), BuildingBlock: ZUJKAS_clean_linker_0, # of connection points: 2
#     Edge 41, Type (0, 0), BuildingBlock: ZUJKAS_clean_linker_0, # of connection points: 2
#     Edge 42, Type (0, 0), BuildingBlock: ZUJKAS_clean_linker_0, # of connection points: 2
#     Edge 43, Type (0, 0), BuildingBlock: ZUJKAS_clean_linker_0, # of connection points: 2
#     Edge 44, Type (0, 0), BuildingBlock: ZUJKAS_clean_linker_0, # of connection points: 2
#     Edge 45, Type (0, 0), BuildingBlock: ZUJKAS_clean_linker_0, # of connection points: 2
#     Edge 46, Type (0, 0), BuildingBlock: ZUJKAS_clean_linker_0, # of connection points: 2
#     Edge 47, Type (0, 0), BuildingBlock: ZUJKAS_clean_linker_0, # of connection points: 2
# Relax obj value: 0.173
# Max RMSD: 0.257
# Mean RMSD: 0.257
data_MOF--net-uob--node1-MUDLON_clean_sbu_0--edge1-ZUJKAS_clean_linker_0
_symmetry_space_group_name_H-M    P1
_symmetry_Int_Tables_number       1
_symmetry_cell_setting            triclinic
loop_
_symmetry_equiv_pos_as_xyz
'x, y, z'
_cell_length_a     70.815178
_cell_length_b     70.913194
_cell_length_c     37.276826
_cell_angle_alpha  90.075363
_cell_angle_beta   89.998365
_cell_angle_gamma 90.049993
loop_
_atom_site_label
_atom_site_type_symbol
_atom_site_fract_x
_atom_site_fract_y
_atom_site_fract_z
_atom_type_partial_charge
Mg0 Mg 0.13849 0.06746 0.29992 0.0
C1 C 0.12324 0.07685 0.37174 0.0
O2 O 0.11747 0.0594 0.36723 0.0
C3 C 0.14369 0.07735 0.22145 0.0
O4 O 0.15174 0.06066 0.22162 0.0
C5 C 0.16858 0.04477 0.33833 0.0
O6 O 0.15352 0.0385 0.35512 0.0
O7 O 0.16641 0.05582 0.31174 0.0
O8 O 0.13249 0.08479 0.34671 0.0
O9 O 0.1147 0.04787 0.2958 0.0
C10 C 0.09912 0.05654 0.29139 0.0
O11 O 0.09956 0.075 0.2884 0.0
O12 O 0.13773 0.0842 0.2509 0.0
Mg13 Mg 0.94666 0.63475 0.54976 0.0
C14 C 0.92031 0.63895 0.61365 0.0
O15 O 0.92067 0.65674 0.60394 0.0
C16 C 0.93854 0.64246 0.47137 0.0
O17 O 0.95543 0.65005 0.4737 0.0
C18 C 0.9511 0.67704 0.55843 0.0
O19 O 0.93624 0.67661 0.53732 0.0
O20 O 0.95932 0.66159 0.56598 0.0
O21 O 0.92872 0.62677 0.59437 0.0
O22 O 0.96666 0.61153 0.54466 0.0
C23 C 0.97141 0.60217 0.57233 0.0
O24 O 0.96563 0.60794 0.60398 0.0
O25 O 0.93094 0.63578 0.49955 0.0
Mg26 Mg 0.37944 0.44972 0.80983 0.0
C27 C 0.39275 0.44092 0.88323 0.0
O28 O 0.39832 0.45844 0.879 0.0
C29 C 0.37315 0.43934 0.73196 0.0
O30 O 0.36426 0.45559 0.73292 0.0
C31 C 0.34921 0.4732 0.8467 0.0
O32 O 0.36414 0.47948 0.8639 0.0
O33 O 0.35157 0.46193 0.82044 0.0
O34 O 0.38454 0.43263 0.85727 0.0
O35 O 0.40368 0.46877 0.80595 0.0
C36 C 0.41924 0.45977 0.8051 0.0
O37 O 0.41865 0.44124 0.80566 0.0
O38 O 0.38014 0.43284 0.76085 0.0
Mg39 Mg 0.56993 0.88182 0.05127 0.0
C40 C 0.59733 0.87525 0.1124 0.0
O41 O 0.59567 0.85772 0.1014 0.0
C42 C 0.5769 0.87628 0.97147 0.0
O43 O 0.55981 0.86912 0.97347 0.0
C44 C 0.55041 0.85264 0.09612 0.0
O45 O 0.54767 0.86793 0.11537 0.0
O46 O 0.55829 0.85426 0.06557 0.0
O47 O 0.58917 0.88827 0.09485 0.0
O48 O 0.54945 0.90491 0.04949 0.0
C49 C 0.54884 0.91672 0.07524 0.0
O50 O 0.55925 0.91366 0.10381 0.0
O51 O 0.58488 0.88197 1.0001 0.0
Mg52 Mg 0.13623 0.44576 0.04878 0.0
C53 C 0.13484 0.43738 0.97176 0.0
O54 O 0.14139 0.45469 0.97327 0.0
C55 C 0.13947 0.43557 0.12728 0.0
O56 O 0.14865 0.45168 0.12724 0.0
C57 C 0.16972 0.4717 0.02697 0.0
O58 O 0.15644 0.48416 0.02038 0.0
O59 O 0.16519 0.45598 0.04103 0.0
O60 O 0.13087 0.42899 1.00094 0.0
O61 O 0.1133 0.46634 0.05012 0.0
C62 C 0.09719 0.45836 0.04844 0.0
O63 O 0.09662 0.43987 0.04605 0.0
O64 O 0.13329 0.42909 0.09767 0.0
Mg65 Mg 0.56956 0.6363 0.29919 0.0
C66 C 0.57655 0.62947 0.22351 0.0
O67 O 0.55814 0.63134 0.22617 0.0
C68 C 0.57848 0.64068 0.37774 0.0
O69 O 0.5612 0.64739 0.37692 0.0
C70 C 0.57024 0.67611 0.27761 0.0
O71 O 0.58808 0.67106 0.27853 0.0
O72 O 0.55784 0.66416 0.28745 0.0
O73 O 0.58642 0.63046 0.25194 0.0
O74 O 0.54956 0.61294 0.30237 0.0
C75 C 0.55764 0.59691 0.30353 0.0
O76 O 0.57619 0.59639 0.30304 0.0
O77 O 0.58617 0.63562 0.34842 0.0
Mg78 Mg 0.38035 0.07046 0.54655 0.0
C79 C 0.38648 0.0746 0.46952 0.0
O80 O 0.38603 0.0563 0.47494 0.0
C81 C 0.37552 0.08278 0.62319 0.0
O82 O 0.36499 0.06751 0.6227 0.0
C83 C 0.34712 0.04496 0.52327 0.0
O84 O 0.36058 0.03302 0.51481 0.0
O85 O 0.35143 0.06017 0.53952 0.0
O86 O 0.38493 0.08553 0.49646 0.0
O87 O 0.40298 0.04953 0.55058 0.0
C88 C 0.41879 0.05488 0.53784 0.0
O89 O 0.42001 0.07166 0.52315 0.0
O90 O 0.3832 0.0882 0.59411 0.0
Mg91 Mg 0.94306 0.87964 0.8014 0.0
C92 C 0.92416 0.90157 0.74058 0.0
O93 O 0.93174 0.91622 0.75668 0.0
C94 C 0.9336 0.87306 0.87942 0.0
O95 O 0.95078 0.86609 0.87859 0.0
C96 C 0.96056 0.85031 0.75499 0.0
O97 O 0.95974 0.86503 0.73369 0.0
O98 O 0.95562 0.85234 0.78764 0.0
O99 O 0.92557 0.8854 0.75496 0.0
O100 O 0.96254 0.90327 0.8085 0.0
C101 C 0.9729 0.91038 0.78413 0.0
O102 O 0.9736 0.90225 0.75248 0.0
O103 O 0.92624 0.87889 0.85035 0.0
Mg104 Mg 0.63638 0.57022 0.80131 0.0
C105 C 0.64187 0.59438 0.86738 0.0
O106 O 0.65966 0.59234 0.85815 0.0
C107 C 0.64357 0.58039 0.72345 0.0
O108 O 0.65412 0.5652 0.72566 0.0
C109 C 0.66726 0.54826 0.83939 0.0
O110 O 0.65249 0.54169 0.85667 0.0
O111 O 0.66465 0.55937 0.81303 0.0
O112 O 0.62907 0.58759 0.84719 0.0
O113 O 0.6139 0.54925 0.79706 0.0
C114 C 0.60413 0.54471 0.82439 0.0
O115 O 0.60913 0.55118 0.85604 0.0
O116 O 0.63521 0.5863 0.7515 0.0
Mg117 Mg 0.44723 0.1373 0.04965 0.0
C118 C 0.4237 0.11617 0.10469 0.0
O119 O 0.43143 0.10146 0.08908 0.0
C120 C 0.44211 0.14216 0.96901 0.0
O121 O 0.45989 0.14732 0.97144 0.0
C122 C 0.4637 0.16565 0.09908 0.0
O123 O 0.46193 0.15061 0.11938 0.0
O124 O 0.45978 0.16421 0.06583 0.0
O125 O 0.42684 0.1325 0.09206 0.0
O126 O 0.46658 0.11324 0.05107 0.0
C127 C 0.46367 0.09967 0.02932 0.0
O128 O 0.45008 0.1013 1.00554 0.0
O129 O 0.43316 0.13803 0.99754 0.0
Mg130 Mg 0.88211 0.94525 0.30341 0.0
C131 C 0.90296 0.9249 0.36388 0.0
O132 O 0.91805 0.9315 0.34767 0.0
C133 C 0.87317 0.93571 0.22598 0.0
O134 O 0.8647 0.95215 0.2282 0.0
C135 C 0.84048 0.9495 0.31414 0.0
O136 O 0.84145 0.93283 0.29884 0.0
O137 O 0.85555 0.95916 0.31724 0.0
O138 O 0.88684 0.92748 0.34978 0.0
O139 O 0.90647 0.96385 0.29733 0.0
C140 C 0.91382 0.97349 0.32253 0.0
O141 O 0.90559 0.97376 0.35412 0.0
O142 O 0.8808 0.92885 0.25396 0.0
Mg143 Mg 0.06456 0.37705 0.5494 0.0
C144 C 0.07623 0.37492 0.62524 0.0
O145 O 0.05955 0.3668 0.62537 0.0
C146 C 0.07278 0.37162 0.47022 0.0
O147 O 0.05633 0.36309 0.47209 0.0
C148 C 0.06185 0.33558 0.55947 0.0
O149 O 0.07934 0.33782 0.54846 0.0
O150 O 0.05097 0.34987 0.55961 0.0
O151 O 0.08292 0.38079 0.5956 0.0
O152 O 0.04613 0.40172 0.55022 0.0
C153 C 0.055 0.41705 0.55612 0.0
O154 O 0.07337 0.41629 0.56093 0.0
O155 O 0.0801 0.3781 0.49887 0.0
Mg156 Mg 0.63575 0.94397 0.54585 0.0
C157 C 0.62372 0.93493 0.47123 0.0
O158 O 0.61855 0.95263 0.47434 0.0
C159 C 0.64186 0.93415 0.62373 0.0
O160 O 0.65143 0.95 0.6219 0.0
C161 C 0.66651 0.96629 0.50862 0.0
O162 O 0.65171 0.97216 0.49062 0.0
O163 O 0.66392 0.95578 0.53587 0.0
O164 O 0.63084 0.92667 0.49834 0.0
O165 O 0.61219 0.96378 0.54979 0.0
C166 C 0.59608 0.95617 0.54497 0.0
O167 O 0.59527 0.93801 0.53808 0.0
O168 O 0.63449 0.92754 0.59522 0.0
Mg169 Mg 0.0678 0.13404 0.80059 0.0
C170 C 0.07984 0.11631 0.73151 0.0
O171 O 0.06384 0.10752 0.73754 0.0
C172 C 0.076 0.13998 0.87929 0.0
O173 O 0.05858 0.1463 0.8779 0.0
C174 C 0.04861 0.16272 0.75467 0.0
O175 O 0.04776 0.14753 0.73452 0.0
O176 O 0.05511 0.16119 0.7864 0.0
O177 O 0.0859 0.12798 0.75476 0.0
O178 O 0.04844 0.11018 0.80599 0.0
C179 C 0.05671 0.09489 0.8146 0.0
O180 O 0.075 0.09538 0.82055 0.0
O181 O 0.08399 0.1348 0.85034 0.0
Mg182 Mg 0.88034 0.56958 0.04792 0.0
C183 C 0.89339 0.57721 0.97428 0.0
O184 O 0.89718 0.55921 0.97836 0.0
C185 C 0.87638 0.57936 0.1262 0.0
O186 O 0.86915 0.56229 0.12606 0.0
C187 C 0.84857 0.5464 0.0137 0.0
O188 O 0.86288 0.53792 0.99815 0.0
O189 O 0.85185 0.55885 0.03756 0.0
O190 O 0.88645 0.58628 1.0006 0.0
O191 O 0.90352 0.54935 0.05193 0.0
C192 C 0.91936 0.5574 0.05733 0.0
O193 O 0.91962 0.57585 0.06082 0.0
O194 O 0.8816 0.58659 0.0966 0.0
Mg195 Mg 0.44774 0.37928 0.31018 0.0
C196 C 0.44005 0.3831 0.2344 0.0
O197 O 0.45826 0.37979 0.23681 0.0
C198 C 0.43921 0.3755 0.38921 0.0
O199 O 0.45672 0.36941 0.3887 0.0
C200 C 0.449 0.33841 0.29449 0.0
O201 O 0.43118 0.34134 0.30262 0.0
O202 O 0.4606 0.352 0.29806 0.0
O203 O 0.43045 0.38409 0.26317 0.0
O204 O 0.46697 0.40331 0.31189 0.0
C205 C 0.45856 0.41916 0.31335 0.0
O206 O 0.44 0.41928 0.3142 0.0
O207 O 0.43133 0.37985 0.35968 0.0
H208 H 0.33269 0.01419 0.48796 0.0
H209 H 0.30225 0.01166 0.45721 0.0
H210 H 0.28768 0.06771 0.49253 0.0
H211 H 0.31779 0.07015 0.52415 0.0
H212 H 0.25787 0.04466 0.49707 0.0
H213 H 0.29062 0.03674 0.3628 0.0
H214 H 0.29777 0.01889 0.39403 0.0
H215 H 0.30408 0.04312 0.40206 0.0
C216 C 0.32293 0.0259 0.48954 0.0
C217 C 0.32779 0.04242 0.50838 0.0
C218 C 0.30558 0.02451 0.4716 0.0
C219 C 0.29284 0.03969 0.47168 0.0
C220 C 0.29732 0.05586 0.49177 0.0
H221 H 0.20178 0.06289 0.32221 0.0
H222 H 0.23185 0.06064 0.35427 0.0
C223 C 0.31457 0.05721 0.50994 0.0
C224 C 0.27496 0.03892 0.45058 0.0
H225 H 0.25736 0.03323 0.36577 0.0
C226 C 0.25777 0.04213 0.46837 0.0
C227 C 0.2748 0.03597 0.41296 0.0
C228 C 0.2928 0.03367 0.39173 0.0
C229 C 0.2405 0.04239 0.44975 0.0
C230 C 0.24028 0.03882 0.41233 0.0
C231 C 0.25747 0.03571 0.39449 0.0
C232 C 0.22244 0.03899 0.39106 0.0
C233 C 0.22274 0.04711 0.47028 0.0
C234 C 0.2073 0.02709 0.4001 0.0
C235 C 0.19003 0.02846 0.38199 0.0
C236 C 0.18761 0.04153 0.354 0.0
C237 C 0.20313 0.05266 0.34361 0.0
C238 C 0.22034 0.05142 0.36199 0.0
H239 H 0.22593 0.05459 0.49578 0.0
H240 H 0.21314 0.05607 0.45406 0.0
H241 H 0.2152 0.03387 0.47708 0.0
H242 H 0.20871 0.01698 0.42166 0.0
H243 H 0.17845 0.01953 0.39048 0.0
H244 H 0.97284 0.84232 0.68739 0.0
H245 H 0.97465 0.81157 0.65825 0.0
H246 H 0.95879 0.78453 0.75731 0.0
H247 H 0.95665 0.81545 0.78676 0.0
H248 H 0.99495 0.77849 0.67109 0.0
H249 H 0.91764 0.7674 0.6869 0.0
H250 H 0.92874 0.78991 0.69504 0.0
H251 H 0.93045 0.77143 0.7278 0.0
C252 C 0.96993 0.82985 0.70322 0.0
C253 C 0.96439 0.8314 0.73937 0.0
C254 C 0.97102 0.81225 0.68647 0.0
C255 C 0.96653 0.79576 0.70537 0.0
C256 C 0.96198 0.79711 0.74201 0.0
H257 H 0.977 0.68196 0.61261 0.0
H258 H 0.98209 0.71032 0.64895 0.0
C259 C 0.9609 0.81478 0.75888 0.0
C260 C 0.96558 0.77745 0.68587 0.0
H261 H 0.93471 0.74344 0.65774 0.0
C262 C 0.98182 0.77072 0.66839 0.0
C263 C 0.94837 0.76749 0.6819 0.0
C264 C 0.93024 0.77444 0.6986 0.0
C265 C 0.98128 0.7544 0.64685 0.0
C266 C 0.96408 0.74443 0.643 0.0
C267 C 0.94791 0.75105 0.66081 0.0
C268 C 0.96222 0.72754 0.6195 0.0
C269 C 0.99895 0.74834 0.62743 0.0
C270 C 0.94937 0.72773 0.59082 0.0
C271 C 0.94638 0.71155 0.57009 0.0
C272 C 0.95611 0.69473 0.57766 0.0
C273 C 0.96937 0.6947 0.60582 0.0
C274 C 0.97234 0.71093 0.62662 0.0
H275 H 0.00968 0.75977 0.62659 0.0
H276 H 1.00525 0.7361 0.64155 0.0
H277 H 0.99567 0.74393 0.59952 0.0
H278 H 0.9414 0.74038 0.5848 0.0
H279 H 0.93606 0.71212 0.54868 0.0
H280 H 0.3158 0.45604 0.82825 0.0
H281 H 0.28537 0.45877 0.85879 0.0
H282 H 0.3087 0.50087 0.92966 0.0
H283 H 0.33929 0.49789 0.89985 0.0
H284 H 0.29061 0.47437 0.96682 0.0
H285 H 0.24431 0.49788 0.85599 0.0
H286 H 0.25684 0.47664 0.84524 0.0
H287 H 0.26973 0.49819 0.8526 0.0
C288 C 0.31438 0.46615 0.84988 0.0
C289 C 0.33004 0.47675 0.86154 0.0
C290 C 0.2969 0.46775 0.86728 0.0
C291 C 0.2946 0.48018 0.89637 0.0
C292 C 0.31007 0.49119 0.9073 0.0
H293 H 0.18425 0.50302 0.99368 0.0
H294 H 0.21501 0.50623 0.96432 0.0
C295 C 0.32756 0.48951 0.8901 0.0
C296 C 0.27656 0.48075 0.91702 0.0
H297 H 0.22881 0.4863 0.9086 0.0
C298 C 0.27712 0.47715 0.95409 0.0
C299 C 0.25893 0.4846 0.90067 0.0
C300 C 0.25739 0.48974 0.86152 0.0
C301 C 0.26059 0.47683 0.97498 0.0
C302 C 0.24287 0.47976 0.95829 0.0
C303 C 0.24234 0.48386 0.92142 0.0
C304 C 0.2247 0.47826 0.97835 0.0
C305 C 0.26233 0.47356 0.01484 0.0
C306 C 0.21988 0.46153 0.99631 0.0
C307 C 0.20237 0.45972 0.01342 0.0
C308 C 0.18913 0.47451 0.01258 0.0
C309 C 0.1941 0.49136 0.99503 0.0
C310 C 0.21167 0.4932 0.97807 0.0
H311 H 0.27656 0.47757 0.02485 0.0
H312 H 0.25157 0.4817 0.02999 0.0
H313 H 0.26024 0.45835 0.02054 0.0
H314 H 0.22944 0.44963 0.99626 0.0
H315 H 0.199 0.44646 0.02632 0.0
H316 H 0.56209 0.81807 0.07129 0.0
H317 H 0.56083 0.78792 0.10303 0.0
H318 H 0.53061 0.81436 0.19 0.0
H319 H 0.53216 0.8446 0.15883 0.0
H320 H 0.5601 0.79494 0.21436 0.0
H321 H 0.51991 0.74945 0.12088 0.0
H322 H 0.53968 0.76061 0.09958 0.0
H323 H 0.52058 0.77479 0.11651 0.0
C324 C 0.55482 0.8174 0.09682 0.0
C325 C 0.54724 0.83379 0.11249 0.0
C326 C 0.55404 0.80009 0.11491 0.0
C327 C 0.54544 0.79876 0.14881 0.0
C328 C 0.53728 0.81498 0.16387 0.0
H329 H 0.53473 0.69024 0.26321 0.0
H330 H 0.52699 0.72042 0.23432 0.0
C331 C 0.53815 0.83228 0.14594 0.0
C332 C 0.54647 0.78096 0.17 0.0
H333 H 0.53776 0.73354 0.16656 0.0
C334 C 0.555 0.78157 0.20402 0.0
C335 C 0.5396 0.7635 0.15688 0.0
C336 C 0.52925 0.76204 0.12162 0.0
C337 C 0.55749 0.76518 0.22459 0.0
C338 C 0.55164 0.74756 0.21055 0.0
C339 C 0.54242 0.74701 0.1772 0.0
C340 C 0.55604 0.72951 0.22912 0.0
C341 C 0.56645 0.7669 0.26118 0.0
C342 C 0.57489 0.72455 0.23564 0.0
C343 C 0.57933 0.70745 0.25216 0.0
C344 C 0.56502 0.69476 0.26237 0.0
C345 C 0.54608 0.69974 0.25594 0.0
C346 C 0.54164 0.71693 0.2393 0.0
H347 H 0.56457 0.78129 0.27248 0.0
H348 H 0.56039 0.75651 0.28025 0.0
H349 H 0.58183 0.76422 0.25886 0.0
H350 H 0.58627 0.73379 0.22737 0.0
H351 H 0.59407 0.70408 0.25641 0.0
H352 H 0.69955 0.56826 0.82537 0.0
H353 H 0.73018 0.5653 0.85498 0.0
H354 H 0.70932 0.518 0.91595 0.0
H355 H 0.67841 0.52138 0.88741 0.0
H356 H 0.72695 0.5412 0.95866 0.0
H357 H 0.77288 0.52966 0.84082 0.0
H358 H 0.7596 0.55105 0.83666 0.0
H359 H 0.74748 0.5287 0.83783 0.0
C360 C 0.70157 0.55701 0.84462 0.0
C361 C 0.68653 0.54499 0.85388 0.0
C362 C 0.71917 0.55527 0.86147 0.0
C363 C 0.72227 0.54122 0.88738 0.0
C364 C 0.70737 0.52893 0.89603 0.0
H365 H 0.83588 0.51841 0.96915 0.0
H366 H 0.8048 0.5157 0.94095 0.0
C367 C 0.68969 0.53083 0.87957 0.0
C368 C 0.74061 0.54004 0.90705 0.0
H369 H 0.78846 0.53844 0.8954 0.0
C370 C 0.74038 0.54041 0.94476 0.0
C371 C 0.75821 0.53871 0.88915 0.0
C372 C 0.75957 0.5368 0.84891 0.0
C373 C 0.75716 0.53994 0.96495 0.0
C374 C 0.77479 0.53969 0.94699 0.0
C375 C 0.77501 0.53885 0.9093 0.0
C376 C 0.79318 0.54053 0.96657 0.0
C377 C 0.75573 0.53939 1.00532 0.0
C378 C 0.79707 0.55526 0.99074 0.0
C379 C 0.81475 0.55666 1.00739 0.0
C380 C 0.82911 0.54357 0.99967 0.0
C381 C 0.82514 0.5287 0.9758 0.0
C382 C 0.80737 0.52718 0.95952 0.0
H383 H 0.74205 0.53326 0.01413 0.0
H384 H 0.76736 0.53101 0.01731 0.0
H385 H 0.75651 0.55398 0.01599 0.0
H386 H 0.78663 0.56606 0.99596 0.0
H387 H 0.81738 0.56844 0.02523 0.0
H388 H 0.48161 0.33056 0.25712 0.0
H389 H 0.4882 0.30246 0.22062 0.0
H390 H 0.43545 0.27789 0.25455 0.0
H391 H 0.42863 0.30587 0.29039 0.0
H392 H 0.49143 0.2643 0.2354 0.0
H393 H 0.43048 0.27704 0.14589 0.0
H394 H 0.43899 0.29456 0.17712 0.0
H395 H 0.42364 0.27593 0.19217 0.0
C396 C 0.47153 0.31906 0.25713 0.0
C397 C 0.4545 0.32055 0.27643 0.0
C398 C 0.47528 0.30304 0.23615 0.0
C399 C 0.46209 0.28826 0.23408 0.0
C400 C 0.44559 0.28932 0.25488 0.0
H401 H 0.46994 0.17293 0.16994 0.0
H402 H 0.47215 0.20346 0.19947 0.0
C403 C 0.44179 0.3053 0.27561 0.0
C404 C 0.46523 0.27183 0.2099 0.0
H405 H 0.4442 0.24623 0.14323 0.0
C406 C 0.48122 0.26045 0.21497 0.0
C407 C 0.45218 0.26702 0.18257 0.0
C408 C 0.43547 0.27939 0.1738 0.0
C409 C 0.48398 0.24389 0.19475 0.0
C410 C 0.47018 0.23836 0.16927 0.0
C411 C 0.4547 0.25027 0.16298 0.0
C412 C 0.47076 0.21977 0.15052 0.0
C413 C 0.50167 0.23252 0.20097 0.0
C414 C 0.46898 0.2186 0.11298 0.0
C415 C 0.46745 0.20102 0.09588 0.0
C416 C 0.46758 0.18426 0.11603 0.0
C417 C 0.4699 0.1855 0.15346 0.0
C418 C 0.47133 0.20301 0.17048 0.0
H419 H 0.51339 0.2416 0.21072 0.0
H420 H 0.49887 0.22176 0.22188 0.0
H421 H 0.50631 0.22523 0.17612 0.0
H422 H 0.46838 0.23132 0.09696 0.0
H423 H 0.46562 0.2006 0.06705 0.0
H424 H 0.8051 0.93547 0.30323 0.0
H425 H 0.77656 0.94197 0.33782 0.0
H426 H 0.80723 0.98228 0.40214 0.0
H427 H 0.83574 0.97625 0.36676 0.0
H428 H 0.77127 0.93526 0.40675 0.0
H429 H 0.75981 0.01151 0.38273 0.0
H430 H 0.77615 0.99771 0.35648 0.0
H431 H 0.78282 1.00622 0.40018 0.0
C432 C 0.8057 0.946 0.32427 0.0
C433 C 0.8227 0.95538 0.33213 0.0
C434 C 0.78936 0.94966 0.34416 0.0
C435 C 0.78961 0.96271 0.37254 0.0
C436 C 0.80648 0.97245 0.37993 0.0
H437 H 0.70075 0.95581 0.53738 0.0
H438 H 0.73165 0.9565 0.50776 0.0
C439 C 0.82282 0.96895 0.35971 0.0
C440 C 0.77255 0.96502 0.39565 0.0
H441 H 0.74076 0.99721 0.42756 0.0
C442 C 0.76461 0.94882 0.41126 0.0
C443 C 0.76375 0.98269 0.40145 0.0
C444 C 0.77094 1.0005 0.38407 0.0
C445 C 0.74807 0.94971 0.43202 0.0
C446 C 0.73945 0.96742 0.43844 0.0
C447 C 0.74747 0.98367 0.42309 0.0
C448 C 0.72135 0.96914 0.45866 0.0
C449 C 0.73961 0.93152 0.44562 0.0
C450 C 0.70547 0.97704 0.44192 0.0
C451 C 0.6879 0.97699 0.45904 0.0
C452 C 0.68574 0.96896 0.49331 0.0
C453 C 0.70186 0.96195 0.51088 0.0
C454 C 0.71951 0.96219 0.49382 0.0
H455 H 0.74507 0.91909 0.43072 0.0
H456 H 0.74336 0.9297 0.47431 0.0
H457 H 0.72398 0.93167 0.4433 0.0
H458 H 0.7065 0.9826 0.41494 0.0
H459 H 0.67584 0.98257 0.44467 0.0
H460 H 0.03129 0.3289 0.60324 0.0
H461 H 0.02534 0.30068 0.6396 0.0
H462 H 0.07392 0.27368 0.59248 0.0
H463 H 0.08015 0.30181 0.55671 0.0
H464 H 0.01886 0.26301 0.62466 0.0
H465 H 0.08599 0.27137 0.69897 0.0
H466 H 0.07656 0.28963 0.67046 0.0
H467 H 0.08954 0.27023 0.65136 0.0
C468 C 0.04055 0.31685 0.60026 0.0
C469 C 0.05631 0.31769 0.57729 0.0
C470 C 0.03717 0.30075 0.62117 0.0
C471 C 0.04947 0.28524 0.6195 0.0
C472 C 0.06454 0.28566 0.59503 0.0
H473 H 0.03803 0.17022 0.68579 0.0
H474 H 0.03601 0.20076 0.6564 0.0
C475 C 0.06799 0.30173 0.57435 0.0
C476 C 0.04697 0.26875 0.64378 0.0
H477 H 0.07045 0.2416 0.70484 0.0
C478 C 0.03006 0.25842 0.64246 0.0
C479 C 0.06137 0.263 0.66773 0.0
C480 C 0.0793 0.27425 0.67257 0.0
C481 C 0.02754 0.24201 0.66314 0.0
C482 C 0.04249 0.23553 0.68521 0.0
C483 C 0.05904 0.24638 0.68772 0.0
C484 C 0.04182 0.21706 0.70429 0.0
C485 C 0.00885 0.23184 0.66116 0.0
C486 C 0.04599 0.21585 0.74112 0.0
C487 C 0.04743 0.19825 0.75806 0.0
C488 C 0.04479 0.18149 0.73845 0.0
C489 C 0.04004 0.1828 0.70187 0.0
C490 C 0.03872 0.20033 0.68497 0.0
H491 H 0.99722 0.24168 0.65411 0.0
H492 H 0.00955 0.22092 0.63987 0.0
H493 H 1.00535 0.22486 0.68697 0.0
H494 H 0.04856 0.22853 0.75661 0.0
H495 H 0.05117 0.19778 0.78622 0.0
H496 H 0.06426 0.07255 0.29056 0.0
H497 H 0.03367 0.05713 0.2947 0.0
H498 H 0.06097 1.00281 0.29774 0.0
H499 H 0.09197 0.01831 0.29462 0.0
H500 H 0.0164 0.0329 0.25099 0.0
H501 H 0.02668 0.99952 0.3842 0.0
H502 H 0.04271 0.017 0.36661 0.0
H503 H 0.04401 0.99297 0.35132 0.0
C504 C 0.06386 0.05731 0.29213 0.0
C505 C 0.08063 0.04667 0.29241 0.0
C506 C 0.04628 0.0485 0.29447 0.0
C507 C 0.04495 0.02882 0.29706 0.0
C508 C 0.06163 0.01805 0.2966 0.0
H509 H 0.93743 0.97026 0.26472 0.0
H510 H 0.96919 0.98317 0.25792 0.0
C511 C 0.07934 0.02691 0.29453 0.0
C512 C 0.02597 0.01987 0.29985 0.0
H513 H 0.99822 0.99244 0.35375 0.0
C514 C 0.01245 0.02401 0.27343 0.0
C515 C 0.0207 0.0085 0.32942 0.0
C516 C 0.0342 1.00435 0.35971 0.0
C517 C 0.99384 0.01725 0.27581 0.0
C518 C 0.98867 1.00555 0.30495 0.0
C519 C 1.0022 1.00132 0.33132 0.0
C520 C 0.96923 0.9978 0.30892 0.0
C521 C 0.97976 0.02325 0.24764 0.0
C522 C 0.95875 1.00133 0.34022 0.0
C523 C 0.94061 0.99377 0.3444 0.0
C524 C 0.93256 0.9825 0.31733 0.0
C525 C 0.94307 0.97906 0.28594 0.0
C526 C 0.96125 0.9865 0.28193 0.0
H527 H 0.98435 0.0363 0.23368 0.0
H528 H 0.97844 0.01194 0.2272 0.0
H529 H 0.96562 0.02574 0.25958 0.0
H530 H 0.96462 0.00996 0.36148 0.0
H531 H 0.93296 0.99663 0.36897 0.0
H532 H 0.98552 0.58007 0.62599 0.0
H533 H 0.99947 0.54868 0.62074 0.0
H534 H 0.99276 0.55079 0.50583 0.0
H535 H 0.9792 0.58241 0.51076 0.0
H536 H 0.9835 0.51672 0.59504 0.0
H537 H 0.04708 0.53423 0.51475 0.0
H538 H 0.0328 0.55206 0.53608 0.0
H539 H 0.02537 0.54163 0.49438 0.0
C540 C 0.98724 0.57399 0.59952 0.0
C541 C 0.98133 0.58383 0.56877 0.0
C542 C 0.99515 0.55599 0.59659 0.0
C543 C 0.99734 0.54741 0.56288 0.0
C544 C 0.99159 0.55725 0.53207 0.0
H545 H 0.01833 0.42556 0.53732 0.0
H546 H 1.00332 0.45677 0.53756 0.0
C547 C 0.98379 0.57533 0.53496 0.0
C548 C 1.00504 0.52793 0.56029 0.0
H549 H 0.04062 0.50177 0.52357 0.0
C550 C 0.996 0.51344 0.57942 0.0
C551 C 0.02142 0.52368 0.5401 0.0
C552 C 0.03236 0.53873 0.52042 0.0
C553 C 1.00294 0.49487 0.57912 0.0
C554 C 0.01914 0.49056 0.55847 0.0
C555 C 0.0281 0.50503 0.53914 0.0
C556 C 0.02784 0.47146 0.55832 0.0
C557 C 0.99321 0.4802 0.60188 0.0
C558 C 0.04667 0.46935 0.56922 0.0
C559 C 0.05529 0.45166 0.5687 0.0
C560 C 0.04529 0.43558 0.5573 0.0
C561 C 0.02637 0.43764 0.5465 0.0
C562 C 0.01776 0.45546 0.54679 0.0
H563 H 0.98406 0.48672 0.62268 0.0
H564 H 0.98416 0.47126 0.5845 0.0
H565 H 1.00367 0.47094 0.61536 0.0
H566 H 0.05475 0.48144 0.57825 0.0
H567 H 0.06987 0.45063 0.57729 0.0
H568 H 0.45357 0.44397 0.81732 0.0
H569 H 0.48432 0.45924 0.81867 0.0
H570 H 0.45828 0.5126 0.79366 0.0
H571 H 0.4271 0.49739 0.79348 0.0
H572 H 0.50368 0.47662 0.76816 0.0
H573 H 0.48981 0.52709 0.87893 0.0
H574 H 0.47378 0.50816 0.86802 0.0
H575 H 0.4739 0.52943 0.84174 0.0
C576 C 0.45429 0.45899 0.8122 0.0
C577 C 0.43782 0.46947 0.80541 0.0
C578 C 0.47196 0.46771 0.81294 0.0
C579 C 0.47369 0.48714 0.80672 0.0
C580 C 0.4573 0.49767 0.7994 0.0
H581 H 0.58425 0.53819 0.76253 0.0
H582 H 0.55272 0.52444 0.75681 0.0
C583 C 0.43949 0.48895 0.79907 0.0
C584 C 0.49277 0.49601 0.80754 0.0
H585 H 0.51927 0.52978 0.84943 0.0
C586 C 0.50708 0.48827 0.78593 0.0
C587 C 0.49731 0.51104 0.83106 0.0
C588 C 0.48296 0.51932 0.85652 0.0
C589 C 0.52575 0.49496 0.78738 0.0
C590 C 0.5302 0.51026 0.81031 0.0
C591 C 0.51587 0.51812 0.83171 0.0
C592 C 0.54969 0.51806 0.81332 0.0
C593 C 0.54061 0.48508 0.76524 0.0
C594 C 0.55847 0.51939 0.84704 0.0
C595 C 0.57638 0.52753 0.85045 0.0
C596 C 0.58599 0.53444 0.82019 0.0
C597 C 0.57736 0.53277 0.78633 0.0
C598 C 0.55933 0.52484 0.783 0.0
H599 H 0.53619 0.47054 0.75791 0.0
H600 H 0.54287 0.49303 0.73998 0.0
H601 H 0.55426 0.48429 0.77982 0.0
H602 H 0.55136 0.51427 0.87085 0.0
H603 H 0.5826 0.52863 0.87693 0.0
H604 H 0.52752 0.92911 0.0183 0.0
H605 H 0.51303 0.96027 0.01078 0.0
H606 H 0.53228 0.97644 0.11612 0.0
H607 H 0.54679 0.94549 0.1239 0.0
H608 H 0.48545 0.97967 0.05519 0.0
H609 H 0.55405 0.01761 0.04857 0.0
H610 H 0.55214 0.99241 0.04249 0.0
H611 H 0.55107 1.00243 0.08672 0.0
C612 C 0.52854 0.93924 0.03999 0.0
C613 C 0.53844 0.93481 0.07161 0.0
C614 C 0.52028 0.95704 0.03562 0.0
C615 C 0.52189 0.97077 0.06263 0.0
C616 C 0.53118 0.96618 0.09466 0.0
H617 H 0.48739 0.08829 0.08351 0.0
H618 H 0.5015 0.05701 0.0916 0.0
C619 C 0.53938 0.9484 0.09912 0.0
C620 C 0.514 0.98996 0.05732 0.0
H621 H 0.52646 0.0364 0.05035 0.0
C622 C 0.49439 0.99207 0.05397 0.0
C623 C 0.52572 1.00613 0.05595 0.0
C624 C 0.54694 1.00462 0.05832 0.0
C625 C 0.48614 0.00996 0.04987 0.0
C626 C 0.49786 0.02615 0.04819 0.0
C627 C 0.51748 0.02401 0.05163 0.0
C628 C 0.49002 0.04537 0.04251 0.0
C629 C 0.46489 0.01138 0.04828 0.0
C630 C 0.47937 0.04942 0.01173 0.0
C631 C 0.47127 0.06721 1.0071 0.0
C632 C 0.47382 0.08147 0.03296 0.0
C633 C 0.48514 0.07764 0.06309 0.0
C634 C 0.49318 0.05976 0.06779 0.0
H635 H 0.45798 0.99878 0.06017 0.0
H636 H 0.45978 0.02414 0.0626 0.0
H637 H 0.46038 0.01236 0.01984 0.0
H638 H 0.47718 0.03873 0.99136 0.0
H639 H 0.46279 0.06971 0.9834 0.0
H640 H 0.09208 0.49666 0.05727 0.0
H641 H 0.06192 0.51374 0.06038 0.0
H642 H 0.03176 0.46155 0.04454 0.0
H643 H 0.06153 0.44447 0.04192 0.0
H644 H 0.03288 0.51628 0.0096 0.0
H645 H 1.00654 0.48263 0.13408 0.0
H646 H 0.03089 0.48107 0.12006 0.0
H647 H 0.01333 0.46597 0.10019 0.0
C648 C 0.07901 0.48885 0.05456 0.0
C649 C 0.07925 0.46918 0.04963 0.0
C650 C 0.06179 0.49861 0.05635 0.0
C651 C 0.04456 0.48886 0.05344 0.0
C652 C 0.04483 0.46931 0.0478 0.0
H653 H 0.92513 0.5193 0.04736 0.0
H654 H 0.95553 0.50259 0.04608 0.0
C655 C 0.06193 0.45958 0.04608 0.0
C656 C 0.02622 0.49902 0.05534 0.0
H657 H 0.98417 0.50039 0.10041 0.0
C658 C 0.0223 0.51292 0.02963 0.0
C659 C 0.01235 0.49455 0.08138 0.0
C660 C 0.01601 0.48037 0.11071 0.0
C661 C 1.00475 0.52217 0.02878 0.0
C662 C 0.99085 0.51761 0.05466 0.0
C663 C 0.99478 0.50377 0.08045 0.0
C664 C 0.97238 0.52752 0.05609 0.0
C665 C 1.00109 0.53649 0.99968 0.0
C666 C 0.97176 0.54695 0.0629 0.0
C667 C 0.95451 0.55647 0.06372 0.0
C668 C 0.93742 0.54677 0.05791 0.0
C669 C 0.93801 0.52719 0.05186 0.0
C670 C 0.95536 0.51764 0.0511 0.0
H671 H 0.011 0.5348 0.97679 0.0
H672 H 0.9864 0.53533 0.98948 0.0
H673 H 1.00303 0.55087 0.01083 0.0
H674 H 0.98466 0.55479 0.0676 0.0
H675 H 0.95463 0.57151 0.06872 0.0
H676 H 0.49701 0.42483 0.31083 0.0
H677 H 0.51381 0.45511 0.30991 0.0
H678 H 0.46069 0.48464 0.31516 0.0
H679 H 0.44385 0.45464 0.31573 0.0
H680 H 0.48498 0.49869 0.26264 0.0
H681 H 0.52148 0.49192 0.39388 0.0
H682 H 0.52515 0.47257 0.36353 0.0
H683 H 0.50194 0.47699 0.38109 0.0
C684 C 0.48893 0.43777 0.31196 0.0
C685 C 0.46909 0.43728 0.31346 0.0
C686 C 0.49855 0.45506 0.31161 0.0
C687 C 0.48851 0.47215 0.31292 0.0
C688 C 0.46873 0.47166 0.31425 0.0
H689 H 0.51905 0.59202 0.3062 0.0
H690 H 0.50169 0.56207 0.30869 0.0
C691 C 0.45913 0.45444 0.31463 0.0
C692 C 0.49846 0.4906 0.31204 0.0
H693 H 0.52987 0.51814 0.35791 0.0
C694 C 0.49475 0.50299 0.28352 0.0
C695 C 0.51115 0.49619 0.33936 0.0
C696 C 0.51509 0.48383 0.3714 0.0
C697 C 0.5037 0.52065 0.28117 0.0
C698 C 0.51643 0.52623 0.30845 0.0
C699 C 0.52008 0.51386 0.33705 0.0
C700 C 0.52669 0.54453 0.30722 0.0
C701 C 0.49984 0.53294 0.24898 0.0
C702 C 0.54648 0.54465 0.30643 0.0
C703 C 0.55639 0.56167 0.30528 0.0
C704 C 0.54675 0.57902 0.30503 0.0
C705 C 0.5269 0.57892 0.30616 0.0
C706 C 0.51696 0.56181 0.30738 0.0
H707 H 0.49349 0.52479 0.22653 0.0
H708 H 0.48976 0.54421 0.25666 0.0
H709 H 0.51301 0.53974 0.23929 0.0
H710 H 0.55429 0.53152 0.3064 0.0
H711 H 0.57167 0.56117 0.30449 0.0
H712 H 0.42822 0.02918 0.58991 0.0
H713 H 0.45864 0.01295 0.59697 0.0
H714 H 0.47803 0.03734 0.49755 0.0
H715 H 0.44825 0.05428 0.49157 0.0
H716 H 0.47728 0.98781 0.56194 0.0
H717 H 0.52073 0.05228 0.55956 0.0
H718 H 0.49533 0.05312 0.56213 0.0
H719 H 0.50701 0.05079 0.51932 0.0
C720 C 0.439 0.03098 0.56958 0.0
C721 C 0.43599 0.04314 0.54042 0.0
C722 C 0.4564 0.02177 0.57366 0.0
C723 C 0.47095 0.0244 0.54841 0.0
C724 C 0.46743 0.0357 0.51824 0.0
H725 H 0.56377 0.94916 0.50844 0.0
H726 H 0.53386 0.96603 0.51202 0.0
C727 C 0.45028 0.0452 0.5146 0.0
C728 C 0.4897 0.01514 0.55299 0.0
H729 H 0.53717 0.02325 0.54692 0.0
C730 C 0.49036 0.99562 0.55911 0.0
C731 C 0.5069 0.02532 0.55046 0.0
C732 C 0.50745 0.04656 0.54795 0.0
C733 C 0.50763 0.98591 0.56103 0.0
C734 C 0.52475 0.99584 0.55505 0.0
C735 C 0.52412 0.01549 0.5507 0.0
C736 C 0.54333 0.98606 0.5521 0.0
C737 C 0.50723 0.96516 0.56992 0.0
C738 C 0.55915 0.99237 0.57164 0.0
C739 C 0.57657 0.9831 0.56862 0.0
C740 C 0.57838 0.96719 0.54638 0.0
C741 C 0.56271 0.9612 0.52627 0.0
C742 C 0.5455 0.97071 0.52862 0.0
H743 H 0.49473 0.96158 0.58658 0.0
H744 H 0.50617 0.95688 0.54471 0.0
H745 H 0.52014 0.96074 0.58456 0.0
H746 H 0.55796 1.00432 0.58965 0.0
H747 H 0.58843 0.988 0.58444 0.0
H748 H 0.01869 0.08799 0.80571 0.0
H749 H 1.00285 0.05716 0.80434 0.0
H750 H 0.0564 0.02958 0.82086 0.0
H751 H 0.07211 0.06006 0.8233 0.0
H752 H 1.00726 0.02803 0.759 0.0
H753 H 0.02499 1.00396 0.89581 0.0
H754 H 0.02825 0.02807 0.8817 0.0
H755 H 0.04576 0.01048 0.87129 0.0
C756 C 0.02702 0.07535 0.80949 0.0
C757 C 0.04665 0.07652 0.81492 0.0
C758 C 0.01797 0.05774 0.80863 0.0
C759 C 0.02837 0.04102 0.81322 0.0
C760 C 0.04796 0.04223 0.81833 0.0
H761 H 0.99805 0.92867 0.7404 0.0
H762 H 0.01106 0.96039 0.74804 0.0
C763 C 0.05696 0.05974 0.81947 0.0
C764 C 0.01905 0.02223 0.81107 0.0
H765 H 0.01522 0.97995 0.85433 0.0
C766 C 0.00883 0.01758 0.78001 0.0
C767 C 0.02082 0.00865 0.83869 0.0
C768 C 0.03038 0.01311 0.87389 0.0
C769 C 1.00087 0.99957 0.77532 0.0
C770 C 1.00366 0.98563 0.802 0.0
C771 C 0.01335 0.99049 0.83356 0.0
C772 C 0.99645 0.966 0.79796 0.0
C773 C 0.98935 0.9958 0.74202 0.0
C774 C 0.98464 0.95818 0.8243 0.0
C775 C 0.9775 0.9399 0.82037 0.0
C776 C 0.98195 0.92903 0.7899 0.0
C777 C 0.99421 0.93669 0.76404 0.0
C778 C 1.00151 0.95492 0.76819 0.0
H779 H 0.98373 0.00907 0.73037 0.0
H780 H 0.99845 0.98905 0.72149 0.0
H781 H 0.97731 0.98623 0.74779 0.0
H782 H 0.98064 0.96637 0.84766 0.0
H783 H 0.96808 0.93448 0.84081 0.0
H784 H 0.07177 0.09067 0.67956 0.0
H785 H 0.08328 0.09017 0.61797 0.0
H786 H 0.11953 0.13761 0.64044 0.0
H787 H 0.10806 0.13824 0.70266 0.0
H788 H 0.07972 0.1243 0.57136 0.0
H789 H 0.15308 0.09669 0.58573 0.0
H790 H 0.13516 0.09173 0.61892 0.0
H791 H 0.14485 0.11501 0.61547 0.0
C792 C 0.08238 0.10086 0.67168 0.0
C793 C 0.08893 0.11457 0.69596 0.0
C794 C 0.08892 0.10056 0.63645 0.0
C795 C 0.10219 0.11387 0.62476 0.0
C796 C 0.10937 0.12715 0.64914 0.0
H797 H 0.14139 0.10787 0.39955 0.0
H798 H 0.13729 0.12141 0.45987 0.0
C799 C 0.10281 0.12747 0.68461 0.0
C800 C 0.10732 0.11431 0.58637 0.0
H801 H 0.14093 0.09944 0.52721 0.0
C802 C 0.09324 0.11923 0.56164 0.0
C803 C 0.12502 0.10788 0.57393 0.0
C804 C 0.14048 0.10245 0.59971 0.0
C805 C 0.09601 0.11681 0.52472 0.0
C806 C 0.11318 0.10905 0.51238 0.0
C807 C 0.12777 0.10537 0.53689 0.0
C808 C 0.11511 0.10204 0.47522 0.0
C809 C 0.08024 0.12182 0.49926 0.0
C810 C 0.104 0.08675 0.46413 0.0
C811 C 0.10637 0.07896 0.43012 0.0
C812 C 0.11989 0.08636 0.40641 0.0
C813 C 0.13077 0.10198 0.4172 0.0
C814 C 0.12851 0.10967 0.45159 0.0
H815 H 0.07062 0.13253 0.51111 0.0
H816 H 0.0859 0.12731 0.47352 0.0
H817 H 0.0718 0.10899 0.49341 0.0
H818 H 0.09376 0.08052 0.4822 0.0
H819 H 0.09777 0.06695 0.42261 0.0
H820 H 0.90429 0.66185 0.66447 0.0
H821 H 0.89769 0.65394 0.7272 0.0
H822 H 0.91428 0.5964 0.70732 0.0
H823 H 0.92093 0.60408 0.64473 0.0
H824 H 0.87392 0.6229 0.76022 0.0
H825 H 0.95098 0.61832 0.78709 0.0
H826 H 0.94142 0.63043 0.74856 0.0
H827 H 0.94277 0.60515 0.74889 0.0
C828 C 0.90623 0.64743 0.67326 0.0
C829 C 0.91334 0.63364 0.64968 0.0
C830 C 0.90245 0.64296 0.70909 0.0
C831 C 0.9058 0.62469 0.72183 0.0
C832 C 0.91184 0.61065 0.69795 0.0
H833 H 0.90854 0.56132 0.91442 0.0
H834 H 0.91103 0.57494 0.85465 0.0
C835 C 0.91556 0.61507 0.66217 0.0
C836 C 0.90419 0.62043 0.76049 0.0
H837 H 0.93051 0.60737 0.83292 0.0
C838 C 0.88625 0.61969 0.77634 0.0
C839 C 0.92037 0.61641 0.78129 0.0
C840 C 0.94002 0.61774 0.76579 0.0
C841 C 0.88401 0.61411 0.81226 0.0
C842 C 0.90019 0.60951 0.83275 0.0
C843 C 0.91815 0.61089 0.81711 0.0
C844 C 0.89879 0.60178 0.86951 0.0
C845 C 0.86436 0.61237 0.82753 0.0
C846 C 0.89137 0.6125 0.89787 0.0
C847 C 0.88991 0.60472 0.93228 0.0
C848 C 0.89591 0.58613 0.93876 0.0
C849 C 0.90372 0.57565 0.91038 0.0
C850 C 0.90517 0.58341 0.87616 0.0
H851 H 0.85335 0.61302 0.80634 0.0
H852 H 0.86276 0.59891 0.84243 0.0
H853 H 0.86184 0.62411 0.84664 0.0
H854 H 0.88669 0.62684 0.89339 0.0
H855 H 0.88388 0.61317 0.95361 0.0
H856 H 0.40255 0.38858 0.2182 0.0
H857 H 0.38873 0.3935 0.15853 0.0
H858 H 0.44408 0.38899 0.11097 0.0
H859 H 0.45783 0.38369 0.16982 0.0
H860 H 0.39537 0.42175 0.11274 0.0
H861 H 0.41427 0.35503 0.04578 0.0
H862 H 0.41548 0.3579 0.09387 0.0
H863 H 0.43477 0.36547 0.06579 0.0
C864 C 0.41171 0.38844 0.19494 0.0
C865 C 0.43128 0.38571 0.19874 0.0
C866 C 0.4038 0.3912 0.1609 0.0
C867 C 0.41532 0.39117 0.13019 0.0
C868 C 0.43482 0.38846 0.13408 0.0
H869 H 0.41324 0.45364 0.93991 0.0
H870 H 0.41552 0.43999 0.99961 0.0
C871 C 0.4427 0.38563 0.16789 0.0
C872 C 0.40747 0.3956 0.0943 0.0
H873 H 0.40989 0.38212 1.00646 0.0
C874 C 0.39818 0.41288 0.08961 0.0
C875 C 0.41074 0.38388 0.06415 0.0
C876 C 0.41917 0.36444 0.06774 0.0
C877 C 0.3934 0.4194 0.0553 0.0
C878 C 0.39846 0.40855 0.0249 0.0
C879 C 0.40638 0.39061 0.02974 0.0
C880 C 0.39718 0.41631 0.98811 0.0
C881 C 0.38338 0.43809 0.05193 0.0
C882 C 0.38681 0.40704 0.96123 0.0
C883 C 0.38566 0.41473 0.92669 0.0
C884 C 0.39492 0.43176 0.91859 0.0
C885 C 0.40575 0.44063 0.94534 0.0
C886 C 0.40695 0.43292 0.97962 0.0
H887 H 0.37489 0.44122 0.07629 0.0
H888 H 0.39401 0.44949 0.04896 0.0
H889 H 0.37391 0.43833 0.02819 0.0
H890 H 0.37937 0.39406 0.96715 0.0
H891 H 0.37723 0.40756 0.90662 0.0
H892 H 0.61035 0.94979 0.40902 0.0
H893 H 0.61047 0.93556 0.3495 0.0
H894 H 0.63499 0.88485 0.3928 0.0
H895 H 0.63498 0.89903 0.45299 0.0
H896 H 0.64494 0.92052 0.31341 0.0
H897 H 0.58706 0.86807 0.33222 0.0
H898 H 0.58921 0.88864 0.36056 0.0
H899 H 0.60549 0.86948 0.36546 0.0
C900 C 0.61566 0.93555 0.40611 0.0
C901 C 0.62267 0.92554 0.43581 0.0
C902 C 0.61576 0.92748 0.372 0.0
C903 C 0.62272 0.9092 0.36685 0.0
C904 C 0.62946 0.89896 0.39638 0.0
H905 H 0.61248 0.85036 0.16058 0.0
H906 H 0.62244 0.85699 0.22221 0.0
C907 C 0.62943 0.90707 0.43068 0.0
C908 C 0.62314 0.90127 0.33017 0.0
H909 H 0.59951 0.87136 0.27423 0.0
C910 C 0.63521 0.90958 0.30486 0.0
C911 C 0.61055 0.88691 0.31931 0.0
C912 C 0.59724 0.87771 0.34561 0.0
C913 C 0.63453 0.90436 0.26857 0.0
C914 C 0.62114 0.8908 0.25727 0.0
C915 C 0.60974 0.8818 0.28293 0.0
C916 C 0.61743 0.88702 0.21878 0.0
C917 C 0.648 0.91363 0.24264 0.0
C918 C 0.61152 0.90174 0.19629 0.0
C919 C 0.60589 0.89803 0.1611 0.0
C920 C 0.60586 0.87947 0.14777 0.0
C921 C 0.61238 0.86482 0.16996 0.0
C922 C 0.61803 0.86856 0.20522 0.0
H923 H 0.66112 0.9183 0.2564 0.0
H924 H 0.65186 0.90395 0.22039 0.0
H925 H 0.64117 0.92631 0.23103 0.0
H926 H 0.6105 0.91602 0.2064 0.0
H927 H 0.60086 0.90963 0.14483 0.0
H928 H 0.06772 0.36013 0.69061 0.0
H929 H 0.08123 0.36873 0.74866 0.0
H930 H 0.12016 0.40647 0.69621 0.0
H931 H 0.10666 0.39799 0.63775 0.0
H932 H 0.12039 0.36824 0.77556 0.0
H933 H 0.08821 0.4397 0.76704 0.0
H934 H 0.08073 0.4204 0.73878 0.0
H935 H 0.10248 0.43247 0.72956 0.0
C936 C 0.07929 0.37012 0.69131 0.0
C937 C 0.08599 0.37855 0.65962 0.0
C938 C 0.08702 0.37495 0.72451 0.0
C939 C 0.1015 0.38837 0.72666 0.0
C940 C 0.10884 0.3962 0.69502 0.0
H941 H 0.14748 0.44967 0.90707 0.0
H942 H 0.14093 0.4364 0.84805 0.0
C943 C 0.10117 0.3913 0.66168 0.0
C944 C 0.10796 0.39501 0.76221 0.0
H945 H 0.10633 0.43301 0.81828 0.0
C946 C 0.11742 0.38241 0.78496 0.0
C947 C 0.1039 0.41346 0.77431 0.0
C948 C 0.09316 0.42732 0.75137 0.0
C949 C 0.1232 0.38791 0.8195 0.0
C950 C 0.11899 0.40633 0.83172 0.0
C951 C 0.10957 0.4189 0.80883 0.0
C952 C 0.12426 0.41309 0.86802 0.0
C953 C 0.13401 0.37407 0.8423 0.0
C954 C 0.11717 0.40429 0.89899 0.0
C955 C 0.121 0.41181 0.93299 0.0
C956 C 0.13175 0.42839 0.93643 0.0
C957 C 0.13906 0.43694 0.90537 0.0
C958 C 0.13536 0.42936 0.87157 0.0
H959 H 0.14052 0.36275 0.82579 0.0
H960 H 0.1453 0.38128 0.85781 0.0
H961 H 0.12418 0.36732 0.8616 0.0
H962 H 0.10823 0.39195 0.89684 0.0
H963 H 0.11509 0.40498 0.95642 0.0
H964 H 0.61432 0.62816 0.20667 0.0
H965 H 0.62836 0.62548 0.14664 0.0
H966 H 0.57269 0.6226 0.10005 0.0
H967 H 0.55862 0.62548 0.15941 0.0
H968 H 0.62424 0.5968 0.09584 0.0
H969 H 0.59763 0.66448 0.04204 0.0
H970 H 0.59766 0.65914 0.08939 0.0
H971 H 0.57923 0.65017 0.06083 0.0
C972 C 0.6051 0.62698 0.1836 0.0
C973 C 0.58536 0.62716 0.18779 0.0
C974 C 0.61313 0.62549 0.14937 0.0
C975 C 0.60155 0.62427 0.11887 0.0
C976 C 0.58188 0.62404 0.12313 0.0
H977 H 0.60661 0.5996 0.89564 0.0
H978 H 0.59864 0.60856 0.95716 0.0
C979 C 0.57387 0.62555 0.15717 0.0
C980 C 0.60983 0.62256 0.08252 0.0
H981 H 0.60837 0.64186 0.99866 0.0
C982 C 0.62105 0.6068 0.0747 0.0
C983 C 0.60565 0.63567 0.05504 0.0
C984 C 0.59454 0.65342 0.06228 0.0
C985 C 0.62743 0.60327 0.03966 0.0
C986 C 0.62263 0.61601 0.01194 0.0
C987 C 0.61194 0.6321 0.01999 0.0
C988 C 0.62764 0.61223 0.97407 0.0
C989 C 0.63853 0.58554 0.03222 0.0
C990 C 0.64656 0.6119 0.963 0.0
C991 C 0.65117 0.60683 0.92782 0.0
C992 C 0.63692 0.60202 0.90314 0.0
C993 C 0.61793 0.60317 0.91398 0.0
C994 C 0.61335 0.60828 0.94912 0.0
H995 H 0.63811 0.57556 0.05516 0.0
H996 H 0.633 0.57826 0.008 0.0
H997 H 0.6535 0.58929 0.02707 0.0
H998 H 0.65776 0.6152 0.98178 0.0
H999 H 0.66593 0.60615 0.92032 0.0
H1000 H 0.39248 0.0542 0.40888 0.0
H1001 H 0.39478 0.06556 0.34747 0.0
H1002 H 0.38659 0.12267 0.38417 0.0
H1003 H 0.38452 0.11139 0.44634 0.0
H1004 H 0.36763 0.08553 0.30807 0.0
H1005 H 0.43466 0.12601 0.32251 0.0
H1006 H 0.42697 0.10911 0.3556 0.0
H1007 H 0.41594 0.13186 0.35314 0.0
C1008 C 0.39124 0.06921 0.40408 0.0
C1009 C 0.38838 0.08191 0.43255 0.0
C1010 C 0.3925 0.07566 0.36888 0.0
C1011 C 0.39096 0.09494 0.36129 0.0
C1012 C 0.38808 0.10775 0.38955 0.0
H1013 H 0.41102 0.1442 0.14912 0.0
H1014 H 0.39974 0.14089 0.21082 0.0
C1015 C 0.38686 0.10128 0.42499 0.0
C1016 C 0.39235 0.1013 0.32355 0.0
H1017 H 0.4212 0.12451 0.26504 0.0
C1018 C 0.37922 0.09424 0.29868 0.0
C1019 C 0.40743 0.11272 0.31145 0.0
C1020 C 0.42217 0.12031 0.3369 0.0
C1021 C 0.38111 0.0978 0.26184 0.0
C1022 C 0.39666 0.10848 0.24958 0.0
C1023 C 0.40929 0.11629 0.27458 0.0
C1024 C 0.40107 0.11042 0.21092 0.0
C1025 C 0.36658 0.08987 0.23634 0.0
C1026 C 0.40531 0.09436 0.1904 0.0
C1027 C 0.41177 0.09618 0.15517 0.0
C1028 C 0.41421 0.11412 0.13986 0.0
C1029 C 0.40925 0.13017 0.16004 0.0
C1030 C 0.40284 0.12832 0.19534 0.0
H1031 H 0.3529 0.0873 0.25008 0.0
H1032 H 0.36417 0.09951 0.21335 0.0
H1033 H 0.37169 0.07617 0.22569 0.0
H1034 H 0.40439 0.08043 0.20214 0.0
H1035 H 0.41552 0.08355 0.14044 0.0
H1036 H 0.92428 0.93273 0.69735 0.0
H1037 H 0.91732 0.93391 0.63322 0.0
H1038 H 0.90159 0.87515 0.63491 0.0
H1039 H 0.90879 0.87373 0.69895 0.0
H1040 H 0.92742 0.88313 0.58253 0.0
H1041 H 0.86821 0.93402 0.57676 0.0
H1042 H 0.88818 0.94291 0.60114 0.0
H1043 H 0.87547 0.92279 0.61795 0.0
C1044 C 0.91897 0.92014 0.68429 0.0
C1045 C 0.91713 0.90313 0.70329 0.0
C1046 C 0.91493 0.92087 0.64761 0.0
C1047 C 0.90879 0.90465 0.62935 0.0
C1048 C 0.90627 0.88783 0.64851 0.0
H1049 H 0.87449 0.91026 0.40486 0.0
H1050 H 0.87554 0.90261 0.46872 0.0
C1051 C 0.91035 0.88707 0.68515 0.0
C1052 C 0.90651 0.90488 0.58983 0.0
H1053 H 0.8843 0.92785 0.52148 0.0
C1054 C 0.91783 0.89276 0.56916 0.0
C1055 C 0.89385 0.91727 0.57246 0.0
C1056 C 0.8806 0.92985 0.59322 0.0
C1057 C 0.9173 0.89317 0.53154 0.0
C1058 C 0.90537 0.90627 0.51417 0.0
C1059 C 0.89357 0.91791 0.53484 0.0
C1060 C 0.90532 0.90867 0.47468 0.0
C1061 C 0.9295 0.87957 0.51076 0.0
C1062 C 0.92181 0.91428 0.45668 0.0
C1063 C 0.92129 0.91857 0.4201 0.0
C1064 C 0.90421 0.91753 0.40095 0.0
C1065 C 0.88788 0.91123 0.4188 0.0
C1066 C 0.88843 0.90689 0.45533 0.0
H1067 H 0.93318 0.867 0.5271 0.0
H1068 H 0.92235 0.87479 0.48585 0.0
H1069 H 0.94287 0.8867 0.50317 0.0
H1070 H 0.93493 0.9161 0.47122 0.0
H1071 H 0.9341 0.9235 0.40726 0.0
H1072 H 0.10836 0.1201 0.8934 0.0
H1073 H 0.1214 0.11201 0.95223 0.0
H1074 H 0.0779 0.14489 1.00363 0.0
H1075 H 0.0645 0.15262 0.94505 0.0
H1076 H 0.13529 0.13248 0.00863 0.0
H1077 H 0.07069 0.09403 0.05037 0.0
H1078 H 0.07449 0.10171 1.00484 0.0
H1079 H 0.06627 0.1181 0.03825 0.0
C1080 C 0.10165 0.12574 0.91721 0.0
C1081 C 0.08525 0.13684 0.91452 0.0
C1082 C 0.10912 0.12109 0.95084 0.0
C1083 C 0.10037 0.12747 0.98242 0.0
C1084 C 0.08459 0.13936 0.97971 0.0
H1085 H 0.12071 0.10781 0.20979 0.0
H1086 H 0.11142 0.12133 0.15199 0.0
C1087 C 0.07701 0.14387 0.94615 0.0
C1088 C 0.10744 0.12129 0.01811 0.0
H1089 H 0.09419 0.09848 0.09485 0.0
C1090 C 0.12631 0.12502 0.02745 0.0
C1091 C 0.09577 0.11143 0.04262 0.0
C1092 C 0.07574 0.1059 0.03345 0.0
C1093 C 0.1337 0.11939 0.0608 0.0
C1094 C 0.12195 0.10974 0.08532 0.0
C1095 C 0.10311 0.10605 0.07607 0.0
C1096 C 0.12901 0.10275 0.12035 0.0
C1097 C 0.15395 0.12397 0.0698 0.0
C1098 C 0.14206 0.0879 0.1217 0.0
C1099 C 0.14731 0.08005 0.15465 0.0
C1100 C 0.13963 0.08694 0.18692 0.0
C1101 C 0.12697 0.10222 0.1855 0.0
C1102 C 0.12161 0.10994 0.1525 0.0
H1103 H 0.15996 0.13472 0.05138 0.0
H1104 H 0.15513 0.1292 0.09781 0.0
H1105 H 0.16258 0.11097 0.06754 0.0
H1106 H 0.14773 0.08197 0.09717 0.0
H1107 H 0.15706 0.06829 0.15475 0.0
H1108 H 0.94961 0.65723 0.40697 0.0
H1109 H 0.93664 0.65037 0.34758 0.0
H1110 H 0.89473 0.61413 0.3955 0.0
H1111 H 0.90729 0.6213 0.45501 0.0
H1112 H 0.93578 0.61678 0.31541 0.0
H1113 H 0.86249 0.64323 0.32637 0.0
H1114 H 0.88052 0.64918 0.3587 0.0
H1115 H 0.8683 0.62695 0.36145 0.0
C1116 C 0.93742 0.64805 0.40495 0.0
C1117 C 0.92949 0.63983 0.43579 0.0
C1118 C 0.93003 0.64413 0.37094 0.0
C1119 C 0.91454 0.63191 0.36699 0.0
C1120 C 0.90636 0.62397 0.39782 0.0
H1121 H 0.865 0.56875 0.19331 0.0
H1122 H 0.87373 0.58308 0.25071 0.0
C1123 C 0.91366 0.62801 0.43188 0.0
C1124 C 0.90801 0.62626 0.33057 0.0
H1125 H 0.86894 0.62241 0.27709 0.0
C1126 C 0.92121 0.61826 0.3069 0.0
C1127 C 0.88897 0.62812 0.31942 0.0
C1128 C 0.8743 0.63751 0.34269 0.0
C1129 C 0.91583 0.61159 0.27292 0.0
C1130 C 0.89676 0.61309 0.26212 0.0
C1131 C 0.88356 0.62127 0.2855 0.0
C1132 C 0.89022 0.60554 0.22712 0.0
C1133 C 0.93048 0.60245 0.24918 0.0
C1134 C 0.89624 0.61371 0.1948 0.0
C1135 C 0.89122 0.6056 0.16188 0.0
C1136 C 0.88014 0.58912 0.16073 0.0
C1137 C 0.87362 0.58138 0.19319 0.0
C1138 C 0.87855 0.58956 0.22605 0.0
H1139 H 0.94376 0.5994 0.2639 0.0
H1140 H 0.92497 0.58909 0.23766 0.0
H1141 H 0.93387 0.61205 0.22659 0.0
H1142 H 0.9051 0.62616 0.19508 0.0
H1143 H 0.89646 0.61195 0.13741 0.0
H1144 H 0.35773 0.44775 0.66668 0.0
H1145 H 0.3658 0.4342 0.60834 0.0
H1146 H 0.40541 0.39669 0.65944 0.0
H1147 H 0.39706 0.40982 0.71799 0.0
H1148 H 0.39943 0.43545 0.57613 0.0
H1149 H 0.37897 0.3606 0.59301 0.0
H1150 H 0.37157 0.37878 0.62389 0.0
H1151 H 0.39478 0.36862 0.62739 0.0
C1152 C 0.36794 0.4364 0.66561 0.0
C1153 C 0.37672 0.42986 0.69706 0.0
C1154 C 0.37255 0.42867 0.63218 0.0
C1155 C 0.38605 0.41424 0.62941 0.0
C1156 C 0.39461 0.40746 0.66086 0.0
H1157 H 0.45136 0.36603 0.45647 0.0
H1158 H 0.43716 0.37474 0.51399 0.0
C1159 C 0.38989 0.41508 0.69437 0.0
C1160 C 0.39221 0.40739 0.59348 0.0
H1161 H 0.39869 0.36773 0.54262 0.0
C1162 C 0.39905 0.42066 0.5687 0.0
C1163 C 0.39178 0.38808 0.58373 0.0
C1164 C 0.3837 0.37322 0.60827 0.0
C1165 C 0.40588 0.41513 0.53492 0.0
C1166 C 0.40574 0.39582 0.52544 0.0
C1167 C 0.39878 0.38253 0.55 0.0
C1168 C 0.41332 0.38921 0.4905 0.0
C1169 C 0.4137 0.42994 0.50993 0.0
C1170 C 0.40436 0.39406 0.45822 0.0
C1171 C 0.4124 0.38904 0.42523 0.0
C1172 C 0.4296 0.37913 0.42396 0.0
C1173 C 0.43817 0.37374 0.45643 0.0
C1174 C 0.43006 0.37867 0.48937 0.0
H1175 H 0.41602 0.44363 0.52376 0.0
H1176 H 0.42728 0.42519 0.49808 0.0
H1177 H 0.40358 0.43226 0.48763 0.0
H1178 H 0.39132 0.40203 0.45854 0.0
H1179 H 0.40541 0.3934 0.40078 0.0
H1180 H 0.61679 0.90579 0.63938 0.0
H1181 H 0.60781 0.89415 0.69881 0.0
H1182 H 0.64908 0.93086 0.74754 0.0
H1183 H 0.65782 0.94289 0.68842 0.0
H1184 H 0.62705 0.87669 0.75364 0.0
H1185 H 0.60107 0.94667 0.79828 0.0
H1186 H 0.60689 0.94169 0.75214 0.0
H1187 H 0.62526 0.94693 0.78399 0.0
C1188 C 0.62407 0.91128 0.66272 0.0
C1189 C 0.63788 0.92544 0.65914 0.0
C1190 C 0.6189 0.90462 0.69669 0.0
C1191 C 0.62745 0.91194 0.72773 0.0
C1192 C 0.64191 0.92537 0.72408 0.0
H1193 H 0.60952 0.89563 0.95668 0.0
H1194 H 0.62277 0.90295 0.89764 0.0
C1195 C 0.64698 0.93214 0.69019 0.0
C1196 C 0.62091 0.90594 0.76389 0.0
H1197 H 0.6024 0.92269 0.84241 0.0
C1198 C 0.62162 0.88674 0.77302 0.0
C1199 C 0.61372 0.91905 0.78916 0.0
C1200 C 0.61149 0.9397 0.78036 0.0
C1201 C 0.61564 0.88035 0.80689 0.0
C1202 C 0.60863 0.89349 0.83216 0.0
C1203 C 0.60793 0.91267 0.82308 0.0
C1204 C 0.60144 0.88767 0.86791 0.0
C1205 C 0.61709 0.85964 0.81562 0.0
C1206 C 0.58508 0.87659 0.87078 0.0
C1207 C 0.57741 0.87246 0.90447 0.0
C1208 C 0.58595 0.87932 0.93599 0.0
C1209 C 0.6026 0.89005 0.93301 0.0
C1210 C 0.61019 0.89428 0.89929 0.0
H1211 H 0.62665 0.85212 0.79681 0.0
H1212 H 0.62229 0.85757 0.84345 0.0
H1213 H 0.60287 0.85313 0.81362 0.0
H1214 H 0.57793 0.8716 0.8469 0.0
H1215 H 0.56456 0.86419 0.90574 0.0
H1216 H 0.1036 0.39375 0.4553 0.0
H1217 H 0.1161 0.40214 0.3962 0.0
H1218 H 0.0748 0.36607 0.34588 0.0
H1219 H 0.06195 0.35792 0.40473 0.0
H1220 H 0.13124 0.3814 0.34064 0.0
H1221 H 0.06493 0.41612 0.29697 0.0
H1222 H 0.06909 0.40931 0.3429 0.0
H1223 H 0.06182 0.39202 0.31034 0.0
C1224 C 0.09723 0.3875 0.43168 0.0
C1225 C 0.08163 0.37531 0.43478 0.0
C1226 C 0.10441 0.39232 0.39789 0.0
C1227 C 0.09613 0.38507 0.36653 0.0
C1228 C 0.0811 0.37224 0.36963 0.0
H1229 H 0.1157 0.40558 0.1386 0.0
H1230 H 0.10621 0.39195 0.19623 0.0
C1231 C 0.07385 0.3675 0.40335 0.0
C1232 C 0.10297 0.39122 0.33064 0.0
H1233 H 0.0889 0.4128 0.25315 0.0
C1234 C 0.12199 0.38828 0.32153 0.0
C1235 C 0.09091 0.40027 0.3057 0.0
C1236 C 0.0706 0.4048 0.31451 0.0
C1237 C 0.12921 0.39395 0.28806 0.0
C1238 C 0.11713 0.40294 0.26319 0.0
C1239 C 0.0981 0.40577 0.27217 0.0
C1240 C 0.12404 0.41019 0.22817 0.0
C1241 C 0.14965 0.39008 0.27939 0.0
C1242 C 0.13724 0.42495 0.22699 0.0
C1243 C 0.14263 0.43282 0.19414 0.0
C1244 C 0.13491 0.42611 0.16175 0.0
C1245 C 0.12198 0.41104 0.16298 0.0
C1246 C 0.11651 0.40325 0.1959 0.0
H1247 H 0.15572 0.37909 0.2972 0.0
H1248 H 0.15127 0.38549 0.25107 0.0
H1249 H 0.15794 0.40322 0.28311 0.0
H1250 H 0.14299 0.43074 0.25157 0.0
H1251 H 0.15257 0.44443 0.19423 0.0
H1252 H 0.61762 0.60774 0.70704 0.0
H1253 H 0.60928 0.61965 0.64752 0.0
H1254 H 0.65283 0.58518 0.60023 0.0
H1255 H 0.66095 0.57286 0.65947 0.0
H1256 H 0.62894 0.63855 0.59509 0.0
H1257 H 0.60652 0.56822 0.54522 0.0
H1258 H 0.61127 0.57276 0.59198 0.0
H1259 H 0.63042 0.56887 0.56114 0.0
C1260 C 0.62552 0.60278 0.68402 0.0
C1261 C 0.63982 0.58917 0.68801 0.0
C1262 C 0.62073 0.60961 0.64998 0.0
C1263 C 0.63014 0.603 0.61928 0.0
C1264 C 0.64503 0.59011 0.62339 0.0
H1265 H 0.6117 0.6219 0.39033 0.0
H1266 H 0.62567 0.61406 0.44857 0.0
C1267 C 0.64974 0.58317 0.65735 0.0
C1268 C 0.62405 0.60924 0.58298 0.0
H1269 H 0.60696 0.59303 0.5029 0.0
C1270 C 0.62413 0.62859 0.57493 0.0
C1271 C 0.61771 0.59626 0.55667 0.0
C1272 C 0.61627 0.57539 0.5642 0.0
C1273 C 0.61821 0.63528 0.54125 0.0
C1274 C 0.61187 0.62229 0.51505 0.0
C1275 C 0.61195 0.60295 0.52295 0.0
C1276 C 0.60431 0.62843 0.47978 0.0
C1277 C 0.61894 0.65617 0.53383 0.0
C1278 C 0.58769 0.63916 0.47798 0.0
C1279 C 0.57964 0.6436 0.44479 0.0
C1280 C 0.58802 0.63738 0.41266 0.0
C1281 C 0.60491 0.62699 0.41452 0.0
C1282 C 0.6129 0.62246 0.44778 0.0
H1283 H 0.62855 0.66361 0.55269 0.0
H1284 H 0.62368 0.65895 0.50593 0.0
H1285 H 0.60459 0.6622 0.53706 0.0
H1286 H 0.58063 0.64362 0.50232 0.0
H1287 H 0.5666 0.65158 0.44439 0.0
H1288 H 0.35942 0.07619 0.68856 0.0
H1289 H 0.36867 0.08928 0.7466 0.0
H1290 H 0.41142 0.12298 0.69485 0.0
H1291 H 0.40196 0.11026 0.6365 0.0
H1292 H 0.40249 0.08523 0.77841 0.0
H1293 H 0.38776 0.16143 0.76099 0.0
H1294 H 0.37877 0.14374 0.73057 0.0
H1295 H 0.40275 0.15189 0.72668 0.0
C1296 C 0.37059 0.08661 0.6894 0.0
C1297 C 0.37993 0.09218 0.65782 0.0
C1298 C 0.37588 0.09407 0.72266 0.0
C1299 C 0.39062 0.10728 0.72517 0.0
C1300 C 0.39973 0.11315 0.69361 0.0
H1301 H 0.45667 0.15097 0.90304 0.0
H1302 H 0.4434 0.14333 0.8441 0.0
C1303 C 0.39436 0.10578 0.66023 0.0
C1304 C 0.39731 0.11372 0.76102 0.0
H1305 H 0.40597 0.15282 0.81233 0.0
C1306 C 0.40308 0.10001 0.78589 0.0
C1307 C 0.39817 0.13301 0.77079 0.0
C1308 C 0.39137 0.14837 0.746 0.0
C1309 C 0.40995 0.10505 0.81991 0.0
C1310 C 0.41092 0.12431 0.82956 0.0
C1311 C 0.40519 0.13806 0.80481 0.0
C1312 C 0.41811 0.13032 0.86519 0.0
C1313 C 0.4165 0.08973 0.84508 0.0
C1314 C 0.40806 0.12594 0.89654 0.0
C1315 C 0.41555 0.13035 0.93028 0.0
C1316 C 0.43329 0.13918 0.9333 0.0
C1317 C 0.44302 0.14411 0.90173 0.0
C1318 C 0.43545 0.13978 0.868 0.0
H1319 H 0.4183 0.076 0.83112 0.0
H1320 H 0.4301 0.09369 0.85788 0.0
H1321 H 0.40588 0.08785 0.86667 0.0
H1322 H 0.39455 0.11881 0.89492 0.0
H1323 H 0.40766 0.12638 0.95398 0.0
H1324 H 0.8959 0.90566 0.2093 0.0
H1325 H 0.90303 0.89315 0.14961 0.0
H1326 H 0.86339 0.93213 0.10278 0.0
H1327 H 0.85654 0.94505 0.16221 0.0
H1328 H 0.88202 0.87666 0.09622 0.0
H1329 H 0.91143 0.94487 0.04925 0.0
H1330 H 0.90596 0.94045 0.09573 0.0
H1331 H 0.88748 0.94646 0.06466 0.0
C1332 C 0.88857 0.91148 0.18635 0.0
C1333 C 0.87581 0.92653 0.19052 0.0
C1334 C 0.89267 0.9043 0.15222 0.0
C1335 C 0.88408 0.91199 0.1216 0.0
C1336 C 0.87058 0.92632 0.12589 0.0
H1337 H 0.9013 0.89324 0.8925 0.0
H1338 H 0.88766 0.90129 0.95092 0.0
C1339 C 0.86659 0.93361 0.15995 0.0
C1340 C 0.88973 0.90546 0.0852 0.0
H1341 H 0.90871 0.9206 1.00599 0.0
C1342 C 0.88785 0.88626 0.07649 0.0
C1343 C 0.89744 0.91799 0.05948 0.0
C1344 C 0.90089 0.93855 0.06777 0.0
C1345 C 0.89332 0.87931 0.04268 0.0
C1346 C 0.90096 0.89186 0.01705 0.0
C1347 C 0.90269 0.91105 0.02562 0.0
C1348 C 0.90803 0.88534 0.98165 0.0
C1349 C 0.89074 0.85864 0.03449 0.0
C1350 C 0.92393 0.8736 0.97954 0.0
C1351 C 0.93182 0.86905 0.94623 0.0
C1352 C 0.92397 0.87617 0.91432 0.0
C1353 C 0.90767 0.88746 0.91649 0.0
C1354 C 0.89987 0.8921 0.94986 0.0
H1355 H 0.88072 0.85182 0.05339 0.0
H1356 H 0.88552 0.85659 1.00666 0.0
H1357 H 0.90457 0.85139 0.03687 0.0
H1358 H 0.93063 0.86847 1.00375 0.0
H1359 H 0.94438 0.86035 0.94557 0.0
loop_
_geom_bond_atom_site_label_1
_geom_bond_atom_site_label_2
_geom_bond_distance
_geom_bond_site_symmetry_2
_ccdc_geom_bond_type
Mg0 O7 2.141 . S
Mg0 O8 2.048 . S
Mg0 O9 2.048 . S
Mg0 O12 2.141 . S
C1 O2 1.313 . S
C1 O8 1.195 . S
O2 C1 1.313 . S
C3 O4 1.245 . S
C3 O12 1.289 . S
O4 C3 1.245 . S
C5 O6 1.245 . S
C5 O7 1.289 . S
O6 C5 1.245 . S
O7 Mg0 2.141 . S
O7 C5 1.289 . S
O8 Mg0 2.048 . S
O8 C1 1.195 . S
O9 Mg0 2.048 . S
O9 C10 1.195 . S
C10 O9 1.195 . S
C10 O11 1.313 . S
O11 C10 1.313 . S
O12 Mg0 2.141 . S
O12 C3 1.289 . S
Mg13 O20 2.141 . S
Mg13 O21 2.048 . S
Mg13 O22 2.048 . S
Mg13 O25 2.141 . S
C14 O15 1.313 . S
C14 O21 1.195 . S
O15 C14 1.313 . S
C16 O17 1.245 . S
C16 O25 1.289 . S
O17 C16 1.245 . S
C18 O19 1.245 . S
C18 O20 1.289 . S
O19 C18 1.245 . S
O20 Mg13 2.141 . S
O20 C18 1.289 . S
O21 Mg13 2.048 . S
O21 C14 1.195 . S
O22 Mg13 2.048 . S
O22 C23 1.195 . S
C23 O22 1.195 . S
C23 O24 1.313 . S
O24 C23 1.313 . S
O25 Mg13 2.141 . S
O25 C16 1.289 . S
Mg26 O33 2.141 . S
Mg26 O34 2.048 . S
Mg26 O35 2.048 . S
Mg26 O38 2.141 . S
C27 O28 1.313 . S
C27 O34 1.195 . S
O28 C27 1.313 . S
C29 O30 1.245 . S
C29 O38 1.289 . S
O30 C29 1.245 . S
C31 O32 1.245 . S
C31 O33 1.289 . S
O32 C31 1.245 . S
O33 Mg26 2.141 . S
O33 C31 1.289 . S
O34 Mg26 2.048 . S
O34 C27 1.195 . S
O35 Mg26 2.048 . S
O35 C36 1.195 . S
C36 O35 1.195 . S
C36 O37 1.313 . S
O37 C36 1.313 . S
O38 Mg26 2.141 . S
O38 C29 1.289 . S
Mg39 O46 2.141 . S
Mg39 O47 2.048 . S
Mg39 O48 2.048 . S
Mg39 O51 2.141 . S
C40 O41 1.313 . S
C40 O47 1.195 . S
O41 C40 1.313 . S
C42 O43 1.245 . S
C42 O51 1.289 1_556 S
O43 C42 1.245 . S
C44 O45 1.245 . S
C44 O46 1.289 . S
O45 C44 1.245 . S
O46 Mg39 2.141 . S
O46 C44 1.289 . S
O47 Mg39 2.048 . S
O47 C40 1.195 . S
O48 Mg39 2.048 . S
O48 C49 1.195 . S
C49 O48 1.195 . S
C49 O50 1.313 . S
O50 C49 1.313 . S
O51 Mg39 2.141 . S
O51 C42 1.289 1_554 S
Mg52 O59 2.141 . S
Mg52 O60 2.048 1_554 S
Mg52 O61 2.048 . S
Mg52 O64 2.141 . S
C53 O54 1.313 . S
C53 O60 1.195 . S
O54 C53 1.313 . S
C55 O56 1.245 . S
C55 O64 1.289 . S
O56 C55 1.245 . S
C57 O58 1.245 . S
C57 O59 1.289 . S
O58 C57 1.245 . S
O59 Mg52 2.141 . S
O59 C57 1.289 . S
O60 Mg52 2.048 1_556 S
O60 C53 1.195 . S
O61 Mg52 2.048 . S
O61 C62 1.195 . S
C62 O61 1.195 . S
C62 O63 1.313 . S
O63 C62 1.313 . S
O64 Mg52 2.141 . S
O64 C55 1.289 . S
Mg65 O72 2.141 . S
Mg65 O73 2.048 . S
Mg65 O74 2.048 . S
Mg65 O77 2.141 . S
C66 O67 1.313 . S
C66 O73 1.195 . S
O67 C66 1.313 . S
C68 O69 1.245 . S
C68 O77 1.289 . S
O69 C68 1.245 . S
C70 O71 1.245 . S
C70 O72 1.289 . S
O71 C70 1.245 . S
O72 Mg65 2.141 . S
O72 C70 1.289 . S
O73 Mg65 2.048 . S
O73 C66 1.195 . S
O74 Mg65 2.048 . S
O74 C75 1.195 . S
C75 O74 1.195 . S
C75 O76 1.313 . S
O76 C75 1.313 . S
O77 Mg65 2.141 . S
O77 C68 1.289 . S
Mg78 O85 2.141 . S
Mg78 O86 2.048 . S
Mg78 O87 2.048 . S
Mg78 O90 2.141 . S
C79 O80 1.313 . S
C79 O86 1.195 . S
O80 C79 1.313 . S
C81 O82 1.245 . S
C81 O90 1.289 . S
O82 C81 1.245 . S
C83 O84 1.245 . S
C83 O85 1.289 . S
O84 C83 1.245 . S
O85 Mg78 2.141 . S
O85 C83 1.289 . S
O86 Mg78 2.048 . S
O86 C79 1.195 . S
O87 Mg78 2.048 . S
O87 C88 1.195 . S
C88 O87 1.195 . S
C88 O89 1.313 . S
O89 C88 1.313 . S
O90 Mg78 2.141 . S
O90 C81 1.289 . S
Mg91 O98 2.141 . S
Mg91 O99 2.048 . S
Mg91 O100 2.048 . S
Mg91 O103 2.141 . S
C92 O93 1.313 . S
C92 O99 1.195 . S
O93 C92 1.313 . S
C94 O95 1.245 . S
C94 O103 1.289 . S
O95 C94 1.245 . S
C96 O97 1.245 . S
C96 O98 1.289 . S
O97 C96 1.245 . S
O98 Mg91 2.141 . S
O98 C96 1.289 . S
O99 Mg91 2.048 . S
O99 C92 1.195 . S
O100 Mg91 2.048 . S
O100 C101 1.195 . S
C101 O100 1.195 . S
C101 O102 1.313 . S
O102 C101 1.313 . S
O103 Mg91 2.141 . S
O103 C94 1.289 . S
Mg104 O111 2.141 . S
Mg104 O112 2.048 . S
Mg104 O113 2.048 . S
Mg104 O116 2.141 . S
C105 O106 1.313 . S
C105 O112 1.195 . S
O106 C105 1.313 . S
C107 O108 1.245 . S
C107 O116 1.289 . S
O108 C107 1.245 . S
C109 O110 1.245 . S
C109 O111 1.289 . S
O110 C109 1.245 . S
O111 Mg104 2.141 . S
O111 C109 1.289 . S
O112 Mg104 2.048 . S
O112 C105 1.195 . S
O113 Mg104 2.048 . S
O113 C114 1.195 . S
C114 O113 1.195 . S
C114 O115 1.313 . S
O115 C114 1.313 . S
O116 Mg104 2.141 . S
O116 C107 1.289 . S
Mg117 O124 2.141 . S
Mg117 O125 2.048 . S
Mg117 O126 2.048 . S
Mg117 O129 2.141 . S
C118 O119 1.313 . S
C118 O125 1.195 . S
O119 C118 1.313 . S
C120 O121 1.245 . S
C120 O129 1.289 1_556 S
O121 C120 1.245 . S
C122 O123 1.245 . S
C122 O124 1.289 . S
O123 C122 1.245 . S
O124 Mg117 2.141 . S
O124 C122 1.289 . S
O125 Mg117 2.048 . S
O125 C118 1.195 . S
O126 Mg117 2.048 . S
O126 C127 1.195 . S
C127 O126 1.195 . S
C127 O128 1.313 . S
O128 C127 1.313 . S
O129 Mg117 2.141 . S
O129 C120 1.289 1_554 S
Mg130 O137 2.141 . S
Mg130 O138 2.048 . S
Mg130 O139 2.048 . S
Mg130 O142 2.141 . S
C131 O132 1.313 . S
C131 O138 1.195 . S
O132 C131 1.313 . S
C133 O134 1.245 . S
C133 O142 1.289 . S
O134 C133 1.245 . S
C135 O136 1.245 . S
C135 O137 1.289 . S
O136 C135 1.245 . S
O137 Mg130 2.141 . S
O137 C135 1.289 . S
O138 Mg130 2.048 . S
O138 C131 1.195 . S
O139 Mg130 2.048 . S
O139 C140 1.195 . S
C140 O139 1.195 . S
C140 O141 1.313 . S
O141 C140 1.313 . S
O142 Mg130 2.141 . S
O142 C133 1.289 . S
Mg143 O150 2.141 . S
Mg143 O151 2.048 . S
Mg143 O152 2.048 . S
Mg143 O155 2.141 . S
C144 O145 1.313 . S
C144 O151 1.195 . S
O145 C144 1.313 . S
C146 O147 1.245 . S
C146 O155 1.289 . S
O147 C146 1.245 . S
C148 O149 1.245 . S
C148 O150 1.289 . S
O149 C148 1.245 . S
O150 Mg143 2.141 . S
O150 C148 1.289 . S
O151 Mg143 2.048 . S
O151 C144 1.195 . S
O152 Mg143 2.048 . S
O152 C153 1.195 . S
C153 O152 1.195 . S
C153 O154 1.313 . S
O154 C153 1.313 . S
O155 Mg143 2.141 . S
O155 C146 1.289 . S
Mg156 O163 2.141 . S
Mg156 O164 2.048 . S
Mg156 O165 2.048 . S
Mg156 O168 2.141 . S
C157 O158 1.313 . S
C157 O164 1.195 . S
O158 C157 1.313 . S
C159 O160 1.245 . S
C159 O168 1.289 . S
O160 C159 1.245 . S
C161 O162 1.245 . S
C161 O163 1.289 . S
O162 C161 1.245 . S
O163 Mg156 2.141 . S
O163 C161 1.289 . S
O164 Mg156 2.048 . S
O164 C157 1.195 . S
O165 Mg156 2.048 . S
O165 C166 1.195 . S
C166 O165 1.195 . S
C166 O167 1.313 . S
O167 C166 1.313 . S
O168 Mg156 2.141 . S
O168 C159 1.289 . S
Mg169 O176 2.141 . S
Mg169 O177 2.048 . S
Mg169 O178 2.048 . S
Mg169 O181 2.141 . S
C170 O171 1.313 . S
C170 O177 1.195 . S
O171 C170 1.313 . S
C172 O173 1.245 . S
C172 O181 1.289 . S
O173 C172 1.245 . S
C174 O175 1.245 . S
C174 O176 1.289 . S
O175 C174 1.245 . S
O176 Mg169 2.141 . S
O176 C174 1.289 . S
O177 Mg169 2.048 . S
O177 C170 1.195 . S
O178 Mg169 2.048 . S
O178 C179 1.195 . S
C179 O178 1.195 . S
C179 O180 1.313 . S
O180 C179 1.313 . S
O181 Mg169 2.141 . S
O181 C172 1.289 . S
Mg182 O189 2.141 . S
Mg182 O190 2.048 1_554 S
Mg182 O191 2.048 . S
Mg182 O194 2.141 . S
C183 O184 1.313 . S
C183 O190 1.195 . S
O184 C183 1.313 . S
C185 O186 1.245 . S
C185 O194 1.289 . S
O186 C185 1.245 . S
C187 O188 1.245 . S
C187 O189 1.289 . S
O188 C187 1.245 . S
O189 Mg182 2.141 . S
O189 C187 1.289 . S
O190 Mg182 2.048 1_556 S
O190 C183 1.195 . S
O191 Mg182 2.048 . S
O191 C192 1.195 . S
C192 O191 1.195 . S
C192 O193 1.313 . S
O193 C192 1.313 . S
O194 Mg182 2.141 . S
O194 C185 1.289 . S
Mg195 O202 2.141 . S
Mg195 O203 2.048 . S
Mg195 O204 2.048 . S
Mg195 O207 2.141 . S
C196 O197 1.313 . S
C196 O203 1.195 . S
O197 C196 1.313 . S
C198 O199 1.245 . S
C198 O207 1.289 . S
O199 C198 1.245 . S
C200 O201 1.245 . S
C200 O202 1.289 . S
O201 C200 1.245 . S
O202 Mg195 2.141 . S
O202 C200 1.289 . S
O203 Mg195 2.048 . S
O203 C196 1.195 . S
O204 Mg195 2.048 . S
O204 C205 1.195 . S
C205 O204 1.195 . S
C205 O206 1.313 . S
O206 C205 1.313 . S
O207 Mg195 2.141 . S
O207 C198 1.289 . S
H208 C216 0.929 . S
H209 C218 0.930 . S
H210 C220 0.930 . S
H211 C223 0.929 . S
H212 C226 0.930 . S
H213 C228 0.960 . S
H214 C228 0.960 . S
H215 C228 0.960 . S
C216 H208 0.929 . S
C216 C217 1.377 . S
C216 C218 1.384 . S
C217 C216 1.377 . S
C217 C223 1.390 . S
C218 H209 0.930 . S
C218 C216 1.384 . S
C218 C219 1.372 . S
C219 C218 1.372 . S
C219 C220 1.400 . S
C219 C224 1.490 . S
C220 H210 0.930 . S
C220 C219 1.400 . S
C220 C223 1.386 . S
H221 C237 0.930 . S
H222 C238 0.931 . S
C223 H211 0.929 . S
C223 C217 1.390 . S
C223 C220 1.386 . S
C224 C219 1.490 . S
C224 C226 1.395 . S
C224 C227 1.403 . S
H225 C231 0.930 . S
C226 H212 0.930 . S
C226 C224 1.395 . S
C226 C229 1.403 . S
C227 C224 1.403 . S
C227 C228 1.524 . S
C227 C231 1.400 . S
C228 H213 0.960 . S
C228 H214 0.960 . S
C228 H215 0.960 . S
C228 C227 1.524 . S
C229 C226 1.403 . S
C229 C230 1.392 . S
C229 C233 1.495 . S
C230 C229 1.392 . S
C230 C231 1.385 . S
C230 C232 1.478 . S
C231 H225 0.930 . S
C231 C227 1.400 . S
C231 C230 1.385 . S
C232 C230 1.478 . S
C232 C234 1.381 . S
C232 C238 1.383 . S
C233 C229 1.495 . S
C233 H239 0.959 . S
C233 H240 0.961 . S
C233 H241 0.960 . S
C234 C232 1.381 . S
C234 C235 1.394 . S
C234 H242 0.930 . S
C235 C234 1.394 . S
C235 C236 1.383 . S
C235 H243 0.929 . S
C236 C235 1.383 . S
C236 C237 1.377 . S
C237 H221 0.930 . S
C237 C236 1.377 . S
C237 C238 1.379 . S
C238 H222 0.931 . S
C238 C232 1.383 . S
C238 C237 1.379 . S
H239 C233 0.959 . S
H240 C233 0.961 . S
H241 C233 0.960 . S
H242 C234 0.930 . S
H243 C235 0.929 . S
H244 C252 0.929 . S
H245 C254 0.930 . S
H246 C256 0.930 . S
H247 C259 0.929 . S
H248 C262 0.930 . S
H249 C264 0.960 . S
H250 C264 0.960 . S
H251 C264 0.960 . S
C252 H244 0.929 . S
C252 C253 1.377 . S
C252 C254 1.384 . S
C253 C252 1.377 . S
C253 C259 1.390 . S
C254 H245 0.930 . S
C254 C252 1.384 . S
C254 C255 1.372 . S
C255 C254 1.372 . S
C255 C256 1.400 . S
C255 C260 1.490 . S
C256 H246 0.930 . S
C256 C255 1.400 . S
C256 C259 1.386 . S
H257 C273 0.930 . S
H258 C274 0.931 . S
C259 H247 0.929 . S
C259 C253 1.390 . S
C259 C256 1.386 . S
C260 C255 1.490 . S
C260 C262 1.395 . S
C260 C263 1.403 . S
H261 C267 0.930 . S
C262 H248 0.930 . S
C262 C260 1.395 . S
C262 C265 1.403 . S
C263 C260 1.403 . S
C263 C264 1.524 . S
C263 C267 1.400 . S
C264 H249 0.960 . S
C264 H250 0.960 . S
C264 H251 0.960 . S
C264 C263 1.524 . S
C265 C262 1.403 . S
C265 C266 1.392 . S
C265 C269 1.495 . S
C266 C265 1.392 . S
C266 C267 1.385 . S
C266 C268 1.478 . S
C267 H261 0.930 . S
C267 C263 1.400 . S
C267 C266 1.385 . S
C268 C266 1.478 . S
C268 C270 1.381 . S
C268 C274 1.383 . S
C269 C265 1.495 . S
C269 H275 0.959 . S
C269 H276 0.961 . S
C269 H277 0.960 . S
C270 C268 1.381 . S
C270 C271 1.394 . S
C270 H278 0.930 . S
C271 C270 1.394 . S
C271 C272 1.383 . S
C271 H279 0.929 . S
C272 C271 1.383 . S
C272 C273 1.377 . S
C273 H257 0.930 . S
C273 C272 1.377 . S
C273 C274 1.379 . S
C274 H258 0.931 . S
C274 C268 1.383 . S
C274 C273 1.379 . S
H275 C269 0.959 . S
H276 C269 0.961 . S
H277 C269 0.960 . S
H278 C270 0.930 . S
H279 C271 0.929 . S
H280 C288 0.929 . S
H281 C290 0.930 . S
H282 C292 0.930 . S
H283 C295 0.929 . S
H284 C298 0.930 . S
H285 C300 0.960 . S
H286 C300 0.960 . S
H287 C300 0.960 . S
C288 H280 0.929 . S
C288 C289 1.377 . S
C288 C290 1.384 . S
C289 C288 1.377 . S
C289 C295 1.390 . S
C290 H281 0.930 . S
C290 C288 1.384 . S
C290 C291 1.372 . S
C291 C290 1.372 . S
C291 C292 1.400 . S
C291 C296 1.490 . S
C292 H282 0.930 . S
C292 C291 1.400 . S
C292 C295 1.386 . S
H293 C309 0.930 . S
H294 C310 0.931 . S
C295 H283 0.929 . S
C295 C289 1.390 . S
C295 C292 1.386 . S
C296 C291 1.490 . S
C296 C298 1.395 . S
C296 C299 1.403 . S
H297 C303 0.930 . S
C298 H284 0.930 . S
C298 C296 1.395 . S
C298 C301 1.403 . S
C299 C296 1.403 . S
C299 C300 1.524 . S
C299 C303 1.400 . S
C300 H285 0.960 . S
C300 H286 0.960 . S
C300 H287 0.960 . S
C300 C299 1.524 . S
C301 C298 1.403 . S
C301 C302 1.392 . S
C301 C305 1.495 . S
C302 C301 1.392 . S
C302 C303 1.385 . S
C302 C304 1.478 . S
C303 H297 0.930 . S
C303 C299 1.400 . S
C303 C302 1.385 . S
C304 C302 1.478 . S
C304 C306 1.381 . S
C304 C310 1.383 . S
C305 C301 1.495 . S
C305 H311 0.959 . S
C305 H312 0.961 1_556 S
C305 H313 0.960 . S
C306 C304 1.381 . S
C306 C307 1.394 . S
C306 H314 0.930 . S
C307 C306 1.394 . S
C307 C308 1.383 . S
C307 H315 0.929 . S
C308 C307 1.383 . S
C308 C309 1.377 . S
C309 H293 0.930 . S
C309 C308 1.377 . S
C309 C310 1.379 . S
C310 H294 0.931 . S
C310 C304 1.383 . S
C310 C309 1.379 . S
H311 C305 0.959 . S
H312 C305 0.961 1_554 S
H313 C305 0.960 . S
H314 C306 0.930 . S
H315 C307 0.929 . S
H316 C324 0.929 . S
H317 C326 0.930 . S
H318 C328 0.930 . S
H319 C331 0.929 . S
H320 C334 0.930 . S
H321 C336 0.960 . S
H322 C336 0.960 . S
H323 C336 0.960 . S
C324 H316 0.929 . S
C324 C325 1.377 . S
C324 C326 1.384 . S
C325 C324 1.377 . S
C325 C331 1.390 . S
C326 H317 0.930 . S
C326 C324 1.384 . S
C326 C327 1.372 . S
C327 C326 1.372 . S
C327 C328 1.400 . S
C327 C332 1.490 . S
C328 H318 0.930 . S
C328 C327 1.400 . S
C328 C331 1.386 . S
H329 C345 0.930 . S
H330 C346 0.931 . S
C331 H319 0.929 . S
C331 C325 1.390 . S
C331 C328 1.386 . S
C332 C327 1.490 . S
C332 C334 1.395 . S
C332 C335 1.403 . S
H333 C339 0.930 . S
C334 H320 0.930 . S
C334 C332 1.395 . S
C334 C337 1.403 . S
C335 C332 1.403 . S
C335 C336 1.524 . S
C335 C339 1.400 . S
C336 H321 0.960 . S
C336 H322 0.960 . S
C336 H323 0.960 . S
C336 C335 1.524 . S
C337 C334 1.403 . S
C337 C338 1.392 . S
C337 C341 1.495 . S
C338 C337 1.392 . S
C338 C339 1.385 . S
C338 C340 1.478 . S
C339 H333 0.930 . S
C339 C335 1.400 . S
C339 C338 1.385 . S
C340 C338 1.478 . S
C340 C342 1.381 . S
C340 C346 1.383 . S
C341 C337 1.495 . S
C341 H347 0.959 . S
C341 H348 0.961 . S
C341 H349 0.960 . S
C342 C340 1.381 . S
C342 C343 1.394 . S
C342 H350 0.930 . S
C343 C342 1.394 . S
C343 C344 1.383 . S
C343 H351 0.929 . S
C344 C343 1.383 . S
C344 C345 1.377 . S
C345 H329 0.930 . S
C345 C344 1.377 . S
C345 C346 1.379 . S
C346 H330 0.931 . S
C346 C340 1.383 . S
C346 C345 1.379 . S
H347 C341 0.959 . S
H348 C341 0.961 . S
H349 C341 0.960 . S
H350 C342 0.930 . S
H351 C343 0.929 . S
H352 C360 0.929 . S
H353 C362 0.930 . S
H354 C364 0.930 . S
H355 C367 0.929 . S
H356 C370 0.930 . S
H357 C372 0.960 . S
H358 C372 0.960 . S
H359 C372 0.960 . S
C360 H352 0.929 . S
C360 C361 1.377 . S
C360 C362 1.384 . S
C361 C360 1.377 . S
C361 C367 1.390 . S
C362 H353 0.930 . S
C362 C360 1.384 . S
C362 C363 1.372 . S
C363 C362 1.372 . S
C363 C364 1.400 . S
C363 C368 1.490 . S
C364 H354 0.930 . S
C364 C363 1.400 . S
C364 C367 1.386 . S
H365 C381 0.930 . S
H366 C382 0.931 . S
C367 H355 0.929 . S
C367 C361 1.390 . S
C367 C364 1.386 . S
C368 C363 1.490 . S
C368 C370 1.395 . S
C368 C371 1.403 . S
H369 C375 0.930 . S
C370 H356 0.930 . S
C370 C368 1.395 . S
C370 C373 1.403 . S
C371 C368 1.403 . S
C371 C372 1.524 . S
C371 C375 1.400 . S
C372 H357 0.960 . S
C372 H358 0.960 . S
C372 H359 0.960 . S
C372 C371 1.524 . S
C373 C370 1.403 . S
C373 C374 1.392 . S
C373 C377 1.495 . S
C374 C373 1.392 . S
C374 C375 1.385 . S
C374 C376 1.478 . S
C375 H369 0.930 . S
C375 C371 1.400 . S
C375 C374 1.385 . S
C376 C374 1.478 . S
C376 C378 1.381 . S
C376 C382 1.383 . S
C377 C373 1.495 . S
C377 H383 0.959 . S
C377 H384 0.961 1_556 S
C377 H385 0.960 . S
C378 C376 1.381 . S
C378 C379 1.394 . S
C378 H386 0.930 . S
C379 C378 1.394 . S
C379 C380 1.383 . S
C379 H387 0.929 . S
C380 C379 1.383 . S
C380 C381 1.377 . S
C381 H365 0.930 . S
C381 C380 1.377 . S
C381 C382 1.379 . S
C382 H366 0.931 . S
C382 C376 1.383 . S
C382 C381 1.379 . S
H383 C377 0.959 . S
H384 C377 0.961 1_554 S
H385 C377 0.960 . S
H386 C378 0.930 . S
H387 C379 0.929 . S
H388 C396 0.929 . S
H389 C398 0.930 . S
H390 C400 0.930 . S
H391 C403 0.929 . S
H392 C406 0.930 . S
H393 C408 0.960 . S
H394 C408 0.960 . S
H395 C408 0.960 . S
C396 H388 0.929 . S
C396 C397 1.377 . S
C396 C398 1.384 . S
C397 C396 1.377 . S
C397 C403 1.390 . S
C398 H389 0.930 . S
C398 C396 1.384 . S
C398 C399 1.372 . S
C399 C398 1.372 . S
C399 C400 1.400 . S
C399 C404 1.490 . S
C400 H390 0.930 . S
C400 C399 1.400 . S
C400 C403 1.386 . S
H401 C417 0.930 . S
H402 C418 0.931 . S
C403 H391 0.929 . S
C403 C397 1.390 . S
C403 C400 1.386 . S
C404 C399 1.490 . S
C404 C406 1.395 . S
C404 C407 1.403 . S
H405 C411 0.930 . S
C406 H392 0.930 . S
C406 C404 1.395 . S
C406 C409 1.403 . S
C407 C404 1.403 . S
C407 C408 1.524 . S
C407 C411 1.400 . S
C408 H393 0.960 . S
C408 H394 0.960 . S
C408 H395 0.960 . S
C408 C407 1.524 . S
C409 C406 1.403 . S
C409 C410 1.392 . S
C409 C413 1.495 . S
C410 C409 1.392 . S
C410 C411 1.385 . S
C410 C412 1.478 . S
C411 H405 0.930 . S
C411 C407 1.400 . S
C411 C410 1.385 . S
C412 C410 1.478 . S
C412 C414 1.381 . S
C412 C418 1.383 . S
C413 C409 1.495 . S
C413 H419 0.959 . S
C413 H420 0.961 . S
C413 H421 0.960 . S
C414 C412 1.381 . S
C414 C415 1.394 . S
C414 H422 0.930 . S
C415 C414 1.394 . S
C415 C416 1.383 . S
C415 H423 0.929 . S
C416 C415 1.383 . S
C416 C417 1.377 . S
C417 H401 0.930 . S
C417 C416 1.377 . S
C417 C418 1.379 . S
C418 H402 0.931 . S
C418 C412 1.383 . S
C418 C417 1.379 . S
H419 C413 0.959 . S
H420 C413 0.961 . S
H421 C413 0.960 . S
H422 C414 0.930 . S
H423 C415 0.929 . S
H424 C432 0.929 . S
H425 C434 0.930 . S
H426 C436 0.930 . S
H427 C439 0.929 . S
H428 C442 0.930 . S
H429 C444 0.960 . S
H430 C444 0.960 . S
H431 C444 0.960 . S
C432 H424 0.929 . S
C432 C433 1.377 . S
C432 C434 1.384 . S
C433 C432 1.377 . S
C433 C439 1.390 . S
C434 H425 0.930 . S
C434 C432 1.384 . S
C434 C435 1.372 . S
C435 C434 1.372 . S
C435 C436 1.400 . S
C435 C440 1.490 . S
C436 H426 0.930 . S
C436 C435 1.400 . S
C436 C439 1.386 . S
H437 C453 0.930 . S
H438 C454 0.931 . S
C439 H427 0.929 . S
C439 C433 1.390 . S
C439 C436 1.386 . S
C440 C435 1.490 . S
C440 C442 1.395 . S
C440 C443 1.403 . S
H441 C447 0.930 . S
C442 H428 0.930 . S
C442 C440 1.395 . S
C442 C445 1.403 . S
C443 C440 1.403 . S
C443 C444 1.524 . S
C443 C447 1.400 . S
C444 H429 0.960 . S
C444 H430 0.960 . S
C444 H431 0.960 . S
C444 C443 1.524 . S
C445 C442 1.403 . S
C445 C446 1.392 . S
C445 C449 1.495 . S
C446 C445 1.392 . S
C446 C447 1.385 . S
C446 C448 1.478 . S
C447 H441 0.930 . S
C447 C443 1.400 . S
C447 C446 1.385 . S
C448 C446 1.478 . S
C448 C450 1.381 . S
C448 C454 1.383 . S
C449 C445 1.495 . S
C449 H455 0.959 . S
C449 H456 0.961 . S
C449 H457 0.960 . S
C450 C448 1.381 . S
C450 C451 1.394 . S
C450 H458 0.930 . S
C451 C450 1.394 . S
C451 C452 1.383 . S
C451 H459 0.929 . S
C452 C451 1.383 . S
C452 C453 1.377 . S
C453 H437 0.930 . S
C453 C452 1.377 . S
C453 C454 1.379 . S
C454 H438 0.931 . S
C454 C448 1.383 . S
C454 C453 1.379 . S
H455 C449 0.959 . S
H456 C449 0.961 . S
H457 C449 0.960 . S
H458 C450 0.930 . S
H459 C451 0.929 . S
H460 C468 0.929 . S
H461 C470 0.930 . S
H462 C472 0.930 . S
H463 C475 0.929 . S
H464 C478 0.930 . S
H465 C480 0.960 . S
H466 C480 0.960 . S
H467 C480 0.960 . S
C468 H460 0.929 . S
C468 C469 1.377 . S
C468 C470 1.384 . S
C469 C468 1.377 . S
C469 C475 1.390 . S
C470 H461 0.930 . S
C470 C468 1.384 . S
C470 C471 1.372 . S
C471 C470 1.372 . S
C471 C472 1.400 . S
C471 C476 1.490 . S
C472 H462 0.930 . S
C472 C471 1.400 . S
C472 C475 1.386 . S
H473 C489 0.930 . S
H474 C490 0.931 . S
C475 H463 0.929 . S
C475 C469 1.390 . S
C475 C472 1.386 . S
C476 C471 1.490 . S
C476 C478 1.395 . S
C476 C479 1.403 . S
H477 C483 0.930 . S
C478 H464 0.930 . S
C478 C476 1.395 . S
C478 C481 1.403 . S
C479 C476 1.403 . S
C479 C480 1.524 . S
C479 C483 1.400 . S
C480 H465 0.960 . S
C480 H466 0.960 . S
C480 H467 0.960 . S
C480 C479 1.524 . S
C481 C478 1.403 . S
C481 C482 1.392 . S
C481 C485 1.495 . S
C482 C481 1.392 . S
C482 C483 1.385 . S
C482 C484 1.478 . S
C483 H477 0.930 . S
C483 C479 1.400 . S
C483 C482 1.385 . S
C484 C482 1.478 . S
C484 C486 1.381 . S
C484 C490 1.383 . S
C485 C481 1.495 . S
C485 H491 0.959 . S
C485 H492 0.961 . S
C485 H493 0.960 . S
C486 C484 1.381 . S
C486 C487 1.394 . S
C486 H494 0.930 . S
C487 C486 1.394 . S
C487 C488 1.383 . S
C487 H495 0.929 . S
C488 C487 1.383 . S
C488 C489 1.377 . S
C489 H473 0.930 . S
C489 C488 1.377 . S
C489 C490 1.379 . S
C490 H474 0.931 . S
C490 C484 1.383 . S
C490 C489 1.379 . S
H491 C485 0.959 . S
H492 C485 0.961 . S
H493 C485 0.960 . S
H494 C486 0.930 . S
H495 C487 0.929 . S
H496 C504 0.929 . S
H497 C506 0.930 . S
H498 C508 0.930 . S
H499 C511 0.929 . S
H500 C514 0.930 . S
H501 C516 0.960 . S
H502 C516 0.960 . S
H503 C516 0.960 . S
C504 H496 0.929 . S
C504 C505 1.377 . S
C504 C506 1.384 . S
C505 C504 1.377 . S
C505 C511 1.390 . S
C506 H497 0.930 . S
C506 C504 1.384 . S
C506 C507 1.372 . S
C507 C506 1.372 . S
C507 C508 1.400 . S
C507 C512 1.490 . S
C508 H498 0.930 . S
C508 C507 1.400 . S
C508 C511 1.386 . S
H509 C525 0.930 . S
H510 C526 0.931 . S
C511 H499 0.929 . S
C511 C505 1.390 . S
C511 C508 1.386 . S
C512 C507 1.490 . S
C512 C514 1.395 1_455 S
C512 C515 1.403 1_545 S
H513 C519 0.930 . S
C514 H500 0.930 . S
C514 C512 1.395 1_655 S
C514 C517 1.403 . S
C515 C512 1.403 1_565 S
C515 C516 1.524 . S
C515 C519 1.400 . S
C516 H501 0.960 . S
C516 H502 0.960 . S
C516 H503 0.960 . S
C516 C515 1.524 . S
C517 C514 1.403 . S
C517 C518 1.392 1_545 S
C517 C521 1.495 . S
C518 C517 1.392 1_565 S
C518 C519 1.385 1_655 S
C518 C520 1.478 . S
C519 H513 0.930 . S
C519 C515 1.400 . S
C519 C518 1.385 1_455 S
C520 C518 1.478 . S
C520 C522 1.381 . S
C520 C526 1.383 . S
C521 C517 1.495 . S
C521 H527 0.959 . S
C521 H528 0.961 . S
C521 H529 0.960 . S
C522 C520 1.381 . S
C522 C523 1.394 . S
C522 H530 0.930 . S
C523 C522 1.394 . S
C523 C524 1.383 . S
C523 H531 0.929 . S
C524 C523 1.383 . S
C524 C525 1.377 . S
C525 H509 0.930 . S
C525 C524 1.377 . S
C525 C526 1.379 . S
C526 H510 0.931 . S
C526 C520 1.383 . S
C526 C525 1.379 . S
H527 C521 0.959 . S
H528 C521 0.961 . S
H529 C521 0.960 . S
H530 C522 0.930 . S
H531 C523 0.929 . S
H532 C540 0.929 . S
H533 C542 0.930 . S
H534 C544 0.930 . S
H535 C547 0.929 . S
H536 C550 0.930 . S
H537 C552 0.960 . S
H538 C552 0.960 . S
H539 C552 0.960 1_655 S
C540 H532 0.929 . S
C540 C541 1.377 . S
C540 C542 1.384 . S
C541 C540 1.377 . S
C541 C547 1.390 . S
C542 H533 0.930 . S
C542 C540 1.384 . S
C542 C543 1.372 . S
C543 C542 1.372 . S
C543 C544 1.400 . S
C543 C548 1.490 . S
C544 H534 0.930 . S
C544 C543 1.400 . S
C544 C547 1.386 . S
H545 C561 0.930 . S
H546 C562 0.931 . S
C547 H535 0.929 . S
C547 C541 1.390 . S
C547 C544 1.386 . S
C548 C543 1.490 . S
C548 C550 1.395 . S
C548 C551 1.403 1_655 S
H549 C555 0.930 . S
C550 H536 0.930 . S
C550 C548 1.395 . S
C550 C553 1.403 . S
C551 C548 1.403 1_455 S
C551 C552 1.524 . S
C551 C555 1.400 . S
C552 H537 0.960 . S
C552 H538 0.960 . S
C552 H539 0.960 1_455 S
C552 C551 1.524 . S
C553 C550 1.403 . S
C553 C554 1.392 1_655 S
C553 C557 1.495 . S
C554 C553 1.392 1_455 S
C554 C555 1.385 . S
C554 C556 1.478 . S
C555 H549 0.930 . S
C555 C551 1.400 . S
C555 C554 1.385 . S
C556 C554 1.478 . S
C556 C558 1.381 . S
C556 C562 1.383 . S
C557 C553 1.495 . S
C557 H563 0.959 . S
C557 H564 0.961 . S
C557 H565 0.960 1_655 S
C558 C556 1.381 . S
C558 C559 1.394 . S
C558 H566 0.930 . S
C559 C558 1.394 . S
C559 C560 1.383 . S
C559 H567 0.929 . S
C560 C559 1.383 . S
C560 C561 1.377 . S
C561 H545 0.930 . S
C561 C560 1.377 . S
C561 C562 1.379 . S
C562 H546 0.931 . S
C562 C556 1.383 . S
C562 C561 1.379 . S
H563 C557 0.959 . S
H564 C557 0.961 . S
H565 C557 0.960 1_455 S
H566 C558 0.930 . S
H567 C559 0.929 . S
H568 C576 0.929 . S
H569 C578 0.930 . S
H570 C580 0.930 . S
H571 C583 0.929 . S
H572 C586 0.930 . S
H573 C588 0.960 . S
H574 C588 0.960 . S
H575 C588 0.960 . S
C576 H568 0.929 . S
C576 C577 1.377 . S
C576 C578 1.384 . S
C577 C576 1.377 . S
C577 C583 1.390 . S
C578 H569 0.930 . S
C578 C576 1.384 . S
C578 C579 1.372 . S
C579 C578 1.372 . S
C579 C580 1.400 . S
C579 C584 1.490 . S
C580 H570 0.930 . S
C580 C579 1.400 . S
C580 C583 1.386 . S
H581 C597 0.930 . S
H582 C598 0.931 . S
C583 H571 0.929 . S
C583 C577 1.390 . S
C583 C580 1.386 . S
C584 C579 1.490 . S
C584 C586 1.395 . S
C584 C587 1.403 . S
H585 C591 0.930 . S
C586 H572 0.930 . S
C586 C584 1.395 . S
C586 C589 1.403 . S
C587 C584 1.403 . S
C587 C588 1.524 . S
C587 C591 1.400 . S
C588 H573 0.960 . S
C588 H574 0.960 . S
C588 H575 0.960 . S
C588 C587 1.524 . S
C589 C586 1.403 . S
C589 C590 1.392 . S
C589 C593 1.495 . S
C590 C589 1.392 . S
C590 C591 1.385 . S
C590 C592 1.478 . S
C591 H585 0.930 . S
C591 C587 1.400 . S
C591 C590 1.385 . S
C592 C590 1.478 . S
C592 C594 1.381 . S
C592 C598 1.383 . S
C593 C589 1.495 . S
C593 H599 0.959 . S
C593 H600 0.961 . S
C593 H601 0.960 . S
C594 C592 1.381 . S
C594 C595 1.394 . S
C594 H602 0.930 . S
C595 C594 1.394 . S
C595 C596 1.383 . S
C595 H603 0.929 . S
C596 C595 1.383 . S
C596 C597 1.377 . S
C597 H581 0.930 . S
C597 C596 1.377 . S
C597 C598 1.379 . S
C598 H582 0.931 . S
C598 C592 1.383 . S
C598 C597 1.379 . S
H599 C593 0.959 . S
H600 C593 0.961 . S
H601 C593 0.960 . S
H602 C594 0.930 . S
H603 C595 0.929 . S
H604 C612 0.929 . S
H605 C614 0.930 . S
H606 C616 0.930 . S
H607 C619 0.929 . S
H608 C622 0.930 . S
H609 C624 0.960 . S
H610 C624 0.960 . S
H611 C624 0.960 . S
C612 H604 0.929 . S
C612 C613 1.377 . S
C612 C614 1.384 . S
C613 C612 1.377 . S
C613 C619 1.390 . S
C614 H605 0.930 . S
C614 C612 1.384 . S
C614 C615 1.372 . S
C615 C614 1.372 . S
C615 C616 1.400 . S
C615 C620 1.490 . S
C616 H606 0.930 . S
C616 C615 1.400 . S
C616 C619 1.386 . S
H617 C633 0.930 . S
H618 C634 0.931 . S
C619 H607 0.929 . S
C619 C613 1.390 . S
C619 C616 1.386 . S
C620 C615 1.490 . S
C620 C622 1.395 . S
C620 C623 1.403 1_565 S
H621 C627 0.930 . S
C622 H608 0.930 . S
C622 C620 1.395 . S
C622 C625 1.403 . S
C623 C620 1.403 1_545 S
C623 C624 1.524 . S
C623 C627 1.400 . S
C624 H609 0.960 . S
C624 H610 0.960 . S
C624 H611 0.960 . S
C624 C623 1.524 . S
C625 C622 1.403 . S
C625 C626 1.392 1_565 S
C625 C629 1.495 . S
C626 C625 1.392 1_545 S
C626 C627 1.385 . S
C626 C628 1.478 . S
C627 H621 0.930 . S
C627 C623 1.400 . S
C627 C626 1.385 . S
C628 C626 1.478 . S
C628 C630 1.381 . S
C628 C634 1.383 . S
C629 C625 1.495 . S
C629 H635 0.959 . S
C629 H636 0.961 . S
C629 H637 0.960 . S
C630 C628 1.381 . S
C630 C631 1.394 . S
C630 H638 0.930 . S
C631 C630 1.394 . S
C631 C632 1.383 . S
C631 H639 0.929 . S
C632 C631 1.383 . S
C632 C633 1.377 . S
C633 H617 0.930 . S
C633 C632 1.377 . S
C633 C634 1.379 . S
C634 H618 0.931 . S
C634 C628 1.383 . S
C634 C633 1.379 . S
H635 C629 0.959 . S
H636 C629 0.961 . S
H637 C629 0.960 . S
H638 C630 0.930 . S
H639 C631 0.929 . S
H640 C648 0.929 . S
H641 C650 0.930 . S
H642 C652 0.932 1_556 S
H643 C655 0.953 . S
H644 C658 0.930 . S
H645 C660 0.960 . S
H646 C660 0.960 . S
H647 C660 0.960 . S
C648 H640 0.929 . S
C648 C649 1.377 . S
C648 C650 1.384 . S
C649 C648 1.377 . S
C649 C655 1.367 1_554 S
C650 H641 0.930 . S
C650 C648 1.384 . S
C650 C651 1.372 . S
C651 C650 1.372 . S
C651 C652 1.397 . S
C651 C656 1.490 . S
C652 H642 0.932 1_554 S
C652 C651 1.397 . S
C652 C655 1.385 1_554 S
H653 C669 0.930 . S
H654 C670 0.931 . S
C655 H643 0.953 . S
C655 C649 1.367 1_556 S
C655 C652 1.385 1_556 S
C656 C651 1.490 . S
C656 C658 1.395 . S
C656 C659 1.403 1_455 S
H657 C663 0.930 . S
C658 H644 0.930 . S
C658 C656 1.395 . S
C658 C661 1.403 . S
C659 C656 1.403 1_655 S
C659 C660 1.524 . S
C659 C663 1.400 . S
C660 H645 0.960 . S
C660 H646 0.960 . S
C660 H647 0.960 . S
C660 C659 1.524 . S
C661 C658 1.403 . S
C661 C662 1.392 1_455 S
C661 C665 1.495 . S
C662 C661 1.392 1_655 S
C662 C663 1.385 . S
C662 C664 1.478 . S
C663 H657 0.930 . S
C663 C659 1.400 . S
C663 C662 1.385 . S
C664 C662 1.478 . S
C664 C666 1.381 . S
C664 C670 1.383 1_554 S
C665 C661 1.495 . S
C665 H671 0.959 . S
C665 H672 0.961 . S
C665 H673 0.960 . S
C666 C664 1.381 . S
C666 C667 1.394 . S
C666 H674 0.930 . S
C667 C666 1.394 . S
C667 C668 1.383 . S
C667 H675 0.929 . S
C668 C667 1.383 . S
C668 C669 1.377 1_554 S
C669 H653 0.930 . S
C669 C668 1.377 1_556 S
C669 C670 1.379 . S
C670 H654 0.931 . S
C670 C664 1.383 1_556 S
C670 C669 1.379 . S
H671 C665 0.959 . S
H672 C665 0.961 . S
H673 C665 0.960 . S
H674 C666 0.930 . S
H675 C667 0.929 . S
H676 C684 0.929 . S
H677 C686 0.930 . S
H678 C688 0.930 . S
H679 C691 0.929 . S
H680 C694 0.930 . S
H681 C696 0.960 . S
H682 C696 0.960 . S
H683 C696 0.960 . S
C684 H676 0.929 . S
C684 C685 1.377 . S
C684 C686 1.384 . S
C685 C684 1.377 . S
C685 C691 1.390 . S
C686 H677 0.930 . S
C686 C684 1.384 . S
C686 C687 1.372 . S
C687 C686 1.372 . S
C687 C688 1.400 . S
C687 C692 1.490 . S
C688 H678 0.930 . S
C688 C687 1.400 . S
C688 C691 1.386 . S
H689 C705 0.930 . S
H690 C706 0.931 . S
C691 H679 0.929 . S
C691 C685 1.390 . S
C691 C688 1.386 . S
C692 C687 1.490 . S
C692 C694 1.395 . S
C692 C695 1.403 . S
H693 C699 0.930 . S
C694 H680 0.930 . S
C694 C692 1.395 . S
C694 C697 1.403 . S
C695 C692 1.403 . S
C695 C696 1.524 . S
C695 C699 1.400 . S
C696 H681 0.960 . S
C696 H682 0.960 . S
C696 H683 0.960 . S
C696 C695 1.524 . S
C697 C694 1.403 . S
C697 C698 1.392 . S
C697 C701 1.495 . S
C698 C697 1.392 . S
C698 C699 1.385 . S
C698 C700 1.478 . S
C699 H693 0.930 . S
C699 C695 1.400 . S
C699 C698 1.385 . S
C700 C698 1.478 . S
C700 C702 1.381 . S
C700 C706 1.383 . S
C701 C697 1.495 . S
C701 H707 0.959 . S
C701 H708 0.961 . S
C701 H709 0.960 . S
C702 C700 1.381 . S
C702 C703 1.394 . S
C702 H710 0.930 . S
C703 C702 1.394 . S
C703 C704 1.383 . S
C703 H711 0.929 . S
C704 C703 1.383 . S
C704 C705 1.377 . S
C705 H689 0.930 . S
C705 C704 1.377 . S
C705 C706 1.379 . S
C706 H690 0.931 . S
C706 C700 1.383 . S
C706 C705 1.379 . S
H707 C701 0.959 . S
H708 C701 0.961 . S
H709 C701 0.960 . S
H710 C702 0.930 . S
H711 C703 0.929 . S
H712 C720 0.929 . S
H713 C722 0.930 . S
H714 C724 0.930 . S
H715 C727 0.929 . S
H716 C730 0.930 . S
H717 C732 0.960 . S
H718 C732 0.960 . S
H719 C732 0.960 . S
C720 H712 0.929 . S
C720 C721 1.377 . S
C720 C722 1.384 . S
C721 C720 1.377 . S
C721 C727 1.390 . S
C722 H713 0.930 . S
C722 C720 1.384 . S
C722 C723 1.372 . S
C723 C722 1.372 . S
C723 C724 1.400 . S
C723 C728 1.490 . S
C724 H714 0.930 . S
C724 C723 1.400 . S
C724 C727 1.386 . S
H725 C741 0.930 . S
H726 C742 0.931 . S
C727 H715 0.929 . S
C727 C721 1.390 . S
C727 C724 1.386 . S
C728 C723 1.490 . S
C728 C730 1.395 1_545 S
C728 C731 1.403 . S
H729 C735 0.940 . S
C730 H716 0.930 . S
C730 C728 1.395 1_565 S
C730 C733 1.403 . S
C731 C728 1.403 . S
C731 C732 1.524 . S
C731 C735 1.448 . S
C732 H717 0.960 . S
C732 H718 0.960 . S
C732 H719 0.960 . S
C732 C731 1.524 . S
C733 C730 1.403 . S
C733 C734 1.392 . S
C733 C737 1.495 . S
C734 C733 1.392 . S
C734 C735 1.331 1_565 S
C734 C736 1.478 . S
C735 H729 0.940 . S
C735 C731 1.448 . S
C735 C734 1.331 1_545 S
C736 C734 1.478 . S
C736 C738 1.381 . S
C736 C742 1.383 . S
C737 C733 1.495 . S
C737 H743 0.959 . S
C737 H744 0.961 . S
C737 H745 0.960 . S
C738 C736 1.381 . S
C738 C739 1.394 . S
C738 H746 0.930 . S
C739 C738 1.394 . S
C739 C740 1.383 . S
C739 H747 0.929 . S
C740 C739 1.383 . S
C740 C741 1.377 . S
C741 H725 0.930 . S
C741 C740 1.377 . S
C741 C742 1.379 . S
C742 H726 0.931 . S
C742 C736 1.383 . S
C742 C741 1.379 . S
H743 C737 0.959 . S
H744 C737 0.961 . S
H745 C737 0.960 . S
H746 C738 0.930 . S
H747 C739 0.929 . S
H748 C756 0.929 . S
H749 C758 0.930 . S
H750 C760 0.930 . S
H751 C763 0.929 . S
H752 C766 0.930 . S
H753 C768 0.960 . S
H754 C768 0.960 . S
H755 C768 0.960 . S
C756 H748 0.929 . S
C756 C757 1.377 . S
C756 C758 1.384 . S
C757 C756 1.377 . S
C757 C763 1.390 . S
C758 H749 0.930 . S
C758 C756 1.384 . S
C758 C759 1.372 . S
C759 C758 1.372 . S
C759 C760 1.400 . S
C759 C764 1.490 . S
C760 H750 0.930 . S
C760 C759 1.400 . S
C760 C763 1.386 . S
H761 C777 0.930 . S
H762 C778 0.931 . S
C763 H751 0.929 . S
C763 C757 1.390 . S
C763 C760 1.386 . S
C764 C759 1.490 . S
C764 C766 1.395 1_455 S
C764 C767 1.403 1_545 S
H765 C771 0.937 . S
C766 H752 0.930 . S
C766 C764 1.395 1_655 S
C766 C769 1.403 . S
C767 C764 1.403 1_565 S
C767 C768 1.524 . S
C767 C771 1.434 . S
C768 H753 0.960 . S
C768 H754 0.960 . S
C768 H755 0.960 . S
C768 C767 1.524 . S
C769 C766 1.403 . S
C769 C770 1.392 1_545 S
C769 C773 1.495 . S
C770 C769 1.392 1_565 S
C770 C771 1.346 1_655 S
C770 C772 1.478 . S
C771 H765 0.937 . S
C771 C767 1.434 . S
C771 C770 1.346 1_455 S
C772 C770 1.478 . S
C772 C774 1.381 . S
C772 C778 1.383 . S
C773 C769 1.495 . S
C773 H779 0.959 . S
C773 H780 0.961 . S
C773 H781 0.960 . S
C774 C772 1.381 . S
C774 C775 1.394 . S
C774 H782 0.930 . S
C775 C774 1.394 . S
C775 C776 1.383 . S
C775 H783 0.929 . S
C776 C775 1.383 . S
C776 C777 1.377 . S
C777 H761 0.930 . S
C777 C776 1.377 . S
C777 C778 1.379 . S
C778 H762 0.931 . S
C778 C772 1.383 . S
C778 C777 1.379 . S
H779 C773 0.959 . S
H780 C773 0.961 . S
H781 C773 0.960 . S
H782 C774 0.930 . S
H783 C775 0.929 . S
H784 C792 0.929 . S
H785 C794 0.930 . S
H786 C796 0.930 . S
H787 C799 0.929 . S
H788 C802 0.930 . S
H789 C804 0.960 . S
H790 C804 0.960 . S
H791 C804 0.960 . S
C792 H784 0.929 . S
C792 C793 1.377 . S
C792 C794 1.384 . S
C793 C792 1.377 . S
C793 C799 1.390 . S
C794 H785 0.930 . S
C794 C792 1.384 . S
C794 C795 1.372 . S
C795 C794 1.372 . S
C795 C796 1.400 . S
C795 C800 1.490 . S
C796 H786 0.930 . S
C796 C795 1.400 . S
C796 C799 1.386 . S
H797 C813 0.930 . S
H798 C814 0.931 . S
C799 H787 0.929 . S
C799 C793 1.390 . S
C799 C796 1.386 . S
C800 C795 1.490 . S
C800 C802 1.395 . S
C800 C803 1.403 . S
H801 C807 0.930 . S
C802 H788 0.930 . S
C802 C800 1.395 . S
C802 C805 1.403 . S
C803 C800 1.403 . S
C803 C804 1.524 . S
C803 C807 1.400 . S
C804 H789 0.960 . S
C804 H790 0.960 . S
C804 H791 0.960 . S
C804 C803 1.524 . S
C805 C802 1.403 . S
C805 C806 1.392 . S
C805 C809 1.495 . S
C806 C805 1.392 . S
C806 C807 1.385 . S
C806 C808 1.478 . S
C807 H801 0.930 . S
C807 C803 1.400 . S
C807 C806 1.385 . S
C808 C806 1.478 . S
C808 C810 1.381 . S
C808 C814 1.383 . S
C809 C805 1.495 . S
C809 H815 0.959 . S
C809 H816 0.961 . S
C809 H817 0.960 . S
C810 C808 1.381 . S
C810 C811 1.394 . S
C810 H818 0.930 . S
C811 C810 1.394 . S
C811 C812 1.383 . S
C811 H819 0.929 . S
C812 C811 1.383 . S
C812 C813 1.377 . S
C813 H797 0.930 . S
C813 C812 1.377 . S
C813 C814 1.379 . S
C814 H798 0.931 . S
C814 C808 1.383 . S
C814 C813 1.379 . S
H815 C809 0.959 . S
H816 C809 0.961 . S
H817 C809 0.960 . S
H818 C810 0.930 . S
H819 C811 0.929 . S
H820 C828 0.929 . S
H821 C830 0.930 . S
H822 C832 0.930 . S
H823 C835 0.929 . S
H824 C838 0.930 . S
H825 C840 0.960 . S
H826 C840 0.960 . S
H827 C840 0.960 . S
C828 H820 0.929 . S
C828 C829 1.377 . S
C828 C830 1.384 . S
C829 C828 1.377 . S
C829 C835 1.390 . S
C830 H821 0.930 . S
C830 C828 1.384 . S
C830 C831 1.372 . S
C831 C830 1.372 . S
C831 C832 1.400 . S
C831 C836 1.490 . S
C832 H822 0.930 . S
C832 C831 1.400 . S
C832 C835 1.386 . S
H833 C849 0.930 . S
H834 C850 0.931 . S
C835 H823 0.929 . S
C835 C829 1.390 . S
C835 C832 1.386 . S
C836 C831 1.490 . S
C836 C838 1.395 . S
C836 C839 1.403 . S
H837 C843 0.930 . S
C838 H824 0.930 . S
C838 C836 1.395 . S
C838 C841 1.403 . S
C839 C836 1.403 . S
C839 C840 1.524 . S
C839 C843 1.400 . S
C840 H825 0.960 . S
C840 H826 0.960 . S
C840 H827 0.960 . S
C840 C839 1.524 . S
C841 C838 1.403 . S
C841 C842 1.392 . S
C841 C845 1.495 . S
C842 C841 1.392 . S
C842 C843 1.385 . S
C842 C844 1.478 . S
C843 H837 0.930 . S
C843 C839 1.400 . S
C843 C842 1.385 . S
C844 C842 1.478 . S
C844 C846 1.381 . S
C844 C850 1.383 . S
C845 C841 1.495 . S
C845 H851 0.959 . S
C845 H852 0.961 . S
C845 H853 0.960 . S
C846 C844 1.381 . S
C846 C847 1.394 . S
C846 H854 0.930 . S
C847 C846 1.394 . S
C847 C848 1.383 . S
C847 H855 0.929 . S
C848 C847 1.383 . S
C848 C849 1.377 . S
C849 H833 0.930 . S
C849 C848 1.377 . S
C849 C850 1.379 . S
C850 H834 0.931 . S
C850 C844 1.383 . S
C850 C849 1.379 . S
H851 C845 0.959 . S
H852 C845 0.961 . S
H853 C845 0.960 . S
H854 C846 0.930 . S
H855 C847 0.929 . S
H856 C864 0.929 . S
H857 C866 0.930 . S
H858 C868 0.930 . S
H859 C871 0.929 . S
H860 C874 0.930 . S
H861 C876 0.960 . S
H862 C876 0.960 . S
H863 C876 0.960 . S
C864 H856 0.929 . S
C864 C865 1.377 . S
C864 C866 1.384 . S
C865 C864 1.377 . S
C865 C871 1.390 . S
C866 H857 0.930 . S
C866 C864 1.384 . S
C866 C867 1.372 . S
C867 C866 1.372 . S
C867 C868 1.400 . S
C867 C872 1.490 . S
C868 H858 0.930 . S
C868 C867 1.400 . S
C868 C871 1.386 . S
H869 C885 0.930 . S
H870 C886 0.931 . S
C871 H859 0.929 . S
C871 C865 1.390 . S
C871 C868 1.386 . S
C872 C867 1.490 . S
C872 C874 1.395 . S
C872 C875 1.403 . S
H873 C879 0.930 . S
C874 H860 0.930 . S
C874 C872 1.395 . S
C874 C877 1.403 . S
C875 C872 1.403 . S
C875 C876 1.524 . S
C875 C879 1.400 . S
C876 H861 0.960 . S
C876 H862 0.960 . S
C876 H863 0.960 . S
C876 C875 1.524 . S
C877 C874 1.403 . S
C877 C878 1.392 . S
C877 C881 1.495 . S
C878 C877 1.392 . S
C878 C879 1.385 . S
C878 C880 1.478 1_554 S
C879 H873 0.930 . S
C879 C875 1.400 . S
C879 C878 1.385 . S
C880 C878 1.478 1_556 S
C880 C882 1.381 . S
C880 C886 1.383 . S
C881 C877 1.495 . S
C881 H887 0.959 . S
C881 H888 0.961 . S
C881 H889 0.960 . S
C882 C880 1.381 . S
C882 C883 1.394 . S
C882 H890 0.930 . S
C883 C882 1.394 . S
C883 C884 1.383 . S
C883 H891 0.929 . S
C884 C883 1.383 . S
C884 C885 1.377 . S
C885 H869 0.930 . S
C885 C884 1.377 . S
C885 C886 1.379 . S
C886 H870 0.931 . S
C886 C880 1.383 . S
C886 C885 1.379 . S
H887 C881 0.959 . S
H888 C881 0.961 . S
H889 C881 0.960 . S
H890 C882 0.930 . S
H891 C883 0.929 . S
H892 C900 0.929 . S
H893 C902 0.930 . S
H894 C904 0.930 . S
H895 C907 0.929 . S
H896 C910 0.930 . S
H897 C912 0.960 . S
H898 C912 0.960 . S
H899 C912 0.960 . S
C900 H892 0.929 . S
C900 C901 1.377 . S
C900 C902 1.384 . S
C901 C900 1.377 . S
C901 C907 1.390 . S
C902 H893 0.930 . S
C902 C900 1.384 . S
C902 C903 1.372 . S
C903 C902 1.372 . S
C903 C904 1.400 . S
C903 C908 1.490 . S
C904 H894 0.930 . S
C904 C903 1.400 . S
C904 C907 1.386 . S
H905 C921 0.930 . S
H906 C922 0.931 . S
C907 H895 0.929 . S
C907 C901 1.390 . S
C907 C904 1.386 . S
C908 C903 1.490 . S
C908 C910 1.395 . S
C908 C911 1.403 . S
H909 C915 0.930 . S
C910 H896 0.930 . S
C910 C908 1.395 . S
C910 C913 1.403 . S
C911 C908 1.403 . S
C911 C912 1.524 . S
C911 C915 1.400 . S
C912 H897 0.960 . S
C912 H898 0.960 . S
C912 H899 0.960 . S
C912 C911 1.524 . S
C913 C910 1.403 . S
C913 C914 1.392 . S
C913 C917 1.495 . S
C914 C913 1.392 . S
C914 C915 1.385 . S
C914 C916 1.478 . S
C915 H909 0.930 . S
C915 C911 1.400 . S
C915 C914 1.385 . S
C916 C914 1.478 . S
C916 C918 1.381 . S
C916 C922 1.383 . S
C917 C913 1.495 . S
C917 H923 0.959 . S
C917 H924 0.961 . S
C917 H925 0.960 . S
C918 C916 1.381 . S
C918 C919 1.394 . S
C918 H926 0.930 . S
C919 C918 1.394 . S
C919 C920 1.383 . S
C919 H927 0.929 . S
C920 C919 1.383 . S
C920 C921 1.377 . S
C921 H905 0.930 . S
C921 C920 1.377 . S
C921 C922 1.379 . S
C922 H906 0.931 . S
C922 C916 1.383 . S
C922 C921 1.379 . S
H923 C917 0.959 . S
H924 C917 0.961 . S
H925 C917 0.960 . S
H926 C918 0.930 . S
H927 C919 0.929 . S
H928 C936 0.929 . S
H929 C938 0.930 . S
H930 C940 0.930 . S
H931 C943 0.929 . S
H932 C946 0.930 . S
H933 C948 0.960 . S
H934 C948 0.960 . S
H935 C948 0.960 . S
C936 H928 0.929 . S
C936 C937 1.377 . S
C936 C938 1.384 . S
C937 C936 1.377 . S
C937 C943 1.390 . S
C938 H929 0.930 . S
C938 C936 1.384 . S
C938 C939 1.372 . S
C939 C938 1.372 . S
C939 C940 1.400 . S
C939 C944 1.490 . S
C940 H930 0.930 . S
C940 C939 1.400 . S
C940 C943 1.386 . S
H941 C957 0.930 . S
H942 C958 0.931 . S
C943 H931 0.929 . S
C943 C937 1.390 . S
C943 C940 1.386 . S
C944 C939 1.490 . S
C944 C946 1.395 . S
C944 C947 1.403 . S
H945 C951 0.930 . S
C946 H932 0.930 . S
C946 C944 1.395 . S
C946 C949 1.403 . S
C947 C944 1.403 . S
C947 C948 1.524 . S
C947 C951 1.400 . S
C948 H933 0.960 . S
C948 H934 0.960 . S
C948 H935 0.960 . S
C948 C947 1.524 . S
C949 C946 1.403 . S
C949 C950 1.392 . S
C949 C953 1.495 . S
C950 C949 1.392 . S
C950 C951 1.385 . S
C950 C952 1.478 . S
C951 H945 0.930 . S
C951 C947 1.400 . S
C951 C950 1.385 . S
C952 C950 1.478 . S
C952 C954 1.381 . S
C952 C958 1.383 . S
C953 C949 1.495 . S
C953 H959 0.959 . S
C953 H960 0.961 . S
C953 H961 0.960 . S
C954 C952 1.381 . S
C954 C955 1.394 . S
C954 H962 0.930 . S
C955 C954 1.394 . S
C955 C956 1.383 . S
C955 H963 0.929 . S
C956 C955 1.383 . S
C956 C957 1.377 . S
C957 H941 0.930 . S
C957 C956 1.377 . S
C957 C958 1.379 . S
C958 H942 0.931 . S
C958 C952 1.383 . S
C958 C957 1.379 . S
H959 C953 0.959 . S
H960 C953 0.961 . S
H961 C953 0.960 . S
H962 C954 0.930 . S
H963 C955 0.929 . S
H964 C972 0.929 . S
H965 C974 0.930 . S
H966 C976 0.930 . S
H967 C979 0.929 . S
H968 C982 0.930 . S
H969 C984 0.960 . S
H970 C984 0.960 . S
H971 C984 0.960 . S
C972 H964 0.929 . S
C972 C973 1.377 . S
C972 C974 1.384 . S
C973 C972 1.377 . S
C973 C979 1.390 . S
C974 H965 0.930 . S
C974 C972 1.384 . S
C974 C975 1.372 . S
C975 C974 1.372 . S
C975 C976 1.400 . S
C975 C980 1.490 . S
C976 H966 0.930 . S
C976 C975 1.400 . S
C976 C979 1.386 . S
H977 C993 0.930 . S
H978 C994 0.931 . S
C979 H967 0.929 . S
C979 C973 1.390 . S
C979 C976 1.386 . S
C980 C975 1.490 . S
C980 C982 1.395 . S
C980 C983 1.403 . S
H981 C987 0.930 . S
C982 H968 0.930 . S
C982 C980 1.395 . S
C982 C985 1.403 . S
C983 C980 1.403 . S
C983 C984 1.524 . S
C983 C987 1.400 . S
C984 H969 0.960 . S
C984 H970 0.960 . S
C984 H971 0.960 . S
C984 C983 1.524 . S
C985 C982 1.403 . S
C985 C986 1.392 . S
C985 C989 1.495 . S
C986 C985 1.392 . S
C986 C987 1.385 . S
C986 C988 1.478 1_554 S
C987 H981 0.930 . S
C987 C983 1.400 . S
C987 C986 1.385 . S
C988 C986 1.478 1_556 S
C988 C990 1.381 . S
C988 C994 1.383 . S
C989 C985 1.495 . S
C989 H995 0.959 . S
C989 H996 0.961 . S
C989 H997 0.960 . S
C990 C988 1.381 . S
C990 C991 1.394 . S
C990 H998 0.930 . S
C991 C990 1.394 . S
C991 C992 1.383 . S
C991 H999 0.929 . S
C992 C991 1.383 . S
C992 C993 1.377 . S
C993 H977 0.930 . S
C993 C992 1.377 . S
C993 C994 1.379 . S
C994 H978 0.931 . S
C994 C988 1.383 . S
C994 C993 1.379 . S
H995 C989 0.959 . S
H996 C989 0.961 . S
H997 C989 0.960 . S
H998 C990 0.930 . S
H999 C991 0.929 . S
H1000 C1008 0.929 . S
H1001 C1010 0.930 . S
H1002 C1012 0.930 . S
H1003 C1015 0.929 . S
H1004 C1018 0.930 . S
H1005 C1020 0.960 . S
H1006 C1020 0.960 . S
H1007 C1020 0.960 . S
C1008 H1000 0.929 . S
C1008 C1009 1.377 . S
C1008 C1010 1.384 . S
C1009 C1008 1.377 . S
C1009 C1015 1.390 . S
C1010 H1001 0.930 . S
C1010 C1008 1.384 . S
C1010 C1011 1.372 . S
C1011 C1010 1.372 . S
C1011 C1012 1.400 . S
C1011 C1016 1.490 . S
C1012 H1002 0.930 . S
C1012 C1011 1.400 . S
C1012 C1015 1.386 . S
H1013 C1029 0.930 . S
H1014 C1030 0.931 . S
C1015 H1003 0.929 . S
C1015 C1009 1.390 . S
C1015 C1012 1.386 . S
C1016 C1011 1.490 . S
C1016 C1018 1.395 . S
C1016 C1019 1.403 . S
H1017 C1023 0.930 . S
C1018 H1004 0.930 . S
C1018 C1016 1.395 . S
C1018 C1021 1.403 . S
C1019 C1016 1.403 . S
C1019 C1020 1.524 . S
C1019 C1023 1.400 . S
C1020 H1005 0.960 . S
C1020 H1006 0.960 . S
C1020 H1007 0.960 . S
C1020 C1019 1.524 . S
C1021 C1018 1.403 . S
C1021 C1022 1.392 . S
C1021 C1025 1.495 . S
C1022 C1021 1.392 . S
C1022 C1023 1.385 . S
C1022 C1024 1.478 . S
C1023 H1017 0.930 . S
C1023 C1019 1.400 . S
C1023 C1022 1.385 . S
C1024 C1022 1.478 . S
C1024 C1026 1.381 . S
C1024 C1030 1.383 . S
C1025 C1021 1.495 . S
C1025 H1031 0.959 . S
C1025 H1032 0.961 . S
C1025 H1033 0.960 . S
C1026 C1024 1.381 . S
C1026 C1027 1.394 . S
C1026 H1034 0.930 . S
C1027 C1026 1.394 . S
C1027 C1028 1.383 . S
C1027 H1035 0.929 . S
C1028 C1027 1.383 . S
C1028 C1029 1.377 . S
C1029 H1013 0.930 . S
C1029 C1028 1.377 . S
C1029 C1030 1.379 . S
C1030 H1014 0.931 . S
C1030 C1024 1.383 . S
C1030 C1029 1.379 . S
H1031 C1025 0.959 . S
H1032 C1025 0.961 . S
H1033 C1025 0.960 . S
H1034 C1026 0.930 . S
H1035 C1027 0.929 . S
H1036 C1044 0.929 . S
H1037 C1046 0.930 . S
H1038 C1048 0.930 . S
H1039 C1051 0.929 . S
H1040 C1054 0.930 . S
H1041 C1056 0.960 . S
H1042 C1056 0.960 . S
H1043 C1056 0.960 . S
C1044 H1036 0.929 . S
C1044 C1045 1.377 . S
C1044 C1046 1.384 . S
C1045 C1044 1.377 . S
C1045 C1051 1.390 . S
C1046 H1037 0.930 . S
C1046 C1044 1.384 . S
C1046 C1047 1.372 . S
C1047 C1046 1.372 . S
C1047 C1048 1.400 . S
C1047 C1052 1.490 . S
C1048 H1038 0.930 . S
C1048 C1047 1.400 . S
C1048 C1051 1.386 . S
H1049 C1065 0.930 . S
H1050 C1066 0.931 . S
C1051 H1039 0.929 . S
C1051 C1045 1.390 . S
C1051 C1048 1.386 . S
C1052 C1047 1.490 . S
C1052 C1054 1.395 . S
C1052 C1055 1.403 . S
H1053 C1059 0.930 . S
C1054 H1040 0.930 . S
C1054 C1052 1.395 . S
C1054 C1057 1.403 . S
C1055 C1052 1.403 . S
C1055 C1056 1.524 . S
C1055 C1059 1.400 . S
C1056 H1041 0.960 . S
C1056 H1042 0.960 . S
C1056 H1043 0.960 . S
C1056 C1055 1.524 . S
C1057 C1054 1.403 . S
C1057 C1058 1.392 . S
C1057 C1061 1.495 . S
C1058 C1057 1.392 . S
C1058 C1059 1.385 . S
C1058 C1060 1.478 . S
C1059 H1053 0.930 . S
C1059 C1055 1.400 . S
C1059 C1058 1.385 . S
C1060 C1058 1.478 . S
C1060 C1062 1.381 . S
C1060 C1066 1.383 . S
C1061 C1057 1.495 . S
C1061 H1067 0.959 . S
C1061 H1068 0.961 . S
C1061 H1069 0.960 . S
C1062 C1060 1.381 . S
C1062 C1063 1.394 . S
C1062 H1070 0.930 . S
C1063 C1062 1.394 . S
C1063 C1064 1.383 . S
C1063 H1071 0.929 . S
C1064 C1063 1.383 . S
C1064 C1065 1.377 . S
C1065 H1049 0.930 . S
C1065 C1064 1.377 . S
C1065 C1066 1.379 . S
C1066 H1050 0.931 . S
C1066 C1060 1.383 . S
C1066 C1065 1.379 . S
H1067 C1061 0.959 . S
H1068 C1061 0.961 . S
H1069 C1061 0.960 . S
H1070 C1062 0.930 . S
H1071 C1063 0.929 . S
H1072 C1080 0.929 . S
H1073 C1082 0.930 . S
H1074 C1084 0.930 . S
H1075 C1087 0.929 . S
H1076 C1090 0.930 . S
H1077 C1092 0.960 . S
H1078 C1092 0.960 1_556 S
H1079 C1092 0.960 1_556 S
C1080 H1072 0.929 . S
C1080 C1081 1.377 . S
C1080 C1082 1.384 . S
C1081 C1080 1.377 . S
C1081 C1087 1.390 . S
C1082 H1073 0.930 . S
C1082 C1080 1.384 . S
C1082 C1083 1.372 . S
C1083 C1082 1.372 . S
C1083 C1084 1.400 . S
C1083 C1088 1.490 1_556 S
C1084 H1074 0.930 . S
C1084 C1083 1.400 . S
C1084 C1087 1.386 . S
H1085 C1101 0.930 . S
H1086 C1102 0.931 . S
C1087 H1075 0.929 . S
C1087 C1081 1.390 . S
C1087 C1084 1.386 . S
C1088 C1083 1.490 1_554 S
C1088 C1090 1.395 . S
C1088 C1091 1.403 . S
H1089 C1095 0.930 . S
C1090 H1076 0.930 . S
C1090 C1088 1.395 . S
C1090 C1093 1.403 . S
C1091 C1088 1.403 . S
C1091 C1092 1.524 . S
C1091 C1095 1.400 . S
C1092 H1077 0.960 . S
C1092 H1078 0.960 1_554 S
C1092 H1079 0.960 1_554 S
C1092 C1091 1.524 . S
C1093 C1090 1.403 . S
C1093 C1094 1.392 . S
C1093 C1097 1.495 . S
C1094 C1093 1.392 . S
C1094 C1095 1.385 . S
C1094 C1096 1.478 . S
C1095 H1089 0.930 . S
C1095 C1091 1.400 . S
C1095 C1094 1.385 . S
C1096 C1094 1.478 . S
C1096 C1098 1.381 . S
C1096 C1102 1.383 . S
C1097 C1093 1.495 . S
C1097 H1103 0.959 . S
C1097 H1104 0.961 . S
C1097 H1105 0.960 . S
C1098 C1096 1.381 . S
C1098 C1099 1.394 . S
C1098 H1106 0.930 . S
C1099 C1098 1.394 . S
C1099 C1100 1.383 . S
C1099 H1107 0.929 . S
C1100 C1099 1.383 . S
C1100 C1101 1.377 . S
C1101 H1085 0.930 . S
C1101 C1100 1.377 . S
C1101 C1102 1.379 . S
C1102 H1086 0.931 . S
C1102 C1096 1.383 . S
C1102 C1101 1.379 . S
H1103 C1097 0.959 . S
H1104 C1097 0.961 . S
H1105 C1097 0.960 . S
H1106 C1098 0.930 . S
H1107 C1099 0.929 . S
H1108 C1116 0.929 . S
H1109 C1118 0.930 . S
H1110 C1120 0.930 . S
H1111 C1123 0.929 . S
H1112 C1126 0.930 . S
H1113 C1128 0.960 . S
H1114 C1128 0.960 . S
H1115 C1128 0.960 . S
C1116 H1108 0.929 . S
C1116 C1117 1.377 . S
C1116 C1118 1.384 . S
C1117 C1116 1.377 . S
C1117 C1123 1.390 . S
C1118 H1109 0.930 . S
C1118 C1116 1.384 . S
C1118 C1119 1.372 . S
C1119 C1118 1.372 . S
C1119 C1120 1.400 . S
C1119 C1124 1.490 . S
C1120 H1110 0.930 . S
C1120 C1119 1.400 . S
C1120 C1123 1.386 . S
H1121 C1137 0.930 . S
H1122 C1138 0.931 . S
C1123 H1111 0.929 . S
C1123 C1117 1.390 . S
C1123 C1120 1.386 . S
C1124 C1119 1.490 . S
C1124 C1126 1.395 . S
C1124 C1127 1.403 . S
H1125 C1131 0.930 . S
C1126 H1112 0.930 . S
C1126 C1124 1.395 . S
C1126 C1129 1.403 . S
C1127 C1124 1.403 . S
C1127 C1128 1.524 . S
C1127 C1131 1.400 . S
C1128 H1113 0.960 . S
C1128 H1114 0.960 . S
C1128 H1115 0.960 . S
C1128 C1127 1.524 . S
C1129 C1126 1.403 . S
C1129 C1130 1.392 . S
C1129 C1133 1.495 . S
C1130 C1129 1.392 . S
C1130 C1131 1.385 . S
C1130 C1132 1.478 . S
C1131 H1125 0.930 . S
C1131 C1127 1.400 . S
C1131 C1130 1.385 . S
C1132 C1130 1.478 . S
C1132 C1134 1.381 . S
C1132 C1138 1.383 . S
C1133 C1129 1.495 . S
C1133 H1139 0.959 . S
C1133 H1140 0.961 . S
C1133 H1141 0.960 . S
C1134 C1132 1.381 . S
C1134 C1135 1.394 . S
C1134 H1142 0.930 . S
C1135 C1134 1.394 . S
C1135 C1136 1.383 . S
C1135 H1143 0.929 . S
C1136 C1135 1.383 . S
C1136 C1137 1.377 . S
C1137 H1121 0.930 . S
C1137 C1136 1.377 . S
C1137 C1138 1.379 . S
C1138 H1122 0.931 . S
C1138 C1132 1.383 . S
C1138 C1137 1.379 . S
H1139 C1133 0.959 . S
H1140 C1133 0.961 . S
H1141 C1133 0.960 . S
H1142 C1134 0.930 . S
H1143 C1135 0.929 . S
H1144 C1152 0.929 . S
H1145 C1154 0.930 . S
H1146 C1156 0.930 . S
H1147 C1159 0.929 . S
H1148 C1162 0.930 . S
H1149 C1164 0.960 . S
H1150 C1164 0.960 . S
H1151 C1164 0.960 . S
C1152 H1144 0.929 . S
C1152 C1153 1.377 . S
C1152 C1154 1.384 . S
C1153 C1152 1.377 . S
C1153 C1159 1.390 . S
C1154 H1145 0.930 . S
C1154 C1152 1.384 . S
C1154 C1155 1.372 . S
C1155 C1154 1.372 . S
C1155 C1156 1.400 . S
C1155 C1160 1.490 . S
C1156 H1146 0.930 . S
C1156 C1155 1.400 . S
C1156 C1159 1.386 . S
H1157 C1173 0.930 . S
H1158 C1174 0.931 . S
C1159 H1147 0.929 . S
C1159 C1153 1.390 . S
C1159 C1156 1.386 . S
C1160 C1155 1.490 . S
C1160 C1162 1.395 . S
C1160 C1163 1.403 . S
H1161 C1167 0.930 . S
C1162 H1148 0.930 . S
C1162 C1160 1.395 . S
C1162 C1165 1.403 . S
C1163 C1160 1.403 . S
C1163 C1164 1.524 . S
C1163 C1167 1.400 . S
C1164 H1149 0.960 . S
C1164 H1150 0.960 . S
C1164 H1151 0.960 . S
C1164 C1163 1.524 . S
C1165 C1162 1.403 . S
C1165 C1166 1.392 . S
C1165 C1169 1.495 . S
C1166 C1165 1.392 . S
C1166 C1167 1.385 . S
C1166 C1168 1.478 . S
C1167 H1161 0.930 . S
C1167 C1163 1.400 . S
C1167 C1166 1.385 . S
C1168 C1166 1.478 . S
C1168 C1170 1.381 . S
C1168 C1174 1.383 . S
C1169 C1165 1.495 . S
C1169 H1175 0.959 . S
C1169 H1176 0.961 . S
C1169 H1177 0.960 . S
C1170 C1168 1.381 . S
C1170 C1171 1.394 . S
C1170 H1178 0.930 . S
C1171 C1170 1.394 . S
C1171 C1172 1.383 . S
C1171 H1179 0.929 . S
C1172 C1171 1.383 . S
C1172 C1173 1.377 . S
C1173 H1157 0.930 . S
C1173 C1172 1.377 . S
C1173 C1174 1.379 . S
C1174 H1158 0.931 . S
C1174 C1168 1.383 . S
C1174 C1173 1.379 . S
H1175 C1169 0.959 . S
H1176 C1169 0.961 . S
H1177 C1169 0.960 . S
H1178 C1170 0.930 . S
H1179 C1171 0.929 . S
H1180 C1188 0.929 . S
H1181 C1190 0.930 . S
H1182 C1192 0.930 . S
H1183 C1195 0.929 . S
H1184 C1198 0.930 . S
H1185 C1200 0.960 . S
H1186 C1200 0.960 . S
H1187 C1200 0.960 . S
C1188 H1180 0.929 . S
C1188 C1189 1.377 . S
C1188 C1190 1.384 . S
C1189 C1188 1.377 . S
C1189 C1195 1.390 . S
C1190 H1181 0.930 . S
C1190 C1188 1.384 . S
C1190 C1191 1.372 . S
C1191 C1190 1.372 . S
C1191 C1192 1.400 . S
C1191 C1196 1.490 . S
C1192 H1182 0.930 . S
C1192 C1191 1.400 . S
C1192 C1195 1.386 . S
H1193 C1209 0.930 . S
H1194 C1210 0.931 . S
C1195 H1183 0.929 . S
C1195 C1189 1.390 . S
C1195 C1192 1.386 . S
C1196 C1191 1.490 . S
C1196 C1198 1.395 . S
C1196 C1199 1.403 . S
H1197 C1203 0.930 . S
C1198 H1184 0.930 . S
C1198 C1196 1.395 . S
C1198 C1201 1.403 . S
C1199 C1196 1.403 . S
C1199 C1200 1.524 . S
C1199 C1203 1.400 . S
C1200 H1185 0.960 . S
C1200 H1186 0.960 . S
C1200 H1187 0.960 . S
C1200 C1199 1.524 . S
C1201 C1198 1.403 . S
C1201 C1202 1.392 . S
C1201 C1205 1.495 . S
C1202 C1201 1.392 . S
C1202 C1203 1.385 . S
C1202 C1204 1.478 . S
C1203 H1197 0.930 . S
C1203 C1199 1.400 . S
C1203 C1202 1.385 . S
C1204 C1202 1.478 . S
C1204 C1206 1.381 . S
C1204 C1210 1.383 . S
C1205 C1201 1.495 . S
C1205 H1211 0.959 . S
C1205 H1212 0.961 . S
C1205 H1213 0.960 . S
C1206 C1204 1.381 . S
C1206 C1207 1.394 . S
C1206 H1214 0.930 . S
C1207 C1206 1.394 . S
C1207 C1208 1.383 . S
C1207 H1215 0.929 . S
C1208 C1207 1.383 . S
C1208 C1209 1.377 . S
C1209 H1193 0.930 . S
C1209 C1208 1.377 . S
C1209 C1210 1.379 . S
C1210 H1194 0.931 . S
C1210 C1204 1.383 . S
C1210 C1209 1.379 . S
H1211 C1205 0.959 . S
H1212 C1205 0.961 . S
H1213 C1205 0.960 . S
H1214 C1206 0.930 . S
H1215 C1207 0.929 . S
H1216 C1224 0.929 . S
H1217 C1226 0.930 . S
H1218 C1228 0.930 . S
H1219 C1231 0.929 . S
H1220 C1234 0.930 . S
H1221 C1236 0.960 . S
H1222 C1236 0.960 . S
H1223 C1236 0.960 . S
C1224 H1216 0.929 . S
C1224 C1225 1.377 . S
C1224 C1226 1.384 . S
C1225 C1224 1.377 . S
C1225 C1231 1.390 . S
C1226 H1217 0.930 . S
C1226 C1224 1.384 . S
C1226 C1227 1.372 . S
C1227 C1226 1.372 . S
C1227 C1228 1.400 . S
C1227 C1232 1.490 . S
C1228 H1218 0.930 . S
C1228 C1227 1.400 . S
C1228 C1231 1.386 . S
H1229 C1245 0.930 . S
H1230 C1246 0.931 . S
C1231 H1219 0.929 . S
C1231 C1225 1.390 . S
C1231 C1228 1.386 . S
C1232 C1227 1.490 . S
C1232 C1234 1.395 . S
C1232 C1235 1.403 . S
H1233 C1239 0.930 . S
C1234 H1220 0.930 . S
C1234 C1232 1.395 . S
C1234 C1237 1.403 . S
C1235 C1232 1.403 . S
C1235 C1236 1.524 . S
C1235 C1239 1.400 . S
C1236 H1221 0.960 . S
C1236 H1222 0.960 . S
C1236 H1223 0.960 . S
C1236 C1235 1.524 . S
C1237 C1234 1.403 . S
C1237 C1238 1.392 . S
C1237 C1241 1.495 . S
C1238 C1237 1.392 . S
C1238 C1239 1.385 . S
C1238 C1240 1.478 . S
C1239 H1233 0.930 . S
C1239 C1235 1.400 . S
C1239 C1238 1.385 . S
C1240 C1238 1.478 . S
C1240 C1242 1.381 . S
C1240 C1246 1.383 . S
C1241 C1237 1.495 . S
C1241 H1247 0.959 . S
C1241 H1248 0.961 . S
C1241 H1249 0.960 . S
C1242 C1240 1.381 . S
C1242 C1243 1.394 . S
C1242 H1250 0.930 . S
C1243 C1242 1.394 . S
C1243 C1244 1.383 . S
C1243 H1251 0.929 . S
C1244 C1243 1.383 . S
C1244 C1245 1.377 . S
C1245 H1229 0.930 . S
C1245 C1244 1.377 . S
C1245 C1246 1.379 . S
C1246 H1230 0.931 . S
C1246 C1240 1.383 . S
C1246 C1245 1.379 . S
H1247 C1241 0.959 . S
H1248 C1241 0.961 . S
H1249 C1241 0.960 . S
H1250 C1242 0.930 . S
H1251 C1243 0.929 . S
H1252 C1260 0.929 . S
H1253 C1262 0.930 . S
H1254 C1264 0.930 . S
H1255 C1267 0.929 . S
H1256 C1270 0.930 . S
H1257 C1272 0.960 . S
H1258 C1272 0.960 . S
H1259 C1272 0.960 . S
C1260 H1252 0.929 . S
C1260 C1261 1.377 . S
C1260 C1262 1.384 . S
C1261 C1260 1.377 . S
C1261 C1267 1.390 . S
C1262 H1253 0.930 . S
C1262 C1260 1.384 . S
C1262 C1263 1.372 . S
C1263 C1262 1.372 . S
C1263 C1264 1.400 . S
C1263 C1268 1.490 . S
C1264 H1254 0.930 . S
C1264 C1263 1.400 . S
C1264 C1267 1.386 . S
H1265 C1281 0.930 . S
H1266 C1282 0.931 . S
C1267 H1255 0.929 . S
C1267 C1261 1.390 . S
C1267 C1264 1.386 . S
C1268 C1263 1.490 . S
C1268 C1270 1.395 . S
C1268 C1271 1.403 . S
H1269 C1275 0.930 . S
C1270 H1256 0.930 . S
C1270 C1268 1.395 . S
C1270 C1273 1.403 . S
C1271 C1268 1.403 . S
C1271 C1272 1.524 . S
C1271 C1275 1.400 . S
C1272 H1257 0.960 . S
C1272 H1258 0.960 . S
C1272 H1259 0.960 . S
C1272 C1271 1.524 . S
C1273 C1270 1.403 . S
C1273 C1274 1.392 . S
C1273 C1277 1.495 . S
C1274 C1273 1.392 . S
C1274 C1275 1.385 . S
C1274 C1276 1.478 . S
C1275 H1269 0.930 . S
C1275 C1271 1.400 . S
C1275 C1274 1.385 . S
C1276 C1274 1.478 . S
C1276 C1278 1.381 . S
C1276 C1282 1.383 . S
C1277 C1273 1.495 . S
C1277 H1283 0.959 . S
C1277 H1284 0.961 . S
C1277 H1285 0.960 . S
C1278 C1276 1.381 . S
C1278 C1279 1.394 . S
C1278 H1286 0.930 . S
C1279 C1278 1.394 . S
C1279 C1280 1.383 . S
C1279 H1287 0.929 . S
C1280 C1279 1.383 . S
C1280 C1281 1.377 . S
C1281 H1265 0.930 . S
C1281 C1280 1.377 . S
C1281 C1282 1.379 . S
C1282 H1266 0.931 . S
C1282 C1276 1.383 . S
C1282 C1281 1.379 . S
H1283 C1277 0.959 . S
H1284 C1277 0.961 . S
H1285 C1277 0.960 . S
H1286 C1278 0.930 . S
H1287 C1279 0.929 . S
H1288 C1296 0.929 . S
H1289 C1298 0.930 . S
H1290 C1300 0.930 . S
H1291 C1303 0.929 . S
H1292 C1306 0.930 . S
H1293 C1308 0.960 . S
H1294 C1308 0.960 . S
H1295 C1308 0.960 . S
C1296 H1288 0.929 . S
C1296 C1297 1.377 . S
C1296 C1298 1.384 . S
C1297 C1296 1.377 . S
C1297 C1303 1.390 . S
C1298 H1289 0.930 . S
C1298 C1296 1.384 . S
C1298 C1299 1.372 . S
C1299 C1298 1.372 . S
C1299 C1300 1.400 . S
C1299 C1304 1.490 . S
C1300 H1290 0.930 . S
C1300 C1299 1.400 . S
C1300 C1303 1.386 . S
H1301 C1317 0.930 . S
H1302 C1318 0.931 . S
C1303 H1291 0.929 . S
C1303 C1297 1.390 . S
C1303 C1300 1.386 . S
C1304 C1299 1.490 . S
C1304 C1306 1.395 . S
C1304 C1307 1.403 . S
H1305 C1311 0.930 . S
C1306 H1292 0.930 . S
C1306 C1304 1.395 . S
C1306 C1309 1.403 . S
C1307 C1304 1.403 . S
C1307 C1308 1.524 . S
C1307 C1311 1.400 . S
C1308 H1293 0.960 . S
C1308 H1294 0.960 . S
C1308 H1295 0.960 . S
C1308 C1307 1.524 . S
C1309 C1306 1.403 . S
C1309 C1310 1.392 . S
C1309 C1313 1.495 . S
C1310 C1309 1.392 . S
C1310 C1311 1.385 . S
C1310 C1312 1.478 . S
C1311 H1305 0.930 . S
C1311 C1307 1.400 . S
C1311 C1310 1.385 . S
C1312 C1310 1.478 . S
C1312 C1314 1.381 . S
C1312 C1318 1.383 . S
C1313 C1309 1.495 . S
C1313 H1319 0.959 . S
C1313 H1320 0.961 . S
C1313 H1321 0.960 . S
C1314 C1312 1.381 . S
C1314 C1315 1.394 . S
C1314 H1322 0.930 . S
C1315 C1314 1.394 . S
C1315 C1316 1.383 . S
C1315 H1323 0.929 . S
C1316 C1315 1.383 . S
C1316 C1317 1.377 . S
C1317 H1301 0.930 . S
C1317 C1316 1.377 . S
C1317 C1318 1.379 . S
C1318 H1302 0.931 . S
C1318 C1312 1.383 . S
C1318 C1317 1.379 . S
H1319 C1313 0.959 . S
H1320 C1313 0.961 . S
H1321 C1313 0.960 . S
H1322 C1314 0.930 . S
H1323 C1315 0.929 . S
H1324 C1332 0.929 . S
H1325 C1334 0.930 . S
H1326 C1336 0.930 . S
H1327 C1339 0.929 . S
H1328 C1342 0.930 . S
H1329 C1344 0.960 . S
H1330 C1344 0.960 . S
H1331 C1344 0.960 . S
C1332 H1324 0.929 . S
C1332 C1333 1.377 . S
C1332 C1334 1.384 . S
C1333 C1332 1.377 . S
C1333 C1339 1.390 . S
C1334 H1325 0.930 . S
C1334 C1332 1.384 . S
C1334 C1335 1.372 . S
C1335 C1334 1.372 . S
C1335 C1336 1.400 . S
C1335 C1340 1.490 . S
C1336 H1326 0.930 . S
C1336 C1335 1.400 . S
C1336 C1339 1.386 . S
H1337 C1353 0.930 . S
H1338 C1354 0.931 . S
C1339 H1327 0.929 . S
C1339 C1333 1.390 . S
C1339 C1336 1.386 . S
C1340 C1335 1.490 . S
C1340 C1342 1.395 . S
C1340 C1343 1.403 . S
H1341 C1347 0.930 . S
C1342 H1328 0.930 . S
C1342 C1340 1.395 . S
C1342 C1345 1.403 . S
C1343 C1340 1.403 . S
C1343 C1344 1.524 . S
C1343 C1347 1.400 . S
C1344 H1329 0.960 . S
C1344 H1330 0.960 . S
C1344 H1331 0.960 . S
C1344 C1343 1.524 . S
C1345 C1342 1.403 . S
C1345 C1346 1.392 . S
C1345 C1349 1.495 . S
C1346 C1345 1.392 . S
C1346 C1347 1.385 . S
C1346 C1348 1.478 1_554 S
C1347 H1341 0.930 . S
C1347 C1343 1.400 . S
C1347 C1346 1.385 . S
C1348 C1346 1.478 1_556 S
C1348 C1350 1.381 . S
C1348 C1354 1.383 . S
C1349 C1345 1.495 . S
C1349 H1355 0.959 . S
C1349 H1356 0.961 1_554 S
C1349 H1357 0.960 . S
C1350 C1348 1.381 . S
C1350 C1351 1.394 . S
C1350 H1358 0.930 . S
C1351 C1350 1.394 . S
C1351 C1352 1.383 . S
C1351 H1359 0.929 . S
C1352 C1351 1.383 . S
C1352 C1353 1.377 . S
C1353 H1337 0.930 . S
C1353 C1352 1.377 . S
C1353 C1354 1.379 . S
C1354 H1338 0.931 . S
C1354 C1348 1.383 . S
C1354 C1353 1.379 . S
H1355 C1349 0.959 . S
H1356 C1349 0.961 1_556 S
H1357 C1349 0.960 . S
H1358 C1350 0.930 . S
H1359 C1351 0.929 . S
C217 C83 2.139 . S
C236 C5 2.122 . S
C253 C96 2.141 . S
C272 C18 2.117 . S
C289 C31 2.146 . S
C308 C57 2.155 1_556 S
C325 C44 2.141 . S
C344 C70 2.156 . S
C361 C109 2.147 . S
C380 C187 2.154 1_556 S
C397 C200 2.145 . S
C416 C122 2.130 . S
C433 C135 2.138 . S
C452 C161 2.134 . S
C469 C148 2.147 . S
C488 C174 2.142 . S
C505 C10 2.031 . S
C524 C140 2.012 . S
C541 C23 2.028 . S
C560 C153 2.007 . S
C577 C36 2.031 . S
C596 C114 2.010 . S
C613 C49 2.037 . S
C632 C127 2.052 . S
C649 C62 2.036 . S
C668 C192 2.051 . S
C685 C205 2.028 . S
C704 C75 2.006 . S
C721 C88 2.037 . S
C740 C166 2.052 . S
C757 C179 2.035 . S
C776 C101 2.048 . S
C793 C170 0.133 . S
C812 C1 0.150 . S
C829 C14 0.140 . S
C848 C183 0.178 . S
C865 C196 0.144 . S
C884 C27 0.151 . S
C901 C157 0.131 . S
C920 C40 0.160 . S
C937 C144 0.135 . S
C956 C53 0.191 . S
C973 C66 0.143 . S
C992 C105 0.134 . S
C1009 C79 0.130 . S
C1028 C118 0.181 . S
C1045 C92 0.131 . S
C1064 C131 0.160 . S
C1081 C172 1.903 . S
C1100 C3 1.904 . S
C1117 C16 1.904 . S
C1136 C185 1.895 . S
C1153 C29 1.904 . S
C1172 C198 1.894 . S
C1189 C159 1.902 . S
C1208 C42 1.905 . S
C1225 C146 1.903 . S
C1244 C55 1.904 . S
C1261 C107 1.902 . S
C1280 C68 1.903 . S
C1297 C81 1.904 . S
C1316 C120 1.895 . S
C1333 C133 1.903 . S
C1352 C94 1.904 . S
