# Generated by pormake.
# Topology lcy-e, (6)-cn, num edge types: 1
# Building blocks:
#     Node 0, Type 0, BuildingBlock: BETDEL_clean_sbu_0, # of connection points: 6
#     Node 1, Type 0, BuildingBlock: BETDEL_clean_sbu_0, # of connection points: 6
#     Node 2, Type 0, BuildingBlock: BETDEL_clean_sbu_0, # of connection points: 6
#     Node 3, Type 0, BuildingBlock: BETDEL_clean_sbu_0, # of connection points: 6
#     Node 4, Type 0, BuildingBlock: BETDEL_clean_sbu_0, # of connection points: 6
#     Node 5, Type 0, BuildingBlock: BETDEL_clean_sbu_0, # of connection points: 6
#     Node 6, Type 0, BuildingBlock: BETDEL_clean_sbu_0, # of connection points: 6
#     Node 7, Type 0, BuildingBlock: BETDEL_clean_sbu_0, # of connection points: 6
#     Node 8, Type 0, BuildingBlock: BETDEL_clean_sbu_0, # of connection points: 6
#     Node 9, Type 0, BuildingBlock: BETDEL_clean_sbu_0, # of connection points: 6
#     Node 10, Type 0, BuildingBlock: BETDEL_clean_sbu_0, # of connection points: 6
#     Node 11, Type 0, BuildingBlock: BETDEL_clean_sbu_0, # of connection points: 6
#     Edge 12, Type (0, 0), BuildingBlock: KIFKEQ_clean_linker_1, # of connection points: 2
#     Edge 13, Type (0, 0), BuildingBlock: KIFKEQ_clean_linker_1, # of connection points: 2
#     Edge 14, Type (0, 0), BuildingBlock: KIFKEQ_clean_linker_1, # of connection points: 2
#     Edge 15, Type (0, 0), BuildingBlock: KIFKEQ_clean_linker_1, # of connection points: 2
#     Edge 16, Type (0, 0), BuildingBlock: KIFKEQ_clean_linker_1, # of connection points: 2
#     Edge 17, Type (0, 0), BuildingBlock: KIFKEQ_clean_linker_1, # of connection points: 2
#     Edge 18, Type (0, 0), BuildingBlock: KIFKEQ_clean_linker_1, # of connection points: 2
#     Edge 19, Type (0, 0), BuildingBlock: KIFKEQ_clean_linker_1, # of connection points: 2
#     Edge 20, Type (0, 0), BuildingBlock: KIFKEQ_clean_linker_1, # of connection points: 2
#     Edge 21, Type (0, 0), BuildingBlock: KIFKEQ_clean_linker_1, # of connection points: 2
#     Edge 22, Type (0, 0), BuildingBlock: KIFKEQ_clean_linker_1, # of connection points: 2
#     Edge 23, Type (0, 0), BuildingBlock: KIFKEQ_clean_linker_1, # of connection points: 2
#     Edge 24, Type (0, 0), BuildingBlock: KIFKEQ_clean_linker_1, # of connection points: 2
#     Edge 25, Type (0, 0), BuildingBlock: KIFKEQ_clean_linker_1, # of connection points: 2
#     Edge 26, Type (0, 0), BuildingBlock: KIFKEQ_clean_linker_1, # of connection points: 2
#     Edge 27, Type (0, 0), BuildingBlock: KIFKEQ_clean_linker_1, # of connection points: 2
#     Edge 28, Type (0, 0), BuildingBlock: KIFKEQ_clean_linker_1, # of connection points: 2
#     Edge 29, Type (0, 0), BuildingBlock: KIFKEQ_clean_linker_1, # of connection points: 2
#     Edge 30, Type (0, 0), BuildingBlock: KIFKEQ_clean_linker_1, # of connection points: 2
#     Edge 31, Type (0, 0), BuildingBlock: KIFKEQ_clean_linker_1, # of connection points: 2
#     Edge 32, Type (0, 0), BuildingBlock: KIFKEQ_clean_linker_1, # of connection points: 2
#     Edge 33, Type (0, 0), BuildingBlock: KIFKEQ_clean_linker_1, # of connection points: 2
#     Edge 34, Type (0, 0), BuildingBlock: KIFKEQ_clean_linker_1, # of connection points: 2
#     Edge 35, Type (0, 0), BuildingBlock: KIFKEQ_clean_linker_1, # of connection points: 2
#     Edge 36, Type (0, 0), BuildingBlock: KIFKEQ_clean_linker_1, # of connection points: 2
#     Edge 37, Type (0, 0), BuildingBlock: KIFKEQ_clean_linker_1, # of connection points: 2
#     Edge 38, Type (0, 0), BuildingBlock: KIFKEQ_clean_linker_1, # of connection points: 2
#     Edge 39, Type (0, 0), BuildingBlock: KIFKEQ_clean_linker_1, # of connection points: 2
#     Edge 40, Type (0, 0), BuildingBlock: KIFKEQ_clean_linker_1, # of connection points: 2
#     Edge 41, Type (0, 0), BuildingBlock: KIFKEQ_clean_linker_1, # of connection points: 2
#     Edge 42, Type (0, 0), BuildingBlock: KIFKEQ_clean_linker_1, # of connection points: 2
#     Edge 43, Type (0, 0), BuildingBlock: KIFKEQ_clean_linker_1, # of connection points: 2
#     Edge 44, Type (0, 0), BuildingBlock: KIFKEQ_clean_linker_1, # of connection points: 2
#     Edge 45, Type (0, 0), BuildingBlock: KIFKEQ_clean_linker_1, # of connection points: 2
#     Edge 46, Type (0, 0), BuildingBlock: KIFKEQ_clean_linker_1, # of connection points: 2
#     Edge 47, Type (0, 0), BuildingBlock: KIFKEQ_clean_linker_1, # of connection points: 2
# Relax obj value: 0.223
# Max RMSD: 0.280
# Mean RMSD: 0.269
data_MOF--net-lcy-e--node1-BETDEL_clean_sbu_0--edge1-KIFKEQ_clean_linker_1
_symmetry_space_group_name_H-M    P1
_symmetry_Int_Tables_number       1
_symmetry_cell_setting            triclinic
loop_
_symmetry_equiv_pos_as_xyz
'x, y, z'
_cell_length_a     38.08382
_cell_length_b     37.168139
_cell_length_c     38.98627
_cell_angle_alpha  90.145148
_cell_angle_beta   91.637179
_cell_angle_gamma 88.654537
loop_
_atom_site_label
_atom_site_type_symbol
_atom_site_fract_x
_atom_site_fract_y
_atom_site_fract_z
_atom_type_partial_charge
Dy0 Dy 0.12101 0.25543 0.45596 0.0
C1 C 0.13959 0.12878 0.53346 0.0
C2 C 0.11995 0.31431 0.41422 0.0
Dy3 Dy 0.14563 0.19193 0.49961 0.0
O4 O 0.09554 0.29054 0.415 0.0
O5 O 0.14423 0.30658 0.43723 0.0
O6 O 0.06904 0.23091 0.44708 0.0
O7 O 0.11451 0.19701 0.45136 0.0
C8 C 0.08112 0.19799 0.44854 0.0
C9 C 0.18026 0.25371 0.5116 0.0
O10 O 0.17803 0.17818 0.45504 0.0
O11 O 0.16903 0.23331 0.42825 0.0
O12 O 0.1675 0.14835 0.53504 0.0
O13 O 0.11572 0.14365 0.5135 0.0
O14 O 0.19487 0.22205 0.51687 0.0
O15 O 0.14841 0.24972 0.50434 0.0
O16 O 0.09365 0.27035 0.50533 0.0
O17 O 0.10083 0.21391 0.53014 0.0
C18 C 0.18589 0.20161 0.43123 0.0
C19 C 0.08648 0.24675 0.52984 0.0
Dy20 Dy 0.00653 0.86869 0.69366 0.0
C21 C 0.13378 0.86498 0.77928 0.0
C22 C 0.95933 0.88056 0.6406 0.0
Dy23 Dy 0.07058 0.87457 0.74576 0.0
O24 O 0.99195 0.87065 0.63778 0.0
O25 O 0.95165 0.88305 0.67294 0.0
O26 O 0.02013 0.81015 0.68653 0.0
O27 O 0.06 0.84679 0.69752 0.0
C28 C 0.05343 0.81405 0.69326 0.0
C29 C 0.01299 0.91393 0.76113 0.0
O30 O 0.08992 0.90993 0.70484 0.0
O31 O 0.03839 0.91225 0.67094 0.0
O32 O 0.11687 0.89571 0.77601 0.0
O33 O 0.11598 0.83955 0.7645 0.0
O34 O 0.03559 0.90184 0.78425 0.0
O35 O 0.0244 0.90726 0.73174 0.0
O36 O 0.98435 0.84632 0.74189 0.0
O37 O 0.03894 0.82999 0.76611 0.0
C38 C 0.07112 0.922 0.67804 0.0
C39 C 0.0041 0.82962 0.76597 0.0
Dy40 Dy 0.36958 0.80233 0.00643 0.0
C41 C 0.37215 0.70545 0.89045 0.0
C42 C 0.37992 0.84695 0.06148 0.0
Dy43 Dy 0.38033 0.74744 0.94775 0.0
O44 O 0.35071 0.84457 0.04366 0.0
O45 O 0.40307 0.82424 0.04976 0.0
O46 O 0.31975 0.82356 0.98316 0.0
O47 O 0.35897 0.80299 0.95067 0.0
C48 C 0.32737 0.81451 0.95202 0.0
C49 C 0.41796 0.73553 0.00682 0.0
O50 O 0.4219 0.7846 0.93352 0.0
O51 O 0.41947 0.82087 0.98216 0.0
O52 O 0.37256 0.69374 0.92185 0.0
O53 O 0.37679 0.7399 0.89039 0.0
O54 O 0.4292 0.72502 0.97709 0.0
O55 O 0.38731 0.74756 1.00292 0.0
O56 O 0.33739 0.75509 0.02256 0.0
O57 O 0.32703 0.73556 0.96702 0.0
C58 C 0.43429 0.81071 0.95307 0.0
C59 C 0.32004 0.73448 1.00006 0.0
Dy60 Dy 0.51293 0.1321 0.19297 0.0
C61 C 0.39929 0.14056 0.28886 0.0
C62 C 0.55389 0.12338 0.137 0.0
Dy63 Dy 0.45616 0.12443 0.24912 0.0
O64 O 0.52022 0.1293 0.13635 0.0
O65 O 0.56584 0.12265 0.1687 0.0
O66 O 0.49376 0.18785 0.18355 0.0
O67 O 0.45729 0.14868 0.19768 0.0
C68 C 0.46156 0.1818 0.19142 0.0
C69 C 0.51505 0.0816 0.258 0.0
O70 O 0.43531 0.08761 0.20868 0.0
O71 O 0.48905 0.07811 0.18343 0.0
O72 O 0.41289 0.10849 0.28439 0.0
O73 O 0.41709 0.16372 0.272 0.0
O74 O 0.48569 0.07527 0.27311 0.0
O75 O 0.51103 0.11162 0.24407 0.0
O76 O 0.53917 0.16208 0.23661 0.0
O77 O 0.48882 0.17024 0.26903 0.0
C78 C 0.45618 0.06883 0.18842 0.0
C79 C 0.52215 0.17711 0.26267 0.0
Dy80 Dy 0.64586 0.25384 0.56661 0.0
C81 C 0.61812 0.38428 0.48641 0.0
C82 C 0.66356 0.20623 0.61775 0.0
Dy83 Dy 0.63856 0.32087 0.51719 0.0
O84 O 0.66015 0.19758 0.58536 0.0
O85 O 0.65731 0.2404 0.62177 0.0
O86 O 0.58902 0.26124 0.57811 0.0
O87 O 0.61892 0.3064 0.56716 0.0
C88 C 0.58861 0.29563 0.57307 0.0
C89 C 0.67943 0.26612 0.49477 0.0
O90 O 0.67828 0.34189 0.55492 0.0
O91 O 0.69207 0.28718 0.58186 0.0
O92 O 0.65032 0.37172 0.4886 0.0
O93 O 0.59728 0.36232 0.50129 0.0
O94 O 0.66316 0.28888 0.47416 0.0
O95 O 0.67539 0.2762 0.52523 0.0
O96 O 0.62101 0.22953 0.5195 0.0
O97 O 0.5961 0.28372 0.49976 0.0
C98 C 0.698 0.32176 0.57629 0.0
C99 C 0.59927 0.2481 0.49851 0.0
Dy100 Dy 0.95585 0.39111 0.7569 0.0
C101 C 0.03145 0.37348 0.88396 0.0
C102 C 0.91699 0.39391 0.69723 0.0
Dy103 Dy 0.99818 0.36806 0.82127 0.0
O104 O 0.91554 0.41759 0.72166 0.0
O105 O 0.94023 0.36894 0.70518 0.0
O106 O 0.94682 0.44517 0.77922 0.0
O107 O 0.94972 0.40008 0.81217 0.0
C108 C 0.94711 0.43412 0.81079 0.0
C109 C 0.01039 0.32935 0.76374 0.0
O110 O 0.94859 0.3407 0.83191 0.0
O111 O 0.92644 0.34315 0.776 0.0
O112 O 0.02489 0.34322 0.86841 0.0
O113 O 0.02019 0.40029 0.86515 0.0
O114 O 0.01472 0.31556 0.79431 0.0
O115 O 0.00424 0.3622 0.76678 0.0
O116 O 0.00706 0.41649 0.74527 0.0
O117 O 0.03113 0.41217 0.80057 0.0
C118 C 0.9263 0.32993 0.80763 0.0
C119 C 0.03177 0.42458 0.76867 0.0
Dy120 Dy 0.86361 0.74804 0.05972 0.0
C121 C 0.86328 0.61885 0.97783 0.0
C122 C 0.86509 0.80821 0.10024 0.0
Dy123 Dy 0.85633 0.68429 0.00902 0.0
O124 O 0.89186 0.78697 0.0946 0.0
O125 O 0.83795 0.79734 0.08251 0.0
O126 O 0.88853 0.7091 0.09781 0.0
O127 O 0.89658 0.70187 0.04551 0.0
C128 C 0.90268 0.68865 0.07477 0.0
C129 C 0.81933 0.74422 0.99176 0.0
O130 O 0.82103 0.66696 0.05059 0.0
O131 O 0.81676 0.72094 0.08068 0.0
O132 O 0.84207 0.64476 0.96742 0.0
O133 O 0.88031 0.62857 0.00551 0.0
O134 O 0.83138 0.72143 0.96928 0.0
O135 O 0.82472 0.73179 0.02156 0.0
O136 O 0.88994 0.76843 0.01218 0.0
O137 O 0.90162 0.71231 0.988 0.0
C138 C 0.80687 0.68742 0.07467 0.0
C139 C 0.90537 0.74761 0.98884 0.0
Dy140 Dy 0.54932 0.60802 0.25184 0.0
C141 C 0.46234 0.63644 0.36707 0.0
C142 C 0.59364 0.60919 0.19797 0.0
Dy143 Dy 0.49963 0.63344 0.30846 0.0
O144 O 0.594 0.58451 0.22155 0.0
O145 O 0.56822 0.6322 0.20319 0.0
O146 O 0.55956 0.55592 0.27849 0.0
O147 O 0.54982 0.60306 0.30777 0.0
C148 C 0.55432 0.56913 0.30888 0.0
C149 C 0.49247 0.66742 0.24743 0.0
O150 O 0.54246 0.67041 0.32146 0.0
O151 O 0.57494 0.65846 0.27299 0.0
O152 O 0.44923 0.64342 0.33656 0.0
O153 O 0.49548 0.62808 0.36534 0.0
O154 O 0.48568 0.6835 0.27634 0.0
O155 O 0.49912 0.63489 0.25313 0.0
O156 O 0.49989 0.57871 0.23654 0.0
O157 O 0.4761 0.58158 0.2907 0.0
C158 C 0.56876 0.67722 0.30138 0.0
C159 C 0.4761 0.56871 0.25892 0.0
Dy160 Dy 0.23344 0.4299 0.12896 0.0
C161 C 0.11642 0.53334 0.12989 0.0
C162 C 0.29072 0.38508 0.1355 0.0
Dy163 Dy 0.17517 0.49064 0.13781 0.0
O164 O 0.27129 0.38854 0.10751 0.0
O165 O 0.27969 0.40723 0.15888 0.0
O166 O 0.19167 0.39042 0.11447 0.0
O167 O 0.18309 0.44452 0.10378 0.0
C168 C 0.1689 0.4143 0.10301 0.0
C169 C 0.23549 0.49754 0.17543 0.0
O170 O 0.15895 0.44939 0.17491 0.0
O171 O 0.21368 0.42165 0.18203 0.0
O172 O 0.14847 0.54468 0.1291 0.0
O173 O 0.11656 0.49887 0.13538 0.0
O174 O 0.20577 0.51186 0.18503 0.0
O175 O 0.23091 0.48461 0.1462 0.0
O176 O 0.25068 0.47201 0.09132 0.0
O177 O 0.1982 0.50619 0.08817 0.0
C178 C 0.18135 0.42837 0.19239 0.0
C179 C 0.23055 0.49875 0.07794 0.0
Dy180 Dy 0.69866 0.98725 0.86774 0.0
C181 C 0.78469 0.1124 0.8621 0.0
C182 C 0.65364 0.93293 0.88016 0.0
Dy183 Dy 0.74862 0.0517 0.87582 0.0
O184 O 0.65442 0.9512 0.85186 0.0
O185 O 0.67851 0.94334 0.90115 0.0
O186 O 0.68562 0.00329 0.81392 0.0
O187 O 0.6973 0.04335 0.85088 0.0
C188 C 0.69121 0.0372 0.81927 0.0
C189 C 0.75886 0.99752 0.92105 0.0
O190 O 0.70886 0.07107 0.91253 0.0
O191 O 0.67578 0.01916 0.91153 0.0
O192 O 0.75234 0.10677 0.85262 0.0
O193 O 0.79739 0.08489 0.87931 0.0
O194 O 0.76794 0.03042 0.92786 0.0
O195 O 0.75002 0.9954 0.88998 0.0
O196 O 0.7469 0.96447 0.84257 0.0
O197 O 0.77052 0.02033 0.83153 0.0
C198 C 0.68339 0.05133 0.92428 0.0
C199 C 0.76966 0.98495 0.82667 0.0
Dy200 Dy 0.7594 0.9451 0.38006 0.0
C201 C 0.8846 0.03049 0.39035 0.0
C202 C 0.71212 0.89172 0.37008 0.0
Dy203 Dy 0.82206 0.9975 0.37586 0.0
O204 O 0.74325 0.88773 0.38413 0.0
O205 O 0.70617 0.92537 0.3621 0.0
O206 O 0.77118 0.93973 0.43617 0.0
O207 O 0.81293 0.94688 0.40265 0.0
C208 C 0.8047 0.944 0.43375 0.0
C209 C 0.76347 0.01638 0.33862 0.0
O210 O 0.84055 0.95684 0.33762 0.0
O211 O 0.79025 0.92222 0.3364 0.0
O212 O 0.86931 0.02898 0.36002 0.0
O213 O 0.86572 0.01395 0.41235 0.0
O214 O 0.78545 0.03981 0.35102 0.0
O215 O 0.77588 0.98525 0.34432 0.0
O216 O 0.7355 0.99565 0.40203 0.0
O217 O 0.78947 0.01965 0.41812 0.0
C218 C 0.82159 0.93024 0.32476 0.0
C219 C 0.75469 0.01958 0.41912 0.0
Dy220 Dy 0.32611 0.50038 0.63038 0.0
C221 C 0.23236 0.62218 0.63756 0.0
C222 C 0.37755 0.45188 0.6158 0.0
Dy223 Dy 0.27144 0.56102 0.62833 0.0
O224 O 0.38186 0.48597 0.62062 0.0
O225 O 0.34491 0.44353 0.61979 0.0
O226 O 0.34098 0.51278 0.68462 0.0
O227 O 0.3242 0.55518 0.65193 0.0
C228 C 0.33297 0.54678 0.68252 0.0
C229 C 0.25185 0.50008 0.5959 0.0
O230 O 0.30622 0.58274 0.58852 0.0
O231 O 0.34233 0.53178 0.58486 0.0
O232 O 0.23226 0.6032 0.60949 0.0
O233 O 0.25403 0.60796 0.66026 0.0
O234 O 0.23005 0.52161 0.61136 0.0
O235 O 0.28184 0.51362 0.59644 0.0
O236 O 0.28218 0.47591 0.65879 0.0
O237 O 0.25965 0.53121 0.67587 0.0
C238 C 0.33232 0.56441 0.57443 0.0
C239 C 0.26145 0.49578 0.67842 0.0
H240 H 0.14676 0.31837 0.50603 0.0
H241 H 0.24523 0.26953 0.54113 0.0
H242 H 0.166 0.37661 0.52579 0.0
H243 H 0.26462 0.32873 0.56188 0.0
H244 H 0.29511 0.45121 0.56387 0.0
H245 H 0.28054 0.39073 0.54333 0.0
H246 H 0.17547 0.40567 0.58065 0.0
H247 H 0.18993 0.46583 0.60061 0.0
C248 C 0.17271 0.32006 0.51789 0.0
C249 C 0.1944 0.28915 0.52206 0.0
C250 C 0.18364 0.35358 0.52956 0.0
C251 C 0.21665 0.35743 0.54598 0.0
C252 C 0.23901 0.32674 0.54931 0.0
C253 C 0.22794 0.29285 0.53752 0.0
C254 C 0.26893 0.44144 0.56763 0.0
C255 C 0.24352 0.4634 0.58349 0.0
C256 C 0.26065 0.40673 0.55607 0.0
C257 C 0.22672 0.39336 0.56 0.0
C258 C 0.20165 0.41526 0.57652 0.0
C259 C 0.20993 0.44979 0.58805 0.0
H260 H 0.80035 0.91849 0.83747 0.0
H261 H 0.80777 0.01499 0.77692 0.0
H262 H 0.8582 0.89823 0.81832 0.0
H263 H 0.8655 0.99515 0.75824 0.0
H264 H 0.96285 0.94 0.71598 0.0
H265 H 0.90052 0.95134 0.72635 0.0
H266 H 0.9176 0.92012 0.83233 0.0
H267 H 0.97963 0.90816 0.82167 0.0
C268 C 0.81383 0.93482 0.81926 0.0
C269 C 0.79964 0.96837 0.80876 0.0
C270 C 0.84715 0.92349 0.80868 0.0
C271 C 0.86667 0.94536 0.78719 0.0
C272 C 0.85118 0.97759 0.77468 0.0
C273 C 0.81809 0.989 0.78544 0.0
C274 C 0.95316 0.93556 0.74144 0.0
C275 C 0.97599 0.92333 0.76803 0.0
C276 C 0.91753 0.94206 0.7474 0.0
C277 C 0.90402 0.93638 0.7801 0.0
C278 C 0.92701 0.92418 0.8067 0.0
C279 C 0.96265 0.91787 0.80075 0.0
H280 H 0.27518 0.69311 0.9624 0.0
H281 H 0.32393 0.70246 0.06334 0.0
H282 H 0.25596 0.63305 0.97632 0.0
H283 H 0.30392 0.64248 0.07761 0.0
H284 H 0.29824 0.52147 0.08095 0.0
H285 H 0.31818 0.57983 0.06137 0.0
H286 H 0.21688 0.60031 0.01163 0.0
H287 H 0.19736 0.54195 0.03057 0.0
C288 C 0.28103 0.6827 0.98791 0.0
C289 C 0.30106 0.70265 0.01177 0.0
C290 C 0.27012 0.64815 0.99584 0.0
C291 C 0.27898 0.63263 0.02784 0.0
C292 C 0.29739 0.65332 0.0524 0.0
C293 C 0.30825 0.68801 0.04449 0.0
C294 C 0.28079 0.53782 0.06464 0.0
C295 C 0.24628 0.52709 0.0572 0.0
C296 C 0.29191 0.5716 0.05407 0.0
C297 C 0.26883 0.59512 0.03564 0.0
C298 C 0.23534 0.58299 0.02582 0.0
C299 C 0.2242 0.5494 0.03651 0.0
H300 H 0.53397 0.02796 0.30484 0.0
H301 H 0.57706 0.10188 0.23294 0.0
H302 H 0.59416 0.01032 0.32434 0.0
H303 H 0.63622 0.08545 0.25308 0.0
H304 H 0.72897 0.08187 0.33485 0.0
H305 H 0.6682 0.09448 0.31507 0.0
H306 H 0.65426 0.98153 0.2947 0.0
H307 H 0.71557 0.96919 0.31282 0.0
C308 C 0.55613 0.04012 0.29295 0.0
C309 C 0.55061 0.06653 0.26746 0.0
C310 C 0.59052 0.03018 0.30419 0.0
C311 C 0.61985 0.04699 0.29057 0.0
C312 C 0.6142 0.07244 0.26442 0.0
C313 C 0.58017 0.0817 0.25277 0.0
C314 C 0.71304 0.05978 0.32592 0.0
C315 C 0.72698 0.02446 0.32572 0.0
C316 C 0.67821 0.06696 0.31477 0.0
C317 C 0.65637 0.03891 0.30366 0.0
C318 C 0.67026 0.00358 0.30362 0.0
C319 C 0.70532 0.99653 0.31407 0.0
H320 H 0.68098 0.237 0.43042 0.0
H321 H 0.70506 0.21322 0.53691 0.0
H322 H 0.69516 0.17451 0.41525 0.0
H323 H 0.71789 0.15063 0.52215 0.0
H324 H 0.78075 0.05667 0.47348 0.0
H325 H 0.76184 0.11603 0.49268 0.0
H326 H 0.67249 0.11318 0.4219 0.0
H327 H 0.69202 0.05351 0.40215 0.0
C328 C 0.6895 0.21842 0.45052 0.0
C329 C 0.69163 0.22973 0.48487 0.0
C330 C 0.69709 0.18256 0.44194 0.0
C331 C 0.7071 0.15746 0.46757 0.0
C332 C 0.71022 0.16923 0.5018 0.0
C333 C 0.7028 0.20504 0.51029 0.0
C334 C 0.7566 0.06835 0.46258 0.0
C335 C 0.7379 0.05058 0.43627 0.0
C336 C 0.74573 0.10239 0.4736 0.0
C337 C 0.71593 0.11955 0.45849 0.0
C338 C 0.69593 0.10085 0.4336 0.0
C339 C 0.70674 0.0665 0.42268 0.0
H340 H 0.08626 0.44803 0.80906 0.0
H341 H 0.05319 0.43351 0.70297 0.0
H342 H 0.14544 0.46061 0.79115 0.0
H343 H 0.11233 0.44668 0.68514 0.0
H344 H 0.23325 0.52249 0.73628 0.0
H345 H 0.17743 0.50599 0.75992 0.0
H346 H 0.17153 0.41638 0.6893 0.0
H347 H 0.22747 0.4333 0.6653 0.0
C348 C 0.09143 0.44818 0.78188 0.0
C349 C 0.06504 0.43964 0.75745 0.0
C350 C 0.12538 0.45524 0.77167 0.0
C351 C 0.13363 0.45384 0.73683 0.0
C352 C 0.10688 0.44701 0.71226 0.0
C353 C 0.07286 0.44012 0.72245 0.0
C354 C 0.22052 0.49862 0.72654 0.0
C355 C 0.23448 0.47921 0.69894 0.0
C356 C 0.18853 0.48923 0.74001 0.0
C357 C 0.16984 0.46036 0.72597 0.0
C358 C 0.18514 0.43923 0.70012 0.0
C359 C 0.21739 0.44848 0.6868 0.0
H360 H 0.72109 0.9571 0.96378 0.0
H361 H 0.82248 0.96424 0.91834 0.0
H362 H 0.73621 0.89597 0.98364 0.0
H363 H 0.83802 0.90342 0.93836 0.0
H364 H 0.83001 0.78048 0.93262 0.0
H365 H 0.81752 0.84389 0.92046 0.0
H366 H 0.77528 0.85757 0.02145 0.0
H367 H 0.78741 0.79365 0.03336 0.0
C368 C 0.74709 0.94596 0.9592 0.0
C369 C 0.77098 0.96542 0.9403 0.0
C370 C 0.75573 0.91096 0.97039 0.0
C371 C 0.78823 0.89467 0.96234 0.0
C372 C 0.81263 0.91499 0.94465 0.0
C373 C 0.80402 0.94997 0.93365 0.0
C374 C 0.81784 0.79696 0.95214 0.0
C375 C 0.8098 0.78221 0.98399 0.0
C376 C 0.81106 0.83342 0.94534 0.0
C377 C 0.79575 0.85596 0.97013 0.0
C378 C 0.78707 0.84097 1.00181 0.0
C379 C 0.79417 0.80447 0.00871 0.0
H380 H 0.4269 0.53804 0.29844 0.0
H381 H 0.45248 0.55693 0.19284 0.0
H382 H 0.36905 0.51759 0.28005 0.0
H383 H 0.39443 0.53686 0.17448 0.0
H384 H 0.29708 0.47547 0.14893 0.0
H385 H 0.35626 0.48645 0.17011 0.0
H386 H 0.31451 0.54494 0.25637 0.0
H387 H 0.2545 0.53268 0.23542 0.0
C388 C 0.42042 0.53729 0.27122 0.0
C389 C 0.44439 0.54923 0.2471 0.0
C390 C 0.38705 0.52591 0.26074 0.0
C391 C 0.37681 0.52605 0.22586 0.0
C392 C 0.40147 0.53616 0.20158 0.0
C393 C 0.4349 0.54755 0.21207 0.0
C394 C 0.30036 0.49016 0.17277 0.0
C395 C 0.27104 0.50305 0.19064 0.0
C396 C 0.33444 0.49681 0.1847 0.0
C397 C 0.34029 0.51683 0.21478 0.0
C398 C 0.31095 0.52911 0.23323 0.0
C399 C 0.27659 0.52229 0.22124 0.0
H400 H 0.51917 0.24394 0.29138 0.0
H401 H 0.56712 0.13838 0.30219 0.0
H402 H 0.53877 0.25893 0.34958 0.0
H403 H 0.58325 0.15102 0.36124 0.0
H404 H 0.6246 0.18919 0.46482 0.0
H405 H 0.61262 0.17492 0.40507 0.0
H406 H 0.52438 0.25082 0.40405 0.0
H407 H 0.53998 0.26827 0.46234 0.0
C408 C 0.53469 0.22431 0.30612 0.0
C409 C 0.54244 0.19042 0.29227 0.0
C410 C 0.54507 0.23233 0.33991 0.0
C411 C 0.56172 0.20586 0.36113 0.0
C412 C 0.57093 0.17251 0.34624 0.0
C413 C 0.56185 0.16516 0.31207 0.0
C414 C 0.60266 0.2027 0.45168 0.0
C415 C 0.58405 0.23067 0.46774 0.0
C416 C 0.59548 0.19439 0.41724 0.0
C417 C 0.56814 0.21259 0.39865 0.0
C418 C 0.54692 0.23756 0.41642 0.0
C419 C 0.55521 0.24698 0.45029 0.0
H420 H 0.06383 0.31484 0.54906 0.0
H421 H 0.06767 0.20416 0.5828 0.0
H422 H 0.04251 0.33325 0.60509 0.0
H423 H 0.0486 0.22253 0.6389 0.0
H424 H 0.99422 0.26395 0.73479 0.0
H425 H 0.00645 0.24414 0.67613 0.0
H426 H 0.065 0.34083 0.66055 0.0
H427 H 0.0513 0.36078 0.71796 0.0
C428 C 0.05978 0.2944 0.5682 0.0
C429 C 0.06786 0.25809 0.56133 0.0
C430 C 0.04803 0.30495 0.60063 0.0
C431 C 0.04446 0.27952 0.62713 0.0
C432 C 0.05072 0.24302 0.61944 0.0
C433 C 0.062 0.23248 0.58705 0.0
C434 C 0.01009 0.28051 0.7188 0.0
C435 C 0.02196 0.31374 0.7309 0.0
C436 C 0.01704 0.26936 0.6851 0.0
C437 C 0.03639 0.29107 0.66303 0.0
C438 C 0.0491 0.32377 0.67599 0.0
C439 C 0.0417 0.33504 0.70923 0.0
H440 H 0.03622 0.78805 0.81523 0.0
H441 H 0.93626 0.83922 0.78786 0.0
H442 H 0.01456 0.77256 0.87073 0.0
H443 H 0.9138 0.82216 0.8437 0.0
H444 H 0.89693 0.81519 0.96041 0.0
H445 H 0.91985 0.83506 0.9055 0.0
H446 H 0.97585 0.73317 0.89587 0.0
H447 H 0.95435 0.71428 0.95049 0.0
C448 C 0.00928 0.79542 0.82076 0.0
C449 C 0.98797 0.81481 0.79691 0.0
C450 C 0.99679 0.78643 0.85276 0.0
C451 C 0.9624 0.7961 0.86185 0.0
C452 C 0.9406 0.81472 0.83772 0.0
C453 C 0.95325 0.82393 0.80549 0.0
C454 C 0.91496 0.79761 0.9469 0.0
C455 C 0.92396 0.76325 0.95984 0.0
C456 C 0.92757 0.80868 0.91519 0.0
C457 C 0.94954 0.78563 0.89608 0.0
C458 C 0.9594 0.75189 0.9099 0.0
C459 C 0.94696 0.74097 0.94133 0.0
H460 H 0.49929 0.63061 0.18792 0.0
H461 H 0.47327 0.73639 0.227 0.0
H462 H 0.48771 0.65121 0.12974 0.0
H463 H 0.46133 0.75733 0.16794 0.0
H464 H 0.39174 0.75633 0.06756 0.0
H465 H 0.41513 0.74486 0.12488 0.0
H466 H 0.5054 0.69008 0.08261 0.0
H467 H 0.4816 0.70194 0.02427 0.0
C468 C 0.49167 0.65857 0.18407 0.0
C469 C 0.48727 0.68191 0.21218 0.0
C470 C 0.48522 0.67043 0.15051 0.0
C471 C 0.47372 0.70594 0.14401 0.0
C472 C 0.47002 0.72969 0.17209 0.0
C473 C 0.47684 0.7178 0.20588 0.0
C474 C 0.41692 0.74239 0.07025 0.0
C475 C 0.43483 0.73006 0.04124 0.0
C476 C 0.43046 0.73601 0.10332 0.0
C477 C 0.46221 0.71667 0.10851 0.0
C478 C 0.48073 0.70495 0.07949 0.0
C479 C 0.46721 0.71173 0.04611 0.0
H480 H 0.07584 0.32574 0.35896 0.0
H481 H 0.17499 0.35804 0.4043 0.0
H482 H 0.08954 0.35635 0.30586 0.0
H483 H 0.18854 0.38916 0.35137 0.0
H484 H 0.22121 0.38869 0.23864 0.0
H485 H 0.204 0.36663 0.2943 0.0
H486 H 0.10023 0.41395 0.27782 0.0
H487 H 0.11717 0.43561 0.22184 0.0
C488 C 0.10013 0.34025 0.35786 0.0
C489 C 0.12448 0.33936 0.38557 0.0
C490 C 0.108 0.35777 0.32745 0.0
C491 C 0.14039 0.37465 0.32425 0.0
C492 C 0.16369 0.37574 0.35285 0.0
C493 C 0.15578 0.35827 0.38326 0.0
C494 C 0.19469 0.39433 0.24678 0.0
C495 C 0.17057 0.41385 0.2257 0.0
C496 C 0.18494 0.38201 0.27887 0.0
C497 C 0.15084 0.38885 0.29059 0.0
C498 C 0.12664 0.40812 0.26943 0.0
C499 C 0.1364 0.42055 0.23736 0.0
H500 H 0.88725 0.88505 0.63614 0.0
H501 H 0.98043 0.90091 0.57826 0.0
H502 H 0.85079 0.9017 0.5858 0.0
H503 H 0.94469 0.92013 0.52892 0.0
H504 H 0.87239 0.91765 0.43413 0.0
H505 H 0.90935 0.90228 0.4843 0.0
H506 H 0.82958 0.94663 0.55027 0.0
H507 H 0.79202 0.95931 0.50005 0.0
C508 C 0.89985 0.89249 0.61271 0.0
C509 C 0.93654 0.89133 0.61093 0.0
C510 C 0.87905 0.90242 0.58383 0.0
C511 C 0.89457 0.91235 0.55284 0.0
C512 C 0.93147 0.91183 0.5517 0.0
C513 C 0.9521 0.90104 0.58018 0.0
C514 C 0.86308 0.92432 0.45941 0.0
C515 C 0.82939 0.93944 0.46332 0.0
C516 C 0.88427 0.91567 0.48834 0.0
C517 C 0.87256 0.92282 0.5218 0.0
C518 C 0.83932 0.93959 0.52527 0.0
C519 C 0.81788 0.94735 0.49642 0.0
H520 H 0.31891 0.61997 0.68555 0.0
H521 H 0.35942 0.52992 0.74546 0.0
H522 H 0.32641 0.65936 0.73569 0.0
H523 H 0.36877 0.56897 0.7944 0.0
H524 H 0.35038 0.63636 0.88767 0.0
H525 H 0.33861 0.59989 0.83687 0.0
H526 H 0.36851 0.68794 0.77238 0.0
H527 H 0.37863 0.72492 0.8235 0.0
C528 C 0.32943 0.60866 0.70935 0.0
C529 C 0.33814 0.57182 0.71169 0.0
C530 C 0.33408 0.63122 0.73802 0.0
C531 C 0.3479 0.61737 0.7694 0.0
C532 C 0.35718 0.58058 0.77116 0.0
C533 C 0.35212 0.55815 0.74286 0.0
C534 C 0.35443 0.64786 0.86262 0.0
C535 C 0.3657 0.68329 0.8595 0.0
C536 C 0.34786 0.62693 0.83341 0.0
C537 C 0.35295 0.64072 0.80031 0.0
C538 C 0.36392 0.67645 0.7973 0.0
C539 C 0.37006 0.69756 0.8266 0.0
H540 H 0.62524 0.11236 0.13159 0.0
H541 H 0.52785 0.11699 0.07211 0.0
H542 H 0.65703 0.0968 0.07935 0.0
H543 H 0.55929 0.10138 0.02046 0.0
H544 H 0.6216 0.02675 0.94828 0.0
H545 H 0.59152 0.04578 0.99989 0.0
H546 H 0.67118 0.12421 0.02078 0.0
H547 H 0.7014 0.10533 0.96897 0.0
C548 C 0.61073 0.11027 0.10739 0.0
C549 C 0.57412 0.1158 0.1059 0.0
C550 C 0.62886 0.1015 0.07754 0.0
C551 C 0.61056 0.09766 0.04588 0.0
C552 C 0.57404 0.10371 0.04451 0.0
C553 C 0.55608 0.11283 0.07411 0.0
C554 C 0.63262 0.04823 0.96368 0.0
C555 C 0.66382 0.06463 0.95433 0.0
C556 C 0.61534 0.05917 0.99323 0.0
C557 C 0.62905 0.08645 0.0144 0.0
C558 C 0.66018 0.10293 0.0051 0.0
C559 C 0.67726 0.09233 0.97524 0.0
H560 H 0.68759 0.22367 0.68161 0.0
H561 H 0.65732 0.13312 0.61899 0.0
H562 H 0.69838 0.184 0.73055 0.0
H563 H 0.66581 0.09342 0.66836 0.0
H564 H 0.7075 0.02352 0.75369 0.0
H565 H 0.705 0.06442 0.70523 0.0
H566 H 0.67176 0.15095 0.77228 0.0
H567 H 0.67664 0.10992 0.82125 0.0
C568 C 0.68314 0.19515 0.67842 0.0
C569 C 0.67171 0.18138 0.64654 0.0
C570 C 0.68899 0.17239 0.70661 0.0
C571 C 0.68285 0.13529 0.70383 0.0
C572 C 0.6716 0.12161 0.67161 0.0
C573 C 0.66647 0.14435 0.64322 0.0
C574 C 0.69997 0.05142 0.75806 0.0
C575 C 0.69201 0.06358 0.79111 0.0
C576 C 0.69818 0.07489 0.73016 0.0
C577 C 0.6875 0.11108 0.73436 0.0
C578 C 0.68043 0.12345 0.76784 0.0
C579 C 0.68303 0.09997 0.79599 0.0
H580 H 0.15827 0.34965 0.07158 0.0
H581 H 0.11857 0.45926 0.07492 0.0
H582 H 0.12227 0.3386 0.02036 0.0
H583 H 0.08051 0.44773 0.02501 0.0
H584 H 0.05894 0.43406 0.91088 0.0
H585 H 0.08749 0.44216 0.96667 0.0
H586 H 0.06904 0.33078 0.99111 0.0
H587 H 0.04222 0.32244 0.93396 0.0
C588 C 0.14093 0.37108 0.06196 0.0
C589 C 0.14146 0.40545 0.07701 0.0
C590 C 0.1201 0.36472 0.03255 0.0
C591 C 0.0988 0.39243 0.01788 0.0
C592 C 0.09737 0.42601 0.03475 0.0
C593 C 0.11879 0.43256 0.06372 0.0
C594 C 0.06106 0.41131 0.92819 0.0
C595 C 0.04858 0.37759 0.91811 0.0
C596 C 0.07707 0.41602 0.96048 0.0
C597 C 0.08039 0.38727 0.98389 0.0
C598 C 0.06745 0.35349 0.97377 0.0
C599 C 0.05196 0.34865 0.94107 0.0
H600 H 0.88033 0.94233 0.28704 0.0
H601 H 0.78852 0.8762 0.29026 0.0
H602 H 0.89372 0.91716 0.23059 0.0
H603 H 0.8019 0.85157 0.23434 0.0
H604 H 0.91727 0.82574 0.1465 0.0
H605 H 0.90997 0.85694 0.20139 0.0
H606 H 0.8006 0.87801 0.17482 0.0
H607 H 0.80783 0.8469 0.12022 0.0
C608 C 0.86329 0.92216 0.27604 0.0
C609 C 0.83317 0.91157 0.29317 0.0
C610 C 0.87094 0.90786 0.24368 0.0
C611 C 0.84841 0.88303 0.22778 0.0
C612 C 0.81925 0.87135 0.24558 0.0
C613 C 0.81179 0.8853 0.27785 0.0
C614 C 0.89192 0.83787 0.15208 0.0
C615 C 0.86302 0.83367 0.12928 0.0
C616 C 0.88776 0.85565 0.18349 0.0
C617 C 0.85457 0.86924 0.19263 0.0
C618 C 0.82633 0.86715 0.16872 0.0
C619 C 0.83053 0.84962 0.13734 0.0
H620 H 0.31425 0.62465 0.53619 0.0
H621 H 0.39269 0.53904 0.54671 0.0
H622 H 0.34521 0.6482 0.48698 0.0
H623 H 0.42289 0.56216 0.49796 0.0
H624 H 0.48905 0.62664 0.43141 0.0
H625 H 0.45705 0.61488 0.48319 0.0
H626 H 0.35868 0.62842 0.42621 0.0
H627 H 0.39099 0.64094 0.37416 0.0
C628 C 0.33809 0.611 0.52818 0.0
C629 C 0.35097 0.57997 0.54539 0.0
C630 C 0.35566 0.62437 0.49995 0.0
C631 C 0.3866 0.60718 0.48881 0.0
C632 C 0.39948 0.5764 0.50627 0.0
C633 C 0.38192 0.56297 0.53413 0.0
C634 C 0.46059 0.62767 0.43003 0.0
C635 C 0.44243 0.63428 0.39879 0.0
C636 C 0.44227 0.6208 0.45964 0.0
C637 C 0.40539 0.62019 0.45862 0.0
C638 C 0.38711 0.62885 0.42777 0.0
C639 C 0.40555 0.63586 0.398 0.0
H640 H 0.20826 0.23821 0.37455 0.0
H641 H 0.23174 0.14409 0.43654 0.0
H642 H 0.25846 0.22326 0.33905 0.0
H643 H 0.2823 0.13001 0.40227 0.0
H644 H 0.35444 0.09398 0.31805 0.0
H645 H 0.30168 0.10838 0.34986 0.0
H646 H 0.32037 0.22187 0.33772 0.0
H647 H 0.37228 0.20714 0.30465 0.0
C648 C 0.22407 0.21436 0.38065 0.0
C649 C 0.21565 0.19234 0.4084 0.0
C650 C 0.25314 0.20588 0.36043 0.0
C651 C 0.27478 0.17529 0.36756 0.0
C652 C 0.26613 0.15334 0.3953 0.0
C653 C 0.23701 0.16161 0.41523 0.0
C654 C 0.34722 0.12198 0.32221 0.0
C655 C 0.36761 0.14939 0.30895 0.0
C656 C 0.31699 0.13035 0.34065 0.0
C657 C 0.30648 0.16642 0.34672 0.0
C658 C 0.32705 0.19381 0.33328 0.0
C659 C 0.3571 0.18539 0.31454 0.0
H660 H 0.18657 0.09075 0.57494 0.0
H661 H 0.07932 0.09281 0.53573 0.0
H662 H 0.17465 0.03654 0.60812 0.0
H663 H 0.06701 0.04036 0.56942 0.0
H664 H 0.05606 0.93182 0.61038 0.0
H665 H 0.07797 0.978 0.57312 0.0
H666 H 0.14221 0.01857 0.65727 0.0
H667 H 0.12149 0.97089 0.69412 0.0
C668 C 0.16057 0.07954 0.57342 0.0
C669 C 0.13389 0.09572 0.5528 0.0
C670 C 0.15367 0.04872 0.59247 0.0
C671 C 0.11995 0.03392 0.5912 0.0
C672 C 0.09351 0.05035 0.57037 0.0
C673 C 0.10047 0.08069 0.55125 0.0
C674 C 0.07512 0.95041 0.62079 0.0
C675 C 0.08671 0.94823 0.65519 0.0
C676 C 0.08761 0.97694 0.59951 0.0
C677 C 0.11132 0.00244 0.6124 0.0
C678 C 0.12414 0.99923 0.64647 0.0
C679 C 0.11212 0.97211 0.66764 0.0
H680 H 0.1726 0.80264 0.78626 0.0
H681 H 0.17021 0.91456 0.81627 0.0
H682 H 0.22445 0.79194 0.82385 0.0
H683 H 0.22197 0.90391 0.85364 0.0
H684 H 0.26729 0.85382 0.95424 0.0
H685 H 0.22525 0.86757 0.90816 0.0
H686 H 0.28984 0.80886 0.83687 0.0
H687 H 0.33295 0.79533 0.8837 0.0
C688 C 0.1835 0.82502 0.80051 0.0
C689 C 0.16718 0.85932 0.79881 0.0
C690 C 0.2133 0.81895 0.82176 0.0
C691 C 0.22705 0.84704 0.84181 0.0
C692 C 0.21169 0.8817 0.83869 0.0
C693 C 0.1821 0.8878 0.81734 0.0
C694 C 0.27289 0.84401 0.92874 0.0
C695 C 0.30346 0.82339 0.92259 0.0
C696 C 0.24881 0.85214 0.90226 0.0
C697 C 0.25438 0.83956 0.86888 0.0
C698 C 0.28497 0.8189 0.86245 0.0
C699 C 0.30959 0.81117 0.88912 0.0
H700 H 0.39198 0.0376 0.19485 0.0
H701 H 0.49119 0.02428 0.14459 0.0
H702 H 0.37196 0.98159 0.1687 0.0
H703 H 0.471 0.96902 0.11818 0.0
H704 H 0.44054 0.85539 0.09882 0.0
H705 H 0.45759 0.90776 0.1327 0.0
H706 H 0.35511 0.9569 0.11264 0.0
H707 H 0.33788 0.90402 0.07939 0.0
C708 C 0.40947 0.02287 0.17815 0.0
C709 C 0.44323 0.03548 0.17189 0.0
C710 C 0.39795 0.9908 0.16312 0.0
C711 C 0.41998 0.97061 0.14158 0.0
C712 C 0.45361 0.98343 0.13521 0.0
C713 C 0.46508 0.01539 0.15016 0.0
C714 C 0.42147 0.87711 0.1022 0.0
C715 C 0.38799 0.8758 0.08634 0.0
C716 C 0.43132 0.90726 0.12135 0.0
C717 C 0.40792 0.93682 0.12491 0.0
C718 C 0.37373 0.93458 0.11055 0.0
C719 C 0.36386 0.90432 0.09145 0.0
H720 H 0.8612 0.43923 0.68384 0.0
H721 H 0.91144 0.34059 0.64978 0.0
H722 H 0.80862 0.4252 0.64951 0.0
H723 H 0.85907 0.32679 0.61514 0.0
H724 H 0.74602 0.28735 0.61833 0.0
H725 H 0.80176 0.3093 0.63992 0.0
H726 H 0.78019 0.41181 0.59088 0.0
H727 H 0.7237 0.3898 0.56887 0.0
C728 C 0.86139 0.41516 0.66812 0.0
C729 C 0.89 0.39062 0.66983 0.0
C730 C 0.83134 0.40719 0.64844 0.0
C731 C 0.82961 0.37457 0.63034 0.0
C732 C 0.85957 0.3518 0.62947 0.0
C733 C 0.88958 0.35978 0.64908 0.0
C734 C 0.75291 0.31462 0.61206 0.0
C735 C 0.73038 0.33676 0.59171 0.0
C736 C 0.78511 0.32703 0.62416 0.0
C737 C 0.79557 0.36196 0.61641 0.0
C738 C 0.77277 0.38464 0.59694 0.0
C739 C 0.74045 0.37208 0.58451 0.0
H740 H 0.93307 0.5053 0.80644 0.0
H741 H 0.93569 0.41699 0.87841 0.0
H742 H 0.90988 0.54521 0.84995 0.0
H743 H 0.91232 0.45775 0.92272 0.0
H744 H 0.83256 0.59804 0.91756 0.0
H745 H 0.85171 0.54911 0.88016 0.0
H746 H 0.93125 0.51664 0.95569 0.0
H747 H 0.91188 0.56571 0.9934 0.0
C748 C 0.92875 0.49439 0.83167 0.0
C749 C 0.9358 0.45792 0.83893 0.0
C750 C 0.91522 0.51727 0.85654 0.0
C751 C 0.90863 0.5044 0.88946 0.0
C752 C 0.91695 0.46821 0.89739 0.0
C753 C 0.93028 0.44499 0.87215 0.0
C754 C 0.85366 0.58005 0.92647 0.0
C755 C 0.87102 0.58585 0.95812 0.0
C756 C 0.86469 0.55214 0.90505 0.0
C757 C 0.89327 0.52945 0.91489 0.0
C758 C 0.90912 0.5337 0.94756 0.0
C759 C 0.89812 0.56181 0.96902 0.0
H760 H 0.76271 0.72445 0.11697 0.0
H761 H 0.78226 0.61868 0.07412 0.0
H762 H 0.71029 0.70263 0.14375 0.0
H763 H 0.72956 0.59702 0.1009 0.0
H764 H 0.6537 0.56862 0.19016 0.0
H765 H 0.70596 0.58579 0.15948 0.0
H766 H 0.65131 0.68215 0.12334 0.0
H767 H 0.59929 0.66508 0.15398 0.0
C768 C 0.75601 0.6965 0.11342 0.0
C769 C 0.77668 0.67338 0.09327 0.0
C770 C 0.72576 0.68409 0.12852 0.0
C771 C 0.71558 0.64823 0.12405 0.0
C772 C 0.73677 0.62478 0.10479 0.0
C773 C 0.76691 0.63727 0.08942 0.0
C774 C 0.65268 0.59305 0.17504 0.0
C775 C 0.62257 0.61561 0.17454 0.0
C776 C 0.68258 0.60291 0.15755 0.0
C777 C 0.68289 0.63562 0.13951 0.0
C778 C 0.65207 0.65715 0.1376 0.0
C779 C 0.62219 0.6472 0.15485 0.0
H780 H 0.65849 0.43716 0.46059 0.0
H781 H 0.5511 0.40382 0.46729 0.0
H782 H 0.63913 0.48685 0.4227 0.0
H783 H 0.53196 0.4529 0.42884 0.0
H784 H 0.53642 0.49998 0.3151 0.0
H785 H 0.54897 0.45945 0.36328 0.0
H786 H 0.59533 0.54655 0.42075 0.0
H787 H 0.58156 0.58778 0.37246 0.0
C788 C 0.63074 0.44077 0.45434 0.0
C789 C 0.60632 0.41654 0.46669 0.0
C790 C 0.61966 0.46929 0.43286 0.0
C791 C 0.58406 0.47366 0.42288 0.0
C792 C 0.55954 0.45012 0.43617 0.0
C793 C 0.57051 0.42206 0.45813 0.0
C794 C 0.54865 0.51066 0.33829 0.0
C795 C 0.55803 0.54692 0.34016 0.0
C796 C 0.55574 0.4875 0.36587 0.0
C797 C 0.57317 0.49986 0.39568 0.0
C798 C 0.58188 0.5364 0.39799 0.0
C799 C 0.57387 0.55995 0.37056 0.0
H800 H 0.33566 0.37994 0.19036 0.0
H801 H 0.30349 0.32391 0.09799 0.0
H802 H 0.37422 0.32921 0.20673 0.0
H803 H 0.3424 0.27279 0.11443 0.0
H804 H 0.39087 0.17478 0.17582 0.0
H805 H 0.3485 0.22415 0.16192 0.0
H806 H 0.42894 0.30148 0.18429 0.0
H807 H 0.47065 0.25278 0.19786 0.0
C808 C 0.33718 0.35688 0.17335 0.0
C809 C 0.31689 0.35597 0.14275 0.0
C810 C 0.35914 0.32778 0.1828 0.0
C811 C 0.36114 0.29692 0.16198 0.0
C812 C 0.34101 0.29605 0.13118 0.0
C813 C 0.31919 0.32545 0.12153 0.0
C814 C 0.39909 0.2024 0.17827 0.0
C815 C 0.43393 0.21009 0.18786 0.0
C816 C 0.37509 0.23056 0.16998 0.0
C817 C 0.38553 0.26666 0.17183 0.0
C818 C 0.42002 0.27404 0.18278 0.0
C819 C 0.44392 0.24612 0.19052 0.0
H820 H 0.87958 0.29555 0.76444 0.0
H821 H 0.91822 0.29792 0.86977 0.0
H822 H 0.84418 0.2436 0.7776 0.0
H823 H 0.88269 0.24656 0.88281 0.0
H824 H 0.85158 0.12841 0.88221 0.0
H825 H 0.88383 0.18238 0.86887 0.0
H826 H 0.79363 0.2243 0.81084 0.0
H827 H 0.76155 0.16997 0.82389 0.0
C828 C 0.88021 0.28535 0.79045 0.0
C829 C 0.90195 0.30084 0.81596 0.0
C830 C 0.85986 0.25562 0.79801 0.0
C831 C 0.86093 0.2407 0.83117 0.0
C832 C 0.88179 0.25694 0.85686 0.0
C833 C 0.902 0.28661 0.84937 0.0
C834 C 0.83868 0.14919 0.86664 0.0
C835 C 0.8041 0.14511 0.85416 0.0
C836 C 0.85704 0.18019 0.85915 0.0
C837 C 0.84123 0.20774 0.83892 0.0
C838 C 0.80664 0.20347 0.82625 0.0
C839 C 0.78822 0.17248 0.83387 0.0
H840 H 0.11186 0.60019 0.10146 0.0
H841 H 0.04897 0.51643 0.14295 0.0
H842 H 0.05836 0.63574 0.08756 0.0
H843 H 0.99552 0.5524 0.12975 0.0
H844 H 0.91861 0.65554 0.13577 0.0
H845 H 0.96988 0.61654 0.14971 0.0
H846 H 1.00343 0.62479 0.04528 0.0
H847 H 0.95193 0.66302 0.03111 0.0
C848 C 0.08662 0.58957 0.10786 0.0
C849 C 0.08445 0.55565 0.12327 0.0
C850 C 0.05608 0.60976 0.09974 0.0
C851 C 0.02292 0.59667 0.10751 0.0
C852 C 0.02081 0.56308 0.12361 0.0
C853 C 0.05131 0.54256 0.13109 0.0
C854 C 0.93672 0.64858 0.11574 0.0
C855 C 0.93142 0.66234 0.08244 0.0
C856 C 0.96596 0.62632 0.1237 0.0
C857 C 0.99067 0.61805 0.09862 0.0
C858 C 0.98491 0.63113 0.06513 0.0
C859 C 0.95537 0.65279 0.05702 0.0
H860 H 0.71566 0.82464 0.39705 0.0
H861 H 0.65795 0.89008 0.32241 0.0
H862 H 0.68147 0.77249 0.37974 0.0
H863 H 0.62404 0.8374 0.30452 0.0
H864 H 0.6063 0.72017 0.25931 0.0
H865 H 0.63985 0.77346 0.27597 0.0
H866 H 0.61536 0.75609 0.38195 0.0
H867 H 0.58157 0.70354 0.36547 0.0
C868 C 0.69547 0.82788 0.37708 0.0
C869 C 0.68923 0.86138 0.36121 0.0
C870 C 0.67597 0.79804 0.36716 0.0
C871 C 0.65029 0.80091 0.34069 0.0
C872 C 0.64392 0.83446 0.32481 0.0
C873 C 0.66301 0.86459 0.33525 0.0
C874 C 0.60836 0.72764 0.28616 0.0
C875 C 0.59137 0.70768 0.31109 0.0
C876 C 0.62722 0.75826 0.29562 0.0
C877 C 0.63001 0.7689 0.33021 0.0
C878 C 0.61367 0.74844 0.35512 0.0
C879 C 0.59432 0.71839 0.34564 0.0
H880 H 0.58503 0.36782 0.58345 0.0
H881 H 0.52132 0.2746 0.56639 0.0
H882 H 0.53227 0.40476 0.59133 0.0
H883 H 0.46822 0.31172 0.57201 0.0
H884 H 0.38466 0.37962 0.62719 0.0
H885 H 0.43553 0.34128 0.61387 0.0
H886 H 0.4833 0.43152 0.56468 0.0
H887 H 0.43378 0.46985 0.58022 0.0
C888 C 0.55959 0.35549 0.58078 0.0
C889 C 0.55699 0.31853 0.57469 0.0
C890 C 0.5293 0.3766 0.58501 0.0
C891 C 0.49586 0.36121 0.58239 0.0
C892 C 0.49347 0.32431 0.57498 0.0
C893 C 0.52381 0.30311 0.57151 0.0
C894 C 0.40611 0.39092 0.61343 0.0
C895 C 0.40584 0.42752 0.60513 0.0
C896 C 0.43513 0.36906 0.60555 0.0
C897 C 0.46381 0.38342 0.58852 0.0
C898 C 0.46231 0.41977 0.57872 0.0
C899 C 0.43384 0.44169 0.58738 0.0
H900 H 0.23427 0.66683 0.69275 0.0
H901 H 0.1766 0.646 0.59805 0.0
H902 H 0.1914 0.71416 0.70699 0.0
H903 H 0.13362 0.69325 0.61238 0.0
H904 H 0.12444 0.82067 0.69827 0.0
H905 H 0.16933 0.7753 0.68436 0.0
H906 H 0.08818 0.69961 0.65914 0.0
H907 H 0.04329 0.74478 0.67356 0.0
C908 C 0.2126 0.67268 0.67486 0.0
C909 C 0.20856 0.65285 0.64436 0.0
C910 C 0.18818 0.69973 0.68297 0.0
C911 C 0.15913 0.70705 0.6609 0.0
C912 C 0.15559 0.68775 0.63 0.0
C913 C 0.18025 0.66098 0.6217 0.0
C914 C 0.11626 0.79416 0.69028 0.0
C915 C 0.08047 0.78607 0.68716 0.0
C916 C 0.1419 0.7683 0.68222 0.0
C917 C 0.13213 0.73414 0.67044 0.0
C918 C 0.09634 0.72595 0.66773 0.0
C919 C 0.07072 0.75165 0.67619 0.0
H920 H 0.47322 0.8613 0.98779 0.0
H921 H 0.46919 0.79967 0.89359 0.0
H922 H 0.52767 0.88828 0.96994 0.0
H923 H 0.52361 0.82602 0.87627 0.0
H924 H 0.59786 0.91329 0.83988 0.0
H925 H 0.54505 0.8835 0.85772 0.0
H926 H 0.5898 0.87219 0.96034 0.0
H927 H 0.64255 0.90258 0.94246 0.0
C928 C 0.48384 0.85353 0.96331 0.0
C929 C 0.46667 0.82838 0.94213 0.0
C930 C 0.51523 0.86873 0.95323 0.0
C931 C 0.53006 0.85922 0.9217 0.0
C932 C 0.51275 0.83424 0.90052 0.0
C933 C 0.48152 0.81902 0.91059 0.0
C934 C 0.59663 0.90391 0.8661 0.0
C935 C 0.62429 0.91015 0.88976 0.0
C936 C 0.56637 0.88684 0.87635 0.0
C937 C 0.56307 0.87569 0.91055 0.0
C938 C 0.59129 0.88096 0.93396 0.0
C939 C 0.62164 0.89796 0.92364 0.0
H940 H 0.91179 0.04376 0.45427 0.0
H941 H 0.93139 0.06097 0.34716 0.0
H942 H 0.96308 0.07905 0.47025 0.0
H943 H 0.98332 0.09602 0.36326 0.0
H944 H 0.0908 0.13582 0.41054 0.0
H945 H 0.04583 0.09091 0.39636 0.0
H946 H 0.97333 0.14674 0.46218 0.0
H947 H 0.01747 0.19157 0.47537 0.0
C948 C 0.9273 0.05474 0.4341 0.0
C949 C 0.91735 0.04981 0.39943 0.0
C950 C 0.9567 0.07496 0.44329 0.0
C951 C 0.9773 0.09033 0.41805 0.0
C952 C 0.96818 0.08424 0.3833 0.0
C953 C 0.93834 0.06441 0.37408 0.0
C954 C 0.06547 0.1379 0.42241 0.0
C955 C 0.05759 0.16702 0.44416 0.0
C956 C 0.03966 0.11249 0.41408 0.0
C957 C 0.00598 0.11533 0.42812 0.0
C958 C 0.99899 0.14359 0.45111 0.0
C959 C 0.02429 0.16927 0.45868 0.0
loop_
_geom_bond_atom_site_label_1
_geom_bond_atom_site_label_2
_geom_bond_distance
_geom_bond_site_symmetry_2
_ccdc_geom_bond_type
Dy0 O4 2.398 . S
Dy0 O5 2.491 . S
Dy0 O6 2.403 . S
Dy0 O7 2.664 . S
Dy0 O11 2.326 . S
Dy0 O15 2.310 . S
Dy0 O16 2.351 . S
C1 O12 1.185 . S
C1 O13 1.355 . S
C2 O4 1.185 . S
C2 O5 1.355 . S
Dy3 O7 2.310 . S
Dy3 O10 2.351 . S
Dy3 O12 2.398 . S
Dy3 O13 2.491 . S
Dy3 O14 2.403 . S
Dy3 O15 2.664 . S
Dy3 O17 2.326 . S
O4 Dy0 2.398 . S
O4 C2 1.185 . S
O5 Dy0 2.491 . S
O5 C2 1.355 . S
O6 Dy0 2.403 . S
O6 C8 1.254 . S
O7 Dy0 2.664 . S
O7 Dy3 2.310 . S
O7 C8 1.268 . S
C8 O6 1.254 . S
C8 O7 1.268 . S
C9 O14 1.254 . S
C9 O15 1.268 . S
O10 Dy3 2.351 . S
O10 C18 1.249 . S
O11 Dy0 2.326 . S
O11 C18 1.267 . S
O12 C1 1.185 . S
O12 Dy3 2.398 . S
O13 C1 1.355 . S
O13 Dy3 2.491 . S
O14 Dy3 2.403 . S
O14 C9 1.254 . S
O15 Dy0 2.310 . S
O15 Dy3 2.664 . S
O15 C9 1.268 . S
O16 Dy0 2.351 . S
O16 C19 1.249 . S
O17 Dy3 2.326 . S
O17 C19 1.267 . S
C18 O10 1.249 . S
C18 O11 1.267 . S
C19 O16 1.249 . S
C19 O17 1.267 . S
Dy20 O24 2.398 . S
Dy20 O25 2.491 . S
Dy20 O26 2.403 1_655 S
Dy20 O27 2.664 1_655 S
Dy20 O31 2.326 1_655 S
Dy20 O35 2.310 . S
Dy20 O36 2.351 . S
C21 O32 1.185 . S
C21 O33 1.355 . S
C22 O24 1.185 . S
C22 O25 1.355 . S
Dy23 O27 2.310 . S
Dy23 O30 2.351 . S
Dy23 O32 2.398 . S
Dy23 O33 2.491 . S
Dy23 O34 2.403 . S
Dy23 O35 2.664 1_455 S
Dy23 O37 2.326 . S
O24 Dy20 2.398 . S
O24 C22 1.185 . S
O25 Dy20 2.491 . S
O25 C22 1.355 . S
O26 Dy20 2.403 1_455 S
O26 C28 1.254 . S
O27 Dy20 2.664 1_455 S
O27 Dy23 2.310 . S
O27 C28 1.268 . S
C28 O26 1.254 . S
C28 O27 1.268 . S
C29 O34 1.254 1_655 S
C29 O35 1.268 . S
O30 Dy23 2.351 . S
O30 C38 1.249 . S
O31 Dy20 2.326 1_455 S
O31 C38 1.267 . S
O32 C21 1.185 . S
O32 Dy23 2.398 . S
O33 C21 1.355 . S
O33 Dy23 2.491 . S
O34 Dy23 2.403 . S
O34 C29 1.254 1_455 S
O35 Dy20 2.310 . S
O35 Dy23 2.664 1_655 S
O35 C29 1.268 . S
O36 Dy20 2.351 . S
O36 C39 1.249 1_655 S
O37 Dy23 2.326 . S
O37 C39 1.267 . S
C38 O30 1.249 . S
C38 O31 1.267 . S
C39 O36 1.249 1_455 S
C39 O37 1.267 . S
Dy40 O44 2.398 . S
Dy40 O45 2.491 . S
Dy40 O46 2.403 1_554 S
Dy40 O47 2.664 1_554 S
Dy40 O51 2.326 1_554 S
Dy40 O55 2.310 1_554 S
Dy40 O56 2.351 . S
C41 O52 1.185 . S
C41 O53 1.355 . S
C42 O44 1.185 . S
C42 O45 1.355 . S
Dy43 O47 2.310 . S
Dy43 O50 2.351 . S
Dy43 O52 2.398 . S
Dy43 O53 2.491 . S
Dy43 O54 2.403 . S
Dy43 O55 2.664 . S
Dy43 O57 2.326 . S
O44 Dy40 2.398 . S
O44 C42 1.185 . S
O45 Dy40 2.491 . S
O45 C42 1.355 . S
O46 Dy40 2.403 1_556 S
O46 C48 1.254 . S
O47 Dy40 2.664 1_556 S
O47 Dy43 2.310 . S
O47 C48 1.268 . S
C48 O46 1.254 . S
C48 O47 1.268 . S
C49 O54 1.254 1_554 S
C49 O55 1.268 1_554 S
O50 Dy43 2.351 . S
O50 C58 1.249 . S
O51 Dy40 2.326 1_556 S
O51 C58 1.267 . S
O52 C41 1.185 . S
O52 Dy43 2.398 . S
O53 C41 1.355 . S
O53 Dy43 2.491 . S
O54 Dy43 2.403 . S
O54 C49 1.254 1_556 S
O55 Dy40 2.310 1_556 S
O55 Dy43 2.664 . S
O55 C49 1.268 1_556 S
O56 Dy40 2.351 . S
O56 C59 1.249 1_554 S
O57 Dy43 2.326 . S
O57 C59 1.267 . S
C58 O50 1.249 . S
C58 O51 1.267 . S
C59 O56 1.249 1_556 S
C59 O57 1.267 . S
Dy60 O64 2.398 . S
Dy60 O65 2.491 . S
Dy60 O66 2.403 . S
Dy60 O67 2.664 . S
Dy60 O71 2.326 . S
Dy60 O75 2.310 . S
Dy60 O76 2.351 . S
C61 O72 1.185 . S
C61 O73 1.355 . S
C62 O64 1.185 . S
C62 O65 1.355 . S
Dy63 O67 2.310 . S
Dy63 O70 2.351 . S
Dy63 O72 2.398 . S
Dy63 O73 2.491 . S
Dy63 O74 2.403 . S
Dy63 O75 2.664 . S
Dy63 O77 2.326 . S
O64 Dy60 2.398 . S
O64 C62 1.185 . S
O65 Dy60 2.491 . S
O65 C62 1.355 . S
O66 Dy60 2.403 . S
O66 C68 1.254 . S
O67 Dy60 2.664 . S
O67 Dy63 2.310 . S
O67 C68 1.268 . S
C68 O66 1.254 . S
C68 O67 1.268 . S
C69 O74 1.254 . S
C69 O75 1.268 . S
O70 Dy63 2.351 . S
O70 C78 1.249 . S
O71 Dy60 2.326 . S
O71 C78 1.267 . S
O72 C61 1.185 . S
O72 Dy63 2.398 . S
O73 C61 1.355 . S
O73 Dy63 2.491 . S
O74 Dy63 2.403 . S
O74 C69 1.254 . S
O75 Dy60 2.310 . S
O75 Dy63 2.664 . S
O75 C69 1.268 . S
O76 Dy60 2.351 . S
O76 C79 1.249 . S
O77 Dy63 2.326 . S
O77 C79 1.267 . S
C78 O70 1.249 . S
C78 O71 1.267 . S
C79 O76 1.249 . S
C79 O77 1.267 . S
Dy80 O84 2.398 . S
Dy80 O85 2.491 . S
Dy80 O86 2.403 . S
Dy80 O87 2.664 . S
Dy80 O91 2.326 . S
Dy80 O95 2.310 . S
Dy80 O96 2.351 . S
C81 O92 1.185 . S
C81 O93 1.355 . S
C82 O84 1.185 . S
C82 O85 1.355 . S
Dy83 O87 2.310 . S
Dy83 O90 2.351 . S
Dy83 O92 2.398 . S
Dy83 O93 2.491 . S
Dy83 O94 2.403 . S
Dy83 O95 2.664 . S
Dy83 O97 2.326 . S
O84 Dy80 2.398 . S
O84 C82 1.185 . S
O85 Dy80 2.491 . S
O85 C82 1.355 . S
O86 Dy80 2.403 . S
O86 C88 1.254 . S
O87 Dy80 2.664 . S
O87 Dy83 2.310 . S
O87 C88 1.268 . S
C88 O86 1.254 . S
C88 O87 1.268 . S
C89 O94 1.254 . S
C89 O95 1.268 . S
O90 Dy83 2.351 . S
O90 C98 1.249 . S
O91 Dy80 2.326 . S
O91 C98 1.267 . S
O92 C81 1.185 . S
O92 Dy83 2.398 . S
O93 C81 1.355 . S
O93 Dy83 2.491 . S
O94 Dy83 2.403 . S
O94 C89 1.254 . S
O95 Dy80 2.310 . S
O95 Dy83 2.664 . S
O95 C89 1.268 . S
O96 Dy80 2.351 . S
O96 C99 1.249 . S
O97 Dy83 2.326 . S
O97 C99 1.267 . S
C98 O90 1.249 . S
C98 O91 1.267 . S
C99 O96 1.249 . S
C99 O97 1.267 . S
Dy100 O104 2.398 . S
Dy100 O105 2.491 . S
Dy100 O106 2.403 . S
Dy100 O107 2.664 . S
Dy100 O111 2.326 . S
Dy100 O115 2.310 . S
Dy100 O116 2.351 1_655 S
C101 O112 1.185 . S
C101 O113 1.355 . S
C102 O104 1.185 . S
C102 O105 1.355 . S
Dy103 O107 2.310 1_455 S
Dy103 O110 2.351 1_455 S
Dy103 O112 2.398 . S
Dy103 O113 2.491 . S
Dy103 O114 2.403 . S
Dy103 O115 2.664 1_455 S
Dy103 O117 2.326 . S
O104 Dy100 2.398 . S
O104 C102 1.185 . S
O105 Dy100 2.491 . S
O105 C102 1.355 . S
O106 Dy100 2.403 . S
O106 C108 1.254 . S
O107 Dy100 2.664 . S
O107 Dy103 2.310 1_655 S
O107 C108 1.268 . S
C108 O106 1.254 . S
C108 O107 1.268 . S
C109 O114 1.254 . S
C109 O115 1.268 1_455 S
O110 Dy103 2.351 1_655 S
O110 C118 1.249 . S
O111 Dy100 2.326 . S
O111 C118 1.267 . S
O112 C101 1.185 . S
O112 Dy103 2.398 . S
O113 C101 1.355 . S
O113 Dy103 2.491 . S
O114 Dy103 2.403 . S
O114 C109 1.254 . S
O115 Dy100 2.310 . S
O115 Dy103 2.664 1_655 S
O115 C109 1.268 1_655 S
O116 Dy100 2.351 1_455 S
O116 C119 1.249 . S
O117 Dy103 2.326 . S
O117 C119 1.267 . S
C118 O110 1.249 . S
C118 O111 1.267 . S
C119 O116 1.249 . S
C119 O117 1.267 . S
Dy120 O124 2.398 . S
Dy120 O125 2.491 . S
Dy120 O126 2.403 . S
Dy120 O127 2.664 . S
Dy120 O131 2.326 . S
Dy120 O135 2.310 . S
Dy120 O136 2.351 . S
C121 O132 1.185 . S
C121 O133 1.355 . S
C122 O124 1.185 . S
C122 O125 1.355 . S
Dy123 O127 2.310 . S
Dy123 O130 2.351 . S
Dy123 O132 2.398 1_554 S
Dy123 O133 2.491 1_554 S
Dy123 O134 2.403 1_554 S
Dy123 O135 2.664 . S
Dy123 O137 2.326 1_554 S
O124 Dy120 2.398 . S
O124 C122 1.185 . S
O125 Dy120 2.491 . S
O125 C122 1.355 . S
O126 Dy120 2.403 . S
O126 C128 1.254 . S
O127 Dy120 2.664 . S
O127 Dy123 2.310 . S
O127 C128 1.268 . S
C128 O126 1.254 . S
C128 O127 1.268 . S
C129 O134 1.254 1_554 S
C129 O135 1.268 . S
O130 Dy123 2.351 . S
O130 C138 1.249 . S
O131 Dy120 2.326 . S
O131 C138 1.267 . S
O132 C121 1.185 . S
O132 Dy123 2.398 1_556 S
O133 C121 1.355 . S
O133 Dy123 2.491 1_556 S
O134 Dy123 2.403 1_556 S
O134 C129 1.254 1_556 S
O135 Dy120 2.310 . S
O135 Dy123 2.664 . S
O135 C129 1.268 . S
O136 Dy120 2.351 . S
O136 C139 1.249 1_554 S
O137 Dy123 2.326 1_556 S
O137 C139 1.267 . S
C138 O130 1.249 . S
C138 O131 1.267 . S
C139 O136 1.249 1_556 S
C139 O137 1.267 . S
Dy140 O144 2.398 . S
Dy140 O145 2.491 . S
Dy140 O146 2.403 . S
Dy140 O147 2.664 . S
Dy140 O151 2.326 . S
Dy140 O155 2.310 . S
Dy140 O156 2.351 . S
C141 O152 1.185 . S
C141 O153 1.355 . S
C142 O144 1.185 . S
C142 O145 1.355 . S
Dy143 O147 2.310 . S
Dy143 O150 2.351 . S
Dy143 O152 2.398 . S
Dy143 O153 2.491 . S
Dy143 O154 2.403 . S
Dy143 O155 2.664 . S
Dy143 O157 2.326 . S
O144 Dy140 2.398 . S
O144 C142 1.185 . S
O145 Dy140 2.491 . S
O145 C142 1.355 . S
O146 Dy140 2.403 . S
O146 C148 1.254 . S
O147 Dy140 2.664 . S
O147 Dy143 2.310 . S
O147 C148 1.268 . S
C148 O146 1.254 . S
C148 O147 1.268 . S
C149 O154 1.254 . S
C149 O155 1.268 . S
O150 Dy143 2.351 . S
O150 C158 1.249 . S
O151 Dy140 2.326 . S
O151 C158 1.267 . S
O152 C141 1.185 . S
O152 Dy143 2.398 . S
O153 C141 1.355 . S
O153 Dy143 2.491 . S
O154 Dy143 2.403 . S
O154 C149 1.254 . S
O155 Dy140 2.310 . S
O155 Dy143 2.664 . S
O155 C149 1.268 . S
O156 Dy140 2.351 . S
O156 C159 1.249 . S
O157 Dy143 2.326 . S
O157 C159 1.267 . S
C158 O150 1.249 . S
C158 O151 1.267 . S
C159 O156 1.249 . S
C159 O157 1.267 . S
Dy160 O164 2.398 . S
Dy160 O165 2.491 . S
Dy160 O166 2.403 . S
Dy160 O167 2.664 . S
Dy160 O171 2.326 . S
Dy160 O175 2.310 . S
Dy160 O176 2.351 . S
C161 O172 1.185 . S
C161 O173 1.355 . S
C162 O164 1.185 . S
C162 O165 1.355 . S
Dy163 O167 2.310 . S
Dy163 O170 2.351 . S
Dy163 O172 2.398 . S
Dy163 O173 2.491 . S
Dy163 O174 2.403 . S
Dy163 O175 2.664 . S
Dy163 O177 2.326 . S
O164 Dy160 2.398 . S
O164 C162 1.185 . S
O165 Dy160 2.491 . S
O165 C162 1.355 . S
O166 Dy160 2.403 . S
O166 C168 1.254 . S
O167 Dy160 2.664 . S
O167 Dy163 2.310 . S
O167 C168 1.268 . S
C168 O166 1.254 . S
C168 O167 1.268 . S
C169 O174 1.254 . S
C169 O175 1.268 . S
O170 Dy163 2.351 . S
O170 C178 1.249 . S
O171 Dy160 2.326 . S
O171 C178 1.267 . S
O172 C161 1.185 . S
O172 Dy163 2.398 . S
O173 C161 1.355 . S
O173 Dy163 2.491 . S
O174 Dy163 2.403 . S
O174 C169 1.254 . S
O175 Dy160 2.310 . S
O175 Dy163 2.664 . S
O175 C169 1.268 . S
O176 Dy160 2.351 . S
O176 C179 1.249 . S
O177 Dy163 2.326 . S
O177 C179 1.267 . S
C178 O170 1.249 . S
C178 O171 1.267 . S
C179 O176 1.249 . S
C179 O177 1.267 . S
Dy180 O184 2.398 . S
Dy180 O185 2.491 . S
Dy180 O186 2.403 1_565 S
Dy180 O187 2.664 1_565 S
Dy180 O191 2.326 1_565 S
Dy180 O195 2.310 1_565 S
Dy180 O196 2.351 . S
C181 O192 1.185 . S
C181 O193 1.355 . S
C182 O184 1.185 . S
C182 O185 1.355 . S
Dy183 O187 2.310 . S
Dy183 O190 2.351 . S
Dy183 O192 2.398 . S
Dy183 O193 2.491 . S
Dy183 O194 2.403 . S
Dy183 O195 2.664 . S
Dy183 O197 2.326 . S
O184 Dy180 2.398 . S
O184 C182 1.185 . S
O185 Dy180 2.491 . S
O185 C182 1.355 . S
O186 Dy180 2.403 1_545 S
O186 C188 1.254 . S
O187 Dy180 2.664 1_545 S
O187 Dy183 2.310 . S
O187 C188 1.268 . S
C188 O186 1.254 . S
C188 O187 1.268 . S
C189 O194 1.254 1_565 S
C189 O195 1.268 1_565 S
O190 Dy183 2.351 . S
O190 C198 1.249 . S
O191 Dy180 2.326 1_545 S
O191 C198 1.267 . S
O192 C181 1.185 . S
O192 Dy183 2.398 . S
O193 C181 1.355 . S
O193 Dy183 2.491 . S
O194 Dy183 2.403 . S
O194 C189 1.254 1_545 S
O195 Dy180 2.310 1_545 S
O195 Dy183 2.664 . S
O195 C189 1.268 1_545 S
O196 Dy180 2.351 . S
O196 C199 1.249 1_565 S
O197 Dy183 2.326 . S
O197 C199 1.267 . S
C198 O190 1.249 . S
C198 O191 1.267 . S
C199 O196 1.249 1_545 S
C199 O197 1.267 . S
Dy200 O204 2.398 . S
Dy200 O205 2.491 . S
Dy200 O206 2.403 . S
Dy200 O207 2.664 . S
Dy200 O211 2.326 . S
Dy200 O215 2.310 . S
Dy200 O216 2.358 . S
C201 O212 1.185 . S
C201 O213 1.355 . S
C202 O204 1.185 . S
C202 O205 1.355 . S
Dy203 O207 2.310 1_545 S
Dy203 O210 2.351 1_545 S
Dy203 O212 2.398 . S
Dy203 O213 2.491 . S
Dy203 O214 2.403 . S
Dy203 O215 2.664 1_545 S
Dy203 O217 2.326 . S
O204 Dy200 2.398 . S
O204 C202 1.185 . S
O205 Dy200 2.491 . S
O205 C202 1.355 . S
O206 Dy200 2.403 . S
O206 C208 1.254 . S
O207 Dy200 2.664 . S
O207 Dy203 2.310 1_565 S
O207 C208 1.268 . S
C208 O206 1.254 . S
C208 O207 1.268 . S
C209 O214 1.254 . S
C209 O215 1.268 1_545 S
O210 Dy203 2.351 1_565 S
O210 C218 1.249 . S
O211 Dy200 2.326 . S
O211 C218 1.267 . S
O212 C201 1.185 . S
O212 Dy203 2.398 . S
O213 C201 1.355 . S
O213 Dy203 2.491 . S
O214 Dy203 2.403 . S
O214 C209 1.254 . S
O215 Dy200 2.310 . S
O215 Dy203 2.664 1_565 S
O215 C209 1.268 1_565 S
O216 Dy200 2.358 . S
O216 C219 1.242 1_565 S
O217 Dy203 2.326 . S
O217 C219 1.267 . S
C218 O210 1.249 . S
C218 O211 1.267 . S
C219 O216 1.242 1_545 S
C219 O217 1.267 . S
Dy220 O224 2.398 . S
Dy220 O225 2.491 . S
Dy220 O226 2.403 . S
Dy220 O227 2.664 . S
Dy220 O231 2.326 . S
Dy220 O235 2.310 . S
Dy220 O236 2.351 . S
C221 O232 1.185 . S
C221 O233 1.355 . S
C222 O224 1.185 . S
C222 O225 1.355 . S
Dy223 O227 2.310 . S
Dy223 O230 2.351 . S
Dy223 O232 2.398 . S
Dy223 O233 2.491 . S
Dy223 O234 2.403 . S
Dy223 O235 2.664 . S
Dy223 O237 2.326 . S
O224 Dy220 2.398 . S
O224 C222 1.185 . S
O225 Dy220 2.491 . S
O225 C222 1.355 . S
O226 Dy220 2.403 . S
O226 C228 1.254 . S
O227 Dy220 2.664 . S
O227 Dy223 2.310 . S
O227 C228 1.268 . S
C228 O226 1.254 . S
C228 O227 1.268 . S
C229 O234 1.254 . S
C229 O235 1.268 . S
O230 Dy223 2.351 . S
O230 C238 1.249 . S
O231 Dy220 2.326 . S
O231 C238 1.267 . S
O232 C221 1.185 . S
O232 Dy223 2.398 . S
O233 C221 1.355 . S
O233 Dy223 2.491 . S
O234 Dy223 2.403 . S
O234 C229 1.254 . S
O235 Dy220 2.310 . S
O235 Dy223 2.664 . S
O235 C229 1.268 . S
O236 Dy220 2.351 . S
O236 C239 1.249 . S
O237 Dy223 2.326 . S
O237 C239 1.267 . S
C238 O230 1.249 . S
C238 O231 1.267 . S
C239 O236 1.249 . S
C239 O237 1.267 . S
H240 C248 0.950 . S
H241 C253 0.950 . S
H242 C250 0.950 . S
H243 C252 0.950 . S
H244 C254 0.950 . S
H245 C256 0.950 . S
H246 C258 0.950 . S
H247 C259 0.950 . S
C248 H240 0.950 . S
C248 C249 1.386 . S
C248 C250 1.391 . S
C249 C248 1.386 . S
C249 C253 1.393 . S
C250 H242 0.950 . S
C250 C248 1.391 . S
C250 C251 1.400 . S
C251 C250 1.400 . S
C251 C252 1.398 . S
C251 C257 1.491 . S
C252 H243 0.950 . S
C252 C251 1.398 . S
C252 C253 1.391 . S
C253 H241 0.950 . S
C253 C249 1.393 . S
C253 C252 1.391 . S
C254 H244 0.950 . S
C254 C255 1.386 . S
C254 C256 1.391 . S
C255 C254 1.386 . S
C255 C259 1.393 . S
C256 H245 0.950 . S
C256 C254 1.391 . S
C256 C257 1.400 . S
C257 C251 1.491 . S
C257 C256 1.400 . S
C257 C258 1.398 . S
C258 H246 0.950 . S
C258 C257 1.398 . S
C258 C259 1.391 . S
C259 H247 0.950 . S
C259 C255 1.393 . S
C259 C258 1.391 . S
H260 C268 0.950 . S
H261 C273 0.950 . S
H262 C270 0.950 . S
H263 C272 0.950 . S
H264 C274 0.950 . S
H265 C276 0.950 . S
H266 C278 0.950 . S
H267 C279 0.950 . S
C268 H260 0.950 . S
C268 C269 1.397 . S
C268 C270 1.391 . S
C269 C268 1.397 . S
C269 C273 1.389 1_565 S
C270 H262 0.950 . S
C270 C268 1.391 . S
C270 C271 1.400 . S
C271 C270 1.400 . S
C271 C272 1.398 . S
C271 C277 1.491 . S
C272 H263 0.950 . S
C272 C271 1.398 . S
C272 C273 1.391 1_565 S
C273 H261 0.950 . S
C273 C269 1.389 1_545 S
C273 C272 1.391 1_545 S
C274 H264 0.950 . S
C274 C275 1.386 . S
C274 C276 1.391 . S
C275 C274 1.386 . S
C275 C279 1.393 . S
C276 H265 0.950 . S
C276 C274 1.391 . S
C276 C277 1.400 . S
C277 C271 1.491 . S
C277 C276 1.400 . S
C277 C278 1.398 . S
C278 H266 0.950 . S
C278 C277 1.398 . S
C278 C279 1.391 . S
C279 H267 0.950 . S
C279 C275 1.393 . S
C279 C278 1.391 . S
H280 C288 0.950 . S
H281 C293 0.950 . S
H282 C290 0.950 . S
H283 C292 0.950 . S
H284 C294 0.950 . S
H285 C296 0.950 . S
H286 C298 0.950 . S
H287 C299 0.950 . S
C288 H280 0.950 . S
C288 C289 1.386 . S
C288 C290 1.391 . S
C289 C288 1.386 . S
C289 C293 1.393 1_556 S
C290 H282 0.950 . S
C290 C288 1.391 . S
C290 C291 1.400 1_556 S
C291 C290 1.400 1_554 S
C291 C292 1.398 . S
C291 C297 1.491 . S
C292 H283 0.950 . S
C292 C291 1.398 . S
C292 C293 1.391 . S
C293 H281 0.950 . S
C293 C289 1.393 1_554 S
C293 C292 1.391 . S
C294 H284 0.950 . S
C294 C295 1.386 . S
C294 C296 1.391 . S
C295 C294 1.386 . S
C295 C299 1.393 . S
C296 H285 0.950 . S
C296 C294 1.391 . S
C296 C297 1.400 . S
C297 C291 1.491 . S
C297 C296 1.400 . S
C297 C298 1.398 . S
C298 H286 0.950 . S
C298 C297 1.398 . S
C298 C299 1.391 . S
C299 H287 0.950 . S
C299 C295 1.393 . S
C299 C298 1.391 . S
H300 C308 0.950 . S
H301 C313 0.950 . S
H302 C310 0.950 . S
H303 C312 0.950 . S
H304 C314 0.950 . S
H305 C316 0.950 . S
H306 C318 0.950 1_565 S
H307 C319 0.950 1_565 S
C308 H300 0.950 . S
C308 C309 1.386 . S
C308 C310 1.391 . S
C309 C308 1.386 . S
C309 C313 1.393 . S
C310 H302 0.950 . S
C310 C308 1.391 . S
C310 C311 1.400 . S
C311 C310 1.400 . S
C311 C312 1.398 . S
C311 C317 1.491 . S
C312 H303 0.950 . S
C312 C311 1.398 . S
C312 C313 1.391 . S
C313 H301 0.950 . S
C313 C309 1.393 . S
C313 C312 1.391 . S
C314 H304 0.950 . S
C314 C315 1.386 . S
C314 C316 1.391 . S
C315 C314 1.386 . S
C315 C319 1.393 . S
C316 H305 0.950 . S
C316 C314 1.391 . S
C316 C317 1.400 . S
C317 C311 1.491 . S
C317 C316 1.400 . S
C317 C318 1.398 . S
C318 H306 0.950 1_545 S
C318 C317 1.398 . S
C318 C319 1.391 . S
C319 H307 0.950 1_545 S
C319 C315 1.393 . S
C319 C318 1.391 . S
H320 C328 0.950 . S
H321 C333 0.950 . S
H322 C330 0.950 . S
H323 C332 0.950 . S
H324 C334 0.950 . S
H325 C336 0.950 . S
H326 C338 0.950 . S
H327 C339 0.950 . S
C328 H320 0.950 . S
C328 C329 1.386 . S
C328 C330 1.391 . S
C329 C328 1.386 . S
C329 C333 1.393 . S
C330 H322 0.950 . S
C330 C328 1.391 . S
C330 C331 1.400 . S
C331 C330 1.400 . S
C331 C332 1.398 . S
C331 C337 1.491 . S
C332 H323 0.950 . S
C332 C331 1.398 . S
C332 C333 1.391 . S
C333 H321 0.950 . S
C333 C329 1.393 . S
C333 C332 1.391 . S
C334 H324 0.950 . S
C334 C335 1.386 . S
C334 C336 1.391 . S
C335 C334 1.386 . S
C335 C339 1.393 . S
C336 H325 0.950 . S
C336 C334 1.391 . S
C336 C337 1.400 . S
C337 C331 1.491 . S
C337 C336 1.400 . S
C337 C338 1.398 . S
C338 H326 0.950 . S
C338 C337 1.398 . S
C338 C339 1.391 . S
C339 H327 0.950 . S
C339 C335 1.393 . S
C339 C338 1.391 . S
H340 C348 0.950 . S
H341 C353 0.950 . S
H342 C350 0.950 . S
H343 C352 0.950 . S
H344 C354 0.950 . S
H345 C356 0.950 . S
H346 C358 0.950 . S
H347 C359 0.950 . S
C348 H340 0.950 . S
C348 C349 1.386 . S
C348 C350 1.391 . S
C349 C348 1.386 . S
C349 C353 1.393 . S
C350 H342 0.950 . S
C350 C348 1.391 . S
C350 C351 1.400 . S
C351 C350 1.400 . S
C351 C352 1.398 . S
C351 C357 1.491 . S
C352 H343 0.950 . S
C352 C351 1.398 . S
C352 C353 1.391 . S
C353 H341 0.950 . S
C353 C349 1.393 . S
C353 C352 1.391 . S
C354 H344 0.950 . S
C354 C355 1.386 . S
C354 C356 1.391 . S
C355 C354 1.386 . S
C355 C359 1.393 . S
C356 H345 0.950 . S
C356 C354 1.391 . S
C356 C357 1.400 . S
C357 C351 1.491 . S
C357 C356 1.400 . S
C357 C358 1.398 . S
C358 H346 0.950 . S
C358 C357 1.398 . S
C358 C359 1.391 . S
C359 H347 0.950 . S
C359 C355 1.393 . S
C359 C358 1.391 . S
H360 C368 0.950 . S
H361 C373 0.950 . S
H362 C370 0.950 . S
H363 C372 0.950 . S
H364 C374 0.950 . S
H365 C376 0.950 . S
H366 C378 0.950 1_554 S
H367 C379 0.950 . S
C368 H360 0.950 . S
C368 C369 1.386 . S
C368 C370 1.391 . S
C369 C368 1.386 . S
C369 C373 1.393 . S
C370 H362 0.950 . S
C370 C368 1.391 . S
C370 C371 1.400 . S
C371 C370 1.400 . S
C371 C372 1.398 . S
C371 C377 1.491 . S
C372 H363 0.950 . S
C372 C371 1.398 . S
C372 C373 1.391 . S
C373 H361 0.950 . S
C373 C369 1.393 . S
C373 C372 1.391 . S
C374 H364 0.950 . S
C374 C375 1.386 . S
C374 C376 1.391 . S
C375 C374 1.386 . S
C375 C379 1.393 1_556 S
C376 H365 0.950 . S
C376 C374 1.391 . S
C376 C377 1.400 . S
C377 C371 1.491 . S
C377 C376 1.400 . S
C377 C378 1.398 . S
C378 H366 0.950 1_556 S
C378 C377 1.398 . S
C378 C379 1.391 1_556 S
C379 H367 0.950 . S
C379 C375 1.393 1_554 S
C379 C378 1.391 1_554 S
H380 C388 0.950 . S
H381 C393 0.950 . S
H382 C390 0.950 . S
H383 C392 0.950 . S
H384 C394 0.950 . S
H385 C396 0.950 . S
H386 C398 0.950 . S
H387 C399 0.950 . S
C388 H380 0.950 . S
C388 C389 1.386 . S
C388 C390 1.391 . S
C389 C388 1.386 . S
C389 C393 1.393 . S
C390 H382 0.950 . S
C390 C388 1.391 . S
C390 C391 1.400 . S
C391 C390 1.400 . S
C391 C392 1.398 . S
C391 C397 1.491 . S
C392 H383 0.950 . S
C392 C391 1.398 . S
C392 C393 1.391 . S
C393 H381 0.950 . S
C393 C389 1.393 . S
C393 C392 1.391 . S
C394 H384 0.950 . S
C394 C395 1.386 . S
C394 C396 1.391 . S
C395 C394 1.386 . S
C395 C399 1.393 . S
C396 H385 0.950 . S
C396 C394 1.391 . S
C396 C397 1.400 . S
C397 C391 1.491 . S
C397 C396 1.400 . S
C397 C398 1.398 . S
C398 H386 0.950 . S
C398 C397 1.398 . S
C398 C399 1.391 . S
C399 H387 0.950 . S
C399 C395 1.393 . S
C399 C398 1.391 . S
H400 C408 0.950 . S
H401 C413 0.950 . S
H402 C410 0.950 . S
H403 C412 0.950 . S
H404 C414 0.950 . S
H405 C416 0.950 . S
H406 C418 0.950 . S
H407 C419 0.950 . S
C408 H400 0.950 . S
C408 C409 1.386 . S
C408 C410 1.391 . S
C409 C408 1.386 . S
C409 C413 1.393 . S
C410 H402 0.950 . S
C410 C408 1.391 . S
C410 C411 1.400 . S
C411 C410 1.400 . S
C411 C412 1.398 . S
C411 C417 1.491 . S
C412 H403 0.950 . S
C412 C411 1.398 . S
C412 C413 1.391 . S
C413 H401 0.950 . S
C413 C409 1.393 . S
C413 C412 1.391 . S
C414 H404 0.950 . S
C414 C415 1.386 . S
C414 C416 1.391 . S
C415 C414 1.386 . S
C415 C419 1.393 . S
C416 H405 0.950 . S
C416 C414 1.391 . S
C416 C417 1.400 . S
C417 C411 1.491 . S
C417 C416 1.400 . S
C417 C418 1.398 . S
C418 H406 0.950 . S
C418 C417 1.398 . S
C418 C419 1.391 . S
C419 H407 0.950 . S
C419 C415 1.393 . S
C419 C418 1.391 . S
H420 C428 0.950 . S
H421 C433 0.950 . S
H422 C430 0.950 . S
H423 C432 0.950 . S
H424 C434 0.950 1_655 S
H425 C436 0.950 . S
H426 C438 0.950 . S
H427 C439 0.950 . S
C428 H420 0.950 . S
C428 C429 1.386 . S
C428 C430 1.391 . S
C429 C428 1.386 . S
C429 C433 1.393 . S
C430 H422 0.950 . S
C430 C428 1.391 . S
C430 C431 1.400 . S
C431 C430 1.400 . S
C431 C432 1.398 . S
C431 C437 1.491 . S
C432 H423 0.950 . S
C432 C431 1.398 . S
C432 C433 1.391 . S
C433 H421 0.950 . S
C433 C429 1.393 . S
C433 C432 1.391 . S
C434 H424 0.950 1_455 S
C434 C435 1.386 . S
C434 C436 1.391 . S
C435 C434 1.386 . S
C435 C439 1.393 . S
C436 H425 0.950 . S
C436 C434 1.391 . S
C436 C437 1.400 . S
C437 C431 1.491 . S
C437 C436 1.400 . S
C437 C438 1.398 . S
C438 H426 0.950 . S
C438 C437 1.398 . S
C438 C439 1.391 . S
C439 H427 0.950 . S
C439 C435 1.393 . S
C439 C438 1.391 . S
H440 C448 0.950 1_455 S
H441 C453 0.950 . S
H442 C450 0.950 . S
H443 C452 0.950 . S
H444 C454 0.950 . S
H445 C456 0.950 . S
H446 C458 0.950 . S
H447 C459 0.950 . S
C448 H440 0.950 1_655 S
C448 C449 1.385 . S
C448 C450 1.391 . S
C449 C448 1.385 . S
C449 C453 1.392 . S
C450 H442 0.950 . S
C450 C448 1.391 . S
C450 C451 1.400 . S
C451 C450 1.400 . S
C451 C452 1.398 . S
C451 C457 1.491 . S
C452 H443 0.950 . S
C452 C451 1.398 . S
C452 C453 1.391 . S
C453 H441 0.950 . S
C453 C449 1.392 . S
C453 C452 1.391 . S
C454 H444 0.950 . S
C454 C455 1.386 . S
C454 C456 1.391 . S
C455 C454 1.386 . S
C455 C459 1.393 . S
C456 H445 0.950 . S
C456 C454 1.391 . S
C456 C457 1.400 . S
C457 C451 1.491 . S
C457 C456 1.400 . S
C457 C458 1.398 . S
C458 H446 0.950 . S
C458 C457 1.398 . S
C458 C459 1.391 . S
C459 H447 0.950 . S
C459 C455 1.393 . S
C459 C458 1.391 . S
H460 C468 0.950 . S
H461 C473 0.950 . S
H462 C470 0.950 . S
H463 C472 0.950 . S
H464 C474 0.950 . S
H465 C476 0.950 . S
H466 C478 0.950 . S
H467 C479 0.950 . S
C468 H460 0.950 . S
C468 C469 1.386 . S
C468 C470 1.391 . S
C469 C468 1.386 . S
C469 C473 1.393 . S
C470 H462 0.950 . S
C470 C468 1.391 . S
C470 C471 1.400 . S
C471 C470 1.400 . S
C471 C472 1.398 . S
C471 C477 1.491 . S
C472 H463 0.950 . S
C472 C471 1.398 . S
C472 C473 1.391 . S
C473 H461 0.950 . S
C473 C469 1.393 . S
C473 C472 1.391 . S
C474 H464 0.950 . S
C474 C475 1.386 . S
C474 C476 1.391 . S
C475 C474 1.386 . S
C475 C479 1.393 . S
C476 H465 0.950 . S
C476 C474 1.391 . S
C476 C477 1.400 . S
C477 C471 1.491 . S
C477 C476 1.400 . S
C477 C478 1.398 . S
C478 H466 0.950 . S
C478 C477 1.398 . S
C478 C479 1.391 . S
C479 H467 0.950 . S
C479 C475 1.393 . S
C479 C478 1.391 . S
H480 C488 0.950 . S
H481 C493 0.950 . S
H482 C490 0.950 . S
H483 C492 0.950 . S
H484 C494 0.950 . S
H485 C496 0.950 . S
H486 C498 0.950 . S
H487 C499 0.950 . S
C488 H480 0.950 . S
C488 C489 1.386 . S
C488 C490 1.391 . S
C489 C488 1.386 . S
C489 C493 1.393 . S
C490 H482 0.950 . S
C490 C488 1.391 . S
C490 C491 1.400 . S
C491 C490 1.400 . S
C491 C492 1.398 . S
C491 C497 1.491 . S
C492 H483 0.950 . S
C492 C491 1.398 . S
C492 C493 1.391 . S
C493 H481 0.950 . S
C493 C489 1.393 . S
C493 C492 1.391 . S
C494 H484 0.950 . S
C494 C495 1.386 . S
C494 C496 1.391 . S
C495 C494 1.386 . S
C495 C499 1.393 . S
C496 H485 0.950 . S
C496 C494 1.391 . S
C496 C497 1.400 . S
C497 C491 1.491 . S
C497 C496 1.400 . S
C497 C498 1.398 . S
C498 H486 0.950 . S
C498 C497 1.398 . S
C498 C499 1.391 . S
C499 H487 0.950 . S
C499 C495 1.393 . S
C499 C498 1.391 . S
H500 C508 0.950 . S
H501 C513 0.950 . S
H502 C510 0.950 . S
H503 C512 0.950 . S
H504 C514 0.950 . S
H505 C516 0.950 . S
H506 C518 0.950 . S
H507 C519 0.950 . S
C508 H500 0.950 . S
C508 C509 1.386 . S
C508 C510 1.391 . S
C509 C508 1.386 . S
C509 C513 1.393 . S
C510 H502 0.950 . S
C510 C508 1.391 . S
C510 C511 1.400 . S
C511 C510 1.400 . S
C511 C512 1.398 . S
C511 C517 1.491 . S
C512 H503 0.950 . S
C512 C511 1.398 . S
C512 C513 1.391 . S
C513 H501 0.950 . S
C513 C509 1.393 . S
C513 C512 1.391 . S
C514 H504 0.950 . S
C514 C515 1.386 . S
C514 C516 1.391 . S
C515 C514 1.386 . S
C515 C519 1.393 . S
C516 H505 0.950 . S
C516 C514 1.391 . S
C516 C517 1.400 . S
C517 C511 1.491 . S
C517 C516 1.400 . S
C517 C518 1.398 . S
C518 H506 0.950 . S
C518 C517 1.398 . S
C518 C519 1.391 . S
C519 H507 0.950 . S
C519 C515 1.393 . S
C519 C518 1.391 . S
H520 C528 0.950 . S
H521 C533 0.950 . S
H522 C530 0.950 . S
H523 C532 0.950 . S
H524 C534 0.950 . S
H525 C536 0.950 . S
H526 C538 0.950 . S
H527 C539 0.950 . S
C528 H520 0.950 . S
C528 C529 1.386 . S
C528 C530 1.391 . S
C529 C528 1.386 . S
C529 C533 1.393 . S
C530 H522 0.950 . S
C530 C528 1.391 . S
C530 C531 1.400 . S
C531 C530 1.400 . S
C531 C532 1.398 . S
C531 C537 1.491 . S
C532 H523 0.950 . S
C532 C531 1.398 . S
C532 C533 1.391 . S
C533 H521 0.950 . S
C533 C529 1.393 . S
C533 C532 1.391 . S
C534 H524 0.950 . S
C534 C535 1.386 . S
C534 C536 1.391 . S
C535 C534 1.386 . S
C535 C539 1.393 . S
C536 H525 0.950 . S
C536 C534 1.391 . S
C536 C537 1.400 . S
C537 C531 1.491 . S
C537 C536 1.400 . S
C537 C538 1.398 . S
C538 H526 0.950 . S
C538 C537 1.398 . S
C538 C539 1.391 . S
C539 H527 0.950 . S
C539 C535 1.393 . S
C539 C538 1.391 . S
H540 C548 0.950 . S
H541 C553 0.950 . S
H542 C550 0.950 . S
H543 C552 0.950 . S
H544 C554 0.950 . S
H545 C556 0.950 . S
H546 C558 0.950 1_554 S
H547 C559 0.950 . S
C548 H540 0.950 . S
C548 C549 1.386 . S
C548 C550 1.391 . S
C549 C548 1.386 . S
C549 C553 1.393 . S
C550 H542 0.950 . S
C550 C548 1.391 . S
C550 C551 1.400 . S
C551 C550 1.400 . S
C551 C552 1.398 . S
C551 C557 1.508 . S
C552 H543 0.950 . S
C552 C551 1.398 . S
C552 C553 1.391 . S
C553 H541 0.950 . S
C553 C549 1.393 . S
C553 C552 1.391 . S
C554 H544 0.950 . S
C554 C555 1.386 . S
C554 C556 1.391 . S
C555 C554 1.386 . S
C555 C559 1.393 . S
C556 H545 0.950 . S
C556 C554 1.391 . S
C556 C557 1.384 1_556 S
C557 C551 1.508 . S
C557 C556 1.384 1_554 S
C557 C558 1.396 1_554 S
C558 H546 0.950 1_556 S
C558 C557 1.396 1_556 S
C558 C559 1.391 . S
C559 H547 0.950 . S
C559 C555 1.393 . S
C559 C558 1.391 . S
H560 C568 0.950 . S
H561 C573 0.950 . S
H562 C570 0.950 . S
H563 C572 0.950 . S
H564 C574 0.950 . S
H565 C576 0.950 . S
H566 C578 0.950 . S
H567 C579 0.950 . S
C568 H560 0.950 . S
C568 C569 1.386 . S
C568 C570 1.391 . S
C569 C568 1.386 . S
C569 C573 1.393 . S
C570 H562 0.950 . S
C570 C568 1.391 . S
C570 C571 1.400 . S
C571 C570 1.400 . S
C571 C572 1.398 . S
C571 C577 1.491 . S
C572 H563 0.950 . S
C572 C571 1.398 . S
C572 C573 1.391 . S
C573 H561 0.950 . S
C573 C569 1.393 . S
C573 C572 1.391 . S
C574 H564 0.950 . S
C574 C575 1.386 . S
C574 C576 1.391 . S
C575 C574 1.386 . S
C575 C579 1.393 . S
C576 H565 0.950 . S
C576 C574 1.391 . S
C576 C577 1.400 . S
C577 C571 1.491 . S
C577 C576 1.400 . S
C577 C578 1.398 . S
C578 H566 0.950 . S
C578 C577 1.398 . S
C578 C579 1.391 . S
C579 H567 0.950 . S
C579 C575 1.393 . S
C579 C578 1.391 . S
H580 C588 0.950 . S
H581 C593 0.950 . S
H582 C590 0.950 . S
H583 C592 0.950 1_556 S
H584 C594 0.950 . S
H585 C596 0.950 . S
H586 C598 0.950 . S
H587 C599 0.950 . S
C588 H580 0.950 . S
C588 C589 1.386 . S
C588 C590 1.391 1_554 S
C589 C588 1.386 . S
C589 C593 1.393 . S
C590 H582 0.950 . S
C590 C588 1.391 1_556 S
C590 C591 1.400 . S
C591 C590 1.400 . S
C591 C592 1.398 1_556 S
C591 C597 1.491 . S
C592 H583 0.950 1_554 S
C592 C591 1.398 1_554 S
C592 C593 1.391 . S
C593 H581 0.950 . S
C593 C589 1.393 . S
C593 C592 1.391 . S
C594 H584 0.950 . S
C594 C595 1.386 . S
C594 C596 1.391 . S
C595 C594 1.386 . S
C595 C599 1.393 . S
C596 H585 0.950 . S
C596 C594 1.391 . S
C596 C597 1.400 . S
C597 C591 1.491 . S
C597 C596 1.400 . S
C597 C598 1.398 . S
C598 H586 0.950 . S
C598 C597 1.398 . S
C598 C599 1.391 . S
C599 H587 0.950 . S
C599 C595 1.393 . S
C599 C598 1.391 . S
H600 C608 0.950 . S
H601 C613 0.950 . S
H602 C610 0.950 . S
H603 C612 0.950 . S
H604 C614 0.950 . S
H605 C616 0.950 . S
H606 C618 0.950 . S
H607 C619 0.950 . S
C608 H600 0.950 . S
C608 C609 1.386 . S
C608 C610 1.391 . S
C609 C608 1.386 . S
C609 C613 1.393 . S
C610 H602 0.950 . S
C610 C608 1.391 . S
C610 C611 1.400 . S
C611 C610 1.400 . S
C611 C612 1.398 . S
C611 C617 1.491 . S
C612 H603 0.950 . S
C612 C611 1.398 . S
C612 C613 1.391 . S
C613 H601 0.950 . S
C613 C609 1.393 . S
C613 C612 1.391 . S
C614 H604 0.950 . S
C614 C615 1.386 . S
C614 C616 1.391 . S
C615 C614 1.386 . S
C615 C619 1.393 . S
C616 H605 0.950 . S
C616 C614 1.391 . S
C616 C617 1.400 . S
C617 C611 1.491 . S
C617 C616 1.400 . S
C617 C618 1.398 . S
C618 H606 0.950 . S
C618 C617 1.398 . S
C618 C619 1.391 . S
C619 H607 0.950 . S
C619 C615 1.393 . S
C619 C618 1.391 . S
H620 C628 0.950 . S
H621 C633 0.950 . S
H622 C630 0.950 . S
H623 C632 0.950 . S
H624 C634 0.950 . S
H625 C636 0.950 . S
H626 C638 0.950 . S
H627 C639 0.950 . S
C628 H620 0.950 . S
C628 C629 1.386 . S
C628 C630 1.391 . S
C629 C628 1.386 . S
C629 C633 1.393 . S
C630 H622 0.950 . S
C630 C628 1.391 . S
C630 C631 1.400 . S
C631 C630 1.400 . S
C631 C632 1.398 . S
C631 C637 1.491 . S
C632 H623 0.950 . S
C632 C631 1.398 . S
C632 C633 1.391 . S
C633 H621 0.950 . S
C633 C629 1.393 . S
C633 C632 1.391 . S
C634 H624 0.950 . S
C634 C635 1.386 . S
C634 C636 1.391 . S
C635 C634 1.386 . S
C635 C639 1.393 . S
C636 H625 0.950 . S
C636 C634 1.391 . S
C636 C637 1.400 . S
C637 C631 1.491 . S
C637 C636 1.400 . S
C637 C638 1.398 . S
C638 H626 0.950 . S
C638 C637 1.398 . S
C638 C639 1.391 . S
C639 H627 0.950 . S
C639 C635 1.393 . S
C639 C638 1.391 . S
H640 C648 0.950 . S
H641 C653 0.950 . S
H642 C650 0.950 . S
H643 C652 0.950 . S
H644 C654 0.950 . S
H645 C656 0.950 . S
H646 C658 0.950 . S
H647 C659 0.950 . S
C648 H640 0.950 . S
C648 C649 1.386 . S
C648 C650 1.391 . S
C649 C648 1.386 . S
C649 C653 1.393 . S
C650 H642 0.950 . S
C650 C648 1.391 . S
C650 C651 1.400 . S
C651 C650 1.400 . S
C651 C652 1.398 . S
C651 C657 1.491 . S
C652 H643 0.950 . S
C652 C651 1.398 . S
C652 C653 1.391 . S
C653 H641 0.950 . S
C653 C649 1.393 . S
C653 C652 1.391 . S
C654 H644 0.950 . S
C654 C655 1.386 . S
C654 C656 1.391 . S
C655 C654 1.386 . S
C655 C659 1.393 . S
C656 H645 0.950 . S
C656 C654 1.391 . S
C656 C657 1.400 . S
C657 C651 1.491 . S
C657 C656 1.400 . S
C657 C658 1.398 . S
C658 H646 0.950 . S
C658 C657 1.398 . S
C658 C659 1.391 . S
C659 H647 0.950 . S
C659 C655 1.393 . S
C659 C658 1.391 . S
H660 C668 0.950 . S
H661 C673 0.950 . S
H662 C670 0.950 . S
H663 C672 0.950 . S
H664 C674 0.950 . S
H665 C676 0.950 . S
H666 C678 0.950 . S
H667 C679 0.950 . S
C668 H660 0.950 . S
C668 C669 1.386 . S
C668 C670 1.391 . S
C669 C668 1.386 . S
C669 C673 1.393 . S
C670 H662 0.950 . S
C670 C668 1.391 . S
C670 C671 1.400 . S
C671 C670 1.400 . S
C671 C672 1.398 . S
C671 C677 1.491 . S
C672 H663 0.950 . S
C672 C671 1.398 . S
C672 C673 1.391 . S
C673 H661 0.950 . S
C673 C669 1.393 . S
C673 C672 1.391 . S
C674 H664 0.950 . S
C674 C675 1.386 . S
C674 C676 1.391 . S
C675 C674 1.386 . S
C675 C679 1.393 . S
C676 H665 0.950 . S
C676 C674 1.391 . S
C676 C677 1.400 1_565 S
C677 C671 1.491 . S
C677 C676 1.400 1_545 S
C677 C678 1.398 . S
C678 H666 0.950 . S
C678 C677 1.398 . S
C678 C679 1.391 1_545 S
C679 H667 0.950 . S
C679 C675 1.393 . S
C679 C678 1.391 1_565 S
H680 C688 0.950 . S
H681 C693 0.950 . S
H682 C690 0.950 . S
H683 C692 0.950 . S
H684 C694 0.950 . S
H685 C696 0.950 . S
H686 C698 0.950 . S
H687 C699 0.950 . S
C688 H680 0.950 . S
C688 C689 1.386 . S
C688 C690 1.391 . S
C689 C688 1.386 . S
C689 C693 1.393 . S
C690 H682 0.950 . S
C690 C688 1.391 . S
C690 C691 1.400 . S
C691 C690 1.400 . S
C691 C692 1.398 . S
C691 C697 1.491 . S
C692 H683 0.950 . S
C692 C691 1.398 . S
C692 C693 1.391 . S
C693 H681 0.950 . S
C693 C689 1.393 . S
C693 C692 1.391 . S
C694 H684 0.950 . S
C694 C695 1.386 . S
C694 C696 1.391 . S
C695 C694 1.386 . S
C695 C699 1.393 . S
C696 H685 0.950 . S
C696 C694 1.391 . S
C696 C697 1.400 . S
C697 C691 1.491 . S
C697 C696 1.400 . S
C697 C698 1.398 . S
C698 H686 0.950 . S
C698 C697 1.398 . S
C698 C699 1.391 . S
C699 H687 0.950 . S
C699 C695 1.393 . S
C699 C698 1.391 . S
H700 C708 0.950 . S
H701 C713 0.950 . S
H702 C710 0.950 . S
H703 C712 0.950 . S
H704 C714 0.950 . S
H705 C716 0.950 . S
H706 C718 0.950 . S
H707 C719 0.950 . S
C708 H700 0.950 . S
C708 C709 1.386 . S
C708 C710 1.391 . S
C709 C708 1.386 . S
C709 C713 1.393 . S
C710 H702 0.950 . S
C710 C708 1.391 . S
C710 C711 1.416 . S
C711 C710 1.416 . S
C711 C712 1.397 1_545 S
C711 C717 1.477 1_545 S
C712 H703 0.950 . S
C712 C711 1.397 1_565 S
C712 C713 1.391 1_565 S
C713 H701 0.950 . S
C713 C709 1.393 . S
C713 C712 1.391 1_545 S
C714 H704 0.950 . S
C714 C715 1.386 . S
C714 C716 1.391 . S
C715 C714 1.386 . S
C715 C719 1.393 . S
C716 H705 0.950 . S
C716 C714 1.391 . S
C716 C717 1.400 . S
C717 C711 1.477 1_565 S
C717 C716 1.400 . S
C717 C718 1.398 . S
C718 H706 0.950 . S
C718 C717 1.398 . S
C718 C719 1.391 . S
C719 H707 0.950 . S
C719 C715 1.393 . S
C719 C718 1.391 . S
H720 C728 0.950 . S
H721 C733 0.950 . S
H722 C730 0.950 . S
H723 C732 0.950 . S
H724 C734 0.950 . S
H725 C736 0.950 . S
H726 C738 0.950 . S
H727 C739 0.950 . S
C728 H720 0.950 . S
C728 C729 1.386 . S
C728 C730 1.391 . S
C729 C728 1.386 . S
C729 C733 1.393 . S
C730 H722 0.950 . S
C730 C728 1.391 . S
C730 C731 1.400 . S
C731 C730 1.400 . S
C731 C732 1.398 . S
C731 C737 1.491 . S
C732 H723 0.950 . S
C732 C731 1.398 . S
C732 C733 1.391 . S
C733 H721 0.950 . S
C733 C729 1.393 . S
C733 C732 1.391 . S
C734 H724 0.950 . S
C734 C735 1.386 . S
C734 C736 1.391 . S
C735 C734 1.386 . S
C735 C739 1.393 . S
C736 H725 0.950 . S
C736 C734 1.391 . S
C736 C737 1.400 . S
C737 C731 1.491 . S
C737 C736 1.400 . S
C737 C738 1.398 . S
C738 H726 0.950 . S
C738 C737 1.398 . S
C738 C739 1.391 . S
C739 H727 0.950 . S
C739 C735 1.393 . S
C739 C738 1.391 . S
H740 C748 0.950 . S
H741 C753 0.950 . S
H742 C750 0.950 . S
H743 C752 0.950 . S
H744 C754 0.950 . S
H745 C756 0.950 . S
H746 C758 0.950 . S
H747 C759 0.950 . S
C748 H740 0.950 . S
C748 C749 1.386 . S
C748 C750 1.391 . S
C749 C748 1.386 . S
C749 C753 1.393 . S
C750 H742 0.950 . S
C750 C748 1.391 . S
C750 C751 1.400 . S
C751 C750 1.400 . S
C751 C752 1.398 . S
C751 C757 1.491 . S
C752 H743 0.950 . S
C752 C751 1.398 . S
C752 C753 1.391 . S
C753 H741 0.950 . S
C753 C749 1.393 . S
C753 C752 1.391 . S
C754 H744 0.950 . S
C754 C755 1.386 . S
C754 C756 1.391 . S
C755 C754 1.386 . S
C755 C759 1.393 . S
C756 H745 0.950 . S
C756 C754 1.391 . S
C756 C757 1.400 . S
C757 C751 1.491 . S
C757 C756 1.400 . S
C757 C758 1.398 . S
C758 H746 0.950 . S
C758 C757 1.398 . S
C758 C759 1.391 . S
C759 H747 0.950 . S
C759 C755 1.393 . S
C759 C758 1.391 . S
H760 C768 0.950 . S
H761 C773 0.950 . S
H762 C770 0.950 . S
H763 C772 0.950 . S
H764 C774 0.950 . S
H765 C776 0.950 . S
H766 C778 0.950 . S
H767 C779 0.950 . S
C768 H760 0.950 . S
C768 C769 1.386 . S
C768 C770 1.391 . S
C769 C768 1.386 . S
C769 C773 1.393 . S
C770 H762 0.950 . S
C770 C768 1.391 . S
C770 C771 1.400 . S
C771 C770 1.400 . S
C771 C772 1.398 . S
C771 C777 1.491 . S
C772 H763 0.950 . S
C772 C771 1.398 . S
C772 C773 1.391 . S
C773 H761 0.950 . S
C773 C769 1.393 . S
C773 C772 1.391 . S
C774 H764 0.950 . S
C774 C775 1.386 . S
C774 C776 1.391 . S
C775 C774 1.386 . S
C775 C779 1.393 . S
C776 H765 0.950 . S
C776 C774 1.391 . S
C776 C777 1.400 . S
C777 C771 1.491 . S
C777 C776 1.400 . S
C777 C778 1.398 . S
C778 H766 0.950 . S
C778 C777 1.398 . S
C778 C779 1.391 . S
C779 H767 0.950 . S
C779 C775 1.393 . S
C779 C778 1.391 . S
H780 C788 0.950 . S
H781 C793 0.950 . S
H782 C790 0.950 . S
H783 C792 0.950 . S
H784 C794 0.950 . S
H785 C796 0.950 . S
H786 C798 0.950 . S
H787 C799 0.950 . S
C788 H780 0.950 . S
C788 C789 1.386 . S
C788 C790 1.391 . S
C789 C788 1.386 . S
C789 C793 1.393 . S
C790 H782 0.950 . S
C790 C788 1.391 . S
C790 C791 1.400 . S
C791 C790 1.400 . S
C791 C792 1.398 . S
C791 C797 1.491 . S
C792 H783 0.950 . S
C792 C791 1.398 . S
C792 C793 1.391 . S
C793 H781 0.950 . S
C793 C789 1.393 . S
C793 C792 1.391 . S
C794 H784 0.950 . S
C794 C795 1.386 . S
C794 C796 1.391 . S
C795 C794 1.386 . S
C795 C799 1.393 . S
C796 H785 0.950 . S
C796 C794 1.391 . S
C796 C797 1.400 . S
C797 C791 1.491 . S
C797 C796 1.400 . S
C797 C798 1.398 . S
C798 H786 0.950 . S
C798 C797 1.398 . S
C798 C799 1.391 . S
C799 H787 0.950 . S
C799 C795 1.393 . S
C799 C798 1.391 . S
H800 C808 0.950 . S
H801 C813 0.950 . S
H802 C810 0.950 . S
H803 C812 0.950 . S
H804 C814 0.950 . S
H805 C816 0.950 . S
H806 C818 0.950 . S
H807 C819 0.950 . S
C808 H800 0.950 . S
C808 C809 1.386 . S
C808 C810 1.391 . S
C809 C808 1.386 . S
C809 C813 1.393 . S
C810 H802 0.950 . S
C810 C808 1.391 . S
C810 C811 1.400 . S
C811 C810 1.400 . S
C811 C812 1.398 . S
C811 C817 1.491 . S
C812 H803 0.950 . S
C812 C811 1.398 . S
C812 C813 1.391 . S
C813 H801 0.950 . S
C813 C809 1.393 . S
C813 C812 1.391 . S
C814 H804 0.950 . S
C814 C815 1.386 . S
C814 C816 1.391 . S
C815 C814 1.386 . S
C815 C819 1.393 . S
C816 H805 0.950 . S
C816 C814 1.391 . S
C816 C817 1.400 . S
C817 C811 1.491 . S
C817 C816 1.400 . S
C817 C818 1.398 . S
C818 H806 0.950 . S
C818 C817 1.398 . S
C818 C819 1.391 . S
C819 H807 0.950 . S
C819 C815 1.393 . S
C819 C818 1.391 . S
H820 C828 0.950 . S
H821 C833 0.950 . S
H822 C830 0.950 . S
H823 C832 0.950 . S
H824 C834 0.950 . S
H825 C836 0.950 . S
H826 C838 0.950 . S
H827 C839 0.950 . S
C828 H820 0.950 . S
C828 C829 1.386 . S
C828 C830 1.391 . S
C829 C828 1.386 . S
C829 C833 1.393 . S
C830 H822 0.950 . S
C830 C828 1.391 . S
C830 C831 1.400 . S
C831 C830 1.400 . S
C831 C832 1.398 . S
C831 C837 1.491 . S
C832 H823 0.950 . S
C832 C831 1.398 . S
C832 C833 1.391 . S
C833 H821 0.950 . S
C833 C829 1.393 . S
C833 C832 1.391 . S
C834 H824 0.950 . S
C834 C835 1.386 . S
C834 C836 1.391 . S
C835 C834 1.386 . S
C835 C839 1.393 . S
C836 H825 0.950 . S
C836 C834 1.391 . S
C836 C837 1.400 . S
C837 C831 1.491 . S
C837 C836 1.400 . S
C837 C838 1.398 . S
C838 H826 0.950 . S
C838 C837 1.398 . S
C838 C839 1.391 . S
C839 H827 0.950 . S
C839 C835 1.393 . S
C839 C838 1.391 . S
H840 C848 0.950 . S
H841 C853 0.950 . S
H842 C850 0.950 . S
H843 C852 0.950 . S
H844 C854 0.950 . S
H845 C856 0.946 1_455 S
H846 C858 0.950 . S
H847 C859 0.950 . S
C848 H840 0.950 . S
C848 C849 1.386 . S
C848 C850 1.391 . S
C849 C848 1.386 . S
C849 C853 1.393 . S
C850 H842 0.950 . S
C850 C848 1.391 . S
C850 C851 1.400 . S
C851 C850 1.400 . S
C851 C852 1.398 . S
C851 C857 1.491 . S
C852 H843 0.950 . S
C852 C851 1.398 . S
C852 C853 1.391 . S
C853 H841 0.950 . S
C853 C849 1.393 . S
C853 C852 1.391 . S
C854 H844 0.950 . S
C854 C855 1.386 . S
C854 C856 1.419 . S
C855 C854 1.386 . S
C855 C859 1.393 . S
C856 H845 0.946 1_655 S
C856 C854 1.419 . S
C856 C857 1.377 1_655 S
C857 C851 1.491 . S
C857 C856 1.377 1_455 S
C857 C858 1.398 . S
C858 H846 0.950 . S
C858 C857 1.398 . S
C858 C859 1.391 1_455 S
C859 H847 0.950 . S
C859 C855 1.393 . S
C859 C858 1.391 1_655 S
H860 C868 0.950 . S
H861 C873 0.950 . S
H862 C870 0.950 . S
H863 C872 0.950 . S
H864 C874 0.950 . S
H865 C876 0.950 . S
H866 C878 0.950 . S
H867 C879 0.950 . S
C868 H860 0.950 . S
C868 C869 1.386 . S
C868 C870 1.391 . S
C869 C868 1.386 . S
C869 C873 1.393 . S
C870 H862 0.950 . S
C870 C868 1.391 . S
C870 C871 1.400 . S
C871 C870 1.400 . S
C871 C872 1.398 . S
C871 C877 1.491 . S
C872 H863 0.950 . S
C872 C871 1.398 . S
C872 C873 1.391 . S
C873 H861 0.950 . S
C873 C869 1.393 . S
C873 C872 1.391 . S
C874 H864 0.950 . S
C874 C875 1.386 . S
C874 C876 1.391 . S
C875 C874 1.386 . S
C875 C879 1.393 . S
C876 H865 0.950 . S
C876 C874 1.391 . S
C876 C877 1.400 . S
C877 C871 1.491 . S
C877 C876 1.400 . S
C877 C878 1.398 . S
C878 H866 0.950 . S
C878 C877 1.398 . S
C878 C879 1.391 . S
C879 H867 0.950 . S
C879 C875 1.393 . S
C879 C878 1.391 . S
H880 C888 0.950 . S
H881 C893 0.950 . S
H882 C890 0.950 . S
H883 C892 0.950 . S
H884 C894 0.950 . S
H885 C896 0.950 . S
H886 C898 0.950 . S
H887 C899 0.950 . S
C888 H880 0.950 . S
C888 C889 1.386 . S
C888 C890 1.391 . S
C889 C888 1.386 . S
C889 C893 1.393 . S
C890 H882 0.950 . S
C890 C888 1.391 . S
C890 C891 1.400 . S
C891 C890 1.400 . S
C891 C892 1.398 . S
C891 C897 1.491 . S
C892 H883 0.950 . S
C892 C891 1.398 . S
C892 C893 1.391 . S
C893 H881 0.950 . S
C893 C889 1.393 . S
C893 C892 1.391 . S
C894 H884 0.950 . S
C894 C895 1.386 . S
C894 C896 1.391 . S
C895 C894 1.386 . S
C895 C899 1.393 . S
C896 H885 0.950 . S
C896 C894 1.391 . S
C896 C897 1.400 . S
C897 C891 1.491 . S
C897 C896 1.400 . S
C897 C898 1.398 . S
C898 H886 0.950 . S
C898 C897 1.398 . S
C898 C899 1.391 . S
C899 H887 0.950 . S
C899 C895 1.393 . S
C899 C898 1.391 . S
H900 C908 0.950 . S
H901 C913 0.950 . S
H902 C910 0.950 . S
H903 C912 0.950 . S
H904 C914 0.950 . S
H905 C916 0.950 . S
H906 C918 0.950 . S
H907 C919 0.950 . S
C908 H900 0.950 . S
C908 C909 1.386 . S
C908 C910 1.391 . S
C909 C908 1.386 . S
C909 C913 1.393 . S
C910 H902 0.950 . S
C910 C908 1.391 . S
C910 C911 1.400 . S
C911 C910 1.400 . S
C911 C912 1.398 . S
C911 C917 1.491 . S
C912 H903 0.950 . S
C912 C911 1.398 . S
C912 C913 1.391 . S
C913 H901 0.950 . S
C913 C909 1.393 . S
C913 C912 1.391 . S
C914 H904 0.950 . S
C914 C915 1.386 . S
C914 C916 1.391 . S
C915 C914 1.386 . S
C915 C919 1.393 . S
C916 H905 0.950 . S
C916 C914 1.391 . S
C916 C917 1.400 . S
C917 C911 1.491 . S
C917 C916 1.400 . S
C917 C918 1.398 . S
C918 H906 0.950 . S
C918 C917 1.398 . S
C918 C919 1.391 . S
C919 H907 0.950 . S
C919 C915 1.393 . S
C919 C918 1.391 . S
H920 C928 0.950 . S
H921 C933 0.950 . S
H922 C930 0.950 . S
H923 C932 0.950 . S
H924 C934 0.950 . S
H925 C936 0.950 . S
H926 C938 0.950 . S
H927 C939 0.950 . S
C928 H920 0.950 . S
C928 C929 1.386 . S
C928 C930 1.391 . S
C929 C928 1.386 . S
C929 C933 1.393 . S
C930 H922 0.950 . S
C930 C928 1.391 . S
C930 C931 1.400 . S
C931 C930 1.400 . S
C931 C932 1.398 . S
C931 C937 1.491 . S
C932 H923 0.950 . S
C932 C931 1.398 . S
C932 C933 1.391 . S
C933 H921 0.950 . S
C933 C929 1.393 . S
C933 C932 1.391 . S
C934 H924 0.950 . S
C934 C935 1.386 . S
C934 C936 1.391 . S
C935 C934 1.386 . S
C935 C939 1.393 . S
C936 H925 0.950 . S
C936 C934 1.391 . S
C936 C937 1.400 . S
C937 C931 1.491 . S
C937 C936 1.400 . S
C937 C938 1.398 . S
C938 H926 0.950 . S
C938 C937 1.398 . S
C938 C939 1.391 . S
C939 H927 0.950 . S
C939 C935 1.393 . S
C939 C938 1.391 . S
H940 C948 0.950 . S
H941 C953 0.950 . S
H942 C950 0.950 . S
H943 C952 0.950 . S
H944 C954 0.950 . S
H945 C956 0.950 . S
H946 C958 0.950 . S
H947 C959 0.950 . S
C948 H940 0.950 . S
C948 C949 1.386 . S
C948 C950 1.391 . S
C949 C948 1.386 . S
C949 C953 1.393 . S
C950 H942 0.950 . S
C950 C948 1.391 . S
C950 C951 1.400 . S
C951 C950 1.400 . S
C951 C952 1.398 . S
C951 C957 1.491 . S
C952 H943 0.950 . S
C952 C951 1.398 . S
C952 C953 1.391 . S
C953 H941 0.950 . S
C953 C949 1.393 . S
C953 C952 1.391 . S
C954 H944 0.950 . S
C954 C955 1.386 . S
C954 C956 1.391 . S
C955 C954 1.386 . S
C955 C959 1.393 . S
C956 H945 0.950 . S
C956 C954 1.391 . S
C956 C957 1.400 1_455 S
C957 C951 1.491 . S
C957 C956 1.400 1_655 S
C957 C958 1.398 . S
C958 H946 0.950 . S
C958 C957 1.398 . S
C958 C959 1.391 1_655 S
C959 H947 0.950 . S
C959 C955 1.393 . S
C959 C958 1.391 1_455 S
C249 C9 1.257 . S
C255 C229 1.266 . S
C269 C199 1.436 1_565 S
C275 C29 1.507 . S
C289 C59 1.280 . S
C295 C179 1.278 . S
C309 C69 1.765 . S
C315 C209 1.755 . S
C329 C89 1.552 . S
C335 C219 1.497 . S
C349 C119 1.244 . S
C355 C239 1.276 . S
C369 C189 1.612 . S
C375 C129 1.621 1_556 S
C389 C159 1.429 . S
C395 C169 1.537 . S
C409 C79 1.622 . S
C415 C99 1.654 . S
C429 C19 1.448 . S
C435 C109 1.507 . S
C449 C39 1.340 1_655 S
C455 C139 1.315 . S
C469 C149 1.667 . S
C475 C49 1.678 . S
C489 C2 1.613 . S
C495 C178 1.594 . S
C509 C22 1.527 . S
C515 C208 1.452 . S
C529 C228 1.511 . S
C535 C41 1.498 . S
C549 C62 1.385 . S
C555 C198 1.370 . S
C569 C82 1.326 . S
C575 C188 1.282 . S
C589 C168 1.265 . S
C595 C101 1.274 . S
C609 C218 1.228 . S
C615 C122 1.238 . S
C629 C238 2.129 . S
C635 C141 2.037 . S
C649 C18 1.666 . S
C655 C61 1.583 . S
C669 C1 1.553 . S
C675 C38 1.600 . S
C689 C21 1.326 . S
C695 C48 1.343 . S
C709 C78 1.342 . S
C715 C42 1.347 . S
C729 C102 1.361 . S
C735 C98 1.373 . S
C749 C108 1.560 . S
C755 C121 1.569 . S
C769 C138 1.536 . S
C775 C142 1.552 . S
C789 C81 1.180 . S
C795 C148 1.181 . S
C809 C162 0.724 . S
C815 C68 0.707 . S
C829 C118 1.319 . S
C835 C181 1.262 . S
C849 C161 1.272 . S
C855 C128 1.273 . S
C869 C202 1.561 . S
C875 C158 1.568 . S
C889 C88 1.117 . S
C895 C222 1.146 . S
C909 C221 1.424 . S
C915 C28 1.429 . S
C929 C58 1.459 . S
C935 C182 1.475 . S
C949 C201 1.422 . S
C955 C8 1.416 . S
