# Generated by pormake.
# Topology wiy, (3)-cn, num edge types: 1
# Building blocks:
#     Node 0, Type 0, BuildingBlock: OLANEW_clean_sbu_2, # of connection points: 3
#     Node 1, Type 0, BuildingBlock: OLANEW_clean_sbu_2, # of connection points: 3
#     Node 2, Type 0, BuildingBlock: OLANEW_clean_sbu_2, # of connection points: 3
#     Node 3, Type 0, BuildingBlock: OLANEW_clean_sbu_2, # of connection points: 3
#     Node 4, Type 0, BuildingBlock: OLANEW_clean_sbu_2, # of connection points: 3
#     Node 5, Type 0, BuildingBlock: OLANEW_clean_sbu_2, # of connection points: 3
#     Node 6, Type 0, BuildingBlock: OLANEW_clean_sbu_2, # of connection points: 3
#     Node 7, Type 0, BuildingBlock: OLANEW_clean_sbu_2, # of connection points: 3
#     Node 8, Type 0, BuildingBlock: OLANEW_clean_sbu_2, # of connection points: 3
#     Node 9, Type 0, BuildingBlock: OLANEW_clean_sbu_2, # of connection points: 3
#     Node 10, Type 0, BuildingBlock: OLANEW_clean_sbu_2, # of connection points: 3
#     Node 11, Type 0, BuildingBlock: OLANEW_clean_sbu_2, # of connection points: 3
#     Edge 12, Type (0, 0), BuildingBlock: XIVTED_clean_linker_0, # of connection points: 2
#     Edge 13, Type (0, 0), BuildingBlock: XIVTED_clean_linker_0, # of connection points: 2
#     Edge 14, Type (0, 0), BuildingBlock: XIVTED_clean_linker_0, # of connection points: 2
#     Edge 15, Type (0, 0), BuildingBlock: XIVTED_clean_linker_0, # of connection points: 2
#     Edge 16, Type (0, 0), BuildingBlock: XIVTED_clean_linker_0, # of connection points: 2
#     Edge 17, Type (0, 0), BuildingBlock: XIVTED_clean_linker_0, # of connection points: 2
#     Edge 18, Type (0, 0), BuildingBlock: XIVTED_clean_linker_0, # of connection points: 2
#     Edge 19, Type (0, 0), BuildingBlock: XIVTED_clean_linker_0, # of connection points: 2
#     Edge 20, Type (0, 0), BuildingBlock: XIVTED_clean_linker_0, # of connection points: 2
#     Edge 21, Type (0, 0), BuildingBlock: XIVTED_clean_linker_0, # of connection points: 2
#     Edge 22, Type (0, 0), BuildingBlock: XIVTED_clean_linker_0, # of connection points: 2
#     Edge 23, Type (0, 0), BuildingBlock: XIVTED_clean_linker_0, # of connection points: 2
#     Edge 24, Type (0, 0), BuildingBlock: XIVTED_clean_linker_0, # of connection points: 2
#     Edge 25, Type (0, 0), BuildingBlock: XIVTED_clean_linker_0, # of connection points: 2
#     Edge 26, Type (0, 0), BuildingBlock: XIVTED_clean_linker_0, # of connection points: 2
#     Edge 27, Type (0, 0), BuildingBlock: XIVTED_clean_linker_0, # of connection points: 2
#     Edge 28, Type (0, 0), BuildingBlock: XIVTED_clean_linker_0, # of connection points: 2
#     Edge 29, Type (0, 0), BuildingBlock: XIVTED_clean_linker_0, # of connection points: 2
# Relax obj value: 0.011
# Max RMSD: 0.017
# Mean RMSD: 0.017
data_MOF--net-wiy--node1-OLANEW_clean_sbu_2--edge1-XIVTED_clean_linker_0
_symmetry_space_group_name_H-M    P1
_symmetry_Int_Tables_number       1
_symmetry_cell_setting            triclinic
loop_
_symmetry_equiv_pos_as_xyz
'x, y, z'
_cell_length_a     58.76473
_cell_length_b     58.772872
_cell_length_c     27.568141
_cell_angle_alpha  90.007315
_cell_angle_beta   89.989697
_cell_angle_gamma 120.01762
loop_
_atom_site_label
_atom_site_type_symbol
_atom_site_fract_x
_atom_site_fract_y
_atom_site_fract_z
_atom_type_partial_charge
O0 O 0.12916 0.46839 0.03452 0.0
Cd1 Cd 0.13014 0.42765 0.02285 0.0
O2 O 0.08909 0.44702 0.06439 0.0
Cd3 Cd 0.08255 0.40833 0.04377 0.0
O4 O 0.06344 0.37622 0.99175 0.0
C5 C 0.03938 0.35915 0.99791 0.0
O6 O 0.02761 0.3599 0.03791 0.0
C7 C 0.1096 0.46861 0.05377 0.0
C8 C 0.15881 0.42129 0.09682 0.0
O9 O 0.16964 0.43173 0.05623 0.0
O10 O 0.13435 0.4136 0.10224 0.0
O11 O 0.6579 0.1228 0.22521 0.0
Cd12 Cd 0.69828 0.12056 0.221 0.0
O13 O 0.63323 0.07975 0.22249 0.0
Cd14 Cd 0.6652 0.072 0.2074 0.0
O15 O 0.67928 0.0515 0.1612 0.0
C16 C 0.67282 0.02788 0.17092 0.0
O17 O 0.66004 0.01733 0.21138 0.0
C18 C 0.6353 0.10228 0.2263 0.0
C19 C 0.73282 0.15093 0.29427 0.0
O20 O 0.73458 0.16034 0.2516 0.0
O21 O 0.71492 0.12708 0.30208 0.0
O22 O 0.52271 0.66449 0.36177 0.0
Cd23 Cd 0.55915 0.70883 0.34665 0.0
O24 O 0.5475 0.64937 0.3905 0.0
Cd25 Cd 0.5839 0.68356 0.36609 0.0
O26 O 0.61525 0.69687 0.31231 0.0
C27 C 0.63313 0.69099 0.31846 0.0
O28 O 0.63353 0.67959 0.3592 0.0
C29 C 0.52483 0.64604 0.38124 0.0
C30 C 0.56462 0.73999 0.42686 0.0
O31 O 0.54765 0.73569 0.39372 0.0
O32 O 0.57954 0.73005 0.42168 0.0
O33 O 0.87569 0.53556 0.56067 0.0
Cd34 Cd 0.87668 0.57748 0.55298 0.0
O35 O 0.91863 0.55463 0.55305 0.0
Cd36 Cd 0.92486 0.59326 0.53289 0.0
O37 O 0.94327 0.62537 0.48069 0.0
C38 C 0.96698 0.64335 0.48695 0.0
O39 O 0.97896 0.64356 0.52733 0.0
C40 C 0.89655 0.53408 0.56045 0.0
C41 C 0.84512 0.58192 0.6235 0.0
O42 O 0.83618 0.57336 0.58091 0.0
O43 O 0.86905 0.58859 0.63257 0.0
O44 O 0.35501 0.896 0.72952 0.0
Cd45 Cd 0.31517 0.89904 0.72224 0.0
O46 O 0.38069 0.9388 0.73604 0.0
Cd47 Cd 0.34982 0.94748 0.71653 0.0
O48 O 0.33435 0.96409 0.6641 0.0
C49 C 0.32017 0.95002 0.62919 0.0
O50 O 0.31309 0.92498 0.62812 0.0
C51 C 0.37772 0.91583 0.73629 0.0
C52 C 0.27826 0.86605 0.79019 0.0
O53 O 0.27797 0.85822 0.74668 0.0
O54 O 0.29574 0.88961 0.8013 0.0
O55 O 0.46187 0.34281 0.88848 0.0
Cd56 Cd 0.42115 0.30075 0.87998 0.0
O57 O 0.44023 0.36328 0.90645 0.0
Cd58 Cd 0.40187 0.33035 0.88647 0.0
O59 O 0.37061 0.31564 0.83236 0.0
C60 C 0.37289 0.30482 0.79418 0.0
O61 O 0.39266 0.30041 0.79081 0.0
C62 C 0.46191 0.36363 0.90122 0.0
C63 C 0.41703 0.26664 0.95401 0.0
O64 O 0.42636 0.26583 0.91243 0.0
O65 O 0.40937 0.28336 0.96038 0.0
O66 O 0.53112 0.87072 0.80018 0.0
Cd67 Cd 0.56652 0.86104 0.81323 0.0
O68 O 0.55657 0.90999 0.7693 0.0
Cd69 Cd 0.59258 0.91086 0.79213 0.0
O70 O 0.62418 0.92781 0.84558 0.0
C71 C 0.62125 0.91631 0.88604 0.0
O72 O 0.6004 0.89306 0.89262 0.0
C73 C 0.53376 0.89138 0.78018 0.0
C74 C 0.5701 0.83496 0.73182 0.0
O75 O 0.55317 0.82261 0.7652 0.0
O76 O 0.58587 0.85965 0.7373 0.0
O77 O 0.65 0.5381 0.94609 0.0
Cd78 Cd 0.69117 0.57974 0.95461 0.0
O79 O 0.62832 0.55814 0.92534 0.0
Cd80 Cd 0.66006 0.59743 0.94403 0.0
O81 O 0.67313 0.63069 0.99339 0.0
C82 C 0.68568 0.63181 0.03169 0.0
O83 O 0.69282 0.61413 0.03842 0.0
C84 C 0.62886 0.53701 0.93208 0.0
C85 C 0.72709 0.58368 0.88438 0.0
O86 O 0.72724 0.57502 0.92698 0.0
O87 O 0.71014 0.59076 0.87521 0.0
O88 O 0.12745 0.65909 0.09598 0.0
Cd89 Cd 0.12617 0.69976 0.1063 0.0
O90 O 0.08481 0.63622 0.08324 0.0
Cd91 Cd 0.07748 0.66807 0.10213 0.0
O92 O 0.05924 0.68243 0.1533 0.0
C93 C 0.07148 0.69384 0.19186 0.0
O94 O 0.09581 0.69895 0.1974 0.0
C95 C 0.10698 0.63739 0.08584 0.0
C96 C 0.15741 0.73722 0.03757 0.0
O97 O 0.13356 0.71989 0.02801 0.0
O98 O 0.16643 0.7369 0.07974 0.0
O99 O 0.46831 0.12631 0.2859 0.0
Cd100 Cd 0.42826 0.12813 0.30104 0.0
O101 O 0.44693 0.08955 0.24437 0.0
Cd102 Cd 0.40854 0.08311 0.26685 0.0
O103 O 0.37822 0.067 0.32274 0.0
C104 C 0.36087 0.04279 0.32128 0.0
O105 O 0.36014 0.02883 0.28347 0.0
C106 C 0.46849 0.10843 0.26016 0.0
C107 C 0.4214 0.15695 0.22806 0.0
O108 O 0.43251 0.16782 0.26823 0.0
O109 O 0.4132 0.13239 0.2227 0.0
O110 O 0.34345 0.46578 0.43808 0.0
Cd111 Cd 0.3032 0.42323 0.4457 0.0
O112 O 0.36788 0.44756 0.42689 0.0
Cd113 Cd 0.3367 0.40813 0.44632 0.0
O114 O 0.32182 0.3756 0.49773 0.0
C115 C 0.32752 0.35755 0.49231 0.0
O116 O 0.34022 0.35757 0.45307 0.0
C117 C 0.36568 0.468 0.42889 0.0
C118 C 0.26839 0.4177 0.3719 0.0
O119 O 0.26681 0.42617 0.4139 0.0
O120 O 0.28615 0.41145 0.36509 0.0
O121 O 0.87513 0.34405 0.62417 0.0
Cd122 Cd 0.87393 0.30239 0.63758 0.0
O123 O 0.91528 0.36241 0.59481 0.0
Cd124 Cd 0.92197 0.33074 0.61832 0.0
O125 O 0.94122 0.31783 0.6703 0.0
C126 C 0.92937 0.30583 0.70877 0.0
O127 O 0.90461 0.29917 0.71453 0.0
C128 C 0.89472 0.36358 0.60443 0.0
C129 C 0.84452 0.26663 0.56514 0.0
O130 O 0.86899 0.28313 0.55898 0.0
O131 O 0.83403 0.26683 0.6058 0.0
H132 H 0.20786 0.42689 0.092 0.0
H133 H 0.22361 0.42099 0.37781 0.0
H134 H 0.14498 0.41012 0.19235 0.0
H135 H 0.27323 0.41074 0.27512 0.0
H136 H 0.19593 0.42009 0.31066 0.0
H137 H 0.23368 0.42417 0.159 0.0
C138 C 0.19946 0.42258 0.1281 0.0
C139 C 0.17425 0.41876 0.13663 0.0
C140 C 0.21279 0.41788 0.3029 0.0
C141 C 0.20376 0.41584 0.21345 0.0
C142 C 0.22863 0.41846 0.34116 0.0
C143 C 0.25078 0.41597 0.33202 0.0
C144 C 0.21936 0.41518 0.2551 0.0
C145 C 0.25631 0.41268 0.28383 0.0
C146 C 0.21417 0.42094 0.16628 0.0
C147 C 0.16432 0.41314 0.18413 0.0
N148 N 0.24084 0.4126 0.24713 0.0
N149 N 0.17918 0.41205 0.22085 0.0
H150 H 0.79516 0.2237 0.57164 0.0
H151 H 0.77784 0.19871 0.28663 0.0
H152 H 0.8577 0.268 0.46953 0.0
H153 H 0.72797 0.14051 0.39161 0.0
H154 H 0.80592 0.22615 0.3528 0.0
H155 H 0.76867 0.19462 0.50573 0.0
C156 C 0.80334 0.22727 0.53538 0.0
C157 C 0.82866 0.24831 0.52603 0.0
C158 C 0.78891 0.2073 0.36129 0.0
C159 C 0.79838 0.21528 0.45046 0.0
C160 C 0.77283 0.19167 0.32358 0.0
C161 C 0.75052 0.1673 0.33365 0.0
C162 C 0.78241 0.19867 0.40945 0.0
C163 C 0.74501 0.15914 0.3822 0.0
C164 C 0.78824 0.21063 0.49783 0.0
C165 C 0.8383 0.25197 0.47837 0.0
N166 N 0.76074 0.17488 0.41833 0.0
N167 N 0.82306 0.23574 0.44228 0.0
H168 H 0.61141 0.84835 0.6699 0.0
H169 H 0.52596 0.74703 0.46561 0.0
H170 H 0.52981 0.79057 0.69246 0.0
H171 H 0.60655 0.76702 0.48797 0.0
H172 H 0.5279 0.77035 0.54052 0.0
H173 H 0.61094 0.82553 0.59474 0.0
C174 C 0.59345 0.83088 0.65903 0.0
C175 C 0.57063 0.82123 0.68738 0.0
C176 C 0.54514 0.76965 0.52886 0.0
C177 C 0.56986 0.79564 0.60155 0.0
C178 C 0.54412 0.75652 0.48608 0.0
C179 C 0.56612 0.75508 0.47073 0.0
C180 C 0.5685 0.78193 0.55583 0.0
C181 C 0.58913 0.76759 0.49877 0.0
C182 C 0.59324 0.8179 0.6164 0.0
C183 C 0.54786 0.79854 0.6718 0.0
N184 N 0.58981 0.78071 0.53991 0.0
N185 N 0.54797 0.78666 0.62961 0.0
H186 H 0.79684 0.57763 0.61225 0.0
H187 H 0.77047 0.57836 0.89576 0.0
H188 H 0.85476 0.58987 0.72094 0.0
H189 H 0.72561 0.59167 0.78692 0.0
H190 H 0.79993 0.57916 0.8322 0.0
H191 H 0.76867 0.57933 0.67582 0.0
C192 C 0.80365 0.58071 0.64947 0.0
C193 C 0.82818 0.5836 0.66133 0.0
C194 C 0.78371 0.58203 0.8223 0.0
C195 C 0.79597 0.58536 0.73421 0.0
C196 C 0.76684 0.5815 0.85851 0.0
C197 C 0.74554 0.58494 0.8466 0.0
C198 C 0.77902 0.58565 0.77374 0.0
C199 C 0.74182 0.58899 0.79774 0.0
C200 C 0.7876 0.58176 0.68569 0.0
C201 C 0.83603 0.58761 0.71015 0.0
N202 N 0.75829 0.58906 0.76305 0.0
N203 N 0.81989 0.5882 0.74485 0.0
H204 H 0.1475 0.73775 0.94066 0.0
H205 H 0.2794 0.87342 0.88835 0.0
H206 H 0.20541 0.7813 0.05077 0.0
H207 H 0.23442 0.81794 0.77572 0.0
H208 H 0.24922 0.84272 0.94887 0.0
H209 H 0.17605 0.76985 0.88015 0.0
C210 C 0.16617 0.75411 0.95216 0.0
C211 C 0.17414 0.75681 0.00082 0.0
C212 C 0.24594 0.83731 0.91089 0.0
C213 C 0.20678 0.79363 0.93185 0.0
C214 C 0.26309 0.85485 0.87631 0.0
C215 C 0.25947 0.84819 0.82691 0.0
C216 C 0.22485 0.81304 0.89596 0.0
C217 C 0.23802 0.82383 0.81343 0.0
C218 C 0.18247 0.77236 0.91758 0.0
C219 C 0.19855 0.77839 0.01362 0.0
N220 N 0.22149 0.80714 0.84777 0.0
N221 N 0.21398 0.796 0.97937 0.0
H222 H 0.42185 0.22276 0.94804 0.0
H223 H 0.42723 0.2061 0.23341 0.0
H224 H 0.40945 0.27096 0.05073 0.0
H225 H 0.4098 0.14322 0.13267 0.0
H226 H 0.42448 0.23208 0.16667 0.0
H227 H 0.4212 0.19512 0.01504 0.0
C228 C 0.41893 0.22749 0.98466 0.0
C229 C 0.41572 0.2492 0.99386 0.0
C230 C 0.42111 0.21253 0.15928 0.0
C231 C 0.41522 0.21784 0.07058 0.0
C232 C 0.42276 0.19773 0.19729 0.0
C233 C 0.41876 0.17247 0.18854 0.0
C234 C 0.41586 0.20217 0.11208 0.0
C235 C 0.41296 0.16258 0.14104 0.0
C236 C 0.41848 0.21166 0.02282 0.0
C237 C 0.41194 0.25437 0.042 0.0
N238 N 0.4119 0.17754 0.10449 0.0
N239 N 0.41201 0.23893 0.07863 0.0
H240 H 0.06884 0.47549 0.08173 0.0
H241 H 0.15105 0.63247 0.07935 0.0
H242 H 0.15097 0.51898 0.04256 0.0
H243 H 0.06626 0.58694 0.07874 0.0
H244 H 0.15249 0.59159 0.07285 0.0
H245 H 0.06875 0.51675 0.08931 0.0
C246 C 0.08693 0.49372 0.075 0.0
C247 C 0.10994 0.49373 0.06133 0.0
C248 C 0.13361 0.59063 0.07397 0.0
C249 C 0.10992 0.54117 0.06985 0.0
C250 C 0.13276 0.61393 0.07768 0.0
C251 C 0.10849 0.61315 0.07956 0.0
C252 C 0.11003 0.56642 0.07272 0.0
C253 C 0.08542 0.58855 0.07728 0.0
C254 C 0.08681 0.5173 0.0791 0.0
C255 C 0.13276 0.51804 0.05303 0.0
N256 N 0.08678 0.56621 0.07423 0.0
N257 N 0.13218 0.54081 0.05744 0.0
H258 H 0.47505 0.07009 0.2175 0.0
H259 H 0.63152 0.14614 0.24606 0.0
H260 H 0.51877 0.14711 0.28232 0.0
H261 H 0.58429 0.06313 0.21594 0.0
H262 H 0.59123 0.14872 0.25171 0.0
H263 H 0.51589 0.06931 0.20775 0.0
C264 C 0.49326 0.08694 0.22939 0.0
C265 C 0.49343 0.10866 0.25097 0.0
C266 C 0.58975 0.12997 0.24392 0.0
C267 C 0.54036 0.10783 0.24001 0.0
C268 C 0.61272 0.12848 0.24065 0.0
C269 C 0.6113 0.10437 0.23064 0.0
C270 C 0.56524 0.10725 0.23663 0.0
C271 C 0.58638 0.08212 0.22394 0.0
C272 C 0.51658 0.08642 0.224 0.0
C273 C 0.51769 0.12991 0.26568 0.0
N274 N 0.5644 0.08412 0.22692 0.0
N275 N 0.54019 0.12895 0.25998 0.0
H276 H 0.47324 0.63349 0.37574 0.0
H277 H 0.417 0.48024 0.42117 0.0
H278 H 0.5222 0.59998 0.40854 0.0
H279 H 0.36796 0.51567 0.42096 0.0
H280 H 0.45562 0.52373 0.41144 0.0
H281 H 0.43429 0.59031 0.38798 0.0
C282 C 0.47582 0.61709 0.38569 0.0
C283 C 0.50106 0.62037 0.39104 0.0
C284 C 0.43642 0.52201 0.41359 0.0
C285 C 0.45654 0.57086 0.40469 0.0
C286 C 0.41432 0.49715 0.41894 0.0
C287 C 0.38915 0.49427 0.42188 0.0
C288 C 0.43341 0.54421 0.41075 0.0
C289 C 0.38696 0.51695 0.41892 0.0
C290 C 0.45356 0.59245 0.3927 0.0
C291 C 0.50316 0.59841 0.40408 0.0
N292 N 0.4088 0.54096 0.41338 0.0
N293 N 0.48121 0.57458 0.41016 0.0
H294 H 0.93439 0.40989 0.56845 0.0
H295 H 0.8535 0.48613 0.58234 0.0
H296 H 0.85413 0.37343 0.61884 0.0
H297 H 0.93678 0.52359 0.55353 0.0
H298 H 0.85223 0.44403 0.59123 0.0
H299 H 0.93432 0.45096 0.55709 0.0
C300 C 0.91667 0.41045 0.57692 0.0
C301 C 0.89425 0.38814 0.5948 0.0
C302 C 0.87076 0.4615 0.58303 0.0
C303 C 0.8941 0.43532 0.58201 0.0
C304 C 0.87151 0.48554 0.57796 0.0
C305 C 0.89529 0.50847 0.56723 0.0
C306 C 0.89392 0.46037 0.57703 0.0
C307 C 0.918 0.50649 0.56192 0.0
C308 C 0.91669 0.43398 0.57057 0.0
C309 C 0.87189 0.39014 0.60509 0.0
N310 N 0.91673 0.48289 0.56677 0.0
N311 N 0.87239 0.41333 0.59861 0.0
H312 H 0.42963 0.95391 0.73978 0.0
H313 H 0.4818 0.85388 0.78965 0.0
H314 H 0.37845 0.86983 0.74796 0.0
H315 H 0.53248 0.93535 0.75132 0.0
H316 H 0.44366 0.85956 0.77871 0.0
H317 H 0.46752 0.94777 0.74898 0.0
C318 C 0.42633 0.93414 0.74366 0.0
C319 C 0.40078 0.91234 0.74309 0.0
C320 C 0.46313 0.87616 0.77251 0.0
C321 C 0.44417 0.90519 0.75361 0.0
C322 C 0.48493 0.87294 0.77877 0.0
C323 C 0.51042 0.89418 0.77144 0.0
C324 C 0.46681 0.90084 0.75924 0.0
C325 C 0.51323 0.91841 0.7573 0.0
C326 C 0.44801 0.93065 0.74871 0.0
C327 C 0.39777 0.8872 0.74813 0.0
N328 N 0.49171 0.92111 0.75191 0.0
N329 N 0.4192 0.88432 0.75329 0.0
H330 H 0.51216 0.37154 0.90118 0.0
H331 H 0.57925 0.52792 0.91428 0.0
H332 H 0.46888 0.41274 0.91529 0.0
H333 H 0.62289 0.48754 0.93571 0.0
H334 H 0.53896 0.48561 0.9075 0.0
H335 H 0.55328 0.41359 0.90802 0.0
C336 C 0.51128 0.38938 0.90589 0.0
C337 C 0.48701 0.38859 0.90765 0.0
C338 C 0.55734 0.48596 0.91368 0.0
C339 C 0.53392 0.4367 0.91499 0.0
C340 C 0.58041 0.51015 0.91734 0.0
C341 C 0.60454 0.51132 0.92569 0.0
C342 C 0.55829 0.46266 0.91803 0.0
C343 C 0.60473 0.48758 0.9294 0.0
C344 C 0.53475 0.41335 0.9098 0.0
C345 C 0.48708 0.41234 0.91382 0.0
N346 N 0.58195 0.46419 0.92549 0.0
N347 N 0.51014 0.43539 0.91701 0.0
H348 H 0.05659 0.35575 0.90715 0.0
H349 H 0.91153 0.28621 0.79975 0.0
H350 H 0.9864 0.3245 0.99477 0.0
H351 H 0.98189 0.32177 0.71219 0.0
H352 H 0.93828 0.29132 0.87113 0.0
H353 H 0.02936 0.33474 0.83597 0.0
C354 C 0.03548 0.3441 0.91163 0.0
C355 C 0.02374 0.34235 0.95687 0.0
C356 C 0.94784 0.29765 0.83618 0.0
C357 C 0.99242 0.31845 0.87536 0.0
C358 C 0.93256 0.29468 0.79533 0.0
C359 C 0.94454 0.30407 0.75004 0.0
C360 C 0.97531 0.3102 0.83176 0.0
C361 C 0.97184 0.31462 0.7465 0.0
C362 C 0.01992 0.33214 0.87089 0.0
C363 C 0.9963 0.32673 0.96051 0.0
N364 N 0.98633 0.31776 0.78694 0.0
N365 N 0.98155 0.31573 0.92015 0.0
H366 H 0.66292 0.96676 0.88759 0.0
H367 H 0.65491 0.97497 0.17443 0.0
H368 H 0.61717 0.89984 0.98023 0.0
H369 H 0.69473 0.04245 0.08038 0.0
H370 H 0.65005 0.9465 0.106 0.0
H371 H 0.68361 0.99352 0.95941 0.0
C372 C 0.65755 0.95754 0.92297 0.0
C373 C 0.63782 0.93113 0.92793 0.0
C374 C 0.66023 0.96757 0.1005 0.0
C375 C 0.66129 0.96176 0.01035 0.0
C376 C 0.66308 0.98387 0.13963 0.0
C377 C 0.67472 0.01112 0.1329 0.0
C378 C 0.669 0.97858 0.05429 0.0
C379 C 0.6852 0.02151 0.08708 0.0
C380 C 0.66935 0.97287 0.96402 0.0
C381 C 0.63196 0.92022 0.97469 0.0
N382 N 0.68172 0.0052 0.04935 0.0
N383 N 0.64331 0.93568 0.01413 0.0
H384 H 0.63433 0.70928 0.2264 0.0
H385 H 0.70654 0.63577 0.12231 0.0
H386 H 0.66932 0.67462 0.31575 0.0
H387 H 0.66862 0.66752 0.03324 0.0
H388 H 0.70147 0.65818 0.19252 0.0
H389 H 0.65504 0.70261 0.15524 0.0
C390 C 0.64673 0.70068 0.23123 0.0
C391 C 0.64963 0.69199 0.27702 0.0
C392 C 0.69462 0.66058 0.15748 0.0
C393 C 0.67321 0.68406 0.19554 0.0
C394 C 0.69755 0.64782 0.11729 0.0
C395 C 0.68749 0.64931 0.07197 0.0
C396 C 0.68141 0.67483 0.15237 0.0
C397 C 0.6763 0.66546 0.06762 0.0
C398 C 0.65853 0.69683 0.1905 0.0
C399 C 0.66619 0.68125 0.28107 0.0
N400 N 0.67319 0.67725 0.10745 0.0
N401 N 0.67701 0.67721 0.24076 0.0
H402 H 0.01985 0.68129 0.19547 0.0
H403 H 0.01949 0.6799 0.48387 0.0
H404 H 0.08982 0.71162 0.28348 0.0
H405 H 0.94941 0.645 0.3956 0.0
H406 H 0.04567 0.70066 0.41146 0.0
H407 H 0.99436 0.6771 0.26823 0.0
C408 C 0.02996 0.68751 0.22996 0.0
C409 C 0.05694 0.69629 0.2335 0.0
C410 C 0.02452 0.68879 0.40803 0.0
C411 C 0.02779 0.69129 0.31705 0.0
C412 C 0.00953 0.67697 0.44943 0.0
C413 C 0.98225 0.6602 0.44567 0.0
C414 C 0.01217 0.68373 0.36252 0.0
C415 C 0.97043 0.6574 0.40013 0.0
C416 C 0.01536 0.68506 0.27155 0.0
C417 C 0.069 0.70436 0.2791 0.0
N418 N 0.9855 0.66869 0.36023 0.0
N419 N 0.05427 0.70126 0.31919 0.0
H420 H 0.29627 0.927 0.54327 0.0
H421 H 0.36066 0.06507 0.40857 0.0
H422 H 0.33553 0.002 0.61638 0.0
H423 H 0.32646 0.99029 0.3349 0.0
H424 H 0.34245 0.04205 0.48492 0.0
H425 H 0.298 0.94949 0.46771 0.0
C426 C 0.30484 0.94816 0.54368 0.0
C427 C 0.3163 0.96268 0.58604 0.0
C428 C 0.33857 0.03068 0.45194 0.0
C429 C 0.31853 0.98857 0.49951 0.0
C430 C 0.34893 0.04382 0.40825 0.0
C431 C 0.34557 0.02957 0.36539 0.0
C432 C 0.32488 0.00307 0.45285 0.0
C433 C 0.32991 0.00209 0.36716 0.0
C434 C 0.30587 0.961 0.50044 0.0
C435 C 0.32685 0.99003 0.58444 0.0
N436 N 0.32051 0.98972 0.41031 0.0
N437 N 0.32808 0.00211 0.54172 0.0
H438 H 0.34348 0.32107 0.49798 0.0
H439 H 0.33338 0.31656 0.78578 0.0
H440 H 0.30546 0.35484 0.58129 0.0
H441 H 0.37646 0.28802 0.70328 0.0
H442 H 0.31415 0.32116 0.71055 0.0
H443 H 0.3467 0.29957 0.57135 0.0
C444 C 0.33537 0.3236 0.53149 0.0
C445 C 0.32471 0.34027 0.53368 0.0
C446 C 0.32749 0.3135 0.70895 0.0
C447 C 0.32854 0.31588 0.61791 0.0
C448 C 0.33845 0.31081 0.75196 0.0
C449 C 0.35703 0.30245 0.75075 0.0
C450 C 0.33526 0.30792 0.6644 0.0
C451 C 0.36256 0.29496 0.7059 0.0
C452 C 0.33727 0.31135 0.57343 0.0
C453 C 0.31425 0.34254 0.57803 0.0
N454 N 0.35207 0.29829 0.66443 0.0
N455 N 0.31681 0.33084 0.61853 0.0
loop_
_geom_bond_atom_site_label_1
_geom_bond_atom_site_label_2
_geom_bond_distance
_geom_bond_site_symmetry_2
_ccdc_geom_bond_type
O0 Cd1 2.300 . S
O0 C7 1.275 . S
Cd1 O0 2.300 . S
Cd1 O9 2.381 . S
Cd1 O10 2.378 . S
O2 Cd3 2.385 . S
O2 C7 1.255 . S
Cd3 O2 2.385 . S
Cd3 O4 2.317 . S
O4 Cd3 2.317 . S
O4 C5 1.216 1_554 S
C5 O4 1.216 1_556 S
C5 O6 1.217 1_556 S
O6 C5 1.217 1_554 S
C7 O0 1.275 . S
C7 O2 1.255 . S
C8 O9 1.258 . S
C8 O10 1.256 . S
O9 Cd1 2.381 . S
O9 C8 1.258 . S
O10 Cd1 2.378 . S
O10 C8 1.256 . S
O11 Cd12 2.300 . S
O11 C18 1.275 . S
Cd12 O11 2.300 . S
Cd12 O20 2.381 . S
Cd12 O21 2.378 . S
O13 Cd14 2.385 . S
O13 C18 1.255 . S
Cd14 O13 2.385 . S
Cd14 O15 2.317 . S
O15 Cd14 2.317 . S
O15 C16 1.232 . S
C16 O15 1.232 . S
C16 O17 1.218 . S
O17 C16 1.218 . S
C18 O11 1.275 . S
C18 O13 1.255 . S
C19 O20 1.258 . S
C19 O21 1.256 . S
O20 Cd12 2.381 . S
O20 C19 1.258 . S
O21 Cd12 2.378 . S
O21 C19 1.256 . S
O22 Cd23 2.300 . S
O22 C29 1.275 . S
Cd23 O22 2.300 . S
Cd23 O31 2.381 . S
Cd23 O32 2.378 . S
O24 Cd25 2.385 . S
O24 C29 1.255 . S
Cd25 O24 2.385 . S
Cd25 O26 2.317 . S
O26 Cd25 2.317 . S
O26 C27 1.232 . S
C27 O26 1.232 . S
C27 O28 1.218 . S
O28 C27 1.218 . S
C29 O22 1.275 . S
C29 O24 1.255 . S
C30 O31 1.258 . S
C30 O32 1.256 . S
O31 Cd23 2.381 . S
O31 C30 1.258 . S
O32 Cd23 2.378 . S
O32 C30 1.256 . S
O33 Cd34 2.300 . S
O33 C40 1.275 . S
Cd34 O33 2.300 . S
Cd34 O42 2.381 . S
Cd34 O43 2.378 . S
O35 Cd36 2.385 . S
O35 C40 1.255 . S
Cd36 O35 2.385 . S
Cd36 O37 2.317 . S
O37 Cd36 2.317 . S
O37 C38 1.232 . S
C38 O37 1.232 . S
C38 O39 1.218 . S
O39 C38 1.218 . S
C40 O33 1.275 . S
C40 O35 1.255 . S
C41 O42 1.258 . S
C41 O43 1.256 . S
O42 Cd34 2.381 . S
O42 C41 1.258 . S
O43 Cd34 2.378 . S
O43 C41 1.256 . S
O44 Cd45 2.300 . S
O44 C51 1.275 . S
Cd45 O44 2.300 . S
Cd45 O53 2.381 . S
Cd45 O54 2.378 . S
O46 Cd47 2.385 . S
O46 C51 1.255 . S
Cd47 O46 2.385 . S
Cd47 O48 2.317 . S
O48 Cd47 2.317 . S
O48 C49 1.232 . S
C49 O48 1.232 . S
C49 O50 1.218 . S
O50 C49 1.218 . S
C51 O44 1.275 . S
C51 O46 1.255 . S
C52 O53 1.258 . S
C52 O54 1.256 . S
O53 Cd45 2.381 . S
O53 C52 1.258 . S
O54 Cd45 2.378 . S
O54 C52 1.256 . S
O55 Cd56 2.300 . S
O55 C62 1.275 . S
Cd56 O55 2.300 . S
Cd56 O64 2.381 . S
Cd56 O65 2.378 1_556 S
O57 Cd58 2.385 . S
O57 C62 1.255 . S
Cd58 O57 2.385 . S
Cd58 O59 2.317 . S
O59 Cd58 2.317 . S
O59 C60 1.232 . S
C60 O59 1.232 . S
C60 O61 1.218 . S
O61 C60 1.218 . S
C62 O55 1.275 . S
C62 O57 1.255 . S
C63 O64 1.258 1_554 S
C63 O65 1.256 . S
O64 Cd56 2.381 . S
O64 C63 1.258 1_556 S
O65 Cd56 2.378 1_554 S
O65 C63 1.256 . S
O66 Cd67 2.300 . S
O66 C73 1.275 . S
Cd67 O66 2.300 . S
Cd67 O75 2.381 . S
Cd67 O76 2.378 . S
O68 Cd69 2.385 . S
O68 C73 1.255 . S
Cd69 O68 2.385 . S
Cd69 O70 2.317 . S
O70 Cd69 2.317 . S
O70 C71 1.232 . S
C71 O70 1.232 . S
C71 O72 1.218 . S
O72 C71 1.218 . S
C73 O66 1.275 . S
C73 O68 1.255 . S
C74 O75 1.258 . S
C74 O76 1.256 . S
O75 Cd67 2.381 . S
O75 C74 1.258 . S
O76 Cd67 2.378 . S
O76 C74 1.256 . S
O77 Cd78 2.300 . S
O77 C84 1.275 . S
Cd78 O77 2.300 . S
Cd78 O86 2.381 . S
Cd78 O87 2.378 . S
O79 Cd80 2.385 . S
O79 C84 1.255 . S
Cd80 O79 2.385 . S
Cd80 O81 2.317 . S
O81 Cd80 2.317 . S
O81 C82 1.227 1_556 S
C82 O81 1.227 1_554 S
C82 O83 1.218 1_554 S
O83 C82 1.218 1_556 S
C84 O77 1.275 . S
C84 O79 1.255 . S
C85 O86 1.258 . S
C85 O87 1.256 . S
O86 Cd78 2.381 . S
O86 C85 1.258 . S
O87 Cd78 2.378 . S
O87 C85 1.256 . S
O88 Cd89 2.300 . S
O88 C95 1.275 . S
Cd89 O88 2.300 . S
Cd89 O97 2.381 . S
Cd89 O98 2.378 1_554 S
O90 Cd91 2.385 . S
O90 C95 1.255 . S
Cd91 O90 2.385 . S
Cd91 O92 2.317 . S
O92 Cd91 2.317 . S
O92 C93 1.232 . S
C93 O92 1.232 . S
C93 O94 1.218 . S
O94 C93 1.218 . S
C95 O88 1.275 . S
C95 O90 1.255 . S
C96 O97 1.258 1_556 S
C96 O98 1.256 . S
O97 Cd89 2.381 . S
O97 C96 1.258 1_554 S
O98 Cd89 2.378 1_556 S
O98 C96 1.256 . S
O99 Cd100 2.300 . S
O99 C106 1.275 . S
Cd100 O99 2.300 . S
Cd100 O108 2.381 . S
Cd100 O109 2.378 . S
O101 Cd102 2.385 . S
O101 C106 1.255 . S
Cd102 O101 2.385 . S
Cd102 O103 2.317 . S
O103 Cd102 2.317 . S
O103 C104 1.232 . S
C104 O103 1.232 . S
C104 O105 1.218 . S
O105 C104 1.218 . S
C106 O99 1.275 . S
C106 O101 1.255 . S
C107 O108 1.258 . S
C107 O109 1.256 . S
O108 Cd100 2.381 . S
O108 C107 1.258 . S
O109 Cd100 2.378 . S
O109 C107 1.256 . S
O110 Cd111 2.300 . S
O110 C117 1.275 . S
Cd111 O110 2.300 . S
Cd111 O119 2.381 . S
Cd111 O120 2.378 . S
O112 Cd113 2.385 . S
O112 C117 1.255 . S
Cd113 O112 2.385 . S
Cd113 O114 2.317 . S
O114 Cd113 2.317 . S
O114 C115 1.232 . S
C115 O114 1.232 . S
C115 O116 1.218 . S
O116 C115 1.218 . S
C117 O110 1.275 . S
C117 O112 1.255 . S
C118 O119 1.258 . S
C118 O120 1.256 . S
O119 Cd111 2.381 . S
O119 C118 1.258 . S
O120 Cd111 2.378 . S
O120 C118 1.256 . S
O121 Cd122 2.300 . S
O121 C128 1.275 . S
Cd122 O121 2.300 . S
Cd122 O130 2.381 . S
Cd122 O131 2.378 . S
O123 Cd124 2.385 . S
O123 C128 1.255 . S
Cd124 O123 2.385 . S
Cd124 O125 2.317 . S
O125 Cd124 2.317 . S
O125 C126 1.232 . S
C126 O125 1.232 . S
C126 O127 1.218 . S
O127 C126 1.218 . S
C128 O121 1.275 . S
C128 O123 1.255 . S
C129 O130 1.258 . S
C129 O131 1.256 . S
O130 Cd122 2.381 . S
O130 C129 1.258 . S
O131 Cd122 2.378 . S
O131 C129 1.256 . S
H132 C138 0.930 . S
H133 C142 0.930 . S
H134 C147 0.929 . S
H135 C145 0.929 . S
H136 C140 0.929 . S
H137 C146 0.929 . S
C138 H132 0.930 . S
C138 C139 1.367 . S
C138 C146 1.378 . S
C139 C138 1.367 . S
C139 C147 1.433 . S
C140 H136 0.929 . S
C140 C142 1.378 . S
C140 C144 1.350 . S
C141 C144 1.463 . S
C141 C146 1.350 . S
C141 N149 1.427 . S
C142 H133 0.930 . S
C142 C140 1.378 . S
C142 C143 1.367 . S
C143 C142 1.367 . S
C143 C145 1.433 . S
C144 C140 1.350 . S
C144 C141 1.463 . S
C144 N148 1.427 . S
C145 H135 0.929 . S
C145 C143 1.433 . S
C145 N148 1.384 . S
C146 H137 0.929 . S
C146 C138 1.378 . S
C146 C141 1.350 . S
C147 H134 0.929 . S
C147 C139 1.433 . S
C147 N149 1.384 . S
N148 C144 1.427 . S
N148 C145 1.384 . S
N149 C141 1.427 . S
N149 C147 1.384 . S
H150 C156 0.930 . S
H151 C160 0.930 . S
H152 C165 0.929 . S
H153 C163 0.929 . S
H154 C158 0.929 . S
H155 C164 0.929 . S
C156 H150 0.930 . S
C156 C157 1.367 . S
C156 C164 1.378 . S
C157 C156 1.367 . S
C157 C165 1.433 . S
C158 H154 0.929 . S
C158 C160 1.378 . S
C158 C162 1.350 . S
C159 C162 1.463 . S
C159 C164 1.350 . S
C159 N167 1.427 . S
C160 H151 0.930 . S
C160 C158 1.378 . S
C160 C161 1.367 . S
C161 C160 1.367 . S
C161 C163 1.433 . S
C162 C158 1.350 . S
C162 C159 1.463 . S
C162 N166 1.427 . S
C163 H153 0.929 . S
C163 C161 1.433 . S
C163 N166 1.384 . S
C164 H155 0.929 . S
C164 C156 1.378 . S
C164 C159 1.350 . S
C165 H152 0.929 . S
C165 C157 1.433 . S
C165 N167 1.384 . S
N166 C162 1.427 . S
N166 C163 1.384 . S
N167 C159 1.427 . S
N167 C165 1.384 . S
H168 C174 0.930 . S
H169 C178 0.930 . S
H170 C183 0.929 . S
H171 C181 0.929 . S
H172 C176 0.929 . S
H173 C182 0.929 . S
C174 H168 0.930 . S
C174 C175 1.367 . S
C174 C182 1.378 . S
C175 C174 1.367 . S
C175 C183 1.433 . S
C176 H172 0.929 . S
C176 C178 1.378 . S
C176 C180 1.350 . S
C177 C180 1.463 . S
C177 C182 1.350 . S
C177 N185 1.427 . S
C178 H169 0.930 . S
C178 C176 1.378 . S
C178 C179 1.367 . S
C179 C178 1.367 . S
C179 C181 1.433 . S
C180 C176 1.350 . S
C180 C177 1.463 . S
C180 N184 1.427 . S
C181 H171 0.929 . S
C181 C179 1.433 . S
C181 N184 1.384 . S
C182 H173 0.929 . S
C182 C174 1.378 . S
C182 C177 1.350 . S
C183 H170 0.929 . S
C183 C175 1.433 . S
C183 N185 1.384 . S
N184 C180 1.427 . S
N184 C181 1.384 . S
N185 C177 1.427 . S
N185 C183 1.384 . S
H186 C192 0.930 . S
H187 C196 0.930 . S
H188 C201 0.929 . S
H189 C199 0.929 . S
H190 C194 0.929 . S
H191 C200 0.929 . S
C192 H186 0.930 . S
C192 C193 1.367 . S
C192 C200 1.378 . S
C193 C192 1.367 . S
C193 C201 1.433 . S
C194 H190 0.929 . S
C194 C196 1.378 . S
C194 C198 1.350 . S
C195 C198 1.463 . S
C195 C200 1.350 . S
C195 N203 1.427 . S
C196 H187 0.930 . S
C196 C194 1.378 . S
C196 C197 1.367 . S
C197 C196 1.367 . S
C197 C199 1.433 . S
C198 C194 1.350 . S
C198 C195 1.463 . S
C198 N202 1.427 . S
C199 H189 0.929 . S
C199 C197 1.433 . S
C199 N202 1.384 . S
C200 H191 0.929 . S
C200 C192 1.378 . S
C200 C195 1.350 . S
C201 H188 0.929 . S
C201 C193 1.433 . S
C201 N203 1.384 . S
N202 C198 1.427 . S
N202 C199 1.384 . S
N203 C195 1.427 . S
N203 C201 1.384 . S
H204 C210 0.930 . S
H205 C214 0.930 . S
H206 C219 0.929 1_554 S
H207 C217 0.929 . S
H208 C212 0.929 . S
H209 C218 0.929 . S
C210 H204 0.930 . S
C210 C211 1.367 . S
C210 C218 1.378 . S
C211 C210 1.367 . S
C211 C219 1.433 . S
C212 H208 0.929 . S
C212 C214 1.378 . S
C212 C216 1.350 . S
C213 C216 1.463 . S
C213 C218 1.350 . S
C213 N221 1.427 . S
C214 H205 0.930 . S
C214 C212 1.378 . S
C214 C215 1.367 . S
C215 C214 1.367 . S
C215 C217 1.433 . S
C216 C212 1.350 . S
C216 C213 1.463 . S
C216 N220 1.427 . S
C217 H207 0.929 . S
C217 C215 1.433 . S
C217 N220 1.384 . S
C218 H209 0.929 . S
C218 C210 1.378 . S
C218 C213 1.350 . S
C219 H206 0.929 1_556 S
C219 C211 1.433 . S
C219 N221 1.384 . S
N220 C216 1.427 . S
N220 C217 1.384 . S
N221 C213 1.427 . S
N221 C219 1.384 . S
H222 C228 0.930 1_556 S
H223 C232 0.930 . S
H224 C237 0.929 . S
H225 C235 0.929 . S
H226 C230 0.929 . S
H227 C236 0.929 . S
C228 H222 0.930 1_554 S
C228 C229 1.367 . S
C228 C236 1.378 . S
C229 C228 1.367 . S
C229 C237 1.433 . S
C230 H226 0.929 . S
C230 C232 1.378 . S
C230 C234 1.350 . S
C231 C234 1.463 . S
C231 C236 1.350 . S
C231 N239 1.427 . S
C232 H223 0.930 . S
C232 C230 1.378 . S
C232 C233 1.367 . S
C233 C232 1.367 . S
C233 C235 1.433 . S
C234 C230 1.350 . S
C234 C231 1.463 . S
C234 N238 1.427 . S
C235 H225 0.929 . S
C235 C233 1.433 . S
C235 N238 1.384 . S
C236 H227 0.929 . S
C236 C228 1.378 . S
C236 C231 1.350 . S
C237 H224 0.929 . S
C237 C229 1.433 . S
C237 N239 1.384 . S
N238 C234 1.427 . S
N238 C235 1.384 . S
N239 C231 1.427 . S
N239 C237 1.384 . S
H240 C246 0.930 . S
H241 C250 0.930 . S
H242 C255 0.929 . S
H243 C253 0.929 . S
H244 C248 0.929 . S
H245 C254 0.929 . S
C246 H240 0.930 . S
C246 C247 1.367 . S
C246 C254 1.378 . S
C247 C246 1.367 . S
C247 C255 1.433 . S
C248 H244 0.929 . S
C248 C250 1.378 . S
C248 C252 1.350 . S
C249 C252 1.463 . S
C249 C254 1.350 . S
C249 N257 1.427 . S
C250 H241 0.930 . S
C250 C248 1.378 . S
C250 C251 1.367 . S
C251 C250 1.367 . S
C251 C253 1.433 . S
C252 C248 1.350 . S
C252 C249 1.463 . S
C252 N256 1.427 . S
C253 H243 0.929 . S
C253 C251 1.433 . S
C253 N256 1.384 . S
C254 H245 0.929 . S
C254 C246 1.378 . S
C254 C249 1.350 . S
C255 H242 0.929 . S
C255 C247 1.433 . S
C255 N257 1.384 . S
N256 C252 1.427 . S
N256 C253 1.384 . S
N257 C249 1.427 . S
N257 C255 1.384 . S
H258 C264 0.930 . S
H259 C268 0.930 . S
H260 C273 0.929 . S
H261 C271 0.929 . S
H262 C266 0.929 . S
H263 C272 0.929 . S
C264 H258 0.930 . S
C264 C265 1.367 . S
C264 C272 1.378 . S
C265 C264 1.367 . S
C265 C273 1.433 . S
C266 H262 0.929 . S
C266 C268 1.378 . S
C266 C270 1.350 . S
C267 C270 1.463 . S
C267 C272 1.350 . S
C267 N275 1.427 . S
C268 H259 0.930 . S
C268 C266 1.378 . S
C268 C269 1.367 . S
C269 C268 1.367 . S
C269 C271 1.433 . S
C270 C266 1.350 . S
C270 C267 1.463 . S
C270 N274 1.427 . S
C271 H261 0.929 . S
C271 C269 1.433 . S
C271 N274 1.384 . S
C272 H263 0.929 . S
C272 C264 1.378 . S
C272 C267 1.350 . S
C273 H260 0.929 . S
C273 C265 1.433 . S
C273 N275 1.384 . S
N274 C270 1.427 . S
N274 C271 1.384 . S
N275 C267 1.427 . S
N275 C273 1.384 . S
H276 C282 0.930 . S
H277 C286 0.930 . S
H278 C291 0.929 . S
H279 C289 0.929 . S
H280 C284 0.929 . S
H281 C290 0.929 . S
C282 H276 0.930 . S
C282 C283 1.367 . S
C282 C290 1.378 . S
C283 C282 1.367 . S
C283 C291 1.433 . S
C284 H280 0.929 . S
C284 C286 1.378 . S
C284 C288 1.350 . S
C285 C288 1.463 . S
C285 C290 1.350 . S
C285 N293 1.427 . S
C286 H277 0.930 . S
C286 C284 1.378 . S
C286 C287 1.367 . S
C287 C286 1.367 . S
C287 C289 1.433 . S
C288 C284 1.350 . S
C288 C285 1.463 . S
C288 N292 1.427 . S
C289 H279 0.929 . S
C289 C287 1.433 . S
C289 N292 1.384 . S
C290 H281 0.929 . S
C290 C282 1.378 . S
C290 C285 1.350 . S
C291 H278 0.929 . S
C291 C283 1.433 . S
C291 N293 1.384 . S
N292 C288 1.427 . S
N292 C289 1.384 . S
N293 C285 1.427 . S
N293 C291 1.384 . S
H294 C300 0.930 . S
H295 C304 0.930 . S
H296 C309 0.929 . S
H297 C307 0.929 . S
H298 C302 0.929 . S
H299 C308 0.929 . S
C300 H294 0.930 . S
C300 C301 1.367 . S
C300 C308 1.378 . S
C301 C300 1.367 . S
C301 C309 1.433 . S
C302 H298 0.929 . S
C302 C304 1.378 . S
C302 C306 1.350 . S
C303 C306 1.463 . S
C303 C308 1.350 . S
C303 N311 1.427 . S
C304 H295 0.930 . S
C304 C302 1.378 . S
C304 C305 1.367 . S
C305 C304 1.367 . S
C305 C307 1.433 . S
C306 C302 1.350 . S
C306 C303 1.463 . S
C306 N310 1.427 . S
C307 H297 0.929 . S
C307 C305 1.433 . S
C307 N310 1.384 . S
C308 H299 0.929 . S
C308 C300 1.378 . S
C308 C303 1.350 . S
C309 H296 0.929 . S
C309 C301 1.433 . S
C309 N311 1.384 . S
N310 C306 1.427 . S
N310 C307 1.384 . S
N311 C303 1.427 . S
N311 C309 1.384 . S
H312 C318 0.930 . S
H313 C322 0.930 . S
H314 C327 0.929 . S
H315 C325 0.929 . S
H316 C320 0.929 . S
H317 C326 0.929 . S
C318 H312 0.930 . S
C318 C319 1.367 . S
C318 C326 1.378 . S
C319 C318 1.367 . S
C319 C327 1.433 . S
C320 H316 0.929 . S
C320 C322 1.378 . S
C320 C324 1.350 . S
C321 C324 1.463 . S
C321 C326 1.350 . S
C321 N329 1.427 . S
C322 H313 0.930 . S
C322 C320 1.378 . S
C322 C323 1.367 . S
C323 C322 1.367 . S
C323 C325 1.433 . S
C324 C320 1.350 . S
C324 C321 1.463 . S
C324 N328 1.427 . S
C325 H315 0.929 . S
C325 C323 1.433 . S
C325 N328 1.384 . S
C326 H317 0.929 . S
C326 C318 1.378 . S
C326 C321 1.350 . S
C327 H314 0.929 . S
C327 C319 1.433 . S
C327 N329 1.384 . S
N328 C324 1.427 . S
N328 C325 1.384 . S
N329 C321 1.427 . S
N329 C327 1.384 . S
H330 C336 0.930 . S
H331 C340 0.930 . S
H332 C345 0.929 1_554 S
H333 C343 0.929 . S
H334 C338 0.929 . S
H335 C344 0.929 . S
C336 H330 0.930 . S
C336 C337 1.367 . S
C336 C344 1.378 . S
C337 C336 1.367 . S
C337 C345 1.433 . S
C338 H334 0.929 . S
C338 C340 1.378 . S
C338 C342 1.350 . S
C339 C342 1.463 . S
C339 C344 1.350 . S
C339 N347 1.427 . S
C340 H331 0.930 . S
C340 C338 1.378 . S
C340 C341 1.367 . S
C341 C340 1.367 . S
C341 C343 1.433 . S
C342 C338 1.350 . S
C342 C339 1.463 . S
C342 N346 1.427 . S
C343 H333 0.929 . S
C343 C341 1.433 . S
C343 N346 1.384 . S
C344 H335 0.929 . S
C344 C336 1.378 . S
C344 C339 1.350 . S
C345 H332 0.929 1_556 S
C345 C337 1.433 . S
C345 N347 1.384 . S
N346 C342 1.427 . S
N346 C343 1.384 . S
N347 C339 1.427 . S
N347 C345 1.384 . S
H348 C354 0.930 . S
H349 C358 0.930 . S
H350 C363 0.929 . S
H351 C361 0.929 . S
H352 C356 0.929 . S
H353 C362 0.929 . S
C354 H348 0.930 . S
C354 C355 1.367 . S
C354 C362 1.378 . S
C355 C354 1.367 . S
C355 C363 1.433 . S
C356 H352 0.929 . S
C356 C358 1.378 . S
C356 C360 1.350 . S
C357 C360 1.463 1_455 S
C357 C362 1.350 . S
C357 N365 1.427 . S
C358 H349 0.930 . S
C358 C356 1.378 . S
C358 C359 1.367 . S
C359 C358 1.367 . S
C359 C361 1.433 . S
C360 C356 1.350 . S
C360 C357 1.463 1_655 S
C360 N364 1.427 . S
C361 H351 0.929 . S
C361 C359 1.433 . S
C361 N364 1.384 . S
C362 H353 0.929 . S
C362 C354 1.378 . S
C362 C357 1.350 . S
C363 H350 0.929 . S
C363 C355 1.433 . S
C363 N365 1.384 . S
N364 C360 1.427 . S
N364 C361 1.384 . S
N365 C357 1.427 . S
N365 C363 1.384 . S
H366 C372 0.930 . S
H367 C376 0.930 . S
H368 C381 0.929 . S
H369 C379 0.929 . S
H370 C374 0.929 1_565 S
H371 C380 0.929 1_545 S
C372 H366 0.930 . S
C372 C373 1.367 . S
C372 C380 1.378 . S
C373 C372 1.367 . S
C373 C381 1.433 . S
C374 H370 0.929 1_545 S
C374 C376 1.378 . S
C374 C378 1.350 . S
C375 C378 1.463 1_566 S
C375 C380 1.350 . S
C375 N383 1.427 . S
C376 H367 0.930 . S
C376 C374 1.378 . S
C376 C377 1.367 . S
C377 C376 1.367 . S
C377 C379 1.433 . S
C378 C374 1.350 . S
C378 C375 1.463 1_544 S
C378 N382 1.427 . S
C379 H369 0.929 . S
C379 C377 1.433 . S
C379 N382 1.384 . S
C380 H371 0.929 1_565 S
C380 C372 1.378 . S
C380 C375 1.350 . S
C381 H368 0.929 . S
C381 C373 1.433 . S
C381 N383 1.384 . S
N382 C378 1.427 . S
N382 C379 1.384 . S
N383 C375 1.427 . S
N383 C381 1.384 . S
H384 C390 0.930 . S
H385 C394 0.930 . S
H386 C399 0.929 . S
H387 C397 0.929 . S
H388 C392 0.929 . S
H389 C398 0.929 . S
C390 H384 0.930 . S
C390 C391 1.367 . S
C390 C398 1.378 . S
C391 C390 1.367 . S
C391 C399 1.433 . S
C392 H388 0.929 . S
C392 C394 1.378 . S
C392 C396 1.350 . S
C393 C396 1.463 . S
C393 C398 1.350 . S
C393 N401 1.427 . S
C394 H385 0.930 . S
C394 C392 1.378 . S
C394 C395 1.367 . S
C395 C394 1.367 . S
C395 C397 1.433 . S
C396 C392 1.350 . S
C396 C393 1.463 . S
C396 N400 1.427 . S
C397 H387 0.929 . S
C397 C395 1.433 . S
C397 N400 1.384 . S
C398 H389 0.929 . S
C398 C390 1.378 . S
C398 C393 1.350 . S
C399 H386 0.929 . S
C399 C391 1.433 . S
C399 N401 1.384 . S
N400 C396 1.427 . S
N400 C397 1.384 . S
N401 C393 1.427 . S
N401 C399 1.384 . S
H402 C408 0.946 . S
H403 C412 0.939 . S
H404 C417 0.929 . S
H405 C415 0.929 . S
H406 C410 0.929 . S
H407 C416 0.929 . S
C408 H402 0.946 . S
C408 C409 1.367 . S
C408 C416 1.378 1_455 S
C409 C408 1.367 . S
C409 C417 1.433 . S
C410 H406 0.929 . S
C410 C412 1.378 1_455 S
C410 C414 1.350 1_455 S
C411 C414 1.463 1_455 S
C411 C416 1.350 1_455 S
C411 N419 1.427 . S
C412 H403 0.939 . S
C412 C410 1.378 1_655 S
C412 C413 1.367 . S
C413 C412 1.367 . S
C413 C415 1.433 . S
C414 C410 1.350 1_655 S
C414 C411 1.463 1_655 S
C414 N418 1.427 . S
C415 H405 0.929 . S
C415 C413 1.433 . S
C415 N418 1.384 . S
C416 H407 0.929 . S
C416 C408 1.378 1_655 S
C416 C411 1.350 1_655 S
C417 H404 0.929 . S
C417 C409 1.433 . S
C417 N419 1.384 . S
N418 C414 1.427 . S
N418 C415 1.384 . S
N419 C411 1.427 . S
N419 C417 1.384 . S
H420 C426 0.930 . S
H421 C430 0.930 . S
H422 C435 0.961 . S
H423 C433 0.929 . S
H424 C428 0.929 . S
H425 C434 0.929 . S
C426 H420 0.930 . S
C426 C427 1.367 . S
C426 C434 1.378 . S
C427 C426 1.367 . S
C427 C435 1.385 1_565 S
C428 H424 0.929 . S
C428 C430 1.378 . S
C428 C432 1.350 . S
C429 C432 1.463 1_565 S
C429 C434 1.350 . S
C429 N437 1.427 1_565 S
C430 H421 0.930 . S
C430 C428 1.378 . S
C430 C431 1.367 . S
C431 C430 1.367 . S
C431 C433 1.433 1_545 S
C432 C428 1.350 . S
C432 C429 1.463 1_545 S
C432 N436 1.427 1_545 S
C433 H423 0.929 . S
C433 C431 1.433 1_565 S
C433 N436 1.384 . S
C434 H425 0.929 . S
C434 C426 1.378 . S
C434 C429 1.350 . S
C435 H422 0.961 . S
C435 C427 1.385 1_545 S
C435 N437 1.400 . S
N436 C432 1.427 1_565 S
N436 C433 1.384 . S
N437 C429 1.427 1_545 S
N437 C435 1.400 . S
H438 C444 0.930 . S
H439 C448 0.930 . S
H440 C453 0.929 . S
H441 C451 0.929 . S
H442 C446 0.929 . S
H443 C452 0.929 . S
C444 H438 0.930 . S
C444 C445 1.367 . S
C444 C452 1.378 . S
C445 C444 1.367 . S
C445 C453 1.433 . S
C446 H442 0.929 . S
C446 C448 1.378 . S
C446 C450 1.350 . S
C447 C450 1.463 . S
C447 C452 1.350 . S
C447 N455 1.427 . S
C448 H439 0.930 . S
C448 C446 1.378 . S
C448 C449 1.367 . S
C449 C448 1.367 . S
C449 C451 1.433 . S
C450 C446 1.350 . S
C450 C447 1.463 . S
C450 N454 1.427 . S
C451 H441 0.929 . S
C451 C449 1.433 . S
C451 N454 1.384 . S
C452 H443 0.929 . S
C452 C444 1.378 . S
C452 C447 1.350 . S
C453 H440 0.929 . S
C453 C445 1.433 . S
C453 N455 1.384 . S
N454 C450 1.427 . S
N454 C451 1.384 . S
N455 C447 1.427 . S
N455 C453 1.384 . S
C139 C8 1.623 . S
C143 C118 1.623 . S
C157 C129 1.623 . S
C161 C19 1.621 . S
C175 C74 1.623 . S
C179 C30 1.621 . S
C193 C41 1.623 . S
C197 C85 1.622 . S
C211 C96 1.620 . S
C215 C52 1.622 . S
C229 C63 1.623 . S
C233 C107 1.622 . S
C247 C7 1.648 . S
C251 C95 1.647 . S
C265 C106 1.646 . S
C269 C18 1.643 . S
C283 C29 1.642 . S
C287 C117 1.643 . S
C301 C128 1.642 . S
C305 C40 1.642 . S
C319 C51 1.642 . S
C323 C73 1.642 . S
C337 C62 1.648 . S
C341 C84 1.648 . S
C355 C5 1.418 . S
C359 C126 1.393 . S
C373 C71 1.393 . S
C377 C16 1.387 . S
C391 C27 1.398 . S
C395 C82 1.397 . S
C409 C93 1.390 . S
C413 C38 1.385 . S
C427 C49 1.403 . S
C431 C104 1.405 . S
C445 C115 1.389 . S
C449 C60 1.395 . S
