# Generated by pormake.
# Topology tfs, (6)-cn, num edge types: 1
# Building blocks:
#     Node 0, Type 0, BuildingBlock: BETDEL_clean_sbu_0, # of connection points: 6
#     Node 1, Type 0, BuildingBlock: BETDEL_clean_sbu_0, # of connection points: 6
#     Node 2, Type 0, BuildingBlock: BETDEL_clean_sbu_0, # of connection points: 6
#     Node 3, Type 0, BuildingBlock: BETDEL_clean_sbu_0, # of connection points: 6
#     Node 4, Type 0, BuildingBlock: BETDEL_clean_sbu_0, # of connection points: 6
#     Node 5, Type 0, BuildingBlock: BETDEL_clean_sbu_0, # of connection points: 6
#     Edge 6, Type (0, 0), BuildingBlock: KIFKEQ_clean_linker_1, # of connection points: 2
#     Edge 7, Type (0, 0), BuildingBlock: KIFKEQ_clean_linker_1, # of connection points: 2
#     Edge 8, Type (0, 0), BuildingBlock: KIFKEQ_clean_linker_1, # of connection points: 2
#     Edge 9, Type (0, 0), BuildingBlock: KIFKEQ_clean_linker_1, # of connection points: 2
#     Edge 10, Type (0, 0), BuildingBlock: KIFKEQ_clean_linker_1, # of connection points: 2
#     Edge 11, Type (0, 0), BuildingBlock: KIFKEQ_clean_linker_1, # of connection points: 2
#     Edge 12, Type (0, 0), BuildingBlock: KIFKEQ_clean_linker_1, # of connection points: 2
#     Edge 13, Type (0, 0), BuildingBlock: KIFKEQ_clean_linker_1, # of connection points: 2
#     Edge 14, Type (0, 0), BuildingBlock: KIFKEQ_clean_linker_1, # of connection points: 2
#     Edge 15, Type (0, 0), BuildingBlock: KIFKEQ_clean_linker_1, # of connection points: 2
#     Edge 16, Type (0, 0), BuildingBlock: KIFKEQ_clean_linker_1, # of connection points: 2
#     Edge 17, Type (0, 0), BuildingBlock: KIFKEQ_clean_linker_1, # of connection points: 2
#     Edge 18, Type (0, 0), BuildingBlock: KIFKEQ_clean_linker_1, # of connection points: 2
#     Edge 19, Type (0, 0), BuildingBlock: KIFKEQ_clean_linker_1, # of connection points: 2
#     Edge 20, Type (0, 0), BuildingBlock: KIFKEQ_clean_linker_1, # of connection points: 2
#     Edge 21, Type (0, 0), BuildingBlock: KIFKEQ_clean_linker_1, # of connection points: 2
#     Edge 22, Type (0, 0), BuildingBlock: KIFKEQ_clean_linker_1, # of connection points: 2
#     Edge 23, Type (0, 0), BuildingBlock: KIFKEQ_clean_linker_1, # of connection points: 2
# Relax obj value: 0.430
# Max RMSD: 0.278
# Mean RMSD: 0.254
data_MOF--net-tfs--node1-BETDEL_clean_sbu_0--edge1-KIFKEQ_clean_linker_1
_symmetry_space_group_name_H-M    P1
_symmetry_Int_Tables_number       1
_symmetry_cell_setting            triclinic
loop_
_symmetry_equiv_pos_as_xyz
'x, y, z'
_cell_length_a     45.836714
_cell_length_b     45.065212
_cell_length_c     14.857394
_cell_angle_alpha  90.308254
_cell_angle_beta   91.333759
_cell_angle_gamma 121.7412
loop_
_atom_site_label
_atom_site_type_symbol
_atom_site_fract_x
_atom_site_fract_y
_atom_site_fract_z
_atom_type_partial_charge
Dy0 Dy 0.16136 0.44799 0.21512 0.0
C1 C 0.20742 0.35449 0.1728 0.0
C2 C 0.14656 0.49855 0.25 0.0
Dy3 Dy 0.1887 0.40215 0.20024 0.0
O4 O 0.13407 0.47621 0.18354 0.0
O5 O 0.16632 0.49242 0.30027 0.0
O6 O 0.141 0.43642 0.07432 0.0
O7 O 0.18684 0.43806 0.10422 0.0
C8 C 0.16423 0.43145 0.04339 0.0
C9 C 0.18672 0.42159 0.37012 0.0
O10 O 0.23833 0.45176 0.18703 0.0
O11 O 0.21793 0.48609 0.23573 0.0
O12 O 0.19306 0.35699 0.24409 0.0
O13 O 0.21084 0.37754 0.11495 0.0
O14 O 0.21178 0.41975 0.33844 0.0
O15 O 0.16313 0.41225 0.31059 0.0
O16 O 0.11303 0.39658 0.2299 0.0
O17 O 0.13407 0.36726 0.15483 0.0
C18 C 0.24356 0.48205 0.21496 0.0
C19 C 0.10794 0.3693 0.1821 0.0
Dy20 Dy 0.74399 0.17697 0.88605 0.0
C21 C 0.88837 0.24954 0.83152 0.0
C22 C 0.67555 0.1506 0.89214 0.0
Dy23 Dy 0.82131 0.21709 0.87793 0.0
O24 O 0.6951 0.16867 0.82735 0.0
O25 O 0.69347 0.14728 0.95611 0.0
O26 O 0.74205 0.152 0.75395 0.0
O27 O 0.78058 0.20439 0.77802 0.0
C28 C 0.76844 0.1793 0.72161 0.0
C29 C 0.8066 0.20758 0.0532 0.0
O30 O 0.81326 0.26203 0.87914 0.0
O31 O 0.7565 0.23065 0.92108 0.0
O32 O 0.86745 0.21603 0.83572 0.0
O33 O 0.87171 0.26496 0.84694 0.0
O34 O 0.83741 0.22392 0.02342 0.0
O35 O 0.78524 0.19722 0.98764 0.0
O36 O 0.75297 0.13533 0.92583 0.0
O37 O 0.80588 0.16083 0.85906 0.0
C38 C 0.7853 0.26057 0.90701 0.0
C39 C 0.77902 0.13385 0.89585 0.0
Dy40 Dy 0.53757 0.75178 0.12673 0.0
C41 C 0.64506 0.89071 0.04242 0.0
C42 C 0.47799 0.69206 0.16125 0.0
Dy43 Dy 0.59642 0.82748 0.10493 0.0
O44 O 0.48175 0.71458 0.10164 0.0
O45 O 0.50714 0.70175 0.20236 0.0
O46 O 0.5462 0.73898 0.98794 0.0
O47 O 0.55516 0.78888 0.01445 0.0
C48 C 0.55717 0.76963 0.95554 0.0
C49 C 0.59079 0.8127 0.28318 0.0
O50 O 0.55012 0.83313 0.09732 0.0
O51 O 0.51384 0.78184 0.16998 0.0
O52 O 0.62409 0.88567 0.10597 0.0
O53 O 0.6391 0.86098 0.01083 0.0
O54 O 0.61382 0.84244 0.25114 0.0
O55 O 0.57331 0.79298 0.21762 0.0
O56 O 0.5817 0.74472 0.15036 0.0
O57 O 0.6217 0.79629 0.08251 0.0
C58 C 0.52105 0.81234 0.13899 0.0
C59 C 0.61208 0.76498 0.11457 0.0
Dy60 Dy 0.77334 0.53535 0.02917 0.0
C61 C 0.73928 0.63966 0.03321 0.0
C62 C 0.77829 0.47752 0.02013 0.0
Dy63 Dy 0.75339 0.58721 0.03675 0.0
O64 O 0.76002 0.48436 0.96666 0.0
O65 O 0.79413 0.50239 0.0807 0.0
O66 O 0.80118 0.55855 0.90418 0.0
O67 O 0.75523 0.55697 0.92351 0.0
C68 C 0.77981 0.56637 0.87084 0.0
C69 C 0.74851 0.55695 0.19601 0.0
O70 O 0.70101 0.53874 0.0062 0.0
O71 O 0.71746 0.50101 0.05405 0.0
O72 O 0.75381 0.6331 0.09941 0.0
O73 O 0.73354 0.61826 0.96648 0.0
O74 O 0.72652 0.56429 0.16469 0.0
O75 O 0.77235 0.56649 0.14122 0.0
O76 O 0.82443 0.57979 0.07174 0.0
O77 O 0.8123 0.62125 0.02649 0.0
C78 C 0.69333 0.50688 0.02751 0.0
C79 C 0.83489 0.61242 0.05217 0.0
Dy80 Dy 0.24483 0.81922 0.13873 0.0
C81 C 0.09623 0.76302 0.08995 0.0
C82 C 0.30885 0.82763 0.15068 0.0
Dy83 Dy 0.16606 0.79463 0.12367 0.0
O84 O 0.28634 0.81217 0.0853 0.0
O85 O 0.29636 0.83868 0.21141 0.0
O86 O 0.25049 0.84264 0.00427 0.0
O87 O 0.20389 0.7962 0.03062 0.0
C88 C 0.22008 0.81967 0.97301 0.0
C89 C 0.18857 0.80886 0.29798 0.0
O90 O 0.16424 0.74371 0.12156 0.0
O91 O 0.2192 0.76362 0.17882 0.0
O92 O 0.11122 0.75443 0.15015 0.0
O93 O 0.11977 0.78927 0.04465 0.0
O94 O 0.15835 0.8012 0.27044 0.0
O95 O 0.20509 0.81041 0.22974 0.0
O96 O 0.24736 0.86935 0.16699 0.0
O97 O 0.1938 0.85306 0.10108 0.0
C98 C 0.18757 0.738 0.15757 0.0
C99 C 0.22506 0.87723 0.1336 0.0
Dy100 Dy 0.43543 0.19011 0.02879 0.0
C101 C 0.3409 0.23743 0.11604 0.0
C102 C 0.47204 0.16435 0.95985 0.0
Dy103 Dy 0.38475 0.21862 0.05715 0.0
O104 O 0.44745 0.14822 0.016 0.0
O105 O 0.47663 0.19466 0.94083 0.0
O106 O 0.44618 0.18604 0.17678 0.0
O107 O 0.41406 0.20327 0.13964 0.0
C108 C 0.42672 0.19661 0.20705 0.0
C109 C 0.39335 0.21156 0.87879 0.0
O110 O 0.43696 0.2691 0.06316 0.0
O111 O 0.4722 0.24788 0.02384 0.0
O112 O 0.33268 0.21132 0.06187 0.0
O113 O 0.37326 0.25308 0.14037 0.0
O114 O 0.37449 0.22286 0.90861 0.0
O115 O 0.40596 0.20519 0.94672 0.0
O116 O 0.38311 0.14347 1.00064 0.0
O117 O 0.35316 0.16093 0.08798 0.0
C118 C 0.4675 0.2739 0.04381 0.0
C119 C 0.35572 0.13617 0.04636 0.0
H120 H 0.27978 0.21667 0.0326 0.0
H121 H 0.35092 0.28792 0.23787 0.0
H122 H 0.24467 0.24242 0.048 0.0
H123 H 0.3151 0.31316 0.25473 0.0
H124 H 0.21917 0.32144 0.30788 0.0
H125 H 0.2498 0.29051 0.29988 0.0
H126 H 0.26036 0.3077 0.01389 0.0
H127 H 0.23048 0.33949 0.02213 0.0
C128 C 0.28759 0.23746 0.0821 0.0
C129 C 0.31807 0.25043 0.13403 0.0
C130 C 0.26759 0.25223 0.09044 0.0
C131 C 0.27735 0.27976 0.15215 0.0
C132 C 0.30706 0.29182 0.20689 0.0
C133 C 0.32749 0.27746 0.19726 0.0
C134 C 0.22773 0.31828 0.24317 0.0
C135 C 0.2225 0.33275 0.16549 0.0
C136 C 0.24538 0.30082 0.23885 0.0
C137 C 0.25741 0.2969 0.15643 0.0
C138 C 0.25115 0.31032 0.07815 0.0
C139 C 0.23412 0.32844 0.08281 0.0
H140 H 0.04998 0.37221 0.19249 0.0
H141 H 0.08963 0.31383 0.06928 0.0
H142 H 0.99963 0.34281 0.09173 0.0
H143 H 0.0398 0.2853 0.96697 0.0
H144 H 0.935 0.31913 0.8454 0.0
H145 H 0.98932 0.34601 0.93088 0.0
H146 H 0.97824 0.24509 0.95573 0.0
H147 H 0.92446 0.21844 0.86808 0.0
C148 C 0.04771 0.35268 0.14517 0.0
C149 C 0.074 0.34565 0.13845 0.0
C150 C 0.01915 0.33628 0.08629 0.0
C151 C 0.01633 0.31257 0.01955 0.0
C152 C 0.04138 0.30366 0.01714 0.0
C153 C 0.06988 0.31996 0.07619 0.0
C154 C 0.94487 0.30295 0.8662 0.0
C155 C 0.92539 0.2667 0.85137 0.0
C156 C 0.97561 0.3182 0.91651 0.0
C157 C 0.98731 0.29742 0.95284 0.0
C158 C 0.96971 0.26173 0.92939 0.0
C159 C 0.93902 0.2465 0.87859 0.0
H160 H 0.79886 0.10965 0.03468 0.0
H161 H 0.74968 0.08184 0.77095 0.0
H162 H 0.77491 0.04792 0.06598 0.0
H163 H 0.7252 0.02002 0.8021 0.0
H164 H 0.68485 0.90826 0.8934 0.0
H165 H 0.72933 0.96746 0.84912 0.0
H166 H 0.71172 0.00965 0.08922 0.0
H167 H 0.6677 0.95137 0.13224 0.0
C168 C 0.78431 0.09031 0.98194 0.0
C169 C 0.77618 0.10008 0.90039 0.0
C170 C 0.77038 0.05507 0.99994 0.0
C171 C 0.74776 0.02923 0.93696 0.0
C172 C 0.74271 0.03935 0.85158 0.0
C173 C 0.75671 0.07466 0.83363 0.0
C174 C 0.69088 0.93031 0.93666 0.0
C175 C 0.67278 0.92546 0.01571 0.0
C176 C 0.71629 0.96401 0.9116 0.0
C177 C 0.72429 0.99305 0.96639 0.0
C178 C 0.70671 0.98777 0.0466 0.0
C179 C 0.68116 0.95441 0.07069 0.0
H180 H 0.73892 0.67428 0.18301 0.0
H181 H 0.7085 0.65769 0.90128 0.0
H182 H 0.71102 0.70735 0.20245 0.0
H183 H 0.68093 0.69156 0.92059 0.0
H184 H 0.66147 0.78187 0.98957 0.0
H185 H 0.69514 0.75458 0.96624 0.0
H186 H 0.64738 0.68858 0.19321 0.0
H187 H 0.6134 0.71522 0.21553 0.0
C188 C 0.72673 0.67817 0.12479 0.0
C189 C 0.72588 0.66328 0.04058 0.0
C190 C 0.71058 0.69699 0.13614 0.0
C191 C 0.69358 0.70192 0.06326 0.0
C192 C 0.69396 0.68834 0.97797 0.0
C193 C 0.7097 0.66893 0.9669 0.0
C194 C 0.65844 0.76178 0.03503 0.0
C195 C 0.63479 0.75081 0.10464 0.0
C196 C 0.67752 0.74597 0.02116 0.0
C197 C 0.67395 0.71942 0.07787 0.0
C198 C 0.65093 0.70912 0.14873 0.0
C199 C 0.63138 0.72435 0.16138 0.0
H200 H 0.0503 0.71813 0.20649 0.0
H201 H 0.0553 0.76808 0.95555 0.0
H202 H 0.98831 0.68632 0.19697 0.0
H203 H 0.99188 0.73476 0.94419 0.0
H204 H 0.8725 0.68284 0.00504 0.0
H205 H 0.93554 0.72239 0.01033 0.0
H206 H 0.94594 0.63831 0.10814 0.0
H207 H 0.88455 0.59998 0.10533 0.0
C208 C 0.03812 0.72227 0.14865 0.0
C209 C 0.05801 0.74542 0.0812 0.0
C210 C 1.00229 0.70377 0.14298 0.0
C211 C 0.98467 0.70722 0.06889 0.0
C212 C 0.00444 0.73136 1.00232 0.0
C213 C 0.04078 0.75031 0.00847 0.0
C214 C 0.88835 0.67302 0.02833 0.0
C215 C 0.873 0.63811 0.05569 0.0
C216 C 0.92453 0.69561 0.03063 0.0
C217 C 0.94613 0.68384 0.06083 0.0
C218 C 0.93051 0.64885 0.08656 0.0
C219 C 0.89487 0.62659 0.08443 0.0
H220 H 0.26988 0.93064 0.24696 0.0
H221 H 0.2085 0.90913 1.00292 0.0
H222 H 0.2954 0.9933 0.22649 0.0
H223 H 0.23476 0.97206 0.98127 0.0
H224 H 0.33624 0.08298 0.92505 0.0
H225 H 0.29886 0.02033 0.94867 0.0
H226 H 0.27903 0.04139 0.2166 0.0
H227 H 0.31588 0.10439 0.19205 0.0
C228 C 0.2615 0.9393 0.18955 0.0
C229 C 0.2371 0.91489 0.12667 0.0
C230 C 0.27602 0.9752 0.17806 0.0
C231 C 0.26712 0.98766 0.10226 0.0
C232 C 0.24213 0.96325 0.04035 0.0
C233 C 0.22695 0.92723 0.05302 0.0
C234 C 0.32332 0.07429 0.98833 0.0
C235 C 0.32897 0.09867 0.0566 0.0
C236 C 0.30182 0.03839 1.00173 0.0
C237 C 0.28605 0.02588 0.08456 0.0
C238 C 0.29088 0.05025 0.15209 0.0
C239 C 0.31178 0.0863 0.13783 0.0
H240 H 0.23001 0.71653 0.21868 0.0
H241 H 0.12415 0.67726 0.14117 0.0
H242 H 0.21564 0.65785 0.25193 0.0
H243 H 0.10955 0.61815 0.17677 0.0
H244 H 0.11117 0.51617 0.13587 0.0
H245 H 0.11813 0.57329 0.1202 0.0
H246 H 0.18653 0.61105 0.35472 0.0
H247 H 0.18026 0.55394 0.36846 0.0
C248 C 0.20354 0.6954 0.2092 0.0
C249 C 0.17827 0.70174 0.17676 0.0
C250 C 0.19523 0.66165 0.22931 0.0
C251 C 0.16135 0.63315 0.21798 0.0
C252 C 0.13596 0.63942 0.18576 0.0
C253 C 0.14432 0.67333 0.16536 0.0
C254 C 0.12716 0.53649 0.18517 0.0
C255 C 0.14539 0.5307 0.25301 0.0
C256 C 0.13108 0.56927 0.17634 0.0
C257 C 0.15329 0.59704 0.23535 0.0
C258 C 0.1698 0.59049 0.30684 0.0
C259 C 0.16594 0.55768 0.31544 0.0
H260 H 0.47217 0.10752 0.01972 0.0
H261 H 0.5233 0.1946 0.84114 0.0
H262 H 0.51591 0.09316 0.99369 0.0
H263 H 0.56694 0.18049 0.81549 0.0
H264 H 0.63504 0.14424 0.74991 0.0
H265 H 0.57861 0.13707 0.7535 0.0
H266 H 0.57812 0.12507 0.04197 0.0
H267 H 0.63453 0.13147 0.03782 0.0
C268 C 0.49239 0.12311 0.97351 0.0
C269 C 0.49473 0.15233 0.93291 0.0
C270 C 0.51739 0.11497 0.959 0.0
C271 C 0.54481 0.13576 0.90294 0.0
C272 C 0.54586 0.16372 0.85821 0.0
C273 C 0.52104 0.17197 0.87323 0.0
C274 C 0.62247 0.13923 0.81378 0.0
C275 C 0.63916 0.13904 0.89392 0.0
C276 C 0.59025 0.13517 0.81576 0.0
C277 C 0.57435 0.13118 0.89809 0.0
C278 C 0.58978 0.12798 0.97746 0.0
C279 C 0.62205 0.13179 0.97531 0.0
H280 H 0.46472 0.6368 0.26653 0.0
H281 H 0.41641 0.67806 0.09907 0.0
H282 H 0.40799 0.58496 0.29409 0.0
H283 H 0.36047 0.62702 0.12664 0.0
H284 H 0.26393 0.54924 0.2579 0.0
H285 H 0.32206 0.60009 0.25988 0.0
H286 H 0.36127 0.53453 0.191 0.0
H287 H 0.30308 0.48335 0.18946 0.0
C288 C 0.44202 0.6348 0.23619 0.0
C289 C 0.44471 0.66113 0.18059 0.0
C290 C 0.40977 0.60532 0.25177 0.0
C291 C 0.38005 0.60235 0.21302 0.0
C292 C 0.38296 0.62899 0.15842 0.0
C293 C 0.41498 0.65803 0.1421 0.0
C294 C 0.28491 0.54554 0.24394 0.0
C295 C 0.27889 0.51238 0.22202 0.0
C296 C 0.31813 0.57463 0.24527 0.0
C297 C 0.34591 0.57107 0.2251 0.0
C298 C 0.3402 0.53779 0.2074 0.0
C299 C 0.30689 0.50864 0.20562 0.0
H300 H 0.73898 0.42231 0.90926 0.0
H301 H 0.82295 0.46246 0.1051 0.0
H302 H 0.7425 0.371 0.88426 0.0
H303 H 0.82649 0.41038 0.07984 0.0
H304 H 0.84098 0.32804 0.91709 0.0
H305 H 0.84072 0.38129 0.95061 0.0
H306 H 0.73069 0.31965 0.97467 0.0
H307 H 0.73073 0.26695 0.94096 0.0
C308 C 0.75817 0.42007 0.94732 0.0
C309 C 0.78061 0.44626 0.00944 0.0
C310 C 0.7601 0.39059 0.93313 0.0
C311 C 0.78467 0.38661 0.98032 0.0
C312 C 0.80742 0.41292 0.04223 0.0
C313 C 0.80525 0.4425 0.05716 0.0
C314 C 0.81676 0.32593 0.92927 0.0
C315 C 0.78586 0.29323 0.92558 0.0
C316 C 0.81668 0.35635 0.94929 0.0
C317 C 0.78567 0.35459 0.96497 0.0
C318 C 0.75494 0.32188 0.96196 0.0
C319 C 0.75503 0.29163 0.94273 0.0
H320 H 0.3414 0.81988 0.01055 0.0
H321 H 0.35363 0.84313 0.29585 0.0
H322 H 0.39573 0.82202 0.0122 0.0
H323 H 0.40812 0.84468 0.29794 0.0
H324 H 0.47233 0.79022 0.26631 0.0
H325 H 0.42425 0.79901 0.27318 0.0
H326 H 0.46017 0.86329 0.03854 0.0
H327 H 0.50886 0.85485 0.03231 0.0
C328 C 0.35586 0.8257 0.0737 0.0
C329 C 0.34312 0.83127 0.15315 0.0
C330 C 0.38717 0.82715 0.07446 0.0
C331 C 0.40643 0.83358 0.15509 0.0
C332 C 0.3939 0.83956 0.23467 0.0
C333 C 0.36276 0.83879 0.23353 0.0
C334 C 0.47035 0.8067 0.21684 0.0
C335 C 0.4945 0.82175 0.14853 0.0
C336 C 0.4428 0.81187 0.22116 0.0
C337 C 0.43817 0.83175 0.15631 0.0
C338 C 0.46285 0.84765 0.08932 0.0
C339 C 0.49088 0.84302 0.08603 0.0
H340 H 0.6745 0.44408 0.95648 0.0
H341 H 0.63197 0.49915 0.08065 0.0
H342 H 0.61904 0.3902 0.95725 0.0
H343 H 0.57583 0.44411 0.08611 0.0
H344 H 0.4723 0.33759 0.02295 0.0
H345 H 0.52489 0.39555 0.01326 0.0
H346 H 0.58563 0.34922 0.06183 0.0
H347 H 0.53393 0.29216 0.06757 0.0
C348 C 0.65308 0.44461 0.98396 0.0
C349 C 0.65773 0.47588 0.01892 0.0
C350 C 0.62116 0.41348 0.98548 0.0
C351 C 0.59275 0.41214 0.0243 0.0
C352 C 0.59694 0.44387 0.05576 0.0
C353 C 0.6291 0.47549 0.05264 0.0
C354 C 0.49697 0.33995 0.03165 0.0
C355 C 0.49873 0.30997 0.04464 0.0
C356 C 0.5272 0.37325 0.02632 0.0
C357 C 0.55991 0.37737 0.03462 0.0
C358 C 0.56126 0.34738 0.05159 0.0
C359 C 0.53135 0.31438 0.05565 0.0
H360 H 0.21097 0.42186 0.95488 0.0
H361 H 0.12563 0.43594 0.91051 0.0
H362 H 0.21579 0.41858 0.79156 0.0
H363 H 0.13142 0.43469 0.74955 0.0
H364 H 0.12786 0.39931 0.46227 0.0
H365 H 0.12236 0.39945 0.62521 0.0
H366 H 0.23267 0.45174 0.6604 0.0
H367 H 0.23767 0.44976 0.49797 0.0
C368 C 0.19345 0.42446 0.91026 0.0
C369 C 0.168 0.42917 0.94544 0.0
C370 C 0.19628 0.42285 0.81667 0.0
C371 C 0.17396 0.42635 0.7566 0.0
C372 C 0.14863 0.43111 0.7928 0.0
C373 C 0.14551 0.43217 0.88565 0.0
C374 C 0.15085 0.41099 0.50508 0.0
C375 C 0.18315 0.42452 0.46772 0.0
C376 C 0.14781 0.4112 0.59863 0.0
C377 C 0.17711 0.42556 0.6568 0.0
C378 C 0.20947 0.43975 0.61851 0.0
C379 C 0.21239 0.43901 0.52521 0.0
H380 H 0.73622 0.12943 0.58971 0.0
H381 H 0.81458 0.23805 0.63345 0.0
H382 H 0.74382 0.13624 0.42748 0.0
H383 H 0.82192 0.24506 0.47095 0.0
H384 H 0.74398 0.17161 0.13503 0.0
H385 H 0.73434 0.16491 0.29785 0.0
H386 H 0.84391 0.22631 0.35074 0.0
H387 H 0.85332 0.23327 0.19037 0.0
C388 C 0.75514 0.15477 0.56455 0.0
C389 C 0.77489 0.18323 0.62415 0.0
C390 C 0.75922 0.15873 0.47155 0.0
C391 C 0.7833 0.19121 0.43612 0.0
C392 C 0.80331 0.21959 0.49606 0.0
C393 C 0.79916 0.21564 0.5891 0.0
C394 C 0.76584 0.18368 0.18185 0.0
C395 C 0.79934 0.20298 0.15017 0.0
C396 C 0.76041 0.17976 0.27484 0.0
C397 C 0.78841 0.19526 0.33733 0.0
C398 C 0.82178 0.21454 0.30485 0.0
C399 C 0.82714 0.21831 0.21266 0.0
H400 H 0.57377 0.82983 0.86589 0.0
H401 H 0.55305 0.7256 0.8232 0.0
H402 H 0.58075 0.83972 0.70345 0.0
H403 H 0.56031 0.73542 0.66211 0.0
H404 H 0.62702 0.85709 0.42267 0.0
H405 H 0.61886 0.84732 0.58361 0.0
H406 H 0.53372 0.74246 0.52759 0.0
H407 H 0.54232 0.75233 0.36541 0.0
C408 C 0.57083 0.80911 0.82195 0.0
C409 C 0.56276 0.77692 0.85764 0.0
C410 C 0.57492 0.81474 0.72875 0.0
C411 C 0.57091 0.78828 0.6689 0.0
C412 C 0.56301 0.75622 0.70528 0.0
C413 C 0.55911 0.75069 0.7981 0.0
C414 C 0.60656 0.83187 0.44457 0.0
C415 C 0.58539 0.80542 0.38106 0.0
C416 C 0.60169 0.82637 0.53717 0.0
C417 C 0.57554 0.79415 0.5694 0.0
C418 C 0.55437 0.76754 0.50564 0.0
C419 C 0.55918 0.77315 0.41257 0.0
H420 H 0.82108 0.56492 0.74608 0.0
H421 H 0.73194 0.57309 0.77338 0.0
H422 H 0.81292 0.5606 0.5845 0.0
H423 H 0.72493 0.57125 0.6092 0.0
H424 H 0.69918 0.52954 0.3207 0.0
H425 H 0.70723 0.53341 0.48423 0.0
H426 H 0.81727 0.58895 0.45385 0.0
H427 H 0.80877 0.5828 0.29125 0.0
C428 C 0.80006 0.56656 0.71723 0.0
C429 C 0.77697 0.5691 0.77247 0.0
C430 C 0.79549 0.56433 0.62397 0.0
C431 C 0.76817 0.56544 0.58289 0.0
C432 C 0.74582 0.56948 0.63825 0.0
C433 C 0.75004 0.57102 0.73227 0.0
C434 C 0.72499 0.54193 0.3496 0.0
C435 C 0.75332 0.55555 0.29378 0.0
C436 C 0.7297 0.54469 0.44324 0.0
C437 C 0.76294 0.5618 0.48301 0.0
C438 C 0.79123 0.57501 0.42637 0.0
C439 C 0.78644 0.57153 0.33289 0.0
H440 H 0.17689 0.84647 0.41616 0.0
H441 H 0.22271 0.78423 0.39653 0.0
H442 H 0.1834 0.8484 0.57996 0.0
H443 H 0.22857 0.78539 0.5623 0.0
H444 H 0.18675 0.76125 0.86145 0.0
H445 H 0.18306 0.76049 0.69549 0.0
H446 H 0.23276 0.87266 0.69955 0.0
H447 H 0.237 0.87341 0.86381 0.0
C448 C 0.18913 0.83387 0.44712 0.0
C449 C 0.19993 0.8158 0.39377 0.0
C450 C 0.19261 0.83475 0.54093 0.0
C451 C 0.20616 0.81677 0.58413 0.0
C452 C 0.21775 0.79924 0.53077 0.0
C453 C 0.21498 0.79906 0.43613 0.0
C454 C 0.19624 0.78557 0.82661 0.0
C455 C 0.21179 0.81737 0.87532 0.0
C456 C 0.19466 0.78522 0.73182 0.0
C457 C 0.20795 0.81658 0.6845 0.0
C458 C 0.22234 0.84811 0.73388 0.0
C459 C 0.22456 0.84851 0.82792 0.0
H460 H 0.35442 0.21091 0.73844 0.0
H461 H 0.44339 0.20459 0.79847 0.0
H462 H 0.36149 0.20686 0.57836 0.0
H463 H 0.45201 0.20248 0.63714 0.0
H464 H 0.44263 0.16814 0.34475 0.0
H465 H 0.43435 0.1706 0.50463 0.0
H466 H 0.39097 0.23414 0.4517 0.0
H467 H 0.39768 0.22973 0.29004 0.0
C468 C 0.37575 0.20885 0.71717 0.0
C469 C 0.39828 0.20794 0.78142 0.0
C470 C 0.38008 0.20691 0.62471 0.0
C471 C 0.40752 0.20459 0.5929 0.0
C472 C 0.43015 0.20364 0.6578 0.0
C473 C 0.42541 0.20501 0.75078 0.0
C474 C 0.43117 0.18255 0.36721 0.0
C475 C 0.42076 0.1987 0.30445 0.0
C476 C 0.42671 0.18429 0.45965 0.0
C477 C 0.41215 0.20278 0.49304 0.0
C478 C 0.40176 0.21908 0.42966 0.0
C479 C 0.40575 0.21681 0.33657 0.0
loop_
_geom_bond_atom_site_label_1
_geom_bond_atom_site_label_2
_geom_bond_distance
_geom_bond_site_symmetry_2
_ccdc_geom_bond_type
Dy0 O4 2.398 . S
Dy0 O5 2.491 . S
Dy0 O6 2.403 1_554 S
Dy0 O7 2.664 . S
Dy0 O11 2.326 . S
Dy0 O15 2.310 . S
Dy0 O16 2.351 . S
C1 O12 1.185 . S
C1 O13 1.355 . S
C2 O4 1.185 . S
C2 O5 1.355 . S
Dy3 O7 2.310 . S
Dy3 O10 2.351 . S
Dy3 O12 2.398 . S
Dy3 O13 2.491 . S
Dy3 O14 2.403 . S
Dy3 O15 2.664 . S
Dy3 O17 2.326 . S
O4 Dy0 2.398 . S
O4 C2 1.185 . S
O5 Dy0 2.491 . S
O5 C2 1.355 . S
O6 Dy0 2.403 1_556 S
O6 C8 1.254 . S
O7 Dy0 2.664 . S
O7 Dy3 2.310 . S
O7 C8 1.268 1_554 S
C8 O6 1.254 . S
C8 O7 1.268 1_556 S
C9 O14 1.254 . S
C9 O15 1.268 . S
O10 Dy3 2.351 . S
O10 C18 1.249 . S
O11 Dy0 2.326 . S
O11 C18 1.267 . S
O12 C1 1.185 . S
O12 Dy3 2.398 . S
O13 C1 1.355 . S
O13 Dy3 2.491 . S
O14 Dy3 2.403 . S
O14 C9 1.254 . S
O15 Dy0 2.310 . S
O15 Dy3 2.664 . S
O15 C9 1.268 . S
O16 Dy0 2.351 . S
O16 C19 1.249 . S
O17 Dy3 2.326 . S
O17 C19 1.267 . S
C18 O10 1.249 . S
C18 O11 1.267 . S
C19 O16 1.249 . S
C19 O17 1.267 . S
Dy20 O24 2.398 . S
Dy20 O25 2.491 1_556 S
Dy20 O26 2.403 . S
Dy20 O27 2.664 . S
Dy20 O31 2.326 . S
Dy20 O35 2.310 1_556 S
Dy20 O36 2.351 . S
C21 O32 1.185 . S
C21 O33 1.355 1_554 S
C22 O24 1.185 . S
C22 O25 1.355 1_556 S
Dy23 O27 2.310 1_554 S
Dy23 O30 2.351 . S
Dy23 O32 2.398 . S
Dy23 O33 2.491 1_554 S
Dy23 O34 2.403 . S
Dy23 O35 2.664 . S
Dy23 O37 2.326 . S
O24 Dy20 2.398 . S
O24 C22 1.185 . S
O25 Dy20 2.491 1_554 S
O25 C22 1.355 1_554 S
O26 Dy20 2.403 . S
O26 C28 1.254 . S
O27 Dy20 2.664 . S
O27 Dy23 2.310 1_556 S
O27 C28 1.268 . S
C28 O26 1.254 . S
C28 O27 1.268 . S
C29 O34 1.254 . S
C29 O35 1.268 . S
O30 Dy23 2.351 . S
O30 C38 1.249 1_554 S
O31 Dy20 2.326 . S
O31 C38 1.267 . S
O32 C21 1.185 . S
O32 Dy23 2.398 . S
O33 C21 1.355 1_556 S
O33 Dy23 2.491 1_556 S
O34 Dy23 2.403 . S
O34 C29 1.254 . S
O35 Dy20 2.310 1_554 S
O35 Dy23 2.664 . S
O35 C29 1.268 . S
O36 Dy20 2.351 . S
O36 C39 1.249 1_556 S
O37 Dy23 2.326 . S
O37 C39 1.267 . S
C38 O30 1.249 1_556 S
C38 O31 1.267 . S
C39 O36 1.249 1_554 S
C39 O37 1.267 . S
Dy40 O44 2.398 . S
Dy40 O45 2.491 . S
Dy40 O46 2.403 1_554 S
Dy40 O47 2.664 . S
Dy40 O51 2.326 . S
Dy40 O55 2.310 . S
Dy40 O56 2.351 . S
C41 O52 1.185 . S
C41 O53 1.355 . S
C42 O44 1.185 . S
C42 O45 1.355 . S
Dy43 O47 2.310 . S
Dy43 O50 2.351 . S
Dy43 O52 2.398 . S
Dy43 O53 2.491 . S
Dy43 O54 2.403 . S
Dy43 O55 2.664 . S
Dy43 O57 2.326 . S
O44 Dy40 2.398 . S
O44 C42 1.185 . S
O45 Dy40 2.491 . S
O45 C42 1.355 . S
O46 Dy40 2.403 1_556 S
O46 C48 1.254 . S
O47 Dy40 2.664 . S
O47 Dy43 2.310 . S
O47 C48 1.268 1_554 S
C48 O46 1.254 . S
C48 O47 1.268 1_556 S
C49 O54 1.254 . S
C49 O55 1.268 . S
O50 Dy43 2.351 . S
O50 C58 1.249 . S
O51 Dy40 2.326 . S
O51 C58 1.267 . S
O52 C41 1.185 . S
O52 Dy43 2.398 . S
O53 C41 1.355 . S
O53 Dy43 2.491 . S
O54 Dy43 2.403 . S
O54 C49 1.254 . S
O55 Dy40 2.310 . S
O55 Dy43 2.664 . S
O55 C49 1.268 . S
O56 Dy40 2.351 . S
O56 C59 1.249 . S
O57 Dy43 2.326 . S
O57 C59 1.267 . S
C58 O50 1.249 . S
C58 O51 1.267 . S
C59 O56 1.249 . S
C59 O57 1.267 . S
Dy60 O64 2.398 . S
Dy60 O65 2.491 1_556 S
Dy60 O66 2.403 . S
Dy60 O67 2.664 . S
Dy60 O71 2.326 . S
Dy60 O75 2.310 1_556 S
Dy60 O76 2.351 1_556 S
C61 O72 1.185 . S
C61 O73 1.355 1_554 S
C62 O64 1.185 1_554 S
C62 O65 1.355 . S
Dy63 O67 2.310 1_554 S
Dy63 O70 2.351 . S
Dy63 O72 2.398 . S
Dy63 O73 2.491 1_554 S
Dy63 O74 2.403 . S
Dy63 O75 2.664 . S
Dy63 O77 2.326 . S
O64 Dy60 2.398 . S
O64 C62 1.185 1_556 S
O65 Dy60 2.491 1_554 S
O65 C62 1.355 . S
O66 Dy60 2.403 . S
O66 C68 1.254 . S
O67 Dy60 2.664 . S
O67 Dy63 2.310 1_556 S
O67 C68 1.268 . S
C68 O66 1.254 . S
C68 O67 1.268 . S
C69 O74 1.254 . S
C69 O75 1.268 . S
O70 Dy63 2.351 . S
O70 C78 1.249 1_554 S
O71 Dy60 2.326 . S
O71 C78 1.267 . S
O72 C61 1.185 . S
O72 Dy63 2.398 . S
O73 C61 1.355 1_556 S
O73 Dy63 2.491 1_556 S
O74 Dy63 2.403 . S
O74 C69 1.254 . S
O75 Dy60 2.310 1_554 S
O75 Dy63 2.664 . S
O75 C69 1.268 . S
O76 Dy60 2.351 1_554 S
O76 C79 1.249 . S
O77 Dy63 2.326 . S
O77 C79 1.267 . S
C78 O70 1.249 1_556 S
C78 O71 1.267 . S
C79 O76 1.249 . S
C79 O77 1.267 . S
Dy80 O84 2.398 . S
Dy80 O85 2.491 . S
Dy80 O86 2.403 1_554 S
Dy80 O87 2.664 . S
Dy80 O91 2.326 . S
Dy80 O95 2.310 . S
Dy80 O96 2.351 . S
C81 O92 1.185 . S
C81 O93 1.355 . S
C82 O84 1.185 . S
C82 O85 1.355 . S
Dy83 O87 2.310 . S
Dy83 O90 2.351 . S
Dy83 O92 2.398 . S
Dy83 O93 2.491 . S
Dy83 O94 2.403 . S
Dy83 O95 2.664 . S
Dy83 O97 2.326 . S
O84 Dy80 2.398 . S
O84 C82 1.185 . S
O85 Dy80 2.491 . S
O85 C82 1.355 . S
O86 Dy80 2.403 1_556 S
O86 C88 1.254 . S
O87 Dy80 2.664 . S
O87 Dy83 2.310 . S
O87 C88 1.268 1_554 S
C88 O86 1.254 . S
C88 O87 1.268 1_556 S
C89 O94 1.254 . S
C89 O95 1.268 . S
O90 Dy83 2.351 . S
O90 C98 1.249 . S
O91 Dy80 2.326 . S
O91 C98 1.267 . S
O92 C81 1.185 . S
O92 Dy83 2.398 . S
O93 C81 1.355 . S
O93 Dy83 2.491 . S
O94 Dy83 2.403 . S
O94 C89 1.254 . S
O95 Dy80 2.310 . S
O95 Dy83 2.664 . S
O95 C89 1.268 . S
O96 Dy80 2.351 . S
O96 C99 1.249 . S
O97 Dy83 2.326 . S
O97 C99 1.267 . S
C98 O90 1.249 . S
C98 O91 1.267 . S
C99 O96 1.249 . S
C99 O97 1.267 . S
Dy100 O104 2.398 . S
Dy100 O105 2.491 1_554 S
Dy100 O106 2.403 . S
Dy100 O107 2.664 . S
Dy100 O111 2.326 . S
Dy100 O115 2.310 1_554 S
Dy100 O116 2.351 . S
C101 O112 1.185 1_554 S
C101 O113 1.355 . S
C102 O104 1.185 1_556 S
C102 O105 1.355 . S
Dy103 O107 2.310 1_556 S
Dy103 O110 2.351 . S
Dy103 O112 2.398 . S
Dy103 O113 2.491 1_556 S
Dy103 O114 2.403 . S
Dy103 O115 2.664 . S
Dy103 O117 2.326 . S
O104 Dy100 2.398 . S
O104 C102 1.185 1_554 S
O105 Dy100 2.491 1_556 S
O105 C102 1.355 . S
O106 Dy100 2.403 . S
O106 C108 1.254 . S
O107 Dy100 2.664 . S
O107 Dy103 2.310 1_554 S
O107 C108 1.268 . S
C108 O106 1.254 . S
C108 O107 1.268 . S
C109 O114 1.254 . S
C109 O115 1.268 . S
O110 Dy103 2.351 . S
O110 C118 1.249 1_556 S
O111 Dy100 2.326 . S
O111 C118 1.267 . S
O112 C101 1.185 1_556 S
O112 Dy103 2.398 . S
O113 C101 1.355 . S
O113 Dy103 2.491 1_554 S
O114 Dy103 2.403 . S
O114 C109 1.254 . S
O115 Dy100 2.310 1_556 S
O115 Dy103 2.664 . S
O115 C109 1.268 . S
O116 Dy100 2.351 . S
O116 C119 1.249 . S
O117 Dy103 2.326 . S
O117 C119 1.267 1_556 S
C118 O110 1.249 1_554 S
C118 O111 1.267 . S
C119 O116 1.249 . S
C119 O117 1.267 1_554 S
H120 C128 0.950 . S
H121 C133 0.950 . S
H122 C130 0.945 1_556 S
H123 C132 0.950 . S
H124 C134 0.950 . S
H125 C136 0.950 . S
H126 C138 0.950 1_556 S
H127 C139 0.950 . S
C128 H120 0.950 . S
C128 C129 1.386 1_556 S
C128 C130 1.390 1_556 S
C129 C128 1.386 1_554 S
C129 C133 1.393 . S
C130 H122 0.945 1_554 S
C130 C128 1.390 1_554 S
C130 C131 1.406 . S
C131 C130 1.406 . S
C131 C132 1.398 . S
C131 C137 1.491 . S
C132 H123 0.950 . S
C132 C131 1.398 . S
C132 C133 1.391 . S
C133 H121 0.950 . S
C133 C129 1.393 . S
C133 C132 1.391 . S
C134 H124 0.950 . S
C134 C135 1.386 . S
C134 C136 1.391 . S
C135 C134 1.386 . S
C135 C139 1.393 . S
C136 H125 0.950 . S
C136 C134 1.391 . S
C136 C137 1.400 . S
C137 C131 1.491 . S
C137 C136 1.400 . S
C137 C138 1.398 . S
C138 H126 0.950 1_554 S
C138 C137 1.398 . S
C138 C139 1.391 . S
C139 H127 0.950 . S
C139 C135 1.393 . S
C139 C138 1.391 . S
H140 C148 0.950 . S
H141 C153 0.950 . S
H142 C150 0.950 . S
H143 C152 0.950 1_556 S
H144 C154 0.950 . S
H145 C156 0.950 . S
H146 C158 0.950 . S
H147 C159 0.950 . S
C148 H140 0.950 . S
C148 C149 1.386 . S
C148 C150 1.391 . S
C149 C148 1.386 . S
C149 C153 1.393 . S
C150 H142 0.950 . S
C150 C148 1.391 . S
C150 C151 1.400 . S
C151 C150 1.400 . S
C151 C152 1.398 . S
C151 C157 1.491 1_455 S
C152 H143 0.950 1_554 S
C152 C151 1.398 . S
C152 C153 1.391 . S
C153 H141 0.950 . S
C153 C149 1.393 . S
C153 C152 1.391 . S
C154 H144 0.950 . S
C154 C155 1.386 1_556 S
C154 C156 1.391 . S
C155 C154 1.386 1_554 S
C155 C159 1.393 . S
C156 H145 0.950 . S
C156 C154 1.391 . S
C156 C157 1.400 1_556 S
C157 C151 1.491 1_655 S
C157 C156 1.400 1_554 S
C157 C158 1.398 . S
C158 H146 0.950 . S
C158 C157 1.398 . S
C158 C159 1.391 . S
C159 H147 0.950 . S
C159 C155 1.393 . S
C159 C158 1.391 . S
H160 C168 0.950 . S
H161 C173 0.950 . S
H162 C170 0.950 . S
H163 C172 0.950 . S
H164 C174 0.950 1_556 S
H165 C176 0.950 . S
H166 C178 0.950 1_545 S
H167 C179 0.950 . S
C168 H160 0.950 . S
C168 C169 1.386 . S
C168 C170 1.391 . S
C169 C168 1.386 . S
C169 C173 1.393 1_554 S
C170 H162 0.950 . S
C170 C168 1.391 . S
C170 C171 1.400 . S
C171 C170 1.400 . S
C171 C172 1.398 1_554 S
C171 C177 1.491 1_545 S
C172 H163 0.950 . S
C172 C171 1.398 1_556 S
C172 C173 1.391 . S
C173 H161 0.950 . S
C173 C169 1.393 1_556 S
C173 C172 1.391 . S
C174 H164 0.950 1_554 S
C174 C175 1.386 . S
C174 C176 1.391 1_554 S
C175 C174 1.386 . S
C175 C179 1.393 . S
C176 H165 0.950 . S
C176 C174 1.391 1_556 S
C176 C177 1.400 1_556 S
C177 C171 1.491 1_565 S
C177 C176 1.400 1_554 S
C177 C178 1.398 . S
C178 H166 0.950 1_565 S
C178 C177 1.398 . S
C178 C179 1.391 . S
C179 H167 0.950 . S
C179 C175 1.393 . S
C179 C178 1.391 . S
H180 C188 0.950 . S
H181 C193 0.950 . S
H182 C190 0.950 . S
H183 C192 0.950 1_556 S
H184 C194 0.950 . S
H185 C196 0.950 . S
H186 C198 0.950 . S
H187 C199 0.950 . S
C188 H180 0.950 . S
C188 C189 1.386 . S
C188 C190 1.391 . S
C189 C188 1.386 . S
C189 C193 1.393 1_554 S
C190 H182 0.950 . S
C190 C188 1.391 . S
C190 C191 1.400 . S
C191 C190 1.400 . S
C191 C192 1.398 . S
C191 C197 1.491 . S
C192 H183 0.950 1_554 S
C192 C191 1.398 . S
C192 C193 1.391 1_554 S
C193 H181 0.950 . S
C193 C189 1.393 1_556 S
C193 C192 1.391 1_556 S
C194 H184 0.950 . S
C194 C195 1.386 . S
C194 C196 1.391 . S
C195 C194 1.386 . S
C195 C199 1.393 . S
C196 H185 0.950 . S
C196 C194 1.391 . S
C196 C197 1.400 . S
C197 C191 1.491 . S
C197 C196 1.400 . S
C197 C198 1.398 . S
C198 H186 0.950 . S
C198 C197 1.398 . S
C198 C199 1.391 . S
C199 H187 0.950 . S
C199 C195 1.393 . S
C199 C198 1.391 . S
H200 C208 0.950 . S
H201 C213 0.950 1_556 S
H202 C210 0.950 . S
H203 C212 0.950 . S
H204 C214 0.950 . S
H205 C216 0.950 . S
H206 C218 0.950 . S
H207 C219 0.950 . S
C208 H200 0.950 . S
C208 C209 1.386 . S
C208 C210 1.391 1_455 S
C209 C208 1.386 . S
C209 C213 1.393 . S
C210 H202 0.950 . S
C210 C208 1.391 1_655 S
C210 C211 1.400 . S
C211 C210 1.400 . S
C211 C212 1.398 1_554 S
C211 C217 1.491 . S
C212 H203 0.950 . S
C212 C211 1.398 1_556 S
C212 C213 1.391 1_656 S
C213 H201 0.950 1_554 S
C213 C209 1.393 . S
C213 C212 1.391 1_454 S
C214 H204 0.950 . S
C214 C215 1.386 1_556 S
C214 C216 1.391 . S
C215 C214 1.386 1_554 S
C215 C219 1.393 . S
C216 H205 0.950 . S
C216 C214 1.391 . S
C216 C217 1.400 1_556 S
C217 C211 1.491 . S
C217 C216 1.400 1_554 S
C217 C218 1.398 . S
C218 H206 0.950 . S
C218 C217 1.398 . S
C218 C219 1.391 . S
C219 H207 0.950 . S
C219 C215 1.393 . S
C219 C218 1.391 . S
H220 C228 0.950 . S
H221 C233 0.950 1_556 S
H222 C230 0.950 . S
H223 C232 0.950 1_556 S
H224 C234 0.950 . S
H225 C236 0.950 . S
H226 C238 0.950 . S
H227 C239 0.950 . S
C228 H220 0.950 . S
C228 C229 1.386 . S
C228 C230 1.391 . S
C229 C228 1.386 . S
C229 C233 1.393 . S
C230 H222 0.950 . S
C230 C228 1.391 . S
C230 C231 1.400 . S
C231 C230 1.400 . S
C231 C232 1.398 . S
C231 C237 1.491 1_565 S
C232 H223 0.950 1_554 S
C232 C231 1.398 . S
C232 C233 1.391 . S
C233 H221 0.950 1_554 S
C233 C229 1.393 . S
C233 C232 1.391 . S
C234 H224 0.950 . S
C234 C235 1.386 1_556 S
C234 C236 1.391 . S
C235 C234 1.386 1_554 S
C235 C239 1.393 . S
C236 H225 0.950 . S
C236 C234 1.391 . S
C236 C237 1.400 1_556 S
C237 C231 1.491 1_545 S
C237 C236 1.400 1_554 S
C237 C238 1.398 . S
C238 H226 0.950 . S
C238 C237 1.398 . S
C238 C239 1.391 . S
C239 H227 0.950 . S
C239 C235 1.393 . S
C239 C238 1.391 . S
H240 C248 0.950 . S
H241 C253 0.950 . S
H242 C250 0.950 . S
H243 C252 0.950 . S
H244 C254 0.950 . S
H245 C256 0.950 . S
H246 C258 0.950 . S
H247 C259 0.950 . S
C248 H240 0.950 . S
C248 C249 1.386 . S
C248 C250 1.391 . S
C249 C248 1.386 . S
C249 C253 1.393 . S
C250 H242 0.950 . S
C250 C248 1.391 . S
C250 C251 1.400 . S
C251 C250 1.400 . S
C251 C252 1.398 . S
C251 C257 1.491 . S
C252 H243 0.950 . S
C252 C251 1.398 . S
C252 C253 1.391 . S
C253 H241 0.950 . S
C253 C249 1.393 . S
C253 C252 1.391 . S
C254 H244 0.950 . S
C254 C255 1.386 . S
C254 C256 1.391 . S
C255 C254 1.386 . S
C255 C259 1.393 . S
C256 H245 0.950 . S
C256 C254 1.391 . S
C256 C257 1.400 . S
C257 C251 1.491 . S
C257 C256 1.400 . S
C257 C258 1.398 . S
C258 H246 0.950 . S
C258 C257 1.398 . S
C258 C259 1.391 . S
C259 H247 0.950 . S
C259 C255 1.393 . S
C259 C258 1.391 . S
H260 C268 0.950 . S
H261 C273 0.950 . S
H262 C270 0.950 . S
H263 C272 0.950 . S
H264 C274 0.950 . S
H265 C276 0.950 . S
H266 C278 0.950 . S
H267 C279 0.950 . S
C268 H260 0.950 . S
C268 C269 1.386 1_554 S
C268 C270 1.391 . S
C269 C268 1.386 1_556 S
C269 C273 1.393 . S
C270 H262 0.950 . S
C270 C268 1.391 . S
C270 C271 1.400 1_554 S
C271 C270 1.400 1_556 S
C271 C272 1.398 . S
C271 C277 1.491 . S
C272 H263 0.950 . S
C272 C271 1.398 . S
C272 C273 1.391 . S
C273 H261 0.950 . S
C273 C269 1.393 . S
C273 C272 1.391 . S
C274 H264 0.950 . S
C274 C275 1.391 . S
C274 C276 1.391 . S
C275 C274 1.391 . S
C275 C279 1.387 1_556 S
C276 H265 0.950 . S
C276 C274 1.391 . S
C276 C277 1.400 . S
C277 C271 1.491 . S
C277 C276 1.400 . S
C277 C278 1.398 1_556 S
C278 H266 0.950 . S
C278 C277 1.398 1_554 S
C278 C279 1.391 . S
C279 H267 0.950 . S
C279 C275 1.387 1_554 S
C279 C278 1.391 . S
H280 C288 0.950 . S
H281 C293 0.950 . S
H282 C290 0.950 . S
H283 C292 0.950 . S
H284 C294 0.950 . S
H285 C296 0.950 . S
H286 C298 0.950 . S
H287 C299 0.950 . S
C288 H280 0.950 . S
C288 C289 1.386 . S
C288 C290 1.391 . S
C289 C288 1.386 . S
C289 C293 1.393 . S
C290 H282 0.950 . S
C290 C288 1.391 . S
C290 C291 1.400 . S
C291 C290 1.400 . S
C291 C292 1.398 . S
C291 C297 1.491 . S
C292 H283 0.950 . S
C292 C291 1.398 . S
C292 C293 1.391 . S
C293 H281 0.950 . S
C293 C289 1.393 . S
C293 C292 1.391 . S
C294 H284 0.950 . S
C294 C295 1.386 . S
C294 C296 1.391 . S
C295 C294 1.386 . S
C295 C299 1.393 . S
C296 H285 0.950 . S
C296 C294 1.391 . S
C296 C297 1.400 . S
C297 C291 1.491 . S
C297 C296 1.400 . S
C297 C298 1.398 . S
C298 H286 0.950 . S
C298 C297 1.398 . S
C298 C299 1.391 . S
C299 H287 0.950 . S
C299 C295 1.393 . S
C299 C298 1.391 . S
H300 C308 0.950 . S
H301 C313 0.950 . S
H302 C310 0.950 . S
H303 C312 0.950 . S
H304 C314 0.950 . S
H305 C316 0.950 . S
H306 C318 0.950 . S
H307 C319 0.950 . S
C308 H300 0.950 . S
C308 C309 1.386 1_556 S
C308 C310 1.391 . S
C309 C308 1.386 1_554 S
C309 C313 1.393 . S
C310 H302 0.950 . S
C310 C308 1.391 . S
C310 C311 1.400 1_556 S
C311 C310 1.400 1_554 S
C311 C312 1.398 . S
C311 C317 1.491 . S
C312 H303 0.950 . S
C312 C311 1.398 . S
C312 C313 1.391 . S
C313 H301 0.950 . S
C313 C309 1.393 . S
C313 C312 1.391 . S
C314 H304 0.950 . S
C314 C315 1.386 . S
C314 C316 1.391 . S
C315 C314 1.386 . S
C315 C319 1.393 1_554 S
C316 H305 0.950 . S
C316 C314 1.391 . S
C316 C317 1.400 . S
C317 C311 1.491 . S
C317 C316 1.400 . S
C317 C318 1.398 1_554 S
C318 H306 0.950 . S
C318 C317 1.398 1_556 S
C318 C319 1.391 . S
C319 H307 0.950 . S
C319 C315 1.393 1_556 S
C319 C318 1.391 . S
H320 C328 0.950 . S
H321 C333 0.950 . S
H322 C330 0.950 . S
H323 C332 0.950 . S
H324 C334 0.950 . S
H325 C336 0.950 . S
H326 C338 0.950 . S
H327 C339 0.957 . S
C328 H320 0.950 . S
C328 C329 1.386 . S
C328 C330 1.391 . S
C329 C328 1.386 . S
C329 C333 1.393 . S
C330 H322 0.950 . S
C330 C328 1.391 . S
C330 C331 1.400 . S
C331 C330 1.400 . S
C331 C332 1.398 . S
C331 C337 1.491 . S
C332 H323 0.950 . S
C332 C331 1.398 . S
C332 C333 1.391 . S
C333 H321 0.950 . S
C333 C329 1.393 . S
C333 C332 1.391 . S
C334 H324 0.950 . S
C334 C335 1.386 . S
C334 C336 1.391 . S
C335 C334 1.386 . S
C335 C339 1.393 . S
C336 H325 0.950 . S
C336 C334 1.391 . S
C336 C337 1.400 . S
C337 C331 1.491 . S
C337 C336 1.400 . S
C337 C338 1.398 . S
C338 H326 0.950 . S
C338 C337 1.398 . S
C338 C339 1.391 . S
C339 H327 0.957 . S
C339 C335 1.393 . S
C339 C338 1.391 . S
H340 C348 0.950 . S
H341 C353 0.950 . S
H342 C350 0.950 . S
H343 C352 0.950 . S
H344 C354 0.950 . S
H345 C356 0.950 . S
H346 C358 0.950 . S
H347 C359 0.950 . S
C348 H340 0.950 . S
C348 C349 1.386 1_556 S
C348 C350 1.391 . S
C349 C348 1.386 1_554 S
C349 C353 1.393 . S
C350 H342 0.950 . S
C350 C348 1.391 . S
C350 C351 1.392 1_556 S
C351 C350 1.392 1_554 S
C351 C352 1.406 . S
C351 C357 1.491 1_554 S
C352 H343 0.950 . S
C352 C351 1.406 . S
C352 C353 1.391 . S
C353 H341 0.950 . S
C353 C349 1.393 . S
C353 C352 1.391 . S
C354 H344 0.950 . S
C354 C355 1.386 1_554 S
C354 C356 1.391 . S
C355 C354 1.386 1_556 S
C355 C359 1.393 . S
C356 H345 0.950 . S
C356 C354 1.391 . S
C356 C357 1.400 1_554 S
C357 C351 1.491 1_556 S
C357 C356 1.400 1_556 S
C357 C358 1.398 . S
C358 H346 0.950 . S
C358 C357 1.398 . S
C358 C359 1.391 . S
C359 H347 0.950 . S
C359 C355 1.393 . S
C359 C358 1.391 . S
H360 C368 0.950 . S
H361 C373 0.950 . S
H362 C370 0.950 . S
H363 C372 0.950 . S
H364 C374 0.950 . S
H365 C376 0.950 . S
H366 C378 0.950 . S
H367 C379 0.950 . S
C368 H360 0.950 . S
C368 C369 1.386 . S
C368 C370 1.391 . S
C369 C368 1.386 . S
C369 C373 1.393 . S
C370 H362 0.950 . S
C370 C368 1.391 . S
C370 C371 1.400 . S
C371 C370 1.400 . S
C371 C372 1.398 . S
C371 C377 1.491 . S
C372 H363 0.950 . S
C372 C371 1.398 . S
C372 C373 1.391 . S
C373 H361 0.950 . S
C373 C369 1.393 . S
C373 C372 1.391 . S
C374 H364 0.950 . S
C374 C375 1.386 . S
C374 C376 1.391 . S
C375 C374 1.386 . S
C375 C379 1.393 . S
C376 H365 0.950 . S
C376 C374 1.391 . S
C376 C377 1.400 . S
C377 C371 1.491 . S
C377 C376 1.400 . S
C377 C378 1.398 . S
C378 H366 0.950 . S
C378 C377 1.398 . S
C378 C379 1.391 . S
C379 H367 0.950 . S
C379 C375 1.393 . S
C379 C378 1.391 . S
H380 C388 0.950 . S
H381 C393 0.950 . S
H382 C390 0.950 . S
H383 C392 0.950 . S
H384 C394 0.950 . S
H385 C396 0.950 . S
H386 C398 0.950 . S
H387 C399 0.950 . S
C388 H380 0.950 . S
C388 C389 1.386 . S
C388 C390 1.391 . S
C389 C388 1.386 . S
C389 C393 1.393 . S
C390 H382 0.950 . S
C390 C388 1.391 . S
C390 C391 1.400 . S
C391 C390 1.400 . S
C391 C392 1.398 . S
C391 C397 1.491 . S
C392 H383 0.950 . S
C392 C391 1.398 . S
C392 C393 1.391 . S
C393 H381 0.950 . S
C393 C389 1.393 . S
C393 C392 1.391 . S
C394 H384 0.950 . S
C394 C395 1.386 . S
C394 C396 1.391 . S
C395 C394 1.386 . S
C395 C399 1.393 . S
C396 H385 0.950 . S
C396 C394 1.391 . S
C396 C397 1.400 . S
C397 C391 1.491 . S
C397 C396 1.400 . S
C397 C398 1.398 . S
C398 H386 0.950 . S
C398 C397 1.398 . S
C398 C399 1.391 . S
C399 H387 0.950 . S
C399 C395 1.393 . S
C399 C398 1.391 . S
H400 C408 0.950 . S
H401 C413 0.950 . S
H402 C410 0.950 . S
H403 C412 0.950 . S
H404 C414 0.950 . S
H405 C416 0.950 . S
H406 C418 0.950 . S
H407 C419 0.950 . S
C408 H400 0.950 . S
C408 C409 1.386 . S
C408 C410 1.391 . S
C409 C408 1.386 . S
C409 C413 1.393 . S
C410 H402 0.950 . S
C410 C408 1.391 . S
C410 C411 1.400 . S
C411 C410 1.400 . S
C411 C412 1.398 . S
C411 C417 1.491 . S
C412 H403 0.950 . S
C412 C411 1.398 . S
C412 C413 1.391 . S
C413 H401 0.950 . S
C413 C409 1.393 . S
C413 C412 1.391 . S
C414 H404 0.950 . S
C414 C415 1.386 . S
C414 C416 1.391 . S
C415 C414 1.386 . S
C415 C419 1.393 . S
C416 H405 0.950 . S
C416 C414 1.391 . S
C416 C417 1.400 . S
C417 C411 1.491 . S
C417 C416 1.400 . S
C417 C418 1.398 . S
C418 H406 0.950 . S
C418 C417 1.398 . S
C418 C419 1.391 . S
C419 H407 0.950 . S
C419 C415 1.393 . S
C419 C418 1.391 . S
H420 C428 0.950 . S
H421 C433 0.950 . S
H422 C430 0.950 . S
H423 C432 0.950 . S
H424 C434 0.950 . S
H425 C436 0.950 . S
H426 C438 0.950 . S
H427 C439 0.950 . S
C428 H420 0.950 . S
C428 C429 1.386 . S
C428 C430 1.391 . S
C429 C428 1.386 . S
C429 C433 1.393 . S
C430 H422 0.950 . S
C430 C428 1.391 . S
C430 C431 1.400 . S
C431 C430 1.400 . S
C431 C432 1.398 . S
C431 C437 1.491 . S
C432 H423 0.950 . S
C432 C431 1.398 . S
C432 C433 1.391 . S
C433 H421 0.950 . S
C433 C429 1.393 . S
C433 C432 1.391 . S
C434 H424 0.950 . S
C434 C435 1.386 . S
C434 C436 1.391 . S
C435 C434 1.386 . S
C435 C439 1.393 . S
C436 H425 0.950 . S
C436 C434 1.391 . S
C436 C437 1.400 . S
C437 C431 1.491 . S
C437 C436 1.400 . S
C437 C438 1.398 . S
C438 H426 0.950 . S
C438 C437 1.398 . S
C438 C439 1.391 . S
C439 H427 0.950 . S
C439 C435 1.393 . S
C439 C438 1.391 . S
H440 C448 0.950 . S
H441 C453 0.950 . S
H442 C450 0.950 . S
H443 C452 0.950 . S
H444 C454 0.950 . S
H445 C456 0.950 . S
H446 C458 0.950 . S
H447 C459 0.950 . S
C448 H440 0.950 . S
C448 C449 1.386 . S
C448 C450 1.391 . S
C449 C448 1.386 . S
C449 C453 1.393 . S
C450 H442 0.950 . S
C450 C448 1.391 . S
C450 C451 1.400 . S
C451 C450 1.400 . S
C451 C452 1.398 . S
C451 C457 1.491 . S
C452 H443 0.950 . S
C452 C451 1.398 . S
C452 C453 1.391 . S
C453 H441 0.950 . S
C453 C449 1.393 . S
C453 C452 1.391 . S
C454 H444 0.950 . S
C454 C455 1.386 . S
C454 C456 1.391 . S
C455 C454 1.386 . S
C455 C459 1.393 . S
C456 H445 0.950 . S
C456 C454 1.391 . S
C456 C457 1.400 . S
C457 C451 1.491 . S
C457 C456 1.400 . S
C457 C458 1.398 . S
C458 H446 0.950 . S
C458 C457 1.398 . S
C458 C459 1.391 . S
C459 H447 0.950 . S
C459 C455 1.393 . S
C459 C458 1.391 . S
H460 C468 0.950 . S
H461 C473 0.950 . S
H462 C470 0.950 . S
H463 C472 0.950 . S
H464 C474 0.950 . S
H465 C476 0.950 . S
H466 C478 0.950 . S
H467 C479 0.950 . S
C468 H460 0.950 . S
C468 C469 1.386 . S
C468 C470 1.391 . S
C469 C468 1.386 . S
C469 C473 1.393 . S
C470 H462 0.950 . S
C470 C468 1.391 . S
C470 C471 1.400 . S
C471 C470 1.400 . S
C471 C472 1.398 . S
C471 C477 1.491 . S
C472 H463 0.950 . S
C472 C471 1.398 . S
C472 C473 1.391 . S
C473 H461 0.950 . S
C473 C469 1.393 . S
C473 C472 1.391 . S
C474 H464 0.950 . S
C474 C475 1.386 . S
C474 C476 1.391 . S
C475 C474 1.386 . S
C475 C479 1.393 . S
C476 H465 0.950 . S
C476 C474 1.391 . S
C476 C477 1.400 . S
C477 C471 1.491 . S
C477 C476 1.400 . S
C477 C478 1.398 . S
C478 H466 0.950 . S
C478 C477 1.398 . S
C478 C479 1.391 . S
C479 H467 0.950 . S
C479 C475 1.393 . S
C479 C478 1.391 . S
C129 C101 1.353 . S
C135 C1 1.359 . S
C149 C19 1.271 . S
C155 C21 1.127 . S
C169 C39 0.961 . S
C175 C41 0.983 . S
C189 C61 1.713 . S
C195 C59 1.797 . S
C209 C81 1.650 . S
C215 C79 1.793 . S
C229 C99 1.301 . S
C235 C119 1.346 . S
C249 C98 1.714 . S
C255 C2 1.704 . S
C269 C102 1.309 . S
C275 C22 1.318 . S
C289 C42 1.476 . S
C295 C18 1.461 . S
C309 C62 1.755 . S
C315 C38 1.795 1_554 S
C329 C82 2.044 . S
C335 C58 2.057 . S
C349 C78 2.242 1_554 S
C355 C118 2.233 1_556 S
C369 C8 1.434 . S
C375 C9 1.434 . S
C389 C28 1.423 . S
C395 C29 1.423 . S
C409 C48 1.442 . S
C415 C49 1.442 . S
C429 C68 1.416 . S
C435 C69 1.416 . S
C449 C89 1.411 . S
C455 C88 1.411 . S
C469 C109 1.427 . S
C475 C108 1.427 . S
