# Generated by pormake.
# Topology vmb, (5)-cn, num edge types: 1
# Building blocks:
#     Node 0, Type 0, BuildingBlock: BEQFEK_clean_sbu_0, # of connection points: 5
#     Node 1, Type 0, BuildingBlock: BEQFEK_clean_sbu_0, # of connection points: 5
#     Node 2, Type 0, BuildingBlock: BEQFEK_clean_sbu_0, # of connection points: 5
#     Node 3, Type 0, BuildingBlock: BEQFEK_clean_sbu_0, # of connection points: 5
#     Node 4, Type 0, BuildingBlock: BEQFEK_clean_sbu_0, # of connection points: 5
#     Node 5, Type 0, BuildingBlock: BEQFEK_clean_sbu_0, # of connection points: 5
#     Node 6, Type 0, BuildingBlock: BEQFEK_clean_sbu_0, # of connection points: 5
#     Node 7, Type 0, BuildingBlock: BEQFEK_clean_sbu_0, # of connection points: 5
#     Edge 8, Type (0, 0), BuildingBlock: CIFDUS_clean_linker_0, # of connection points: 2
#     Edge 9, Type (0, 0), BuildingBlock: CIFDUS_clean_linker_0, # of connection points: 2
#     Edge 10, Type (0, 0), BuildingBlock: CIFDUS_clean_linker_0, # of connection points: 2
#     Edge 11, Type (0, 0), BuildingBlock: CIFDUS_clean_linker_0, # of connection points: 2
#     Edge 12, Type (0, 0), BuildingBlock: CIFDUS_clean_linker_0, # of connection points: 2
#     Edge 13, Type (0, 0), BuildingBlock: CIFDUS_clean_linker_0, # of connection points: 2
#     Edge 14, Type (0, 0), BuildingBlock: CIFDUS_clean_linker_0, # of connection points: 2
#     Edge 15, Type (0, 0), BuildingBlock: CIFDUS_clean_linker_0, # of connection points: 2
#     Edge 16, Type (0, 0), BuildingBlock: CIFDUS_clean_linker_0, # of connection points: 2
#     Edge 17, Type (0, 0), BuildingBlock: CIFDUS_clean_linker_0, # of connection points: 2
#     Edge 18, Type (0, 0), BuildingBlock: CIFDUS_clean_linker_0, # of connection points: 2
#     Edge 19, Type (0, 0), BuildingBlock: CIFDUS_clean_linker_0, # of connection points: 2
#     Edge 20, Type (0, 0), BuildingBlock: CIFDUS_clean_linker_0, # of connection points: 2
#     Edge 21, Type (0, 0), BuildingBlock: CIFDUS_clean_linker_0, # of connection points: 2
#     Edge 22, Type (0, 0), BuildingBlock: CIFDUS_clean_linker_0, # of connection points: 2
#     Edge 23, Type (0, 0), BuildingBlock: CIFDUS_clean_linker_0, # of connection points: 2
#     Edge 24, Type (0, 0), BuildingBlock: CIFDUS_clean_linker_0, # of connection points: 2
#     Edge 25, Type (0, 0), BuildingBlock: CIFDUS_clean_linker_0, # of connection points: 2
#     Edge 26, Type (0, 0), BuildingBlock: CIFDUS_clean_linker_0, # of connection points: 2
#     Edge 27, Type (0, 0), BuildingBlock: CIFDUS_clean_linker_0, # of connection points: 2
# Relax obj value: 0.032
# Max RMSD: 0.084
# Mean RMSD: 0.084
data_MOF--net-vmb--node1-BEQFEK_clean_sbu_0--edge1-CIFDUS_clean_linker_0
_symmetry_space_group_name_H-M    P1
_symmetry_Int_Tables_number       1
_symmetry_cell_setting            triclinic
loop_
_symmetry_equiv_pos_as_xyz
'x, y, z'
_cell_length_a     37.393988
_cell_length_b     34.255916
_cell_length_c     26.220913
_cell_angle_alpha  90.089576
_cell_angle_beta   112.61332
_cell_angle_gamma 89.958888
loop_
_atom_site_label
_atom_site_type_symbol
_atom_site_fract_x
_atom_site_fract_y
_atom_site_fract_z
_atom_type_partial_charge
Co0 Co 0.18519 0.05971 0.36751 0.0
Co1 Co 0.27646 0.06086 0.41495 0.0
C2 C 0.23196 0.01183 0.46551 0.0
O3 O 0.19953 0.02263 0.4296 0.0
O4 O 0.2639 0.02407 0.46459 0.0
C5 C 0.1093 0.0265 0.32689 0.0
O6 O 0.12825 -0.00473 0.35219 0.0
C7 C 0.35565 0.02998 0.44886 0.0
C8 C 0.38921 0.08324 0.4499 0.0
C9 C 0.39297 0.0434 0.45967 0.0
N10 N 0.3312 0.06049 0.43374 0.0
N11 N 0.35147 0.09226 0.43462 0.0
C12 C 0.34272 0.98876 0.44963 0.0
H13 H 0.31227 0.9852 0.4201 0.0
H14 H 0.36175 0.96815 0.43906 0.0
H15 H 0.34406 0.98179 0.49164 0.0
C16 C 0.19704 0.03874 0.26534 0.0
N17 N 0.2108 0.04778 0.31951 0.0
N18 N 0.24883 0.04972 0.33853 0.0
C19 C 0.26046 0.04325 0.29653 0.0
C20 C 0.22802 0.03586 0.24858 0.0
C21 C 0.15526 0.0301 0.23194 0.0
H22 H 0.14426 0.00961 0.25511 0.0
H23 H 0.15079 0.01655 0.19157 0.0
H24 H 0.13823 0.0575 0.2253 0.0
O25 O 0.19872 0.11321 0.39916 0.0
O26 O 0.26307 0.11313 0.43254 0.0
H27 H 0.3037 0.04965 0.26077 0.0
H28 H 0.31828 0.02117 0.32361 0.0
C29 C 0.3016 0.04705 0.30167 0.0
H30 H 0.31477 0.07338 0.32625 0.0
H31 H 0.3395 0.12011 0.42464 0.0
O32 O 0.12808 0.05754 0.32744 0.0
C33 C 0.23112 0.13012 0.42464 0.0
Co34 Co 0.8046 0.08059 0.1158 0.0
Co35 Co 0.71538 0.06564 0.07825 0.0
C36 C 0.76114 0.024 0.02445 0.0
O37 O 0.79174 0.04169 0.05546 0.0
O38 O 0.72889 0.02947 0.02926 0.0
C39 C 0.88152 0.05334 0.16215 0.0
O40 O 0.86331 0.01965 0.15264 0.0
C41 C 0.64057 0.02654 0.05235 0.0
C42 C 0.60546 0.07408 0.06672 0.0
C43 C 0.60411 0.03524 0.05142 0.0
N44 N 0.66264 0.05872 0.06822 0.0
N45 N 0.64148 0.08704 0.07659 0.0
C46 C 0.65386 0.98943 0.03499 0.0
H47 H 0.68229 0.98064 0.06666 0.0
H48 H 0.63262 0.96545 0.02781 0.0
H49 H 0.65808 -0.00522 0.99597 0.0
C50 C 0.80219 0.06166 0.22497 0.0
N51 N 0.78494 0.06645 0.16984 0.0
N52 N 0.7479 0.05813 0.15378 0.0
C53 C 0.7406 0.0465 0.19796 0.0
C54 C 0.77477 0.04859 0.24473 0.0
C55 C 0.84361 0.07159 0.25849 0.0
H56 H 0.85266 0.09707 0.24032 0.0
H57 H 0.86218 0.04632 0.25851 0.0
H58 H 0.84794 0.07842 0.30186 0.0
O59 O 0.78274 0.13054 0.08137 0.0
O60 O 0.71946 0.12002 0.05413 0.0
H61 H 0.6816 0.05507 0.18773 0.0
H62 H 0.70486 0.01446 0.23212 0.0
C63 C 0.7024 0.03064 0.19436 0.0
H64 H 0.69083 0.01044 0.15879 0.0
H65 H 0.6517 0.11522 0.08916 0.0
O66 O 0.86177 0.08461 0.14938 0.0
C67 C 0.7478 0.14189 0.0574 0.0
Co68 Co 0.81129 0.92172 0.6202 0.0
Co69 Co 0.72036 0.93158 0.57945 0.0
C70 C 0.76493 0.97537 0.52604 0.0
O71 O 0.79637 0.95943 0.55794 0.0
O72 O 0.73282 0.96822 0.53044 0.0
C73 C 0.88623 0.95513 0.66909 0.0
O74 O 0.86512 0.98706 0.65798 0.0
C75 C 0.64146 0.96448 0.54597 0.0
C76 C 0.60939 0.91404 0.55943 0.0
C77 C 0.60464 0.95233 0.54087 0.0
N78 N 0.66634 0.93463 0.56605 0.0
N79 N 0.64694 0.90462 0.57399 0.0
C80 C 0.6538 0.00429 0.53581 0.0
H81 H 0.68486 0.0091 0.56173 0.0
H82 H 0.63617 0.02719 0.5451 0.0
H83 H 0.64998 0.00668 0.49182 0.0
C84 C 0.80524 0.94038 0.72731 0.0
N85 N 0.78912 0.93483 0.67223 0.0
N86 N 0.75156 0.94099 0.65491 0.0
C87 C 0.74278 0.95193 0.69813 0.0
C88 C 0.77653 0.95175 0.74566 0.0
C89 C 0.84687 0.93239 0.76222 0.0
H90 H 0.85766 0.90768 0.74476 0.0
H91 H 0.86436 0.95868 0.76296 0.0
H92 H 0.85068 0.92528 0.80528 0.0
O93 O 0.79285 0.87 0.58748 0.0
O94 O 0.72901 0.87772 0.55811 0.0
H95 H 0.68465 0.9389 0.68844 0.0
H96 H 0.70428 0.98215 0.72925 0.0
C97 C 0.70329 0.96491 0.69293 0.0
H98 H 0.69011 0.98319 0.65557 0.0
H99 H 0.65935 0.87759 0.58914 0.0
O100 O 0.8692 0.92228 0.65622 0.0
C101 C 0.75849 0.85702 0.56307 0.0
Co102 Co 0.19576 0.90675 0.87125 0.0
Co103 Co 0.28684 0.90088 0.91887 0.0
C104 C 0.2428 0.94502 0.97686 0.0
O105 O 0.2094 0.94003 0.93878 0.0
O106 O 0.27316 0.93122 0.97269 0.0
C107 C 0.11639 0.93594 0.82703 0.0
O108 O 0.13157 0.96782 0.85483 0.0
C109 C 0.36294 0.93675 0.94787 0.0
C110 C 0.40112 0.88546 0.95929 0.0
C111 C 0.40113 0.92594 0.95977 0.0
N112 N 0.34142 0.9042 0.9397 0.0
N113 N 0.36441 0.87362 0.94692 0.0
C114 C 0.34702 0.97708 0.94616 0.0
H115 H 0.31977 0.97637 0.95343 0.0
H116 H 0.34033 0.98993 0.90472 0.0
H117 H 0.36844 -0.00394 0.97748 0.0
C118 C 0.21121 0.93663 0.77401 0.0
N119 N 0.22295 0.92259 0.82602 0.0
N120 N 0.26075 0.91774 0.8455 0.0
C121 C 0.27404 0.92689 0.80608 0.0
C122 C 0.24336 0.93994 0.75977 0.0
C123 C 0.17036 0.94818 0.74007 0.0
H124 H 0.15237 0.9215 0.72624 0.0
H125 H 0.15861 0.96554 0.76581 0.0
H126 H 0.16835 0.96567 0.70353 0.0
O127 O 0.20923 0.85144 0.89785 0.0
O128 O 0.27332 0.84736 0.92683 0.0
H129 H 0.31533 0.91488 0.76869 0.0
H130 H 0.33331 0.9442 0.83027 0.0
C131 C 0.3145 0.91908 0.8102 0.0
H132 H 0.3261 0.89247 0.83501 0.0
H133 H 0.35497 0.8447 0.94286 0.0
O134 O 0.13849 0.90743 0.82804 0.0
C135 C 0.24069 0.83197 0.91872 0.0
Co136 Co 0.71573 0.57937 0.3725 0.0
Co137 Co 0.80709 0.57628 0.4306 0.0
C138 C 0.7546 0.53355 0.47529 0.0
O139 O 0.72384 0.5441 0.43549 0.0
O140 O 0.78815 0.54408 0.47853 0.0
C141 C 0.63288 0.57358 0.34085 0.0
O142 O 0.64212 0.56671 0.39367 0.0
C143 C 0.88673 0.54318 0.46869 0.0
C144 C 0.92129 0.59734 0.48243 0.0
C145 C 0.92452 0.55706 0.48507 0.0
N146 N 0.86248 0.57397 0.45645 0.0
N147 N 0.88343 0.60618 0.46493 0.0
C148 C 0.87389 0.50172 0.46763 0.0
H149 H 0.84468 0.50043 0.46911 0.0
H150 H 0.87238 0.48754 0.42883 0.0
H151 H 0.89496 0.48527 0.50286 0.0
C152 C 0.73419 0.54816 0.27982 0.0
N153 N 0.74521 0.56166 0.33192 0.0
N154 N 0.78328 0.56236 0.355 0.0
C155 C 0.79772 0.55134 0.31736 0.0
C156 C 0.76714 0.54136 0.26857 0.0
C157 C 0.69304 0.53904 0.24364 0.0
H158 H 0.67771 0.5271 0.26892 0.0
H159 H 0.69127 0.51743 0.21121 0.0
H160 H 0.67822 0.56632 0.22372 0.0
O161 O 0.73053 0.63385 0.40179 0.0
O162 O 0.79471 0.63034 0.43964 0.0
H163 H 0.84339 0.55692 0.28646 0.0
H164 H 0.85476 0.52703 0.34711 0.0
C165 C 0.83968 0.55388 0.32627 0.0
H166 H 0.85325 0.57937 0.35264 0.0
H167 H 0.87186 0.63431 0.45855 0.0
O168 O 0.6597 0.57999 0.32338 0.0
C169 C 0.76352 0.64962 0.42749 0.0
Co170 Co 0.32073 0.56065 0.14168 0.0
Co171 Co 0.22969 0.55956 0.08555 0.0
C172 C 0.27825 0.51171 0.04134 0.0
O173 O 0.30985 0.52217 0.07992 0.0
O174 O 0.24555 0.52392 0.03922 0.0
C175 C 0.40337 0.5667 0.17177 0.0
O176 O 0.39365 0.57648 0.11973 0.0
C177 C 0.14997 0.5298 0.04056 0.0
C178 C 0.11699 0.58135 0.04879 0.0
C179 C 0.11279 0.54271 0.03168 0.0
N180 N 0.17477 0.55945 0.06191 0.0
N181 N 0.15486 0.59027 0.06625 0.0
C182 C 0.16261 0.48919 0.0344 0.0
H183 H 0.16057 0.48499 0.9914 0.0
H184 H 0.19316 0.4845 0.06278 0.0
H185 H 0.14388 0.4673 0.04318 0.0
C186 C 0.30243 0.54534 0.24044 0.0
N187 N 0.29151 0.5505 0.18561 0.0
N188 N 0.25361 0.54758 0.16176 0.0
C189 C 0.23925 0.53899 0.20036 0.0
C190 C 0.26969 0.53759 0.25185 0.0
C191 C 0.34313 0.55093 0.28115 0.0
H192 H 0.35638 0.5763 0.26882 0.0
H193 H 0.36042 0.5246 0.28114 0.0
H194 H 0.34421 0.55608 0.32349 0.0
O195 O 0.30844 0.6133 0.10825 0.0
O196 O 0.24412 0.61233 0.07065 0.0
H197 H 0.18055 0.55724 0.17877 0.0
H198 H 0.1934 0.51393 0.22147 0.0
C199 C 0.19752 0.52974 0.1873 0.0
H200 H 0.18622 0.51109 0.15005 0.0
H201 H 0.16725 0.61718 0.08214 0.0
O202 O 0.37689 0.55852 0.18917 0.0
C203 C 0.27617 0.62972 0.08063 0.0
Co204 Co 0.31893 0.4024 0.64264 0.0
Co205 Co 0.22776 0.40719 0.58261 0.0
C206 C 0.27972 0.44769 0.53728 0.0
O207 O 0.3094 0.43411 0.57617 0.0
O208 O 0.24558 0.44143 0.53527 0.0
C209 C 0.39693 0.43163 0.6864 0.0
O210 O 0.38046 0.46295 0.65829 0.0
C211 C 0.14762 0.43885 0.54528 0.0
C212 C 0.11388 0.38412 0.53129 0.0
C213 C 0.11007 0.42436 0.52915 0.0
N214 N 0.17233 0.40844 0.55703 0.0
N215 N 0.15186 0.37589 0.54834 0.0
C216 C 0.1598 0.48057 0.54658 0.0
H217 H 0.18874 0.48253 0.5443 0.0
H218 H 0.16166 0.49429 0.58584 0.0
H219 H 0.1382 0.49702 0.51192 0.0
C220 C 0.29999 0.43248 0.73598 0.0
N221 N 0.28953 0.42053 0.68319 0.0
N222 N 0.25146 0.42001 0.6592 0.0
C223 C 0.23651 0.42979 0.69675 0.0
C224 C 0.26667 0.43869 0.74656 0.0
C225 C 0.34105 0.44001 0.77396 0.0
H226 H 0.35553 0.41178 0.79006 0.0
H227 H 0.35672 0.45433 0.75085 0.0
H228 H 0.34284 0.45911 0.80903 0.0
O229 O 0.30455 0.34805 0.61638 0.0
O230 O 0.24102 0.3533 0.57061 0.0
H231 H 0.18137 0.40121 0.66011 0.0
H232 H 0.19018 0.42309 0.72624 0.0
C233 C 0.19441 0.42666 0.68688 0.0
H234 H 0.17918 0.45347 0.6661 0.0
H235 H 0.16386 0.34793 0.55432 0.0
O236 O 0.37583 0.40271 0.68727 0.0
C237 C 0.27201 0.33327 0.58611 0.0
Co238 Co 0.70228 0.41993 0.86856 0.0
Co239 Co 0.79335 0.41897 0.9197 0.0
C240 C 0.7475 0.46288 0.97285 0.0
O241 O 0.71526 0.45383 0.93478 0.0
O242 O 0.77955 0.45113 0.972 0.0
C243 C 0.62724 0.45516 0.82385 0.0
O244 O 0.6472 0.48688 0.84501 0.0
C245 C 0.87147 0.45157 0.95856 0.0
C246 C 0.90663 0.40012 0.9566 0.0
C247 C 0.90906 0.43973 0.96833 0.0
N248 N 0.84806 0.42043 0.94176 0.0
N249 N 0.86925 0.38967 0.94118 0.0
C250 C 0.85715 0.49213 0.96049 0.0
H251 H 0.85973 0.49867 0.00322 0.0
H252 H 0.82618 0.49468 0.93261 0.0
H253 H 0.87459 0.51376 0.9485 0.0
C254 C 0.71815 0.45068 0.77186 0.0
N255 N 0.72967 0.4367 0.8239 0.0
N256 N 0.7678 0.43543 0.8457 0.0
C257 C 0.78168 0.44753 0.80808 0.0
C258 C 0.75088 0.45825 0.76034 0.0
C259 C 0.67686 0.45914 0.73588 0.0
H260 H 0.65887 0.43294 0.73352 0.0
H261 H 0.66613 0.48309 0.7547 0.0
H262 H 0.67344 0.46818 0.69372 0.0
O263 O 0.7154 0.36441 0.89402 0.0
O264 O 0.7797 0.36527 0.92696 0.0
H265 H 0.83691 0.41895 0.83694 0.0
H266 H 0.82742 0.44834 0.77649 0.0
C267 C 0.8236 0.44651 0.81633 0.0
H268 H 0.83888 0.4714 0.84277 0.0
H269 H 0.85807 0.36171 0.92923 0.0
O270 O 0.64509 0.42298 0.82771 0.0
C271 C 0.74802 0.34718 0.91627 0.0
H272 H 0.19654 -0.00032 0.99795 0.0
H273 H 0.29758 0.92758 0.07677 0.0
H274 H 0.30179 0.94914 0.16725 0.0
H275 H 0.27479 0.98519 0.2245 0.0
H276 H 0.17881 0.06351 0.14799 0.0
H277 H 0.17404 0.0423 0.05634 0.0
C278 C 0.21961 0.98905 0.03499 0.0
C279 C 0.24654 0.96195 0.03057 0.0
C280 C 0.22248 0.00223 0.08735 0.0
C281 C 0.27655 0.94864 0.07889 0.0
C282 C 0.27892 0.96075 0.1308 0.0
C283 C 0.25336 -0.00173 0.18782 0.0
C284 C 0.22686 0.02542 0.19301 0.0
C285 C 0.25181 0.98715 0.13555 0.0
C286 C 0.19894 0.04175 0.14502 0.0
C287 C 0.1964 0.02987 0.09263 0.0
H288 H 0.73082 0.06645 0.30357 0.0
H289 H 0.83319 0.00346 0.31358 0.0
H290 H 0.84219 0.97996 0.4055 0.0
H291 H 0.81766 0.97219 0.47884 0.0
H292 H 0.71138 0.02912 0.46516 0.0
H293 H 0.70697 0.05992 0.37876 0.0
C294 C 0.75501 0.0475 0.32596 0.0
C295 C 0.78122 0.03658 0.30185 0.0
C296 C 0.75915 0.03287 0.37795 0.0
C297 C 0.81287 0.01263 0.33154 0.0
C298 C 0.81786 -0.00106 0.38392 0.0
C299 C 0.79388 0.99191 0.45754 0.0
C300 C 0.76491 -0.00158 0.47841 0.0
C301 C 0.79079 0.00827 0.40704 0.0
C302 C 0.73401 0.02361 0.44986 0.0
C303 C 0.73142 0.04111 0.40041 0.0
H304 H 0.73219 0.93211 0.80342 0.0
H305 H 0.83209 -0.00026 0.81417 0.0
H306 H 0.83924 0.02343 0.90528 0.0
H307 H 0.81389 0.0297 0.97775 0.0
H308 H 0.70997 0.96799 0.96377 0.0
H309 H 0.70735 0.9374 0.87792 0.0
C310 C 0.7554 0.95213 0.82576 0.0
C311 C 0.78155 0.9642 0.80213 0.0
C312 C 0.75847 0.96683 0.87735 0.0
C313 C 0.81192 0.9896 0.83179 0.0
C314 C 0.81585 0.00341 0.88371 0.0
C315 C 0.791 0.00903 0.95653 0.0
C316 C 0.76216 0.00113 0.97713 0.0
C317 C 0.78892 -0.00725 0.90642 0.0
C318 C 0.73245 0.97466 0.94866 0.0
C319 C 0.73089 0.95725 0.89952 0.0
H320 H 0.19791 0.92275 0.65241 0.0
H321 H 0.29528 -0.00732 0.75358 0.0
H322 H 0.30366 0.01676 0.67145 0.0
H323 H 0.28187 0.02023 0.57096 0.0
H324 H 0.18048 0.9562 0.46832 0.0
H325 H 0.17513 0.9273 0.55057 0.0
C326 C 0.22062 0.9436 0.65623 0.0
C327 C 0.24604 0.95582 0.70887 0.0
C328 C 0.22476 0.95805 0.60858 0.0
C329 C 0.27567 0.98247 0.71344 0.0
C330 C 0.28046 -0.0037 0.66654 0.0
C331 C 0.25909 -0.00068 0.56661 0.0
C332 C 0.23197 0.98984 0.51383 0.0
C333 C 0.25519 0.98433 0.61393 0.0
C334 C 0.20192 0.96358 0.50869 0.0
C335 C 0.1987 0.9473 0.55565 0.0
H336 H 0.72214 0.55914 0.16161 0.0
H337 H 0.81734 0.48617 0.26146 0.0
H338 H 0.82223 0.45885 0.17853 0.0
H339 H 0.79753 0.45314 0.0779 0.0
H340 H 0.69699 0.51921 0.97739 0.0
H341 H 0.69552 0.55136 0.06022 0.0
C342 C 0.74364 0.53695 0.16513 0.0
C343 C 0.76955 0.52496 0.21764 0.0
C344 C 0.7452 0.52008 0.11716 0.0
C345 C 0.79763 0.49658 0.22158 0.0
C346 C 0.80023 0.48067 0.17417 0.0
C347 C 0.77558 0.47493 0.07412 0.0
C348 C 0.74767 0.4842 0.02181 0.0
C349 C 0.77404 0.49202 0.12181 0.0
C350 C 0.71884 0.51179 0.0174 0.0
C351 C 0.71798 0.53008 0.06466 0.0
H352 H 0.31814 0.49051 0.33129 0.0
H353 H 0.21729 0.56342 0.2942 0.0
H354 H 0.211 0.54241 0.37956 0.0
H355 H 0.23312 0.5008 0.46336 0.0
H356 H 0.33872 0.43449 0.50398 0.0
H357 H 0.34503 0.45666 0.41981 0.0
C358 C 0.29533 0.5026 0.34244 0.0
C359 C 0.26786 0.52795 0.30599 0.0
C360 C 0.29286 0.4917 0.39248 0.0
C361 C 0.23819 0.54294 0.32085 0.0
C362 C 0.23477 0.53121 0.36987 0.0
C363 C 0.2577 0.49165 0.45397 0.0
C364 C 0.28521 0.46584 0.48969 0.0
C365 C 0.26168 0.50513 0.40572 0.0
C366 C 0.31716 0.45448 0.47735 0.0
C367 C 0.32073 0.46693 0.429 0.0
H368 H 0.2307 0.52217 0.9357 0.0
H369 H 0.32974 0.45522 0.03865 0.0
H370 H 0.3337 0.42463 0.95612 0.0
H371 H 0.30963 0.41875 0.85411 0.0
H372 H 0.2164 0.49358 0.75337 0.0
H373 H 0.20895 0.51873 0.83558 0.0
C374 C 0.25284 0.50043 0.94018 0.0
C375 C 0.27952 0.49042 0.99307 0.0
C376 C 0.25593 0.48449 0.89285 0.0
C377 C 0.3087 0.46308 0.99824 0.0
C378 C 0.31101 0.44575 0.95113 0.0
C379 C 0.28803 0.4409 0.85029 0.0
C380 C 0.26333 0.45397 0.79757 0.0
C381 C 0.28503 0.45663 0.89812 0.0
C382 C 0.23516 0.48231 0.79328 0.0
C383 C 0.23107 0.49697 0.84032 0.0
H384 H 0.71387 0.43801 0.65171 0.0
H385 H 0.79522 0.52029 0.75986 0.0
H386 H 0.80633 0.54824 0.6817 0.0
H387 H 0.79287 0.54962 0.58277 0.0
H388 H 0.70626 0.47306 0.47204 0.0
H389 H 0.69701 0.44245 0.55072 0.0
C390 C 0.73341 0.46252 0.65779 0.0
C391 C 0.75383 0.47703 0.71133 0.0
C392 C 0.739 0.4791 0.61234 0.0
C393 C 0.77952 0.50843 0.71897 0.0
C394 C 0.78589 0.5244 0.67438 0.0
C395 C 0.77235 0.52587 0.57607 0.0
C396 C 0.75083 0.51293 0.52217 0.0
C397 C 0.76604 0.50979 0.621 0.0
C398 C 0.72344 0.48303 0.51351 0.0
C399 C 0.71804 0.46574 0.55836 0.0
H400 H 0.54367 0.94115 0.57062 0.0
H401 H 0.58006 0.01002 0.46147 0.0
H402 H 0.51842 0.04449 0.42824 0.0
H403 H 0.45352 0.05479 0.42919 0.0
H404 H 0.41609 0.98409 0.53536 0.0
H405 H 0.47821 0.95001 0.56953 0.0
C406 C 0.53818 0.96375 0.53959 0.0
C407 C 0.56722 0.97382 0.52017 0.0
C408 C 0.50211 0.98274 0.5194 0.0
C409 C 0.55927 0.0028 0.47935 0.0
C410 C 0.52362 0.02218 0.45955 0.0
C411 C 0.45898 0.03181 0.45969 0.0
C412 C 0.42997 0.0215 0.47893 0.0
C413 C 0.49487 0.01246 0.47936 0.0
C414 C 0.43743 0.99181 0.51858 0.0
C415 C 0.47315 0.9726 0.53863 0.0
H416 H 0.47492 0.91068 0.02815 0.0
H417 H 0.40491 -0.00358 0.91222 0.0
H418 H 0.46139 0.03795 0.93162 0.0
H419 H 0.531 0.05011 0.98159 0.0
H420 H 0.60176 0.96351 0.09454 0.0
H421 H 0.54496 0.92174 0.0756 0.0
C422 C 0.47206 0.93847 0.00714 0.0
C423 C 0.43544 0.95104 0.97037 0.0
C424 C 0.50493 0.96183 0.01751 0.0
C425 C 0.43227 0.98682 0.94279 0.0
C426 C 0.46474 0.01039 0.95322 0.0
C427 C 0.53384 0.02198 0.00175 0.0
C428 C 0.57033 0.0094 0.03851 0.0
C429 C 0.50114 -0.00171 0.99071 0.0
C430 C 0.57395 0.97317 0.06492 0.0
C431 C 0.54149 0.9495 0.05447 0.0
H432 H 0.93899 0.48949 0.44072 0.0
H433 H 0.99368 0.57738 0.56403 0.0
H434 H 0.05623 0.54496 0.58796 0.0
H435 H 0.09525 0.49131 0.5744 0.0
H436 H 0.0407 0.4035 0.45093 0.0
H437 H 0.97803 0.43565 0.4274 0.0
C438 C 0.96436 0.50103 0.47369 0.0
C439 C 0.96151 0.53536 0.50133 0.0
C440 C 1.00033 0.4824 0.48694 0.0
C441 C 0.99509 0.55082 0.5424 0.0
C442 C 0.03087 0.53234 0.55607 0.0
C443 C 0.06989 0.47971 0.54149 0.0
C444 C 0.07283 0.44556 0.51359 0.0
C445 C 0.0339 0.49824 0.52839 0.0
C446 C 0.03923 0.42997 0.47271 0.0
C447 C 1.00338 0.44829 0.45927 0.0
H448 H 0.05376 0.55127 0.06592 0.0
H449 H 0.08883 0.48513 0.95283 0.0
H450 H 0.02913 0.44713 0.92426 0.0
H451 H 0.967 0.43251 0.93172 0.0
H452 H 0.93152 0.49929 0.04378 0.0
H453 H 0.99098 0.53774 0.07174 0.0
C454 C 0.04825 0.52862 0.03487 0.0
C455 C 0.07616 0.52033 0.01263 0.0
C456 C 0.01365 0.50724 0.01814 0.0
C457 C 0.06853 0.49113 0.97214 0.0
C458 C 0.03418 0.46966 0.95533 0.0
C459 C 0.97234 0.45551 0.96226 0.0
C460 C 0.94468 0.4635 0.985 0.0
C461 C 1.00668 0.47729 0.97834 0.0
C462 C 0.95186 0.4933 0.02453 0.0
C463 C 0.98603 0.51505 0.04092 0.0
H464 H 0.06089 0.08684 0.27793 0.0
H465 H 0.06215 0.96286 0.3081 0.0
H466 H 0.99203 0.96019 0.25881 0.0
H467 H 0.93032 -0.00701 0.20807 0.0
H468 H 0.92857 0.11719 0.17953 0.0
H469 H 0.99895 0.11975 0.22724 0.0
C470 C 0.04585 0.05921 0.27366 0.0
C471 C 0.06678 0.02511 0.29671 0.0
C472 C 1.00543 0.05789 0.24558 0.0
C473 C 0.04679 0.98959 0.2909 0.0
C474 C 1.00666 0.988 0.26266 0.0
C475 C 0.9453 0.02063 0.21207 0.0
C476 C 0.9242 0.05482 0.19015 0.0
C477 C 0.9857 0.02196 0.23995 0.0
C478 C 0.9441 0.09041 0.19604 0.0
C479 C 0.98436 0.09192 0.22331 0.0
H480 H 0.06279 -0.00599 0.80499 0.0
H481 H 0.07452 0.87141 0.77656 0.0
H482 H 1.00461 0.86634 0.72538 0.0
H483 H 0.93976 0.8966 0.68935 0.0
H484 H 0.92874 0.01961 0.71634 0.0
H485 H 0.99852 0.0245 0.7672 0.0
C486 C 0.05011 0.96615 0.78763 0.0
C487 C 0.07397 0.93314 0.7949 0.0
C488 C 0.00987 0.96346 0.75788 0.0
C489 C 0.05693 0.89735 0.77168 0.0
C490 C 0.01688 0.89438 0.74241 0.0
C491 C 0.95263 0.92448 0.70632 0.0
C492 C 0.9289 0.95765 0.69901 0.0
C493 C 0.99301 0.92722 0.73537 0.0
C494 C 0.94618 -0.00643 0.72113 0.0
C495 C 0.98616 -0.00357 0.75037 0.0
H496 H 0.46704 0.5803 0.14775 0.0
H497 H 0.43258 0.55146 0.28255 0.0
H498 H 0.50024 0.55112 0.3464 0.0
H499 H 0.56922 0.55933 0.36436 0.0
H500 H 0.60391 0.58771 0.22965 0.0
H501 H 0.5362 0.58789 0.1656 0.0
C502 C 0.47429 0.57391 0.19107 0.0
C503 C 0.44465 0.56596 0.21019 0.0
C504 C 0.51336 0.57371 0.22772 0.0
C505 C 0.4547 0.55766 0.26654 0.0
C506 C 0.49345 0.55749 0.3032 0.0
C507 C 0.56204 0.56558 0.32101 0.0
C508 C 0.59171 0.57361 0.302 0.0
C509 C 0.52301 0.56554 0.28429 0.0
C510 C 0.58174 0.58152 0.24556 0.0
C511 C 0.54298 0.58161 0.20882 0.0
H512 H 0.57589 0.39522 0.80433 0.0
H513 H 0.58266 0.51944 0.78252 0.0
H514 H 0.51212 0.52315 0.73843 0.0
H515 H 0.44852 0.49121 0.70595 0.0
H516 H 0.44139 0.36741 0.73099 0.0
H517 H 0.51197 0.36353 0.77428 0.0
C518 C 0.56191 0.42306 0.7897 0.0
C519 C 0.5845 0.45696 0.79643 0.0
C520 C 0.52125 0.42511 0.76523 0.0
C521 C 0.56595 0.49291 0.77789 0.0
C522 C 0.5256 0.49507 0.75266 0.0
C523 C 0.46237 0.46337 0.72094 0.0
C524 C 0.43964 0.42964 0.71501 0.0
C525 C 0.50296 0.46138 0.74617 0.0
C526 C 0.45813 0.39387 0.73508 0.0
C527 C 0.49853 0.39158 0.7597 0.0
H528 H 0.20868 0.29512 0.51507 0.0
H529 H 0.33176 0.28148 0.60681 0.0
H530 H 0.32982 0.2179 0.56373 0.0
H531 H 0.2937 0.16717 0.49863 0.0
H532 H 0.17061 0.1805 0.4071 0.0
H533 H 0.17227 0.2437 0.45131 0.0
C534 C 0.23511 0.27819 0.52608 0.0
C535 C 0.27035 0.29318 0.56416 0.0
C536 C 0.23389 0.24186 0.50075 0.0
C537 C 0.30423 0.27072 0.57774 0.0
C538 C 0.30319 0.23442 0.55292 0.0
C539 C 0.2672 0.18394 0.48799 0.0
C540 C 0.2321 0.16919 0.44927 0.0
C541 C 0.26828 0.21995 0.51396 0.0
C542 C 0.19804 0.19119 0.43658 0.0
C543 C 0.19894 0.22727 0.46196 0.0
H544 H 0.69387 0.30469 0.93895 0.0
H545 H 0.80833 0.29784 0.93569 0.0
H546 H 0.81811 0.23408 0.97934 0.0
H547 H 0.79623 0.18211 0.02313 0.0
H548 H 0.68185 0.18656 0.02644 0.0
H549 H 0.67005 0.24951 0.97835 0.0
C550 C 0.72062 0.28888 0.94696 0.0
C551 C 0.75041 0.30615 0.93447 0.0
C552 C 0.72637 0.25215 0.97288 0.0
C553 C 0.78504 0.2854 0.94532 0.0
C554 C 0.79077 0.24895 0.97047 0.0
C555 C 0.76875 0.1969 0.01367 0.0
C556 C 0.74021 0.18006 0.02911 0.0
C557 C 0.76204 0.2325 0.98551 0.0
C558 C 0.70443 0.19916 0.01535 0.0
C559 C 0.69764 0.23506 0.98775 0.0
H560 H 0.70778 0.69395 0.44341 0.0
H561 H 0.82686 0.69635 0.45821 0.0
H562 H 0.83584 0.76004 0.50238 0.0
H563 H 0.81109 0.81396 0.53991 0.0
H564 H 0.69214 0.8131 0.52536 0.0
H565 H 0.68208 0.74986 0.47846 0.0
C566 C 0.73548 0.7087 0.45561 0.0
C567 C 0.76659 0.6903 0.44768 0.0
C568 C 0.74072 0.74535 0.48177 0.0
C569 C 0.80244 0.70969 0.4641 0.0
C570 C 0.80771 0.74611 0.48955 0.0
C571 C 0.783 0.79989 0.52684 0.0
C572 C 0.75257 0.81807 0.53663 0.0
C573 C 0.77728 0.76391 0.49938 0.0
C574 C 0.71616 0.79964 0.51856 0.0
C575 C 0.71033 0.76353 0.49159 0.0
H576 H 0.3027 0.78991 0.98364 0.0
H577 H 0.1779 0.78523 0.90454 0.0
H578 H 0.17795 0.72248 0.94904 0.0
H579 H 0.21341 0.67007 0.01199 0.0
H580 H 0.33816 0.67622 0.09217 0.0
H581 H 0.33791 0.73798 0.04599 0.0
C582 C 0.27541 0.77511 0.9755 0.0
C583 C 0.24031 0.79224 0.94054 0.0
C584 C 0.2756 0.73965 0.00201 0.0
C585 C 0.20532 0.77266 0.93107 0.0
C586 C 0.20533 0.7369 0.95673 0.0
C587 C 0.24058 0.68497 0.01969 0.0
C588 C 0.27577 0.6685 0.05569 0.0
C589 C 0.24029 0.72038 0.99275 0.0
C590 C 0.31065 0.68822 0.06488 0.0
C591 C 0.31057 0.72346 0.03829 0.0
loop_
_geom_bond_atom_site_label_1
_geom_bond_atom_site_label_2
_geom_bond_distance
_geom_bond_site_symmetry_2
_ccdc_geom_bond_type
Co0 O3 1.970 . S
Co0 N17 1.989 . S
Co0 O25 1.967 . S
Co0 O32 1.920 . S
Co1 O4 1.966 . S
Co1 N10 2.022 . S
Co1 N18 1.993 . S
Co1 O26 1.941 . S
C2 O3 1.258 . S
C2 O4 1.263 . S
O3 Co0 1.970 . S
O3 C2 1.258 . S
O4 Co1 1.966 . S
O4 C2 1.263 . S
C5 O6 1.235 . S
C5 O32 1.289 . S
O6 C5 1.235 . S
C7 C9 1.400 . S
C7 N10 1.351 . S
C7 C12 1.501 . S
C8 C9 1.387 . S
C8 N11 1.341 . S
C9 C7 1.400 . S
C9 C8 1.387 . S
N10 Co1 2.022 . S
N10 C7 1.351 . S
N10 N11 1.365 . S
N11 C8 1.341 . S
N11 N10 1.365 . S
N11 H31 0.862 . S
C12 C7 1.501 . S
C12 H13 0.961 . S
C12 H14 0.961 1_545 S
C12 H15 0.960 . S
H13 C12 0.961 . S
H14 C12 0.961 1_565 S
H15 C12 0.960 . S
C16 N17 1.342 . S
C16 C20 1.401 . S
C16 C21 1.499 . S
N17 Co0 1.989 . S
N17 C16 1.342 . S
N17 N18 1.388 . S
N18 Co1 1.993 . S
N18 N17 1.388 . S
N18 C19 1.346 . S
C19 N18 1.346 . S
C19 C20 1.396 . S
C19 C29 1.510 . S
C20 C16 1.401 . S
C20 C19 1.396 . S
C21 C16 1.499 . S
C21 H22 0.959 . S
C21 H23 0.960 . S
C21 H24 0.961 . S
H22 C21 0.959 . S
H23 C21 0.960 . S
H24 C21 0.961 . S
O25 Co0 1.967 . S
O25 C33 1.258 . S
O26 Co1 1.941 . S
O26 C33 1.266 . S
H27 C29 0.959 . S
H28 C29 0.961 . S
C29 C19 1.510 . S
C29 H27 0.959 . S
C29 H28 0.961 . S
C29 H30 0.960 . S
H30 C29 0.960 . S
H31 N11 0.862 . S
O32 Co0 1.920 . S
O32 C5 1.289 . S
C33 O25 1.258 . S
C33 O26 1.266 . S
Co34 O37 1.970 . S
Co34 N51 1.989 . S
Co34 O59 1.967 . S
Co34 O66 1.920 . S
Co35 O38 1.966 . S
Co35 N44 2.022 . S
Co35 N52 1.993 . S
Co35 O60 1.941 . S
C36 O37 1.258 . S
C36 O38 1.263 . S
O37 Co34 1.970 . S
O37 C36 1.258 . S
O38 Co35 1.966 . S
O38 C36 1.263 . S
C39 O40 1.235 . S
C39 O66 1.289 . S
O40 C39 1.235 . S
C41 C43 1.400 . S
C41 N44 1.351 . S
C41 C46 1.501 1_554 S
C42 C43 1.387 . S
C42 N45 1.341 . S
C43 C41 1.400 . S
C43 C42 1.387 . S
N44 Co35 2.022 . S
N44 C41 1.351 . S
N44 N45 1.365 . S
N45 C42 1.341 . S
N45 N44 1.365 . S
N45 H65 0.862 . S
C46 C41 1.501 1_556 S
C46 H47 0.961 . S
C46 H48 0.961 1_546 S
C46 H49 0.960 . S
H47 C46 0.961 . S
H48 C46 0.961 1_564 S
H49 C46 0.960 . S
C50 N51 1.342 . S
C50 C54 1.401 . S
C50 C55 1.499 . S
N51 Co34 1.989 . S
N51 C50 1.342 . S
N51 N52 1.388 . S
N52 Co35 1.993 . S
N52 N51 1.388 . S
N52 C53 1.346 . S
C53 N52 1.346 . S
C53 C54 1.396 . S
C53 C63 1.510 . S
C54 C50 1.401 . S
C54 C53 1.396 . S
C55 C50 1.499 . S
C55 H56 0.959 . S
C55 H57 0.960 . S
C55 H58 0.961 . S
H56 C55 0.959 . S
H57 C55 0.960 . S
H58 C55 0.961 . S
O59 Co34 1.967 . S
O59 C67 1.258 . S
O60 Co35 1.941 . S
O60 C67 1.266 . S
H61 C63 0.959 . S
H62 C63 0.961 . S
C63 C53 1.510 . S
C63 H61 0.959 . S
C63 H62 0.961 . S
C63 H64 0.960 . S
H64 C63 0.960 . S
H65 N45 0.862 . S
O66 Co34 1.920 . S
O66 C39 1.289 . S
C67 O59 1.258 . S
C67 O60 1.266 . S
Co68 O71 1.970 . S
Co68 N85 1.989 . S
Co68 O93 1.967 . S
Co68 O100 1.920 . S
Co69 O72 1.966 . S
Co69 N78 2.022 . S
Co69 N86 1.993 . S
Co69 O94 1.941 . S
C70 O71 1.258 . S
C70 O72 1.263 . S
O71 Co68 1.970 . S
O71 C70 1.258 . S
O72 Co69 1.966 . S
O72 C70 1.263 . S
C73 O74 1.235 . S
C73 O100 1.289 . S
O74 C73 1.235 . S
C75 C77 1.400 . S
C75 N78 1.351 . S
C75 C80 1.501 . S
C76 C77 1.387 . S
C76 N79 1.341 . S
C77 C75 1.400 . S
C77 C76 1.387 . S
N78 Co69 2.022 . S
N78 C75 1.351 . S
N78 N79 1.365 . S
N79 C76 1.341 . S
N79 N78 1.365 . S
N79 H99 0.862 . S
C80 C75 1.501 . S
C80 H81 0.961 . S
C80 H82 0.961 1_565 S
C80 H83 0.960 . S
H81 C80 0.961 . S
H82 C80 0.961 1_545 S
H83 C80 0.960 . S
C84 N85 1.342 . S
C84 C88 1.401 . S
C84 C89 1.499 . S
N85 Co68 1.989 . S
N85 C84 1.342 . S
N85 N86 1.388 . S
N86 Co69 1.993 . S
N86 N85 1.388 . S
N86 C87 1.346 . S
C87 N86 1.346 . S
C87 C88 1.396 . S
C87 C97 1.510 . S
C88 C84 1.401 . S
C88 C87 1.396 . S
C89 C84 1.499 . S
C89 H90 0.959 . S
C89 H91 0.960 . S
C89 H92 0.961 . S
H90 C89 0.959 . S
H91 C89 0.960 . S
H92 C89 0.961 . S
O93 Co68 1.967 . S
O93 C101 1.258 . S
O94 Co69 1.941 . S
O94 C101 1.266 . S
H95 C97 0.959 . S
H96 C97 0.961 . S
C97 C87 1.510 . S
C97 H95 0.959 . S
C97 H96 0.961 . S
C97 H98 0.960 . S
H98 C97 0.960 . S
H99 N79 0.862 . S
O100 Co68 1.920 . S
O100 C73 1.289 . S
C101 O93 1.258 . S
C101 O94 1.266 . S
Co102 O105 1.970 . S
Co102 N119 1.989 . S
Co102 O127 1.967 . S
Co102 O134 1.920 . S
Co103 O106 1.966 . S
Co103 N112 2.022 . S
Co103 N120 1.993 . S
Co103 O128 1.941 . S
C104 O105 1.258 . S
C104 O106 1.263 . S
O105 Co102 1.970 . S
O105 C104 1.258 . S
O106 Co103 1.966 . S
O106 C104 1.263 . S
C107 O108 1.235 . S
C107 O134 1.289 . S
O108 C107 1.235 . S
C109 C111 1.400 . S
C109 N112 1.351 . S
C109 C114 1.501 1_556 S
C110 C111 1.387 . S
C110 N113 1.341 . S
C111 C109 1.400 . S
C111 C110 1.387 . S
N112 Co103 2.022 . S
N112 C109 1.351 . S
N112 N113 1.365 . S
N113 C110 1.341 . S
N113 N112 1.365 . S
N113 H133 0.862 . S
C114 C109 1.501 1_554 S
C114 H115 0.961 . S
C114 H116 0.961 1_564 S
C114 H117 0.960 . S
H115 C114 0.961 . S
H116 C114 0.961 1_546 S
H117 C114 0.960 . S
C118 N119 1.342 . S
C118 C122 1.401 . S
C118 C123 1.499 . S
N119 Co102 1.989 . S
N119 C118 1.342 . S
N119 N120 1.388 . S
N120 Co103 1.993 . S
N120 N119 1.388 . S
N120 C121 1.346 . S
C121 N120 1.346 . S
C121 C122 1.396 . S
C121 C131 1.510 . S
C122 C118 1.401 . S
C122 C121 1.396 . S
C123 C118 1.499 . S
C123 H124 0.959 . S
C123 H125 0.960 . S
C123 H126 0.961 . S
H124 C123 0.959 . S
H125 C123 0.960 . S
H126 C123 0.961 . S
O127 Co102 1.967 . S
O127 C135 1.258 . S
O128 Co103 1.941 . S
O128 C135 1.266 . S
H129 C131 0.959 . S
H130 C131 0.961 . S
C131 C121 1.510 . S
C131 H129 0.959 . S
C131 H130 0.961 . S
C131 H132 0.960 . S
H132 C131 0.960 . S
H133 N113 0.862 . S
O134 Co102 1.920 . S
O134 C107 1.289 . S
C135 O127 1.258 . S
C135 O128 1.266 . S
Co136 O139 1.970 . S
Co136 N153 1.989 . S
Co136 O161 1.967 . S
Co136 O168 1.920 . S
Co137 O140 1.966 . S
Co137 N146 2.022 . S
Co137 N154 1.993 . S
Co137 O162 1.941 . S
C138 O139 1.258 . S
C138 O140 1.263 . S
O139 Co136 1.970 . S
O139 C138 1.258 . S
O140 Co137 1.966 . S
O140 C138 1.263 . S
C141 O142 1.235 . S
C141 O168 1.289 . S
O142 C141 1.235 . S
C143 C145 1.400 . S
C143 N146 1.351 . S
C143 C148 1.501 . S
C144 C145 1.387 . S
C144 N147 1.341 . S
C145 C143 1.400 . S
C145 C144 1.387 . S
N146 Co137 2.022 . S
N146 C143 1.351 . S
N146 N147 1.365 . S
N147 C144 1.341 . S
N147 N146 1.365 . S
N147 H167 0.862 . S
C148 C143 1.501 . S
C148 H149 0.961 . S
C148 H150 0.961 . S
C148 H151 0.960 . S
H149 C148 0.961 . S
H150 C148 0.961 . S
H151 C148 0.960 . S
C152 N153 1.342 . S
C152 C156 1.401 . S
C152 C157 1.499 . S
N153 Co136 1.989 . S
N153 C152 1.342 . S
N153 N154 1.388 . S
N154 Co137 1.993 . S
N154 N153 1.388 . S
N154 C155 1.346 . S
C155 N154 1.346 . S
C155 C156 1.396 . S
C155 C165 1.510 . S
C156 C152 1.401 . S
C156 C155 1.396 . S
C157 C152 1.499 . S
C157 H158 0.959 . S
C157 H159 0.960 . S
C157 H160 0.961 . S
H158 C157 0.959 . S
H159 C157 0.960 . S
H160 C157 0.961 . S
O161 Co136 1.967 . S
O161 C169 1.258 . S
O162 Co137 1.941 . S
O162 C169 1.266 . S
H163 C165 0.959 . S
H164 C165 0.961 . S
C165 C155 1.510 . S
C165 H163 0.959 . S
C165 H164 0.961 . S
C165 H166 0.960 . S
H166 C165 0.960 . S
H167 N147 0.862 . S
O168 Co136 1.920 . S
O168 C141 1.289 . S
C169 O161 1.258 . S
C169 O162 1.266 . S
Co170 O173 1.970 . S
Co170 N187 1.989 . S
Co170 O195 1.967 . S
Co170 O202 1.920 . S
Co171 O174 1.966 . S
Co171 N180 2.022 . S
Co171 N188 1.993 . S
Co171 O196 1.941 . S
C172 O173 1.258 . S
C172 O174 1.263 . S
O173 Co170 1.970 . S
O173 C172 1.258 . S
O174 Co171 1.966 . S
O174 C172 1.263 . S
C175 O176 1.235 . S
C175 O202 1.289 . S
O176 C175 1.235 . S
C177 C179 1.400 . S
C177 N180 1.351 . S
C177 C182 1.501 1_554 S
C178 C179 1.387 . S
C178 N181 1.341 . S
C179 C177 1.400 . S
C179 C178 1.387 . S
N180 Co171 2.022 . S
N180 C177 1.351 . S
N180 N181 1.365 . S
N181 C178 1.341 . S
N181 N180 1.365 . S
N181 H201 0.862 . S
C182 C177 1.501 1_556 S
C182 H183 0.961 . S
C182 H184 0.961 1_556 S
C182 H185 0.960 . S
H183 C182 0.961 . S
H184 C182 0.961 1_554 S
H185 C182 0.960 . S
C186 N187 1.342 . S
C186 C190 1.401 . S
C186 C191 1.499 . S
N187 Co170 1.989 . S
N187 C186 1.342 . S
N187 N188 1.388 . S
N188 Co171 1.993 . S
N188 N187 1.388 . S
N188 C189 1.346 . S
C189 N188 1.346 . S
C189 C190 1.396 . S
C189 C199 1.510 . S
C190 C186 1.401 . S
C190 C189 1.396 . S
C191 C186 1.499 . S
C191 H192 0.959 . S
C191 H193 0.960 . S
C191 H194 0.961 . S
H192 C191 0.959 . S
H193 C191 0.960 . S
H194 C191 0.961 . S
O195 Co170 1.967 . S
O195 C203 1.258 . S
O196 Co171 1.941 . S
O196 C203 1.266 . S
H197 C199 0.959 . S
H198 C199 0.961 . S
C199 C189 1.510 . S
C199 H197 0.959 . S
C199 H198 0.961 . S
C199 H200 0.960 . S
H200 C199 0.960 . S
H201 N181 0.862 . S
O202 Co170 1.920 . S
O202 C175 1.289 . S
C203 O195 1.258 . S
C203 O196 1.266 . S
Co204 O207 1.970 . S
Co204 N221 1.989 . S
Co204 O229 1.967 . S
Co204 O236 1.920 . S
Co205 O208 1.966 . S
Co205 N214 2.022 . S
Co205 N222 1.993 . S
Co205 O230 1.941 . S
C206 O207 1.258 . S
C206 O208 1.263 . S
O207 Co204 1.970 . S
O207 C206 1.258 . S
O208 Co205 1.966 . S
O208 C206 1.263 . S
C209 O210 1.235 . S
C209 O236 1.289 . S
O210 C209 1.235 . S
C211 C213 1.400 . S
C211 N214 1.351 . S
C211 C216 1.501 . S
C212 C213 1.387 . S
C212 N215 1.341 . S
C213 C211 1.400 . S
C213 C212 1.387 . S
N214 Co205 2.022 . S
N214 C211 1.351 . S
N214 N215 1.365 . S
N215 C212 1.341 . S
N215 N214 1.365 . S
N215 H235 0.862 . S
C216 C211 1.501 . S
C216 H217 0.961 . S
C216 H218 0.961 . S
C216 H219 0.960 . S
H217 C216 0.961 . S
H218 C216 0.961 . S
H219 C216 0.960 . S
C220 N221 1.342 . S
C220 C224 1.401 . S
C220 C225 1.499 . S
N221 Co204 1.989 . S
N221 C220 1.342 . S
N221 N222 1.388 . S
N222 Co205 1.993 . S
N222 N221 1.388 . S
N222 C223 1.346 . S
C223 N222 1.346 . S
C223 C224 1.396 . S
C223 C233 1.510 . S
C224 C220 1.401 . S
C224 C223 1.396 . S
C225 C220 1.499 . S
C225 H226 0.959 . S
C225 H227 0.960 . S
C225 H228 0.961 . S
H226 C225 0.959 . S
H227 C225 0.960 . S
H228 C225 0.961 . S
O229 Co204 1.967 . S
O229 C237 1.258 . S
O230 Co205 1.941 . S
O230 C237 1.266 . S
H231 C233 0.959 . S
H232 C233 0.961 . S
C233 C223 1.510 . S
C233 H231 0.959 . S
C233 H232 0.961 . S
C233 H234 0.960 . S
H234 C233 0.960 . S
H235 N215 0.862 . S
O236 Co204 1.920 . S
O236 C209 1.289 . S
C237 O229 1.258 . S
C237 O230 1.266 . S
Co238 O241 1.970 . S
Co238 N255 1.989 . S
Co238 O263 1.967 . S
Co238 O270 1.920 . S
Co239 O242 1.966 . S
Co239 N248 2.022 . S
Co239 N256 1.993 . S
Co239 O264 1.941 . S
C240 O241 1.258 . S
C240 O242 1.263 . S
O241 Co238 1.970 . S
O241 C240 1.258 . S
O242 Co239 1.966 . S
O242 C240 1.263 . S
C243 O244 1.235 . S
C243 O270 1.289 . S
O244 C243 1.235 . S
C245 C247 1.400 . S
C245 N248 1.351 . S
C245 C250 1.501 1_556 S
C246 C247 1.387 . S
C246 N249 1.341 . S
C247 C245 1.400 . S
C247 C246 1.387 . S
N248 Co239 2.022 . S
N248 C245 1.351 . S
N248 N249 1.365 . S
N249 C246 1.341 . S
N249 N248 1.365 . S
N249 H269 0.862 . S
C250 C245 1.501 1_554 S
C250 H251 0.961 . S
C250 H252 0.961 1_554 S
C250 H253 0.960 . S
H251 C250 0.961 . S
H252 C250 0.961 1_556 S
H253 C250 0.960 . S
C254 N255 1.342 . S
C254 C258 1.401 . S
C254 C259 1.499 . S
N255 Co238 1.989 . S
N255 C254 1.342 . S
N255 N256 1.388 . S
N256 Co239 1.993 . S
N256 N255 1.388 . S
N256 C257 1.346 . S
C257 N256 1.346 . S
C257 C258 1.396 . S
C257 C267 1.510 . S
C258 C254 1.401 . S
C258 C257 1.396 . S
C259 C254 1.499 . S
C259 H260 0.959 . S
C259 H261 0.960 . S
C259 H262 0.961 . S
H260 C259 0.959 . S
H261 C259 0.960 . S
H262 C259 0.961 . S
O263 Co238 1.967 . S
O263 C271 1.258 . S
O264 Co239 1.941 . S
O264 C271 1.266 . S
H265 C267 0.959 . S
H266 C267 0.961 . S
C267 C257 1.510 . S
C267 H265 0.959 . S
C267 H266 0.961 . S
C267 H268 0.960 . S
H268 C267 0.960 . S
H269 N249 0.862 . S
O270 Co238 1.920 . S
O270 C243 1.289 . S
C271 O263 1.258 . S
C271 O264 1.266 . S
H272 C278 0.930 . S
H273 C281 0.930 . S
H274 C282 0.930 . S
H275 C283 0.933 . S
H276 C286 0.930 . S
H277 C287 0.930 . S
C278 H272 0.930 . S
C278 C279 1.355 1_545 S
C278 C280 1.415 . S
C279 C278 1.355 1_565 S
C279 C281 1.419 . S
C280 C278 1.415 . S
C280 C285 1.425 1_545 S
C280 C287 1.409 . S
C281 H273 0.930 . S
C281 C279 1.419 . S
C281 C282 1.362 . S
C282 H274 0.930 . S
C282 C281 1.362 . S
C282 C285 1.409 . S
C283 H275 0.933 . S
C283 C284 1.350 1_565 S
C283 C285 1.416 . S
C284 C283 1.350 1_545 S
C284 C286 1.419 . S
C285 C280 1.425 1_565 S
C285 C282 1.409 . S
C285 C283 1.416 . S
C286 H276 0.930 . S
C286 C284 1.419 . S
C286 C287 1.362 . S
C287 H277 0.930 . S
C287 C280 1.409 . S
C287 C286 1.362 . S
H288 C294 0.930 . S
H289 C297 0.930 . S
H290 C298 0.930 . S
H291 C299 0.930 . S
H292 C302 0.930 . S
H293 C303 0.930 . S
C294 H288 0.930 . S
C294 C295 1.355 . S
C294 C296 1.415 . S
C295 C294 1.355 . S
C295 C297 1.419 1_545 S
C296 C294 1.415 . S
C296 C301 1.425 1_545 S
C296 C303 1.409 . S
C297 H289 0.930 . S
C297 C295 1.419 1_565 S
C297 C298 1.362 . S
C298 H290 0.930 . S
C298 C297 1.362 . S
C298 C301 1.409 . S
C299 H291 0.930 . S
C299 C300 1.355 . S
C299 C301 1.415 . S
C300 C299 1.355 . S
C300 C302 1.419 1_565 S
C301 C296 1.425 1_565 S
C301 C298 1.409 . S
C301 C299 1.415 . S
C302 H292 0.930 . S
C302 C300 1.419 1_545 S
C302 C303 1.362 . S
C303 H293 0.930 . S
C303 C296 1.409 . S
C303 C302 1.362 . S
H304 C310 0.930 . S
H305 C313 0.930 1_545 S
H306 C314 0.930 . S
H307 C315 0.930 . S
H308 C318 0.930 . S
H309 C319 0.930 . S
C310 H304 0.930 . S
C310 C311 1.355 . S
C310 C312 1.415 . S
C311 C310 1.355 . S
C311 C313 1.419 . S
C312 C310 1.415 . S
C312 C317 1.425 1_565 S
C312 C319 1.409 . S
C313 H305 0.930 1_565 S
C313 C311 1.419 . S
C313 C314 1.362 1_565 S
C314 H306 0.930 . S
C314 C313 1.362 1_545 S
C314 C317 1.409 . S
C315 H307 0.930 . S
C315 C316 1.355 . S
C315 C317 1.415 . S
C316 C315 1.355 . S
C316 C318 1.419 1_545 S
C317 C312 1.425 1_545 S
C317 C314 1.409 . S
C317 C315 1.415 . S
C318 H308 0.930 . S
C318 C316 1.419 1_565 S
C318 C319 1.362 . S
C319 H309 0.930 . S
C319 C312 1.409 . S
C319 C318 1.362 . S
H320 C326 0.930 . S
H321 C329 0.930 . S
H322 C330 0.930 . S
H323 C331 0.930 . S
H324 C334 0.930 . S
H325 C335 0.930 . S
C326 H320 0.930 . S
C326 C327 1.355 . S
C326 C328 1.415 . S
C327 C326 1.355 . S
C327 C329 1.419 1_565 S
C328 C326 1.415 . S
C328 C333 1.425 1_565 S
C328 C335 1.409 . S
C329 H321 0.930 . S
C329 C327 1.419 1_545 S
C329 C330 1.362 . S
C330 H322 0.930 . S
C330 C329 1.362 . S
C330 C333 1.409 . S
C331 H323 0.930 . S
C331 C332 1.355 . S
C331 C333 1.415 . S
C332 C331 1.355 . S
C332 C334 1.419 1_545 S
C333 C328 1.425 1_545 S
C333 C330 1.409 . S
C333 C331 1.415 . S
C334 H324 0.930 . S
C334 C332 1.419 1_565 S
C334 C335 1.362 . S
C335 H325 0.930 . S
C335 C328 1.409 . S
C335 C334 1.362 . S
H336 C342 0.930 . S
H337 C345 0.930 . S
H338 C346 0.930 . S
H339 C347 0.930 . S
H340 C350 0.930 1_556 S
H341 C351 0.930 . S
C342 H336 0.930 . S
C342 C343 1.355 . S
C342 C344 1.415 . S
C343 C342 1.355 . S
C343 C345 1.419 . S
C344 C342 1.415 . S
C344 C349 1.425 . S
C344 C351 1.409 . S
C345 H337 0.930 . S
C345 C343 1.419 . S
C345 C346 1.362 . S
C346 H338 0.930 . S
C346 C345 1.362 . S
C346 C349 1.409 . S
C347 H339 0.930 . S
C347 C348 1.355 . S
C347 C349 1.415 . S
C348 C347 1.355 . S
C348 C350 1.419 . S
C349 C344 1.425 . S
C349 C346 1.409 . S
C349 C347 1.415 . S
C350 H340 0.930 1_554 S
C350 C348 1.419 . S
C350 C351 1.362 . S
C351 H341 0.930 . S
C351 C344 1.409 . S
C351 C350 1.362 . S
H352 C358 0.930 . S
H353 C361 0.930 . S
H354 C362 0.930 . S
H355 C363 0.930 . S
H356 C366 0.930 . S
H357 C367 0.930 . S
C358 H352 0.930 . S
C358 C359 1.355 . S
C358 C360 1.415 . S
C359 C358 1.355 . S
C359 C361 1.419 . S
C360 C358 1.415 . S
C360 C365 1.425 . S
C360 C367 1.409 . S
C361 H353 0.930 . S
C361 C359 1.419 . S
C361 C362 1.362 . S
C362 H354 0.930 . S
C362 C361 1.362 . S
C362 C365 1.409 . S
C363 H355 0.930 . S
C363 C364 1.355 . S
C363 C365 1.415 . S
C364 C363 1.355 . S
C364 C366 1.419 . S
C365 C360 1.425 . S
C365 C362 1.409 . S
C365 C363 1.415 . S
C366 H356 0.930 . S
C366 C364 1.419 . S
C366 C367 1.362 . S
C367 H357 0.930 . S
C367 C360 1.409 . S
C367 C366 1.362 . S
H368 C374 0.930 . S
H369 C377 0.930 1_554 S
H370 C378 0.930 . S
H371 C379 0.930 . S
H372 C382 0.930 . S
H373 C383 0.930 . S
C374 H368 0.930 . S
C374 C375 1.355 . S
C374 C376 1.415 . S
C375 C374 1.355 . S
C375 C377 1.419 . S
C376 C374 1.415 . S
C376 C381 1.425 . S
C376 C383 1.409 . S
C377 H369 0.930 1_556 S
C377 C375 1.419 . S
C377 C378 1.362 . S
C378 H370 0.930 . S
C378 C377 1.362 . S
C378 C381 1.409 . S
C379 H371 0.930 . S
C379 C380 1.355 . S
C379 C381 1.415 . S
C380 C379 1.355 . S
C380 C382 1.419 . S
C381 C376 1.425 . S
C381 C378 1.409 . S
C381 C379 1.415 . S
C382 H372 0.930 . S
C382 C380 1.419 . S
C382 C383 1.362 . S
C383 H373 0.930 . S
C383 C376 1.409 . S
C383 C382 1.362 . S
H384 C390 0.930 . S
H385 C393 0.930 . S
H386 C394 0.930 . S
H387 C395 0.930 . S
H388 C398 0.930 . S
H389 C399 0.930 . S
C390 H384 0.930 . S
C390 C391 1.355 . S
C390 C392 1.415 . S
C391 C390 1.355 . S
C391 C393 1.419 . S
C392 C390 1.415 . S
C392 C397 1.425 . S
C392 C399 1.409 . S
C393 H385 0.930 . S
C393 C391 1.419 . S
C393 C394 1.362 . S
C394 H386 0.930 . S
C394 C393 1.362 . S
C394 C397 1.409 . S
C395 H387 0.930 . S
C395 C396 1.355 . S
C395 C397 1.415 . S
C396 C395 1.355 . S
C396 C398 1.419 . S
C397 C392 1.425 . S
C397 C394 1.409 . S
C397 C395 1.415 . S
C398 H388 0.930 . S
C398 C396 1.419 . S
C398 C399 1.362 . S
C399 H389 0.930 . S
C399 C392 1.409 . S
C399 C398 1.362 . S
H400 C406 0.930 . S
H401 C409 0.930 . S
H402 C410 0.930 . S
H403 C411 0.930 . S
H404 C414 0.930 . S
H405 C415 0.930 . S
C406 H400 0.930 . S
C406 C407 1.355 . S
C406 C408 1.415 . S
C407 C406 1.355 . S
C407 C409 1.419 1_565 S
C408 C406 1.415 . S
C408 C413 1.425 1_565 S
C408 C415 1.409 . S
C409 H401 0.930 . S
C409 C407 1.419 1_545 S
C409 C410 1.362 . S
C410 H402 0.930 . S
C410 C409 1.362 . S
C410 C413 1.409 . S
C411 H403 0.930 . S
C411 C412 1.355 . S
C411 C413 1.415 . S
C412 C411 1.355 . S
C412 C414 1.419 1_545 S
C413 C408 1.425 1_545 S
C413 C410 1.409 . S
C413 C411 1.415 . S
C414 H404 0.930 . S
C414 C412 1.419 1_565 S
C414 C415 1.362 . S
C415 H405 0.930 . S
C415 C408 1.409 . S
C415 C414 1.362 . S
H416 C422 0.930 . S
H417 C425 0.929 1_545 S
H418 C426 0.930 . S
H419 C427 0.930 . S
H420 C430 0.929 1_565 S
H421 C431 0.930 . S
C422 H416 0.930 . S
C422 C423 1.355 1_554 S
C422 C424 1.415 . S
C423 C422 1.355 1_556 S
C423 C425 1.426 . S
C424 C422 1.415 . S
C424 C429 1.425 1_564 S
C424 C431 1.409 . S
C425 H417 0.929 1_565 S
C425 C423 1.426 . S
C425 C426 1.357 1_565 S
C426 H418 0.930 . S
C426 C425 1.357 1_545 S
C426 C429 1.409 . S
C427 H419 0.930 . S
C427 C428 1.355 1_556 S
C427 C429 1.415 . S
C428 C427 1.355 1_554 S
C428 C430 1.426 . S
C429 C424 1.425 1_546 S
C429 C426 1.409 . S
C429 C427 1.415 . S
C430 H420 0.929 1_545 S
C430 C428 1.426 . S
C430 C431 1.357 1_545 S
C431 H421 0.930 . S
C431 C424 1.409 . S
C431 C430 1.357 1_565 S
H432 C438 0.930 . S
H433 C441 0.930 . S
H434 C442 0.930 1_455 S
H435 C443 0.930 . S
H436 C446 0.930 . S
H437 C447 0.930 1_655 S
C438 H432 0.930 . S
C438 C439 1.355 . S
C438 C440 1.415 . S
C439 C438 1.355 . S
C439 C441 1.419 . S
C440 C438 1.415 . S
C440 C445 1.425 1_655 S
C440 C447 1.409 1_655 S
C441 H433 0.930 . S
C441 C439 1.419 . S
C441 C442 1.362 . S
C442 H434 0.930 1_655 S
C442 C441 1.362 . S
C442 C445 1.409 1_655 S
C443 H435 0.930 . S
C443 C444 1.355 . S
C443 C445 1.415 . S
C444 C443 1.355 . S
C444 C446 1.419 . S
C445 C440 1.425 1_455 S
C445 C442 1.409 1_455 S
C445 C443 1.415 . S
C446 H436 0.930 . S
C446 C444 1.419 . S
C446 C447 1.362 . S
C447 H437 0.930 1_455 S
C447 C440 1.409 1_455 S
C447 C446 1.362 . S
H448 C454 0.930 . S
H449 C457 0.930 . S
H450 C458 0.930 1_655 S
H451 C459 0.930 . S
H452 C462 0.930 . S
H453 C463 0.930 1_455 S
C454 H448 0.930 . S
C454 C455 1.355 . S
C454 C456 1.415 . S
C455 C454 1.355 . S
C455 C457 1.419 1_554 S
C456 C454 1.415 . S
C456 C461 1.425 1_454 S
C456 C463 1.409 1_455 S
C457 H449 0.930 . S
C457 C455 1.419 1_556 S
C457 C458 1.362 . S
C458 H450 0.930 1_455 S
C458 C457 1.362 . S
C458 C461 1.409 1_455 S
C459 H451 0.930 . S
C459 C460 1.355 . S
C459 C461 1.415 . S
C460 C459 1.355 . S
C460 C462 1.419 1_556 S
C461 C456 1.425 1_656 S
C461 C458 1.409 1_655 S
C461 C459 1.415 . S
C462 H452 0.930 . S
C462 C460 1.419 1_554 S
C462 C463 1.362 . S
C463 H453 0.930 1_655 S
C463 C456 1.409 1_655 S
C463 C462 1.362 . S
H464 C470 0.930 . S
H465 C473 0.930 . S
H466 C474 0.930 . S
H467 C475 0.930 . S
H468 C478 0.930 . S
H469 C479 0.930 . S
C470 H464 0.930 . S
C470 C471 1.355 . S
C470 C472 1.415 . S
C471 C470 1.355 . S
C471 C473 1.419 . S
C472 C470 1.415 . S
C472 C477 1.425 1_455 S
C472 C479 1.409 1_455 S
C473 H465 0.930 . S
C473 C471 1.419 . S
C473 C474 1.362 . S
C474 H466 0.930 . S
C474 C473 1.362 . S
C474 C477 1.409 1_455 S
C475 H467 0.930 . S
C475 C476 1.355 . S
C475 C477 1.415 . S
C476 C475 1.355 . S
C476 C478 1.419 . S
C477 C472 1.425 1_655 S
C477 C474 1.409 1_655 S
C477 C475 1.415 . S
C478 H468 0.930 . S
C478 C476 1.419 . S
C478 C479 1.362 . S
C479 H469 0.930 . S
C479 C472 1.409 1_655 S
C479 C478 1.362 . S
H480 C486 0.930 . S
H481 C489 0.930 . S
H482 C490 0.930 . S
H483 C491 0.930 . S
H484 C494 0.930 . S
H485 C495 0.930 . S
C486 H480 0.930 . S
C486 C487 1.355 . S
C486 C488 1.415 . S
C487 C486 1.355 . S
C487 C489 1.419 . S
C488 C486 1.415 . S
C488 C493 1.425 1_455 S
C488 C495 1.409 1_455 S
C489 H481 0.930 . S
C489 C487 1.419 . S
C489 C490 1.362 . S
C490 H482 0.930 . S
C490 C489 1.362 . S
C490 C493 1.409 1_455 S
C491 H483 0.930 . S
C491 C492 1.355 . S
C491 C493 1.415 . S
C492 C491 1.355 . S
C492 C494 1.419 . S
C493 C488 1.425 1_655 S
C493 C490 1.409 1_655 S
C493 C491 1.415 . S
C494 H484 0.930 . S
C494 C492 1.419 . S
C494 C495 1.362 . S
C495 H485 0.930 . S
C495 C488 1.409 1_655 S
C495 C494 1.362 . S
H496 C502 0.930 . S
H497 C505 0.930 . S
H498 C506 0.930 . S
H499 C507 0.930 . S
H500 C510 0.930 . S
H501 C511 0.930 . S
C502 H496 0.930 . S
C502 C503 1.355 . S
C502 C504 1.415 . S
C503 C502 1.355 . S
C503 C505 1.419 . S
C504 C502 1.415 . S
C504 C509 1.425 . S
C504 C511 1.409 . S
C505 H497 0.930 . S
C505 C503 1.419 . S
C505 C506 1.362 . S
C506 H498 0.930 . S
C506 C505 1.362 . S
C506 C509 1.409 . S
C507 H499 0.930 . S
C507 C508 1.355 . S
C507 C509 1.415 . S
C508 C507 1.355 . S
C508 C510 1.419 . S
C509 C504 1.425 . S
C509 C506 1.409 . S
C509 C507 1.415 . S
C510 H500 0.930 . S
C510 C508 1.419 . S
C510 C511 1.362 . S
C511 H501 0.930 . S
C511 C504 1.409 . S
C511 C510 1.362 . S
H512 C518 0.930 . S
H513 C521 0.930 . S
H514 C522 0.930 . S
H515 C523 0.930 . S
H516 C526 0.930 . S
H517 C527 0.930 . S
C518 H512 0.930 . S
C518 C519 1.355 . S
C518 C520 1.415 . S
C519 C518 1.355 . S
C519 C521 1.419 . S
C520 C518 1.415 . S
C520 C525 1.425 . S
C520 C527 1.409 . S
C521 H513 0.930 . S
C521 C519 1.419 . S
C521 C522 1.362 . S
C522 H514 0.930 . S
C522 C521 1.362 . S
C522 C525 1.409 . S
C523 H515 0.930 . S
C523 C524 1.355 . S
C523 C525 1.415 . S
C524 C523 1.355 . S
C524 C526 1.419 . S
C525 C520 1.425 . S
C525 C522 1.409 . S
C525 C523 1.415 . S
C526 H516 0.930 . S
C526 C524 1.419 . S
C526 C527 1.362 . S
C527 H517 0.930 . S
C527 C520 1.409 . S
C527 C526 1.362 . S
H528 C534 0.930 . S
H529 C537 0.930 . S
H530 C538 0.930 . S
H531 C539 0.930 . S
H532 C542 0.930 . S
H533 C543 0.930 . S
C534 H528 0.930 . S
C534 C535 1.355 . S
C534 C536 1.415 . S
C535 C534 1.355 . S
C535 C537 1.419 . S
C536 C534 1.415 . S
C536 C541 1.425 . S
C536 C543 1.409 . S
C537 H529 0.930 . S
C537 C535 1.419 . S
C537 C538 1.362 . S
C538 H530 0.930 . S
C538 C537 1.362 . S
C538 C541 1.409 . S
C539 H531 0.930 . S
C539 C540 1.355 . S
C539 C541 1.415 . S
C540 C539 1.355 . S
C540 C542 1.419 . S
C541 C536 1.425 . S
C541 C538 1.409 . S
C541 C539 1.415 . S
C542 H532 0.930 . S
C542 C540 1.419 . S
C542 C543 1.362 . S
C543 H533 0.930 . S
C543 C536 1.409 . S
C543 C542 1.362 . S
H544 C550 0.930 . S
H545 C553 0.930 . S
H546 C554 0.930 . S
H547 C555 0.930 . S
H548 C558 0.930 . S
H549 C559 0.930 . S
C550 H544 0.930 . S
C550 C551 1.355 . S
C550 C552 1.415 1_556 S
C551 C550 1.355 . S
C551 C553 1.419 . S
C552 C550 1.415 1_554 S
C552 C557 1.425 1_554 S
C552 C559 1.409 . S
C553 H545 0.930 . S
C553 C551 1.419 . S
C553 C554 1.362 . S
C554 H546 0.930 . S
C554 C553 1.362 . S
C554 C557 1.409 . S
C555 H547 0.930 . S
C555 C556 1.355 . S
C555 C557 1.415 1_554 S
C556 C555 1.355 . S
C556 C558 1.419 . S
C557 C552 1.425 1_556 S
C557 C554 1.409 . S
C557 C555 1.415 1_556 S
C558 H548 0.930 . S
C558 C556 1.419 . S
C558 C559 1.362 . S
C559 H549 0.930 . S
C559 C552 1.409 . S
C559 C558 1.362 . S
H560 C566 0.930 . S
H561 C569 0.930 . S
H562 C570 0.930 . S
H563 C571 0.930 . S
H564 C574 0.930 . S
H565 C575 0.930 . S
C566 H560 0.930 . S
C566 C567 1.355 . S
C566 C568 1.415 . S
C567 C566 1.355 . S
C567 C569 1.419 . S
C568 C566 1.415 . S
C568 C573 1.425 . S
C568 C575 1.409 . S
C569 H561 0.930 . S
C569 C567 1.419 . S
C569 C570 1.362 . S
C570 H562 0.930 . S
C570 C569 1.362 . S
C570 C573 1.409 . S
C571 H563 0.930 . S
C571 C572 1.355 . S
C571 C573 1.415 . S
C572 C571 1.355 . S
C572 C574 1.419 . S
C573 C568 1.425 . S
C573 C570 1.409 . S
C573 C571 1.415 . S
C574 H564 0.930 . S
C574 C572 1.419 . S
C574 C575 1.362 . S
C575 H565 0.930 . S
C575 C568 1.409 . S
C575 C574 1.362 . S
H576 C582 0.930 . S
H577 C585 0.930 . S
H578 C586 0.930 . S
H579 C587 0.930 . S
H580 C590 0.930 . S
H581 C591 0.930 . S
C582 H576 0.930 . S
C582 C583 1.355 . S
C582 C584 1.415 1_556 S
C583 C582 1.355 . S
C583 C585 1.419 . S
C584 C582 1.415 1_554 S
C584 C589 1.425 1_554 S
C584 C591 1.409 . S
C585 H577 0.930 . S
C585 C583 1.419 . S
C585 C586 1.362 . S
C586 H578 0.930 . S
C586 C585 1.362 . S
C586 C589 1.409 . S
C587 H579 0.930 . S
C587 C588 1.355 . S
C587 C589 1.415 1_554 S
C588 C587 1.355 . S
C588 C590 1.419 . S
C589 C584 1.425 1_556 S
C589 C586 1.409 . S
C589 C587 1.415 1_556 S
C590 H580 0.930 . S
C590 C588 1.419 . S
C590 C591 1.362 . S
C591 H581 0.930 . S
C591 C584 1.409 . S
C591 C590 1.362 . S
C279 C104 1.350 1_554 S
C284 C20 1.351 . S
C295 C54 1.335 . S
C300 C70 1.355 . S
C311 C88 1.336 . S
C316 C36 1.355 1_556 S
C327 C122 1.339 . S
C332 C2 1.347 . S
C343 C156 1.334 . S
C348 C240 1.350 1_554 S
C359 C190 1.339 . S
C364 C206 1.347 . S
C375 C172 1.353 1_556 S
C380 C224 1.332 . S
C391 C258 1.334 . S
C396 C138 1.350 . S
C407 C77 1.381 . S
C412 C9 1.381 . S
C423 C111 1.369 . S
C428 C43 1.369 . S
C439 C145 1.344 . S
C444 C213 1.344 . S
C455 C179 1.368 . S
C460 C247 1.368 . S
C471 C5 1.593 . S
C476 C39 1.592 . S
C487 C107 1.596 . S
C492 C73 1.588 . S
C503 C175 1.576 . S
C508 C141 1.585 . S
C519 C243 1.571 . S
C524 C209 1.603 . S
C535 C237 1.578 . S
C540 C33 1.578 . S
C551 C271 1.563 . S
C556 C67 1.563 . S
C567 C169 1.562 . S
C572 C101 1.562 . S
C583 C135 1.573 . S
C588 C203 1.573 . S
