# Generated by pormake.
# Topology und, (4)-cn, num edge types: 1
# Building blocks:
#     Node 0, Type 0, BuildingBlock: TATPOV_clean_sbu_0, # of connection points: 4
#     Node 1, Type 0, BuildingBlock: TATPOV_clean_sbu_0, # of connection points: 4
#     Node 2, Type 0, BuildingBlock: TATPOV_clean_sbu_0, # of connection points: 4
#     Node 3, Type 0, BuildingBlock: TATPOV_clean_sbu_0, # of connection points: 4
#     Node 4, Type 0, BuildingBlock: TATPOV_clean_sbu_0, # of connection points: 4
#     Node 5, Type 0, BuildingBlock: TATPOV_clean_sbu_0, # of connection points: 4
#     Node 6, Type 0, BuildingBlock: TATPOV_clean_sbu_0, # of connection points: 4
#     Node 7, Type 0, BuildingBlock: TATPOV_clean_sbu_0, # of connection points: 4
#     Node 8, Type 0, BuildingBlock: TATPOV_clean_sbu_0, # of connection points: 4
#     Node 9, Type 0, BuildingBlock: TATPOV_clean_sbu_0, # of connection points: 4
#     Node 10, Type 0, BuildingBlock: TATPOV_clean_sbu_0, # of connection points: 4
#     Node 11, Type 0, BuildingBlock: TATPOV_clean_sbu_0, # of connection points: 4
#     Node 12, Type 0, BuildingBlock: TATPOV_clean_sbu_0, # of connection points: 4
#     Node 13, Type 0, BuildingBlock: TATPOV_clean_sbu_0, # of connection points: 4
#     Node 14, Type 0, BuildingBlock: TATPOV_clean_sbu_0, # of connection points: 4
#     Node 15, Type 0, BuildingBlock: TATPOV_clean_sbu_0, # of connection points: 4
#     Edge 16, Type (0, 0), BuildingBlock: EZIPEK_clean_linker_0, # of connection points: 2
#     Edge 17, Type (0, 0), BuildingBlock: EZIPEK_clean_linker_0, # of connection points: 2
#     Edge 18, Type (0, 0), BuildingBlock: EZIPEK_clean_linker_0, # of connection points: 2
#     Edge 19, Type (0, 0), BuildingBlock: EZIPEK_clean_linker_0, # of connection points: 2
#     Edge 20, Type (0, 0), BuildingBlock: EZIPEK_clean_linker_0, # of connection points: 2
#     Edge 21, Type (0, 0), BuildingBlock: EZIPEK_clean_linker_0, # of connection points: 2
#     Edge 22, Type (0, 0), BuildingBlock: EZIPEK_clean_linker_0, # of connection points: 2
#     Edge 23, Type (0, 0), BuildingBlock: EZIPEK_clean_linker_0, # of connection points: 2
#     Edge 24, Type (0, 0), BuildingBlock: EZIPEK_clean_linker_0, # of connection points: 2
#     Edge 25, Type (0, 0), BuildingBlock: EZIPEK_clean_linker_0, # of connection points: 2
#     Edge 26, Type (0, 0), BuildingBlock: EZIPEK_clean_linker_0, # of connection points: 2
#     Edge 27, Type (0, 0), BuildingBlock: EZIPEK_clean_linker_0, # of connection points: 2
#     Edge 28, Type (0, 0), BuildingBlock: EZIPEK_clean_linker_0, # of connection points: 2
#     Edge 29, Type (0, 0), BuildingBlock: EZIPEK_clean_linker_0, # of connection points: 2
#     Edge 30, Type (0, 0), BuildingBlock: EZIPEK_clean_linker_0, # of connection points: 2
#     Edge 31, Type (0, 0), BuildingBlock: EZIPEK_clean_linker_0, # of connection points: 2
#     Edge 32, Type (0, 0), BuildingBlock: EZIPEK_clean_linker_0, # of connection points: 2
#     Edge 33, Type (0, 0), BuildingBlock: EZIPEK_clean_linker_0, # of connection points: 2
#     Edge 34, Type (0, 0), BuildingBlock: EZIPEK_clean_linker_0, # of connection points: 2
#     Edge 35, Type (0, 0), BuildingBlock: EZIPEK_clean_linker_0, # of connection points: 2
#     Edge 36, Type (0, 0), BuildingBlock: EZIPEK_clean_linker_0, # of connection points: 2
#     Edge 37, Type (0, 0), BuildingBlock: EZIPEK_clean_linker_0, # of connection points: 2
#     Edge 38, Type (0, 0), BuildingBlock: EZIPEK_clean_linker_0, # of connection points: 2
#     Edge 39, Type (0, 0), BuildingBlock: EZIPEK_clean_linker_0, # of connection points: 2
#     Edge 40, Type (0, 0), BuildingBlock: EZIPEK_clean_linker_0, # of connection points: 2
#     Edge 41, Type (0, 0), BuildingBlock: EZIPEK_clean_linker_0, # of connection points: 2
#     Edge 42, Type (0, 0), BuildingBlock: EZIPEK_clean_linker_0, # of connection points: 2
#     Edge 43, Type (0, 0), BuildingBlock: EZIPEK_clean_linker_0, # of connection points: 2
#     Edge 44, Type (0, 0), BuildingBlock: EZIPEK_clean_linker_0, # of connection points: 2
#     Edge 45, Type (0, 0), BuildingBlock: EZIPEK_clean_linker_0, # of connection points: 2
#     Edge 46, Type (0, 0), BuildingBlock: EZIPEK_clean_linker_0, # of connection points: 2
#     Edge 47, Type (0, 0), BuildingBlock: EZIPEK_clean_linker_0, # of connection points: 2
# Relax obj value: 0.104
# Max RMSD: 0.158
# Mean RMSD: 0.158
data_MOF--net-und--node1-TATPOV_clean_sbu_0--edge1-EZIPEK_clean_linker_0
_symmetry_space_group_name_H-M    P1
_symmetry_Int_Tables_number       1
_symmetry_cell_setting            triclinic
loop_
_symmetry_equiv_pos_as_xyz
'x, y, z'
_cell_length_a     44.676849
_cell_length_b     44.780961
_cell_length_c     15.252126
_cell_angle_alpha  90.036391
_cell_angle_beta   89.741534
_cell_angle_gamma 92.353815
loop_
_atom_site_label
_atom_site_type_symbol
_atom_site_fract_x
_atom_site_fract_y
_atom_site_fract_z
_atom_type_partial_charge
Zn0 Zn 0.27728 0.32102 0.95747 0.0
Zn1 Zn 0.22638 0.3459 0.9684 0.0
O2 O 0.22995 0.3128 0.06115 0.0
O3 O 0.27587 0.29685 0.06646 0.0
O4 O 0.19111 0.36898 0.01048 0.0
O5 O 0.30245 0.35789 0.94057 0.0
O6 O 0.25867 0.37875 0.93662 0.0
C7 C 0.24903 0.29552 0.0931 0.0
C8 C 0.23209 0.30515 0.82261 0.0
O9 O 0.21487 0.3236 0.85835 0.0
O10 O 0.25811 0.30122 0.85195 0.0
C11 C 0.16875 0.35647 0.04961 0.0
O12 O 0.16708 0.32727 0.05823 0.0
C13 C 0.28706 0.38045 0.92737 0.0
Zn14 Zn 0.9166 0.96183 0.25114 0.0
Zn15 Zn 0.90674 0.01946 0.26711 0.0
O16 O 0.93409 0.01197 0.16257 0.0
O17 O 0.93575 0.96402 0.13223 0.0
O18 O 0.8941 0.0614 0.24697 0.0
O19 O 0.87402 0.94923 0.27376 0.0
O20 O 0.86672 -0.00299 0.2952 0.0
C21 C 0.9439 0.99084 0.11636 0.0
C22 C 0.94814 0.99548 0.39301 0.0
O23 O 0.93409 0.01839 0.37054 0.0
O24 O 0.94424 0.97065 0.35387 0.0
C25 C 0.9107 0.08207 0.21311 0.0
O26 O 0.93914 0.07769 0.19776 0.0
C27 C 0.85714 0.96988 0.29613 0.0
Zn28 Zn 0.20922 0.69363 0.43294 0.0
Zn29 Zn 0.26358 0.67397 0.45694 0.0
O30 O 0.25829 0.70324 0.5577 0.0
O31 O 0.21461 0.72269 0.53203 0.0
O32 O 0.30305 0.65549 0.48307 0.0
O33 O 0.18954 0.6532 0.44201 0.0
O34 O 0.23538 0.63679 0.43905 0.0
C35 C 0.23886 0.72246 0.57432 0.0
C36 C 0.2506 0.71212 0.30028 0.0
O37 O 0.26968 0.69998 0.34906 0.0
O38 O 0.22282 0.70926 0.31617 0.0
C39 C 0.30954 0.64955 0.56217 0.0
O40 O 0.29126 0.65684 0.62559 0.0
C41 C 0.20712 0.63189 0.43703 0.0
Zn42 Zn 0.59297 0.06085 0.73501 0.0
Zn43 Zn 0.59573 0.0027 0.74605 0.0
O44 O 0.57021 0.01004 0.63836 0.0
O45 O 0.56578 0.05881 0.6313 0.0
O46 O 0.60526 0.95937 0.73269 0.0
O47 O 0.63742 0.06859 0.73278 0.0
O48 O 0.63764 0.02135 0.76945 0.0
C49 C 0.55827 0.03275 0.6055 0.0
C50 C 0.56067 0.03384 0.88109 0.0
O51 O 0.56812 0.00893 0.84884 0.0
O52 O 0.57084 0.05848 0.85016 0.0
C53 C 0.58841 0.93936 0.69691 0.0
O54 O 0.56061 0.94508 0.67748 0.0
C55 C 0.65146 0.0465 0.76011 0.0
Zn56 Zn 0.70472 0.672 0.97022 0.0
Zn57 Zn 0.76299 0.66648 0.97993 0.0
O58 O 0.7511 0.69127 0.87403 0.0
O59 O 0.70264 0.68832 0.84853 0.0
O60 O 0.80535 0.65403 0.95416 0.0
O61 O 0.69385 0.63008 0.00347 0.0
O62 O 0.74243 0.6269 0.02254 0.0
C63 C 0.72864 0.69845 0.82899 0.0
C64 C 0.73843 0.70906 0.1015 0.0
O65 O 0.76222 0.69633 0.07845 0.0
O66 O 0.71334 0.70231 0.06671 0.0
C67 C 0.82073 0.66207 0.88711 0.0
O68 O 0.8109 0.68255 0.83412 0.0
C69 C 0.71589 0.61563 0.02883 0.0
Zn70 Zn 0.07434 0.04597 0.76439 0.0
Zn71 Zn 0.08771 0.98932 0.76862 0.0
O72 O 0.05989 -0.00101 0.87057 0.0
O73 O 0.05461 0.04751 0.88209 0.0
O74 O 0.10404 0.94953 0.79947 0.0
O75 O 0.11589 0.06085 0.73613 0.0
O76 O 0.12603 0.01325 0.73241 0.0
C77 C 0.04842 0.02117 0.90814 0.0
C78 C 0.04492 0.0054 0.63526 0.0
O79 O 0.0604 0.98446 0.66495 0.0
O80 O 0.04744 0.03171 0.66567 0.0
C81 C 0.09295 0.93102 0.85506 0.0
O82 O 0.06692 0.93564 0.89192 0.0
C83 C 0.13397 0.04052 0.72035 0.0
Zn84 Zn 0.79596 0.33404 0.48756 0.0
Zn85 Zn 0.74073 0.34698 0.50353 0.0
O86 O 0.74776 0.31875 0.40044 0.0
O87 O 0.79548 0.31562 0.36767 0.0
O88 O 0.70056 0.36346 0.47651 0.0
O89 O 0.81367 0.37397 0.52019 0.0
O90 O 0.76647 0.38389 0.5433 0.0
C91 C 0.76833 0.30816 0.35336 0.0
C92 C 0.7597 0.30332 0.6269 0.0
O93 O 0.73779 0.3191 0.60587 0.0
O94 O 0.78469 0.30589 0.58734 0.0
C95 C 0.67951 0.3482 0.43978 0.0
O96 O 0.68221 0.31944 0.42661 0.0
C97 C 0.79424 0.39117 0.54949 0.0
Zn98 Zn 0.43264 0.98384 0.24729 0.0
Zn99 Zn 0.41431 0.03725 0.24511 0.0
O100 O 0.4365 0.0331 0.36194 0.0
O101 O 0.4536 0.98768 0.36104 0.0
O102 O 0.3929 0.07558 0.26115 0.0
O103 O 0.3934 0.96284 0.22455 0.0
O104 O 0.38037 0.00886 0.19891 0.0
C105 C 0.45307 0.01349 0.39431 0.0
C106 C 0.4625 0.02259 0.12093 0.0
O107 O 0.44676 0.04312 0.15265 0.0
O108 O 0.45895 0.99575 0.14608 0.0
C109 C 0.40391 0.09912 0.2972 0.0
O110 O 0.43232 0.10077 0.31921 0.0
C111 C 0.37481 0.98079 0.19519 0.0
Zn112 Zn 0.78062 0.83193 0.48419 0.0
Zn113 Zn 0.72417 0.84575 0.48585 0.0
O114 O 0.73231 0.81611 0.5846 0.0
O115 O 0.78067 0.80931 0.59643 0.0
O116 O 0.68424 0.86215 0.51866 0.0
O117 O 0.7967 0.87358 0.46892 0.0
O118 O 0.74923 0.88437 0.4583 0.0
C119 C 0.75402 0.80348 0.62095 0.0
C120 C 0.7418 0.80564 0.34567 0.0
O121 O 0.72033 0.82025 0.37707 0.0
O122 O 0.76782 0.80776 0.3783 0.0
C123 C 0.66473 0.8494 0.56851 0.0
O124 O 0.66807 0.82179 0.59452 0.0
C125 C 0.77689 0.89218 0.45357 0.0
Zn126 Zn 0.42988 0.45197 0.67252 0.0
Zn127 Zn 0.4131 0.50816 0.70115 0.0
O128 O 0.43113 0.50655 0.57824 0.0
O129 O 0.44112 0.46038 0.54721 0.0
O130 O 0.39233 0.54712 0.69866 0.0
O131 O 0.38992 0.43428 0.71194 0.0
O132 O 0.37859 0.48046 0.74344 0.0
C133 C 0.44107 0.48756 0.52465 0.0
C134 C 0.46474 0.48762 0.80209 0.0
O135 O 0.44717 0.50881 0.7878 0.0
O136 O 0.46147 0.46266 0.76329 0.0
C137 C 0.40267 0.57168 0.66703 0.0
O138 O 0.43101 0.57458 0.64447 0.0
C139 C 0.3721 0.45259 0.74415 0.0
Zn140 Zn 0.71351 0.17605 0.00688 0.0
Zn141 Zn 0.77108 0.16683 0.00834 0.0
O142 O 0.75969 0.1933 0.11128 0.0
O143 O 0.71079 0.19576 0.12475 0.0
O144 O 0.81174 0.15296 0.04039 0.0
O145 O 0.701 0.13387 0.9777 0.0
O146 O 0.74952 0.12797 0.96704 0.0
C147 C 0.73694 0.20333 0.15 0.0
C148 C 0.75202 0.20832 0.87617 0.0
O149 O 0.77434 0.19498 0.90653 0.0
O150 O 0.72581 0.20356 0.90659 0.0
C151 C 0.83109 0.16777 0.08528 0.0
O152 O 0.82655 0.19564 0.10672 0.0
C153 C 0.72269 0.11805 0.95669 0.0
Zn154 Zn 0.05804 0.5384 0.39217 0.0
Zn155 Zn 0.07925 0.48774 0.3348 0.0
O156 O 0.04232 0.49633 0.25851 0.0
O157 O 0.02582 0.5396 0.30285 0.0
O158 O 0.09879 0.45282 0.27637 0.0
O159 O 0.0971 0.56094 0.3838 0.0
O160 O 0.1154 0.51771 0.34699 0.0
C161 C 0.02322 0.51672 0.25449 0.0
C162 C 0.05137 0.48838 0.5128 0.0
O163 O 0.06412 0.47316 0.45398 0.0
O164 O 0.04753 0.51597 0.50185 0.0
C165 C 0.08723 0.43619 0.21683 0.0
O166 O 0.05951 0.4398 0.19195 0.0
C167 C 0.11918 0.54531 0.36567 0.0
Zn168 Zn 0.18689 0.17097 0.4496 0.0
Zn169 Zn 0.24635 0.16733 0.46381 0.0
O170 O 0.23521 0.18867 0.3521 0.0
O171 O 0.18699 0.1846 0.32387 0.0
O172 O 0.28956 0.15792 0.44433 0.0
O173 O 0.17932 0.12896 0.49107 0.0
O174 O 0.22814 0.12728 0.5074 0.0
C175 C 0.21309 0.19434 0.30385 0.0
C176 C 0.21844 0.21108 0.57686 0.0
O177 O 0.24263 0.19845 0.55744 0.0
O178 O 0.19373 0.20343 0.54108 0.0
C179 C 0.30776 0.17319 0.39626 0.0
O180 O 0.29993 0.1989 0.36399 0.0
C181 C 0.20198 0.11547 0.51686 0.0
Zn182 Zn 0.58103 0.54125 0.18813 0.0
Zn183 Zn 0.59281 0.48608 0.21327 0.0
O184 O 0.56349 0.49461 0.31301 0.0
O185 O 0.54831 0.53918 0.2783 0.0
O186 O 0.60797 0.44579 0.2457 0.0
O187 O 0.62296 0.55729 0.20494 0.0
O188 O 0.63277 0.50985 0.1945 0.0
C189 C 0.54509 0.51536 0.32234 0.0
C190 C 0.56008 0.50312 0.05063 0.0
O191 O 0.56776 0.48239 0.10206 0.0
O192 O 0.56673 0.53025 0.06753 0.0
C193 C 0.59431 0.42677 0.29494 0.0
O194 O 0.56655 0.43087 0.31935 0.0
C195 C 0.64171 0.53715 0.19497 0.0
Zn196 Zn 0.3092 0.84312 0.93022 0.0
Zn197 Zn 0.25141 0.85653 0.95692 0.0
O198 O 0.25227 0.83676 0.8375 0.0
O199 O 0.29906 0.82529 0.81278 0.0
O200 O 0.20924 0.87023 0.96132 0.0
O201 O 0.32279 0.88544 0.95879 0.0
O202 O 0.27583 0.89416 -0.00895 0.0
C203 C 0.27164 0.82349 0.7923 0.0
C204 C 0.2783 0.80867 0.06526 0.0
O205 O 0.25568 0.82384 0.04647 0.0
O206 O 0.30351 0.81371 0.02882 0.0
C207 C 0.18658 0.85359 0.94119 0.0
O208 O 0.18973 0.82501 0.92613 0.0
C209 C 0.30341 0.90233 -0.00979 0.0
Zn210 Zn 0.91593 0.4532 0.88558 0.0
Zn211 Zn 0.91104 0.51034 0.83746 0.0
O212 O 0.92202 0.50928 0.96699 0.0
O213 O 0.92207 0.46318 0.0131 0.0
O214 O 0.89755 0.55261 0.82445 0.0
O215 O 0.8766 0.44072 0.82996 0.0
O216 O 0.87521 0.48716 0.7836 0.0
C217 C 0.9256 0.49082 0.02903 0.0
C218 C 0.96192 0.47769 0.76366 0.0
O219 O 0.94843 0.50228 0.76633 0.0
O220 O 0.95255 0.45503 0.80704 0.0
C221 C 0.9116 0.57782 0.8284 0.0
O222 O 0.94098 0.57924 0.83302 0.0
C223 C 0.8646 0.46039 0.7839 0.0
C224 C 0.224 0.27384 0.22697 0.0
C225 C 0.23811 0.26953 0.14506 0.0
C226 C 0.23242 0.21515 0.16186 0.0
C227 C 0.2173 0.21941 0.24213 0.0
N228 N 0.19348 0.25243 0.34434 0.0
N229 N 0.24801 0.23671 0.02299 0.0
C230 C 0.21123 0.24867 0.27218 0.0
C231 C 0.24013 0.24035 0.10899 0.0
N232 N 0.22408 0.30176 0.26338 0.0
N233 N 0.23992 0.18709 0.13696 0.0
H234 H 0.25285 0.25455 0.98065 0.0
H235 H 0.24681 0.21611 -0.00886 0.0
H236 H 0.2332 0.16796 0.1721 0.0
H237 H 0.25426 0.18302 0.08461 0.0
H238 H 0.21722 0.30595 0.32737 0.0
H239 H 0.23335 0.32068 0.23196 0.0
H240 H 0.18568 0.27302 0.36367 0.0
H241 H 0.18451 0.23475 0.38165 0.0
C242 C 0.00126 0.00917 0.42514 0.0
C243 C 0.97273 -0.00153 0.4557 0.0
C244 C 0.99351 0.98663 0.59871 0.0
C245 C 0.02155 -0.00075 0.57009 0.0
N246 N 0.05256 0.02417 0.46069 0.0
N247 N 0.94017 0.9796 0.57072 0.0
C248 C 0.02559 0.01088 0.48437 0.0
C249 C 0.96843 0.98773 0.54222 0.0
N250 N 0.00514 0.01693 0.33889 0.0
N251 N 0.99097 0.97379 0.67997 0.0
H252 H 0.92138 0.98017 0.5304 0.0
H253 H 0.93475 0.97425 0.63537 0.0
H254 H 0.00865 0.97344 0.72431 0.0
H255 H 0.97201 0.96178 0.7021 0.0
H256 H 0.02596 0.02133 0.30974 0.0
H257 H 0.98754 0.01741 0.29428 0.0
H258 H 0.05604 0.03645 0.40339 0.0
H259 H 0.07146 0.02402 0.50064 0.0
C260 C 0.2327 0.75153 0.71229 0.0
C261 C 0.24706 0.7482 0.6305 0.0
C262 C 0.27298 0.79723 0.64774 0.0
C263 C 0.26129 0.79895 0.73373 0.0
N264 N 0.2356 0.77388 0.85567 0.0
N265 N 0.284 0.76583 0.52367 0.0
C266 C 0.24242 0.77521 0.76817 0.0
C267 C 0.2682 0.77042 0.59917 0.0
N268 N 0.21001 0.73189 0.73727 0.0
N269 N 0.2879 0.82154 0.61172 0.0
H270 H 0.28078 0.74699 0.48423 0.0
H271 H 0.30195 0.77971 0.50317 0.0
H272 H 0.29143 0.84161 0.64569 0.0
H273 H 0.29423 0.82284 0.546 0.0
H274 H 0.19633 0.73543 0.7915 0.0
H275 H 0.20339 0.71318 0.70026 0.0
H276 H 0.22484 0.75537 0.88509 0.0
H277 H 0.24339 0.78954 0.90139 0.0
C278 C 0.4827 0.03874 0.97528 0.0
C279 C 0.48788 0.02993 0.06265 0.0
C280 C 0.54133 0.02506 0.0325 0.0
C281 C 0.53626 0.0343 0.94545 0.0
N282 N 0.50379 0.05495 0.83612 0.0
N283 N 0.52203 0.02023 0.18061 0.0
C284 C 0.50749 0.04294 0.91768 0.0
C285 C 0.51723 0.0248 0.09318 0.0
N286 N 0.454 0.0413 0.94611 0.0
N287 N 0.569 0.01599 0.05643 0.0
H288 H 0.50478 0.01929 0.22687 0.0
H289 H 0.54318 0.01966 0.2087 0.0
H290 H 0.58757 0.0174 0.01468 0.0
H291 H 0.57332 0.0056 0.1158 0.0
H292 H 0.44843 0.04382 0.88041 0.0
H293 H 0.43529 0.03886 -0.01299 0.0
H294 H 0.48427 0.06486 0.8163 0.0
H295 H 0.5208 0.05689 0.78931 0.0
C296 C 0.26661 0.79022 0.21483 0.0
C297 C 0.27472 0.78388 0.12746 0.0
C298 C 0.27277 0.73018 0.15853 0.0
C299 C 0.26066 0.73649 0.24189 0.0
N300 N 0.2437 0.77214 0.34907 0.0
N301 N 0.28351 0.74826 0.01173 0.0
C302 C 0.257 0.76642 0.27016 0.0
C303 C 0.27765 0.75398 0.0981 0.0
N304 N 0.26909 0.81892 0.24558 0.0
N305 N 0.27944 0.70154 0.13731 0.0
H306 H 0.28757 0.76499 0.96523 0.0
H307 H 0.28231 0.72693 0.98448 0.0
H308 H 0.27516 0.68352 0.17952 0.0
H309 H 0.29121 0.69592 0.08099 0.0
H310 H 0.26668 0.82457 0.3114 0.0
H311 H 0.2765 0.83692 0.20665 0.0
H312 H 0.23698 0.79322 0.36771 0.0
H313 H 0.23758 0.75561 0.39441 0.0
C314 C 0.4796 0.00727 0.53645 0.0
C315 C 0.47731 0.02247 0.45564 0.0
C316 C 0.52906 0.04251 0.47001 0.0
C317 C 0.53086 0.02846 0.55254 0.0
N318 N 0.50535 0.00368 0.67472 0.0
N319 N 0.49776 0.05987 0.3539 0.0
C320 C 0.50545 0.01252 0.58885 0.0
C321 C 0.50124 0.04196 0.42542 0.0
N322 N 0.45714 0.9876 0.56284 0.0
N323 N 0.55438 0.055 0.43192 0.0
H324 H 0.47883 0.05935 0.31455 0.0
H325 H 0.51308 0.07705 0.33666 0.0
H326 H 0.57528 0.05541 0.46224 0.0
H327 H 0.55534 0.06235 0.36716 0.0
H328 H 0.45922 0.97284 0.61501 0.0
H329 H 0.43684 0.98497 0.52954 0.0
H330 H 0.4863 0.99511 0.70706 0.0
H331 H 0.5234 0.00744 0.71677 0.0
C332 C 0.20655 0.2329 0.72217 0.0
C333 C 0.21908 0.23651 0.63718 0.0
C334 C 0.23343 0.28869 0.66778 0.0
C335 C 0.22137 0.28493 0.75316 0.0
N336 N 0.19118 0.25652 0.85737 0.0
N337 N 0.23876 0.26847 0.52132 0.0
C338 C 0.20592 0.25803 0.7786 0.0
C339 C 0.23074 0.26468 0.60742 0.0
N340 N 0.19672 0.20515 0.75014 0.0
N341 N 0.24841 0.3149 0.64607 0.0
H342 H 0.23789 0.2511 0.47571 0.0
H343 H 0.24437 0.28916 0.49336 0.0
H344 H 0.24902 0.33348 0.68748 0.0
H345 H 0.26107 0.31797 0.58909 0.0
H346 H 0.19037 0.20028 0.81443 0.0
H347 H 0.19686 0.18621 0.71026 0.0
H348 H 0.17734 0.23847 0.87691 0.0
H349 H 0.19075 0.2745 0.90078 0.0
C350 C 0.02517 0.0011 0.04606 0.0
C351 C 0.02189 0.0152 0.96403 0.0
C352 C 0.96724 0.0137 0.98195 0.0
C353 C 0.97033 -0.00255 0.06057 0.0
N354 N 0.00179 0.97316 0.16557 0.0
N355 N 0.98986 0.02947 0.84464 0.0
C356 C -0.00082 0.99028 0.09192 0.0
C357 C 0.99295 0.0202 0.92949 0.0
N358 N 0.05313 -0.00098 0.0812 0.0
N359 N 0.93974 0.0231 0.95762 0.0
H360 H 0.00792 0.03426 0.80283 0.0
H361 H 0.9693 0.02989 0.81287 0.0
H362 H 0.92009 0.01734 -0.00809 0.0
H363 H 0.9367 0.03826 0.90696 0.0
H364 H 0.05708 0.99194 0.14493 0.0
H365 H 0.07255 0.00676 0.04879 0.0
H366 H 0.02176 0.96416 0.18547 0.0
H367 H 0.9837 0.96639 0.20513 0.0
C368 C 0.74741 0.72215 0.69019 0.0
C369 C 0.73238 0.7247 0.77139 0.0
C370 C 0.73378 0.77942 0.75774 0.0
C371 C 0.74731 0.77665 0.67439 0.0
N372 N 0.76085 0.74547 0.55189 0.0
N373 N 0.70796 0.75506 0.87969 0.0
C374 C 0.75249 0.74804 0.63791 0.0
C375 C 0.72438 0.75314 0.80408 0.0
N376 N 0.75725 0.69506 0.66367 0.0
N377 N 0.73106 0.80716 0.79386 0.0
H378 H 0.70205 0.73674 0.91899 0.0
H379 H 0.6985 0.77462 0.90132 0.0
H380 H 0.73758 0.82682 0.76106 0.0
H381 H 0.72452 0.81081 0.85842 0.0
H382 H 0.77164 0.69246 0.61054 0.0
H383 H 0.75255 0.67531 0.69826 0.0
H384 H 0.76154 0.72509 0.51917 0.0
H385 H 0.76447 0.76375 0.51036 0.0
C386 C 0.74468 0.28457 0.22077 0.0
C387 C 0.76062 0.2815 0.2999 0.0
C388 C 0.75525 0.22672 0.28918 0.0
C389 C 0.74181 0.22988 0.20622 0.0
N390 N 0.72708 0.26141 0.08628 0.0
N391 N 0.78215 0.25015 0.41035 0.0
C392 C 0.73715 0.25869 0.17041 0.0
C393 C 0.76627 0.25268 0.33436 0.0
N394 N 0.73654 0.31223 0.19412 0.0
N395 N 0.75663 0.19888 0.32547 0.0
H396 H 0.78905 0.26837 0.44873 0.0
H397 H 0.78997 0.23012 0.43378 0.0
H398 H 0.74858 0.17957 0.29353 0.0
H399 H 0.76345 0.19487 0.38935 0.0
H400 H 0.72163 0.31564 0.14316 0.0
H401 H 0.74313 0.33187 0.22685 0.0
H402 H 0.72687 0.28166 0.05284 0.0
H403 H 0.72094 0.24324 0.0467 0.0
C404 C 0.76827 0.26033 0.83735 0.0
C405 C 0.75637 0.23193 0.81062 0.0
C406 C 0.74274 0.25185 0.66793 0.0
C407 C 0.75607 0.27983 0.69299 0.0
N408 N 0.78473 0.31052 0.79492 0.0
N409 N 0.73618 0.19883 0.69931 0.0
C410 C 0.76981 0.28402 0.77584 0.0
C411 C 0.74462 0.22716 0.72549 0.0
N412 N 0.77689 0.26494 0.92247 0.0
N413 N 0.72829 0.24899 0.58922 0.0
H414 H 0.73755 0.18028 0.74024 0.0
H415 H 0.73009 0.19315 0.63551 0.0
H416 H 0.72733 0.26636 0.54392 0.0
H417 H 0.71555 0.2301 0.57062 0.0
H418 H 0.78215 0.28594 0.94878 0.0
H419 H 0.777 0.24793 0.96911 0.0
H420 H 0.79833 0.31377 0.84962 0.0
H421 H 0.78489 0.32898 0.75322 0.0
C422 C 0.74866 0.76293 0.1339 0.0
C423 C 0.73973 0.73392 0.16402 0.0
C424 C 0.72482 0.75415 0.30567 0.0
C425 C 0.73641 0.78266 0.27853 0.0
N426 N 0.76091 0.81467 0.17106 0.0
N427 N 0.72206 0.70067 0.27873 0.0
C428 C 0.74865 0.78723 0.19357 0.0
C429 C 0.72837 0.72918 0.24988 0.0
N430 N 0.75629 0.7673 0.04772 0.0
N431 N 0.71057 0.75101 0.38496 0.0
H432 H 0.72446 0.6819 0.23915 0.0
H433 H 0.71669 0.69525 0.34338 0.0
H434 H 0.70822 0.76865 0.42875 0.0
H435 H 0.6991 0.73151 0.40517 0.0
H436 H 0.75951 0.78831 0.0192 0.0
H437 H 0.75763 0.74986 0.00267 0.0
H438 H 0.77353 0.81867 0.11444 0.0
H439 H 0.75954 0.83339 0.21146 0.0
C440 C 0.50596 0.50121 0.01496 0.0
C441 C 0.53595 0.4971 -0.01261 0.0
C442 C 0.51939 0.48967 0.83645 0.0
C443 C 0.48924 0.4916 0.8654 0.0
N444 N 0.45326 0.49318 0.98364 0.0
N445 N 0.57135 0.48351 0.8766 0.0
C446 C 0.48233 0.49572 0.95507 0.0
C447 C 0.54273 0.49002 0.89944 0.0
N448 N 0.50008 0.51124 0.09778 0.0
N449 N 0.52573 0.48883 0.74868 0.0
H450 H 0.58892 0.48416 0.92153 0.0
H451 H 0.57725 0.47528 0.81534 0.0
H452 H 0.50923 0.48915 0.70053 0.0
H453 H 0.54738 0.49037 0.72312 0.0
H454 H 0.47914 0.51811 0.11788 0.0
H455 H 0.51657 0.51489 0.14502 0.0
H456 H 0.44722 0.49231 0.04965 0.0
H457 H 0.43517 0.48931 0.94168 0.0
C458 C 0.04026 0.489 0.67133 0.0
C459 C 0.03655 0.47429 0.58967 0.0
C460 C 0.98569 0.45759 0.62908 0.0
C461 C 0.98832 0.47473 0.70715 0.0
N462 N 0.01962 0.49973 0.81511 0.0
N463 N 0.01137 0.43501 0.50705 0.0
C464 C 0.01625 0.48807 0.73269 0.0
C465 C 0.01118 0.45513 0.57435 0.0
N466 N 0.06634 0.50506 0.68716 0.0
N467 N 0.9585 0.44514 0.60481 0.0
H468 H 0.03028 0.43191 0.46851 0.0
H469 H 0.99422 0.41901 0.49616 0.0
H470 H 0.93924 0.44633 0.64335 0.0
H471 H 0.95444 0.43551 0.54363 0.0
H472 H 0.06971 0.51928 0.7405 0.0
H473 H 0.08461 0.50443 0.64429 0.0
H474 H 0.04001 0.50773 0.84035 0.0
H475 H 0.00221 0.49953 0.86099 0.0
C476 C 0.985 0.53353 0.14755 0.0
C477 C 0.99497 0.51142 0.20563 0.0
C478 C 0.94962 0.48023 0.1753 0.0
C479 C 0.94173 0.5011 0.11028 0.0
N480 N 0.94176 0.55377 0.07858 0.0
N481 N 0.98173 0.46895 0.29814 0.0
C482 C 0.95616 0.52983 0.11032 0.0
C483 C 0.97579 0.48617 0.22667 0.0
N484 N 0.00334 0.55748 0.125 0.0
N485 N 0.93175 0.45518 0.1887 0.0
H486 H -0.00018 0.4734 0.33974 0.0
H487 H 0.96747 0.45174 0.32124 0.0
H488 H 0.91017 0.45304 0.16287 0.0
H489 H 0.938 0.4369 0.22545 0.0
H490 H 0.99785 0.57261 0.07627 0.0
H491 H 0.02508 0.56064 0.14888 0.0
H492 H 0.9505 0.5756 0.08447 0.0
H493 H 0.91939 0.55206 0.05895 0.0
C494 C 0.47053 0.4768 0.38771 0.0
C495 C 0.45984 0.4979 0.44822 0.0
C496 C 0.50381 0.5308 0.42231 0.0
C497 C 0.51599 0.50894 0.36692 0.0
N498 N 0.50561 0.46628 0.27153 0.0
N499 N 0.45785 0.55072 0.47608 0.0
C500 C 0.49784 0.48331 0.34195 0.0
C501 C 0.47377 0.52684 0.45092 0.0
N502 N 0.45424 0.4508 0.37329 0.0
N503 N 0.52099 0.55491 0.44979 0.0
H504 H 0.43472 0.54885 0.48544 0.0
H505 H 0.46662 0.57265 0.47399 0.0
H506 H 0.54354 0.55813 0.43281 0.0
H507 H 0.51353 0.57 0.49633 0.0
H508 H 0.46258 0.43244 0.34074 0.0
H509 H 0.43216 0.44775 0.39527 0.0
H510 H 0.49181 0.44927 0.24537 0.0
H511 H 0.5245 0.47078 0.23287 0.0
C512 C 0.11179 0.41642 0.08093 0.0
C513 C 0.10589 0.41402 0.17236 0.0
C514 C 0.14167 0.37412 0.18372 0.0
C515 C 0.14597 0.3751 0.09138 0.0
N516 N 0.13044 0.3926 0.94994 0.0
N517 N 0.11009 0.38642 0.3071 0.0
C518 C 0.12958 0.39488 0.0393 0.0
C519 C 0.1193 0.39157 0.22266 0.0
N520 N 0.10181 0.44014 0.03456 0.0
N521 N 0.15999 0.35778 0.23494 0.0
H522 H 0.09346 0.3985 0.33743 0.0
H523 H 0.11679 0.36833 0.34407 0.0
H524 H 0.17711 0.34515 0.20961 0.0
H525 H 0.16006 0.3589 0.30315 0.0
H526 H 0.10829 0.4448 0.97017 0.0
H527 H 0.08921 0.45679 0.06249 0.0
H528 H 0.11652 0.40426 0.90873 0.0
H529 H 0.14301 0.37691 0.9172 0.0
C530 C 0.80356 0.94135 0.46937 0.0
C531 C 0.78667 0.92127 0.41598 0.0
C532 C 0.80613 0.94664 0.28441 0.0
C533 C 0.82811 0.9613 0.33696 0.0
N534 N 0.84667 0.97581 0.47985 0.0
N535 N 0.76869 0.9061 0.27308 0.0
C536 C 0.82592 0.96041 0.42987 0.0
C537 C 0.78625 0.92494 0.32352 0.0
N538 N 0.79852 0.94138 0.55774 0.0
N539 N 0.80507 0.95312 0.19704 0.0
H540 H 0.75319 0.89058 0.29969 0.0
H541 H 0.77011 0.90508 0.20503 0.0
H542 H 0.81973 0.96909 0.16835 0.0
H543 H 0.78831 0.94492 0.15524 0.0
H544 H 0.80846 0.95686 0.60067 0.0
H545 H 0.78207 0.92731 0.5867 0.0
H546 H 0.84863 0.97318 0.54733 0.0
H547 H 0.86279 0.99069 0.45324 0.0
C548 C 0.33537 0.60114 0.55046 0.0
C549 C 0.3352 0.63088 0.58242 0.0
C550 C 0.38023 0.62242 0.66943 0.0
C551 C 0.38106 0.59318 0.63408 0.0
N552 N 0.36429 0.55757 0.52391 0.0
N553 N 0.36002 0.67184 0.65922 0.0
C554 C 0.36012 0.58345 0.56926 0.0
C555 C 0.35844 0.64215 0.6381 0.0
N556 N 0.31114 0.5891 0.50643 0.0
N557 N 0.39949 0.63089 0.73509 0.0
H558 H 0.34449 0.68685 0.63695 0.0
H559 H 0.37797 0.68211 0.6924 0.0
H560 H 0.41601 0.61714 0.75826 0.0
H561 H 0.3979 0.65064 0.77052 0.0
H562 H 0.30864 0.56648 0.49091 0.0
H563 H 0.29213 0.60094 0.49243 0.0
H564 H 0.35159 0.55111 0.46947 0.0
H565 H 0.38231 0.54401 0.53488 0.0
C566 C 0.70151 0.06584 0.94194 0.0
C567 C 0.71636 0.09105 0.90332 0.0
C568 C 0.70072 0.07416 0.75738 0.0
C569 C 0.68172 0.05226 0.798 0.0
N570 N 0.67651 0.01742 0.91803 0.0
N571 N 0.73868 0.11415 0.77417 0.0
C572 C 0.68641 0.04463 0.88688 0.0
C573 C 0.7193 0.0932 0.81059 0.0
N574 N 0.7008 0.06301 0.03106 0.0
N575 N 0.69929 0.07758 0.66853 0.0
H576 H 0.75234 0.12859 0.81141 0.0
H577 H 0.74293 0.11602 0.70728 0.0
H578 H 0.68671 0.06255 0.62963 0.0
H579 H 0.70998 0.09491 0.63365 0.0
H580 H 0.68738 0.04704 0.06393 0.0
H581 H 0.71302 0.07761 0.07211 0.0
H582 H 0.68061 0.01009 0.98146 0.0
H583 H 0.66773 0.0007 0.87689 0.0
C584 C 0.15934 0.56253 0.46802 0.0
C585 C 0.14941 0.55855 0.38037 0.0
C586 C 0.18722 0.59514 0.32782 0.0
C587 C 0.19421 0.60201 0.41641 0.0
N588 N 0.19454 0.58774 0.56781 0.0
N589 N 0.15847 0.56357 0.22581 0.0
C590 C 0.18293 0.58388 0.48565 0.0
C591 C 0.1652 0.5722 0.30962 0.0
N592 N 0.14507 0.5469 0.53408 0.0
N593 N 0.20045 0.61182 0.26216 0.0
H594 H 0.14228 0.54675 0.21217 0.0
H595 H 0.17012 0.57127 0.17056 0.0
H596 H 0.21754 0.62789 0.2741 0.0
H597 H 0.19438 0.61029 0.19653 0.0
H598 H 0.14892 0.55063 0.60045 0.0
H599 H 0.12867 0.53014 0.52199 0.0
H600 H 0.18863 0.57438 0.62141 0.0
H601 H 0.21202 0.6033 0.58065 0.0
C602 C 0.61709 0.89372 0.72612 0.0
C603 C 0.60218 0.91173 0.66524 0.0
C604 C 0.62105 0.8814 0.54462 0.0
C605 C 0.64022 0.86729 0.60399 0.0
N606 N 0.65866 0.86195 0.75188 0.0
N607 N 0.59246 0.92483 0.51427 0.0
C608 C 0.63853 0.87354 0.69526 0.0
C609 C 0.60435 0.90587 0.57381 0.0
N610 N 0.61068 0.89596 0.81351 0.0
N611 N 0.61879 0.8713 0.46024 0.0
H612 H 0.58057 0.94346 0.53172 0.0
H613 H 0.59655 0.92354 0.44711 0.0
H614 H 0.63063 0.85324 0.43729 0.0
H615 H 0.60302 0.87876 0.41607 0.0
H616 H 0.61867 0.88145 0.8605 0.0
H617 H 0.5949 0.91045 0.83775 0.0
H618 H 0.66066 0.86861 0.8171 0.0
H619 H 0.67512 0.84748 0.73257 0.0
C620 C 0.32065 0.429 0.74747 0.0
C621 C 0.34569 0.44108 0.79359 0.0
C622 C 0.32376 0.42344 0.93259 0.0
C623 C 0.302 0.40658 0.88476 0.0
N624 N 0.2786 0.39315 0.74691 0.0
N625 N 0.37155 0.45104 0.92987 0.0
C626 C 0.29961 0.40987 0.79235 0.0
C627 C 0.34709 0.43925 0.88649 0.0
N628 N 0.31718 0.43587 0.6609 0.0
N629 N 0.32203 0.42397 0.02204 0.0
H630 H 0.38882 0.46326 0.89848 0.0
H631 H 0.37562 0.44747 -0.00391 0.0
H632 H 0.30487 0.41249 0.05638 0.0
H633 H 0.33568 0.4377 0.06142 0.0
H634 H 0.29802 0.43006 0.62512 0.0
H635 H 0.33249 0.44981 0.62682 0.0
H636 H 0.27829 0.39149 0.67884 0.0
H637 H 0.2621 0.37964 0.77733 0.0
C638 C 0.85927 0.14661 0.21179 0.0
C639 C 0.85692 0.15198 0.1203 0.0
C640 C 0.89424 0.11476 0.08988 0.0
C641 C 0.89651 0.10929 0.18133 0.0
N642 N 0.88798 0.12542 0.32946 0.0
N643 N 0.8778 0.14783 0.97538 0.0
C644 C 0.88129 0.12715 0.24232 0.0
C645 C 0.87641 0.13827 0.06044 0.0
N646 N 0.8392 0.1583 0.269 0.0
N647 N 0.90728 0.09626 0.03083 0.0
H648 H 0.86506 0.1652 0.95242 0.0
H649 H 0.89357 0.1407 0.93032 0.0
H650 H 0.92044 0.07865 0.04897 0.0
H651 H 0.90326 0.09697 0.96367 0.0
H652 H 0.8376 0.15215 0.33475 0.0
H653 H 0.82255 0.17253 0.24997 0.0
H654 H 0.87975 0.13987 0.37649 0.0
H655 H 0.90416 0.11139 0.35332 0.0
C656 C 0.84699 0.62702 0.78638 0.0
C657 C 0.84742 0.64515 0.86292 0.0
C658 C 0.89432 0.62342 0.90937 0.0
C659 C 0.8937 0.60508 0.83312 0.0
N660 N 0.87498 0.59602 0.68756 0.0
N661 N 0.87493 0.66643 0.98463 0.0
C662 C 0.87182 0.60918 0.76776 0.0
C663 C 0.87227 0.64523 0.92031 0.0
N664 N 0.82208 0.62519 0.73451 0.0
N665 N 0.91476 0.61891 0.97383 0.0
H666 H 0.85915 0.68271 -0.00608 0.0
H667 H 0.89397 0.66966 0.02317 0.0
H668 H 0.93203 0.60421 0.96732 0.0
H669 H 0.91368 0.6286 0.03578 0.0
H670 H 0.8192 0.60969 0.68401 0.0
H671 H 0.80309 0.63738 0.74603 0.0
H672 H 0.86137 0.60035 0.63417 0.0
H673 H 0.89325 0.58318 0.67199 0.0
C674 C 0.20026 0.08983 0.66193 0.0
C675 C 0.19695 0.08803 0.56945 0.0
C676 C 0.16561 0.04234 0.58539 0.0
C677 C 0.16251 0.04903 0.67589 0.0
N678 N 0.18024 0.07471 0.80459 0.0
N679 N 0.181 0.06075 0.44141 0.0
C680 C 0.18157 0.07099 0.71573 0.0
C681 C 0.18156 0.06321 0.5307 0.0
N682 N 0.22031 0.11017 0.69782 0.0
N683 N 0.15264 0.01668 0.5518 0.0
H684 H 0.19398 0.075 0.40098 0.0
H685 H 0.16733 0.0454 0.40738 0.0
H686 H 0.14132 0.00073 0.59051 0.0
H687 H 0.15553 0.00964 0.48741 0.0
H688 H 0.22509 0.11143 0.76443 0.0
H689 H 0.23423 0.12434 0.66027 0.0
H690 H 0.1907 0.0924 0.83832 0.0
H691 H 0.16778 0.05991 0.84472 0.0
C692 C 0.63602 0.38078 0.46132 0.0
C693 C 0.65368 0.36386 0.40391 0.0
C694 C 0.62554 0.38207 0.27841 0.0
C695 C 0.61157 0.40265 0.33429 0.0
N696 N 0.60605 0.42415 0.4788 0.0
N697 N 0.6676 0.35056 0.25592 0.0
C698 C 0.6171 0.40246 0.42602 0.0
C699 C 0.64882 0.36469 0.3119 0.0
N700 N 0.63716 0.3759 0.54968 0.0
N701 N 0.61634 0.37903 0.19341 0.0
H702 H 0.68522 0.33791 0.27705 0.0
H703 H 0.66727 0.35336 0.18815 0.0
H704 H 0.59919 0.39137 0.16727 0.0
H705 H 0.62357 0.36234 0.1517 0.0
H706 H 0.62262 0.38541 0.59433 0.0
H707 H 0.65067 0.35998 0.57741 0.0
H708 H 0.61234 0.42711 0.544 0.0
H709 H 0.59255 0.4409 0.45612 0.0
C710 C 0.3275 0.95014 0.18449 0.0
C711 C 0.34959 0.96853 0.14255 0.0
C712 C 0.33129 0.95146 -0.00093 0.0
C713 C 0.31391 0.92866 0.04154 0.0
N714 N 0.29572 0.90532 0.17613 0.0
N715 N 0.37315 0.9873 0.00932 0.0
C716 C 0.31139 0.92813 0.1347 0.0
C717 C 0.35121 0.96998 0.04948 0.0
N718 N 0.32239 0.95357 0.27223 0.0
N719 N 0.32883 0.95506 0.91049 0.0
H720 H 0.38801 0.00157 0.04329 0.0
H721 H 0.37781 0.9863 0.94246 0.0
H722 H 0.31424 0.94162 0.87269 0.0
H723 H 0.3389 0.97292 0.87619 0.0
H724 H 0.3047 0.94274 0.30567 0.0
H725 H 0.33415 0.96966 0.30956 0.0
H726 H 0.29644 0.90179 0.24355 0.0
H727 H 0.28347 0.88856 0.14329 0.0
C728 C 0.79821 0.41611 0.69726 0.0
C729 C 0.80457 0.41653 0.60555 0.0
C730 C 0.84676 0.45205 0.62921 0.0
C731 C 0.84096 0.45087 0.72104 0.0
N732 N 0.80614 0.4402 0.83834 0.0
N733 N 0.82793 0.44172 0.48274 0.0
C734 C 0.81481 0.43583 0.75344 0.0
C735 C 0.82642 0.43707 0.57117 0.0
N736 N 0.77831 0.39532 0.73224 0.0
N737 N 0.87276 0.46525 0.59758 0.0
H738 H 0.81305 0.43088 0.43942 0.0
H739 H 0.84166 0.45833 0.45378 0.0
H740 H 0.88863 0.47633 0.63687 0.0
H741 H 0.87971 0.46336 0.53261 0.0
H742 H 0.77608 0.39156 0.79939 0.0
H743 H 0.76532 0.38028 0.69515 0.0
H744 H 0.78574 0.43204 0.86382 0.0
H745 H 0.81808 0.45465 0.88047 0.0
C746 C 0.34049 0.15196 0.27891 0.0
C747 C 0.33598 0.15967 0.36828 0.0
C748 C 0.37859 0.13026 0.41105 0.0
C749 C 0.38355 0.12314 0.32145 0.0
N750 N 0.3746 0.13354 0.16918 0.0
N751 N 0.35505 0.16289 0.51545 0.0
C752 C 0.36624 0.13616 0.25507 0.0
C753 C 0.35654 0.15104 0.43302 0.0
N754 N 0.31929 0.15784 0.21757 0.0
N755 N 0.39333 0.11573 0.47565 0.0
H756 H 0.33921 0.17833 0.53316 0.0
H757 H 0.37121 0.15976 0.56322 0.0
H758 H 0.4093 0.09994 0.46323 0.0
H759 H 0.38796 0.11749 0.54192 0.0
H760 H 0.31979 0.14954 0.15379 0.0
H761 H 0.29978 0.1689 0.23173 0.0
H762 H 0.3646 0.14497 0.11834 0.0
H763 H 0.39355 0.12231 0.14985 0.0
C764 C 0.68238 0.5397 0.08257 0.0
C765 C 0.67268 0.54644 0.16875 0.0
C766 C 0.70722 0.59017 0.17166 0.0
C767 C 0.70968 0.58799 0.07914 0.0
N768 N 0.70364 0.55951 0.94659 0.0
N769 N 0.68038 0.57331 0.3031 0.0
C770 C 0.69907 0.56198 0.03485 0.0
C771 C 0.68726 0.56983 0.21645 0.0
N772 N 0.67526 0.51246 0.04639 0.0
N773 N 0.7229 0.61237 0.21522 0.0
H774 H 0.66682 0.55753 0.33674 0.0
H775 H 0.68753 0.59152 0.34104 0.0
H776 H 0.73752 0.62754 0.18324 0.0
H777 H 0.72329 0.61453 0.2831 0.0
H778 H 0.68307 0.5057 0.98543 0.0
H779 H 0.66452 0.49523 0.08175 0.0
H780 H 0.69344 0.5429 0.90787 0.0
H781 H 0.71709 0.57504 0.9117 0.0
C782 C 0.14621 0.86832 0.83729 0.0
C783 C 0.15783 0.86773 0.92385 0.0
C784 C 0.12302 0.90561 0.97008 0.0
C785 C 0.11135 0.9061 0.8836 0.0
N786 N 0.10562 0.88242 0.74276 0.0
N787 N 0.15216 0.87928 0.07695 0.0
C788 C 0.12088 0.8855 0.8199 0.0
C789 C 0.14442 0.88421 -0.00825 0.0
N790 N 0.16053 0.85433 0.77035 0.0
N791 N 0.11533 0.92679 0.0298 0.0
H792 H 0.16768 0.86357 0.09453 0.0
H793 H 0.14115 0.8885 0.13022 0.0
H794 H 0.09987 0.94301 0.01707 0.0
H795 H 0.12593 0.92971 0.09005 0.0
H796 H 0.15512 0.85709 0.70458 0.0
H797 H 0.1794 0.84178 0.77922 0.0
H798 H 0.10966 0.86576 0.697 0.0
H799 H 0.08684 0.89466 0.72871 0.0
loop_
_geom_bond_atom_site_label_1
_geom_bond_atom_site_label_2
_geom_bond_distance
_geom_bond_site_symmetry_2
_ccdc_geom_bond_type
Zn0 O3 2.031 1_556 S
Zn0 O5 2.049 . S
Zn0 O10 2.067 . S
Zn1 O2 1.962 . S
Zn1 O4 1.986 . S
Zn1 O6 1.996 . S
Zn1 O9 1.943 1_554 S
O2 Zn1 1.962 . S
O2 C7 1.254 . S
O3 Zn0 2.031 1_554 S
O3 C7 1.269 . S
O4 Zn1 1.986 . S
O4 C11 1.262 . S
O5 Zn0 2.049 . S
O5 C13 1.260 . S
O6 Zn1 1.996 . S
O6 C13 1.257 1_554 S
C7 O2 1.254 . S
C7 O3 1.269 . S
C8 O9 1.249 . S
C8 O10 1.270 . S
O9 Zn1 1.943 1_556 S
O9 C8 1.249 . S
O10 Zn0 2.067 . S
O10 C8 1.270 . S
C11 O4 1.262 . S
C11 O12 1.232 . S
O12 C11 1.232 . S
C13 O5 1.260 . S
C13 O6 1.257 1_556 S
Zn14 O17 2.031 . S
Zn14 O19 2.049 . S
Zn14 O24 2.067 . S
Zn15 O16 1.962 . S
Zn15 O18 1.986 . S
Zn15 O20 1.996 1_545 S
Zn15 O23 1.943 . S
O16 Zn15 1.962 . S
O16 C21 1.246 1_545 S
O17 Zn14 2.031 . S
O17 C21 1.277 . S
O18 Zn15 1.986 . S
O18 C25 1.262 . S
O19 Zn14 2.049 . S
O19 C27 1.260 . S
O20 Zn15 1.996 1_565 S
O20 C27 1.257 . S
C21 O16 1.246 1_565 S
C21 O17 1.277 . S
C22 O23 1.249 . S
C22 O24 1.270 1_545 S
O23 Zn15 1.943 . S
O23 C22 1.249 . S
O24 Zn14 2.067 . S
O24 C22 1.270 1_565 S
C25 O18 1.262 . S
C25 O26 1.232 . S
O26 C25 1.232 . S
C27 O19 1.260 . S
C27 O20 1.257 . S
Zn28 O31 2.031 . S
Zn28 O33 2.049 . S
Zn28 O38 2.067 . S
Zn29 O30 1.962 . S
Zn29 O32 1.986 . S
Zn29 O34 1.996 . S
Zn29 O37 1.943 . S
O30 Zn29 1.962 . S
O30 C35 1.254 . S
O31 Zn28 2.031 . S
O31 C35 1.269 . S
O32 Zn29 1.986 . S
O32 C39 1.262 . S
O33 Zn28 2.049 . S
O33 C41 1.260 . S
O34 Zn29 1.996 . S
O34 C41 1.257 . S
C35 O30 1.254 . S
C35 O31 1.269 . S
C36 O37 1.249 . S
C36 O38 1.270 . S
O37 Zn29 1.943 . S
O37 C36 1.249 . S
O38 Zn28 2.067 . S
O38 C36 1.270 . S
C39 O32 1.262 . S
C39 O40 1.232 . S
O40 C39 1.232 . S
C41 O33 1.260 . S
C41 O34 1.257 . S
Zn42 O45 2.031 . S
Zn42 O47 2.049 . S
Zn42 O52 2.067 . S
Zn43 O44 1.962 . S
Zn43 O46 1.986 1_545 S
Zn43 O48 1.996 . S
Zn43 O51 1.943 1_545 S
O44 Zn43 1.962 . S
O44 C49 1.254 . S
O45 Zn42 2.031 . S
O45 C49 1.269 . S
O46 Zn43 1.986 1_565 S
O46 C53 1.262 . S
O47 Zn42 2.049 . S
O47 C55 1.260 . S
O48 Zn43 1.996 . S
O48 C55 1.257 . S
C49 O44 1.254 . S
C49 O45 1.269 . S
C50 O51 1.249 1_545 S
C50 O52 1.270 . S
O51 Zn43 1.943 1_565 S
O51 C50 1.249 1_565 S
O52 Zn42 2.067 . S
O52 C50 1.270 . S
C53 O46 1.262 . S
C53 O54 1.232 . S
O54 C53 1.232 . S
C55 O47 1.260 . S
C55 O48 1.257 . S
Zn56 O59 2.031 1_554 S
Zn56 O61 2.049 . S
Zn56 O66 2.067 . S
Zn57 O58 1.962 . S
Zn57 O60 1.986 . S
Zn57 O62 1.996 1_556 S
Zn57 O65 1.943 1_556 S
O58 Zn57 1.962 . S
O58 C63 1.254 . S
O59 Zn56 2.031 1_556 S
O59 C63 1.269 . S
O60 Zn57 1.986 . S
O60 C67 1.262 . S
O61 Zn56 2.049 . S
O61 C69 1.260 . S
O62 Zn57 1.996 1_554 S
O62 C69 1.257 . S
C63 O58 1.254 . S
C63 O59 1.269 . S
C64 O65 1.249 . S
C64 O66 1.270 . S
O65 Zn57 1.943 1_554 S
O65 C64 1.249 . S
O66 Zn56 2.067 . S
O66 C64 1.270 . S
C67 O60 1.262 . S
C67 O68 1.232 . S
O68 C67 1.232 . S
C69 O61 1.260 . S
C69 O62 1.257 . S
Zn70 O73 2.031 . S
Zn70 O75 2.049 . S
Zn70 O80 2.067 . S
Zn71 O72 1.962 . S
Zn71 O74 1.986 1_545 S
Zn71 O76 1.996 . S
Zn71 O79 1.943 1_545 S
O72 Zn71 1.962 . S
O72 C77 1.254 . S
O73 Zn70 2.031 . S
O73 C77 1.269 . S
O74 Zn71 1.986 1_565 S
O74 C81 1.262 . S
O75 Zn70 2.049 . S
O75 C83 1.260 . S
O76 Zn71 1.996 . S
O76 C83 1.257 . S
C77 O72 1.254 . S
C77 O73 1.269 . S
C78 O79 1.249 1_545 S
C78 O80 1.270 . S
O79 Zn71 1.943 1_565 S
O79 C78 1.249 1_565 S
O80 Zn70 2.067 . S
O80 C78 1.270 . S
C81 O74 1.262 . S
C81 O82 1.232 . S
O82 C81 1.232 . S
C83 O75 1.260 . S
C83 O76 1.257 . S
Zn84 O87 2.031 . S
Zn84 O89 2.049 . S
Zn84 O94 2.067 . S
Zn85 O86 1.962 . S
Zn85 O88 1.986 . S
Zn85 O90 1.996 . S
Zn85 O93 1.943 . S
O86 Zn85 1.962 . S
O86 C91 1.254 . S
O87 Zn84 2.031 . S
O87 C91 1.269 . S
O88 Zn85 1.986 . S
O88 C95 1.262 . S
O89 Zn84 2.049 . S
O89 C97 1.260 . S
O90 Zn85 1.996 . S
O90 C97 1.257 . S
C91 O86 1.254 . S
C91 O87 1.269 . S
C92 O93 1.249 . S
C92 O94 1.270 . S
O93 Zn85 1.943 . S
O93 C92 1.249 . S
O94 Zn84 2.067 . S
O94 C92 1.270 . S
C95 O88 1.262 . S
C95 O96 1.232 . S
O96 C95 1.232 . S
C97 O89 1.260 . S
C97 O90 1.257 . S
Zn98 O101 2.031 . S
Zn98 O103 2.049 . S
Zn98 O108 2.067 . S
Zn99 O100 1.962 . S
Zn99 O102 1.986 . S
Zn99 O104 1.996 1_545 S
Zn99 O107 1.943 . S
O100 Zn99 1.962 . S
O100 C105 1.246 1_545 S
O101 Zn98 2.031 . S
O101 C105 1.277 . S
O102 Zn99 1.986 . S
O102 C109 1.262 . S
O103 Zn98 2.049 . S
O103 C111 1.260 . S
O104 Zn99 1.996 1_565 S
O104 C111 1.257 . S
C105 O100 1.246 1_565 S
C105 O101 1.277 . S
C106 O107 1.249 . S
C106 O108 1.270 1_545 S
O107 Zn99 1.943 . S
O107 C106 1.249 . S
O108 Zn98 2.067 . S
O108 C106 1.270 1_565 S
C109 O102 1.262 . S
C109 O110 1.232 . S
O110 C109 1.232 . S
C111 O103 1.260 . S
C111 O104 1.257 . S
Zn112 O115 2.031 . S
Zn112 O117 2.049 . S
Zn112 O122 2.067 . S
Zn113 O114 1.962 . S
Zn113 O116 1.986 . S
Zn113 O118 1.996 . S
Zn113 O121 1.943 . S
O114 Zn113 1.962 . S
O114 C119 1.254 . S
O115 Zn112 2.031 . S
O115 C119 1.269 . S
O116 Zn113 1.986 . S
O116 C123 1.262 . S
O117 Zn112 2.049 . S
O117 C125 1.260 . S
O118 Zn113 1.996 . S
O118 C125 1.257 . S
C119 O114 1.254 . S
C119 O115 1.269 . S
C120 O121 1.249 . S
C120 O122 1.270 . S
O121 Zn113 1.943 . S
O121 C120 1.249 . S
O122 Zn112 2.067 . S
O122 C120 1.270 . S
C123 O116 1.262 . S
C123 O124 1.232 . S
O124 C123 1.232 . S
C125 O117 1.260 . S
C125 O118 1.257 . S
Zn126 O129 2.031 . S
Zn126 O131 2.049 . S
Zn126 O136 2.067 . S
Zn127 O128 1.962 . S
Zn127 O130 1.986 . S
Zn127 O132 1.996 . S
Zn127 O135 1.943 . S
O128 Zn127 1.962 . S
O128 C133 1.254 . S
O129 Zn126 2.031 . S
O129 C133 1.269 . S
O130 Zn127 1.986 . S
O130 C137 1.262 . S
O131 Zn126 2.049 . S
O131 C139 1.260 . S
O132 Zn127 1.996 . S
O132 C139 1.257 . S
C133 O128 1.254 . S
C133 O129 1.269 . S
C134 O135 1.249 . S
C134 O136 1.270 . S
O135 Zn127 1.943 . S
O135 C134 1.249 . S
O136 Zn126 2.067 . S
O136 C134 1.270 . S
C137 O130 1.262 . S
C137 O138 1.232 . S
O138 C137 1.232 . S
C139 O131 1.260 . S
C139 O132 1.257 . S
Zn140 O143 2.031 1_556 S
Zn140 O145 2.049 . S
Zn140 O150 2.067 . S
Zn141 O142 1.962 . S
Zn141 O144 1.986 . S
Zn141 O146 1.996 . S
Zn141 O149 1.943 1_554 S
O142 Zn141 1.962 . S
O142 C147 1.254 . S
O143 Zn140 2.031 1_554 S
O143 C147 1.269 . S
O144 Zn141 1.986 . S
O144 C151 1.262 . S
O145 Zn140 2.049 . S
O145 C153 1.260 . S
O146 Zn141 1.996 . S
O146 C153 1.257 1_554 S
C147 O142 1.254 . S
C147 O143 1.269 . S
C148 O149 1.249 . S
C148 O150 1.270 . S
O149 Zn141 1.943 1_556 S
O149 C148 1.249 . S
O150 Zn140 2.067 . S
O150 C148 1.270 . S
C151 O144 1.262 . S
C151 O152 1.232 . S
O152 C151 1.232 . S
C153 O145 1.260 . S
C153 O146 1.257 1_556 S
Zn154 O157 2.031 . S
Zn154 O159 2.049 . S
Zn154 O164 2.067 . S
Zn155 O156 1.962 . S
Zn155 O158 1.986 . S
Zn155 O160 1.996 . S
Zn155 O163 1.943 . S
O156 Zn155 1.962 . S
O156 C161 1.254 . S
O157 Zn154 2.031 . S
O157 C161 1.269 . S
O158 Zn155 1.986 . S
O158 C165 1.262 . S
O159 Zn154 2.049 . S
O159 C167 1.260 . S
O160 Zn155 1.996 . S
O160 C167 1.257 . S
C161 O156 1.254 . S
C161 O157 1.269 . S
C162 O163 1.249 . S
C162 O164 1.270 . S
O163 Zn155 1.943 . S
O163 C162 1.249 . S
O164 Zn154 2.067 . S
O164 C162 1.270 . S
C165 O158 1.262 . S
C165 O166 1.232 . S
O166 C165 1.232 . S
C167 O159 1.260 . S
C167 O160 1.257 . S
Zn168 O171 2.031 . S
Zn168 O173 2.049 . S
Zn168 O178 2.067 . S
Zn169 O170 1.962 . S
Zn169 O172 1.986 . S
Zn169 O174 1.996 . S
Zn169 O177 1.943 . S
O170 Zn169 1.962 . S
O170 C175 1.254 . S
O171 Zn168 2.031 . S
O171 C175 1.269 . S
O172 Zn169 1.986 . S
O172 C179 1.262 . S
O173 Zn168 2.049 . S
O173 C181 1.260 . S
O174 Zn169 1.996 . S
O174 C181 1.257 . S
C175 O170 1.254 . S
C175 O171 1.269 . S
C176 O177 1.249 . S
C176 O178 1.270 . S
O177 Zn169 1.943 . S
O177 C176 1.249 . S
O178 Zn168 2.067 . S
O178 C176 1.270 . S
C179 O172 1.262 . S
C179 O180 1.232 . S
O180 C179 1.232 . S
C181 O173 1.260 . S
C181 O174 1.257 . S
Zn182 O185 2.031 . S
Zn182 O187 2.049 . S
Zn182 O192 2.067 . S
Zn183 O184 1.962 . S
Zn183 O186 1.986 . S
Zn183 O188 1.996 . S
Zn183 O191 1.943 . S
O184 Zn183 1.962 . S
O184 C189 1.254 . S
O185 Zn182 2.031 . S
O185 C189 1.269 . S
O186 Zn183 1.986 . S
O186 C193 1.262 . S
O187 Zn182 2.049 . S
O187 C195 1.260 . S
O188 Zn183 1.996 . S
O188 C195 1.257 . S
C189 O184 1.254 . S
C189 O185 1.269 . S
C190 O191 1.249 . S
C190 O192 1.270 . S
O191 Zn183 1.943 . S
O191 C190 1.249 . S
O192 Zn182 2.067 . S
O192 C190 1.270 . S
C193 O186 1.262 . S
C193 O194 1.232 . S
O194 C193 1.232 . S
C195 O187 1.260 . S
C195 O188 1.257 . S
Zn196 O199 2.031 1_554 S
Zn196 O201 2.049 . S
Zn196 O206 2.067 . S
Zn197 O198 1.962 . S
Zn197 O200 1.986 . S
Zn197 O202 1.996 1_556 S
Zn197 O205 1.943 1_556 S
O198 Zn197 1.962 . S
O198 C203 1.254 . S
O199 Zn196 2.031 1_556 S
O199 C203 1.269 . S
O200 Zn197 1.986 . S
O200 C207 1.262 . S
O201 Zn196 2.049 . S
O201 C209 1.260 . S
O202 Zn197 1.996 1_554 S
O202 C209 1.257 . S
C203 O198 1.254 . S
C203 O199 1.269 . S
C204 O205 1.249 . S
C204 O206 1.270 . S
O205 Zn197 1.943 1_554 S
O205 C204 1.249 . S
O206 Zn196 2.067 . S
O206 C204 1.270 . S
C207 O200 1.262 . S
C207 O208 1.232 . S
O208 C207 1.232 . S
C209 O201 1.260 . S
C209 O202 1.257 . S
Zn210 O213 2.031 . S
Zn210 O215 2.049 . S
Zn210 O220 2.067 . S
Zn211 O212 1.962 . S
Zn211 O214 1.986 . S
Zn211 O216 1.996 . S
Zn211 O219 1.943 . S
O212 Zn211 1.962 . S
O212 C217 1.254 . S
O213 Zn210 2.031 . S
O213 C217 1.269 . S
O214 Zn211 1.986 . S
O214 C221 1.262 . S
O215 Zn210 2.049 . S
O215 C223 1.260 . S
O216 Zn211 1.996 . S
O216 C223 1.257 . S
C217 O212 1.254 . S
C217 O213 1.269 . S
C218 O219 1.249 . S
C218 O220 1.270 . S
O219 Zn211 1.943 . S
O219 C218 1.249 . S
O220 Zn210 2.067 . S
O220 C218 1.270 . S
C221 O214 1.262 . S
C221 O222 1.232 . S
O222 C221 1.232 . S
C223 O215 1.260 . S
C223 O216 1.257 . S
C224 C225 1.363 . S
C224 C230 1.379 . S
C224 N232 1.356 . S
C225 C224 1.363 . S
C225 C231 1.363 . S
C226 C227 1.363 . S
C226 C231 1.379 . S
C226 N233 1.356 . S
C227 C226 1.363 . S
C227 C230 1.363 . S
N228 C230 1.356 . S
N228 H240 0.984 . S
N228 H241 0.985 . S
N229 C231 1.356 . S
N229 H234 0.984 . S
N229 H235 0.985 . S
C230 C224 1.379 . S
C230 C227 1.363 . S
C230 N228 1.356 . S
C231 C225 1.363 . S
C231 C226 1.379 . S
C231 N229 1.356 . S
N232 C224 1.356 . S
N232 H238 0.984 . S
N232 H239 0.984 . S
N233 C226 1.356 . S
N233 H236 0.984 . S
N233 H237 0.985 . S
H234 N229 0.984 . S
H235 N229 0.985 . S
H236 N233 0.984 . S
H237 N233 0.985 . S
H238 N232 0.984 . S
H239 N232 0.984 . S
H240 N228 0.984 . S
H241 N228 0.985 . S
C242 C243 1.363 1_455 S
C242 C248 1.379 . S
C242 N250 1.356 1_455 S
C243 C242 1.363 1_655 S
C243 C249 1.363 1_545 S
C244 C245 1.363 1_665 S
C244 C249 1.379 . S
C244 N251 1.356 1_655 S
C245 C244 1.363 1_445 S
C245 C248 1.363 . S
N246 C248 1.356 . S
N246 H258 0.984 . S
N246 H259 0.985 . S
N247 C249 1.356 . S
N247 H252 0.984 . S
N247 H253 0.985 . S
C248 C242 1.379 . S
C248 C245 1.363 . S
C248 N246 1.356 . S
C249 C243 1.363 1_565 S
C249 C244 1.379 . S
C249 N247 1.356 . S
N250 C242 1.356 1_655 S
N250 H256 0.984 1_655 S
N250 H257 0.984 . S
N251 C244 1.356 1_455 S
N251 H254 0.984 . S
N251 H255 0.985 1_455 S
H252 N247 0.984 . S
H253 N247 0.985 . S
H254 N251 0.984 . S
H255 N251 0.985 1_655 S
H256 N250 0.984 1_455 S
H257 N250 0.984 . S
H258 N246 0.984 . S
H259 N246 0.985 . S
C260 C261 1.363 . S
C260 C266 1.379 . S
C260 N268 1.356 . S
C261 C260 1.363 . S
C261 C267 1.363 . S
C262 C263 1.363 . S
C262 C267 1.379 . S
C262 N269 1.356 . S
C263 C262 1.363 . S
C263 C266 1.363 . S
N264 C266 1.356 . S
N264 H276 0.984 . S
N264 H277 0.985 . S
N265 C267 1.356 . S
N265 H270 0.984 . S
N265 H271 0.985 . S
C266 C260 1.379 . S
C266 C263 1.363 . S
C266 N264 1.356 . S
C267 C261 1.363 . S
C267 C262 1.379 . S
C267 N265 1.356 . S
N268 C260 1.356 . S
N268 H274 0.984 . S
N268 H275 0.984 . S
N269 C262 1.356 . S
N269 H272 0.984 . S
N269 H273 0.985 . S
H270 N265 0.984 . S
H271 N265 0.985 . S
H272 N269 0.984 . S
H273 N269 0.985 . S
H274 N268 0.984 . S
H275 N268 0.984 . S
H276 N264 0.984 . S
H277 N264 0.985 . S
C278 C279 1.363 1_556 S
C278 C284 1.379 . S
C278 N286 1.356 1_556 S
C279 C278 1.363 1_554 S
C279 C285 1.363 1_545 S
C280 C281 1.363 1_564 S
C280 C285 1.379 . S
C280 N287 1.356 . S
C281 C280 1.363 1_546 S
C281 C284 1.363 . S
N282 C284 1.356 . S
N282 H294 0.984 . S
N282 H295 0.985 . S
N283 C285 1.356 . S
N283 H288 0.984 . S
N283 H289 0.985 . S
C284 C278 1.379 . S
C284 C281 1.363 . S
C284 N282 1.356 . S
C285 C279 1.363 1_565 S
C285 C280 1.379 . S
C285 N283 1.356 . S
N286 C278 1.356 1_554 S
N286 H292 0.984 1_554 S
N286 H293 0.984 . S
N287 C280 1.356 . S
N287 H290 0.984 1_554 S
N287 H291 0.985 . S
H288 N283 0.984 . S
H289 N283 0.985 . S
H290 N287 0.984 1_556 S
H291 N287 0.985 . S
H292 N286 0.984 1_556 S
H293 N286 0.984 . S
H294 N282 0.984 . S
H295 N282 0.985 . S
C296 C297 1.363 . S
C296 C302 1.379 . S
C296 N304 1.356 . S
C297 C296 1.363 . S
C297 C303 1.363 . S
C298 C299 1.363 . S
C298 C303 1.379 . S
C298 N305 1.356 . S
C299 C298 1.363 . S
C299 C302 1.363 . S
N300 C302 1.356 . S
N300 H312 0.984 . S
N300 H313 0.985 . S
N301 C303 1.356 . S
N301 H306 0.984 . S
N301 H307 0.985 . S
C302 C296 1.379 . S
C302 C299 1.363 . S
C302 N300 1.356 . S
C303 C297 1.363 . S
C303 C298 1.379 . S
C303 N301 1.356 . S
N304 C296 1.356 . S
N304 H310 0.984 . S
N304 H311 0.984 . S
N305 C298 1.356 . S
N305 H308 0.984 . S
N305 H309 0.985 . S
H306 N301 0.984 . S
H307 N301 0.985 . S
H308 N305 0.984 . S
H309 N305 0.985 . S
H310 N304 0.984 . S
H311 N304 0.984 . S
H312 N300 0.984 . S
H313 N300 0.985 . S
C314 C315 1.363 1_565 S
C314 C320 1.379 . S
C314 N322 1.356 . S
C315 C314 1.363 1_545 S
C315 C321 1.363 . S
C316 C317 1.363 . S
C316 C321 1.379 . S
C316 N323 1.356 . S
C317 C316 1.363 . S
C317 C320 1.363 1_545 S
N318 C320 1.356 . S
N318 H330 0.984 . S
N318 H331 0.985 . S
N319 C321 1.356 . S
N319 H324 0.984 . S
N319 H325 0.985 . S
C320 C314 1.379 . S
C320 C317 1.363 1_565 S
C320 N318 1.356 . S
C321 C315 1.363 . S
C321 C316 1.379 . S
C321 N319 1.356 . S
N322 C314 1.356 . S
N322 H328 0.984 . S
N322 H329 0.984 . S
N323 C316 1.356 . S
N323 H326 0.984 . S
N323 H327 0.985 . S
H324 N319 0.984 . S
H325 N319 0.985 . S
H326 N323 0.984 . S
H327 N323 0.985 . S
H328 N322 0.984 . S
H329 N322 0.984 . S
H330 N318 0.984 . S
H331 N318 0.985 . S
C332 C333 1.363 . S
C332 C338 1.379 . S
C332 N340 1.356 . S
C333 C332 1.363 . S
C333 C339 1.363 . S
C334 C335 1.363 . S
C334 C339 1.379 . S
C334 N341 1.356 . S
C335 C334 1.363 . S
C335 C338 1.363 . S
N336 C338 1.356 . S
N336 H348 0.984 . S
N336 H349 0.985 . S
N337 C339 1.356 . S
N337 H342 0.984 . S
N337 H343 0.985 . S
C338 C332 1.379 . S
C338 C335 1.363 . S
C338 N336 1.356 . S
C339 C333 1.363 . S
C339 C334 1.379 . S
C339 N337 1.356 . S
N340 C332 1.356 . S
N340 H346 0.984 . S
N340 H347 0.984 . S
N341 C334 1.356 . S
N341 H344 0.984 . S
N341 H345 0.985 . S
H342 N337 0.984 . S
H343 N337 0.985 . S
H344 N341 0.984 . S
H345 N341 0.985 . S
H346 N340 0.984 . S
H347 N340 0.984 . S
H348 N336 0.984 . S
H349 N336 0.985 . S
C350 C351 1.363 1_554 S
C350 C356 1.379 . S
C350 N358 1.356 . S
C351 C350 1.363 1_556 S
C351 C357 1.371 1_455 S
C352 C353 1.363 1_566 S
C352 C357 1.376 1_565 S
C352 N359 1.356 . S
C353 C352 1.363 1_544 S
C353 C356 1.363 1_655 S
N354 C356 1.356 . S
N354 H366 0.984 . S
N354 H367 0.985 1_455 S
N355 C357 1.354 1_565 S
N355 H360 0.984 1_665 S
N355 H361 0.985 . S
C356 C350 1.379 . S
C356 C353 1.363 1_455 S
C356 N354 1.356 . S
C357 C351 1.371 1_655 S
C357 C352 1.376 1_545 S
C357 N355 1.354 1_545 S
N358 C350 1.356 . S
N358 H364 0.984 . S
N358 H365 0.984 1_554 S
N359 C352 1.356 . S
N359 H362 0.984 1_556 S
N359 H363 0.985 . S
H360 N355 0.984 1_445 S
H361 N355 0.985 . S
H362 N359 0.984 1_554 S
H363 N359 0.985 . S
H364 N358 0.984 . S
H365 N358 0.984 1_556 S
H366 N354 0.984 . S
H367 N354 0.985 1_655 S
C368 C369 1.363 . S
C368 C374 1.379 . S
C368 N376 1.356 . S
C369 C368 1.363 . S
C369 C375 1.363 . S
C370 C371 1.363 . S
C370 C375 1.379 . S
C370 N377 1.356 . S
C371 C370 1.363 . S
C371 C374 1.363 . S
N372 C374 1.356 . S
N372 H384 0.984 . S
N372 H385 0.985 . S
N373 C375 1.356 . S
N373 H378 0.984 . S
N373 H379 0.985 . S
C374 C368 1.379 . S
C374 C371 1.363 . S
C374 N372 1.356 . S
C375 C369 1.363 . S
C375 C370 1.379 . S
C375 N373 1.356 . S
N376 C368 1.356 . S
N376 H382 0.984 . S
N376 H383 0.984 . S
N377 C370 1.356 . S
N377 H380 0.984 . S
N377 H381 0.985 . S
H378 N373 0.984 . S
H379 N373 0.985 . S
H380 N377 0.984 . S
H381 N377 0.985 . S
H382 N376 0.984 . S
H383 N376 0.984 . S
H384 N372 0.984 . S
H385 N372 0.985 . S
C386 C387 1.363 . S
C386 C392 1.379 . S
C386 N394 1.356 . S
C387 C386 1.363 . S
C387 C393 1.363 . S
C388 C389 1.363 . S
C388 C393 1.379 . S
C388 N395 1.356 . S
C389 C388 1.363 . S
C389 C392 1.363 . S
N390 C392 1.356 . S
N390 H402 0.984 . S
N390 H403 0.985 . S
N391 C393 1.356 . S
N391 H396 0.984 . S
N391 H397 0.985 . S
C392 C386 1.379 . S
C392 C389 1.363 . S
C392 N390 1.356 . S
C393 C387 1.363 . S
C393 C388 1.379 . S
C393 N391 1.356 . S
N394 C386 1.356 . S
N394 H400 0.984 . S
N394 H401 0.984 . S
N395 C388 1.356 . S
N395 H398 0.984 . S
N395 H399 0.985 . S
H396 N391 0.984 . S
H397 N391 0.985 . S
H398 N395 0.984 . S
H399 N395 0.985 . S
H400 N394 0.984 . S
H401 N394 0.984 . S
H402 N390 0.984 . S
H403 N390 0.985 . S
C404 C405 1.363 . S
C404 C410 1.379 . S
C404 N412 1.356 . S
C405 C404 1.363 . S
C405 C411 1.363 . S
C406 C407 1.363 . S
C406 C411 1.379 . S
C406 N413 1.356 . S
C407 C406 1.363 . S
C407 C410 1.363 . S
N408 C410 1.356 . S
N408 H420 0.984 . S
N408 H421 0.985 . S
N409 C411 1.356 . S
N409 H414 0.984 . S
N409 H415 0.985 . S
C410 C404 1.379 . S
C410 C407 1.363 . S
C410 N408 1.356 . S
C411 C405 1.363 . S
C411 C406 1.379 . S
C411 N409 1.356 . S
N412 C404 1.356 . S
N412 H418 0.984 . S
N412 H419 0.984 . S
N413 C406 1.356 . S
N413 H416 0.984 . S
N413 H417 0.985 . S
H414 N409 0.984 . S
H415 N409 0.985 . S
H416 N413 0.984 . S
H417 N413 0.985 . S
H418 N412 0.984 . S
H419 N412 0.984 . S
H420 N408 0.984 . S
H421 N408 0.985 . S
C422 C423 1.363 . S
C422 C428 1.379 . S
C422 N430 1.356 . S
C423 C422 1.363 . S
C423 C429 1.363 . S
C424 C425 1.363 . S
C424 C429 1.379 . S
C424 N431 1.356 . S
C425 C424 1.363 . S
C425 C428 1.363 . S
N426 C428 1.356 . S
N426 H438 0.984 . S
N426 H439 0.985 . S
N427 C429 1.356 . S
N427 H432 0.984 . S
N427 H433 0.985 . S
C428 C422 1.379 . S
C428 C425 1.363 . S
C428 N426 1.356 . S
C429 C423 1.363 . S
C429 C424 1.379 . S
C429 N427 1.356 . S
N430 C422 1.356 . S
N430 H436 0.984 . S
N430 H437 0.984 . S
N431 C424 1.356 . S
N431 H434 0.984 . S
N431 H435 0.985 . S
H432 N427 0.984 . S
H433 N427 0.985 . S
H434 N431 0.984 . S
H435 N431 0.985 . S
H436 N430 0.984 . S
H437 N430 0.984 . S
H438 N426 0.984 . S
H439 N426 0.985 . S
C440 C441 1.363 . S
C440 C446 1.379 . S
C440 N448 1.356 . S
C441 C440 1.363 . S
C441 C447 1.363 . S
C442 C443 1.363 . S
C442 C447 1.379 1_556 S
C442 N449 1.356 . S
C443 C442 1.363 . S
C443 C446 1.363 1_556 S
N444 C446 1.356 1_556 S
N444 H456 0.984 1_556 S
N444 H457 0.985 . S
N445 C447 1.356 . S
N445 H450 0.984 . S
N445 H451 0.985 1_554 S
C446 C440 1.379 . S
C446 C443 1.363 1_554 S
C446 N444 1.356 1_554 S
C447 C441 1.363 . S
C447 C442 1.379 1_554 S
C447 N445 1.356 . S
N448 C440 1.356 . S
N448 H454 0.984 . S
N448 H455 0.984 . S
N449 C442 1.356 . S
N449 H452 0.984 . S
N449 H453 0.985 . S
H450 N445 0.984 . S
H451 N445 0.985 1_556 S
H452 N449 0.984 . S
H453 N449 0.985 . S
H454 N448 0.984 . S
H455 N448 0.984 . S
H456 N444 0.984 1_554 S
H457 N444 0.985 . S
C458 C459 1.363 . S
C458 C464 1.379 . S
C458 N466 1.356 . S
C459 C458 1.363 . S
C459 C465 1.363 1_455 S
C460 C461 1.363 . S
C460 C465 1.379 . S
C460 N467 1.356 . S
C461 C460 1.363 . S
C461 C464 1.363 1_655 S
N462 C464 1.356 . S
N462 H474 0.984 . S
N462 H475 0.985 1_455 S
N463 C465 1.356 . S
N463 H468 0.984 1_655 S
N463 H469 0.985 . S
C464 C458 1.379 . S
C464 C461 1.363 1_455 S
C464 N462 1.356 . S
C465 C459 1.363 1_655 S
C465 C460 1.379 . S
C465 N463 1.356 . S
N466 C458 1.356 . S
N466 H472 0.984 . S
N466 H473 0.984 . S
N467 C460 1.356 . S
N467 H470 0.984 . S
N467 H471 0.985 . S
H468 N463 0.984 1_455 S
H469 N463 0.985 . S
H470 N467 0.984 . S
H471 N467 0.985 . S
H472 N466 0.984 . S
H473 N466 0.984 . S
H474 N462 0.984 . S
H475 N462 0.985 1_655 S
C476 C477 1.363 1_655 S
C476 C482 1.379 1_554 S
C476 N484 1.356 1_655 S
C477 C476 1.363 1_455 S
C477 C483 1.363 . S
C478 C479 1.363 1_455 S
C478 C483 1.379 1_556 S
C478 N485 1.356 1_455 S
C479 C478 1.363 1_655 S
C479 C482 1.363 . S
N480 C482 1.356 . S
N480 H492 0.984 . S
N480 H493 0.985 . S
N481 C483 1.356 . S
N481 H486 0.984 . S
N481 H487 0.985 . S
C482 C476 1.379 1_556 S
C482 C479 1.363 . S
C482 N480 1.356 . S
C483 C477 1.363 . S
C483 C478 1.379 1_554 S
C483 N481 1.356 . S
N484 C476 1.356 1_455 S
N484 H490 0.984 1_455 S
N484 H491 0.984 . S
N485 C478 1.356 1_655 S
N485 H488 0.984 . S
N485 H489 0.985 1_655 S
H486 N481 0.984 . S
H487 N481 0.985 . S
H488 N485 0.984 . S
H489 N485 0.985 1_455 S
H490 N484 0.984 1_655 S
H491 N484 0.984 . S
H492 N480 0.984 . S
H493 N480 0.985 . S
C494 C495 1.363 . S
C494 C500 1.379 . S
C494 N502 1.356 . S
C495 C494 1.363 . S
C495 C501 1.363 . S
C496 C497 1.363 . S
C496 C501 1.379 . S
C496 N503 1.356 . S
C497 C496 1.363 . S
C497 C500 1.363 . S
N498 C500 1.356 . S
N498 H510 0.984 . S
N498 H511 0.985 . S
N499 C501 1.356 . S
N499 H504 0.984 . S
N499 H505 0.985 . S
C500 C494 1.379 . S
C500 C497 1.363 . S
C500 N498 1.356 . S
C501 C495 1.363 . S
C501 C496 1.379 . S
C501 N499 1.356 . S
N502 C494 1.356 . S
N502 H508 0.984 . S
N502 H509 0.984 . S
N503 C496 1.356 . S
N503 H506 0.984 . S
N503 H507 0.985 . S
H504 N499 0.984 . S
H505 N499 0.985 . S
H506 N503 0.984 . S
H507 N503 0.985 . S
H508 N502 0.984 . S
H509 N502 0.984 . S
H510 N498 0.984 . S
H511 N498 0.985 . S
C512 C513 1.363 . S
C512 C518 1.379 . S
C512 N520 1.356 . S
C513 C512 1.363 . S
C513 C519 1.363 . S
C514 C515 1.363 . S
C514 C519 1.379 . S
C514 N521 1.356 . S
C515 C514 1.363 . S
C515 C518 1.363 . S
N516 C518 1.356 1_556 S
N516 H528 0.984 . S
N516 H529 0.985 . S
N517 C519 1.356 . S
N517 H522 0.984 . S
N517 H523 0.985 . S
C518 C512 1.379 . S
C518 C515 1.363 . S
C518 N516 1.356 1_554 S
C519 C513 1.363 . S
C519 C514 1.379 . S
C519 N517 1.356 . S
N520 C512 1.356 . S
N520 H526 0.984 . S
N520 H527 0.984 . S
N521 C514 1.356 . S
N521 H524 0.984 . S
N521 H525 0.985 . S
H522 N517 0.984 . S
H523 N517 0.985 . S
H524 N521 0.984 . S
H525 N521 0.985 . S
H526 N520 0.984 . S
H527 N520 0.984 . S
H528 N516 0.984 . S
H529 N516 0.985 . S
C530 C531 1.363 . S
C530 C536 1.379 . S
C530 N538 1.356 . S
C531 C530 1.363 . S
C531 C537 1.363 . S
C532 C533 1.363 . S
C532 C537 1.379 . S
C532 N539 1.356 . S
C533 C532 1.363 . S
C533 C536 1.363 . S
N534 C536 1.356 . S
N534 H546 0.984 . S
N534 H547 0.985 . S
N535 C537 1.356 . S
N535 H540 0.984 . S
N535 H541 0.985 . S
C536 C530 1.379 . S
C536 C533 1.363 . S
C536 N534 1.356 . S
C537 C531 1.363 . S
C537 C532 1.379 . S
C537 N535 1.356 . S
N538 C530 1.356 . S
N538 H544 0.984 . S
N538 H545 0.984 . S
N539 C532 1.356 . S
N539 H542 0.984 . S
N539 H543 0.985 . S
H540 N535 0.984 . S
H541 N535 0.985 . S
H542 N539 0.984 . S
H543 N539 0.985 . S
H544 N538 0.984 . S
H545 N538 0.984 . S
H546 N534 0.984 . S
H547 N534 0.985 . S
C548 C549 1.363 . S
C548 C554 1.379 . S
C548 N556 1.356 . S
C549 C548 1.363 . S
C549 C555 1.363 . S
C550 C551 1.363 . S
C550 C555 1.379 . S
C550 N557 1.356 . S
C551 C550 1.363 . S
C551 C554 1.363 . S
N552 C554 1.356 . S
N552 H564 0.984 . S
N552 H565 0.985 . S
N553 C555 1.356 . S
N553 H558 0.984 . S
N553 H559 0.985 . S
C554 C548 1.379 . S
C554 C551 1.363 . S
C554 N552 1.356 . S
C555 C549 1.363 . S
C555 C550 1.379 . S
C555 N553 1.356 . S
N556 C548 1.356 . S
N556 H562 0.984 . S
N556 H563 0.984 . S
N557 C550 1.356 . S
N557 H560 0.984 . S
N557 H561 0.985 . S
H558 N553 0.984 . S
H559 N553 0.985 . S
H560 N557 0.984 . S
H561 N557 0.985 . S
H562 N556 0.984 . S
H563 N556 0.984 . S
H564 N552 0.984 . S
H565 N552 0.985 . S
C566 C567 1.363 . S
C566 C572 1.379 . S
C566 N574 1.356 . S
C567 C566 1.363 . S
C567 C573 1.363 . S
C568 C569 1.363 . S
C568 C573 1.379 . S
C568 N575 1.356 . S
C569 C568 1.363 . S
C569 C572 1.363 . S
N570 C572 1.356 . S
N570 H582 0.984 . S
N570 H583 0.985 . S
N571 C573 1.356 . S
N571 H576 0.984 . S
N571 H577 0.985 . S
C572 C566 1.379 . S
C572 C569 1.363 . S
C572 N570 1.356 . S
C573 C567 1.363 . S
C573 C568 1.379 . S
C573 N571 1.356 . S
N574 C566 1.356 . S
N574 H580 0.984 1_556 S
N574 H581 0.984 1_556 S
N575 C568 1.356 . S
N575 H578 0.984 . S
N575 H579 0.985 . S
H576 N571 0.984 . S
H577 N571 0.985 . S
H578 N575 0.984 . S
H579 N575 0.985 . S
H580 N574 0.984 1_554 S
H581 N574 0.984 1_554 S
H582 N570 0.984 . S
H583 N570 0.985 . S
C584 C585 1.363 . S
C584 C590 1.379 . S
C584 N592 1.356 . S
C585 C584 1.363 . S
C585 C591 1.363 . S
C586 C587 1.363 . S
C586 C591 1.379 . S
C586 N593 1.356 . S
C587 C586 1.363 . S
C587 C590 1.363 . S
N588 C590 1.356 . S
N588 H600 0.984 . S
N588 H601 0.985 . S
N589 C591 1.356 . S
N589 H594 0.984 . S
N589 H595 0.985 . S
C590 C584 1.379 . S
C590 C587 1.363 . S
C590 N588 1.356 . S
C591 C585 1.363 . S
C591 C586 1.379 . S
C591 N589 1.356 . S
N592 C584 1.356 . S
N592 H598 0.984 . S
N592 H599 0.984 . S
N593 C586 1.356 . S
N593 H596 0.984 . S
N593 H597 0.985 . S
H594 N589 0.984 . S
H595 N589 0.985 . S
H596 N593 0.984 . S
H597 N593 0.985 . S
H598 N592 0.984 . S
H599 N592 0.984 . S
H600 N588 0.984 . S
H601 N588 0.985 . S
C602 C603 1.363 . S
C602 C608 1.379 . S
C602 N610 1.356 . S
C603 C602 1.363 . S
C603 C609 1.363 . S
C604 C605 1.363 . S
C604 C609 1.379 . S
C604 N611 1.356 . S
C605 C604 1.363 . S
C605 C608 1.363 . S
N606 C608 1.356 . S
N606 H618 0.984 . S
N606 H619 0.985 . S
N607 C609 1.356 . S
N607 H612 0.984 . S
N607 H613 0.985 . S
C608 C602 1.379 . S
C608 C605 1.363 . S
C608 N606 1.356 . S
C609 C603 1.363 . S
C609 C604 1.379 . S
C609 N607 1.356 . S
N610 C602 1.356 . S
N610 H616 0.984 . S
N610 H617 0.984 . S
N611 C604 1.356 . S
N611 H614 0.984 . S
N611 H615 0.985 . S
H612 N607 0.984 . S
H613 N607 0.985 . S
H614 N611 0.984 . S
H615 N611 0.985 . S
H616 N610 0.984 . S
H617 N610 0.984 . S
H618 N606 0.984 . S
H619 N606 0.985 . S
C620 C621 1.363 . S
C620 C626 1.379 . S
C620 N628 1.356 . S
C621 C620 1.363 . S
C621 C627 1.363 . S
C622 C623 1.363 . S
C622 C627 1.379 . S
C622 N629 1.356 1_556 S
C623 C622 1.363 . S
C623 C626 1.363 . S
N624 C626 1.356 . S
N624 H636 0.984 . S
N624 H637 0.985 . S
N625 C627 1.356 . S
N625 H630 0.984 . S
N625 H631 0.985 1_556 S
C626 C620 1.379 . S
C626 C623 1.363 . S
C626 N624 1.356 . S
C627 C621 1.363 . S
C627 C622 1.379 . S
C627 N625 1.356 . S
N628 C620 1.356 . S
N628 H634 0.984 . S
N628 H635 0.984 . S
N629 C622 1.356 1_554 S
N629 H632 0.984 . S
N629 H633 0.985 . S
H630 N625 0.984 . S
H631 N625 0.985 1_554 S
H632 N629 0.984 . S
H633 N629 0.985 . S
H634 N628 0.984 . S
H635 N628 0.984 . S
H636 N624 0.984 . S
H637 N624 0.985 . S
C638 C639 1.363 . S
C638 C644 1.379 . S
C638 N646 1.356 . S
C639 C638 1.363 . S
C639 C645 1.363 . S
C640 C641 1.363 . S
C640 C645 1.379 . S
C640 N647 1.356 . S
C641 C640 1.363 . S
C641 C644 1.363 . S
N642 C644 1.356 . S
N642 H654 0.984 . S
N642 H655 0.985 . S
N643 C645 1.356 . S
N643 H648 0.984 1_554 S
N643 H649 0.985 1_554 S
C644 C638 1.379 . S
C644 C641 1.363 . S
C644 N642 1.356 . S
C645 C639 1.363 . S
C645 C640 1.379 . S
C645 N643 1.356 . S
N646 C638 1.356 . S
N646 H652 0.984 . S
N646 H653 0.984 . S
N647 C640 1.356 . S
N647 H650 0.984 . S
N647 H651 0.985 . S
H648 N643 0.984 1_556 S
H649 N643 0.985 1_556 S
H650 N647 0.984 . S
H651 N647 0.985 . S
H652 N646 0.984 . S
H653 N646 0.984 . S
H654 N642 0.984 . S
H655 N642 0.985 . S
C656 C657 1.363 . S
C656 C662 1.379 . S
C656 N664 1.356 . S
C657 C656 1.363 . S
C657 C663 1.363 . S
C658 C659 1.363 . S
C658 C663 1.379 . S
C658 N665 1.356 . S
C659 C658 1.363 . S
C659 C662 1.363 . S
N660 C662 1.356 . S
N660 H672 0.984 . S
N660 H673 0.985 . S
N661 C663 1.356 1_554 S
N661 H666 0.984 . S
N661 H667 0.985 . S
C662 C656 1.379 . S
C662 C659 1.363 . S
C662 N660 1.356 . S
C663 C657 1.363 . S
C663 C658 1.379 . S
C663 N661 1.356 1_556 S
N664 C656 1.356 . S
N664 H670 0.984 . S
N664 H671 0.984 . S
N665 C658 1.356 . S
N665 H668 0.984 . S
N665 H669 0.985 . S
H666 N661 0.984 . S
H667 N661 0.985 . S
H668 N665 0.984 . S
H669 N665 0.985 . S
H670 N664 0.984 . S
H671 N664 0.984 . S
H672 N660 0.984 . S
H673 N660 0.985 . S
C674 C675 1.363 . S
C674 C680 1.379 . S
C674 N682 1.356 . S
C675 C674 1.363 . S
C675 C681 1.363 . S
C676 C677 1.363 . S
C676 C681 1.379 . S
C676 N683 1.356 . S
C677 C676 1.363 . S
C677 C680 1.363 . S
N678 C680 1.356 . S
N678 H690 0.984 . S
N678 H691 0.985 . S
N679 C681 1.356 . S
N679 H684 0.984 . S
N679 H685 0.985 . S
C680 C674 1.379 . S
C680 C677 1.363 . S
C680 N678 1.356 . S
C681 C675 1.363 . S
C681 C676 1.379 . S
C681 N679 1.356 . S
N682 C674 1.356 . S
N682 H688 0.984 . S
N682 H689 0.984 . S
N683 C676 1.356 . S
N683 H686 0.984 . S
N683 H687 0.985 . S
H684 N679 0.984 . S
H685 N679 0.985 . S
H686 N683 0.984 . S
H687 N683 0.985 . S
H688 N682 0.984 . S
H689 N682 0.984 . S
H690 N678 0.984 . S
H691 N678 0.985 . S
C692 C693 1.363 . S
C692 C698 1.379 . S
C692 N700 1.356 . S
C693 C692 1.363 . S
C693 C699 1.363 . S
C694 C695 1.363 . S
C694 C699 1.379 . S
C694 N701 1.356 . S
C695 C694 1.363 . S
C695 C698 1.363 . S
N696 C698 1.356 . S
N696 H708 0.984 . S
N696 H709 0.985 . S
N697 C699 1.356 . S
N697 H702 0.984 . S
N697 H703 0.985 . S
C698 C692 1.379 . S
C698 C695 1.363 . S
C698 N696 1.356 . S
C699 C693 1.363 . S
C699 C694 1.379 . S
C699 N697 1.356 . S
N700 C692 1.356 . S
N700 H706 0.984 . S
N700 H707 0.984 . S
N701 C694 1.356 . S
N701 H704 0.984 . S
N701 H705 0.985 . S
H702 N697 0.984 . S
H703 N697 0.985 . S
H704 N701 0.984 . S
H705 N701 0.985 . S
H706 N700 0.984 . S
H707 N700 0.984 . S
H708 N696 0.984 . S
H709 N696 0.985 . S
C710 C711 1.363 . S
C710 C716 1.379 . S
C710 N718 1.356 . S
C711 C710 1.363 . S
C711 C717 1.363 . S
C712 C713 1.363 . S
C712 C717 1.379 . S
C712 N719 1.356 . S
C713 C712 1.363 . S
C713 C716 1.363 . S
N714 C716 1.356 . S
N714 H726 0.984 . S
N714 H727 0.985 . S
N715 C717 1.356 . S
N715 H720 0.984 . S
N715 H721 0.985 . S
C716 C710 1.379 . S
C716 C713 1.363 . S
C716 N714 1.356 . S
C717 C711 1.363 . S
C717 C712 1.379 . S
C717 N715 1.356 . S
N718 C710 1.356 . S
N718 H724 0.984 . S
N718 H725 0.984 . S
N719 C712 1.356 . S
N719 H722 0.984 . S
N719 H723 0.985 1_554 S
H720 N715 0.984 . S
H721 N715 0.985 . S
H722 N719 0.984 . S
H723 N719 0.985 1_556 S
H724 N718 0.984 . S
H725 N718 0.984 . S
H726 N714 0.984 . S
H727 N714 0.985 . S
C728 C729 1.363 . S
C728 C734 1.379 . S
C728 N736 1.356 . S
C729 C728 1.363 . S
C729 C735 1.363 . S
C730 C731 1.363 . S
C730 C735 1.379 . S
C730 N737 1.356 . S
C731 C730 1.363 . S
C731 C734 1.363 . S
N732 C734 1.356 . S
N732 H744 0.984 . S
N732 H745 0.985 . S
N733 C735 1.356 . S
N733 H738 0.984 . S
N733 H739 0.985 . S
C734 C728 1.379 . S
C734 C731 1.363 . S
C734 N732 1.356 . S
C735 C729 1.363 . S
C735 C730 1.379 . S
C735 N733 1.356 . S
N736 C728 1.356 . S
N736 H742 0.984 . S
N736 H743 0.984 . S
N737 C730 1.356 . S
N737 H740 0.984 . S
N737 H741 0.985 . S
H738 N733 0.984 . S
H739 N733 0.985 . S
H740 N737 0.984 . S
H741 N737 0.985 . S
H742 N736 0.984 . S
H743 N736 0.984 . S
H744 N732 0.984 . S
H745 N732 0.985 . S
C746 C747 1.363 . S
C746 C752 1.379 . S
C746 N754 1.356 . S
C747 C746 1.363 . S
C747 C753 1.363 . S
C748 C749 1.363 . S
C748 C753 1.379 . S
C748 N755 1.356 . S
C749 C748 1.363 . S
C749 C752 1.363 . S
N750 C752 1.356 . S
N750 H762 0.984 . S
N750 H763 0.985 . S
N751 C753 1.356 . S
N751 H756 0.984 . S
N751 H757 0.985 . S
C752 C746 1.379 . S
C752 C749 1.363 . S
C752 N750 1.356 . S
C753 C747 1.363 . S
C753 C748 1.379 . S
C753 N751 1.356 . S
N754 C746 1.356 . S
N754 H760 0.984 . S
N754 H761 0.984 . S
N755 C748 1.356 . S
N755 H758 0.984 . S
N755 H759 0.985 . S
H756 N751 0.984 . S
H757 N751 0.985 . S
H758 N755 0.984 . S
H759 N755 0.985 . S
H760 N754 0.984 . S
H761 N754 0.984 . S
H762 N750 0.984 . S
H763 N750 0.985 . S
C764 C765 1.363 . S
C764 C770 1.379 . S
C764 N772 1.356 . S
C765 C764 1.363 . S
C765 C771 1.363 . S
C766 C767 1.363 . S
C766 C771 1.379 . S
C766 N773 1.356 . S
C767 C766 1.363 . S
C767 C770 1.363 . S
N768 C770 1.356 1_556 S
N768 H780 0.984 . S
N768 H781 0.985 . S
N769 C771 1.356 . S
N769 H774 0.984 . S
N769 H775 0.985 . S
C770 C764 1.379 . S
C770 C767 1.363 . S
C770 N768 1.356 1_554 S
C771 C765 1.363 . S
C771 C766 1.379 . S
C771 N769 1.356 . S
N772 C764 1.356 . S
N772 H778 0.984 . S
N772 H779 0.984 . S
N773 C766 1.356 . S
N773 H776 0.984 . S
N773 H777 0.985 . S
H774 N769 0.984 . S
H775 N769 0.985 . S
H776 N773 0.984 . S
H777 N773 0.985 . S
H778 N772 0.984 . S
H779 N772 0.984 . S
H780 N768 0.984 . S
H781 N768 0.985 . S
C782 C783 1.363 . S
C782 C788 1.379 . S
C782 N790 1.356 . S
C783 C782 1.363 . S
C783 C789 1.363 . S
C784 C785 1.363 . S
C784 C789 1.379 . S
C784 N791 1.356 . S
C785 C784 1.363 . S
C785 C788 1.363 . S
N786 C788 1.356 . S
N786 H798 0.984 . S
N786 H799 0.985 . S
N787 C789 1.356 1_554 S
N787 H792 0.984 . S
N787 H793 0.985 . S
C788 C782 1.379 . S
C788 C785 1.363 . S
C788 N786 1.356 . S
C789 C783 1.363 . S
C789 C784 1.379 . S
C789 N787 1.356 1_556 S
N790 C782 1.356 . S
N790 H796 0.984 . S
N790 H797 0.984 . S
N791 C784 1.356 . S
N791 H794 0.984 . S
N791 H795 0.985 1_556 S
H792 N787 0.984 . S
H793 N787 0.985 . S
H794 N791 0.984 . S
H795 N791 0.985 1_554 S
H796 N790 0.984 . S
H797 N790 0.984 . S
H798 N786 0.984 . S
H799 N786 0.985 . S
C225 C7 1.186 . S
C227 C175 1.186 . S
C243 C22 1.337 . S
C245 C78 1.337 . S
C261 C35 1.186 . S
C263 C203 1.186 . S
C279 C106 1.337 . S
C281 C50 1.337 . S
C297 C204 1.337 . S
C299 C36 1.337 . S
C315 C105 1.185 1_545 S
C317 C49 1.186 . S
C333 C176 1.337 . S
C335 C8 1.337 . S
C351 C77 1.186 . S
C353 C21 1.185 1_545 S
C369 C63 1.186 . S
C371 C119 1.186 . S
C387 C91 1.186 . S
C389 C147 1.186 . S
C405 C148 1.337 . S
C407 C92 1.337 . S
C423 C64 1.337 . S
C425 C120 1.337 . S
C441 C190 1.337 . S
C443 C134 1.337 . S
C459 C162 1.337 . S
C461 C218 1.337 . S
C477 C161 1.186 . S
C479 C217 1.186 . S
C495 C133 1.186 . S
C497 C189 1.186 . S
C513 C165 1.515 . S
C515 C11 1.515 . S
C531 C125 1.426 . S
C533 C27 1.426 . S
C549 C39 1.515 . S
C551 C137 1.515 . S
C567 C153 1.426 . S
C569 C55 1.426 . S
C585 C167 1.426 . S
C587 C41 1.426 . S
C603 C53 1.515 . S
C605 C123 1.515 . S
C621 C139 1.426 . S
C623 C13 1.426 . S
C639 C151 1.515 . S
C641 C25 1.515 . S
C657 C67 1.515 . S
C659 C221 1.515 . S
C675 C181 1.426 . S
C677 C83 1.426 . S
C693 C95 1.515 . S
C695 C193 1.515 . S
C711 C111 1.426 . S
C713 C209 1.426 . S
C729 C97 1.426 . S
C731 C223 1.426 . S
C747 C179 1.515 . S
C749 C109 1.515 . S
C765 C195 1.426 . S
C767 C69 1.426 . S
C783 C207 1.515 . S
C785 C81 1.515 . S
