# Generated by pormake.
# Topology tfs, (6)-cn, num edge types: 1
# Building blocks:
#     Node 0, Type 0, BuildingBlock: UKALOJ_clean_sbu_0, # of connection points: 6
#     Node 1, Type 0, BuildingBlock: UKALOJ_clean_sbu_0, # of connection points: 6
#     Node 2, Type 0, BuildingBlock: UKALOJ_clean_sbu_0, # of connection points: 6
#     Node 3, Type 0, BuildingBlock: UKALOJ_clean_sbu_0, # of connection points: 6
#     Node 4, Type 0, BuildingBlock: UKALOJ_clean_sbu_0, # of connection points: 6
#     Node 5, Type 0, BuildingBlock: UKALOJ_clean_sbu_0, # of connection points: 6
#     Edge 6, Type (0, 0), BuildingBlock: UVAHIK_clean_linker_0, # of connection points: 2
#     Edge 7, Type (0, 0), BuildingBlock: UVAHIK_clean_linker_0, # of connection points: 2
#     Edge 8, Type (0, 0), BuildingBlock: UVAHIK_clean_linker_0, # of connection points: 2
#     Edge 9, Type (0, 0), BuildingBlock: UVAHIK_clean_linker_0, # of connection points: 2
#     Edge 10, Type (0, 0), BuildingBlock: UVAHIK_clean_linker_0, # of connection points: 2
#     Edge 11, Type (0, 0), BuildingBlock: UVAHIK_clean_linker_0, # of connection points: 2
#     Edge 12, Type (0, 0), BuildingBlock: UVAHIK_clean_linker_0, # of connection points: 2
#     Edge 13, Type (0, 0), BuildingBlock: UVAHIK_clean_linker_0, # of connection points: 2
#     Edge 14, Type (0, 0), BuildingBlock: UVAHIK_clean_linker_0, # of connection points: 2
#     Edge 15, Type (0, 0), BuildingBlock: UVAHIK_clean_linker_0, # of connection points: 2
#     Edge 16, Type (0, 0), BuildingBlock: UVAHIK_clean_linker_0, # of connection points: 2
#     Edge 17, Type (0, 0), BuildingBlock: UVAHIK_clean_linker_0, # of connection points: 2
#     Edge 18, Type (0, 0), BuildingBlock: UVAHIK_clean_linker_0, # of connection points: 2
#     Edge 19, Type (0, 0), BuildingBlock: UVAHIK_clean_linker_0, # of connection points: 2
#     Edge 20, Type (0, 0), BuildingBlock: UVAHIK_clean_linker_0, # of connection points: 2
#     Edge 21, Type (0, 0), BuildingBlock: UVAHIK_clean_linker_0, # of connection points: 2
#     Edge 22, Type (0, 0), BuildingBlock: UVAHIK_clean_linker_0, # of connection points: 2
#     Edge 23, Type (0, 0), BuildingBlock: UVAHIK_clean_linker_0, # of connection points: 2
# Relax obj value: 0.219
# Max RMSD: 0.155
# Mean RMSD: 0.155
data_MOF--net-tfs--node1-UKALOJ_clean_sbu_0--edge1-UVAHIK_clean_linker_0
_symmetry_space_group_name_H-M    P1
_symmetry_Int_Tables_number       1
_symmetry_cell_setting            triclinic
loop_
_symmetry_equiv_pos_as_xyz
'x, y, z'
_cell_length_a     59.766928
_cell_length_b     59.698766
_cell_length_c     19.870576
_cell_angle_alpha  90.013608
_cell_angle_beta   89.959458
_cell_angle_gamma 119.94966
loop_
_atom_site_label
_atom_site_type_symbol
_atom_site_fract_x
_atom_site_fract_y
_atom_site_fract_z
_atom_type_partial_charge
Zn0 Zn 0.18275 0.43853 -0.0002 0.0
O1 O 0.17962 0.43848 0.10581 0.0
C2 C 0.23961 0.4627 0.00939 0.0
Zn3 Zn 0.19484 0.40865 0.00073 0.0
C4 C 0.18442 0.42307 0.13841 0.0
O5 O 0.19066 0.40857 0.1065 0.0
C6 C 0.19304 0.42423 0.86219 0.0
O7 O 0.15581 0.37854 -0.00835 0.0
O8 O 0.14399 0.408 -0.00649 0.0
N9 N 0.2075 0.38271 0.01318 0.0
C10 C 0.2085 0.36458 0.97475 0.0
C11 C 0.226 0.36543 0.06884 0.0
N12 N 0.21836 0.38309 0.07153 0.0
N13 N 0.22012 0.35348 0.00865 0.0
C14 C 0.18056 0.48947 0.01476 0.0
C15 C 0.14889 0.48217 0.95139 0.0
N16 N 0.17074 0.46522 -0.00931 0.0
N17 N 0.15098 0.4607 0.95162 0.0
N18 N 0.16734 0.5006 -0.00966 0.0
H19 H 0.20311 0.48692 0.09623 0.0
H20 H 0.19966 0.51533 0.09774 0.0
H21 H 0.2207 0.51273 0.03757 0.0
C22 C 0.20215 0.50171 0.06479 0.0
C23 C 0.19685 0.35694 0.90607 0.0
H24 H 0.17953 0.35914 0.90228 0.0
H25 H 0.19143 0.33665 0.89472 0.0
H26 H 0.21118 0.3698 0.86827 0.0
O27 O 0.19879 0.40946 0.89482 0.0
O28 O 0.18588 0.43808 0.89398 0.0
C29 C 0.13803 0.38437 -0.01024 0.0
O30 O 0.22176 0.4683 0.00514 0.0
O31 O 0.23373 0.43909 0.00935 0.0
Zn32 Zn 0.74624 0.18105 0.00242 0.0
O33 O 0.74326 0.17817 0.10843 0.0
C34 C 0.77861 0.23803 0.01075 0.0
Zn35 Zn 0.78828 0.1936 0.00323 0.0
C36 C 0.76354 0.18329 0.14098 0.0
O37 O 0.78428 0.18969 0.10902 0.0
C38 C 0.77071 0.19122 0.86474 0.0
O39 O 0.77957 0.15461 -0.00509 0.0
O40 O 0.73822 0.14237 -0.0032 0.0
N41 N 0.82687 0.20647 0.0157 0.0
C42 C 0.84611 0.20778 0.97722 0.0
C43 C 0.8625 0.22497 0.07179 0.0
N44 N 0.83719 0.21714 0.07434 0.0
N45 N 0.86873 0.2194 0.0114 0.0
C46 C 0.69339 0.17917 0.01742 0.0
C47 C 0.6689 0.14771 0.95354 0.0
N48 N 0.7076 0.16908 -0.00655 0.0
N49 N 0.69227 0.14944 0.95406 0.0
N50 N 0.66912 0.16628 -0.00742 0.0
H51 H 0.71844 0.2015 0.09925 0.0
H52 H 0.68675 0.19832 0.10057 0.0
H53 H 0.71052 0.21937 0.04078 0.0
C54 C 0.70283 0.20073 0.06772 0.0
C55 C 0.84233 0.19644 0.90817 0.0
H56 H 0.82298 0.1789 0.90409 0.0
H57 H 0.85742 0.19139 0.89637 0.0
H58 H 0.84354 0.21083 0.87088 0.0
O59 O 0.7913 0.19727 0.89727 0.0
O60 O 0.74973 0.18392 0.89664 0.0
C61 C 0.75605 0.13665 -0.00676 0.0
O62 O 0.75528 0.21996 0.0069 0.0
O63 O 0.79652 0.23244 0.01106 0.0
Zn64 Zn 0.56424 0.74732 0.02467 0.0
O65 O 0.56417 0.74438 0.13066 0.0
C66 C 0.54161 0.78114 0.03365 0.0
Zn67 Zn 0.59507 0.78876 0.02555 0.0
C68 C 0.58002 0.76437 0.16326 0.0
O69 O 0.59506 0.7849 0.13135 0.0
C70 C 0.57912 0.77146 0.88697 0.0
O71 O 0.62441 0.77871 0.01692 0.0
O72 O 0.59371 0.73797 0.01877 0.0
N73 N 0.62171 0.82706 0.03713 0.0
C74 C 0.64021 0.84552 -0.00188 0.0
C75 C 0.63973 0.8633 0.09071 0.0
N76 N 0.62157 0.83821 0.09459 0.0
N77 N 0.65177 0.86851 0.03067 0.0
C78 C 0.5131 0.69472 0.04052 0.0
C79 C 0.52041 0.66989 0.97869 0.0
N80 N 0.53725 0.70896 0.01599 0.0
N81 N 0.54177 0.69345 0.97781 0.0
N82 N 0.50206 0.6702 0.01741 0.0
H83 H 0.5157 0.72049 0.12035 0.0
H84 H 0.48743 0.68864 0.12356 0.0
H85 H 0.48976 0.7117 0.0618 0.0
C86 C 0.5009 0.70445 0.08974 0.0
C87 C 0.64773 0.84058 0.93023 0.0
H88 H 0.64484 0.82075 0.9278 0.0
H89 H 0.66821 0.85483 0.91895 0.0
H90 H 0.63534 0.84235 0.89156 0.0
O91 O 0.59437 0.79178 0.91956 0.0
O92 O 0.56472 0.75065 0.91883 0.0
C93 C 0.61754 0.75481 0.01513 0.0
O94 O 0.53531 0.75748 0.02961 0.0
O95 O 0.56537 0.79835 0.03372 0.0
Zn96 Zn 0.81833 0.56275 0.96458 0.0
O97 O 0.81955 0.56291 0.0707 0.0
C98 C 0.76172 0.54269 0.9685 0.0
Zn99 Zn 0.8091 0.59449 0.96495 0.0
C100 C 0.81537 0.57882 0.10305 0.0
O101 O 0.81066 0.59439 0.07092 0.0
C102 C 0.8122 0.57858 0.82649 0.0
O103 O 0.84924 0.62166 0.96069 0.0
O104 O 0.85783 0.59004 0.96229 0.0
N105 N 0.80208 0.62453 0.96987 0.0
C106 C 0.78268 0.62785 0.94722 0.0
C107 C 0.80905 0.66223 -0.00055 0.0
N108 N 0.81845 0.64594 0.00211 0.0
N109 N 0.78656 0.65134 0.96548 0.0
C110 C 0.81675 0.51036 -0.01232 0.0
C111 C 0.84939 0.51599 0.93057 0.0
N112 N 0.82748 0.53415 0.96022 0.0
N113 N 0.84776 0.5376 0.92486 0.0
N114 N 0.8301 0.49855 0.96953 0.0
H115 H 0.79264 0.51481 0.06142 0.0
H116 H 0.79587 0.48652 0.07252 0.0
H117 H 0.77619 0.48773 0.0058 0.0
C118 C 0.79418 0.49934 0.03495 0.0
C119 C 0.76086 0.60865 0.90442 0.0
H120 H 0.76687 0.59695 0.8743 0.0
H121 H 0.75393 0.61857 0.87016 0.0
H122 H 0.74465 0.59535 0.93743 0.0
O123 O 0.80779 0.59433 0.85887 0.0
O124 O 0.81719 0.56317 0.85857 0.0
C125 C 0.86566 0.61406 0.96022 0.0
O126 O 0.7786 0.53571 0.96612 0.0
O127 O 0.76894 0.56667 0.96934 0.0
Zn128 Zn 0.25964 0.82258 0.98013 0.0
O129 O 0.2606 0.82481 0.08621 0.0
C130 C 0.22519 0.76516 -0.01263 0.0
Zn131 Zn 0.21811 0.81097 0.98045 0.0
C132 C 0.24022 0.81958 0.11858 0.0
O133 O 0.21956 0.81334 0.08644 0.0
C134 C 0.23753 0.81418 0.84204 0.0
O135 O 0.22894 0.85054 0.97351 0.0
O136 O 0.26991 0.86194 0.97471 0.0
N137 N 0.18059 0.80209 0.98425 0.0
C138 C 0.15858 0.78223 0.95991 0.0
C139 C 0.14864 0.80742 0.0113 0.0
N140 N 0.17437 0.81771 0.01607 0.0
N141 N 0.13822 0.7851 0.97651 0.0
C142 C 0.31142 0.82356 0.00584 0.0
C143 C 0.33774 0.85593 0.94683 0.0
N144 N 0.29782 0.83342 0.97692 0.0
N145 N 0.31422 0.85356 0.94044 0.0
N146 N 0.33648 0.83726 -0.01262 0.0
H147 H 0.31519 0.80398 0.09256 0.0
H148 H 0.29444 0.78323 0.02708 0.0
H149 H 0.28335 0.79974 0.081 0.0
C150 C 0.30046 0.80148 0.05477 0.0
C151 C 0.15731 0.76091 0.91724 0.0
H152 H 0.17563 0.76738 0.88972 0.0
H153 H 0.1412 0.75398 0.88062 0.0
H154 H 0.15401 0.74453 0.95013 0.0
O155 O 0.21715 0.80894 0.87444 0.0
O156 O 0.25823 0.82045 0.87409 0.0
C157 C 0.2525 0.86817 0.9716 0.0
O158 O 0.24875 0.7829 0.98451 0.0
O159 O 0.20767 0.77132 -0.01286 0.0
Zn160 Zn 0.43908 0.25859 -0.01263 0.0
O161 O 0.43965 0.26167 0.09339 0.0
C162 C 0.46432 0.22677 -0.00577 0.0
Zn163 Zn 0.40978 0.21671 -0.01166 0.0
C164 C 0.42453 0.24137 0.12604 0.0
O165 O 0.41011 0.22065 0.09413 0.0
C166 C 0.42447 0.23417 0.84973 0.0
O167 O 0.37899 0.22479 0.98114 0.0
O168 O 0.40803 0.2661 0.98316 0.0
N169 N 0.38463 0.17821 0.00099 0.0
C170 C 0.36605 0.15927 0.96333 0.0
C171 C 0.36817 0.14227 0.0557 0.0
N172 N 0.38581 0.16755 0.0583 0.0
N173 N 0.35545 0.13648 -0.00333 0.0
C174 C 0.48881 0.3124 0.00035 0.0
C175 C 0.47945 0.33606 0.93989 0.0
N176 N 0.46451 0.2973 0.97782 0.0
N177 N 0.45869 0.31208 0.94058 0.0
N178 N 0.49867 0.33676 0.9768 0.0
H179 H 0.48832 0.28773 0.08044 0.0
H180 H 0.51614 0.31993 0.08007 0.0
H181 H 0.51329 0.2965 0.01874 0.0
C182 C 0.50234 0.30364 0.048 0.0
C183 C 0.35752 0.1635 0.89605 0.0
H184 H 0.35968 0.18304 0.89353 0.0
H185 H 0.33712 0.14869 0.88616 0.0
H186 H 0.36985 0.16208 0.85646 0.0
O187 O 0.41007 0.21356 0.8824 0.0
O188 O 0.43816 0.25516 0.88155 0.0
C189 C 0.3845 0.24832 0.97994 0.0
O190 O 0.46961 0.25017 -0.0094 0.0
O191 O 0.4408 0.20892 -0.00499 0.0
C192 C 0.33827 0.23636 0.95974 0.0
C193 C 0.364 0.25525 0.97328 0.0
C194 C 0.31927 0.24336 0.95163 0.0
C195 C 0.31164 0.30066 0.91851 0.0
H196 H 0.24438 0.259 0.00055 0.0
C197 C 0.22764 0.3176 0.03466 0.0
C198 C 0.22783 0.33524 -0.01235 0.0
C199 C 0.23994 0.30347 0.02067 0.0
C200 C 0.26307 0.27087 0.97729 0.0
H201 H 0.38984 0.29625 -0.01022 0.0
H202 H 0.35684 0.30829 0.97745 0.0
H203 H 0.27542 0.24385 0.00221 0.0
H204 H 0.24038 0.35126 0.8879 0.0
H205 H 0.26099 0.32581 0.86196 0.0
H206 H 0.30006 0.32843 0.89731 0.0
C207 C 0.35131 0.28815 0.97127 0.0
C208 C 0.28079 0.26203 0.97759 0.0
C209 C 0.37025 0.2812 0.979 0.0
C210 C 0.23936 0.3374 0.92456 0.0
C211 C 0.25159 0.32312 0.91027 0.0
C212 C 0.29404 0.30958 0.91866 0.0
C213 C 0.3256 0.26939 0.95707 0.0
C214 C 0.30557 0.27716 0.94983 0.0
C215 C 0.25281 0.30664 0.95909 0.0
C216 C 0.26974 0.29513 0.94958 0.0
H217 H 0.33285 0.21621 0.95467 0.0
H218 H 0.29971 0.22843 0.94027 0.0
H219 H 0.33033 0.31256 0.89526 0.0
H220 H 0.21903 0.31572 0.08381 0.0
H221 H 0.24069 0.29131 0.05998 0.0
C222 C 0.10374 0.33836 0.96711 0.0
C223 C 0.11062 0.36406 0.98179 0.0
C224 C 0.0778 0.31948 0.95802 0.0
C225 C 0.01305 0.31216 0.92506 0.0
H226 H 0.98743 0.24423 0.00343 0.0
C227 C 0.91208 0.22697 0.03741 0.0
C228 C 0.89472 0.22738 -0.00944 0.0
C229 C 0.9385 0.2395 0.02387 0.0
C230 C 0.99425 0.2631 0.98119 0.0
H231 H 0.09559 0.38998 -0.00085 0.0
H232 H 0.05059 0.35714 0.98523 0.0
H233 H 0.0335 0.27535 0.00642 0.0
H234 H 0.89141 0.24057 0.89154 0.0
H235 H 0.93753 0.26165 0.86635 0.0
H236 H 0.97376 0.30062 0.90363 0.0
C237 C 0.06515 0.35157 0.97889 0.0
C238 C 0.02076 0.28089 0.98225 0.0
C239 C 0.09101 0.37041 -0.01247 0.0
C240 C 0.9042 0.23939 0.92803 0.0
C241 C 0.93072 0.25187 0.91419 0.0
C242 C 0.98657 0.29449 0.92449 0.0
C243 C 0.05816 0.32587 0.96368 0.0
C244 C 0.03042 0.30589 0.95579 0.0
C245 C 0.9483 0.25284 0.96292 0.0
C246 C 0.97672 0.26994 0.95408 0.0
H247 H 0.11841 0.33287 0.96193 0.0
H248 H 0.07316 0.29995 0.94581 0.0
H249 H 0.01984 0.33103 0.90279 0.0
H250 H 0.90525 0.21798 0.08614 0.0
H251 H 0.95133 0.24004 0.0631 0.0
C252 C 0.76834 0.10265 0.97222 0.0
C253 C 0.74929 0.1093 0.98587 0.0
C254 C 0.7616 0.07673 0.96394 0.0
C255 C 0.70487 0.01158 0.93143 0.0
H256 H 0.74683 0.98673 0.01569 0.0
C257 C 0.68805 0.91186 0.0541 0.0
C258 C 0.67028 0.89407 0.008 0.0
C259 C 0.70237 0.93809 0.03828 0.0
C260 C 0.7349 0.99334 -0.00824 0.0
H261 H 0.70827 0.09391 0.00211 0.0
H262 H 0.69667 0.04896 -0.01048 0.0
H263 H 0.76164 0.03286 0.01558 0.0
H264 H 0.65429 0.88975 0.90793 0.0
H265 H 0.6801 0.93543 0.87883 0.0
H266 H 0.67733 0.97208 0.91154 0.0
C267 C 0.71673 0.06368 0.98341 0.0
C268 C 0.74353 0.01986 -0.00894 0.0
C269 C 0.72343 0.08951 -0.0087 0.0
C270 C 0.66825 0.90284 0.94395 0.0
C271 C 0.68273 0.92914 0.92782 0.0
C272 C 0.69614 0.9851 0.93263 0.0
C273 C 0.73568 0.05693 0.96934 0.0
C274 C 0.72825 0.02922 0.96261 0.0
C275 C 0.69926 0.94723 0.97574 0.0
C276 C 0.7107 0.97554 0.96446 0.0
H277 H 0.78843 0.11747 0.96733 0.0
H278 H 0.77665 0.07224 0.95264 0.0
H279 H 0.69287 0.01816 0.90768 0.0
H280 H 0.68984 0.90557 0.10393 0.0
H281 H 0.71459 0.95134 0.07693 0.0
C282 C 0.78154 0.68923 0.94492 0.0
C283 C 0.77036 0.66259 0.95699 0.0
C284 C 0.76625 0.70086 0.94287 0.0
C285 C 0.69897 0.6866 0.92437 0.0
H286 H 0.72159 0.74893 0.02996 0.0
C287 C 0.62862 0.71978 0.00818 0.0
C288 C 0.63671 0.74628 0.00635 0.0
C289 C 0.64612 0.71123 -0.00323 0.0
C290 C 0.71519 0.73179 -0.00065 0.0
H291 H 0.73456 0.62742 0.97894 0.0
H292 H 0.70773 0.64747 0.97382 0.0
H293 H 0.75003 0.7308 0.01704 0.0
H294 H 0.66965 0.78466 -0.00823 0.0
H295 H 0.70038 0.76961 0.97144 0.0
H296 H 0.66404 0.68734 0.9073 0.0
C297 C 0.72825 0.6593 0.96429 0.0
C298 C 0.73147 0.7214 -0.00804 0.0
C299 C 0.74357 0.64774 0.96669 0.0
C300 C 0.66285 0.76412 -0.00626 0.0
C301 C 0.68044 0.75551 0.98221 0.0
C302 C 0.68276 0.69701 0.93155 0.0
C303 C 0.73946 0.68603 0.95306 0.0
C304 C 0.7233 0.69842 0.95546 0.0
C305 C 0.67217 0.72893 0.98301 0.0
C306 C 0.69046 0.71941 0.97031 0.0
H307 H 0.8022 0.70109 0.93785 0.0
H308 H 0.7754 0.72146 0.93376 0.0
H309 H 0.69235 0.66913 0.89498 0.0
H310 H 0.60865 0.7055 0.01814 0.0
H311 H 0.63923 0.69067 -0.00075 0.0
C312 C 0.09566 0.77939 0.94825 0.0
C313 C 0.11117 0.76854 0.96361 0.0
C314 C 0.06903 0.76364 0.9404 0.0
C315 C 0.01818 0.69654 0.90839 0.0
H316 H 0.974 0.71592 0.00517 0.0
C317 C 0.91151 0.62414 0.96026 0.0
C318 C 0.89358 0.6328 0.95631 0.0
C319 C 0.9379 0.64161 0.9558 0.0
C320 C 0.98602 0.71043 0.97692 0.0
H321 H 0.11089 0.73287 0.9856 0.0
H322 H 0.06447 0.70522 0.97032 0.0
H323 H 0.02063 0.74492 0.00514 0.0
H324 H 0.88926 0.66656 0.94429 0.0
H325 H 0.9355 0.69712 0.93565 0.0
H326 H 0.98366 0.66201 0.88042 0.0
C327 C 0.07298 0.72586 0.96277 0.0
C328 C 0.01272 0.72703 0.97697 0.0
C329 C 0.09958 0.74165 0.97103 0.0
C330 C 0.90261 0.65932 0.94779 0.0
C331 C 0.92909 0.67683 0.94307 0.0
C332 C 0.99149 0.68002 0.90801 0.0
C333 C 0.05743 0.73673 0.94795 0.0
C334 C 0.02906 0.72006 0.94354 0.0
C335 C 0.94701 0.66814 0.94695 0.0
C336 C 0.97515 0.68658 0.94319 0.0
H337 H 0.1042 0.80011 0.94277 0.0
H338 H 0.0575 0.7725 0.92866 0.0
H339 H 0.03032 0.69088 0.88138 0.0
H340 H 0.90519 0.60384 0.96711 0.0
H341 H 0.9512 0.63434 0.96028 0.0
C342 C 0.28545 0.91526 0.96886 0.0
C343 C 0.25956 0.89556 0.96382 0.0
C344 C 0.29223 0.9411 0.96028 0.0
C345 C 0.2652 0.98482 0.96585 0.0
H346 H 0.33114 0.03252 0.88472 0.0
C347 C 0.3389 0.10154 0.91189 0.0
C348 C 0.33707 0.11069 0.97557 0.0
C349 C 0.32471 0.07509 0.89734 0.0
C350 C 0.31239 0.01949 0.90623 0.0
H351 H 0.22045 0.88749 0.94517 0.0
H352 H 0.23235 0.93259 0.92907 0.0
H353 H 0.31612 0.9865 0.88364 0.0
H354 H 0.31815 0.09981 0.07246 0.0
H355 H 0.29383 0.05379 0.04813 0.0
H356 H 0.26144 0.01786 -0.01189 0.0
C357 C 0.24738 0.92811 0.94076 0.0
C358 C 0.30398 0.99307 0.90667 0.0
C359 C 0.24057 0.90225 0.94983 0.0
C360 C 0.31974 0.09318 0.0229 0.0
C361 C 0.30569 0.06681 0.00863 0.0
C362 C 0.27352 0.01125 0.96493 0.0
C363 C 0.27331 0.94786 0.94587 0.0
C364 C 0.28067 0.9755 0.93831 0.0
C365 C 0.30866 0.05731 0.9465 0.0
C366 C 0.29759 0.029 0.93693 0.0
H367 H 0.30053 0.91077 0.97986 0.0
H368 H 0.31231 0.95581 0.96605 0.0
H369 H 0.24716 0.97188 -0.00922 0.0
H370 H 0.35252 0.1145 0.87498 0.0
H371 H 0.32721 0.06846 0.84868 0.0
C372 C 0.19263 0.71783 -0.00159 0.0
C373 C 0.21839 0.73764 -0.00982 0.0
C374 C 0.18637 0.69189 0.00021 0.0
C375 C 0.21166 0.64906 0.9495 0.0
H376 H 0.16154 0.60093 0.0769 0.0
C377 C 0.19805 0.54761 -0.00992 0.0
C378 C 0.1727 0.52687 -0.00364 0.0
C379 C 0.20304 0.5731 -0.00862 0.0
C380 C 0.17538 0.61407 0.04056 0.0
H381 H 0.25775 0.74561 0.97746 0.0
H382 H 0.24695 0.70062 0.98163 0.0
H383 H 0.17117 0.64582 0.07485 0.0
H384 H 0.13266 0.51642 0.00758 0.0
H385 H 0.14127 0.5611 0.00944 0.0
H386 H 0.21593 0.61746 0.91515 0.0
C387 C 0.2315 0.70504 0.98587 0.0
C388 C 0.18089 0.63979 0.03935 0.0
C389 C 0.23773 0.73091 0.98409 0.0
C390 C 0.1524 0.53213 0.00353 0.0
C391 C 0.15737 0.55767 0.00493 0.0
C392 C 0.20618 0.62342 0.95073 0.0
C393 C 0.20574 0.68518 -0.00639 0.0
C394 C 0.19924 0.65764 -0.00592 0.0
C395 C 0.18276 0.57846 -0.00172 0.0
C396 C 0.18812 0.60563 -0.00343 0.0
H397 H 0.17725 0.72233 0.0033 0.0
H398 H 0.16631 0.67706 0.00562 0.0
H399 H 0.2255 0.66213 0.91303 0.0
H400 H 0.21397 0.54417 0.98202 0.0
H401 H 0.22284 0.58863 -0.01343 0.0
C402 C 0.47946 0.19455 0.00527 0.0
C403 C 0.48525 0.22029 -0.00323 0.0
C404 C 0.49919 0.18839 0.00672 0.0
C405 C 0.56701 0.2135 0.95465 0.0
H406 H 0.56476 0.163 0.08131 0.0
C407 C 0.6537 0.19771 -0.00843 0.0
C408 C 0.64859 0.17217 -0.00179 0.0
C409 C 0.63361 0.20327 -0.00674 0.0
C410 C 0.56553 0.17694 0.04516 0.0
H411 H 0.5164 0.2597 0.98307 0.0
H412 H 0.55074 0.24906 -0.01342 0.0
H413 H 0.53004 0.17332 0.08082 0.0
H414 H 0.6185 0.13235 0.01012 0.0
H415 H 0.58311 0.14193 0.01267 0.0
H416 H 0.60243 0.21713 0.91889 0.0
C417 C 0.53093 0.23357 -0.0086 0.0
C418 C 0.54563 0.18286 0.04486 0.0
C419 C 0.51123 0.23972 -0.01002 0.0
C420 C 0.62291 0.15222 0.00583 0.0
C421 C 0.60274 0.15776 0.00763 0.0
C422 C 0.58688 0.2076 0.95497 0.0
C423 C 0.52517 0.20782 -0.00046 0.0
C424 C 0.54618 0.20129 -0.00026 0.0
C425 C 0.60785 0.18336 0.00094 0.0
C426 C 0.58646 0.18933 0.00039 0.0
H427 H 0.45966 0.17908 0.01052 0.0
H428 H 0.49403 0.16833 0.01229 0.0
H429 H 0.56781 0.22741 0.91834 0.0
H430 H 0.67316 0.21336 0.98311 0.0
H431 H 0.63827 0.22321 -0.01166 0.0
C432 C 0.47145 0.62389 0.03511 0.0
C433 C 0.47609 0.64915 0.02558 0.0
C434 C 0.44618 0.60311 0.03898 0.0
C435 C 0.37849 0.58729 0.06689 0.0
H436 H 0.36164 0.52442 0.96987 0.0
C437 C 0.27369 0.5095 0.00771 0.0
C438 C 0.26694 0.48344 0.01449 0.0
C439 C 0.29942 0.52912 0.013 0.0
C440 C 0.36609 0.54171 -0.00204 0.0
H441 H 0.45802 0.67236 0.0092 0.0
H442 H 0.41395 0.63628 0.01656 0.0
H443 H 0.40625 0.55977 0.97317 0.0
H444 H 0.28202 0.45755 0.03178 0.0
H445 H 0.32699 0.49189 0.0411 0.0
H446 H 0.33827 0.56935 0.09087 0.0
C447 C 0.42977 0.63253 0.02319 0.0
C448 C 0.39166 0.56196 -7e-05 0.0
C449 C 0.45502 0.65326 0.01937 0.0
C450 C 0.28656 0.47744 0.02621 0.0
C451 C 0.31234 0.4971 0.03133 0.0
C452 C 0.35293 0.56706 0.06483 0.0
C453 C 0.42503 0.60718 0.03275 0.0
C454 C 0.39812 0.58509 0.03386 0.0
C455 C 0.31904 0.52317 0.02495 0.0
C456 C 0.3464 0.54414 0.02978 0.0
H457 H 0.48744 0.62029 0.03947 0.0
H458 H 0.4432 0.58386 0.04689 0.0
H459 H 0.38288 0.60466 0.09444 0.0
H460 H 0.25916 0.5148 -0.00234 0.0
H461 H 0.30399 0.54898 0.00661 0.0
C462 C 0.84603 0.46908 0.0 0.0
C463 C 0.82533 0.47302 0.98477 0.0
C464 C 0.84184 0.44415 0.01059 0.0
C465 C 0.79071 0.37699 0.04718 0.0
H466 H 0.83781 0.3589 0.96105 0.0
C467 C 0.76536 0.27163 0.0042 0.0
C468 C 0.7848 0.26527 0.01412 0.0
C469 C 0.77112 0.29732 0.00669 0.0
C470 C 0.8247 0.36374 -0.01373 0.0
H471 H 0.78421 0.45402 0.96602 0.0
H472 H 0.77671 0.41045 0.98495 0.0
H473 H 0.84635 0.40327 0.95528 0.0
H474 H 0.8256 0.28094 0.03453 0.0
H475 H 0.83566 0.3259 0.03896 0.0
H476 H 0.76883 0.33733 0.07717 0.0
C477 C 0.79611 0.42665 -0.00932 0.0
C478 C 0.82959 0.38916 0.983 0.0
C479 C 0.80034 0.45159 0.98015 0.0
C480 C 0.81018 0.2852 0.02654 0.0
C481 C 0.81597 0.31095 0.0289 0.0
C482 C 0.78581 0.35157 0.05041 0.0
C483 C 0.81685 0.42263 0.00552 0.0
C484 C 0.81249 0.396 0.01275 0.0
C485 C 0.79649 0.31728 0.01892 0.0
C486 C 0.80258 0.3446 0.01929 0.0
H487 H 0.86548 0.48537 0.00347 0.0
H488 H 0.85818 0.44172 0.02254 0.0
H489 H 0.77741 0.38176 0.07155 0.0
H490 H 0.74572 0.25683 -0.0066 0.0
H491 H 0.75578 0.3016 -0.00247 0.0
C492 C 0.38207 0.8539 0.01689 0.0
C493 C 0.35748 0.83292 0.00283 0.0
C494 C 0.40287 0.84992 0.02875 0.0
C495 C 0.41864 0.79927 0.07329 0.0
H496 H 0.48328 0.84358 0.98142 0.0
C497 C 0.49528 0.76965 0.03102 0.0
C498 C 0.52144 0.78853 0.03759 0.0
C499 C 0.47615 0.77649 0.03389 0.0
C500 C 0.46551 0.8313 0.00832 0.0
H501 H 0.33559 0.79156 -0.01343 0.0
H502 H 0.37166 0.78444 0.0082 0.0
H503 H 0.44811 0.85308 0.97434 0.0
H504 H 0.54806 0.82946 0.05262 0.0
H505 H 0.51451 0.84141 0.05781 0.0
H506 H 0.43585 0.77722 0.10629 0.0
C507 C 0.37478 0.8039 0.01211 0.0
C508 C 0.44537 0.83674 0.00427 0.0
C509 C 0.35406 0.80792 0.0001 0.0
C510 C 0.52806 0.81445 0.04724 0.0
C511 C 0.50888 0.82132 0.05002 0.0
C512 C 0.43877 0.79385 0.0774 0.0
C513 C 0.39943 0.82486 0.02634 0.0
C514 C 0.42157 0.82051 0.03571 0.0
C515 C 0.48272 0.80239 0.0433 0.0
C516 C 0.46225 0.80953 0.04394 0.0
H517 H 0.38513 0.87336 0.01868 0.0
H518 H 0.42162 0.86643 0.03984 0.0
H519 H 0.40068 0.78669 0.09904 0.0
H520 H 0.48951 0.74957 0.02269 0.0
H521 H 0.45621 0.76152 0.02725 0.0
C522 C 0.71486 0.5297 0.97967 0.0
C523 C 0.73399 0.52288 0.96961 0.0
C524 C 0.68871 0.51067 0.9804 0.0
C525 C 0.64451 0.44399 0.92316 0.0
H526 H 0.59809 0.44368 0.06012 0.0
C527 C 0.54573 0.35452 0.97072 0.0
C528 C 0.52457 0.35822 0.98103 0.0
C529 C 0.5708 0.37557 0.96998 0.0
C530 C 0.61076 0.44369 0.02111 0.0
H531 H 0.74062 0.49075 0.95232 0.0
H532 H 0.69532 0.45778 0.95441 0.0
H533 H 0.64285 0.47913 0.05645 0.0
H534 H 0.51284 0.38668 -0.00252 0.0
H535 H 0.55691 0.42381 -0.00404 0.0
H536 H 0.61266 0.40856 0.88803 0.0
C537 C 0.70041 0.47779 0.96097 0.0
C538 C 0.63636 0.46398 0.01896 0.0
C539 C 0.72643 0.49671 0.96039 0.0
C540 C 0.52895 0.38341 -0.0097 0.0
C541 C 0.5541 0.40454 -0.0103 0.0
C542 C 0.61902 0.42377 0.92532 0.0
C543 C 0.68123 0.48452 0.97069 0.0
C544 C 0.65359 0.46411 0.97055 0.0
C545 C 0.57528 0.40084 0.97883 0.0
C546 C 0.60196 0.42316 0.97491 0.0
H547 H 0.72007 0.5497 -0.01293 0.0
H548 H 0.67434 0.51646 -0.0124 0.0
H549 H 0.65716 0.44382 0.88434 0.0
H550 H 0.54287 0.33544 0.96107 0.0
H551 H 0.58672 0.37204 0.962 0.0
C552 C 0.19914 0.40805 0.75094 0.0
C553 C 0.19373 0.42488 0.78779 0.0
C554 C 0.19849 0.408 0.68059 0.0
C555 C 0.20111 0.44744 0.53424 0.0
H556 H 0.16697 0.38157 0.4412 0.0
C557 C 0.17885 0.43963 0.24963 0.0
C558 C 0.18383 0.4225 0.2128 0.0
C559 C 0.17961 0.43974 0.31999 0.0
C560 C 0.17679 0.40012 0.46639 0.0
H561 H 0.18378 0.45515 0.77959 0.0
H562 H 0.18254 0.45492 0.65731 0.0
H563 H 0.17039 0.38249 0.56356 0.0
H564 H 0.19323 0.39184 0.22097 0.0
H565 H 0.19474 0.39223 0.34319 0.0
H566 H 0.20754 0.46508 0.43709 0.0
C567 C 0.1875 0.44193 0.68263 0.0
C568 C 0.17879 0.40065 0.53646 0.0
C569 C 0.18808 0.44194 0.7528 0.0
C570 C 0.18922 0.40526 0.24777 0.0
C571 C 0.18995 0.40536 0.31793 0.0
C572 C 0.19913 0.44692 0.46416 0.0
C573 C 0.19251 0.42484 0.64572 0.0
C574 C 0.19095 0.42431 0.57116 0.0
C575 C 0.18532 0.42271 0.35486 0.0
C576 C 0.18694 0.42325 0.42944 0.0
H577 H 0.20359 0.3947 0.77635 0.0
H578 H 0.20274 0.39482 0.65347 0.0
H579 H 0.21089 0.46599 0.55948 0.0
H580 H 0.17463 0.45314 0.22417 0.0
H581 H 0.17564 0.45313 0.34708 0.0
C582 C 0.74789 0.18592 0.75558 0.0
C583 C 0.77066 0.19179 0.79036 0.0
C584 C 0.74723 0.18526 0.68543 0.0
C585 C 0.78873 0.20749 0.53471 0.0
H586 H 0.72877 0.15166 0.44721 0.0
C587 C 0.78628 0.18851 0.25023 0.0
C588 C 0.76359 0.18284 0.21535 0.0
C589 C 0.78695 0.18934 0.32037 0.0
C590 C 0.74551 0.16752 0.47089 0.0
H591 H 0.8107 0.20191 0.77861 0.0
H592 H 0.8095 0.20056 0.65581 0.0
H593 H 0.73071 0.15407 0.56973 0.0
H594 H 0.7237 0.17331 0.22681 0.0
H595 H 0.72491 0.17487 0.34969 0.0
H596 H 0.80355 0.2209 0.43583 0.0
C597 C 0.79222 0.19671 0.68299 0.0
C598 C 0.74663 0.16891 0.54105 0.0
C599 C 0.79289 0.19739 0.75334 0.0
C600 C 0.74144 0.17764 0.25223 0.0
C601 C 0.74211 0.17845 0.32257 0.0
C602 C 0.78761 0.20608 0.46454 0.0
C603 C 0.76931 0.19042 0.64832 0.0
C604 C 0.76825 0.18892 0.57375 0.0
C605 C 0.76495 0.18452 0.35733 0.0
C606 C 0.766 0.18607 0.43187 0.0
H607 H 0.73043 0.18165 0.7825 0.0
H608 H 0.72942 0.1808 0.66022 0.0
H609 H 0.80547 0.22335 0.55837 0.0
H610 H 0.80368 0.19252 0.22339 0.0
H611 H 0.8047 0.19365 0.3457 0.0
C612 C 0.56101 0.74902 0.77758 0.0
C613 C 0.57849 0.7715 0.81258 0.0
C614 C 0.56098 0.74846 0.7074 0.0
C615 C 0.60253 0.78024 0.56119 0.0
H616 H 0.53806 0.74642 0.46202 0.0
C617 C 0.59818 0.78669 0.27269 0.0
C618 C 0.58053 0.76432 0.23762 0.0
C619 C 0.59807 0.78727 0.34285 0.0
C620 C 0.55622 0.75564 0.48904 0.0
H621 H 0.60938 0.81118 0.80116 0.0
H622 H 0.60921 0.81025 0.67832 0.0
H623 H 0.53728 0.74875 0.58447 0.0
H624 H 0.54913 0.72486 0.24877 0.0
H625 H 0.54914 0.72579 0.37167 0.0
H626 H 0.62148 0.78707 0.46583 0.0
C627 C 0.59573 0.79297 0.70542 0.0
C628 C 0.55577 0.75704 0.55914 0.0
C629 C 0.59571 0.79355 0.77576 0.0
C630 C 0.56296 0.74239 0.27432 0.0
C631 C 0.56285 0.74299 0.34467 0.0
C632 C 0.60298 0.77882 0.4911 0.0
C633 C 0.57845 0.77036 0.67053 0.0
C634 C 0.57892 0.76935 0.59598 0.0
C635 C 0.58032 0.7655 0.37966 0.0
C636 C 0.57983 0.76651 0.45423 0.0
H637 H 0.54749 0.73166 0.80436 0.0
H638 H 0.54764 0.73066 0.68204 0.0
H639 H 0.62068 0.78947 0.58823 0.0
H640 H 0.61193 0.80396 0.24598 0.0
H641 H 0.61155 0.80501 0.36822 0.0
C642 C 0.81691 0.56091 0.71671 0.0
C643 C 0.81189 0.5783 0.75219 0.0
C644 C 0.81712 0.56089 0.64652 0.0
C645 C 0.79428 0.58089 0.49858 0.0
H646 H 0.84804 0.57469 0.40563 0.0
C647 C 0.81075 0.59656 0.21282 0.0
C648 C 0.81552 0.579 0.17735 0.0
C649 C 0.81036 0.59646 0.28301 0.0
C650 C 0.83275 0.57616 0.43088 0.0
H651 H 0.80297 0.6092 0.74188 0.0
H652 H 0.8036 0.60931 0.61914 0.0
H653 H 0.84707 0.57456 0.52831 0.0
H654 H 0.82369 0.54759 0.18768 0.0
H655 H 0.82288 0.54737 0.31043 0.0
H656 H 0.78001 0.58255 0.40109 0.0
C657 C 0.8071 0.59551 0.64571 0.0
C658 C 0.83219 0.57608 0.5011 0.0
C659 C 0.80688 0.59554 0.71599 0.0
C660 C 0.82005 0.56143 0.21356 0.0
C661 C 0.8197 0.56137 0.28383 0.0
C662 C 0.79486 0.581 0.42835 0.0
C663 C 0.81232 0.57825 0.61026 0.0
C664 C 0.81294 0.57842 0.53569 0.0
C665 C 0.81476 0.57883 0.31925 0.0
C666 C 0.81411 0.57863 0.39379 0.0
H667 H 0.82074 0.5473 0.74309 0.0
H668 H 0.82082 0.5471 0.62063 0.0
H669 H 0.77898 0.58234 0.5238 0.0
H670 H 0.80725 0.61039 0.18643 0.0
H671 H 0.80685 0.61038 0.30894 0.0
C672 C 0.21764 0.81394 0.22855 0.0
C673 C 0.24028 0.81997 0.1929 0.0
C674 C 0.21739 0.81341 0.29876 0.0
C675 C 0.25165 0.80643 0.44394 0.0
H676 H 0.21581 0.83484 0.54407 0.0
C677 C 0.26004 0.81983 0.73196 0.0
C678 C 0.23738 0.81362 0.76774 0.0
C679 C 0.26018 0.82013 0.66174 0.0
C680 C 0.22564 0.82656 0.51677 0.0
H681 H 0.2805 0.83043 0.20297 0.0
H682 H 0.28011 0.82979 0.32568 0.0
H683 H 0.21686 0.83699 0.42148 0.0
H684 H 0.19696 0.80245 0.75792 0.0
H685 H 0.19719 0.80282 0.63517 0.0
H686 H 0.26047 0.79605 0.53928 0.0
C687 C 0.26247 0.82515 0.29923 0.0
C688 C 0.22627 0.82781 0.44659 0.0
C689 C 0.26274 0.82569 0.22896 0.0
C690 C 0.21477 0.80742 0.73182 0.0
C691 C 0.21492 0.80777 0.66154 0.0
C692 C 0.25104 0.8052 0.51412 0.0
C693 C 0.23976 0.81889 0.33486 0.0
C694 C 0.23928 0.81777 0.40942 0.0
C695 C 0.23766 0.81426 0.62579 0.0
C696 C 0.23804 0.81525 0.55126 0.0
H697 H 0.19999 0.80936 0.20227 0.0
H698 H 0.19951 0.80822 0.32475 0.0
H699 H 0.26147 0.79814 0.41666 0.0
H700 H 0.27781 0.82474 0.75813 0.0
H701 H 0.27807 0.82548 0.6356 0.0
C702 C 0.40863 0.21183 0.73851 0.0
C703 C 0.42504 0.2342 0.77536 0.0
C704 C 0.4087 0.21241 0.66815 0.0
C705 C 0.44815 0.24955 0.52237 0.0
H706 H 0.38268 0.2168 0.42782 0.0
C707 C 0.44079 0.26356 0.23724 0.0
C708 C 0.42404 0.24132 0.2004 0.0
C709 C 0.44079 0.26293 0.30759 0.0
C710 C 0.40113 0.22583 0.45345 0.0
H711 H 0.45462 0.27464 0.76722 0.0
H712 H 0.45459 0.27562 0.64494 0.0
H713 H 0.38322 0.21444 0.55027 0.0
H714 H 0.39401 0.20105 0.20851 0.0
H715 H 0.39422 0.19996 0.33072 0.0
H716 H 0.46607 0.2609 0.42556 0.0
C717 C 0.44185 0.25759 0.67026 0.0
C718 C 0.40143 0.22443 0.52356 0.0
C719 C 0.44174 0.25703 0.74041 0.0
C720 C 0.40712 0.21857 0.23533 0.0
C721 C 0.40712 0.21796 0.30547 0.0
C722 C 0.44785 0.25093 0.45225 0.0
C723 C 0.42524 0.23534 0.63333 0.0
C724 C 0.42494 0.2363 0.55877 0.0
C725 C 0.42402 0.24008 0.34243 0.0
C726 C 0.42433 0.23908 0.41701 0.0
H727 H 0.39558 0.19394 0.7639 0.0
H728 H 0.39588 0.19488 0.641 0.0
H729 H 0.46659 0.25861 0.54805 0.0
H730 H 0.45404 0.28138 0.21179 0.0
H731 H 0.45383 0.28038 0.33473 0.0
loop_
_geom_bond_atom_site_label_1
_geom_bond_atom_site_label_2
_geom_bond_distance
_geom_bond_site_symmetry_2
_ccdc_geom_bond_type
Zn0 O1 2.055 . S
Zn0 O8 2.046 . S
Zn0 N16 2.036 1_554 S
Zn0 O28 2.053 1_554 S
Zn0 O30 2.066 . S
O1 Zn0 2.055 . S
O1 C4 1.259 . S
C2 O30 1.256 . S
C2 O31 1.244 . S
Zn3 O5 2.046 . S
Zn3 O7 2.055 . S
Zn3 N9 2.036 . S
Zn3 O27 2.066 1_554 S
Zn3 O31 2.053 . S
C4 O1 1.259 . S
C4 O5 1.254 . S
O5 Zn3 2.046 . S
O5 C4 1.254 . S
C6 O27 1.256 . S
C6 O28 1.244 . S
O7 Zn3 2.055 . S
O7 C29 1.259 . S
O8 Zn0 2.046 . S
O8 C29 1.255 . S
N9 Zn3 2.036 . S
N9 C10 1.298 1_554 S
N9 N12 1.398 . S
C10 N9 1.298 1_556 S
C10 N13 1.367 . S
C10 C23 1.481 . S
C11 N12 1.299 . S
C11 N13 1.379 1_554 S
N12 N9 1.398 . S
N12 C11 1.299 . S
N13 C10 1.367 . S
N13 C11 1.379 1_556 S
C14 N16 1.298 1_554 S
C14 N18 1.367 1_554 S
C14 C22 1.481 . S
C15 N17 1.299 . S
C15 N18 1.379 . S
N16 Zn0 2.036 1_556 S
N16 C14 1.298 1_556 S
N16 N17 1.398 . S
N17 C15 1.299 . S
N17 N16 1.398 . S
N18 C14 1.367 1_556 S
N18 C15 1.379 . S
H19 C22 0.980 . S
H20 C22 0.981 . S
H21 C22 0.981 . S
C22 C14 1.481 . S
C22 H19 0.980 . S
C22 H20 0.981 . S
C22 H21 0.981 . S
C23 C10 1.481 . S
C23 H24 0.980 . S
C23 H25 0.981 . S
C23 H26 0.981 . S
H24 C23 0.980 . S
H25 C23 0.981 . S
H26 C23 0.981 . S
O27 Zn3 2.066 1_556 S
O27 C6 1.256 . S
O28 Zn0 2.053 1_556 S
O28 C6 1.244 . S
C29 O7 1.259 . S
C29 O8 1.255 . S
O30 Zn0 2.066 . S
O30 C2 1.256 . S
O31 C2 1.244 . S
O31 Zn3 2.053 . S
Zn32 O33 2.055 . S
Zn32 O40 2.046 . S
Zn32 N48 2.036 1_554 S
Zn32 O60 2.053 1_554 S
Zn32 O62 2.066 . S
O33 Zn32 2.055 . S
O33 C36 1.259 . S
C34 O62 1.256 . S
C34 O63 1.244 . S
Zn35 O37 2.046 . S
Zn35 O39 2.055 . S
Zn35 N41 2.036 . S
Zn35 O59 2.066 1_554 S
Zn35 O63 2.053 . S
C36 O33 1.259 . S
C36 O37 1.254 . S
O37 Zn35 2.046 . S
O37 C36 1.254 . S
C38 O59 1.256 . S
C38 O60 1.244 . S
O39 Zn35 2.055 . S
O39 C61 1.259 . S
O40 Zn32 2.046 . S
O40 C61 1.255 . S
N41 Zn35 2.036 . S
N41 C42 1.298 1_554 S
N41 N44 1.398 . S
C42 N41 1.298 1_556 S
C42 N45 1.367 . S
C42 C55 1.481 . S
C43 N44 1.299 . S
C43 N45 1.379 1_554 S
N44 N41 1.398 . S
N44 C43 1.299 . S
N45 C42 1.367 . S
N45 C43 1.379 1_556 S
C46 N48 1.298 1_554 S
C46 N50 1.367 1_554 S
C46 C54 1.481 . S
C47 N49 1.299 . S
C47 N50 1.379 . S
N48 Zn32 2.036 1_556 S
N48 C46 1.298 1_556 S
N48 N49 1.398 . S
N49 C47 1.299 . S
N49 N48 1.398 . S
N50 C46 1.367 1_556 S
N50 C47 1.379 . S
H51 C54 0.980 . S
H52 C54 0.981 . S
H53 C54 0.981 . S
C54 C46 1.481 . S
C54 H51 0.980 . S
C54 H52 0.981 . S
C54 H53 0.981 . S
C55 C42 1.481 . S
C55 H56 0.980 . S
C55 H57 0.981 . S
C55 H58 0.981 . S
H56 C55 0.980 . S
H57 C55 0.981 . S
H58 C55 0.981 . S
O59 Zn35 2.066 1_556 S
O59 C38 1.256 . S
O60 Zn32 2.053 1_556 S
O60 C38 1.244 . S
C61 O39 1.259 . S
C61 O40 1.255 . S
O62 Zn32 2.066 . S
O62 C34 1.256 . S
O63 C34 1.244 . S
O63 Zn35 2.053 . S
Zn64 O65 2.055 . S
Zn64 O72 2.046 . S
Zn64 N80 2.036 1_554 S
Zn64 O92 2.053 1_554 S
Zn64 O94 2.066 . S
O65 Zn64 2.055 . S
O65 C68 1.259 . S
C66 O94 1.256 . S
C66 O95 1.244 . S
Zn67 O69 2.046 . S
Zn67 O71 2.055 . S
Zn67 N73 2.036 . S
Zn67 O91 2.066 1_554 S
Zn67 O95 2.053 . S
C68 O65 1.259 . S
C68 O69 1.254 . S
O69 Zn67 2.046 . S
O69 C68 1.254 . S
C70 O91 1.256 . S
C70 O92 1.244 . S
O71 Zn67 2.055 . S
O71 C93 1.259 . S
O72 Zn64 2.046 . S
O72 C93 1.255 . S
N73 Zn67 2.036 . S
N73 C74 1.298 1_554 S
N73 N76 1.398 . S
C74 N73 1.298 1_556 S
C74 N77 1.367 . S
C74 C87 1.481 . S
C75 N76 1.299 . S
C75 N77 1.379 1_554 S
N76 N73 1.398 . S
N76 C75 1.299 . S
N77 C74 1.367 . S
N77 C75 1.379 1_556 S
C78 N80 1.298 1_554 S
C78 N82 1.367 1_554 S
C78 C86 1.481 . S
C79 N81 1.299 . S
C79 N82 1.379 . S
N80 Zn64 2.036 1_556 S
N80 C78 1.298 1_556 S
N80 N81 1.398 . S
N81 C79 1.299 . S
N81 N80 1.398 . S
N82 C78 1.367 1_556 S
N82 C79 1.379 . S
H83 C86 0.980 . S
H84 C86 0.981 . S
H85 C86 0.981 . S
C86 C78 1.481 . S
C86 H83 0.980 . S
C86 H84 0.981 . S
C86 H85 0.981 . S
C87 C74 1.481 . S
C87 H88 0.980 . S
C87 H89 0.981 . S
C87 H90 0.981 . S
H88 C87 0.980 . S
H89 C87 0.981 . S
H90 C87 0.981 . S
O91 Zn67 2.066 1_556 S
O91 C70 1.256 . S
O92 Zn64 2.053 1_556 S
O92 C70 1.244 . S
C93 O71 1.259 . S
C93 O72 1.255 . S
O94 Zn64 2.066 . S
O94 C66 1.256 . S
O95 C66 1.244 . S
O95 Zn67 2.053 . S
Zn96 O97 2.055 . S
Zn96 O104 2.046 . S
Zn96 N112 2.036 1_554 S
Zn96 O124 2.053 1_554 S
Zn96 O126 2.066 . S
O97 Zn96 2.055 . S
O97 C100 1.259 . S
C98 O126 1.256 . S
C98 O127 1.244 . S
Zn99 O101 2.046 . S
Zn99 O103 2.055 . S
Zn99 N105 2.036 . S
Zn99 O123 2.066 1_554 S
Zn99 O127 2.053 . S
C100 O97 1.259 . S
C100 O101 1.254 . S
O101 Zn99 2.046 . S
O101 C100 1.254 . S
C102 O123 1.256 . S
C102 O124 1.244 . S
O103 Zn99 2.055 . S
O103 C125 1.259 . S
O104 Zn96 2.046 . S
O104 C125 1.255 . S
N105 Zn99 2.036 . S
N105 C106 1.298 1_554 S
N105 N108 1.398 . S
C106 N105 1.298 1_556 S
C106 N109 1.367 . S
C106 C119 1.481 . S
C107 N108 1.299 . S
C107 N109 1.379 1_554 S
N108 N105 1.398 . S
N108 C107 1.299 . S
N109 C106 1.367 . S
N109 C107 1.379 1_556 S
C110 N112 1.298 1_554 S
C110 N114 1.367 1_554 S
C110 C118 1.481 . S
C111 N113 1.299 . S
C111 N114 1.379 . S
N112 Zn96 2.036 1_556 S
N112 C110 1.298 1_556 S
N112 N113 1.398 . S
N113 C111 1.299 . S
N113 N112 1.398 . S
N114 C110 1.367 1_556 S
N114 C111 1.379 . S
H115 C118 0.980 . S
H116 C118 0.981 . S
H117 C118 0.981 . S
C118 C110 1.481 . S
C118 H115 0.980 . S
C118 H116 0.981 . S
C118 H117 0.981 . S
C119 C106 1.481 . S
C119 H120 0.980 . S
C119 H121 0.981 . S
C119 H122 0.981 . S
H120 C119 0.980 . S
H121 C119 0.981 . S
H122 C119 0.981 . S
O123 Zn99 2.066 1_556 S
O123 C102 1.256 . S
O124 Zn96 2.053 1_556 S
O124 C102 1.244 . S
C125 O103 1.259 . S
C125 O104 1.255 . S
O126 Zn96 2.066 . S
O126 C98 1.256 . S
O127 C98 1.244 . S
O127 Zn99 2.053 . S
Zn128 O129 2.055 . S
Zn128 O136 2.046 . S
Zn128 N144 2.036 1_554 S
Zn128 O156 2.053 1_554 S
Zn128 O158 2.066 . S
O129 Zn128 2.055 . S
O129 C132 1.259 . S
C130 O158 1.256 . S
C130 O159 1.244 . S
Zn131 O133 2.046 . S
Zn131 O135 2.055 . S
Zn131 N137 2.036 . S
Zn131 O155 2.066 1_554 S
Zn131 O159 2.053 . S
C132 O129 1.259 . S
C132 O133 1.254 . S
O133 Zn131 2.046 . S
O133 C132 1.254 . S
C134 O155 1.256 . S
C134 O156 1.244 . S
O135 Zn131 2.055 . S
O135 C157 1.259 . S
O136 Zn128 2.046 . S
O136 C157 1.255 . S
N137 Zn131 2.036 . S
N137 C138 1.298 1_554 S
N137 N140 1.398 . S
C138 N137 1.298 1_556 S
C138 N141 1.367 . S
C138 C151 1.481 . S
C139 N140 1.299 . S
C139 N141 1.379 1_554 S
N140 N137 1.398 . S
N140 C139 1.299 . S
N141 C138 1.367 . S
N141 C139 1.379 1_556 S
C142 N144 1.298 1_554 S
C142 N146 1.367 1_554 S
C142 C150 1.481 . S
C143 N145 1.299 . S
C143 N146 1.379 . S
N144 Zn128 2.036 1_556 S
N144 C142 1.298 1_556 S
N144 N145 1.398 . S
N145 C143 1.299 . S
N145 N144 1.398 . S
N146 C142 1.367 1_556 S
N146 C143 1.379 . S
H147 C150 0.980 . S
H148 C150 0.981 . S
H149 C150 0.981 . S
C150 C142 1.481 . S
C150 H147 0.980 . S
C150 H148 0.981 . S
C150 H149 0.981 . S
C151 C138 1.481 . S
C151 H152 0.980 . S
C151 H153 0.981 . S
C151 H154 0.981 . S
H152 C151 0.980 . S
H153 C151 0.981 . S
H154 C151 0.981 . S
O155 Zn131 2.066 1_556 S
O155 C134 1.256 . S
O156 Zn128 2.053 1_556 S
O156 C134 1.244 . S
C157 O135 1.259 . S
C157 O136 1.255 . S
O158 Zn128 2.066 . S
O158 C130 1.256 . S
O159 C130 1.244 . S
O159 Zn131 2.053 . S
Zn160 O161 2.055 . S
Zn160 O168 2.046 . S
Zn160 N176 2.036 1_554 S
Zn160 O188 2.053 1_554 S
Zn160 O190 2.066 . S
O161 Zn160 2.055 . S
O161 C164 1.259 . S
C162 O190 1.256 . S
C162 O191 1.244 . S
Zn163 O165 2.046 . S
Zn163 O167 2.055 . S
Zn163 N169 2.036 . S
Zn163 O187 2.066 1_554 S
Zn163 O191 2.053 . S
C164 O161 1.259 . S
C164 O165 1.254 . S
O165 Zn163 2.046 . S
O165 C164 1.254 . S
C166 O187 1.256 . S
C166 O188 1.244 . S
O167 Zn163 2.055 . S
O167 C189 1.259 . S
O168 Zn160 2.046 . S
O168 C189 1.255 . S
N169 Zn163 2.036 . S
N169 C170 1.298 1_554 S
N169 N172 1.398 . S
C170 N169 1.298 1_556 S
C170 N173 1.367 . S
C170 C183 1.481 . S
C171 N172 1.299 . S
C171 N173 1.379 1_554 S
N172 N169 1.398 . S
N172 C171 1.299 . S
N173 C170 1.367 . S
N173 C171 1.379 1_556 S
C174 N176 1.298 1_554 S
C174 N178 1.367 1_554 S
C174 C182 1.481 . S
C175 N177 1.299 . S
C175 N178 1.379 . S
N176 Zn160 2.036 1_556 S
N176 C174 1.298 1_556 S
N176 N177 1.398 . S
N177 C175 1.299 . S
N177 N176 1.398 . S
N178 C174 1.367 1_556 S
N178 C175 1.379 . S
H179 C182 0.980 . S
H180 C182 0.981 . S
H181 C182 0.981 . S
C182 C174 1.481 . S
C182 H179 0.980 . S
C182 H180 0.981 . S
C182 H181 0.981 . S
C183 C170 1.481 . S
C183 H184 0.980 . S
C183 H185 0.981 . S
C183 H186 0.981 . S
H184 C183 0.980 . S
H185 C183 0.981 . S
H186 C183 0.981 . S
O187 Zn163 2.066 1_556 S
O187 C166 1.256 . S
O188 Zn160 2.053 1_556 S
O188 C166 1.244 . S
C189 O167 1.259 . S
C189 O168 1.255 . S
O190 Zn160 2.066 . S
O190 C162 1.256 . S
O191 C162 1.244 . S
O191 Zn163 2.053 . S
C192 C193 1.349 . S
C192 C194 1.327 . S
C192 H217 0.950 . S
C193 C192 1.349 . S
C193 C209 1.349 1_556 S
C194 C192 1.327 . S
C194 C213 1.429 . S
C194 H218 0.950 . S
C195 C212 1.574 . S
C195 C214 1.368 1_554 S
C195 H219 0.949 . S
H196 C200 0.949 . S
C197 C198 1.349 1_554 S
C197 C199 1.327 . S
C197 H220 0.950 . S
C198 C197 1.349 1_556 S
C198 C210 1.349 . S
C199 C197 1.327 . S
C199 C215 1.429 1_554 S
C199 H221 0.950 . S
C200 H196 0.949 . S
C200 C208 1.574 . S
C200 C216 1.368 . S
H201 C209 0.950 . S
H202 C207 0.950 . S
H203 C208 0.949 . S
H204 C210 0.950 . S
H205 C211 0.950 . S
H206 C212 0.949 . S
C207 H202 0.950 . S
C207 C209 1.327 . S
C207 C213 1.429 1_554 S
C208 C200 1.574 . S
C208 H203 0.949 . S
C208 C214 1.368 . S
C209 C193 1.349 1_554 S
C209 H201 0.950 . S
C209 C207 1.327 . S
C210 C198 1.349 . S
C210 H204 0.950 . S
C210 C211 1.327 . S
C211 H205 0.950 . S
C211 C210 1.327 . S
C211 C215 1.429 . S
C212 C195 1.574 . S
C212 H206 0.949 . S
C212 C216 1.368 1_554 S
C213 C194 1.429 . S
C213 C207 1.429 1_556 S
C213 C214 1.523 . S
C214 C195 1.368 1_556 S
C214 C208 1.368 . S
C214 C213 1.523 . S
C215 C199 1.429 1_556 S
C215 C211 1.429 . S
C215 C216 1.523 . S
C216 C200 1.368 . S
C216 C212 1.368 1_556 S
C216 C215 1.523 . S
H217 C192 0.950 . S
H218 C194 0.950 . S
H219 C195 0.949 . S
H220 C197 0.950 . S
H221 C199 0.950 . S
C222 C223 1.349 . S
C222 C224 1.327 . S
C222 H247 0.950 . S
C223 C222 1.349 . S
C223 C239 1.349 1_556 S
C224 C222 1.327 . S
C224 C243 1.429 . S
C224 H248 0.950 . S
C225 C242 1.574 . S
C225 C244 1.368 1_554 S
C225 H249 0.949 . S
H226 C230 0.949 . S
C227 C228 1.349 1_554 S
C227 C229 1.327 . S
C227 H250 0.950 . S
C228 C227 1.349 1_556 S
C228 C240 1.349 . S
C229 C227 1.327 . S
C229 C245 1.429 1_554 S
C229 H251 0.950 . S
C230 H226 0.949 . S
C230 C238 1.574 . S
C230 C246 1.366 . S
H231 C239 0.950 . S
H232 C237 0.950 . S
H233 C238 0.949 . S
H234 C240 0.950 . S
H235 C241 0.950 . S
H236 C242 0.949 1_655 S
C237 H232 0.950 . S
C237 C239 1.327 . S
C237 C243 1.429 1_554 S
C238 C230 1.574 . S
C238 H233 0.949 . S
C238 C244 1.368 . S
C239 C223 1.349 1_554 S
C239 H231 0.950 . S
C239 C237 1.327 . S
C240 C228 1.349 . S
C240 H234 0.950 . S
C240 C241 1.327 . S
C241 H235 0.950 . S
C241 C240 1.327 . S
C241 C245 1.429 . S
C242 C225 1.574 . S
C242 H236 0.949 1_455 S
C242 C246 1.369 1_554 S
C243 C224 1.429 . S
C243 C237 1.429 1_556 S
C243 C244 1.523 . S
C244 C225 1.368 1_556 S
C244 C238 1.368 . S
C244 C243 1.523 . S
C245 C229 1.429 1_556 S
C245 C241 1.429 . S
C245 C246 1.525 1_655 S
C246 C230 1.366 . S
C246 C242 1.369 1_556 S
C246 C245 1.525 1_455 S
H247 C222 0.950 . S
H248 C224 0.950 . S
H249 C225 0.949 . S
H250 C227 0.950 . S
H251 C229 0.950 . S
C252 C253 1.349 . S
C252 C254 1.327 . S
C252 H277 0.950 . S
C253 C252 1.349 . S
C253 C269 1.349 1_556 S
C254 C252 1.327 . S
C254 C273 1.429 . S
C254 H278 0.950 . S
C255 C272 1.574 . S
C255 C274 1.368 1_554 S
C255 H279 0.949 . S
H256 C260 0.949 . S
C257 C258 1.349 1_554 S
C257 C259 1.327 . S
C257 H280 0.950 . S
C258 C257 1.349 1_556 S
C258 C270 1.349 . S
C259 C257 1.327 . S
C259 C275 1.429 1_554 S
C259 H281 0.950 . S
C260 H256 0.949 . S
C260 C268 1.574 . S
C260 C276 1.368 . S
H261 C269 0.950 . S
H262 C267 0.950 . S
H263 C268 0.949 . S
H264 C270 0.950 . S
H265 C271 0.950 . S
H266 C272 0.949 1_565 S
C267 H262 0.950 . S
C267 C269 1.327 . S
C267 C273 1.429 1_554 S
C268 C260 1.574 . S
C268 H263 0.949 . S
C268 C274 1.368 . S
C269 C253 1.349 1_554 S
C269 H261 0.950 . S
C269 C267 1.327 . S
C270 C258 1.349 . S
C270 H264 0.950 . S
C270 C271 1.327 . S
C271 H265 0.950 . S
C271 C270 1.327 . S
C271 C275 1.429 . S
C272 C255 1.574 . S
C272 H266 0.949 1_545 S
C272 C276 1.367 1_554 S
C273 C254 1.429 . S
C273 C267 1.429 1_556 S
C273 C274 1.523 . S
C274 C255 1.368 1_556 S
C274 C268 1.368 . S
C274 C273 1.523 . S
C275 C259 1.429 1_556 S
C275 C271 1.429 . S
C275 C276 1.525 1_565 S
C276 C260 1.368 . S
C276 C272 1.367 1_556 S
C276 C275 1.525 1_545 S
H277 C252 0.950 . S
H278 C254 0.950 . S
H279 C255 0.949 . S
H280 C257 0.950 . S
H281 C259 0.950 . S
C282 C283 1.349 1_554 S
C282 C284 1.327 . S
C282 H307 0.950 . S
C283 C282 1.349 1_556 S
C283 C299 1.349 . S
C284 C282 1.327 . S
C284 C303 1.429 1_554 S
C284 H308 0.950 . S
C285 C302 1.574 . S
C285 C304 1.368 . S
C285 H309 0.949 . S
H286 C290 0.949 . S
C287 C288 1.349 . S
C287 C289 1.327 . S
C287 H310 0.950 . S
C288 C287 1.349 . S
C288 C300 1.349 1_556 S
C289 C287 1.327 . S
C289 C305 1.429 . S
C289 H311 0.950 . S
C290 H286 0.949 . S
C290 C298 1.574 . S
C290 C306 1.368 1_554 S
H291 C299 0.950 . S
H292 C297 0.950 . S
H293 C298 0.949 . S
H294 C300 0.950 . S
H295 C301 0.950 . S
H296 C302 0.949 . S
C297 H292 0.950 . S
C297 C299 1.327 . S
C297 C303 1.429 . S
C298 C290 1.574 . S
C298 H293 0.949 . S
C298 C304 1.368 1_554 S
C299 C283 1.349 . S
C299 H291 0.950 . S
C299 C297 1.327 . S
C300 C288 1.349 1_554 S
C300 H294 0.950 . S
C300 C301 1.327 . S
C301 H295 0.950 . S
C301 C300 1.327 . S
C301 C305 1.429 1_554 S
C302 C285 1.574 . S
C302 H296 0.949 . S
C302 C306 1.368 . S
C303 C284 1.429 1_556 S
C303 C297 1.429 . S
C303 C304 1.523 . S
C304 C285 1.368 . S
C304 C298 1.368 1_556 S
C304 C303 1.523 . S
C305 C289 1.429 . S
C305 C301 1.429 1_556 S
C305 C306 1.523 . S
C306 C290 1.368 1_556 S
C306 C302 1.368 . S
C306 C305 1.523 . S
H307 C282 0.950 . S
H308 C284 0.950 . S
H309 C285 0.949 . S
H310 C287 0.950 . S
H311 C289 0.950 . S
C312 C313 1.349 1_554 S
C312 C314 1.327 . S
C312 H337 0.950 . S
C313 C312 1.349 1_556 S
C313 C329 1.349 . S
C314 C312 1.327 . S
C314 C333 1.429 1_554 S
C314 H338 0.950 . S
C315 C332 1.574 . S
C315 C334 1.368 . S
C315 H339 0.945 1_655 S
H316 C320 0.949 . S
C317 C318 1.349 . S
C317 C319 1.327 . S
C317 H340 0.950 . S
C318 C317 1.349 . S
C318 C330 1.349 1_556 S
C319 C317 1.327 . S
C319 C335 1.429 . S
C319 H341 0.950 . S
C320 H316 0.949 . S
C320 C328 1.574 . S
C320 C336 1.368 1_554 S
H321 C329 0.950 . S
H322 C327 0.950 . S
H323 C328 0.954 . S
H324 C330 0.950 . S
H325 C331 0.950 . S
H326 C332 0.949 . S
C327 H322 0.950 . S
C327 C329 1.327 . S
C327 C333 1.429 . S
C328 C320 1.574 . S
C328 H323 0.954 . S
C328 C334 1.367 1_554 S
C329 C313 1.349 . S
C329 H321 0.950 . S
C329 C327 1.327 . S
C330 C318 1.349 1_554 S
C330 H324 0.950 . S
C330 C331 1.327 . S
C331 H325 0.950 . S
C331 C330 1.327 . S
C331 C335 1.429 1_554 S
C332 C315 1.574 . S
C332 H326 0.949 . S
C332 C336 1.368 . S
C333 C314 1.429 1_556 S
C333 C327 1.429 . S
C333 C334 1.525 1_455 S
C334 C315 1.368 . S
C334 C328 1.367 1_556 S
C334 C333 1.525 1_655 S
C335 C319 1.429 . S
C335 C331 1.429 1_556 S
C335 C336 1.523 . S
C336 C320 1.368 1_556 S
C336 C332 1.368 . S
C336 C335 1.523 . S
H337 C312 0.950 . S
H338 C314 0.950 . S
H339 C315 0.945 1_455 S
H340 C317 0.950 . S
H341 C319 0.950 . S
C342 C343 1.349 1_554 S
C342 C344 1.327 . S
C342 H367 0.950 . S
C343 C342 1.349 1_556 S
C343 C359 1.349 . S
C344 C342 1.327 . S
C344 C363 1.429 1_554 S
C344 H368 0.950 . S
C345 C362 1.574 . S
C345 C364 1.368 . S
C345 H369 0.949 . S
H346 C350 0.949 1_545 S
C347 C348 1.349 . S
C347 C349 1.327 . S
C347 H370 0.950 . S
C348 C347 1.349 . S
C348 C360 1.349 1_556 S
C349 C347 1.327 . S
C349 C365 1.429 . S
C349 H371 0.950 . S
C350 H346 0.949 1_565 S
C350 C358 1.574 . S
C350 C366 1.367 1_554 S
H351 C359 0.950 . S
H352 C357 0.950 . S
H353 C358 0.949 . S
H354 C360 0.950 . S
H355 C361 0.950 . S
H356 C362 0.949 . S
C357 H352 0.950 . S
C357 C359 1.327 . S
C357 C363 1.429 . S
C358 C350 1.574 . S
C358 H353 0.949 . S
C358 C364 1.368 1_554 S
C359 C343 1.349 . S
C359 H351 0.950 . S
C359 C357 1.327 . S
C360 C348 1.349 1_554 S
C360 H354 0.950 . S
C360 C361 1.327 . S
C361 H355 0.950 . S
C361 C360 1.327 . S
C361 C365 1.429 1_554 S
C362 C345 1.574 . S
C362 H356 0.949 . S
C362 C366 1.368 . S
C363 C344 1.429 1_556 S
C363 C357 1.429 . S
C363 C364 1.523 . S
C364 C345 1.368 . S
C364 C358 1.368 1_556 S
C364 C363 1.523 . S
C365 C349 1.429 . S
C365 C361 1.429 1_556 S
C365 C366 1.525 1_545 S
C366 C350 1.367 1_556 S
C366 C362 1.368 . S
C366 C365 1.525 1_565 S
H367 C342 0.950 . S
H368 C344 0.950 . S
H369 C345 0.949 . S
H370 C347 0.950 . S
H371 C349 0.950 . S
C372 C373 1.349 . S
C372 C374 1.327 . S
C372 H397 0.950 . S
C373 C372 1.349 . S
C373 C389 1.349 1_554 S
C374 C372 1.327 . S
C374 C393 1.429 . S
C374 H398 0.950 . S
C375 C392 1.574 . S
C375 C394 1.368 1_556 S
C375 H399 0.949 . S
H376 C380 0.949 . S
C377 C378 1.349 1_556 S
C377 C379 1.327 . S
C377 H400 0.950 . S
C378 C377 1.349 1_554 S
C378 C390 1.349 . S
C379 C377 1.327 . S
C379 C395 1.429 1_556 S
C379 H401 0.950 . S
C380 H376 0.949 . S
C380 C388 1.574 . S
C380 C396 1.368 . S
H381 C389 0.950 . S
H382 C387 0.950 . S
H383 C388 0.949 . S
H384 C390 0.950 . S
H385 C391 0.950 . S
H386 C392 0.949 . S
C387 H382 0.950 . S
C387 C389 1.327 . S
C387 C393 1.429 1_556 S
C388 C380 1.574 . S
C388 H383 0.949 . S
C388 C394 1.368 . S
C389 C373 1.349 1_556 S
C389 H381 0.950 . S
C389 C387 1.327 . S
C390 C378 1.349 . S
C390 H384 0.950 . S
C390 C391 1.327 . S
C391 H385 0.950 . S
C391 C390 1.327 . S
C391 C395 1.429 . S
C392 C375 1.574 . S
C392 H386 0.949 . S
C392 C396 1.368 1_556 S
C393 C374 1.429 . S
C393 C387 1.429 1_554 S
C393 C394 1.523 . S
C394 C375 1.368 1_554 S
C394 C388 1.368 . S
C394 C393 1.523 . S
C395 C379 1.429 1_554 S
C395 C391 1.429 . S
C395 C396 1.523 . S
C396 C380 1.368 . S
C396 C392 1.368 1_554 S
C396 C395 1.523 . S
H397 C372 0.950 . S
H398 C374 0.950 . S
H399 C375 0.949 . S
H400 C377 0.950 . S
H401 C379 0.950 . S
C402 C403 1.349 . S
C402 C404 1.327 . S
C402 H427 0.950 . S
C403 C402 1.349 . S
C403 C419 1.349 1_554 S
C404 C402 1.327 . S
C404 C423 1.429 . S
C404 H428 0.950 . S
C405 C422 1.574 . S
C405 C424 1.368 1_556 S
C405 H429 0.949 . S
H406 C410 0.949 . S
C407 C408 1.349 1_556 S
C407 C409 1.327 . S
C407 H430 0.950 . S
C408 C407 1.349 1_554 S
C408 C420 1.349 . S
C409 C407 1.327 . S
C409 C425 1.429 1_556 S
C409 H431 0.950 . S
C410 H406 0.949 . S
C410 C418 1.574 . S
C410 C426 1.368 . S
H411 C419 0.950 . S
H412 C417 0.950 . S
H413 C418 0.949 . S
H414 C420 0.950 . S
H415 C421 0.950 . S
H416 C422 0.949 . S
C417 H412 0.950 . S
C417 C419 1.327 . S
C417 C423 1.429 1_556 S
C418 C410 1.574 . S
C418 H413 0.949 . S
C418 C424 1.368 . S
C419 C403 1.349 1_556 S
C419 H411 0.950 . S
C419 C417 1.327 . S
C420 C408 1.349 . S
C420 H414 0.950 . S
C420 C421 1.327 . S
C421 H415 0.950 . S
C421 C420 1.327 . S
C421 C425 1.429 . S
C422 C405 1.574 . S
C422 H416 0.949 . S
C422 C426 1.368 1_556 S
C423 C404 1.429 . S
C423 C417 1.429 1_554 S
C423 C424 1.523 . S
C424 C405 1.368 1_554 S
C424 C418 1.368 . S
C424 C423 1.523 . S
C425 C409 1.429 1_554 S
C425 C421 1.429 . S
C425 C426 1.523 . S
C426 C410 1.368 . S
C426 C422 1.368 1_554 S
C426 C425 1.523 . S
H427 C402 0.950 . S
H428 C404 0.950 . S
H429 C405 0.949 . S
H430 C407 0.950 . S
H431 C409 0.950 . S
C432 C433 1.349 1_556 S
C432 C434 1.327 . S
C432 H457 0.950 . S
C433 C432 1.349 1_554 S
C433 C449 1.349 . S
C434 C432 1.327 . S
C434 C453 1.429 1_556 S
C434 H458 0.950 . S
C435 C452 1.574 . S
C435 C454 1.368 . S
C435 H459 0.949 . S
H436 C440 0.949 . S
C437 C438 1.349 . S
C437 C439 1.327 . S
C437 H460 0.950 . S
C438 C437 1.349 . S
C438 C450 1.349 1_554 S
C439 C437 1.327 . S
C439 C455 1.429 . S
C439 H461 0.950 . S
C440 H436 0.949 . S
C440 C448 1.574 . S
C440 C456 1.368 1_556 S
H441 C449 0.950 . S
H442 C447 0.950 . S
H443 C448 0.949 . S
H444 C450 0.950 . S
H445 C451 0.950 . S
H446 C452 0.949 . S
C447 H442 0.950 . S
C447 C449 1.327 . S
C447 C453 1.429 . S
C448 C440 1.574 . S
C448 H443 0.949 . S
C448 C454 1.368 1_556 S
C449 C433 1.349 . S
C449 H441 0.950 . S
C449 C447 1.327 . S
C450 C438 1.349 1_556 S
C450 H444 0.950 . S
C450 C451 1.327 . S
C451 H445 0.950 . S
C451 C450 1.327 . S
C451 C455 1.429 1_556 S
C452 C435 1.574 . S
C452 H446 0.949 . S
C452 C456 1.368 . S
C453 C434 1.429 1_554 S
C453 C447 1.429 . S
C453 C454 1.523 . S
C454 C435 1.368 . S
C454 C448 1.368 1_554 S
C454 C453 1.523 . S
C455 C439 1.429 . S
C455 C451 1.429 1_554 S
C455 C456 1.523 . S
C456 C440 1.368 1_554 S
C456 C452 1.368 . S
C456 C455 1.523 . S
H457 C432 0.950 . S
H458 C434 0.950 . S
H459 C435 0.949 . S
H460 C437 0.950 . S
H461 C439 0.950 . S
C462 C463 1.349 1_556 S
C462 C464 1.327 . S
C462 H487 0.950 . S
C463 C462 1.349 1_554 S
C463 C479 1.349 . S
C464 C462 1.327 . S
C464 C483 1.429 1_556 S
C464 H488 0.950 . S
C465 C482 1.574 . S
C465 C484 1.368 . S
C465 H489 0.949 . S
H466 C470 0.949 . S
C467 C468 1.349 . S
C467 C469 1.327 . S
C467 H490 0.950 . S
C468 C467 1.349 . S
C468 C480 1.349 1_554 S
C469 C467 1.327 . S
C469 C485 1.429 . S
C469 H491 0.950 . S
C470 H466 0.949 . S
C470 C478 1.574 . S
C470 C486 1.368 1_556 S
H471 C479 0.950 . S
H472 C477 0.950 . S
H473 C478 0.949 . S
H474 C480 0.950 . S
H475 C481 0.950 . S
H476 C482 0.949 . S
C477 H472 0.950 . S
C477 C479 1.327 . S
C477 C483 1.429 . S
C478 C470 1.574 . S
C478 H473 0.949 . S
C478 C484 1.368 1_556 S
C479 C463 1.349 . S
C479 H471 0.950 . S
C479 C477 1.327 . S
C480 C468 1.349 1_556 S
C480 H474 0.950 . S
C480 C481 1.327 . S
C481 H475 0.950 . S
C481 C480 1.327 . S
C481 C485 1.429 1_556 S
C482 C465 1.574 . S
C482 H476 0.949 . S
C482 C486 1.368 . S
C483 C464 1.429 1_554 S
C483 C477 1.429 . S
C483 C484 1.523 . S
C484 C465 1.368 . S
C484 C478 1.368 1_554 S
C484 C483 1.523 . S
C485 C469 1.429 . S
C485 C481 1.429 1_554 S
C485 C486 1.523 . S
C486 C470 1.368 1_554 S
C486 C482 1.368 . S
C486 C485 1.523 . S
H487 C462 0.950 . S
H488 C464 0.950 . S
H489 C465 0.949 . S
H490 C467 0.950 . S
H491 C469 0.950 . S
C492 C493 1.349 1_556 S
C492 C494 1.327 . S
C492 H517 0.950 . S
C493 C492 1.349 1_554 S
C493 C509 1.349 . S
C494 C492 1.327 . S
C494 C513 1.429 1_556 S
C494 H518 0.950 . S
C495 C512 1.574 . S
C495 C514 1.368 . S
C495 H519 0.949 . S
H496 C500 0.949 . S
C497 C498 1.349 . S
C497 C499 1.327 . S
C497 H520 0.950 . S
C498 C497 1.349 . S
C498 C510 1.349 1_554 S
C499 C497 1.327 . S
C499 C515 1.429 . S
C499 H521 0.950 . S
C500 H496 0.949 . S
C500 C508 1.574 . S
C500 C516 1.368 1_556 S
H501 C509 0.950 . S
H502 C507 0.950 . S
H503 C508 0.949 . S
H504 C510 0.950 . S
H505 C511 0.950 . S
H506 C512 0.949 . S
C507 H502 0.950 . S
C507 C509 1.327 . S
C507 C513 1.429 . S
C508 C500 1.574 . S
C508 H503 0.949 . S
C508 C514 1.368 1_556 S
C509 C493 1.349 . S
C509 H501 0.950 . S
C509 C507 1.327 . S
C510 C498 1.349 1_556 S
C510 H504 0.950 . S
C510 C511 1.327 . S
C511 H505 0.950 . S
C511 C510 1.327 . S
C511 C515 1.429 1_556 S
C512 C495 1.574 . S
C512 H506 0.949 . S
C512 C516 1.368 . S
C513 C494 1.429 1_554 S
C513 C507 1.429 . S
C513 C514 1.523 . S
C514 C495 1.368 . S
C514 C508 1.368 1_554 S
C514 C513 1.523 . S
C515 C499 1.429 . S
C515 C511 1.429 1_554 S
C515 C516 1.523 . S
C516 C500 1.368 1_554 S
C516 C512 1.368 . S
C516 C515 1.523 . S
H517 C492 0.950 . S
H518 C494 0.950 . S
H519 C495 0.949 . S
H520 C497 0.950 . S
H521 C499 0.950 . S
C522 C523 1.349 . S
C522 C524 1.327 . S
C522 H547 0.950 . S
C523 C522 1.349 . S
C523 C539 1.349 1_554 S
C524 C522 1.327 . S
C524 C543 1.429 . S
C524 H548 0.950 . S
C525 C542 1.574 . S
C525 C544 1.368 1_556 S
C525 H549 0.949 . S
H526 C530 0.949 . S
C527 C528 1.349 1_556 S
C527 C529 1.327 . S
C527 H550 0.950 . S
C528 C527 1.349 1_554 S
C528 C540 1.349 . S
C529 C527 1.327 . S
C529 C545 1.429 1_556 S
C529 H551 0.950 . S
C530 H526 0.949 . S
C530 C538 1.574 . S
C530 C546 1.368 . S
H531 C539 0.950 . S
H532 C537 0.950 . S
H533 C538 0.949 . S
H534 C540 0.950 . S
H535 C541 0.950 . S
H536 C542 0.949 . S
C537 H532 0.950 . S
C537 C539 1.327 . S
C537 C543 1.429 1_556 S
C538 C530 1.574 . S
C538 H533 0.949 . S
C538 C544 1.368 . S
C539 C523 1.349 1_556 S
C539 H531 0.950 . S
C539 C537 1.327 . S
C540 C528 1.349 . S
C540 H534 0.950 . S
C540 C541 1.327 . S
C541 H535 0.950 . S
C541 C540 1.327 . S
C541 C545 1.429 . S
C542 C525 1.574 . S
C542 H536 0.949 . S
C542 C546 1.368 1_556 S
C543 C524 1.429 . S
C543 C537 1.429 1_554 S
C543 C544 1.523 . S
C544 C525 1.368 1_554 S
C544 C538 1.368 . S
C544 C543 1.523 . S
C545 C529 1.429 1_554 S
C545 C541 1.429 . S
C545 C546 1.523 . S
C546 C530 1.368 . S
C546 C542 1.368 1_554 S
C546 C545 1.523 . S
H547 C522 0.950 . S
H548 C524 0.950 . S
H549 C525 0.949 . S
H550 C527 0.950 . S
H551 C529 0.950 . S
C552 C553 1.349 . S
C552 C554 1.327 . S
C552 H577 0.950 . S
C553 C552 1.349 . S
C553 C569 1.349 . S
C554 C552 1.327 . S
C554 C573 1.429 . S
C554 H578 0.950 . S
C555 C572 1.574 . S
C555 C574 1.368 . S
C555 H579 0.949 . S
H556 C560 0.949 . S
C557 C558 1.349 . S
C557 C559 1.327 . S
C557 H580 0.950 . S
C558 C557 1.349 . S
C558 C570 1.349 . S
C559 C557 1.327 . S
C559 C575 1.429 . S
C559 H581 0.950 . S
C560 H556 0.949 . S
C560 C568 1.574 . S
C560 C576 1.368 . S
H561 C569 0.950 . S
H562 C567 0.950 . S
H563 C568 0.949 . S
H564 C570 0.950 . S
H565 C571 0.950 . S
H566 C572 0.949 . S
C567 H562 0.950 . S
C567 C569 1.327 . S
C567 C573 1.429 . S
C568 C560 1.574 . S
C568 H563 0.949 . S
C568 C574 1.368 . S
C569 C553 1.349 . S
C569 H561 0.950 . S
C569 C567 1.327 . S
C570 C558 1.349 . S
C570 H564 0.950 . S
C570 C571 1.327 . S
C571 H565 0.950 . S
C571 C570 1.327 . S
C571 C575 1.429 . S
C572 C555 1.574 . S
C572 H566 0.949 . S
C572 C576 1.368 . S
C573 C554 1.429 . S
C573 C567 1.429 . S
C573 C574 1.523 . S
C574 C555 1.368 . S
C574 C568 1.368 . S
C574 C573 1.523 . S
C575 C559 1.429 . S
C575 C571 1.429 . S
C575 C576 1.523 . S
C576 C560 1.368 . S
C576 C572 1.368 . S
C576 C575 1.523 . S
H577 C552 0.950 . S
H578 C554 0.950 . S
H579 C555 0.949 . S
H580 C557 0.950 . S
H581 C559 0.950 . S
C582 C583 1.349 . S
C582 C584 1.327 . S
C582 H607 0.950 . S
C583 C582 1.349 . S
C583 C599 1.349 . S
C584 C582 1.327 . S
C584 C603 1.429 . S
C584 H608 0.950 . S
C585 C602 1.574 . S
C585 C604 1.368 . S
C585 H609 0.949 . S
H586 C590 0.949 . S
C587 C588 1.349 . S
C587 C589 1.327 . S
C587 H610 0.950 . S
C588 C587 1.349 . S
C588 C600 1.349 . S
C589 C587 1.327 . S
C589 C605 1.429 . S
C589 H611 0.950 . S
C590 H586 0.949 . S
C590 C598 1.574 . S
C590 C606 1.368 . S
H591 C599 0.950 . S
H592 C597 0.950 . S
H593 C598 0.949 . S
H594 C600 0.950 . S
H595 C601 0.950 . S
H596 C602 0.949 . S
C597 H592 0.950 . S
C597 C599 1.327 . S
C597 C603 1.429 . S
C598 C590 1.574 . S
C598 H593 0.949 . S
C598 C604 1.368 . S
C599 C583 1.349 . S
C599 H591 0.950 . S
C599 C597 1.327 . S
C600 C588 1.349 . S
C600 H594 0.950 . S
C600 C601 1.327 . S
C601 H595 0.950 . S
C601 C600 1.327 . S
C601 C605 1.429 . S
C602 C585 1.574 . S
C602 H596 0.949 . S
C602 C606 1.368 . S
C603 C584 1.429 . S
C603 C597 1.429 . S
C603 C604 1.523 . S
C604 C585 1.368 . S
C604 C598 1.368 . S
C604 C603 1.523 . S
C605 C589 1.429 . S
C605 C601 1.429 . S
C605 C606 1.523 . S
C606 C590 1.368 . S
C606 C602 1.368 . S
C606 C605 1.523 . S
H607 C582 0.950 . S
H608 C584 0.950 . S
H609 C585 0.949 . S
H610 C587 0.950 . S
H611 C589 0.950 . S
C612 C613 1.349 . S
C612 C614 1.327 . S
C612 H637 0.950 . S
C613 C612 1.349 . S
C613 C629 1.349 . S
C614 C612 1.327 . S
C614 C633 1.429 . S
C614 H638 0.950 . S
C615 C632 1.574 . S
C615 C634 1.368 . S
C615 H639 0.949 . S
H616 C620 0.949 . S
C617 C618 1.349 . S
C617 C619 1.327 . S
C617 H640 0.950 . S
C618 C617 1.349 . S
C618 C630 1.349 . S
C619 C617 1.327 . S
C619 C635 1.429 . S
C619 H641 0.950 . S
C620 H616 0.949 . S
C620 C628 1.574 . S
C620 C636 1.368 . S
H621 C629 0.950 . S
H622 C627 0.950 . S
H623 C628 0.949 . S
H624 C630 0.950 . S
H625 C631 0.950 . S
H626 C632 0.949 . S
C627 H622 0.950 . S
C627 C629 1.327 . S
C627 C633 1.429 . S
C628 C620 1.574 . S
C628 H623 0.949 . S
C628 C634 1.368 . S
C629 C613 1.349 . S
C629 H621 0.950 . S
C629 C627 1.327 . S
C630 C618 1.349 . S
C630 H624 0.950 . S
C630 C631 1.327 . S
C631 H625 0.950 . S
C631 C630 1.327 . S
C631 C635 1.429 . S
C632 C615 1.574 . S
C632 H626 0.949 . S
C632 C636 1.368 . S
C633 C614 1.429 . S
C633 C627 1.429 . S
C633 C634 1.523 . S
C634 C615 1.368 . S
C634 C628 1.368 . S
C634 C633 1.523 . S
C635 C619 1.429 . S
C635 C631 1.429 . S
C635 C636 1.523 . S
C636 C620 1.368 . S
C636 C632 1.368 . S
C636 C635 1.523 . S
H637 C612 0.950 . S
H638 C614 0.950 . S
H639 C615 0.949 . S
H640 C617 0.950 . S
H641 C619 0.950 . S
C642 C643 1.349 . S
C642 C644 1.327 . S
C642 H667 0.950 . S
C643 C642 1.349 . S
C643 C659 1.349 . S
C644 C642 1.327 . S
C644 C663 1.429 . S
C644 H668 0.950 . S
C645 C662 1.574 . S
C645 C664 1.368 . S
C645 H669 0.949 . S
H646 C650 0.949 . S
C647 C648 1.349 . S
C647 C649 1.327 . S
C647 H670 0.950 . S
C648 C647 1.349 . S
C648 C660 1.349 . S
C649 C647 1.327 . S
C649 C665 1.429 . S
C649 H671 0.950 . S
C650 H646 0.949 . S
C650 C658 1.574 . S
C650 C666 1.368 . S
H651 C659 0.950 . S
H652 C657 0.950 . S
H653 C658 0.949 . S
H654 C660 0.950 . S
H655 C661 0.950 . S
H656 C662 0.949 . S
C657 H652 0.950 . S
C657 C659 1.327 . S
C657 C663 1.429 . S
C658 C650 1.574 . S
C658 H653 0.949 . S
C658 C664 1.368 . S
C659 C643 1.349 . S
C659 H651 0.950 . S
C659 C657 1.327 . S
C660 C648 1.349 . S
C660 H654 0.950 . S
C660 C661 1.327 . S
C661 H655 0.950 . S
C661 C660 1.327 . S
C661 C665 1.429 . S
C662 C645 1.574 . S
C662 H656 0.949 . S
C662 C666 1.368 . S
C663 C644 1.429 . S
C663 C657 1.429 . S
C663 C664 1.523 . S
C664 C645 1.368 . S
C664 C658 1.368 . S
C664 C663 1.523 . S
C665 C649 1.429 . S
C665 C661 1.429 . S
C665 C666 1.523 . S
C666 C650 1.368 . S
C666 C662 1.368 . S
C666 C665 1.523 . S
H667 C642 0.950 . S
H668 C644 0.950 . S
H669 C645 0.949 . S
H670 C647 0.950 . S
H671 C649 0.950 . S
C672 C673 1.349 . S
C672 C674 1.327 . S
C672 H697 0.950 . S
C673 C672 1.349 . S
C673 C689 1.349 . S
C674 C672 1.327 . S
C674 C693 1.429 . S
C674 H698 0.950 . S
C675 C692 1.574 . S
C675 C694 1.368 . S
C675 H699 0.949 . S
H676 C680 0.949 . S
C677 C678 1.349 . S
C677 C679 1.327 . S
C677 H700 0.950 . S
C678 C677 1.349 . S
C678 C690 1.349 . S
C679 C677 1.327 . S
C679 C695 1.429 . S
C679 H701 0.950 . S
C680 H676 0.949 . S
C680 C688 1.574 . S
C680 C696 1.368 . S
H681 C689 0.950 . S
H682 C687 0.950 . S
H683 C688 0.949 . S
H684 C690 0.950 . S
H685 C691 0.950 . S
H686 C692 0.949 . S
C687 H682 0.950 . S
C687 C689 1.327 . S
C687 C693 1.429 . S
C688 C680 1.574 . S
C688 H683 0.949 . S
C688 C694 1.368 . S
C689 C673 1.349 . S
C689 H681 0.950 . S
C689 C687 1.327 . S
C690 C678 1.349 . S
C690 H684 0.950 . S
C690 C691 1.327 . S
C691 H685 0.950 . S
C691 C690 1.327 . S
C691 C695 1.429 . S
C692 C675 1.574 . S
C692 H686 0.949 . S
C692 C696 1.368 . S
C693 C674 1.429 . S
C693 C687 1.429 . S
C693 C694 1.523 . S
C694 C675 1.368 . S
C694 C688 1.368 . S
C694 C693 1.523 . S
C695 C679 1.429 . S
C695 C691 1.429 . S
C695 C696 1.523 . S
C696 C680 1.368 . S
C696 C692 1.368 . S
C696 C695 1.523 . S
H697 C672 0.950 . S
H698 C674 0.950 . S
H699 C675 0.949 . S
H700 C677 0.950 . S
H701 C679 0.950 . S
C702 C703 1.349 . S
C702 C704 1.327 . S
C702 H727 0.950 . S
C703 C702 1.349 . S
C703 C719 1.349 . S
C704 C702 1.327 . S
C704 C723 1.429 . S
C704 H728 0.950 . S
C705 C722 1.574 . S
C705 C724 1.368 . S
C705 H729 0.949 . S
H706 C710 0.949 . S
C707 C708 1.349 . S
C707 C709 1.327 . S
C707 H730 0.950 . S
C708 C707 1.349 . S
C708 C720 1.349 . S
C709 C707 1.327 . S
C709 C725 1.429 . S
C709 H731 0.950 . S
C710 H706 0.949 . S
C710 C718 1.574 . S
C710 C726 1.368 . S
H711 C719 0.950 . S
H712 C717 0.950 . S
H713 C718 0.949 . S
H714 C720 0.950 . S
H715 C721 0.950 . S
H716 C722 0.949 . S
C717 H712 0.950 . S
C717 C719 1.327 . S
C717 C723 1.429 . S
C718 C710 1.574 . S
C718 H713 0.949 . S
C718 C724 1.368 . S
C719 C703 1.349 . S
C719 H711 0.950 . S
C719 C717 1.327 . S
C720 C708 1.349 . S
C720 H714 0.950 . S
C720 C721 1.327 . S
C721 H715 0.950 . S
C721 C720 1.327 . S
C721 C725 1.429 . S
C722 C705 1.574 . S
C722 H716 0.949 . S
C722 C726 1.368 . S
C723 C704 1.429 . S
C723 C717 1.429 . S
C723 C724 1.523 . S
C724 C705 1.368 . S
C724 C718 1.368 . S
C724 C723 1.523 . S
C725 C709 1.429 . S
C725 C721 1.429 . S
C725 C726 1.523 . S
C726 C710 1.368 . S
C726 C722 1.368 . S
C726 C725 1.523 . S
H727 C702 0.950 . S
H728 C704 0.950 . S
H729 C705 0.949 . S
H730 C707 0.950 . S
H731 C709 0.950 . S
C193 C189 1.360 1_556 S
C198 N13 1.272 . S
C223 C29 1.360 1_556 S
C228 N45 1.272 . S
C253 C61 1.360 1_556 S
C258 N77 1.272 . S
C283 N109 1.272 . S
C288 C93 1.360 1_556 S
C313 N141 1.272 . S
C318 C125 1.360 1_556 S
C343 C157 1.360 1_556 S
C348 N173 1.272 . S
C373 C130 1.531 . S
C378 N18 1.524 1_554 S
C403 C162 1.530 . S
C408 N50 1.524 1_554 S
C433 N82 1.524 1_554 S
C438 C2 1.531 . S
C463 N114 1.524 1_554 S
C468 C34 1.530 . S
C493 N146 1.524 1_554 S
C498 C66 1.531 . S
C523 C98 1.531 . S
C528 N178 1.524 1_554 S
C553 C6 1.514 . S
C558 C4 1.505 . S
C583 C38 1.514 . S
C588 C36 1.505 . S
C613 C70 1.514 . S
C618 C68 1.505 . S
C643 C102 1.514 . S
C648 C100 1.505 . S
C673 C132 1.505 . S
C678 C134 1.514 . S
C703 C166 1.514 . S
C708 C164 1.505 . S
