# Generated by pormake.
# Topology zfu, (5)-cn, num edge types: 1
# Building blocks:
#     Node 0, Type 0, BuildingBlock: BEQFEK_clean_sbu_0, # of connection points: 5
#     Node 1, Type 0, BuildingBlock: BEQFEK_clean_sbu_0, # of connection points: 5
#     Node 2, Type 0, BuildingBlock: BEQFEK_clean_sbu_0, # of connection points: 5
#     Node 3, Type 0, BuildingBlock: BEQFEK_clean_sbu_0, # of connection points: 5
#     Node 4, Type 0, BuildingBlock: BEQFEK_clean_sbu_0, # of connection points: 5
#     Node 5, Type 0, BuildingBlock: BEQFEK_clean_sbu_0, # of connection points: 5
#     Node 6, Type 0, BuildingBlock: BEQFEK_clean_sbu_0, # of connection points: 5
#     Node 7, Type 0, BuildingBlock: BEQFEK_clean_sbu_0, # of connection points: 5
#     Edge 8, Type (0, 0), BuildingBlock: KIFKEQ_clean_linker_1, # of connection points: 2
#     Edge 9, Type (0, 0), BuildingBlock: KIFKEQ_clean_linker_1, # of connection points: 2
#     Edge 10, Type (0, 0), BuildingBlock: KIFKEQ_clean_linker_1, # of connection points: 2
#     Edge 11, Type (0, 0), BuildingBlock: KIFKEQ_clean_linker_1, # of connection points: 2
#     Edge 12, Type (0, 0), BuildingBlock: KIFKEQ_clean_linker_1, # of connection points: 2
#     Edge 13, Type (0, 0), BuildingBlock: KIFKEQ_clean_linker_1, # of connection points: 2
#     Edge 14, Type (0, 0), BuildingBlock: KIFKEQ_clean_linker_1, # of connection points: 2
#     Edge 15, Type (0, 0), BuildingBlock: KIFKEQ_clean_linker_1, # of connection points: 2
#     Edge 16, Type (0, 0), BuildingBlock: KIFKEQ_clean_linker_1, # of connection points: 2
#     Edge 17, Type (0, 0), BuildingBlock: KIFKEQ_clean_linker_1, # of connection points: 2
#     Edge 18, Type (0, 0), BuildingBlock: KIFKEQ_clean_linker_1, # of connection points: 2
#     Edge 19, Type (0, 0), BuildingBlock: KIFKEQ_clean_linker_1, # of connection points: 2
#     Edge 20, Type (0, 0), BuildingBlock: KIFKEQ_clean_linker_1, # of connection points: 2
#     Edge 21, Type (0, 0), BuildingBlock: KIFKEQ_clean_linker_1, # of connection points: 2
#     Edge 22, Type (0, 0), BuildingBlock: KIFKEQ_clean_linker_1, # of connection points: 2
#     Edge 23, Type (0, 0), BuildingBlock: KIFKEQ_clean_linker_1, # of connection points: 2
#     Edge 24, Type (0, 0), BuildingBlock: KIFKEQ_clean_linker_1, # of connection points: 2
#     Edge 25, Type (0, 0), BuildingBlock: KIFKEQ_clean_linker_1, # of connection points: 2
#     Edge 26, Type (0, 0), BuildingBlock: KIFKEQ_clean_linker_1, # of connection points: 2
#     Edge 27, Type (0, 0), BuildingBlock: KIFKEQ_clean_linker_1, # of connection points: 2
# Relax obj value: 0.066
# Max RMSD: 0.102
# Mean RMSD: 0.102
data_MOF--net-zfu--node1-BEQFEK_clean_sbu_0--edge1-KIFKEQ_clean_linker_1
_symmetry_space_group_name_H-M    P1
_symmetry_Int_Tables_number       1
_symmetry_cell_setting            triclinic
loop_
_symmetry_equiv_pos_as_xyz
'x, y, z'
_cell_length_a     42.040371
_cell_length_b     42.046487
_cell_length_c     27.125864
_cell_angle_alpha  89.903962
_cell_angle_beta   89.888705
_cell_angle_gamma 90.033101
loop_
_atom_site_label
_atom_site_type_symbol
_atom_site_fract_x
_atom_site_fract_y
_atom_site_fract_z
_atom_type_partial_charge
Co0 Co 0.44914 0.707 0.06284 0.0
Co1 Co 0.40543 0.76735 0.05607 0.0
C2 C 0.47399 0.77303 0.08261 0.0
O3 O 0.47764 0.74318 0.07744 0.0
O4 O 0.44702 0.78616 0.07603 0.0
C5 C 0.49941 0.66666 0.02876 0.0
O6 O 0.50398 0.68974 0.99681 0.0
C7 C 0.38073 0.82854 0.01832 0.0
C8 C 0.32911 0.82184 0.0298 0.0
C9 C 0.35134 0.84248 0.00973 0.0
N10 N 0.37595 0.80069 0.04181 0.0
N11 N 0.3451 0.7972 0.04943 0.0
C12 C 0.41233 0.83942 0.99928 0.0
H13 H 0.42871 0.81892 0.99504 0.0
H14 H 0.40963 0.85191 0.96345 0.0
H15 H 0.42285 0.85631 0.0261 0.0
C16 C 0.42021 0.69433 0.96552 0.0
N17 N 0.42586 0.71346 1.00432 0.0
N18 N 0.40897 0.73967 0.99984 0.0
C19 C 0.39295 0.73848 0.95675 0.0
C20 C 0.39928 0.70959 0.93375 0.0
C21 C 0.43077 0.66036 0.96282 0.0
H22 H 0.43323 0.65027 1.00038 0.0
H23 H 0.45417 0.6592 0.94395 0.0
H24 H 0.41356 0.64568 0.94183 0.0
O25 O 0.41911 0.70084 0.1174 0.0
O26 O 0.38745 0.74305 0.1135 0.0
H27 H 0.34974 0.76525 0.95942 0.0
H28 H 0.36634 0.76131 0.89819 0.0
C29 C 0.37211 0.76458 0.93772 0.0
H30 H 0.38448 0.78764 0.94173 0.0
H31 H 0.33484 0.77725 0.06597 0.0
O32 O 0.47669 0.6688 0.05954 0.0
C33 C 0.39555 0.71678 0.13348 0.0
Co34 Co 0.80325 0.94711 0.30753 0.0
Co35 Co 0.742 0.9042 0.30756 0.0
C36 C 0.73941 0.97365 0.33354 0.0
O37 O 0.76913 0.97635 0.32641 0.0
O38 O 0.72536 0.94715 0.32705 0.0
C39 C 0.83819 1.0003 0.27559 0.0
O40 O 0.80981 0.00803 0.25929 0.0
C41 C 0.68264 0.8828 0.26245 0.0
C42 C 0.67109 0.8395 0.30507 0.0
C43 C 0.66047 0.85855 0.26676 0.0
N44 N 0.70551 0.87815 0.29628 0.0
N45 N 0.69842 0.85228 0.32179 0.0
C46 C 0.68105 0.91117 0.22914 0.0
H47 H 0.70008 0.92848 0.23823 0.0
H48 H 0.68385 0.90368 0.19024 0.0
H49 H 0.65739 0.92265 0.23267 0.0
C50 C 0.81121 0.91812 0.20957 0.0
N51 N 0.79354 0.92377 0.25007 0.0
N52 N 0.76843 0.90501 0.24991 0.0
C53 C 0.76971 0.88644 0.2093 0.0
C54 C 0.79666 0.89441 0.18229 0.0
C55 C 0.84256 0.93365 0.19912 0.0
H56 H 0.83892 0.9596 0.19479 0.0
H57 H 0.85372 0.92443 0.16494 0.0
H58 H 0.85883 0.92979 0.23073 0.0
O59 O 0.81004 0.91754 0.36316 0.0
O60 O 0.76715 0.88634 0.36375 0.0
H61 H 0.7606 0.84061 0.17599 0.0
H62 H 0.72658 0.86601 0.18237 0.0
C63 C 0.74882 0.85816 0.20049 0.0
H64 H 0.74276 0.84647 0.23592 0.0
H65 H 0.71222 0.84335 0.35057 0.0
O66 O 0.84178 0.97382 0.29762 0.0
C67 C 0.79397 0.89467 0.38163 0.0
Co68 Co 0.56248 0.30323 0.55982 0.0
Co69 Co 0.60161 0.2398 0.55937 0.0
C70 C 0.53305 0.24076 0.58904 0.0
O71 O 0.53227 0.27057 0.58153 0.0
O72 O 0.55838 0.22489 0.58134 0.0
C73 C 0.5118 0.3421 0.52737 0.0
O74 O 0.50394 0.31598 0.50381 0.0
C75 C 0.62208 0.17742 0.52051 0.0
C76 C 0.67069 0.17412 0.55075 0.0
C77 C 0.64918 0.15834 0.52072 0.0
N78 N 0.62777 0.20331 0.54833 0.0
N79 N 0.65676 0.20099 0.56663 0.0
C80 C 0.59095 0.17107 0.49569 0.0
H81 H 0.57149 0.18426 0.51413 0.0
H82 H 0.59214 0.1793 0.45687 0.0
H83 H 0.58554 0.14523 0.496 0.0
C84 C 0.58991 0.30899 0.46039 0.0
N85 N 0.58371 0.29189 0.50129 0.0
N86 N 0.60057 0.2655 0.50056 0.0
C87 C 0.6181 0.26511 0.4587 0.0
C88 C 0.6117 0.29252 0.43186 0.0
C89 C 0.57742 0.34181 0.45118 0.0
H90 H 0.55156 0.3404 0.44367 0.0
H91 H 0.5891 0.3533 0.41907 0.0
H92 H 0.58093 0.35667 0.48448 0.0
O93 O 0.594 0.31012 0.61183 0.0
O94 O 0.62145 0.26498 0.61424 0.0
H95 H 0.65896 0.24934 0.41642 0.0
H96 H 0.63337 0.21833 0.43926 0.0
C97 C 0.64404 0.24171 0.44809 0.0
H98 H 0.65933 0.23891 0.48105 0.0
H99 H 0.66727 0.21807 0.58922 0.0
O100 O 0.53722 0.34259 0.55259 0.0
C101 C 0.61596 0.29299 0.6302 0.0
Co102 Co 0.20018 0.06351 0.81221 0.0
Co103 Co 0.26287 0.10401 0.80913 0.0
C104 C 0.26486 0.03625 0.83858 0.0
O105 O 0.23486 0.03522 0.83308 0.0
O106 O 0.28038 0.06163 0.82948 0.0
C107 C 0.16636 0.0097 0.78093 0.0
O108 O 0.19438 1.00333 0.76184 0.0
C109 C 0.32507 0.12803 0.77407 0.0
C110 C 0.31915 0.17959 0.78661 0.0
C111 C 0.33957 0.1573 0.76633 0.0
N112 N 0.29713 0.13296 0.79721 0.0
N113 N 0.29413 0.16377 0.80555 0.0
C114 C 0.33553 0.09651 0.75434 0.0
H115 H 0.31488 0.08027 0.7504 0.0
H116 H 0.34765 0.09945 0.71822 0.0
H117 H 0.35267 0.0857 0.78052 0.0
C118 C 0.19223 0.09088 0.71351 0.0
N119 N 0.20999 0.08535 0.75381 0.0
N120 N 0.23673 0.10153 0.75087 0.0
C121 C 0.23713 0.11727 0.70735 0.0
C122 C 0.20883 0.11124 0.68236 0.0
C123 C 0.15826 0.08054 0.70876 0.0
H124 H 0.14664 0.08033 0.74547 0.0
H125 H 0.15757 0.05607 0.69356 0.0
H126 H 0.14465 0.09654 0.68405 0.0
O127 O 0.19208 0.09432 0.86435 0.0
O128 O 0.23709 0.12214 0.86551 0.0
H129 H 0.26499 0.15971 0.71252 0.0
H130 H 0.26151 0.14429 0.65054 0.0
C131 C 0.26402 0.13777 0.68996 0.0
H132 H 0.28668 0.12474 0.69432 0.0
H133 H 0.2742 0.17415 0.82184 0.0
O134 O 0.16251 0.03572 0.80395 0.0
C135 C 0.20928 0.1163 0.88241 0.0
Co136 Co 0.94654 0.80208 0.75239 0.0
Co137 Co 0.90475 0.74013 0.75491 0.0
C138 C 0.97388 0.73707 0.73102 0.0
O139 O 0.97551 0.76703 0.73651 0.0
O140 O 0.9477 0.72229 0.73734 0.0
C141 C 0.99979 0.83736 0.78334 0.0
O142 O 0.00708 0.80966 0.80275 0.0
C143 C 0.88045 0.6785 0.79119 0.0
C144 C 0.82905 0.68385 0.7766 0.0
C145 C 0.85118 0.66396 0.79848 0.0
N146 N 0.8757 0.70597 0.76669 0.0
N147 N 0.84501 0.70861 0.75711 0.0
C148 C 0.9117 0.66867 0.81262 0.0
H149 H 0.92744 0.68964 0.81736 0.0
H150 H 0.90823 0.6565 0.84858 0.0
H151 H 0.92343 0.65177 0.78701 0.0
C152 C 0.91691 0.81152 0.84968 0.0
N153 N 0.92257 0.79361 0.80952 0.0
N154 N 0.90585 0.7672 0.81213 0.0
C155 C 0.88935 0.76729 0.85499 0.0
C156 C 0.89569 0.79545 0.88008 0.0
C157 C 0.92877 0.84488 0.85565 0.0
H158 H 0.929 0.85715 0.81945 0.0
H159 H 0.95348 0.84422 0.86993 0.0
H160 H 0.91374 0.85865 0.88159 0.0
O161 O 0.91833 0.8083 0.69596 0.0
O162 O 0.88795 0.76494 0.69686 0.0
H163 H 0.84694 0.73958 0.84776 0.0
H164 H 0.86033 0.74406 0.91067 0.0
C165 C 0.86813 0.74084 0.87195 0.0
H166 H 0.88114 0.71805 0.86959 0.0
H167 H 0.83475 0.7282 0.73965 0.0
O168 O 0.97362 0.84031 0.76045 0.0
C169 C 0.89606 0.79153 0.67777 0.0
Co170 Co 0.70283 0.44345 1.00503 0.0
Co171 Co 0.76622 0.40412 1.00514 0.0
C172 C 0.76579 0.47331 0.97966 0.0
O173 O 0.7359 0.4741 0.98632 0.0
O174 O 0.78139 0.44772 0.98631 0.0
C175 C 0.66362 0.49308 0.04105 0.0
O176 O 0.68887 0.49872 0.06814 0.0
C177 C 0.82774 0.38481 0.0459 0.0
C178 C 0.83606 0.33847 0.00989 0.0
C179 C 0.84893 0.35963 0.04348 0.0
N180 N 0.80324 0.37869 0.01557 0.0
N181 N 0.80849 0.35107 0.99381 0.0
C182 C 0.8313 0.4149 0.07478 0.0
H183 H 0.80894 0.4289 0.07394 0.0
H184 H 0.83783 0.40962 0.1135 0.0
H185 H 0.85082 0.42927 0.05848 0.0
C186 C 0.69604 0.41395 0.10328 0.0
N187 N 0.71328 0.42054 0.06263 0.0
N188 N 0.73972 0.40374 0.06323 0.0
C189 C 0.74004 0.38585 0.10472 0.0
C190 C 0.71245 0.39191 0.13155 0.0
C191 C 0.6626 0.42507 0.11131 0.0
H192 H 0.64976 0.42606 0.07569 0.0
H193 H 0.66308 0.4493 0.12738 0.0
H194 H 0.64946 0.40912 0.13684 0.0
O195 O 0.69681 0.41332 0.95071 0.0
O196 O 0.74178 0.38551 0.9485 0.0
H197 H 0.77026 0.34661 0.08601 0.0
H198 H 0.75983 0.34836 0.15073 0.0
C199 C 0.76574 0.36266 0.11764 0.0
H200 H 0.78784 0.37591 0.12573 0.0
H201 H 0.79306 0.34063 0.96847 0.0
O202 O 0.66364 0.46924 0.0123 0.0
C203 C 0.71408 0.39165 0.93174 0.0
Co204 Co 0.05812 0.20761 0.25706 0.0
Co205 Co 0.10233 0.26793 0.25882 0.0
C206 C 0.0334 0.27235 0.23123 0.0
O207 O 0.02927 0.24284 0.23933 0.0
O208 O 0.06055 0.28528 0.23669 0.0
C209 C 0.01416 0.16062 0.2293 0.0
O210 O 0.01668 0.17612 0.18736 0.0
C211 C 0.12613 0.33039 0.29392 0.0
C212 C 0.17679 0.32721 0.27284 0.0
C213 C 0.15496 0.34659 0.29662 0.0
N214 N 0.13104 0.30251 0.27059 0.0
N215 N 0.16131 0.301 0.2577 0.0
C216 C 0.09439 0.34123 0.3125 0.0
H217 H 0.07495 0.33063 0.2906 0.0
H218 H 0.09133 0.33346 0.35131 0.0
H219 H 0.09255 0.36755 0.31091 0.0
C220 C 0.0865 0.19799 0.35474 0.0
N221 N 0.08125 0.21622 0.31477 0.0
N222 N 0.09918 0.24183 0.31682 0.0
C223 C 0.11606 0.24097 0.35914 0.0
C224 C 0.10874 0.21306 0.38452 0.0
C225 C 0.07399 0.16477 0.35995 0.0
H226 H 0.0756 0.15236 0.32399 0.0
H227 H 0.04855 0.16576 0.37079 0.0
H228 H 0.08737 0.15082 0.38771 0.0
O229 O 0.08819 0.19982 0.20262 0.0
O230 O 0.12018 0.24198 0.20341 0.0
H231 H 0.1601 0.26568 0.34913 0.0
H232 H 0.14747 0.26267 0.41287 0.0
C233 C 0.13932 0.26604 0.37438 0.0
H234 H 0.1279 0.28966 0.37179 0.0
H235 H 0.17155 0.28174 0.23938 0.0
O236 O 0.03072 0.16968 0.26581 0.0
C237 C 0.1118 0.21526 0.18527 0.0
Co238 Co 0.30705 0.56394 0.50223 0.0
Co239 Co 0.24412 0.60365 0.50887 0.0
C240 C 0.24263 0.53635 0.4765 0.0
O241 O 0.27265 0.53523 0.48171 0.0
O242 O 0.22717 0.5616 0.48645 0.0
C243 C 0.34642 0.51397 0.53694 0.0
O244 O 0.32255 0.50961 0.56755 0.0
C245 C 0.18164 0.62521 0.54612 0.0
C246 C 0.18664 0.67726 0.53797 0.0
C247 C 0.16666 0.65385 0.55629 0.0
N248 N 0.20944 0.63151 0.52332 0.0
N249 N 0.21188 0.66264 0.51759 0.0
C250 C 0.17173 0.59284 0.56319 0.0
H251 H 0.19283 0.57726 0.5677 0.0
H252 H 0.15838 0.5943 0.59847 0.0
H253 H 0.1559 0.58215 0.53505 0.0
C254 C 0.31627 0.59023 0.6017 0.0
N255 N 0.29801 0.58469 0.56191 0.0
N256 N 0.27093 0.60012 0.56635 0.0
C257 C 0.27069 0.61503 0.61049 0.0
C258 C 0.29952 0.60945 0.6342 0.0
C259 C 0.3508 0.58166 0.60465 0.0
H260 H 0.3613 0.58031 0.56722 0.0
H261 H 0.35325 0.55815 0.62287 0.0
H262 H 0.36428 0.59945 0.62642 0.0
O263 O 0.3138 0.59594 0.45137 0.0
O264 O 0.2689 0.62385 0.45296 0.0
H265 H 0.24206 0.65704 0.60889 0.0
H266 H 0.24607 0.63955 0.6695 0.0
C267 C 0.24348 0.63435 0.62965 0.0
H268 H 0.22104 0.62106 0.62446 0.0
H269 H 0.23161 0.67398 0.50214 0.0
O270 O 0.34537 0.53686 0.50639 0.0
C271 C 0.29651 0.61842 0.43508 0.0
H272 H 0.61752 0.50003 0.97103 0.0
H273 H 0.6491 0.53734 0.11097 0.0
H274 H 0.57575 0.54046 0.96789 0.0
H275 H 0.60703 0.57742 0.108 0.0
H276 H 0.50734 0.62395 0.10365 0.0
H277 H 0.54509 0.5798 0.10748 0.0
H278 H 0.5778 0.60237 0.96062 0.0
H279 H 0.54038 0.64683 0.95686 0.0
C280 C 0.61528 0.51657 1.0014 0.0
C281 C 0.63664 0.5156 0.0412 0.0
C282 C 0.59151 0.53978 0.99942 0.0
C283 C 0.58828 0.56205 0.03762 0.0
C284 C 0.60892 0.5604 0.07821 0.0
C285 C 0.63304 0.53756 0.07979 0.0
C286 C 0.52244 0.61938 0.07205 0.0
C287 C 0.521 0.63893 0.03 0.0
C288 C 0.5441 0.59421 0.07438 0.0
C289 C 0.5643 0.58775 0.03438 0.0
C290 C 0.5623 0.60674 0.99183 0.0
C291 C 0.54103 0.63226 0.98981 0.0
H292 H 0.97291 0.13831 0.15994 0.0
H293 H 1.00249 0.12381 0.31083 0.0
H294 H 0.93208 0.09773 0.16999 0.0
H295 H 0.96121 0.08341 0.32102 0.0
H296 H 0.89996 0.99293 0.30616 0.0
H297 H 0.94433 0.02975 0.29363 0.0
H298 H 0.88192 0.09388 0.21549 0.0
H299 H 0.83789 0.05716 0.22735 0.0
C300 C 0.97081 0.12638 0.19521 0.0
C301 C 0.99083 0.13446 0.23469 0.0
C302 C 0.94728 0.10323 0.20103 0.0
C303 C 0.94323 0.08755 0.24642 0.0
C304 C 0.96388 0.09491 0.28549 0.0
C305 C 0.98741 0.11818 0.27972 0.0
C306 C 0.89578 0.01485 0.28618 0.0
C307 C 0.8654 0.0221 0.26773 0.0
C308 C 0.92115 0.03598 0.27921 0.0
C309 C 0.91666 0.06467 0.25342 0.0
C310 C 0.8863 0.07176 0.23484 0.0
C311 C 0.86099 0.05076 0.24193 0.0
H312 H 0.5093 0.39067 0.59383 0.0
H313 H 0.46581 0.35607 0.46002 0.0
H314 H 0.47105 0.4345 0.59637 0.0
H315 H 0.42802 0.40028 0.46222 0.0
H316 H 0.38822 0.50332 0.46178 0.0
H317 H 0.43054 0.46346 0.45847 0.0
H318 H 0.40804 0.43436 0.60714 0.0
H319 H 0.36527 0.47379 0.61031 0.0
C320 C 0.49186 0.39267 0.56465 0.0
C321 C 0.49043 0.36992 0.52679 0.0
C322 C 0.46994 0.41762 0.56628 0.0
C323 C 0.44668 0.42062 0.52953 0.0
C324 C 0.44589 0.39851 0.49082 0.0
C325 C 0.46739 0.3732 0.4897 0.0
C326 C 0.39247 0.4886 0.4939 0.0
C327 C 0.3734 0.49154 0.53627 0.0
C328 C 0.41656 0.46576 0.49187 0.0
C329 C 0.42241 0.44594 0.53252 0.0
C330 C 0.40404 0.44954 0.57544 0.0
C331 C 0.37953 0.47195 0.57714 0.0
H332 H 0.99063 0.89925 0.75488 0.0
H333 H 0.06109 0.83551 0.81563 0.0
H334 H 0.03006 0.94208 0.75328 0.0
H335 H 0.10023 0.87822 0.8141 0.0
H336 H 0.16998 0.94897 0.74648 0.0
H337 H 0.12864 0.90839 0.74763 0.0
H338 H 0.06295 0.97553 0.81191 0.0
H339 H 0.10438 0.01641 0.81067 0.0
C340 C 0.01444 0.89443 0.76814 0.0
C341 C 0.02279 0.86395 0.78516 0.0
C342 C 0.03693 0.91897 0.76738 0.0
C343 C 0.06825 0.91337 0.78315 0.0
C344 C 0.07638 0.88308 0.80102 0.0
C345 C 0.05388 0.85868 0.8022 0.0
C346 C 0.14669 0.95521 0.76058 0.0
C347 C 0.14051 0.98588 0.77873 0.0
C348 C 0.12308 0.93188 0.76153 0.0
C349 C 0.09269 0.93873 0.78029 0.0
C350 C 0.08615 0.96964 0.7971 0.0
C351 C 0.10989 0.99297 0.79654 0.0
H352 H 0.35821 0.62431 0.40778 0.0
H353 H 0.2638 0.65636 0.36927 0.0
H354 H 0.37971 0.65062 0.33557 0.0
H355 H 0.28562 0.68257 0.29549 0.0
H356 H 0.4012 0.6582 0.17488 0.0
H357 H 0.37511 0.63771 0.24792 0.0
H358 H 0.32343 0.72583 0.26401 0.0
H359 H 0.34945 0.74655 0.18943 0.0
C360 C 0.34199 0.63706 0.38389 0.0
C361 C 0.30919 0.63776 0.39383 0.0
C362 C 0.35435 0.65208 0.34234 0.0
C363 C 0.33427 0.66805 0.30925 0.0
C364 C 0.30164 0.67034 0.32034 0.0
C365 C 0.28917 0.65532 0.36243 0.0
C366 C 0.38427 0.67336 0.19371 0.0
C367 C 0.37779 0.70423 0.1766 0.0
C368 C 0.36937 0.66159 0.2358 0.0
C369 C 0.34767 0.68038 0.26227 0.0
C370 C 0.34011 0.71085 0.24435 0.0
C371 C 0.35508 0.72271 0.20182 0.0
H372 H 0.8366 0.91787 0.44724 0.0
H373 H 0.78007 0.83457 0.41576 0.0
H374 H 0.8592 0.89151 0.51839 0.0
H375 H 0.80404 0.80723 0.48634 0.0
H376 H 0.83494 0.78018 0.64604 0.0
H377 H 0.80846 0.80412 0.57453 0.0
H378 H 0.89616 0.85181 0.53552 0.0
H379 H 0.92168 0.8294 0.60754 0.0
C380 C 0.82925 0.8937 0.45526 0.0
C381 C 0.80682 0.87818 0.42552 0.0
C382 C 0.84238 0.87844 0.49601 0.0
C383 C 0.83401 0.84692 0.50773 0.0
C384 C 0.81098 0.83153 0.47859 0.0
C385 C 0.79736 0.84711 0.43802 0.0
C386 C 0.84841 0.79575 0.62193 0.0
C387 C 0.88018 0.80336 0.63277 0.0
C388 C 0.83334 0.80936 0.58087 0.0
C389 C 0.84996 0.83044 0.54964 0.0
C390 C 0.8822 0.83663 0.55952 0.0
C391 C 0.89697 0.82358 0.60074 0.0
H392 H 0.74505 0.3487 0.87161 0.0
H393 H 0.65419 0.39462 0.89444 0.0
H394 H 0.72402 0.32318 0.79712 0.0
H395 H 0.63348 0.36906 0.82137 0.0
H396 H 0.6176 0.35441 0.66095 0.0
H397 H 0.64367 0.37605 0.73304 0.0
H398 H 0.68244 0.28352 0.76708 0.0
H399 H 0.65648 0.26158 0.69361 0.0
C400 C 0.72062 0.35315 0.86106 0.0
C401 C 0.70147 0.37407 0.88865 0.0
C402 C 0.70859 0.33847 0.81856 0.0
C403 C 0.67728 0.34456 0.80299 0.0
C404 C 0.65793 0.36449 0.83171 0.0
C405 C 0.66984 0.37907 0.87382 0.0
C406 C 0.63177 0.33855 0.68349 0.0
C407 C 0.63453 0.30611 0.67187 0.0
C408 C 0.64665 0.35099 0.72499 0.0
C409 C 0.66459 0.33136 0.75626 0.0
C410 C 0.66871 0.29919 0.74362 0.0
C411 C 0.65378 0.28665 0.7017 0.0
H412 H 0.24146 0.15499 0.94748 0.0
H413 H 0.14782 0.1189 0.91301 0.0
H414 H 0.21987 0.18037 0.02175 0.0
H415 H 0.12646 0.14453 0.98576 0.0
H416 H 0.1576 0.24387 0.12743 0.0
H417 H 0.18276 0.2222 0.05315 0.0
H418 H 0.13073 0.1345 0.07326 0.0
H419 H 0.1053 0.15608 0.14609 0.0
C420 C 0.21629 0.1528 0.95537 0.0
C421 C 0.19647 0.13451 0.92474 0.0
C422 C 0.20393 0.16738 0.99779 0.0
C423 C 0.17157 0.16395 0.01012 0.0
C424 C 0.15165 0.14691 0.97811 0.0
C425 C 0.16393 0.13232 0.93618 0.0
C426 C 0.15169 0.21991 0.11603 0.0
C427 C 0.12911 0.20188 0.14238 0.0
C428 C 0.16619 0.20748 0.07362 0.0
C429 C 0.15835 0.17683 0.05687 0.0
C430 C 0.13671 0.15849 0.0844 0.0
C431 C 0.12222 0.17086 0.12641 0.0
H432 H 0.29542 0.67176 0.66274 0.0
H433 H 0.33258 0.58057 0.70802 0.0
H434 H 0.31838 0.69628 0.73633 0.0
H435 H 0.35707 0.60555 0.78012 0.0
H436 H 0.42779 0.677 0.85893 0.0
H437 H 0.4023 0.65201 0.78765 0.0
H438 H 0.31115 0.68735 0.83603 0.0
H439 H 0.33625 0.71077 0.90877 0.0
C440 C 0.30805 0.65687 0.68876 0.0
C441 C 0.31192 0.62417 0.67996 0.0
C442 C 0.32141 0.67097 0.73054 0.0
C443 C 0.33953 0.65275 0.76355 0.0
C444 C 0.34337 0.62008 0.75489 0.0
C445 C 0.32942 0.60586 0.71373 0.0
C446 C 0.40229 0.67923 0.85449 0.0
C447 C 0.38406 0.69605 0.88917 0.0
C448 C 0.38778 0.66501 0.81378 0.0
C449 C 0.35485 0.66788 0.80654 0.0
C450 C 0.33664 0.68509 0.8407 0.0
C451 C 0.35105 0.6987 0.882 0.0
H452 H 0.85131 0.86025 0.17814 0.0
H453 H 0.77155 0.89051 0.09034 0.0
H454 H 0.87448 0.83376 0.10656 0.0
H455 H 0.79515 0.8654 0.01769 0.0
H456 H 0.83252 0.79642 0.90372 0.0
H457 H 0.8078 0.81736 0.9783 0.0
H458 H 0.90045 0.84532 0.03217 0.0
H459 H 0.92507 0.82229 0.95907 0.0
C460 C 0.83891 0.86129 0.14319 0.0
C461 C 0.80993 0.87754 0.13925 0.0
C462 C 0.85221 0.84635 0.10208 0.0
C463 C 0.83693 0.84763 0.05596 0.0
C464 C 0.80748 0.8635 0.05257 0.0
C465 C 0.794 0.87809 0.09396 0.0
C466 C 0.84757 0.80644 0.9321 0.0
C467 C 0.88072 0.80745 0.92594 0.0
C468 C 0.83339 0.81892 0.97454 0.0
C469 C 0.85203 0.83318 0.01149 0.0
C470 C 0.88528 0.83408 1.0051 0.0
C471 C 0.89944 0.82121 0.96296 0.0
H472 H 0.69154 0.42025 0.2152 0.0
H473 H 0.70576 0.3282 0.14895 0.0
H474 H 0.66857 0.395 0.28806 0.0
H475 H 0.68443 0.30255 0.22287 0.0
H476 H 0.60931 0.27118 0.33743 0.0
H477 H 0.63545 0.29436 0.26502 0.0
H478 H 0.68079 0.36413 0.35858 0.0
H479 H 0.65357 0.34147 0.43015 0.0
C480 C 0.69021 0.39453 0.21676 0.0
C481 C 0.70084 0.37613 0.17696 0.0
C482 C 0.67729 0.37999 0.2586 0.0
C483 C 0.6748 0.34664 0.26166 0.0
C484 C 0.68571 0.32826 0.22174 0.0
C485 C 0.6984 0.34288 0.1797 0.0
C486 C 0.62502 0.29137 0.34214 0.0
C487 C 0.62931 0.30487 0.38881 0.0
C488 C 0.64015 0.30457 0.30089 0.0
C489 C 0.66011 0.33134 0.30578 0.0
C490 C 0.66509 0.34402 0.35315 0.0
C491 C 0.64975 0.33097 0.39418 0.0
H492 H 0.08023 0.18569 0.46428 0.0
H493 H 0.17242 0.20972 0.40443 0.0
H494 H 0.10605 0.1604 0.5353 0.0
H495 H 0.19801 0.18614 0.47693 0.0
H496 H 0.211 0.17427 0.65712 0.0
H497 H 0.18825 0.19962 0.58383 0.0
H498 H 0.15384 0.10861 0.53393 0.0
H499 H 0.17826 0.08281 0.60564 0.0
C500 C 0.10595 0.18581 0.46657 0.0
C501 C 0.12431 0.19983 0.42906 0.0
C502 C 0.12063 0.17144 0.50707 0.0
C503 C 0.15389 0.17149 0.51124 0.0
C504 C 0.17229 0.18607 0.47443 0.0
C505 C 0.15764 0.19977 0.43333 0.0
C506 C 0.19939 0.15954 0.62983 0.0
C507 C 0.19668 0.1265 0.63679 0.0
C508 C 0.18615 0.1741 0.58828 0.0
C509 C 0.16931 0.15597 0.55371 0.0
C510 C 0.16664 0.12299 0.56041 0.0
C511 C 0.18053 0.10833 0.60133 0.0
H512 H 0.37706 0.90246 0.01318 0.0
H513 H 0.30825 0.84491 0.93637 0.0
H514 H 0.35917 0.94946 0.96721 0.0
H515 H 0.29149 0.89095 0.88882 0.0
H516 H 0.2367 0.98165 0.86956 0.0
H517 H 0.26083 0.93569 0.90692 0.0
H518 H 0.35382 0.97833 0.89014 0.0
H519 H 0.3291 0.02577 0.85385 0.0
C520 C 0.35858 0.89983 0.98572 0.0
C521 C 0.34365 0.87031 0.9787 0.0
C522 C 0.34842 0.92664 0.95921 0.0
C523 C 0.32344 0.92419 0.92485 0.0
C524 C 0.31006 0.89405 0.91601 0.0
C525 C 0.31973 0.86758 0.94306 0.0
C526 C 0.26234 0.9814 0.87337 0.0
C527 C 0.28092 0.00754 0.85851 0.0
C528 C 0.2763 0.95472 0.89459 0.0
C529 C 0.3094 0.95295 0.9011 0.0
C530 C 0.32822 0.97895 0.88594 0.0
C531 C 0.3141 0.00603 0.86487 0.0
H532 H 0.47226 0.82767 0.13717 0.0
H533 H 0.53705 0.76032 0.0711 0.0
H534 H 0.51707 0.85348 0.17882 0.0
H535 H 0.58168 0.78646 0.11186 0.0
H536 H 0.6571 0.85639 0.16644 0.0
H537 H 0.61125 0.84112 0.11617 0.0
H538 H 0.55465 0.83017 0.24804 0.0
H539 H 0.60062 0.84524 0.29831 0.0
C540 C 0.4961 0.81888 0.1306 0.0
C541 C 0.50116 0.79189 0.10108 0.0
C542 C 0.52166 0.83351 0.15465 0.0
C543 C 0.55275 0.82186 0.14862 0.0
C544 C 0.55798 0.79604 0.11688 0.0
C545 C 0.53242 0.78103 0.09371 0.0
C546 C 0.63463 0.85156 0.18452 0.0
C547 C 0.63215 0.85244 0.23613 0.0
C548 C 0.60853 0.84255 0.15583 0.0
C549 C 0.5794 0.8347 0.17825 0.0
C550 C 0.5767 0.83654 0.22981 0.0
C551 C 0.60297 0.84496 0.25853 0.0
H552 H 0.6751 0.97986 0.35238 0.0
H553 H 0.76477 0.02986 0.36376 0.0
H554 H 0.64882 0.02356 0.39686 0.0
H555 H 0.73866 0.07246 0.40852 0.0
H556 H 0.69053 0.11216 0.54766 0.0
H557 H 0.70891 0.067 0.49919 0.0
H558 H 0.64353 0.09168 0.38309 0.0
H559 H 0.62602 0.13789 0.43023 0.0
C560 C 0.6891 1.00018 0.36378 0.0
C561 C 0.7221 1.00118 0.35478 0.0
C562 C 0.67406 0.02508 0.38916 0.0
C563 C 0.69192 0.05099 0.40649 0.0
C564 C 0.72452 0.0525 0.39595 0.0
C565 C 0.73938 0.02807 0.37011 0.0
C566 C 0.67971 0.10787 0.51207 0.0
C567 C 0.65643 0.1286 0.49336 0.0
C568 C 0.69022 0.08197 0.48445 0.0
C569 C 0.67751 0.07596 0.43763 0.0
C570 C 0.65331 0.09567 0.41948 0.0
C571 C 0.64307 0.122 0.44688 0.0
H572 H 0.52157 0.17687 0.60594 0.0
H573 H 0.47937 0.27008 0.62113 0.0
H574 H 0.47419 0.15317 0.64415 0.0
H575 H 0.43345 0.24695 0.66049 0.0
H576 H 0.34211 0.20089 0.69346 0.0
H577 H 0.38792 0.21716 0.64487 0.0
H578 H 0.44612 0.14831 0.72158 0.0
H579 H 0.39928 0.13091 0.76857 0.0
C580 C 0.50226 0.19226 0.61727 0.0
C581 C 0.50427 0.22536 0.61012 0.0
C582 C 0.47521 0.17873 0.63947 0.0
C583 C 0.44974 0.19806 0.65509 0.0
C584 C 0.45203 0.23109 0.64784 0.0
C585 C 0.47867 0.24447 0.62544 0.0
C586 C 0.36466 0.18908 0.69961 0.0
C587 C 0.36734 0.16494 0.73504 0.0
C588 C 0.39102 0.19848 0.67196 0.0
C589 C 0.42103 0.18458 0.67994 0.0
C590 C 0.42341 0.15946 0.71421 0.0
C591 C 0.39669 0.14958 0.74132 0.0
H592 H 0.87611 0.60377 0.79728 0.0
H593 H 0.80872 0.66359 0.87308 0.0
H594 H 0.85833 0.55799 0.84628 0.0
H595 H 0.79222 0.61886 0.92396 0.0
H596 H 0.73747 0.52855 0.95188 0.0
H597 H 0.76111 0.57411 0.91226 0.0
H598 H 0.85399 0.53058 0.92333 0.0
H599 H 0.8297 0.4836 0.96155 0.0
C600 C 0.85793 0.60714 0.82513 0.0
C601 C 0.84334 0.6369 0.83101 0.0
C602 C 0.84785 0.58104 0.85345 0.0
C603 C 0.82337 0.58448 0.88865 0.0
C604 C 0.81034 0.61493 0.89621 0.0
C605 C 0.81988 0.64066 0.86728 0.0
C606 C 0.763 0.52859 0.94641 0.0
C607 C 0.78163 0.50225 0.95996 0.0
C608 C 0.7767 0.55504 0.92387 0.0
C609 C 0.80961 0.55636 0.91477 0.0
C610 C 0.82851 0.53031 0.92927 0.0
C611 C 0.81465 0.50348 0.95153 0.0
H612 H 0.03624 0.32637 0.17497 0.0
H613 H 0.97003 0.25999 0.24068 0.0
H614 H 0.99214 0.3525 0.13203 0.0
H615 H 0.92612 0.28647 0.19856 0.0
H616 H 0.85213 0.35769 0.14351 0.0
H617 H 0.8976 0.34154 0.19406 0.0
H618 H 0.95436 0.33015 0.06249 0.0
H619 H 0.9087 0.34607 0.01197 0.0
C620 C 0.01224 0.3178 0.18108 0.0
C621 C 0.00659 0.29104 0.21103 0.0
C622 C 0.9871 0.33263 0.1563 0.0
C623 C 0.95581 0.32143 0.16195 0.0
C624 C 0.94999 0.29572 0.19384 0.0
C625 C 0.97514 0.28051 0.21777 0.0
C626 C 0.8746 0.35258 0.12561 0.0
C627 C 0.87725 0.35363 0.07404 0.0
C628 C 0.90046 0.34307 0.15443 0.0
C629 C 0.92949 0.3348 0.13215 0.0
C630 C 0.93238 0.33683 0.0806 0.0
C631 C 0.90632 0.34579 0.05175 0.0
H632 H 0.27037 0.48184 0.44394 0.0
H633 H 0.17855 0.52731 0.45863 0.0
H634 H 0.2459 0.43798 0.40029 0.0
H635 H 0.15393 0.4825 0.41475 0.0
H636 H 0.12924 0.37203 0.38196 0.0
H637 H 0.14702 0.41939 0.42599 0.0
H638 H 0.2189 0.4354 0.31497 0.0
H639 H 0.20052 0.38881 0.26989 0.0
C640 C 0.24488 0.48244 0.43828 0.0
C641 C 0.22648 0.50837 0.45451 0.0
C642 C 0.23092 0.45729 0.41294 0.0
C643 C 0.19815 0.45712 0.40352 0.0
C644 C 0.17931 0.4822 0.42146 0.0
C645 C 0.19341 0.50778 0.4465 0.0
C646 C 0.14796 0.38625 0.36578 0.0
C647 C 0.16304 0.37688 0.32172 0.0
C648 C 0.15833 0.41324 0.39138 0.0
C649 C 0.18436 0.43093 0.37394 0.0
C650 C 0.19891 0.42201 0.32942 0.0
C651 C 0.18836 0.39535 0.30363 0.0
H652 H 0.10584 0.63128 0.54697 0.0
H653 H 0.1658 0.6896 0.63855 0.0
H654 H 0.0592 0.64747 0.59537 0.0
H655 H 0.12012 0.70431 0.68869 0.0
H656 H 0.03197 0.76304 0.71374 0.0
H657 H 0.07784 0.73884 0.67636 0.0
H658 H 0.02878 0.64851 0.6708 0.0
H659 H 0.98148 0.67355 0.70695 0.0
C660 C 0.10902 0.64701 0.57817 0.0
C661 C 0.1391 0.65973 0.5887 0.0
C662 C 0.08243 0.65614 0.60612 0.0
C663 C 0.0857 0.67775 0.64548 0.0
C664 C 0.1164 0.6885 0.65775 0.0
C665 C 0.14266 0.67997 0.62926 0.0
C666 C 0.03079 0.73792 0.70509 0.0
C667 C 1.00282 0.72032 0.71329 0.0
C668 C 0.05743 0.72386 0.6839 0.0
C669 C 0.05732 0.69154 0.67075 0.0
C670 C 0.02965 0.67354 0.68005 0.0
C671 C 1.00263 0.6878 0.70113 0.0
loop_
_geom_bond_atom_site_label_1
_geom_bond_atom_site_label_2
_geom_bond_distance
_geom_bond_site_symmetry_2
_ccdc_geom_bond_type
Co0 O3 1.970 . S
Co0 N17 1.989 1_554 S
Co0 O25 1.967 . S
Co0 O32 1.920 . S
Co1 O4 1.966 . S
Co1 N10 2.022 . S
Co1 N18 1.993 1_554 S
Co1 O26 1.941 . S
C2 O3 1.258 . S
C2 O4 1.263 . S
O3 Co0 1.970 . S
O3 C2 1.258 . S
O4 Co1 1.966 . S
O4 C2 1.263 . S
C5 O6 1.235 . S
C5 O32 1.289 . S
O6 C5 1.235 . S
C7 C9 1.400 . S
C7 N10 1.351 . S
C7 C12 1.501 . S
C8 C9 1.387 . S
C8 N11 1.341 . S
C9 C7 1.400 . S
C9 C8 1.387 . S
N10 Co1 2.022 . S
N10 C7 1.351 . S
N10 N11 1.365 . S
N11 C8 1.341 . S
N11 N10 1.365 . S
N11 H31 0.862 . S
C12 C7 1.501 . S
C12 H13 0.961 . S
C12 H14 0.961 1_554 S
C12 H15 0.960 . S
H13 C12 0.961 . S
H14 C12 0.961 1_556 S
H15 C12 0.960 . S
C16 N17 1.342 . S
C16 C20 1.401 . S
C16 C21 1.499 . S
N17 Co0 1.989 1_556 S
N17 C16 1.342 . S
N17 N18 1.388 . S
N18 Co1 1.993 1_556 S
N18 N17 1.388 . S
N18 C19 1.346 . S
C19 N18 1.346 . S
C19 C20 1.396 . S
C19 C29 1.510 . S
C20 C16 1.401 . S
C20 C19 1.396 . S
C21 C16 1.499 . S
C21 H22 0.959 . S
C21 H23 0.960 . S
C21 H24 0.961 . S
H22 C21 0.959 . S
H23 C21 0.960 . S
H24 C21 0.961 . S
O25 Co0 1.967 . S
O25 C33 1.258 . S
O26 Co1 1.941 . S
O26 C33 1.266 . S
H27 C29 0.959 . S
H28 C29 0.961 . S
C29 C19 1.510 . S
C29 H27 0.959 . S
C29 H28 0.961 . S
C29 H30 0.960 . S
H30 C29 0.960 . S
H31 N11 0.862 . S
O32 Co0 1.920 . S
O32 C5 1.289 . S
C33 O25 1.258 . S
C33 O26 1.266 . S
Co34 O37 1.970 . S
Co34 N51 1.989 . S
Co34 O59 1.967 . S
Co34 O66 1.920 . S
Co35 O38 1.966 . S
Co35 N44 2.022 . S
Co35 N52 1.993 . S
Co35 O60 1.941 . S
C36 O37 1.258 . S
C36 O38 1.263 . S
O37 Co34 1.970 . S
O37 C36 1.258 . S
O38 Co35 1.966 . S
O38 C36 1.263 . S
C39 O40 1.235 . S
C39 O66 1.289 . S
O40 C39 1.235 . S
C41 C43 1.400 . S
C41 N44 1.351 . S
C41 C46 1.501 . S
C42 C43 1.387 . S
C42 N45 1.341 . S
C43 C41 1.400 . S
C43 C42 1.387 . S
N44 Co35 2.022 . S
N44 C41 1.351 . S
N44 N45 1.365 . S
N45 C42 1.341 . S
N45 N44 1.365 . S
N45 H65 0.862 . S
C46 C41 1.501 . S
C46 H47 0.961 . S
C46 H48 0.961 . S
C46 H49 0.960 . S
H47 C46 0.961 . S
H48 C46 0.961 . S
H49 C46 0.960 . S
C50 N51 1.342 . S
C50 C54 1.401 . S
C50 C55 1.499 . S
N51 Co34 1.989 . S
N51 C50 1.342 . S
N51 N52 1.388 . S
N52 Co35 1.993 . S
N52 N51 1.388 . S
N52 C53 1.346 . S
C53 N52 1.346 . S
C53 C54 1.396 . S
C53 C63 1.510 . S
C54 C50 1.401 . S
C54 C53 1.396 . S
C55 C50 1.499 . S
C55 H56 0.959 . S
C55 H57 0.960 . S
C55 H58 0.961 . S
H56 C55 0.959 . S
H57 C55 0.960 . S
H58 C55 0.961 . S
O59 Co34 1.967 . S
O59 C67 1.258 . S
O60 Co35 1.941 . S
O60 C67 1.266 . S
H61 C63 0.959 . S
H62 C63 0.961 . S
C63 C53 1.510 . S
C63 H61 0.959 . S
C63 H62 0.961 . S
C63 H64 0.960 . S
H64 C63 0.960 . S
H65 N45 0.862 . S
O66 Co34 1.920 . S
O66 C39 1.289 . S
C67 O59 1.258 . S
C67 O60 1.266 . S
Co68 O71 1.970 . S
Co68 N85 1.989 . S
Co68 O93 1.967 . S
Co68 O100 1.920 . S
Co69 O72 1.966 . S
Co69 N78 2.022 . S
Co69 N86 1.993 . S
Co69 O94 1.941 . S
C70 O71 1.258 . S
C70 O72 1.263 . S
O71 Co68 1.970 . S
O71 C70 1.258 . S
O72 Co69 1.966 . S
O72 C70 1.263 . S
C73 O74 1.235 . S
C73 O100 1.289 . S
O74 C73 1.235 . S
C75 C77 1.400 . S
C75 N78 1.351 . S
C75 C80 1.501 . S
C76 C77 1.387 . S
C76 N79 1.341 . S
C77 C75 1.400 . S
C77 C76 1.387 . S
N78 Co69 2.022 . S
N78 C75 1.351 . S
N78 N79 1.365 . S
N79 C76 1.341 . S
N79 N78 1.365 . S
N79 H99 0.862 . S
C80 C75 1.501 . S
C80 H81 0.961 . S
C80 H82 0.961 . S
C80 H83 0.960 . S
H81 C80 0.961 . S
H82 C80 0.961 . S
H83 C80 0.960 . S
C84 N85 1.342 . S
C84 C88 1.401 . S
C84 C89 1.499 . S
N85 Co68 1.989 . S
N85 C84 1.342 . S
N85 N86 1.388 . S
N86 Co69 1.993 . S
N86 N85 1.388 . S
N86 C87 1.346 . S
C87 N86 1.346 . S
C87 C88 1.396 . S
C87 C97 1.510 . S
C88 C84 1.401 . S
C88 C87 1.396 . S
C89 C84 1.499 . S
C89 H90 0.959 . S
C89 H91 0.960 . S
C89 H92 0.961 . S
H90 C89 0.959 . S
H91 C89 0.960 . S
H92 C89 0.961 . S
O93 Co68 1.967 . S
O93 C101 1.258 . S
O94 Co69 1.941 . S
O94 C101 1.266 . S
H95 C97 0.959 . S
H96 C97 0.961 . S
C97 C87 1.510 . S
C97 H95 0.959 . S
C97 H96 0.961 . S
C97 H98 0.960 . S
H98 C97 0.960 . S
H99 N79 0.862 . S
O100 Co68 1.920 . S
O100 C73 1.289 . S
C101 O93 1.258 . S
C101 O94 1.266 . S
Co102 O105 1.970 . S
Co102 N119 1.989 . S
Co102 O127 1.967 . S
Co102 O134 1.920 . S
Co103 O106 1.966 . S
Co103 N112 2.022 . S
Co103 N120 1.993 . S
Co103 O128 1.941 . S
C104 O105 1.258 . S
C104 O106 1.263 . S
O105 Co102 1.970 . S
O105 C104 1.258 . S
O106 Co103 1.966 . S
O106 C104 1.263 . S
C107 O108 1.235 . S
C107 O134 1.289 . S
O108 C107 1.235 . S
C109 C111 1.400 . S
C109 N112 1.351 . S
C109 C114 1.501 . S
C110 C111 1.387 . S
C110 N113 1.341 . S
C111 C109 1.400 . S
C111 C110 1.387 . S
N112 Co103 2.022 . S
N112 C109 1.351 . S
N112 N113 1.365 . S
N113 C110 1.341 . S
N113 N112 1.365 . S
N113 H133 0.862 . S
C114 C109 1.501 . S
C114 H115 0.961 . S
C114 H116 0.961 . S
C114 H117 0.960 . S
H115 C114 0.961 . S
H116 C114 0.961 . S
H117 C114 0.960 . S
C118 N119 1.342 . S
C118 C122 1.401 . S
C118 C123 1.499 . S
N119 Co102 1.989 . S
N119 C118 1.342 . S
N119 N120 1.388 . S
N120 Co103 1.993 . S
N120 N119 1.388 . S
N120 C121 1.346 . S
C121 N120 1.346 . S
C121 C122 1.396 . S
C121 C131 1.510 . S
C122 C118 1.401 . S
C122 C121 1.396 . S
C123 C118 1.499 . S
C123 H124 0.959 . S
C123 H125 0.960 . S
C123 H126 0.961 . S
H124 C123 0.959 . S
H125 C123 0.960 . S
H126 C123 0.961 . S
O127 Co102 1.967 . S
O127 C135 1.258 . S
O128 Co103 1.941 . S
O128 C135 1.266 . S
H129 C131 0.959 . S
H130 C131 0.961 . S
C131 C121 1.510 . S
C131 H129 0.959 . S
C131 H130 0.961 . S
C131 H132 0.960 . S
H132 C131 0.960 . S
H133 N113 0.862 . S
O134 Co102 1.920 . S
O134 C107 1.289 . S
C135 O127 1.258 . S
C135 O128 1.266 . S
Co136 O139 1.970 . S
Co136 N153 1.989 . S
Co136 O161 1.967 . S
Co136 O168 1.920 . S
Co137 O140 1.966 . S
Co137 N146 2.022 . S
Co137 N154 1.993 . S
Co137 O162 1.941 . S
C138 O139 1.258 . S
C138 O140 1.263 . S
O139 Co136 1.970 . S
O139 C138 1.258 . S
O140 Co137 1.966 . S
O140 C138 1.263 . S
C141 O142 1.235 . S
C141 O168 1.289 . S
O142 C141 1.235 . S
C143 C145 1.400 . S
C143 N146 1.351 . S
C143 C148 1.501 . S
C144 C145 1.387 . S
C144 N147 1.341 . S
C145 C143 1.400 . S
C145 C144 1.387 . S
N146 Co137 2.022 . S
N146 C143 1.351 . S
N146 N147 1.365 . S
N147 C144 1.341 . S
N147 N146 1.365 . S
N147 H167 0.862 . S
C148 C143 1.501 . S
C148 H149 0.961 . S
C148 H150 0.961 . S
C148 H151 0.960 . S
H149 C148 0.961 . S
H150 C148 0.961 . S
H151 C148 0.960 . S
C152 N153 1.342 . S
C152 C156 1.401 . S
C152 C157 1.499 . S
N153 Co136 1.989 . S
N153 C152 1.342 . S
N153 N154 1.388 . S
N154 Co137 1.993 . S
N154 N153 1.388 . S
N154 C155 1.346 . S
C155 N154 1.346 . S
C155 C156 1.396 . S
C155 C165 1.510 . S
C156 C152 1.401 . S
C156 C155 1.396 . S
C157 C152 1.499 . S
C157 H158 0.959 . S
C157 H159 0.960 . S
C157 H160 0.961 . S
H158 C157 0.959 . S
H159 C157 0.960 . S
H160 C157 0.961 . S
O161 Co136 1.967 . S
O161 C169 1.258 . S
O162 Co137 1.941 . S
O162 C169 1.266 . S
H163 C165 0.959 . S
H164 C165 0.961 . S
C165 C155 1.510 . S
C165 H163 0.959 . S
C165 H164 0.961 . S
C165 H166 0.960 . S
H166 C165 0.960 . S
H167 N147 0.862 . S
O168 Co136 1.920 . S
O168 C141 1.289 . S
C169 O161 1.258 . S
C169 O162 1.266 . S
Co170 O173 1.970 . S
Co170 N187 1.989 1_556 S
Co170 O195 1.967 . S
Co170 O202 1.920 . S
Co171 O174 1.966 . S
Co171 N180 2.022 1_556 S
Co171 N188 1.993 1_556 S
Co171 O196 1.941 . S
C172 O173 1.258 . S
C172 O174 1.263 . S
O173 Co170 1.970 . S
O173 C172 1.258 . S
O174 Co171 1.966 . S
O174 C172 1.263 . S
C175 O176 1.235 . S
C175 O202 1.289 1_554 S
O176 C175 1.235 . S
C177 C179 1.400 . S
C177 N180 1.351 . S
C177 C182 1.501 . S
C178 C179 1.387 . S
C178 N181 1.341 . S
C179 C177 1.400 . S
C179 C178 1.387 . S
N180 Co171 2.022 1_554 S
N180 C177 1.351 . S
N180 N181 1.365 . S
N181 C178 1.341 . S
N181 N180 1.365 . S
N181 H201 0.862 . S
C182 C177 1.501 . S
C182 H183 0.961 . S
C182 H184 0.961 . S
C182 H185 0.960 . S
H183 C182 0.961 . S
H184 C182 0.961 . S
H185 C182 0.960 . S
C186 N187 1.342 . S
C186 C190 1.401 . S
C186 C191 1.499 . S
N187 Co170 1.989 1_554 S
N187 C186 1.342 . S
N187 N188 1.388 . S
N188 Co171 1.993 1_554 S
N188 N187 1.388 . S
N188 C189 1.346 . S
C189 N188 1.346 . S
C189 C190 1.396 . S
C189 C199 1.510 . S
C190 C186 1.401 . S
C190 C189 1.396 . S
C191 C186 1.499 . S
C191 H192 0.959 . S
C191 H193 0.960 . S
C191 H194 0.961 . S
H192 C191 0.959 . S
H193 C191 0.960 . S
H194 C191 0.961 . S
O195 Co170 1.967 . S
O195 C203 1.258 . S
O196 Co171 1.941 . S
O196 C203 1.266 . S
H197 C199 0.959 . S
H198 C199 0.961 . S
C199 C189 1.510 . S
C199 H197 0.959 . S
C199 H198 0.961 . S
C199 H200 0.960 . S
H200 C199 0.960 . S
H201 N181 0.862 . S
O202 Co170 1.920 . S
O202 C175 1.289 1_556 S
C203 O195 1.258 . S
C203 O196 1.266 . S
Co204 O207 1.970 . S
Co204 N221 1.989 . S
Co204 O229 1.967 . S
Co204 O236 1.920 . S
Co205 O208 1.966 . S
Co205 N214 2.022 . S
Co205 N222 1.993 . S
Co205 O230 1.941 . S
C206 O207 1.258 . S
C206 O208 1.263 . S
O207 Co204 1.970 . S
O207 C206 1.258 . S
O208 Co205 1.966 . S
O208 C206 1.263 . S
C209 O210 1.235 . S
C209 O236 1.289 . S
O210 C209 1.235 . S
C211 C213 1.400 . S
C211 N214 1.351 . S
C211 C216 1.501 . S
C212 C213 1.387 . S
C212 N215 1.341 . S
C213 C211 1.400 . S
C213 C212 1.387 . S
N214 Co205 2.022 . S
N214 C211 1.351 . S
N214 N215 1.365 . S
N215 C212 1.341 . S
N215 N214 1.365 . S
N215 H235 0.862 . S
C216 C211 1.501 . S
C216 H217 0.961 . S
C216 H218 0.961 . S
C216 H219 0.960 . S
H217 C216 0.961 . S
H218 C216 0.961 . S
H219 C216 0.960 . S
C220 N221 1.342 . S
C220 C224 1.401 . S
C220 C225 1.499 . S
N221 Co204 1.989 . S
N221 C220 1.342 . S
N221 N222 1.388 . S
N222 Co205 1.993 . S
N222 N221 1.388 . S
N222 C223 1.346 . S
C223 N222 1.346 . S
C223 C224 1.396 . S
C223 C233 1.510 . S
C224 C220 1.401 . S
C224 C223 1.396 . S
C225 C220 1.499 . S
C225 H226 0.959 . S
C225 H227 0.960 . S
C225 H228 0.961 . S
H226 C225 0.959 . S
H227 C225 0.960 . S
H228 C225 0.961 . S
O229 Co204 1.967 . S
O229 C237 1.258 . S
O230 Co205 1.941 . S
O230 C237 1.266 . S
H231 C233 0.959 . S
H232 C233 0.961 . S
C233 C223 1.510 . S
C233 H231 0.959 . S
C233 H232 0.961 . S
C233 H234 0.960 . S
H234 C233 0.960 . S
H235 N215 0.862 . S
O236 Co204 1.920 . S
O236 C209 1.289 . S
C237 O229 1.258 . S
C237 O230 1.266 . S
Co238 O241 1.970 . S
Co238 N255 1.989 . S
Co238 O263 1.967 . S
Co238 O270 1.920 . S
Co239 O242 1.966 . S
Co239 N248 2.022 . S
Co239 N256 1.993 . S
Co239 O264 1.941 . S
C240 O241 1.258 . S
C240 O242 1.263 . S
O241 Co238 1.970 . S
O241 C240 1.258 . S
O242 Co239 1.966 . S
O242 C240 1.263 . S
C243 O244 1.235 . S
C243 O270 1.289 . S
O244 C243 1.235 . S
C245 C247 1.400 . S
C245 N248 1.351 . S
C245 C250 1.501 . S
C246 C247 1.387 . S
C246 N249 1.341 . S
C247 C245 1.400 . S
C247 C246 1.387 . S
N248 Co239 2.022 . S
N248 C245 1.351 . S
N248 N249 1.365 . S
N249 C246 1.341 . S
N249 N248 1.365 . S
N249 H269 0.862 . S
C250 C245 1.501 . S
C250 H251 0.961 . S
C250 H252 0.961 . S
C250 H253 0.960 . S
H251 C250 0.961 . S
H252 C250 0.961 . S
H253 C250 0.960 . S
C254 N255 1.342 . S
C254 C258 1.401 . S
C254 C259 1.499 . S
N255 Co238 1.989 . S
N255 C254 1.342 . S
N255 N256 1.388 . S
N256 Co239 1.993 . S
N256 N255 1.388 . S
N256 C257 1.346 . S
C257 N256 1.346 . S
C257 C258 1.396 . S
C257 C267 1.510 . S
C258 C254 1.401 . S
C258 C257 1.396 . S
C259 C254 1.499 . S
C259 H260 0.959 . S
C259 H261 0.960 . S
C259 H262 0.961 . S
H260 C259 0.959 . S
H261 C259 0.960 . S
H262 C259 0.961 . S
O263 Co238 1.967 . S
O263 C271 1.258 . S
O264 Co239 1.941 . S
O264 C271 1.266 . S
H265 C267 0.959 . S
H266 C267 0.961 . S
C267 C257 1.510 . S
C267 H265 0.959 . S
C267 H266 0.961 . S
C267 H268 0.960 . S
H268 C267 0.960 . S
H269 N249 0.862 . S
O270 Co238 1.920 . S
O270 C243 1.289 . S
C271 O263 1.258 . S
C271 O264 1.266 . S
H272 C280 0.950 . S
H273 C285 0.950 . S
H274 C282 0.950 . S
H275 C284 0.950 . S
H276 C286 0.950 . S
H277 C288 0.950 . S
H278 C290 0.950 1_556 S
H279 C291 0.950 1_556 S
C280 H272 0.950 . S
C280 C281 1.386 1_556 S
C280 C282 1.391 . S
C281 C280 1.386 1_554 S
C281 C285 1.393 . S
C282 H274 0.950 . S
C282 C280 1.391 . S
C282 C283 1.400 1_556 S
C283 C282 1.400 1_554 S
C283 C284 1.398 . S
C283 C289 1.491 . S
C284 H275 0.950 . S
C284 C283 1.398 . S
C284 C285 1.391 . S
C285 H273 0.950 . S
C285 C281 1.393 . S
C285 C284 1.391 . S
C286 H276 0.950 . S
C286 C287 1.386 . S
C286 C288 1.391 . S
C287 C286 1.386 . S
C287 C291 1.393 . S
C288 H277 0.950 . S
C288 C286 1.391 . S
C288 C289 1.400 . S
C289 C283 1.491 . S
C289 C288 1.400 . S
C289 C290 1.398 . S
C290 H278 0.950 1_554 S
C290 C289 1.398 . S
C290 C291 1.391 . S
C291 H279 0.950 1_554 S
C291 C287 1.393 . S
C291 C290 1.391 . S
H292 C300 0.950 . S
H293 C305 0.980 . S
H294 C302 0.950 . S
H295 C304 0.950 . S
H296 C306 0.950 1_565 S
H297 C308 0.950 . S
H298 C310 0.950 . S
H299 C311 0.950 . S
C300 H292 0.950 . S
C300 C301 1.386 . S
C300 C302 1.391 . S
C301 C300 1.386 . S
C301 C305 1.386 1_655 S
C302 H294 0.950 . S
C302 C300 1.391 . S
C302 C303 1.400 . S
C303 C302 1.400 . S
C303 C304 1.398 . S
C303 C309 1.491 . S
C304 H295 0.950 . S
C304 C303 1.398 . S
C304 C305 1.368 1_655 S
C305 H293 0.980 . S
C305 C301 1.386 1_455 S
C305 C304 1.368 1_455 S
C306 H296 0.950 1_545 S
C306 C307 1.386 . S
C306 C308 1.391 . S
C307 C306 1.386 . S
C307 C311 1.393 . S
C308 H297 0.950 . S
C308 C306 1.391 . S
C308 C309 1.400 . S
C309 C303 1.491 . S
C309 C308 1.400 . S
C309 C310 1.398 . S
C310 H298 0.950 . S
C310 C309 1.398 . S
C310 C311 1.391 . S
C311 H299 0.950 . S
C311 C307 1.393 . S
C311 C310 1.391 . S
H312 C320 0.950 . S
H313 C325 0.950 . S
H314 C322 0.950 . S
H315 C324 0.950 . S
H316 C326 0.950 . S
H317 C328 0.950 . S
H318 C330 0.950 . S
H319 C331 0.950 . S
C320 H312 0.950 . S
C320 C321 1.386 . S
C320 C322 1.391 . S
C321 C320 1.386 . S
C321 C325 1.393 . S
C322 H314 0.950 . S
C322 C320 1.391 . S
C322 C323 1.400 . S
C323 C322 1.400 . S
C323 C324 1.398 . S
C323 C329 1.491 . S
C324 H315 0.950 . S
C324 C323 1.398 . S
C324 C325 1.391 . S
C325 H313 0.950 . S
C325 C321 1.393 . S
C325 C324 1.391 . S
C326 H316 0.950 . S
C326 C327 1.386 . S
C326 C328 1.391 . S
C327 C326 1.386 . S
C327 C331 1.393 . S
C328 H317 0.950 . S
C328 C326 1.391 . S
C328 C329 1.400 . S
C329 C323 1.491 . S
C329 C328 1.400 . S
C329 C330 1.398 . S
C330 H318 0.950 . S
C330 C329 1.398 . S
C330 C331 1.391 . S
C331 H319 0.950 . S
C331 C327 1.393 . S
C331 C330 1.391 . S
H332 C340 0.950 1_655 S
H333 C345 0.950 . S
H334 C342 0.950 . S
H335 C344 0.950 . S
H336 C346 0.950 . S
H337 C348 0.950 . S
H338 C350 0.950 . S
H339 C351 0.950 1_545 S
C340 H332 0.950 1_455 S
C340 C341 1.386 . S
C340 C342 1.391 . S
C341 C340 1.386 . S
C341 C345 1.393 . S
C342 H334 0.950 . S
C342 C340 1.391 . S
C342 C343 1.400 . S
C343 C342 1.400 . S
C343 C344 1.398 . S
C343 C349 1.491 . S
C344 H335 0.950 . S
C344 C343 1.398 . S
C344 C345 1.391 . S
C345 H333 0.950 . S
C345 C341 1.393 . S
C345 C344 1.391 . S
C346 H336 0.950 . S
C346 C347 1.386 . S
C346 C348 1.391 . S
C347 C346 1.386 . S
C347 C351 1.393 . S
C348 H337 0.950 . S
C348 C346 1.391 . S
C348 C349 1.400 . S
C349 C343 1.491 . S
C349 C348 1.400 . S
C349 C350 1.398 . S
C350 H338 0.950 . S
C350 C349 1.398 . S
C350 C351 1.391 . S
C351 H339 0.950 1_565 S
C351 C347 1.393 . S
C351 C350 1.391 . S
H352 C360 0.950 . S
H353 C365 0.950 . S
H354 C362 0.950 . S
H355 C364 0.950 . S
H356 C366 0.950 . S
H357 C368 0.950 . S
H358 C370 0.950 . S
H359 C371 0.950 . S
C360 H352 0.950 . S
C360 C361 1.386 . S
C360 C362 1.391 . S
C361 C360 1.386 . S
C361 C365 1.393 . S
C362 H354 0.950 . S
C362 C360 1.391 . S
C362 C363 1.400 . S
C363 C362 1.400 . S
C363 C364 1.398 . S
C363 C369 1.491 . S
C364 H355 0.950 . S
C364 C363 1.398 . S
C364 C365 1.391 . S
C365 H353 0.950 . S
C365 C361 1.393 . S
C365 C364 1.391 . S
C366 H356 0.950 . S
C366 C367 1.386 . S
C366 C368 1.391 . S
C367 C366 1.386 . S
C367 C371 1.393 . S
C368 H357 0.950 . S
C368 C366 1.391 . S
C368 C369 1.400 . S
C369 C363 1.491 . S
C369 C368 1.400 . S
C369 C370 1.398 . S
C370 H358 0.950 . S
C370 C369 1.398 . S
C370 C371 1.391 . S
C371 H359 0.950 . S
C371 C367 1.393 . S
C371 C370 1.391 . S
H372 C380 0.950 . S
H373 C385 0.950 . S
H374 C382 0.950 . S
H375 C384 0.950 . S
H376 C386 0.950 . S
H377 C388 0.950 . S
H378 C390 0.950 . S
H379 C391 0.950 . S
C380 H372 0.950 . S
C380 C381 1.386 . S
C380 C382 1.391 . S
C381 C380 1.386 . S
C381 C385 1.393 . S
C382 H374 0.950 . S
C382 C380 1.391 . S
C382 C383 1.400 . S
C383 C382 1.400 . S
C383 C384 1.398 . S
C383 C389 1.491 . S
C384 H375 0.950 . S
C384 C383 1.398 . S
C384 C385 1.391 . S
C385 H373 0.950 . S
C385 C381 1.393 . S
C385 C384 1.391 . S
C386 H376 0.950 . S
C386 C387 1.386 . S
C386 C388 1.391 . S
C387 C386 1.386 . S
C387 C391 1.393 . S
C388 H377 0.950 . S
C388 C386 1.391 . S
C388 C389 1.400 . S
C389 C383 1.491 . S
C389 C388 1.400 . S
C389 C390 1.398 . S
C390 H378 0.950 . S
C390 C389 1.398 . S
C390 C391 1.391 . S
C391 H379 0.950 . S
C391 C387 1.393 . S
C391 C390 1.391 . S
H392 C400 0.950 . S
H393 C405 0.950 . S
H394 C402 0.950 . S
H395 C404 0.950 . S
H396 C406 0.950 . S
H397 C408 0.950 . S
H398 C410 0.950 . S
H399 C411 0.950 . S
C400 H392 0.950 . S
C400 C401 1.386 . S
C400 C402 1.391 . S
C401 C400 1.386 . S
C401 C405 1.393 . S
C402 H394 0.950 . S
C402 C400 1.391 . S
C402 C403 1.400 . S
C403 C402 1.400 . S
C403 C404 1.398 . S
C403 C409 1.491 . S
C404 H395 0.950 . S
C404 C403 1.398 . S
C404 C405 1.391 . S
C405 H393 0.950 . S
C405 C401 1.393 . S
C405 C404 1.391 . S
C406 H396 0.950 . S
C406 C407 1.386 . S
C406 C408 1.391 . S
C407 C406 1.386 . S
C407 C411 1.393 . S
C408 H397 0.950 . S
C408 C406 1.391 . S
C408 C409 1.400 . S
C409 C403 1.491 . S
C409 C408 1.400 . S
C409 C410 1.398 . S
C410 H398 0.950 . S
C410 C409 1.398 . S
C410 C411 1.391 . S
C411 H399 0.950 . S
C411 C407 1.393 . S
C411 C410 1.391 . S
H412 C420 0.950 . S
H413 C425 0.950 . S
H414 C422 0.950 . S
H415 C424 0.950 . S
H416 C426 0.950 . S
H417 C428 0.950 . S
H418 C430 0.950 . S
H419 C431 0.950 . S
C420 H412 0.950 . S
C420 C421 1.386 . S
C420 C422 1.391 1_556 S
C421 C420 1.386 . S
C421 C425 1.393 . S
C422 H414 0.950 . S
C422 C420 1.391 1_554 S
C422 C423 1.400 . S
C423 C422 1.400 . S
C423 C424 1.398 1_554 S
C423 C429 1.491 . S
C424 H415 0.950 . S
C424 C423 1.398 1_556 S
C424 C425 1.391 . S
C425 H413 0.950 . S
C425 C421 1.393 . S
C425 C424 1.391 . S
C426 H416 0.950 . S
C426 C427 1.386 . S
C426 C428 1.391 . S
C427 C426 1.386 . S
C427 C431 1.393 . S
C428 H417 0.950 . S
C428 C426 1.391 . S
C428 C429 1.400 . S
C429 C423 1.491 . S
C429 C428 1.400 . S
C429 C430 1.398 . S
C430 H418 0.950 . S
C430 C429 1.398 . S
C430 C431 1.391 . S
C431 H419 0.950 . S
C431 C427 1.393 . S
C431 C430 1.391 . S
H432 C440 0.950 . S
H433 C445 0.950 . S
H434 C442 0.950 . S
H435 C444 0.950 . S
H436 C446 0.950 . S
H437 C448 0.950 . S
H438 C450 0.950 . S
H439 C451 0.950 . S
C440 H432 0.950 . S
C440 C441 1.386 . S
C440 C442 1.391 . S
C441 C440 1.386 . S
C441 C445 1.393 . S
C442 H434 0.950 . S
C442 C440 1.391 . S
C442 C443 1.400 . S
C443 C442 1.400 . S
C443 C444 1.398 . S
C443 C449 1.491 . S
C444 H435 0.950 . S
C444 C443 1.398 . S
C444 C445 1.391 . S
C445 H433 0.950 . S
C445 C441 1.393 . S
C445 C444 1.391 . S
C446 H436 0.950 . S
C446 C447 1.386 . S
C446 C448 1.391 . S
C447 C446 1.386 . S
C447 C451 1.393 . S
C448 H437 0.950 . S
C448 C446 1.391 . S
C448 C449 1.400 . S
C449 C443 1.491 . S
C449 C448 1.400 . S
C449 C450 1.398 . S
C450 H438 0.950 . S
C450 C449 1.398 . S
C450 C451 1.391 . S
C451 H439 0.950 . S
C451 C447 1.393 . S
C451 C450 1.391 . S
H452 C460 0.950 . S
H453 C465 0.950 . S
H454 C462 0.950 . S
H455 C464 0.950 . S
H456 C466 0.950 . S
H457 C468 0.950 . S
H458 C470 0.950 1_554 S
H459 C471 0.950 . S
C460 H452 0.950 . S
C460 C461 1.386 . S
C460 C462 1.391 . S
C461 C460 1.386 . S
C461 C465 1.393 . S
C462 H454 0.950 . S
C462 C460 1.391 . S
C462 C463 1.400 . S
C463 C462 1.400 . S
C463 C464 1.398 . S
C463 C469 1.491 . S
C464 H455 0.950 . S
C464 C463 1.398 . S
C464 C465 1.391 . S
C465 H453 0.950 . S
C465 C461 1.393 . S
C465 C464 1.391 . S
C466 H456 0.950 . S
C466 C467 1.386 . S
C466 C468 1.391 . S
C467 C466 1.386 . S
C467 C471 1.393 . S
C468 H457 0.950 . S
C468 C466 1.391 . S
C468 C469 1.400 1_556 S
C469 C463 1.491 . S
C469 C468 1.400 1_554 S
C469 C470 1.398 1_554 S
C470 H458 0.950 1_556 S
C470 C469 1.398 1_556 S
C470 C471 1.391 . S
C471 H459 0.950 . S
C471 C467 1.393 . S
C471 C470 1.391 . S
H472 C480 0.950 . S
H473 C485 0.950 . S
H474 C482 0.950 . S
H475 C484 0.950 . S
H476 C486 0.950 . S
H477 C488 0.950 . S
H478 C490 0.950 . S
H479 C491 0.950 . S
C480 H472 0.950 . S
C480 C481 1.386 . S
C480 C482 1.391 . S
C481 C480 1.386 . S
C481 C485 1.393 . S
C482 H474 0.950 . S
C482 C480 1.391 . S
C482 C483 1.400 . S
C483 C482 1.400 . S
C483 C484 1.398 . S
C483 C489 1.491 . S
C484 H475 0.950 . S
C484 C483 1.398 . S
C484 C485 1.391 . S
C485 H473 0.950 . S
C485 C481 1.393 . S
C485 C484 1.391 . S
C486 H476 0.950 . S
C486 C487 1.386 . S
C486 C488 1.391 . S
C487 C486 1.386 . S
C487 C491 1.393 . S
C488 H477 0.950 . S
C488 C486 1.391 . S
C488 C489 1.400 . S
C489 C483 1.491 . S
C489 C488 1.400 . S
C489 C490 1.398 . S
C490 H478 0.950 . S
C490 C489 1.398 . S
C490 C491 1.391 . S
C491 H479 0.950 . S
C491 C487 1.393 . S
C491 C490 1.391 . S
H492 C500 0.950 . S
H493 C505 0.950 . S
H494 C502 0.950 . S
H495 C504 0.950 . S
H496 C506 0.950 . S
H497 C508 0.950 . S
H498 C510 0.950 . S
H499 C511 0.950 . S
C500 H492 0.950 . S
C500 C501 1.386 . S
C500 C502 1.391 . S
C501 C500 1.386 . S
C501 C505 1.393 . S
C502 H494 0.950 . S
C502 C500 1.391 . S
C502 C503 1.400 . S
C503 C502 1.400 . S
C503 C504 1.398 . S
C503 C509 1.491 . S
C504 H495 0.950 . S
C504 C503 1.398 . S
C504 C505 1.391 . S
C505 H493 0.950 . S
C505 C501 1.393 . S
C505 C504 1.391 . S
C506 H496 0.950 . S
C506 C507 1.386 . S
C506 C508 1.391 . S
C507 C506 1.386 . S
C507 C511 1.393 . S
C508 H497 0.950 . S
C508 C506 1.391 . S
C508 C509 1.400 . S
C509 C503 1.491 . S
C509 C508 1.400 . S
C509 C510 1.398 . S
C510 H498 0.950 . S
C510 C509 1.398 . S
C510 C511 1.391 . S
C511 H499 0.950 . S
C511 C507 1.393 . S
C511 C510 1.391 . S
H512 C520 0.955 . S
H513 C525 0.950 . S
H514 C522 0.950 . S
H515 C524 0.950 . S
H516 C526 0.950 . S
H517 C528 0.950 . S
H518 C530 0.950 . S
H519 C531 0.950 . S
C520 H512 0.955 . S
C520 C521 1.386 . S
C520 C522 1.391 . S
C521 C520 1.386 . S
C521 C525 1.393 . S
C522 H514 0.950 . S
C522 C520 1.391 . S
C522 C523 1.400 . S
C523 C522 1.400 . S
C523 C524 1.398 . S
C523 C529 1.491 . S
C524 H515 0.950 . S
C524 C523 1.398 . S
C524 C525 1.391 . S
C525 H513 0.950 . S
C525 C521 1.393 . S
C525 C524 1.391 . S
C526 H516 0.950 . S
C526 C527 1.386 1_565 S
C526 C528 1.391 . S
C527 C526 1.386 1_545 S
C527 C531 1.393 . S
C528 H517 0.950 . S
C528 C526 1.391 . S
C528 C529 1.400 . S
C529 C523 1.491 . S
C529 C528 1.400 . S
C529 C530 1.398 . S
C530 H518 0.950 . S
C530 C529 1.398 . S
C530 C531 1.391 1_565 S
C531 H519 0.950 . S
C531 C527 1.393 . S
C531 C530 1.391 1_545 S
H532 C540 0.950 . S
H533 C545 0.950 . S
H534 C542 0.950 . S
H535 C544 0.950 . S
H536 C546 0.950 . S
H537 C548 0.950 . S
H538 C550 0.950 . S
H539 C551 0.950 . S
C540 H532 0.950 . S
C540 C541 1.386 . S
C540 C542 1.391 . S
C541 C540 1.386 . S
C541 C545 1.393 . S
C542 H534 0.950 . S
C542 C540 1.391 . S
C542 C543 1.400 . S
C543 C542 1.400 . S
C543 C544 1.398 . S
C543 C549 1.491 . S
C544 H535 0.950 . S
C544 C543 1.398 . S
C544 C545 1.391 . S
C545 H533 0.950 . S
C545 C541 1.393 . S
C545 C544 1.391 . S
C546 H536 0.950 . S
C546 C547 1.386 . S
C546 C548 1.391 . S
C547 C546 1.386 . S
C547 C551 1.393 . S
C548 H537 0.950 . S
C548 C546 1.391 . S
C548 C549 1.400 . S
C549 C543 1.491 . S
C549 C548 1.400 . S
C549 C550 1.398 . S
C550 H538 0.950 . S
C550 C549 1.398 . S
C550 C551 1.391 . S
C551 H539 0.950 . S
C551 C547 1.393 . S
C551 C550 1.391 . S
H552 C560 0.943 1_565 S
H553 C565 0.950 1_565 S
H554 C562 0.950 . S
H555 C564 0.950 . S
H556 C566 0.950 . S
H557 C568 0.950 . S
H558 C570 0.950 . S
H559 C571 0.950 . S
C560 H552 0.943 1_545 S
C560 C561 1.386 1_545 S
C560 C562 1.391 . S
C561 C560 1.386 1_565 S
C561 C565 1.393 1_565 S
C562 H554 0.950 . S
C562 C560 1.391 . S
C562 C563 1.400 . S
C563 C562 1.400 . S
C563 C564 1.398 . S
C563 C569 1.491 . S
C564 H555 0.950 . S
C564 C563 1.398 . S
C564 C565 1.391 . S
C565 H553 0.950 1_545 S
C565 C561 1.393 1_545 S
C565 C564 1.391 . S
C566 H556 0.950 . S
C566 C567 1.386 . S
C566 C568 1.391 . S
C567 C566 1.386 . S
C567 C571 1.393 . S
C568 H557 0.950 . S
C568 C566 1.391 . S
C568 C569 1.400 . S
C569 C563 1.491 . S
C569 C568 1.400 . S
C569 C570 1.398 . S
C570 H558 0.950 . S
C570 C569 1.398 . S
C570 C571 1.391 . S
C571 H559 0.950 . S
C571 C567 1.393 . S
C571 C570 1.391 . S
H572 C580 0.950 . S
H573 C585 0.950 . S
H574 C582 0.950 . S
H575 C584 0.950 . S
H576 C586 0.950 . S
H577 C588 0.950 . S
H578 C590 0.950 . S
H579 C591 0.950 . S
C580 H572 0.950 . S
C580 C581 1.386 . S
C580 C582 1.391 . S
C581 C580 1.386 . S
C581 C585 1.393 . S
C582 H574 0.950 . S
C582 C580 1.391 . S
C582 C583 1.400 . S
C583 C582 1.400 . S
C583 C584 1.398 . S
C583 C589 1.491 . S
C584 H575 0.950 . S
C584 C583 1.398 . S
C584 C585 1.391 . S
C585 H573 0.950 . S
C585 C581 1.393 . S
C585 C584 1.391 . S
C586 H576 0.950 . S
C586 C587 1.386 . S
C586 C588 1.391 . S
C587 C586 1.386 . S
C587 C591 1.393 . S
C588 H577 0.950 . S
C588 C586 1.391 . S
C588 C589 1.400 . S
C589 C583 1.491 . S
C589 C588 1.400 . S
C589 C590 1.398 . S
C590 H578 0.950 . S
C590 C589 1.398 . S
C590 C591 1.391 . S
C591 H579 0.950 . S
C591 C587 1.393 . S
C591 C590 1.391 . S
H592 C600 0.950 . S
H593 C605 0.950 . S
H594 C602 0.950 . S
H595 C604 0.950 . S
H596 C606 0.950 . S
H597 C608 0.950 . S
H598 C610 0.950 . S
H599 C611 0.950 . S
C600 H592 0.950 . S
C600 C601 1.386 . S
C600 C602 1.391 . S
C601 C600 1.386 . S
C601 C605 1.393 . S
C602 H594 0.950 . S
C602 C600 1.391 . S
C602 C603 1.400 . S
C603 C602 1.400 . S
C603 C604 1.398 . S
C603 C609 1.491 . S
C604 H595 0.950 . S
C604 C603 1.398 . S
C604 C605 1.391 . S
C605 H593 0.950 . S
C605 C601 1.393 . S
C605 C604 1.391 . S
C606 H596 0.950 . S
C606 C607 1.386 . S
C606 C608 1.391 . S
C607 C606 1.386 . S
C607 C611 1.393 . S
C608 H597 0.950 . S
C608 C606 1.391 . S
C608 C609 1.400 . S
C609 C603 1.491 . S
C609 C608 1.400 . S
C609 C610 1.398 . S
C610 H598 0.950 . S
C610 C609 1.398 . S
C610 C611 1.391 . S
C611 H599 0.950 . S
C611 C607 1.393 . S
C611 C610 1.391 . S
H612 C620 0.950 . S
H613 C625 0.950 . S
H614 C622 0.950 . S
H615 C624 0.950 . S
H616 C626 0.950 . S
H617 C628 0.950 . S
H618 C630 0.950 . S
H619 C631 0.950 . S
C620 H612 0.950 . S
C620 C621 1.386 . S
C620 C622 1.391 1_455 S
C621 C620 1.386 . S
C621 C625 1.393 1_455 S
C622 H614 0.950 . S
C622 C620 1.391 1_655 S
C622 C623 1.400 . S
C623 C622 1.400 . S
C623 C624 1.398 . S
C623 C629 1.491 . S
C624 H615 0.950 . S
C624 C623 1.398 . S
C624 C625 1.391 . S
C625 H613 0.950 . S
C625 C621 1.393 1_655 S
C625 C624 1.391 . S
C626 H616 0.950 . S
C626 C627 1.386 . S
C626 C628 1.391 . S
C627 C626 1.386 . S
C627 C631 1.393 . S
C628 H617 0.950 . S
C628 C626 1.391 . S
C628 C629 1.400 . S
C629 C623 1.491 . S
C629 C628 1.400 . S
C629 C630 1.398 . S
C630 H618 0.950 . S
C630 C629 1.398 . S
C630 C631 1.391 . S
C631 H619 0.950 . S
C631 C627 1.393 . S
C631 C630 1.391 . S
H632 C640 0.950 . S
H633 C645 0.950 . S
H634 C642 0.950 . S
H635 C644 0.950 . S
H636 C646 0.950 . S
H637 C648 0.950 . S
H638 C650 0.950 . S
H639 C651 0.950 . S
C640 H632 0.950 . S
C640 C641 1.386 . S
C640 C642 1.391 . S
C641 C640 1.386 . S
C641 C645 1.393 . S
C642 H634 0.950 . S
C642 C640 1.391 . S
C642 C643 1.400 . S
C643 C642 1.400 . S
C643 C644 1.398 . S
C643 C649 1.491 . S
C644 H635 0.950 . S
C644 C643 1.398 . S
C644 C645 1.391 . S
C645 H633 0.950 . S
C645 C641 1.393 . S
C645 C644 1.391 . S
C646 H636 0.950 . S
C646 C647 1.386 . S
C646 C648 1.391 . S
C647 C646 1.386 . S
C647 C651 1.393 . S
C648 H637 0.950 . S
C648 C646 1.391 . S
C648 C649 1.400 . S
C649 C643 1.491 . S
C649 C648 1.400 . S
C649 C650 1.398 . S
C650 H638 0.950 . S
C650 C649 1.398 . S
C650 C651 1.391 . S
C651 H639 0.950 . S
C651 C647 1.393 . S
C651 C650 1.391 . S
H652 C660 0.950 . S
H653 C665 0.950 . S
H654 C662 0.950 . S
H655 C664 0.950 . S
H656 C666 0.950 . S
H657 C668 0.950 . S
H658 C670 0.950 . S
H659 C671 0.950 . S
C660 H652 0.950 . S
C660 C661 1.386 . S
C660 C662 1.391 . S
C661 C660 1.386 . S
C661 C665 1.393 . S
C662 H654 0.950 . S
C662 C660 1.391 . S
C662 C663 1.400 . S
C663 C662 1.400 . S
C663 C664 1.398 . S
C663 C669 1.491 . S
C664 H655 0.950 . S
C664 C663 1.398 . S
C664 C665 1.391 . S
C665 H653 0.950 . S
C665 C661 1.393 . S
C665 C664 1.391 . S
C666 H656 0.950 . S
C666 C667 1.386 1_455 S
C666 C668 1.391 . S
C667 C666 1.386 1_655 S
C667 C671 1.393 . S
C668 H657 0.950 . S
C668 C666 1.391 . S
C668 C669 1.400 . S
C669 C663 1.491 . S
C669 C668 1.400 . S
C669 C670 1.398 . S
C670 H658 0.950 . S
C670 C669 1.398 . S
C670 C671 1.391 1_455 S
C671 H659 0.950 . S
C671 C667 1.393 . S
C671 C670 1.391 1_655 S
C281 C175 1.395 . S
C287 C5 1.384 . S
C301 C209 1.395 1_655 S
C307 C39 1.386 1_545 S
C321 C73 1.393 . S
C327 C243 1.377 . S
C341 C141 1.372 1_455 S
C347 C107 1.384 1_565 S
C361 C271 1.448 . S
C367 C33 1.449 . S
C381 C67 1.450 . S
C387 C169 1.450 . S
C401 C203 1.445 . S
C407 C101 1.446 . S
C421 C135 1.448 . S
C427 C237 1.446 . S
C441 C258 1.395 . S
C447 C20 1.395 . S
C461 C54 1.399 . S
C467 C156 1.396 . S
C481 C190 1.397 . S
C487 C88 1.398 . S
C501 C224 1.398 . S
C507 C122 1.398 . S
C521 C9 1.641 1_556 S
C527 C104 1.653 . S
C541 C2 1.650 . S
C547 C43 1.646 . S
C561 C36 1.659 . S
C567 C77 1.632 . S
C581 C70 1.652 . S
C587 C111 1.642 . S
C601 C145 1.645 . S
C607 C172 1.650 . S
C621 C206 1.650 . S
C627 C179 1.646 . S
C641 C240 1.657 . S
C647 C213 1.636 . S
C661 C247 1.642 . S
C667 C138 1.652 . S
