# Generated by pormake.
# Topology umd, (4)-cn, num edge types: 1
# Building blocks:
#     Node 0, Type 0, BuildingBlock: CEKHIL_clean_sbu_0, # of connection points: 4
#     Node 1, Type 0, BuildingBlock: CEKHIL_clean_sbu_0, # of connection points: 4
#     Node 2, Type 0, BuildingBlock: CEKHIL_clean_sbu_0, # of connection points: 4
#     Node 3, Type 0, BuildingBlock: CEKHIL_clean_sbu_0, # of connection points: 4
#     Node 4, Type 0, BuildingBlock: CEKHIL_clean_sbu_0, # of connection points: 4
#     Node 5, Type 0, BuildingBlock: CEKHIL_clean_sbu_0, # of connection points: 4
#     Node 6, Type 0, BuildingBlock: CEKHIL_clean_sbu_0, # of connection points: 4
#     Node 7, Type 0, BuildingBlock: CEKHIL_clean_sbu_0, # of connection points: 4
#     Node 8, Type 0, BuildingBlock: CEKHIL_clean_sbu_0, # of connection points: 4
#     Node 9, Type 0, BuildingBlock: CEKHIL_clean_sbu_0, # of connection points: 4
#     Node 10, Type 0, BuildingBlock: CEKHIL_clean_sbu_0, # of connection points: 4
#     Node 11, Type 0, BuildingBlock: CEKHIL_clean_sbu_0, # of connection points: 4
#     Node 12, Type 0, BuildingBlock: CEKHIL_clean_sbu_0, # of connection points: 4
#     Node 13, Type 0, BuildingBlock: CEKHIL_clean_sbu_0, # of connection points: 4
#     Node 14, Type 0, BuildingBlock: CEKHIL_clean_sbu_0, # of connection points: 4
#     Node 15, Type 0, BuildingBlock: CEKHIL_clean_sbu_0, # of connection points: 4
#     Edge 16, Type (0, 0), BuildingBlock: XUDNAN_clean_linker_2, # of connection points: 2
#     Edge 17, Type (0, 0), BuildingBlock: XUDNAN_clean_linker_2, # of connection points: 2
#     Edge 18, Type (0, 0), BuildingBlock: XUDNAN_clean_linker_2, # of connection points: 2
#     Edge 19, Type (0, 0), BuildingBlock: XUDNAN_clean_linker_2, # of connection points: 2
#     Edge 20, Type (0, 0), BuildingBlock: XUDNAN_clean_linker_2, # of connection points: 2
#     Edge 21, Type (0, 0), BuildingBlock: XUDNAN_clean_linker_2, # of connection points: 2
#     Edge 22, Type (0, 0), BuildingBlock: XUDNAN_clean_linker_2, # of connection points: 2
#     Edge 23, Type (0, 0), BuildingBlock: XUDNAN_clean_linker_2, # of connection points: 2
#     Edge 24, Type (0, 0), BuildingBlock: XUDNAN_clean_linker_2, # of connection points: 2
#     Edge 25, Type (0, 0), BuildingBlock: XUDNAN_clean_linker_2, # of connection points: 2
#     Edge 26, Type (0, 0), BuildingBlock: XUDNAN_clean_linker_2, # of connection points: 2
#     Edge 27, Type (0, 0), BuildingBlock: XUDNAN_clean_linker_2, # of connection points: 2
#     Edge 28, Type (0, 0), BuildingBlock: XUDNAN_clean_linker_2, # of connection points: 2
#     Edge 29, Type (0, 0), BuildingBlock: XUDNAN_clean_linker_2, # of connection points: 2
#     Edge 30, Type (0, 0), BuildingBlock: XUDNAN_clean_linker_2, # of connection points: 2
#     Edge 31, Type (0, 0), BuildingBlock: XUDNAN_clean_linker_2, # of connection points: 2
#     Edge 32, Type (0, 0), BuildingBlock: XUDNAN_clean_linker_2, # of connection points: 2
#     Edge 33, Type (0, 0), BuildingBlock: XUDNAN_clean_linker_2, # of connection points: 2
#     Edge 34, Type (0, 0), BuildingBlock: XUDNAN_clean_linker_2, # of connection points: 2
#     Edge 35, Type (0, 0), BuildingBlock: XUDNAN_clean_linker_2, # of connection points: 2
#     Edge 36, Type (0, 0), BuildingBlock: XUDNAN_clean_linker_2, # of connection points: 2
#     Edge 37, Type (0, 0), BuildingBlock: XUDNAN_clean_linker_2, # of connection points: 2
#     Edge 38, Type (0, 0), BuildingBlock: XUDNAN_clean_linker_2, # of connection points: 2
#     Edge 39, Type (0, 0), BuildingBlock: XUDNAN_clean_linker_2, # of connection points: 2
#     Edge 40, Type (0, 0), BuildingBlock: XUDNAN_clean_linker_2, # of connection points: 2
#     Edge 41, Type (0, 0), BuildingBlock: XUDNAN_clean_linker_2, # of connection points: 2
#     Edge 42, Type (0, 0), BuildingBlock: XUDNAN_clean_linker_2, # of connection points: 2
#     Edge 43, Type (0, 0), BuildingBlock: XUDNAN_clean_linker_2, # of connection points: 2
#     Edge 44, Type (0, 0), BuildingBlock: XUDNAN_clean_linker_2, # of connection points: 2
#     Edge 45, Type (0, 0), BuildingBlock: XUDNAN_clean_linker_2, # of connection points: 2
#     Edge 46, Type (0, 0), BuildingBlock: XUDNAN_clean_linker_2, # of connection points: 2
#     Edge 47, Type (0, 0), BuildingBlock: XUDNAN_clean_linker_2, # of connection points: 2
# Relax obj value: 0.093
# Max RMSD: 0.227
# Mean RMSD: 0.227
data_MOF--net-umd--node1-CEKHIL_clean_sbu_0--edge1-XUDNAN_clean_linker_2
_symmetry_space_group_name_H-M    P1
_symmetry_Int_Tables_number       1
_symmetry_cell_setting            triclinic
loop_
_symmetry_equiv_pos_as_xyz
'x, y, z'
_cell_length_a     38.693963
_cell_length_b     38.73003
_cell_length_c     55.369008
_cell_angle_alpha  90.003212
_cell_angle_beta   90.00674
_cell_angle_gamma 89.971473
loop_
_atom_site_label
_atom_site_type_symbol
_atom_site_fract_x
_atom_site_fract_y
_atom_site_fract_z
_atom_type_partial_charge
Co0 Co 0.18825 0.44089 0.12597 0.0
O1 O 0.23417 0.42254 0.12583 0.0
O2 O 0.18975 0.39825 0.10732 0.0
C3 C 0.18593 0.45089 0.16593 0.0
O4 O 0.13685 0.45282 0.12333 0.0
Co5 Co 0.1785 0.51734 0.13914 0.0
O6 O 0.12888 0.50504 0.14025 0.0
C7 C 0.20237 0.50014 0.09044 0.0
C8 C 0.22246 0.39728 0.11289 0.0
C9 C 0.11706 0.47745 0.13084 0.0
O10 O 0.19875 0.4682 0.09605 0.0
O11 O 0.19752 0.52463 0.1056 0.0
O12 O 0.17957 0.4205 0.15716 0.0
O13 O 0.19717 0.4736 0.15057 0.0
Co14 Co 0.54442 0.19865 0.62509 0.0
O15 O 0.5717 0.23965 0.6251 0.0
O16 O 0.59125 0.1882 0.61431 0.0
C17 C 0.52066 0.20654 0.66173 0.0
O18 O 0.5225 0.15041 0.62408 0.0
Co19 Co 0.46495 0.20772 0.62443 0.0
O20 O 0.46646 0.15835 0.63353 0.0
C21 C 0.50355 0.22067 0.58006 0.0
C22 C 0.59713 0.22108 0.6172 0.0
C23 C 0.49245 0.13869 0.63012 0.0
O24 O 0.53059 0.20891 0.59075 0.0
O25 O 0.47433 0.22416 0.59058 0.0
O26 O 0.55128 0.19311 0.65966 0.0
O27 O 0.50724 0.21828 0.64191 0.0
Co28 Co 0.80389 0.55319 0.13148 0.0
O29 O 0.76285 0.58031 0.13372 0.0
O30 O 0.81262 0.59994 0.11965 0.0
C31 C 0.80019 0.52983 0.16858 0.0
O32 O 0.8517 0.53098 0.12722 0.0
Co33 Co 0.79379 0.47358 0.1321 0.0
O34 O 0.84487 0.47353 0.13239 0.0
C35 C 0.77824 0.51154 0.08781 0.0
C36 C 0.78002 0.60553 0.12419 0.0
C37 C 0.86382 0.49992 0.12865 0.0
O38 O 0.78998 0.53889 0.09801 0.0
O39 O 0.77563 0.48246 0.09862 0.0
O40 O 0.81359 0.56029 0.16565 0.0
O41 O 0.78623 0.51639 0.14954 0.0
Co42 Co 0.44222 0.81411 0.63084 0.0
O43 O 0.42202 0.76892 0.63167 0.0
O44 O 0.39405 0.81655 0.62122 0.0
C45 C 0.46865 0.81121 0.66691 0.0
O46 O 0.45427 0.86535 0.62899 0.0
Co47 Co 0.52163 0.82282 0.62918 0.0
O48 O 0.51168 0.87265 0.63325 0.0
C49 C 0.48533 0.79981 0.58563 0.0
C50 C 0.39344 0.78332 0.62462 0.0
C51 C 0.48118 0.8847 0.6313 0.0
O52 O 0.45648 0.80596 0.59632 0.0
O53 O 0.51471 0.80286 0.59602 0.0
O54 O 0.43605 0.81895 0.66549 0.0
O55 O 0.48332 0.80212 0.64685 0.0
Co56 Co 0.18738 0.55581 0.37042 0.0
O57 O 0.23165 0.57715 0.36624 0.0
O58 O 0.18503 0.60365 0.38032 0.0
C59 C 0.18586 0.52937 0.33439 0.0
O60 O 0.13711 0.54272 0.37618 0.0
Co61 Co 0.18028 0.47657 0.37281 0.0
O62 O 0.12991 0.48566 0.37094 0.0
C63 C 0.20793 0.51355 0.4148 0.0
C64 C 0.21755 0.60522 0.37445 0.0
C65 C 0.11774 0.51579 0.37451 0.0
O66 O 0.20062 0.54208 0.40414 0.0
O67 O 0.20369 0.48398 0.40489 0.0
O68 O 0.17736 0.5617 0.33634 0.0
O69 O 0.19803 0.51494 0.35372 0.0
Co70 Co 0.43947 0.19559 0.87148 0.0
O71 O 0.41114 0.23576 0.87457 0.0
O72 O 0.39909 0.18534 0.89141 0.0
C73 C 0.44701 0.19958 0.83121 0.0
O74 O 0.4639 0.14858 0.87143 0.0
Co75 Co 0.51523 0.2079 0.85567 0.0
O76 O 0.51724 0.15688 0.85602 0.0
C77 C 0.49581 0.22235 0.90579 0.0
C78 C 0.39071 0.21757 0.88798 0.0
C79 C 0.49379 0.13731 0.86462 0.0
O80 O 0.46583 0.20981 0.90113 0.0
O81 O 0.51912 0.22628 0.88961 0.0
O82 O 0.41948 0.18532 0.84011 0.0
O83 O 0.46719 0.2143 0.84677 0.0
Co84 Co 0.80689 0.44424 0.37779 0.0
O85 O 0.76862 0.41352 0.37499 0.0
O86 O 0.81727 0.40067 0.39406 0.0
C87 C 0.8068 0.45893 0.33846 0.0
O88 O 0.85267 0.46986 0.38271 0.0
Co89 Co 0.79459 0.52118 0.36916 0.0
O90 O 0.84541 0.52374 0.36845 0.0
C91 C 0.77604 0.49265 0.41613 0.0
C92 C 0.78682 0.391 0.38664 0.0
C93 C 0.86454 0.49982 0.37679 0.0
O94 O 0.78733 0.46335 0.4087 0.0
O95 O 0.77563 0.51976 0.40298 0.0
O96 O 0.82226 0.43125 0.34598 0.0
O97 O 0.78907 0.47569 0.35457 0.0
Co98 Co 0.56225 0.81566 0.87463 0.0
O99 O 0.58304 0.77087 0.87471 0.0
O100 O 0.60591 0.81697 0.89209 0.0
C101 C 0.5503 0.81641 0.83485 0.0
O102 O 0.54808 0.86638 0.87708 0.0
Co103 Co 0.48497 0.82176 0.86322 0.0
O104 O 0.49406 0.87207 0.8626 0.0
C105 C 0.50563 0.79684 0.911 0.0
C106 C 0.6084 0.78431 0.88672 0.0
C107 C 0.52199 0.88505 0.87071 0.0
O108 O 0.53698 0.80402 0.90529 0.0
O109 O 0.48057 0.79965 0.89604 0.0
O110 O 0.58061 0.82477 0.84291 0.0
O111 O 0.52882 0.8045 0.85083 0.0
Co112 Co 0.81168 0.55496 0.86784 0.0
O113 O 0.76745 0.57727 0.86795 0.0
O114 O 0.81669 0.60264 0.87801 0.0
C115 C 0.80703 0.52896 0.83181 0.0
O116 O 0.86231 0.53997 0.86869 0.0
Co117 Co 0.81459 0.47508 0.86994 0.0
O118 O 0.865 0.48188 0.8659 0.0
C119 C 0.79431 0.51319 0.91308 0.0
C120 C 0.78329 0.60475 0.8755 0.0
C121 C 0.87931 0.51144 0.86689 0.0
O122 O 0.80392 0.54097 0.90237 0.0
O123 O 0.7941 0.48364 0.90277 0.0
O124 O 0.81581 0.56129 0.83317 0.0
O125 O 0.79731 0.51477 0.8519 0.0
Co126 Co 0.44332 0.81673 0.36966 0.0
O127 O 0.42105 0.77364 0.36313 0.0
O128 O 0.3968 0.81733 0.38265 0.0
C129 C 0.46455 0.82504 0.33248 0.0
O130 O 0.45796 0.86555 0.37869 0.0
Co131 Co 0.5221 0.82184 0.36798 0.0
O132 O 0.51394 0.87227 0.36918 0.0
C133 C 0.49015 0.79206 0.41098 0.0
C134 C 0.39426 0.78606 0.3742 0.0
C135 C 0.48499 0.88453 0.37595 0.0
O136 O 0.46074 0.79807 0.40118 0.0
O137 O 0.51887 0.79866 0.4005 0.0
O138 O 0.43291 0.83322 0.3377 0.0
O139 O 0.48161 0.80848 0.34906 0.0
Co140 Co 0.19246 0.4363 0.87885 0.0
O141 O 0.23487 0.41288 0.88547 0.0
O142 O 0.18369 0.39469 0.89785 0.0
C143 C 0.20235 0.44391 0.8392 0.0
O144 O 0.14316 0.45476 0.87405 0.0
Co145 Co 0.19762 0.51279 0.86294 0.0
O146 O 0.14925 0.50422 0.85301 0.0
C147 C 0.20675 0.4958 0.91415 0.0
C148 C 0.21698 0.38973 0.89674 0.0
C149 C 0.1306 0.48001 0.86155 0.0
O150 O 0.19858 0.46442 0.90915 0.0
O151 O 0.20985 0.51926 0.898 0.0
O152 O 0.19013 0.41495 0.84723 0.0
O153 O 0.2118 0.46593 0.85555 0.0
Co154 Co 0.56395 0.19148 0.36961 0.0
O155 O 0.59551 0.22857 0.36414 0.0
O156 O 0.60679 0.18324 0.38724 0.0
C157 C 0.54897 0.18467 0.33054 0.0
O158 O 0.53774 0.14735 0.37813 0.0
Co159 Co 0.48711 0.20362 0.36031 0.0
O160 O 0.48277 0.15345 0.36557 0.0
C161 C 0.51592 0.22802 0.40581 0.0
C162 C 0.6171 0.21239 0.37798 0.0
C163 C 0.50707 0.13542 0.37457 0.0
O164 O 0.54503 0.21585 0.39877 0.0
O165 O 0.48857 0.22677 0.39289 0.0
O166 O 0.57673 0.17069 0.33935 0.0
O167 O 0.53259 0.20551 0.34498 0.0
Co168 Co 0.81845 0.43084 0.62555 0.0
O169 O 0.77438 0.40881 0.62801 0.0
O170 O 0.81947 0.38664 0.60883 0.0
C171 C 0.82245 0.4448 0.66487 0.0
O172 O 0.86846 0.44598 0.62027 0.0
Co173 Co 0.82456 0.50831 0.63422 0.0
O174 O 0.87494 0.49966 0.63487 0.0
C175 C 0.79487 0.48495 0.58865 0.0
C176 C 0.78731 0.38372 0.61543 0.0
C177 C 0.88753 0.47189 0.62631 0.0
O178 O 0.80247 0.45409 0.59515 0.0
O179 O 0.80026 0.51132 0.60203 0.0
O180 O 0.83126 0.41445 0.65709 0.0
O181 O 0.80855 0.46527 0.64897 0.0
Co182 Co 0.55384 0.80962 0.12501 0.0
O183 O 0.57922 0.76738 0.1266 0.0
O184 O 0.59859 0.81497 0.10913 0.0
C185 C 0.53783 0.81076 0.16409 0.0
O186 O 0.53358 0.85815 0.12086 0.0
Co187 Co 0.47454 0.80404 0.13409 0.0
O188 O 0.47696 0.85483 0.13058 0.0
C189 C 0.50213 0.78379 0.08682 0.0
C190 C 0.6038 0.78279 0.115 0.0
C191 C 0.5035 0.87196 0.12402 0.0
O192 O 0.53213 0.79448 0.09354 0.0
O193 O 0.47608 0.78273 0.10105 0.0
O194 O 0.56813 0.82176 0.15774 0.0
O195 O 0.52006 0.79586 0.1473 0.0
Co196 Co 0.20027 0.54524 0.63388 0.0
O197 O 0.24089 0.57271 0.63713 0.0
O198 O 0.19091 0.59244 0.62339 0.0
C199 C 0.20392 0.52001 0.67038 0.0
O200 O 0.15281 0.52286 0.62874 0.0
Co201 Co 0.21101 0.46579 0.63263 0.0
O202 O 0.15995 0.4654 0.63333 0.0
C203 C 0.22635 0.50606 0.58924 0.0
C204 C 0.22331 0.59826 0.6284 0.0
C205 C 0.14085 0.49175 0.62977 0.0
O206 O 0.21471 0.53294 0.6001 0.0
O207 O 0.22888 0.47645 0.59934 0.0
O208 O 0.19008 0.55041 0.66812 0.0
O209 O 0.21825 0.50771 0.6511 0.0
Co210 Co 0.45682 0.19682 0.12229 0.0
O211 O 0.43624 0.24209 0.12239 0.0
O212 O 0.41097 0.19486 0.10842 0.0
C213 C 0.47691 0.19782 0.16049 0.0
O214 O 0.46906 0.14569 0.11996 0.0
Co215 Co 0.53602 0.18714 0.12786 0.0
O216 O 0.52497 0.13713 0.1293 0.0
C217 C 0.50806 0.21215 0.08166 0.0
C218 C 0.40927 0.22786 0.11258 0.0
C219 C 0.49509 0.12566 0.12392 0.0
O220 O 0.47732 0.20593 0.0894 0.0
O221 O 0.53497 0.20909 0.09495 0.0
O222 O 0.44468 0.19066 0.15629 0.0
O223 O 0.49483 0.20748 0.14197 0.0
H224 H 0.06769 0.52479 0.14422 0.0
H225 H 0.08007 0.42422 0.11047 0.0
H226 H 0.01685 0.42084 0.10472 0.0
H227 H 0.98963 0.50545 0.17611 0.0
H228 H 0.97123 0.54777 0.17178 0.0
H229 H 0.01744 0.5425 0.17289 0.0
H230 H 0.02288 0.57225 0.13116 0.0
H231 H 0.97664 0.57743 0.12984 0.0
H232 H 0.99903 0.5554 0.1058 0.0
H233 H 0.95277 0.42767 0.10351 0.0
H234 H 0.89142 0.44334 0.10749 0.0
H235 H 0.92014 0.54028 0.14132 0.0
C236 C 0.05725 0.50199 0.13558 0.0
C237 C 0.07903 0.47471 0.12777 0.0
C238 C 0.06406 0.44541 0.11662 0.0
C239 C 0.02818 0.44331 0.11322 0.0
C240 C 0.00763 0.47075 0.12101 0.0
C241 C 0.02157 0.4995 0.13199 0.0
C242 C 0.99366 0.52516 0.13907 0.0
C243 C 0.99295 0.53052 0.1666 0.0
C244 C 0.99834 0.5596 0.12566 0.0
C245 C 0.9617 0.50625 0.13042 0.0
C246 C 0.97049 0.47492 0.12006 0.0
C247 C 0.94561 0.45216 0.11148 0.0
C248 C 0.91082 0.46131 0.11389 0.0
C249 C 0.90102 0.49306 0.1247 0.0
C250 C 0.92689 0.51609 0.13271 0.0
H251 H 0.52706 0.93489 0.61715 0.0
H252 H 0.42519 0.91985 0.64824 0.0
H253 H 0.41849 0.98299 0.65232 0.0
H254 H 0.5531 0.00725 0.65311 0.0
H255 H 0.57426 0.02967 0.62871 0.0
H256 H 0.57154 0.98325 0.62836 0.0
H257 H 0.54205 0.98527 0.58639 0.0
H258 H 0.5449 0.0317 0.58652 0.0
H259 H 0.50363 0.01098 0.58235 0.0
H260 H 0.42323 0.04658 0.65415 0.0
H261 H 0.43637 0.10821 0.65066 0.0
H262 H 0.5347 0.0837 0.6167 0.0
C263 C 0.50336 0.94495 0.62482 0.0
C264 C 0.47662 0.92253 0.63248 0.0
C265 C 0.44584 0.93658 0.64214 0.0
C266 C 0.44191 0.97236 0.64465 0.0
C267 C 0.4688 0.99371 0.63708 0.0
C268 C 0.49874 0.98069 0.62706 0.0
C269 C 0.52303 0.00959 0.61957 0.0
C270 C 0.55752 0.00729 0.63326 0.0
C271 C 0.52873 0.00936 0.59208 0.0
C272 C 0.50225 0.04089 0.62738 0.0
C273 C 0.47114 0.03091 0.63749 0.0
C274 C 0.44736 0.05476 0.64609 0.0
C275 C 0.45516 0.08982 0.64395 0.0
C276 C 0.48651 0.10105 0.63316 0.0
C277 C 0.51056 0.07607 0.62502 0.0
H278 H 0.06812 0.46479 0.37567 0.0
H279 H 0.08135 0.57615 0.37888 0.0
H280 H 0.01829 0.58328 0.38229 0.0
H281 H 0.99234 0.46488 0.33968 0.0
H282 H 0.97225 0.42913 0.35507 0.0
H283 H 0.01863 0.43243 0.35411 0.0
H284 H 0.02095 0.42966 0.40084 0.0
H285 H 0.97451 0.42642 0.40195 0.0
H286 H 0.99629 0.46021 0.41836 0.0
H287 H 0.9545 0.57891 0.38331 0.0
H288 H 0.89296 0.56356 0.38162 0.0
H289 H 0.92002 0.45478 0.37836 0.0
C290 C 0.05784 0.4907 0.37723 0.0
C291 C 0.07983 0.51993 0.37702 0.0
C292 C 0.06517 0.55334 0.37906 0.0
C293 C 0.02936 0.55767 0.38105 0.0
C294 C 0.00852 0.52837 0.38114 0.0
C295 C 0.02211 0.49552 0.37934 0.0
C296 C 0.99375 0.46846 0.37921 0.0
C297 C 0.99428 0.4475 0.35561 0.0
C298 C 0.99655 0.44479 0.40141 0.0
C299 C 0.96204 0.49136 0.38071 0.0
C300 C 0.97132 0.52579 0.38195 0.0
C301 C 0.94687 0.55205 0.38252 0.0
C302 C 0.91195 0.543 0.38147 0.0
C303 C 0.90164 0.50793 0.37988 0.0
C304 C 0.92709 0.48175 0.37987 0.0
H305 H 0.469 0.93211 0.86708 0.0
H306 H 0.57983 0.92445 0.87858 0.0
H307 H 0.58363 0.98804 0.87995 0.0
H308 H 0.47051 0.00499 0.82852 0.0
H309 H 0.43188 0.02435 0.84069 0.0
H310 H 0.43742 0.97822 0.84172 0.0
H311 H 0.42838 0.979 0.88807 0.0
H312 H 0.42273 0.02518 0.8872 0.0
H313 H 0.45514 0.00642 0.90657 0.0
H314 H 0.57619 0.05172 0.87739 0.0
H315 H 0.55807 0.11217 0.87283 0.0
H316 H 0.45141 0.0795 0.86433 0.0
C317 C 0.4941 0.94373 0.87003 0.0
C318 C 0.5242 0.92318 0.87267 0.0
C319 C 0.55643 0.93954 0.87658 0.0
C320 C 0.55884 0.97565 0.87736 0.0
C321 C 0.52874 0.99504 0.87447 0.0
C322 C 0.49693 0.97972 0.87108 0.0
C323 C 0.46866 0.00661 0.8681 0.0
C324 C 0.4511 0.00334 0.84328 0.0
C325 C 0.44217 0.00415 0.88872 0.0
C326 C 0.48969 0.03952 0.86987 0.0
C327 C 0.52428 0.03209 0.87355 0.0
C328 C 0.54917 0.05787 0.87473 0.0
C329 C 0.53856 0.09215 0.87198 0.0
C330 C 0.50328 0.1006 0.86821 0.0
C331 C 0.47846 0.07386 0.86744 0.0
H332 H 0.92891 0.48116 0.89504 0.0
H333 H 0.91376 0.54291 0.83063 0.0
H334 H 0.97609 0.5379 0.82112 0.0
H335 H 0.01326 0.52006 0.91006 0.0
H336 H 0.03034 0.48035 0.92213 0.0
H337 H 0.98464 0.489 0.92374 0.0
H338 H 0.97253 0.43122 0.90177 0.0
H339 H 0.0182 0.42272 0.89965 0.0
H340 H 0.99201 0.42319 0.87272 0.0
H341 H 0.03843 0.52377 0.81749 0.0
H342 H 0.09986 0.50925 0.82273 0.0
H343 H 0.07647 0.4589 0.89086 0.0
C344 C 0.93901 0.49399 0.87916 0.0
C345 C 0.91693 0.51262 0.86355 0.0
C346 C 0.9306 0.52903 0.84289 0.0
C347 C 0.96579 0.52602 0.83727 0.0
C348 C 0.98689 0.50701 0.85277 0.0
C349 C 0.9743 0.49198 0.87361 0.0
C350 C 0.00302 0.47441 0.88771 0.0
C351 C 0.00812 0.492 0.91237 0.0
C352 C 0.99601 0.43557 0.89062 0.0
C353 C 0.03355 0.481 0.87114 0.0
C354 C 0.02344 0.49972 0.85107 0.0
C355 C 0.04674 0.50941 0.83322 0.0
C356 C 0.08157 0.50095 0.83636 0.0
C357 C 0.09297 0.48304 0.85724 0.0
C358 C 0.06846 0.47222 0.8746 0.0
H359 H 0.55069 0.0795 0.37356 0.0
H360 H 0.44487 0.10975 0.38857 0.0
H361 H 0.42892 0.04871 0.39434 0.0
H362 H 0.52986 0.00822 0.33842 0.0
H363 H 0.56481 0.98116 0.34869 0.0
H364 H 0.56939 0.02736 0.34927 0.0
H365 H 0.58342 0.0252 0.39502 0.0
H366 H 0.57913 0.97886 0.39455 0.0
H367 H 0.5538 0.00414 0.41538 0.0
H368 H 0.42297 0.98468 0.39458 0.0
H369 H 0.42749 0.92163 0.38908 0.0
H370 H 0.53686 0.93271 0.37301 0.0
C371 C 0.52443 0.07325 0.37873 0.0
C372 C 0.49906 0.09927 0.38079 0.0
C373 C 0.4647 0.09014 0.38692 0.0
C374 C 0.45541 0.05558 0.39033 0.0
C375 C 0.48075 0.03041 0.38751 0.0
C376 C 0.51459 0.03875 0.38193 0.0
C377 C 0.53602 0.00656 0.3778 0.0
C378 C 0.55088 0.00579 0.35202 0.0
C379 C 0.56479 0.00352 0.39683 0.0
C380 C 0.50872 0.97899 0.38131 0.0
C381 C 0.47715 0.99328 0.38722 0.0
C382 C 0.44766 0.9731 0.39025 0.0
C383 C 0.45047 0.9373 0.38702 0.0
C384 C 0.48251 0.9221 0.38063 0.0
C385 C 0.512 0.94338 0.37801 0.0
H386 H 0.93628 0.52143 0.63693 0.0
H387 H 0.92511 0.41717 0.60894 0.0
H388 H 0.98842 0.41282 0.60499 0.0
H389 H 0.0089 0.54645 0.59869 0.0
H390 H 0.02965 0.57112 0.62218 0.0
H391 H 0.98327 0.56689 0.62183 0.0
H392 H 0.98469 0.54273 0.66544 0.0
H393 H 0.03103 0.54687 0.66593 0.0
H394 H 0.01125 0.50568 0.67212 0.0
H395 H 0.05215 0.4183 0.60596 0.0
H396 H 0.11334 0.43302 0.61148 0.0
H397 H 0.08441 0.53437 0.63835 0.0
C398 C 0.94705 0.49773 0.62978 0.0
C399 C 0.92556 0.46961 0.62321 0.0
C400 C 0.94087 0.43907 0.61406 0.0
C401 C 0.97684 0.43637 0.61171 0.0
C402 C 0.99715 0.46446 0.61848 0.0
C403 C 0.98291 0.49461 0.62726 0.0
C404 C 0.01078 0.52055 0.63389 0.0
C405 C 0.00798 0.55318 0.61821 0.0
C406 C 0.00935 0.52947 0.66095 0.0
C407 C 0.04299 0.50002 0.62779 0.0
C408 C 0.03433 0.46779 0.61886 0.0
C409 C 0.05926 0.4435 0.61278 0.0
C410 C 0.09399 0.45213 0.61611 0.0
C411 C 0.10372 0.48486 0.62541 0.0
C412 C 0.07779 0.50932 0.631 0.0
H413 H 0.54332 0.07439 0.13179 0.0
H414 H 0.4364 0.09091 0.11059 0.0
H415 H 0.42875 0.02811 0.1061 0.0
H416 H 0.56037 0.00269 0.09121 0.0
H417 H 0.58687 0.97977 0.11267 0.0
H418 H 0.58463 0.02623 0.11361 0.0
H419 H 0.5656 0.02375 0.15844 0.0
H420 H 0.56795 0.97733 0.15767 0.0
H421 H 0.52843 0.99831 0.16671 0.0
H422 H 0.43174 0.96426 0.10506 0.0
H423 H 0.44445 0.9023 0.10867 0.0
H424 H 0.54975 0.9259 0.13017 0.0
C425 C 0.51829 0.06489 0.12612 0.0
C426 C 0.49045 0.08778 0.12151 0.0
C427 C 0.45814 0.07407 0.11424 0.0
C428 C 0.45355 0.0384 0.11155 0.0
C429 C 0.48151 0.0167 0.11615 0.0
C430 C 0.51324 0.0293 0.12333 0.0
C431 C 0.5387 1.00012 0.12777 0.0
C432 C 0.56946 0.00235 0.11027 0.0
C433 C 0.55087 0.99987 0.15422 0.0
C434 C 0.51616 0.96911 0.1222 0.0
C435 C 0.48333 0.97945 0.11543 0.0
C436 C 0.45737 0.95583 0.11022 0.0
C437 C 0.46488 0.92068 0.11239 0.0
C438 C 0.49812 0.90926 0.11968 0.0
C439 C 0.52429 0.93386 0.12424 0.0
H440 H 0.18364 0.55815 0.28942 0.0
H441 H 0.18446 0.45972 0.32685 0.0
H442 H 0.18258 0.42933 0.28757 0.0
H443 H 0.12718 0.5336 0.24001 0.0
H444 H 0.15092 0.55796 0.21779 0.0
H445 H 0.15029 0.57201 0.24881 0.0
H446 H 0.21724 0.57121 0.24974 0.0
H447 H 0.21809 0.55713 0.21875 0.0
H448 H 0.23991 0.53221 0.24164 0.0
H449 H 0.18044 0.40994 0.24474 0.0
H450 H 0.18193 0.40189 0.20072 0.0
H451 H 0.186 0.51299 0.19054 0.0
C452 C 0.18305 0.53019 0.28932 0.0
C453 C 0.18388 0.51115 0.31109 0.0
C454 C 0.18375 0.47467 0.31033 0.0
C455 C 0.1826 0.45726 0.28814 0.0
C456 C 0.182 0.47679 0.26699 0.0
C457 C 0.1825 0.51243 0.26734 0.0
C458 C 0.18344 0.52719 0.24197 0.0
C459 C 0.15102 0.54898 0.23685 0.0
C460 C 0.21665 0.54816 0.23779 0.0
C461 C 0.18344 0.49422 0.22726 0.0
C462 C 0.1822 0.46554 0.24213 0.0
C463 C 0.18152 0.43217 0.23292 0.0
C464 C 0.1823 0.42792 0.20786 0.0
C465 C 0.18421 0.45685 0.19222 0.0
C466 C 0.18476 0.49045 0.20208 0.0
H467 H 0.5503 0.20323 0.70633 0.0
H468 H 0.45128 0.21325 0.67023 0.0
H469 H 0.42183 0.2131 0.70994 0.0
H470 H 0.52335 0.14737 0.75385 0.0
H471 H 0.54984 0.16758 0.77659 0.0
H472 H 0.56307 0.1685 0.74542 0.0
H473 H 0.56673 0.23525 0.74697 0.0
H474 H 0.55361 0.23455 0.77818 0.0
H475 H 0.52959 0.25979 0.75657 0.0
H476 H 0.40327 0.20781 0.75318 0.0
H477 H 0.39664 0.20337 0.7974 0.0
H478 H 0.50808 0.20156 0.80575 0.0
C479 C 0.5224 0.20547 0.7068 0.0
C480 C 0.50293 0.20803 0.68527 0.0
C481 C 0.46658 0.21128 0.68655 0.0
C482 C 0.44969 0.21114 0.70899 0.0
C483 C 0.46966 0.20833 0.72988 0.0
C484 C 0.50525 0.20605 0.72902 0.0
C485 C 0.5207 0.20396 0.75415 0.0
C486 C 0.5404 0.16982 0.7577 0.0
C487 C 0.54403 0.23526 0.75926 0.0
C488 C 0.48818 0.20503 0.76934 0.0
C489 C 0.45904 0.20716 0.75493 0.0
C490 C 0.42589 0.20661 0.76465 0.0
C491 C 0.4224 0.20394 0.78975 0.0
C492 C 0.45187 0.20247 0.80489 0.0
C493 C 0.48519 0.20323 0.79456 0.0
H494 H 0.8093 0.56005 0.21272 0.0
H495 H 0.78842 0.46169 0.17813 0.0
H496 H 0.78641 0.4335 0.21818 0.0
H497 H 0.86329 0.5282 0.26034 0.0
H498 H 0.84643 0.55735 0.28282 0.0
H499 H 0.84649 0.56974 0.25147 0.0
H500 H 0.78052 0.58083 0.25348 0.0
H501 H 0.78021 0.56837 0.28483 0.0
H502 H 0.75218 0.54685 0.26362 0.0
H503 H 0.78951 0.41575 0.2613 0.0
H504 H 0.79459 0.4094 0.30546 0.0
H505 H 0.80943 0.51989 0.31281 0.0
C506 C 0.80441 0.53255 0.2136 0.0
C507 C 0.7992 0.5129 0.19239 0.0
C508 C 0.79247 0.47712 0.1942 0.0
C509 C 0.7913 0.46094 0.21683 0.0
C510 C 0.79643 0.48107 0.2374 0.0
C511 C 0.80257 0.51612 0.23605 0.0
C512 C 0.80672 0.53184 0.26099 0.0
C513 C 0.84288 0.54771 0.26408 0.0
C514 C 0.7782 0.55855 0.26602 0.0
C515 C 0.80232 0.50001 0.2766 0.0
C516 C 0.79665 0.47103 0.26252 0.0
C517 C 0.79356 0.43826 0.27253 0.0
C518 C 0.79658 0.43493 0.29758 0.0
C519 C 0.80211 0.46422 0.31238 0.0
C520 C 0.80462 0.49726 0.30183 0.0
H521 H 0.48757 0.8153 0.81086 0.0
H522 H 0.59861 0.81587 0.79954 0.0
H523 H 0.58973 0.81407 0.75561 0.0
H524 H 0.46577 0.75849 0.76144 0.0
H525 H 0.42724 0.78182 0.75312 0.0
H526 H 0.44203 0.78232 0.78397 0.0
H527 H 0.44327 0.84921 0.78325 0.0
H528 H 0.42848 0.8489 0.7524 0.0
H529 H 0.46785 0.87111 0.76022 0.0
H530 H 0.56954 0.81073 0.71306 0.0
H531 H 0.5385 0.80951 0.67404 0.0
H532 H 0.44062 0.81423 0.71222 0.0
C533 C 0.5099 0.81493 0.79908 0.0
C534 C 0.54374 0.81561 0.8086 0.0
C535 C 0.57241 0.81549 0.79265 0.0
C536 C 0.56769 0.81435 0.76764 0.0
C537 C 0.53412 0.81378 0.75876 0.0
C538 C 0.50566 0.81437 0.77389 0.0
C539 C 0.47241 0.81466 0.75942 0.0
C540 C 0.45058 0.7824 0.76481 0.0
C541 C 0.45179 0.84796 0.7641 0.0
C542 C 0.48676 0.81384 0.73392 0.0
C543 C 0.52241 0.8131 0.734 0.0
C544 C 0.54159 0.81152 0.7127 0.0
C545 C 0.52379 0.81078 0.69066 0.0
C546 C 0.48727 0.81198 0.69014 0.0
C547 C 0.46861 0.8136 0.71208 0.0
H548 H 0.80763 0.55609 0.78631 0.0
H549 H 0.81087 0.4591 0.82549 0.0
H550 H 0.81652 0.42755 0.78684 0.0
H551 H 0.756 0.52442 0.73662 0.0
H552 H 0.77794 0.55023 0.7143 0.0
H553 H 0.77498 0.56519 0.74503 0.0
H554 H 0.84164 0.57097 0.7468 0.0
H555 H 0.84483 0.55585 0.71611 0.0
H556 H 0.86824 0.53408 0.73979 0.0
H557 H 0.82423 0.40706 0.74456 0.0
H558 H 0.8278 0.39753 0.70076 0.0
H559 H 0.81579 0.50759 0.68825 0.0
C560 C 0.80955 0.52819 0.78673 0.0
C561 C 0.80903 0.50992 0.80883 0.0
C562 C 0.81118 0.47348 0.80872 0.0
C563 C 0.81453 0.45542 0.7869 0.0
C564 C 0.81518 0.47423 0.76542 0.0
C565 C 0.81228 0.50975 0.7651 0.0
C566 C 0.81254 0.52359 0.73946 0.0
C567 C 0.77832 0.54193 0.73351 0.0
C568 C 0.84367 0.54753 0.7353 0.0
C569 C 0.81624 0.49025 0.72538 0.0
C570 C 0.81812 0.46221 0.74081 0.0
C571 C 0.82252 0.42875 0.7323 0.0
C572 C 0.82466 0.42368 0.70735 0.0
C573 C 0.82192 0.45184 0.69108 0.0
C574 C 0.81773 0.4856 0.70026 0.0
H575 H 0.51018 0.78574 0.30598 0.0
H576 H 0.44738 0.87847 0.30365 0.0
H577 H 0.46108 0.88578 0.26048 0.0
H578 H 0.57683 0.81444 0.26183 0.0
H579 H 0.5804 0.77212 0.2485 0.0
H580 H 0.56921 0.77651 0.27995 0.0
H581 H 0.5141 0.74005 0.27262 0.0
H582 H 0.52475 0.73606 0.24109 0.0
H583 H 0.48351 0.7536 0.24995 0.0
H584 H 0.47678 0.88055 0.21724 0.0
H585 H 0.49701 0.8647 0.17638 0.0
H586 H 0.5489 0.77486 0.20572 0.0
C587 C 0.50028 0.8081 0.29648 0.0
C588 C 0.47801 0.83176 0.30807 0.0
C589 C 0.46462 0.86018 0.29502 0.0
C590 C 0.47221 0.86454 0.27052 0.0
C591 C 0.49316 0.84014 0.25931 0.0
C592 C 0.50733 0.81263 0.27182 0.0
C593 C 0.52718 0.78899 0.25494 0.0
C594 C 0.5657 0.78797 0.26171 0.0
C595 C 0.51143 0.75252 0.25464 0.0
C596 C 0.5215 0.8073 0.23105 0.0
C597 C 0.50184 0.83679 0.23406 0.0
C598 C 0.49231 0.8576 0.21463 0.0
C599 C 0.50356 0.84827 0.1915 0.0
C600 C 0.52386 0.81838 0.18808 0.0
C601 C 0.53305 0.79768 0.20803 0.0
H602 H 0.19762 0.50522 0.81424 0.0
H603 H 0.21466 0.39525 0.80535 0.0
H604 H 0.21812 0.40285 0.76118 0.0
H605 H 0.14177 0.51337 0.76296 0.0
H606 H 0.1571 0.55565 0.75457 0.0
H607 H 0.15858 0.54214 0.78569 0.0
H608 H 0.22434 0.55476 0.78702 0.0
H609 H 0.22302 0.56843 0.75593 0.0
H610 H 0.25243 0.53479 0.76511 0.0
H611 H 0.21991 0.42208 0.71816 0.0
H612 H 0.2169 0.45168 0.67861 0.0
H613 H 0.19435 0.54831 0.71504 0.0
C614 C 0.20255 0.48292 0.80296 0.0
C615 C 0.20624 0.44972 0.81309 0.0
C616 C 0.21188 0.42093 0.79783 0.0
C617 C 0.21393 0.42497 0.77276 0.0
C618 C 0.20973 0.45792 0.76322 0.0
C619 C 0.20387 0.48638 0.77777 0.0
C620 C 0.19824 0.51855 0.76271 0.0
C621 C 0.16175 0.53328 0.76672 0.0
C622 C 0.22618 0.54573 0.76801 0.0
C623 C 0.20213 0.50368 0.73753 0.0
C624 C 0.20905 0.46873 0.73825 0.0
C625 C 0.21436 0.44944 0.71731 0.0
C626 C 0.21263 0.46641 0.69497 0.0
C627 C 0.2052 0.50212 0.69383 0.0
C628 C 0.19974 0.52087 0.7154 0.0
H629 H 0.49164 0.20785 0.30489 0.0
H630 H 0.58974 0.15438 0.29693 0.0
H631 H 0.58143 0.15198 0.25308 0.0
H632 H 0.44677 0.15884 0.2576 0.0
H633 H 0.42238 0.19553 0.24706 0.0
H634 H 0.43551 0.19306 0.27823 0.0
H635 H 0.46562 0.25251 0.27432 0.0
H636 H 0.45279 0.25505 0.24309 0.0
H637 H 0.49775 0.25884 0.25116 0.0
H638 H 0.56619 0.16 0.21016 0.0
H639 H 0.54022 0.17094 0.17019 0.0
H640 H 0.44912 0.21366 0.20468 0.0
C641 C 0.51115 0.19543 0.29389 0.0
C642 C 0.54145 0.18155 0.3044 0.0
C643 C 0.56634 0.16533 0.2894 0.0
C644 C 0.56196 0.16386 0.26439 0.0
C645 C 0.53226 0.17824 0.25452 0.0
C646 C 0.50691 0.19315 0.2687 0.0
C647 C 0.47726 0.20612 0.25315 0.0
C648 C 0.44348 0.18725 0.25938 0.0
C649 C 0.47312 0.24546 0.25558 0.0
C650 C 0.4902 0.19629 0.22816 0.0
C651 C 0.52228 0.18077 0.22946 0.0
C652 C 0.54078 0.17153 0.20886 0.0
C653 C 0.52592 0.17794 0.18625 0.0
C654 C 0.49257 0.19258 0.18446 0.0
C655 C 0.47444 0.20181 0.20567 0.0
H656 H 0.21589 0.4515 0.95199 0.0
H657 H 0.20838 0.56059 0.9348 0.0
H658 H 0.21207 0.57463 0.97836 0.0
H659 H 0.16341 0.45284 0.00286 0.0
H660 H 0.18834 0.42158 0.01955 0.0
H661 H 0.18861 0.4208 0.98709 0.0
H662 H 0.25545 0.42547 0.98717 0.0
H663 H 0.25539 0.42628 0.01972 0.0
H664 H 0.27595 0.46056 0.00305 0.0
H665 H 0.21093 0.57587 0.02454 0.0
H666 H 0.20545 0.56412 0.06834 0.0
H667 H 0.21514 0.45429 0.05403 0.0
C668 C 0.21544 0.47843 0.95727 0.0
C669 C 0.21177 0.50494 0.93993 0.0
C670 C 0.21134 0.53981 0.94772 0.0
C671 C 0.21343 0.54804 0.97243 0.0
C672 C 0.21643 0.52113 0.98906 0.0
C673 C 0.21774 0.48704 0.9817 0.0
C674 C 0.21929 0.46268 0.00299 0.0
C675 C 0.18805 0.43805 0.00312 0.0
C676 C 0.25356 0.44257 0.00324 0.0
C677 C 0.21755 0.48825 0.02357 0.0
C678 C 0.21622 0.52188 0.01531 0.0
C679 C 0.21244 0.54964 0.03118 0.0
C680 C 0.20937 0.54272 0.05605 0.0
C681 C 0.20993 0.50829 0.06475 0.0
C682 C 0.21481 0.48096 0.04816 0.0
H683 H 0.46384 0.21918 0.43894 0.0
H684 H 0.56592 0.2633 0.42954 0.0
H685 H 0.57012 0.27304 0.4734 0.0
H686 H 0.43708 0.27451 0.49265 0.0
H687 H 0.41535 0.23861 0.50673 0.0
H688 H 0.41709 0.2417 0.47426 0.0
H689 H 0.44418 0.18063 0.47233 0.0
H690 H 0.44309 0.17753 0.50472 0.0
H691 H 0.48339 0.17192 0.48886 0.0
H692 H 0.56846 0.26792 0.51766 0.0
H693 H 0.55906 0.25242 0.56033 0.0
H694 H 0.45747 0.21257 0.54247 0.0
C695 C 0.4863 0.23237 0.44607 0.0
C696 C 0.51435 0.24103 0.43086 0.0
C697 C 0.54403 0.25687 0.44088 0.0
C698 C 0.54664 0.26249 0.46577 0.0
C699 C 0.51931 0.25222 0.48045 0.0
C700 C 0.48944 0.23793 0.47104 0.0
C701 C 0.46567 0.22566 0.49113 0.0
C702 C 0.43179 0.24637 0.49119 0.0
C703 C 0.4587 0.18663 0.48913 0.0
C704 C 0.48749 0.234 0.51315 0.0
C705 C 0.5182 0.24956 0.50649 0.0
C706 C 0.54417 0.25658 0.52319 0.0
C707 C 0.5387 0.24745 0.54734 0.0
C708 C 0.50742 0.23168 0.55466 0.0
C709 C 0.48127 0.22535 0.5374 0.0
H710 H 0.78636 0.4626 0.05236 0.0
H711 H 0.75129 0.56743 0.06515 0.0
H712 H 0.74468 0.57628 0.02134 0.0
H713 H 0.8382 0.48193 0.00401 0.0
H714 H 0.82957 0.44354 0.98662 0.0
H715 H 0.82535 0.44261 0.01895 0.0
H716 H 0.76213 0.42138 0.01498 0.0
H717 H 0.76625 0.42189 0.98254 0.0
H718 H 0.73193 0.4457 0.99694 0.0
H719 H 0.75025 0.5772 0.97712 0.0
H720 H 0.76591 0.5696 0.93437 0.0
H721 H 0.79754 0.4641 0.94907 0.0
C722 C 0.77608 0.48692 0.0459 0.0
C723 C 0.769 0.51425 0.06206 0.0
C724 C 0.75672 0.54616 0.05301 0.0
C725 C 0.75275 0.55138 0.02818 0.0
C726 C 0.76116 0.52442 0.01262 0.0
C727 C 0.7723 0.49269 0.02103 0.0
C728 C 0.78314 0.46946 0.00029 0.0
C729 C 0.82132 0.45878 0.00262 0.0
C730 C 0.75944 0.43773 0.99859 0.0
C731 C 0.77761 0.49361 0.97908 0.0
C732 C 0.76451 0.525 0.98666 0.0
C733 C 0.75988 0.55255 0.97085 0.0
C734 C 0.76912 0.54804 0.94664 0.0
C735 C 0.78282 0.51622 0.93842 0.0
C736 C 0.78656 0.48848 0.9548 0.0
H737 H 0.5335 0.81165 0.55009 0.0
H738 H 0.43387 0.76395 0.56347 0.0
H739 H 0.4295 0.7483 0.52041 0.0
H740 H 0.50988 0.85077 0.4962 0.0
H741 H 0.55091 0.84522 0.48127 0.0
H742 H 0.54908 0.84759 0.51367 0.0
H743 H 0.58055 0.78865 0.51667 0.0
H744 H 0.58229 0.78604 0.48418 0.0
H745 H 0.56288 0.75158 0.50134 0.0
H746 H 0.43252 0.74333 0.47603 0.0
H747 H 0.44042 0.75331 0.43247 0.0
H748 H 0.5376 0.8053 0.4468 0.0
C749 C 0.51121 0.79715 0.54401 0.0
C750 C 0.48414 0.78873 0.5601 0.0
C751 C 0.4549 0.77063 0.55142 0.0
C752 C 0.45232 0.76137 0.52705 0.0
C753 C 0.47916 0.77048 0.51154 0.0
C754 C 0.50799 0.78812 0.51959 0.0
C755 C 0.53112 0.79834 0.49864 0.0
C756 C 0.53548 0.83781 0.49738 0.0
C757 C 0.5663 0.78005 0.50032 0.0
C758 C 0.51014 0.78477 0.47754 0.0
C759 C 0.48065 0.76813 0.4855 0.0
C760 C 0.45576 0.7558 0.46955 0.0
C761 C 0.46047 0.76163 0.44484 0.0
C762 C 0.48976 0.77982 0.43626 0.0
C763 C 0.51543 0.79056 0.4528 0.0
H764 H 0.2055 0.4634 0.45003 0.0
H765 H 0.23854 0.56876 0.43649 0.0
H766 H 0.25468 0.57499 0.47926 0.0
H767 H 0.16566 0.48001 0.50458 0.0
H768 H 0.17797 0.44029 0.51921 0.0
H769 H 0.17417 0.44187 0.48687 0.0
H770 H 0.23715 0.41995 0.48257 0.0
H771 H 0.24114 0.41827 0.515 0.0
H772 H 0.27165 0.44289 0.49745 0.0
H773 H 0.25968 0.57303 0.52367 0.0
H774 H 0.25303 0.56287 0.56738 0.0
H775 H 0.21776 0.45857 0.55299 0.0
C776 C 0.21704 0.48742 0.45595 0.0
C777 C 0.22089 0.51553 0.4399 0.0
C778 C 0.23529 0.54687 0.44846 0.0
C779 C 0.24477 0.55061 0.4727 0.0
C780 C 0.23985 0.52275 0.48819 0.0
C781 C 0.22648 0.49168 0.48022 0.0
C782 C 0.22067 0.46707 0.50114 0.0
C783 C 0.18235 0.45673 0.50306 0.0
C784 C 0.24406 0.43515 0.4989 0.0
C785 C 0.23162 0.48967 0.52214 0.0
C786 C 0.24304 0.52151 0.51418 0.0
C787 C 0.25151 0.54797 0.53015 0.0
C788 C 0.24754 0.542 0.55492 0.0
C789 C 0.23532 0.50981 0.56349 0.0
C790 C 0.22806 0.48307 0.5469 0.0
H791 H 0.4513 0.22175 0.94416 0.0
H792 H 0.55899 0.23903 0.92568 0.0
H793 H 0.57312 0.24409 0.96909 0.0
H794 H 0.44849 0.2792 0.99758 0.0
H795 H 0.42032 0.25018 0.0137 0.0
H796 H 0.41824 0.25263 0.98123 0.0
H797 H 0.4285 0.1866 0.97853 0.0
H798 H 0.43087 0.18397 0.01091 0.0
H799 H 0.46612 0.1681 0.99275 0.0
H800 H 0.57632 0.24046 0.01468 0.0
H801 H 0.56827 0.22976 0.05826 0.0
H802 H 0.45834 0.21481 0.04633 0.0
C803 C 0.4778 0.2273 0.94911 0.0
C804 C 0.50403 0.23001 0.93142 0.0
C805 C 0.53837 0.23706 0.93883 0.0
C806 C 0.54665 0.23996 0.96347 0.0
C807 C 0.52026 0.2361 0.98042 0.0
C808 C 0.48646 0.23026 0.9735 0.0
C809 C 0.46322 0.2246 0.99513 0.0
C810 C 0.43596 0.25337 0.99702 0.0
C811 C 0.4462 0.18869 0.99427 0.0
C812 C 0.48939 0.22705 0.01534 0.0
C813 C 0.52208 0.23406 0.00656 0.0
C814 C 0.55075 0.23546 0.02177 0.0
C815 C 0.5459 0.22924 0.04652 0.0
C816 C 0.51263 0.22151 0.05585 0.0
C817 C 0.48406 0.22096 0.03994 0.0
H818 H 0.79726 0.53843 0.45067 0.0
H819 H 0.73202 0.4492 0.43876 0.0
H820 H 0.72137 0.44485 0.4826 0.0
H821 H 0.83964 0.50494 0.49897 0.0
H822 H 0.84402 0.54427 0.51611 0.0
H823 H 0.83988 0.54615 0.48381 0.0
H824 H 0.7869 0.58659 0.48796 0.0
H825 H 0.79102 0.58506 0.52039 0.0
H826 H 0.7507 0.57343 0.50626 0.0
H827 H 0.72604 0.44323 0.52672 0.0
H828 H 0.74622 0.44382 0.5689 0.0
H829 H 0.80953 0.53359 0.55377 0.0
C830 C 0.77948 0.51906 0.45733 0.0
C831 C 0.76467 0.49464 0.44146 0.0
C832 C 0.74298 0.46846 0.45071 0.0
C833 C 0.73676 0.46588 0.47555 0.0
C834 C 0.75266 0.48954 0.49091 0.0
C835 C 0.77352 0.51576 0.48224 0.0
C836 C 0.79152 0.53444 0.50284 0.0
C837 C 0.83109 0.53229 0.50027 0.0
C838 C 0.77929 0.57212 0.50445 0.0
C839 C 0.7788 0.51358 0.52428 0.0
C840 C 0.75585 0.48828 0.51693 0.0
C841 C 0.74328 0.46342 0.53281 0.0
C842 C 0.755 0.46388 0.5567 0.0
C843 C 0.77901 0.48902 0.56458 0.0
C844 C 0.79038 0.51475 0.54833 0.0
H845 H 0.55044 0.78417 0.0505 0.0
H846 H 0.44134 0.76639 0.06407 0.0
H847 H 0.43108 0.76178 0.02022 0.0
H848 H 0.54004 0.83813 0.00187 0.0
H849 H 0.57663 0.82249 0.98494 0.0
H850 H 0.57639 0.81913 0.01732 0.0
H851 H 0.58655 0.75312 0.01434 0.0
H852 H 0.58713 0.75629 0.98186 0.0
H853 H 0.55758 0.72707 0.99651 0.0
H854 H 0.43151 0.76677 0.97464 0.0
H855 H 0.4432 0.77885 0.93155 0.0
H856 H 0.55198 0.79275 0.94829 0.0
C857 C 0.52449 0.77844 0.04437 0.0
C858 C 0.49674 0.77563 0.06087 0.0
C859 C 0.46313 0.76851 0.0519 0.0
C860 C 0.45701 0.76583 0.02697 0.0
C861 C 0.48478 0.76993 0.0112 0.0
C862 C 0.51794 0.77564 0.0196 0.0
C863 C 0.5429 0.78167 0.99898 0.0
C864 C 0.55997 0.81748 0.0009 0.0
C865 C 0.57015 0.75281 0.99786 0.0
C866 C 0.5184 0.77976 0.97773 0.0
C867 C 0.48504 0.77259 0.98505 0.0
C868 C 0.45765 0.77182 0.96866 0.0
C869 C 0.46453 0.77882 0.94421 0.0
C870 C 0.49852 0.78667 0.9364 0.0
C871 C 0.52572 0.78656 0.95348 0.0
H872 H 0.29204 0.39519 0.11843 0.0
H873 H 0.20545 0.33389 0.09324 0.0
H874 H 0.24493 0.28405 0.08713 0.0
H875 H 0.35791 0.3582 0.07815 0.0
H876 H 0.3907 0.36038 0.10122 0.0
H877 H 0.35618 0.39162 0.10078 0.0
H878 H 0.34067 0.37566 0.14495 0.0
H879 H 0.37488 0.34425 0.14548 0.0
H880 H 0.33125 0.33134 0.15241 0.0
H881 H 0.29403 0.23938 0.08769 0.0
H882 H 0.34729 0.20501 0.09412 0.0
H883 H 0.40018 0.29701 0.1192 0.0
C884 C 0.28132 0.37151 0.11122 0.0
C885 C 0.24566 0.36839 0.10629 0.0
C886 C 0.23275 0.33687 0.09699 0.0
C887 C 0.25499 0.30848 0.09351 0.0
C888 C 0.28998 0.31226 0.0992 0.0
C889 C 0.303 0.3432 0.10766 0.0
C890 C 0.34094 0.34048 0.11387 0.0
C891 C 0.36271 0.36407 0.09753 0.0
C892 C 0.34728 0.34839 0.14077 0.0
C893 C 0.34726 0.30287 0.10824 0.0
C894 C 0.31777 0.28695 0.09957 0.0
C895 C 0.3173 0.25175 0.0942 0.0
C896 C 0.34765 0.23242 0.09795 0.0
C897 C 0.3779 0.24834 0.10713 0.0
C898 C 0.37758 0.28407 0.11204 0.0
H899 H 0.71811 0.38376 0.61085 0.0
H900 H 0.80721 0.31623 0.60697 0.0
H901 H 0.76809 0.2656 0.60276 0.0
H902 H 0.66811 0.3329 0.64701 0.0
H903 H 0.62765 0.3433 0.63259 0.0
H904 H 0.66271 0.37364 0.6317 0.0
H905 H 0.65992 0.37481 0.5849 0.0
H906 H 0.62451 0.34461 0.58563 0.0
H907 H 0.66269 0.3349 0.56825 0.0
H908 H 0.71722 0.22182 0.60418 0.0
H909 H 0.6614 0.19095 0.60987 0.0
H910 H 0.60816 0.28943 0.61228 0.0
C911 C 0.72948 0.35838 0.60864 0.0
C912 C 0.76554 0.35373 0.6093 0.0
C913 C 0.77952 0.32023 0.60632 0.0
C914 C 0.7575 0.29141 0.60397 0.0
C915 C 0.72177 0.29686 0.60419 0.0
C916 C 0.70806 0.32975 0.60607 0.0
C917 C 0.66916 0.32925 0.60743 0.0
C918 C 0.65618 0.34573 0.63109 0.0
C919 C 0.65313 0.34693 0.58523 0.0
C920 C 0.66289 0.29085 0.60706 0.0
C921 C 0.69326 0.27231 0.60487 0.0
C922 C 0.69331 0.2362 0.60555 0.0
C923 C 0.66158 0.21886 0.6088 0.0
C924 C 0.63053 0.2378 0.61161 0.0
C925 C 0.63143 0.27413 0.61026 0.0
H926 H 0.7117 0.61172 0.11667 0.0
H927 H 0.80621 0.67168 0.11723 0.0
H928 H 0.77181 0.7251 0.10992 0.0
H929 H 0.66618 0.66188 0.07022 0.0
H930 H 0.62525 0.65618 0.08523 0.0
H931 H 0.65812 0.62338 0.08761 0.0
H932 H 0.65517 0.62722 0.13436 0.0
H933 H 0.62238 0.65989 0.13213 0.0
H934 H 0.6614 0.66842 0.14888 0.0
H935 H 0.72415 0.77286 0.10671 0.0
H936 H 0.67029 0.80798 0.10877 0.0
H937 H 0.60968 0.714 0.11005 0.0
C938 C 0.72539 0.636 0.11501 0.0
C939 C 0.76156 0.63768 0.1177 0.0
C940 C 0.77844 0.6699 0.11517 0.0
C941 C 0.75909 0.70028 0.111 0.0
C942 C 0.72311 0.69766 0.10899 0.0
C943 C 0.70669 0.66606 0.11071 0.0
C944 C 0.66792 0.6695 0.10948 0.0
C945 C 0.65353 0.65168 0.08678 0.0
C946 C 0.65074 0.65545 0.13258 0.0
C947 C 0.66463 0.70818 0.10772 0.0
C948 C 0.69652 0.72429 0.10707 0.0
C949 C 0.69915 0.76033 0.10688 0.0
C950 C 0.6685 0.78011 0.10796 0.0
C951 C 0.63593 0.76363 0.10957 0.0
C952 C 0.63423 0.72733 0.1088 0.0
H953 H 0.29174 0.60717 0.62252 0.0
H954 H 0.19513 0.66386 0.62376 0.0
H955 H 0.22785 0.71889 0.61945 0.0
H956 H 0.33939 0.66281 0.65782 0.0
H957 H 0.37908 0.65728 0.64122 0.0
H958 H 0.34759 0.6232 0.64169 0.0
H959 H 0.34562 0.6232 0.59485 0.0
H960 H 0.37732 0.65726 0.59421 0.0
H961 H 0.33652 0.66282 0.57899 0.0
H962 H 0.27343 0.76812 0.61853 0.0
H963 H 0.32569 0.80522 0.621 0.0
H964 H 0.39031 0.71375 0.62051 0.0
C965 C 0.27727 0.63109 0.62165 0.0
C966 C 0.24096 0.63138 0.62364 0.0
C967 C 0.22302 0.66317 0.6222 0.0
C968 C 0.24141 0.69445 0.61977 0.0
C969 C 0.2775 0.69317 0.61842 0.0
C970 C 0.29503 0.66209 0.61908 0.0
C971 C 0.33369 0.667 0.61848 0.0
C972 C 0.35092 0.65168 0.64115 0.0
C973 C 0.34919 0.65167 0.59525 0.0
C974 C 0.33556 0.70586 0.61833 0.0
C975 C 0.30306 0.72077 0.61793 0.0
C976 C 0.29891 0.75659 0.6186 0.0
C977 C 0.32868 0.77746 0.62 0.0
C978 C 0.36199 0.7623 0.62103 0.0
C979 C 0.36522 0.72612 0.61982 0.0
H980 H 0.38611 0.71928 0.36066 0.0
H981 H 0.33155 0.80476 0.39405 0.0
H982 H 0.27934 0.76795 0.39799 0.0
H983 H 0.31555 0.68643 0.32636 0.0
H984 H 0.32788 0.64197 0.3307 0.0
H985 H 0.36034 0.67525 0.33078 0.0
H986 H 0.38105 0.65515 0.37306 0.0
H987 H 0.34868 0.62178 0.37311 0.0
H988 H 0.3504 0.65255 0.39751 0.0
H989 H 0.23278 0.72064 0.3976 0.0
H990 H 0.1972 0.66768 0.3936 0.0
H991 H 0.28427 0.61483 0.36083 0.0
C992 C 0.36323 0.73043 0.36881 0.0
C993 C 0.3628 0.76489 0.37701 0.0
C994 C 0.33236 0.77836 0.38764 0.0
C995 C 0.30265 0.75767 0.38993 0.0
C996 C 0.30402 0.72369 0.38155 0.0
C997 C 0.33367 0.71027 0.37127 0.0
C998 C 0.329 0.67312 0.36373 0.0
C999 C 0.33345 0.66897 0.33626 0.0
C1000 C 0.35374 0.64925 0.3777 0.0
C1001 C 0.29198 0.66754 0.37129 0.0
C1002 C 0.27782 0.69688 0.38151 0.0
C1003 C 0.24369 0.69755 0.38966 0.0
C1004 C 0.22369 0.66741 0.3873 0.0
C1005 C 0.23801 0.63718 0.37694 0.0
C1006 C 0.27256 0.63747 0.36888 0.0
H1007 H 0.38642 0.28316 0.90321 0.0
H1008 H 0.32561 0.19009 0.89532 0.0
H1009 H 0.27239 0.22347 0.90486 0.0
H1010 H 0.33215 0.32524 0.95179 0.0
H1011 H 0.33934 0.36716 0.93857 0.0
H1012 H 0.37229 0.33435 0.93655 0.0
H1013 H 0.37303 0.3411 0.88996 0.0
H1014 H 0.34015 0.37362 0.8918 0.0
H1015 H 0.33333 0.33596 0.87328 0.0
H1016 H 0.22517 0.27028 0.90724 0.0
H1017 H 0.19059 0.3239 0.90232 0.0
H1018 H 0.28388 0.38472 0.90953 0.0
C1019 C 0.36201 0.26956 0.90432 0.0
C1020 C 0.35994 0.23417 0.89864 0.0
C1021 C 0.32766 0.21718 0.89997 0.0
C1022 C 0.29737 0.23599 0.90533 0.0
C1023 C 0.30015 0.27145 0.90982 0.0
C1024 C 0.33194 0.2878 0.90978 0.0
C1025 C 0.32836 0.32646 0.91226 0.0
C1026 C 0.34395 0.33903 0.93622 0.0
C1027 C 0.34465 0.34535 0.89054 0.0
C1028 C 0.28949 0.32979 0.91233 0.0
C1029 C 0.27339 0.29793 0.9114 0.0
C1030 C 0.23754 0.29526 0.90861 0.0
C1031 C 0.21803 0.32581 0.90592 0.0
C1032 C 0.23461 0.35837 0.9057 0.0
C1033 C 0.27048 0.36017 0.9099 0.0
H1034 H 0.65311 0.25207 0.34732 0.0
H1035 H 0.6572 0.20849 0.41926 0.0
H1036 H 0.70923 0.24404 0.42817 0.0
H1037 H 0.74851 0.26218 0.33814 0.0
H1038 H 0.74193 0.30209 0.32203 0.0
H1039 H 0.70992 0.26837 0.32041 0.0
H1040 H 0.66305 0.31148 0.33503 0.0
H1041 H 0.69479 0.34512 0.33682 0.0
H1042 H 0.66942 0.33434 0.36305 0.0
H1043 H 0.75546 0.2925 0.43061 0.0
H1044 H 0.78909 0.347 0.42614 0.0
H1045 H 0.75267 0.35645 0.35252 0.0
C1046 C 0.66555 0.24922 0.36474 0.0
C1047 C 0.65139 0.22761 0.38259 0.0
C1048 C 0.66808 0.22467 0.40524 0.0
C1049 C 0.69755 0.24481 0.41042 0.0
C1050 C 0.71015 0.26704 0.39256 0.0
C1051 C 0.69476 0.26877 0.37002 0.0
C1052 C 0.71028 0.29682 0.35458 0.0
C1053 C 0.72877 0.28143 0.33249 0.0
C1054 C 0.68275 0.3235 0.34696 0.0
C1055 C 0.73576 0.31195 0.37223 0.0
C1056 C 0.73608 0.29429 0.39394 0.0
C1057 C 0.75586 0.30598 0.41349 0.0
C1058 C 0.77494 0.33682 0.41084 0.0
C1059 C 0.77339 0.3556 0.38897 0.0
C1060 C 0.75439 0.34236 0.36939 0.0
H1061 H 0.71354 0.61101 0.87775 0.0
H1062 H 0.80814 0.66959 0.88685 0.0
H1063 H 0.77349 0.72215 0.89548 0.0
H1064 H 0.66706 0.67381 0.84697 0.0
H1065 H 0.62629 0.66352 0.86098 0.0
H1066 H 0.65887 0.63073 0.85791 0.0
H1067 H 0.65666 0.61967 0.9041 0.0
H1068 H 0.62414 0.65268 0.90732 0.0
H1069 H 0.66347 0.65509 0.92469 0.0
H1070 H 0.72702 0.76945 0.89993 0.0
H1071 H 0.67439 0.80612 0.89805 0.0
H1072 H 0.61204 0.71463 0.88649 0.0
C1073 C 0.72712 0.63477 0.88175 0.0
C1074 C 0.76353 0.63628 0.88154 0.0
C1075 C 0.78021 0.66791 0.88692 0.0
C1076 C 0.76074 0.69781 0.89193 0.0
C1077 C 0.72472 0.69541 0.89176 0.0
C1078 C 0.70822 0.66453 0.88689 0.0
C1079 C 0.66944 0.66865 0.88643 0.0
C1080 C 0.65456 0.6586 0.8616 0.0
C1081 C 0.65244 0.64779 0.90685 0.0
C1082 C 0.66651 0.70695 0.89096 0.0
C1083 C 0.69849 0.72209 0.89438 0.0
C1084 C 0.70187 0.75773 0.89756 0.0
C1085 C 0.67188 0.77836 0.89656 0.0
C1086 C 0.63922 0.76317 0.89214 0.0
C1087 C 0.63665 0.72699 0.88997 0.0
loop_
_geom_bond_atom_site_label_1
_geom_bond_atom_site_label_2
_geom_bond_distance
_geom_bond_site_symmetry_2
_ccdc_geom_bond_type
Co0 O1 2.216 . S
Co0 O2 2.091 . S
Co0 O4 2.004 . S
Co0 O10 2.021 . S
Co0 O12 2.137 . S
Co0 O13 2.244 . S
O1 Co0 2.216 . S
O1 C8 1.247 . S
O2 Co0 2.091 . S
O2 C8 1.261 . S
C3 O12 1.247 . S
C3 O13 1.272 . S
O4 Co0 2.004 . S
O4 C9 1.259 . S
Co5 O6 2.061 . S
Co5 O11 2.052 . S
Co5 O13 2.135 . S
O6 Co5 2.061 . S
O6 C9 1.235 . S
C7 O10 1.238 . S
C7 O11 1.241 . S
C8 O1 1.247 . S
C8 O2 1.261 . S
C9 O4 1.259 . S
C9 O6 1.235 . S
O10 Co0 2.021 . S
O10 C7 1.238 . S
O11 Co5 2.052 . S
O11 C7 1.241 . S
O12 Co0 2.137 . S
O12 C3 1.247 . S
O13 Co0 2.244 . S
O13 C3 1.272 . S
O13 Co5 2.135 . S
Co14 O15 2.216 . S
Co14 O16 2.091 . S
Co14 O18 2.004 . S
Co14 O24 2.021 . S
Co14 O26 2.137 . S
Co14 O27 2.244 . S
O15 Co14 2.216 . S
O15 C22 1.247 . S
O16 Co14 2.091 . S
O16 C22 1.261 . S
C17 O26 1.247 . S
C17 O27 1.272 . S
O18 Co14 2.004 . S
O18 C23 1.259 . S
Co19 O20 2.061 . S
Co19 O25 2.052 . S
Co19 O27 2.135 . S
O20 Co19 2.061 . S
O20 C23 1.235 . S
C21 O24 1.238 . S
C21 O25 1.241 . S
C22 O15 1.247 . S
C22 O16 1.261 . S
C23 O18 1.259 . S
C23 O20 1.235 . S
O24 Co14 2.021 . S
O24 C21 1.238 . S
O25 Co19 2.052 . S
O25 C21 1.241 . S
O26 Co14 2.137 . S
O26 C17 1.247 . S
O27 Co14 2.244 . S
O27 C17 1.272 . S
O27 Co19 2.135 . S
Co28 O29 2.216 . S
Co28 O30 2.091 . S
Co28 O32 2.004 . S
Co28 O38 2.021 . S
Co28 O40 2.137 . S
Co28 O41 2.244 . S
O29 Co28 2.216 . S
O29 C36 1.247 . S
O30 Co28 2.091 . S
O30 C36 1.261 . S
C31 O40 1.247 . S
C31 O41 1.272 . S
O32 Co28 2.004 . S
O32 C37 1.259 . S
Co33 O34 2.061 . S
Co33 O39 2.052 . S
Co33 O41 2.135 . S
O34 Co33 2.061 . S
O34 C37 1.235 . S
C35 O38 1.238 . S
C35 O39 1.241 . S
C36 O29 1.247 . S
C36 O30 1.261 . S
C37 O32 1.259 . S
C37 O34 1.235 . S
O38 Co28 2.021 . S
O38 C35 1.238 . S
O39 Co33 2.052 . S
O39 C35 1.241 . S
O40 Co28 2.137 . S
O40 C31 1.247 . S
O41 Co28 2.244 . S
O41 C31 1.272 . S
O41 Co33 2.135 . S
Co42 O43 2.216 . S
Co42 O44 2.091 . S
Co42 O46 2.004 . S
Co42 O52 2.021 . S
Co42 O54 2.137 . S
Co42 O55 2.244 . S
O43 Co42 2.216 . S
O43 C50 1.247 . S
O44 Co42 2.091 . S
O44 C50 1.261 . S
C45 O54 1.247 . S
C45 O55 1.272 . S
O46 Co42 2.004 . S
O46 C51 1.259 . S
Co47 O48 2.061 . S
Co47 O53 2.052 . S
Co47 O55 2.135 . S
O48 Co47 2.061 . S
O48 C51 1.235 . S
C49 O52 1.238 . S
C49 O53 1.241 . S
C50 O43 1.247 . S
C50 O44 1.261 . S
C51 O46 1.259 . S
C51 O48 1.235 . S
O52 Co42 2.021 . S
O52 C49 1.238 . S
O53 Co47 2.052 . S
O53 C49 1.241 . S
O54 Co42 2.137 . S
O54 C45 1.247 . S
O55 Co42 2.244 . S
O55 C45 1.272 . S
O55 Co47 2.135 . S
Co56 O57 2.216 . S
Co56 O58 2.091 . S
Co56 O60 2.004 . S
Co56 O66 2.021 . S
Co56 O68 2.137 . S
Co56 O69 2.244 . S
O57 Co56 2.216 . S
O57 C64 1.247 . S
O58 Co56 2.091 . S
O58 C64 1.261 . S
C59 O68 1.247 . S
C59 O69 1.272 . S
O60 Co56 2.004 . S
O60 C65 1.259 . S
Co61 O62 2.061 . S
Co61 O67 2.052 . S
Co61 O69 2.135 . S
O62 Co61 2.061 . S
O62 C65 1.235 . S
C63 O66 1.238 . S
C63 O67 1.241 . S
C64 O57 1.247 . S
C64 O58 1.261 . S
C65 O60 1.259 . S
C65 O62 1.235 . S
O66 Co56 2.021 . S
O66 C63 1.238 . S
O67 Co61 2.052 . S
O67 C63 1.241 . S
O68 Co56 2.137 . S
O68 C59 1.247 . S
O69 Co56 2.244 . S
O69 C59 1.272 . S
O69 Co61 2.135 . S
Co70 O71 2.216 . S
Co70 O72 2.091 . S
Co70 O74 2.004 . S
Co70 O80 2.021 . S
Co70 O82 2.137 . S
Co70 O83 2.244 . S
O71 Co70 2.216 . S
O71 C78 1.247 . S
O72 Co70 2.091 . S
O72 C78 1.261 . S
C73 O82 1.247 . S
C73 O83 1.272 . S
O74 Co70 2.004 . S
O74 C79 1.259 . S
Co75 O76 2.061 . S
Co75 O81 2.052 . S
Co75 O83 2.135 . S
O76 Co75 2.061 . S
O76 C79 1.235 . S
C77 O80 1.238 . S
C77 O81 1.241 . S
C78 O71 1.247 . S
C78 O72 1.261 . S
C79 O74 1.259 . S
C79 O76 1.235 . S
O80 Co70 2.021 . S
O80 C77 1.238 . S
O81 Co75 2.052 . S
O81 C77 1.241 . S
O82 Co70 2.137 . S
O82 C73 1.247 . S
O83 Co70 2.244 . S
O83 C73 1.272 . S
O83 Co75 2.135 . S
Co84 O85 2.216 . S
Co84 O86 2.091 . S
Co84 O88 2.004 . S
Co84 O94 2.021 . S
Co84 O96 2.137 . S
Co84 O97 2.244 . S
O85 Co84 2.216 . S
O85 C92 1.247 . S
O86 Co84 2.091 . S
O86 C92 1.261 . S
C87 O96 1.247 . S
C87 O97 1.272 . S
O88 Co84 2.004 . S
O88 C93 1.259 . S
Co89 O90 2.061 . S
Co89 O95 2.052 . S
Co89 O97 2.135 . S
O90 Co89 2.061 . S
O90 C93 1.235 . S
C91 O94 1.238 . S
C91 O95 1.241 . S
C92 O85 1.247 . S
C92 O86 1.261 . S
C93 O88 1.259 . S
C93 O90 1.235 . S
O94 Co84 2.021 . S
O94 C91 1.238 . S
O95 Co89 2.052 . S
O95 C91 1.241 . S
O96 Co84 2.137 . S
O96 C87 1.247 . S
O97 Co84 2.244 . S
O97 C87 1.272 . S
O97 Co89 2.135 . S
Co98 O99 2.216 . S
Co98 O100 2.091 . S
Co98 O102 2.004 . S
Co98 O108 2.021 . S
Co98 O110 2.137 . S
Co98 O111 2.244 . S
O99 Co98 2.216 . S
O99 C106 1.247 . S
O100 Co98 2.091 . S
O100 C106 1.261 . S
C101 O110 1.247 . S
C101 O111 1.272 . S
O102 Co98 2.004 . S
O102 C107 1.259 . S
Co103 O104 2.061 . S
Co103 O109 2.052 . S
Co103 O111 2.135 . S
O104 Co103 2.061 . S
O104 C107 1.235 . S
C105 O108 1.238 . S
C105 O109 1.241 . S
C106 O99 1.247 . S
C106 O100 1.261 . S
C107 O102 1.259 . S
C107 O104 1.235 . S
O108 Co98 2.021 . S
O108 C105 1.238 . S
O109 Co103 2.052 . S
O109 C105 1.241 . S
O110 Co98 2.137 . S
O110 C101 1.247 . S
O111 Co98 2.244 . S
O111 C101 1.272 . S
O111 Co103 2.135 . S
Co112 O113 2.216 . S
Co112 O114 2.091 . S
Co112 O116 2.004 . S
Co112 O122 2.021 . S
Co112 O124 2.137 . S
Co112 O125 2.244 . S
O113 Co112 2.216 . S
O113 C120 1.247 . S
O114 Co112 2.091 . S
O114 C120 1.261 . S
C115 O124 1.247 . S
C115 O125 1.272 . S
O116 Co112 2.004 . S
O116 C121 1.259 . S
Co117 O118 2.061 . S
Co117 O123 2.052 . S
Co117 O125 2.135 . S
O118 Co117 2.061 . S
O118 C121 1.235 . S
C119 O122 1.238 . S
C119 O123 1.241 . S
C120 O113 1.247 . S
C120 O114 1.261 . S
C121 O116 1.259 . S
C121 O118 1.235 . S
O122 Co112 2.021 . S
O122 C119 1.238 . S
O123 Co117 2.052 . S
O123 C119 1.241 . S
O124 Co112 2.137 . S
O124 C115 1.247 . S
O125 Co112 2.244 . S
O125 C115 1.272 . S
O125 Co117 2.135 . S
Co126 O127 2.216 . S
Co126 O128 2.091 . S
Co126 O130 2.004 . S
Co126 O136 2.021 . S
Co126 O138 2.137 . S
Co126 O139 2.244 . S
O127 Co126 2.216 . S
O127 C134 1.247 . S
O128 Co126 2.091 . S
O128 C134 1.261 . S
C129 O138 1.247 . S
C129 O139 1.272 . S
O130 Co126 2.004 . S
O130 C135 1.259 . S
Co131 O132 2.061 . S
Co131 O137 2.052 . S
Co131 O139 2.135 . S
O132 Co131 2.061 . S
O132 C135 1.235 . S
C133 O136 1.238 . S
C133 O137 1.241 . S
C134 O127 1.247 . S
C134 O128 1.261 . S
C135 O130 1.259 . S
C135 O132 1.235 . S
O136 Co126 2.021 . S
O136 C133 1.238 . S
O137 Co131 2.052 . S
O137 C133 1.241 . S
O138 Co126 2.137 . S
O138 C129 1.247 . S
O139 Co126 2.244 . S
O139 C129 1.272 . S
O139 Co131 2.135 . S
Co140 O141 2.216 . S
Co140 O142 2.091 . S
Co140 O144 2.004 . S
Co140 O150 2.021 . S
Co140 O152 2.137 . S
Co140 O153 2.244 . S
O141 Co140 2.216 . S
O141 C148 1.247 . S
O142 Co140 2.091 . S
O142 C148 1.261 . S
C143 O152 1.247 . S
C143 O153 1.272 . S
O144 Co140 2.004 . S
O144 C149 1.259 . S
Co145 O146 2.061 . S
Co145 O151 2.052 . S
Co145 O153 2.135 . S
O146 Co145 2.061 . S
O146 C149 1.235 . S
C147 O150 1.238 . S
C147 O151 1.241 . S
C148 O141 1.247 . S
C148 O142 1.261 . S
C149 O144 1.259 . S
C149 O146 1.235 . S
O150 Co140 2.021 . S
O150 C147 1.238 . S
O151 Co145 2.052 . S
O151 C147 1.241 . S
O152 Co140 2.137 . S
O152 C143 1.247 . S
O153 Co140 2.244 . S
O153 C143 1.272 . S
O153 Co145 2.135 . S
Co154 O155 2.216 . S
Co154 O156 2.091 . S
Co154 O158 2.004 . S
Co154 O164 2.021 . S
Co154 O166 2.137 . S
Co154 O167 2.244 . S
O155 Co154 2.216 . S
O155 C162 1.247 . S
O156 Co154 2.091 . S
O156 C162 1.261 . S
C157 O166 1.247 . S
C157 O167 1.272 . S
O158 Co154 2.004 . S
O158 C163 1.259 . S
Co159 O160 2.061 . S
Co159 O165 2.052 . S
Co159 O167 2.135 . S
O160 Co159 2.061 . S
O160 C163 1.235 . S
C161 O164 1.238 . S
C161 O165 1.241 . S
C162 O155 1.247 . S
C162 O156 1.261 . S
C163 O158 1.259 . S
C163 O160 1.235 . S
O164 Co154 2.021 . S
O164 C161 1.238 . S
O165 Co159 2.052 . S
O165 C161 1.241 . S
O166 Co154 2.137 . S
O166 C157 1.247 . S
O167 Co154 2.244 . S
O167 C157 1.272 . S
O167 Co159 2.135 . S
Co168 O169 2.216 . S
Co168 O170 2.091 . S
Co168 O172 2.004 . S
Co168 O178 2.021 . S
Co168 O180 2.137 . S
Co168 O181 2.244 . S
O169 Co168 2.216 . S
O169 C176 1.247 . S
O170 Co168 2.091 . S
O170 C176 1.261 . S
C171 O180 1.247 . S
C171 O181 1.272 . S
O172 Co168 2.004 . S
O172 C177 1.259 . S
Co173 O174 2.061 . S
Co173 O179 2.052 . S
Co173 O181 2.135 . S
O174 Co173 2.061 . S
O174 C177 1.235 . S
C175 O178 1.238 . S
C175 O179 1.241 . S
C176 O169 1.247 . S
C176 O170 1.261 . S
C177 O172 1.259 . S
C177 O174 1.235 . S
O178 Co168 2.021 . S
O178 C175 1.238 . S
O179 Co173 2.052 . S
O179 C175 1.241 . S
O180 Co168 2.137 . S
O180 C171 1.247 . S
O181 Co168 2.244 . S
O181 C171 1.272 . S
O181 Co173 2.135 . S
Co182 O183 2.216 . S
Co182 O184 2.091 . S
Co182 O186 2.004 . S
Co182 O192 2.021 . S
Co182 O194 2.137 . S
Co182 O195 2.244 . S
O183 Co182 2.216 . S
O183 C190 1.247 . S
O184 Co182 2.091 . S
O184 C190 1.261 . S
C185 O194 1.247 . S
C185 O195 1.272 . S
O186 Co182 2.004 . S
O186 C191 1.259 . S
Co187 O188 2.061 . S
Co187 O193 2.052 . S
Co187 O195 2.135 . S
O188 Co187 2.061 . S
O188 C191 1.235 . S
C189 O192 1.238 . S
C189 O193 1.241 . S
C190 O183 1.247 . S
C190 O184 1.261 . S
C191 O186 1.259 . S
C191 O188 1.235 . S
O192 Co182 2.021 . S
O192 C189 1.238 . S
O193 Co187 2.052 . S
O193 C189 1.241 . S
O194 Co182 2.137 . S
O194 C185 1.247 . S
O195 Co182 2.244 . S
O195 C185 1.272 . S
O195 Co187 2.135 . S
Co196 O197 2.216 . S
Co196 O198 2.091 . S
Co196 O200 2.004 . S
Co196 O206 2.021 . S
Co196 O208 2.137 . S
Co196 O209 2.244 . S
O197 Co196 2.216 . S
O197 C204 1.247 . S
O198 Co196 2.091 . S
O198 C204 1.261 . S
C199 O208 1.247 . S
C199 O209 1.272 . S
O200 Co196 2.004 . S
O200 C205 1.259 . S
Co201 O202 2.061 . S
Co201 O207 2.052 . S
Co201 O209 2.135 . S
O202 Co201 2.061 . S
O202 C205 1.235 . S
C203 O206 1.238 . S
C203 O207 1.241 . S
C204 O197 1.247 . S
C204 O198 1.261 . S
C205 O200 1.259 . S
C205 O202 1.235 . S
O206 Co196 2.021 . S
O206 C203 1.238 . S
O207 Co201 2.052 . S
O207 C203 1.241 . S
O208 Co196 2.137 . S
O208 C199 1.247 . S
O209 Co196 2.244 . S
O209 C199 1.272 . S
O209 Co201 2.135 . S
Co210 O211 2.216 . S
Co210 O212 2.091 . S
Co210 O214 2.004 . S
Co210 O220 2.021 . S
Co210 O222 2.137 . S
Co210 O223 2.244 . S
O211 Co210 2.216 . S
O211 C218 1.247 . S
O212 Co210 2.091 . S
O212 C218 1.261 . S
C213 O222 1.247 . S
C213 O223 1.272 . S
O214 Co210 2.004 . S
O214 C219 1.259 . S
Co215 O216 2.061 . S
Co215 O221 2.052 . S
Co215 O223 2.135 . S
O216 Co215 2.061 . S
O216 C219 1.235 . S
C217 O220 1.238 . S
C217 O221 1.241 . S
C218 O211 1.247 . S
C218 O212 1.261 . S
C219 O214 1.259 . S
C219 O216 1.235 . S
O220 Co210 2.021 . S
O220 C217 1.238 . S
O221 Co215 2.052 . S
O221 C217 1.241 . S
O222 Co210 2.137 . S
O222 C213 1.247 . S
O223 Co210 2.244 . S
O223 C213 1.272 . S
O223 Co215 2.135 . S
H224 C236 0.930 . S
H225 C238 0.930 . S
H226 C239 0.930 . S
H227 C243 0.959 . S
H228 C243 0.959 . S
H229 C243 0.961 1_455 S
H230 C244 0.960 . S
H231 C244 0.961 1_655 S
H232 C244 0.959 . S
H233 C247 0.929 . S
H234 C248 0.931 . S
H235 C250 0.930 . S
C236 H224 0.930 . S
C236 C237 1.399 . S
C236 C241 1.399 . S
C237 C236 1.399 . S
C237 C238 1.376 . S
C238 H225 0.930 . S
C238 C237 1.376 . S
C238 C239 1.388 . S
C239 H226 0.930 . S
C239 C238 1.388 . S
C239 C240 1.390 . S
C240 C239 1.390 . S
C240 C241 1.394 . S
C240 C246 1.465 1_455 S
C241 C236 1.399 . S
C241 C240 1.394 . S
C241 C242 1.525 . S
C242 C241 1.525 . S
C242 C243 1.500 1_455 S
C242 C244 1.564 . S
C242 C245 1.517 1_455 S
C243 H227 0.959 . S
C243 H228 0.959 . S
C243 H229 0.961 1_655 S
C243 C242 1.500 1_655 S
C244 H230 0.960 . S
C244 H231 0.961 1_455 S
C244 H232 0.959 . S
C244 C242 1.564 . S
C245 C242 1.517 1_655 S
C245 C246 1.396 . S
C245 C250 1.390 . S
C246 C240 1.465 1_655 S
C246 C245 1.396 . S
C246 C247 1.399 . S
C247 H233 0.929 . S
C247 C246 1.399 . S
C247 C248 1.385 . S
C248 H234 0.931 . S
C248 C247 1.385 . S
C248 C249 1.389 . S
C249 C248 1.389 . S
C249 C250 1.387 . S
C250 H235 0.930 . S
C250 C245 1.390 . S
C250 C249 1.387 . S
H251 C263 0.930 . S
H252 C265 0.930 . S
H253 C266 0.930 . S
H254 C270 0.959 . S
H255 C270 0.959 1_545 S
H256 C270 0.961 . S
H257 C271 0.960 1_565 S
H258 C271 0.961 . S
H259 C271 0.959 . S
H260 C274 0.929 . S
H261 C275 0.931 . S
H262 C277 0.930 . S
C263 H251 0.930 . S
C263 C264 1.399 . S
C263 C268 1.399 . S
C264 C263 1.399 . S
C264 C265 1.376 . S
C265 H252 0.930 . S
C265 C264 1.376 . S
C265 C266 1.388 . S
C266 H253 0.930 . S
C266 C265 1.388 . S
C266 C267 1.390 . S
C267 C266 1.390 . S
C267 C268 1.394 . S
C267 C273 1.465 1_565 S
C268 C263 1.399 . S
C268 C267 1.394 . S
C268 C269 1.505 1_565 S
C269 C268 1.505 1_545 S
C269 C270 1.499 1_545 S
C269 C271 1.564 . S
C269 C272 1.537 . S
C270 H254 0.959 . S
C270 H255 0.959 1_565 S
C270 H256 0.961 . S
C270 C269 1.499 1_565 S
C271 H257 0.960 1_545 S
C271 H258 0.961 . S
C271 H259 0.959 . S
C271 C269 1.564 . S
C272 C269 1.537 . S
C272 C273 1.396 . S
C272 C277 1.390 . S
C273 C267 1.465 1_545 S
C273 C272 1.396 . S
C273 C274 1.399 . S
C274 H260 0.929 . S
C274 C273 1.399 . S
C274 C275 1.385 . S
C275 H261 0.931 . S
C275 C274 1.385 . S
C275 C276 1.389 . S
C276 C275 1.389 . S
C276 C277 1.387 . S
C277 H262 0.930 . S
C277 C272 1.390 . S
C277 C276 1.387 . S
H278 C290 0.930 . S
H279 C292 0.930 . S
H280 C293 0.930 . S
H281 C297 0.959 . S
H282 C297 0.959 1_655 S
H283 C297 0.961 . S
H284 C298 0.960 1_455 S
H285 C298 0.961 . S
H286 C298 0.959 . S
H287 C301 0.929 . S
H288 C302 0.931 . S
H289 C304 0.930 . S
C290 H278 0.930 . S
C290 C291 1.399 . S
C290 C295 1.399 . S
C291 C290 1.399 . S
C291 C292 1.376 . S
C292 H279 0.930 . S
C292 C291 1.376 . S
C292 C293 1.388 . S
C293 H280 0.930 . S
C293 C292 1.388 . S
C293 C294 1.390 . S
C294 C293 1.390 . S
C294 C295 1.394 . S
C294 C300 1.465 1_455 S
C295 C290 1.399 . S
C295 C294 1.394 . S
C295 C296 1.509 1_455 S
C296 C295 1.509 1_655 S
C296 C297 1.500 1_655 S
C296 C298 1.563 . S
C296 C299 1.533 . S
C297 H281 0.959 . S
C297 H282 0.959 1_455 S
C297 H283 0.961 . S
C297 C296 1.500 1_455 S
C298 H284 0.960 1_655 S
C298 H285 0.961 . S
C298 H286 0.959 . S
C298 C296 1.563 . S
C299 C296 1.533 . S
C299 C300 1.396 . S
C299 C304 1.390 . S
C300 C294 1.465 1_655 S
C300 C299 1.396 . S
C300 C301 1.399 . S
C301 H287 0.929 . S
C301 C300 1.399 . S
C301 C302 1.385 . S
C302 H288 0.931 . S
C302 C301 1.385 . S
C302 C303 1.389 . S
C303 C302 1.389 . S
C303 C304 1.387 . S
C304 H289 0.930 . S
C304 C299 1.390 . S
C304 C303 1.387 . S
H305 C317 0.930 . S
H306 C319 0.930 . S
H307 C320 0.930 . S
H308 C324 0.959 . S
H309 C324 0.959 1_545 S
H310 C324 0.961 . S
H311 C325 0.985 . S
H312 C325 0.942 1_545 S
H313 C325 0.950 1_545 S
H314 C328 0.929 . S
H315 C329 0.931 . S
H316 C331 0.930 . S
C317 H305 0.930 . S
C317 C318 1.399 . S
C317 C322 1.399 . S
C318 C317 1.399 . S
C318 C319 1.376 . S
C319 H306 0.930 . S
C319 C318 1.376 . S
C319 C320 1.388 . S
C320 H307 0.930 . S
C320 C319 1.388 . S
C320 C321 1.390 . S
C321 C320 1.390 . S
C321 C322 1.394 . S
C321 C327 1.465 1_565 S
C322 C317 1.399 . S
C322 C321 1.394 . S
C322 C323 1.516 . S
C323 C322 1.516 . S
C323 C324 1.502 . S
C323 C325 1.564 . S
C323 C326 1.526 1_565 S
C324 H308 0.959 . S
C324 H309 0.959 1_565 S
C324 H310 0.961 . S
C324 C323 1.502 . S
C325 H311 0.985 . S
C325 H312 0.942 1_565 S
C325 H313 0.950 1_565 S
C325 C323 1.564 . S
C326 C323 1.526 1_545 S
C326 C327 1.396 . S
C326 C331 1.390 . S
C327 C321 1.465 1_545 S
C327 C326 1.396 . S
C327 C328 1.399 . S
C328 H314 0.929 . S
C328 C327 1.399 . S
C328 C329 1.385 . S
C329 H315 0.931 . S
C329 C328 1.385 . S
C329 C330 1.389 . S
C330 C329 1.389 . S
C330 C331 1.387 . S
C331 H316 0.930 . S
C331 C326 1.390 . S
C331 C330 1.387 . S
H332 C344 0.930 . S
H333 C346 0.930 . S
H334 C347 0.930 . S
H335 C351 0.959 . S
H336 C351 0.959 . S
H337 C351 0.961 1_655 S
H338 C352 0.960 . S
H339 C352 0.961 1_455 S
H340 C352 0.959 . S
H341 C355 0.929 . S
H342 C356 0.931 . S
H343 C358 0.930 . S
C344 H332 0.930 . S
C344 C345 1.399 . S
C344 C349 1.399 . S
C345 C344 1.399 . S
C345 C346 1.376 . S
C346 H333 0.930 . S
C346 C345 1.376 . S
C346 C347 1.388 . S
C347 H334 0.930 . S
C347 C346 1.388 . S
C347 C348 1.390 . S
C348 C347 1.390 . S
C348 C349 1.394 . S
C348 C354 1.465 1_655 S
C349 C344 1.399 . S
C349 C348 1.394 . S
C349 C350 1.493 1_655 S
C350 C349 1.493 1_455 S
C350 C351 1.509 . S
C350 C352 1.556 1_455 S
C350 C353 1.548 . S
C351 H335 0.959 . S
C351 H336 0.959 . S
C351 H337 0.961 1_455 S
C351 C350 1.509 . S
C352 H338 0.960 . S
C352 H339 0.961 1_655 S
C352 H340 0.959 . S
C352 C350 1.556 1_655 S
C353 C350 1.548 . S
C353 C354 1.396 . S
C353 C358 1.390 . S
C354 C348 1.465 1_455 S
C354 C353 1.396 . S
C354 C355 1.399 . S
C355 H341 0.929 . S
C355 C354 1.399 . S
C355 C356 1.385 . S
C356 H342 0.931 . S
C356 C355 1.385 . S
C356 C357 1.389 . S
C357 C356 1.389 . S
C357 C358 1.387 . S
C358 H343 0.930 . S
C358 C353 1.390 . S
C358 C357 1.387 . S
H359 C371 0.930 . S
H360 C373 0.930 . S
H361 C374 0.930 . S
H362 C378 0.959 . S
H363 C378 0.959 . S
H364 C378 0.961 1_545 S
H365 C379 0.960 . S
H366 C379 0.961 1_565 S
H367 C379 0.959 . S
H368 C382 0.929 . S
H369 C383 0.931 . S
H370 C385 0.930 . S
C371 H359 0.930 . S
C371 C372 1.399 . S
C371 C376 1.399 . S
C372 C371 1.399 . S
C372 C373 1.376 . S
C373 H360 0.930 . S
C373 C372 1.376 . S
C373 C374 1.388 . S
C374 H361 0.930 . S
C374 C373 1.388 . S
C374 C375 1.390 . S
C375 C374 1.390 . S
C375 C376 1.394 . S
C375 C381 1.465 1_545 S
C376 C371 1.399 . S
C376 C375 1.394 . S
C376 C377 1.516 1_545 S
C377 C376 1.516 1_565 S
C377 C378 1.502 . S
C377 C379 1.561 1_565 S
C377 C380 1.526 . S
C378 H362 0.959 . S
C378 H363 0.959 . S
C378 H364 0.961 1_565 S
C378 C377 1.502 . S
C379 H365 0.960 . S
C379 H366 0.961 1_545 S
C379 H367 0.959 . S
C379 C377 1.561 1_545 S
C380 C377 1.526 . S
C380 C381 1.396 . S
C380 C385 1.390 . S
C381 C375 1.465 1_565 S
C381 C380 1.396 . S
C381 C382 1.399 . S
C382 H368 0.929 . S
C382 C381 1.399 . S
C382 C383 1.385 . S
C383 H369 0.931 . S
C383 C382 1.385 . S
C383 C384 1.389 . S
C384 C383 1.389 . S
C384 C385 1.387 . S
C385 H370 0.930 . S
C385 C380 1.390 . S
C385 C384 1.387 . S
H386 C398 0.930 . S
H387 C400 0.930 . S
H388 C401 0.930 . S
H389 C405 0.959 . S
H390 C405 0.959 1_455 S
H391 C405 0.961 . S
H392 C406 0.962 1_655 S
H393 C406 0.959 . S
H394 C406 0.958 . S
H395 C409 0.929 . S
H396 C410 0.931 . S
H397 C412 0.930 . S
C398 H386 0.930 . S
C398 C399 1.399 . S
C398 C403 1.399 . S
C399 C398 1.399 . S
C399 C400 1.376 . S
C400 H387 0.930 . S
C400 C399 1.376 . S
C400 C401 1.388 . S
C401 H388 0.930 . S
C401 C400 1.388 . S
C401 C402 1.390 . S
C402 C401 1.390 . S
C402 C403 1.394 . S
C402 C408 1.465 1_655 S
C403 C398 1.399 . S
C403 C402 1.394 . S
C403 C404 1.516 . S
C404 C403 1.516 . S
C404 C405 1.502 . S
C404 C406 1.561 1_655 S
C404 C407 1.526 1_655 S
C405 H389 0.959 . S
C405 H390 0.959 1_655 S
C405 H391 0.961 . S
C405 C404 1.502 . S
C406 H392 0.962 1_455 S
C406 H393 0.959 . S
C406 H394 0.958 . S
C406 C404 1.561 1_455 S
C407 C404 1.526 1_455 S
C407 C408 1.396 . S
C407 C412 1.390 . S
C408 C402 1.465 1_455 S
C408 C407 1.396 . S
C408 C409 1.399 . S
C409 H395 0.929 . S
C409 C408 1.399 . S
C409 C410 1.385 . S
C410 H396 0.931 . S
C410 C409 1.385 . S
C410 C411 1.389 . S
C411 C410 1.389 . S
C411 C412 1.387 . S
C412 H397 0.930 . S
C412 C407 1.390 . S
C412 C411 1.387 . S
H413 C425 0.930 . S
H414 C427 0.930 . S
H415 C428 0.930 . S
H416 C432 0.959 . S
H417 C432 0.959 1_565 S
H418 C432 0.961 . S
H419 C433 0.960 1_545 S
H420 C433 0.961 . S
H421 C433 0.959 . S
H422 C436 0.929 . S
H423 C437 0.931 . S
H424 C439 0.930 . S
C425 H413 0.930 . S
C425 C426 1.399 . S
C425 C430 1.399 . S
C426 C425 1.399 . S
C426 C427 1.376 . S
C427 H414 0.930 . S
C427 C426 1.376 . S
C427 C428 1.388 . S
C428 H415 0.930 . S
C428 C427 1.388 . S
C428 C429 1.390 . S
C429 C428 1.390 . S
C429 C430 1.394 . S
C429 C435 1.465 1_545 S
C430 C425 1.399 . S
C430 C429 1.394 . S
C430 C431 1.516 . S
C431 C430 1.516 . S
C431 C432 1.502 . S
C431 C433 1.561 1_545 S
C431 C434 1.526 1_545 S
C432 H416 0.959 . S
C432 H417 0.959 1_545 S
C432 H418 0.961 . S
C432 C431 1.502 . S
C433 H419 0.960 1_565 S
C433 H420 0.961 . S
C433 H421 0.959 . S
C433 C431 1.561 1_565 S
C434 C431 1.526 1_565 S
C434 C435 1.396 . S
C434 C439 1.390 . S
C435 C429 1.465 1_565 S
C435 C434 1.396 . S
C435 C436 1.399 . S
C436 H422 0.929 . S
C436 C435 1.399 . S
C436 C437 1.385 . S
C437 H423 0.931 . S
C437 C436 1.385 . S
C437 C438 1.389 . S
C438 C437 1.389 . S
C438 C439 1.387 . S
C439 H424 0.930 . S
C439 C434 1.390 . S
C439 C438 1.387 . S
H440 C452 0.930 . S
H441 C454 0.930 . S
H442 C455 0.930 . S
H443 C459 0.959 . S
H444 C459 0.959 . S
H445 C459 0.961 . S
H446 C460 0.960 . S
H447 C460 0.961 . S
H448 C460 0.959 . S
H449 C463 0.929 . S
H450 C464 0.931 . S
H451 C466 0.930 . S
C452 H440 0.930 . S
C452 C453 1.399 . S
C452 C457 1.399 . S
C453 C452 1.399 . S
C453 C454 1.376 . S
C454 H441 0.930 . S
C454 C453 1.376 . S
C454 C455 1.388 . S
C455 H442 0.930 . S
C455 C454 1.388 . S
C455 C456 1.390 . S
C456 C455 1.390 . S
C456 C457 1.394 . S
C456 C462 1.465 . S
C457 C452 1.399 . S
C457 C456 1.394 . S
C457 C458 1.516 . S
C458 C457 1.516 . S
C458 C459 1.502 . S
C458 C460 1.561 . S
C458 C461 1.526 . S
C459 H443 0.959 . S
C459 H444 0.959 . S
C459 H445 0.961 . S
C459 C458 1.502 . S
C460 H446 0.960 . S
C460 H447 0.961 . S
C460 H448 0.959 . S
C460 C458 1.561 . S
C461 C458 1.526 . S
C461 C462 1.396 . S
C461 C466 1.390 . S
C462 C456 1.465 . S
C462 C461 1.396 . S
C462 C463 1.399 . S
C463 H449 0.929 . S
C463 C462 1.399 . S
C463 C464 1.385 . S
C464 H450 0.931 . S
C464 C463 1.385 . S
C464 C465 1.389 . S
C465 C464 1.389 . S
C465 C466 1.387 . S
C466 H451 0.930 . S
C466 C461 1.390 . S
C466 C465 1.387 . S
H467 C479 0.930 . S
H468 C481 0.930 . S
H469 C482 0.930 . S
H470 C486 0.959 . S
H471 C486 0.959 . S
H472 C486 0.961 . S
H473 C487 0.960 . S
H474 C487 0.961 . S
H475 C487 0.959 . S
H476 C490 0.929 . S
H477 C491 0.931 . S
H478 C493 0.930 . S
C479 H467 0.930 . S
C479 C480 1.399 . S
C479 C484 1.399 . S
C480 C479 1.399 . S
C480 C481 1.376 . S
C481 H468 0.930 . S
C481 C480 1.376 . S
C481 C482 1.388 . S
C482 H469 0.930 . S
C482 C481 1.388 . S
C482 C483 1.390 . S
C483 C482 1.390 . S
C483 C484 1.394 . S
C483 C489 1.465 . S
C484 C479 1.399 . S
C484 C483 1.394 . S
C484 C485 1.516 . S
C485 C484 1.516 . S
C485 C486 1.502 . S
C485 C487 1.561 . S
C485 C488 1.526 . S
C486 H470 0.959 . S
C486 H471 0.959 . S
C486 H472 0.961 . S
C486 C485 1.502 . S
C487 H473 0.960 . S
C487 H474 0.961 . S
C487 H475 0.959 . S
C487 C485 1.561 . S
C488 C485 1.526 . S
C488 C489 1.396 . S
C488 C493 1.390 . S
C489 C483 1.465 . S
C489 C488 1.396 . S
C489 C490 1.399 . S
C490 H476 0.929 . S
C490 C489 1.399 . S
C490 C491 1.385 . S
C491 H477 0.931 . S
C491 C490 1.385 . S
C491 C492 1.389 . S
C492 C491 1.389 . S
C492 C493 1.387 . S
C493 H478 0.930 . S
C493 C488 1.390 . S
C493 C492 1.387 . S
H494 C506 0.930 . S
H495 C508 0.930 . S
H496 C509 0.930 . S
H497 C513 0.959 . S
H498 C513 0.959 . S
H499 C513 0.961 . S
H500 C514 0.960 . S
H501 C514 0.961 . S
H502 C514 0.959 . S
H503 C517 0.929 . S
H504 C518 0.931 . S
H505 C520 0.930 . S
C506 H494 0.930 . S
C506 C507 1.399 . S
C506 C511 1.399 . S
C507 C506 1.399 . S
C507 C508 1.376 . S
C508 H495 0.930 . S
C508 C507 1.376 . S
C508 C509 1.388 . S
C509 H496 0.930 . S
C509 C508 1.388 . S
C509 C510 1.390 . S
C510 C509 1.390 . S
C510 C511 1.394 . S
C510 C516 1.465 . S
C511 C506 1.399 . S
C511 C510 1.394 . S
C511 C512 1.516 . S
C512 C511 1.516 . S
C512 C513 1.502 . S
C512 C514 1.561 . S
C512 C515 1.526 . S
C513 H497 0.959 . S
C513 H498 0.959 . S
C513 H499 0.961 . S
C513 C512 1.502 . S
C514 H500 0.960 . S
C514 H501 0.961 . S
C514 H502 0.959 . S
C514 C512 1.561 . S
C515 C512 1.526 . S
C515 C516 1.396 . S
C515 C520 1.390 . S
C516 C510 1.465 . S
C516 C515 1.396 . S
C516 C517 1.399 . S
C517 H503 0.929 . S
C517 C516 1.399 . S
C517 C518 1.385 . S
C518 H504 0.931 . S
C518 C517 1.385 . S
C518 C519 1.389 . S
C519 C518 1.389 . S
C519 C520 1.387 . S
C520 H505 0.930 . S
C520 C515 1.390 . S
C520 C519 1.387 . S
H521 C533 0.930 . S
H522 C535 0.930 . S
H523 C536 0.930 . S
H524 C540 0.959 . S
H525 C540 0.959 . S
H526 C540 0.961 . S
H527 C541 0.960 . S
H528 C541 0.961 . S
H529 C541 0.959 . S
H530 C544 0.929 . S
H531 C545 0.931 . S
H532 C547 0.930 . S
C533 H521 0.930 . S
C533 C534 1.399 . S
C533 C538 1.399 . S
C534 C533 1.399 . S
C534 C535 1.376 . S
C535 H522 0.930 . S
C535 C534 1.376 . S
C535 C536 1.388 . S
C536 H523 0.930 . S
C536 C535 1.388 . S
C536 C537 1.390 . S
C537 C536 1.390 . S
C537 C538 1.394 . S
C537 C543 1.465 . S
C538 C533 1.399 . S
C538 C537 1.394 . S
C538 C539 1.516 . S
C539 C538 1.516 . S
C539 C540 1.502 . S
C539 C541 1.561 . S
C539 C542 1.526 . S
C540 H524 0.959 . S
C540 H525 0.959 . S
C540 H526 0.961 . S
C540 C539 1.502 . S
C541 H527 0.960 . S
C541 H528 0.961 . S
C541 H529 0.959 . S
C541 C539 1.561 . S
C542 C539 1.526 . S
C542 C543 1.396 . S
C542 C547 1.390 . S
C543 C537 1.465 . S
C543 C542 1.396 . S
C543 C544 1.399 . S
C544 H530 0.929 . S
C544 C543 1.399 . S
C544 C545 1.385 . S
C545 H531 0.931 . S
C545 C544 1.385 . S
C545 C546 1.389 . S
C546 C545 1.389 . S
C546 C547 1.387 . S
C547 H532 0.930 . S
C547 C542 1.390 . S
C547 C546 1.387 . S
H548 C560 0.930 . S
H549 C562 0.930 . S
H550 C563 0.930 . S
H551 C567 0.959 . S
H552 C567 0.959 . S
H553 C567 0.961 . S
H554 C568 0.960 . S
H555 C568 0.961 . S
H556 C568 0.959 . S
H557 C571 0.929 . S
H558 C572 0.931 . S
H559 C574 0.930 . S
C560 H548 0.930 . S
C560 C561 1.399 . S
C560 C565 1.399 . S
C561 C560 1.399 . S
C561 C562 1.376 . S
C562 H549 0.930 . S
C562 C561 1.376 . S
C562 C563 1.388 . S
C563 H550 0.930 . S
C563 C562 1.388 . S
C563 C564 1.390 . S
C564 C563 1.390 . S
C564 C565 1.394 . S
C564 C570 1.465 . S
C565 C560 1.399 . S
C565 C564 1.394 . S
C565 C566 1.516 . S
C566 C565 1.516 . S
C566 C567 1.502 . S
C566 C568 1.561 . S
C566 C569 1.526 . S
C567 H551 0.959 . S
C567 H552 0.959 . S
C567 H553 0.961 . S
C567 C566 1.502 . S
C568 H554 0.960 . S
C568 H555 0.961 . S
C568 H556 0.959 . S
C568 C566 1.561 . S
C569 C566 1.526 . S
C569 C570 1.396 . S
C569 C574 1.390 . S
C570 C564 1.465 . S
C570 C569 1.396 . S
C570 C571 1.399 . S
C571 H557 0.929 . S
C571 C570 1.399 . S
C571 C572 1.385 . S
C572 H558 0.931 . S
C572 C571 1.385 . S
C572 C573 1.389 . S
C573 C572 1.389 . S
C573 C574 1.387 . S
C574 H559 0.930 . S
C574 C569 1.390 . S
C574 C573 1.387 . S
H575 C587 0.930 . S
H576 C589 0.930 . S
H577 C590 0.930 . S
H578 C594 0.959 . S
H579 C594 0.959 . S
H580 C594 0.961 . S
H581 C595 0.960 . S
H582 C595 0.961 . S
H583 C595 0.959 . S
H584 C598 0.929 . S
H585 C599 0.931 . S
H586 C601 0.930 . S
C587 H575 0.930 . S
C587 C588 1.399 . S
C587 C592 1.399 . S
C588 C587 1.399 . S
C588 C589 1.376 . S
C589 H576 0.930 . S
C589 C588 1.376 . S
C589 C590 1.388 . S
C590 H577 0.930 . S
C590 C589 1.388 . S
C590 C591 1.390 . S
C591 C590 1.390 . S
C591 C592 1.394 . S
C591 C597 1.465 . S
C592 C587 1.399 . S
C592 C591 1.394 . S
C592 C593 1.516 . S
C593 C592 1.516 . S
C593 C594 1.502 . S
C593 C595 1.561 . S
C593 C596 1.526 . S
C594 H578 0.959 . S
C594 H579 0.959 . S
C594 H580 0.961 . S
C594 C593 1.502 . S
C595 H581 0.960 . S
C595 H582 0.961 . S
C595 H583 0.959 . S
C595 C593 1.561 . S
C596 C593 1.526 . S
C596 C597 1.396 . S
C596 C601 1.390 . S
C597 C591 1.465 . S
C597 C596 1.396 . S
C597 C598 1.399 . S
C598 H584 0.929 . S
C598 C597 1.399 . S
C598 C599 1.385 . S
C599 H585 0.931 . S
C599 C598 1.385 . S
C599 C600 1.389 . S
C600 C599 1.389 . S
C600 C601 1.387 . S
C601 H586 0.930 . S
C601 C596 1.390 . S
C601 C600 1.387 . S
H602 C614 0.930 . S
H603 C616 0.930 . S
H604 C617 0.930 . S
H605 C621 0.959 . S
H606 C621 0.959 . S
H607 C621 0.961 . S
H608 C622 0.960 . S
H609 C622 0.961 . S
H610 C622 0.959 . S
H611 C625 0.929 . S
H612 C626 0.931 . S
H613 C628 0.930 . S
C614 H602 0.930 . S
C614 C615 1.399 . S
C614 C619 1.399 . S
C615 C614 1.399 . S
C615 C616 1.376 . S
C616 H603 0.930 . S
C616 C615 1.376 . S
C616 C617 1.388 . S
C617 H604 0.930 . S
C617 C616 1.388 . S
C617 C618 1.390 . S
C618 C617 1.390 . S
C618 C619 1.394 . S
C618 C624 1.465 . S
C619 C614 1.399 . S
C619 C618 1.394 . S
C619 C620 1.516 . S
C620 C619 1.516 . S
C620 C621 1.502 . S
C620 C622 1.561 . S
C620 C623 1.526 . S
C621 H605 0.959 . S
C621 H606 0.959 . S
C621 H607 0.961 . S
C621 C620 1.502 . S
C622 H608 0.960 . S
C622 H609 0.961 . S
C622 H610 0.959 . S
C622 C620 1.561 . S
C623 C620 1.526 . S
C623 C624 1.396 . S
C623 C628 1.390 . S
C624 C618 1.465 . S
C624 C623 1.396 . S
C624 C625 1.399 . S
C625 H611 0.929 . S
C625 C624 1.399 . S
C625 C626 1.385 . S
C626 H612 0.931 . S
C626 C625 1.385 . S
C626 C627 1.389 . S
C627 C626 1.389 . S
C627 C628 1.387 . S
C628 H613 0.930 . S
C628 C623 1.390 . S
C628 C627 1.387 . S
H629 C641 0.930 . S
H630 C643 0.930 . S
H631 C644 0.930 . S
H632 C648 0.959 . S
H633 C648 0.959 . S
H634 C648 0.961 . S
H635 C649 0.960 . S
H636 C649 0.961 . S
H637 C649 0.959 . S
H638 C652 0.929 . S
H639 C653 0.931 . S
H640 C655 0.930 . S
C641 H629 0.930 . S
C641 C642 1.399 . S
C641 C646 1.399 . S
C642 C641 1.399 . S
C642 C643 1.376 . S
C643 H630 0.930 . S
C643 C642 1.376 . S
C643 C644 1.388 . S
C644 H631 0.930 . S
C644 C643 1.388 . S
C644 C645 1.390 . S
C645 C644 1.390 . S
C645 C646 1.394 . S
C645 C651 1.465 . S
C646 C641 1.399 . S
C646 C645 1.394 . S
C646 C647 1.516 . S
C647 C646 1.516 . S
C647 C648 1.502 . S
C647 C649 1.561 . S
C647 C650 1.526 . S
C648 H632 0.959 . S
C648 H633 0.959 . S
C648 H634 0.961 . S
C648 C647 1.502 . S
C649 H635 0.960 . S
C649 H636 0.961 . S
C649 H637 0.959 . S
C649 C647 1.561 . S
C650 C647 1.526 . S
C650 C651 1.396 . S
C650 C655 1.390 . S
C651 C645 1.465 . S
C651 C650 1.396 . S
C651 C652 1.399 . S
C652 H638 0.929 . S
C652 C651 1.399 . S
C652 C653 1.385 . S
C653 H639 0.931 . S
C653 C652 1.385 . S
C653 C654 1.389 . S
C654 C653 1.389 . S
C654 C655 1.387 . S
C655 H640 0.930 . S
C655 C650 1.390 . S
C655 C654 1.387 . S
H656 C668 0.930 . S
H657 C670 0.930 . S
H658 C671 0.930 . S
H659 C675 0.962 . S
H660 C675 0.979 . S
H661 C675 0.939 1_556 S
H662 C676 0.957 1_556 S
H663 C676 0.963 . S
H664 C676 0.959 . S
H665 C679 0.929 . S
H666 C680 0.931 . S
H667 C682 0.930 . S
C668 H656 0.930 . S
C668 C669 1.399 . S
C668 C673 1.399 . S
C669 C668 1.399 . S
C669 C670 1.376 . S
C670 H657 0.930 . S
C670 C669 1.376 . S
C670 C671 1.388 . S
C671 H658 0.930 . S
C671 C670 1.388 . S
C671 C672 1.390 . S
C672 C671 1.390 . S
C672 C673 1.394 . S
C672 C678 1.465 1_556 S
C673 C668 1.399 . S
C673 C672 1.394 . S
C673 C674 1.517 1_556 S
C674 C673 1.517 1_554 S
C674 C675 1.502 . S
C674 C676 1.561 . S
C674 C677 1.525 . S
C675 H659 0.962 . S
C675 H660 0.979 . S
C675 H661 0.939 1_554 S
C675 C674 1.502 . S
C676 H662 0.957 1_554 S
C676 H663 0.963 . S
C676 H664 0.959 . S
C676 C674 1.561 . S
C677 C674 1.525 . S
C677 C678 1.396 . S
C677 C682 1.390 . S
C678 C672 1.465 1_554 S
C678 C677 1.396 . S
C678 C679 1.399 . S
C679 H665 0.929 . S
C679 C678 1.399 . S
C679 C680 1.385 . S
C680 H666 0.931 . S
C680 C679 1.385 . S
C680 C681 1.389 . S
C681 C680 1.389 . S
C681 C682 1.387 . S
C682 H667 0.930 . S
C682 C677 1.390 . S
C682 C681 1.387 . S
H683 C695 0.930 . S
H684 C697 0.930 . S
H685 C698 0.930 . S
H686 C702 0.959 . S
H687 C702 0.959 . S
H688 C702 0.961 . S
H689 C703 0.960 . S
H690 C703 0.961 . S
H691 C703 0.959 . S
H692 C706 0.929 . S
H693 C707 0.931 . S
H694 C709 0.930 . S
C695 H683 0.930 . S
C695 C696 1.399 . S
C695 C700 1.399 . S
C696 C695 1.399 . S
C696 C697 1.376 . S
C697 H684 0.930 . S
C697 C696 1.376 . S
C697 C698 1.388 . S
C698 H685 0.930 . S
C698 C697 1.388 . S
C698 C699 1.390 . S
C699 C698 1.390 . S
C699 C700 1.394 . S
C699 C705 1.465 . S
C700 C695 1.399 . S
C700 C699 1.394 . S
C700 C701 1.516 . S
C701 C700 1.516 . S
C701 C702 1.502 . S
C701 C703 1.561 . S
C701 C704 1.526 . S
C702 H686 0.959 . S
C702 H687 0.959 . S
C702 H688 0.961 . S
C702 C701 1.502 . S
C703 H689 0.960 . S
C703 H690 0.961 . S
C703 H691 0.959 . S
C703 C701 1.561 . S
C704 C701 1.526 . S
C704 C705 1.396 . S
C704 C709 1.390 . S
C705 C699 1.465 . S
C705 C704 1.396 . S
C705 C706 1.399 . S
C706 H692 0.929 . S
C706 C705 1.399 . S
C706 C707 1.385 . S
C707 H693 0.931 . S
C707 C706 1.385 . S
C707 C708 1.389 . S
C708 C707 1.389 . S
C708 C709 1.387 . S
C709 H694 0.930 . S
C709 C704 1.390 . S
C709 C708 1.387 . S
H710 C722 0.930 . S
H711 C724 0.930 . S
H712 C725 0.930 . S
H713 C729 0.962 . S
H714 C729 0.979 . S
H715 C729 0.939 1_554 S
H716 C730 0.957 1_554 S
H717 C730 0.963 . S
H718 C730 0.959 . S
H719 C733 0.929 . S
H720 C734 0.931 . S
H721 C736 0.930 . S
C722 H710 0.930 . S
C722 C723 1.399 . S
C722 C727 1.399 . S
C723 C722 1.399 . S
C723 C724 1.376 . S
C724 H711 0.930 . S
C724 C723 1.376 . S
C724 C725 1.388 . S
C725 H712 0.930 . S
C725 C724 1.388 . S
C725 C726 1.390 . S
C726 C725 1.390 . S
C726 C727 1.394 . S
C726 C732 1.465 1_554 S
C727 C722 1.399 . S
C727 C726 1.394 . S
C727 C728 1.517 1_554 S
C728 C727 1.517 1_556 S
C728 C729 1.502 . S
C728 C730 1.561 . S
C728 C731 1.525 . S
C729 H713 0.962 . S
C729 H714 0.979 . S
C729 H715 0.939 1_556 S
C729 C728 1.502 . S
C730 H716 0.957 1_556 S
C730 H717 0.963 . S
C730 H718 0.959 . S
C730 C728 1.561 . S
C731 C728 1.525 . S
C731 C732 1.396 . S
C731 C736 1.390 . S
C732 C726 1.465 1_556 S
C732 C731 1.396 . S
C732 C733 1.399 . S
C733 H719 0.929 . S
C733 C732 1.399 . S
C733 C734 1.385 . S
C734 H720 0.931 . S
C734 C733 1.385 . S
C734 C735 1.389 . S
C735 C734 1.389 . S
C735 C736 1.387 . S
C736 H721 0.930 . S
C736 C731 1.390 . S
C736 C735 1.387 . S
H737 C749 0.930 . S
H738 C751 0.930 . S
H739 C752 0.930 . S
H740 C756 0.959 . S
H741 C756 0.959 . S
H742 C756 0.961 . S
H743 C757 0.960 . S
H744 C757 0.961 . S
H745 C757 0.959 . S
H746 C760 0.929 . S
H747 C761 0.931 . S
H748 C763 0.930 . S
C749 H737 0.930 . S
C749 C750 1.399 . S
C749 C754 1.399 . S
C750 C749 1.399 . S
C750 C751 1.376 . S
C751 H738 0.930 . S
C751 C750 1.376 . S
C751 C752 1.388 . S
C752 H739 0.930 . S
C752 C751 1.388 . S
C752 C753 1.390 . S
C753 C752 1.390 . S
C753 C754 1.394 . S
C753 C759 1.465 . S
C754 C749 1.399 . S
C754 C753 1.394 . S
C754 C755 1.516 . S
C755 C754 1.516 . S
C755 C756 1.502 . S
C755 C757 1.561 . S
C755 C758 1.526 . S
C756 H740 0.959 . S
C756 H741 0.959 . S
C756 H742 0.961 . S
C756 C755 1.502 . S
C757 H743 0.960 . S
C757 H744 0.961 . S
C757 H745 0.959 . S
C757 C755 1.561 . S
C758 C755 1.526 . S
C758 C759 1.396 . S
C758 C763 1.390 . S
C759 C753 1.465 . S
C759 C758 1.396 . S
C759 C760 1.399 . S
C760 H746 0.929 . S
C760 C759 1.399 . S
C760 C761 1.385 . S
C761 H747 0.931 . S
C761 C760 1.385 . S
C761 C762 1.389 . S
C762 C761 1.389 . S
C762 C763 1.387 . S
C763 H748 0.930 . S
C763 C758 1.390 . S
C763 C762 1.387 . S
H764 C776 0.930 . S
H765 C778 0.930 . S
H766 C779 0.930 . S
H767 C783 0.959 . S
H768 C783 0.959 . S
H769 C783 0.961 . S
H770 C784 0.960 . S
H771 C784 0.961 . S
H772 C784 0.959 . S
H773 C787 0.929 . S
H774 C788 0.931 . S
H775 C790 0.930 . S
C776 H764 0.930 . S
C776 C777 1.399 . S
C776 C781 1.399 . S
C777 C776 1.399 . S
C777 C778 1.376 . S
C778 H765 0.930 . S
C778 C777 1.376 . S
C778 C779 1.388 . S
C779 H766 0.930 . S
C779 C778 1.388 . S
C779 C780 1.390 . S
C780 C779 1.390 . S
C780 C781 1.394 . S
C780 C786 1.465 . S
C781 C776 1.399 . S
C781 C780 1.394 . S
C781 C782 1.516 . S
C782 C781 1.516 . S
C782 C783 1.502 . S
C782 C784 1.561 . S
C782 C785 1.526 . S
C783 H767 0.959 . S
C783 H768 0.959 . S
C783 H769 0.961 . S
C783 C782 1.502 . S
C784 H770 0.960 . S
C784 H771 0.961 . S
C784 H772 0.959 . S
C784 C782 1.561 . S
C785 C782 1.526 . S
C785 C786 1.396 . S
C785 C790 1.390 . S
C786 C780 1.465 . S
C786 C785 1.396 . S
C786 C787 1.399 . S
C787 H773 0.929 . S
C787 C786 1.399 . S
C787 C788 1.385 . S
C788 H774 0.931 . S
C788 C787 1.385 . S
C788 C789 1.389 . S
C789 C788 1.389 . S
C789 C790 1.387 . S
C790 H775 0.930 . S
C790 C785 1.390 . S
C790 C789 1.387 . S
H791 C803 0.930 . S
H792 C805 0.930 . S
H793 C806 0.930 . S
H794 C810 0.962 . S
H795 C810 0.979 . S
H796 C810 0.939 1_556 S
H797 C811 0.957 1_556 S
H798 C811 0.963 . S
H799 C811 0.959 . S
H800 C814 0.929 . S
H801 C815 0.931 . S
H802 C817 0.930 . S
C803 H791 0.930 . S
C803 C804 1.399 . S
C803 C808 1.399 . S
C804 C803 1.399 . S
C804 C805 1.376 . S
C805 H792 0.930 . S
C805 C804 1.376 . S
C805 C806 1.388 . S
C806 H793 0.930 . S
C806 C805 1.388 . S
C806 C807 1.390 . S
C807 C806 1.390 . S
C807 C808 1.394 . S
C807 C813 1.465 1_556 S
C808 C803 1.399 . S
C808 C807 1.394 . S
C808 C809 1.517 1_556 S
C809 C808 1.517 1_554 S
C809 C810 1.502 . S
C809 C811 1.561 . S
C809 C812 1.525 . S
C810 H794 0.962 . S
C810 H795 0.979 . S
C810 H796 0.939 1_554 S
C810 C809 1.502 . S
C811 H797 0.957 1_554 S
C811 H798 0.963 . S
C811 H799 0.959 . S
C811 C809 1.561 . S
C812 C809 1.525 . S
C812 C813 1.396 . S
C812 C817 1.390 . S
C813 C807 1.465 1_554 S
C813 C812 1.396 . S
C813 C814 1.399 . S
C814 H800 0.929 . S
C814 C813 1.399 . S
C814 C815 1.385 . S
C815 H801 0.931 . S
C815 C814 1.385 . S
C815 C816 1.389 . S
C816 C815 1.389 . S
C816 C817 1.387 . S
C817 H802 0.930 . S
C817 C812 1.390 . S
C817 C816 1.387 . S
H818 C830 0.930 . S
H819 C832 0.930 . S
H820 C833 0.930 . S
H821 C837 0.959 . S
H822 C837 0.959 . S
H823 C837 0.961 . S
H824 C838 0.960 . S
H825 C838 0.961 . S
H826 C838 0.959 . S
H827 C841 0.929 . S
H828 C842 0.931 . S
H829 C844 0.930 . S
C830 H818 0.930 . S
C830 C831 1.399 . S
C830 C835 1.399 . S
C831 C830 1.399 . S
C831 C832 1.376 . S
C832 H819 0.930 . S
C832 C831 1.376 . S
C832 C833 1.388 . S
C833 H820 0.930 . S
C833 C832 1.388 . S
C833 C834 1.390 . S
C834 C833 1.390 . S
C834 C835 1.394 . S
C834 C840 1.465 . S
C835 C830 1.399 . S
C835 C834 1.394 . S
C835 C836 1.516 . S
C836 C835 1.516 . S
C836 C837 1.502 . S
C836 C838 1.561 . S
C836 C839 1.526 . S
C837 H821 0.959 . S
C837 H822 0.959 . S
C837 H823 0.961 . S
C837 C836 1.502 . S
C838 H824 0.960 . S
C838 H825 0.961 . S
C838 H826 0.959 . S
C838 C836 1.561 . S
C839 C836 1.526 . S
C839 C840 1.396 . S
C839 C844 1.390 . S
C840 C834 1.465 . S
C840 C839 1.396 . S
C840 C841 1.399 . S
C841 H827 0.929 . S
C841 C840 1.399 . S
C841 C842 1.385 . S
C842 H828 0.931 . S
C842 C841 1.385 . S
C842 C843 1.389 . S
C843 C842 1.389 . S
C843 C844 1.387 . S
C844 H829 0.930 . S
C844 C839 1.390 . S
C844 C843 1.387 . S
H845 C857 0.930 . S
H846 C859 0.930 . S
H847 C860 0.930 . S
H848 C864 0.962 . S
H849 C864 0.979 . S
H850 C864 0.939 1_554 S
H851 C865 0.957 1_554 S
H852 C865 0.963 . S
H853 C865 0.959 . S
H854 C868 0.929 . S
H855 C869 0.931 . S
H856 C871 0.930 . S
C857 H845 0.930 . S
C857 C858 1.399 . S
C857 C862 1.399 . S
C858 C857 1.399 . S
C858 C859 1.376 . S
C859 H846 0.930 . S
C859 C858 1.376 . S
C859 C860 1.388 . S
C860 H847 0.930 . S
C860 C859 1.388 . S
C860 C861 1.390 . S
C861 C860 1.390 . S
C861 C862 1.394 . S
C861 C867 1.465 1_554 S
C862 C857 1.399 . S
C862 C861 1.394 . S
C862 C863 1.517 1_554 S
C863 C862 1.517 1_556 S
C863 C864 1.502 . S
C863 C865 1.561 . S
C863 C866 1.525 . S
C864 H848 0.962 . S
C864 H849 0.979 . S
C864 H850 0.939 1_556 S
C864 C863 1.502 . S
C865 H851 0.957 1_556 S
C865 H852 0.963 . S
C865 H853 0.959 . S
C865 C863 1.561 . S
C866 C863 1.525 . S
C866 C867 1.396 . S
C866 C871 1.390 . S
C867 C861 1.465 1_556 S
C867 C866 1.396 . S
C867 C868 1.399 . S
C868 H854 0.929 . S
C868 C867 1.399 . S
C868 C869 1.385 . S
C869 H855 0.931 . S
C869 C868 1.385 . S
C869 C870 1.389 . S
C870 C869 1.389 . S
C870 C871 1.387 . S
C871 H856 0.930 . S
C871 C866 1.390 . S
C871 C870 1.387 . S
H872 C884 0.930 . S
H873 C886 0.930 . S
H874 C887 0.930 . S
H875 C891 0.959 . S
H876 C891 0.959 . S
H877 C891 0.961 . S
H878 C892 0.960 . S
H879 C892 0.961 . S
H880 C892 0.959 . S
H881 C895 0.929 . S
H882 C896 0.931 . S
H883 C898 0.930 . S
C884 H872 0.930 . S
C884 C885 1.399 . S
C884 C889 1.399 . S
C885 C884 1.399 . S
C885 C886 1.376 . S
C886 H873 0.930 . S
C886 C885 1.376 . S
C886 C887 1.388 . S
C887 H874 0.930 . S
C887 C886 1.388 . S
C887 C888 1.390 . S
C888 C887 1.390 . S
C888 C889 1.394 . S
C888 C894 1.465 . S
C889 C884 1.399 . S
C889 C888 1.394 . S
C889 C890 1.516 . S
C890 C889 1.516 . S
C890 C891 1.502 . S
C890 C892 1.561 . S
C890 C893 1.526 . S
C891 H875 0.959 . S
C891 H876 0.959 . S
C891 H877 0.961 . S
C891 C890 1.502 . S
C892 H878 0.960 . S
C892 H879 0.961 . S
C892 H880 0.959 . S
C892 C890 1.561 . S
C893 C890 1.526 . S
C893 C894 1.396 . S
C893 C898 1.390 . S
C894 C888 1.465 . S
C894 C893 1.396 . S
C894 C895 1.399 . S
C895 H881 0.929 . S
C895 C894 1.399 . S
C895 C896 1.385 . S
C896 H882 0.931 . S
C896 C895 1.385 . S
C896 C897 1.389 . S
C897 C896 1.389 . S
C897 C898 1.387 . S
C898 H883 0.930 . S
C898 C893 1.390 . S
C898 C897 1.387 . S
H899 C911 0.930 . S
H900 C913 0.930 . S
H901 C914 0.930 . S
H902 C918 0.959 . S
H903 C918 0.959 . S
H904 C918 0.961 . S
H905 C919 0.960 . S
H906 C919 0.961 . S
H907 C919 0.959 . S
H908 C922 0.929 . S
H909 C923 0.931 . S
H910 C925 0.930 . S
C911 H899 0.930 . S
C911 C912 1.399 . S
C911 C916 1.399 . S
C912 C911 1.399 . S
C912 C913 1.376 . S
C913 H900 0.930 . S
C913 C912 1.376 . S
C913 C914 1.388 . S
C914 H901 0.930 . S
C914 C913 1.388 . S
C914 C915 1.390 . S
C915 C914 1.390 . S
C915 C916 1.394 . S
C915 C921 1.465 . S
C916 C911 1.399 . S
C916 C915 1.394 . S
C916 C917 1.516 . S
C917 C916 1.516 . S
C917 C918 1.502 . S
C917 C919 1.561 . S
C917 C920 1.526 . S
C918 H902 0.959 . S
C918 H903 0.959 . S
C918 H904 0.961 . S
C918 C917 1.502 . S
C919 H905 0.960 . S
C919 H906 0.961 . S
C919 H907 0.959 . S
C919 C917 1.561 . S
C920 C917 1.526 . S
C920 C921 1.396 . S
C920 C925 1.390 . S
C921 C915 1.465 . S
C921 C920 1.396 . S
C921 C922 1.399 . S
C922 H908 0.929 . S
C922 C921 1.399 . S
C922 C923 1.385 . S
C923 H909 0.931 . S
C923 C922 1.385 . S
C923 C924 1.389 . S
C924 C923 1.389 . S
C924 C925 1.387 . S
C925 H910 0.930 . S
C925 C920 1.390 . S
C925 C924 1.387 . S
H926 C938 0.930 . S
H927 C940 0.930 . S
H928 C941 0.930 . S
H929 C945 0.959 . S
H930 C945 0.959 . S
H931 C945 0.961 . S
H932 C946 0.960 . S
H933 C946 0.961 . S
H934 C946 0.959 . S
H935 C949 0.929 . S
H936 C950 0.931 . S
H937 C952 0.930 . S
C938 H926 0.930 . S
C938 C939 1.399 . S
C938 C943 1.399 . S
C939 C938 1.399 . S
C939 C940 1.376 . S
C940 H927 0.930 . S
C940 C939 1.376 . S
C940 C941 1.388 . S
C941 H928 0.930 . S
C941 C940 1.388 . S
C941 C942 1.390 . S
C942 C941 1.390 . S
C942 C943 1.394 . S
C942 C948 1.465 . S
C943 C938 1.399 . S
C943 C942 1.394 . S
C943 C944 1.516 . S
C944 C943 1.516 . S
C944 C945 1.502 . S
C944 C946 1.561 . S
C944 C947 1.526 . S
C945 H929 0.959 . S
C945 H930 0.959 . S
C945 H931 0.961 . S
C945 C944 1.502 . S
C946 H932 0.960 . S
C946 H933 0.961 . S
C946 H934 0.959 . S
C946 C944 1.561 . S
C947 C944 1.526 . S
C947 C948 1.396 . S
C947 C952 1.390 . S
C948 C942 1.465 . S
C948 C947 1.396 . S
C948 C949 1.399 . S
C949 H935 0.929 . S
C949 C948 1.399 . S
C949 C950 1.385 . S
C950 H936 0.931 . S
C950 C949 1.385 . S
C950 C951 1.389 . S
C951 C950 1.389 . S
C951 C952 1.387 . S
C952 H937 0.930 . S
C952 C947 1.390 . S
C952 C951 1.387 . S
H953 C965 0.930 . S
H954 C967 0.930 . S
H955 C968 0.930 . S
H956 C972 0.959 . S
H957 C972 0.959 . S
H958 C972 0.961 . S
H959 C973 0.960 . S
H960 C973 0.961 . S
H961 C973 0.959 . S
H962 C976 0.929 . S
H963 C977 0.931 . S
H964 C979 0.930 . S
C965 H953 0.930 . S
C965 C966 1.399 . S
C965 C970 1.399 . S
C966 C965 1.399 . S
C966 C967 1.376 . S
C967 H954 0.930 . S
C967 C966 1.376 . S
C967 C968 1.388 . S
C968 H955 0.930 . S
C968 C967 1.388 . S
C968 C969 1.390 . S
C969 C968 1.390 . S
C969 C970 1.394 . S
C969 C975 1.465 . S
C970 C965 1.399 . S
C970 C969 1.394 . S
C970 C971 1.516 . S
C971 C970 1.516 . S
C971 C972 1.502 . S
C971 C973 1.561 . S
C971 C974 1.526 . S
C972 H956 0.959 . S
C972 H957 0.959 . S
C972 H958 0.961 . S
C972 C971 1.502 . S
C973 H959 0.960 . S
C973 H960 0.961 . S
C973 H961 0.959 . S
C973 C971 1.561 . S
C974 C971 1.526 . S
C974 C975 1.396 . S
C974 C979 1.390 . S
C975 C969 1.465 . S
C975 C974 1.396 . S
C975 C976 1.399 . S
C976 H962 0.929 . S
C976 C975 1.399 . S
C976 C977 1.385 . S
C977 H963 0.931 . S
C977 C976 1.385 . S
C977 C978 1.389 . S
C978 C977 1.389 . S
C978 C979 1.387 . S
C979 H964 0.930 . S
C979 C974 1.390 . S
C979 C978 1.387 . S
H980 C992 0.930 . S
H981 C994 0.930 . S
H982 C995 0.930 . S
H983 C999 0.959 . S
H984 C999 0.959 . S
H985 C999 0.961 . S
H986 C1000 0.960 . S
H987 C1000 0.961 . S
H988 C1000 0.959 . S
H989 C1003 0.929 . S
H990 C1004 0.931 . S
H991 C1006 0.930 . S
C992 H980 0.930 . S
C992 C993 1.399 . S
C992 C997 1.399 . S
C993 C992 1.399 . S
C993 C994 1.376 . S
C994 H981 0.930 . S
C994 C993 1.376 . S
C994 C995 1.388 . S
C995 H982 0.930 . S
C995 C994 1.388 . S
C995 C996 1.390 . S
C996 C995 1.390 . S
C996 C997 1.394 . S
C996 C1002 1.465 . S
C997 C992 1.399 . S
C997 C996 1.394 . S
C997 C998 1.516 . S
C998 C997 1.516 . S
C998 C999 1.502 . S
C998 C1000 1.561 . S
C998 C1001 1.526 . S
C999 H983 0.959 . S
C999 H984 0.959 . S
C999 H985 0.961 . S
C999 C998 1.502 . S
C1000 H986 0.960 . S
C1000 H987 0.961 . S
C1000 H988 0.959 . S
C1000 C998 1.561 . S
C1001 C998 1.526 . S
C1001 C1002 1.396 . S
C1001 C1006 1.390 . S
C1002 C996 1.465 . S
C1002 C1001 1.396 . S
C1002 C1003 1.399 . S
C1003 H989 0.929 . S
C1003 C1002 1.399 . S
C1003 C1004 1.385 . S
C1004 H990 0.931 . S
C1004 C1003 1.385 . S
C1004 C1005 1.389 . S
C1005 C1004 1.389 . S
C1005 C1006 1.387 . S
C1006 H991 0.930 . S
C1006 C1001 1.390 . S
C1006 C1005 1.387 . S
H1007 C1019 0.930 . S
H1008 C1021 0.930 . S
H1009 C1022 0.930 . S
H1010 C1026 0.959 . S
H1011 C1026 0.959 . S
H1012 C1026 0.961 . S
H1013 C1027 0.960 . S
H1014 C1027 0.961 . S
H1015 C1027 0.959 . S
H1016 C1030 0.929 . S
H1017 C1031 0.931 . S
H1018 C1033 0.930 . S
C1019 H1007 0.930 . S
C1019 C1020 1.399 . S
C1019 C1024 1.399 . S
C1020 C1019 1.399 . S
C1020 C1021 1.376 . S
C1021 H1008 0.930 . S
C1021 C1020 1.376 . S
C1021 C1022 1.388 . S
C1022 H1009 0.930 . S
C1022 C1021 1.388 . S
C1022 C1023 1.390 . S
C1023 C1022 1.390 . S
C1023 C1024 1.394 . S
C1023 C1029 1.465 . S
C1024 C1019 1.399 . S
C1024 C1023 1.394 . S
C1024 C1025 1.516 . S
C1025 C1024 1.516 . S
C1025 C1026 1.502 . S
C1025 C1027 1.561 . S
C1025 C1028 1.526 . S
C1026 H1010 0.959 . S
C1026 H1011 0.959 . S
C1026 H1012 0.961 . S
C1026 C1025 1.502 . S
C1027 H1013 0.960 . S
C1027 H1014 0.961 . S
C1027 H1015 0.959 . S
C1027 C1025 1.561 . S
C1028 C1025 1.526 . S
C1028 C1029 1.396 . S
C1028 C1033 1.390 . S
C1029 C1023 1.465 . S
C1029 C1028 1.396 . S
C1029 C1030 1.399 . S
C1030 H1016 0.929 . S
C1030 C1029 1.399 . S
C1030 C1031 1.385 . S
C1031 H1017 0.931 . S
C1031 C1030 1.385 . S
C1031 C1032 1.389 . S
C1032 C1031 1.389 . S
C1032 C1033 1.387 . S
C1033 H1018 0.930 . S
C1033 C1028 1.390 . S
C1033 C1032 1.387 . S
H1034 C1046 0.930 . S
H1035 C1048 0.930 . S
H1036 C1049 0.930 . S
H1037 C1053 0.959 . S
H1038 C1053 0.959 . S
H1039 C1053 0.961 . S
H1040 C1054 0.960 . S
H1041 C1054 0.961 . S
H1042 C1054 0.959 . S
H1043 C1057 0.929 . S
H1044 C1058 0.931 . S
H1045 C1060 0.930 . S
C1046 H1034 0.930 . S
C1046 C1047 1.399 . S
C1046 C1051 1.399 . S
C1047 C1046 1.399 . S
C1047 C1048 1.376 . S
C1048 H1035 0.930 . S
C1048 C1047 1.376 . S
C1048 C1049 1.388 . S
C1049 H1036 0.930 . S
C1049 C1048 1.388 . S
C1049 C1050 1.390 . S
C1050 C1049 1.390 . S
C1050 C1051 1.394 . S
C1050 C1056 1.465 . S
C1051 C1046 1.399 . S
C1051 C1050 1.394 . S
C1051 C1052 1.516 . S
C1052 C1051 1.516 . S
C1052 C1053 1.502 . S
C1052 C1054 1.561 . S
C1052 C1055 1.526 . S
C1053 H1037 0.959 . S
C1053 H1038 0.959 . S
C1053 H1039 0.961 . S
C1053 C1052 1.502 . S
C1054 H1040 0.960 . S
C1054 H1041 0.961 . S
C1054 H1042 0.959 . S
C1054 C1052 1.561 . S
C1055 C1052 1.526 . S
C1055 C1056 1.396 . S
C1055 C1060 1.390 . S
C1056 C1050 1.465 . S
C1056 C1055 1.396 . S
C1056 C1057 1.399 . S
C1057 H1043 0.929 . S
C1057 C1056 1.399 . S
C1057 C1058 1.385 . S
C1058 H1044 0.931 . S
C1058 C1057 1.385 . S
C1058 C1059 1.389 . S
C1059 C1058 1.389 . S
C1059 C1060 1.387 . S
C1060 H1045 0.930 . S
C1060 C1055 1.390 . S
C1060 C1059 1.387 . S
H1061 C1073 0.930 . S
H1062 C1075 0.930 . S
H1063 C1076 0.930 . S
H1064 C1080 0.959 . S
H1065 C1080 0.959 . S
H1066 C1080 0.961 . S
H1067 C1081 0.960 . S
H1068 C1081 0.961 . S
H1069 C1081 0.959 . S
H1070 C1084 0.929 . S
H1071 C1085 0.931 . S
H1072 C1087 0.930 . S
C1073 H1061 0.930 . S
C1073 C1074 1.399 . S
C1073 C1078 1.399 . S
C1074 C1073 1.399 . S
C1074 C1075 1.376 . S
C1075 H1062 0.930 . S
C1075 C1074 1.376 . S
C1075 C1076 1.388 . S
C1076 H1063 0.930 . S
C1076 C1075 1.388 . S
C1076 C1077 1.390 . S
C1077 C1076 1.390 . S
C1077 C1078 1.394 . S
C1077 C1083 1.465 . S
C1078 C1073 1.399 . S
C1078 C1077 1.394 . S
C1078 C1079 1.516 . S
C1079 C1078 1.516 . S
C1079 C1080 1.502 . S
C1079 C1081 1.561 . S
C1079 C1082 1.526 . S
C1080 H1064 0.959 . S
C1080 H1065 0.959 . S
C1080 H1066 0.961 . S
C1080 C1079 1.502 . S
C1081 H1067 0.960 . S
C1081 H1068 0.961 . S
C1081 H1069 0.959 . S
C1081 C1079 1.561 . S
C1082 C1079 1.526 . S
C1082 C1083 1.396 . S
C1082 C1087 1.390 . S
C1083 C1077 1.465 . S
C1083 C1082 1.396 . S
C1083 C1084 1.399 . S
C1084 H1070 0.929 . S
C1084 C1083 1.399 . S
C1084 C1085 1.385 . S
C1085 H1071 0.931 . S
C1085 C1084 1.385 . S
C1085 C1086 1.389 . S
C1086 C1085 1.389 . S
C1086 C1087 1.387 . S
C1087 H1072 0.930 . S
C1087 C1082 1.390 . S
C1087 C1086 1.387 . S
C237 C9 1.336 . S
C249 C37 1.360 . S
C264 C51 1.370 . S
C276 C23 1.345 . S
C291 C65 1.370 . S
C303 C93 1.344 . S
C318 C107 1.384 . S
C330 C79 1.327 . S
C345 C121 1.330 . S
C357 C149 1.363 . S
C372 C163 1.329 . S
C384 C135 1.365 . S
C399 C177 1.384 . S
C411 C205 1.329 . S
C426 C219 1.383 . S
C438 C191 1.331 . S
C453 C59 1.332 . S
C465 C3 1.247 . S
C480 C17 1.293 . S
C492 C73 1.293 . S
C507 C31 1.332 . S
C519 C87 1.247 . S
C534 C101 1.267 . S
C546 C45 1.317 . S
C561 C115 1.310 . S
C573 C171 1.230 . S
C588 C129 1.235 . S
C600 C185 1.293 . S
C615 C143 1.260 . S
C627 C199 1.337 . S
C642 C157 1.235 . S
C654 C213 1.293 . S
C669 C147 1.270 . S
C681 C7 1.263 . S
C696 C161 1.270 . S
C708 C21 1.275 . S
C723 C35 1.271 . S
C735 C119 1.265 . S
C750 C49 1.276 . S
C762 C133 1.277 . S
C777 C63 1.265 . S
C789 C203 1.257 . S
C804 C77 1.268 . S
C816 C217 1.273 . S
C831 C91 1.273 . S
C843 C175 1.267 . S
C858 C189 1.225 . S
C870 C105 1.221 . S
C885 C8 1.385 . S
C897 C218 1.385 . S
C912 C176 1.380 . S
C924 C22 1.379 . S
C939 C36 1.378 . S
C951 C190 1.379 . S
C966 C204 1.380 . S
C978 C50 1.379 . S
C993 C134 1.381 . S
C1005 C64 1.382 . S
C1020 C78 1.385 . S
C1032 C148 1.385 . S
C1047 C162 1.381 . S
C1059 C92 1.383 . S
C1074 C120 1.381 . S
C1086 C106 1.380 . S
