# Generated by pormake.
# Topology cab, (5)-cn, num edge types: 1
# Building blocks:
#     Node 0, Type 0, BuildingBlock: XOMCOT_clean_sbu_0, # of connection points: 5
#     Node 1, Type 0, BuildingBlock: XOMCOT_clean_sbu_0, # of connection points: 5
#     Node 2, Type 0, BuildingBlock: XOMCOT_clean_sbu_0, # of connection points: 5
#     Node 3, Type 0, BuildingBlock: XOMCOT_clean_sbu_0, # of connection points: 5
#     Node 4, Type 0, BuildingBlock: XOMCOT_clean_sbu_0, # of connection points: 5
#     Node 5, Type 0, BuildingBlock: XOMCOT_clean_sbu_0, # of connection points: 5
#     Edge 6, Type (0, 0), BuildingBlock: TEMPAE_clean_linker_10, # of connection points: 2
#     Edge 7, Type (0, 0), BuildingBlock: TEMPAE_clean_linker_10, # of connection points: 2
#     Edge 8, Type (0, 0), BuildingBlock: TEMPAE_clean_linker_10, # of connection points: 2
#     Edge 9, Type (0, 0), BuildingBlock: TEMPAE_clean_linker_10, # of connection points: 2
#     Edge 10, Type (0, 0), BuildingBlock: TEMPAE_clean_linker_10, # of connection points: 2
#     Edge 11, Type (0, 0), BuildingBlock: TEMPAE_clean_linker_10, # of connection points: 2
#     Edge 12, Type (0, 0), BuildingBlock: TEMPAE_clean_linker_10, # of connection points: 2
#     Edge 13, Type (0, 0), BuildingBlock: TEMPAE_clean_linker_10, # of connection points: 2
#     Edge 14, Type (0, 0), BuildingBlock: TEMPAE_clean_linker_10, # of connection points: 2
#     Edge 15, Type (0, 0), BuildingBlock: TEMPAE_clean_linker_10, # of connection points: 2
#     Edge 16, Type (0, 0), BuildingBlock: TEMPAE_clean_linker_10, # of connection points: 2
#     Edge 17, Type (0, 0), BuildingBlock: TEMPAE_clean_linker_10, # of connection points: 2
#     Edge 18, Type (0, 0), BuildingBlock: TEMPAE_clean_linker_10, # of connection points: 2
#     Edge 19, Type (0, 0), BuildingBlock: TEMPAE_clean_linker_10, # of connection points: 2
#     Edge 20, Type (0, 0), BuildingBlock: TEMPAE_clean_linker_10, # of connection points: 2
# Relax obj value: 0.836
# Max RMSD: 0.225
# Mean RMSD: 0.222
data_MOF--net-cab--node1-XOMCOT_clean_sbu_0--edge1-TEMPAE_clean_linker_10
_symmetry_space_group_name_H-M    P1
_symmetry_Int_Tables_number       1
_symmetry_cell_setting            triclinic
loop_
_symmetry_equiv_pos_as_xyz
'x, y, z'
_cell_length_a     36.554031
_cell_length_b     36.685039
_cell_length_c     36.431409
_cell_angle_alpha  78.700363
_cell_angle_beta   77.598072
_cell_angle_gamma 79.041751
loop_
_atom_site_label
_atom_site_type_symbol
_atom_site_fract_x
_atom_site_fract_y
_atom_site_fract_z
_atom_type_partial_charge
Co0 Co 0.01602 0.00646 0.36587 0.0
C1 C 0.03577 0.92451 0.39038 0.0
C2 C 0.97688 0.94356 0.40925 0.0
C3 C 0.9831 0.90485 0.41628 0.0
N4 N 0.0099 0.95596 0.39231 0.0
N5 N 0.02015 0.89297 0.40428 0.0
H6 H 0.06455 0.92412 0.37484 0.0
H7 H 0.94938 0.9609 0.41306 0.0
C8 C 0.93858 0.05082 0.37318 0.0
O9 O 0.9526 0.07762 0.38222 0.0
N10 N 0.02164 0.0566 0.33819 0.0
C11 C 0.04633 0.07921 0.33919 0.0
C12 C 0.04481 0.1085 0.30918 0.0
C13 C 0.00613 0.07214 0.30717 0.0
N14 N 0.01947 0.10406 0.28891 0.0
C15 C 0.04575 0.02752 0.42369 0.0
C16 C 0.97956 0.03377 0.477 0.0
C17 C 0.01237 0.04257 0.48509 0.0
C18 C 0.046 0.03818 0.45822 0.0
C19 C 0.9808 0.02234 0.44228 0.0
N20 N 0.01307 0.02161 0.41503 0.0
H21 H 0.07227 0.02369 0.40408 0.0
H22 H 0.95557 0.0142 0.43771 0.0
H23 H 0.06588 0.07411 0.35858 0.0
H24 H 0.98619 0.05937 0.29777 0.0
O25 O 0.07022 0.99244 0.35294 0.0
O26 O 0.02987 0.98869 0.31692 0.0
O27 O 0.95964 0.01954 0.36781 0.0
C28 C 0.06495 0.98575 0.32088 0.0
H29 H 0.96143 0.88687 0.42532 0.0
H30 H 0.06261 0.13021 0.30198 0.0
H31 H 0.95301 0.03587 0.49708 0.0
H32 H 0.07264 0.04246 0.46388 0.0
Co33 Co 0.15136 0.14568 0.78072 0.0
C34 C 0.07921 0.16458 0.83499 0.0
C35 C 0.12119 0.12452 0.86085 0.0
C36 C 0.09 0.13152 0.88846 0.0
N37 N 0.11435 0.14481 0.82733 0.0
N38 N 0.06359 0.15656 0.87228 0.0
H39 H 0.06537 0.18401 0.81385 0.0
H40 H 0.14744 0.10633 0.86507 0.0
C41 C 0.17262 0.06264 0.77858 0.0
O42 O 0.17062 0.06838 0.74226 0.0
N43 N 0.19072 0.14606 0.73535 0.0
C44 C 0.1972 0.17508 0.70675 0.0
C45 C 0.23528 0.17073 0.69074 0.0
C46 C 0.22501 0.1248 0.73594 0.0
N47 N 0.25265 0.13898 0.70932 0.0
C48 C 0.10693 0.15968 0.72178 0.0
C49 C 0.07092 0.09713 0.74804 0.0
C50 C 0.06634 0.1187 0.71271 0.0
C51 C 0.08324 0.15123 0.7003 0.0
C52 C 0.09415 0.10712 0.76897 0.0
N53 N 0.1141 0.13633 0.75432 0.0
H54 H 0.11998 0.1846 0.71186 0.0
H55 H 0.09743 0.09027 0.79627 0.0
H56 H 0.17743 0.20056 0.70145 0.0
H57 H 0.23102 0.10324 0.7597 0.0
O58 O 0.14196 0.19981 0.77243 0.0
O59 O 0.18401 0.16387 0.8055 0.0
O60 O 0.16729 0.09031 0.79655 0.0
C61 C 0.16723 0.19735 0.79349 0.0
H62 H 0.08718 0.11958 0.91838 0.0
H63 H 0.24971 0.19163 0.67058 0.0
H64 H 0.0576 0.0722 0.75877 0.0
H65 H 0.07977 0.16886 0.67332 0.0
Co66 Co 0.36568 0.01572 0.01658 0.0
C67 C 0.3774 0.05571 0.93658 0.0
C68 C 0.41723 0.00515 0.9437 0.0
C69 C 0.42175 0.02 0.90556 0.0
N70 N 0.38933 0.0275 0.96333 0.0
N71 N 0.39636 0.05158 0.90111 0.0
H72 H 0.35396 0.07787 0.94233 0.0
H73 H 0.43147 0.97828 0.95548 0.0
C74 C 0.3695 0.93232 0.034 0.0
O75 O 0.37442 0.93282 0.06852 0.0
N76 N 0.34118 0.00383 0.06964 0.0
C77 C 0.35482 0.0018 0.10178 0.0
C78 C 0.32732 0.99228 0.13284 0.0
C79 C 0.30538 0.99611 0.0818 0.0
N80 N 0.2964 0.98891 0.12006 0.0
C81 C 0.4268 0.0364 0.04093 0.0
C82 C 0.47679 0.9699 0.0372 0.0
C83 C 0.48788 8e-05 0.04781 0.0
C84 C 0.46251 0.03359 0.04969 0.0
C85 C 0.44087 0.97405 0.02802 0.0
N86 N 0.41587 0.00685 0.03052 0.0
H87 H 0.40794 0.06258 0.04299 0.0
H88 H 0.43448 0.95105 0.01761 0.0
H89 H 0.38271 0.00653 0.10309 0.0
H90 H 0.28621 0.9955 0.06313 0.0
O91 O 0.35179 0.06841 0.02071 0.0
O92 O 0.3159 0.03483 0.00368 0.0
O93 O 0.36819 0.96223 0.00927 0.0
C94 C 0.31959 0.06667 0.01207 0.0
H95 H 0.43992 0.00678 0.88264 0.0
H96 H 0.32947 0.98901 0.16252 0.0
H97 H 0.49617 0.94382 0.03475 0.0
H98 H 0.47023 0.05752 0.05794 0.0
Co99 Co 0.00716 0.34528 0.03323 0.0
C100 C 0.92588 0.37245 0.03585 0.0
C101 C 0.95625 0.3792 0.97834 0.0
C102 C 0.91801 0.38863 0.97781 0.0
N103 N 0.96104 0.36857 0.01484 0.0
N104 N 0.89906 0.38386 0.01401 0.0
H105 H 0.91963 0.36423 0.06644 0.0
H106 H 0.97851 0.37779 0.95357 0.0
C107 C 0.06962 0.36647 0.96864 0.0
O108 O 0.08777 0.37502 0.9925 0.0
N109 N 0.05355 0.32087 0.05131 0.0
C110 C 0.06036 0.31478 0.08724 0.0
C111 C 0.09177 0.28771 0.08994 0.0
C112 C 0.08064 0.29664 0.03307 0.0
N113 N 0.10442 0.27655 0.05581 0.0
C114 C 0.00655 0.39622 0.08333 0.0
C115 C 0.02475 0.45614 0.02762 0.0
C116 C 0.02544 0.45759 0.06562 0.0
C117 C 0.01438 0.42794 0.09384 0.0
C118 C 0.01662 0.42374 0.01845 0.0
N119 N 0.0111 0.39308 0.04589 0.0
H120 H 0.99735 0.37398 0.10545 0.0
H121 H 0.01591 0.42304 0.98914 0.0
H122 H 0.04223 0.3262 0.11106 0.0
H123 H 0.08111 0.2915 0.00469 0.0
O124 O 0.97847 0.32416 0.08091 0.0
O125 O 0.99801 0.29594 0.03005 0.0
O126 O 0.03699 0.35639 0.98047 0.0
C127 C 0.98164 0.29425 0.06565 0.0
H128 H 0.90509 0.39473 0.95274 0.0
H129 H 0.10329 0.27577 0.11546 0.0
H130 H 0.03189 0.47908 0.00504 0.0
H131 H 0.01246 0.42896 0.12372 0.0
Co132 Co 0.79913 0.14905 0.09677 0.0
C133 C 0.7397 0.21542 0.08875 0.0
C134 C 0.75327 0.20445 0.14433 0.0
C135 C 0.73049 0.23877 0.13982 0.0
N136 N 0.75889 0.18936 0.11234 0.0
N137 N 0.7226 0.24647 0.10425 0.0
H138 H 0.74229 0.21365 0.05911 0.0
H139 H 0.7684 0.19413 0.1676 0.0
C140 C 0.78166 0.12048 0.18082 0.0
O141 O 0.74529 0.12479 0.18004 0.0
N142 N 0.83979 0.1102 0.08086 0.0
C143 C 0.84256 0.09202 0.05147 0.0
C144 C 0.87669 0.06841 0.04767 0.0
C145 C 0.87237 0.09789 0.0943 0.0
N146 N 0.89551 0.07212 0.07454 0.0
C147 C 0.73266 0.12761 0.08253 0.0
C148 C 0.74364 0.0544 0.1207 0.0
C149 C 0.7114 0.06745 0.10437 0.0
C150 C 0.70613 0.10429 0.0848 0.0
C151 C 0.76921 0.07898 0.11837 0.0
N152 N 0.76292 0.11546 0.10042 0.0
H153 H 0.72908 0.15517 0.06581 0.0
H154 H 0.79415 0.06866 0.13103 0.0
H155 H 0.8212 0.09575 0.03404 0.0
H156 H 0.8792 0.10813 0.11752 0.0
O157 O 0.80222 0.17183 0.04393 0.0
O158 O 0.83488 0.18405 0.08362 0.0
O159 O 0.80542 0.12996 0.15079 0.0
C160 C 0.82818 0.18923 0.04912 0.0
H161 H 0.72524 0.2586 0.15946 0.0
H162 H 0.88645 0.04937 0.02712 0.0
H163 H 0.74879 0.02574 0.13534 0.0
H164 H 0.68199 0.11471 0.07078 0.0
Co165 Co 0.13843 0.80829 0.08686 0.0
C166 C 0.14129 0.7875 0.1685 0.0
C167 C 0.19296 0.80522 0.1358 0.0
C168 C 0.19505 0.79968 0.17377 0.0
N169 N 0.15919 0.79786 0.13265 0.0
N170 N 0.16262 0.78839 0.19416 0.0
H171 H 0.11203 0.78287 0.17581 0.0
H172 H 0.21334 0.8165 0.11237 0.0
C173 C 0.20341 0.77874 0.02862 0.0
O174 O 0.18065 0.76384 0.01446 0.0
N175 N 0.11816 0.82007 0.04006 0.0
C176 C 0.08296 0.81947 0.03427 0.0
C177 C 0.07962 0.83776 0.99796 0.0
C178 C 0.13501 0.8397 0.00765 0.0
N179 N 0.11265 0.84992 0.98132 0.0
C180 C 0.09421 0.74907 0.10391 0.0
C181 C 0.15388 0.69016 0.10202 0.0
C182 C 0.11679 0.68261 0.10741 0.0
C183 C 0.08669 0.7125 0.10941 0.0
C184 C 0.16007 0.72735 0.09692 0.0
N185 N 0.13053 0.75637 0.09526 0.0
H186 H 0.0706 0.77145 0.10698 0.0
H187 H 0.18861 0.73266 0.09445 0.0
H188 H 0.06006 0.80938 0.05538 0.0
H189 H 0.16199 0.84905 0.00448 0.0
O190 O 0.09037 0.82948 0.11392 0.0
O191 O 0.13679 0.86183 0.08498 0.0
O192 O 0.191 0.79658 0.05674 0.0
C193 C 0.10232 0.86179 0.10416 0.0
H194 H 0.21723 0.80636 0.18565 0.0
H195 H 0.0544 0.84328 0.98544 0.0
H196 H 0.17778 0.66759 0.10171 0.0
H197 H 0.05753 0.70785 0.11418 0.0
C198 C 0.94889 0.25664 0.12327 0.0
C199 C 0.97696 0.25808 0.09041 0.0
C200 C 0.9514 0.22627 0.15321 0.0
C201 C 0.98355 0.19782 0.15063 0.0
C202 C 0.00998 0.19742 0.11598 0.0
C203 C 0.00599 0.22741 0.08593 0.0
C204 C 0.92153 0.22645 0.18894 0.0
C205 C 0.04448 0.1674 0.11202 0.0
C206 C 0.02079 0.16323 0.24268 0.0
C207 C 0.01036 0.12723 0.25401 0.0
C208 C 0.01276 0.18596 0.20881 0.0
C209 C 0.99299 0.17287 0.1858 0.0
C210 C 0.98236 0.13666 0.19671 0.0
C211 C 0.99115 0.11427 0.23064 0.0
C212 C 0.02551 0.22413 0.19764 0.0
C213 C 0.96101 0.1217 0.17318 0.0
H214 H 0.92631 0.28034 0.1265 0.0
H215 H 0.02783 0.22868 0.06051 0.0
H216 H 0.91385 0.1979 0.19959 0.0
H217 H 0.9329 0.23468 0.2115 0.0
H218 H 0.89549 0.24654 0.1841 0.0
H219 H 0.06087 0.16962 0.08242 0.0
H220 H 0.06336 0.16991 0.13124 0.0
H221 H 0.036 0.13903 0.1207 0.0
H222 H 0.03505 0.17406 0.26037 0.0
H223 H 0.98307 0.08653 0.23842 0.0
H224 H 0.00047 0.24655 0.1969 0.0
H225 H 0.04314 0.22658 0.16863 0.0
H226 H 0.04223 0.22936 0.21768 0.0
H227 H 0.93027 0.13197 0.18119 0.0
H228 H 0.96539 0.09049 0.17833 0.0
H229 H 0.96962 0.13143 0.14224 0.0
C230 C 0.7717 0.10487 0.25221 0.0
C231 C 0.79594 0.10583 0.21662 0.0
C232 C 0.78637 0.09365 0.28606 0.0
C233 C 0.82602 0.08336 0.28391 0.0
C234 C 0.85025 0.08261 0.24801 0.0
C235 C 0.83492 0.09388 0.21493 0.0
C236 C 0.75964 0.09427 0.32384 0.0
C237 C 0.89272 0.0714 0.24427 0.0
C238 C 0.88605 0.09685 0.3498 0.0
C239 C 0.90136 0.05938 0.36137 0.0
C240 C 0.85738 0.10547 0.32803 0.0
C241 C 0.84352 0.07584 0.31828 0.0
C242 C 0.85498 0.03821 0.33463 0.0
C243 C 0.88422 0.03032 0.35573 0.0
C244 C 0.84576 0.14603 0.31135 0.0
C245 C 0.83993 0.00595 0.32589 0.0
H246 H 0.74149 0.11393 0.25364 0.0
H247 H 0.85377 0.0939 0.18755 0.0
H248 H 0.76814 0.06974 0.34513 0.0
H249 H 0.76057 0.12008 0.33496 0.0
H250 H 0.72994 0.09432 0.32112 0.0
H251 H 0.90474 0.09272 0.2539 0.0
H252 H 0.89981 0.04396 0.26236 0.0
H253 H 0.90674 0.069 0.21449 0.0
H254 H 0.89883 0.11949 0.35452 0.0
H255 H 0.89542 0.00129 0.36544 0.0
H256 H 0.81486 0.15221 0.31145 0.0
H257 H 0.86064 0.15138 0.2813 0.0
H258 H 0.85318 0.16575 0.32717 0.0
H259 H 0.80926 0.01345 0.32484 0.0
H260 H 0.84434 0.98024 0.34736 0.0
H261 H 0.85505 -0.00068 0.29757 0.0
C262 C 0.07077 0.8391 0.39758 0.0
C263 C 0.03555 0.8584 0.39025 0.0
C264 C 0.09286 0.81445 0.37349 0.0
C265 C 0.08009 0.81117 0.34044 0.0
C266 C 0.0425 0.82682 0.33589 0.0
C267 C 0.0204 0.84983 0.3614 0.0
C268 C 0.13157 0.79558 0.38088 0.0
C269 C 0.02755 0.82401 0.30114 0.0
C270 C 0.14698 0.82442 0.24642 0.0
C271 C 0.14809 0.79078 0.23345 0.0
C272 C 0.12675 0.83041 0.28243 0.0
C273 C 0.10804 0.80148 0.30641 0.0
C274 C 0.11193 0.76616 0.29462 0.0
C275 C 0.13123 0.76153 0.25769 0.0
C276 C 0.12285 0.86887 0.29332 0.0
C277 C 0.09429 0.73385 0.31984 0.0
H278 H 0.0822 0.84566 0.42018 0.0
H279 H 0.99315 0.86502 0.35583 0.0
H280 H 0.13903 0.76766 0.37146 0.0
H281 H 0.15315 0.81315 0.36464 0.0
H282 H 0.13295 0.79197 0.41158 0.0
H283 H 0.99675 0.83489 0.30366 0.0
H284 H 0.04293 0.84054 0.2756 0.0
H285 H 0.03241 0.7944 0.29645 0.0
H286 H 0.15971 0.84703 0.22719 0.0
H287 H 0.13243 0.73547 0.24737 0.0
H288 H 0.13163 0.86651 0.32106 0.0
H289 H 0.09275 0.88246 0.29631 0.0
H290 H 0.14032 0.88755 0.27189 0.0
H291 H 0.08972 0.73613 0.35048 0.0
H292 H 0.11248 0.70661 0.31518 0.0
H293 H 0.06655 0.73333 0.31239 0.0
C294 C 0.2579 0.95137 0.17204 0.0
C295 C 0.26029 0.98241 0.1429 0.0
C296 C 0.22364 0.947 0.19749 0.0
C297 C 0.19148 0.97516 0.19452 0.0
C298 C 0.19337 0.00559 0.16377 0.0
C299 C 0.22772 0.00854 0.13797 0.0
C300 C 0.22224 0.91305 0.22848 0.0
C301 C 0.16005 0.03653 0.15976 0.0
C302 C 0.09477 0.96453 0.25791 0.0
C303 C 0.09734 0.98041 0.28912 0.0
C304 C 0.12552 0.96145 0.22715 0.0
C305 C 0.1587 0.97628 0.22699 0.0
C306 C 0.16094 0.99284 0.25828 0.0
C307 C 0.13063 0.99403 0.28913 0.0
C308 C 0.12232 0.94241 0.19506 0.0
C309 C 0.19522 0.01 0.259 0.0
H310 H 0.28313 0.93094 0.17521 0.0
H311 H 0.22985 0.03251 0.1153 0.0
H312 H 0.21592 0.92192 0.25689 0.0
H313 H 0.19908 0.8981 0.22697 0.0
H314 H 0.24928 0.89309 0.22608 0.0
H315 H 0.16516 0.05664 0.13278 0.0
H316 H 0.13419 0.02448 0.16074 0.0
H317 H 0.15437 0.05232 0.18398 0.0
H318 H 0.069 0.95409 0.25774 0.0
H319 H 0.13255 0.00698 0.31283 0.0
H320 H 0.14928 0.92413 0.18565 0.0
H321 H 0.11624 0.96403 0.17032 0.0
H322 H 0.09912 0.92508 0.20345 0.0
H323 H 0.22061 0.98794 0.25886 0.0
H324 H 0.19155 0.02367 0.28447 0.0
H325 H 0.20088 0.03135 0.23315 0.0
C326 C 0.09575 0.90666 0.93612 0.0
C327 C 0.12109 0.87419 0.94565 0.0
C328 C 0.10643 0.93376 0.90457 0.0
C329 C 0.14318 0.92784 0.882 0.0
C330 C 0.16793 0.8939 0.89025 0.0
C331 C 0.15653 0.86749 0.92211 0.0
C332 C 0.07933 0.96976 0.89693 0.0
C333 C 0.20709 0.88636 0.86666 0.0
C334 C 0.15847 0.99684 0.78969 0.0
C335 C 0.17268 0.02468 0.80145 0.0
C336 C 0.15049 0.96394 0.81503 0.0
C337 C 0.15697 0.959 0.85278 0.0
C338 C 0.17391 0.98579 0.86379 0.0
C339 C 0.18159 0.01826 0.83796 0.0
C340 C 0.13286 0.93574 0.80219 0.0
C341 C 0.18168 0.98142 0.90366 0.0
H342 H 0.06846 0.91181 0.95463 0.0
H343 H 0.17558 0.84185 0.92929 0.0
H344 H 0.09087 0.99364 0.90246 0.0
H345 H 0.07619 0.97568 0.86662 0.0
H346 H 0.05084 0.96866 0.91513 0.0
H347 H 0.22166 0.85739 0.87509 0.0
H348 H 0.20546 0.89051 0.83603 0.0
H349 H 0.22466 0.90663 0.87 0.0
H350 H 0.15137 0.00175 0.76154 0.0
H351 H 0.19295 0.03958 0.84703 0.0
H352 H 0.10249 0.93768 0.8158 0.0
H353 H 0.14674 0.90667 0.81113 0.0
H354 H 0.13482 0.94077 0.77079 0.0
H355 H 0.15444 0.98342 0.92424 0.0
H356 H 0.19755 0.00332 0.90672 0.0
H357 H 0.19819 0.95335 0.91159 0.0
C358 C 0.41217 0.07369 0.83179 0.0
C359 C 0.38536 0.07079 0.86576 0.0
C360 C 0.40092 0.08846 0.79657 0.0
C361 C 0.3619 0.09977 0.79541 0.0
C362 C 0.33491 0.09825 0.82984 0.0
C363 C 0.34702 0.08397 0.86447 0.0
C364 C 0.43071 0.09029 0.76077 0.0
C365 C 0.29285 0.10988 0.83012 0.0
C366 C 0.3085 0.15845 0.72227 0.0
C367 C 0.29154 0.13057 0.71394 0.0
C368 C 0.33687 0.14859 0.74457 0.0
C369 C 0.34789 0.11019 0.75878 0.0
C370 C 0.33573 0.08215 0.74459 0.0
C371 C 0.30766 0.0928 0.72208 0.0
C372 C 0.35066 0.1793 0.75754 0.0
C373 C 0.34757 0.04084 0.75808 0.0
H374 H 0.44189 0.06379 0.83273 0.0
H375 H 0.32604 0.08129 0.89041 0.0
H376 H 0.43391 0.06422 0.74852 0.0
H377 H 0.42275 0.11456 0.73897 0.0
H378 H 0.45869 0.09236 0.76686 0.0
H379 H 0.27583 0.10793 0.85944 0.0
H380 H 0.28706 0.13927 0.81541 0.0
H381 H 0.28291 0.0916 0.81457 0.0
H382 H 0.29632 0.18775 0.71572 0.0
H383 H 0.29472 0.07138 0.71514 0.0
H384 H 0.38079 0.1711 0.76069 0.0
H385 H 0.3336 0.18427 0.78573 0.0
H386 H 0.3476 0.20611 0.73726 0.0
H387 H 0.37824 0.03465 0.75914 0.0
H388 H 0.34147 0.02307 0.73936 0.0
H389 H 0.33174 0.03289 0.78733 0.0
C390 C 0.16629 0.26597 0.78994 0.0
C391 C 0.16923 0.22951 0.81075 0.0
C392 C 0.15811 0.29735 0.80868 0.0
C393 C 0.15049 0.29168 0.84899 0.0
C394 C 0.15583 0.25473 0.86981 0.0
C395 C 0.16625 0.22412 0.85025 0.0
C396 C 0.15445 0.33623 0.78541 0.0
C397 C 0.14573 0.247 0.91279 0.0
C398 C 0.12917 0.35789 0.92006 0.0
C399 C 0.08975 0.35929 0.93042 0.0
C400 C 0.14959 0.34 0.88948 0.0
C401 C 0.13005 0.32257 0.86986 0.0
C402 C 0.08994 0.32813 0.87721 0.0
C403 C 0.07027 0.34707 0.90701 0.0
C404 C 0.19225 0.33611 0.88097 0.0
C405 C 0.06782 0.30993 0.85711 0.0
H406 H 0.1687 0.26993 0.75927 0.0
H407 H 0.16792 0.1958 0.86627 0.0
H408 H 0.12482 0.34522 0.78081 0.0
H409 H 0.16155 0.35708 0.80005 0.0
H410 H 0.17317 0.33648 0.757 0.0
H411 H 0.15633 0.21755 0.92463 0.0
H412 H 0.15723 0.26632 0.92558 0.0
H413 H 0.11442 0.25192 0.92165 0.0
H414 H 0.14439 0.36801 0.93751 0.0
H415 H 0.03968 0.34903 0.91415 0.0
H416 H 0.203 0.33907 0.8498 0.0
H417 H 0.20446 0.30771 0.89402 0.0
H418 H 0.20245 0.35735 0.89261 0.0
H419 H 0.07736 0.31585 0.82585 0.0
H420 H 0.03681 0.31981 0.86377 0.0
H421 H 0.07286 0.27893 0.86597 0.0
C422 C 0.88649 0.21854 0.02271 0.0
C423 C 0.85482 0.20594 0.01642 0.0
C424 C 0.91876 0.22118 0.99399 0.0
C425 C 0.91916 0.21089 0.9584 0.0
C426 C 0.88519 0.20396 0.95022 0.0
C427 C 0.85327 0.20161 0.97941 0.0
C428 C 0.95381 0.23007 0.00373 0.0
C429 C 0.88396 0.19395 0.9123 0.0
C430 C 0.00967 0.20798 0.88289 0.0
C431 C 0.02646 0.17044 0.89179 0.0
C432 C 0.97455 0.22194 0.90411 0.0
C433 C 0.95602 0.19762 0.93467 0.0
C434 C 0.97274 0.15954 0.94317 0.0
C435 C 0.00758 0.14653 0.92161 0.0
C436 C 0.95793 0.26278 0.89456 0.0
C437 C 0.95409 0.1324 0.97542 0.0
H438 H 0.88756 0.2229 0.05104 0.0
H439 H 0.82854 0.19269 0.97407 0.0
H440 H 0.97091 0.20349 0.01503 0.0
H441 H 0.9717 0.24419 0.97842 0.0
H442 H 0.9461 0.24837 0.026 0.0
H443 H 0.85441 0.1976 0.90744 0.0
H444 H 0.90055 0.21141 0.88859 0.0
H445 H 0.89675 0.16405 0.91169 0.0
H446 H 0.02451 0.2266 0.86013 0.0
H447 H 0.02028 0.11739 0.92814 0.0
H448 H 0.96013 0.27812 0.9172 0.0
H449 H 0.92741 0.2657 0.89342 0.0
H450 H 0.97292 0.27645 0.86693 0.0
H451 H 0.95039 0.14279 0.00282 0.0
H452 H 0.97089 0.10371 0.97805 0.0
H453 H 0.92552 0.13034 0.97093 0.0
C454 C 0.29058 0.12847 0.03177 0.0
C455 C 0.28834 0.09869 0.01382 0.0
C456 C 0.26012 0.15771 0.03685 0.0
C457 C 0.22677 0.15744 0.02317 0.0
C458 C 0.22474 0.12809 0.00392 0.0
C459 C 0.25553 0.0988 -0.00027 0.0
C460 C 0.26329 0.18841 0.05773 0.0
C461 C 0.18982 0.1273 0.98842 0.0
C462 C 0.13741 0.21245 0.07246 0.0
C463 C 0.13412 0.24619 0.04681 0.0
C464 C 0.16665 0.18274 0.06443 0.0
C465 C 0.19371 0.18737 0.03029 0.0
C466 C 0.19042 0.22144 0.00421 0.0
C467 C 0.16018 0.25029 0.01254 0.0
C468 C 0.16909 0.14677 0.09287 0.0
C469 C 0.21933 0.22767 0.96804 0.0
H470 H 0.31582 0.12842 0.04289 0.0
H471 H 0.25378 0.07586 0.98573 0.0
H472 H 0.25765 0.21638 0.03999 0.0
H473 H 0.24164 0.18805 0.08427 0.0
H474 H 0.2917 0.1852 0.06535 0.0
H475 H 0.19328 0.10326 0.97294 0.0
H476 H 0.1651 0.12531 0.01209 0.0
H477 H 0.1832 0.15384 0.96876 0.0
H478 H 0.11687 0.20934 0.09874 0.0
H479 H 0.15751 0.27659 0.99293 0.0
H480 H 0.19554 0.14257 0.1045 0.0
H481 H 0.17031 0.12231 0.0787 0.0
H482 H 0.14459 0.14696 0.11696 0.0
H483 H 0.24835 0.22208 0.97455 0.0
H484 H 0.21449 0.25682 0.95237 0.0
H485 H 0.21834 0.20768 0.94916 0.0
C486 C 0.37423 0.88448 0.99231 0.0
C487 C 0.35825 0.89899 0.02599 0.0
C488 C 0.35984 0.85516 0.98317 0.0
C489 C 0.32745 0.84203 0.00726 0.0
C490 C 0.31182 0.85663 0.04163 0.0
C491 C 0.3282 0.88412 0.051 0.0
C492 C 0.37892 0.83956 0.94727 0.0
C493 C 0.27631 0.84514 0.06766 0.0
C494 C 0.24549 0.81535 0.98035 0.0
C495 C 0.24156 0.78313 0.00768 0.0
C496 C 0.2776 0.8328 0.97448 0.0
C497 C 0.3065 0.81652 0.99576 0.0
C498 C 0.30619 0.77964 0.01644 0.0
C499 C 0.27283 0.76379 0.02349 0.0
C500 C 0.27745 0.87142 0.95063 0.0
C501 C 0.33863 0.75961 0.03582 0.0
H502 H 0.39774 0.89616 0.97309 0.0
H503 H 0.31578 0.89591 0.0768 0.0
H504 H 0.36942 0.8131 0.94545 0.0
H505 H 0.37315 0.86086 0.92217 0.0
H506 H 0.41014 0.83414 0.94561 0.0
H507 H 0.2659 0.86218 0.09097 0.0
H508 H 0.25327 0.84822 0.05128 0.0
H509 H 0.28197 0.81522 0.08086 0.0
H510 H 0.22143 0.82981 0.9677 0.0
H511 H 0.26992 0.73844 0.04427 0.0
H512 H 0.30466 0.87271 0.93031 0.0
H513 H 0.27435 0.8928 0.96931 0.0
H514 H 0.25394 0.87901 0.93428 0.0
H515 H 0.36603 0.76729 0.01901 0.0
H516 H 0.33991 0.72862 0.03985 0.0
H517 H 0.33464 0.76782 0.06432 0.0
C518 C 0.7275 0.29033 0.04314 0.0
C519 C 0.71539 0.2841 0.08293 0.0
C520 C 0.74544 0.32149 0.0257 0.0
C521 C 0.74908 0.34707 0.04856 0.0
C522 C 0.72538 0.34734 0.08466 0.0
C523 C 0.70835 0.31545 0.10174 0.0
C524 C 0.76711 0.32245 0.98543 0.0
C525 C 0.72452 0.37717 0.10806 0.0
C526 C 0.85208 0.34518 0.05059 0.0
C527 C 0.86032 0.37787 0.02559 0.0
C528 C 0.81575 0.33567 0.05899 0.0
C529 C 0.7863 0.36005 0.04248 0.0
C530 C 0.79403 0.39414 0.01846 0.0
C531 C 0.8313 0.40234 0.00974 0.0
C532 C 0.80979 0.2984 0.0842 0.0
C533 C 0.76383 0.42152 0.00076 0.0
H534 H 0.72876 0.26855 0.02658 0.0
H535 H 0.69489 0.31301 0.13146 0.0
H536 H 0.76642 0.35183 0.97029 0.0
H537 H 0.79719 0.30997 0.98601 0.0
H538 H 0.75543 0.30608 0.96925 0.0
H539 H 0.69738 0.38056 0.12869 0.0
H540 H 0.74798 0.36868 0.12441 0.0
H541 H 0.72836 0.40458 0.08954 0.0
H542 H 0.87474 0.32584 0.06209 0.0
H543 H 0.83788 0.42762 0.99027 0.0
H544 H 0.80032 0.28004 0.06843 0.0
H545 H 0.78774 0.30299 0.10969 0.0
H546 H 0.83603 0.28296 0.09418 0.0
H547 H 0.76727 0.41839 0.97046 0.0
H548 H 0.76726 0.45088 0.00115 0.0
H549 H 0.73471 0.41717 0.01539 0.0
C550 C 0.03678 0.8958 0.1182 0.0
C551 C 0.07582 0.89694 0.10966 0.0
C552 C 0.01044 0.92889 0.1165 0.0
C553 C 0.02339 0.96416 0.10698 0.0
C554 C 0.06267 0.96556 0.10189 0.0
C555 C 0.08859 0.93181 0.10265 0.0
C556 C 0.96883 0.92596 0.12223 0.0
C557 C 0.07742 0.00258 0.09372 0.0
C558 C 0.95705 0.03477 0.05234 0.0
C559 C 0.9315 0.05077 0.08166 0.0
C560 C 0.98894 0.00863 0.05977 0.0
C561 C 0.99591 -0.00146 0.09749 0.0
C562 C 0.97227 0.01713 0.12665 0.0
C563 C 0.94025 0.04308 0.11841 0.0
C564 C 0.01332 0.9895 0.02774 0.0
C565 C 0.97983 0.00818 0.16686 0.0
H566 H 0.02667 0.86894 0.12389 0.0
H567 H 0.11878 0.9328 0.09664 0.0
H568 H 0.9521 0.94296 0.14395 0.0
H569 H 0.95833 0.93734 0.09518 0.0
H570 H 0.96332 0.89647 0.1314 0.0
H571 H 0.10714 -0.00108 0.09813 0.0
H572 H 0.07654 0.01569 0.06372 0.0
H573 H 0.0594 0.02235 0.11218 0.0
H574 H 0.95129 0.04154 0.02364 0.0
H575 H 0.92104 0.05568 0.14119 0.0
H576 H 0.00946 0.95951 0.03282 0.0
H577 H 0.04373 0.99015 0.02669 0.0
H578 H 0.00611 0.00284 0.99954 0.0
H579 H 0.98249 0.97745 0.17726 0.0
H580 H 0.95711 0.02265 0.18695 0.0
H581 H 0.00714 0.01694 0.16732 0.0
C582 C 0.01886 0.12791 0.67027 0.0
C583 C 0.04834 0.105 0.68663 0.0
C584 C 0.00596 0.11724 0.64091 0.0
C585 C 0.02409 0.08368 0.6269 0.0
C586 C 0.05262 0.05963 0.64473 0.0
C587 C 0.06407 0.07042 0.67478 0.0
C588 C 0.9745 0.14287 0.62352 0.0
C589 C 0.07329 0.02405 0.63012 0.0
C590 C 0.98999 0.04121 0.55576 0.0
C591 C 0.01222 0.05556 0.52136 0.0
C592 C 0.99186 0.05173 0.59029 0.0
C593 C 0.01735 0.07624 0.5905 0.0
C594 C 0.03895 0.09168 0.55583 0.0
C595 C 0.03558 0.0817 0.5217 0.0
C596 C 0.96752 0.03567 0.62662 0.0
C597 C 0.06688 0.11758 0.55485 0.0
H598 H 0.00668 0.1546 0.67972 0.0
H599 H 0.08716 0.05297 0.68733 0.0
H600 H 0.98657 0.15833 0.59555 0.0
H601 H 0.95413 0.12632 0.61847 0.0
H602 H 0.95889 0.16379 0.64191 0.0
H603 H 0.09255 0.00703 0.64906 0.0
H604 H 0.05286 0.00646 0.62726 0.0
H605 H 0.09039 0.03146 0.60138 0.0
H606 H 0.97195 0.02088 0.55601 0.0
H607 H 0.05192 0.09397 0.49523 0.0
H608 H 0.9539 0.05807 0.64388 0.0
H609 H 0.98547 0.01437 0.64396 0.0
H610 H 0.94511 0.02201 0.62095 0.0
H611 H 0.05221 0.1426 0.56785 0.0
H612 H 0.08135 0.1273 0.52543 0.0
H613 H 0.08876 0.1028 0.57183 0.0
C614 C 0.64591 0.05348 0.12425 0.0
C615 C 0.68325 0.0431 0.10634 0.0
C616 C 0.61661 0.03682 0.11868 0.0
C617 C 0.62505 0.00971 0.09401 0.0
C618 C 0.66326 0.9965 0.07893 0.0
C619 C 0.69214 0.01346 0.08535 0.0
C620 C 0.57629 0.05121 0.13588 0.0
C621 C 0.67337 0.96736 0.0529 0.0
C622 C 0.53894 0.97093 0.08513 0.0
C623 C 0.52614 -0.00224 0.05574 0.0
C624 C 0.57277 0.97271 0.09664 0.0
C625 C 0.59391 0.00185 0.07803 0.0
C626 C 0.58232 0.02718 0.04646 0.0
C627 C 0.54843 0.02491 0.03584 0.0
C628 C 0.58435 0.94513 0.13024 0.0
C629 C 0.60433 0.05838 0.02544 0.0
H630 H 0.63938 0.07634 0.14067 0.0
H631 H 0.72122 0.00561 0.07155 0.0
H632 H 0.5621 0.06972 0.11338 0.0
H633 H 0.56005 0.02757 0.14774 0.0
H634 H 0.575 0.06764 0.15883 0.0
H635 H 0.70362 0.95428 0.0506 0.0
H636 H 0.6553 0.94496 0.06303 0.0
H637 H 0.66842 0.98096 0.024 0.0
H638 H 0.52151 0.94993 0.10041 0.0
H639 H 0.53854 0.04527 0.01277 0.0
H640 H 0.5764 0.95894 0.15593 0.0
H641 H 0.61549 0.93603 0.12552 0.0
H642 H 0.57007 0.91988 0.13605 0.0
H643 H 0.60246 0.07919 0.04442 0.0
H644 H 0.59341 0.07332 0.99942 0.0
H645 H 0.63473 0.04698 0.01709 0.0
C646 C 0.12948 0.62331 0.08032 0.0
C647 C 0.1091 0.64436 0.1084 0.0
C648 C 0.1179 0.59034 0.07615 0.0
C649 C 0.08525 0.57841 0.10067 0.0
C650 C 0.06617 0.59812 0.13073 0.0
C651 C 0.07841 0.63093 0.13428 0.0
C652 C 0.13909 0.56977 0.04394 0.0
C653 C 0.03146 0.58591 0.15764 0.0
C654 C 0.02815 0.52606 0.05951 0.0
C655 C 0.03938 0.48883 0.07572 0.0
C656 C 0.04266 0.55557 0.06777 0.0
C657 C 0.06907 0.54746 0.0927 0.0
C658 C 0.08024 0.50997 0.10943 0.0
C659 C 0.06523 0.48103 0.10071 0.0
C660 C 0.03001 0.59539 0.04958 0.0
C661 C 0.10848 0.50039 0.13597 0.0
H662 H 0.15306 0.63381 0.06013 0.0
H663 H 0.06304 0.64696 0.15639 0.0
H664 H 0.14525 0.53914 0.05436 0.0
H665 H 0.1212 0.57358 0.022 0.0
H666 H 0.1662 0.58018 0.03023 0.0
H667 H 0.02239 0.60193 0.18181 0.0
H668 H 0.00771 0.59029 0.14193 0.0
H669 H 0.03692 0.55548 0.16917 0.0
H670 H 0.00792 0.53209 0.04046 0.0
H671 H 0.07441 0.45213 0.11279 0.0
H672 H 0.05482 0.60768 0.03192 0.0
H673 H 0.01732 0.61311 0.07193 0.0
H674 H 0.00887 0.5969 0.03129 0.0
H675 H 0.13603 0.50881 0.12065 0.0
H676 H 0.1132 0.46988 0.14757 0.0
H677 H 0.0985 0.51634 0.1601 0.0
loop_
_geom_bond_atom_site_label_1
_geom_bond_atom_site_label_2
_geom_bond_distance
_geom_bond_site_symmetry_2
_ccdc_geom_bond_type
Co0 N4 2.148 1_545 S
Co0 N10 2.128 . S
Co0 N20 2.194 . S
Co0 O25 2.351 . S
Co0 O26 2.155 . S
Co0 O27 2.096 1_455 S
C1 N4 1.301 . S
C1 N5 1.328 . S
C1 H6 0.930 . S
C2 C3 1.333 1_655 S
C2 N4 1.317 1_655 S
C2 H7 0.930 . S
C3 C2 1.333 1_455 S
C3 N5 1.350 . S
C3 H29 0.931 1_455 S
N4 Co0 2.148 1_565 S
N4 C1 1.301 . S
N4 C2 1.317 1_455 S
N5 C1 1.328 . S
N5 C3 1.350 . S
H6 C1 0.930 . S
H7 C2 0.930 . S
C8 O9 1.224 . S
C8 O27 1.247 . S
O9 C8 1.224 . S
N10 Co0 2.128 . S
N10 C11 1.355 . S
N10 C13 1.311 . S
C11 N10 1.355 . S
C11 C12 1.363 . S
C11 H23 0.929 . S
C12 C11 1.363 . S
C12 N14 1.375 . S
C12 H30 0.931 . S
C13 N10 1.311 . S
C13 N14 1.347 . S
C13 H24 0.929 1_455 S
N14 C12 1.375 . S
N14 C13 1.347 . S
C15 C18 1.365 . S
C15 N20 1.328 . S
C15 H21 0.929 1_545 S
C16 C17 1.362 1_655 S
C16 C19 1.378 . S
C16 H31 0.929 . S
C17 C16 1.362 1_455 S
C17 C18 1.366 . S
C18 C15 1.365 . S
C18 C17 1.366 . S
C18 H32 0.930 . S
C19 C16 1.378 . S
C19 N20 1.315 1_655 S
C19 H22 0.930 . S
N20 Co0 2.194 . S
N20 C15 1.328 . S
N20 C19 1.315 1_455 S
H21 C15 0.929 1_565 S
H22 C19 0.930 . S
H23 C11 0.929 . S
H24 C13 0.929 1_655 S
O25 Co0 2.351 . S
O25 C28 1.244 . S
O26 Co0 2.155 . S
O26 C28 1.240 . S
O27 Co0 2.096 1_655 S
O27 C8 1.247 . S
C28 O25 1.244 . S
C28 O26 1.240 . S
H29 C3 0.931 1_655 S
H30 C12 0.931 . S
H31 C16 0.929 . S
H32 C18 0.930 . S
Co33 N37 2.148 . S
Co33 N43 2.128 . S
Co33 N53 2.194 . S
Co33 O58 2.351 . S
Co33 O59 2.155 . S
Co33 O60 2.096 . S
C34 N37 1.301 . S
C34 N38 1.328 . S
C34 H39 0.930 . S
C35 C36 1.333 . S
C35 N37 1.317 . S
C35 H40 0.930 . S
C36 C35 1.333 . S
C36 N38 1.350 . S
C36 H62 0.931 . S
N37 Co33 2.148 . S
N37 C34 1.301 . S
N37 C35 1.317 . S
N38 C34 1.328 . S
N38 C36 1.350 . S
H39 C34 0.930 . S
H40 C35 0.930 . S
C41 O42 1.224 . S
C41 O60 1.247 . S
O42 C41 1.224 . S
N43 Co33 2.128 . S
N43 C44 1.355 . S
N43 C46 1.311 . S
C44 N43 1.355 . S
C44 C45 1.363 . S
C44 H56 0.929 . S
C45 C44 1.363 . S
C45 N47 1.375 . S
C45 H63 0.931 . S
C46 N43 1.311 . S
C46 N47 1.347 . S
C46 H57 0.929 . S
N47 C45 1.375 . S
N47 C46 1.347 . S
C48 C51 1.365 . S
C48 N53 1.328 . S
C48 H54 0.929 . S
C49 C50 1.362 . S
C49 C52 1.378 . S
C49 H64 0.929 . S
C50 C49 1.362 . S
C50 C51 1.366 . S
C51 C48 1.365 . S
C51 C50 1.366 . S
C51 H65 0.930 . S
C52 C49 1.378 . S
C52 N53 1.315 . S
C52 H55 0.930 . S
N53 Co33 2.194 . S
N53 C48 1.328 . S
N53 C52 1.315 . S
H54 C48 0.929 . S
H55 C52 0.930 . S
H56 C44 0.929 . S
H57 C46 0.929 . S
O58 Co33 2.351 . S
O58 C61 1.244 . S
O59 Co33 2.155 . S
O59 C61 1.240 . S
O60 Co33 2.096 . S
O60 C41 1.247 . S
C61 O58 1.244 . S
C61 O59 1.240 . S
H62 C36 0.931 . S
H63 C45 0.931 . S
H64 C49 0.929 . S
H65 C51 0.930 . S
Co66 N70 2.148 1_554 S
Co66 N76 2.128 . S
Co66 N86 2.194 . S
Co66 O91 2.351 1_554 S
Co66 O92 2.155 . S
Co66 O93 2.096 1_545 S
C67 N70 1.301 . S
C67 N71 1.328 . S
C67 H72 0.930 . S
C68 C69 1.333 . S
C68 N70 1.317 . S
C68 H73 0.930 1_545 S
C69 C68 1.333 . S
C69 N71 1.350 . S
C69 H95 0.931 1_545 S
N70 Co66 2.148 1_556 S
N70 C67 1.301 . S
N70 C68 1.317 . S
N71 C67 1.328 . S
N71 C69 1.350 . S
H72 C67 0.930 . S
H73 C68 0.930 1_565 S
C74 O75 1.224 . S
C74 O93 1.247 . S
O75 C74 1.224 . S
N76 Co66 2.128 . S
N76 C77 1.355 . S
N76 C79 1.311 . S
C77 N76 1.355 . S
C77 C78 1.363 . S
C77 H89 0.929 . S
C78 C77 1.363 . S
C78 N80 1.375 . S
C78 H96 0.931 . S
C79 N76 1.311 . S
C79 N80 1.347 . S
C79 H90 0.929 1_545 S
N80 C78 1.375 . S
N80 C79 1.347 . S
C81 C84 1.365 1_556 S
C81 N86 1.328 1_556 S
C81 H87 0.929 . S
C82 C83 1.362 . S
C82 C85 1.378 . S
C82 H97 0.929 1_545 S
C83 C82 1.362 . S
C83 C84 1.366 . S
C84 C81 1.365 1_554 S
C84 C83 1.366 . S
C84 H98 0.930 1_554 S
C85 C82 1.378 . S
C85 N86 1.315 . S
C85 H88 0.930 1_545 S
N86 Co66 2.194 . S
N86 C81 1.328 1_554 S
N86 C85 1.315 . S
H87 C81 0.929 . S
H88 C85 0.930 1_565 S
H89 C77 0.929 . S
H90 C79 0.929 1_565 S
O91 Co66 2.351 1_556 S
O91 C94 1.244 . S
O92 Co66 2.155 . S
O92 C94 1.240 1_554 S
O93 Co66 2.096 1_565 S
O93 C74 1.247 . S
C94 O91 1.244 . S
C94 O92 1.240 1_556 S
H95 C69 0.931 1_565 S
H96 C78 0.931 . S
H97 C82 0.929 1_565 S
H98 C84 0.930 1_556 S
Co99 N103 2.148 1_455 S
Co99 N109 2.128 . S
Co99 N119 2.194 . S
Co99 O124 2.351 . S
Co99 O125 2.155 . S
Co99 O126 2.096 1_554 S
C100 N103 1.301 . S
C100 N104 1.328 . S
C100 H105 0.930 . S
C101 C102 1.331 1_556 S
C101 N103 1.317 1_556 S
C101 H106 0.930 . S
C102 C101 1.331 1_554 S
C102 N104 1.381 . S
C102 H128 0.908 1_554 S
N103 Co99 2.148 1_655 S
N103 C100 1.301 . S
N103 C101 1.317 1_554 S
N104 C100 1.328 . S
N104 C102 1.381 . S
H105 C100 0.930 . S
H106 C101 0.930 . S
C107 O108 1.224 . S
C107 O126 1.247 . S
O108 C107 1.224 . S
N109 Co99 2.128 . S
N109 C110 1.355 . S
N109 C112 1.304 1_554 S
C110 N109 1.355 . S
C110 C111 1.363 . S
C110 H122 0.929 . S
C111 C110 1.363 . S
C111 N113 1.375 . S
C111 H129 0.931 . S
C112 N109 1.304 1_556 S
C112 N113 1.343 1_556 S
C112 H123 0.939 . S
N113 C111 1.375 . S
N113 C112 1.343 1_554 S
C114 C117 1.365 . S
C114 N119 1.328 . S
C114 H120 0.929 . S
C115 C116 1.362 1_556 S
C115 C118 1.378 . S
C115 H130 0.929 . S
C116 C115 1.362 1_554 S
C116 C117 1.366 . S
C117 C114 1.365 . S
C117 C116 1.366 . S
C117 H131 0.930 . S
C118 C115 1.378 . S
C118 N119 1.315 1_556 S
C118 H121 0.930 . S
N119 Co99 2.194 . S
N119 C114 1.328 . S
N119 C118 1.315 1_554 S
H120 C114 0.929 . S
H121 C118 0.930 . S
H122 C110 0.929 . S
H123 C112 0.939 . S
O124 Co99 2.351 . S
O124 C127 1.244 . S
O125 Co99 2.155 . S
O125 C127 1.240 . S
O126 Co99 2.096 1_556 S
O126 C107 1.247 . S
C127 O124 1.244 . S
C127 O125 1.240 . S
H128 C102 0.908 1_556 S
H129 C111 0.931 . S
H130 C115 0.929 . S
H131 C117 0.930 . S
Co132 N136 2.148 . S
Co132 N142 2.128 . S
Co132 N152 2.194 . S
Co132 O157 2.351 . S
Co132 O158 2.155 . S
Co132 O159 2.096 . S
C133 N136 1.301 . S
C133 N137 1.328 . S
C133 H138 0.930 . S
C134 C135 1.333 . S
C134 N136 1.317 . S
C134 H139 0.930 . S
C135 C134 1.333 . S
C135 N137 1.350 . S
C135 H161 0.931 . S
N136 Co132 2.148 . S
N136 C133 1.301 . S
N136 C134 1.317 . S
N137 C133 1.328 . S
N137 C135 1.350 . S
H138 C133 0.930 . S
H139 C134 0.930 . S
C140 O141 1.224 . S
C140 O159 1.247 . S
O141 C140 1.224 . S
N142 Co132 2.128 . S
N142 C143 1.355 . S
N142 C145 1.311 . S
C143 N142 1.355 . S
C143 C144 1.363 . S
C143 H155 0.929 . S
C144 C143 1.363 . S
C144 N146 1.375 . S
C144 H162 0.931 . S
C145 N142 1.311 . S
C145 N146 1.347 . S
C145 H156 0.929 . S
N146 C144 1.375 . S
N146 C145 1.347 . S
C147 C150 1.365 . S
C147 N152 1.328 . S
C147 H153 0.929 . S
C148 C149 1.362 . S
C148 C151 1.378 . S
C148 H163 0.929 . S
C149 C148 1.362 . S
C149 C150 1.366 . S
C150 C147 1.365 . S
C150 C149 1.366 . S
C150 H164 0.930 . S
C151 C148 1.378 . S
C151 N152 1.315 . S
C151 H154 0.930 . S
N152 Co132 2.194 . S
N152 C147 1.328 . S
N152 C151 1.315 . S
H153 C147 0.929 . S
H154 C151 0.930 . S
H155 C143 0.929 . S
H156 C145 0.929 . S
O157 Co132 2.351 . S
O157 C160 1.244 . S
O158 Co132 2.155 . S
O158 C160 1.240 . S
O159 Co132 2.096 . S
O159 C140 1.247 . S
C160 O157 1.244 . S
C160 O158 1.240 . S
H161 C135 0.931 . S
H162 C144 0.931 . S
H163 C148 0.929 . S
H164 C150 0.930 . S
Co165 N169 2.148 . S
Co165 N175 2.128 . S
Co165 N185 2.194 . S
Co165 O190 2.351 . S
Co165 O191 2.155 . S
Co165 O192 2.096 . S
C166 N169 1.301 . S
C166 N170 1.328 . S
C166 H171 0.930 . S
C167 C168 1.333 . S
C167 N169 1.317 . S
C167 H172 0.930 . S
C168 C167 1.333 . S
C168 N170 1.350 . S
C168 H194 0.931 . S
N169 Co165 2.148 . S
N169 C166 1.301 . S
N169 C167 1.317 . S
N170 C166 1.328 . S
N170 C168 1.350 . S
H171 C166 0.930 . S
H172 C167 0.930 . S
C173 O174 1.224 . S
C173 O192 1.247 . S
O174 C173 1.224 . S
N175 Co165 2.128 . S
N175 C176 1.355 . S
N175 C178 1.311 . S
C176 N175 1.355 . S
C176 C177 1.363 . S
C176 H188 0.929 . S
C177 C176 1.363 . S
C177 N179 1.375 1_554 S
C177 H195 0.931 1_554 S
C178 N175 1.311 . S
C178 N179 1.347 1_554 S
C178 H189 0.929 . S
N179 C177 1.375 1_556 S
N179 C178 1.347 1_556 S
C180 C183 1.365 . S
C180 N185 1.328 . S
C180 H186 0.929 . S
C181 C182 1.362 . S
C181 C184 1.378 . S
C181 H196 0.929 . S
C182 C181 1.362 . S
C182 C183 1.366 . S
C183 C180 1.365 . S
C183 C182 1.366 . S
C183 H197 0.930 . S
C184 C181 1.378 . S
C184 N185 1.315 . S
C184 H187 0.930 . S
N185 Co165 2.194 . S
N185 C180 1.328 . S
N185 C184 1.315 . S
H186 C180 0.929 . S
H187 C184 0.930 . S
H188 C176 0.929 . S
H189 C178 0.929 . S
O190 Co165 2.351 . S
O190 C193 1.244 . S
O191 Co165 2.155 . S
O191 C193 1.240 . S
O192 Co165 2.096 . S
O192 C173 1.247 . S
C193 O190 1.244 . S
C193 O191 1.240 . S
H194 C168 0.931 . S
H195 C177 0.931 1_556 S
H196 C181 0.929 . S
H197 C183 0.930 . S
C198 C199 1.391 1_655 S
C198 C200 1.394 . S
C198 H214 0.931 . S
C199 C198 1.391 1_455 S
C199 C203 1.376 . S
C200 C198 1.394 . S
C200 C201 1.369 1_655 S
C200 C204 1.531 . S
C201 C200 1.369 1_455 S
C201 C202 1.410 . S
C201 C209 1.503 . S
C202 C201 1.410 . S
C202 C203 1.392 . S
C202 C205 1.511 . S
C203 C199 1.376 . S
C203 C202 1.392 . S
C203 H215 0.929 . S
C204 C200 1.531 . S
C204 H216 0.960 . S
C204 H217 0.962 . S
C204 H218 0.960 . S
C205 C202 1.511 . S
C205 H219 0.961 . S
C205 H220 0.961 . S
C205 H221 0.961 . S
C206 C207 1.370 . S
C206 C208 1.363 . S
C206 H222 0.931 . S
C207 C206 1.370 . S
C207 C211 1.409 1_655 S
C208 C206 1.363 . S
C208 C209 1.370 1_655 S
C208 C212 1.524 . S
C209 C201 1.503 . S
C209 C208 1.370 1_455 S
C209 C210 1.403 . S
C210 C209 1.403 . S
C210 C211 1.404 . S
C210 C213 1.539 . S
C211 C207 1.409 1_455 S
C211 C210 1.404 . S
C211 H223 0.930 . S
C212 C208 1.524 . S
C212 H224 0.956 . S
C212 H225 0.961 . S
C212 H226 0.961 . S
C213 C210 1.539 . S
C213 H227 0.958 . S
C213 H228 0.961 . S
C213 H229 0.960 . S
H214 C198 0.931 . S
H215 C203 0.929 . S
H216 C204 0.960 . S
H217 C204 0.962 . S
H218 C204 0.960 . S
H219 C205 0.961 . S
H220 C205 0.961 . S
H221 C205 0.961 . S
H222 C206 0.931 . S
H223 C211 0.930 . S
H224 C212 0.956 . S
H225 C212 0.961 . S
H226 C212 0.961 . S
H227 C213 0.958 . S
H228 C213 0.961 . S
H229 C213 0.960 . S
C230 C231 1.391 . S
C230 C232 1.394 . S
C230 H246 0.931 . S
C231 C230 1.391 . S
C231 C235 1.376 . S
C232 C230 1.394 . S
C232 C233 1.369 . S
C232 C236 1.531 . S
C233 C232 1.369 . S
C233 C234 1.410 . S
C233 C241 1.503 . S
C234 C233 1.410 . S
C234 C235 1.392 . S
C234 C237 1.511 . S
C235 C231 1.376 . S
C235 C234 1.392 . S
C235 H247 0.929 . S
C236 C232 1.531 . S
C236 H248 0.960 . S
C236 H249 0.962 . S
C236 H250 0.960 . S
C237 C234 1.511 . S
C237 H251 0.961 . S
C237 H252 0.961 . S
C237 H253 0.961 . S
C238 C239 1.370 . S
C238 C240 1.363 . S
C238 H254 0.931 . S
C239 C238 1.370 . S
C239 C243 1.408 . S
C240 C238 1.363 . S
C240 C241 1.370 . S
C240 C244 1.524 . S
C241 C233 1.503 . S
C241 C240 1.370 . S
C241 C242 1.403 . S
C242 C241 1.403 . S
C242 C243 1.404 . S
C242 C245 1.539 . S
C243 C239 1.408 . S
C243 C242 1.404 . S
C243 H255 0.930 . S
C244 C240 1.524 . S
C244 H256 0.956 . S
C244 H257 0.961 . S
C244 H258 0.961 . S
C245 C242 1.539 . S
C245 H259 0.958 . S
C245 H260 0.961 . S
C245 H261 0.960 . S
H246 C230 0.931 . S
H247 C235 0.929 . S
H248 C236 0.960 . S
H249 C236 0.962 . S
H250 C236 0.960 . S
H251 C237 0.961 . S
H252 C237 0.961 . S
H253 C237 0.961 . S
H254 C238 0.931 . S
H255 C243 0.930 . S
H256 C244 0.956 . S
H257 C244 0.961 . S
H258 C244 0.961 . S
H259 C245 0.958 . S
H260 C245 0.961 . S
H261 C245 0.960 . S
C262 C263 1.391 . S
C262 C264 1.394 . S
C262 H278 0.931 . S
C263 C262 1.391 . S
C263 C267 1.376 . S
C264 C262 1.394 . S
C264 C265 1.369 . S
C264 C268 1.531 . S
C265 C264 1.369 . S
C265 C266 1.410 . S
C265 C273 1.503 . S
C266 C265 1.410 . S
C266 C267 1.392 . S
C266 C269 1.511 . S
C267 C263 1.376 . S
C267 C266 1.392 . S
C267 H279 0.929 . S
C268 C264 1.531 . S
C268 H280 0.960 . S
C268 H281 0.962 . S
C268 H282 0.960 . S
C269 C266 1.511 . S
C269 H283 0.961 . S
C269 H284 0.961 . S
C269 H285 0.961 1_455 S
C270 C271 1.370 . S
C270 C272 1.363 . S
C270 H286 0.931 . S
C271 C270 1.370 . S
C271 C275 1.408 . S
C272 C270 1.363 . S
C272 C273 1.370 . S
C272 C276 1.524 . S
C273 C265 1.503 . S
C273 C272 1.370 . S
C273 C274 1.403 . S
C274 C273 1.403 . S
C274 C275 1.404 . S
C274 C277 1.539 . S
C275 C271 1.408 . S
C275 C274 1.404 . S
C275 H287 0.930 . S
C276 C272 1.524 . S
C276 H288 0.956 . S
C276 H289 0.961 . S
C276 H290 0.961 . S
C277 C274 1.539 . S
C277 H291 0.958 . S
C277 H292 0.961 . S
C277 H293 0.960 . S
H278 C262 0.931 . S
H279 C267 0.929 . S
H280 C268 0.960 . S
H281 C268 0.962 . S
H282 C268 0.960 . S
H283 C269 0.961 . S
H284 C269 0.961 . S
H285 C269 0.961 1_655 S
H286 C270 0.931 . S
H287 C275 0.930 . S
H288 C276 0.956 . S
H289 C276 0.961 . S
H290 C276 0.961 . S
H291 C277 0.958 . S
H292 C277 0.961 . S
H293 C277 0.960 . S
C294 C295 1.391 . S
C294 C296 1.394 . S
C294 H310 0.929 . S
C295 C294 1.391 . S
C295 C299 1.376 . S
C296 C294 1.394 . S
C296 C297 1.369 . S
C296 C300 1.531 . S
C297 C296 1.369 . S
C297 C298 1.410 . S
C297 C305 1.503 . S
C298 C297 1.410 . S
C298 C299 1.392 . S
C298 C301 1.511 . S
C299 C295 1.376 . S
C299 C298 1.392 . S
C299 H311 0.929 . S
C300 C296 1.531 . S
C300 H312 0.960 . S
C300 H313 0.962 1_545 S
C300 H314 0.960 . S
C301 C298 1.511 . S
C301 H315 0.961 . S
C301 H316 0.961 . S
C301 H317 0.961 . S
C302 C303 1.347 1_565 S
C302 C304 1.363 . S
C302 H318 0.931 . S
C303 C302 1.347 1_545 S
C303 C307 1.437 . S
C304 C302 1.363 . S
C304 C305 1.370 1_565 S
C304 C308 1.524 . S
C305 C297 1.503 . S
C305 C304 1.370 1_545 S
C305 C306 1.403 . S
C306 C305 1.403 . S
C306 C307 1.404 . S
C306 C309 1.539 . S
C307 C303 1.437 . S
C307 C306 1.404 . S
C307 H319 0.930 . S
C308 C304 1.524 . S
C308 H320 0.956 . S
C308 H321 0.961 . S
C308 H322 0.961 . S
C309 C306 1.539 . S
C309 H323 0.958 . S
C309 H324 0.961 . S
C309 H325 0.960 . S
H310 C294 0.929 . S
H311 C299 0.929 . S
H312 C300 0.960 . S
H313 C300 0.962 1_565 S
H314 C300 0.960 . S
H315 C301 0.961 . S
H316 C301 0.961 . S
H317 C301 0.961 . S
H318 C302 0.931 . S
H319 C307 0.930 . S
H320 C308 0.956 . S
H321 C308 0.961 . S
H322 C308 0.961 . S
H323 C309 0.958 . S
H324 C309 0.961 . S
H325 C309 0.960 . S
C326 C327 1.391 . S
C326 C328 1.394 . S
C326 H342 0.931 . S
C327 C326 1.391 . S
C327 C331 1.376 . S
C328 C326 1.394 . S
C328 C329 1.369 . S
C328 C332 1.531 . S
C329 C328 1.369 . S
C329 C330 1.410 . S
C329 C337 1.503 . S
C330 C329 1.410 . S
C330 C331 1.392 . S
C330 C333 1.511 . S
C331 C327 1.376 . S
C331 C330 1.392 . S
C331 H343 0.929 . S
C332 C328 1.531 . S
C332 H344 0.960 . S
C332 H345 0.962 . S
C332 H346 0.960 . S
C333 C330 1.511 . S
C333 H347 0.961 . S
C333 H348 0.961 . S
C333 H349 0.961 . S
C334 C335 1.370 1_565 S
C334 C336 1.363 . S
C334 H350 0.931 . S
C335 C334 1.370 1_545 S
C335 C339 1.408 . S
C336 C334 1.363 . S
C336 C337 1.370 . S
C336 C340 1.524 . S
C337 C329 1.503 . S
C337 C336 1.370 . S
C337 C338 1.403 . S
C338 C337 1.403 . S
C338 C339 1.404 1_565 S
C338 C341 1.539 . S
C339 C335 1.408 . S
C339 C338 1.404 1_545 S
C339 H351 0.930 . S
C340 C336 1.524 . S
C340 H352 0.956 . S
C340 H353 0.961 . S
C340 H354 0.961 . S
C341 C338 1.539 . S
C341 H355 0.958 . S
C341 H356 0.961 1_565 S
C341 H357 0.960 . S
H342 C326 0.931 . S
H343 C331 0.929 . S
H344 C332 0.960 . S
H345 C332 0.962 . S
H346 C332 0.960 . S
H347 C333 0.961 . S
H348 C333 0.961 . S
H349 C333 0.961 . S
H350 C334 0.931 . S
H351 C339 0.930 . S
H352 C340 0.956 . S
H353 C340 0.961 . S
H354 C340 0.961 . S
H355 C341 0.958 . S
H356 C341 0.961 1_545 S
H357 C341 0.960 . S
C358 C359 1.391 . S
C358 C360 1.394 . S
C358 H374 0.931 . S
C359 C358 1.391 . S
C359 C363 1.376 . S
C360 C358 1.394 . S
C360 C361 1.369 . S
C360 C364 1.531 . S
C361 C360 1.369 . S
C361 C362 1.410 . S
C361 C369 1.503 . S
C362 C361 1.410 . S
C362 C363 1.392 . S
C362 C365 1.511 . S
C363 C359 1.376 . S
C363 C362 1.392 . S
C363 H375 0.929 . S
C364 C360 1.531 . S
C364 H376 0.960 . S
C364 H377 0.962 . S
C364 H378 0.960 . S
C365 C362 1.511 . S
C365 H379 0.961 . S
C365 H380 0.961 . S
C365 H381 0.961 . S
C366 C367 1.370 . S
C366 C368 1.363 . S
C366 H382 0.931 . S
C367 C366 1.370 . S
C367 C371 1.408 . S
C368 C366 1.363 . S
C368 C369 1.370 . S
C368 C372 1.524 . S
C369 C361 1.503 . S
C369 C368 1.370 . S
C369 C370 1.403 . S
C370 C369 1.403 . S
C370 C371 1.404 . S
C370 C373 1.539 . S
C371 C367 1.408 . S
C371 C370 1.404 . S
C371 H383 0.930 . S
C372 C368 1.524 . S
C372 H384 0.956 . S
C372 H385 0.961 . S
C372 H386 0.961 . S
C373 C370 1.539 . S
C373 H387 0.958 1_545 S
C373 H388 0.962 . S
C373 H389 0.960 . S
H374 C358 0.931 . S
H375 C363 0.929 . S
H376 C364 0.960 . S
H377 C364 0.962 . S
H378 C364 0.960 . S
H379 C365 0.961 . S
H380 C365 0.961 . S
H381 C365 0.961 . S
H382 C366 0.931 . S
H383 C371 0.930 . S
H384 C372 0.956 . S
H385 C372 0.961 . S
H386 C372 0.961 . S
H387 C373 0.958 1_565 S
H388 C373 0.962 . S
H389 C373 0.960 . S
C390 C391 1.391 . S
C390 C392 1.394 . S
C390 H406 0.931 . S
C391 C390 1.391 . S
C391 C395 1.376 . S
C392 C390 1.394 . S
C392 C393 1.369 . S
C392 C396 1.531 . S
C393 C392 1.369 . S
C393 C394 1.410 . S
C393 C401 1.503 . S
C394 C393 1.410 . S
C394 C395 1.392 . S
C394 C397 1.511 . S
C395 C391 1.376 . S
C395 C394 1.392 . S
C395 H407 0.929 . S
C396 C392 1.531 . S
C396 H408 0.960 . S
C396 H409 0.962 . S
C396 H410 0.960 . S
C397 C394 1.511 . S
C397 H411 0.961 . S
C397 H412 0.961 . S
C397 H413 0.961 . S
C398 C399 1.370 . S
C398 C400 1.363 . S
C398 H414 0.931 . S
C399 C398 1.370 . S
C399 C403 1.408 . S
C400 C398 1.363 . S
C400 C401 1.370 . S
C400 C404 1.524 . S
C401 C393 1.503 . S
C401 C400 1.370 . S
C401 C402 1.403 . S
C402 C401 1.403 . S
C402 C403 1.404 . S
C402 C405 1.539 . S
C403 C399 1.408 . S
C403 C402 1.404 . S
C403 H415 0.930 . S
C404 C400 1.524 . S
C404 H416 0.956 . S
C404 H417 0.961 . S
C404 H418 0.961 . S
C405 C402 1.539 . S
C405 H419 0.958 . S
C405 H420 0.961 . S
C405 H421 0.960 . S
H406 C390 0.931 . S
H407 C395 0.929 . S
H408 C396 0.960 . S
H409 C396 0.962 . S
H410 C396 0.960 . S
H411 C397 0.961 . S
H412 C397 0.961 . S
H413 C397 0.961 . S
H414 C398 0.931 . S
H415 C403 0.930 . S
H416 C404 0.956 . S
H417 C404 0.961 . S
H418 C404 0.961 . S
H419 C405 0.958 . S
H420 C405 0.961 . S
H421 C405 0.960 . S
C422 C423 1.391 . S
C422 C424 1.394 . S
C422 H438 0.931 1_556 S
C423 C422 1.391 . S
C423 C427 1.376 . S
C424 C422 1.394 . S
C424 C425 1.369 . S
C424 C428 1.531 . S
C425 C424 1.369 . S
C425 C426 1.410 . S
C425 C433 1.503 . S
C426 C425 1.410 . S
C426 C427 1.392 . S
C426 C429 1.511 . S
C427 C423 1.376 . S
C427 C426 1.392 . S
C427 H439 0.929 . S
C428 C424 1.531 . S
C428 H440 0.960 . S
C428 H441 0.962 . S
C428 H442 0.960 . S
C429 C426 1.511 . S
C429 H443 0.961 . S
C429 H444 0.961 . S
C429 H445 0.961 . S
C430 C431 1.370 . S
C430 C432 1.363 . S
C430 H446 0.931 1_655 S
C431 C430 1.370 . S
C431 C435 1.408 . S
C432 C430 1.363 . S
C432 C433 1.370 . S
C432 C436 1.524 . S
C433 C425 1.503 . S
C433 C432 1.370 . S
C433 C434 1.403 . S
C434 C433 1.403 . S
C434 C435 1.404 . S
C434 C437 1.539 . S
C435 C431 1.408 . S
C435 C434 1.404 . S
C435 H447 0.930 . S
C436 C432 1.524 . S
C436 H448 0.956 . S
C436 H449 0.961 . S
C436 H450 0.961 . S
C437 C434 1.539 . S
C437 H451 0.958 . S
C437 H452 0.961 . S
C437 H453 0.960 . S
H438 C422 0.931 1_554 S
H439 C427 0.929 . S
H440 C428 0.960 . S
H441 C428 0.962 . S
H442 C428 0.960 . S
H443 C429 0.961 . S
H444 C429 0.961 . S
H445 C429 0.961 . S
H446 C430 0.931 1_455 S
H447 C435 0.930 . S
H448 C436 0.956 . S
H449 C436 0.961 . S
H450 C436 0.961 . S
H451 C437 0.958 . S
H452 C437 0.961 . S
H453 C437 0.960 . S
C454 C455 1.391 1_554 S
C454 C456 1.394 . S
C454 H470 0.931 . S
C455 C454 1.391 1_556 S
C455 C459 1.376 . S
C456 C454 1.394 . S
C456 C457 1.369 1_554 S
C456 C460 1.531 . S
C457 C456 1.369 1_556 S
C457 C458 1.410 . S
C457 C465 1.503 . S
C458 C457 1.410 . S
C458 C459 1.392 . S
C458 C461 1.511 . S
C459 C455 1.376 . S
C459 C458 1.392 . S
C459 H471 0.929 . S
C460 C456 1.531 . S
C460 H472 0.960 . S
C460 H473 0.962 . S
C460 H474 0.960 . S
C461 C458 1.511 . S
C461 H475 0.961 . S
C461 H476 0.961 . S
C461 H477 0.961 . S
C462 C463 1.370 1_554 S
C462 C464 1.363 . S
C462 H478 0.931 . S
C463 C462 1.370 1_556 S
C463 C467 1.408 . S
C464 C462 1.363 . S
C464 C465 1.370 1_554 S
C464 C468 1.524 . S
C465 C457 1.503 . S
C465 C464 1.370 1_556 S
C465 C466 1.403 . S
C466 C465 1.403 . S
C466 C467 1.404 . S
C466 C469 1.539 . S
C467 C463 1.408 . S
C467 C466 1.404 . S
C467 H479 0.930 . S
C468 C464 1.524 . S
C468 H480 0.956 . S
C468 H481 0.961 . S
C468 H482 0.961 . S
C469 C466 1.539 . S
C469 H483 0.958 . S
C469 H484 0.961 . S
C469 H485 0.960 . S
H470 C454 0.931 . S
H471 C459 0.929 . S
H472 C460 0.960 . S
H473 C460 0.962 . S
H474 C460 0.960 . S
H475 C461 0.961 . S
H476 C461 0.961 . S
H477 C461 0.961 . S
H478 C462 0.931 . S
H479 C467 0.930 . S
H480 C468 0.956 . S
H481 C468 0.961 . S
H482 C468 0.961 . S
H483 C469 0.958 . S
H484 C469 0.961 . S
H485 C469 0.960 . S
C486 C487 1.391 . S
C486 C488 1.394 . S
C486 H502 0.931 1_554 S
C487 C486 1.391 . S
C487 C491 1.376 . S
C488 C486 1.394 . S
C488 C489 1.369 . S
C488 C492 1.531 . S
C489 C488 1.369 . S
C489 C490 1.410 . S
C489 C497 1.503 . S
C490 C489 1.410 . S
C490 C491 1.392 . S
C490 C493 1.511 . S
C491 C487 1.376 . S
C491 C490 1.392 . S
C491 H503 0.929 . S
C492 C488 1.531 . S
C492 H504 0.960 . S
C492 H505 0.962 1_554 S
C492 H506 0.960 . S
C493 C490 1.511 . S
C493 H507 0.961 . S
C493 H508 0.961 . S
C493 H509 0.961 . S
C494 C495 1.370 . S
C494 C496 1.363 . S
C494 H510 0.931 . S
C495 C494 1.370 . S
C495 C499 1.408 . S
C496 C494 1.363 . S
C496 C497 1.370 . S
C496 C500 1.524 . S
C497 C489 1.503 . S
C497 C496 1.370 . S
C497 C498 1.403 . S
C498 C497 1.403 . S
C498 C499 1.404 . S
C498 C501 1.539 . S
C499 C495 1.408 . S
C499 C498 1.404 . S
C499 H511 0.930 . S
C500 C496 1.524 . S
C500 H512 0.956 . S
C500 H513 0.961 . S
C500 H514 0.961 . S
C501 C498 1.539 . S
C501 H515 0.958 . S
C501 H516 0.961 . S
C501 H517 0.960 . S
H502 C486 0.931 1_556 S
H503 C491 0.929 . S
H504 C492 0.960 . S
H505 C492 0.962 1_556 S
H506 C492 0.960 . S
H507 C493 0.961 . S
H508 C493 0.961 . S
H509 C493 0.961 . S
H510 C494 0.931 . S
H511 C499 0.930 . S
H512 C500 0.956 . S
H513 C500 0.961 . S
H514 C500 0.961 . S
H515 C501 0.958 . S
H516 C501 0.961 . S
H517 C501 0.960 . S
C518 C519 1.391 . S
C518 C520 1.394 . S
C518 H534 0.931 . S
C519 C518 1.391 . S
C519 C523 1.376 . S
C520 C518 1.394 . S
C520 C521 1.369 . S
C520 C524 1.528 1_554 S
C521 C520 1.369 . S
C521 C522 1.410 . S
C521 C529 1.503 . S
C522 C521 1.410 . S
C522 C523 1.392 . S
C522 C525 1.511 . S
C523 C519 1.376 . S
C523 C522 1.392 . S
C523 H535 0.929 . S
C524 C520 1.528 1_556 S
C524 H536 0.959 1_556 S
C524 H537 0.963 . S
C524 H538 0.962 . S
C525 C522 1.511 . S
C525 H539 0.961 . S
C525 H540 0.961 . S
C525 H541 0.961 . S
C526 C527 1.370 . S
C526 C528 1.363 . S
C526 H542 0.931 . S
C527 C526 1.370 . S
C527 C531 1.408 . S
C528 C526 1.363 . S
C528 C529 1.370 . S
C528 C532 1.524 . S
C529 C521 1.503 . S
C529 C528 1.370 . S
C529 C530 1.403 . S
C530 C529 1.403 . S
C530 C531 1.404 . S
C530 C533 1.539 . S
C531 C527 1.408 . S
C531 C530 1.404 . S
C531 H543 0.930 . S
C532 C528 1.524 . S
C532 H544 0.956 . S
C532 H545 0.961 . S
C532 H546 0.961 . S
C533 C530 1.539 . S
C533 H547 0.958 . S
C533 H548 0.961 . S
C533 H549 0.960 . S
H534 C518 0.931 . S
H535 C523 0.929 . S
H536 C524 0.959 1_554 S
H537 C524 0.963 . S
H538 C524 0.962 . S
H539 C525 0.961 . S
H540 C525 0.961 . S
H541 C525 0.961 . S
H542 C526 0.931 . S
H543 C531 0.930 . S
H544 C532 0.956 . S
H545 C532 0.961 . S
H546 C532 0.961 . S
H547 C533 0.958 . S
H548 C533 0.961 . S
H549 C533 0.960 . S
C550 C551 1.391 1_655 S
C550 C552 1.394 . S
C550 H566 0.931 . S
C551 C550 1.391 1_455 S
C551 C555 1.376 . S
C552 C550 1.394 . S
C552 C553 1.369 . S
C552 C556 1.531 . S
C553 C552 1.369 . S
C553 C554 1.410 . S
C553 C561 1.503 . S
C554 C553 1.410 . S
C554 C555 1.392 1_655 S
C554 C557 1.511 . S
C555 C551 1.376 . S
C555 C554 1.392 1_455 S
C555 H567 0.929 . S
C556 C552 1.531 . S
C556 H568 0.960 . S
C556 H569 0.962 . S
C556 H570 0.960 . S
C557 C554 1.511 . S
C557 H571 0.961 1_655 S
C557 H572 0.961 . S
C557 H573 0.961 . S
C558 C559 1.370 . S
C558 C560 1.363 . S
C558 H574 0.931 . S
C559 C558 1.370 . S
C559 C563 1.408 . S
C560 C558 1.363 . S
C560 C561 1.370 . S
C560 C564 1.524 . S
C561 C553 1.503 . S
C561 C560 1.370 . S
C561 C562 1.403 . S
C562 C561 1.403 . S
C562 C563 1.404 . S
C562 C565 1.539 . S
C563 C559 1.408 . S
C563 C562 1.404 . S
C563 H575 0.930 . S
C564 C560 1.524 . S
C564 H576 0.956 . S
C564 H577 0.961 . S
C564 H578 0.961 . S
C565 C562 1.539 . S
C565 H579 0.958 . S
C565 H580 0.961 . S
C565 H581 0.960 . S
H566 C550 0.931 . S
H567 C555 0.929 . S
H568 C556 0.960 . S
H569 C556 0.962 . S
H570 C556 0.960 . S
H571 C557 0.961 1_455 S
H572 C557 0.961 . S
H573 C557 0.961 . S
H574 C558 0.931 . S
H575 C563 0.930 . S
H576 C564 0.956 . S
H577 C564 0.961 . S
H578 C564 0.961 . S
H579 C565 0.958 . S
H580 C565 0.961 . S
H581 C565 0.960 . S
C582 C583 1.391 . S
C582 C584 1.394 . S
C582 H598 0.931 . S
C583 C582 1.391 . S
C583 C587 1.376 . S
C584 C582 1.394 . S
C584 C585 1.369 . S
C584 C588 1.531 . S
C585 C584 1.369 . S
C585 C586 1.410 . S
C585 C593 1.503 . S
C586 C585 1.410 . S
C586 C587 1.392 . S
C586 C589 1.511 . S
C587 C583 1.376 . S
C587 C586 1.392 . S
C587 H599 0.929 . S
C588 C584 1.531 . S
C588 H600 0.960 . S
C588 H601 0.962 . S
C588 H602 0.960 . S
C589 C586 1.511 . S
C589 H603 0.961 . S
C589 H604 0.961 . S
C589 H605 0.961 . S
C590 C591 1.370 . S
C590 C592 1.363 . S
C590 H606 0.931 1_545 S
C591 C590 1.370 . S
C591 C595 1.408 . S
C592 C590 1.363 . S
C592 C593 1.370 . S
C592 C596 1.524 . S
C593 C585 1.503 . S
C593 C592 1.370 . S
C593 C594 1.403 . S
C594 C593 1.403 . S
C594 C595 1.404 . S
C594 C597 1.539 . S
C595 C591 1.408 . S
C595 C594 1.404 . S
C595 H607 0.930 . S
C596 C592 1.524 . S
C596 H608 0.956 . S
C596 H609 0.961 . S
C596 H610 0.961 1_545 S
C597 C594 1.539 . S
C597 H611 0.958 . S
C597 H612 0.961 . S
C597 H613 0.960 . S
H598 C582 0.931 . S
H599 C587 0.929 . S
H600 C588 0.960 . S
H601 C588 0.962 . S
H602 C588 0.960 . S
H603 C589 0.961 . S
H604 C589 0.961 . S
H605 C589 0.961 . S
H606 C590 0.931 1_565 S
H607 C595 0.930 . S
H608 C596 0.956 . S
H609 C596 0.961 . S
H610 C596 0.961 1_565 S
H611 C597 0.958 . S
H612 C597 0.961 . S
H613 C597 0.960 . S
C614 C615 1.391 . S
C614 C616 1.394 . S
C614 H630 0.931 . S
C615 C614 1.391 . S
C615 C619 1.376 . S
C616 C614 1.394 . S
C616 C617 1.369 . S
C616 C620 1.531 . S
C617 C616 1.369 . S
C617 C618 1.410 . S
C617 C625 1.503 . S
C618 C617 1.410 . S
C618 C619 1.392 . S
C618 C621 1.511 . S
C619 C615 1.376 . S
C619 C618 1.392 . S
C619 H631 0.929 . S
C620 C616 1.531 . S
C620 H632 0.960 . S
C620 H633 0.962 . S
C620 H634 0.960 . S
C621 C618 1.511 . S
C621 H635 0.961 . S
C621 H636 0.961 . S
C621 H637 0.961 . S
C622 C623 1.370 . S
C622 C624 1.363 . S
C622 H638 0.931 . S
C623 C622 1.370 . S
C623 C627 1.408 1_554 S
C624 C622 1.363 . S
C624 C625 1.370 . S
C624 C628 1.524 . S
C625 C617 1.503 . S
C625 C624 1.370 . S
C625 C626 1.403 . S
C626 C625 1.403 . S
C626 C627 1.404 1_554 S
C626 C629 1.539 1_554 S
C627 C623 1.408 1_556 S
C627 C626 1.404 1_556 S
C627 H639 0.930 . S
C628 C624 1.524 . S
C628 H640 0.956 . S
C628 H641 0.961 . S
C628 H642 0.961 . S
C629 C626 1.539 1_556 S
C629 H643 0.958 . S
C629 H644 0.961 . S
C629 H645 0.960 . S
H630 C614 0.931 . S
H631 C619 0.929 . S
H632 C620 0.960 . S
H633 C620 0.962 . S
H634 C620 0.960 . S
H635 C621 0.961 . S
H636 C621 0.961 . S
H637 C621 0.961 . S
H638 C622 0.931 . S
H639 C627 0.930 . S
H640 C628 0.956 . S
H641 C628 0.961 . S
H642 C628 0.961 . S
H643 C629 0.958 . S
H644 C629 0.961 . S
H645 C629 0.960 . S
C646 C647 1.391 . S
C646 C648 1.394 . S
C646 H662 0.931 . S
C647 C646 1.391 . S
C647 C651 1.376 . S
C648 C646 1.394 . S
C648 C649 1.369 . S
C648 C652 1.531 . S
C649 C648 1.369 . S
C649 C650 1.410 . S
C649 C657 1.503 . S
C650 C649 1.410 . S
C650 C651 1.392 . S
C650 C653 1.511 . S
C651 C647 1.376 . S
C651 C650 1.392 . S
C651 H663 0.929 . S
C652 C648 1.531 . S
C652 H664 0.960 . S
C652 H665 0.962 . S
C652 H666 0.960 . S
C653 C650 1.511 . S
C653 H667 0.961 . S
C653 H668 0.961 . S
C653 H669 0.961 . S
C654 C655 1.370 . S
C654 C656 1.363 . S
C654 H670 0.931 . S
C655 C654 1.370 . S
C655 C659 1.408 . S
C656 C654 1.363 . S
C656 C657 1.370 . S
C656 C660 1.524 . S
C657 C649 1.503 . S
C657 C656 1.370 . S
C657 C658 1.403 . S
C658 C657 1.403 . S
C658 C659 1.404 . S
C658 C661 1.539 . S
C659 C655 1.408 . S
C659 C658 1.404 . S
C659 H671 0.930 . S
C660 C656 1.524 . S
C660 H672 0.956 . S
C660 H673 0.961 . S
C660 H674 0.961 . S
C661 C658 1.539 . S
C661 H675 0.958 . S
C661 H676 0.961 . S
C661 H677 0.960 . S
H662 C646 0.931 . S
H663 C651 0.929 . S
H664 C652 0.960 . S
H665 C652 0.962 . S
H666 C652 0.960 . S
H667 C653 0.961 . S
H668 C653 0.961 . S
H669 C653 0.961 . S
H670 C654 0.931 . S
H671 C659 0.930 . S
H672 C660 0.956 . S
H673 C660 0.961 . S
H674 C660 0.961 . S
H675 C661 0.958 . S
H676 C661 0.961 . S
H677 C661 0.960 . S
C199 C127 1.514 . S
C207 N14 1.390 1_655 S
C231 C140 0.804 . S
C239 C8 0.810 . S
C263 N5 0.691 . S
C271 N170 0.684 . S
C295 N80 1.386 . S
C303 C28 1.529 . S
C327 N179 1.425 . S
C335 C41 1.571 . S
C359 N71 0.573 . S
C367 N47 0.519 . S
C391 C61 0.817 . S
C399 C107 0.807 . S
C423 C160 1.490 1_556 S
C431 N38 1.280 1_655 S
C455 C94 1.509 . S
C463 N113 1.411 1_556 S
C487 C74 0.682 . S
C495 C173 0.698 . S
C519 N137 0.759 . S
C527 N104 0.714 . S
C551 C193 1.556 . S
C559 N146 1.441 1_565 S
C583 C50 1.221 . S
C591 C17 1.187 . S
C615 C149 1.029 . S
C623 C83 1.062 . S
C647 C182 1.110 . S
C655 C116 1.052 . S
