# Generated by pormake.
# Topology vbw, (6)-cn, num edge types: 1
# Building blocks:
#     Node 0, Type 0, BuildingBlock: OJICUG_clean_sbu_0, # of connection points: 6
#     Node 1, Type 0, BuildingBlock: OJICUG_clean_sbu_0, # of connection points: 6
#     Node 2, Type 0, BuildingBlock: OJICUG_clean_sbu_0, # of connection points: 6
#     Node 3, Type 0, BuildingBlock: OJICUG_clean_sbu_0, # of connection points: 6
#     Node 4, Type 0, BuildingBlock: OJICUG_clean_sbu_0, # of connection points: 6
#     Node 5, Type 0, BuildingBlock: OJICUG_clean_sbu_0, # of connection points: 6
#     Node 6, Type 0, BuildingBlock: OJICUG_clean_sbu_0, # of connection points: 6
#     Node 7, Type 0, BuildingBlock: OJICUG_clean_sbu_0, # of connection points: 6
#     Node 8, Type 0, BuildingBlock: OJICUG_clean_sbu_0, # of connection points: 6
#     Node 9, Type 0, BuildingBlock: OJICUG_clean_sbu_0, # of connection points: 6
#     Node 10, Type 0, BuildingBlock: OJICUG_clean_sbu_0, # of connection points: 6
#     Node 11, Type 0, BuildingBlock: OJICUG_clean_sbu_0, # of connection points: 6
#     Node 12, Type 0, BuildingBlock: OJICUG_clean_sbu_0, # of connection points: 6
#     Node 13, Type 0, BuildingBlock: OJICUG_clean_sbu_0, # of connection points: 6
#     Node 14, Type 0, BuildingBlock: OJICUG_clean_sbu_0, # of connection points: 6
#     Node 15, Type 0, BuildingBlock: OJICUG_clean_sbu_0, # of connection points: 6
#     Edge 16, Type (0, 0), BuildingBlock: XUDNAN_clean_linker_2, # of connection points: 2
#     Edge 17, Type (0, 0), BuildingBlock: XUDNAN_clean_linker_2, # of connection points: 2
#     Edge 18, Type (0, 0), BuildingBlock: XUDNAN_clean_linker_2, # of connection points: 2
#     Edge 19, Type (0, 0), BuildingBlock: XUDNAN_clean_linker_2, # of connection points: 2
#     Edge 20, Type (0, 0), BuildingBlock: XUDNAN_clean_linker_2, # of connection points: 2
#     Edge 21, Type (0, 0), BuildingBlock: XUDNAN_clean_linker_2, # of connection points: 2
#     Edge 22, Type (0, 0), BuildingBlock: XUDNAN_clean_linker_2, # of connection points: 2
#     Edge 23, Type (0, 0), BuildingBlock: XUDNAN_clean_linker_2, # of connection points: 2
#     Edge 24, Type (0, 0), BuildingBlock: XUDNAN_clean_linker_2, # of connection points: 2
#     Edge 25, Type (0, 0), BuildingBlock: XUDNAN_clean_linker_2, # of connection points: 2
#     Edge 26, Type (0, 0), BuildingBlock: XUDNAN_clean_linker_2, # of connection points: 2
#     Edge 27, Type (0, 0), BuildingBlock: XUDNAN_clean_linker_2, # of connection points: 2
#     Edge 28, Type (0, 0), BuildingBlock: XUDNAN_clean_linker_2, # of connection points: 2
#     Edge 29, Type (0, 0), BuildingBlock: XUDNAN_clean_linker_2, # of connection points: 2
#     Edge 30, Type (0, 0), BuildingBlock: XUDNAN_clean_linker_2, # of connection points: 2
#     Edge 31, Type (0, 0), BuildingBlock: XUDNAN_clean_linker_2, # of connection points: 2
#     Edge 32, Type (0, 0), BuildingBlock: XUDNAN_clean_linker_2, # of connection points: 2
#     Edge 33, Type (0, 0), BuildingBlock: XUDNAN_clean_linker_2, # of connection points: 2
#     Edge 34, Type (0, 0), BuildingBlock: XUDNAN_clean_linker_2, # of connection points: 2
#     Edge 35, Type (0, 0), BuildingBlock: XUDNAN_clean_linker_2, # of connection points: 2
#     Edge 36, Type (0, 0), BuildingBlock: XUDNAN_clean_linker_2, # of connection points: 2
#     Edge 37, Type (0, 0), BuildingBlock: XUDNAN_clean_linker_2, # of connection points: 2
#     Edge 38, Type (0, 0), BuildingBlock: XUDNAN_clean_linker_2, # of connection points: 2
#     Edge 39, Type (0, 0), BuildingBlock: XUDNAN_clean_linker_2, # of connection points: 2
#     Edge 40, Type (0, 0), BuildingBlock: XUDNAN_clean_linker_2, # of connection points: 2
#     Edge 41, Type (0, 0), BuildingBlock: XUDNAN_clean_linker_2, # of connection points: 2
#     Edge 42, Type (0, 0), BuildingBlock: XUDNAN_clean_linker_2, # of connection points: 2
#     Edge 43, Type (0, 0), BuildingBlock: XUDNAN_clean_linker_2, # of connection points: 2
#     Edge 44, Type (0, 0), BuildingBlock: XUDNAN_clean_linker_2, # of connection points: 2
#     Edge 45, Type (0, 0), BuildingBlock: XUDNAN_clean_linker_2, # of connection points: 2
#     Edge 46, Type (0, 0), BuildingBlock: XUDNAN_clean_linker_2, # of connection points: 2
#     Edge 47, Type (0, 0), BuildingBlock: XUDNAN_clean_linker_2, # of connection points: 2
#     Edge 48, Type (0, 0), BuildingBlock: XUDNAN_clean_linker_2, # of connection points: 2
#     Edge 49, Type (0, 0), BuildingBlock: XUDNAN_clean_linker_2, # of connection points: 2
#     Edge 50, Type (0, 0), BuildingBlock: XUDNAN_clean_linker_2, # of connection points: 2
#     Edge 51, Type (0, 0), BuildingBlock: XUDNAN_clean_linker_2, # of connection points: 2
#     Edge 52, Type (0, 0), BuildingBlock: XUDNAN_clean_linker_2, # of connection points: 2
#     Edge 53, Type (0, 0), BuildingBlock: XUDNAN_clean_linker_2, # of connection points: 2
#     Edge 54, Type (0, 0), BuildingBlock: XUDNAN_clean_linker_2, # of connection points: 2
#     Edge 55, Type (0, 0), BuildingBlock: XUDNAN_clean_linker_2, # of connection points: 2
#     Edge 56, Type (0, 0), BuildingBlock: XUDNAN_clean_linker_2, # of connection points: 2
#     Edge 57, Type (0, 0), BuildingBlock: XUDNAN_clean_linker_2, # of connection points: 2
#     Edge 58, Type (0, 0), BuildingBlock: XUDNAN_clean_linker_2, # of connection points: 2
#     Edge 59, Type (0, 0), BuildingBlock: XUDNAN_clean_linker_2, # of connection points: 2
#     Edge 60, Type (0, 0), BuildingBlock: XUDNAN_clean_linker_2, # of connection points: 2
#     Edge 61, Type (0, 0), BuildingBlock: XUDNAN_clean_linker_2, # of connection points: 2
#     Edge 62, Type (0, 0), BuildingBlock: XUDNAN_clean_linker_2, # of connection points: 2
#     Edge 63, Type (0, 0), BuildingBlock: XUDNAN_clean_linker_2, # of connection points: 2
# Relax obj value: 0.200
# Max RMSD: 0.231
# Mean RMSD: 0.231
data_MOF--net-vbw--node1-OJICUG_clean_sbu_0--edge1-XUDNAN_clean_linker_2
_symmetry_space_group_name_H-M    P1
_symmetry_Int_Tables_number       1
_symmetry_cell_setting            triclinic
loop_
_symmetry_equiv_pos_as_xyz
'x, y, z'
_cell_length_a     57.837224
_cell_length_b     46.28586
_cell_length_c     28.787749
_cell_angle_alpha  90.104779
_cell_angle_beta   90.028958
_cell_angle_gamma 89.987041
loop_
_atom_site_label
_atom_site_type_symbol
_atom_site_fract_x
_atom_site_fract_y
_atom_site_fract_z
_atom_type_partial_charge
Sc0 Sc 0.15308 0.14003 0.06491 0.0
Sc1 Sc 0.12963 0.2069 0.09452 0.0
Sc2 Sc 0.12026 0.14648 0.16535 0.0
O3 O 0.13408 0.16464 0.10799 0.0
C4 C 0.1144 0.09652 0.08758 0.0
C5 C 0.12889 0.18352 0.99242 0.0
C6 C 0.07939 0.18478 0.12816 0.0
C7 C 0.18315 0.19583 0.0712 0.0
C8 C 0.16977 0.1194 0.16485 0.0
C9 C 0.13362 0.20974 0.20334 0.0
O10 O 0.12546 0.11021 0.05664 0.0
O11 O 0.1204 0.19991 0.02337 0.0
O12 O 0.08639 0.16098 0.14545 0.0
O13 O 0.18151 0.16853 0.0711 0.0
O14 O 0.15413 0.13273 0.18737 0.0
O15 O 0.13881 0.21937 0.16354 0.0
O16 O 0.16839 0.11523 0.12115 0.0
O17 O 0.16577 0.2127 0.07516 0.0
O18 O 0.12473 0.18479 0.20916 0.0
O19 O 0.14172 0.16202 1.00231 0.0
O20 O 0.11352 0.10514 0.12981 0.0
O21 O 0.09311 0.20408 0.11229 0.0
Sc22 Sc 0.3215 0.86285 0.58761 0.0
Sc23 Sc 0.35721 0.80336 0.60362 0.0
Sc24 Sc 0.36274 0.86389 0.67544 0.0
O25 O 0.34748 0.84333 0.62186 0.0
C26 C 0.35498 0.91409 0.59877 0.0
C27 C 0.34477 0.82537 0.50532 0.0
C28 C 0.40486 0.83699 0.62234 0.0
C29 C 0.30194 0.80087 0.60019 0.0
C30 C 0.3111 0.87945 0.69204 0.0
C31 C 0.36242 0.79829 0.71211 0.0
O32 O 0.34344 0.8984 0.57085 0.0
O33 O 0.35954 0.8138 0.53184 0.0
O34 O 0.39625 0.85811 0.64487 0.0
O35 O 0.29912 0.82798 0.60417 0.0
O36 O 0.32965 0.86864 0.70788 0.0
O37 O 0.35608 0.78809 0.67328 0.0
O38 O 0.30846 0.8852 0.64915 0.0
O39 O 0.3217 0.78901 0.59487 0.0
O40 O 0.36728 0.82496 0.7177 0.0
O41 O 0.32921 0.84243 0.52065 0.0
O42 O 0.36026 0.9058 0.63987 0.0
O43 O 0.3932 0.81503 0.6093 0.0
Sc44 Sc 0.14836 0.86048 0.95313 0.0
Sc45 Sc 0.12462 0.80024 0.89911 0.0
Sc46 Sc 0.11266 0.86897 0.8577 0.0
O47 O 0.12834 0.84299 0.90393 0.0
C48 C 0.11074 0.90715 0.95033 0.0
C49 C 0.12396 0.80806 0.00752 0.0
C50 C 0.07359 0.8269 0.88338 0.0
C51 C 0.17812 0.80716 0.925 0.0
C52 C 0.16324 0.89031 0.85894 0.0
C53 C 0.12289 0.81312 0.7948 0.0
O54 O 0.12093 0.88825 0.97462 0.0
O55 O 0.11573 0.79694 0.97072 0.0
O56 O 0.07984 0.85327 0.88026 0.0
O57 O 0.17654 0.83371 0.93516 0.0
O58 O 0.1462 0.88178 0.83468 0.0
O59 O 0.1335 0.7998 0.82675 0.0
O60 O 0.16206 0.89201 0.90327 0.0
O61 O 0.16073 0.79133 0.91521 0.0
O62 O 0.11206 0.83661 0.80251 0.0
O63 O 0.13751 0.82986 0.00701 0.0
O64 O 0.11007 0.90564 0.90607 0.0
O65 O 0.08789 0.80576 0.88418 0.0
Sc66 Sc 0.36595 0.14108 0.35883 0.0
Sc67 Sc 0.36602 0.21103 0.40902 0.0
Sc68 Sc 0.32473 0.1596 0.4413 0.0
O69 O 0.35243 0.17064 0.40315 0.0
C70 C 0.31295 0.1286 0.34464 0.0
C71 C 0.37004 0.2002 0.30075 0.0
C72 C 0.31148 0.22194 0.40926 0.0
C73 C 0.41079 0.17013 0.40154 0.0
C74 C 0.35462 0.10353 0.45003 0.0
C75 C 0.35179 0.20139 0.51277 0.0
O76 O 0.33294 0.13191 0.32713 0.0
O77 O 0.36615 0.21667 0.33516 0.0
O78 O 0.30614 0.19563 0.4152 0.0
O79 O 0.39976 0.14823 0.38659 0.0
O80 O 0.34235 0.12291 0.46921 0.0
O81 O 0.36663 0.21067 0.4839 0.0
O82 O 0.36208 0.10555 0.40841 0.0
O83 O 0.40139 0.19473 0.40834 0.0
O84 O 0.33566 0.18417 0.50118 0.0
O85 O 0.37198 0.17285 0.3044 0.0
O86 O 0.30857 0.13448 0.38687 0.0
O87 O 0.33216 0.2314 0.41088 0.0
Sc88 Sc 0.86367 0.8633 0.8403 0.0
Sc89 Sc 0.85399 0.80034 0.90565 0.0
Sc90 Sc 0.83216 0.86675 0.94395 0.0
O91 O 0.85015 0.84333 0.89687 0.0
C92 C 0.87104 0.91079 0.92144 0.0
C93 C 0.90424 0.82288 0.87546 0.0
C94 C 0.85588 0.82024 0.01115 0.0
C95 C 0.84993 0.80177 0.79602 0.0
C96 C 0.81419 0.89081 0.84627 0.0
C97 C 0.801 0.81152 0.92978 0.0
O98 O 0.87181 0.90321 0.87878 0.0
O99 O 0.8906 0.80378 0.89197 0.0
O100 O 0.84542 0.84397 0.00383 0.0
O101 O 0.85771 0.82738 0.7918 0.0
O102 O 0.81527 0.89216 0.89046 0.0
O103 O 0.81759 0.79483 0.91849 0.0
O104 O 0.83 0.87922 0.82176 0.0
O105 O 0.84652 0.79029 0.83518 0.0
O106 O 0.80352 0.83803 0.93985 0.0
O107 O 0.89734 0.84654 0.85736 0.0
O108 O 0.85966 0.897 0.95171 0.0
O109 O 0.86127 0.80305 0.9786 0.0
Sc110 Sc 0.66361 0.15961 0.43385 0.0
Sc111 Sc 0.62383 0.21165 0.39845 0.0
Sc112 Sc 0.62578 0.1434 0.34428 0.0
O113 O 0.63766 0.17171 0.39205 0.0
C114 C 0.67839 0.12944 0.33793 0.0
C115 C 0.67824 0.22244 0.41437 0.0
C116 C 0.62366 0.20398 0.28983 0.0
C117 C 0.63381 0.19986 0.5029 0.0
C118 C 0.63327 0.10417 0.43462 0.0
C119 C 0.57966 0.17101 0.38279 0.0
O120 O 0.68065 0.1337 0.38138 0.0
O121 O 0.6573 0.23092 0.41127 0.0
O122 O 0.6206 0.17673 0.29207 0.0
O123 O 0.65093 0.18388 0.49251 0.0
O124 O 0.62874 0.10648 0.39137 0.0
O125 O 0.58863 0.19586 0.38949 0.0
O126 O 0.6439 0.12352 0.45746 0.0
O127 O 0.61938 0.20866 0.47275 0.0
O128 O 0.59129 0.14917 0.36952 0.0
O129 O 0.68394 0.19591 0.41282 0.0
O130 O 0.65992 0.13574 0.3162 0.0
O131 O 0.62768 0.21959 0.32525 0.0
Sc132 Sc 0.83254 0.14871 0.0578 0.0
Sc133 Sc 0.85874 0.20912 0.11099 0.0
Sc134 Sc 0.86852 0.13937 0.1553 0.0
O135 O 0.85339 0.16573 0.10775 0.0
C136 C 0.81668 0.11621 0.15094 0.0
C137 C 0.80561 0.20619 0.08356 0.0
C138 C 0.85594 0.19518 0.21807 0.0
C139 C 0.86036 0.19735 1.00192 0.0
C140 C 0.87012 0.09885 0.06401 0.0
C141 C 0.9092 0.18262 0.13133 0.0
O142 O 0.81362 0.12347 0.10867 0.0
O143 O 0.82287 0.22015 0.0991 0.0
O144 O 0.86302 0.16932 0.21255 0.0
O145 O 0.84829 0.17425 1.00248 0.0
O146 O 0.87599 0.10516 0.10548 0.0
O147 O 0.89535 0.20327 0.12226 0.0
O148 O 0.85551 0.11369 0.04142 0.0
O149 O 0.86576 0.21126 0.03838 0.0
O150 O 0.90232 0.15728 0.14168 0.0
O151 O 0.80684 0.18064 0.06824 0.0
O152 O 0.8356 0.12049 0.17254 0.0
O153 O 0.85213 0.21194 0.18415 0.0
Sc154 Sc 0.65763 0.859 0.56644 0.0
Sc155 Sc 0.61799 0.80351 0.58705 0.0
Sc156 Sc 0.61679 0.86568 0.65774 0.0
O157 O 0.63083 0.84279 0.60381 0.0
C158 C 0.67047 0.87862 0.67047 0.0
C159 C 0.67194 0.79312 0.5789 0.0
C160 C 0.61383 0.80138 0.69762 0.0
C161 C 0.63105 0.8254 0.4857 0.0
C162 C 0.62612 0.91453 0.58038 0.0
C163 C 0.57259 0.84031 0.60501 0.0
O164 O 0.67514 0.87405 0.62794 0.0
O165 O 0.65152 0.78406 0.58615 0.0
O166 O 0.61494 0.82855 0.70457 0.0
O167 O 0.6447 0.84527 0.4991 0.0
O168 O 0.61686 0.90554 0.61788 0.0
O169 O 0.58361 0.81994 0.58544 0.0
O170 O 0.64056 0.89969 0.55716 0.0
O171 O 0.61989 0.80978 0.51391 0.0
O172 O 0.58189 0.85805 0.63329 0.0
O173 O 0.67682 0.81955 0.57194 0.0
O174 O 0.65023 0.87578 0.68716 0.0
O175 O 0.61453 0.79049 0.65733 0.0
Sc176 Sc 0.65048 0.65815 0.04788 0.0
Sc177 Sc 0.61512 0.71395 0.08713 0.0
Sc178 Sc 0.6238 0.65197 0.15554 0.0
O179 O 0.62958 0.6746 0.09686 0.0
C180 C 0.62199 0.60343 0.07451 0.0
C181 C 0.61193 0.6914 0.98676 0.0
C182 C 0.57483 0.67894 0.13864 0.0
C183 C 0.66517 0.7215 0.04211 0.0
C184 C 0.67628 0.63747 0.14085 0.0
C185 C 0.62976 0.71757 0.19199 0.0
O186 O 0.6305 0.61978 0.0436 0.0
O187 O 0.60113 0.70241 0.02087 0.0
O188 O 0.5874 0.65752 0.14945 0.0
O189 O 0.67138 0.69568 0.04957 0.0
O190 O 0.6599 0.64464 0.16779 0.0
O191 O 0.62866 0.72892 0.1519 0.0
O192 O 0.67434 0.63843 0.09682 0.0
O193 O 0.64505 0.73101 0.0512 0.0
O194 O 0.6264 0.69063 0.19921 0.0
O195 O 0.63034 0.67658 0.99156 0.0
O196 O 0.62032 0.61103 0.1172 0.0
O197 O 0.58275 0.70163 0.11943 0.0
Sc198 Sc 0.82696 0.35867 0.56934 0.0
Sc199 Sc 0.85649 0.30012 0.61314 0.0
Sc200 Sc 0.86909 0.36879 0.65337 0.0
O201 O 0.85104 0.34265 0.61163 0.0
C202 C 0.86436 0.40596 0.5594 0.0
C203 C 0.84941 0.30668 0.50898 0.0
C204 C 0.90735 0.32667 0.62293 0.0
C205 C 0.80187 0.30392 0.59825 0.0
C206 C 0.81937 0.39363 0.66401 0.0
C207 C 0.86053 0.31257 0.71724 0.0
O208 O 0.85151 0.38768 0.53882 0.0
O209 O 0.86364 0.30028 0.54087 0.0
O210 O 0.90087 0.35289 0.62536 0.0
O211 O 0.80183 0.33122 0.59964 0.0
O212 O 0.83778 0.38459 0.68319 0.0
O213 O 0.84967 0.29862 0.68608 0.0
O214 O 0.8155 0.39071 0.6205 0.0
O215 O 0.82055 0.28933 0.59789 0.0
O216 O 0.8708 0.33648 0.70884 0.0
O217 O 0.83397 0.32625 0.51435 0.0
O218 O 0.86954 0.404 0.60247 0.0
O219 O 0.89327 0.30553 0.62556 0.0
Sc220 Sc 0.65904 0.35834 0.94585 0.0
Sc221 Sc 0.62152 0.30709 0.90281 0.0
Sc222 Sc 0.62898 0.37227 0.8434 0.0
O223 O 0.6364 0.34599 0.8969 0.0
C224 C 0.62816 0.41303 0.93477 0.0
C225 C 0.62265 0.32107 0.00586 0.0
C226 C 0.58011 0.34531 0.86205 0.0
C227 C 0.67393 0.29591 0.9358 0.0
C228 C 0.68155 0.38621 0.85464 0.0
C229 C 0.6333 0.30918 0.79615 0.0
O230 O 0.63787 0.39463 0.96109 0.0
O231 O 0.6096 0.31657 0.97121 0.0
O232 O 0.59276 0.36682 0.85237 0.0
O233 O 0.68009 0.32201 0.9308 0.0
O234 O 0.66465 0.37983 0.82859 0.0
O235 O 0.6326 0.29584 0.83469 0.0
O236 O 0.68061 0.38348 0.89863 0.0
O237 O 0.65293 0.2878 0.93144 0.0
O238 O 0.63029 0.33653 0.7927 0.0
O239 O 0.64211 0.33375 1.00144 0.0
O240 O 0.62656 0.4099 0.89055 0.0
O241 O 0.58824 0.32149 0.8769 0.0
Sc242 Sc 0.8661 0.64707 0.34167 0.0
Sc243 Sc 0.85506 0.70706 0.41181 0.0
Sc244 Sc 0.82612 0.6428 0.43125 0.0
O245 O 0.8493 0.6656 0.39505 0.0
C246 C 0.81644 0.6228 0.32657 0.0
C247 C 0.8567 0.71168 0.30405 0.0
C248 C 0.80039 0.70055 0.42499 0.0
C249 C 0.90545 0.68289 0.38743 0.0
C250 C 0.86394 0.59615 0.41835 0.0
C251 C 0.84864 0.68393 0.51069 0.0
O252 O 0.83423 0.63492 0.30971 0.0
O253 O 0.84858 0.72064 0.3424 0.0
O254 O 0.80035 0.67374 0.41643 0.0
O255 O 0.89861 0.65885 0.3711 0.0
O256 O 0.85116 0.61012 0.44643 0.0
O257 O 0.86201 0.69671 0.48256 0.0
O258 O 0.86855 0.60534 0.37749 0.0
O259 O 0.8917 0.70338 0.39812 0.0
O260 O 0.83398 0.66503 0.49703 0.0
O261 O 0.86564 0.68656 0.2994 0.0
O262 O 0.81337 0.61972 0.37019 0.0
O263 O 0.81898 0.71516 0.42907 0.0
Sc264 Sc 0.36121 0.37193 0.85757 0.0
Sc265 Sc 0.37046 0.30513 0.91162 0.0
Sc266 Sc 0.33364 0.35514 0.96175 0.0
O267 O 0.35531 0.34417 0.91014 0.0
C268 C 0.36267 0.41139 0.95048 0.0
C269 C 0.41073 0.34553 0.8713 0.0
C270 C 0.37138 0.3165 0.01635 0.0
C271 C 0.35665 0.31038 0.8061 0.0
C272 C 0.30838 0.38287 0.87361 0.0
C273 C 0.31875 0.29228 0.94603 0.0
O274 O 0.36363 0.40878 0.90615 0.0
O275 O 0.40312 0.32127 0.88542 0.0
O276 O 0.35229 0.33026 0.01446 0.0
O277 O 0.35944 0.33777 0.80441 0.0
O278 O 0.31031 0.37982 0.91741 0.0
O279 O 0.33956 0.28423 0.93894 0.0
O280 O 0.32511 0.37834 0.84618 0.0
O281 O 0.35839 0.29594 0.84338 0.0
O282 O 0.31277 0.31862 0.94746 0.0
O283 O 0.39771 0.36706 0.86353 0.0
O284 O 0.35425 0.39208 0.97687 0.0
O285 O 0.38335 0.31163 0.98031 0.0
Sc286 Sc 0.15581 0.65248 0.44886 0.0
Sc287 Sc 0.12289 0.70862 0.40332 0.0
Sc288 Sc 0.11529 0.63954 0.3605 0.0
O289 O 0.1314 0.66658 0.40458 0.0
C290 C 0.1677 0.62057 0.35258 0.0
C291 C 0.17574 0.71308 0.43332 0.0
C292 C 0.12362 0.69704 0.29867 0.0
C293 C 0.12449 0.6966 0.50959 0.0
C294 C 0.12154 0.59922 0.45054 0.0
C295 C 0.07439 0.67889 0.38687 0.0
O296 O 0.17237 0.62709 0.39471 0.0
O297 O 0.156 0.72394 0.42585 0.0
O298 O 0.11461 0.67216 0.30558 0.0
O299 O 0.14141 0.67879 0.5059 0.0
O300 O 0.11374 0.60408 0.4099 0.0
O301 O 0.08759 0.7007 0.38422 0.0
O302 O 0.13553 0.61614 0.47107 0.0
O303 O 0.11332 0.70618 0.47471 0.0
O304 O 0.08197 0.65316 0.38496 0.0
O305 O 0.17939 0.68621 0.4309 0.0
O306 O 0.14795 0.62481 0.33425 0.0
O307 O 0.1323 0.71205 0.33139 0.0
Sc308 Sc 0.32874 0.65504 0.06874 0.0
Sc309 Sc 0.36305 0.7126 0.10705 0.0
Sc310 Sc 0.35795 0.64952 0.17467 0.0
O311 O 0.35009 0.67236 0.11677 0.0
C312 C 0.30571 0.63215 0.16307 0.0
C313 C 0.31098 0.7184 0.07014 0.0
C314 C 0.35066 0.71401 0.21428 0.0
C315 C 0.3642 0.69116 0.00448 0.0
C316 C 0.36009 0.60175 0.09237 0.0
C317 C 0.40586 0.679 0.15255 0.0
O318 O 0.30637 0.63427 0.11905 0.0
O319 O 0.33087 0.72878 0.07918 0.0
O320 O 0.35397 0.687 0.22048 0.0
O321 O 0.34721 0.67412 0.01084 0.0
O322 O 0.36289 0.60949 0.13474 0.0
O323 O 0.3971 0.70087 0.13233 0.0
O324 O 0.34967 0.61737 0.06281 0.0
O325 O 0.3745 0.70394 0.0376 0.0
O326 O 0.3939 0.65789 0.16699 0.0
O327 O 0.3065 0.69159 0.0715 0.0
O328 O 0.32258 0.63926 0.18876 0.0
O329 O 0.35202 0.72596 0.17472 0.0
Sc330 Sc 0.1604 0.3563 0.57518 0.0
Sc331 Sc 0.12585 0.29559 0.58869 0.0
Sc332 Sc 0.11794 0.35457 0.66233 0.0
O333 O 0.13462 0.33582 0.60872 0.0
C334 C 0.16959 0.37456 0.68125 0.0
C335 C 0.17999 0.29576 0.56607 0.0
C336 C 0.12679 0.28877 0.69637 0.0
C337 C 0.13268 0.32281 0.49281 0.0
C338 C 0.12422 0.40681 0.58948 0.0
C339 C 0.07676 0.32051 0.61883 0.0
O340 O 0.17526 0.37391 0.63848 0.0
O341 O 0.15994 0.2847 0.56425 0.0
O342 O 0.11893 0.31437 0.70279 0.0
O343 O 0.14911 0.33891 0.50777 0.0
O344 O 0.11546 0.39601 0.6263 0.0
O345 O 0.08994 0.29999 0.60649 0.0
O346 O 0.13969 0.39424 0.56542 0.0
O347 O 0.1185 0.31035 0.52001 0.0
O348 O 0.08448 0.34424 0.63456 0.0
O349 O 0.18347 0.32057 0.58318 0.0
O350 O 0.14975 0.36683 0.69553 0.0
O351 O 0.13316 0.27951 0.65668 0.0
H352 H 0.18291 0.13226 0.25452 0.0
H353 H 0.20672 0.08956 0.12888 0.0
H354 H 0.2453 0.08351 0.16391 0.0
H355 H 0.23249 0.17238 0.27394 0.0
H356 H 0.23214 0.1695 0.33636 0.0
H357 H 0.20553 0.16714 0.3042 0.0
H358 H 0.19676 0.11743 0.34152 0.0
H359 H 0.22328 0.11975 0.37423 0.0
H360 H 0.21787 0.08886 0.33759 0.0
H361 H 0.2827 0.08789 0.20844 0.0
H362 H 0.31515 0.09965 0.26126 0.0
H363 H 0.26675 0.1382 0.35843 0.0
C364 C 0.19599 0.12086 0.2348 0.0
C365 C 0.1916 0.11125 0.18892 0.0
C366 C 0.20949 0.09699 0.16414 0.0
C367 C 0.23154 0.09346 0.18374 0.0
C368 C 0.23547 0.10406 0.22838 0.0
C369 C 0.21811 0.11713 0.25386 0.0
C370 C 0.22721 0.1283 0.2999 0.0
C371 C 0.22416 0.16128 0.30379 0.0
C372 C 0.21559 0.11264 0.34073 0.0
C373 C 0.2525 0.12008 0.29583 0.0
C374 C 0.25693 0.10606 0.25438 0.0
C375 C 0.27935 0.09835 0.24141 0.0
C376 C 0.29769 0.1052 0.27154 0.0
C377 C 0.2935 0.11947 0.31429 0.0
C378 C 0.27051 0.12667 0.32655 0.0
H379 H 0.19447 0.93036 0.82238 0.0
H380 H 0.18208 0.83901 0.84337 0.0
H381 H 0.21968 0.82741 0.80835 0.0
H382 H 0.21927 0.91966 0.70818 0.0
H383 H 0.24011 0.94845 0.71313 0.0
H384 H 0.21326 0.95046 0.74466 0.0
H385 H 0.23588 0.95691 0.82163 0.0
H386 H 0.26282 0.95486 0.79032 0.0
H387 H 0.25732 0.93051 0.83785 0.0
H388 H 0.25834 0.82512 0.77462 0.0
H389 H 0.29436 0.83132 0.73017 0.0
H390 H 0.28103 0.92329 0.71894 0.0
C391 C 0.20004 0.90807 0.82026 0.0
C392 C 0.18609 0.88552 0.83787 0.0
C393 C 0.19318 0.85651 0.83237 0.0
C394 C 0.21439 0.84972 0.81212 0.0
C395 C 0.22809 0.87221 0.7961 0.0
C396 C 0.22112 0.90076 0.7986 0.0
C397 C 0.23844 0.92015 0.77391 0.0
C398 C 0.22709 0.93559 0.73251 0.0
C399 C 0.24926 0.9419 0.80797 0.0
C400 C 0.25613 0.89795 0.75773 0.0
C401 C 0.24987 0.87057 0.77199 0.0
C402 C 0.26342 0.84638 0.76289 0.0
C403 C 0.28386 0.85013 0.73788 0.0
C404 C 0.29035 0.8777 0.72141 0.0
C405 C 0.27633 0.902 0.73128 0.0
H406 H 0.71689 0.8721 0.65495 0.0
H407 H 0.66769 0.9034 0.75719 0.0
H408 H 0.70002 0.91591 0.80974 0.0
H409 H 0.75378 0.83822 0.73449 0.0
H410 H 0.77999 0.84675 0.70357 0.0
H411 H 0.75317 0.84333 0.67243 0.0
H412 H 0.7587 0.8948 0.63884 0.0
H413 H 0.7855 0.89846 0.67028 0.0
H414 H 0.76289 0.92487 0.67785 0.0
H415 H 0.73757 0.92208 0.85296 0.0
H416 H 0.7767 0.91758 0.88608 0.0
H417 H 0.80118 0.8815 0.75566 0.0
C418 C 0.71287 0.88207 0.68805 0.0
C419 C 0.68972 0.88702 0.70176 0.0
C420 C 0.68526 0.89946 0.74586 0.0
C421 C 0.70352 0.90681 0.77581 0.0
C422 C 0.72613 0.90154 0.7612 0.0
C423 C 0.73083 0.88927 0.71845 0.0
C424 C 0.75644 0.8835 0.71254 0.0
C425 C 0.76111 0.85103 0.70536 0.0
C426 C 0.76647 0.90149 0.6725 0.0
C427 C 0.76541 0.8939 0.75907 0.0
C428 C 0.74772 0.90464 0.78636 0.0
C429 C 0.75159 0.91398 0.83173 0.0
C430 C 0.77394 0.91138 0.8502 0.0
C431 C 0.79216 0.89928 0.82351 0.0
C432 C 0.78783 0.89127 0.77687 0.0
H433 H 0.68897 0.13509 0.24495 0.0
H434 H 0.71388 0.09779 0.37378 0.0
H435 H 0.74982 0.08287 0.33474 0.0
H436 H 0.71766 0.08091 0.16489 0.0
H437 H 0.72431 0.10837 0.12266 0.0
H438 H 0.69869 0.11152 0.15799 0.0
H439 H 0.71199 0.16215 0.18747 0.0
H440 H 0.73661 0.15885 0.15011 0.0
H441 H 0.74071 0.16598 0.21119 0.0
H442 H 0.78491 0.07813 0.28613 0.0
H443 H 0.81734 0.08557 0.23198 0.0
H444 H 0.77056 0.12616 0.13383 0.0
C445 C 0.7017 0.12301 0.26449 0.0
C446 C 0.69854 0.11751 0.31238 0.0
C447 C 0.71588 0.10228 0.33708 0.0
C448 C 0.73632 0.09351 0.31512 0.0
C449 C 0.73923 0.09998 0.26827 0.0
C450 C 0.72239 0.11426 0.24309 0.0
C451 C 0.73095 0.1213 0.19459 0.0
C452 C 0.71707 0.10452 0.15786 0.0
C453 C 0.73004 0.15402 0.18541 0.0
C454 C 0.75566 0.11028 0.19746 0.0
C455 C 0.75983 0.09738 0.2399 0.0
C456 C 0.78177 0.08767 0.25242 0.0
C457 C 0.80012 0.09203 0.22142 0.0
C458 C 0.79651 0.10613 0.1784 0.0
C459 C 0.7738 0.11459 0.16584 0.0
H460 H 0.76991 0.62492 0.34297 0.0
H461 H 0.82048 0.60584 0.23607 0.0
H462 H 0.7892 0.60235 0.17789 0.0
H463 H 0.72148 0.57992 0.29491 0.0
H464 H 0.70022 0.60665 0.31079 0.0
H465 H 0.726 0.6024 0.34531 0.0
H466 H 0.73514 0.65674 0.33467 0.0
H467 H 0.70964 0.66114 0.29964 0.0
H468 H 0.73748 0.67134 0.27684 0.0
H469 H 0.75329 0.60702 0.12981 0.0
H470 H 0.71538 0.6189 0.09548 0.0
H471 H 0.68822 0.63633 0.23339 0.0
C472 C 0.77427 0.61884 0.3077 0.0
C473 C 0.79757 0.61512 0.29414 0.0
C474 C 0.80271 0.60842 0.24724 0.0
C475 C 0.78506 0.60639 0.21397 0.0
C476 C 0.76234 0.61123 0.22809 0.0
C477 C 0.75687 0.61714 0.27391 0.0
C478 C 0.73146 0.62454 0.27908 0.0
C479 C 0.71906 0.60203 0.30931 0.0
C480 C 0.72826 0.65526 0.2987 0.0
C481 C 0.72367 0.62264 0.22889 0.0
C482 C 0.74166 0.61457 0.20012 0.0
C483 C 0.73898 0.61294 0.15207 0.0
C484 C 0.71736 0.61984 0.13286 0.0
C485 C 0.69869 0.62848 0.16161 0.0
C486 C 0.70199 0.62955 0.21034 0.0
H487 H 0.69223 0.38547 0.76185 0.0
H488 H 0.72074 0.40766 0.89683 0.0
H489 H 0.75802 0.41956 0.85959 0.0
H490 H 0.74056 0.34958 0.72047 0.0
H491 H 0.73739 0.36168 0.66131 0.0
H492 H 0.71242 0.35898 0.69811 0.0
H493 H 0.70303 0.41281 0.68121 0.0
H494 H 0.72836 0.41551 0.64502 0.0
H495 H 0.72449 0.44009 0.69303 0.0
H496 H 0.79324 0.42362 0.80914 0.0
H497 H 0.824 0.41694 0.75081 0.0
H498 H 0.77258 0.39194 0.6486 0.0
C499 C 0.7061 0.39349 0.7836 0.0
C500 C 0.70342 0.39583 0.83237 0.0
C501 C 0.72226 0.40581 0.85946 0.0
C502 C 0.74349 0.41276 0.83854 0.0
C503 C 0.7456 0.40975 0.79048 0.0
C504 C 0.72739 0.40035 0.76336 0.0
C505 C 0.7347 0.39623 0.71321 0.0
C506 C 0.73106 0.36475 0.6974 0.0
C507 C 0.72188 0.41743 0.68124 0.0
C508 C 0.76014 0.40372 0.7166 0.0
C509 C 0.76598 0.41199 0.76131 0.0
C510 C 0.7888 0.41766 0.77389 0.0
C511 C 0.80616 0.41382 0.74045 0.0
C512 C 0.8007 0.40425 0.69493 0.0
C513 C 0.77727 0.40006 0.68263 0.0
H514 H 0.29723 0.3861 0.78122 0.0
H515 H 0.26716 0.39277 0.91905 0.0
H516 H 0.22831 0.39667 0.88385 0.0
H517 H 0.25607 0.43475 0.72101 0.0
H518 H 0.25593 0.41248 0.66957 0.0
H519 H 0.28146 0.41433 0.70537 0.0
H520 H 0.28115 0.35858 0.71348 0.0
H521 H 0.2556 0.35655 0.67802 0.0
H522 H 0.25561 0.34089 0.7353 0.0
H523 H 0.1925 0.39421 0.83392 0.0
H524 H 0.16281 0.38594 0.77385 0.0
H525 H 0.2165 0.38062 0.66879 0.0
C526 C 0.28259 0.38913 0.80417 0.0
C527 C 0.28537 0.38933 0.85305 0.0
C528 C 0.26559 0.39279 0.88156 0.0
C529 C 0.24342 0.39503 0.86185 0.0
C530 C 0.24132 0.39394 0.81359 0.0
C531 C 0.26042 0.39127 0.78513 0.0
C532 C 0.25346 0.38825 0.7346 0.0
C533 C 0.26225 0.41399 0.70596 0.0
C534 C 0.26195 0.35935 0.71419 0.0
C535 C 0.22739 0.38883 0.73909 0.0
C536 C 0.22072 0.39243 0.78486 0.0
C537 C 0.19754 0.39181 0.79792 0.0
C538 C 0.18078 0.38702 0.76347 0.0
C539 C 0.18724 0.38278 0.7164 0.0
C540 C 0.2109 0.38422 0.70422 0.0
H541 H 0.29462 0.63493 0.25548 0.0
H542 H 0.26762 0.60761 0.12164 0.0
H543 H 0.23064 0.59455 0.15894 0.0
H544 H 0.26414 0.5804 0.32747 0.0
H545 H 0.25907 0.60602 0.37358 0.0
H546 H 0.28447 0.60925 0.33767 0.0
H547 H 0.27307 0.66189 0.31717 0.0
H548 H 0.24779 0.65885 0.35309 0.0
H549 H 0.24489 0.66898 0.29294 0.0
H550 H 0.19542 0.58969 0.20886 0.0
H551 H 0.16421 0.59571 0.26638 0.0
H552 H 0.21427 0.62621 0.36761 0.0
C553 C 0.28116 0.62557 0.23407 0.0
C554 C 0.28412 0.62213 0.18561 0.0
C555 C 0.26582 0.61038 0.15883 0.0
C556 C 0.24479 0.60273 0.17976 0.0
C557 C 0.24236 0.60683 0.2275 0.0
C558 C 0.26007 0.61797 0.25432 0.0
C559 C 0.25236 0.62298 0.30396 0.0
C560 C 0.26581 0.60349 0.33765 0.0
C561 C 0.25465 0.65507 0.31755 0.0
C562 C 0.22729 0.61385 0.30052 0.0
C563 C 0.22196 0.60415 0.25635 0.0
C564 C 0.19946 0.5968 0.24376 0.0
C565 C 0.18183 0.60031 0.27671 0.0
C566 C 0.18678 0.61125 0.32167 0.0
C567 C 0.20995 0.61721 0.33396 0.0
H568 H 0.11279 0.23519 0.95884 0.0
H569 H 0.14018 0.15225 0.91435 0.0
H570 H 0.14127 0.16981 0.8334 0.0
H571 H 0.07753 0.24994 0.85503 0.0
H572 H 0.08425 0.28796 0.85613 0.0
H573 H 0.08334 0.26776 0.90955 0.0
H574 H 0.12505 0.28448 0.92846 0.0
H575 H 0.12626 0.30436 0.87485 0.0
H576 H 0.14789 0.27743 0.88738 0.0
H577 H 0.14236 0.1976 0.75874 0.0
H578 H 0.14169 0.23259 0.69461 0.0
H579 H 0.11409 0.29798 0.78792 0.0
C580 C 0.11847 0.22038 0.93202 0.0
C581 C 0.12623 0.19218 0.94307 0.0
C582 C 0.13401 0.17384 0.90684 0.0
C583 C 0.13474 0.18365 0.86074 0.0
C584 C 0.12765 0.21186 0.85142 0.0
C585 C 0.11948 0.22988 0.88596 0.0
C586 C 0.11414 0.25975 0.86719 0.0
C587 C 0.08827 0.26676 0.87227 0.0
C588 C 0.12924 0.28286 0.89088 0.0
C589 C 0.1208 0.25582 0.8167 0.0
C590 C 0.12848 0.22801 0.80838 0.0
C591 C 0.13618 0.21936 0.76476 0.0
C592 C 0.13579 0.23953 0.72854 0.0
C593 C 0.12778 0.26819 0.73595 0.0
C594 C 0.12026 0.27632 0.78088 0.0
H595 H 0.36707 0.77844 0.46901 0.0
H596 H 0.31961 0.84733 0.43168 0.0
H597 H 0.31538 0.82573 0.35326 0.0
H598 H 0.39518 0.7705 0.35771 0.0
H599 H 0.39712 0.73176 0.36257 0.0
H600 H 0.39732 0.75386 0.41412 0.0
H601 H 0.3625 0.72492 0.4463 0.0
H602 H 0.36191 0.703 0.39457 0.0
H603 H 0.33635 0.72236 0.41242 0.0
H604 H 0.31659 0.79618 0.27881 0.0
H605 H 0.32284 0.76144 0.21476 0.0
H606 H 0.36743 0.71028 0.30357 0.0
C607 C 0.35607 0.78943 0.44425 0.0
C608 C 0.3439 0.81493 0.45647 0.0
C609 C 0.3293 0.82802 0.42307 0.0
C610 C 0.32673 0.81582 0.37853 0.0
C611 C 0.33866 0.79036 0.36817 0.0
C612 C 0.35302 0.77735 0.40018 0.0
C613 C 0.36327 0.74955 0.38135 0.0
C614 C 0.38979 0.75155 0.37878 0.0
C615 C 0.35553 0.72342 0.41039 0.0
C616 C 0.35256 0.74891 0.3334 0.0
C617 C 0.33853 0.77273 0.32636 0.0
C618 C 0.32744 0.77742 0.28411 0.0
C619 C 0.33108 0.75755 0.24797 0.0
C620 C 0.34545 0.73304 0.25438 0.0
C621 C 0.35604 0.72851 0.29795 0.0
H622 H 0.14958 0.74093 0.25946 0.0
H623 H 0.09141 0.68385 0.23312 0.0
H624 H 0.08402 0.70868 0.1591 0.0
H625 H 0.1254 0.8054 0.21055 0.0
H626 H 0.15185 0.81742 0.18372 0.0
H627 H 0.1529 0.79553 0.23539 0.0
H628 H 0.17871 0.75803 0.19305 0.0
H629 H 0.17803 0.78005 0.14154 0.0
H630 H 0.16907 0.74281 0.13869 0.0
H631 H 0.08162 0.74021 0.09035 0.0
H632 H 0.08762 0.77234 0.02371 0.0
H633 H 0.14857 0.80839 0.09043 0.0
C634 C 0.13538 0.7336 0.23793 0.0
C635 C 0.12102 0.71045 0.25222 0.0
C636 C 0.10273 0.70135 0.2229 0.0
C637 C 0.09826 0.71549 0.18092 0.0
C638 C 0.11241 0.73848 0.16828 0.0
C639 C 0.1309 0.74717 0.19525 0.0
C640 C 0.14397 0.77173 0.17204 0.0
C641 C 0.14349 0.79914 0.20224 0.0
C642 C 0.16892 0.7626 0.16065 0.0
C643 C 0.12973 0.77559 0.12812 0.0
C644 C 0.11149 0.75631 0.12719 0.0
C645 C 0.09592 0.75529 0.09046 0.0
C646 C 0.09948 0.77374 0.05277 0.0
C647 C 0.11862 0.7929 0.05162 0.0
C648 C 0.13365 0.79426 0.09043 0.0
H649 H 0.37246 0.31816 0.71585 0.0
H650 H 0.3287 0.26385 0.80157 0.0
H651 H 0.32323 0.23037 0.73614 0.0
H652 H 0.34004 0.30589 0.60566 0.0
H653 H 0.36596 0.30544 0.57094 0.0
H654 H 0.36486 0.32677 0.62333 0.0
H655 H 0.40142 0.30037 0.65349 0.0
H656 H 0.40233 0.27859 0.60161 0.0
H657 H 0.4013 0.26151 0.6578 0.0
H658 H 0.3244 0.20097 0.66488 0.0
H659 H 0.32945 0.17886 0.58778 0.0
H660 H 0.3727 0.25105 0.54605 0.0
C661 C 0.36129 0.2996 0.72029 0.0
C662 C 0.35099 0.2936 0.76379 0.0
C663 C 0.33682 0.2688 0.76862 0.0
C664 C 0.33361 0.24961 0.73168 0.0
C665 C 0.34465 0.25544 0.68988 0.0
C666 C 0.35796 0.27993 0.68353 0.0
C667 C 0.36836 0.28023 0.63506 0.0
C668 C 0.35926 0.30612 0.60709 0.0
C669 C 0.39493 0.28017 0.63714 0.0
C670 C 0.35914 0.25187 0.61584 0.0
C671 C 0.34545 0.23808 0.64818 0.0
C672 C 0.33497 0.21161 0.63905 0.0
C673 C 0.33804 0.19916 0.59516 0.0
C674 C 0.35154 0.21308 0.56079 0.0
C675 C 0.36251 0.23964 0.57168 0.0
H676 H 0.86946 0.76647 0.04138 0.0
H677 H 0.849 0.85138 0.09119 0.0
H678 H 0.84872 0.8329 0.17146 0.0
H679 H 0.83383 0.72676 0.11506 0.0
H680 H 0.85397 0.69771 0.12506 0.0
H681 H 0.85529 0.71802 0.07187 0.0
H682 H 0.89825 0.73046 0.08759 0.0
H683 H 0.89719 0.70982 0.14057 0.0
H684 H 0.90627 0.74706 0.14197 0.0
H685 H 0.84677 0.80453 0.24449 0.0
H686 H 0.84589 0.76902 0.30753 0.0
H687 H 0.86783 0.70184 0.21144 0.0
C688 C 0.86549 0.78144 0.0692 0.0
C689 C 0.85934 0.81051 0.0598 0.0
C690 C 0.85386 0.82912 0.09734 0.0
C691 C 0.85362 0.81879 0.1431 0.0
C692 C 0.85899 0.78984 0.15085 0.0
C693 C 0.8651 0.77147 0.1151 0.0
C694 C 0.86895 0.74093 0.13273 0.0
C695 C 0.852 0.71961 0.10981 0.0
C696 C 0.89417 0.73152 0.12528 0.0
C697 C 0.8636 0.74491 0.1839 0.0
C698 C 0.85796 0.77334 0.19342 0.0
C699 C 0.85142 0.78229 0.23759 0.0
C700 C 0.85086 0.76177 0.27317 0.0
C701 C 0.85682 0.73245 0.26469 0.0
C702 C 0.8633 0.72402 0.21925 0.0
H703 H 0.61571 0.25157 0.53453 0.0
H704 H 0.65039 0.17335 0.58004 0.0
H705 H 0.65493 0.19411 0.65824 0.0
H706 H 0.65129 0.30045 0.59736 0.0
H707 H 0.62847 0.32517 0.61292 0.0
H708 H 0.6262 0.3039 0.56063 0.0
H709 H 0.58699 0.28307 0.58821 0.0
H710 H 0.58889 0.30471 0.64016 0.0
H711 H 0.58511 0.26615 0.64445 0.0
H712 H 0.65812 0.22342 0.72898 0.0
H713 H 0.65596 0.25809 0.79331 0.0
H714 H 0.61902 0.31851 0.70489 0.0
C715 C 0.62369 0.23856 0.56135 0.0
C716 C 0.63257 0.2107 0.55125 0.0
C717 C 0.64342 0.19465 0.58697 0.0
C718 C 0.64617 0.2063 0.63146 0.0
C719 C 0.63802 0.23411 0.63984 0.0
C720 C 0.62671 0.24999 0.60621 0.0
C721 C 0.62009 0.27966 0.62479 0.0
C722 C 0.63224 0.30372 0.59728 0.0
C723 C 0.5937 0.28362 0.62439 0.0
C724 C 0.6294 0.2778 0.67409 0.0
C725 C 0.63982 0.25133 0.68154 0.0
C726 C 0.64983 0.24413 0.7238 0.0
C727 C 0.64853 0.26407 0.76014 0.0
C728 C 0.63718 0.29101 0.75436 0.0
C729 C 0.62793 0.29822 0.71031 0.0
H730 H 0.83356 0.27052 0.75743 0.0
H731 H 0.89523 0.32224 0.77978 0.0
H732 H 0.90353 0.29477 0.85123 0.0
H733 H 0.81757 0.26655 0.87943 0.0
H734 H 0.8066 0.23022 0.87475 0.0
H735 H 0.80568 0.25387 0.8252 0.0
H736 H 0.82827 0.21579 0.7771 0.0
H737 H 0.82966 0.19225 0.82681 0.0
H738 H 0.85587 0.20307 0.79779 0.0
H739 H 0.90584 0.26128 0.91853 0.0
H740 H 0.899 0.22864 0.98462 0.0
H741 H 0.83538 0.1989 0.9205 0.0
C742 C 0.84874 0.27619 0.77754 0.0
C743 C 0.8638 0.2985 0.76293 0.0
C744 C 0.88336 0.3054 0.7904 0.0
C745 C 0.88835 0.28972 0.83079 0.0
C746 C 0.87349 0.26741 0.84352 0.0
C747 C 0.85382 0.261 0.81834 0.0
C748 C 0.84017 0.23683 0.84102 0.0
C749 C 0.81609 0.24751 0.85599 0.0
C750 C 0.8384 0.21042 0.80874 0.0
C751 C 0.85537 0.2305 0.88271 0.0
C752 C 0.87461 0.24825 0.88308 0.0
C753 C 0.89087 0.24726 0.91864 0.0
C754 C 0.88689 0.22853 0.95589 0.0
C755 C 0.86678 0.21107 0.95745 0.0
C756 C 0.85116 0.21148 0.91968 0.0
H757 H 0.61651 0.71005 0.28278 0.0
H758 H 0.65105 0.77028 0.19063 0.0
H759 H 0.65408 0.80561 0.2547 0.0
H760 H 0.58259 0.76244 0.3419 0.0
H761 H 0.58474 0.74518 0.39781 0.0
H762 H 0.5865 0.72386 0.34554 0.0
H763 H 0.62616 0.70331 0.37165 0.0
H764 H 0.62429 0.72417 0.42436 0.0
H765 H 0.64911 0.72788 0.38703 0.0
H766 H 0.65319 0.83467 0.32971 0.0
H767 H 0.64921 0.85398 0.40969 0.0
H768 H 0.61326 0.77553 0.4499 0.0
C769 C 0.62505 0.73047 0.27628 0.0
C770 C 0.63365 0.73732 0.23178 0.0
C771 C 0.64433 0.76454 0.22449 0.0
C772 C 0.64611 0.78479 0.26063 0.0
C773 C 0.63695 0.77764 0.30381 0.0
C774 C 0.62669 0.7511 0.31177 0.0
C775 C 0.61771 0.74899 0.36094 0.0
C776 C 0.59132 0.74488 0.36155 0.0
C777 C 0.63006 0.72465 0.38756 0.0
C778 C 0.62448 0.77845 0.37933 0.0
C779 C 0.63567 0.79469 0.34609 0.0
C780 C 0.6443 0.82221 0.35597 0.0
C781 C 0.64186 0.83308 0.4014 0.0
C782 C 0.63069 0.81654 0.43612 0.0
C783 C 0.62155 0.78911 0.42425 0.0
H784 H 0.60303 0.74659 0.96098 0.0
H785 H 0.6107 0.65968 0.90683 0.0
H786 H 0.60902 0.67883 0.82665 0.0
H787 H 0.5658 0.77677 0.86724 0.0
H788 H 0.5808 0.81091 0.86789 0.0
H789 H 0.57849 0.78997 0.92042 0.0
H790 H 0.62305 0.79107 0.92906 0.0
H791 H 0.6256 0.81153 0.8762 0.0
H792 H 0.64087 0.77779 0.88233 0.0
H793 H 0.61031 0.70722 0.75415 0.0
H794 H 0.61437 0.74264 0.69187 0.0
H795 H 0.60815 0.8126 0.79221 0.0
C796 C 0.60333 0.73153 0.93214 0.0
C797 C 0.60621 0.70155 0.93975 0.0
C798 C 0.6079 0.68258 0.90143 0.0
C799 C 0.60705 0.6933 0.85595 0.0
C800 C 0.60491 0.72307 0.8496 0.0
C801 C 0.60307 0.74197 0.88655 0.0
C802 C 0.60358 0.77317 0.87026 0.0
C803 C 0.5808 0.78862 0.88215 0.0
C804 C 0.62452 0.78933 0.89068 0.0
C805 C 0.60613 0.76887 0.81829 0.0
C806 C 0.60667 0.73975 0.80739 0.0
C807 C 0.60967 0.73006 0.76217 0.0
C808 C 0.61203 0.75055 0.72697 0.0
C809 C 0.61151 0.78067 0.73683 0.0
C810 C 0.60854 0.78986 0.78336 0.0
H811 H 0.83967 0.31693 0.41519 0.0
H812 H 0.85618 0.24935 0.51427 0.0
H813 H 0.85636 0.21342 0.45167 0.0
H814 H 0.80289 0.27108 0.3386 0.0
H815 H 0.81335 0.2876 0.28597 0.0
H816 H 0.8121 0.30828 0.33905 0.0
H817 H 0.85566 0.32032 0.33145 0.0
H818 H 0.85707 0.29976 0.27839 0.0
H819 H 0.87627 0.29129 0.32579 0.0
H820 H 0.85777 0.18504 0.37949 0.0
H821 H 0.86076 0.16575 0.3 0.0
H822 H 0.84402 0.25063 0.24499 0.0
C823 C 0.84302 0.29452 0.42354 0.0
C824 C 0.84817 0.28605 0.46958 0.0
C825 C 0.85259 0.2565 0.47917 0.0
C826 C 0.85254 0.23578 0.44391 0.0
C827 C 0.84804 0.24476 0.39884 0.0
C828 C 0.84333 0.27332 0.38828 0.0
C829 C 0.84049 0.27703 0.33615 0.0
C830 C 0.81573 0.28656 0.32424 0.0
C831 C 0.85845 0.29836 0.31682 0.0
C832 C 0.84512 0.24636 0.31943 0.0
C833 C 0.84906 0.2281 0.35639 0.0
C834 C 0.85453 0.19903 0.35012 0.0
C835 C 0.85625 0.18827 0.30474 0.0
C836 C 0.85266 0.20655 0.26599 0.0
C837 C 0.84676 0.23596 0.27372 0.0
H838 H 0.64869 0.3175 0.08641 0.0
H839 H 0.58391 0.2893 0.02458 0.0
H840 H 0.57761 0.25635 0.09014 0.0
H841 H 0.66634 0.25006 0.12842 0.0
H842 H 0.67826 0.26311 0.18238 0.0
H843 H 0.67734 0.28641 0.13238 0.0
H844 H 0.65442 0.3248 0.17907 0.0
H845 H 0.65567 0.30191 0.22958 0.0
H846 H 0.62814 0.31449 0.20833 0.0
H847 H 0.58057 0.22192 0.15641 0.0
H848 H 0.58914 0.19434 0.22789 0.0
H849 H 0.65007 0.24701 0.25118 0.0
C850 C 0.63288 0.30499 0.08721 0.0
C851 C 0.61688 0.30605 0.04998 0.0
C852 C 0.59651 0.28899 0.05242 0.0
C853 C 0.59278 0.27002 0.08949 0.0
C854 C 0.60934 0.2686 0.12446 0.0
C855 C 0.62868 0.28612 0.12441 0.0
C856 C 0.6438 0.28006 0.16641 0.0
C857 C 0.66785 0.26927 0.15149 0.0
C858 C 0.6456 0.30691 0.19771 0.0
C859 C 0.63001 0.25622 0.18963 0.0
C860 C 0.61039 0.24965 0.16433 0.0
C861 C 0.59565 0.22719 0.17702 0.0
C862 C 0.60075 0.21149 0.21735 0.0
C863 C 0.62015 0.21869 0.24494 0.0
C864 C 0.635 0.24129 0.2308 0.0
H865 H 0.87371 0.72877 0.54825 0.0
H866 H 0.82012 0.66648 0.582 0.0
H867 H 0.81394 0.69114 0.65719 0.0
H868 H 0.89701 0.73726 0.66511 0.0
H869 H 0.90209 0.77541 0.65788 0.0
H870 H 0.90318 0.75166 0.6083 0.0
H871 H 0.87254 0.78332 0.56695 0.0
H872 H 0.87098 0.80687 0.61674 0.0
H873 H 0.84513 0.78988 0.59485 0.0
H874 H 0.81245 0.72372 0.727 0.0
H875 H 0.81768 0.75942 0.78962 0.0
H876 H 0.87163 0.80164 0.70998 0.0
C877 C 0.86096 0.71984 0.5717 0.0
C878 C 0.84751 0.69539 0.55906 0.0
C879 C 0.83082 0.68489 0.59083 0.0
C880 C 0.82706 0.69892 0.63353 0.0
C881 C 0.8401 0.72347 0.64401 0.0
C882 C 0.85687 0.73367 0.61424 0.0
C883 C 0.86817 0.76085 0.63333 0.0
C884 C 0.89415 0.756 0.64166 0.0
C885 C 0.86395 0.78676 0.60103 0.0
C886 C 0.85519 0.76434 0.67875 0.0
C887 C 0.83903 0.74255 0.68402 0.0
C888 C 0.82509 0.74079 0.72325 0.0
C889 C 0.82819 0.76126 0.75862 0.0
C890 C 0.84506 0.7834 0.75476 0.0
C891 C 0.85841 0.78525 0.71373 0.0
H892 H 0.34706 0.24684 0.26531 0.0
H893 H 0.40124 0.18506 0.23381 0.0
H894 H 0.40981 0.21128 0.16089 0.0
H895 H 0.32657 0.25289 0.14685 0.0
H896 H 0.31953 0.29068 0.15236 0.0
H897 H 0.31849 0.26759 0.20257 0.0
H898 H 0.34672 0.30206 0.24538 0.0
H899 H 0.34817 0.32496 0.19491 0.0
H900 H 0.37432 0.31029 0.21951 0.0
H901 H 0.41341 0.24531 0.09343 0.0
H902 H 0.40755 0.2791 0.02872 0.0
H903 H 0.34904 0.31705 0.10127 0.0
C904 C 0.36069 0.23884 0.24292 0.0
C905 C 0.37362 0.21405 0.25513 0.0
C906 C 0.3911 0.20392 0.22485 0.0
C907 C 0.39621 0.21883 0.18368 0.0
C908 C 0.38341 0.24352 0.17304 0.0
C909 C 0.36565 0.25306 0.20122 0.0
C910 C 0.35354 0.27902 0.18026 0.0
C911 C 0.32803 0.27212 0.16989 0.0
C912 C 0.35583 0.30566 0.21191 0.0
C913 C 0.36734 0.28271 0.13593 0.0
C914 C 0.38474 0.26231 0.13294 0.0
C915 C 0.39975 0.26126 0.09524 0.0
C916 C 0.39632 0.28075 0.0587 0.0
C917 C 0.37774 0.30081 0.05956 0.0
C918 C 0.36347 0.30217 0.09944 0.0
H919 H 0.15312 0.77607 0.75038 0.0
H920 H 0.08559 0.81626 0.73768 0.0
H921 H 0.07785 0.78733 0.6674 0.0
H922 H 0.1646 0.77504 0.6252 0.0
H923 H 0.17988 0.74113 0.62714 0.0
H924 H 0.18008 0.76473 0.67695 0.0
H925 H 0.1643 0.72301 0.72778 0.0
H926 H 0.16367 0.69942 0.67793 0.0
H927 H 0.13775 0.70529 0.71142 0.0
H928 H 0.07635 0.75282 0.60169 0.0
H929 H 0.08364 0.7209 0.53496 0.0
H930 H 0.15314 0.70445 0.58567 0.0
C931 C 0.13681 0.77891 0.73247 0.0
C932 C 0.11991 0.79839 0.74951 0.0
C933 C 0.09884 0.80169 0.72505 0.0
C934 C 0.09419 0.78513 0.68537 0.0
C935 C 0.11093 0.76569 0.67008 0.0
C936 C 0.13207 0.76298 0.69201 0.0
C937 C 0.14744 0.74153 0.66652 0.0
C938 C 0.16929 0.7565 0.64784 0.0
C939 C 0.15365 0.71579 0.69779 0.0
C940 C 0.13147 0.73238 0.62726 0.0
C941 C 0.11042 0.74637 0.63058 0.0
C942 C 0.0928 0.74188 0.59849 0.0
C943 C 0.09711 0.72356 0.56078 0.0
C944 C 0.11895 0.71009 0.55501 0.0
C945 C 0.13615 0.714 0.58948 0.0
H946 H 0.37627 0.74513 0.97547 0.0
H947 H 0.36136 0.65872 0.92524 0.0
H948 H 0.36244 0.67666 0.84441 0.0
H949 H 0.33937 0.77992 0.89907 0.0
H950 H 0.3571 0.81147 0.89035 0.0
H951 H 0.35925 0.79141 0.94367 0.0
H952 H 0.40325 0.78464 0.93103 0.0
H953 H 0.40136 0.8051 0.87794 0.0
H954 H 0.41354 0.76925 0.87731 0.0
H955 H 0.36102 0.70441 0.77082 0.0
H956 H 0.35781 0.73968 0.7078 0.0
H957 H 0.37212 0.80935 0.80515 0.0
C958 C 0.37416 0.72978 0.94734 0.0
C959 C 0.36927 0.70036 0.95644 0.0
C960 C 0.36551 0.68119 0.91888 0.0
C961 C 0.36605 0.69122 0.87295 0.0
C962 C 0.37014 0.72053 0.86526 0.0
C963 C 0.37422 0.73956 0.90133 0.0
C964 C 0.37578 0.77046 0.88387 0.0
C965 C 0.35674 0.78942 0.90553 0.0
C966 C 0.39993 0.7831 0.89308 0.0
C967 C 0.37167 0.76586 0.83236 0.0
C968 C 0.36863 0.73685 0.82254 0.0
C969 C 0.36362 0.72714 0.77798 0.0
C970 C 0.36172 0.74752 0.74239 0.0
C971 C 0.36472 0.7775 0.75124 0.0
C972 C 0.36987 0.78668 0.79703 0.0
H973 H 0.1089 0.27748 0.4541 0.0
H974 H 0.15825 0.345 0.42052 0.0
H975 H 0.16382 0.3232 0.34288 0.0
H976 H 0.13993 0.22098 0.40207 0.0
H977 H 0.11488 0.20175 0.38122 0.0
H978 H 0.11274 0.22415 0.43223 0.0
H979 H 0.07937 0.25331 0.39478 0.0
H980 H 0.08104 0.23064 0.34397 0.0
H981 H 0.08348 0.2693 0.33832 0.0
H982 H 0.16559 0.29245 0.27068 0.0
H983 H 0.16211 0.25668 0.20762 0.0
H984 H 0.11267 0.208 0.28965 0.0
C985 C 0.12043 0.28827 0.43011 0.0
C986 C 0.13292 0.31331 0.44344 0.0
C987 C 0.14827 0.32609 0.4111 0.0
C988 C 0.15164 0.31374 0.36698 0.0
C989 C 0.13964 0.28853 0.35576 0.0
C990 C 0.12421 0.27606 0.38628 0.0
C991 C 0.11434 0.24819 0.36675 0.0
C992 C 0.12087 0.22224 0.3974 0.0
C993 C 0.08799 0.25051 0.36058 0.0
C994 C 0.1266 0.24689 0.32031 0.0
C995 C 0.14109 0.2704 0.3147 0.0
C996 C 0.15422 0.27405 0.27466 0.0
C997 C 0.15213 0.25352 0.23904 0.0
C998 C 0.1371 0.22944 0.24357 0.0
C999 C 0.12444 0.22597 0.28519 0.0
H1000 H 0.04417 0.14718 0.14977 0.0
H1001 H 0.05727 0.23468 0.102 0.0
H1002 H 0.01527 0.2436 0.0985 0.0
H1003 H -0.00536 0.13411 0.07784 0.0
H1004 H 0.9795 0.11347 0.1213 0.0
H1005 H 0.01064 0.11405 0.1208 0.0
H1006 H 0.01089 0.13176 0.20625 0.0
H1007 H 0.97975 0.13125 0.20702 0.0
H1008 H -0.00493 0.16393 0.22172 0.0
H1009 H 0.972 0.24308 0.10004 0.0
H1010 H 0.9303 0.23307 0.10533 0.0
H1011 H 0.94528 0.14569 0.15153 0.0
C1012 C 0.03828 0.16828 0.13871 0.0
C1013 C 0.05413 0.19025 0.12626 0.0
C1014 C 0.04556 0.21747 0.11171 0.0
C1015 C 0.02171 0.22278 0.10965 0.0
C1016 C 0.00664 0.20065 0.12213 0.0
C1017 C 0.01456 0.17393 0.13629 0.0
C1018 C -0.00532 0.15375 0.14727 0.0
C1019 C -0.00512 0.12728 0.11486 0.0
C1020 C -0.00487 0.14465 0.19862 0.0
C1021 C 0.97432 0.17332 0.13707 0.0
C1022 C 0.98163 0.20028 0.12272 0.0
C1023 C 0.96606 0.22205 0.11126 0.0
C1024 C 0.94236 0.21611 0.11445 0.0
C1025 C 0.93438 0.18856 0.12891 0.0
C1026 C 0.95071 0.16696 0.14037 0.0
H1027 H 0.44021 0.86507 0.66712 0.0
H1028 H 0.42462 0.81137 0.54728 0.0
H1029 H 0.4657 0.81194 0.52493 0.0
H1030 H 0.48709 0.90808 0.6129 0.0
H1031 H 0.50425 0.90827 0.6652 0.0
H1032 H 0.47315 0.907 0.66886 0.0
H1033 H 0.47574 0.86049 0.71863 0.0
H1034 H 0.50677 0.86168 0.71523 0.0
H1035 H 0.49148 0.82976 0.6966 0.0
H1036 H 0.50789 0.81475 0.51866 0.0
H1037 H 0.54985 0.81688 0.5313 0.0
H1038 H 0.53901 0.86784 0.65635 0.0
C1039 C 0.44544 0.8539 0.63575 0.0
C1040 C 0.42933 0.83824 0.60882 0.0
C1041 C 0.43677 0.82337 0.5685 0.0
C1042 C 0.45999 0.82379 0.55527 0.0
C1043 C 0.47551 0.83912 0.5828 0.0
C1044 C 0.46866 0.8538 0.62231 0.0
C1045 C 0.48926 0.86617 0.64807 0.0
C1046 C 0.48838 0.89936 0.64878 0.0
C1047 C 0.49091 0.85377 0.69754 0.0
C1048 C 0.50875 0.85534 0.61755 0.0
C1049 C 0.50031 0.84028 0.57966 0.0
C1050 C 0.51478 0.82671 0.54788 0.0
C1051 C 0.53858 0.82794 0.55556 0.0
C1052 C 0.54767 0.84246 0.59493 0.0
C1053 C 0.53256 0.8569 0.62569 0.0
H1054 H 0.93934 0.86159 0.86123 0.0
H1055 H 0.92596 0.77187 0.89642 0.0
H1056 H 0.96792 0.76309 0.90233 0.0
H1057 H 0.98994 0.84908 0.79176 0.0
H1058 H 0.00455 0.88108 0.8121 0.0
H1059 H 0.97344 0.88014 0.81003 0.0
H1060 H 0.97171 0.89341 0.89752 0.0
H1061 H 0.00281 0.89432 0.89989 0.0
H1062 H 0.98694 0.87134 0.93903 0.0
H1063 H 0.01126 0.76404 0.90403 0.0
H1064 H 0.05302 0.77487 0.90247 0.0
H1065 H 0.03764 0.86415 0.86755 0.0
C1066 C 0.94518 0.84003 0.86991 0.0
C1067 C 0.92935 0.81741 0.87821 0.0
C1068 C 0.93775 0.78958 0.88996 0.0
C1069 C 0.96155 0.78434 0.89335 0.0
C1070 C 0.97664 0.80718 0.88512 0.0
C1071 C 0.9688 0.83446 0.87375 0.0
C1072 C 0.9886 0.85538 0.86728 0.0
C1073 C 0.98916 0.8671 0.81732 0.0
C1074 C 0.98744 0.88006 0.90307 0.0
C1075 C 0.00882 0.83554 0.87665 0.0
C1076 C 0.00158 0.80782 0.88677 0.0
C1077 C 0.01716 0.78567 0.89621 0.0
C1078 C 0.04083 0.79205 0.89517 0.0
C1079 C 0.04862 0.82037 0.88494 0.0
C1080 C 0.0323 0.84232 0.87573 0.0
H1081 H 0.4452 0.21137 0.39709 0.0
H1082 H 0.43304 0.12017 0.42244 0.0
H1083 H 0.47497 0.11172 0.42601 0.0
H1084 H 0.4919 0.20206 0.32206 0.0
H1085 H 0.50846 0.2326 0.3422 0.0
H1086 H 0.47746 0.23277 0.34749 0.0
H1087 H 0.48093 0.24187 0.43602 0.0
H1088 H 0.512 0.24203 0.43096 0.0
H1089 H 0.49808 0.21773 0.47103 0.0
H1090 H 0.51725 0.1116 0.41828 0.0
H1091 H 0.55851 0.12023 0.40348 0.0
H1092 H 0.54458 0.21164 0.38376 0.0
C1093 C 0.45141 0.18981 0.40464 0.0
C1094 C 0.43586 0.16643 0.40958 0.0
C1095 C 0.44462 0.13838 0.41839 0.0
C1096 C 0.46842 0.13336 0.42065 0.0
C1097 C 0.48329 0.15661 0.41419 0.0
C1098 C 0.47525 0.18434 0.40678 0.0
C1099 C 0.49516 0.20498 0.39785 0.0
C1100 C 0.49311 0.21891 0.34953 0.0
C1101 C 0.49663 0.22802 0.43626 0.0
C1102 C 0.51549 0.18429 0.40018 0.0
C1103 C 0.50813 0.15656 0.40993 0.0
C1104 C 0.52331 0.13327 0.41126 0.0
C1105 C 0.54671 0.13839 0.40243 0.0
C1106 C 0.5548 0.16661 0.39247 0.0
C1107 C 0.53895 0.1899 0.39178 0.0
H1108 H 0.53917 0.7114 0.10256 0.0
H1109 H 0.5544 0.64233 0.20001 0.0
H1110 H 0.51302 0.63763 0.21753 0.0
H1111 H 0.49099 0.74334 0.16832 0.0
H1112 H 0.47435 0.7511 0.11686 0.0
H1113 H 0.50549 0.7509 0.11427 0.0
H1114 H 0.50402 0.71322 0.04764 0.0
H1115 H 0.47292 0.71327 0.05006 0.0
H1116 H 0.48858 0.67982 0.05625 0.0
H1117 H 0.47071 0.63802 0.22159 0.0
H1118 H 0.42879 0.64293 0.21124 0.0
H1119 H 0.43996 0.71156 0.11079 0.0
C1120 C 0.5338 0.69558 0.12804 0.0
C1121 C 0.55001 0.67724 0.14992 0.0
C1122 C 0.5423 0.65652 0.18261 0.0
C1123 C 0.51884 0.65377 0.19304 0.0
C1124 C 0.50331 0.67189 0.17052 0.0
C1125 C 0.51034 0.69239 0.13872 0.0
C1126 C 0.48978 0.70791 0.11768 0.0
C1127 C 0.49018 0.74023 0.13004 0.0
C1128 C 0.48877 0.70326 0.06478 0.0
C1129 C 0.47016 0.69248 0.1421 0.0
C1130 C 0.47847 0.67199 0.17269 0.0
C1131 C 0.46391 0.65412 0.19803 0.0
C1132 C 0.44011 0.65702 0.19169 0.0
C1133 C 0.43107 0.67762 0.16012 0.0
C1134 C 0.44634 0.69581 0.13544 0.0
H1135 H 0.94366 0.36431 0.63315 0.0
H1136 H 0.92738 0.27466 0.60217 0.0
H1137 H 0.96898 0.26381 0.59568 0.0
H1138 H -0.00718 0.37049 0.55591 0.0
H1139 H 0.00902 0.39294 0.59545 0.0
H1140 H 0.97788 0.39398 0.59591 0.0
H1141 H 0.9779 0.38182 0.68379 0.0
H1142 H 0.00902 0.3807 0.68359 0.0
H1143 H -0.00721 0.34995 0.70381 0.0
H1144 H 0.01202 0.26246 0.59366 0.0
H1145 H 0.05405 0.27029 0.59806 0.0
H1146 H 0.04234 0.36071 0.63177 0.0
C1147 C 0.9488 0.34243 0.62464 0.0
C1148 C 0.93225 0.32034 0.61808 0.0
C1149 C 0.93974 0.29193 0.60745 0.0
C1150 C 0.96332 0.28556 0.60355 0.0
C1151 C 0.97914 0.3078 0.6105 0.0
C1152 C 0.97224 0.33564 0.6209 0.0
C1153 C -0.0072 0.35536 0.6281 0.0
C1154 C -0.00685 0.37962 0.59166 0.0
C1155 C -0.00686 0.36767 0.67778 0.0
C1156 C 0.01234 0.33417 0.62042 0.0
C1157 C 0.00406 0.30693 0.61001 0.0
C1158 C 0.01875 0.2837 0.60171 0.0
C1159 C 0.0426 0.28842 0.60428 0.0
C1160 C 0.05153 0.31613 0.61534 0.0
C1161 C 0.0361 0.33927 0.62337 0.0
H1162 H 0.54538 0.30886 0.89156 0.0
H1163 H 0.55779 0.38953 0.81852 0.0
H1164 H 0.51595 0.39686 0.81055 0.0
H1165 H 0.49463 0.28705 0.82396 0.0
H1166 H 0.47985 0.27222 0.8736 0.0
H1167 H 0.51099 0.27218 0.87158 0.0
H1168 H 0.51232 0.29959 0.95013 0.0
H1169 H 0.48121 0.29979 0.95232 0.0
H1170 H 0.49698 0.3333 0.95609 0.0
H1171 H 0.47348 0.3972 0.81354 0.0
H1172 H 0.43189 0.39015 0.8265 0.0
H1173 H 0.44619 0.30918 0.89731 0.0
C1174 C 0.5393 0.32789 0.87344 0.0
C1175 C 0.55491 0.34861 0.85572 0.0
C1176 C 0.54623 0.37337 0.83258 0.0
C1177 C 0.52247 0.37773 0.8277 0.0
C1178 C 0.50759 0.35713 0.84601 0.0
C1179 C 0.51554 0.33266 0.86828 0.0
C1180 C 0.49565 0.31451 0.88611 0.0
C1181 C 0.49526 0.28473 0.86238 0.0
C1182 C 0.4966 0.31164 0.93932 0.0
C1183 C 0.47535 0.3329 0.87087 0.0
C1184 C 0.48272 0.3573 0.84765 0.0
C1185 C 0.46741 0.37809 0.83139 0.0
C1186 C 0.44381 0.37391 0.83912 0.0
C1187 C 0.43574 0.34909 0.86292 0.0
C1188 C 0.45179 0.32826 0.87872 0.0
H1189 H 0.03864 0.64048 0.37474 0.0
H1190 H 0.05385 0.72966 0.41112 0.0
H1191 H 0.0123 0.73964 0.4188 0.0
H1192 H 0.9895 0.65571 0.30544 0.0
H1193 H 0.97341 0.62438 0.32373 0.0
H1194 H 0.00452 0.62356 0.3238 0.0
H1195 H 0.00438 0.60949 0.41096 0.0
H1196 H 0.97323 0.61026 0.41113 0.0
H1197 H 0.98921 0.63197 0.45209 0.0
H1198 H 0.96949 0.74069 0.42009 0.0
H1199 H 0.92751 0.73284 0.41304 0.0
H1200 H 0.94005 0.64322 0.37502 0.0
C1201 C 0.03323 0.66201 0.38471 0.0
C1202 C 0.04946 0.68427 0.39222 0.0
C1203 C 0.04171 0.71227 0.40486 0.0
C1204 C 0.01815 0.71817 0.40957 0.0
C1205 C 0.0026 0.69586 0.40153 0.0
C1206 C 0.00974 0.66836 0.38933 0.0
C1207 C 0.98933 0.64865 0.3808 0.0
C1208 C 0.98919 0.63743 0.33045 0.0
C1209 C 0.98902 0.62362 0.41584 0.0
C1210 C 0.9697 0.66954 0.38949 0.0
C1211 C 0.97773 0.69656 0.40181 0.0
C1212 C 0.9629 0.71959 0.41068 0.0
C1213 C 0.9391 0.71491 0.40656 0.0
C1214 C 0.93048 0.68744 0.39338 0.0
C1215 C 0.94606 0.66449 0.3851 0.0
H1216 H 0.11069 0.07424 0.99988 0.0
H1217 H 0.0972 0.05365 0.14441 0.0
H1218 H 0.08797 1.0034 0.12171 0.0
H1219 H 0.06694 0.02354 0.94716 0.0
H1220 H 0.08618 0.01502 0.89983 0.0
H1221 H 0.08688 0.05041 0.92609 0.0
H1222 H 0.13073 0.04447 0.94184 0.0
H1223 H 0.13016 0.00914 0.91602 0.0
H1224 H 0.14075 0.01369 0.97448 0.0
H1225 H 0.08733 0.95408 0.08549 0.0
H1226 H 0.09477 0.91014 0.03923 0.0
H1227 H 0.10855 0.96285 0.91803 0.0
C1228 C 0.10512 0.05947 0.02677 0.0
C1229 C 0.10466 0.068 0.07405 0.0
C1230 C 0.09752 0.04778 0.10798 0.0
C1231 C 0.09223 0.01916 0.09535 0.0
C1232 C 0.09385 0.01123 0.04862 0.0
C1233 C 0.09986 0.03095 0.01478 0.0
C1234 C 0.10299 0.01646 0.96791 0.0
C1235 C 0.08465 0.02698 0.9332 0.0
C1236 C 0.12761 0.02122 0.94901 0.0
C1237 C 0.09899 0.98521 0.98101 0.0
C1238 C 0.09332 0.98271 0.02756 0.0
C1239 C 0.0912 0.95584 0.04884 0.0
C1240 C 0.09555 0.931 0.02228 0.0
C1241 C 0.102 0.93309 0.9749 0.0
C1242 C 0.10304 0.96056 0.95378 0.0
H1243 H 0.35387 0.93598 0.51024 0.0
H1244 H 0.36858 0.95989 0.65316 0.0
H1245 H 0.3737 0.01065 0.62886 0.0
H1246 H 0.39472 0.98759 0.45578 0.0
H1247 H 0.37543 0.99459 0.40791 0.0
H1248 H 0.3753 0.95975 0.4358 0.0
H1249 H 0.33135 0.9648 0.45113 0.0
H1250 H 0.33135 0.99964 0.42356 0.0
H1251 H 0.32074 0.99597 0.48212 0.0
H1252 H 0.37193 0.05936 0.591 0.0
H1253 H 0.36608 0.10225 0.54139 0.0
H1254 H 0.3546 0.0467 0.42218 0.0
C1255 C 0.35857 0.95177 0.5364 0.0
C1256 C 0.36079 0.94389 0.58372 0.0
C1257 C 0.36691 0.9653 0.61673 0.0
C1258 C 0.36983 0.99421 0.60324 0.0
C1259 C 0.36695 1.0013 0.55652 0.0
C1260 C 0.36179 0.98063 0.52347 0.0
C1261 C 0.35852 0.99409 0.47591 0.0
C1262 C 0.37711 0.98337 0.44184 0.0
C1263 C 0.33404 0.98828 0.45711 0.0
C1264 C 0.36191 0.02574 0.48759 0.0
C1265 C 0.36679 0.02939 0.5343 0.0
C1266 C 0.36862 0.05673 0.55424 0.0
C1267 C 0.36519 0.08094 0.52585 0.0
C1268 C 0.36023 0.0777 0.47794 0.0
C1269 C 0.35896 0.04974 0.45846 0.0
H1270 H 0.85826 0.07563 0.97925 0.0
H1271 H 0.90139 0.05996 0.10011 0.0
H1272 H 0.91186 0.01213 0.06841 0.0
H1273 H 0.83464 0.00799 0.97322 0.0
H1274 H 0.83376 0.00567 0.91073 0.0
H1275 H 0.83295 0.04039 0.9387 0.0
H1276 H 0.86871 0.05659 0.89125 0.0
H1277 H 0.86966 0.02176 0.86312 0.0
H1278 H 0.8948 0.0353 0.89313 0.0
H1279 H 0.91238 0.9633 0.03057 0.0
H1280 H 0.90277 0.91776 0.98983 0.0
H1281 H 0.86045 0.96514 0.89214 0.0
C1282 C 0.87044 0.06256 0.99856 0.0
C1283 C 0.87906 0.0718 0.04224 0.0
C1284 C 0.89461 0.0536 0.06654 0.0
C1285 C 0.90073 0.02636 0.0487 0.0
C1286 C 0.89139 0.01764 0.00621 0.0
C1287 C 0.87671 0.03533 0.98125 0.0
C1288 C 0.86716 0.01983 0.93889 0.0
C1289 C 0.84057 0.01838 0.94053 0.0
C1290 C 0.8756 0.03423 0.89393 0.0
C1291 C 0.87794 0.9902 0.94494 0.0
C1292 C 0.89214 0.98952 0.98365 0.0
C1293 C 0.90188 0.96378 0.99945 0.0
C1294 C 0.89643 0.93804 0.97603 0.0
C1295 C 0.88156 0.93819 0.937 0.0
C1296 C 0.87272 0.9647 0.92056 0.0
H1297 H 0.63705 0.04767 0.40677 0.0
H1298 H 0.61442 0.10211 0.52067 0.0
H1299 H 0.60568 0.05876 0.56746 0.0
H1300 H 0.59638 0.98656 0.42645 0.0
H1301 H 0.61806 0.95988 0.41283 0.0
H1302 H 0.61901 0.99489 0.38558 0.0
H1303 H 0.66096 1.00204 0.41516 0.0
H1304 H 0.66011 0.96716 0.44254 0.0
H1305 H 0.66695 0.99882 0.4764 0.0
H1306 H 0.60223 0.00993 0.60401 0.0
H1307 H 0.60694 0.95936 0.62967 0.0
H1308 H 0.63393 0.9368 0.49361 0.0
C1309 C 0.62964 0.05032 0.44106 0.0
C1310 C 0.62606 0.07807 0.46003 0.0
C1311 C 0.61711 0.08091 0.50557 0.0
C1312 C 0.612 0.05646 0.53227 0.0
C1313 C 0.61617 0.02932 0.51307 0.0
C1314 C 0.6249 0.02608 0.4686 0.0
C1315 C 0.63024 0.99468 0.45823 0.0
C1316 C 0.61501 0.98334 0.41841 0.0
C1317 C 0.6561 0.99044 0.44747 0.0
C1318 C 0.62366 0.98095 0.5041 0.0
C1319 C 0.61514 1.0012 0.53493 0.0
C1320 C 0.6087 0.99381 0.58005 0.0
C1321 C 0.61141 0.96502 0.59431 0.0
C1322 C 0.62085 0.9441 0.56376 0.0
C1323 C 0.62667 0.95225 0.51786 0.0
H1324 H 0.62524 0.58049 0.98709 0.0
H1325 H 0.60481 0.55879 0.12797 0.0
H1326 H 0.59849 0.50818 0.10322 0.0
H1327 H 0.58594 0.52961 0.92547 0.0
H1328 H 0.60751 0.52161 0.88214 0.0
H1329 H 0.6067 0.55679 0.90908 0.0
H1330 H 0.64953 0.55108 0.93378 0.0
H1331 H 0.65049 0.51597 0.90711 0.0
H1332 H 0.65804 0.52007 0.96753 0.0
H1333 H 0.5995 0.45932 0.06587 0.0
H1334 H 0.60848 0.41577 0.01998 0.0
H1335 H 0.62851 0.46923 0.90321 0.0
C1336 C 0.6189 0.56537 0.01275 0.0
C1337 C 0.61544 0.57377 0.05963 0.0
C1338 C 0.60746 0.55301 0.0919 0.0
C1339 C 0.60376 0.52422 0.07807 0.0
C1340 C 0.60796 0.51664 0.03183 0.0
C1341 C 0.61525 0.53668 0.99962 0.0
C1342 C 0.6208 0.52262 0.95331 0.0
C1343 C 0.60424 0.53329 0.91525 0.0
C1344 C 0.64622 0.52774 0.93967 0.0
C1345 C 0.61636 0.49123 0.96488 0.0
C1346 C 0.60859 0.48835 0.01016 0.0
C1347 C 0.60517 0.46137 0.03021 0.0
C1348 C 0.61039 0.43677 0.00387 0.0
C1349 C 0.61903 0.43918 0.95793 0.0
C1350 C 0.62142 0.46678 0.93778 0.0
H1351 H 0.86487 0.57353 0.50634 0.0
H1352 H 0.87946 0.55201 0.3625 0.0
H1353 H 0.88608 0.50119 0.38503 0.0
H1354 H 0.90707 0.52155 0.55898 0.0
H1355 H 0.88782 0.51371 0.60653 0.0
H1356 H 0.88756 0.54898 0.58006 0.0
H1357 H 0.84361 0.54396 0.56462 0.0
H1358 H 0.84374 0.50871 0.59069 0.0
H1359 H 0.83309 0.51325 0.53231 0.0
H1360 H 0.88438 0.45171 0.42095 0.0
H1361 H 0.87739 0.4081 0.46844 0.0
H1362 H 0.86612 0.46195 0.58963 0.0
C1363 C 0.87003 0.55831 0.47967 0.0
C1364 C 0.87164 0.56683 0.43257 0.0
C1365 C 0.87829 0.54613 0.39881 0.0
C1366 C 0.88205 0.51717 0.4113 0.0
C1367 C 0.87954 0.50934 0.45781 0.0
C1368 C 0.87409 0.52944 0.49161 0.0
C1369 C 0.87088 0.51521 0.53857 0.0
C1370 C 0.88944 0.52547 0.57307 0.0
C1371 C 0.84638 0.5206 0.55763 0.0
C1372 C 0.87439 0.48378 0.5256 0.0
C1373 C 0.87949 0.48085 0.47887 0.0
C1374 C 0.88102 0.45378 0.45779 0.0
C1375 C 0.87696 0.42914 0.48496 0.0
C1376 C 0.87168 0.43169 0.53281 0.0
C1377 C 0.87086 0.45936 0.55347 0.0
H1378 H 0.35809 0.46743 0.92004 0.0
H1379 H 0.38374 0.41571 0.03438 0.0
H1380 H 0.39073 0.4599 0.08023 0.0
H1381 H 0.39676 0.532 0.93977 0.0
H1382 H 0.37386 0.55681 0.92521 0.0
H1383 H 0.37496 0.52168 0.89814 0.0
H1384 H 0.33319 0.51142 0.92617 0.0
H1385 H 0.33203 0.54631 0.95356 0.0
H1386 H 0.32654 0.51424 0.9872 0.0
H1387 H 0.38971 0.50878 0.11792 0.0
H1388 H 0.38103 0.55865 0.14362 0.0
H1389 H 0.35581 0.57853 0.00514 0.0
C1390 C 0.36601 0.46558 0.954 0.0
C1391 C 0.37062 0.43822 0.97348 0.0
C1392 C 0.3802 0.43652 0.01873 0.0
C1393 C 0.3843 0.4615 0.04503 0.0
C1394 C 0.37875 0.48814 0.02565 0.0
C1395 C 0.36998 0.49039 0.98101 0.0
C1396 C 0.36312 0.52127 0.97036 0.0
C1397 C 0.37807 0.53367 0.93104 0.0
C1398 C 0.33719 0.52341 0.95866 0.0
C1399 C 0.36861 0.53568 0.01641 0.0
C1400 C 0.37792 0.51635 0.04767 0.0
C1401 C 0.3828 0.52428 0.09347 0.0
C1402 C 0.37777 0.55265 0.10783 0.0
C1403 C 0.36778 0.57268 0.07656 0.0
C1404 C 0.36362 0.56398 0.03004 0.0
H1405 H 0.15009 0.56617 0.50336 0.0
H1406 H 0.08046 0.56927 0.44791 0.0
H1407 H 0.07203 0.52183 0.48431 0.0
H1408 H 0.15872 0.49237 0.4791 0.0
H1409 H 0.1762 0.48575 0.52983 0.0
H1410 H 0.17553 0.5212 0.50437 0.0
H1411 H 0.16304 0.54299 0.5835 0.0
H1412 H 0.1636 0.50753 0.60921 0.0
H1413 H 0.1377 0.5291 0.61228 0.0
H1414 H 0.07185 0.47297 0.52658 0.0
H1415 H 0.08139 0.42537 0.56172 0.0
H1416 H 0.15205 0.45347 0.58227 0.0
C1417 C 0.1329 0.55715 0.49968 0.0
C1418 C 0.11576 0.57158 0.47362 0.0
C1419 C 0.09375 0.55862 0.46815 0.0
C1420 C 0.08881 0.53178 0.48885 0.0
C1421 C 0.10621 0.51801 0.51419 0.0
C1422 C 0.12792 0.53017 0.51902 0.0
C1423 C 0.14437 0.50997 0.54381 0.0
C1424 C 0.16491 0.50185 0.51239 0.0
C1425 C 0.15266 0.52319 0.58994 0.0
C1426 C 0.12864 0.4844 0.55202 0.0
C1427 C 0.10653 0.48956 0.53567 0.0
C1428 C 0.0891 0.46878 0.53948 0.0
C1429 C 0.09458 0.44192 0.55962 0.0
C1430 C 0.11737 0.43604 0.57466 0.0
C1431 C 0.13446 0.45762 0.57115 0.0
H1432 H 0.19344 0.24706 0.02878 0.0
H1433 H 0.22463 0.17047 0.08914 0.0
H1434 H 0.26273 0.1854 0.05933 0.0
H1435 H 0.22575 0.24664 0.92529 0.0
H1436 H 0.22887 0.28532 0.92171 0.0
H1437 H 0.20414 0.26995 0.95048 0.0
H1438 H 0.21372 0.29851 0.02568 0.0
H1439 H 0.23809 0.31459 0.99666 0.0
H1440 H 0.24222 0.29565 0.0507 0.0
H1441 H 0.29691 0.20709 0.01937 0.0
H1442 H 0.326 0.23791 0.98075 0.0
H1443 H 0.27208 0.29942 0.94538 0.0
C1444 C 0.20839 0.23385 0.03674 0.0
C1445 C 0.20616 0.20768 0.06119 0.0
C1446 C 0.22603 0.19063 0.07027 0.0
C1447 C 0.2477 0.19881 0.05334 0.0
C1448 C 0.24914 0.22406 0.02748 0.0
C1449 C 0.23013 0.24159 0.01985 0.0
C1450 C 0.23635 0.26744 0.99048 0.0
C1451 C 0.22298 0.26731 0.94426 0.0
C1452 C 0.23237 0.29571 0.01751 0.0
C1453 C 0.26178 0.26166 0.98292 0.0
C1454 C 0.26882 0.23645 0.0042 0.0
C1455 C 0.29167 0.22694 1.00257 0.0
C1456 C 0.308 0.2444 0.98017 0.0
C1457 C 0.30127 0.27101 0.96017 0.0
C1458 C 0.27774 0.27917 0.9604 0.0
H1459 H 0.29716 0.75318 0.54533 0.0
H1460 H 0.25927 0.81172 0.6354 0.0
H1461 H 0.22256 0.79417 0.60251 0.0
H1462 H 0.26589 0.76391 0.44895 0.0
H1463 H 0.26535 0.72734 0.42734 0.0
H1464 H 0.28873 0.73911 0.46399 0.0
H1465 H 0.28052 0.69801 0.52261 0.0
H1466 H 0.25773 0.68521 0.48513 0.0
H1467 H 0.25169 0.69335 0.54517 0.0
H1468 H 0.19171 0.77919 0.54926 0.0
H1469 H 0.16585 0.7575 0.4913 0.0
H1470 H 0.22297 0.70673 0.43679 0.0
C1471 C 0.28109 0.76117 0.55978 0.0
C1472 C 0.28092 0.78379 0.59272 0.0
C1473 C 0.25965 0.79438 0.61005 0.0
C1474 C 0.23875 0.78467 0.59146 0.0
C1475 C 0.23957 0.76413 0.5562 0.0
C1476 C 0.26004 0.75167 0.54158 0.0
C1477 C 0.25607 0.73147 0.50086 0.0
C1478 C 0.26983 0.74105 0.45777 0.0
C1479 C 0.26184 0.70015 0.51426 0.0
C1480 C 0.23037 0.73557 0.49378 0.0
C1481 C 0.22131 0.75467 0.52593 0.0
C1482 C 0.1984 0.76364 0.52458 0.0
C1483 C 0.18397 0.7516 0.49088 0.0
C1484 C 0.19249 0.73053 0.45943 0.0
C1485 C 0.21608 0.72282 0.4604 0.0
H1486 H 0.18823 0.75447 0.96158 0.0
H1487 H 0.2193 0.83265 0.90713 0.0
H1488 H 0.25713 0.81774 0.93749 0.0
H1489 H 0.21633 0.75674 0.06585 0.0
H1490 H 0.22073 0.71842 0.07247 0.0
H1491 H 0.19681 0.73153 0.03855 0.0
H1492 H 0.21062 0.70226 0.96685 0.0
H1493 H 0.23412 0.68812 1.00107 0.0
H1494 H 0.24 0.70614 0.94689 0.0
H1495 H 0.28981 0.7986 0.98328 0.0
H1496 H 0.31754 0.77179 0.03189 0.0
H1497 H 0.26492 0.70705 0.05974 0.0
C1498 C 0.20324 0.76765 0.95412 0.0
C1499 C 0.20105 0.79431 0.93109 0.0
C1500 C 0.22081 0.81176 0.92365 0.0
C1501 C 0.24232 0.80365 0.94122 0.0
C1502 C 0.24366 0.77814 0.96639 0.0
C1503 C 0.22482 0.76007 0.97217 0.0
C1504 C 0.23054 0.73519 0.00412 0.0
C1505 C 0.21519 0.73551 0.04781 0.0
C1506 C 0.22872 0.70621 0.97817 0.0
C1507 C 0.25534 0.74247 0.01585 0.0
C1508 C 0.26254 0.76735 0.99383 0.0
C1509 C 0.28455 0.77884 1.00032 0.0
C1510 C 0.30005 0.76368 0.02849 0.0
C1511 C 0.29338 0.73733 0.04949 0.0
C1512 C 0.27054 0.7271 0.044 0.0
H1513 H 0.30595 0.2669 0.46786 0.0
H1514 H 0.27274 0.21902 0.35707 0.0
H1515 H 0.23481 0.2376 0.38193 0.0
H1516 H 0.26978 0.24926 0.54928 0.0
H1517 H 0.26812 0.28275 0.58117 0.0
H1518 H 0.29337 0.2747 0.54725 0.0
H1519 H 0.28875 0.32185 0.50011 0.0
H1520 H 0.26406 0.33102 0.53543 0.0
H1521 H 0.2614 0.33003 0.47306 0.0
H1522 H 0.20126 0.24912 0.43004 0.0
H1523 H 0.17288 0.26232 0.48975 0.0
H1524 H 0.22711 0.30323 0.5711 0.0
C1525 C 0.29083 0.26216 0.44695 0.0
C1526 C 0.29208 0.24213 0.4101 0.0
C1527 C 0.27197 0.2349 0.38474 0.0
C1528 C 0.25038 0.24516 0.39889 0.0
C1529 C 0.2494 0.26272 0.43816 0.0
C1530 C 0.26909 0.27202 0.46108 0.0
C1531 C 0.26303 0.28739 0.50604 0.0
C1532 C 0.27424 0.27262 0.54838 0.0
C1533 C 0.2697 0.31949 0.50349 0.0
C1534 C 0.23705 0.28356 0.50615 0.0
C1535 C 0.22961 0.26946 0.46652 0.0
C1536 C 0.20675 0.26092 0.46061 0.0
C1537 C 0.19084 0.26803 0.49526 0.0
C1538 C 0.19785 0.28369 0.53525 0.0
C1539 C 0.22131 0.29132 0.54085 0.0
H1540 H 0.76692 0.82694 0.9894 0.0
H1541 H 0.78293 0.76918 0.87506 0.0
H1542 H 0.74414 0.74737 0.88164 0.0
H1543 H 0.74295 0.7768 0.05743 0.0
H1544 H 0.72061 0.79901 0.08266 0.0
H1545 H 0.74659 0.81543 0.06127 0.0
H1546 H 0.72237 0.84863 0.00753 0.0
H1547 H 0.69617 0.83224 0.02893 0.0
H1548 H 0.702 0.83284 0.96744 0.0
H1549 H 0.70805 0.72663 0.90813 0.0
H1550 H 0.67818 0.70463 0.95748 0.0
H1551 H 0.68533 0.77423 0.05727 0.0
C1552 C 0.76189 0.81032 0.96486 0.0
C1553 C 0.77761 0.79972 0.93157 0.0
C1554 C 0.77097 0.77742 0.90083 0.0
C1555 C 0.74892 0.76527 0.90389 0.0
C1556 C 0.73392 0.77571 0.93789 0.0
C1557 C 0.74011 0.79765 0.96805 0.0
C1558 C 0.72257 0.80135 0.0066 0.0
C1559 C 0.73386 0.79791 0.0548 0.0
C1560 C 0.71003 0.8305 1.00235 0.0
C1561 C 0.70649 0.77656 0.99548 0.0
C1562 C 0.7129 0.76288 0.95457 0.0
C1563 C 0.70252 0.73746 0.93956 0.0
C1564 C 0.68578 0.72504 0.96792 0.0
C1565 C 0.67982 0.73795 0.01079 0.0
C1566 C 0.68953 0.76449 0.0241 0.0
H1567 H 0.79645 0.25705 0.54152 0.0
H1568 H 0.75848 0.32224 0.6187 0.0
H1569 H 0.72344 0.31122 0.57321 0.0
H1570 H 0.77265 0.27137 0.43355 0.0
H1571 H 0.77071 0.2344 0.41416 0.0
H1572 H 0.79246 0.2447 0.45579 0.0
H1573 H 0.77769 0.20632 0.51418 0.0
H1574 H 0.75659 0.19499 0.47191 0.0
H1575 H 0.74745 0.20552 0.52936 0.0
H1576 H 0.69457 0.29813 0.51335 0.0
H1577 H 0.66926 0.27386 0.45712 0.0
H1578 H 0.72542 0.21585 0.41971 0.0
C1579 C 0.7805 0.26808 0.55026 0.0
C1580 C 0.78006 0.29046 0.58363 0.0
C1581 C 0.75904 0.30495 0.59332 0.0
C1582 C 0.73918 0.29912 0.56729 0.0
C1583 C 0.74068 0.27855 0.53214 0.0
C1584 C 0.76048 0.2625 0.5246 0.0
C1585 C 0.75737 0.24169 0.48444 0.0
C1586 C 0.7743 0.24846 0.44466 0.0
C1587 C 0.75991 0.21027 0.50097 0.0
C1588 C 0.73269 0.24859 0.47076 0.0
C1589 C 0.72365 0.2704 0.49808 0.0
C1590 C 0.70129 0.28076 0.49205 0.0
C1591 C 0.68714 0.26703 0.45946 0.0
C1592 C 0.69528 0.24273 0.43421 0.0
C1593 C 0.7187 0.23436 0.43842 0.0
H1594 H 0.72077 0.30243 0.93796 0.0
H1595 H 0.6653 0.24613 0.98417 0.0
H1596 H 0.69289 0.21998 0.03428 0.0
H1597 H 0.76613 0.24795 0.93674 0.0
H1598 H 0.78772 0.27315 0.95667 0.0
H1599 H 0.76361 0.28577 0.9228 0.0
H1600 H 0.75387 0.32243 0.98825 0.0
H1601 H 0.77747 0.30915 0.02305 0.0
H1602 H 0.74854 0.30948 0.04629 0.0
H1603 H 0.7262 0.20088 0.08038 0.0
H1604 H 0.76433 0.18578 0.11093 0.0
H1605 H 0.79721 0.25625 0.03793 0.0
C1606 C 0.71447 0.28424 0.95791 0.0
C1607 C 0.6909 0.27626 0.95712 0.0
C1608 C 0.68334 0.25238 0.98379 0.0
C1609 C 0.6988 0.23766 0.01282 0.0
C1610 C 0.72167 0.2471 0.01449 0.0
C1611 C 0.72958 0.26945 0.98707 0.0
C1612 C 0.755 0.27529 0.99502 0.0
C1613 C 0.76893 0.27022 0.95016 0.0
C1614 C 0.75893 0.30591 0.0143 0.0
C1615 C 0.76022 0.25264 0.03122 0.0
C1616 C 0.74071 0.23673 0.0422 0.0
C1617 C 0.74151 0.21337 0.0725 0.0
C1618 C 0.76307 0.20514 0.09009 0.0
C1619 C 0.78329 0.22041 0.07767 0.0
C1620 C 0.78178 0.24503 0.04926 0.0
H1621 H 0.79324 0.75077 0.47397 0.0
H1622 H 0.75756 0.67762 0.41166 0.0
H1623 H 0.72234 0.69026 0.45468 0.0
H1624 H 0.76778 0.74662 0.58546 0.0
H1625 H 0.76466 0.78507 0.59331 0.0
H1626 H 0.78753 0.77105 0.55724 0.0
H1627 H 0.77326 0.80163 0.48739 0.0
H1628 H 0.751 0.81659 0.52387 0.0
H1629 H 0.7434 0.79933 0.46979 0.0
H1630 H 0.69248 0.70752 0.50862 0.0
H1631 H 0.66501 0.73732 0.55252 0.0
H1632 H 0.71885 0.80111 0.57686 0.0
C1633 C 0.77786 0.73785 0.46845 0.0
C1634 C 0.77825 0.71295 0.4401 0.0
C1635 C 0.75775 0.6966 0.43373 0.0
C1636 C 0.73772 0.70337 0.45837 0.0
C1637 C 0.73842 0.72678 0.48855 0.0
C1638 C 0.75757 0.74446 0.49242 0.0
C1639 C 0.75311 0.76931 0.5254 0.0
C1640 C 0.76923 0.76791 0.56786 0.0
C1641 C 0.75531 0.79844 0.50009 0.0
C1642 C 0.72834 0.76291 0.53883 0.0
C1643 C 0.72055 0.73775 0.51827 0.0
C1644 C 0.69823 0.72741 0.52472 0.0
C1645 C 0.68283 0.74438 0.55018 0.0
C1646 C 0.68978 0.77167 0.56764 0.0
C1647 C 0.71311 0.78033 0.56386 0.0
loop_
_geom_bond_atom_site_label_1
_geom_bond_atom_site_label_2
_geom_bond_distance
_geom_bond_site_symmetry_2
_ccdc_geom_bond_type
Sc0 O3 2.025 . S
Sc0 O10 2.105 . S
Sc0 O13 2.105 . S
Sc0 O16 2.105 . S
Sc0 O19 2.105 1_554 S
Sc1 O3 2.025 . S
Sc1 O11 2.105 1_554 S
Sc1 O15 2.105 . S
Sc1 O17 2.105 . S
Sc1 O21 2.105 . S
Sc2 O3 2.025 . S
Sc2 O12 2.105 . S
Sc2 O14 2.105 . S
Sc2 O18 2.105 . S
Sc2 O20 2.105 . S
O3 Sc0 2.025 . S
O3 Sc1 2.025 . S
O3 Sc2 2.025 . S
C4 O10 1.268 . S
C4 O20 1.268 . S
C5 O11 1.268 . S
C5 O19 1.268 . S
C6 O12 1.268 . S
C6 O21 1.268 . S
C7 O13 1.268 . S
C7 O17 1.268 . S
C8 O14 1.268 . S
C8 O16 1.268 . S
C9 O15 1.268 . S
C9 O18 1.268 . S
O10 Sc0 2.105 . S
O10 C4 1.268 . S
O11 Sc1 2.105 1_556 S
O11 C5 1.268 . S
O12 Sc2 2.105 . S
O12 C6 1.268 . S
O13 Sc0 2.105 . S
O13 C7 1.268 . S
O14 Sc2 2.105 . S
O14 C8 1.268 . S
O15 Sc1 2.105 . S
O15 C9 1.268 . S
O16 Sc0 2.105 . S
O16 C8 1.268 . S
O17 Sc1 2.105 . S
O17 C7 1.268 . S
O18 Sc2 2.105 . S
O18 C9 1.268 . S
O19 Sc0 2.105 1_556 S
O19 C5 1.268 . S
O20 Sc2 2.105 . S
O20 C4 1.268 . S
O21 Sc1 2.105 . S
O21 C6 1.268 . S
Sc22 O25 2.025 . S
Sc22 O32 2.105 . S
Sc22 O35 2.105 . S
Sc22 O38 2.105 . S
Sc22 O41 2.105 . S
Sc23 O25 2.025 . S
Sc23 O33 2.105 . S
Sc23 O37 2.105 . S
Sc23 O39 2.105 . S
Sc23 O43 2.105 . S
Sc24 O25 2.025 . S
Sc24 O34 2.105 . S
Sc24 O36 2.105 . S
Sc24 O40 2.105 . S
Sc24 O42 2.105 . S
O25 Sc22 2.025 . S
O25 Sc23 2.025 . S
O25 Sc24 2.025 . S
C26 O32 1.268 . S
C26 O42 1.268 . S
C27 O33 1.268 . S
C27 O41 1.268 . S
C28 O34 1.268 . S
C28 O43 1.268 . S
C29 O35 1.268 . S
C29 O39 1.268 . S
C30 O36 1.268 . S
C30 O38 1.268 . S
C31 O37 1.268 . S
C31 O40 1.268 . S
O32 Sc22 2.105 . S
O32 C26 1.268 . S
O33 Sc23 2.105 . S
O33 C27 1.268 . S
O34 Sc24 2.105 . S
O34 C28 1.268 . S
O35 Sc22 2.105 . S
O35 C29 1.268 . S
O36 Sc24 2.105 . S
O36 C30 1.268 . S
O37 Sc23 2.105 . S
O37 C31 1.268 . S
O38 Sc22 2.105 . S
O38 C30 1.268 . S
O39 Sc23 2.105 . S
O39 C29 1.268 . S
O40 Sc24 2.105 . S
O40 C31 1.268 . S
O41 Sc22 2.105 . S
O41 C27 1.268 . S
O42 Sc24 2.105 . S
O42 C26 1.268 . S
O43 Sc23 2.105 . S
O43 C28 1.268 . S
Sc44 O47 2.025 . S
Sc44 O54 2.105 . S
Sc44 O57 2.105 . S
Sc44 O60 2.105 . S
Sc44 O63 2.105 1_556 S
Sc45 O47 2.025 . S
Sc45 O55 2.105 1_556 S
Sc45 O59 2.105 . S
Sc45 O61 2.105 . S
Sc45 O65 2.105 . S
Sc46 O47 2.025 . S
Sc46 O56 2.105 . S
Sc46 O58 2.105 . S
Sc46 O62 2.105 . S
Sc46 O64 2.105 . S
O47 Sc44 2.025 . S
O47 Sc45 2.025 . S
O47 Sc46 2.025 . S
C48 O54 1.268 . S
C48 O64 1.268 . S
C49 O55 1.268 . S
C49 O63 1.268 . S
C50 O56 1.268 . S
C50 O65 1.268 . S
C51 O57 1.268 . S
C51 O61 1.268 . S
C52 O58 1.268 . S
C52 O60 1.268 . S
C53 O59 1.268 . S
C53 O62 1.268 . S
O54 Sc44 2.105 . S
O54 C48 1.268 . S
O55 Sc45 2.105 1_554 S
O55 C49 1.268 . S
O56 Sc46 2.105 . S
O56 C50 1.268 . S
O57 Sc44 2.105 . S
O57 C51 1.268 . S
O58 Sc46 2.105 . S
O58 C52 1.268 . S
O59 Sc45 2.105 . S
O59 C53 1.268 . S
O60 Sc44 2.105 . S
O60 C52 1.268 . S
O61 Sc45 2.105 . S
O61 C51 1.268 . S
O62 Sc46 2.105 . S
O62 C53 1.268 . S
O63 Sc44 2.105 1_554 S
O63 C49 1.268 . S
O64 Sc46 2.105 . S
O64 C48 1.268 . S
O65 Sc45 2.105 . S
O65 C50 1.268 . S
Sc66 O69 2.025 . S
Sc66 O76 2.105 . S
Sc66 O79 2.105 . S
Sc66 O82 2.105 . S
Sc66 O85 2.105 . S
Sc67 O69 2.025 . S
Sc67 O77 2.105 . S
Sc67 O81 2.105 . S
Sc67 O83 2.105 . S
Sc67 O87 2.105 . S
Sc68 O69 2.025 . S
Sc68 O78 2.105 . S
Sc68 O80 2.105 . S
Sc68 O84 2.105 . S
Sc68 O86 2.105 . S
O69 Sc66 2.025 . S
O69 Sc67 2.025 . S
O69 Sc68 2.025 . S
C70 O76 1.268 . S
C70 O86 1.268 . S
C71 O77 1.268 . S
C71 O85 1.268 . S
C72 O78 1.268 . S
C72 O87 1.268 . S
C73 O79 1.268 . S
C73 O83 1.268 . S
C74 O80 1.268 . S
C74 O82 1.268 . S
C75 O81 1.268 . S
C75 O84 1.268 . S
O76 Sc66 2.105 . S
O76 C70 1.268 . S
O77 Sc67 2.105 . S
O77 C71 1.268 . S
O78 Sc68 2.105 . S
O78 C72 1.268 . S
O79 Sc66 2.105 . S
O79 C73 1.268 . S
O80 Sc68 2.105 . S
O80 C74 1.268 . S
O81 Sc67 2.105 . S
O81 C75 1.268 . S
O82 Sc66 2.105 . S
O82 C74 1.268 . S
O83 Sc67 2.105 . S
O83 C73 1.268 . S
O84 Sc68 2.105 . S
O84 C75 1.268 . S
O85 Sc66 2.105 . S
O85 C71 1.268 . S
O86 Sc68 2.105 . S
O86 C70 1.268 . S
O87 Sc67 2.105 . S
O87 C72 1.268 . S
Sc88 O91 2.025 . S
Sc88 O98 2.105 . S
Sc88 O101 2.105 . S
Sc88 O104 2.105 . S
Sc88 O107 2.105 . S
Sc89 O91 2.025 . S
Sc89 O99 2.105 . S
Sc89 O103 2.105 . S
Sc89 O105 2.105 . S
Sc89 O109 2.105 1_556 S
Sc90 O91 2.025 . S
Sc90 O100 2.105 1_556 S
Sc90 O102 2.105 . S
Sc90 O106 2.105 . S
Sc90 O108 2.105 . S
O91 Sc88 2.025 . S
O91 Sc89 2.025 . S
O91 Sc90 2.025 . S
C92 O98 1.268 . S
C92 O108 1.268 . S
C93 O99 1.268 . S
C93 O107 1.268 . S
C94 O100 1.268 . S
C94 O109 1.268 . S
C95 O101 1.268 . S
C95 O105 1.268 . S
C96 O102 1.268 . S
C96 O104 1.268 . S
C97 O103 1.268 . S
C97 O106 1.268 . S
O98 Sc88 2.105 . S
O98 C92 1.268 . S
O99 Sc89 2.105 . S
O99 C93 1.268 . S
O100 Sc90 2.105 1_554 S
O100 C94 1.268 . S
O101 Sc88 2.105 . S
O101 C95 1.268 . S
O102 Sc90 2.105 . S
O102 C96 1.268 . S
O103 Sc89 2.105 . S
O103 C97 1.268 . S
O104 Sc88 2.105 . S
O104 C96 1.268 . S
O105 Sc89 2.105 . S
O105 C95 1.268 . S
O106 Sc90 2.105 . S
O106 C97 1.268 . S
O107 Sc88 2.105 . S
O107 C93 1.268 . S
O108 Sc90 2.105 . S
O108 C92 1.268 . S
O109 Sc89 2.105 1_554 S
O109 C94 1.268 . S
Sc110 O113 2.025 . S
Sc110 O120 2.105 . S
Sc110 O123 2.105 . S
Sc110 O126 2.105 . S
Sc110 O129 2.105 . S
Sc111 O113 2.025 . S
Sc111 O121 2.105 . S
Sc111 O125 2.105 . S
Sc111 O127 2.105 . S
Sc111 O131 2.105 . S
Sc112 O113 2.025 . S
Sc112 O122 2.105 . S
Sc112 O124 2.105 . S
Sc112 O128 2.105 . S
Sc112 O130 2.105 . S
O113 Sc110 2.025 . S
O113 Sc111 2.025 . S
O113 Sc112 2.025 . S
C114 O120 1.268 . S
C114 O130 1.268 . S
C115 O121 1.268 . S
C115 O129 1.268 . S
C116 O122 1.268 . S
C116 O131 1.268 . S
C117 O123 1.268 . S
C117 O127 1.268 . S
C118 O124 1.268 . S
C118 O126 1.268 . S
C119 O125 1.268 . S
C119 O128 1.268 . S
O120 Sc110 2.105 . S
O120 C114 1.268 . S
O121 Sc111 2.105 . S
O121 C115 1.268 . S
O122 Sc112 2.105 . S
O122 C116 1.268 . S
O123 Sc110 2.105 . S
O123 C117 1.268 . S
O124 Sc112 2.105 . S
O124 C118 1.268 . S
O125 Sc111 2.105 . S
O125 C119 1.268 . S
O126 Sc110 2.105 . S
O126 C118 1.268 . S
O127 Sc111 2.105 . S
O127 C117 1.268 . S
O128 Sc112 2.105 . S
O128 C119 1.268 . S
O129 Sc110 2.105 . S
O129 C115 1.268 . S
O130 Sc112 2.105 . S
O130 C114 1.268 . S
O131 Sc111 2.105 . S
O131 C116 1.268 . S
Sc132 O135 2.025 . S
Sc132 O142 2.105 . S
Sc132 O145 2.105 1_554 S
Sc132 O148 2.105 . S
Sc132 O151 2.105 . S
Sc133 O135 2.025 . S
Sc133 O143 2.105 . S
Sc133 O147 2.105 . S
Sc133 O149 2.105 1_554 S
Sc133 O153 2.105 . S
Sc134 O135 2.025 . S
Sc134 O144 2.105 . S
Sc134 O146 2.105 . S
Sc134 O150 2.105 . S
Sc134 O152 2.105 . S
O135 Sc132 2.025 . S
O135 Sc133 2.025 . S
O135 Sc134 2.025 . S
C136 O142 1.268 . S
C136 O152 1.268 . S
C137 O143 1.268 . S
C137 O151 1.268 . S
C138 O144 1.268 . S
C138 O153 1.268 . S
C139 O145 1.268 . S
C139 O149 1.268 . S
C140 O146 1.268 . S
C140 O148 1.268 . S
C141 O147 1.268 . S
C141 O150 1.268 . S
O142 Sc132 2.105 . S
O142 C136 1.268 . S
O143 Sc133 2.105 . S
O143 C137 1.268 . S
O144 Sc134 2.105 . S
O144 C138 1.268 . S
O145 Sc132 2.105 1_556 S
O145 C139 1.268 . S
O146 Sc134 2.105 . S
O146 C140 1.268 . S
O147 Sc133 2.105 . S
O147 C141 1.268 . S
O148 Sc132 2.105 . S
O148 C140 1.268 . S
O149 Sc133 2.105 1_556 S
O149 C139 1.268 . S
O150 Sc134 2.105 . S
O150 C141 1.268 . S
O151 Sc132 2.105 . S
O151 C137 1.268 . S
O152 Sc134 2.105 . S
O152 C136 1.268 . S
O153 Sc133 2.105 . S
O153 C138 1.268 . S
Sc154 O157 2.025 . S
Sc154 O164 2.105 . S
Sc154 O167 2.105 . S
Sc154 O170 2.105 . S
Sc154 O173 2.105 . S
Sc155 O157 2.025 . S
Sc155 O165 2.105 . S
Sc155 O169 2.105 . S
Sc155 O171 2.105 . S
Sc155 O175 2.105 . S
Sc156 O157 2.025 . S
Sc156 O166 2.105 . S
Sc156 O168 2.105 . S
Sc156 O172 2.105 . S
Sc156 O174 2.105 . S
O157 Sc154 2.025 . S
O157 Sc155 2.025 . S
O157 Sc156 2.025 . S
C158 O164 1.268 . S
C158 O174 1.268 . S
C159 O165 1.268 . S
C159 O173 1.268 . S
C160 O166 1.268 . S
C160 O175 1.268 . S
C161 O167 1.268 . S
C161 O171 1.268 . S
C162 O168 1.268 . S
C162 O170 1.268 . S
C163 O169 1.268 . S
C163 O172 1.268 . S
O164 Sc154 2.105 . S
O164 C158 1.268 . S
O165 Sc155 2.105 . S
O165 C159 1.268 . S
O166 Sc156 2.105 . S
O166 C160 1.268 . S
O167 Sc154 2.105 . S
O167 C161 1.268 . S
O168 Sc156 2.105 . S
O168 C162 1.268 . S
O169 Sc155 2.105 . S
O169 C163 1.268 . S
O170 Sc154 2.105 . S
O170 C162 1.268 . S
O171 Sc155 2.105 . S
O171 C161 1.268 . S
O172 Sc156 2.105 . S
O172 C163 1.268 . S
O173 Sc154 2.105 . S
O173 C159 1.268 . S
O174 Sc156 2.105 . S
O174 C158 1.268 . S
O175 Sc155 2.105 . S
O175 C160 1.268 . S
Sc176 O179 2.025 . S
Sc176 O186 2.105 . S
Sc176 O189 2.105 . S
Sc176 O192 2.105 . S
Sc176 O195 2.105 1_554 S
Sc177 O179 2.025 . S
Sc177 O187 2.105 1_554 S
Sc177 O191 2.105 . S
Sc177 O193 2.105 . S
Sc177 O197 2.105 . S
Sc178 O179 2.025 . S
Sc178 O188 2.105 . S
Sc178 O190 2.105 . S
Sc178 O194 2.105 . S
Sc178 O196 2.105 . S
O179 Sc176 2.025 . S
O179 Sc177 2.025 . S
O179 Sc178 2.025 . S
C180 O186 1.268 . S
C180 O196 1.268 . S
C181 O187 1.268 . S
C181 O195 1.268 . S
C182 O188 1.268 . S
C182 O197 1.268 . S
C183 O189 1.268 . S
C183 O193 1.268 . S
C184 O190 1.268 . S
C184 O192 1.268 . S
C185 O191 1.268 . S
C185 O194 1.268 . S
O186 Sc176 2.105 . S
O186 C180 1.268 . S
O187 Sc177 2.105 1_556 S
O187 C181 1.268 . S
O188 Sc178 2.105 . S
O188 C182 1.268 . S
O189 Sc176 2.105 . S
O189 C183 1.268 . S
O190 Sc178 2.105 . S
O190 C184 1.268 . S
O191 Sc177 2.105 . S
O191 C185 1.268 . S
O192 Sc176 2.105 . S
O192 C184 1.268 . S
O193 Sc177 2.105 . S
O193 C183 1.268 . S
O194 Sc178 2.105 . S
O194 C185 1.268 . S
O195 Sc176 2.105 1_556 S
O195 C181 1.268 . S
O196 Sc178 2.105 . S
O196 C180 1.268 . S
O197 Sc177 2.105 . S
O197 C182 1.268 . S
Sc198 O201 2.025 . S
Sc198 O208 2.105 . S
Sc198 O211 2.105 . S
Sc198 O214 2.105 . S
Sc198 O217 2.105 . S
Sc199 O201 2.025 . S
Sc199 O209 2.105 . S
Sc199 O213 2.105 . S
Sc199 O215 2.105 . S
Sc199 O219 2.105 . S
Sc200 O201 2.025 . S
Sc200 O210 2.105 . S
Sc200 O212 2.105 . S
Sc200 O216 2.105 . S
Sc200 O218 2.105 . S
O201 Sc198 2.025 . S
O201 Sc199 2.025 . S
O201 Sc200 2.025 . S
C202 O208 1.268 . S
C202 O218 1.268 . S
C203 O209 1.268 . S
C203 O217 1.268 . S
C204 O210 1.268 . S
C204 O219 1.268 . S
C205 O211 1.268 . S
C205 O215 1.268 . S
C206 O212 1.268 . S
C206 O214 1.268 . S
C207 O213 1.268 . S
C207 O216 1.268 . S
O208 Sc198 2.105 . S
O208 C202 1.268 . S
O209 Sc199 2.105 . S
O209 C203 1.268 . S
O210 Sc200 2.105 . S
O210 C204 1.268 . S
O211 Sc198 2.105 . S
O211 C205 1.268 . S
O212 Sc200 2.105 . S
O212 C206 1.268 . S
O213 Sc199 2.105 . S
O213 C207 1.268 . S
O214 Sc198 2.105 . S
O214 C206 1.268 . S
O215 Sc199 2.105 . S
O215 C205 1.268 . S
O216 Sc200 2.105 . S
O216 C207 1.268 . S
O217 Sc198 2.105 . S
O217 C203 1.268 . S
O218 Sc200 2.105 . S
O218 C202 1.268 . S
O219 Sc199 2.105 . S
O219 C204 1.268 . S
Sc220 O223 2.025 . S
Sc220 O230 2.105 . S
Sc220 O233 2.105 . S
Sc220 O236 2.105 . S
Sc220 O239 2.105 1_556 S
Sc221 O223 2.025 . S
Sc221 O231 2.105 1_556 S
Sc221 O235 2.105 . S
Sc221 O237 2.105 . S
Sc221 O241 2.105 . S
Sc222 O223 2.025 . S
Sc222 O232 2.105 . S
Sc222 O234 2.105 . S
Sc222 O238 2.105 . S
Sc222 O240 2.105 . S
O223 Sc220 2.025 . S
O223 Sc221 2.025 . S
O223 Sc222 2.025 . S
C224 O230 1.268 . S
C224 O240 1.268 . S
C225 O231 1.268 . S
C225 O239 1.268 . S
C226 O232 1.268 . S
C226 O241 1.268 . S
C227 O233 1.268 . S
C227 O237 1.268 . S
C228 O234 1.268 . S
C228 O236 1.268 . S
C229 O235 1.268 . S
C229 O238 1.268 . S
O230 Sc220 2.105 . S
O230 C224 1.268 . S
O231 Sc221 2.105 1_554 S
O231 C225 1.268 . S
O232 Sc222 2.105 . S
O232 C226 1.268 . S
O233 Sc220 2.105 . S
O233 C227 1.268 . S
O234 Sc222 2.105 . S
O234 C228 1.268 . S
O235 Sc221 2.105 . S
O235 C229 1.268 . S
O236 Sc220 2.105 . S
O236 C228 1.268 . S
O237 Sc221 2.105 . S
O237 C227 1.268 . S
O238 Sc222 2.105 . S
O238 C229 1.268 . S
O239 Sc220 2.105 1_554 S
O239 C225 1.268 . S
O240 Sc222 2.105 . S
O240 C224 1.268 . S
O241 Sc221 2.105 . S
O241 C226 1.268 . S
Sc242 O245 2.025 . S
Sc242 O252 2.105 . S
Sc242 O255 2.105 . S
Sc242 O258 2.105 . S
Sc242 O261 2.105 . S
Sc243 O245 2.025 . S
Sc243 O253 2.105 . S
Sc243 O257 2.105 . S
Sc243 O259 2.105 . S
Sc243 O263 2.105 . S
Sc244 O245 2.025 . S
Sc244 O254 2.105 . S
Sc244 O256 2.105 . S
Sc244 O260 2.105 . S
Sc244 O262 2.105 . S
O245 Sc242 2.025 . S
O245 Sc243 2.025 . S
O245 Sc244 2.025 . S
C246 O252 1.268 . S
C246 O262 1.268 . S
C247 O253 1.268 . S
C247 O261 1.268 . S
C248 O254 1.268 . S
C248 O263 1.268 . S
C249 O255 1.268 . S
C249 O259 1.268 . S
C250 O256 1.268 . S
C250 O258 1.268 . S
C251 O257 1.268 . S
C251 O260 1.268 . S
O252 Sc242 2.105 . S
O252 C246 1.268 . S
O253 Sc243 2.105 . S
O253 C247 1.268 . S
O254 Sc244 2.105 . S
O254 C248 1.268 . S
O255 Sc242 2.105 . S
O255 C249 1.268 . S
O256 Sc244 2.105 . S
O256 C250 1.268 . S
O257 Sc243 2.105 . S
O257 C251 1.268 . S
O258 Sc242 2.105 . S
O258 C250 1.268 . S
O259 Sc243 2.105 . S
O259 C249 1.268 . S
O260 Sc244 2.105 . S
O260 C251 1.268 . S
O261 Sc242 2.105 . S
O261 C247 1.268 . S
O262 Sc244 2.105 . S
O262 C246 1.268 . S
O263 Sc243 2.105 . S
O263 C248 1.268 . S
Sc264 O267 2.025 . S
Sc264 O274 2.105 . S
Sc264 O277 2.105 . S
Sc264 O280 2.105 . S
Sc264 O283 2.105 . S
Sc265 O267 2.025 . S
Sc265 O275 2.105 . S
Sc265 O279 2.105 . S
Sc265 O281 2.105 . S
Sc265 O285 2.105 1_556 S
Sc266 O267 2.025 . S
Sc266 O276 2.105 1_556 S
Sc266 O278 2.105 . S
Sc266 O282 2.105 . S
Sc266 O284 2.105 . S
O267 Sc264 2.025 . S
O267 Sc265 2.025 . S
O267 Sc266 2.025 . S
C268 O274 1.268 . S
C268 O284 1.268 . S
C269 O275 1.268 . S
C269 O283 1.268 . S
C270 O276 1.268 . S
C270 O285 1.268 . S
C271 O277 1.268 . S
C271 O281 1.268 . S
C272 O278 1.268 . S
C272 O280 1.268 . S
C273 O279 1.268 . S
C273 O282 1.268 . S
O274 Sc264 2.105 . S
O274 C268 1.268 . S
O275 Sc265 2.105 . S
O275 C269 1.268 . S
O276 Sc266 2.105 1_554 S
O276 C270 1.268 . S
O277 Sc264 2.105 . S
O277 C271 1.268 . S
O278 Sc266 2.105 . S
O278 C272 1.268 . S
O279 Sc265 2.105 . S
O279 C273 1.268 . S
O280 Sc264 2.105 . S
O280 C272 1.268 . S
O281 Sc265 2.105 . S
O281 C271 1.268 . S
O282 Sc266 2.105 . S
O282 C273 1.268 . S
O283 Sc264 2.105 . S
O283 C269 1.268 . S
O284 Sc266 2.105 . S
O284 C268 1.268 . S
O285 Sc265 2.105 1_554 S
O285 C270 1.268 . S
Sc286 O289 2.025 . S
Sc286 O296 2.105 . S
Sc286 O299 2.105 . S
Sc286 O302 2.105 . S
Sc286 O305 2.105 . S
Sc287 O289 2.025 . S
Sc287 O297 2.105 . S
Sc287 O301 2.105 . S
Sc287 O303 2.105 . S
Sc287 O307 2.105 . S
Sc288 O289 2.025 . S
Sc288 O298 2.105 . S
Sc288 O300 2.105 . S
Sc288 O304 2.105 . S
Sc288 O306 2.105 . S
O289 Sc286 2.025 . S
O289 Sc287 2.025 . S
O289 Sc288 2.025 . S
C290 O296 1.268 . S
C290 O306 1.268 . S
C291 O297 1.268 . S
C291 O305 1.268 . S
C292 O298 1.268 . S
C292 O307 1.268 . S
C293 O299 1.268 . S
C293 O303 1.268 . S
C294 O300 1.268 . S
C294 O302 1.268 . S
C295 O301 1.268 . S
C295 O304 1.268 . S
O296 Sc286 2.105 . S
O296 C290 1.268 . S
O297 Sc287 2.105 . S
O297 C291 1.268 . S
O298 Sc288 2.105 . S
O298 C292 1.268 . S
O299 Sc286 2.105 . S
O299 C293 1.268 . S
O300 Sc288 2.105 . S
O300 C294 1.268 . S
O301 Sc287 2.105 . S
O301 C295 1.268 . S
O302 Sc286 2.105 . S
O302 C294 1.268 . S
O303 Sc287 2.105 . S
O303 C293 1.268 . S
O304 Sc288 2.105 . S
O304 C295 1.268 . S
O305 Sc286 2.105 . S
O305 C291 1.268 . S
O306 Sc288 2.105 . S
O306 C290 1.268 . S
O307 Sc287 2.105 . S
O307 C292 1.268 . S
Sc308 O311 2.025 . S
Sc308 O318 2.105 . S
Sc308 O321 2.105 1_554 S
Sc308 O324 2.105 . S
Sc308 O327 2.105 . S
Sc309 O311 2.025 . S
Sc309 O319 2.105 . S
Sc309 O323 2.105 . S
Sc309 O325 2.105 1_554 S
Sc309 O329 2.105 . S
Sc310 O311 2.025 . S
Sc310 O320 2.105 . S
Sc310 O322 2.105 . S
Sc310 O326 2.105 . S
Sc310 O328 2.105 . S
O311 Sc308 2.025 . S
O311 Sc309 2.025 . S
O311 Sc310 2.025 . S
C312 O318 1.268 . S
C312 O328 1.268 . S
C313 O319 1.268 . S
C313 O327 1.268 . S
C314 O320 1.268 . S
C314 O329 1.268 . S
C315 O321 1.268 . S
C315 O325 1.268 . S
C316 O322 1.268 . S
C316 O324 1.268 . S
C317 O323 1.268 . S
C317 O326 1.268 . S
O318 Sc308 2.105 . S
O318 C312 1.268 . S
O319 Sc309 2.105 . S
O319 C313 1.268 . S
O320 Sc310 2.105 . S
O320 C314 1.268 . S
O321 Sc308 2.105 1_556 S
O321 C315 1.268 . S
O322 Sc310 2.105 . S
O322 C316 1.268 . S
O323 Sc309 2.105 . S
O323 C317 1.268 . S
O324 Sc308 2.105 . S
O324 C316 1.268 . S
O325 Sc309 2.105 1_556 S
O325 C315 1.268 . S
O326 Sc310 2.105 . S
O326 C317 1.268 . S
O327 Sc308 2.105 . S
O327 C313 1.268 . S
O328 Sc310 2.105 . S
O328 C312 1.268 . S
O329 Sc309 2.105 . S
O329 C314 1.268 . S
Sc330 O333 2.025 . S
Sc330 O340 2.105 . S
Sc330 O343 2.105 . S
Sc330 O346 2.105 . S
Sc330 O349 2.105 . S
Sc331 O333 2.025 . S
Sc331 O341 2.105 . S
Sc331 O345 2.105 . S
Sc331 O347 2.105 . S
Sc331 O351 2.105 . S
Sc332 O333 2.025 . S
Sc332 O342 2.105 . S
Sc332 O344 2.105 . S
Sc332 O348 2.105 . S
Sc332 O350 2.105 . S
O333 Sc330 2.025 . S
O333 Sc331 2.025 . S
O333 Sc332 2.025 . S
C334 O340 1.268 . S
C334 O350 1.268 . S
C335 O341 1.268 . S
C335 O349 1.268 . S
C336 O342 1.268 . S
C336 O351 1.268 . S
C337 O343 1.268 . S
C337 O347 1.268 . S
C338 O344 1.268 . S
C338 O346 1.268 . S
C339 O345 1.268 . S
C339 O348 1.268 . S
O340 Sc330 2.105 . S
O340 C334 1.268 . S
O341 Sc331 2.105 . S
O341 C335 1.268 . S
O342 Sc332 2.105 . S
O342 C336 1.268 . S
O343 Sc330 2.105 . S
O343 C337 1.268 . S
O344 Sc332 2.105 . S
O344 C338 1.268 . S
O345 Sc331 2.105 . S
O345 C339 1.268 . S
O346 Sc330 2.105 . S
O346 C338 1.268 . S
O347 Sc331 2.105 . S
O347 C337 1.268 . S
O348 Sc332 2.105 . S
O348 C339 1.268 . S
O349 Sc330 2.105 . S
O349 C335 1.268 . S
O350 Sc332 2.105 . S
O350 C334 1.268 . S
O351 Sc331 2.105 . S
O351 C336 1.268 . S
H352 C364 0.930 . S
H353 C366 0.930 . S
H354 C367 0.930 . S
H355 C371 0.959 . S
H356 C371 0.959 . S
H357 C371 0.961 . S
H358 C372 0.960 . S
H359 C372 0.961 . S
H360 C372 0.959 . S
H361 C375 0.929 . S
H362 C376 0.931 . S
H363 C378 0.930 . S
C364 H352 0.930 . S
C364 C365 1.399 . S
C364 C369 1.399 . S
C365 C364 1.399 . S
C365 C366 1.376 . S
C366 H353 0.930 . S
C366 C365 1.376 . S
C366 C367 1.388 . S
C367 H354 0.930 . S
C367 C366 1.388 . S
C367 C368 1.390 . S
C368 C367 1.390 . S
C368 C369 1.394 . S
C368 C374 1.465 . S
C369 C364 1.399 . S
C369 C368 1.394 . S
C369 C370 1.516 . S
C370 C369 1.516 . S
C370 C371 1.502 . S
C370 C372 1.561 . S
C370 C373 1.526 . S
C371 H355 0.959 . S
C371 H356 0.959 . S
C371 H357 0.961 . S
C371 C370 1.502 . S
C372 H358 0.960 . S
C372 H359 0.961 . S
C372 H360 0.959 . S
C372 C370 1.561 . S
C373 C370 1.526 . S
C373 C374 1.396 . S
C373 C378 1.390 . S
C374 C368 1.465 . S
C374 C373 1.396 . S
C374 C375 1.399 . S
C375 H361 0.929 . S
C375 C374 1.399 . S
C375 C376 1.385 . S
C376 H362 0.931 . S
C376 C375 1.385 . S
C376 C377 1.389 . S
C377 C376 1.389 . S
C377 C378 1.387 . S
C378 H363 0.930 . S
C378 C373 1.390 . S
C378 C377 1.387 . S
H379 C391 0.930 . S
H380 C393 0.930 . S
H381 C394 0.930 . S
H382 C398 0.959 . S
H383 C398 0.959 . S
H384 C398 0.961 . S
H385 C399 0.960 . S
H386 C399 0.961 . S
H387 C399 0.959 . S
H388 C402 0.929 . S
H389 C403 0.931 . S
H390 C405 0.930 . S
C391 H379 0.930 . S
C391 C392 1.399 . S
C391 C396 1.399 . S
C392 C391 1.399 . S
C392 C393 1.376 . S
C393 H380 0.930 . S
C393 C392 1.376 . S
C393 C394 1.388 . S
C394 H381 0.930 . S
C394 C393 1.388 . S
C394 C395 1.390 . S
C395 C394 1.390 . S
C395 C396 1.394 . S
C395 C401 1.465 . S
C396 C391 1.399 . S
C396 C395 1.394 . S
C396 C397 1.516 . S
C397 C396 1.516 . S
C397 C398 1.502 . S
C397 C399 1.561 . S
C397 C400 1.526 . S
C398 H382 0.959 . S
C398 H383 0.959 . S
C398 H384 0.961 . S
C398 C397 1.502 . S
C399 H385 0.960 . S
C399 H386 0.961 . S
C399 H387 0.959 . S
C399 C397 1.561 . S
C400 C397 1.526 . S
C400 C401 1.396 . S
C400 C405 1.390 . S
C401 C395 1.465 . S
C401 C400 1.396 . S
C401 C402 1.399 . S
C402 H388 0.929 . S
C402 C401 1.399 . S
C402 C403 1.385 . S
C403 H389 0.931 . S
C403 C402 1.385 . S
C403 C404 1.389 . S
C404 C403 1.389 . S
C404 C405 1.387 . S
C405 H390 0.930 . S
C405 C400 1.390 . S
C405 C404 1.387 . S
H406 C418 0.930 . S
H407 C420 0.930 . S
H408 C421 0.930 . S
H409 C425 0.959 . S
H410 C425 0.959 . S
H411 C425 0.961 . S
H412 C426 0.960 . S
H413 C426 0.961 . S
H414 C426 0.959 . S
H415 C429 0.929 . S
H416 C430 0.931 . S
H417 C432 0.930 . S
C418 H406 0.930 . S
C418 C419 1.399 . S
C418 C423 1.399 . S
C419 C418 1.399 . S
C419 C420 1.376 . S
C420 H407 0.930 . S
C420 C419 1.376 . S
C420 C421 1.388 . S
C421 H408 0.930 . S
C421 C420 1.388 . S
C421 C422 1.390 . S
C422 C421 1.390 . S
C422 C423 1.394 . S
C422 C428 1.465 . S
C423 C418 1.399 . S
C423 C422 1.394 . S
C423 C424 1.516 . S
C424 C423 1.516 . S
C424 C425 1.502 . S
C424 C426 1.561 . S
C424 C427 1.526 . S
C425 H409 0.959 . S
C425 H410 0.959 . S
C425 H411 0.961 . S
C425 C424 1.502 . S
C426 H412 0.960 . S
C426 H413 0.961 . S
C426 H414 0.959 . S
C426 C424 1.561 . S
C427 C424 1.526 . S
C427 C428 1.396 . S
C427 C432 1.390 . S
C428 C422 1.465 . S
C428 C427 1.396 . S
C428 C429 1.399 . S
C429 H415 0.929 . S
C429 C428 1.399 . S
C429 C430 1.385 . S
C430 H416 0.931 . S
C430 C429 1.385 . S
C430 C431 1.389 . S
C431 C430 1.389 . S
C431 C432 1.387 . S
C432 H417 0.930 . S
C432 C427 1.390 . S
C432 C431 1.387 . S
H433 C445 0.930 . S
H434 C447 0.930 . S
H435 C448 0.930 . S
H436 C452 0.959 . S
H437 C452 0.959 . S
H438 C452 0.961 . S
H439 C453 0.960 . S
H440 C453 0.961 . S
H441 C453 0.959 . S
H442 C456 0.929 . S
H443 C457 0.931 . S
H444 C459 0.930 . S
C445 H433 0.930 . S
C445 C446 1.399 . S
C445 C450 1.399 . S
C446 C445 1.399 . S
C446 C447 1.376 . S
C447 H434 0.930 . S
C447 C446 1.376 . S
C447 C448 1.388 . S
C448 H435 0.930 . S
C448 C447 1.388 . S
C448 C449 1.390 . S
C449 C448 1.390 . S
C449 C450 1.394 . S
C449 C455 1.465 . S
C450 C445 1.399 . S
C450 C449 1.394 . S
C450 C451 1.516 . S
C451 C450 1.516 . S
C451 C452 1.502 . S
C451 C453 1.561 . S
C451 C454 1.526 . S
C452 H436 0.959 . S
C452 H437 0.959 . S
C452 H438 0.961 . S
C452 C451 1.502 . S
C453 H439 0.960 . S
C453 H440 0.961 . S
C453 H441 0.959 . S
C453 C451 1.561 . S
C454 C451 1.526 . S
C454 C455 1.396 . S
C454 C459 1.390 . S
C455 C449 1.465 . S
C455 C454 1.396 . S
C455 C456 1.399 . S
C456 H442 0.929 . S
C456 C455 1.399 . S
C456 C457 1.385 . S
C457 H443 0.931 . S
C457 C456 1.385 . S
C457 C458 1.389 . S
C458 C457 1.389 . S
C458 C459 1.387 . S
C459 H444 0.930 . S
C459 C454 1.390 . S
C459 C458 1.387 . S
H460 C472 0.930 . S
H461 C474 0.930 . S
H462 C475 0.930 . S
H463 C479 0.959 . S
H464 C479 0.959 . S
H465 C479 0.961 . S
H466 C480 0.960 . S
H467 C480 0.961 . S
H468 C480 0.959 . S
H469 C483 0.929 . S
H470 C484 0.931 . S
H471 C486 0.930 . S
C472 H460 0.930 . S
C472 C473 1.399 . S
C472 C477 1.399 . S
C473 C472 1.399 . S
C473 C474 1.376 . S
C474 H461 0.930 . S
C474 C473 1.376 . S
C474 C475 1.388 . S
C475 H462 0.930 . S
C475 C474 1.388 . S
C475 C476 1.390 . S
C476 C475 1.390 . S
C476 C477 1.394 . S
C476 C482 1.465 . S
C477 C472 1.399 . S
C477 C476 1.394 . S
C477 C478 1.516 . S
C478 C477 1.516 . S
C478 C479 1.502 . S
C478 C480 1.561 . S
C478 C481 1.526 . S
C479 H463 0.959 . S
C479 H464 0.959 . S
C479 H465 0.961 . S
C479 C478 1.502 . S
C480 H466 0.960 . S
C480 H467 0.961 . S
C480 H468 0.959 . S
C480 C478 1.561 . S
C481 C478 1.526 . S
C481 C482 1.396 . S
C481 C486 1.390 . S
C482 C476 1.465 . S
C482 C481 1.396 . S
C482 C483 1.399 . S
C483 H469 0.929 . S
C483 C482 1.399 . S
C483 C484 1.385 . S
C484 H470 0.931 . S
C484 C483 1.385 . S
C484 C485 1.389 . S
C485 C484 1.389 . S
C485 C486 1.387 . S
C486 H471 0.930 . S
C486 C481 1.390 . S
C486 C485 1.387 . S
H487 C499 0.930 . S
H488 C501 0.930 . S
H489 C502 0.930 . S
H490 C506 0.959 . S
H491 C506 0.959 . S
H492 C506 0.961 . S
H493 C507 0.960 . S
H494 C507 0.961 . S
H495 C507 0.959 . S
H496 C510 0.929 . S
H497 C511 0.931 . S
H498 C513 0.930 . S
C499 H487 0.930 . S
C499 C500 1.399 . S
C499 C504 1.399 . S
C500 C499 1.399 . S
C500 C501 1.376 . S
C501 H488 0.930 . S
C501 C500 1.376 . S
C501 C502 1.388 . S
C502 H489 0.930 . S
C502 C501 1.388 . S
C502 C503 1.390 . S
C503 C502 1.390 . S
C503 C504 1.394 . S
C503 C509 1.465 . S
C504 C499 1.399 . S
C504 C503 1.394 . S
C504 C505 1.516 . S
C505 C504 1.516 . S
C505 C506 1.502 . S
C505 C507 1.561 . S
C505 C508 1.526 . S
C506 H490 0.959 . S
C506 H491 0.959 . S
C506 H492 0.961 . S
C506 C505 1.502 . S
C507 H493 0.960 . S
C507 H494 0.961 . S
C507 H495 0.959 . S
C507 C505 1.561 . S
C508 C505 1.526 . S
C508 C509 1.396 . S
C508 C513 1.390 . S
C509 C503 1.465 . S
C509 C508 1.396 . S
C509 C510 1.399 . S
C510 H496 0.929 . S
C510 C509 1.399 . S
C510 C511 1.385 . S
C511 H497 0.931 . S
C511 C510 1.385 . S
C511 C512 1.389 . S
C512 C511 1.389 . S
C512 C513 1.387 . S
C513 H498 0.930 . S
C513 C508 1.390 . S
C513 C512 1.387 . S
H514 C526 0.930 . S
H515 C528 0.930 . S
H516 C529 0.930 . S
H517 C533 0.959 . S
H518 C533 0.959 . S
H519 C533 0.961 . S
H520 C534 0.960 . S
H521 C534 0.961 . S
H522 C534 0.959 . S
H523 C537 0.929 . S
H524 C538 0.931 . S
H525 C540 0.930 . S
C526 H514 0.930 . S
C526 C527 1.399 . S
C526 C531 1.399 . S
C527 C526 1.399 . S
C527 C528 1.376 . S
C528 H515 0.930 . S
C528 C527 1.376 . S
C528 C529 1.388 . S
C529 H516 0.930 . S
C529 C528 1.388 . S
C529 C530 1.390 . S
C530 C529 1.390 . S
C530 C531 1.394 . S
C530 C536 1.465 . S
C531 C526 1.399 . S
C531 C530 1.394 . S
C531 C532 1.516 . S
C532 C531 1.516 . S
C532 C533 1.502 . S
C532 C534 1.561 . S
C532 C535 1.526 . S
C533 H517 0.959 . S
C533 H518 0.959 . S
C533 H519 0.961 . S
C533 C532 1.502 . S
C534 H520 0.960 . S
C534 H521 0.961 . S
C534 H522 0.959 . S
C534 C532 1.561 . S
C535 C532 1.526 . S
C535 C536 1.396 . S
C535 C540 1.390 . S
C536 C530 1.465 . S
C536 C535 1.396 . S
C536 C537 1.399 . S
C537 H523 0.929 . S
C537 C536 1.399 . S
C537 C538 1.385 . S
C538 H524 0.931 . S
C538 C537 1.385 . S
C538 C539 1.389 . S
C539 C538 1.389 . S
C539 C540 1.387 . S
C540 H525 0.930 . S
C540 C535 1.390 . S
C540 C539 1.387 . S
H541 C553 0.930 . S
H542 C555 0.930 . S
H543 C556 0.930 . S
H544 C560 0.959 . S
H545 C560 0.959 . S
H546 C560 0.961 . S
H547 C561 0.960 . S
H548 C561 0.961 . S
H549 C561 0.959 . S
H550 C564 0.929 . S
H551 C565 0.931 . S
H552 C567 0.930 . S
C553 H541 0.930 . S
C553 C554 1.399 . S
C553 C558 1.399 . S
C554 C553 1.399 . S
C554 C555 1.376 . S
C555 H542 0.930 . S
C555 C554 1.376 . S
C555 C556 1.388 . S
C556 H543 0.930 . S
C556 C555 1.388 . S
C556 C557 1.390 . S
C557 C556 1.390 . S
C557 C558 1.394 . S
C557 C563 1.465 . S
C558 C553 1.399 . S
C558 C557 1.394 . S
C558 C559 1.516 . S
C559 C558 1.516 . S
C559 C560 1.502 . S
C559 C561 1.561 . S
C559 C562 1.526 . S
C560 H544 0.959 . S
C560 H545 0.959 . S
C560 H546 0.961 . S
C560 C559 1.502 . S
C561 H547 0.960 . S
C561 H548 0.961 . S
C561 H549 0.959 . S
C561 C559 1.561 . S
C562 C559 1.526 . S
C562 C563 1.396 . S
C562 C567 1.390 . S
C563 C557 1.465 . S
C563 C562 1.396 . S
C563 C564 1.399 . S
C564 H550 0.929 . S
C564 C563 1.399 . S
C564 C565 1.385 . S
C565 H551 0.931 . S
C565 C564 1.385 . S
C565 C566 1.389 . S
C566 C565 1.389 . S
C566 C567 1.387 . S
C567 H552 0.930 . S
C567 C562 1.390 . S
C567 C566 1.387 . S
H568 C580 0.930 . S
H569 C582 0.930 . S
H570 C583 0.930 . S
H571 C587 0.959 . S
H572 C587 0.959 . S
H573 C587 0.961 . S
H574 C588 0.960 . S
H575 C588 0.961 . S
H576 C588 0.959 . S
H577 C591 0.929 . S
H578 C592 0.931 . S
H579 C594 0.930 . S
C580 H568 0.930 . S
C580 C581 1.399 . S
C580 C585 1.399 . S
C581 C580 1.399 . S
C581 C582 1.376 . S
C582 H569 0.930 . S
C582 C581 1.376 . S
C582 C583 1.388 . S
C583 H570 0.930 . S
C583 C582 1.388 . S
C583 C584 1.390 . S
C584 C583 1.390 . S
C584 C585 1.394 . S
C584 C590 1.465 . S
C585 C580 1.399 . S
C585 C584 1.394 . S
C585 C586 1.516 . S
C586 C585 1.516 . S
C586 C587 1.502 . S
C586 C588 1.561 . S
C586 C589 1.526 . S
C587 H571 0.959 . S
C587 H572 0.959 . S
C587 H573 0.961 . S
C587 C586 1.502 . S
C588 H574 0.960 . S
C588 H575 0.961 . S
C588 H576 0.959 . S
C588 C586 1.561 . S
C589 C586 1.526 . S
C589 C590 1.396 . S
C589 C594 1.390 . S
C590 C584 1.465 . S
C590 C589 1.396 . S
C590 C591 1.399 . S
C591 H577 0.929 . S
C591 C590 1.399 . S
C591 C592 1.385 . S
C592 H578 0.931 . S
C592 C591 1.385 . S
C592 C593 1.389 . S
C593 C592 1.389 . S
C593 C594 1.387 . S
C594 H579 0.930 . S
C594 C589 1.390 . S
C594 C593 1.387 . S
H595 C607 0.930 . S
H596 C609 0.930 . S
H597 C610 0.930 . S
H598 C614 0.959 . S
H599 C614 0.959 . S
H600 C614 0.961 . S
H601 C615 0.960 . S
H602 C615 0.961 . S
H603 C615 0.959 . S
H604 C618 0.929 . S
H605 C619 0.931 . S
H606 C621 0.930 . S
C607 H595 0.930 . S
C607 C608 1.399 . S
C607 C612 1.399 . S
C608 C607 1.399 . S
C608 C609 1.376 . S
C609 H596 0.930 . S
C609 C608 1.376 . S
C609 C610 1.388 . S
C610 H597 0.930 . S
C610 C609 1.388 . S
C610 C611 1.390 . S
C611 C610 1.390 . S
C611 C612 1.394 . S
C611 C617 1.465 . S
C612 C607 1.399 . S
C612 C611 1.394 . S
C612 C613 1.516 . S
C613 C612 1.516 . S
C613 C614 1.502 . S
C613 C615 1.561 . S
C613 C616 1.526 . S
C614 H598 0.959 . S
C614 H599 0.959 . S
C614 H600 0.961 . S
C614 C613 1.502 . S
C615 H601 0.960 . S
C615 H602 0.961 . S
C615 H603 0.959 . S
C615 C613 1.561 . S
C616 C613 1.526 . S
C616 C617 1.396 . S
C616 C621 1.390 . S
C617 C611 1.465 . S
C617 C616 1.396 . S
C617 C618 1.399 . S
C618 H604 0.929 . S
C618 C617 1.399 . S
C618 C619 1.385 . S
C619 H605 0.931 . S
C619 C618 1.385 . S
C619 C620 1.389 . S
C620 C619 1.389 . S
C620 C621 1.387 . S
C621 H606 0.930 . S
C621 C616 1.390 . S
C621 C620 1.387 . S
H622 C634 0.930 . S
H623 C636 0.930 . S
H624 C637 0.930 . S
H625 C641 0.959 . S
H626 C641 0.959 . S
H627 C641 0.961 . S
H628 C642 0.960 . S
H629 C642 0.961 . S
H630 C642 0.959 . S
H631 C645 0.929 . S
H632 C646 0.931 . S
H633 C648 0.930 . S
C634 H622 0.930 . S
C634 C635 1.399 . S
C634 C639 1.399 . S
C635 C634 1.399 . S
C635 C636 1.376 . S
C636 H623 0.930 . S
C636 C635 1.376 . S
C636 C637 1.388 . S
C637 H624 0.930 . S
C637 C636 1.388 . S
C637 C638 1.390 . S
C638 C637 1.390 . S
C638 C639 1.394 . S
C638 C644 1.465 . S
C639 C634 1.399 . S
C639 C638 1.394 . S
C639 C640 1.516 . S
C640 C639 1.516 . S
C640 C641 1.502 . S
C640 C642 1.561 . S
C640 C643 1.526 . S
C641 H625 0.959 . S
C641 H626 0.959 . S
C641 H627 0.961 . S
C641 C640 1.502 . S
C642 H628 0.960 . S
C642 H629 0.961 . S
C642 H630 0.959 . S
C642 C640 1.561 . S
C643 C640 1.526 . S
C643 C644 1.396 . S
C643 C648 1.390 . S
C644 C638 1.465 . S
C644 C643 1.396 . S
C644 C645 1.399 . S
C645 H631 0.929 . S
C645 C644 1.399 . S
C645 C646 1.385 . S
C646 H632 0.931 . S
C646 C645 1.385 . S
C646 C647 1.389 . S
C647 C646 1.389 . S
C647 C648 1.387 . S
C648 H633 0.930 . S
C648 C643 1.390 . S
C648 C647 1.387 . S
H649 C661 0.930 . S
H650 C663 0.930 . S
H651 C664 0.930 . S
H652 C668 0.959 . S
H653 C668 0.959 . S
H654 C668 0.961 . S
H655 C669 0.960 . S
H656 C669 0.961 . S
H657 C669 0.959 . S
H658 C672 0.929 . S
H659 C673 0.931 . S
H660 C675 0.930 . S
C661 H649 0.930 . S
C661 C662 1.399 . S
C661 C666 1.399 . S
C662 C661 1.399 . S
C662 C663 1.376 . S
C663 H650 0.930 . S
C663 C662 1.376 . S
C663 C664 1.388 . S
C664 H651 0.930 . S
C664 C663 1.388 . S
C664 C665 1.390 . S
C665 C664 1.390 . S
C665 C666 1.394 . S
C665 C671 1.465 . S
C666 C661 1.399 . S
C666 C665 1.394 . S
C666 C667 1.516 . S
C667 C666 1.516 . S
C667 C668 1.502 . S
C667 C669 1.561 . S
C667 C670 1.526 . S
C668 H652 0.959 . S
C668 H653 0.959 . S
C668 H654 0.961 . S
C668 C667 1.502 . S
C669 H655 0.960 . S
C669 H656 0.961 . S
C669 H657 0.959 . S
C669 C667 1.561 . S
C670 C667 1.526 . S
C670 C671 1.396 . S
C670 C675 1.390 . S
C671 C665 1.465 . S
C671 C670 1.396 . S
C671 C672 1.399 . S
C672 H658 0.929 . S
C672 C671 1.399 . S
C672 C673 1.385 . S
C673 H659 0.931 . S
C673 C672 1.385 . S
C673 C674 1.389 . S
C674 C673 1.389 . S
C674 C675 1.387 . S
C675 H660 0.930 . S
C675 C670 1.390 . S
C675 C674 1.387 . S
H676 C688 0.930 . S
H677 C690 0.930 . S
H678 C691 0.930 . S
H679 C695 0.959 . S
H680 C695 0.959 . S
H681 C695 0.961 . S
H682 C696 0.960 . S
H683 C696 0.961 . S
H684 C696 0.959 . S
H685 C699 0.929 . S
H686 C700 0.931 . S
H687 C702 0.930 . S
C688 H676 0.930 . S
C688 C689 1.399 . S
C688 C693 1.399 . S
C689 C688 1.399 . S
C689 C690 1.376 . S
C690 H677 0.930 . S
C690 C689 1.376 . S
C690 C691 1.388 . S
C691 H678 0.930 . S
C691 C690 1.388 . S
C691 C692 1.390 . S
C692 C691 1.390 . S
C692 C693 1.394 . S
C692 C698 1.465 . S
C693 C688 1.399 . S
C693 C692 1.394 . S
C693 C694 1.516 . S
C694 C693 1.516 . S
C694 C695 1.502 . S
C694 C696 1.561 . S
C694 C697 1.526 . S
C695 H679 0.959 . S
C695 H680 0.959 . S
C695 H681 0.961 . S
C695 C694 1.502 . S
C696 H682 0.960 . S
C696 H683 0.961 . S
C696 H684 0.959 . S
C696 C694 1.561 . S
C697 C694 1.526 . S
C697 C698 1.396 . S
C697 C702 1.390 . S
C698 C692 1.465 . S
C698 C697 1.396 . S
C698 C699 1.399 . S
C699 H685 0.929 . S
C699 C698 1.399 . S
C699 C700 1.385 . S
C700 H686 0.931 . S
C700 C699 1.385 . S
C700 C701 1.389 . S
C701 C700 1.389 . S
C701 C702 1.387 . S
C702 H687 0.930 . S
C702 C697 1.390 . S
C702 C701 1.387 . S
H703 C715 0.930 . S
H704 C717 0.930 . S
H705 C718 0.930 . S
H706 C722 0.959 . S
H707 C722 0.959 . S
H708 C722 0.961 . S
H709 C723 0.960 . S
H710 C723 0.961 . S
H711 C723 0.959 . S
H712 C726 0.929 . S
H713 C727 0.931 . S
H714 C729 0.930 . S
C715 H703 0.930 . S
C715 C716 1.399 . S
C715 C720 1.399 . S
C716 C715 1.399 . S
C716 C717 1.376 . S
C717 H704 0.930 . S
C717 C716 1.376 . S
C717 C718 1.388 . S
C718 H705 0.930 . S
C718 C717 1.388 . S
C718 C719 1.390 . S
C719 C718 1.390 . S
C719 C720 1.394 . S
C719 C725 1.465 . S
C720 C715 1.399 . S
C720 C719 1.394 . S
C720 C721 1.516 . S
C721 C720 1.516 . S
C721 C722 1.502 . S
C721 C723 1.561 . S
C721 C724 1.526 . S
C722 H706 0.959 . S
C722 H707 0.959 . S
C722 H708 0.961 . S
C722 C721 1.502 . S
C723 H709 0.960 . S
C723 H710 0.961 . S
C723 H711 0.959 . S
C723 C721 1.561 . S
C724 C721 1.526 . S
C724 C725 1.396 . S
C724 C729 1.390 . S
C725 C719 1.465 . S
C725 C724 1.396 . S
C725 C726 1.399 . S
C726 H712 0.929 . S
C726 C725 1.399 . S
C726 C727 1.385 . S
C727 H713 0.931 . S
C727 C726 1.385 . S
C727 C728 1.389 . S
C728 C727 1.389 . S
C728 C729 1.387 . S
C729 H714 0.930 . S
C729 C724 1.390 . S
C729 C728 1.387 . S
H730 C742 0.930 . S
H731 C744 0.930 . S
H732 C745 0.930 . S
H733 C749 0.959 . S
H734 C749 0.959 . S
H735 C749 0.961 . S
H736 C750 0.960 . S
H737 C750 0.961 . S
H738 C750 0.959 . S
H739 C753 0.929 . S
H740 C754 0.931 . S
H741 C756 0.930 . S
C742 H730 0.930 . S
C742 C743 1.399 . S
C742 C747 1.399 . S
C743 C742 1.399 . S
C743 C744 1.376 . S
C744 H731 0.930 . S
C744 C743 1.376 . S
C744 C745 1.388 . S
C745 H732 0.930 . S
C745 C744 1.388 . S
C745 C746 1.390 . S
C746 C745 1.390 . S
C746 C747 1.394 . S
C746 C752 1.465 . S
C747 C742 1.399 . S
C747 C746 1.394 . S
C747 C748 1.516 . S
C748 C747 1.516 . S
C748 C749 1.502 . S
C748 C750 1.561 . S
C748 C751 1.526 . S
C749 H733 0.959 . S
C749 H734 0.959 . S
C749 H735 0.961 . S
C749 C748 1.502 . S
C750 H736 0.960 . S
C750 H737 0.961 . S
C750 H738 0.959 . S
C750 C748 1.561 . S
C751 C748 1.526 . S
C751 C752 1.396 . S
C751 C756 1.390 . S
C752 C746 1.465 . S
C752 C751 1.396 . S
C752 C753 1.399 . S
C753 H739 0.929 . S
C753 C752 1.399 . S
C753 C754 1.385 . S
C754 H740 0.931 . S
C754 C753 1.385 . S
C754 C755 1.389 . S
C755 C754 1.389 . S
C755 C756 1.387 . S
C756 H741 0.930 . S
C756 C751 1.390 . S
C756 C755 1.387 . S
H757 C769 0.930 . S
H758 C771 0.930 . S
H759 C772 0.930 . S
H760 C776 0.959 . S
H761 C776 0.959 . S
H762 C776 0.961 . S
H763 C777 0.960 . S
H764 C777 0.961 . S
H765 C777 0.959 . S
H766 C780 0.929 . S
H767 C781 0.931 . S
H768 C783 0.930 . S
C769 H757 0.930 . S
C769 C770 1.399 . S
C769 C774 1.399 . S
C770 C769 1.399 . S
C770 C771 1.376 . S
C771 H758 0.930 . S
C771 C770 1.376 . S
C771 C772 1.388 . S
C772 H759 0.930 . S
C772 C771 1.388 . S
C772 C773 1.390 . S
C773 C772 1.390 . S
C773 C774 1.394 . S
C773 C779 1.465 . S
C774 C769 1.399 . S
C774 C773 1.394 . S
C774 C775 1.516 . S
C775 C774 1.516 . S
C775 C776 1.502 . S
C775 C777 1.561 . S
C775 C778 1.526 . S
C776 H760 0.959 . S
C776 H761 0.959 . S
C776 H762 0.961 . S
C776 C775 1.502 . S
C777 H763 0.960 . S
C777 H764 0.961 . S
C777 H765 0.959 . S
C777 C775 1.561 . S
C778 C775 1.526 . S
C778 C779 1.396 . S
C778 C783 1.390 . S
C779 C773 1.465 . S
C779 C778 1.396 . S
C779 C780 1.399 . S
C780 H766 0.929 . S
C780 C779 1.399 . S
C780 C781 1.385 . S
C781 H767 0.931 . S
C781 C780 1.385 . S
C781 C782 1.389 . S
C782 C781 1.389 . S
C782 C783 1.387 . S
C783 H768 0.930 . S
C783 C778 1.390 . S
C783 C782 1.387 . S
H784 C796 0.930 . S
H785 C798 0.930 . S
H786 C799 0.930 . S
H787 C803 0.959 . S
H788 C803 0.959 . S
H789 C803 0.961 . S
H790 C804 0.960 . S
H791 C804 0.961 . S
H792 C804 0.959 . S
H793 C807 0.929 . S
H794 C808 0.931 . S
H795 C810 0.930 . S
C796 H784 0.930 . S
C796 C797 1.399 . S
C796 C801 1.399 . S
C797 C796 1.399 . S
C797 C798 1.376 . S
C798 H785 0.930 . S
C798 C797 1.376 . S
C798 C799 1.388 . S
C799 H786 0.930 . S
C799 C798 1.388 . S
C799 C800 1.390 . S
C800 C799 1.390 . S
C800 C801 1.394 . S
C800 C806 1.465 . S
C801 C796 1.399 . S
C801 C800 1.394 . S
C801 C802 1.516 . S
C802 C801 1.516 . S
C802 C803 1.502 . S
C802 C804 1.561 . S
C802 C805 1.526 . S
C803 H787 0.959 . S
C803 H788 0.959 . S
C803 H789 0.961 . S
C803 C802 1.502 . S
C804 H790 0.960 . S
C804 H791 0.961 . S
C804 H792 0.959 . S
C804 C802 1.561 . S
C805 C802 1.526 . S
C805 C806 1.396 . S
C805 C810 1.390 . S
C806 C800 1.465 . S
C806 C805 1.396 . S
C806 C807 1.399 . S
C807 H793 0.929 . S
C807 C806 1.399 . S
C807 C808 1.385 . S
C808 H794 0.931 . S
C808 C807 1.385 . S
C808 C809 1.389 . S
C809 C808 1.389 . S
C809 C810 1.387 . S
C810 H795 0.930 . S
C810 C805 1.390 . S
C810 C809 1.387 . S
H811 C823 0.930 . S
H812 C825 0.930 . S
H813 C826 0.930 . S
H814 C830 0.959 . S
H815 C830 0.959 . S
H816 C830 0.961 . S
H817 C831 0.960 . S
H818 C831 0.961 . S
H819 C831 0.959 . S
H820 C834 0.929 . S
H821 C835 0.931 . S
H822 C837 0.930 . S
C823 H811 0.930 . S
C823 C824 1.399 . S
C823 C828 1.399 . S
C824 C823 1.399 . S
C824 C825 1.376 . S
C825 H812 0.930 . S
C825 C824 1.376 . S
C825 C826 1.388 . S
C826 H813 0.930 . S
C826 C825 1.388 . S
C826 C827 1.390 . S
C827 C826 1.390 . S
C827 C828 1.394 . S
C827 C833 1.465 . S
C828 C823 1.399 . S
C828 C827 1.394 . S
C828 C829 1.516 . S
C829 C828 1.516 . S
C829 C830 1.502 . S
C829 C831 1.561 . S
C829 C832 1.526 . S
C830 H814 0.959 . S
C830 H815 0.959 . S
C830 H816 0.961 . S
C830 C829 1.502 . S
C831 H817 0.960 . S
C831 H818 0.961 . S
C831 H819 0.959 . S
C831 C829 1.561 . S
C832 C829 1.526 . S
C832 C833 1.396 . S
C832 C837 1.390 . S
C833 C827 1.465 . S
C833 C832 1.396 . S
C833 C834 1.399 . S
C834 H820 0.929 . S
C834 C833 1.399 . S
C834 C835 1.385 . S
C835 H821 0.931 . S
C835 C834 1.385 . S
C835 C836 1.389 . S
C836 C835 1.389 . S
C836 C837 1.387 . S
C837 H822 0.930 . S
C837 C832 1.390 . S
C837 C836 1.387 . S
H838 C850 0.930 . S
H839 C852 0.930 . S
H840 C853 0.930 . S
H841 C857 0.959 . S
H842 C857 0.959 . S
H843 C857 0.961 . S
H844 C858 0.960 . S
H845 C858 0.961 . S
H846 C858 0.959 . S
H847 C861 0.929 . S
H848 C862 0.931 . S
H849 C864 0.930 . S
C850 H838 0.930 . S
C850 C851 1.399 . S
C850 C855 1.399 . S
C851 C850 1.399 . S
C851 C852 1.376 . S
C852 H839 0.930 . S
C852 C851 1.376 . S
C852 C853 1.388 . S
C853 H840 0.930 . S
C853 C852 1.388 . S
C853 C854 1.390 . S
C854 C853 1.390 . S
C854 C855 1.394 . S
C854 C860 1.465 . S
C855 C850 1.399 . S
C855 C854 1.394 . S
C855 C856 1.516 . S
C856 C855 1.516 . S
C856 C857 1.502 . S
C856 C858 1.561 . S
C856 C859 1.526 . S
C857 H841 0.959 . S
C857 H842 0.959 . S
C857 H843 0.961 . S
C857 C856 1.502 . S
C858 H844 0.960 . S
C858 H845 0.961 . S
C858 H846 0.959 . S
C858 C856 1.561 . S
C859 C856 1.526 . S
C859 C860 1.396 . S
C859 C864 1.390 . S
C860 C854 1.465 . S
C860 C859 1.396 . S
C860 C861 1.399 . S
C861 H847 0.929 . S
C861 C860 1.399 . S
C861 C862 1.385 . S
C862 H848 0.931 . S
C862 C861 1.385 . S
C862 C863 1.389 . S
C863 C862 1.389 . S
C863 C864 1.387 . S
C864 H849 0.930 . S
C864 C859 1.390 . S
C864 C863 1.387 . S
H865 C877 0.930 . S
H866 C879 0.930 . S
H867 C880 0.930 . S
H868 C884 0.959 . S
H869 C884 0.959 . S
H870 C884 0.961 . S
H871 C885 0.960 . S
H872 C885 0.961 . S
H873 C885 0.959 . S
H874 C888 0.929 . S
H875 C889 0.931 . S
H876 C891 0.930 . S
C877 H865 0.930 . S
C877 C878 1.399 . S
C877 C882 1.399 . S
C878 C877 1.399 . S
C878 C879 1.376 . S
C879 H866 0.930 . S
C879 C878 1.376 . S
C879 C880 1.388 . S
C880 H867 0.930 . S
C880 C879 1.388 . S
C880 C881 1.390 . S
C881 C880 1.390 . S
C881 C882 1.394 . S
C881 C887 1.465 . S
C882 C877 1.399 . S
C882 C881 1.394 . S
C882 C883 1.516 . S
C883 C882 1.516 . S
C883 C884 1.502 . S
C883 C885 1.561 . S
C883 C886 1.526 . S
C884 H868 0.959 . S
C884 H869 0.959 . S
C884 H870 0.961 . S
C884 C883 1.502 . S
C885 H871 0.960 . S
C885 H872 0.961 . S
C885 H873 0.959 . S
C885 C883 1.561 . S
C886 C883 1.526 . S
C886 C887 1.396 . S
C886 C891 1.390 . S
C887 C881 1.465 . S
C887 C886 1.396 . S
C887 C888 1.399 . S
C888 H874 0.929 . S
C888 C887 1.399 . S
C888 C889 1.385 . S
C889 H875 0.931 . S
C889 C888 1.385 . S
C889 C890 1.389 . S
C890 C889 1.389 . S
C890 C891 1.387 . S
C891 H876 0.930 . S
C891 C886 1.390 . S
C891 C890 1.387 . S
H892 C904 0.930 . S
H893 C906 0.930 . S
H894 C907 0.930 . S
H895 C911 0.959 . S
H896 C911 0.959 . S
H897 C911 0.961 . S
H898 C912 0.960 . S
H899 C912 0.961 . S
H900 C912 0.959 . S
H901 C915 0.929 . S
H902 C916 0.931 . S
H903 C918 0.930 . S
C904 H892 0.930 . S
C904 C905 1.399 . S
C904 C909 1.399 . S
C905 C904 1.399 . S
C905 C906 1.376 . S
C906 H893 0.930 . S
C906 C905 1.376 . S
C906 C907 1.388 . S
C907 H894 0.930 . S
C907 C906 1.388 . S
C907 C908 1.390 . S
C908 C907 1.390 . S
C908 C909 1.394 . S
C908 C914 1.465 . S
C909 C904 1.399 . S
C909 C908 1.394 . S
C909 C910 1.516 . S
C910 C909 1.516 . S
C910 C911 1.502 . S
C910 C912 1.561 . S
C910 C913 1.526 . S
C911 H895 0.959 . S
C911 H896 0.959 . S
C911 H897 0.961 . S
C911 C910 1.502 . S
C912 H898 0.960 . S
C912 H899 0.961 . S
C912 H900 0.959 . S
C912 C910 1.561 . S
C913 C910 1.526 . S
C913 C914 1.396 . S
C913 C918 1.390 . S
C914 C908 1.465 . S
C914 C913 1.396 . S
C914 C915 1.399 . S
C915 H901 0.929 . S
C915 C914 1.399 . S
C915 C916 1.385 . S
C916 H902 0.931 . S
C916 C915 1.385 . S
C916 C917 1.389 . S
C917 C916 1.389 . S
C917 C918 1.387 . S
C918 H903 0.930 . S
C918 C913 1.390 . S
C918 C917 1.387 . S
H919 C931 0.930 . S
H920 C933 0.930 . S
H921 C934 0.930 . S
H922 C938 0.959 . S
H923 C938 0.959 . S
H924 C938 0.961 . S
H925 C939 0.960 . S
H926 C939 0.961 . S
H927 C939 0.959 . S
H928 C942 0.929 . S
H929 C943 0.931 . S
H930 C945 0.930 . S
C931 H919 0.930 . S
C931 C932 1.399 . S
C931 C936 1.399 . S
C932 C931 1.399 . S
C932 C933 1.376 . S
C933 H920 0.930 . S
C933 C932 1.376 . S
C933 C934 1.388 . S
C934 H921 0.930 . S
C934 C933 1.388 . S
C934 C935 1.390 . S
C935 C934 1.390 . S
C935 C936 1.394 . S
C935 C941 1.465 . S
C936 C931 1.399 . S
C936 C935 1.394 . S
C936 C937 1.516 . S
C937 C936 1.516 . S
C937 C938 1.502 . S
C937 C939 1.561 . S
C937 C940 1.526 . S
C938 H922 0.959 . S
C938 H923 0.959 . S
C938 H924 0.961 . S
C938 C937 1.502 . S
C939 H925 0.960 . S
C939 H926 0.961 . S
C939 H927 0.959 . S
C939 C937 1.561 . S
C940 C937 1.526 . S
C940 C941 1.396 . S
C940 C945 1.390 . S
C941 C935 1.465 . S
C941 C940 1.396 . S
C941 C942 1.399 . S
C942 H928 0.929 . S
C942 C941 1.399 . S
C942 C943 1.385 . S
C943 H929 0.931 . S
C943 C942 1.385 . S
C943 C944 1.389 . S
C944 C943 1.389 . S
C944 C945 1.387 . S
C945 H930 0.930 . S
C945 C940 1.390 . S
C945 C944 1.387 . S
H946 C958 0.930 . S
H947 C960 0.930 . S
H948 C961 0.930 . S
H949 C965 0.959 . S
H950 C965 0.959 . S
H951 C965 0.961 . S
H952 C966 0.960 . S
H953 C966 0.961 . S
H954 C966 0.959 . S
H955 C969 0.929 . S
H956 C970 0.931 . S
H957 C972 0.930 . S
C958 H946 0.930 . S
C958 C959 1.399 . S
C958 C963 1.399 . S
C959 C958 1.399 . S
C959 C960 1.376 . S
C960 H947 0.930 . S
C960 C959 1.376 . S
C960 C961 1.388 . S
C961 H948 0.930 . S
C961 C960 1.388 . S
C961 C962 1.390 . S
C962 C961 1.390 . S
C962 C963 1.394 . S
C962 C968 1.465 . S
C963 C958 1.399 . S
C963 C962 1.394 . S
C963 C964 1.516 . S
C964 C963 1.516 . S
C964 C965 1.502 . S
C964 C966 1.561 . S
C964 C967 1.526 . S
C965 H949 0.959 . S
C965 H950 0.959 . S
C965 H951 0.961 . S
C965 C964 1.502 . S
C966 H952 0.960 . S
C966 H953 0.961 . S
C966 H954 0.959 . S
C966 C964 1.561 . S
C967 C964 1.526 . S
C967 C968 1.396 . S
C967 C972 1.390 . S
C968 C962 1.465 . S
C968 C967 1.396 . S
C968 C969 1.399 . S
C969 H955 0.929 . S
C969 C968 1.399 . S
C969 C970 1.385 . S
C970 H956 0.931 . S
C970 C969 1.385 . S
C970 C971 1.389 . S
C971 C970 1.389 . S
C971 C972 1.387 . S
C972 H957 0.930 . S
C972 C967 1.390 . S
C972 C971 1.387 . S
H973 C985 0.930 . S
H974 C987 0.930 . S
H975 C988 0.930 . S
H976 C992 0.959 . S
H977 C992 0.959 . S
H978 C992 0.961 . S
H979 C993 0.960 . S
H980 C993 0.961 . S
H981 C993 0.959 . S
H982 C996 0.929 . S
H983 C997 0.931 . S
H984 C999 0.930 . S
C985 H973 0.930 . S
C985 C986 1.399 . S
C985 C990 1.399 . S
C986 C985 1.399 . S
C986 C987 1.376 . S
C987 H974 0.930 . S
C987 C986 1.376 . S
C987 C988 1.388 . S
C988 H975 0.930 . S
C988 C987 1.388 . S
C988 C989 1.390 . S
C989 C988 1.390 . S
C989 C990 1.394 . S
C989 C995 1.465 . S
C990 C985 1.399 . S
C990 C989 1.394 . S
C990 C991 1.516 . S
C991 C990 1.516 . S
C991 C992 1.502 . S
C991 C993 1.561 . S
C991 C994 1.526 . S
C992 H976 0.959 . S
C992 H977 0.959 . S
C992 H978 0.961 . S
C992 C991 1.502 . S
C993 H979 0.960 . S
C993 H980 0.961 . S
C993 H981 0.959 . S
C993 C991 1.561 . S
C994 C991 1.526 . S
C994 C995 1.396 . S
C994 C999 1.390 . S
C995 C989 1.465 . S
C995 C994 1.396 . S
C995 C996 1.399 . S
C996 H982 0.929 . S
C996 C995 1.399 . S
C996 C997 1.385 . S
C997 H983 0.931 . S
C997 C996 1.385 . S
C997 C998 1.389 . S
C998 C997 1.389 . S
C998 C999 1.387 . S
C999 H984 0.930 . S
C999 C994 1.390 . S
C999 C998 1.387 . S
H1000 C1012 0.930 . S
H1001 C1014 0.943 . S
H1002 C1015 0.930 1_556 S
H1003 C1019 0.962 . S
H1004 C1019 0.979 . S
H1005 C1019 0.939 1_455 S
H1006 C1020 0.958 1_455 S
H1007 C1020 0.963 . S
H1008 C1020 0.959 . S
H1009 C1023 0.929 1_556 S
H1010 C1024 0.931 . S
H1011 C1026 0.930 . S
C1012 H1000 0.930 . S
C1012 C1013 1.399 . S
C1012 C1017 1.399 . S
C1013 C1012 1.399 . S
C1013 C1014 1.376 . S
C1014 H1001 0.943 . S
C1014 C1013 1.376 . S
C1014 C1015 1.388 . S
C1015 H1002 0.930 1_554 S
C1015 C1014 1.388 . S
C1015 C1016 1.390 . S
C1016 C1015 1.390 . S
C1016 C1017 1.394 . S
C1016 C1022 1.465 1_455 S
C1017 C1012 1.399 . S
C1017 C1016 1.394 . S
C1017 C1018 1.517 1_455 S
C1018 C1017 1.517 1_655 S
C1018 C1019 1.502 . S
C1018 C1020 1.561 . S
C1018 C1021 1.525 . S
C1019 H1003 0.962 . S
C1019 H1004 0.979 . S
C1019 H1005 0.939 1_655 S
C1019 C1018 1.502 . S
C1020 H1006 0.958 1_655 S
C1020 H1007 0.963 . S
C1020 H1008 0.959 . S
C1020 C1018 1.561 . S
C1021 C1018 1.525 . S
C1021 C1022 1.396 . S
C1021 C1026 1.390 . S
C1022 C1016 1.465 1_655 S
C1022 C1021 1.396 . S
C1022 C1023 1.399 . S
C1023 H1009 0.929 1_554 S
C1023 C1022 1.399 . S
C1023 C1024 1.385 . S
C1024 H1010 0.931 . S
C1024 C1023 1.385 . S
C1024 C1025 1.389 . S
C1025 C1024 1.389 . S
C1025 C1026 1.387 . S
C1026 H1011 0.930 . S
C1026 C1021 1.390 . S
C1026 C1025 1.387 . S
H1027 C1039 0.930 . S
H1028 C1041 0.930 . S
H1029 C1042 0.930 . S
H1030 C1046 0.959 . S
H1031 C1046 0.959 . S
H1032 C1046 0.961 . S
H1033 C1047 0.960 . S
H1034 C1047 0.961 . S
H1035 C1047 0.959 . S
H1036 C1050 0.929 . S
H1037 C1051 0.931 . S
H1038 C1053 0.930 . S
C1039 H1027 0.930 . S
C1039 C1040 1.399 . S
C1039 C1044 1.399 . S
C1040 C1039 1.399 . S
C1040 C1041 1.376 . S
C1041 H1028 0.930 . S
C1041 C1040 1.376 . S
C1041 C1042 1.388 . S
C1042 H1029 0.930 . S
C1042 C1041 1.388 . S
C1042 C1043 1.390 . S
C1043 C1042 1.390 . S
C1043 C1044 1.394 . S
C1043 C1049 1.465 . S
C1044 C1039 1.399 . S
C1044 C1043 1.394 . S
C1044 C1045 1.516 . S
C1045 C1044 1.516 . S
C1045 C1046 1.502 . S
C1045 C1047 1.561 . S
C1045 C1048 1.526 . S
C1046 H1030 0.959 . S
C1046 H1031 0.959 . S
C1046 H1032 0.961 . S
C1046 C1045 1.502 . S
C1047 H1033 0.960 . S
C1047 H1034 0.961 . S
C1047 H1035 0.959 . S
C1047 C1045 1.561 . S
C1048 C1045 1.526 . S
C1048 C1049 1.396 . S
C1048 C1053 1.390 . S
C1049 C1043 1.465 . S
C1049 C1048 1.396 . S
C1049 C1050 1.399 . S
C1050 H1036 0.929 . S
C1050 C1049 1.399 . S
C1050 C1051 1.385 . S
C1051 H1037 0.931 . S
C1051 C1050 1.385 . S
C1051 C1052 1.389 . S
C1052 C1051 1.389 . S
C1052 C1053 1.387 . S
C1053 H1038 0.930 . S
C1053 C1048 1.390 . S
C1053 C1052 1.387 . S
H1054 C1066 0.930 . S
H1055 C1068 0.930 . S
H1056 C1069 0.930 . S
H1057 C1073 0.962 . S
H1058 C1073 0.979 1_554 S
H1059 C1073 0.939 1_655 S
H1060 C1074 0.958 1_655 S
H1061 C1074 0.963 . S
H1062 C1074 0.959 . S
H1063 C1077 0.929 . S
H1064 C1078 0.931 . S
H1065 C1080 0.930 . S
C1066 H1054 0.930 . S
C1066 C1067 1.399 . S
C1066 C1071 1.399 . S
C1067 C1066 1.399 . S
C1067 C1068 1.376 . S
C1068 H1055 0.930 . S
C1068 C1067 1.376 . S
C1068 C1069 1.388 . S
C1069 H1056 0.930 . S
C1069 C1068 1.388 . S
C1069 C1070 1.390 . S
C1070 C1069 1.390 . S
C1070 C1071 1.394 . S
C1070 C1076 1.465 1_655 S
C1071 C1066 1.399 . S
C1071 C1070 1.394 . S
C1071 C1072 1.517 1_655 S
C1072 C1071 1.517 1_455 S
C1072 C1073 1.502 . S
C1072 C1074 1.561 1_556 S
C1072 C1075 1.525 . S
C1073 H1057 0.962 . S
C1073 H1058 0.979 1_556 S
C1073 H1059 0.939 1_455 S
C1073 C1072 1.502 . S
C1074 H1060 0.958 1_455 S
C1074 H1061 0.963 . S
C1074 H1062 0.959 . S
C1074 C1072 1.561 1_554 S
C1075 C1072 1.525 . S
C1075 C1076 1.396 . S
C1075 C1080 1.390 . S
C1076 C1070 1.465 1_455 S
C1076 C1075 1.396 . S
C1076 C1077 1.399 . S
C1077 H1063 0.929 . S
C1077 C1076 1.399 . S
C1077 C1078 1.385 . S
C1078 H1064 0.931 . S
C1078 C1077 1.385 . S
C1078 C1079 1.389 . S
C1079 C1078 1.389 . S
C1079 C1080 1.387 . S
C1080 H1065 0.930 . S
C1080 C1075 1.390 . S
C1080 C1079 1.387 . S
H1081 C1093 0.930 . S
H1082 C1095 0.930 . S
H1083 C1096 0.930 . S
H1084 C1100 0.959 . S
H1085 C1100 0.959 . S
H1086 C1100 0.961 . S
H1087 C1101 0.960 . S
H1088 C1101 0.961 . S
H1089 C1101 0.959 . S
H1090 C1104 0.929 . S
H1091 C1105 0.931 . S
H1092 C1107 0.930 . S
C1093 H1081 0.930 . S
C1093 C1094 1.399 . S
C1093 C1098 1.399 . S
C1094 C1093 1.399 . S
C1094 C1095 1.376 . S
C1095 H1082 0.930 . S
C1095 C1094 1.376 . S
C1095 C1096 1.388 . S
C1096 H1083 0.930 . S
C1096 C1095 1.388 . S
C1096 C1097 1.390 . S
C1097 C1096 1.390 . S
C1097 C1098 1.394 . S
C1097 C1103 1.465 . S
C1098 C1093 1.399 . S
C1098 C1097 1.394 . S
C1098 C1099 1.516 . S
C1099 C1098 1.516 . S
C1099 C1100 1.502 . S
C1099 C1101 1.561 . S
C1099 C1102 1.526 . S
C1100 H1084 0.959 . S
C1100 H1085 0.959 . S
C1100 H1086 0.961 . S
C1100 C1099 1.502 . S
C1101 H1087 0.960 . S
C1101 H1088 0.961 . S
C1101 H1089 0.959 . S
C1101 C1099 1.561 . S
C1102 C1099 1.526 . S
C1102 C1103 1.396 . S
C1102 C1107 1.390 . S
C1103 C1097 1.465 . S
C1103 C1102 1.396 . S
C1103 C1104 1.399 . S
C1104 H1090 0.929 . S
C1104 C1103 1.399 . S
C1104 C1105 1.385 . S
C1105 H1091 0.931 . S
C1105 C1104 1.385 . S
C1105 C1106 1.389 . S
C1106 C1105 1.389 . S
C1106 C1107 1.387 . S
C1107 H1092 0.930 . S
C1107 C1102 1.390 . S
C1107 C1106 1.387 . S
H1108 C1120 0.930 . S
H1109 C1122 0.930 . S
H1110 C1123 0.930 . S
H1111 C1127 0.959 . S
H1112 C1127 0.959 . S
H1113 C1127 0.961 . S
H1114 C1128 0.960 . S
H1115 C1128 0.961 . S
H1116 C1128 0.959 . S
H1117 C1131 0.929 . S
H1118 C1132 0.931 . S
H1119 C1134 0.930 . S
C1120 H1108 0.930 . S
C1120 C1121 1.399 . S
C1120 C1125 1.399 . S
C1121 C1120 1.399 . S
C1121 C1122 1.376 . S
C1122 H1109 0.930 . S
C1122 C1121 1.376 . S
C1122 C1123 1.388 . S
C1123 H1110 0.930 . S
C1123 C1122 1.388 . S
C1123 C1124 1.390 . S
C1124 C1123 1.390 . S
C1124 C1125 1.394 . S
C1124 C1130 1.465 . S
C1125 C1120 1.399 . S
C1125 C1124 1.394 . S
C1125 C1126 1.516 . S
C1126 C1125 1.516 . S
C1126 C1127 1.502 . S
C1126 C1128 1.561 1_554 S
C1126 C1129 1.526 . S
C1127 H1111 0.959 . S
C1127 H1112 0.959 . S
C1127 H1113 0.961 . S
C1127 C1126 1.502 . S
C1128 H1114 0.960 . S
C1128 H1115 0.961 . S
C1128 H1116 0.959 . S
C1128 C1126 1.561 1_556 S
C1129 C1126 1.526 . S
C1129 C1130 1.396 . S
C1129 C1134 1.390 . S
C1130 C1124 1.465 . S
C1130 C1129 1.396 . S
C1130 C1131 1.399 . S
C1131 H1117 0.929 . S
C1131 C1130 1.399 . S
C1131 C1132 1.385 . S
C1132 H1118 0.931 . S
C1132 C1131 1.385 . S
C1132 C1133 1.389 . S
C1133 C1132 1.389 . S
C1133 C1134 1.387 . S
C1134 H1119 0.930 . S
C1134 C1129 1.390 . S
C1134 C1133 1.387 . S
H1135 C1147 0.930 . S
H1136 C1149 0.930 . S
H1137 C1150 0.930 . S
H1138 C1154 0.962 . S
H1139 C1154 0.979 . S
H1140 C1154 0.939 1_655 S
H1141 C1155 0.958 1_655 S
H1142 C1155 0.963 . S
H1143 C1155 0.959 . S
H1144 C1158 0.929 . S
H1145 C1159 0.931 . S
H1146 C1161 0.930 . S
C1147 H1135 0.930 . S
C1147 C1148 1.399 . S
C1147 C1152 1.399 . S
C1148 C1147 1.399 . S
C1148 C1149 1.376 . S
C1149 H1136 0.930 . S
C1149 C1148 1.376 . S
C1149 C1150 1.388 . S
C1150 H1137 0.930 . S
C1150 C1149 1.388 . S
C1150 C1151 1.390 . S
C1151 C1150 1.390 . S
C1151 C1152 1.394 . S
C1151 C1157 1.465 1_655 S
C1152 C1147 1.399 . S
C1152 C1151 1.394 . S
C1152 C1153 1.517 1_655 S
C1153 C1152 1.517 1_455 S
C1153 C1154 1.502 . S
C1153 C1155 1.561 . S
C1153 C1156 1.525 . S
C1154 H1138 0.962 . S
C1154 H1139 0.979 . S
C1154 H1140 0.939 1_455 S
C1154 C1153 1.502 . S
C1155 H1141 0.958 1_455 S
C1155 H1142 0.963 . S
C1155 H1143 0.959 . S
C1155 C1153 1.561 . S
C1156 C1153 1.525 . S
C1156 C1157 1.396 . S
C1156 C1161 1.390 . S
C1157 C1151 1.465 1_455 S
C1157 C1156 1.396 . S
C1157 C1158 1.399 . S
C1158 H1144 0.929 . S
C1158 C1157 1.399 . S
C1158 C1159 1.385 . S
C1159 H1145 0.931 . S
C1159 C1158 1.385 . S
C1159 C1160 1.389 . S
C1160 C1159 1.389 . S
C1160 C1161 1.387 . S
C1161 H1146 0.930 . S
C1161 C1156 1.390 . S
C1161 C1160 1.387 . S
H1162 C1174 0.930 . S
H1163 C1176 0.930 . S
H1164 C1177 0.930 . S
H1165 C1181 0.959 1_556 S
H1166 C1181 0.959 . S
H1167 C1181 0.961 . S
H1168 C1182 0.960 . S
H1169 C1182 0.961 . S
H1170 C1182 0.959 1_556 S
H1171 C1185 0.929 . S
H1172 C1186 0.931 . S
H1173 C1188 0.930 . S
C1174 H1162 0.930 . S
C1174 C1175 1.399 . S
C1174 C1179 1.399 . S
C1175 C1174 1.399 . S
C1175 C1176 1.376 . S
C1176 H1163 0.930 . S
C1176 C1175 1.376 . S
C1176 C1177 1.388 . S
C1177 H1164 0.930 . S
C1177 C1176 1.388 . S
C1177 C1178 1.390 . S
C1178 C1177 1.390 . S
C1178 C1179 1.394 . S
C1178 C1184 1.465 . S
C1179 C1174 1.399 . S
C1179 C1178 1.394 . S
C1179 C1180 1.516 . S
C1180 C1179 1.516 . S
C1180 C1181 1.502 1_556 S
C1180 C1182 1.561 1_556 S
C1180 C1183 1.526 . S
C1181 H1165 0.959 1_554 S
C1181 H1166 0.959 . S
C1181 H1167 0.961 . S
C1181 C1180 1.502 1_554 S
C1182 H1168 0.960 . S
C1182 H1169 0.961 . S
C1182 H1170 0.959 1_554 S
C1182 C1180 1.561 1_554 S
C1183 C1180 1.526 . S
C1183 C1184 1.396 . S
C1183 C1188 1.390 . S
C1184 C1178 1.465 . S
C1184 C1183 1.396 . S
C1184 C1185 1.399 . S
C1185 H1171 0.929 . S
C1185 C1184 1.399 . S
C1185 C1186 1.385 . S
C1186 H1172 0.931 . S
C1186 C1185 1.385 . S
C1186 C1187 1.389 . S
C1187 C1186 1.389 . S
C1187 C1188 1.387 . S
C1188 H1173 0.930 . S
C1188 C1183 1.390 . S
C1188 C1187 1.387 . S
H1189 C1201 0.930 . S
H1190 C1203 0.930 . S
H1191 C1204 0.930 . S
H1192 C1208 0.962 . S
H1193 C1208 0.979 . S
H1194 C1208 0.939 1_455 S
H1195 C1209 0.958 1_455 S
H1196 C1209 0.963 . S
H1197 C1209 0.959 . S
H1198 C1212 0.929 . S
H1199 C1213 0.931 . S
H1200 C1215 0.930 . S
C1201 H1189 0.930 . S
C1201 C1202 1.399 . S
C1201 C1206 1.399 . S
C1202 C1201 1.399 . S
C1202 C1203 1.376 . S
C1203 H1190 0.930 . S
C1203 C1202 1.376 . S
C1203 C1204 1.388 . S
C1204 H1191 0.930 . S
C1204 C1203 1.388 . S
C1204 C1205 1.390 . S
C1205 C1204 1.390 . S
C1205 C1206 1.394 . S
C1205 C1211 1.465 1_455 S
C1206 C1201 1.399 . S
C1206 C1205 1.394 . S
C1206 C1207 1.517 1_455 S
C1207 C1206 1.517 1_655 S
C1207 C1208 1.502 . S
C1207 C1209 1.561 . S
C1207 C1210 1.525 . S
C1208 H1192 0.962 . S
C1208 H1193 0.979 . S
C1208 H1194 0.939 1_655 S
C1208 C1207 1.502 . S
C1209 H1195 0.958 1_655 S
C1209 H1196 0.963 . S
C1209 H1197 0.959 . S
C1209 C1207 1.561 . S
C1210 C1207 1.525 . S
C1210 C1211 1.396 . S
C1210 C1215 1.390 . S
C1211 C1205 1.465 1_655 S
C1211 C1210 1.396 . S
C1211 C1212 1.399 . S
C1212 H1198 0.929 . S
C1212 C1211 1.399 . S
C1212 C1213 1.385 . S
C1213 H1199 0.931 . S
C1213 C1212 1.385 . S
C1213 C1214 1.389 . S
C1214 C1213 1.389 . S
C1214 C1215 1.387 . S
C1215 H1200 0.930 . S
C1215 C1210 1.390 . S
C1215 C1214 1.387 . S
H1216 C1228 0.930 . S
H1217 C1230 0.930 . S
H1218 C1231 0.930 . S
H1219 C1235 0.959 . S
H1220 C1235 0.959 1_565 S
H1221 C1235 0.961 . S
H1222 C1236 0.960 . S
H1223 C1236 0.973 . S
H1224 C1236 0.959 . S
H1225 C1239 0.929 . S
H1226 C1240 0.931 . S
H1227 C1242 0.930 . S
C1228 H1216 0.930 . S
C1228 C1229 1.399 1_556 S
C1228 C1233 1.399 . S
C1229 C1228 1.399 1_554 S
C1229 C1230 1.376 . S
C1230 H1217 0.930 . S
C1230 C1229 1.376 . S
C1230 C1231 1.388 . S
C1231 H1218 0.930 . S
C1231 C1230 1.388 . S
C1231 C1232 1.390 . S
C1232 C1231 1.390 . S
C1232 C1233 1.394 1_554 S
C1232 C1238 1.465 1_545 S
C1233 C1228 1.399 . S
C1233 C1232 1.394 1_556 S
C1233 C1234 1.516 . S
C1234 C1233 1.516 . S
C1234 C1235 1.502 . S
C1234 C1236 1.561 . S
C1234 C1237 1.526 1_545 S
C1235 H1219 0.959 . S
C1235 H1220 0.959 1_545 S
C1235 H1221 0.961 . S
C1235 C1234 1.502 . S
C1236 H1222 0.960 . S
C1236 H1223 0.973 . S
C1236 H1224 0.959 . S
C1236 C1234 1.561 . S
C1237 C1234 1.526 1_565 S
C1237 C1238 1.396 1_556 S
C1237 C1242 1.390 . S
C1238 C1232 1.465 1_565 S
C1238 C1237 1.396 1_554 S
C1238 C1239 1.399 . S
C1239 H1225 0.929 . S
C1239 C1238 1.399 . S
C1239 C1240 1.385 . S
C1240 H1226 0.931 . S
C1240 C1239 1.385 . S
C1240 C1241 1.389 1_554 S
C1241 C1240 1.389 1_556 S
C1241 C1242 1.387 . S
C1242 H1227 0.930 . S
C1242 C1237 1.390 . S
C1242 C1241 1.387 . S
H1243 C1255 0.930 . S
H1244 C1257 0.930 . S
H1245 C1258 0.930 . S
H1246 C1262 0.959 . S
H1247 C1262 0.959 1_545 S
H1248 C1262 0.961 . S
H1249 C1263 0.960 . S
H1250 C1263 0.964 . S
H1251 C1263 0.959 . S
H1252 C1266 0.929 . S
H1253 C1267 0.931 . S
H1254 C1269 0.930 . S
C1255 H1243 0.930 . S
C1255 C1256 1.399 . S
C1255 C1260 1.399 . S
C1256 C1255 1.399 . S
C1256 C1257 1.376 . S
C1257 H1244 0.930 . S
C1257 C1256 1.376 . S
C1257 C1258 1.388 . S
C1258 H1245 0.930 . S
C1258 C1257 1.388 . S
C1258 C1259 1.390 . S
C1259 C1258 1.390 . S
C1259 C1260 1.394 . S
C1259 C1265 1.465 1_565 S
C1260 C1255 1.399 . S
C1260 C1259 1.394 . S
C1260 C1261 1.516 . S
C1261 C1260 1.516 . S
C1261 C1262 1.502 . S
C1261 C1263 1.561 . S
C1261 C1264 1.526 1_565 S
C1262 H1246 0.959 . S
C1262 H1247 0.959 1_565 S
C1262 H1248 0.961 . S
C1262 C1261 1.502 . S
C1263 H1249 0.960 . S
C1263 H1250 0.964 . S
C1263 H1251 0.959 . S
C1263 C1261 1.561 . S
C1264 C1261 1.526 1_545 S
C1264 C1265 1.396 . S
C1264 C1269 1.390 . S
C1265 C1259 1.465 1_545 S
C1265 C1264 1.396 . S
C1265 C1266 1.399 . S
C1266 H1252 0.929 . S
C1266 C1265 1.399 . S
C1266 C1267 1.385 . S
C1267 H1253 0.931 . S
C1267 C1266 1.385 . S
C1267 C1268 1.389 . S
C1268 C1267 1.389 . S
C1268 C1269 1.387 . S
C1269 H1254 0.930 . S
C1269 C1264 1.390 . S
C1269 C1268 1.387 . S
H1270 C1282 0.930 . S
H1271 C1284 0.930 . S
H1272 C1285 0.930 . S
H1273 C1289 0.959 . S
H1274 C1289 0.959 1_565 S
H1275 C1289 0.961 . S
H1276 C1290 0.960 . S
H1277 C1290 0.974 . S
H1278 C1290 0.959 . S
H1279 C1293 0.929 . S
H1280 C1294 0.931 . S
H1281 C1296 0.930 . S
C1282 H1270 0.930 . S
C1282 C1283 1.399 1_556 S
C1282 C1287 1.399 . S
C1283 C1282 1.399 1_554 S
C1283 C1284 1.376 . S
C1284 H1271 0.930 . S
C1284 C1283 1.376 . S
C1284 C1285 1.388 . S
C1285 H1272 0.930 . S
C1285 C1284 1.388 . S
C1285 C1286 1.390 . S
C1286 C1285 1.390 . S
C1286 C1287 1.394 1_554 S
C1286 C1292 1.465 1_545 S
C1287 C1282 1.399 . S
C1287 C1286 1.394 1_556 S
C1287 C1288 1.516 . S
C1288 C1287 1.516 . S
C1288 C1289 1.502 . S
C1288 C1290 1.561 . S
C1288 C1291 1.526 1_545 S
C1289 H1273 0.959 . S
C1289 H1274 0.959 1_545 S
C1289 H1275 0.961 . S
C1289 C1288 1.502 . S
C1290 H1276 0.960 . S
C1290 H1277 0.974 . S
C1290 H1278 0.959 . S
C1290 C1288 1.561 . S
C1291 C1288 1.526 1_565 S
C1291 C1292 1.396 1_556 S
C1291 C1296 1.390 . S
C1292 C1286 1.465 1_565 S
C1292 C1291 1.396 1_554 S
C1292 C1293 1.399 . S
C1293 H1279 0.929 . S
C1293 C1292 1.399 . S
C1293 C1294 1.385 . S
C1294 H1280 0.931 . S
C1294 C1293 1.385 . S
C1294 C1295 1.389 1_554 S
C1295 C1294 1.389 1_556 S
C1295 C1296 1.387 . S
C1296 H1281 0.930 . S
C1296 C1291 1.390 . S
C1296 C1295 1.387 . S
H1297 C1309 0.930 . S
H1298 C1311 0.930 . S
H1299 C1312 0.930 . S
H1300 C1316 0.959 . S
H1301 C1316 0.959 . S
H1302 C1316 0.961 1_545 S
H1303 C1317 0.960 1_545 S
H1304 C1317 0.961 . S
H1305 C1317 0.959 . S
H1306 C1320 0.929 . S
H1307 C1321 0.931 . S
H1308 C1323 0.930 . S
C1309 H1297 0.930 . S
C1309 C1310 1.399 . S
C1309 C1314 1.399 . S
C1310 C1309 1.399 . S
C1310 C1311 1.376 . S
C1311 H1298 0.930 . S
C1311 C1310 1.376 . S
C1311 C1312 1.388 . S
C1312 H1299 0.930 . S
C1312 C1311 1.388 . S
C1312 C1313 1.390 . S
C1313 C1312 1.390 . S
C1313 C1314 1.394 . S
C1313 C1319 1.465 1_545 S
C1314 C1309 1.399 . S
C1314 C1313 1.394 . S
C1314 C1315 1.516 1_545 S
C1315 C1314 1.516 1_565 S
C1315 C1316 1.502 . S
C1315 C1317 1.561 . S
C1315 C1318 1.526 . S
C1316 H1300 0.959 . S
C1316 H1301 0.959 . S
C1316 H1302 0.961 1_565 S
C1316 C1315 1.502 . S
C1317 H1303 0.960 1_565 S
C1317 H1304 0.961 . S
C1317 H1305 0.959 . S
C1317 C1315 1.561 . S
C1318 C1315 1.526 . S
C1318 C1319 1.396 . S
C1318 C1323 1.390 . S
C1319 C1313 1.465 1_565 S
C1319 C1318 1.396 . S
C1319 C1320 1.399 . S
C1320 H1306 0.929 . S
C1320 C1319 1.399 . S
C1320 C1321 1.385 . S
C1321 H1307 0.931 . S
C1321 C1320 1.385 . S
C1321 C1322 1.389 . S
C1322 C1321 1.389 . S
C1322 C1323 1.387 . S
C1323 H1308 0.930 . S
C1323 C1318 1.390 . S
C1323 C1322 1.387 . S
H1324 C1336 0.930 . S
H1325 C1338 0.930 . S
H1326 C1339 0.930 . S
H1327 C1343 0.959 . S
H1328 C1343 0.959 . S
H1329 C1343 0.961 . S
H1330 C1344 0.960 . S
H1331 C1344 0.961 . S
H1332 C1344 0.959 . S
H1333 C1347 0.929 . S
H1334 C1348 0.931 . S
H1335 C1350 0.930 . S
C1336 H1324 0.930 . S
C1336 C1337 1.399 1_556 S
C1336 C1341 1.399 . S
C1337 C1336 1.399 1_554 S
C1337 C1338 1.376 . S
C1338 H1325 0.930 . S
C1338 C1337 1.376 . S
C1338 C1339 1.388 . S
C1339 H1326 0.930 . S
C1339 C1338 1.388 . S
C1339 C1340 1.390 . S
C1340 C1339 1.390 . S
C1340 C1341 1.394 1_554 S
C1340 C1346 1.465 . S
C1341 C1336 1.399 . S
C1341 C1340 1.394 1_556 S
C1341 C1342 1.516 . S
C1342 C1341 1.516 . S
C1342 C1343 1.502 . S
C1342 C1344 1.561 . S
C1342 C1345 1.526 . S
C1343 H1327 0.959 . S
C1343 H1328 0.959 . S
C1343 H1329 0.961 . S
C1343 C1342 1.502 . S
C1344 H1330 0.960 . S
C1344 H1331 0.961 . S
C1344 H1332 0.959 . S
C1344 C1342 1.561 . S
C1345 C1342 1.526 . S
C1345 C1346 1.396 1_556 S
C1345 C1350 1.390 . S
C1346 C1340 1.465 . S
C1346 C1345 1.396 1_554 S
C1346 C1347 1.399 . S
C1347 H1333 0.929 . S
C1347 C1346 1.399 . S
C1347 C1348 1.385 . S
C1348 H1334 0.931 . S
C1348 C1347 1.385 . S
C1348 C1349 1.389 1_554 S
C1349 C1348 1.389 1_556 S
C1349 C1350 1.387 . S
C1350 H1335 0.930 . S
C1350 C1345 1.390 . S
C1350 C1349 1.387 . S
H1351 C1363 0.930 . S
H1352 C1365 0.930 . S
H1353 C1366 0.930 . S
H1354 C1370 0.959 . S
H1355 C1370 0.959 . S
H1356 C1370 0.961 . S
H1357 C1371 0.960 . S
H1358 C1371 0.961 . S
H1359 C1371 0.959 . S
H1360 C1374 0.929 . S
H1361 C1375 0.931 . S
H1362 C1377 0.930 . S
C1363 H1351 0.930 . S
C1363 C1364 1.399 . S
C1363 C1368 1.399 . S
C1364 C1363 1.399 . S
C1364 C1365 1.376 . S
C1365 H1352 0.930 . S
C1365 C1364 1.376 . S
C1365 C1366 1.388 . S
C1366 H1353 0.930 . S
C1366 C1365 1.388 . S
C1366 C1367 1.390 . S
C1367 C1366 1.390 . S
C1367 C1368 1.394 . S
C1367 C1373 1.465 . S
C1368 C1363 1.399 . S
C1368 C1367 1.394 . S
C1368 C1369 1.516 . S
C1369 C1368 1.516 . S
C1369 C1370 1.502 . S
C1369 C1371 1.561 . S
C1369 C1372 1.526 . S
C1370 H1354 0.959 . S
C1370 H1355 0.959 . S
C1370 H1356 0.961 . S
C1370 C1369 1.502 . S
C1371 H1357 0.960 . S
C1371 H1358 0.961 . S
C1371 H1359 0.959 . S
C1371 C1369 1.561 . S
C1372 C1369 1.526 . S
C1372 C1373 1.396 . S
C1372 C1377 1.390 . S
C1373 C1367 1.465 . S
C1373 C1372 1.396 . S
C1373 C1374 1.399 . S
C1374 H1360 0.929 . S
C1374 C1373 1.399 . S
C1374 C1375 1.385 . S
C1375 H1361 0.931 . S
C1375 C1374 1.385 . S
C1375 C1376 1.389 . S
C1376 C1375 1.389 . S
C1376 C1377 1.387 . S
C1377 H1362 0.930 . S
C1377 C1372 1.390 . S
C1377 C1376 1.387 . S
H1378 C1390 0.930 . S
H1379 C1392 0.930 . S
H1380 C1393 0.930 . S
H1381 C1397 0.959 . S
H1382 C1397 0.959 . S
H1383 C1397 0.961 . S
H1384 C1398 0.960 . S
H1385 C1398 0.961 . S
H1386 C1398 0.959 . S
H1387 C1401 0.929 . S
H1388 C1402 0.931 . S
H1389 C1404 0.930 . S
C1390 H1378 0.930 . S
C1390 C1391 1.399 . S
C1390 C1395 1.399 . S
C1391 C1390 1.399 . S
C1391 C1392 1.376 1_556 S
C1392 H1379 0.930 . S
C1392 C1391 1.376 1_554 S
C1392 C1393 1.388 . S
C1393 H1380 0.930 . S
C1393 C1392 1.388 . S
C1393 C1394 1.390 . S
C1394 C1393 1.390 . S
C1394 C1395 1.394 1_554 S
C1394 C1400 1.465 . S
C1395 C1390 1.399 . S
C1395 C1394 1.394 1_556 S
C1395 C1396 1.516 . S
C1396 C1395 1.516 . S
C1396 C1397 1.502 . S
C1396 C1398 1.561 . S
C1396 C1399 1.526 . S
C1397 H1381 0.959 . S
C1397 H1382 0.959 . S
C1397 H1383 0.961 . S
C1397 C1396 1.502 . S
C1398 H1384 0.960 . S
C1398 H1385 0.961 . S
C1398 H1386 0.959 . S
C1398 C1396 1.561 . S
C1399 C1396 1.526 . S
C1399 C1400 1.396 1_556 S
C1399 C1404 1.390 . S
C1400 C1394 1.465 . S
C1400 C1399 1.396 1_554 S
C1400 C1401 1.399 . S
C1401 H1387 0.929 . S
C1401 C1400 1.399 . S
C1401 C1402 1.385 . S
C1402 H1388 0.931 . S
C1402 C1401 1.385 . S
C1402 C1403 1.389 . S
C1403 C1402 1.389 . S
C1403 C1404 1.387 1_554 S
C1404 H1389 0.930 . S
C1404 C1399 1.390 . S
C1404 C1403 1.387 1_556 S
H1405 C1417 0.930 . S
H1406 C1419 0.930 . S
H1407 C1420 0.930 . S
H1408 C1424 0.959 . S
H1409 C1424 0.959 . S
H1410 C1424 0.961 . S
H1411 C1425 0.960 . S
H1412 C1425 0.961 . S
H1413 C1425 0.959 . S
H1414 C1428 0.929 . S
H1415 C1429 0.931 . S
H1416 C1431 0.930 . S
C1417 H1405 0.930 . S
C1417 C1418 1.399 . S
C1417 C1422 1.399 . S
C1418 C1417 1.399 . S
C1418 C1419 1.376 . S
C1419 H1406 0.930 . S
C1419 C1418 1.376 . S
C1419 C1420 1.388 . S
C1420 H1407 0.930 . S
C1420 C1419 1.388 . S
C1420 C1421 1.390 . S
C1421 C1420 1.390 . S
C1421 C1422 1.394 . S
C1421 C1427 1.465 . S
C1422 C1417 1.399 . S
C1422 C1421 1.394 . S
C1422 C1423 1.516 . S
C1423 C1422 1.516 . S
C1423 C1424 1.502 . S
C1423 C1425 1.561 . S
C1423 C1426 1.526 . S
C1424 H1408 0.959 . S
C1424 H1409 0.959 . S
C1424 H1410 0.961 . S
C1424 C1423 1.502 . S
C1425 H1411 0.960 . S
C1425 H1412 0.961 . S
C1425 H1413 0.959 . S
C1425 C1423 1.561 . S
C1426 C1423 1.526 . S
C1426 C1427 1.396 . S
C1426 C1431 1.390 . S
C1427 C1421 1.465 . S
C1427 C1426 1.396 . S
C1427 C1428 1.399 . S
C1428 H1414 0.929 . S
C1428 C1427 1.399 . S
C1428 C1429 1.385 . S
C1429 H1415 0.931 . S
C1429 C1428 1.385 . S
C1429 C1430 1.389 . S
C1430 C1429 1.389 . S
C1430 C1431 1.387 . S
C1431 H1416 0.930 . S
C1431 C1426 1.390 . S
C1431 C1430 1.387 . S
H1432 C1444 0.930 . S
H1433 C1446 0.930 . S
H1434 C1447 0.930 . S
H1435 C1451 0.959 . S
H1436 C1451 0.959 . S
H1437 C1451 0.961 . S
H1438 C1452 0.960 . S
H1439 C1452 0.961 . S
H1440 C1452 0.959 . S
H1441 C1455 0.929 . S
H1442 C1456 0.931 . S
H1443 C1458 0.930 . S
C1444 H1432 0.930 . S
C1444 C1445 1.399 . S
C1444 C1449 1.399 . S
C1445 C1444 1.399 . S
C1445 C1446 1.376 . S
C1446 H1433 0.930 . S
C1446 C1445 1.376 . S
C1446 C1447 1.388 . S
C1447 H1434 0.930 . S
C1447 C1446 1.388 . S
C1447 C1448 1.390 . S
C1448 C1447 1.390 . S
C1448 C1449 1.394 . S
C1448 C1454 1.465 1_554 S
C1449 C1444 1.399 . S
C1449 C1448 1.394 . S
C1449 C1450 1.516 1_554 S
C1450 C1449 1.516 1_556 S
C1450 C1451 1.502 . S
C1450 C1452 1.561 1_556 S
C1450 C1453 1.526 . S
C1451 H1435 0.959 . S
C1451 H1436 0.959 . S
C1451 H1437 0.961 . S
C1451 C1450 1.502 . S
C1452 H1438 0.960 . S
C1452 H1439 0.961 . S
C1452 H1440 0.959 . S
C1452 C1450 1.561 1_554 S
C1453 C1450 1.526 . S
C1453 C1454 1.396 . S
C1453 C1458 1.390 . S
C1454 C1448 1.465 1_556 S
C1454 C1453 1.396 . S
C1454 C1455 1.399 . S
C1455 H1441 0.929 . S
C1455 C1454 1.399 . S
C1455 C1456 1.385 . S
C1456 H1442 0.931 . S
C1456 C1455 1.385 . S
C1456 C1457 1.389 . S
C1457 C1456 1.389 . S
C1457 C1458 1.387 . S
C1458 H1443 0.930 . S
C1458 C1453 1.390 . S
C1458 C1457 1.387 . S
H1459 C1471 0.930 . S
H1460 C1473 0.930 . S
H1461 C1474 0.930 . S
H1462 C1478 0.959 . S
H1463 C1478 0.959 . S
H1464 C1478 0.961 . S
H1465 C1479 0.960 . S
H1466 C1479 0.961 . S
H1467 C1479 0.959 . S
H1468 C1482 0.929 . S
H1469 C1483 0.931 . S
H1470 C1485 0.930 . S
C1471 H1459 0.930 . S
C1471 C1472 1.399 . S
C1471 C1476 1.399 . S
C1472 C1471 1.399 . S
C1472 C1473 1.376 . S
C1473 H1460 0.930 . S
C1473 C1472 1.376 . S
C1473 C1474 1.388 . S
C1474 H1461 0.930 . S
C1474 C1473 1.388 . S
C1474 C1475 1.390 . S
C1475 C1474 1.390 . S
C1475 C1476 1.394 . S
C1475 C1481 1.465 . S
C1476 C1471 1.399 . S
C1476 C1475 1.394 . S
C1476 C1477 1.516 . S
C1477 C1476 1.516 . S
C1477 C1478 1.502 . S
C1477 C1479 1.561 . S
C1477 C1480 1.526 . S
C1478 H1462 0.959 . S
C1478 H1463 0.959 . S
C1478 H1464 0.961 . S
C1478 C1477 1.502 . S
C1479 H1465 0.960 . S
C1479 H1466 0.961 . S
C1479 H1467 0.959 . S
C1479 C1477 1.561 . S
C1480 C1477 1.526 . S
C1480 C1481 1.396 . S
C1480 C1485 1.390 . S
C1481 C1475 1.465 . S
C1481 C1480 1.396 . S
C1481 C1482 1.399 . S
C1482 H1468 0.929 . S
C1482 C1481 1.399 . S
C1482 C1483 1.385 . S
C1483 H1469 0.931 . S
C1483 C1482 1.385 . S
C1483 C1484 1.389 . S
C1484 C1483 1.389 . S
C1484 C1485 1.387 . S
C1485 H1470 0.930 . S
C1485 C1480 1.390 . S
C1485 C1484 1.387 . S
H1486 C1498 0.930 . S
H1487 C1500 0.930 . S
H1488 C1501 0.930 . S
H1489 C1505 0.959 . S
H1490 C1505 0.959 . S
H1491 C1505 0.961 . S
H1492 C1506 0.960 . S
H1493 C1506 0.961 . S
H1494 C1506 0.959 . S
H1495 C1509 0.929 . S
H1496 C1510 0.931 . S
H1497 C1512 0.930 . S
C1498 H1486 0.930 . S
C1498 C1499 1.399 . S
C1498 C1503 1.404 . S
C1499 C1498 1.399 . S
C1499 C1500 1.376 . S
C1500 H1487 0.930 . S
C1500 C1499 1.376 . S
C1500 C1501 1.388 . S
C1501 H1488 0.930 . S
C1501 C1500 1.388 . S
C1501 C1502 1.390 . S
C1502 C1501 1.390 . S
C1502 C1503 1.400 . S
C1502 C1508 1.469 . S
C1503 C1498 1.404 . S
C1503 C1502 1.400 . S
C1503 C1504 1.506 1_556 S
C1504 C1503 1.506 1_554 S
C1504 C1505 1.502 . S
C1504 C1506 1.561 . S
C1504 C1507 1.526 . S
C1505 H1489 0.959 . S
C1505 H1490 0.959 . S
C1505 H1491 0.961 . S
C1505 C1504 1.502 . S
C1506 H1492 0.960 . S
C1506 H1493 0.961 . S
C1506 H1494 0.959 . S
C1506 C1504 1.561 . S
C1507 C1504 1.526 . S
C1507 C1508 1.389 1_554 S
C1507 C1512 1.390 . S
C1508 C1502 1.469 . S
C1508 C1507 1.389 1_556 S
C1508 C1509 1.401 . S
C1509 H1495 0.929 . S
C1509 C1508 1.401 . S
C1509 C1510 1.385 1_556 S
C1510 H1496 0.931 . S
C1510 C1509 1.385 1_554 S
C1510 C1511 1.389 . S
C1511 C1510 1.389 . S
C1511 C1512 1.387 . S
C1512 H1497 0.930 . S
C1512 C1507 1.390 . S
C1512 C1511 1.387 . S
H1513 C1525 0.930 . S
H1514 C1527 0.930 . S
H1515 C1528 0.930 . S
H1516 C1532 0.959 . S
H1517 C1532 0.959 . S
H1518 C1532 0.961 . S
H1519 C1533 0.960 . S
H1520 C1533 0.961 . S
H1521 C1533 0.959 . S
H1522 C1536 0.929 . S
H1523 C1537 0.931 . S
H1524 C1539 0.930 . S
C1525 H1513 0.930 . S
C1525 C1526 1.399 . S
C1525 C1530 1.399 . S
C1526 C1525 1.399 . S
C1526 C1527 1.376 . S
C1527 H1514 0.930 . S
C1527 C1526 1.376 . S
C1527 C1528 1.388 . S
C1528 H1515 0.930 . S
C1528 C1527 1.388 . S
C1528 C1529 1.390 . S
C1529 C1528 1.390 . S
C1529 C1530 1.394 . S
C1529 C1535 1.465 . S
C1530 C1525 1.399 . S
C1530 C1529 1.394 . S
C1530 C1531 1.516 . S
C1531 C1530 1.516 . S
C1531 C1532 1.502 . S
C1531 C1533 1.561 . S
C1531 C1534 1.526 . S
C1532 H1516 0.959 . S
C1532 H1517 0.959 . S
C1532 H1518 0.961 . S
C1532 C1531 1.502 . S
C1533 H1519 0.960 . S
C1533 H1520 0.961 . S
C1533 H1521 0.959 . S
C1533 C1531 1.561 . S
C1534 C1531 1.526 . S
C1534 C1535 1.396 . S
C1534 C1539 1.390 . S
C1535 C1529 1.465 . S
C1535 C1534 1.396 . S
C1535 C1536 1.399 . S
C1536 H1522 0.929 . S
C1536 C1535 1.399 . S
C1536 C1537 1.385 . S
C1537 H1523 0.931 . S
C1537 C1536 1.385 . S
C1537 C1538 1.389 . S
C1538 C1537 1.389 . S
C1538 C1539 1.387 . S
C1539 H1524 0.930 . S
C1539 C1534 1.390 . S
C1539 C1538 1.387 . S
H1540 C1552 0.930 . S
H1541 C1554 0.930 . S
H1542 C1555 0.930 . S
H1543 C1559 0.959 . S
H1544 C1559 0.959 . S
H1545 C1559 0.961 . S
H1546 C1560 0.960 . S
H1547 C1560 0.961 1_554 S
H1548 C1560 0.959 . S
H1549 C1563 0.929 . S
H1550 C1564 0.931 . S
H1551 C1566 0.930 . S
C1552 H1540 0.930 . S
C1552 C1553 1.399 . S
C1552 C1557 1.399 . S
C1553 C1552 1.399 . S
C1553 C1554 1.376 . S
C1554 H1541 0.930 . S
C1554 C1553 1.376 . S
C1554 C1555 1.388 . S
C1555 H1542 0.930 . S
C1555 C1554 1.388 . S
C1555 C1556 1.390 . S
C1556 C1555 1.390 . S
C1556 C1557 1.394 . S
C1556 C1562 1.465 . S
C1557 C1552 1.399 . S
C1557 C1556 1.394 . S
C1557 C1558 1.516 1_556 S
C1558 C1557 1.516 1_554 S
C1558 C1559 1.502 . S
C1558 C1560 1.561 1_554 S
C1558 C1561 1.526 . S
C1559 H1543 0.959 . S
C1559 H1544 0.959 . S
C1559 H1545 0.961 . S
C1559 C1558 1.502 . S
C1560 H1546 0.960 . S
C1560 H1547 0.961 1_556 S
C1560 H1548 0.959 . S
C1560 C1558 1.561 1_556 S
C1561 C1558 1.526 . S
C1561 C1562 1.396 1_554 S
C1561 C1566 1.390 . S
C1562 C1556 1.465 . S
C1562 C1561 1.396 1_556 S
C1562 C1563 1.399 . S
C1563 H1549 0.929 . S
C1563 C1562 1.399 . S
C1563 C1564 1.385 1_556 S
C1564 H1550 0.931 . S
C1564 C1563 1.385 1_554 S
C1564 C1565 1.389 . S
C1565 C1564 1.389 . S
C1565 C1566 1.387 . S
C1566 H1551 0.930 . S
C1566 C1561 1.390 . S
C1566 C1565 1.387 . S
H1567 C1579 0.930 . S
H1568 C1581 0.930 . S
H1569 C1582 0.930 . S
H1570 C1586 0.959 . S
H1571 C1586 0.959 . S
H1572 C1586 0.961 . S
H1573 C1587 0.960 . S
H1574 C1587 0.961 . S
H1575 C1587 0.959 . S
H1576 C1590 0.929 . S
H1577 C1591 0.931 . S
H1578 C1593 0.930 . S
C1579 H1567 0.930 . S
C1579 C1580 1.399 . S
C1579 C1584 1.399 . S
C1580 C1579 1.399 . S
C1580 C1581 1.376 . S
C1581 H1568 0.930 . S
C1581 C1580 1.376 . S
C1581 C1582 1.388 . S
C1582 H1569 0.930 . S
C1582 C1581 1.388 . S
C1582 C1583 1.390 . S
C1583 C1582 1.390 . S
C1583 C1584 1.394 . S
C1583 C1589 1.465 . S
C1584 C1579 1.399 . S
C1584 C1583 1.394 . S
C1584 C1585 1.516 . S
C1585 C1584 1.516 . S
C1585 C1586 1.502 . S
C1585 C1587 1.561 . S
C1585 C1588 1.526 . S
C1586 H1570 0.959 . S
C1586 H1571 0.959 . S
C1586 H1572 0.961 . S
C1586 C1585 1.502 . S
C1587 H1573 0.960 . S
C1587 H1574 0.961 . S
C1587 H1575 0.959 . S
C1587 C1585 1.561 . S
C1588 C1585 1.526 . S
C1588 C1589 1.396 . S
C1588 C1593 1.390 . S
C1589 C1583 1.465 . S
C1589 C1588 1.396 . S
C1589 C1590 1.399 . S
C1590 H1576 0.929 . S
C1590 C1589 1.399 . S
C1590 C1591 1.385 . S
C1591 H1577 0.931 . S
C1591 C1590 1.385 . S
C1591 C1592 1.389 . S
C1592 C1591 1.389 . S
C1592 C1593 1.387 . S
C1593 H1578 0.930 . S
C1593 C1588 1.390 . S
C1593 C1592 1.387 . S
H1594 C1606 0.930 . S
H1595 C1608 0.930 . S
H1596 C1609 0.930 . S
H1597 C1613 0.959 . S
H1598 C1613 0.959 . S
H1599 C1613 0.961 . S
H1600 C1614 0.960 . S
H1601 C1614 0.961 . S
H1602 C1614 0.959 . S
H1603 C1617 0.929 . S
H1604 C1618 0.931 . S
H1605 C1620 0.930 . S
C1606 H1594 0.930 . S
C1606 C1607 1.399 . S
C1606 C1611 1.399 . S
C1607 C1606 1.399 . S
C1607 C1608 1.376 . S
C1608 H1595 0.930 . S
C1608 C1607 1.376 . S
C1608 C1609 1.388 . S
C1609 H1596 0.930 . S
C1609 C1608 1.388 . S
C1609 C1610 1.390 . S
C1610 C1609 1.390 . S
C1610 C1611 1.394 . S
C1610 C1616 1.465 1_556 S
C1611 C1606 1.399 . S
C1611 C1610 1.394 . S
C1611 C1612 1.509 1_556 S
C1612 C1611 1.509 1_554 S
C1612 C1613 1.485 1_554 S
C1612 C1614 1.579 . S
C1612 C1615 1.534 . S
C1613 H1597 0.959 . S
C1613 H1598 0.959 . S
C1613 H1599 0.961 . S
C1613 C1612 1.485 1_556 S
C1614 H1600 0.960 . S
C1614 H1601 0.961 . S
C1614 H1602 0.959 . S
C1614 C1612 1.579 . S
C1615 C1612 1.534 . S
C1615 C1616 1.396 . S
C1615 C1620 1.390 . S
C1616 C1610 1.465 1_554 S
C1616 C1615 1.396 . S
C1616 C1617 1.399 . S
C1617 H1603 0.929 . S
C1617 C1616 1.399 . S
C1617 C1618 1.385 . S
C1618 H1604 0.931 . S
C1618 C1617 1.385 . S
C1618 C1619 1.389 . S
C1619 C1618 1.389 . S
C1619 C1620 1.387 . S
C1620 H1605 0.930 . S
C1620 C1615 1.390 . S
C1620 C1619 1.387 . S
H1621 C1633 0.930 . S
H1622 C1635 0.930 . S
H1623 C1636 0.930 . S
H1624 C1640 0.959 . S
H1625 C1640 0.959 . S
H1626 C1640 0.961 . S
H1627 C1641 0.960 . S
H1628 C1641 0.961 . S
H1629 C1641 0.959 . S
H1630 C1644 0.929 . S
H1631 C1645 0.931 . S
H1632 C1647 0.930 . S
C1633 H1621 0.930 . S
C1633 C1634 1.399 . S
C1633 C1638 1.399 . S
C1634 C1633 1.399 . S
C1634 C1635 1.376 . S
C1635 H1622 0.930 . S
C1635 C1634 1.376 . S
C1635 C1636 1.388 . S
C1636 H1623 0.930 . S
C1636 C1635 1.388 . S
C1636 C1637 1.390 . S
C1637 C1636 1.390 . S
C1637 C1638 1.394 . S
C1637 C1643 1.465 . S
C1638 C1633 1.399 . S
C1638 C1637 1.394 . S
C1638 C1639 1.516 . S
C1639 C1638 1.516 . S
C1639 C1640 1.502 . S
C1639 C1641 1.561 . S
C1639 C1642 1.526 . S
C1640 H1624 0.959 . S
C1640 H1625 0.959 . S
C1640 H1626 0.961 . S
C1640 C1639 1.502 . S
C1641 H1627 0.960 . S
C1641 H1628 0.961 . S
C1641 H1629 0.959 . S
C1641 C1639 1.561 . S
C1642 C1639 1.526 . S
C1642 C1643 1.396 . S
C1642 C1647 1.390 . S
C1643 C1637 1.465 . S
C1643 C1642 1.396 . S
C1643 C1644 1.399 . S
C1644 H1630 0.929 . S
C1644 C1643 1.399 . S
C1644 C1645 1.385 . S
C1645 H1631 0.931 . S
C1645 C1644 1.385 . S
C1645 C1646 1.389 . S
C1646 C1645 1.389 . S
C1646 C1647 1.387 . S
C1647 H1632 0.930 . S
C1647 C1642 1.390 . S
C1647 C1646 1.387 . S
C365 C8 1.578 . S
C377 C70 1.581 . S
C392 C52 1.574 . S
C404 C30 1.570 . S
C419 C158 1.569 . S
C431 C96 1.573 . S
C446 C114 1.581 . S
C458 C136 1.579 . S
C473 C246 1.578 . S
C485 C184 1.581 . S
C500 C228 1.575 . S
C512 C206 1.570 . S
C527 C272 1.573 . S
C539 C334 1.570 . S
C554 C312 1.582 . S
C566 C290 1.579 . S
C581 C5 1.532 . S
C593 C336 1.596 . S
C608 C27 1.469 . S
C620 C314 1.596 . S
C635 C292 1.609 . S
C647 C49 1.438 . S
C662 C271 1.592 . S
C674 C75 1.538 . S
C689 C94 1.468 . S
C701 C247 1.612 . S
C716 C117 1.539 . S
C728 C229 1.594 . S
C743 C207 1.592 . S
C755 C139 1.457 . S
C770 C185 1.607 . S
C782 C161 1.521 . S
C797 C181 1.501 . S
C809 C160 1.606 . S
C824 C203 1.447 . S
C836 C138 1.603 . S
C851 C225 1.469 . S
C863 C116 1.596 . S
C878 C251 1.516 . S
C890 C95 1.602 . S
C905 C71 1.587 . S
C917 C270 1.507 . S
C932 C53 1.590 . S
C944 C293 1.465 . S
C959 C315 1.538 . S
C971 C31 1.600 . S
C986 C337 1.540 . S
C998 C9 1.595 . S
C1013 C6 1.450 . S
C1025 C141 1.453 . S
C1040 C28 1.415 . S
C1052 C163 1.423 . S
C1067 C93 1.406 . S
C1079 C50 1.404 . S
C1094 C73 1.442 . S
C1106 C119 1.435 . S
C1121 C182 1.442 . S
C1133 C317 1.434 . S
C1148 C204 1.418 . S
C1160 C339 1.427 . S
C1175 C226 1.420 . S
C1187 C269 1.413 . S
C1202 C295 1.455 . S
C1214 C249 1.451 . S
C1229 C4 1.486 . S
C1241 C48 1.521 . S
C1256 C26 1.487 . S
C1268 C74 1.525 . S
C1283 C140 1.526 . S
C1295 C92 1.547 . S
C1310 C118 1.518 . S
C1322 C162 1.494 . S
C1337 C180 1.489 . S
C1349 C224 1.530 . S
C1364 C250 1.486 . S
C1376 C202 1.520 . S
C1391 C268 1.514 . S
C1403 C316 1.491 . S
C1418 C294 1.517 . S
C1430 C338 1.542 . S
C1445 C7 0.932 . S
C1457 C273 0.973 . S
C1472 C29 0.951 . S
C1484 C291 0.956 . S
C1499 C51 1.004 . S
C1511 C313 0.864 . S
C1526 C72 0.937 . S
C1538 C335 0.969 . S
C1553 C97 1.017 . S
C1565 C183 0.862 . S
C1580 C205 0.902 . S
C1592 C115 0.997 . S
C1607 C227 0.955 . S
C1619 C137 0.905 . S
C1634 C248 0.904 . S
C1646 C159 0.995 . S
