# Generated by pormake.
# Topology yfq, (5)-cn, num edge types: 1
# Building blocks:
#     Node 0, Type 0, BuildingBlock: XOMCOT_clean_sbu_1, # of connection points: 5
#     Node 1, Type 0, BuildingBlock: XOMCOT_clean_sbu_1, # of connection points: 5
#     Node 2, Type 0, BuildingBlock: XOMCOT_clean_sbu_1, # of connection points: 5
#     Node 3, Type 0, BuildingBlock: XOMCOT_clean_sbu_1, # of connection points: 5
#     Node 4, Type 0, BuildingBlock: XOMCOT_clean_sbu_1, # of connection points: 5
#     Node 5, Type 0, BuildingBlock: XOMCOT_clean_sbu_1, # of connection points: 5
#     Node 6, Type 0, BuildingBlock: XOMCOT_clean_sbu_1, # of connection points: 5
#     Node 7, Type 0, BuildingBlock: XOMCOT_clean_sbu_1, # of connection points: 5
#     Node 8, Type 0, BuildingBlock: XOMCOT_clean_sbu_1, # of connection points: 5
#     Node 9, Type 0, BuildingBlock: XOMCOT_clean_sbu_1, # of connection points: 5
#     Node 10, Type 0, BuildingBlock: XOMCOT_clean_sbu_1, # of connection points: 5
#     Node 11, Type 0, BuildingBlock: XOMCOT_clean_sbu_1, # of connection points: 5
#     Node 12, Type 0, BuildingBlock: XOMCOT_clean_sbu_1, # of connection points: 5
#     Node 13, Type 0, BuildingBlock: XOMCOT_clean_sbu_1, # of connection points: 5
#     Node 14, Type 0, BuildingBlock: XOMCOT_clean_sbu_1, # of connection points: 5
#     Node 15, Type 0, BuildingBlock: XOMCOT_clean_sbu_1, # of connection points: 5
#     Node 16, Type 0, BuildingBlock: XOMCOT_clean_sbu_1, # of connection points: 5
#     Node 17, Type 0, BuildingBlock: XOMCOT_clean_sbu_1, # of connection points: 5
#     Node 18, Type 0, BuildingBlock: XOMCOT_clean_sbu_1, # of connection points: 5
#     Node 19, Type 0, BuildingBlock: XOMCOT_clean_sbu_1, # of connection points: 5
#     Node 20, Type 0, BuildingBlock: XOMCOT_clean_sbu_1, # of connection points: 5
#     Node 21, Type 0, BuildingBlock: XOMCOT_clean_sbu_1, # of connection points: 5
#     Node 22, Type 0, BuildingBlock: XOMCOT_clean_sbu_1, # of connection points: 5
#     Node 23, Type 0, BuildingBlock: XOMCOT_clean_sbu_1, # of connection points: 5
#     Node 24, Type 0, BuildingBlock: XOMCOT_clean_sbu_1, # of connection points: 5
#     Node 25, Type 0, BuildingBlock: XOMCOT_clean_sbu_1, # of connection points: 5
#     Node 26, Type 0, BuildingBlock: XOMCOT_clean_sbu_1, # of connection points: 5
#     Node 27, Type 0, BuildingBlock: XOMCOT_clean_sbu_1, # of connection points: 5
#     Node 28, Type 0, BuildingBlock: XOMCOT_clean_sbu_1, # of connection points: 5
#     Node 29, Type 0, BuildingBlock: XOMCOT_clean_sbu_1, # of connection points: 5
#     Node 30, Type 0, BuildingBlock: XOMCOT_clean_sbu_1, # of connection points: 5
#     Node 31, Type 0, BuildingBlock: XOMCOT_clean_sbu_1, # of connection points: 5
#     Edge 32, Type (0, 0), BuildingBlock: XUDNAN_clean_linker_2, # of connection points: 2
#     Edge 33, Type (0, 0), BuildingBlock: XUDNAN_clean_linker_2, # of connection points: 2
#     Edge 34, Type (0, 0), BuildingBlock: XUDNAN_clean_linker_2, # of connection points: 2
#     Edge 35, Type (0, 0), BuildingBlock: XUDNAN_clean_linker_2, # of connection points: 2
#     Edge 36, Type (0, 0), BuildingBlock: XUDNAN_clean_linker_2, # of connection points: 2
#     Edge 37, Type (0, 0), BuildingBlock: XUDNAN_clean_linker_2, # of connection points: 2
#     Edge 38, Type (0, 0), BuildingBlock: XUDNAN_clean_linker_2, # of connection points: 2
#     Edge 39, Type (0, 0), BuildingBlock: XUDNAN_clean_linker_2, # of connection points: 2
#     Edge 40, Type (0, 0), BuildingBlock: XUDNAN_clean_linker_2, # of connection points: 2
#     Edge 41, Type (0, 0), BuildingBlock: XUDNAN_clean_linker_2, # of connection points: 2
#     Edge 42, Type (0, 0), BuildingBlock: XUDNAN_clean_linker_2, # of connection points: 2
#     Edge 43, Type (0, 0), BuildingBlock: XUDNAN_clean_linker_2, # of connection points: 2
#     Edge 44, Type (0, 0), BuildingBlock: XUDNAN_clean_linker_2, # of connection points: 2
#     Edge 45, Type (0, 0), BuildingBlock: XUDNAN_clean_linker_2, # of connection points: 2
#     Edge 46, Type (0, 0), BuildingBlock: XUDNAN_clean_linker_2, # of connection points: 2
#     Edge 47, Type (0, 0), BuildingBlock: XUDNAN_clean_linker_2, # of connection points: 2
#     Edge 48, Type (0, 0), BuildingBlock: XUDNAN_clean_linker_2, # of connection points: 2
#     Edge 49, Type (0, 0), BuildingBlock: XUDNAN_clean_linker_2, # of connection points: 2
#     Edge 50, Type (0, 0), BuildingBlock: XUDNAN_clean_linker_2, # of connection points: 2
#     Edge 51, Type (0, 0), BuildingBlock: XUDNAN_clean_linker_2, # of connection points: 2
#     Edge 52, Type (0, 0), BuildingBlock: XUDNAN_clean_linker_2, # of connection points: 2
#     Edge 53, Type (0, 0), BuildingBlock: XUDNAN_clean_linker_2, # of connection points: 2
#     Edge 54, Type (0, 0), BuildingBlock: XUDNAN_clean_linker_2, # of connection points: 2
#     Edge 55, Type (0, 0), BuildingBlock: XUDNAN_clean_linker_2, # of connection points: 2
#     Edge 56, Type (0, 0), BuildingBlock: XUDNAN_clean_linker_2, # of connection points: 2
#     Edge 57, Type (0, 0), BuildingBlock: XUDNAN_clean_linker_2, # of connection points: 2
#     Edge 58, Type (0, 0), BuildingBlock: XUDNAN_clean_linker_2, # of connection points: 2
#     Edge 59, Type (0, 0), BuildingBlock: XUDNAN_clean_linker_2, # of connection points: 2
#     Edge 60, Type (0, 0), BuildingBlock: XUDNAN_clean_linker_2, # of connection points: 2
#     Edge 61, Type (0, 0), BuildingBlock: XUDNAN_clean_linker_2, # of connection points: 2
#     Edge 62, Type (0, 0), BuildingBlock: XUDNAN_clean_linker_2, # of connection points: 2
#     Edge 63, Type (0, 0), BuildingBlock: XUDNAN_clean_linker_2, # of connection points: 2
#     Edge 64, Type (0, 0), BuildingBlock: XUDNAN_clean_linker_2, # of connection points: 2
#     Edge 65, Type (0, 0), BuildingBlock: XUDNAN_clean_linker_2, # of connection points: 2
#     Edge 66, Type (0, 0), BuildingBlock: XUDNAN_clean_linker_2, # of connection points: 2
#     Edge 67, Type (0, 0), BuildingBlock: XUDNAN_clean_linker_2, # of connection points: 2
#     Edge 68, Type (0, 0), BuildingBlock: XUDNAN_clean_linker_2, # of connection points: 2
#     Edge 69, Type (0, 0), BuildingBlock: XUDNAN_clean_linker_2, # of connection points: 2
#     Edge 70, Type (0, 0), BuildingBlock: XUDNAN_clean_linker_2, # of connection points: 2
#     Edge 71, Type (0, 0), BuildingBlock: XUDNAN_clean_linker_2, # of connection points: 2
#     Edge 72, Type (0, 0), BuildingBlock: XUDNAN_clean_linker_2, # of connection points: 2
#     Edge 73, Type (0, 0), BuildingBlock: XUDNAN_clean_linker_2, # of connection points: 2
#     Edge 74, Type (0, 0), BuildingBlock: XUDNAN_clean_linker_2, # of connection points: 2
#     Edge 75, Type (0, 0), BuildingBlock: XUDNAN_clean_linker_2, # of connection points: 2
#     Edge 76, Type (0, 0), BuildingBlock: XUDNAN_clean_linker_2, # of connection points: 2
#     Edge 77, Type (0, 0), BuildingBlock: XUDNAN_clean_linker_2, # of connection points: 2
#     Edge 78, Type (0, 0), BuildingBlock: XUDNAN_clean_linker_2, # of connection points: 2
#     Edge 79, Type (0, 0), BuildingBlock: XUDNAN_clean_linker_2, # of connection points: 2
#     Edge 80, Type (0, 0), BuildingBlock: XUDNAN_clean_linker_2, # of connection points: 2
#     Edge 81, Type (0, 0), BuildingBlock: XUDNAN_clean_linker_2, # of connection points: 2
#     Edge 82, Type (0, 0), BuildingBlock: XUDNAN_clean_linker_2, # of connection points: 2
#     Edge 83, Type (0, 0), BuildingBlock: XUDNAN_clean_linker_2, # of connection points: 2
#     Edge 84, Type (0, 0), BuildingBlock: XUDNAN_clean_linker_2, # of connection points: 2
#     Edge 85, Type (0, 0), BuildingBlock: XUDNAN_clean_linker_2, # of connection points: 2
#     Edge 86, Type (0, 0), BuildingBlock: XUDNAN_clean_linker_2, # of connection points: 2
#     Edge 87, Type (0, 0), BuildingBlock: XUDNAN_clean_linker_2, # of connection points: 2
#     Edge 88, Type (0, 0), BuildingBlock: XUDNAN_clean_linker_2, # of connection points: 2
#     Edge 89, Type (0, 0), BuildingBlock: XUDNAN_clean_linker_2, # of connection points: 2
#     Edge 90, Type (0, 0), BuildingBlock: XUDNAN_clean_linker_2, # of connection points: 2
#     Edge 91, Type (0, 0), BuildingBlock: XUDNAN_clean_linker_2, # of connection points: 2
#     Edge 92, Type (0, 0), BuildingBlock: XUDNAN_clean_linker_2, # of connection points: 2
#     Edge 93, Type (0, 0), BuildingBlock: XUDNAN_clean_linker_2, # of connection points: 2
#     Edge 94, Type (0, 0), BuildingBlock: XUDNAN_clean_linker_2, # of connection points: 2
#     Edge 95, Type (0, 0), BuildingBlock: XUDNAN_clean_linker_2, # of connection points: 2
#     Edge 96, Type (0, 0), BuildingBlock: XUDNAN_clean_linker_2, # of connection points: 2
#     Edge 97, Type (0, 0), BuildingBlock: XUDNAN_clean_linker_2, # of connection points: 2
#     Edge 98, Type (0, 0), BuildingBlock: XUDNAN_clean_linker_2, # of connection points: 2
#     Edge 99, Type (0, 0), BuildingBlock: XUDNAN_clean_linker_2, # of connection points: 2
#     Edge 100, Type (0, 0), BuildingBlock: XUDNAN_clean_linker_2, # of connection points: 2
#     Edge 101, Type (0, 0), BuildingBlock: XUDNAN_clean_linker_2, # of connection points: 2
#     Edge 102, Type (0, 0), BuildingBlock: XUDNAN_clean_linker_2, # of connection points: 2
#     Edge 103, Type (0, 0), BuildingBlock: XUDNAN_clean_linker_2, # of connection points: 2
#     Edge 104, Type (0, 0), BuildingBlock: XUDNAN_clean_linker_2, # of connection points: 2
#     Edge 105, Type (0, 0), BuildingBlock: XUDNAN_clean_linker_2, # of connection points: 2
#     Edge 106, Type (0, 0), BuildingBlock: XUDNAN_clean_linker_2, # of connection points: 2
#     Edge 107, Type (0, 0), BuildingBlock: XUDNAN_clean_linker_2, # of connection points: 2
#     Edge 108, Type (0, 0), BuildingBlock: XUDNAN_clean_linker_2, # of connection points: 2
#     Edge 109, Type (0, 0), BuildingBlock: XUDNAN_clean_linker_2, # of connection points: 2
#     Edge 110, Type (0, 0), BuildingBlock: XUDNAN_clean_linker_2, # of connection points: 2
#     Edge 111, Type (0, 0), BuildingBlock: XUDNAN_clean_linker_2, # of connection points: 2
# Relax obj value: 0.543
# Max RMSD: 0.297
# Mean RMSD: 0.297
data_MOF--net-yfq--node1-XOMCOT_clean_sbu_1--edge1-XUDNAN_clean_linker_2
_symmetry_space_group_name_H-M    P1
_symmetry_Int_Tables_number       1
_symmetry_cell_setting            triclinic
loop_
_symmetry_equiv_pos_as_xyz
'x, y, z'
_cell_length_a     52.483579
_cell_length_b     52.490523
_cell_length_c     59.74117
_cell_angle_alpha  89.998896
_cell_angle_beta   89.986958
_cell_angle_gamma 90.059834
loop_
_atom_site_label
_atom_site_type_symbol
_atom_site_fract_x
_atom_site_fract_y
_atom_site_fract_z
_atom_type_partial_charge
C0 C 0.1639 0.20316 0.28912 0.0
C1 C 0.1741 0.22039 0.30381 0.0
N2 N 0.15965 0.24163 0.3035 0.0
N3 N 0.14297 0.21325 0.27964 0.0
C4 C 0.1409 0.23679 0.28848 0.0
H5 H 0.17102 0.18423 0.2857 0.0
Co6 Co 0.12477 0.19539 0.25834 0.0
C7 C 0.07085 0.21492 0.2646 0.0
O8 O 0.06334 0.19251 0.27168 0.0
N9 N 0.1073 0.17643 0.23594 0.0
C10 C 0.08192 0.14896 0.2182 0.0
C11 C 0.08778 0.15976 0.23839 0.0
C12 C 0.11282 0.17527 0.21378 0.0
N13 N 0.09774 0.15862 0.20271 0.0
O14 O 0.13982 0.2175 0.23652 0.0
H15 H 0.07872 0.15462 0.25393 0.0
H16 H 0.12816 0.1857 0.20592 0.0
O17 O 0.09453 0.21884 0.26004 0.0
C18 C 0.16323 0.21257 0.23263 0.0
O19 O 0.17125 0.18922 0.23627 0.0
N20 N 0.11291 0.17379 0.28127 0.0
C21 C 0.10324 0.14231 0.31769 0.0
C22 C 0.09798 0.16834 0.31889 0.0
C23 C 0.10329 0.18384 0.30061 0.0
C24 C 0.11956 0.14865 0.28036 0.0
C25 C 0.11416 0.1323 0.29825 0.0
H26 H 0.09995 0.20407 0.3021 0.0
H27 H 0.12913 0.14127 0.2657 0.0
H28 H 0.12588 0.24992 0.28404 0.0
H29 H 0.19035 0.21696 0.31451 0.0
H30 H 0.06726 0.13483 0.21521 0.0
H31 H 0.08989 0.17664 0.33391 0.0
H32 H 0.11885 0.11225 0.29709 0.0
C33 C 0.05048 0.91718 0.54124 0.0
C34 C 0.03437 0.91489 0.5592 0.0
N35 N 0.03107 0.88994 0.56331 0.0
N36 N 0.05694 0.89379 0.53383 0.0
C37 C 0.04484 0.87749 0.54771 0.0
H38 H 0.05797 0.93484 0.53467 0.0
Co39 Co 0.08032 0.88872 0.51118 0.0
C40 C 0.07379 0.83532 0.49423 0.0
O41 O 0.09853 0.83479 0.49092 0.0
N42 N 0.10438 0.88521 0.48803 0.0
C43 C 0.14041 0.88196 0.46865 0.0
C44 C 0.13002 0.8872 0.48923 0.0
C45 C 0.09966 0.87994 0.46624 0.0
N46 N 0.12129 0.87713 0.45427 0.0
O47 O 0.05815 0.90738 0.49159 0.0
H48 H 0.1408 0.89174 0.50405 0.0
H49 H 0.08074 0.87656 0.45965 0.0
O50 O 0.06357 0.85551 0.50259 0.0
C51 C 0.06408 0.93074 0.48858 0.0
O52 O 0.08751 0.9379 0.49316 0.0
N53 N 0.10205 0.87275 0.53216 0.0
C54 C 0.13157 0.85641 0.56824 0.0
C55 C 0.11456 0.83981 0.55767 0.0
C56 C 0.09954 0.84847 0.54015 0.0
C57 C 0.11804 0.88942 0.54271 0.0
C58 C 0.13312 0.88163 0.56079 0.0
H59 H 0.08486 0.83583 0.53446 0.0
H60 H 0.1186 0.9091 0.53735 0.0
H61 H 0.04669 0.85699 0.54694 0.0
H62 H 0.027 0.93028 0.56937 0.0
H63 H 0.16052 0.88139 0.46466 0.0
H64 H 0.11173 0.82057 0.5638 0.0
H65 H 0.14549 0.89522 0.56906 0.0
C66 C 0.32077 0.80262 0.78371 0.0
C67 C 0.31745 0.78326 0.79888 0.0
N68 N 0.33847 0.76853 0.79861 0.0
N69 N 0.34371 0.80011 0.77389 0.0
C70 C 0.3539 0.77895 0.78299 0.0
H71 H 0.30785 0.81831 0.7808 0.0
Co72 Co 0.35688 0.82443 0.75486 0.0
C73 C 0.40842 0.80758 0.74178 0.0
O74 O 0.41584 0.83124 0.74488 0.0
N75 N 0.36912 0.84969 0.73505 0.0
C76 C 0.38344 0.88515 0.7189 0.0
C77 C 0.37404 0.87471 0.73831 0.0
C78 C 0.37498 0.8457 0.71326 0.0
N79 N 0.38412 0.86682 0.70319 0.0
O80 O 0.33511 0.81121 0.73213 0.0
H81 H 0.37132 0.88511 0.75365 0.0
H82 H 0.37352 0.8273 0.70518 0.0
O83 O 0.38503 0.8015 0.74533 0.0
C84 C 0.31432 0.82354 0.73019 0.0
O85 O 0.31353 0.847 0.73784 0.0
N86 N 0.37579 0.83739 0.77919 0.0
C87 C 0.39294 0.85393 0.82116 0.0
C88 C 0.40324 0.83213 0.81104 0.0
C89 C 0.39434 0.82411 0.79025 0.0
C90 C 0.36468 0.85785 0.78926 0.0
C91 C 0.3735 0.86699 0.80979 0.0
H92 H 0.40133 0.80618 0.78408 0.0
H93 H 0.34821 0.86666 0.78163 0.0
H94 H 0.37273 0.77197 0.77898 0.0
H95 H 0.30158 0.78131 0.81032 0.0
H96 H 0.38925 0.90476 0.71653 0.0
H97 H 0.41722 0.82046 0.81952 0.0
H98 H 0.36467 0.88381 0.81681 0.0
C99 C 0.44761 0.09876 0.0394 0.0
C100 C 0.46612 0.09135 0.05425 0.0
N101 N 0.48555 0.10801 0.05278 0.0
N102 N 0.45525 0.12009 0.02879 0.0
C103 C 0.47857 0.12523 0.03714 0.0
H104 H 0.42966 0.08922 0.03641 0.0
Co105 Co 0.43561 0.13534 0.00705 0.0
C106 C 0.4559 0.18747 -0.00015 0.0
O107 O 0.43226 0.19566 -0.00096 0.0
N108 N 0.41496 0.14969 0.98439 0.0
C109 C 0.38195 0.16093 0.96317 0.0
C110 C 0.38956 0.15415 0.98431 0.0
C111 C 0.42229 0.15425 0.96303 0.0
N112 N 0.40255 0.16096 0.94985 0.0
O113 O 0.45318 0.11513 0.98569 0.0
H114 H 0.37676 0.15162 -0.00179 0.0
H115 H 0.44148 0.15124 0.95693 0.0
O116 O 0.46034 0.1637 0.00326 0.0
C117 C 0.44055 0.09477 0.98222 0.0
O118 O 0.41568 0.0958 0.98469 0.0
N119 N 0.41779 0.15199 0.02973 0.0
C120 C 0.3912 0.1654 0.06831 0.0
C121 C 0.41399 0.17783 0.06259 0.0
C122 C 0.42742 0.17027 0.04362 0.0
C123 C 0.39636 0.13894 0.03564 0.0
C124 C 0.38247 0.14562 0.0546 0.0
H125 H 0.44609 0.17827 0.04101 0.0
H126 H 0.39043 0.12266 0.02582 0.0
H127 H 0.48995 0.14151 0.03228 0.0
H128 H 0.46538 0.075 0.06528 0.0
H129 H 0.36261 0.1646 0.95776 0.0
H130 H 0.42171 0.19296 0.07287 0.0
H131 H 0.36553 0.13485 0.05885 0.0
C132 C 0.16075 0.81137 0.19281 0.0
C133 C 0.16728 0.79488 0.17597 0.0
N134 N 0.15431 0.77302 0.17907 0.0
N135 N 0.14354 0.80009 0.2063 0.0
C136 C 0.1401 0.7766 0.19766 0.0
H137 H 0.16825 0.83036 0.19528 0.0
Co138 Co 0.1316 0.81589 0.23171 0.0
C139 C 0.08194 0.79202 0.24376 0.0
O140 O 0.07417 0.81462 0.25022 0.0
N141 N 0.12072 0.83293 0.25807 0.0
C142 C 0.1064 0.86142 0.28271 0.0
C143 C 0.1095 0.85601 0.26042 0.0
C144 C 0.12417 0.82485 0.27938 0.0
N145 N 0.11577 0.84187 0.29464 0.0
O146 O 0.15586 0.79641 0.24823 0.0
H147 H 0.1038 0.86852 0.24705 0.0
H148 H 0.13286 0.80684 0.28371 0.0
O149 O 0.10472 0.78937 0.23613 0.0
C150 C 0.17655 0.809 0.24991 0.0
O151 O 0.17596 0.8335 0.24537 0.0
N152 N 0.1105 0.8357 0.21345 0.0
C153 C 0.0888 0.86531 0.17998 0.0
C154 C 0.07863 0.84143 0.18522 0.0
C155 C 0.09027 0.82652 0.2015 0.0
C156 C 0.12102 0.8587 0.20805 0.0
C157 C 0.11035 0.87397 0.19139 0.0
H158 H 0.0839 0.80713 0.20318 0.0
H159 H 0.13824 0.86487 0.21641 0.0
H160 H 0.12731 0.76253 0.20468 0.0
H161 H 0.18069 0.79858 0.16259 0.0
H162 H 0.09871 0.87888 0.28958 0.0
H163 H 0.06267 0.83375 0.17588 0.0
H164 H 0.11905 0.89209 0.18721 0.0
C165 C 0.4594 0.9133 0.44569 0.0
C166 C 0.4773 0.91997 0.43013 0.0
N167 N 0.49792 0.90508 0.43306 0.0
N168 N 0.46846 0.89415 0.45835 0.0
C169 C 0.49204 0.88943 0.45035 0.0
H170 H 0.44091 0.92201 0.44787 0.0
Co171 Co 0.44944 0.88299 0.48224 0.0
C172 C 0.46555 0.83063 0.49371 0.0
O173 O 0.44124 0.82492 0.49529 0.0
N174 N 0.42929 0.87327 0.50705 0.0
C175 C 0.39774 0.86295 0.53034 0.0
C176 C 0.40443 0.86653 0.50833 0.0
C177 C 0.43715 0.87351 0.52862 0.0
N178 N 0.41833 0.86752 0.54311 0.0
O179 O 0.47035 0.90395 0.50087 0.0
H180 H 0.39151 0.86459 0.49444 0.0
H181 H 0.45638 0.87819 0.53368 0.0
O182 O 0.47229 0.85333 0.48806 0.0
C183 C 0.4645 0.92748 0.50208 0.0
O184 O 0.44164 0.93454 0.49561 0.0
N185 N 0.42924 0.86452 0.46181 0.0
C186 C 0.40307 0.84767 0.42375 0.0
C187 C 0.42559 0.83574 0.43075 0.0
C188 C 0.43885 0.84508 0.44914 0.0
C189 C 0.40744 0.8765 0.45522 0.0
C190 C 0.39388 0.86823 0.43642 0.0
H191 H 0.45767 0.83762 0.45199 0.0
H192 H 0.40123 0.89342 0.464 0.0
H193 H 0.50474 0.87524 0.45727 0.0
H194 H 0.47502 0.93436 0.41731 0.0
H195 H 0.37888 0.85837 0.53649 0.0
H196 H 0.43362 0.81984 0.42164 0.0
H197 H 0.37707 0.87866 0.43132 0.0
C198 C 0.34688 0.16286 0.68006 0.0
C199 C 0.33992 0.17837 0.66267 0.0
N200 N 0.34693 0.20237 0.66774 0.0
N201 N 0.35852 0.1769 0.69593 0.0
C202 C 0.35829 0.20098 0.68802 0.0
H203 H 0.34288 0.14272 0.68145 0.0
Co204 Co 0.36599 0.1635 0.72363 0.0
C205 C 0.4146 0.18615 0.73904 0.0
O206 O 0.42026 0.16318 0.74624 0.0
N207 N 0.37162 0.14925 0.75214 0.0
C208 C 0.37332 0.12332 0.78163 0.0
C209 C 0.36979 0.12471 0.75885 0.0
C210 C 0.37526 0.16242 0.77136 0.0
N211 N 0.37702 0.14707 0.78934 0.0
O212 O 0.33967 0.18444 0.73602 0.0
H213 H 0.36554 0.10868 0.74826 0.0
H214 H 0.3766 0.18299 0.77219 0.0
O215 O 0.39296 0.19005 0.72941 0.0
C216 C 0.31874 0.1721 0.73539 0.0
O217 O 0.31956 0.14788 0.72983 0.0
N218 N 0.39011 0.14194 0.70954 0.0
C219 C 0.41824 0.11182 0.68004 0.0
C220 C 0.42514 0.13708 0.68406 0.0
C221 C 0.41032 0.15202 0.69806 0.0
C222 C 0.38281 0.11737 0.70541 0.0
C223 C 0.39671 0.10186 0.69072 0.0
H224 H 0.41407 0.17218 0.69793 0.0
H225 H 0.36486 0.11044 0.71178 0.0
H226 H 0.3652 0.21725 0.69736 0.0
H227 H 0.33035 0.17241 0.64751 0.0
H228 H 0.37343 0.10619 0.79173 0.0
H229 H 0.44074 0.14586 0.67498 0.0
H230 H 0.39009 0.08277 0.68701 0.0
C231 C 0.05762 0.09759 0.94135 0.0
C232 C 0.03896 0.08916 0.92708 0.0
N233 N 0.0174 0.10206 0.93162 0.0
N234 N 0.04794 0.11588 0.95468 0.0
C235 C 0.02337 0.11823 0.94843 0.0
H236 H 0.07691 0.09044 0.94241 0.0
Co237 Co 0.06548 0.12894 0.97887 0.0
C238 C 0.04984 0.18409 0.97962 0.0
O239 O 0.07359 0.19109 0.97666 0.0
N240 N 0.08373 0.14119 0.00424 0.0
C241 C 0.11022 0.16124 0.02768 0.0
C242 C 0.10302 0.15831 0.0057 0.0
C243 C 0.0799 0.13395 0.02574 0.0
N244 N 0.09568 0.14578 0.04022 0.0
O245 O 0.04128 0.11152 -0.00259 0.0
H246 H 0.11167 0.16822 0.99181 0.0
H247 H 0.06556 0.12044 0.03095 0.0
O248 O 0.0439 0.1603 0.98005 0.0
C249 C 0.04548 0.08762 -0.00104 0.0
O250 O 0.06807 0.07908 0.99318 0.0
N251 N 0.08902 0.1433 0.95879 0.0
C252 C 0.12193 0.15399 0.92336 0.0
C253 C 0.09691 0.16325 0.92339 0.0
C254 C 0.08065 0.15725 0.94095 0.0
C255 C 0.11321 0.13372 0.95892 0.0
C256 C 0.13024 0.13934 0.94157 0.0
H257 H 0.0609 0.16286 0.93969 0.0
H258 H 0.11905 0.12103 0.97222 0.0
H259 H 0.00992 0.13076 0.95662 0.0
H260 H 0.04115 0.07472 0.9143 0.0
H261 H 0.12529 0.17345 0.03387 0.0
H262 H 0.08969 0.17466 0.90968 0.0
H263 H 0.1493 0.13147 0.94193 0.0
C264 C 0.83608 0.79252 0.69408 0.0
C265 C 0.83181 0.77318 0.67914 0.0
N266 N 0.84469 0.75235 0.68604 0.0
N267 N 0.85154 0.78413 0.7104 0.0
C268 C 0.85617 0.7595 0.70536 0.0
H269 H 0.82836 0.81159 0.69321 0.0
Co270 Co 0.85997 0.80483 0.73425 0.0
C271 C 0.90833 0.78571 0.75265 0.0
O272 O 0.91467 0.80986 0.75444 0.0
N273 N 0.86579 0.82677 0.75879 0.0
C274 C 0.86176 0.86046 0.78121 0.0
C275 C 0.85804 0.85127 0.75995 0.0
C276 C 0.87251 0.8211 0.78012 0.0
N277 N 0.87109 0.84146 0.79384 0.0
O278 O 0.8327 0.78918 0.75054 0.0
H279 H 0.84852 0.86147 0.74669 0.0
H280 H 0.8774 0.80215 0.78578 0.0
O281 O 0.88582 0.77976 0.74571 0.0
C282 C 0.81185 0.80137 0.74835 0.0
O283 O 0.8124 0.82372 0.73846 0.0
N284 N 0.88622 0.82017 0.71631 0.0
C285 C 0.92552 0.8388 0.68916 0.0
C286 C 0.92232 0.81268 0.69242 0.0
C287 C 0.90253 0.80385 0.70561 0.0
C288 C 0.88795 0.8457 0.71202 0.0
C289 C 0.9077 0.85549 0.69869 0.0
H290 H 0.90068 0.78352 0.70727 0.0
H291 H 0.87392 0.85871 0.7183 0.0
H292 H 0.86827 0.74741 0.71539 0.0
H293 H 0.8202 0.77467 0.66426 0.0
H294 H 0.85743 0.87951 0.78702 0.0
H295 H 0.93478 0.79894 0.68447 0.0
H296 H 0.90898 0.87583 0.69587 0.0
C297 C 0.95896 0.09628 0.45212 0.0
C298 C 0.97534 0.08696 0.43619 0.0
N299 N 0.99832 0.0979 0.43929 0.0
N300 N 0.97149 0.11309 0.46512 0.0
C301 C 0.99549 0.11354 0.45707 0.0
H302 H 0.93907 0.09132 0.45407 0.0
Co303 Co 0.95672 0.12971 0.48911 0.0
C304 C 0.99536 0.1671 0.50595 0.0
O305 O 0.99235 0.15954 0.52675 0.0
N306 N 0.94106 0.14594 0.51356 0.0
C307 C 0.92482 0.17501 0.5367 0.0
C308 C 0.93625 0.17107 0.51622 0.0
C309 C 0.932 0.13505 0.53244 0.0
N310 N 0.9221 0.15225 0.54679 0.0
O311 O 0.97457 0.10641 0.50818 0.0
H312 H 0.94096 0.18565 0.5041 0.0
H313 H 0.93299 0.1149 0.53591 0.0
O314 O 0.98418 0.15503 0.49018 0.0
C315 C 0.96216 0.08546 0.50864 0.0
O316 O 0.93843 0.08564 0.5016 0.0
N317 N 0.93885 0.15041 0.46897 0.0
C318 C 0.91308 0.17028 0.43231 0.0
C319 C 0.93935 0.17358 0.43445 0.0
C320 C 0.9519 0.16342 0.45281 0.0
C321 C 0.913 0.14797 0.46772 0.0
C322 C 0.89957 0.15809 0.44949 0.0
H323 H 0.97239 0.16417 0.45283 0.0
H324 H 0.90298 0.13689 0.48021 0.0
H325 H 0.01035 0.12572 0.46365 0.0
H326 H 0.97061 0.07344 0.42316 0.0
H327 H 0.9187 0.19311 0.54349 0.0
H328 H 0.95033 0.18286 0.42141 0.0
H329 H 0.8792 0.15514 0.44818 0.0
C330 C 0.66373 0.20318 0.19951 0.0
C331 C 0.67615 0.2198 0.18551 0.0
N332 N 0.66493 0.24282 0.18725 0.0
N333 N 0.64466 0.21556 0.2099 0.0
C334 C 0.64591 0.23969 0.20228 0.0
H335 H 0.66821 0.18326 0.20199 0.0
Co336 Co 0.62433 0.2008 0.23148 0.0
C337 C 0.58493 0.23899 0.242 0.0
O338 O 0.59403 0.24059 0.26243 0.0
N339 N 0.60424 0.18539 0.25344 0.0
C340 C 0.57084 0.16863 0.27091 0.0
C341 C 0.57941 0.17908 0.25127 0.0
C342 C 0.61038 0.17852 0.27454 0.0
N343 N 0.59032 0.16827 0.28558 0.0
O344 O 0.64118 0.22208 0.25294 0.0
H345 H 0.56809 0.18228 0.23641 0.0
H346 H 0.62917 0.181 0.28165 0.0
O347 O 0.59689 0.22582 0.22738 0.0
C348 C 0.66439 0.21628 0.25675 0.0
O349 O 0.67158 0.19268 0.25304 0.0
N350 N 0.60969 0.18012 0.20936 0.0
C351 C 0.59489 0.15028 0.17323 0.0
C352 C 0.59178 0.17667 0.17264 0.0
C353 C 0.5993 0.19127 0.19083 0.0
C354 C 0.61269 0.15431 0.21037 0.0
C355 C 0.605 0.13885 0.19246 0.0
H356 H 0.59793 0.21173 0.18943 0.0
H357 H 0.62164 0.1458 0.22486 0.0
H358 H 0.63323 0.25462 0.20786 0.0
H359 H 0.69167 0.21498 0.17438 0.0
H360 H 0.55154 0.16245 0.27428 0.0
H361 H 0.58402 0.18602 0.15797 0.0
H362 H 0.60767 0.11842 0.1933 0.0
C363 C 0.5145 0.93287 0.96893 0.0
C364 C 0.49282 0.93172 0.95613 0.0
N365 N 0.48655 0.90707 0.9536 0.0
N366 N 0.52152 0.90906 0.9748 0.0
C367 C 0.50428 0.89365 0.96486 0.0
H368 H 0.525 0.94996 0.97299 0.0
Co369 Co 0.55001 0.90134 0.99193 0.0
C370 C 0.52129 0.86227 0.02038 0.0
O371 O 0.51693 0.87653 0.03802 0.0
N372 N 0.57861 0.89437 0.00924 0.0
C373 C 0.61846 0.88882 0.02073 0.0
C374 C 0.60316 0.89416 0.0026 0.0
C375 C 0.57946 0.88964 0.0314 0.0
N376 N 0.60345 0.88596 0.03887 0.0
O377 O 0.53635 0.9225 0.01498 0.0
H378 H 0.60952 0.8977 0.98565 0.0
H379 H 0.56284 0.88982 0.042 0.0
O380 O 0.53291 0.87141 0.00351 0.0
C381 C 0.54401 0.94549 0.0163 0.0
O382 O 0.56615 0.95129 0.00736 0.0
N383 N 0.56281 0.8811 0.96863 0.0
C384 C 0.56469 0.84855 0.93206 0.0
C385 C 0.56823 0.83913 0.95382 0.0
C386 C 0.56756 0.8558 0.97189 0.0
C387 C 0.56307 0.8911 0.94759 0.0
C388 C 0.5637 0.87507 0.92896 0.0
H389 H 0.56885 0.84803 0.98861 0.0
H390 H 0.56036 0.91135 0.94521 0.0
H391 H 0.50512 0.87306 0.96528 0.0
H392 H 0.4832 0.9476 0.94824 0.0
H393 H 0.639 0.88708 0.02045 0.0
H394 H 0.56968 0.81892 0.95715 0.0
H395 H 0.56216 0.8833 0.9124 0.0
C396 C 0.82387 0.1949 0.79442 0.0
C397 C 0.81854 0.21457 0.80868 0.0
N398 N 0.83674 0.23246 0.80625 0.0
N399 N 0.84531 0.20022 0.78298 0.0
C400 C 0.85291 0.22327 0.79055 0.0
H401 H 0.81272 0.17773 0.79228 0.0
Co402 Co 0.8557 0.17788 0.7611 0.0
C403 C 0.90928 0.18844 0.75006 0.0
O404 O 0.91215 0.16358 0.74976 0.0
N405 N 0.86436 0.15443 0.73822 0.0
C406 C 0.87052 0.11955 0.71773 0.0
C407 C 0.86577 0.12871 0.73881 0.0
C408 C 0.86825 0.16028 0.71637 0.0
N409 N 0.87195 0.13939 0.70356 0.0
O410 O 0.83667 0.19765 0.74031 0.0
H411 H 0.86319 0.11682 0.75327 0.0
H412 H 0.86769 0.17952 0.70988 0.0
O413 O 0.88722 0.19799 0.7543 0.0
C414 C 0.81321 0.19166 0.73861 0.0
O415 O 0.80642 0.16828 0.74377 0.0
N416 N 0.87253 0.15905 0.7837 0.0
C417 C 0.89095 0.13501 0.82216 0.0
C418 C 0.90183 0.15775 0.81452 0.0
C419 C 0.89183 0.16984 0.79585 0.0
C420 C 0.8606 0.13782 0.79176 0.0
C421 C 0.87 0.12497 0.81059 0.0
H422 H 0.89894 0.18861 0.79212 0.0
H423 H 0.84318 0.13125 0.784 0.0
H424 H 0.8696 0.23321 0.78448 0.0
H425 H 0.80276 0.21535 0.82033 0.0
H426 H 0.87264 0.09969 0.71322 0.0
H427 H 0.91772 0.16653 0.82315 0.0
H428 H 0.86043 0.10796 0.8165 0.0
C429 C 0.5826 0.10049 0.5527 0.0
C430 C 0.56681 0.09282 0.56964 0.0
N431 N 0.54318 0.1013 0.56512 0.0
N432 N 0.56915 0.11415 0.53771 0.0
C433 C 0.54501 0.1141 0.54554 0.0
H434 H 0.60252 0.09569 0.551 0.0
Co435 Co 0.58356 0.12461 0.51109 0.0
C436 C 0.56334 0.17568 0.49968 0.0
O437 O 0.58637 0.18048 0.49224 0.0
N438 N 0.59896 0.13345 0.48349 0.0
C439 C 0.62563 0.14301 0.4557 0.0
C440 C 0.62341 0.13923 0.47835 0.0
C441 C 0.58686 0.13361 0.46348 0.0
N442 N 0.60262 0.1394 0.44635 0.0
O443 O 0.56182 0.10068 0.49612 0.0
H444 H 0.63906 0.14058 0.48989 0.0
H445 H 0.56672 0.12976 0.46156 0.0
O446 O 0.55822 0.15335 0.50754 0.0
C447 C 0.57372 0.07956 0.4948 0.0
O448 O 0.59814 0.07945 0.49966 0.0
N449 N 0.60571 0.14564 0.52786 0.0
C450 C 0.63531 0.16548 0.56255 0.0
C451 C 0.6109 0.17496 0.55832 0.0
C452 C 0.59619 0.16429 0.54147 0.0
C453 C 0.62961 0.13627 0.53172 0.0
C454 C 0.64502 0.14633 0.5487 0.0
H455 H 0.57635 0.16941 0.54117 0.0
H456 H 0.636 0.11952 0.52281 0.0
H457 H 0.52914 0.12288 0.53693 0.0
H458 H 0.57214 0.08117 0.58384 0.0
H459 H 0.64302 0.14739 0.44675 0.0
H460 H 0.60252 0.1894 0.56899 0.0
H461 H 0.6635 0.13796 0.55198 0.0
C462 C 0.67377 0.79961 0.29088 0.0
C463 C 0.67975 0.78183 0.30691 0.0
N464 N 0.66535 0.76099 0.30326 0.0
N465 N 0.6555 0.79008 0.27744 0.0
C466 C 0.65094 0.76639 0.2852 0.0
H467 H 0.68167 0.81858 0.28944 0.0
Co468 Co 0.64077 0.80806 0.25435 0.0
C469 C 0.60023 0.7731 0.23708 0.0
O470 O 0.61072 0.77154 0.21717 0.0
N471 N 0.62599 0.82662 0.23082 0.0
C472 C 0.59702 0.846 0.20963 0.0
C473 C 0.60175 0.83527 0.23018 0.0
C474 C 0.63565 0.83259 0.2105 0.0
N475 N 0.61838 0.84425 0.19729 0.0
O476 O 0.66088 0.78823 0.23412 0.0
H477 H 0.58807 0.83327 0.2436 0.0
H478 H 0.65459 0.82759 0.205 0.0
O479 O 0.61175 0.7849 0.25278 0.0
C480 C 0.68267 0.79894 0.23269 0.0
O481 O 0.68512 0.82221 0.24056 0.0
N482 N 0.62351 0.8278 0.27551 0.0
C483 C 0.60556 0.85624 0.31166 0.0
C484 C 0.59735 0.83111 0.30819 0.0
C485 C 0.60705 0.81706 0.29047 0.0
C486 C 0.63126 0.85241 0.27806 0.0
C487 C 0.62253 0.86703 0.29609 0.0
H488 H 0.60208 0.79715 0.28956 0.0
H489 H 0.6451 0.86034 0.26659 0.0
H490 H 0.63649 0.75382 0.27847 0.0
H491 H 0.69309 0.78427 0.32056 0.0
H492 H 0.57917 0.85418 0.20412 0.0
H493 H 0.58387 0.82198 0.31932 0.0
H494 H 0.62969 0.88623 0.29818 0.0
C495 C 0.93231 0.92035 0.05277 0.0
C496 C 0.94998 0.92525 0.06907 0.0
N497 N 0.97123 0.91204 0.06418 0.0
N498 N 0.94229 0.90394 0.03783 0.0
C499 C 0.96619 0.89935 0.04502 0.0
H500 H 0.91325 0.92809 0.05182 0.0
Co501 Co 0.92361 0.89385 0.01354 0.0
C502 C 0.94263 0.84345 -0.00118 0.0
O503 O 0.91858 0.83768 0.99537 0.0
N504 N 0.90366 0.88558 0.98829 0.0
C505 C 0.87173 0.88149 0.964 0.0
C506 C 0.87809 0.88688 0.98578 0.0
C507 C 0.91238 0.88031 0.96745 0.0
N508 N 0.89333 0.87718 0.95255 0.0
O509 O 0.94194 0.91846 0.99613 0.0
H510 H 0.86463 0.89222 -0.0015 0.0
H511 H 0.9324 0.87899 0.96326 0.0
O512 O 0.9485 0.86594 0.00585 0.0
C513 C 0.93039 0.93982 0.99575 0.0
O514 O 0.90675 0.94062 0.00299 0.0
N515 N 0.90543 0.87145 0.03281 0.0
C516 C 0.88183 0.84485 0.06777 0.0
C517 C 0.90657 0.83878 0.06098 0.0
C518 C 0.91823 0.85277 0.04417 0.0
C519 C 0.88169 0.87842 0.03992 0.0
C520 C 0.86922 0.86493 0.05698 0.0
H521 H 0.93824 0.84944 0.04157 0.0
H522 H 0.87306 0.89562 0.03363 0.0
H523 H 0.97933 0.88653 0.0368 0.0
H524 H 0.94737 0.93743 0.08352 0.0
H525 H 0.85266 0.88072 0.95714 0.0
H526 H 0.9173 0.82374 0.06906 0.0
H527 H 0.85049 0.87096 0.06242 0.0
C528 C 0.61722 0.7258 0.79171 0.0
C529 C 0.60806 0.73912 0.80956 0.0
N530 N 0.58358 0.73259 0.81248 0.0
N531 N 0.59863 0.71064 0.78338 0.0
C532 C 0.57808 0.71544 0.79638 0.0
H533 H 0.63658 0.72693 0.78574 0.0
Co534 Co 0.60228 0.68739 0.76007 0.0
C535 C 0.55869 0.69848 0.74077 0.0
O536 O 0.55536 0.67584 0.74971 0.0
N537 N 0.60612 0.66429 0.73613 0.0
C538 C 0.60558 0.63089 0.71314 0.0
C539 C 0.6021 0.63887 0.73485 0.0
C540 C 0.61181 0.67123 0.71491 0.0
N541 N 0.6118 0.6513 0.7007 0.0
O542 O 0.63295 0.70548 0.75045 0.0
H543 H 0.59647 0.62665 0.74848 0.0
H544 H 0.61528 0.69073 0.70985 0.0
O545 O 0.58084 0.70854 0.74177 0.0
C546 C 0.65525 0.69888 0.74412 0.0
O547 O 0.66072 0.67461 0.74167 0.0
N548 N 0.61994 0.66597 0.77982 0.0
C549 C 0.62859 0.6418 0.82057 0.0
C550 C 0.64658 0.65895 0.812 0.0
C551 C 0.64203 0.67073 0.79129 0.0
C552 C 0.60282 0.64875 0.78787 0.0
C553 C 0.60713 0.63587 0.80778 0.0
H554 H 0.65488 0.6856 0.7861 0.0
H555 H 0.58436 0.64699 0.78001 0.0
H556 H 0.55978 0.70618 0.79439 0.0
H557 H 0.61855 0.7526 0.81974 0.0
H558 H 0.60369 0.61159 0.70696 0.0
H559 H 0.66291 0.66458 0.82192 0.0
H560 H 0.59234 0.62354 0.81437 0.0
C561 C 0.57635 0.40913 0.05621 0.0
C562 C 0.55822 0.41413 0.07209 0.0
N563 N 0.53656 0.40226 0.06605 0.0
N564 N 0.56628 0.39397 0.0403 0.0
C565 C 0.54192 0.38999 0.04672 0.0
H566 H 0.59536 0.41707 0.05567 0.0
Co567 Co 0.58328 0.38823 0.0138 0.0
C568 C 0.57191 0.33607 -0.00134 0.0
O569 O 0.59632 0.33523 0.99384 0.0
N570 N 0.60077 0.38423 0.9864 0.0
C571 C 0.6286 0.38052 0.9584 0.0
C572 C 0.62585 0.38327 0.98118 0.0
C573 C 0.58883 0.38249 0.9664 0.0
N574 N 0.60524 0.38011 0.94919 0.0
O575 O 0.55881 0.40944 -0.00056 0.0
H576 H 0.64145 0.38437 0.99283 0.0
H577 H 0.56832 0.3823 0.96457 0.0
O578 O 0.56266 0.35666 0.00713 0.0
C579 C 0.56553 0.43277 -0.0013 0.0
O580 O 0.58921 0.43861 0.00366 0.0
N581 N 0.60764 0.36938 0.0301 0.0
C582 C 0.63842 0.35148 0.0647 0.0
C583 C 0.61581 0.33892 0.05912 0.0
C584 C 0.6004 0.34853 0.04229 0.0
C585 C 0.62983 0.38172 0.03522 0.0
C586 C 0.64587 0.37275 0.05221 0.0
H587 H 0.58158 0.3405 0.0408 0.0
H588 H 0.63407 0.39984 0.02746 0.0
H589 H 0.52804 0.37972 0.0368 0.0
H590 H 0.56062 0.42604 0.08674 0.0
H591 H 0.64639 0.37925 0.94932 0.0
H592 H 0.60917 0.32276 0.06881 0.0
H593 H 0.66283 0.38339 0.05664 0.0
C594 C 0.83335 0.30743 0.29645 0.0
C595 C 0.8323 0.28842 0.31217 0.0
N596 N 0.85318 0.27378 0.30981 0.0
N597 N 0.85476 0.30482 0.28425 0.0
C598 C 0.86645 0.28403 0.29263 0.0
H599 H 0.81955 0.32249 0.29418 0.0
Co600 Co 0.86278 0.32772 0.26204 0.0
C601 C 0.91443 0.31575 0.24494 0.0
O602 O 0.91778 0.34053 0.24404 0.0
N603 N 0.86932 0.35176 0.23897 0.0
C604 C 0.87696 0.38707 0.21941 0.0
C605 C 0.8711 0.37745 0.24012 0.0
C606 C 0.8731 0.34646 0.21698 0.0
N607 N 0.87832 0.36757 0.20491 0.0
O608 O 0.83949 0.30982 0.24282 0.0
H609 H 0.86866 0.38892 0.25487 0.0
H610 H 0.87333 0.32734 0.21019 0.0
O611 O 0.89295 0.30678 0.25191 0.0
C612 C 0.81818 0.32154 0.24225 0.0
O613 O 0.81727 0.34489 0.25014 0.0
N614 N 0.88296 0.34549 0.28306 0.0
C615 C 0.90594 0.37052 0.31903 0.0
C616 C 0.91666 0.34831 0.31011 0.0
C617 C 0.90454 0.33573 0.29261 0.0
C618 C 0.87137 0.36606 0.29259 0.0
C619 C 0.88291 0.37938 0.31015 0.0
H620 H 0.91208 0.31751 0.2877 0.0
H621 H 0.85271 0.37185 0.28685 0.0
H622 H 0.88469 0.27709 0.28684 0.0
H623 H 0.81741 0.28571 0.32449 0.0
H624 H 0.88022 0.4069 0.21533 0.0
H625 H 0.9341 0.3404 0.31686 0.0
H626 H 0.87347 0.39586 0.31722 0.0
C627 C 0.96272 0.58105 0.53117 0.0
C628 C 0.97897 0.56988 0.54614 0.0
N629 N 0.99697 0.58703 0.55188 0.0
N630 N 0.97047 0.60505 0.52707 0.0
C631 C 0.99148 0.6082 0.53979 0.0
H632 H 0.94607 0.57231 0.52378 0.0
Co633 Co 0.95218 0.6254 0.50752 0.0
C634 C 0.97223 0.67835 0.51264 0.0
O635 O 0.94905 0.68591 0.51744 0.0
N636 N 0.93264 0.64504 0.48678 0.0
C637 C 0.90455 0.67117 0.4706 0.0
C638 C 0.9129 0.66115 0.49048 0.0
C639 C 0.9356 0.64566 0.46423 0.0
N640 N 0.91882 0.66136 0.45408 0.0
O641 O 0.97252 0.61136 0.48404 0.0
H642 H 0.90505 0.6661 0.50658 0.0
H643 H 0.94994 0.63504 0.45523 0.0
O644 O 0.97673 0.65448 0.50965 0.0
C645 C 0.96676 0.58886 0.47775 0.0
O646 O 0.9427 0.58199 0.47871 0.0
N647 N 0.93259 0.63635 0.53204 0.0
C648 C 0.9044 0.64382 0.57091 0.0
C649 C 0.92992 0.65127 0.5699 0.0
C650 C 0.94378 0.64713 0.55041 0.0
C651 C 0.90813 0.62755 0.53326 0.0
C652 C 0.89332 0.6319 0.55236 0.0
H653 H 0.96373 0.65203 0.55039 0.0
H654 H 0.90008 0.61723 0.51927 0.0
H655 H 1.00181 0.62599 0.54081 0.0
H656 H 0.97725 0.55067 0.55251 0.0
H657 H 0.88889 0.68434 0.46847 0.0
H658 H 0.9391 0.66027 0.5841 0.0
H659 H 0.87367 0.62559 0.55282 0.0
C660 C 0.66195 0.3058 0.70582 0.0
C661 C 0.67447 0.29074 0.6906 0.0
N662 N 0.66372 0.26738 0.69086 0.0
N663 N 0.64327 0.29212 0.71552 0.0
C664 C 0.64494 0.26875 0.70633 0.0
H665 H 0.66591 0.3256 0.70943 0.0
Co666 Co 0.62212 0.30471 0.73754 0.0
C667 C 0.58471 0.26373 0.74632 0.0
O668 O 0.59274 0.26241 0.76712 0.0
N669 N 0.60101 0.31804 0.75991 0.0
C670 C 0.5667 0.33251 0.77761 0.0
C671 C 0.57568 0.32207 0.75809 0.0
C672 C 0.607 0.32635 0.78065 0.0
N673 N 0.58645 0.33526 0.79181 0.0
O674 O 0.64048 0.28426 0.75839 0.0
H675 H 0.56439 0.31764 0.74345 0.0
H676 H 0.6261 0.32627 0.78735 0.0
O677 O 0.59648 0.27806 0.73245 0.0
C678 C 0.66116 0.2957 0.76339 0.0
O679 O 0.66261 0.32028 0.75931 0.0
N680 N 0.60654 0.32539 0.7163 0.0
C681 C 0.59012 0.35748 0.68211 0.0
C682 C 0.58606 0.33107 0.68092 0.0
C683 C 0.59491 0.31536 0.6979 0.0
C684 C 0.61054 0.35097 0.71802 0.0
C685 C 0.60242 0.36744 0.70107 0.0
H686 H 0.59323 0.29503 0.69571 0.0
H687 H 0.62071 0.35849 0.73232 0.0
H688 H 0.63253 0.25314 0.7109 0.0
H689 H 0.68959 0.29694 0.67957 0.0
H690 H 0.54707 0.33738 0.7811 0.0
H691 H 0.57625 0.3224 0.66692 0.0
H692 H 0.60626 0.38763 0.70261 0.0
C693 C 0.94382 0.4245 0.95088 0.0
C694 C 0.95924 0.4296 0.93304 0.0
N695 N 0.97318 0.40866 0.9286 0.0
N696 N 0.94812 0.40063 0.95816 0.0
C697 C 0.96622 0.39132 0.94431 0.0
H698 H 0.92996 0.43737 0.95801 0.0
Co699 Co 0.92889 0.38919 0.98195 0.0
C700 C 0.94625 0.33856 0.99659 0.0
O701 O 0.92182 0.33354 -0.0015 0.0
N702 N 0.90845 0.37967 0.00672 0.0
C703 C 0.87712 0.37113 0.03078 0.0
C704 C 0.8832 0.37497 0.00858 0.0
C705 C 0.91711 0.37874 0.02802 0.0
N706 N 0.89852 0.3737 0.04298 0.0
O707 O 0.94723 0.41302 0.0005 0.0
H708 H 0.86971 0.37495 0.99497 0.0
H709 H 0.93684 0.38194 0.03248 0.0
O710 O 0.95337 0.36057 0.98922 0.0
C711 C 0.93463 0.43322 0.00487 0.0
O712 O 0.90996 0.43318 0.00106 0.0
N713 N 0.9105 0.36844 0.96179 0.0
C714 C 0.88546 0.34712 0.92485 0.0
C715 C 0.9082 0.33663 0.93296 0.0
C716 C 0.92083 0.34806 0.95077 0.0
C717 C 0.88851 0.37908 0.95407 0.0
C718 C 0.87551 0.36861 0.93578 0.0
H719 H 0.93962 0.34115 0.95455 0.0
H720 H 0.88164 0.39658 0.96148 0.0
H721 H 0.97349 0.37208 0.9453 0.0
H722 H 0.95989 0.44744 0.92401 0.0
H723 H 0.85824 0.36787 0.03749 0.0
H724 H 0.91679 0.32007 0.92525 0.0
H725 H 0.85847 0.37795 0.92975 0.0
C726 C 0.8554 0.67088 0.18518 0.0
C727 C 0.84853 0.68784 0.16885 0.0
N728 N 0.85849 0.71071 0.17407 0.0
N729 N 0.86996 0.68284 0.20052 0.0
C730 C 0.8716 0.70717 0.1933 0.0
H731 H 0.84879 0.65144 0.1865 0.0
Co732 Co 0.8769 0.66858 0.22813 0.0
C733 C 0.93027 0.68082 0.2398 0.0
O734 O 0.93155 0.65725 0.24713 0.0
N735 N 0.88214 0.65397 0.25659 0.0
C736 C 0.88499 0.62815 0.28602 0.0
C737 C 0.88054 0.62947 0.26341 0.0
C738 C 0.88698 0.66716 0.27559 0.0
N739 N 0.88912 0.65189 0.29368 0.0
O740 O 0.85721 0.69517 0.24134 0.0
H741 H 0.87604 0.61332 0.25306 0.0
H742 H 0.88932 0.68764 0.27599 0.0
O743 O 0.90917 0.68907 0.23153 0.0
C744 C 0.83349 0.69007 0.24256 0.0
O745 O 0.82615 0.66639 0.23945 0.0
N746 N 0.89432 0.64193 0.2132 0.0
C747 C 0.91152 0.60569 0.18256 0.0
C748 C 0.9249 0.6284 0.18583 0.0
C749 C 0.91547 0.64662 0.20046 0.0
C750 C 0.88088 0.6199 0.21001 0.0
C751 C 0.88919 0.60141 0.19477 0.0
H752 H 0.92409 0.66521 0.19979 0.0
H753 H 0.86244 0.6176 0.21783 0.0
H754 H 0.88052 0.72233 0.20278 0.0
H755 H 0.83646 0.68382 0.15459 0.0
H756 H 0.88455 0.61102 0.29611 0.0
H757 H 0.94134 0.63305 0.17561 0.0
H758 H 0.87768 0.58461 0.19176 0.0
C759 C 0.53898 0.58577 0.46196 0.0
C760 C 0.51745 0.58491 0.44899 0.0
N761 N 0.50895 0.60885 0.44654 0.0
N762 N 0.5438 0.61012 0.46786 0.0
C763 C 0.52523 0.62389 0.45797 0.0
H764 H 0.55057 0.56964 0.46669 0.0
Co765 Co 0.57057 0.61821 0.48655 0.0
C766 C 0.56521 0.6719 0.50114 0.0
O767 O 0.5901 0.67307 0.49912 0.0
N768 N 0.59813 0.62489 0.50616 0.0
C769 C 0.63565 0.63163 0.52261 0.0
C770 C 0.62358 0.62637 0.50268 0.0
C771 C 0.59543 0.62873 0.52842 0.0
N772 N 0.61784 0.63302 0.53873 0.0
O773 O 0.55386 0.59858 0.50947 0.0
H774 H 0.63312 0.62393 0.48686 0.0
H775 H 0.57717 0.6291 0.53683 0.0
O776 O 0.55361 0.6509 0.49638 0.0
C777 C 0.5646 0.57695 0.512 0.0
O778 O 0.58725 0.57356 0.50309 0.0
N779 N 0.58688 0.63441 0.46238 0.0
C780 C 0.6113 0.65149 0.42381 0.0
C781 C 0.592 0.66598 0.43373 0.0
C782 C 0.57949 0.65676 0.45261 0.0
C783 C 0.6044 0.61929 0.452 0.0
C784 C 0.61714 0.62759 0.43279 0.0
H785 H 0.5634 0.66741 0.45868 0.0
H786 H 0.60855 0.60064 0.45879 0.0
H787 H 0.52362 0.6444 0.45903 0.0
H788 H 0.50921 0.56817 0.44124 0.0
H789 H 0.65595 0.63396 0.52511 0.0
H790 H 0.58607 0.68397 0.42652 0.0
H791 H 0.63147 0.61556 0.42515 0.0
C792 C 0.32896 0.31281 0.19377 0.0
C793 C 0.32207 0.29296 0.18012 0.0
N794 N 0.33685 0.2728 0.18519 0.0
N795 N 0.34805 0.30521 0.20723 0.0
C796 C 0.35244 0.28073 0.20175 0.0
H797 H 0.32042 0.33155 0.19415 0.0
Co798 Co 0.35986 0.32513 0.23001 0.0
C799 C 0.41101 0.30663 0.24324 0.0
O800 O 0.41707 0.33076 0.2457 0.0
N801 N 0.37022 0.34605 0.25401 0.0
C802 C 0.38087 0.37791 0.27676 0.0
C803 C 0.37361 0.37154 0.25537 0.0
C804 C 0.37483 0.33757 0.27502 0.0
N805 N 0.38182 0.35645 0.28904 0.0
O806 O 0.33629 0.30777 0.2492 0.0
H807 H 0.37102 0.385 0.24199 0.0
H808 H 0.3733 0.31775 0.27985 0.0
O809 O 0.38824 0.30057 0.23711 0.0
C810 C 0.31529 0.3199 0.25052 0.0
O811 O 0.31496 0.34384 0.24407 0.0
N812 N 0.3807 0.34231 0.20899 0.0
C813 C 0.4049 0.36581 0.17267 0.0
C814 C 0.41214 0.34146 0.17977 0.0
C815 C 0.39927 0.32977 0.19731 0.0
C816 C 0.37236 0.3654 0.2015 0.0
C817 C 0.38456 0.3778 0.18371 0.0
H818 H 0.40357 0.31006 0.20048 0.0
H819 H 0.35543 0.37378 0.20868 0.0
H820 H 0.36644 0.26884 0.20994 0.0
H821 H 0.30776 0.29353 0.16708 0.0
H822 H 0.3855 0.39684 0.28267 0.0
H823 H 0.42741 0.33114 0.17164 0.0
H824 H 0.37756 0.39614 0.17817 0.0
C825 C 0.47778 0.60667 0.94172 0.0
C826 C 0.4991 0.6006 0.92957 0.0
N827 N 0.51816 0.61606 0.93613 0.0
N828 N 0.48336 0.62587 0.95586 0.0
C829 C 0.50814 0.63138 0.95202 0.0
H830 H 0.45962 0.59696 0.94109 0.0
Co831 Co 0.46114 0.63466 0.97842 0.0
C832 C 0.47406 0.68607 0.99395 0.0
O833 O 0.44951 0.69079 0.99333 0.0
N834 N 0.43831 0.6423 0.00207 0.0
C835 C 0.40545 0.64936 0.02489 0.0
C836 C 0.4128 0.64593 0.00296 0.0
C837 C 0.44581 0.64353 0.02369 0.0
N838 N 0.4263 0.64766 0.03788 0.0
O839 O 0.47917 0.61152 -0.00257 0.0
H840 H 0.39995 0.64566 0.9889 0.0
H841 H 0.46542 0.64136 0.02894 0.0
O842 O 0.48262 0.66419 0.98783 0.0
C843 C 0.46659 0.59071 -0.00185 0.0
O844 O 0.44356 0.59034 0.98951 0.0
N845 N 0.44275 0.65419 0.95778 0.0
C846 C 0.41402 0.6744 0.92267 0.0
C847 C 0.43667 0.6863 0.92969 0.0
C848 C 0.45124 0.67536 0.94674 0.0
C849 C 0.42176 0.64159 0.95026 0.0
C850 C 0.40696 0.65145 0.933 0.0
H851 H 0.46959 0.68359 0.9505 0.0
H852 H 0.41676 0.62338 0.95752 0.0
H853 H 0.51898 0.64528 0.96143 0.0
H854 H 0.5006 0.58579 0.91703 0.0
H855 H 0.38614 0.65186 0.03086 0.0
H856 H 0.44334 0.70373 0.92199 0.0
H857 H 0.39051 0.64072 0.92744 0.0
C858 C 0.15672 0.69504 0.69335 0.0
C859 C 0.16577 0.71275 0.67842 0.0
N860 N 0.15404 0.73512 0.68249 0.0
N861 N 0.13923 0.70612 0.70662 0.0
C862 C 0.13799 0.73054 0.69972 0.0
H863 H 0.16306 0.67553 0.69499 0.0
Co864 Co 0.12539 0.69069 0.73152 0.0
C865 C 0.08361 0.72479 0.74572 0.0
O866 O 0.09512 0.72871 0.76495 0.0
N867 N 0.11204 0.67481 0.75688 0.0
C868 C 0.08512 0.65785 0.78138 0.0
C869 C 0.08832 0.66536 0.75952 0.0
C870 C 0.12302 0.67243 0.77717 0.0
N871 N 0.10696 0.66247 0.79257 0.0
O872 O 0.1432 0.71534 0.74919 0.0
H873 H 0.07383 0.6651 0.74664 0.0
H874 H 0.14221 0.67865 0.7807 0.0
O875 O 0.09483 0.71192 0.7305 0.0
C876 C 0.1671 0.71122 0.75042 0.0
O877 O 0.17543 0.68823 0.74569 0.0
N878 N 0.10957 0.66678 0.7129 0.0
C879 C 0.09345 0.63298 0.67995 0.0
C880 C 0.08575 0.65848 0.67956 0.0
C881 C 0.09421 0.67509 0.69598 0.0
C882 C 0.11674 0.64184 0.71406 0.0
C883 C 0.10861 0.62441 0.69776 0.0
H884 H 0.08956 0.69501 0.69417 0.0
H885 H 0.12956 0.63569 0.72715 0.0
H886 H 0.12589 0.7447 0.70745 0.0
H887 H 0.18037 0.70953 0.66594 0.0
H888 H 0.06755 0.65092 0.78862 0.0
H889 H 0.07378 0.66578 0.66625 0.0
H890 H 0.11494 0.6048 0.69855 0.0
C891 C 0.06667 0.42286 0.44595 0.0
C892 C 0.04908 0.43032 0.43022 0.0
N893 N 0.028 0.41599 0.43289 0.0
N894 N 0.05667 0.40397 0.45844 0.0
C895 C 0.03307 0.40023 0.45017 0.0
H896 H 0.08557 0.43068 0.44822 0.0
Co897 Co 0.07282 0.38927 0.48263 0.0
C898 C 0.03662 0.3505 0.50099 0.0
O899 O 0.03912 0.35958 0.52137 0.0
N900 N 0.08961 0.37457 0.50731 0.0
C901 C 0.10576 0.34562 0.53047 0.0
C902 C 0.09763 0.35021 0.509 0.0
C903 C 0.09351 0.38444 0.52792 0.0
N904 N 0.10298 0.36716 0.54251 0.0
O905 O 0.05351 0.41179 0.50131 0.0
H906 H 0.0962 0.33614 0.49584 0.0
H907 H 0.08849 0.40366 0.53242 0.0
O908 O 0.04721 0.36209 0.48462 0.0
C909 C 0.06547 0.43296 0.50227 0.0
O910 O 0.08944 0.43337 0.49587 0.0
N911 N 0.0922 0.3697 0.46286 0.0
C912 C 0.12054 0.34891 0.42792 0.0
C913 C 0.0951 0.34175 0.43135 0.0
C914 C 0.08115 0.35276 0.44852 0.0
C915 C 0.1172 0.37621 0.46049 0.0
C916 C 0.13184 0.36595 0.44309 0.0
H917 H 0.0611 0.34866 0.44927 0.0
H918 H 0.12546 0.39032 0.47153 0.0
H919 H 0.01976 0.38639 0.45676 0.0
H920 H 0.05187 0.44465 0.41741 0.0
H921 H 0.11165 0.3273 0.53693 0.0
H922 H 0.08564 0.3283 0.42039 0.0
H923 H 0.15138 0.37213 0.44099 0.0
C924 C 0.33759 0.71204 0.28314 0.0
C925 C 0.3319 0.73168 0.29733 0.0
N926 N 0.35076 0.74905 0.29607 0.0
N927 N 0.35989 0.71688 0.27286 0.0
C928 C 0.36758 0.73962 0.28102 0.0
H929 H 0.32638 0.69499 0.28064 0.0
Co930 Co 0.37219 0.69371 0.25243 0.0
C931 C 0.42527 0.70712 0.24063 0.0
O932 O 0.42997 0.68255 0.24082 0.0
N933 N 0.38278 0.66931 0.23111 0.0
C934 C 0.39505 0.63417 0.21321 0.0
C935 C 0.38642 0.64388 0.23313 0.0
C936 C 0.38848 0.67427 0.20941 0.0
N937 N 0.39641 0.65332 0.19837 0.0
O938 O 0.35273 0.7109 0.23019 0.0
H939 H 0.38347 0.63265 0.24794 0.0
H940 H 0.38797 0.69315 0.20213 0.0
O941 O 0.4027 0.71521 0.24523 0.0
C942 C 0.32941 0.70436 0.22862 0.0
O943 O 0.32292 0.68139 0.23528 0.0
N944 N 0.38964 0.67759 0.27622 0.0
C945 C 0.40857 0.65749 0.31635 0.0
C946 C 0.41779 0.68058 0.30779 0.0
C947 C 0.40798 0.69035 0.288 0.0
C948 C 0.37891 0.65623 0.2852 0.0
C949 C 0.38868 0.6453 0.30477 0.0
H950 H 0.41413 0.70916 0.28326 0.0
H951 H 0.36219 0.64797 0.27749 0.0
H952 H 0.38519 0.74887 0.27625 0.0
H953 H 0.31567 0.7325 0.30849 0.0
H954 H 0.40003 0.61452 0.20989 0.0
H955 H 0.4317 0.69187 0.31678 0.0
H956 H 0.38033 0.62778 0.31089 0.0
C957 C 0.05403 0.59381 0.04252 0.0
C958 C 0.03965 0.5812 0.05817 0.0
N959 N 0.01594 0.59096 0.05773 0.0
N960 N 0.03955 0.61163 0.03247 0.0
C961 C 0.01632 0.60939 0.04194 0.0
H962 H 0.07377 0.59012 0.03847 0.0
Co963 Co 0.05154 0.63101 0.00898 0.0
C964 C 0.01227 0.66998 0.00063 0.0
O965 O 0.0088 0.66019 0.98061 0.0
N966 N 0.06443 0.64992 0.98516 0.0
C967 C 0.08169 0.68176 0.96591 0.0
C968 C 0.07051 0.67493 0.98577 0.0
C969 C 0.07197 0.64196 0.96471 0.0
N970 N 0.08264 0.661 0.95274 0.0
O971 O 0.02799 0.61334 0.99012 0.0
H972 H 0.06752 0.68733 -1e-05 0.0
H973 H 0.07046 0.62246 0.95899 0.0
O974 O 0.02697 0.65861 0.01446 0.0
C975 C 0.03387 0.59023 0.98602 0.0
O976 O 0.05783 0.58343 0.98827 0.0
N977 N 0.07475 0.64648 0.02847 0.0
C978 C 0.10919 0.66281 0.06063 0.0
C979 C 0.0831 0.66667 0.06361 0.0
C980 C 0.06615 0.65827 0.0474 0.0
C981 C 0.10021 0.64269 0.02518 0.0
C982 C 0.11795 0.651 0.0411 0.0
H983 H 0.04601 0.66012 0.05069 0.0
H984 H 0.10667 0.63259 0.01045 0.0
H985 H 1.00014 0.62108 0.03745 0.0
H986 H 0.04606 0.56592 0.06895 0.0
H987 H 0.08863 0.70053 0.96149 0.0
H988 H 0.07585 0.6756 0.07868 0.0
H989 H 0.1381 0.64769 0.0385 0.0
C990 C 0.15391 0.2949 0.7959 0.0
C991 C 0.16685 0.27888 0.80996 0.0
N992 N 0.16313 0.25481 0.80292 0.0
N993 N 0.14148 0.28108 0.78029 0.0
C994 C 0.14813 0.25672 0.78461 0.0
H995 H 0.15355 0.31546 0.79698 0.0
Co996 Co 0.12434 0.29649 0.75663 0.0
C997 C 0.08513 0.25185 0.76373 0.0
O998 O 0.09654 0.23846 0.77931 0.0
N999 N 0.10822 0.31286 0.73284 0.0
C1000 C 0.07909 0.33381 0.71314 0.0
C1001 C 0.08369 0.32064 0.73253 0.0
C1002 C 0.11811 0.32134 0.71332 0.0
N1003 N 0.10074 0.33424 0.70112 0.0
O1004 O 0.14337 0.27546 0.73662 0.0
H1005 H 0.07013 0.31755 0.74589 0.0
H1006 H 0.1378 0.31882 0.70843 0.0
O1007 O 0.09561 0.27212 0.75617 0.0
C1008 C 0.16684 0.28139 0.73462 0.0
O1009 O 0.17429 0.30384 0.74188 0.0
N1010 N 0.10677 0.31715 0.77715 0.0
C1011 C 0.08321 0.34799 0.80895 0.0
C1012 C 0.08056 0.32146 0.80974 0.0
C1013 C 0.09272 0.30641 0.79391 0.0
C1014 C 0.11011 0.3429 0.77628 0.0
C1015 C 0.09827 0.35876 0.79196 0.0
H1016 H 0.09139 0.28605 0.79563 0.0
H1017 H 0.12207 0.35112 0.76341 0.0
H1018 H 0.1427 0.24071 0.77428 0.0
H1019 H 0.17727 0.28447 0.82481 0.0
H1020 H 0.06121 0.34243 0.70824 0.0
H1021 H 0.06903 0.31226 0.82242 0.0
H1022 H 0.10114 0.37916 0.79095 0.0
C1023 C 0.43642 0.39884 0.55688 0.0
C1024 C 0.45243 0.40637 0.5737 0.0
N1025 N 0.47639 0.40001 0.56789 0.0
N1026 N 0.45011 0.38745 0.54066 0.0
C1027 C 0.47448 0.38837 0.54778 0.0
H1028 H 0.41612 0.40225 0.55605 0.0
Co1029 Co 0.43558 0.3805 0.51337 0.0
C1030 C 0.45617 0.32974 0.50015 0.0
O1031 O 0.43292 0.32315 0.49435 0.0
N1032 N 0.41979 0.37629 0.48561 0.0
C1033 C 0.39269 0.38748 0.45877 0.0
C1034 C 0.39873 0.38998 0.48092 0.0
C1035 C 0.427 0.3666 0.46554 0.0
N1036 N 0.41049 0.37279 0.44905 0.0
O1037 O 0.45838 0.40479 0.50046 0.0
H1038 H 0.38929 0.40261 0.49254 0.0
H1039 H 0.44479 0.35676 0.46265 0.0
O1040 O 0.4604 0.35248 0.50732 0.0
C1041 C 0.45284 0.42834 0.50238 0.0
O1042 O 0.42972 0.43464 0.5087 0.0
N1043 N 0.41311 0.35712 0.52791 0.0
C1044 C 0.38325 0.32895 0.55781 0.0
C1045 C 0.40948 0.32481 0.55623 0.0
C1046 C 0.42402 0.33939 0.54171 0.0
C1047 C 0.38738 0.36105 0.52889 0.0
C1048 C 0.37202 0.34691 0.54355 0.0
H1049 H 0.44444 0.33736 0.54278 0.0
H1050 H 0.37863 0.37619 0.51958 0.0
H1051 H 0.49054 0.38187 0.53795 0.0
H1052 H 0.44685 0.41589 0.589 0.0
H1053 H 0.37683 0.39649 0.45032 0.0
H1054 H 0.419 0.311 0.56679 0.0
H1055 H 0.35182 0.35096 0.54455 0.0
H1056 H 0.1089 0.18116 0.07143 0.0
H1057 H 0.08462 0.10268 0.06318 0.0
H1058 H 0.08471 0.09706 0.10416 0.0
H1059 H 0.15079 0.17025 0.11951 0.0
H1060 H 0.14215 0.19974 0.13296 0.0
H1061 H 0.14147 0.19734 0.10287 0.0
H1062 H 0.09426 0.21172 0.10274 0.0
H1063 H 0.09479 0.21416 0.13279 0.0
H1064 H 0.07128 0.19441 0.11926 0.0
H1065 H 0.08574 0.10025 0.14562 0.0
H1066 H 0.08698 0.11223 0.18546 0.0
H1067 H 0.11062 0.18872 0.16734 0.0
C1068 C 0.104 0.1627 0.07826 0.0
C1069 C 0.0967 0.14235 0.06412 0.0
C1070 C 0.08994 0.11861 0.07369 0.0
C1071 C 0.09014 0.11517 0.09693 0.0
C1072 C 0.09719 0.13566 0.11038 0.0
C1073 C 0.10402 0.15896 0.10146 0.0
C1074 C 0.10977 0.17815 0.11976 0.0
C1075 C 0.13771 0.18688 0.11871 0.0
C1076 C 0.09142 0.20095 0.11856 0.0
C1077 C 0.1048 0.16202 0.14035 0.0
C1078 C 0.09772 0.13755 0.13449 0.0
C1079 C 0.09134 0.11933 0.15044 0.0
C1080 C 0.09193 0.12637 0.17302 0.0
C1081 C 0.09878 0.15143 0.17948 0.0
C1082 C 0.10562 0.16936 0.16289 0.0
H1083 H 0.08916 0.88611 0.41952 0.0
H1084 H 0.15879 0.84701 0.43802 0.0
H1085 H 0.16324 0.83106 0.39937 0.0
H1086 H 0.06577 0.83799 0.38024 0.0
H1087 H 0.05337 0.86127 0.36094 0.0
H1088 H 0.05478 0.86838 0.39042 0.0
H1089 H 0.08116 0.90904 0.38201 0.0
H1090 H 0.07977 0.9021 0.35253 0.0
H1091 H 0.11018 0.90642 0.36602 0.0
H1092 H 0.16089 0.82042 0.35858 0.0
H1093 H 0.15336 0.81818 0.31785 0.0
H1094 H 0.08533 0.86421 0.32571 0.0
C1095 C 0.10516 0.87396 0.41544 0.0
C1096 C 0.12367 0.86784 0.43171 0.0
C1097 C 0.14458 0.85221 0.42572 0.0
C1098 C 0.14714 0.84286 0.40388 0.0
C1099 C 0.12864 0.84934 0.3882 0.0
C1100 C 0.10811 0.86462 0.39364 0.0
C1101 C 0.09168 0.86985 0.37333 0.0
C1102 C 0.06481 0.8587 0.37642 0.0
C1103 C 0.09065 0.89856 0.36817 0.0
C1104 C 0.10642 0.85547 0.35558 0.0
C1105 C 0.12748 0.84348 0.36457 0.0
C1106 C 0.14435 0.82956 0.35136 0.0
C1107 C 0.13983 0.82826 0.32825 0.0
C1108 C 0.11875 0.84099 0.31859 0.0
C1109 C 0.10168 0.85441 0.33258 0.0
H1110 H 0.36817 0.84093 0.66638 0.0
H1111 H 0.42218 0.89785 0.68922 0.0
H1112 H 0.4386 0.90239 0.65071 0.0
H1113 H 0.40968 0.81116 0.62483 0.0
H1114 H 0.38416 0.80614 0.60513 0.0
H1115 H 0.37759 0.80636 0.63473 0.0
H1116 H 0.34395 0.84184 0.62885 0.0
H1117 H 0.35041 0.84173 0.59926 0.0
H1118 H 0.35308 0.87094 0.61495 0.0
H1119 H 0.44827 0.90168 0.60969 0.0
H1120 H 0.44913 0.89733 0.56861 0.0
H1121 H 0.38893 0.84074 0.57232 0.0
C1122 C 0.38367 0.85408 0.6633 0.0
C1123 C 0.3939 0.86906 0.68077 0.0
C1124 C 0.41387 0.88642 0.67603 0.0
C1125 C 0.42346 0.88897 0.65426 0.0
C1126 C 0.41286 0.87404 0.6374 0.0
C1127 C 0.39335 0.85699 0.64162 0.0
C1128 C 0.38452 0.8441 0.6203 0.0
C1129 C 0.38928 0.81522 0.62132 0.0
C1130 C 0.35632 0.85002 0.61557 0.0
C1131 C 0.40187 0.85685 0.60341 0.0
C1132 C 0.41826 0.87383 0.61366 0.0
C1133 C 0.43567 0.88829 0.60147 0.0
C1134 C 0.43613 0.88556 0.57814 0.0
C1135 C 0.41915 0.86863 0.5672 0.0
C1136 C 0.40203 0.85393 0.58015 0.0
H1137 H 0.35519 0.12935 0.82714 0.0
H1138 H 0.41322 0.18065 0.80212 0.0
H1139 H 0.4263 0.19059 0.84106 0.0
H1140 H 0.33738 0.16844 0.87512 0.0
H1141 H 0.33165 0.14125 0.89287 0.0
H1142 H 0.32695 0.13871 0.86309 0.0
H1143 H 0.35807 0.1004 0.86182 0.0
H1144 H 0.36297 0.10292 0.89156 0.0
H1145 H 0.38986 0.10404 0.87281 0.0
H1146 H 0.43511 0.19179 0.88295 0.0
H1147 H 0.43564 0.18792 0.92445 0.0
H1148 H 0.36978 0.13835 0.92148 0.0
C1149 C 0.37053 0.14277 0.82997 0.0
C1150 C 0.3833 0.15423 0.81184 0.0
C1151 C 0.40316 0.17189 0.81595 0.0
C1152 C 0.41075 0.1775 0.83794 0.0
C1153 C 0.39793 0.16562 0.85553 0.0
C1154 C 0.37794 0.14896 0.85176 0.0
C1155 C 0.36699 0.13901 0.87346 0.0
C1156 C 0.33909 0.14736 0.8763 0.0
C1157 C 0.36964 0.10987 0.87499 0.0
C1158 C 0.38419 0.1523 0.89006 0.0
C1159 C 0.40211 0.16738 0.87946 0.0
C1160 C 0.42091 0.18036 0.89144 0.0
C1161 C 0.42118 0.17802 0.91488 0.0
C1162 C 0.40253 0.1632 0.92593 0.0
C1163 C 0.38387 0.15024 0.91334 0.0
H1164 H 0.86296 0.89257 0.91856 0.0
H1165 H 0.92792 0.84495 0.93434 0.0
H1166 H 0.92937 0.8301 0.89499 0.0
H1167 H 0.83219 0.84966 0.88125 0.0
H1168 H 0.82155 0.87417 0.86231 0.0
H1169 H 0.82618 0.8814 0.89149 0.0
H1170 H 0.85718 0.91796 0.88092 0.0
H1171 H 0.85252 0.91095 0.85169 0.0
H1172 H 0.88423 0.91126 0.86327 0.0
H1173 H 0.92203 0.81899 0.85414 0.0
H1174 H 0.9088 0.8152 0.81449 0.0
H1175 H 0.84911 0.87074 0.82586 0.0
C1176 C 0.87749 0.87904 0.9137 0.0
C1177 C 0.89531 0.86984 0.92942 0.0
C1178 C 0.91428 0.8524 0.92244 0.0
C1179 C 0.91512 0.84376 0.9002 0.0
C1180 C 0.89699 0.85297 0.88518 0.0
C1181 C 0.87873 0.87046 0.89161 0.0
C1182 C 0.86157 0.87763 0.87228 0.0
C1183 C 0.83373 0.87026 0.87713 0.0
C1184 C 0.86404 0.90614 0.86671 0.0
C1185 C 0.87283 0.86124 0.85397 0.0
C1186 C 0.89315 0.84703 0.86173 0.0
C1187 C 0.90622 0.83012 0.84788 0.0
C1188 C 0.89847 0.82794 0.82546 0.0
C1189 C 0.878 0.84273 0.81712 0.0
C1190 C 0.86502 0.85946 0.83168 0.0
H1191 H 0.89407 0.17495 0.67641 0.0
H1192 H 0.85762 0.10069 0.67635 0.0
H1193 H 0.86527 0.09689 0.63587 0.0
H1194 H 0.8699 0.19535 0.62165 0.0
H1195 H 0.89901 0.21149 0.61416 0.0
H1196 H 0.88977 0.20902 0.64314 0.0
H1197 H 0.93312 0.18801 0.65247 0.0
H1198 H 0.94247 0.19036 0.62355 0.0
H1199 H 0.94285 0.15987 0.63743 0.0
H1200 H 0.87842 0.0999 0.59603 0.0
H1201 H 0.89588 0.11002 0.55875 0.0
H1202 H 0.92342 0.18257 0.58379 0.0
C1203 C 0.88738 0.15809 0.6678 0.0
C1204 C 0.87539 0.13804 0.67963 0.0
C1205 C 0.86723 0.1161 0.66778 0.0
C1206 C 0.87131 0.11384 0.64472 0.0
C1207 C 0.88348 0.13372 0.63363 0.0
C1208 C 0.89133 0.15549 0.64468 0.0
C1209 C 0.90466 0.17366 0.62875 0.0
C1210 C 0.88995 0.19887 0.62681 0.0
C1211 C 0.93242 0.17823 0.63599 0.0
C1212 C 0.9033 0.15852 0.60715 0.0
C1213 C 0.89094 0.13557 0.6104 0.0
C1214 C 0.88803 0.11787 0.59322 0.0
C1215 C 0.89815 0.12371 0.57215 0.0
C1216 C 0.911 0.14705 0.56837 0.0
C1217 C 0.91337 0.16475 0.58611 0.0
H1218 H 0.61973 0.18449 0.32035 0.0
H1219 H 0.55824 0.13282 0.30292 0.0
H1220 H 0.55435 0.12011 0.34249 0.0
H1221 H 0.64879 0.14373 0.36224 0.0
H1222 H 0.65712 0.16995 0.38031 0.0
H1223 H 0.65522 0.17471 0.3505 0.0
H1224 H 0.62286 0.21132 0.35663 0.0
H1225 H 0.62452 0.20656 0.38645 0.0
H1226 H 0.59417 0.20529 0.37238 0.0
H1227 H 0.5564 0.11376 0.38409 0.0
H1228 H 0.56569 0.11286 0.42462 0.0
H1229 H 0.626 0.16835 0.41476 0.0
C1230 C 0.6057 0.17024 0.32476 0.0
C1231 C 0.58921 0.15976 0.30849 0.0
C1232 C 0.57083 0.14142 0.31511 0.0
C1233 C 0.56854 0.13398 0.33753 0.0
C1234 C 0.58484 0.14496 0.35317 0.0
C1235 C 0.60317 0.16257 0.34708 0.0
C1236 C 0.61818 0.1716 0.36721 0.0
C1237 C 0.6465 0.16457 0.36492 0.0
C1238 C 0.61471 0.2004 0.37087 0.0
C1239 C 0.60539 0.15633 0.38554 0.0
C1240 C 0.58615 0.14114 0.37712 0.0
C1241 C 0.57145 0.12555 0.3909 0.0
C1242 C 0.57673 0.12531 0.41391 0.0
C1243 C 0.59659 0.1405 0.42287 0.0
C1244 C 0.61094 0.15627 0.4084 0.0
H1245 H 0.57399 0.86611 0.07214 0.0
H1246 H 0.65034 0.89346 0.05751 0.0
H1247 H 0.66292 0.88482 0.09657 0.0
H1248 H 0.56945 0.89414 0.12642 0.0
H1249 H 0.55163 0.86796 0.13811 0.0
H1250 H 0.54909 0.87515 0.10873 0.0
H1251 H 0.56225 0.8289 0.09895 0.0
H1252 H 0.5648 0.82152 0.12831 0.0
H1253 H 0.59158 0.81622 0.11 0.0
H1254 H 0.66691 0.87354 0.13764 0.0
H1255 H 0.6616 0.86133 0.17741 0.0
H1256 H 0.58226 0.84321 0.16489 0.0
C1257 C 0.59332 0.87055 0.07705 0.0
C1258 C 0.61112 0.88056 0.06159 0.0
C1259 C 0.63637 0.88553 0.06885 0.0
C1260 C 0.64368 0.88081 0.09107 0.0
C1261 C 0.62552 0.87119 0.10585 0.0
C1262 C 0.60085 0.86617 0.09911 0.0
C1263 C 0.58476 0.85637 0.11828 0.0
C1264 C 0.56242 0.87449 0.12317 0.0
C1265 C 0.5753 0.82914 0.1136 0.0
C1266 C 0.6042 0.85681 0.13695 0.0
C1267 C 0.62766 0.86522 0.12945 0.0
C1268 C 0.64862 0.86694 0.14369 0.0
C1269 C 0.64547 0.85991 0.16619 0.0
C1270 C 0.62151 0.85149 0.17422 0.0
C1271 C 0.60069 0.84996 0.15932 0.0
H1272 H 0.59156 0.61301 0.5735 0.0
H1273 H 0.65267 0.66518 0.55665 0.0
H1274 H 0.65815 0.67556 0.5968 0.0
H1275 H 0.56402 0.64986 0.61754 0.0
H1276 H 0.55665 0.62268 0.63481 0.0
H1277 H 0.55783 0.61933 0.60483 0.0
H1278 H 0.5911 0.58316 0.60883 0.0
H1279 H 0.59001 0.58636 0.63883 0.0
H1280 H 0.62002 0.58894 0.62432 0.0
H1281 H 0.65531 0.68167 0.63866 0.0
H1282 H 0.64648 0.68074 0.67939 0.0
H1283 H 0.58833 0.62335 0.66869 0.0
C1284 C 0.60603 0.62667 0.5783 0.0
C1285 C 0.62165 0.63841 0.56207 0.0
C1286 C 0.64068 0.65588 0.56892 0.0
C1287 C 0.64381 0.66196 0.59162 0.0
C1288 C 0.62795 0.65015 0.60721 0.0
C1289 C 0.60961 0.63267 0.60086 0.0
C1290 C 0.59526 0.62237 0.62088 0.0
C1291 C 0.56675 0.62896 0.61942 0.0
C1292 C 0.59936 0.5935 0.62336 0.0
C1293 C 0.60823 0.63696 0.63951 0.0
C1294 C 0.6269 0.65302 0.63129 0.0
C1295 C 0.64087 0.66903 0.6453 0.0
C1296 C 0.63566 0.66849 0.66833 0.0
C1297 C 0.61687 0.65187 0.67708 0.0
C1298 C 0.60307 0.63592 0.66244 0.0
H1299 H 0.63131 0.3531 0.91796 0.0
H1300 H 0.56479 0.40076 0.92775 0.0
H1301 H 0.55325 0.39525 0.88795 0.0
H1302 H 0.64688 0.37498 0.86198 0.0
H1303 H 0.65644 0.34385 0.85242 0.0
H1304 H 0.65991 0.35226 0.8815 0.0
H1305 H 0.63311 0.31282 0.89286 0.0
H1306 H 0.62957 0.30429 0.86383 0.0
H1307 H 0.60175 0.30859 0.88112 0.0
H1308 H 0.54883 0.38429 0.84734 0.0
H1309 H 0.5511 0.3678 0.80882 0.0
H1310 H 0.61993 0.3262 0.82579 0.0
C1311 C 0.61451 0.36263 0.91164 0.0
C1312 C 0.59894 0.3774 0.92589 0.0
C1313 C 0.57682 0.38918 0.91714 0.0
C1314 C 0.57021 0.38628 0.89456 0.0
C1315 C 0.5859 0.37147 0.881 0.0
C1316 C 0.60755 0.35978 0.88919 0.0
C1317 C 0.62064 0.34417 0.87125 0.0
C1318 C 0.64756 0.35444 0.86651 0.0
C1319 C 0.62129 0.31579 0.87765 0.0
C1320 C 0.60294 0.34891 0.8517 0.0
C1321 C 0.5831 0.36479 0.85765 0.0
C1322 C 0.56424 0.37176 0.84249 0.0
C1323 C 0.56561 0.36213 0.82065 0.0
C1324 C 0.58563 0.34556 0.81418 0.0
C1325 C 0.60455 0.33903 0.83001 0.0
H1326 H 0.85814 0.34291 0.16899 0.0
H1327 H 0.91684 0.39623 0.18923 0.0
H1328 H 0.92993 0.40153 0.14981 0.0
H1329 H 0.89355 0.31347 0.12236 0.0
H1330 H 0.8658 0.31108 0.10471 0.0
H1331 H 0.86243 0.30964 0.13471 0.0
H1332 H 0.83034 0.34707 0.13333 0.0
H1333 H 0.83369 0.3487 0.10337 0.0
H1334 H 0.8396 0.37659 0.12019 0.0
H1335 H 0.93543 0.40272 0.10864 0.0
H1336 H 0.93231 0.40089 0.06759 0.0
H1337 H 0.86942 0.34748 0.07305 0.0
C1338 C 0.874 0.35532 0.16502 0.0
C1339 C 0.88658 0.36916 0.18202 0.0
C1340 C 0.90694 0.38564 0.17634 0.0
C1341 C 0.91456 0.38864 0.15406 0.0
C1342 C 0.90153 0.37513 0.13761 0.0
C1343 C 0.88164 0.35883 0.14271 0.0
C1344 C 0.8699 0.34788 0.12158 0.0
C1345 C 0.87312 0.31879 0.1208 0.0
C1346 C 0.84171 0.35553 0.1195 0.0
C1347 C 0.88609 0.36087 0.10387 0.0
C1348 C 0.9044 0.37624 0.11357 0.0
C1349 C 0.92134 0.39057 0.10081 0.0
C1350 C 0.91951 0.38929 0.07747 0.0
C1351 C 0.90075 0.3739 0.06704 0.0
C1352 C 0.88389 0.35947 0.08052 0.0
H1353 H 0.91078 0.62274 0.3261 0.0
H1354 H 0.87891 0.69759 0.31322 0.0
H1355 H 0.88605 0.70931 0.35275 0.0
H1356 H 0.8824 0.61399 0.37906 0.0
H1357 H 0.90934 0.59766 0.39106 0.0
H1358 H 0.90365 0.596 0.36139 0.0
H1359 H 0.94918 0.61315 0.35382 0.0
H1360 H 0.955 0.61492 0.38351 0.0
H1361 H 0.95906 0.64283 0.36629 0.0
H1362 H 0.89387 0.71174 0.39424 0.0
H1363 H 0.90211 0.70483 0.43448 0.0
H1364 H 0.92825 0.62818 0.42019 0.0
C1365 C 0.9053 0.64162 0.33153 0.0
C1366 C 0.89426 0.65923 0.31649 0.0
C1367 C 0.88769 0.68386 0.3243 0.0
C1368 C 0.89159 0.69067 0.34675 0.0
C1369 C 0.90223 0.67269 0.36115 0.0
C1370 C 0.90909 0.6487 0.35382 0.0
C1371 C 0.91922 0.63254 0.37282 0.0
C1372 C 0.90266 0.60864 0.37628 0.0
C1373 C 0.94728 0.62545 0.36887 0.0
C1374 C 0.91649 0.651 0.39211 0.0
C1375 C 0.90681 0.67411 0.38501 0.0
C1376 C 0.90162 0.69379 0.39996 0.0
C1377 C 0.90621 0.68963 0.42279 0.0
C1378 C 0.91585 0.66598 0.43046 0.0
C1379 C 0.92132 0.64659 0.4148 0.0
H1380 H 0.39484 0.40225 0.41458 0.0
H1381 H 0.42895 0.32931 0.43048 0.0
H1382 H 0.42699 0.31725 0.39034 0.0
H1383 H 0.3506 0.37971 0.37538 0.0
H1384 H 0.35309 0.40696 0.35714 0.0
H1385 H 0.35932 0.41039 0.3866 0.0
H1386 H 0.40402 0.42901 0.37788 0.0
H1387 H 0.39786 0.4258 0.34835 0.0
H1388 H 0.42571 0.41122 0.36048 0.0
H1389 H 0.41781 0.31232 0.34858 0.0
H1390 H 0.40471 0.31584 0.3089 0.0
H1391 H 0.37616 0.39199 0.32151 0.0
C1392 C 0.40201 0.38377 0.40964 0.0
C1393 C 0.41189 0.3666 0.42561 0.0
C1394 C 0.42148 0.34277 0.41843 0.0
C1395 C 0.42032 0.33576 0.39573 0.0
C1396 C 0.40976 0.35295 0.38051 0.0
C1397 C 0.40105 0.37658 0.3872 0.0
C1398 C 0.38985 0.39141 0.36789 0.0
C1399 C 0.36154 0.39746 0.37201 0.0
C1400 C 0.40529 0.4158 0.36338 0.0
C1401 C 0.39313 0.37228 0.34925 0.0
C1402 C 0.40469 0.35022 0.35675 0.0
C1403 C 0.4089 0.32959 0.34254 0.0
C1404 C 0.40119 0.33166 0.32009 0.0
C1405 C 0.38942 0.35421 0.31212 0.0
C1406 C 0.38544 0.37469 0.32699 0.0
H1407 H 0.39501 0.67312 0.06652 0.0
H1408 H 0.45961 0.62167 0.06385 0.0
H1409 H 0.46048 0.61991 0.10502 0.0
H1410 H 0.41538 0.70781 0.11681 0.0
H1411 H 0.38341 0.71076 0.12752 0.0
H1412 H 0.3888 0.70938 0.09775 0.0
H1413 H 0.35789 0.67099 0.09476 0.0
H1414 H 0.35243 0.67225 0.12448 0.0
H1415 H 0.36342 0.64314 0.11173 0.0
H1416 H 0.45238 0.62077 0.14596 0.0
H1417 H 0.43663 0.62558 0.18469 0.0
H1418 H 0.37788 0.67717 0.16151 0.0
C1419 C 0.4094 0.66161 0.07464 0.0
C1420 C 0.42734 0.64765 0.06196 0.0
C1421 C 0.44597 0.63288 0.07318 0.0
C1422 C 0.44654 0.63165 0.09657 0.0
C1423 C 0.42849 0.64548 0.10855 0.0
C1424 C 0.41037 0.66033 0.09804 0.0
C1425 C 0.39274 0.67273 0.11493 0.0
C1426 C 0.39524 0.7019 0.11421 0.0
C1427 C 0.36498 0.66426 0.11125 0.0
C1428 C 0.40344 0.662 0.13652 0.0
C1429 C 0.42409 0.64637 0.13239 0.0
C1430 C 0.43641 0.63317 0.14945 0.0
C1431 C 0.42727 0.63588 0.17132 0.0
C1432 C 0.40614 0.65176 0.17596 0.0
C1433 C 0.3943 0.66523 0.15836 0.0
H1434 H 0.06436 0.63427 0.91738 0.0
H1435 H 0.12453 0.68569 0.93811 0.0
H1436 H 0.14054 0.68746 0.89929 0.0
H1437 H 0.10143 0.60012 0.87307 0.0
H1438 H 0.07423 0.59828 0.85473 0.0
H1439 H 0.06977 0.59802 0.88465 0.0
H1440 H 0.03928 0.63664 0.88138 0.0
H1441 H 0.04374 0.63712 0.85153 0.0
H1442 H 0.05025 0.6653 0.8678 0.0
H1443 H 0.14698 0.68764 0.85819 0.0
H1444 H 0.14319 0.68703 0.81733 0.0
H1445 H 0.07916 0.63475 0.82265 0.0
C1446 C 0.08133 0.64527 0.91377 0.0
C1447 C 0.09333 0.65977 0.93064 0.0
C1448 C 0.11506 0.67456 0.92531 0.0
C1449 C 0.12438 0.67552 0.90338 0.0
C1450 C 0.11176 0.66153 0.88698 0.0
C1451 C 0.09075 0.6466 0.89186 0.0
C1452 C 0.07929 0.63543 0.87076 0.0
C1453 C 0.08131 0.60622 0.87081 0.0
C1454 C 0.0515 0.64416 0.8677 0.0
C1455 C 0.09663 0.64711 0.85325 0.0
C1456 C 0.11543 0.66177 0.86302 0.0
C1457 C 0.13264 0.67583 0.85031 0.0
C1458 C 0.13035 0.67525 0.82697 0.0
C1459 C 0.11089 0.66076 0.81647 0.0
C1460 C 0.09419 0.64612 0.82995 0.0
H1461 H 0.12639 0.31551 0.66538 0.0
H1462 H 0.08162 0.37958 0.68849 0.0
H1463 H 0.08241 0.39808 0.65049 0.0
H1464 H 0.16505 0.35123 0.62252 0.0
H1465 H 0.16393 0.32497 0.6031 0.0
H1466 H 0.16365 0.31898 0.63282 0.0
H1467 H 0.12194 0.293 0.62843 0.0
H1468 H 0.12199 0.29904 0.5988 0.0
H1469 H 0.09465 0.30767 0.61541 0.0
H1470 H 0.08314 0.40665 0.6098 0.0
H1471 H 0.08297 0.40478 0.56892 0.0
H1472 H 0.12793 0.33526 0.57137 0.0
C1473 C 0.11753 0.33383 0.66248 0.0
C1474 C 0.1041 0.3463 0.67975 0.0
C1475 C 0.09197 0.36983 0.67537 0.0
C1476 C 0.09247 0.38052 0.65392 0.0
C1477 C 0.10522 0.36742 0.63704 0.0
C1478 C 0.11765 0.34464 0.64103 0.0
C1479 C 0.12752 0.33315 0.61943 0.0
C1480 C 0.15678 0.33203 0.61948 0.0
C1481 C 0.11582 0.30666 0.61528 0.0
C1482 C 0.11785 0.35254 0.60267 0.0
C1483 C 0.10544 0.37233 0.61324 0.0
C1484 C 0.09326 0.39152 0.6013 0.0
C1485 C 0.09336 0.39027 0.5779 0.0
C1486 C 0.10549 0.36985 0.56652 0.0
C1487 C 0.11837 0.3511 0.57928 0.0
H1488 H 0.92888 0.2717 0.2675 0.0
H1489 H 0.95314 0.32514 0.21638 0.0
H1490 H 0.99598 0.306 0.21635 0.0
H1491 H 0.98572 0.27252 0.2985 0.0
H1492 H 0.98587 0.23909 0.30539 0.0
H1493 H 0.95614 0.25512 0.30015 0.0
H1494 H 0.9449 0.2225 0.26921 0.0
H1495 H 0.97433 0.20599 0.27467 0.0
H1496 H 0.96717 0.21688 0.24676 0.0
H1497 H 0.03766 0.284 0.22439 0.0
H1498 H 0.07339 0.25624 0.23623 0.0
H1499 H 0.02237 0.21653 0.28156 0.0
C1500 C 0.94295 0.27873 0.25577 0.0
C1501 C 0.93754 0.2998 0.24178 0.0
C1502 C 0.95678 0.30893 0.22715 0.0
C1503 C 0.98127 0.29829 0.22709 0.0
C1504 C 0.98641 0.27834 0.24173 0.0
C1505 C 0.9677 0.26827 0.2555 0.0
C1506 C 0.97859 0.24716 0.26999 0.0
C1507 C 0.97645 0.25389 0.29499 0.0
C1508 C 0.96547 0.22162 0.26484 0.0
C1509 C 0.00623 0.24715 0.26231 0.0
C1510 C 0.0104 0.26543 0.24614 0.0
C1511 C 0.03457 0.26941 0.23691 0.0
C1512 C 0.05484 0.25374 0.24387 0.0
C1513 C 0.05078 0.23418 0.25977 0.0
C1514 C 0.02616 0.23125 0.26929 0.0
H1515 H 0.97105 0.72801 0.52673 0.0
H1516 H 0.01781 0.67407 0.49011 0.0
H1517 H 0.04765 0.70896 0.48033 0.0
H1518 H 0.97772 0.78024 0.48955 0.0
H1519 H 0.97938 0.80416 0.51115 0.0
H1520 H 0.96218 0.77498 0.51607 0.0
H1521 H 0.98949 0.7661 0.55131 0.0
H1522 H 0.0065 0.79547 0.54671 0.0
H1523 H 0.02374 0.7659 0.54901 0.0
H1524 H 0.07078 0.75012 0.47269 0.0
H1525 H 0.08893 0.79329 0.47141 0.0
H1526 H 0.02785 0.82087 0.514 0.0
C1527 C 0.98772 0.72342 0.51684 0.0
C1528 C 0.99208 0.69821 0.50914 0.0
C1529 C 0.01416 0.6931 0.49633 0.0
C1530 C 0.03109 0.71286 0.49056 0.0
C1531 C 0.02581 0.73758 0.49793 0.0
C1532 C 0.0049 0.74284 0.51113 0.0
C1533 C 0.00372 0.771 0.51709 0.0
C1534 C 0.97929 0.78331 0.50791 0.0
C1535 C 0.00601 0.77484 0.54254 0.0
C1536 C 0.02715 0.7809 0.50498 0.0
C1537 C 0.03945 0.76127 0.49392 0.0
C1538 C 0.06141 0.76554 0.48145 0.0
C1539 C 0.07152 0.79025 0.48079 0.0
C1540 C 0.0599 0.81061 0.49264 0.0
C1541 C 0.03708 0.80586 0.50459 0.0
H1542 H 0.45999 0.81259 0.74616 0.0
H1543 H 0.40144 0.75823 0.72731 0.0
H1544 H 0.43484 0.72583 0.72035 0.0
H1545 H 0.50918 0.79208 0.70686 0.0
H1546 H 0.53458 0.79661 0.72678 0.0
H1547 H 0.50638 0.81611 0.72827 0.0
H1548 H 0.49936 0.80242 0.76955 0.0
H1549 H 0.5277 0.78324 0.76819 0.0
H1550 H 0.49785 0.76898 0.77633 0.0
H1551 H 0.47435 0.69888 0.71765 0.0
H1552 H 0.51612 0.67813 0.72248 0.0
H1553 H 0.54901 0.74997 0.7437 0.0
C1554 C 0.45413 0.794 0.74021 0.0
C1555 C 0.42806 0.78801 0.737 0.0
C1556 C 0.42126 0.76327 0.72975 0.0
C1557 C 0.44013 0.74482 0.72566 0.0
C1558 C 0.46565 0.75142 0.729 0.0
C1559 C 0.47263 0.77537 0.73631 0.0
C1560 C 0.50113 0.77707 0.74038 0.0
C1561 C 0.51354 0.79663 0.72463 0.0
C1562 C 0.50683 0.78328 0.76507 0.0
C1563 C 0.50917 0.75019 0.73449 0.0
C1564 C 0.48842 0.73581 0.7277 0.0
C1565 C 0.49072 0.71003 0.7227 0.0
C1566 C 0.51456 0.69843 0.72544 0.0
C1567 C 0.53587 0.71253 0.73314 0.0
C1568 C 0.53326 0.73891 0.73715 0.0
H1569 H 0.45309 0.23902 0.00755 0.0
H1570 H 0.50624 0.17879 0.99036 0.0
H1571 H 0.54089 0.21065 0.98775 0.0
H1572 H 0.47881 0.2877 0.97199 0.0
H1573 H 0.47425 0.31315 0.99185 0.0
H1574 H 0.45346 0.28582 0.99229 0.0
H1575 H 0.46442 0.2781 0.034 0.0
H1576 H 0.48515 0.30548 0.03372 0.0
H1577 H 0.49729 0.27488 0.04227 0.0
H1578 H 0.56902 0.24868 0.98545 0.0
H1579 H 0.59065 0.28991 0.98659 0.0
H1580 H 0.52025 0.32654 0.00738 0.0
C1581 C 0.47203 0.23252 0.00318 0.0
C1582 C 0.47694 0.20637 -0.00107 0.0
C1583 C 0.50203 0.19865 0.99362 0.0
C1584 C 0.52179 0.21663 0.99206 0.0
C1585 C 0.51623 0.24222 0.99617 0.0
C1586 C 0.49207 0.25018 0.00191 0.0
C1587 C 0.49149 0.27881 0.00607 0.0
C1588 C 0.47343 0.29215 0.98956 0.0
C1589 C 0.48415 0.28466 0.03046 0.0
C1590 C 0.5191 0.28578 0.00146 0.0
C1591 C 0.53285 0.26429 0.99565 0.0
C1592 C 0.55851 0.26558 0.99015 0.0
C1593 C 0.5706 0.2893 0.99082 0.0
C1594 C 0.55728 0.31174 -0.00283 0.0
C1595 C 0.53103 0.30987 0.0025 0.0
H1596 H 0.94077 0.73247 0.2453 0.0
H1597 H 0.97536 0.66003 0.22816 0.0
H1598 H 0.01755 0.68043 0.2264 0.0
H1599 H 0.98313 0.77257 0.21069 0.0
H1600 H 0.9846 0.79772 0.23119 0.0
H1601 H 0.95663 0.77789 0.22931 0.0
H1602 H 0.96112 0.76651 0.27133 0.0
H1603 H 0.98921 0.78611 0.27328 0.0
H1604 H 0.99058 0.75306 0.28136 0.0
H1605 H 0.05663 0.70815 0.2278 0.0
H1606 H 0.0895 0.74167 0.23233 0.0
H1607 H 0.03027 0.79577 0.25001 0.0
C1608 C 0.95719 0.7211 0.24079 0.0
C1609 C 0.95474 0.69467 0.23683 0.0
C1610 C 0.97677 0.6803 0.23137 0.0
C1611 C 1.00087 0.69171 0.23027 0.0
C1612 C 0.00286 0.71761 0.23479 0.0
C1613 C 0.98166 0.7322 0.2399 0.0
C1614 C 0.98945 0.75942 0.24509 0.0
C1615 C 0.97776 0.778 0.22805 0.0
C1616 C 0.98216 0.76669 0.2692 0.0
C1617 C 0.0182 0.75767 0.24233 0.0
C1618 C 0.02554 0.73345 0.23617 0.0
C1619 C 0.05111 0.72724 0.23261 0.0
C1620 C 0.06969 0.74636 0.23528 0.0
C1621 C 0.06264 0.77134 0.24169 0.0
C1622 C 0.03647 0.77686 0.24528 0.0
H1623 H 0.51534 0.68598 0.49028 0.0
H1624 H 0.58521 0.71386 0.52058 0.0
H1625 H 0.56763 0.75715 0.52171 0.0
H1626 H 0.50382 0.73928 0.45574 0.0
H1627 H 0.46976 0.73987 0.45956 0.0
H1628 H 0.48688 0.7103 0.46221 0.0
H1629 H 0.46852 0.70381 0.50205 0.0
H1630 H 0.45103 0.73318 0.49939 0.0
H1631 H 0.47236 0.72859 0.52268 0.0
H1632 H 0.54477 0.79846 0.5159 0.0
H1633 H 0.51482 0.83408 0.50879 0.0
H1634 H 0.45861 0.78 0.4847 0.0
C1635 C 0.52662 0.70108 0.49768 0.0
C1636 C 0.55175 0.69641 0.50524 0.0
C1637 C 0.566 0.71686 0.51451 0.0
C1638 C 0.55621 0.74164 0.51521 0.0
C1639 C 0.53189 0.74587 0.50686 0.0
C1640 C 0.51699 0.72614 0.49873 0.0
C1641 C 0.49145 0.73622 0.49071 0.0
C1642 C 0.48777 0.73111 0.46556 0.0
C1643 C 0.46954 0.72477 0.50454 0.0
C1644 C 0.4946 0.76455 0.49538 0.0
C1645 C 0.51821 0.76973 0.50445 0.0
C1646 C 0.52603 0.79463 0.50914 0.0
C1647 C 0.50902 0.81476 0.50491 0.0
C1648 C 0.48437 0.80981 0.49645 0.0
C1649 C 0.47724 0.78435 0.49151 0.0
H1650 H 0.45369 0.19016 0.76849 0.0
H1651 H 0.42423 0.22301 0.70719 0.0
H1652 H 0.46487 0.24661 0.7021 0.0
H1653 H 0.49033 0.2467 0.78693 0.0
H1654 H 0.5155 0.22727 0.7983 0.0
H1655 H 0.48327 0.21545 0.79782 0.0
H1656 H 0.4987 0.17554 0.77624 0.0
H1657 H 0.53085 0.1875 0.77613 0.0
H1658 H 0.51544 0.17946 0.75011 0.0
H1659 H 0.51105 0.26262 0.7019 0.0
H1660 H 0.55579 0.27448 0.70902 0.0
H1661 H 0.5544 0.23135 0.77098 0.0
C1662 C 0.45552 0.20287 0.75429 0.0
C1663 C 0.43575 0.20491 0.73829 0.0
C1664 C 0.43894 0.22151 0.71983 0.0
C1665 C 0.46208 0.23474 0.71672 0.0
C1666 C 0.48162 0.23139 0.73236 0.0
C1667 C 0.47829 0.21627 0.75106 0.0
C1668 C 0.50228 0.21522 0.76517 0.0
C1669 C 0.49756 0.22686 0.78843 0.0
C1670 C 0.5124 0.1878 0.76701 0.0
C1671 C 0.51995 0.23173 0.75133 0.0
C1672 C 0.50777 0.2408 0.73242 0.0
C1673 C 0.52059 0.25582 0.7168 0.0
C1674 C 0.54619 0.26228 0.72092 0.0
C1675 C 0.55884 0.25388 0.74058 0.0
C1676 C 0.54543 0.23814 0.75579 0.0
H1677 H 0.04817 0.23198 0.96142 0.0
H1678 H 0.00921 0.18217 0.00819 0.0
H1679 H 0.98167 0.21811 0.01981 0.0
H1680 H 0.04738 0.28891 0.9941 0.0
H1681 H 0.04074 0.31 0.97101 0.0
H1682 H 0.05764 0.28063 0.96623 0.0
H1683 H 0.02412 0.26697 0.93675 0.0
H1684 H 0.00751 0.29656 0.94111 0.0
H1685 H 0.99085 0.26672 0.94426 0.0
H1686 H 0.96063 0.2596 0.02809 0.0
H1687 H 0.94036 0.30176 0.02731 0.0
H1688 H 0.99025 0.32499 0.97307 0.0
C1689 C 0.03361 0.22862 0.97394 0.0
C1690 C 0.03079 0.20429 0.98401 0.0
C1691 C 0.0115 0.20054 0.00018 0.0
C1692 C 0.99601 0.22092 0.00703 0.0
C1693 C 0.99977 0.24481 -0.00276 0.0
C1694 C 0.01757 0.24863 0.98058 0.0
C1695 C 0.01667 0.27594 0.97197 0.0
C1696 C 0.04213 0.28967 0.97608 0.0
C1697 C 0.00934 0.27658 0.94705 0.0
C1698 C 0.99566 0.28697 0.98655 0.0
C1699 C 0.98664 0.26868 0.00127 0.0
C1700 C 0.96737 0.27396 0.01652 0.0
C1701 C 0.9561 0.29808 0.01601 0.0
C1702 C 0.96372 0.31673 0.00018 0.0
C1703 C 0.98433 0.31134 0.98564 0.0
H1704 H 0.95064 0.78834 0.77843 0.0
H1705 H 0.91507 0.74298 0.72648 0.0
H1706 H 0.95624 0.7213 0.71958 0.0
H1707 H 0.00651 0.80017 0.75118 0.0
H1708 H 0.02715 0.79812 0.77522 0.0
H1709 H 0.99432 0.80706 0.77873 0.0
H1710 H 0.98725 0.77011 0.80678 0.0
H1711 H 0.02031 0.76145 0.80394 0.0
H1712 H 0.99579 0.73809 0.79886 0.0
H1713 H 0.00311 0.70976 0.71453 0.0
H1714 H 0.04978 0.70427 0.71562 0.0
H1715 H 0.05437 0.75687 0.7715 0.0
C1716 C 0.95127 0.77312 0.7662 0.0
C1717 C 0.92961 0.7672 0.7531 0.0
C1718 C 0.93126 0.74752 0.73698 0.0
C1719 C 0.95468 0.73531 0.73279 0.0
C1720 C 0.97607 0.74273 0.74515 0.0
C1721 C 0.97435 0.76071 0.76197 0.0
C1722 C 1.00023 0.76637 0.7721 0.0
C1723 C 0.00746 0.7946 0.76912 0.0
C1724 C 1.00093 0.75853 0.79689 0.0
C1725 C 0.01701 0.74931 0.75798 0.0
C1726 C 0.00277 0.73586 0.74249 0.0
C1727 C 0.01433 0.71991 0.72685 0.0
C1728 C 0.04096 0.71714 0.72744 0.0
C1729 C 0.05588 0.73017 0.74363 0.0
C1730 C 0.04358 0.74657 0.75897 0.0
H1731 H 0.02639 0.31376 0.53298 0.0
H1732 H 0.02591 0.32661 0.46121 0.0
H1733 H 0.01854 0.28082 0.45493 0.0
H1734 H 0.0574 0.25394 0.53298 0.0
H1735 H 0.03811 0.23999 0.55474 0.0
H1736 H 0.04296 0.27396 0.55397 0.0
H1737 H 0.99418 0.28136 0.55322 0.0
H1738 H 0.98918 0.24743 0.55447 0.0
H1739 H 0.97515 0.26577 0.53214 0.0
H1740 H 0.0147 0.23305 0.45627 0.0
H1741 H 0.00681 0.18788 0.46505 0.0
H1742 H 0.00595 0.2059 0.53596 0.0
C1743 C 0.0243 0.30707 0.51594 0.0
C1744 C 0.02737 0.3239 0.49755 0.0
C1745 C 0.02441 0.31417 0.47557 0.0
C1746 C 0.02013 0.28811 0.47182 0.0
C1747 C 0.01834 0.27192 0.49024 0.0
C1748 C 0.01964 0.28108 0.51189 0.0
C1749 C 0.01629 0.25959 0.5287 0.0
C1750 C 0.04011 0.25671 0.54347 0.0
C1751 C 0.99227 0.26379 0.54297 0.0
C1752 C 0.01317 0.23693 0.51311 0.0
C1753 C 0.01473 0.24448 0.491 0.0
C1754 C 0.01298 0.227 0.47352 0.0
C1755 C 0.00846 0.20131 0.4787 0.0
C1756 C 0.00525 0.19321 0.50117 0.0
C1757 C 0.00832 0.21131 0.51859 0.0
H1758 H 0.45281 0.30744 0.26976 0.0
H1759 H 0.41866 0.26612 0.21459 0.0
H1760 H 0.45981 0.24409 0.2079 0.0
H1761 H 0.51121 0.31906 0.24536 0.0
H1762 H 0.53 0.31477 0.27033 0.0
H1763 H 0.49734 0.32489 0.2725 0.0
H1764 H 0.48693 0.28672 0.29843 0.0
H1765 H 0.51975 0.27685 0.29689 0.0
H1766 H 0.49473 0.25487 0.28948 0.0
H1767 H 0.50689 0.23107 0.20446 0.0
H1768 H 0.55304 0.22279 0.2083 0.0
H1769 H 0.55553 0.27199 0.26661 0.0
C1770 C 0.45376 0.29312 0.25672 0.0
C1771 C 0.4325 0.28832 0.2428 0.0
C1772 C 0.43456 0.26975 0.22571 0.0
C1773 C 0.45796 0.25739 0.22165 0.0
C1774 C 0.47894 0.26354 0.23507 0.0
C1775 C 0.47678 0.28049 0.25265 0.0
C1776 C 0.50212 0.28443 0.26433 0.0
C1777 C 0.51066 0.31245 0.26304 0.0
C1778 C 0.5008 0.27516 0.28873 0.0
C1779 C 0.51916 0.2675 0.25032 0.0
C1780 C 0.50554 0.2557 0.23342 0.0
C1781 C 0.51757 0.23997 0.21784 0.0
C1782 C 0.54392 0.2356 0.22002 0.0
C1783 C 0.55805 0.24675 0.23776 0.0
C1784 C 0.54537 0.26312 0.25289 0.0
H1785 H 0.51286 0.83071 0.98462 0.0
H1786 H 0.51888 0.83089 0.05704 0.0
H1787 H 0.51399 0.78396 0.05732 0.0
H1788 H 0.46377 0.78362 0.98228 0.0
H1789 H 0.4753 0.76965 0.95664 0.0
H1790 H 0.48123 0.80275 0.96243 0.0
H1791 H 0.52906 0.79471 0.95661 0.0
H1792 H 0.52401 0.76119 0.95208 0.0
H1793 H 0.54548 0.77169 0.97375 0.0
H1794 H 0.50725 0.73702 0.04972 0.0
H1795 H 0.49254 0.69518 0.03547 0.0
H1796 H 0.48931 0.72589 0.96834 0.0
C1797 C 0.51319 0.82087 0.00055 0.0
C1798 C 0.51628 0.83446 0.02084 0.0
C1799 C 0.51634 0.82091 0.04133 0.0
C1800 C 0.51388 0.79422 0.04161 0.0
C1801 C 0.51119 0.78137 0.02128 0.0
C1802 C 0.51035 0.79433 0.00115 0.0
C1803 C 0.50495 0.77638 0.98183 0.0
C1804 C 0.47981 0.78352 0.97012 0.0
C1805 C 0.52722 0.77597 0.9651 0.0
C1806 C 0.50269 0.75126 0.99423 0.0
C1807 C 0.50685 0.75445 0.01693 0.0
C1808 C 0.50434 0.73423 0.03195 0.0
C1809 C 0.4963 0.71045 0.02372 0.0
C1810 C 0.49079 0.70717 0.00075 0.0
C1811 C 0.49452 0.72768 0.98581 0.0
H1812 H 0.95251 0.17764 0.77265 0.0
H1813 H 0.91913 0.23401 0.72858 0.0
H1814 H 0.96092 0.25644 0.72663 0.0
H1815 H 0.99289 0.22203 0.80365 0.0
H1816 H 0.01814 0.19905 0.80673 0.0
H1817 H 0.98554 0.1885 0.80483 0.0
H1818 H 0.99764 0.15948 0.77139 0.0
H1819 H 0.03018 0.17022 0.77296 0.0
H1820 H 0.01272 0.17327 0.74712 0.0
H1821 H 0.00805 0.27001 0.72721 0.0
H1822 H 0.05387 0.27708 0.73399 0.0
H1823 H 0.05495 0.213 0.77982 0.0
C1824 C 0.95394 0.19486 0.76272 0.0
C1825 C 0.93273 0.2041 0.75061 0.0
C1826 C 0.93517 0.22677 0.73803 0.0
C1827 C 0.95885 0.23946 0.73675 0.0
C1828 C 0.97961 0.22942 0.74851 0.0
C1829 C 0.97713 0.20789 0.76162 0.0
C1830 C 1.00202 0.20099 0.77294 0.0
C1831 C 0.99949 0.20276 0.79855 0.0
C1832 C 0.01117 0.17442 0.76566 0.0
C1833 C 0.01922 0.22171 0.76386 0.0
C1834 C 0.00606 0.23783 0.74967 0.0
C1835 C 0.01833 0.25778 0.73865 0.0
C1836 C 0.04445 0.26169 0.74266 0.0
C1837 C 0.05811 0.24603 0.75785 0.0
C1838 C 0.04519 0.22556 0.76829 0.0
H1839 H 0.45413 0.28091 0.48342 0.0
H1840 H 0.50247 0.33217 0.52157 0.0
H1841 H 0.53304 0.29706 0.52769 0.0
H1842 H 0.46444 0.22494 0.51697 0.0
H1843 H 0.46491 0.20329 0.49356 0.0
H1844 H 0.44668 0.23231 0.49197 0.0
H1845 H 0.47085 0.24542 0.45597 0.0
H1846 H 0.48887 0.21628 0.45725 0.0
H1847 H 0.50519 0.24649 0.45621 0.0
H1848 H 0.55813 0.25671 0.52989 0.0
H1849 H 0.5785 0.21488 0.5252 0.0
H1850 H 0.51434 0.18871 0.48568 0.0
C1851 C 0.47123 0.28484 0.49297 0.0
C1852 C 0.47588 0.30944 0.502 0.0
C1853 C 0.49852 0.31366 0.51434 0.0
C1854 C 0.51591 0.29374 0.51805 0.0
C1855 C 0.51047 0.26968 0.50927 0.0
C1856 C 0.48885 0.26519 0.49675 0.0
C1857 C 0.48792 0.23766 0.48873 0.0
C1858 C 0.4646 0.22373 0.49839 0.0
C1859 C 0.48824 0.2364 0.46301 0.0
C1860 C 0.51251 0.22733 0.49863 0.0
C1861 C 0.52501 0.24619 0.51057 0.0
C1862 C 0.54842 0.2418 0.52072 0.0
C1863 C 0.55976 0.21786 0.51809 0.0
C1864 C 0.54778 0.19833 0.5055 0.0
C1865 C 0.52359 0.20301 0.49591 0.0
H1866 H 0.46851 0.69947 0.21655 0.0
H1867 H 0.43293 0.75269 0.26238 0.0
H1868 H 0.47389 0.77597 0.26577 0.0
H1869 H 0.5267 0.69443 0.24351 0.0
H1870 H 0.54601 0.69306 0.21858 0.0
H1871 H 0.51348 0.68223 0.21779 0.0
H1872 H 0.50354 0.71338 0.18535 0.0
H1873 H 0.53621 0.72398 0.18568 0.0
H1874 H 0.51075 0.74677 0.18855 0.0
H1875 H 0.52007 0.78972 0.26781 0.0
H1876 H 0.56617 0.79711 0.26442 0.0
H1877 H 0.57166 0.73601 0.21578 0.0
C1878 C 0.46917 0.71646 0.22683 0.0
C1879 C 0.44752 0.72442 0.23911 0.0
C1880 C 0.44915 0.74654 0.25256 0.0
C1881 C 0.47241 0.7597 0.25472 0.0
C1882 C 0.49366 0.75073 0.24301 0.0
C1883 C 0.49207 0.72997 0.22889 0.0
C1884 C 0.51778 0.72378 0.21857 0.0
C1885 C 0.52649 0.69678 0.22501 0.0
C1886 C 0.51702 0.72719 0.19302 0.0
C1887 C 0.53435 0.74388 0.22954 0.0
C1888 C 0.52006 0.75911 0.24368 0.0
C1889 C 0.53132 0.7781 0.25658 0.0
C1890 C 0.5577 0.78192 0.25474 0.0
C1891 C 0.57273 0.76701 0.23997 0.0
C1892 C 0.56074 0.74777 0.22717 0.0
H1893 H 0.97772 0.69853 0.97693 0.0
H1894 H 0.02959 0.70269 0.03334 0.0
H1895 H 0.02062 0.74874 0.03704 0.0
H1896 H 0.99299 0.75896 0.95279 0.0
H1897 H 0.96067 0.76605 0.94473 0.0
H1898 H 0.97111 0.73343 0.94654 0.0
H1899 H 0.93458 0.72317 0.97435 0.0
H1900 H 0.92372 0.75558 0.97219 0.0
H1901 H 0.93101 0.74225 -0.00075 0.0
H1902 H 0.00647 0.79557 0.03363 0.0
H1903 H 0.98384 0.83637 0.0269 0.0
H1904 H 0.94108 0.80074 0.97331 0.0
C1905 C 0.98704 0.70902 0.99022 0.0
C1906 C 0.00434 0.69683 0.00486 0.0
C1907 C 0.01608 0.71141 0.02202 0.0
C1908 C 0.01129 0.73771 0.02411 0.0
C1909 C 0.9946 0.74924 0.00902 0.0
C1910 C 0.98234 0.73519 0.99265 0.0
C1911 C 0.96458 0.75177 0.97899 0.0
C1912 C 0.97284 0.75259 0.9543 0.0
C1913 C 0.93683 0.74266 0.98135 0.0
C1914 C 0.96862 0.77734 0.99023 0.0
C1915 C 0.98626 0.7757 0.00733 0.0
C1916 C 0.99265 0.797 0.02025 0.0
C1917 C 0.97993 0.82021 0.01616 0.0
C1918 C 0.96083 0.8218 -0.00051 0.0
C1919 C 0.95574 0.80019 0.98606 0.0
H1920 H 0.12321 0.27683 0.31342 0.0
H1921 H 0.20133 0.25537 0.32811 0.0
H1922 H 0.20218 0.28615 0.35906 0.0
H1923 H 0.13129 0.34663 0.32925 0.0
H1924 H 0.09938 0.3475 0.34038 0.0
H1925 H 0.10666 0.32729 0.31683 0.0
H1926 H 0.08885 0.28845 0.33858 0.0
H1927 H 0.0819 0.30831 0.36225 0.0
H1928 H 0.10195 0.28071 0.36565 0.0
H1929 H 0.19141 0.31219 0.39302 0.0
H1930 H 0.1707 0.33369 0.42504 0.0
H1931 H 0.10148 0.34151 0.3859 0.0
C1932 C 0.14087 0.27916 0.32247 0.0
C1933 C 0.16197 0.26313 0.31845 0.0
C1934 C 0.18458 0.26682 0.33111 0.0
C1935 C 0.1854 0.28454 0.34863 0.0
C1936 C 0.16376 0.29903 0.35289 0.0
C1937 C 0.14213 0.29701 0.33978 0.0
C1938 C 0.12064 0.31302 0.34899 0.0
C1939 C 0.11412 0.33492 0.3329 0.0
C1940 C 0.09697 0.29663 0.35418 0.0
C1941 C 0.13299 0.32291 0.37013 0.0
C1942 C 0.15797 0.31499 0.372 0.0
C1943 C 0.17211 0.31921 0.39144 0.0
C1944 C 0.16021 0.33144 0.40956 0.0
C1945 C 0.13442 0.33914 0.40806 0.0
C1946 C 0.12112 0.3356 0.38773 0.0
H1947 H 0.92395 0.87498 0.65591 0.0
H1948 H 0.97463 0.82197 0.68943 0.0
H1949 H 0.00746 0.82976 0.66076 0.0
H1950 H 0.93885 0.85841 0.60152 0.0
H1951 H 0.93828 0.89017 0.59004 0.0
H1952 H 0.91938 0.88267 0.61431 0.0
H1953 H 0.94101 0.91909 0.63662 0.0
H1954 H 0.95959 0.92711 0.61225 0.0
H1955 H 0.97528 0.92027 0.6384 0.0
H1956 H 0.03217 0.83848 0.62601 0.0
H1957 H 0.05054 0.85365 0.59021 0.0
H1958 H 0.98544 0.90308 0.58051 0.0
C1959 C 0.94225 0.86568 0.65762 0.0
C1960 C 0.94666 0.84767 0.67472 0.0
C1961 C 0.97074 0.83555 0.67622 0.0
C1962 C 0.98952 0.83986 0.66006 0.0
C1963 C 0.98411 0.85674 0.64278 0.0
C1964 C 0.96139 0.87 0.64174 0.0
C1965 C 0.96027 0.88662 0.62105 0.0
C1966 C 0.93786 0.879 0.60584 0.0
C1967 C 0.95897 0.91496 0.62747 0.0
C1968 C 0.9856 0.88006 0.61039 0.0
C1969 C 0.99895 0.86263 0.62312 0.0
C1970 C 0.02214 0.85248 0.61607 0.0
C1971 C 0.03226 0.86091 0.59568 0.0
C1972 C 0.0193 0.87945 0.58285 0.0
C1973 C 0.99568 0.88903 0.59025 0.0
H1974 H 0.4301 0.70115 0.88537 0.0
H1975 H 0.36189 0.67271 0.91834 0.0
H1976 H 0.33573 0.6897 0.88765 0.0
H1977 H 0.40237 0.7602 0.86901 0.0
H1978 H 0.41955 0.76193 0.84293 0.0
H1979 H 0.43314 0.74527 0.86637 0.0
H1980 H 0.43775 0.70473 0.8419 0.0
H1981 H 0.42385 0.72122 0.81844 0.0
H1982 H 0.41008 0.69173 0.82811 0.0
H1983 H 0.31668 0.71093 0.85411 0.0
H1984 H 0.30585 0.73854 0.82205 0.0
H1985 H 0.38608 0.75588 0.81289 0.0
C1986 C 0.40968 0.69856 0.88633 0.0
C1987 C 0.39822 0.68521 0.90429 0.0
C1988 C 0.37134 0.6822 0.90455 0.0
C1989 C 0.35623 0.69189 0.88722 0.0
C1990 C 0.3682 0.7048 0.8698 0.0
C1991 C 0.39426 0.70845 0.86936 0.0
C1992 C 0.40217 0.72468 0.8496 0.0
C1993 C 0.41506 0.74949 0.85745 0.0
C1994 C 0.41949 0.70968 0.83357 0.0
C1995 C 0.37641 0.7298 0.83916 0.0
C1996 C 0.35711 0.71785 0.85087 0.0
C1997 C 0.33163 0.7204 0.8448 0.0
C1998 C 0.32565 0.73619 0.82663 0.0
C1999 C 0.34505 0.74947 0.81495 0.0
C2000 C 0.37079 0.7457 0.8211 0.0
H2001 H 0.48832 0.09533 0.09646 0.0
H2002 H 0.53287 0.12311 0.04053 0.0
H2003 H 0.57017 0.12826 0.06546 0.0
H2004 H 0.50894 0.13906 0.13383 0.0
H2005 H 0.50931 0.11842 0.15794 0.0
H2006 H 0.48836 0.11156 0.13498 0.0
H2007 H 0.50805 0.06647 0.13138 0.0
H2008 H 0.52924 0.07328 0.15439 0.0
H2009 H 0.54199 0.06309 0.12784 0.0
H2010 H 0.59965 0.13696 0.09694 0.0
H2011 H 0.618 0.15155 0.1328 0.0
H2012 H 0.55442 0.11843 0.16862 0.0
C2013 C 0.50623 0.10158 0.08935 0.0
C2014 C 0.50793 0.10859 0.06659 0.0
C2015 C 0.53131 0.11767 0.05795 0.0
C2016 C 0.5526 0.12037 0.07193 0.0
C2017 C 0.55013 0.11384 0.09447 0.0
C2018 C 0.5275 0.10464 0.10313 0.0
C2019 C 0.52855 0.10264 0.12841 0.0
C2020 C 0.50757 0.1189 0.13942 0.0
C2021 C 0.52686 0.0747 0.13594 0.0
C2022 C 0.55482 0.11348 0.13275 0.0
C2023 C 0.56723 0.11913 0.11289 0.0
C2024 C 0.59047 0.13199 0.11256 0.0
C2025 C 0.60078 0.14015 0.13295 0.0
C2026 C 0.5878 0.13549 0.15328 0.0
C2027 C 0.56504 0.12129 0.15327 0.0
H2028 H 0.13542 0.70701 0.06291 0.0
H2029 H 0.11856 0.63786 0.09934 0.0
H2030 H 0.13601 0.65701 0.13391 0.0
H2031 H 0.19445 0.72691 0.09739 0.0
H2032 H 0.18514 0.75988 0.09548 0.0
H2033 H 0.17836 0.73837 0.07271 0.0
H2034 H 0.13068 0.75081 0.07497 0.0
H2035 H 0.1371 0.77186 0.09794 0.0
H2036 H 0.11382 0.74683 0.10104 0.0
H2037 H 0.14512 0.6866 0.16543 0.0
H2038 H 0.14854 0.72351 0.19106 0.0
H2039 H 0.15942 0.7735 0.13416 0.0
C2040 C 0.13691 0.69553 0.07792 0.0
C2041 C 0.12648 0.67086 0.07858 0.0
C2042 C 0.12725 0.65657 0.0986 0.0
C2043 C 0.13703 0.66733 0.11826 0.0
C2044 C 0.14602 0.69232 0.11746 0.0
C2045 C 0.14654 0.70609 0.09767 0.0
C2046 C 0.15352 0.73366 0.10185 0.0
C2047 C 0.17941 0.74008 0.09123 0.0
C2048 C 0.13252 0.75183 0.09347 0.0
C2049 C 0.1552 0.7336 0.12711 0.0
C2050 C 0.15127 0.70953 0.13582 0.0
C2051 C 0.14896 0.7054 0.15881 0.0
C2052 C 0.15062 0.72645 0.17322 0.0
C2053 C 0.15446 0.75122 0.16454 0.0
C2054 C 0.15721 0.75466 0.14125 0.0
H2055 H 0.59476 0.8373 0.35349 0.0
H2056 H 0.59511 0.90758 0.31506 0.0
H2057 H 0.57506 0.92983 0.3468 0.0
H2058 H 0.53368 0.8439 0.37141 0.0
H2059 H 0.53833 0.8297 0.39858 0.0
H2060 H 0.55875 0.82096 0.37573 0.0
H2061 H 0.59834 0.83379 0.39912 0.0
H2062 H 0.57793 0.84268 0.42211 0.0
H2063 H 0.60033 0.86537 0.41086 0.0
H2064 H 0.54937 0.94288 0.37984 0.0
H2065 H 0.51704 0.94499 0.4096 0.0
H2066 H 0.52914 0.86502 0.42439 0.0
C2067 C 0.59091 0.85744 0.3517 0.0
C2068 C 0.5965 0.8706 0.33161 0.0
C2069 C 0.59146 0.89707 0.33032 0.0
C2070 C 0.58003 0.9099 0.3483 0.0
C2071 C 0.57375 0.89601 0.36744 0.0
C2072 C 0.57896 0.87032 0.3692 0.0
C2073 C 0.56671 0.8588 0.38981 0.0
C2074 C 0.54828 0.83708 0.38349 0.0
C2075 C 0.58705 0.84963 0.40646 0.0
C2076 C 0.55264 0.88175 0.39877 0.0
C2077 C 0.55768 0.90321 0.38605 0.0
C2078 C 0.54546 0.92627 0.39002 0.0
C2079 C 0.52693 0.92719 0.40683 0.0
C2080 C 0.52029 0.90504 0.41912 0.0
C2081 C 0.53403 0.88232 0.41554 0.0
H2082 H 0.37719 0.24407 0.6655 0.0
H2083 H 0.30857 0.21026 0.63814 0.0
H2084 H 0.30611 0.24454 0.61004 0.0
H2085 H 0.35893 0.31299 0.65383 0.0
H2086 H 0.39144 0.32085 0.64694 0.0
H2087 H 0.38478 0.29678 0.66768 0.0
H2088 H 0.41236 0.26457 0.6455 0.0
H2089 H 0.41893 0.28833 0.62468 0.0
H2090 H 0.405 0.25833 0.61653 0.0
H2091 H 0.31564 0.27728 0.58084 0.0
H2092 H 0.33633 0.30612 0.55354 0.0
H2093 H 0.39729 0.3201 0.601 0.0
C2094 C 0.36112 0.24448 0.65417 0.0
C2095 C 0.34319 0.22448 0.65391 0.0
C2096 C 0.32275 0.22524 0.63842 0.0
C2097 C 0.32102 0.24478 0.62255 0.0
C2098 C 0.33965 0.26367 0.6226 0.0
C2099 C 0.35912 0.26389 0.63823 0.0
C2100 C 0.37839 0.28451 0.63311 0.0
C2101 C 0.37837 0.305 0.65148 0.0
C2102 C 0.40523 0.27324 0.62975 0.0
C2103 C 0.36755 0.29474 0.61146 0.0
C2104 C 0.34494 0.28288 0.60584 0.0
C2105 C 0.33298 0.28722 0.58531 0.0
C2106 C 0.34482 0.30362 0.56991 0.0
C2107 C 0.36844 0.31518 0.57512 0.0
C2108 C 0.3793 0.31137 0.59649 0.0
H2109 H 0.98256 0.13915 0.92477 0.0
H2110 H 0.99852 0.05952 0.91185 0.0
H2111 H 0.961 0.05711 0.88709 0.0
H2112 H 0.91023 0.13406 0.92081 0.0
H2113 H 0.90846 0.16469 0.90725 0.0
H2114 H 0.93296 0.1586 0.92772 0.0
H2115 H 0.96743 0.17149 0.89875 0.0
H2116 H 0.94318 0.17747 0.87827 0.0
H2117 H 0.9685 0.15538 0.8721 0.0
H2118 H 0.9275 0.06551 0.85842 0.0
H2119 H 0.90136 0.08432 0.82821 0.0
H2120 H 0.9057 0.15787 0.86102 0.0
C2121 C 0.97753 0.12097 0.91746 0.0
C2122 C 0.99343 0.09957 0.92017 0.0
C2123 C 0.98672 0.07624 0.90979 0.0
C2124 C 0.96528 0.07461 0.89589 0.0
C2125 C 0.95053 0.09638 0.89282 0.0
C2126 C 0.95621 0.11906 0.90354 0.0
C2127 C 0.93951 0.14052 0.89521 0.0
C2128 C 0.92173 0.15002 0.91386 0.0
C2129 C 0.95562 0.16248 0.8855 0.0
C2130 C 0.92474 0.12674 0.87716 0.0
C2131 C 0.93089 0.10116 0.87633 0.0
C2132 C 0.92196 0.08534 0.85926 0.0
C2133 C 0.90709 0.09614 0.8422 0.0
C2134 C 0.90162 0.12252 0.84229 0.0
C2135 C 0.90965 0.13763 0.86053 0.0
H2136 H 0.83182 0.74294 0.64254 0.0
H2137 H 0.86608 0.70797 0.70119 0.0
H2138 H 0.87819 0.671 0.67834 0.0
H2139 H 0.80961 0.68163 0.61541 0.0
H2140 H 0.81688 0.69411 0.58803 0.0
H2141 H 0.80624 0.71523 0.60992 0.0
H2142 H 0.84653 0.74309 0.60423 0.0
H2143 H 0.85733 0.72212 0.58253 0.0
H2144 H 0.87756 0.72854 0.60625 0.0
H2145 H 0.89439 0.64272 0.64802 0.0
H2146 H 0.91221 0.62531 0.61286 0.0
H2147 H 0.86551 0.67724 0.57447 0.0
C2148 C 0.84101 0.72729 0.651 0.0
C2149 C 0.8481 0.72882 0.67381 0.0
C2150 C 0.86065 0.70773 0.68375 0.0
C2151 C 0.8674 0.68639 0.67092 0.0
C2152 C 0.861 0.6861 0.64828 0.0
C2153 C 0.84771 0.70586 0.6385 0.0
C2154 C 0.84575 0.70254 0.61339 0.0
C2155 C 0.81797 0.69811 0.60627 0.0
C2156 C 0.85751 0.72541 0.60089 0.0
C2157 C 0.86147 0.67867 0.61037 0.0
C2158 C 0.86969 0.66916 0.63074 0.0
C2159 C 0.88737 0.6494 0.63204 0.0
C2160 C 0.8974 0.63965 0.61206 0.0
C2161 C 0.88961 0.64963 0.59118 0.0
C2162 C 0.87089 0.66875 0.5903 0.0
H2163 H 0.99779 0.0884 0.39481 0.0
H2164 H 0.04797 0.1048 0.45058 0.0
H2165 H 0.08416 0.10897 0.4244 0.0
H2166 H 0.04686 0.05445 0.35838 0.0
H2167 H 0.03347 0.06857 0.33352 0.0
H2168 H 0.01316 0.06085 0.35692 0.0
H2169 H 0.99711 0.10752 0.358 0.0
H2170 H 0.0173 0.11537 0.33478 0.0
H2171 H 0.01992 0.13307 0.36054 0.0
H2172 H 0.11203 0.12027 0.39226 0.0
H2173 H 0.12898 0.13804 0.35688 0.0
H2174 H 0.06125 0.1131 0.32197 0.0
C2175 C 0.01658 0.09174 0.40164 0.0
C2176 C 0.02009 0.0962 0.42473 0.0
C2177 C 0.04485 0.10148 0.43292 0.0
C2178 C 0.06555 0.1036 0.41819 0.0
C2179 C 0.06121 0.10007 0.39536 0.0
C2180 C 0.03734 0.09397 0.38716 0.0
C2181 C 0.03675 0.0948 0.36184 0.0
C2182 C 0.0323 0.06807 0.3521 0.0
C2183 C 0.0166 0.11383 0.35332 0.0
C2184 C 0.06353 0.10396 0.3571 0.0
C2185 C 0.07759 0.10628 0.37662 0.0
C2186 C 0.1016 0.1177 0.3768 0.0
C2187 C 0.11111 0.1277 0.35671 0.0
C2188 C 0.09661 0.12611 0.33685 0.0
C2189 C 0.07298 0.11347 0.33688 0.0
H2190 H 0.61789 0.34754 0.1058 0.0
H2191 H 0.68841 0.33705 0.06943 0.0
H2192 H 0.70701 0.31513 0.1024 0.0
H2193 H 0.64629 0.35147 0.16479 0.0
H2194 H 0.61973 0.33362 0.17578 0.0
H2195 H 0.61514 0.35495 0.15245 0.0
H2196 H 0.59583 0.31784 0.12936 0.0
H2197 H 0.60049 0.29649 0.15239 0.0
H2198 H 0.61414 0.28912 0.12546 0.0
H2199 H 0.71402 0.28663 0.13555 0.0
H2200 H 0.70882 0.2539 0.16476 0.0
H2201 H 0.63246 0.2816 0.17806 0.0
C2202 C 0.6376 0.34147 0.10517 0.0
C2203 C 0.65185 0.34387 0.0853 0.0
C2204 C 0.67741 0.33555 0.08472 0.0
C2205 C 0.68805 0.32315 0.10336 0.0
C2206 C 0.6729 0.31969 0.12237 0.0
C2207 C 0.64826 0.32896 0.12345 0.0
C2208 C 0.63431 0.31925 0.14388 0.0
C2209 C 0.62854 0.34113 0.16019 0.0
C2210 C 0.60978 0.30481 0.13736 0.0
C2211 C 0.65424 0.30155 0.15333 0.0
C2212 C 0.67666 0.30265 0.14119 0.0
C2213 C 0.69673 0.28598 0.1454 0.0
C2214 C 0.69346 0.26722 0.16188 0.0
C2215 C 0.67007 0.26491 0.17362 0.0
C2216 C 0.65071 0.28301 0.16978 0.0
H2217 H 0.49446 0.87584 0.9187 0.0
H2218 H 0.43668 0.91856 0.95405 0.0
H2219 H 0.40477 0.90657 0.92523 0.0
H2220 H 0.4759 0.89625 0.86508 0.0
H2221 H 0.48368 0.86653 0.8516 0.0
H2222 H 0.50009 0.87593 0.87667 0.0
H2223 H 0.48583 0.83262 0.89575 0.0
H2224 H 0.47032 0.82423 0.86983 0.0
H2225 H 0.45256 0.82441 0.89566 0.0
H2226 H 0.38019 0.89182 0.89143 0.0
H2227 H 0.36502 0.87747 0.85455 0.0
H2228 H 0.44085 0.84885 0.83947 0.0
C2229 C 0.47485 0.88188 0.9206 0.0
C2230 C 0.46758 0.89751 0.93864 0.0
C2231 C 0.44219 0.90617 0.94039 0.0
C2232 C 0.42408 0.89946 0.92417 0.0
C2233 C 0.43194 0.88443 0.90621 0.0
C2234 C 0.45677 0.87588 0.90427 0.0
C2235 C 0.46103 0.86239 0.88223 0.0
C2236 C 0.48137 0.87608 0.86807 0.0
C2237 C 0.46784 0.83424 0.88608 0.0
C2238 C 0.43488 0.86507 0.87191 0.0
C2239 C 0.41824 0.87739 0.88614 0.0
C2240 C 0.39309 0.88223 0.8801 0.0
C2241 C 0.38476 0.87428 0.85891 0.0
C2242 C 0.40171 0.86214 0.84377 0.0
C2243 C 0.42712 0.85759 0.85057 0.0
H2244 H 0.90845 0.32505 0.8882 0.0
H2245 H 0.8341 0.34355 0.91576 0.0
H2246 H 0.81366 0.32196 0.88382 0.0
H2247 H 0.89145 0.32703 0.8281 0.0
H2248 H 0.91099 0.29972 0.82181 0.0
H2249 H 0.91985 0.32098 0.84421 0.0
H2250 H 0.92083 0.28296 0.8719 0.0
H2251 H 0.91213 0.26166 0.84962 0.0
H2252 H 0.89304 0.26299 0.87468 0.0
H2253 H 0.80132 0.29425 0.85164 0.0
H2254 H 0.79789 0.26002 0.82357 0.0
H2255 H 0.88027 0.25645 0.81901 0.0
C2256 C 0.88785 0.32474 0.88761 0.0
C2257 C 0.87294 0.33605 0.90468 0.0
C2258 C 0.84603 0.33546 0.90281 0.0
C2259 C 0.83422 0.32318 0.8847 0.0
C2260 C 0.84955 0.31159 0.8686 0.0
C2261 C 0.8758 0.31218 0.86994 0.0
C2262 C 0.88795 0.29562 0.85213 0.0
C2263 C 0.90348 0.31181 0.83558 0.0
C2264 C 0.90444 0.27457 0.86272 0.0
C2265 C 0.86438 0.28474 0.8411 0.0
C2266 C 0.84245 0.29473 0.85048 0.0
C2267 C 0.81834 0.28645 0.84407 0.0
C2268 C 0.81661 0.26687 0.82824 0.0
C2269 C 0.83884 0.25543 0.81927 0.0
C2270 C 0.86298 0.2651 0.82529 0.0
H2271 H 0.54203 0.09893 0.61006 0.0
H2272 H 0.49428 0.09479 0.55105 0.0
H2273 H 0.4564 0.08808 0.57522 0.0
H2274 H 0.50671 0.05213 0.64483 0.0
H2275 H 0.51164 0.07063 0.66988 0.0
H2276 H 0.53509 0.07121 0.64783 0.0
H2277 H 0.53185 0.1205 0.64573 0.0
H2278 H 0.50883 0.12002 0.66795 0.0
H2279 H 0.50108 0.13504 0.64169 0.0
H2280 H 0.42356 0.08632 0.60619 0.0
H2281 H 0.3986 0.09528 0.64048 0.0
H2282 H 0.46841 0.10052 0.67872 0.0
C2283 C 0.52369 0.09595 0.6022 0.0
C2284 C 0.52102 0.09712 0.57875 0.0
C2285 C 0.49662 0.09404 0.56904 0.0
C2286 C 0.47513 0.08989 0.58261 0.0
C2287 C 0.47849 0.08884 0.60579 0.0
C2288 C 0.50221 0.09198 0.61545 0.0
C2289 C 0.50062 0.0932 0.64067 0.0
C2290 C 0.51433 0.07043 0.65143 0.0
C2291 C 0.5112 0.1187 0.64951 0.0
C2292 C 0.47214 0.09129 0.64378 0.0
C2293 C 0.45966 0.08809 0.62356 0.0
C2294 C 0.43312 0.08828 0.62214 0.0
C2295 C 0.41908 0.09313 0.64169 0.0
C2296 C 0.43172 0.09806 0.66214 0.0
C2297 C 0.45843 0.09607 0.66333 0.0
H2298 H 0.66586 0.762 0.34828 0.0
H2299 H 0.65698 0.71197 0.2912 0.0
H2300 H 0.64741 0.67594 0.31676 0.0
H2301 H 0.6928 0.71462 0.38803 0.0
H2302 H 0.67506 0.72778 0.41113 0.0
H2303 H 0.68533 0.74813 0.38856 0.0
H2304 H 0.63867 0.76278 0.38243 0.0
H2305 H 0.62825 0.74244 0.40484 0.0
H2306 H 0.6143 0.73923 0.37742 0.0
H2307 H 0.63488 0.64669 0.34859 0.0
H2308 H 0.61779 0.62758 0.38348 0.0
H2309 H 0.63356 0.6978 0.41902 0.0
C2310 C 0.66277 0.74326 0.34124 0.0
C2311 C 0.66251 0.73951 0.31789 0.0
C2312 C 0.65735 0.71501 0.30912 0.0
C2313 C 0.65208 0.69451 0.32349 0.0
C2314 C 0.65197 0.69898 0.34652 0.0
C2315 C 0.65715 0.72281 0.35529 0.0
C2316 C 0.65293 0.72354 0.3803 0.0
C2317 C 0.67803 0.72882 0.39274 0.0
C2318 C 0.63231 0.74315 0.3866 0.0
C2319 C 0.64388 0.6966 0.3842 0.0
C2320 C 0.64393 0.6825 0.36465 0.0
C2321 C 0.63508 0.65744 0.36405 0.0
C2322 C 0.62548 0.64673 0.38388 0.0
C2323 C 0.62448 0.6613 0.40378 0.0
C2324 C 0.63423 0.68631 0.40397 0.0
H2325 H 0.04103 0.88412 0.17763 0.0
H2326 H 0.11137 0.87717 0.1403 0.0
H2327 H 0.08962 0.8932 0.10625 0.0
H2328 H 1.00153 0.86136 0.1377 0.0
H2329 H 0.97522 0.88257 0.14301 0.0
H2330 H 0.99722 0.87514 0.16509 0.0
H2331 H 0.00662 0.92318 0.17099 0.0
H2332 H 0.98427 0.93086 0.1491 0.0
H2333 H 0.01658 0.94241 0.14756 0.0
H2334 H 0.05812 0.90215 0.07521 0.0
H2335 H 0.0204 0.90783 0.05063 0.0
H2336 H 0.97166 0.91031 0.10909 0.0
C2337 C 0.05197 0.88694 0.16245 0.0
C2338 C 0.07775 0.87983 0.16139 0.0
C2339 C 0.09162 0.88306 0.14131 0.0
C2340 C 0.07942 0.89202 0.12196 0.0
C2341 C 0.05358 0.89802 0.12329 0.0
C2342 C 0.04018 0.89614 0.14318 0.0
C2343 C 0.01223 0.90175 0.13994 0.0
C2344 C 0.9956 0.87884 0.14683 0.0
C2345 C 0.00448 0.926 0.15265 0.0
C2346 C 0.01172 0.90592 0.11496 0.0
C2347 C 0.0357 0.90384 0.10557 0.0
C2348 C 0.03936 0.90448 0.08244 0.0
C2349 C 0.01792 0.90747 0.06862 0.0
C2350 C 0.99334 0.90986 0.0781 0.0
C2351 C 0.99036 0.90928 0.10151 0.0
H2352 H 0.5928 0.72939 0.85596 0.0
H2353 H 0.54148 0.7612 0.80704 0.0
H2354 H 0.52553 0.79188 0.83532 0.0
H2355 H 0.55021 0.74317 0.90845 0.0
H2356 H 0.57856 0.74992 0.92443 0.0
H2357 H 0.57914 0.7259 0.9029 0.0
H2358 H 0.6175 0.74881 0.88473 0.0
H2359 H 0.61648 0.7736 0.90534 0.0
H2360 H 0.6142 0.78157 0.87605 0.0
H2361 H 0.52397 0.82519 0.86545 0.0
H2362 H 0.5323 0.855 0.89652 0.0
H2363 H 0.58647 0.80165 0.92484 0.0
C2364 C 0.57689 0.74163 0.85187 0.0
C2365 C 0.5678 0.74276 0.82976 0.0
C2366 C 0.548 0.75977 0.82419 0.0
C2367 C 0.53905 0.77731 0.84011 0.0
C2368 C 0.54988 0.77702 0.86147 0.0
C2369 C 0.56784 0.75901 0.86758 0.0
C2370 C 0.57935 0.76488 0.89022 0.0
C2371 C 0.57131 0.74478 0.90754 0.0
C2372 C 0.60859 0.76738 0.88897 0.0
C2373 C 0.56683 0.79011 0.89502 0.0
C2374 C 0.54941 0.79653 0.87862 0.0
C2375 C 0.53709 0.82001 0.87865 0.0
C2376 C 0.54231 0.83704 0.89615 0.0
C2377 C 0.56007 0.83076 0.91316 0.0
C2378 C 0.57239 0.80691 0.91244 0.0
H2379 H 0.42338 0.34324 0.13446 0.0
H2380 H 0.41804 0.41618 0.1684 0.0
H2381 H 0.44605 0.43529 0.13979 0.0
H2382 H 0.48737 0.34604 0.12531 0.0
H2383 H 0.48719 0.33059 0.09836 0.0
H2384 H 0.46228 0.324 0.11817 0.0
H2385 H 0.42835 0.33725 0.0889 0.0
H2386 H 0.45327 0.34381 0.06892 0.0
H2387 H 0.43037 0.36815 0.07583 0.0
H2388 H 0.47991 0.44462 0.11195 0.0
H2389 H 0.51738 0.44351 0.08705 0.0
H2390 H 0.50235 0.36419 0.07195 0.0
C2391 C 0.42774 0.36334 0.13572 0.0
C2392 C 0.41853 0.3782 0.15376 0.0
C2393 C 0.42453 0.40448 0.1546 0.0
C2394 C 0.44047 0.4155 0.13843 0.0
C2395 C 0.45009 0.40002 0.12144 0.0
C2396 C 0.44381 0.37452 0.11988 0.0
C2397 C 0.45913 0.36131 0.10177 0.0
C2398 C 0.47493 0.3392 0.1115 0.0
C2399 C 0.44173 0.35209 0.08272 0.0
C2400 C 0.47596 0.38306 0.09416 0.0
C2401 C 0.47003 0.40535 0.10539 0.0
C2402 C 0.48442 0.42743 0.10277 0.0
C2403 C 0.50576 0.42657 0.08875 0.0
C2404 C 0.51264 0.40375 0.07765 0.0
C2405 C 0.49712 0.38197 0.0799 0.0
H2406 H 0.8758 0.20598 0.42627 0.0
H2407 H 0.92433 0.15274 0.39094 0.0
H2408 H 0.91031 0.17069 0.35477 0.0
H2409 H 0.82342 0.20863 0.38297 0.0
H2410 H 0.81876 0.24226 0.38748 0.0
H2411 H 0.82899 0.2222 0.41026 0.0
H2412 H 0.86807 0.2516 0.41649 0.0
H2413 H 0.85816 0.27153 0.39363 0.0
H2414 H 0.88956 0.25765 0.39354 0.0
H2415 H 0.89655 0.19844 0.32325 0.0
H2416 H 0.88173 0.23282 0.29814 0.0
H2417 H 0.84231 0.26817 0.35387 0.0
C2418 C 0.88261 0.19755 0.41084 0.0
C2419 C 0.90083 0.17789 0.41117 0.0
C2420 C 0.91015 0.16772 0.39082 0.0
C2421 C 0.90229 0.17775 0.37026 0.0
C2422 C 0.88502 0.19785 0.3704 0.0
C2423 C 0.87502 0.20747 0.39012 0.0
C2424 C 0.85878 0.23074 0.38571 0.0
C2425 C 0.83083 0.22564 0.39197 0.0
C2426 C 0.86928 0.25425 0.39807 0.0
C2427 C 0.86202 0.2332 0.36062 0.0
C2428 C 0.87701 0.21392 0.35207 0.0
C2429 C 0.88434 0.21336 0.32964 0.0
C2430 C 0.87605 0.23305 0.31556 0.0
C2431 C 0.86068 0.25298 0.32401 0.0
C2432 C 0.85346 0.25283 0.34679 0.0
H2433 H 0.03833 0.61726 0.55962 0.0
H2434 H 0.99759 0.55128 0.58516 0.0
H2435 H 0.02533 0.55063 0.61804 0.0
H2436 H 0.10269 0.60097 0.58434 0.0
H2437 H 0.10876 0.63398 0.59075 0.0
H2438 H 0.09 0.62562 0.56654 0.0
H2439 H 0.05317 0.65412 0.58096 0.0
H2440 H 0.07172 0.66252 0.60508 0.0
H2441 H 0.04051 0.64874 0.60862 0.0
H2442 H 0.05115 0.56198 0.65153 0.0
H2443 H 0.07223 0.5853 0.68244 0.0
H2444 H 0.09636 0.64353 0.63556 0.0
C2445 C 0.03552 0.60231 0.57182 0.0
C2446 C 0.01559 0.5844 0.56954 0.0
C2447 C 0.01279 0.56513 0.58606 0.0
C2448 C 0.02856 0.56453 0.60496 0.0
C2449 C 0.04729 0.58312 0.6071 0.0
C2450 C 0.051 0.60153 0.59085 0.0
C2451 C 0.06999 0.62139 0.59847 0.0
C2452 C 0.0943 0.62041 0.58417 0.0
C2453 C 0.05812 0.64825 0.59828 0.0
C2454 C 0.07504 0.61219 0.62205 0.0
C2455 C 0.06232 0.58971 0.62657 0.0
C2456 C 0.06176 0.57922 0.64806 0.0
C2457 C 0.07379 0.59252 0.66551 0.0
C2458 C 0.08582 0.61614 0.66129 0.0
C2459 C 0.08732 0.62543 0.63915 0.0
H2460 H 0.6317 0.22869 0.67989 0.0
H2461 H 0.70669 0.25975 0.66601 0.0
H2462 H 0.71124 0.23004 0.63435 0.0
H2463 H 0.64651 0.16074 0.66141 0.0
H2464 H 0.61485 0.15754 0.65006 0.0
H2465 H 0.62018 0.17694 0.67453 0.0
H2466 H 0.59891 0.21518 0.65448 0.0
H2467 H 0.59382 0.19616 0.62996 0.0
H2468 H 0.61127 0.22566 0.62785 0.0
H2469 H 0.70359 0.20379 0.59971 0.0
H2470 H 0.68458 0.18279 0.56644 0.0
H2471 H 0.61587 0.16766 0.60437 0.0
C2472 C 0.64956 0.22863 0.67091 0.0
C2473 C 0.66866 0.24687 0.67539 0.0
C2474 C 0.69151 0.24634 0.6627 0.0
C2475 C 0.69442 0.22928 0.64481 0.0
C2476 C 0.67457 0.21248 0.64012 0.0
C2477 C 0.65278 0.2117 0.65314 0.0
C2478 C 0.63285 0.19432 0.64314 0.0
C2479 C 0.62834 0.171 0.65818 0.0
C2480 C 0.60777 0.20871 0.63858 0.0
C2481 C 0.64609 0.18689 0.62167 0.0
C2482 C 0.67037 0.197 0.62036 0.0
C2483 C 0.6849 0.19516 0.60081 0.0
C2484 C 0.67401 0.18327 0.582 0.0
C2485 C 0.64882 0.17381 0.58296 0.0
C2486 C 0.63521 0.17479 0.60328 0.0
H2487 H 0.07656 0.33866 0.85381 0.0
H2488 H 0.05839 0.39303 0.8014 0.0
H2489 H 0.03112 0.41666 0.82784 0.0
H2490 H 0.01525 0.33414 0.87539 0.0
H2491 H 0.02466 0.3313 0.90431 0.0
H2492 H 0.04583 0.32078 0.88251 0.0
H2493 H 0.08138 0.35039 0.89775 0.0
H2494 H 0.06032 0.36083 0.91975 0.0
H2495 H 0.07498 0.38387 0.90143 0.0
H2496 H 1.00198 0.43094 0.8579 0.0
H2497 H 0.97393 0.43658 0.89019 0.0
H2498 H 0.01056 0.37281 0.92362 0.0
C2499 C 0.06709 0.35571 0.84794 0.0
C2500 C 0.06961 0.36401 0.82551 0.0
C2501 C 0.05707 0.38653 0.81857 0.0
C2502 C 0.04144 0.39999 0.83343 0.0
C2503 C 0.03869 0.39074 0.85517 0.0
C2504 C 0.05132 0.36926 0.8625 0.0
C2505 C 0.04363 0.36231 0.88619 0.0
C2506 C 0.03163 0.33555 0.88714 0.0
C2507 C 0.06644 0.36449 0.90223 0.0
C2508 C 0.02408 0.38282 0.89077 0.0
C2509 C 0.02177 0.39912 0.87271 0.0
C2510 C 0.00399 0.41867 0.87235 0.0
C2511 C 0.98816 0.42175 0.89095 0.0
C2512 C 0.99015 0.40539 0.90982 0.0
C2513 C 0.0085 0.3857 0.90962 0.0
H2514 H 0.89192 0.74952 0.16881 0.0
H2515 H 0.8157 0.72434 0.15184 0.0
H2516 H 0.81053 0.76137 0.12687 0.0
H2517 H 0.87859 0.82045 0.16482 0.0
H2518 H 0.90951 0.82634 0.15272 0.0
H2519 H 0.90532 0.80078 0.17256 0.0
H2520 H 0.92395 0.76888 0.14378 0.0
H2521 H 0.92807 0.79422 0.1239 0.0
H2522 H 0.90966 0.76649 0.11641 0.0
H2523 H 0.81631 0.79646 0.09917 0.0
H2524 H 0.83297 0.82656 0.07085 0.0
H2525 H 0.90469 0.83022 0.10679 0.0
C2526 C 0.87386 0.75238 0.16043 0.0
C2527 C 0.85428 0.7341 0.16214 0.0
C2528 C 0.83108 0.73801 0.15052 0.0
C2529 C 0.82786 0.75913 0.13649 0.0
C2530 C 0.84791 0.77634 0.13446 0.0
C2531 C 0.87039 0.77336 0.1463 0.0
C2532 C 0.89006 0.79283 0.13918 0.0
C2533 C 0.89622 0.81119 0.15847 0.0
C2534 C 0.91435 0.77982 0.13028 0.0
C2535 C 0.87562 0.80621 0.12068 0.0
C2536 C 0.85116 0.79682 0.11849 0.0
C2537 C 0.83521 0.80444 0.10103 0.0
C2538 C 0.84478 0.82157 0.08505 0.0
C2539 C 0.87012 0.83061 0.08657 0.0
C2540 C 0.88527 0.82351 0.10511 0.0
H2541 H 0.45735 0.66231 0.3326 0.0
H2542 H 0.3834 0.62996 0.34921 0.0
H2543 H 0.40071 0.61511 0.38527 0.0
H2544 H 0.49645 0.61606 0.358 0.0
H2545 H 0.51934 0.63885 0.36828 0.0
H2546 H 0.50129 0.64574 0.34341 0.0
H2547 H 0.48539 0.68781 0.36136 0.0
H2548 H 0.50326 0.68094 0.38639 0.0
H2549 H 0.46949 0.68685 0.3881 0.0
H2550 H 0.42706 0.60212 0.41893 0.0
H2551 H 0.46007 0.59351 0.44777 0.0
H2552 H 0.5141 0.63955 0.411 0.0
C2553 C 0.44449 0.65248 0.34382 0.0
C2554 C 0.4189 0.64739 0.33783 0.0
C2555 C 0.4032 0.63374 0.35302 0.0
C2556 C 0.41277 0.62547 0.37372 0.0
C2557 C 0.43789 0.63142 0.37918 0.0
C2558 C 0.45343 0.64481 0.36471 0.0
C2559 C 0.47956 0.64931 0.37461 0.0
C2560 C 0.50038 0.63673 0.36022 0.0
C2561 C 0.48472 0.67793 0.3778 0.0
C2562 C 0.47649 0.63595 0.39682 0.0
C2563 C 0.45238 0.62557 0.39913 0.0
C2564 C 0.44579 0.6106 0.41752 0.0
C2565 C 0.46448 0.60587 0.43378 0.0
C2566 C 0.48911 0.61652 0.43165 0.0
C2567 C 0.49504 0.63202 0.41318 0.0
H2568 H 0.41071 0.17933 0.10898 0.0
H2569 H 0.33944 0.16915 0.07326 0.0
H2570 H 0.31612 0.18718 0.10533 0.0
H2571 H 0.38452 0.17159 0.16803 0.0
H2572 H 0.40517 0.19651 0.17817 0.0
H2573 H 0.41548 0.17618 0.15558 0.0
H2574 H 0.42388 0.21595 0.13086 0.0
H2575 H 0.41374 0.23621 0.15331 0.0
H2576 H 0.39849 0.23849 0.12634 0.0
H2577 H 0.30173 0.21406 0.13678 0.0
H2578 H 0.29779 0.24911 0.16404 0.0
H2579 H 0.37851 0.24372 0.17846 0.0
C2580 C 0.39014 0.18041 0.10809 0.0
C2581 C 0.37689 0.17289 0.08862 0.0
C2582 C 0.34997 0.17444 0.08814 0.0
C2583 C 0.33655 0.18461 0.10631 0.0
C2584 C 0.35031 0.19291 0.12488 0.0
C2585 C 0.37655 0.19077 0.12595 0.0
C2586 C 0.38729 0.20485 0.14592 0.0
C2587 C 0.39879 0.18616 0.16293 0.0
C2588 C 0.40697 0.22507 0.13866 0.0
C2589 C 0.36323 0.21687 0.15492 0.0
C2590 C 0.34199 0.20904 0.14305 0.0
C2591 C 0.31811 0.21991 0.14652 0.0
C2592 C 0.31608 0.23995 0.16186 0.0
C2593 C 0.33788 0.24911 0.17326 0.0
C2594 C 0.36145 0.23668 0.17039 0.0
H2595 H 0.61665 0.67256 0.85476 0.0
H2596 H 0.63512 0.59455 0.83849 0.0
H2597 H 0.61697 0.58041 0.87454 0.0
H2598 H 0.6198 0.66605 0.91991 0.0
H2599 H 0.59232 0.68631 0.92276 0.0
H2600 H 0.615 0.69196 0.90057 0.0
H2601 H 0.57904 0.68908 0.871 0.0
H2602 H 0.55614 0.68394 0.89274 0.0
H2603 H 0.55899 0.66125 0.87022 0.0
H2604 H 0.58609 0.57352 0.90476 0.0
H2605 H 0.54657 0.57457 0.92712 0.0
H2606 H 0.54624 0.65686 0.92417 0.0
C2607 C 0.6185 0.65278 0.85969 0.0
C2608 C 0.62802 0.63467 0.84441 0.0
C2609 C 0.62871 0.60869 0.85044 0.0
C2610 C 0.6183 0.60055 0.87085 0.0
C2611 C 0.6072 0.61866 0.88492 0.0
C2612 C 0.6076 0.64439 0.87978 0.0
C2613 C 0.58988 0.65928 0.89498 0.0
C2614 C 0.60516 0.67696 0.91047 0.0
C2615 C 0.56983 0.67424 0.88143 0.0
C2616 C 0.57778 0.63777 0.90809 0.0
C2617 C 0.58862 0.61457 0.90255 0.0
C2618 C 0.57806 0.59162 0.9098 0.0
C2619 C 0.55552 0.59235 0.92233 0.0
C2620 C 0.54368 0.61583 0.92745 0.0
C2621 C 0.5555 0.6388 0.92101 0.0
H2622 H 0.15976 0.81354 0.57193 0.0
H2623 H 0.13169 0.87786 0.60991 0.0
H2624 H 0.14277 0.85576 0.64514 0.0
H2625 H 0.13177 0.76954 0.60192 0.0
H2626 H 0.15624 0.7455 0.60082 0.0
H2627 H 0.15421 0.76892 0.57906 0.0
H2628 H 0.20097 0.78259 0.58616 0.0
H2629 H 0.20342 0.75872 0.60777 0.0
H2630 H 0.21086 0.7915 0.61398 0.0
H2631 H 0.1468 0.82287 0.67539 0.0
H2632 H 0.14567 0.78333 0.6978 0.0
H2633 H 0.16939 0.74018 0.63954 0.0
C2634 C 0.15719 0.82342 0.58769 0.0
C2635 C 0.14517 0.84738 0.58835 0.0
C2636 C 0.14139 0.85968 0.60914 0.0
C2637 C 0.14754 0.8472 0.62921 0.0
C2638 C 0.15774 0.82268 0.62805 0.0
C2639 C 0.16303 0.81114 0.60774 0.0
C2640 C 0.17001 0.7834 0.61069 0.0
C2641 C 0.15197 0.76584 0.59735 0.0
C2642 C 0.19798 0.77879 0.60428 0.0
C2643 C 0.16609 0.78062 0.63561 0.0
C2644 C 0.15964 0.80354 0.64548 0.0
C2645 C 0.15242 0.80495 0.66792 0.0
C2646 C 0.1515 0.78234 0.68045 0.0
C2647 C 0.15743 0.75861 0.67041 0.0
C2648 C 0.16535 0.75802 0.64786 0.0
H2649 H 0.92657 0.34873 0.3563 0.0
H2650 H 0.91433 0.42174 0.3241 0.0
H2651 H 0.9403 0.44273 0.35338 0.0
H2652 H 0.92817 0.37249 0.41508 0.0
H2653 H 0.95292 0.35029 0.42261 0.0
H2654 H 0.92997 0.34194 0.40138 0.0
H2655 H 0.96671 0.33295 0.37346 0.0
H2656 H 0.98968 0.34131 0.39452 0.0
H2657 H 0.98991 0.35751 0.36791 0.0
H2658 H 0.97262 0.45447 0.38285 0.0
H2659 H 0.0077 0.4561 0.41047 0.0
H2660 H 0.99875 0.37518 0.42272 0.0
C2661 C 0.92901 0.36921 0.35561 0.0
C2662 C 0.91856 0.38365 0.33794 0.0
C2663 C 0.922 0.4104 0.33765 0.0
C2664 C 0.93673 0.42244 0.35418 0.0
C2665 C 0.9475 0.40747 0.37098 0.0
C2666 C 0.94356 0.38144 0.37192 0.0
C2667 C 0.95897 0.36924 0.3904 0.0
C2668 C 0.94146 0.35782 0.40844 0.0
C2669 C 0.97741 0.34908 0.381 0.0
C2670 C 0.97308 0.39228 0.39914 0.0
C2671 C 0.96598 0.41423 0.38797 0.0
C2672 C 0.978 0.43749 0.39196 0.0
C2673 C 0.998 0.4382 0.40752 0.0
C2674 C 0.00582 0.41579 0.41879 0.0
C2675 C 0.99279 0.39273 0.41479 0.0
H2676 H 0.39502 0.77025 0.31053 0.0
H2677 H 0.3128 0.77657 0.31503 0.0
H2678 H 0.31734 0.80739 0.34587 0.0
H2679 H 0.40744 0.76948 0.36564 0.0
H2680 H 0.43603 0.78853 0.36517 0.0
H2681 H 0.42681 0.77083 0.34074 0.0
H2682 H 0.42721 0.81205 0.31691 0.0
H2683 H 0.43694 0.82994 0.34122 0.0
H2684 H 0.40888 0.83924 0.32588 0.0
H2685 H 0.33052 0.83033 0.38063 0.0
H2686 H 0.3516 0.84692 0.41451 0.0
H2687 H 0.42533 0.82915 0.38532 0.0
C2688 C 0.37801 0.77891 0.31734 0.0
C2689 C 0.35357 0.77081 0.31051 0.0
C2690 C 0.33173 0.78219 0.32026 0.0
C2691 C 0.33411 0.79987 0.33767 0.0
C2692 C 0.35847 0.80643 0.34483 0.0
C2693 C 0.38007 0.79678 0.33462 0.0
C2694 C 0.40395 0.80518 0.34674 0.0
C2695 C 0.41944 0.78213 0.35506 0.0
C2696 C 0.4202 0.82265 0.3318 0.0
C2697 C 0.39231 0.81982 0.36601 0.0
C2698 C 0.36608 0.82054 0.36453 0.0
C2699 C 0.3511 0.8306 0.38166 0.0
C2700 C 0.36328 0.84003 0.40086 0.0
C2701 C 0.39019 0.83937 0.40277 0.0
C2702 C 0.40474 0.82967 0.38473 0.0
H2703 H 0.95699 0.58266 0.17642 0.0
H2704 H 0.88374 0.5954 0.14532 0.0
H2705 H 0.9018 0.58371 0.10857 0.0
H2706 H 0.99079 0.61269 0.14021 0.0
H2707 H 0.01854 0.5925 0.13926 0.0
H2708 H 0.99875 0.5926 0.16369 0.0
H2709 H 0.99187 0.54389 0.16059 0.0
H2710 H 0.01237 0.54335 0.13636 0.0
H2711 H 0.98063 0.53035 0.13467 0.0
H2712 H 0.93012 0.58411 0.07508 0.0
H2713 H 0.96536 0.591 0.04815 0.0
H2714 H 0.02012 0.57739 0.10098 0.0
C2715 C 0.9445 0.5813 0.16204 0.0
C2716 C 0.91902 0.58946 0.16357 0.0
C2717 C 0.90318 0.58855 0.14445 0.0
C2718 C 0.91336 0.58209 0.1235 0.0
C2719 C 0.93922 0.57612 0.12217 0.0
C2720 C 0.95443 0.57487 0.14109 0.0
C2721 C 0.98227 0.57212 0.135 0.0
C2722 C 0.9985 0.59377 0.14513 0.0
C2723 C 0.99237 0.54586 0.14207 0.0
C2724 C 0.9806 0.57423 0.10983 0.0
C2725 C 0.95563 0.57601 0.10263 0.0
C2726 C 0.94969 0.58181 0.08042 0.0
C2727 C 0.96975 0.58601 0.0653 0.0
C2728 C 0.99536 0.58443 0.07252 0.0
C2729 C 1.00071 0.5779 0.09491 0.0
H2730 H 0.10966 0.15133 0.87925 0.0
H2731 H 0.1715 0.17047 0.92421 0.0
H2732 H 0.19549 0.189 0.89256 0.0
H2733 H 0.15012 0.14325 0.82548 0.0
H2734 H 0.12527 0.1581 0.80927 0.0
H2735 H 0.1172 0.13861 0.83312 0.0
H2736 H 0.09145 0.1761 0.85001 0.0
H2737 H 0.09937 0.19549 0.82637 0.0
H2738 H 0.10698 0.20639 0.85421 0.0
H2739 H 0.20697 0.21514 0.85967 0.0
H2740 H 0.20413 0.24722 0.82963 0.0
H2741 H 0.13437 0.21241 0.806 0.0
C2742 C 0.12866 0.15863 0.88222 0.0
C2743 C 0.13875 0.15962 0.90409 0.0
C2744 C 0.16359 0.1693 0.9075 0.0
C2745 C 0.17734 0.1798 0.88958 0.0
C2746 C 0.16612 0.18008 0.86838 0.0
C2747 C 0.1424 0.16939 0.86458 0.0
C2748 C 0.13228 0.17626 0.84164 0.0
C2749 C 0.13117 0.15265 0.82648 0.0
C2750 C 0.10601 0.18935 0.84318 0.0
C2751 C 0.15283 0.19447 0.83395 0.0
C2752 C 0.17269 0.19564 0.84918 0.0
C2753 C 0.19192 0.21387 0.84735 0.0
C2754 C 0.19008 0.23213 0.83032 0.0
C2755 C 0.16898 0.23226 0.81557 0.0
C2756 C 0.151 0.21234 0.81668 0.0
H2757 H 0.5888 0.34688 0.63719 0.0
H2758 H 0.56948 0.40545 0.68559 0.0
H2759 H 0.54669 0.42908 0.65626 0.0
H2760 H 0.5882 0.38843 0.58448 0.0
H2761 H 0.5729 0.36328 0.56892 0.0
H2762 H 0.59517 0.35562 0.59091 0.0
H2763 H 0.56085 0.32756 0.61009 0.0
H2764 H 0.53863 0.33515 0.58833 0.0
H2765 H 0.53045 0.3414 0.61712 0.0
H2766 H 0.51816 0.44099 0.6254 0.0
H2767 H 0.48453 0.4389 0.59677 0.0
H2768 H 0.51853 0.37046 0.56944 0.0
C2769 C 0.58027 0.36498 0.64155 0.0
C2770 C 0.58085 0.37419 0.66378 0.0
C2771 C 0.56971 0.39811 0.66866 0.0
C2772 C 0.55669 0.41171 0.65204 0.0
C2773 C 0.55504 0.4012 0.63065 0.0
C2774 C 0.56665 0.37836 0.62533 0.0
C2775 C 0.5579 0.3685 0.60277 0.0
C2776 C 0.57985 0.369 0.58576 0.0
C2777 C 0.54626 0.34159 0.60472 0.0
C2778 C 0.53798 0.38825 0.59708 0.0
C2779 C 0.53742 0.40751 0.6129 0.0
C2780 C 0.51874 0.42631 0.61269 0.0
C2781 C 0.49954 0.42479 0.59653 0.0
C2782 C 0.49885 0.40433 0.58109 0.0
C2783 C 0.51892 0.38652 0.58079 0.0
H2784 H 0.2148 0.20895 0.22544 0.0
H2785 H 0.15532 0.26323 0.24192 0.0
H2786 H 0.18807 0.2956 0.25033 0.0
H2787 H 0.25774 0.22637 0.26782 0.0
H2788 H 0.28619 0.22292 0.25118 0.0
H2789 H 0.25832 0.20428 0.24472 0.0
H2790 H 0.25823 0.22159 0.20407 0.0
H2791 H 0.28651 0.23973 0.21028 0.0
H2792 H 0.25866 0.25552 0.19943 0.0
H2793 H 0.22727 0.32127 0.25921 0.0
H2794 H 0.27002 0.34037 0.2632 0.0
H2795 H 0.30436 0.26959 0.241 0.0
C2796 C 0.20862 0.22783 0.2303 0.0
C2797 C 0.18238 0.2335 0.23291 0.0
C2798 C 0.17519 0.25841 0.23952 0.0
C2799 C 0.19371 0.27689 0.24456 0.0
C2800 C 0.21936 0.27032 0.24267 0.0
C2801 C 0.22685 0.24657 0.23523 0.0
C2802 C 0.25572 0.24437 0.23474 0.0
C2803 C 0.26503 0.22323 0.25056 0.0
C2804 C 0.26534 0.24005 0.2107 0.0
C2805 C 0.2633 0.2705 0.24333 0.0
C2806 C 0.242 0.2851 0.24787 0.0
C2807 C 0.24405 0.31003 0.25565 0.0
C2808 C 0.26844 0.32065 0.25802 0.0
C2809 C 0.29056 0.30641 0.2527 0.0
C2810 C 0.28789 0.28078 0.24573 0.0
H2811 H 0.06979 0.98221 0.48179 0.0
H2812 H 0.01292 0.92435 0.4962 0.0
H2813 H 0.98165 0.95801 0.50475 0.0
H2814 H 0.05375 0.0245 0.52444 0.0
H2815 H 0.05822 0.05334 0.50851 0.0
H2816 H 0.07586 0.02509 0.50134 0.0
H2817 H 0.05854 0.02681 0.46072 0.0
H2818 H 0.04147 0.05551 0.46765 0.0
H2819 H 0.02463 0.02862 0.45613 0.0
H2820 H 0.95783 0.99755 0.51519 0.0
H2821 H 0.9404 0.04072 0.52062 0.0
H2822 H 0.01223 0.07346 0.49898 0.0
C2823 C 0.05056 0.97661 0.48615 0.0
C2824 C 0.04386 0.95054 0.48828 0.0
C2825 C 0.01851 0.94409 0.4942 0.0
C2826 C 1.00066 0.96311 0.49934 0.0
C2827 C 0.00829 0.98853 0.49814 0.0
C2828 C 0.0324 0.99538 0.4911 0.0
C2829 C 0.03569 0.02416 0.49134 0.0
C2830 C 0.05716 0.03223 0.50737 0.0
C2831 C 0.04035 0.03437 0.46755 0.0
C2832 C 0.00985 0.03238 0.50012 0.0
C2833 C 0.99442 0.01146 0.504 0.0
C2834 C 0.96967 0.01405 0.51206 0.0
C2835 C 0.96003 0.03866 0.51529 0.0
C2836 C 0.97502 0.06046 0.51049 0.0
C2837 C 1.0005 0.05721 0.50331 0.0
H2838 H 0.21894 0.70904 0.75473 0.0
H2839 H 0.15678 0.76177 0.74265 0.0
H2840 H 0.18791 0.79553 0.73348 0.0
H2841 H 0.26265 0.75581 0.77987 0.0
H2842 H 0.29023 0.74121 0.76732 0.0
H2843 H 0.26284 0.72207 0.77422 0.0
H2844 H 0.2611 0.70633 0.73307 0.0
H2845 H 0.288 0.72607 0.72594 0.0
H2846 H 0.25852 0.72927 0.71073 0.0
H2847 H 0.22597 0.82304 0.72404 0.0
H2848 H 0.26802 0.84364 0.7195 0.0
H2849 H 0.30517 0.77261 0.73711 0.0
C2850 C 0.21185 0.72784 0.75064 0.0
C2851 C 0.18538 0.73275 0.74952 0.0
C2852 C 0.17693 0.75758 0.7439 0.0
C2853 C 0.19449 0.77683 0.73845 0.0
C2854 C 0.22041 0.77103 0.7389 0.0
C2855 C 0.22909 0.74728 0.74528 0.0
C2856 C 0.25793 0.74591 0.7444 0.0
C2857 C 0.26906 0.74097 0.76784 0.0
C2858 C 0.2669 0.72569 0.72753 0.0
C2859 C 0.26416 0.77254 0.73632 0.0
C2860 C 0.24225 0.78671 0.73319 0.0
C2861 C 0.24322 0.8121 0.72642 0.0
C2862 C 0.26719 0.82358 0.72371 0.0
C2863 C 0.28989 0.80969 0.72766 0.0
C2864 C 0.28823 0.78362 0.73343 0.0
H2865 H 0.5515 0.99743 0.01564 0.0
H2866 H 0.49241 0.93969 0.02072 0.0
H2867 H 0.46 0.97195 0.01204 0.0
H2868 H 0.51063 0.0508 0.03987 0.0
H2869 H 0.52525 0.07394 0.02166 0.0
H2870 H 0.54343 0.04709 0.03154 0.0
H2871 H 0.55401 0.03546 0.99041 0.0
H2872 H 0.53516 0.06169 0.98038 0.0
H2873 H 0.52839 0.02978 0.97093 0.0
H2874 H 0.43535 0.0078 0.99583 0.0
H2875 H 0.41751 0.04828 0.98244 0.0
H2876 H 0.49153 0.08438 0.99029 0.0
C2877 C 0.53166 0.99177 0.01581 0.0
C2878 C 0.52462 0.96589 0.01863 0.0
C2879 C 0.4984 0.9593 0.01864 0.0
C2880 C 0.4798 0.97749 0.01352 0.0
C2881 C 0.48759 1.00236 0.00919 0.0
C2882 C 0.51271 0.00985 0.01122 0.0
C2883 C 0.51586 0.03782 0.00524 0.0
C2884 C 0.52429 0.05332 0.0258 0.0
C2885 C 0.53446 0.04137 0.98557 0.0
C2886 C 0.48882 0.04444 -0.00153 0.0
C2887 C 0.47292 0.02362 0.00081 0.0
C2888 C 0.44744 0.02444 0.99449 0.0
C2889 C 0.43757 0.04753 0.98665 0.0
C2890 C 0.45301 0.06968 0.98544 0.0
C2891 C 0.47918 0.06786 0.99096 0.0
H2892 H 0.27749 0.69842 0.22466 0.0
H2893 H 0.33635 0.75574 0.23365 0.0
H2894 H 0.30346 0.78776 0.24192 0.0
H2895 H 0.23054 0.74201 0.1982 0.0
H2896 H 0.20389 0.72655 0.21153 0.0
H2897 H 0.23207 0.70853 0.20479 0.0
H2898 H 0.23538 0.69439 0.24626 0.0
H2899 H 0.20762 0.7129 0.25324 0.0
H2900 H 0.23714 0.71823 0.26794 0.0
H2901 H 0.26491 0.81262 0.25254 0.0
H2902 H 0.22231 0.831 0.25863 0.0
H2903 H 0.18767 0.75835 0.24175 0.0
C2904 C 0.28342 0.71786 0.2278 0.0
C2905 C 0.30958 0.7245 0.22843 0.0
C2906 C 0.31651 0.75014 0.2328 0.0
C2907 C 0.29794 0.76846 0.23776 0.0
C2908 C 0.27246 0.76102 0.23792 0.0
C2909 C 0.26507 0.73653 0.23248 0.0
C2910 C 0.23629 0.73367 0.23383 0.0
C2911 C 0.22504 0.72732 0.21072 0.0
C2912 C 0.22867 0.71361 0.25136 0.0
C2913 C 0.22877 0.76025 0.2413 0.0
C2914 C 0.25001 0.7756 0.24369 0.0
C2915 C 0.24811 0.80087 0.25051 0.0
C2916 C 0.22381 0.81108 0.25408 0.0
C2917 C 0.20163 0.79613 0.25075 0.0
C2918 C 0.20424 0.77017 0.24476 0.0
H2919 H 0.52216 0.069 0.49956 0.0
H2920 H 0.59538 0.03379 0.48594 0.0
H2921 H 0.5757 0.99136 0.48859 0.0
H2922 H 0.50073 0.02357 0.5394 0.0
H2923 H 0.468 0.02329 0.53025 0.0
H2924 H 0.48721 0.05141 0.52636 0.0
H2925 H 0.47779 0.05093 0.48381 0.0
H2926 H 0.45806 0.02317 0.48762 0.0
H2927 H 0.48403 0.02244 0.46787 0.0
H2928 H 0.54925 0.95272 0.49511 0.0
H2929 H 0.51596 0.91996 0.49937 0.0
H2930 H 0.45911 0.9793 0.5076 0.0
C2931 C 0.53389 0.05237 0.49662 0.0
C2932 C 0.56035 0.05478 0.49252 0.0
C2933 C 0.5751 0.03249 0.48913 0.0
C2934 C 0.56414 0.00824 0.49071 0.0
C2935 C 0.53829 0.00646 0.49558 0.0
C2936 C 0.52318 0.02784 0.49805 0.0
C2937 C 0.49581 0.02033 0.50304 0.0
C2938 C 0.48745 0.03024 0.52614 0.0
C2939 C 0.47787 0.02977 0.48448 0.0
C2940 C 0.49801 0.99145 0.50294 0.0
C2941 C 0.52279 0.98394 0.49891 0.0
C2942 C 0.52973 0.95833 0.49817 0.0
C2943 C 0.51068 0.93983 0.50082 0.0
C2944 C 0.48489 0.94698 0.5039 0.0
C2945 C 0.47865 0.97319 0.50539 0.0
H2946 H 0.2187 0.28727 0.73132 0.0
H2947 H 0.15896 0.22996 0.73041 0.0
H2948 H 0.19157 0.19616 0.73124 0.0
H2949 H 0.26445 0.25156 0.69632 0.0
H2950 H 0.29151 0.26279 0.71206 0.0
H2951 H 0.26347 0.28237 0.70962 0.0
H2952 H 0.2609 0.28515 0.75287 0.0
H2953 H 0.28859 0.26513 0.75546 0.0
H2954 H 0.25925 0.25623 0.76909 0.0
H2955 H 0.23013 0.1688 0.73543 0.0
H2956 H 0.27248 0.14902 0.73797 0.0
H2957 H 0.30787 0.2238 0.73562 0.0
C2958 C 0.21246 0.26761 0.73078 0.0
C2959 C 0.1862 0.2613 0.73073 0.0
C2960 C 0.17889 0.23532 0.73024 0.0
C2961 C 0.1973 0.21597 0.73088 0.0
C2962 C 0.22293 0.22288 0.73178 0.0
C2963 C 0.23059 0.24804 0.73129 0.0
C2964 C 0.2594 0.25024 0.73276 0.0
C2965 C 0.27035 0.26246 0.71142 0.0
C2966 C 0.2675 0.26507 0.7538 0.0
C2967 C 0.26674 0.22238 0.73448 0.0
C2968 C 0.24534 0.20699 0.73397 0.0
C2969 C 0.24703 0.18063 0.73562 0.0
C2970 C 0.27124 0.16959 0.73716 0.0
C2971 C 0.29358 0.18482 0.73697 0.0
C2972 C 0.2912 0.21164 0.73597 0.0
H2973 H 0.9822 0.94888 -0.0018 0.0
H2974 H 0.90955 0.98616 0.98696 0.0
H2975 H 0.93079 0.02806 0.98804 0.0
H2976 H 0.00628 0.9937 0.03687 0.0
H2977 H 0.03869 0.99266 0.02694 0.0
H2978 H 0.01833 0.96526 0.0237 0.0
H2979 H 0.02651 0.96514 0.98091 0.0
H2980 H 0.04733 0.99219 0.9841 0.0
H2981 H 0.02083 0.99374 0.96496 0.0
H2982 H 0.95936 0.06618 0.99271 0.0
H2983 H 0.99421 0.09759 0.99631 0.0
H2984 H 0.04838 0.03584 0.00452 0.0
C2985 C 0.97089 0.96582 0.99536 0.0
C2986 C 0.9442 0.9642 0.99234 0.0
C2987 C 0.93002 0.98689 0.98922 0.0
C2988 C 0.94189 0.01083 0.98991 0.0
C2989 C 0.96803 0.01185 0.99374 0.0
C2990 C 0.98245 0.98997 0.99607 0.0
C2991 C 0.01019 0.99649 0.00039 0.0
C2992 C 0.01887 0.98643 0.02334 0.0
C2993 C 0.02722 0.98629 0.98146 0.0
C2994 C 0.00903 0.02539 0.00017 0.0
C2995 C 0.9845 0.03386 0.99645 0.0
C2996 C 0.97868 0.05977 0.99557 0.0
C2997 C 0.99858 0.07751 -0.00214 0.0
C2998 C 0.02405 0.06926 0.00084 0.0
C2999 C 0.02912 0.04281 0.0024 0.0
H3000 H 0.79932 0.75033 0.74696 0.0
H3001 H 0.76761 0.82565 0.75768 0.0
H3002 H 0.72428 0.80749 0.75763 0.0
H3003 H 0.75263 0.72959 0.709 0.0
H3004 H 0.75114 0.69718 0.71888 0.0
H3005 H 0.78007 0.71531 0.72209 0.0
H3006 H 0.77967 0.70706 0.76484 0.0
H3007 H 0.75101 0.68848 0.76172 0.0
H3008 H 0.75168 0.71499 0.78088 0.0
H3009 H 0.68448 0.78222 0.75327 0.0
H3010 H 0.65032 0.75048 0.74854 0.0
H3011 H 0.70714 0.69104 0.74047 0.0
C3012 C 0.78327 0.76282 0.75002 0.0
C3013 C 0.78681 0.78938 0.7526 0.0
C3014 C 0.76532 0.80524 0.75584 0.0
C3015 C 0.74062 0.79513 0.75575 0.0
C3016 C 0.73767 0.76906 0.75234 0.0
C3017 C 0.75835 0.75301 0.74982 0.0
C3018 C 0.74965 0.72585 0.74548 0.0
C3019 C 0.75893 0.71644 0.7225 0.0
C3020 C 0.75853 0.70804 0.76436 0.0
C3021 C 0.72092 0.72927 0.74579 0.0
C3022 C 0.7145 0.75438 0.74972 0.0
C3023 C 0.68924 0.76243 0.75041 0.0
C3024 C 0.66995 0.74424 0.74759 0.0
C3025 C 0.67595 0.71819 0.74422 0.0
C3026 C 0.70186 0.71077 0.74297 0.0
H3027 H 0.8069 0.27073 0.24941 0.0
H3028 H 0.7737 0.34263 0.22875 0.0
H3029 H 0.73072 0.32386 0.23139 0.0
H3030 H 0.75959 0.22918 0.22033 0.0
H3031 H 0.75976 0.2061 0.24267 0.0
H3032 H 0.78795 0.22458 0.23688 0.0
H3033 H 0.78857 0.23964 0.27819 0.0
H3034 H 0.75999 0.22178 0.28395 0.0
H3035 H 0.76102 0.2555 0.28959 0.0
H3036 H 0.6912 0.29893 0.24001 0.0
H3037 H 0.65777 0.2673 0.24841 0.0
H3038 H 0.71607 0.21103 0.26297 0.0
C3039 C 0.79063 0.2822 0.24463 0.0
C3040 C 0.79367 0.3081 0.23862 0.0
C3041 C 0.77183 0.32271 0.23322 0.0
C3042 C 0.74731 0.31226 0.23481 0.0
C3043 C 0.74484 0.28709 0.2418 0.0
C3044 C 0.76588 0.27203 0.24617 0.0
C3045 C 0.75773 0.24573 0.254 0.0
C3046 C 0.76679 0.22518 0.23748 0.0
C3047 C 0.76741 0.24036 0.27784 0.0
C3048 C 0.72893 0.24852 0.25356 0.0
C3049 C 0.72193 0.2726 0.24662 0.0
C3050 C 0.69644 0.27991 0.24527 0.0
C3051 C 0.67755 0.26185 0.25031 0.0
C3052 C 0.68418 0.2366 0.25638 0.0
C3053 C 0.7103 0.23015 0.25846 0.0
H3054 H 0.76167 0.18758 0.73123 0.0
H3055 H 0.82046 0.24132 0.751 0.0
H3056 H 0.78746 0.27198 0.76235 0.0
H3057 H 0.71768 0.23681 0.70879 0.0
H3058 H 0.68982 0.21963 0.71796 0.0
H3059 H 0.71828 0.20252 0.71041 0.0
H3060 H 0.71774 0.1807 0.74939 0.0
H3061 H 0.68977 0.19843 0.75725 0.0
H3062 H 0.71806 0.2001 0.7743 0.0
H3063 H 0.74851 0.29539 0.77445 0.0
H3064 H 0.70581 0.31395 0.77964 0.0
H3065 H 0.67167 0.24625 0.75057 0.0
C3066 C 0.76757 0.20605 0.73743 0.0
C3067 C 0.7937 0.21198 0.74024 0.0
C3068 C 0.80064 0.23633 0.7485 0.0
C3069 C 0.782 0.25382 0.75523 0.0
C3070 C 0.75647 0.24694 0.75315 0.0
C3071 C 0.74917 0.224 0.74381 0.0
C3072 C 0.72033 0.22172 0.74295 0.0
C3073 C 0.71098 0.22007 0.71858 0.0
C3074 C 0.71093 0.19888 0.7568 0.0
C3075 C 0.71262 0.24674 0.75369 0.0
C3076 C 0.73383 0.26083 0.75963 0.0
C3077 C 0.73176 0.28464 0.7697 0.0
C3078 C 0.7074 0.29492 0.77276 0.0
C3079 C 0.68539 0.28154 0.76564 0.0
C3080 C 0.68806 0.25677 0.75658 0.0
H3081 H 0.69259 0.74821 0.24041 0.0
H3082 H 0.72631 0.81808 0.21539 0.0
H3083 H 0.76873 0.79791 0.21563 0.0
H3084 H 0.741 0.73346 0.27796 0.0
H3085 H 0.74046 0.69947 0.27367 0.0
H3086 H 0.71209 0.71797 0.26899 0.0
H3087 H 0.70881 0.70082 0.22843 0.0
H3088 H 0.7368 0.68173 0.23316 0.0
H3089 H 0.73583 0.70364 0.20994 0.0
H3090 H 0.80797 0.77206 0.22256 0.0
H3091 H 0.84099 0.73988 0.2306 0.0
H3092 H 0.7822 0.68638 0.25083 0.0
C3093 C 0.70876 0.75886 0.23412 0.0
C3094 C 0.70616 0.7846 0.22756 0.0
C3095 C 0.7279 0.79826 0.22025 0.0
C3096 C 0.7521 0.78702 0.22047 0.0
C3097 C 0.75427 0.76205 0.22804 0.0
C3098 C 0.73318 0.74792 0.23432 0.0
C3099 C 0.74104 0.72179 0.24269 0.0
C3100 C 0.73318 0.71796 0.26728 0.0
C3101 C 0.72997 0.70075 0.22765 0.0
C3102 C 0.76979 0.72361 0.24032 0.0
C3103 C 0.777 0.74707 0.23199 0.0
C3104 C 0.80255 0.75352 0.22889 0.0
C3105 C 0.82121 0.7352 0.23375 0.0
C3106 C 0.81423 0.71064 0.24142 0.0
C3107 C 0.78815 0.705 0.24503 0.0
H3108 H 0.51717 0.57715 0.99489 0.0
H3109 H 0.44239 0.54834 0.01279 0.0
H3110 H 0.45948 0.50465 0.01418 0.0
H3111 H 0.53355 0.52757 0.95882 0.0
H3112 H 0.56667 0.5258 0.96663 0.0
H3113 H 0.54966 0.55541 0.96941 0.0
H3114 H 0.56134 0.55786 0.01145 0.0
H3115 H 0.57901 0.52862 0.00873 0.0
H3116 H 0.55422 0.53125 0.02949 0.0
H3117 H 0.4833 0.46379 0.0099 0.0
H3118 H 0.51411 0.42862 0.00548 0.0
H3119 H 0.57373 0.48353 0.99075 0.0
C3120 C 0.50467 0.56174 -0.0001 0.0
C3121 C 0.47851 0.56612 0.00395 0.0
C3122 C 0.46253 0.54538 0.00976 0.0
C3123 C 0.47201 0.52048 0.01048 0.0
C3124 C 0.49758 0.51659 0.00539 0.0
C3125 C 0.51385 0.53664 0.00064 0.0
C3126 C 0.54033 0.527 0.99506 0.0
C3127 C 0.54799 0.53438 0.97106 0.0
C3128 C 0.55988 0.53676 0.01221 0.0
C3129 C 0.53625 0.49847 -0.00278 0.0
C3130 C 0.5114 0.4929 0.00303 0.0
C3131 C 0.50289 0.46789 0.00553 0.0
C3132 C 0.52046 0.44802 0.00275 0.0
C3133 C 0.54629 0.45331 -0.0023 0.0
C3134 C 0.55409 0.47888 0.99458 0.0
H3135 H 0.96128 0.53738 0.4699 0.0
H3136 H 0.01657 0.59422 0.49088 0.0
H3137 H 0.046 0.56008 0.50215 0.0
H3138 H 0.97191 0.49349 0.51336 0.0
H3139 H 0.96917 0.46525 0.49636 0.0
H3140 H 0.95254 0.49387 0.48844 0.0
H3141 H 0.97438 0.49343 0.44951 0.0
H3142 H 0.99046 0.46438 0.45708 0.0
H3143 H 0.00862 0.49157 0.44785 0.0
H3144 H 0.0684 0.52021 0.51339 0.0
H3145 H 0.08553 0.47681 0.5182 0.0
H3146 H 0.01645 0.44519 0.48958 0.0
C3147 C 0.97982 0.54268 0.47636 0.0
C3148 C 0.9865 0.56862 0.4795 0.0
C3149 C 0.01095 0.57461 0.48813 0.0
C3150 C 0.02776 0.55531 0.49481 0.0
C3151 C 0.02009 0.53003 0.49244 0.0
C3152 C 0.99701 0.5236 0.48288 0.0
C3153 C 0.99364 0.49485 0.48203 0.0
C3154 C 0.97044 0.48637 0.49588 0.0
C3155 C 0.99166 0.48551 0.45767 0.0
C3156 C 0.01833 0.48617 0.49282 0.0
C3157 C 0.03316 0.50685 0.49884 0.0
C3158 C 0.057 0.50387 0.5087 0.0
C3159 C 0.06647 0.47914 0.51154 0.0
C3160 C 0.05219 0.45765 0.50458 0.0
C3161 C 0.0275 0.46121 0.49564 0.0
H3162 H 0.0392 0.53922 0.97704 0.0
H3163 H 0.984 0.59543 -0.0009 0.0
H3164 H 0.95404 0.56093 0.00882 0.0
H3165 H 0.99233 0.49484 0.95274 0.0
H3166 H 0.0101 0.46715 0.96129 0.0
H3167 H 0.02655 0.49645 0.9551 0.0
H3168 H 0.04741 0.49504 0.99442 0.0
H3169 H 0.0305 0.4661 0.00094 0.0
H3170 H 0.02742 0.49349 0.01893 0.0
H3171 H 0.93107 0.52034 0.01826 0.0
H3172 H 0.91393 0.47672 0.02149 0.0
H3173 H 0.98364 0.44656 0.99284 0.0
C3174 C 0.02059 0.54432 0.98345 0.0
C3175 C 0.01399 0.57012 0.98725 0.0
C3176 C 0.98948 0.5759 0.99581 0.0
C3177 C 0.97239 0.55639 0.00161 0.0
C3178 C 0.97992 0.53117 -0.00154 0.0
C3179 C 0.00319 0.52508 0.9891 0.0
C3180 C 0.00647 0.49641 0.98727 0.0
C3181 C 0.00901 0.48823 0.96264 0.0
C3182 C 0.02931 0.48723 0.00122 0.0
C3183 C 0.98151 0.48732 -0.00273 0.0
C3184 C 0.96658 0.50772 0.00377 0.0
C3185 C 0.94255 0.50424 0.01315 0.0
C3186 C 0.93305 0.47936 0.01506 0.0
C3187 C 0.94749 0.45819 0.0076 0.0
C3188 C 0.97234 0.46226 -0.00087 0.0
H3189 H 0.44869 0.48028 0.49758 0.0
H3190 H 0.50325 0.42011 0.5111 0.0
H3191 H 0.53608 0.45235 0.51947 0.0
H3192 H 0.49432 0.5224 0.46979 0.0
H3193 H 0.47979 0.55091 0.48069 0.0
H3194 H 0.46071 0.52289 0.47604 0.0
H3195 H 0.44599 0.52469 0.51748 0.0
H3196 H 0.46571 0.55227 0.52232 0.0
H3197 H 0.4695 0.52428 0.53948 0.0
H3198 H 0.56258 0.49068 0.52751 0.0
H3199 H 0.58369 0.53263 0.5279 0.0
H3200 H 0.51289 0.56858 0.50781 0.0
C3201 C 0.46765 0.47393 0.50204 0.0
C3202 C 0.47339 0.44765 0.50371 0.0
C3203 C 0.49843 0.44008 0.50954 0.0
C3204 C 0.51714 0.45828 0.51458 0.0
C3205 C 0.51067 0.48399 0.51339 0.0
C3206 C 0.48676 0.49188 0.50671 0.0
C3207 C 0.4853 0.52076 0.50563 0.0
C3208 C 0.47971 0.52976 0.48161 0.0
C3209 C 0.46544 0.5311 0.52222 0.0
C3210 C 0.51213 0.52784 0.5128 0.0
C3211 C 0.52626 0.50627 0.51753 0.0
C3212 C 0.55174 0.50769 0.52383 0.0
C3213 C 0.56351 0.53164 0.52417 0.0
C3214 C 0.54992 0.55388 0.51806 0.0
C3215 C 0.52363 0.55202 0.51308 0.0
loop_
_geom_bond_atom_site_label_1
_geom_bond_atom_site_label_2
_geom_bond_distance
_geom_bond_site_symmetry_2
_ccdc_geom_bond_type
C0 C1 1.351 . S
C0 N3 1.368 . S
C0 H5 0.931 . S
C1 C0 1.351 . S
C1 N2 1.373 . S
C1 H29 0.930 . S
N2 C1 1.373 . S
N2 C4 1.340 . S
N3 C0 1.368 . S
N3 C4 1.321 . S
N3 Co6 2.135 . S
C4 N2 1.340 . S
C4 N3 1.321 . S
C4 H28 0.930 . S
H5 C0 0.931 . S
Co6 N3 2.135 . S
Co6 N9 2.121 . S
Co6 O14 2.055 . S
Co6 O17 2.039 . S
Co6 N20 2.140 . S
C7 O8 1.227 . S
C7 O17 1.265 . S
O8 C7 1.227 . S
N9 Co6 2.121 . S
N9 C11 1.375 . S
N9 C12 1.313 . S
C10 C11 1.338 . S
C10 N13 1.377 . S
C10 H30 0.930 . S
C11 N9 1.375 . S
C11 C10 1.338 . S
C11 H15 0.931 . S
C12 N9 1.313 . S
C12 N13 1.344 . S
C12 H16 0.930 . S
N13 C10 1.377 . S
N13 C12 1.344 . S
O14 Co6 2.055 . S
O14 C18 1.253 . S
H15 C11 0.931 . S
H16 C12 0.930 . S
O17 Co6 2.039 . S
O17 C7 1.265 . S
C18 O14 1.253 . S
C18 O19 1.227 . S
O19 C18 1.227 . S
N20 Co6 2.140 . S
N20 C23 1.346 . S
N20 C24 1.345 . S
C21 C22 1.387 . S
C21 C25 1.391 . S
C22 C21 1.387 . S
C22 C23 1.369 . S
C22 H31 0.929 . S
C23 N20 1.346 . S
C23 C22 1.369 . S
C23 H26 0.928 . S
C24 N20 1.345 . S
C24 C25 1.371 . S
C24 H27 0.931 . S
C25 C21 1.391 . S
C25 C24 1.371 . S
C25 H32 0.930 . S
H26 C23 0.928 . S
H27 C24 0.931 . S
H28 C4 0.930 . S
H29 C1 0.930 . S
H30 C10 0.930 . S
H31 C22 0.929 . S
H32 C25 0.930 . S
C33 C34 1.351 . S
C33 N36 1.368 . S
C33 H38 0.931 . S
C34 C33 1.351 . S
C34 N35 1.373 . S
C34 H62 0.930 . S
N35 C34 1.373 . S
N35 C37 1.340 . S
N36 C33 1.368 . S
N36 C37 1.321 . S
N36 Co39 2.135 . S
C37 N35 1.340 . S
C37 N36 1.321 . S
C37 H61 0.930 . S
H38 C33 0.931 . S
Co39 N36 2.135 . S
Co39 N42 2.121 . S
Co39 O47 2.055 . S
Co39 O50 2.039 . S
Co39 N53 2.140 . S
C40 O41 1.227 . S
C40 O50 1.265 . S
O41 C40 1.227 . S
N42 Co39 2.121 . S
N42 C44 1.375 . S
N42 C45 1.313 . S
C43 C44 1.338 . S
C43 N46 1.377 . S
C43 H63 0.930 . S
C44 N42 1.375 . S
C44 C43 1.338 . S
C44 H48 0.931 . S
C45 N42 1.313 . S
C45 N46 1.344 . S
C45 H49 0.930 . S
N46 C43 1.377 . S
N46 C45 1.344 . S
O47 Co39 2.055 . S
O47 C51 1.253 . S
H48 C44 0.931 . S
H49 C45 0.930 . S
O50 Co39 2.039 . S
O50 C40 1.265 . S
C51 O47 1.253 . S
C51 O52 1.227 . S
O52 C51 1.227 . S
N53 Co39 2.140 . S
N53 C56 1.346 . S
N53 C57 1.345 . S
C54 C55 1.387 . S
C54 C58 1.391 . S
C55 C54 1.387 . S
C55 C56 1.369 . S
C55 H64 0.929 . S
C56 N53 1.346 . S
C56 C55 1.369 . S
C56 H59 0.928 . S
C57 N53 1.345 . S
C57 C58 1.371 . S
C57 H60 0.931 . S
C58 C54 1.391 . S
C58 C57 1.371 . S
C58 H65 0.930 . S
H59 C56 0.928 . S
H60 C57 0.931 . S
H61 C37 0.930 . S
H62 C34 0.930 . S
H63 C43 0.930 . S
H64 C55 0.929 . S
H65 C58 0.930 . S
C66 C67 1.351 . S
C66 N69 1.368 . S
C66 H71 0.931 . S
C67 C66 1.351 . S
C67 N68 1.373 . S
C67 H95 0.930 . S
N68 C67 1.373 . S
N68 C70 1.340 . S
N69 C66 1.368 . S
N69 C70 1.321 . S
N69 Co72 2.135 . S
C70 N68 1.340 . S
C70 N69 1.321 . S
C70 H94 0.930 . S
H71 C66 0.931 . S
Co72 N69 2.135 . S
Co72 N75 2.121 . S
Co72 O80 2.055 . S
Co72 O83 2.039 . S
Co72 N86 2.140 . S
C73 O74 1.227 . S
C73 O83 1.265 . S
O74 C73 1.227 . S
N75 Co72 2.121 . S
N75 C77 1.375 . S
N75 C78 1.313 . S
C76 C77 1.338 . S
C76 N79 1.377 . S
C76 H96 0.930 . S
C77 N75 1.375 . S
C77 C76 1.338 . S
C77 H81 0.931 . S
C78 N75 1.313 . S
C78 N79 1.344 . S
C78 H82 0.930 . S
N79 C76 1.377 . S
N79 C78 1.344 . S
O80 Co72 2.055 . S
O80 C84 1.253 . S
H81 C77 0.931 . S
H82 C78 0.930 . S
O83 Co72 2.039 . S
O83 C73 1.265 . S
C84 O80 1.253 . S
C84 O85 1.227 . S
O85 C84 1.227 . S
N86 Co72 2.140 . S
N86 C89 1.346 . S
N86 C90 1.345 . S
C87 C88 1.387 . S
C87 C91 1.391 . S
C88 C87 1.387 . S
C88 C89 1.369 . S
C88 H97 0.929 . S
C89 N86 1.346 . S
C89 C88 1.369 . S
C89 H92 0.928 . S
C90 N86 1.345 . S
C90 C91 1.371 . S
C90 H93 0.931 . S
C91 C87 1.391 . S
C91 C90 1.371 . S
C91 H98 0.930 . S
H92 C89 0.928 . S
H93 C90 0.931 . S
H94 C70 0.930 . S
H95 C67 0.930 . S
H96 C76 0.930 . S
H97 C88 0.929 . S
H98 C91 0.930 . S
C99 C100 1.351 . S
C99 N102 1.368 . S
C99 H104 0.931 . S
C100 C99 1.351 . S
C100 N101 1.373 . S
C100 H128 0.930 . S
N101 C100 1.373 . S
N101 C103 1.340 . S
N102 C99 1.368 . S
N102 C103 1.321 . S
N102 Co105 2.135 . S
C103 N101 1.340 . S
C103 N102 1.321 . S
C103 H127 0.930 . S
H104 C99 0.931 . S
Co105 N102 2.135 . S
Co105 N108 2.121 1_554 S
Co105 O113 2.055 . S
Co105 O116 2.039 . S
Co105 N119 2.140 . S
C106 O107 1.227 . S
C106 O116 1.265 . S
O107 C106 1.227 . S
N108 Co105 2.121 1_556 S
N108 C110 1.375 . S
N108 C111 1.313 . S
C109 C110 1.338 . S
C109 N112 1.377 . S
C109 H129 0.930 . S
C110 N108 1.375 . S
C110 C109 1.338 . S
C110 H114 0.931 . S
C111 N108 1.313 . S
C111 N112 1.344 . S
C111 H115 0.930 . S
N112 C109 1.377 . S
N112 C111 1.344 . S
O113 Co105 2.055 . S
O113 C117 1.253 . S
H114 C110 0.931 . S
H115 C111 0.930 . S
O116 Co105 2.039 . S
O116 C106 1.265 . S
C117 O113 1.253 . S
C117 O118 1.227 . S
O118 C117 1.227 . S
N119 Co105 2.140 . S
N119 C122 1.346 . S
N119 C123 1.345 . S
C120 C121 1.387 . S
C120 C124 1.391 . S
C121 C120 1.387 . S
C121 C122 1.369 . S
C121 H130 0.929 . S
C122 N119 1.346 . S
C122 C121 1.369 . S
C122 H125 0.928 . S
C123 N119 1.345 . S
C123 C124 1.371 . S
C123 H126 0.931 . S
C124 C120 1.391 . S
C124 C123 1.371 . S
C124 H131 0.930 . S
H125 C122 0.928 . S
H126 C123 0.931 . S
H127 C103 0.930 . S
H128 C100 0.930 . S
H129 C109 0.930 . S
H130 C121 0.929 . S
H131 C124 0.930 . S
C132 C133 1.351 . S
C132 N135 1.368 . S
C132 H137 0.931 . S
C133 C132 1.351 . S
C133 N134 1.373 . S
C133 H161 0.930 . S
N134 C133 1.373 . S
N134 C136 1.340 . S
N135 C132 1.368 . S
N135 C136 1.321 . S
N135 Co138 2.135 . S
C136 N134 1.340 . S
C136 N135 1.321 . S
C136 H160 0.930 . S
H137 C132 0.931 . S
Co138 N135 2.135 . S
Co138 N141 2.121 . S
Co138 O146 2.055 . S
Co138 O149 2.039 . S
Co138 N152 2.140 . S
C139 O140 1.227 . S
C139 O149 1.265 . S
O140 C139 1.227 . S
N141 Co138 2.121 . S
N141 C143 1.375 . S
N141 C144 1.313 . S
C142 C143 1.338 . S
C142 N145 1.377 . S
C142 H162 0.930 . S
C143 N141 1.375 . S
C143 C142 1.338 . S
C143 H147 0.931 . S
C144 N141 1.313 . S
C144 N145 1.344 . S
C144 H148 0.930 . S
N145 C142 1.377 . S
N145 C144 1.344 . S
O146 Co138 2.055 . S
O146 C150 1.253 . S
H147 C143 0.931 . S
H148 C144 0.930 . S
O149 Co138 2.039 . S
O149 C139 1.265 . S
C150 O146 1.253 . S
C150 O151 1.227 . S
O151 C150 1.227 . S
N152 Co138 2.140 . S
N152 C155 1.346 . S
N152 C156 1.345 . S
C153 C154 1.387 . S
C153 C157 1.391 . S
C154 C153 1.387 . S
C154 C155 1.369 . S
C154 H163 0.929 . S
C155 N152 1.346 . S
C155 C154 1.369 . S
C155 H158 0.928 . S
C156 N152 1.345 . S
C156 C157 1.371 . S
C156 H159 0.931 . S
C157 C153 1.391 . S
C157 C156 1.371 . S
C157 H164 0.930 . S
H158 C155 0.928 . S
H159 C156 0.931 . S
H160 C136 0.930 . S
H161 C133 0.930 . S
H162 C142 0.930 . S
H163 C154 0.929 . S
H164 C157 0.930 . S
C165 C166 1.351 . S
C165 N168 1.368 . S
C165 H170 0.931 . S
C166 C165 1.351 . S
C166 N167 1.373 . S
C166 H194 0.930 . S
N167 C166 1.373 . S
N167 C169 1.340 . S
N168 C165 1.368 . S
N168 C169 1.321 . S
N168 Co171 2.135 . S
C169 N167 1.340 . S
C169 N168 1.321 . S
C169 H193 0.930 . S
H170 C165 0.931 . S
Co171 N168 2.135 . S
Co171 N174 2.121 . S
Co171 O179 2.055 . S
Co171 O182 2.039 . S
Co171 N185 2.140 . S
C172 O173 1.227 . S
C172 O182 1.265 . S
O173 C172 1.227 . S
N174 Co171 2.121 . S
N174 C176 1.375 . S
N174 C177 1.313 . S
C175 C176 1.338 . S
C175 N178 1.377 . S
C175 H195 0.930 . S
C176 N174 1.375 . S
C176 C175 1.338 . S
C176 H180 0.931 . S
C177 N174 1.313 . S
C177 N178 1.344 . S
C177 H181 0.930 . S
N178 C175 1.377 . S
N178 C177 1.344 . S
O179 Co171 2.055 . S
O179 C183 1.253 . S
H180 C176 0.931 . S
H181 C177 0.930 . S
O182 Co171 2.039 . S
O182 C172 1.265 . S
C183 O179 1.253 . S
C183 O184 1.227 . S
O184 C183 1.227 . S
N185 Co171 2.140 . S
N185 C188 1.346 . S
N185 C189 1.345 . S
C186 C187 1.387 . S
C186 C190 1.391 . S
C187 C186 1.387 . S
C187 C188 1.369 . S
C187 H196 0.929 . S
C188 N185 1.346 . S
C188 C187 1.369 . S
C188 H191 0.928 . S
C189 N185 1.345 . S
C189 C190 1.371 . S
C189 H192 0.931 . S
C190 C186 1.391 . S
C190 C189 1.371 . S
C190 H197 0.930 . S
H191 C188 0.928 . S
H192 C189 0.931 . S
H193 C169 0.930 . S
H194 C166 0.930 . S
H195 C175 0.930 . S
H196 C187 0.929 . S
H197 C190 0.930 . S
C198 C199 1.351 . S
C198 N201 1.368 . S
C198 H203 0.931 . S
C199 C198 1.351 . S
C199 N200 1.373 . S
C199 H227 0.930 . S
N200 C199 1.373 . S
N200 C202 1.340 . S
N201 C198 1.368 . S
N201 C202 1.321 . S
N201 Co204 2.135 . S
C202 N200 1.340 . S
C202 N201 1.321 . S
C202 H226 0.930 . S
H203 C198 0.931 . S
Co204 N201 2.135 . S
Co204 N207 2.121 . S
Co204 O212 2.055 . S
Co204 O215 2.039 . S
Co204 N218 2.140 . S
C205 O206 1.227 . S
C205 O215 1.265 . S
O206 C205 1.227 . S
N207 Co204 2.121 . S
N207 C209 1.375 . S
N207 C210 1.313 . S
C208 C209 1.338 . S
C208 N211 1.377 . S
C208 H228 0.930 . S
C209 N207 1.375 . S
C209 C208 1.338 . S
C209 H213 0.931 . S
C210 N207 1.313 . S
C210 N211 1.344 . S
C210 H214 0.930 . S
N211 C208 1.377 . S
N211 C210 1.344 . S
O212 Co204 2.055 . S
O212 C216 1.253 . S
H213 C209 0.931 . S
H214 C210 0.930 . S
O215 Co204 2.039 . S
O215 C205 1.265 . S
C216 O212 1.253 . S
C216 O217 1.227 . S
O217 C216 1.227 . S
N218 Co204 2.140 . S
N218 C221 1.346 . S
N218 C222 1.345 . S
C219 C220 1.387 . S
C219 C223 1.391 . S
C220 C219 1.387 . S
C220 C221 1.369 . S
C220 H229 0.929 . S
C221 N218 1.346 . S
C221 C220 1.369 . S
C221 H224 0.928 . S
C222 N218 1.345 . S
C222 C223 1.371 . S
C222 H225 0.931 . S
C223 C219 1.391 . S
C223 C222 1.371 . S
C223 H230 0.930 . S
H224 C221 0.928 . S
H225 C222 0.931 . S
H226 C202 0.930 . S
H227 C199 0.930 . S
H228 C208 0.930 . S
H229 C220 0.929 . S
H230 C223 0.930 . S
C231 C232 1.351 . S
C231 N234 1.368 . S
C231 H236 0.931 . S
C232 C231 1.351 . S
C232 N233 1.373 . S
C232 H260 0.930 . S
N233 C232 1.373 . S
N233 C235 1.340 . S
N234 C231 1.368 . S
N234 C235 1.321 . S
N234 Co237 2.135 . S
C235 N233 1.340 . S
C235 N234 1.321 . S
C235 H259 0.930 . S
H236 C231 0.931 . S
Co237 N234 2.135 . S
Co237 N240 2.121 1_556 S
Co237 O245 2.055 . S
Co237 O248 2.039 . S
Co237 N251 2.140 . S
C238 O239 1.227 . S
C238 O248 1.265 . S
O239 C238 1.227 . S
N240 Co237 2.121 1_554 S
N240 C242 1.375 . S
N240 C243 1.313 . S
C241 C242 1.338 . S
C241 N244 1.377 . S
C241 H261 0.930 . S
C242 N240 1.375 . S
C242 C241 1.338 . S
C242 H246 0.931 . S
C243 N240 1.313 . S
C243 N244 1.344 . S
C243 H247 0.930 . S
N244 C241 1.377 . S
N244 C243 1.344 . S
O245 Co237 2.055 . S
O245 C249 1.253 . S
H246 C242 0.931 . S
H247 C243 0.930 . S
O248 Co237 2.039 . S
O248 C238 1.265 . S
C249 O245 1.253 . S
C249 O250 1.227 . S
O250 C249 1.227 . S
N251 Co237 2.140 . S
N251 C254 1.346 . S
N251 C255 1.345 . S
C252 C253 1.387 . S
C252 C256 1.391 . S
C253 C252 1.387 . S
C253 C254 1.369 . S
C253 H262 0.929 . S
C254 N251 1.346 . S
C254 C253 1.369 . S
C254 H257 0.928 . S
C255 N251 1.345 . S
C255 C256 1.371 . S
C255 H258 0.931 . S
C256 C252 1.391 . S
C256 C255 1.371 . S
C256 H263 0.930 . S
H257 C254 0.928 . S
H258 C255 0.931 . S
H259 C235 0.930 . S
H260 C232 0.930 . S
H261 C241 0.930 . S
H262 C253 0.929 . S
H263 C256 0.930 . S
C264 C265 1.351 . S
C264 N267 1.368 . S
C264 H269 0.931 . S
C265 C264 1.351 . S
C265 N266 1.373 . S
C265 H293 0.930 . S
N266 C265 1.373 . S
N266 C268 1.340 . S
N267 C264 1.368 . S
N267 C268 1.321 . S
N267 Co270 2.135 . S
C268 N266 1.340 . S
C268 N267 1.321 . S
C268 H292 0.930 . S
H269 C264 0.931 . S
Co270 N267 2.135 . S
Co270 N273 2.121 . S
Co270 O278 2.055 . S
Co270 O281 2.039 . S
Co270 N284 2.140 . S
C271 O272 1.227 . S
C271 O281 1.265 . S
O272 C271 1.227 . S
N273 Co270 2.121 . S
N273 C275 1.375 . S
N273 C276 1.313 . S
C274 C275 1.338 . S
C274 N277 1.377 . S
C274 H294 0.930 . S
C275 N273 1.375 . S
C275 C274 1.338 . S
C275 H279 0.931 . S
C276 N273 1.313 . S
C276 N277 1.344 . S
C276 H280 0.930 . S
N277 C274 1.377 . S
N277 C276 1.344 . S
O278 Co270 2.055 . S
O278 C282 1.253 . S
H279 C275 0.931 . S
H280 C276 0.930 . S
O281 Co270 2.039 . S
O281 C271 1.265 . S
C282 O278 1.253 . S
C282 O283 1.227 . S
O283 C282 1.227 . S
N284 Co270 2.140 . S
N284 C287 1.346 . S
N284 C288 1.345 . S
C285 C286 1.387 . S
C285 C289 1.391 . S
C286 C285 1.387 . S
C286 C287 1.369 . S
C286 H295 0.929 . S
C287 N284 1.346 . S
C287 C286 1.369 . S
C287 H290 0.928 . S
C288 N284 1.345 . S
C288 C289 1.371 . S
C288 H291 0.931 . S
C289 C285 1.391 . S
C289 C288 1.371 . S
C289 H296 0.930 . S
H290 C287 0.928 . S
H291 C288 0.931 . S
H292 C268 0.930 . S
H293 C265 0.930 . S
H294 C274 0.930 . S
H295 C286 0.929 . S
H296 C289 0.930 . S
C297 C298 1.351 . S
C297 N300 1.368 . S
C297 H302 0.931 . S
C298 C297 1.351 . S
C298 N299 1.373 . S
C298 H326 0.930 . S
N299 C298 1.373 . S
N299 C301 1.340 . S
N300 C297 1.368 . S
N300 C301 1.321 . S
N300 Co303 2.135 . S
C301 N299 1.340 . S
C301 N300 1.321 . S
C301 H325 0.930 . S
H302 C297 0.931 . S
Co303 N300 2.135 . S
Co303 N306 2.121 . S
Co303 O311 2.055 . S
Co303 O314 2.039 . S
Co303 N317 2.140 . S
C304 O305 1.227 . S
C304 O314 1.265 . S
O305 C304 1.227 . S
N306 Co303 2.121 . S
N306 C308 1.375 . S
N306 C309 1.313 . S
C307 C308 1.338 . S
C307 N310 1.377 . S
C307 H327 0.930 . S
C308 N306 1.375 . S
C308 C307 1.338 . S
C308 H312 0.931 . S
C309 N306 1.313 . S
C309 N310 1.344 . S
C309 H313 0.930 . S
N310 C307 1.377 . S
N310 C309 1.344 . S
O311 Co303 2.055 . S
O311 C315 1.253 . S
H312 C308 0.931 . S
H313 C309 0.930 . S
O314 Co303 2.039 . S
O314 C304 1.265 . S
C315 O311 1.253 . S
C315 O316 1.227 . S
O316 C315 1.227 . S
N317 Co303 2.140 . S
N317 C320 1.346 . S
N317 C321 1.345 . S
C318 C319 1.387 . S
C318 C322 1.391 . S
C319 C318 1.387 . S
C319 C320 1.369 . S
C319 H328 0.929 . S
C320 N317 1.346 . S
C320 C319 1.369 . S
C320 H323 0.928 . S
C321 N317 1.345 . S
C321 C322 1.371 . S
C321 H324 0.931 . S
C322 C318 1.391 . S
C322 C321 1.371 . S
C322 H329 0.930 . S
H323 C320 0.928 . S
H324 C321 0.931 . S
H325 C301 0.930 . S
H326 C298 0.930 . S
H327 C307 0.930 . S
H328 C319 0.929 . S
H329 C322 0.930 . S
C330 C331 1.351 . S
C330 N333 1.368 . S
C330 H335 0.931 . S
C331 C330 1.351 . S
C331 N332 1.373 . S
C331 H359 0.930 . S
N332 C331 1.373 . S
N332 C334 1.340 . S
N333 C330 1.368 . S
N333 C334 1.321 . S
N333 Co336 2.135 . S
C334 N332 1.340 . S
C334 N333 1.321 . S
C334 H358 0.930 . S
H335 C330 0.931 . S
Co336 N333 2.135 . S
Co336 N339 2.121 . S
Co336 O344 2.055 . S
Co336 O347 2.039 . S
Co336 N350 2.140 . S
C337 O338 1.227 . S
C337 O347 1.265 . S
O338 C337 1.227 . S
N339 Co336 2.121 . S
N339 C341 1.375 . S
N339 C342 1.313 . S
C340 C341 1.338 . S
C340 N343 1.377 . S
C340 H360 0.930 . S
C341 N339 1.375 . S
C341 C340 1.338 . S
C341 H345 0.931 . S
C342 N339 1.313 . S
C342 N343 1.344 . S
C342 H346 0.930 . S
N343 C340 1.377 . S
N343 C342 1.344 . S
O344 Co336 2.055 . S
O344 C348 1.253 . S
H345 C341 0.931 . S
H346 C342 0.930 . S
O347 Co336 2.039 . S
O347 C337 1.265 . S
C348 O344 1.253 . S
C348 O349 1.227 . S
O349 C348 1.227 . S
N350 Co336 2.140 . S
N350 C353 1.346 . S
N350 C354 1.345 . S
C351 C352 1.387 . S
C351 C355 1.391 . S
C352 C351 1.387 . S
C352 C353 1.369 . S
C352 H361 0.929 . S
C353 N350 1.346 . S
C353 C352 1.369 . S
C353 H356 0.928 . S
C354 N350 1.345 . S
C354 C355 1.371 . S
C354 H357 0.931 . S
C355 C351 1.391 . S
C355 C354 1.371 . S
C355 H362 0.930 . S
H356 C353 0.928 . S
H357 C354 0.931 . S
H358 C334 0.930 . S
H359 C331 0.930 . S
H360 C340 0.930 . S
H361 C352 0.929 . S
H362 C355 0.930 . S
C363 C364 1.351 . S
C363 N366 1.368 . S
C363 H368 0.931 . S
C364 C363 1.351 . S
C364 N365 1.373 . S
C364 H392 0.930 . S
N365 C364 1.373 . S
N365 C367 1.340 . S
N366 C363 1.368 . S
N366 C367 1.321 . S
N366 Co369 2.135 . S
C367 N365 1.340 . S
C367 N366 1.321 . S
C367 H391 0.930 . S
H368 C363 0.931 . S
Co369 N366 2.135 . S
Co369 N372 2.121 1_556 S
Co369 O377 2.055 . S
Co369 O380 2.039 . S
Co369 N383 2.140 . S
C370 O371 1.227 . S
C370 O380 1.265 . S
O371 C370 1.227 . S
N372 Co369 2.121 1_554 S
N372 C374 1.375 . S
N372 C375 1.313 . S
C373 C374 1.338 . S
C373 N376 1.377 . S
C373 H393 0.930 . S
C374 N372 1.375 . S
C374 C373 1.338 . S
C374 H378 0.931 . S
C375 N372 1.313 . S
C375 N376 1.344 . S
C375 H379 0.930 . S
N376 C373 1.377 . S
N376 C375 1.344 . S
O377 Co369 2.055 . S
O377 C381 1.253 . S
H378 C374 0.931 . S
H379 C375 0.930 . S
O380 Co369 2.039 . S
O380 C370 1.265 . S
C381 O377 1.253 . S
C381 O382 1.227 . S
O382 C381 1.227 . S
N383 Co369 2.140 . S
N383 C386 1.346 . S
N383 C387 1.345 . S
C384 C385 1.387 . S
C384 C388 1.391 . S
C385 C384 1.387 . S
C385 C386 1.369 . S
C385 H394 0.929 . S
C386 N383 1.346 . S
C386 C385 1.369 . S
C386 H389 0.928 . S
C387 N383 1.345 . S
C387 C388 1.371 . S
C387 H390 0.931 . S
C388 C384 1.391 . S
C388 C387 1.371 . S
C388 H395 0.930 . S
H389 C386 0.928 . S
H390 C387 0.931 . S
H391 C367 0.930 . S
H392 C364 0.930 . S
H393 C373 0.930 . S
H394 C385 0.929 . S
H395 C388 0.930 . S
C396 C397 1.351 . S
C396 N399 1.368 . S
C396 H401 0.931 . S
C397 C396 1.351 . S
C397 N398 1.373 . S
C397 H425 0.930 . S
N398 C397 1.373 . S
N398 C400 1.340 . S
N399 C396 1.368 . S
N399 C400 1.321 . S
N399 Co402 2.135 . S
C400 N398 1.340 . S
C400 N399 1.321 . S
C400 H424 0.930 . S
H401 C396 0.931 . S
Co402 N399 2.135 . S
Co402 N405 2.121 . S
Co402 O410 2.055 . S
Co402 O413 2.039 . S
Co402 N416 2.140 . S
C403 O404 1.227 . S
C403 O413 1.265 . S
O404 C403 1.227 . S
N405 Co402 2.121 . S
N405 C407 1.375 . S
N405 C408 1.313 . S
C406 C407 1.338 . S
C406 N409 1.377 . S
C406 H426 0.930 . S
C407 N405 1.375 . S
C407 C406 1.338 . S
C407 H411 0.931 . S
C408 N405 1.313 . S
C408 N409 1.344 . S
C408 H412 0.930 . S
N409 C406 1.377 . S
N409 C408 1.344 . S
O410 Co402 2.055 . S
O410 C414 1.253 . S
H411 C407 0.931 . S
H412 C408 0.930 . S
O413 Co402 2.039 . S
O413 C403 1.265 . S
C414 O410 1.253 . S
C414 O415 1.227 . S
O415 C414 1.227 . S
N416 Co402 2.140 . S
N416 C419 1.346 . S
N416 C420 1.345 . S
C417 C418 1.387 . S
C417 C421 1.391 . S
C418 C417 1.387 . S
C418 C419 1.369 . S
C418 H427 0.929 . S
C419 N416 1.346 . S
C419 C418 1.369 . S
C419 H422 0.928 . S
C420 N416 1.345 . S
C420 C421 1.371 . S
C420 H423 0.931 . S
C421 C417 1.391 . S
C421 C420 1.371 . S
C421 H428 0.930 . S
H422 C419 0.928 . S
H423 C420 0.931 . S
H424 C400 0.930 . S
H425 C397 0.930 . S
H426 C406 0.930 . S
H427 C418 0.929 . S
H428 C421 0.930 . S
C429 C430 1.351 . S
C429 N432 1.368 . S
C429 H434 0.931 . S
C430 C429 1.351 . S
C430 N431 1.373 . S
C430 H458 0.930 . S
N431 C430 1.373 . S
N431 C433 1.340 . S
N432 C429 1.368 . S
N432 C433 1.321 . S
N432 Co435 2.135 . S
C433 N431 1.340 . S
C433 N432 1.321 . S
C433 H457 0.930 . S
H434 C429 0.931 . S
Co435 N432 2.135 . S
Co435 N438 2.121 . S
Co435 O443 2.055 . S
Co435 O446 2.039 . S
Co435 N449 2.140 . S
C436 O437 1.227 . S
C436 O446 1.265 . S
O437 C436 1.227 . S
N438 Co435 2.121 . S
N438 C440 1.375 . S
N438 C441 1.313 . S
C439 C440 1.338 . S
C439 N442 1.377 . S
C439 H459 0.930 . S
C440 N438 1.375 . S
C440 C439 1.338 . S
C440 H444 0.931 . S
C441 N438 1.313 . S
C441 N442 1.344 . S
C441 H445 0.930 . S
N442 C439 1.377 . S
N442 C441 1.344 . S
O443 Co435 2.055 . S
O443 C447 1.253 . S
H444 C440 0.931 . S
H445 C441 0.930 . S
O446 Co435 2.039 . S
O446 C436 1.265 . S
C447 O443 1.253 . S
C447 O448 1.227 . S
O448 C447 1.227 . S
N449 Co435 2.140 . S
N449 C452 1.346 . S
N449 C453 1.345 . S
C450 C451 1.387 . S
C450 C454 1.391 . S
C451 C450 1.387 . S
C451 C452 1.369 . S
C451 H460 0.929 . S
C452 N449 1.346 . S
C452 C451 1.369 . S
C452 H455 0.928 . S
C453 N449 1.345 . S
C453 C454 1.371 . S
C453 H456 0.931 . S
C454 C450 1.391 . S
C454 C453 1.371 . S
C454 H461 0.930 . S
H455 C452 0.928 . S
H456 C453 0.931 . S
H457 C433 0.930 . S
H458 C430 0.930 . S
H459 C439 0.930 . S
H460 C451 0.929 . S
H461 C454 0.930 . S
C462 C463 1.351 . S
C462 N465 1.368 . S
C462 H467 0.931 . S
C463 C462 1.351 . S
C463 N464 1.373 . S
C463 H491 0.930 . S
N464 C463 1.373 . S
N464 C466 1.340 . S
N465 C462 1.368 . S
N465 C466 1.321 . S
N465 Co468 2.135 . S
C466 N464 1.340 . S
C466 N465 1.321 . S
C466 H490 0.930 . S
H467 C462 0.931 . S
Co468 N465 2.135 . S
Co468 N471 2.121 . S
Co468 O476 2.055 . S
Co468 O479 2.039 . S
Co468 N482 2.140 . S
C469 O470 1.227 . S
C469 O479 1.265 . S
O470 C469 1.227 . S
N471 Co468 2.121 . S
N471 C473 1.375 . S
N471 C474 1.313 . S
C472 C473 1.338 . S
C472 N475 1.377 . S
C472 H492 0.930 . S
C473 N471 1.375 . S
C473 C472 1.338 . S
C473 H477 0.931 . S
C474 N471 1.313 . S
C474 N475 1.344 . S
C474 H478 0.930 . S
N475 C472 1.377 . S
N475 C474 1.344 . S
O476 Co468 2.055 . S
O476 C480 1.253 . S
H477 C473 0.931 . S
H478 C474 0.930 . S
O479 Co468 2.039 . S
O479 C469 1.265 . S
C480 O476 1.253 . S
C480 O481 1.227 . S
O481 C480 1.227 . S
N482 Co468 2.140 . S
N482 C485 1.346 . S
N482 C486 1.345 . S
C483 C484 1.387 . S
C483 C487 1.391 . S
C484 C483 1.387 . S
C484 C485 1.369 . S
C484 H493 0.929 . S
C485 N482 1.346 . S
C485 C484 1.369 . S
C485 H488 0.928 . S
C486 N482 1.345 . S
C486 C487 1.371 . S
C486 H489 0.931 . S
C487 C483 1.391 . S
C487 C486 1.371 . S
C487 H494 0.930 . S
H488 C485 0.928 . S
H489 C486 0.931 . S
H490 C466 0.930 . S
H491 C463 0.930 . S
H492 C472 0.930 . S
H493 C484 0.929 . S
H494 C487 0.930 . S
C495 C496 1.351 . S
C495 N498 1.368 . S
C495 H500 0.931 . S
C496 C495 1.351 . S
C496 N497 1.373 . S
C496 H524 0.930 . S
N497 C496 1.373 . S
N497 C499 1.340 . S
N498 C495 1.368 . S
N498 C499 1.321 . S
N498 Co501 2.135 . S
C499 N497 1.340 . S
C499 N498 1.321 . S
C499 H523 0.930 . S
H500 C495 0.931 . S
Co501 N498 2.135 . S
Co501 N504 2.121 1_554 S
Co501 O509 2.055 . S
Co501 O512 2.039 . S
Co501 N515 2.140 . S
C502 O503 1.227 . S
C502 O512 1.265 . S
O503 C502 1.227 . S
N504 Co501 2.121 1_556 S
N504 C506 1.375 . S
N504 C507 1.313 . S
C505 C506 1.338 . S
C505 N508 1.377 . S
C505 H525 0.930 . S
C506 N504 1.375 . S
C506 C505 1.338 . S
C506 H510 0.931 . S
C507 N504 1.313 . S
C507 N508 1.344 . S
C507 H511 0.930 . S
N508 C505 1.377 . S
N508 C507 1.344 . S
O509 Co501 2.055 . S
O509 C513 1.253 . S
H510 C506 0.931 . S
H511 C507 0.930 . S
O512 Co501 2.039 . S
O512 C502 1.265 . S
C513 O509 1.253 . S
C513 O514 1.227 . S
O514 C513 1.227 . S
N515 Co501 2.140 . S
N515 C518 1.346 . S
N515 C519 1.345 . S
C516 C517 1.387 . S
C516 C520 1.391 . S
C517 C516 1.387 . S
C517 C518 1.369 . S
C517 H526 0.929 . S
C518 N515 1.346 . S
C518 C517 1.369 . S
C518 H521 0.928 . S
C519 N515 1.345 . S
C519 C520 1.371 . S
C519 H522 0.931 . S
C520 C516 1.391 . S
C520 C519 1.371 . S
C520 H527 0.930 . S
H521 C518 0.928 . S
H522 C519 0.931 . S
H523 C499 0.930 . S
H524 C496 0.930 . S
H525 C505 0.930 . S
H526 C517 0.929 . S
H527 C520 0.930 . S
C528 C529 1.351 . S
C528 N531 1.368 . S
C528 H533 0.931 . S
C529 C528 1.351 . S
C529 N530 1.373 . S
C529 H557 0.930 . S
N530 C529 1.373 . S
N530 C532 1.340 . S
N531 C528 1.368 . S
N531 C532 1.321 . S
N531 Co534 2.135 . S
C532 N530 1.340 . S
C532 N531 1.321 . S
C532 H556 0.930 . S
H533 C528 0.931 . S
Co534 N531 2.135 . S
Co534 N537 2.121 . S
Co534 O542 2.055 . S
Co534 O545 2.039 . S
Co534 N548 2.140 . S
C535 O536 1.227 . S
C535 O545 1.265 . S
O536 C535 1.227 . S
N537 Co534 2.121 . S
N537 C539 1.375 . S
N537 C540 1.313 . S
C538 C539 1.338 . S
C538 N541 1.377 . S
C538 H558 0.930 . S
C539 N537 1.375 . S
C539 C538 1.338 . S
C539 H543 0.931 . S
C540 N537 1.313 . S
C540 N541 1.344 . S
C540 H544 0.930 . S
N541 C538 1.377 . S
N541 C540 1.344 . S
O542 Co534 2.055 . S
O542 C546 1.253 . S
H543 C539 0.931 . S
H544 C540 0.930 . S
O545 Co534 2.039 . S
O545 C535 1.265 . S
C546 O542 1.253 . S
C546 O547 1.227 . S
O547 C546 1.227 . S
N548 Co534 2.140 . S
N548 C551 1.346 . S
N548 C552 1.345 . S
C549 C550 1.387 . S
C549 C553 1.391 . S
C550 C549 1.387 . S
C550 C551 1.369 . S
C550 H559 0.929 . S
C551 N548 1.346 . S
C551 C550 1.369 . S
C551 H554 0.928 . S
C552 N548 1.345 . S
C552 C553 1.371 . S
C552 H555 0.931 . S
C553 C549 1.391 . S
C553 C552 1.371 . S
C553 H560 0.930 . S
H554 C551 0.928 . S
H555 C552 0.931 . S
H556 C532 0.930 . S
H557 C529 0.930 . S
H558 C538 0.930 . S
H559 C550 0.929 . S
H560 C553 0.930 . S
C561 C562 1.351 . S
C561 N564 1.368 . S
C561 H566 0.931 . S
C562 C561 1.351 . S
C562 N563 1.373 . S
C562 H590 0.930 . S
N563 C562 1.373 . S
N563 C565 1.340 . S
N564 C561 1.368 . S
N564 C565 1.321 . S
N564 Co567 2.135 . S
C565 N563 1.340 . S
C565 N564 1.321 . S
C565 H589 0.930 . S
H566 C561 0.931 . S
Co567 N564 2.135 . S
Co567 N570 2.121 1_554 S
Co567 O575 2.055 . S
Co567 O578 2.039 . S
Co567 N581 2.140 . S
C568 O569 1.227 . S
C568 O578 1.265 . S
O569 C568 1.227 . S
N570 Co567 2.121 1_556 S
N570 C572 1.375 . S
N570 C573 1.313 . S
C571 C572 1.338 . S
C571 N574 1.377 . S
C571 H591 0.930 . S
C572 N570 1.375 . S
C572 C571 1.338 . S
C572 H576 0.931 . S
C573 N570 1.313 . S
C573 N574 1.344 . S
C573 H577 0.930 . S
N574 C571 1.377 . S
N574 C573 1.344 . S
O575 Co567 2.055 . S
O575 C579 1.253 . S
H576 C572 0.931 . S
H577 C573 0.930 . S
O578 Co567 2.039 . S
O578 C568 1.265 . S
C579 O575 1.253 . S
C579 O580 1.227 . S
O580 C579 1.227 . S
N581 Co567 2.140 . S
N581 C584 1.346 . S
N581 C585 1.345 . S
C582 C583 1.387 . S
C582 C586 1.391 . S
C583 C582 1.387 . S
C583 C584 1.369 . S
C583 H592 0.929 . S
C584 N581 1.346 . S
C584 C583 1.369 . S
C584 H587 0.928 . S
C585 N581 1.345 . S
C585 C586 1.371 . S
C585 H588 0.931 . S
C586 C582 1.391 . S
C586 C585 1.371 . S
C586 H593 0.930 . S
H587 C584 0.928 . S
H588 C585 0.931 . S
H589 C565 0.930 . S
H590 C562 0.930 . S
H591 C571 0.930 . S
H592 C583 0.929 . S
H593 C586 0.930 . S
C594 C595 1.351 . S
C594 N597 1.368 . S
C594 H599 0.931 . S
C595 C594 1.351 . S
C595 N596 1.373 . S
C595 H623 0.930 . S
N596 C595 1.373 . S
N596 C598 1.340 . S
N597 C594 1.368 . S
N597 C598 1.321 . S
N597 Co600 2.135 . S
C598 N596 1.340 . S
C598 N597 1.321 . S
C598 H622 0.930 . S
H599 C594 0.931 . S
Co600 N597 2.135 . S
Co600 N603 2.121 . S
Co600 O608 2.055 . S
Co600 O611 2.039 . S
Co600 N614 2.140 . S
C601 O602 1.227 . S
C601 O611 1.265 . S
O602 C601 1.227 . S
N603 Co600 2.121 . S
N603 C605 1.375 . S
N603 C606 1.313 . S
C604 C605 1.338 . S
C604 N607 1.377 . S
C604 H624 0.930 . S
C605 N603 1.375 . S
C605 C604 1.338 . S
C605 H609 0.931 . S
C606 N603 1.313 . S
C606 N607 1.344 . S
C606 H610 0.930 . S
N607 C604 1.377 . S
N607 C606 1.344 . S
O608 Co600 2.055 . S
O608 C612 1.253 . S
H609 C605 0.931 . S
H610 C606 0.930 . S
O611 Co600 2.039 . S
O611 C601 1.265 . S
C612 O608 1.253 . S
C612 O613 1.227 . S
O613 C612 1.227 . S
N614 Co600 2.140 . S
N614 C617 1.346 . S
N614 C618 1.345 . S
C615 C616 1.387 . S
C615 C619 1.391 . S
C616 C615 1.387 . S
C616 C617 1.369 . S
C616 H625 0.929 . S
C617 N614 1.346 . S
C617 C616 1.369 . S
C617 H620 0.928 . S
C618 N614 1.345 . S
C618 C619 1.371 . S
C618 H621 0.931 . S
C619 C615 1.391 . S
C619 C618 1.371 . S
C619 H626 0.930 . S
H620 C617 0.928 . S
H621 C618 0.931 . S
H622 C598 0.930 . S
H623 C595 0.930 . S
H624 C604 0.930 . S
H625 C616 0.929 . S
H626 C619 0.930 . S
C627 C628 1.351 . S
C627 N630 1.368 . S
C627 H632 0.931 . S
C628 C627 1.351 . S
C628 N629 1.373 . S
C628 H656 0.930 . S
N629 C628 1.373 . S
N629 C631 1.340 . S
N630 C627 1.368 . S
N630 C631 1.321 . S
N630 Co633 2.135 . S
C631 N629 1.340 . S
C631 N630 1.321 . S
C631 H655 0.930 . S
H632 C627 0.931 . S
Co633 N630 2.135 . S
Co633 N636 2.121 . S
Co633 O641 2.055 . S
Co633 O644 2.039 . S
Co633 N647 2.140 . S
C634 O635 1.227 . S
C634 O644 1.265 . S
O635 C634 1.227 . S
N636 Co633 2.121 . S
N636 C638 1.375 . S
N636 C639 1.313 . S
C637 C638 1.338 . S
C637 N640 1.377 . S
C637 H657 0.930 . S
C638 N636 1.375 . S
C638 C637 1.338 . S
C638 H642 0.931 . S
C639 N636 1.313 . S
C639 N640 1.344 . S
C639 H643 0.930 . S
N640 C637 1.377 . S
N640 C639 1.344 . S
O641 Co633 2.055 . S
O641 C645 1.253 . S
H642 C638 0.931 . S
H643 C639 0.930 . S
O644 Co633 2.039 . S
O644 C634 1.265 . S
C645 O641 1.253 . S
C645 O646 1.227 . S
O646 C645 1.227 . S
N647 Co633 2.140 . S
N647 C650 1.346 . S
N647 C651 1.345 . S
C648 C649 1.387 . S
C648 C652 1.391 . S
C649 C648 1.387 . S
C649 C650 1.369 . S
C649 H658 0.929 . S
C650 N647 1.346 . S
C650 C649 1.369 . S
C650 H653 0.928 . S
C651 N647 1.345 . S
C651 C652 1.371 . S
C651 H654 0.931 . S
C652 C648 1.391 . S
C652 C651 1.371 . S
C652 H659 0.930 . S
H653 C650 0.928 . S
H654 C651 0.931 . S
H655 C631 0.930 . S
H656 C628 0.930 . S
H657 C637 0.930 . S
H658 C649 0.929 . S
H659 C652 0.930 . S
C660 C661 1.351 . S
C660 N663 1.368 . S
C660 H665 0.931 . S
C661 C660 1.351 . S
C661 N662 1.373 . S
C661 H689 0.930 . S
N662 C661 1.373 . S
N662 C664 1.340 . S
N663 C660 1.368 . S
N663 C664 1.321 . S
N663 Co666 2.135 . S
C664 N662 1.340 . S
C664 N663 1.321 . S
C664 H688 0.930 . S
H665 C660 0.931 . S
Co666 N663 2.135 . S
Co666 N669 2.121 . S
Co666 O674 2.055 . S
Co666 O677 2.039 . S
Co666 N680 2.140 . S
C667 O668 1.227 . S
C667 O677 1.265 . S
O668 C667 1.227 . S
N669 Co666 2.121 . S
N669 C671 1.375 . S
N669 C672 1.313 . S
C670 C671 1.338 . S
C670 N673 1.377 . S
C670 H690 0.930 . S
C671 N669 1.375 . S
C671 C670 1.338 . S
C671 H675 0.931 . S
C672 N669 1.313 . S
C672 N673 1.344 . S
C672 H676 0.930 . S
N673 C670 1.377 . S
N673 C672 1.344 . S
O674 Co666 2.055 . S
O674 C678 1.253 . S
H675 C671 0.931 . S
H676 C672 0.930 . S
O677 Co666 2.039 . S
O677 C667 1.265 . S
C678 O674 1.253 . S
C678 O679 1.227 . S
O679 C678 1.227 . S
N680 Co666 2.140 . S
N680 C683 1.346 . S
N680 C684 1.345 . S
C681 C682 1.387 . S
C681 C685 1.391 . S
C682 C681 1.387 . S
C682 C683 1.369 . S
C682 H691 0.929 . S
C683 N680 1.346 . S
C683 C682 1.369 . S
C683 H686 0.928 . S
C684 N680 1.345 . S
C684 C685 1.371 . S
C684 H687 0.931 . S
C685 C681 1.391 . S
C685 C684 1.371 . S
C685 H692 0.930 . S
H686 C683 0.928 . S
H687 C684 0.931 . S
H688 C664 0.930 . S
H689 C661 0.930 . S
H690 C670 0.930 . S
H691 C682 0.929 . S
H692 C685 0.930 . S
C693 C694 1.351 . S
C693 N696 1.368 . S
C693 H698 0.931 . S
C694 C693 1.351 . S
C694 N695 1.373 . S
C694 H722 0.930 . S
N695 C694 1.373 . S
N695 C697 1.340 . S
N696 C693 1.368 . S
N696 C697 1.321 . S
N696 Co699 2.135 . S
C697 N695 1.340 . S
C697 N696 1.321 . S
C697 H721 0.930 . S
H698 C693 0.931 . S
Co699 N696 2.135 . S
Co699 N702 2.121 1_556 S
Co699 O707 2.055 . S
Co699 O710 2.039 . S
Co699 N713 2.140 . S
C700 O701 1.227 . S
C700 O710 1.265 . S
O701 C700 1.227 . S
N702 Co699 2.121 1_554 S
N702 C704 1.375 . S
N702 C705 1.313 . S
C703 C704 1.338 . S
C703 N706 1.377 . S
C703 H723 0.930 . S
C704 N702 1.375 . S
C704 C703 1.338 . S
C704 H708 0.931 . S
C705 N702 1.313 . S
C705 N706 1.344 . S
C705 H709 0.930 . S
N706 C703 1.377 . S
N706 C705 1.344 . S
O707 Co699 2.055 . S
O707 C711 1.253 . S
H708 C704 0.931 . S
H709 C705 0.930 . S
O710 Co699 2.039 . S
O710 C700 1.265 . S
C711 O707 1.253 . S
C711 O712 1.227 . S
O712 C711 1.227 . S
N713 Co699 2.140 . S
N713 C716 1.346 . S
N713 C717 1.345 . S
C714 C715 1.387 . S
C714 C718 1.391 . S
C715 C714 1.387 . S
C715 C716 1.369 . S
C715 H724 0.929 . S
C716 N713 1.346 . S
C716 C715 1.369 . S
C716 H719 0.928 . S
C717 N713 1.345 . S
C717 C718 1.371 . S
C717 H720 0.931 . S
C718 C714 1.391 . S
C718 C717 1.371 . S
C718 H725 0.930 . S
H719 C716 0.928 . S
H720 C717 0.931 . S
H721 C697 0.930 . S
H722 C694 0.930 . S
H723 C703 0.930 . S
H724 C715 0.929 . S
H725 C718 0.930 . S
C726 C727 1.351 . S
C726 N729 1.368 . S
C726 H731 0.931 . S
C727 C726 1.351 . S
C727 N728 1.373 . S
C727 H755 0.930 . S
N728 C727 1.373 . S
N728 C730 1.340 . S
N729 C726 1.368 . S
N729 C730 1.321 . S
N729 Co732 2.135 . S
C730 N728 1.340 . S
C730 N729 1.321 . S
C730 H754 0.930 . S
H731 C726 0.931 . S
Co732 N729 2.135 . S
Co732 N735 2.121 . S
Co732 O740 2.055 . S
Co732 O743 2.039 . S
Co732 N746 2.140 . S
C733 O734 1.227 . S
C733 O743 1.265 . S
O734 C733 1.227 . S
N735 Co732 2.121 . S
N735 C737 1.375 . S
N735 C738 1.313 . S
C736 C737 1.338 . S
C736 N739 1.377 . S
C736 H756 0.930 . S
C737 N735 1.375 . S
C737 C736 1.338 . S
C737 H741 0.931 . S
C738 N735 1.313 . S
C738 N739 1.344 . S
C738 H742 0.930 . S
N739 C736 1.377 . S
N739 C738 1.344 . S
O740 Co732 2.055 . S
O740 C744 1.253 . S
H741 C737 0.931 . S
H742 C738 0.930 . S
O743 Co732 2.039 . S
O743 C733 1.265 . S
C744 O740 1.253 . S
C744 O745 1.227 . S
O745 C744 1.227 . S
N746 Co732 2.140 . S
N746 C749 1.346 . S
N746 C750 1.345 . S
C747 C748 1.387 . S
C747 C751 1.391 . S
C748 C747 1.387 . S
C748 C749 1.369 . S
C748 H757 0.929 . S
C749 N746 1.346 . S
C749 C748 1.369 . S
C749 H752 0.928 . S
C750 N746 1.345 . S
C750 C751 1.371 . S
C750 H753 0.931 . S
C751 C747 1.391 . S
C751 C750 1.371 . S
C751 H758 0.930 . S
H752 C749 0.928 . S
H753 C750 0.931 . S
H754 C730 0.930 . S
H755 C727 0.930 . S
H756 C736 0.930 . S
H757 C748 0.929 . S
H758 C751 0.930 . S
C759 C760 1.351 . S
C759 N762 1.368 . S
C759 H764 0.931 . S
C760 C759 1.351 . S
C760 N761 1.373 . S
C760 H788 0.930 . S
N761 C760 1.373 . S
N761 C763 1.340 . S
N762 C759 1.368 . S
N762 C763 1.321 . S
N762 Co765 2.135 . S
C763 N761 1.340 . S
C763 N762 1.321 . S
C763 H787 0.930 . S
H764 C759 0.931 . S
Co765 N762 2.135 . S
Co765 N768 2.121 . S
Co765 O773 2.055 . S
Co765 O776 2.039 . S
Co765 N779 2.140 . S
C766 O767 1.227 . S
C766 O776 1.265 . S
O767 C766 1.227 . S
N768 Co765 2.121 . S
N768 C770 1.375 . S
N768 C771 1.313 . S
C769 C770 1.338 . S
C769 N772 1.377 . S
C769 H789 0.930 . S
C770 N768 1.375 . S
C770 C769 1.338 . S
C770 H774 0.931 . S
C771 N768 1.313 . S
C771 N772 1.344 . S
C771 H775 0.930 . S
N772 C769 1.377 . S
N772 C771 1.344 . S
O773 Co765 2.055 . S
O773 C777 1.253 . S
H774 C770 0.931 . S
H775 C771 0.930 . S
O776 Co765 2.039 . S
O776 C766 1.265 . S
C777 O773 1.253 . S
C777 O778 1.227 . S
O778 C777 1.227 . S
N779 Co765 2.140 . S
N779 C782 1.346 . S
N779 C783 1.345 . S
C780 C781 1.387 . S
C780 C784 1.391 . S
C781 C780 1.387 . S
C781 C782 1.369 . S
C781 H790 0.929 . S
C782 N779 1.346 . S
C782 C781 1.369 . S
C782 H785 0.928 . S
C783 N779 1.345 . S
C783 C784 1.371 . S
C783 H786 0.931 . S
C784 C780 1.391 . S
C784 C783 1.371 . S
C784 H791 0.930 . S
H785 C782 0.928 . S
H786 C783 0.931 . S
H787 C763 0.930 . S
H788 C760 0.930 . S
H789 C769 0.930 . S
H790 C781 0.929 . S
H791 C784 0.930 . S
C792 C793 1.351 . S
C792 N795 1.368 . S
C792 H797 0.931 . S
C793 C792 1.351 . S
C793 N794 1.373 . S
C793 H821 0.930 . S
N794 C793 1.373 . S
N794 C796 1.340 . S
N795 C792 1.368 . S
N795 C796 1.321 . S
N795 Co798 2.135 . S
C796 N794 1.340 . S
C796 N795 1.321 . S
C796 H820 0.930 . S
H797 C792 0.931 . S
Co798 N795 2.135 . S
Co798 N801 2.121 . S
Co798 O806 2.055 . S
Co798 O809 2.039 . S
Co798 N812 2.140 . S
C799 O800 1.227 . S
C799 O809 1.265 . S
O800 C799 1.227 . S
N801 Co798 2.121 . S
N801 C803 1.375 . S
N801 C804 1.313 . S
C802 C803 1.338 . S
C802 N805 1.377 . S
C802 H822 0.930 . S
C803 N801 1.375 . S
C803 C802 1.338 . S
C803 H807 0.931 . S
C804 N801 1.313 . S
C804 N805 1.344 . S
C804 H808 0.930 . S
N805 C802 1.377 . S
N805 C804 1.344 . S
O806 Co798 2.055 . S
O806 C810 1.253 . S
H807 C803 0.931 . S
H808 C804 0.930 . S
O809 Co798 2.039 . S
O809 C799 1.265 . S
C810 O806 1.253 . S
C810 O811 1.227 . S
O811 C810 1.227 . S
N812 Co798 2.140 . S
N812 C815 1.346 . S
N812 C816 1.345 . S
C813 C814 1.387 . S
C813 C817 1.391 . S
C814 C813 1.387 . S
C814 C815 1.369 . S
C814 H823 0.929 . S
C815 N812 1.346 . S
C815 C814 1.369 . S
C815 H818 0.928 . S
C816 N812 1.345 . S
C816 C817 1.371 . S
C816 H819 0.931 . S
C817 C813 1.391 . S
C817 C816 1.371 . S
C817 H824 0.930 . S
H818 C815 0.928 . S
H819 C816 0.931 . S
H820 C796 0.930 . S
H821 C793 0.930 . S
H822 C802 0.930 . S
H823 C814 0.929 . S
H824 C817 0.930 . S
C825 C826 1.351 . S
C825 N828 1.368 . S
C825 H830 0.931 . S
C826 C825 1.351 . S
C826 N827 1.373 . S
C826 H854 0.930 . S
N827 C826 1.373 . S
N827 C829 1.340 . S
N828 C825 1.368 . S
N828 C829 1.321 . S
N828 Co831 2.135 . S
C829 N827 1.340 . S
C829 N828 1.321 . S
C829 H853 0.930 . S
H830 C825 0.931 . S
Co831 N828 2.135 . S
Co831 N834 2.121 1_556 S
Co831 O839 2.055 . S
Co831 O842 2.039 . S
Co831 N845 2.140 . S
C832 O833 1.227 . S
C832 O842 1.265 . S
O833 C832 1.227 . S
N834 Co831 2.121 1_554 S
N834 C836 1.375 . S
N834 C837 1.313 . S
C835 C836 1.338 . S
C835 N838 1.377 . S
C835 H855 0.930 . S
C836 N834 1.375 . S
C836 C835 1.338 . S
C836 H840 0.931 . S
C837 N834 1.313 . S
C837 N838 1.344 . S
C837 H841 0.930 . S
N838 C835 1.377 . S
N838 C837 1.344 . S
O839 Co831 2.055 . S
O839 C843 1.253 . S
H840 C836 0.931 . S
H841 C837 0.930 . S
O842 Co831 2.039 . S
O842 C832 1.265 . S
C843 O839 1.253 . S
C843 O844 1.227 . S
O844 C843 1.227 . S
N845 Co831 2.140 . S
N845 C848 1.346 . S
N845 C849 1.345 . S
C846 C847 1.387 . S
C846 C850 1.391 . S
C847 C846 1.387 . S
C847 C848 1.369 . S
C847 H856 0.929 . S
C848 N845 1.346 . S
C848 C847 1.369 . S
C848 H851 0.928 . S
C849 N845 1.345 . S
C849 C850 1.371 . S
C849 H852 0.931 . S
C850 C846 1.391 . S
C850 C849 1.371 . S
C850 H857 0.930 . S
H851 C848 0.928 . S
H852 C849 0.931 . S
H853 C829 0.930 . S
H854 C826 0.930 . S
H855 C835 0.930 . S
H856 C847 0.929 . S
H857 C850 0.930 . S
C858 C859 1.351 . S
C858 N861 1.368 . S
C858 H863 0.931 . S
C859 C858 1.351 . S
C859 N860 1.373 . S
C859 H887 0.930 . S
N860 C859 1.373 . S
N860 C862 1.340 . S
N861 C858 1.368 . S
N861 C862 1.321 . S
N861 Co864 2.135 . S
C862 N860 1.340 . S
C862 N861 1.321 . S
C862 H886 0.930 . S
H863 C858 0.931 . S
Co864 N861 2.135 . S
Co864 N867 2.121 . S
Co864 O872 2.055 . S
Co864 O875 2.039 . S
Co864 N878 2.140 . S
C865 O866 1.227 . S
C865 O875 1.265 . S
O866 C865 1.227 . S
N867 Co864 2.121 . S
N867 C869 1.375 . S
N867 C870 1.313 . S
C868 C869 1.338 . S
C868 N871 1.377 . S
C868 H888 0.930 . S
C869 N867 1.375 . S
C869 C868 1.338 . S
C869 H873 0.931 . S
C870 N867 1.313 . S
C870 N871 1.344 . S
C870 H874 0.930 . S
N871 C868 1.377 . S
N871 C870 1.344 . S
O872 Co864 2.055 . S
O872 C876 1.253 . S
H873 C869 0.931 . S
H874 C870 0.930 . S
O875 Co864 2.039 . S
O875 C865 1.265 . S
C876 O872 1.253 . S
C876 O877 1.227 . S
O877 C876 1.227 . S
N878 Co864 2.140 . S
N878 C881 1.346 . S
N878 C882 1.345 . S
C879 C880 1.387 . S
C879 C883 1.391 . S
C880 C879 1.387 . S
C880 C881 1.369 . S
C880 H889 0.929 . S
C881 N878 1.346 . S
C881 C880 1.369 . S
C881 H884 0.928 . S
C882 N878 1.345 . S
C882 C883 1.371 . S
C882 H885 0.931 . S
C883 C879 1.391 . S
C883 C882 1.371 . S
C883 H890 0.930 . S
H884 C881 0.928 . S
H885 C882 0.931 . S
H886 C862 0.930 . S
H887 C859 0.930 . S
H888 C868 0.930 . S
H889 C880 0.929 . S
H890 C883 0.930 . S
C891 C892 1.351 . S
C891 N894 1.368 . S
C891 H896 0.931 . S
C892 C891 1.351 . S
C892 N893 1.373 . S
C892 H920 0.930 . S
N893 C892 1.373 . S
N893 C895 1.340 . S
N894 C891 1.368 . S
N894 C895 1.321 . S
N894 Co897 2.135 . S
C895 N893 1.340 . S
C895 N894 1.321 . S
C895 H919 0.930 . S
H896 C891 0.931 . S
Co897 N894 2.135 . S
Co897 N900 2.121 . S
Co897 O905 2.055 . S
Co897 O908 2.039 . S
Co897 N911 2.140 . S
C898 O899 1.227 . S
C898 O908 1.265 . S
O899 C898 1.227 . S
N900 Co897 2.121 . S
N900 C902 1.375 . S
N900 C903 1.313 . S
C901 C902 1.338 . S
C901 N904 1.377 . S
C901 H921 0.930 . S
C902 N900 1.375 . S
C902 C901 1.338 . S
C902 H906 0.931 . S
C903 N900 1.313 . S
C903 N904 1.344 . S
C903 H907 0.930 . S
N904 C901 1.377 . S
N904 C903 1.344 . S
O905 Co897 2.055 . S
O905 C909 1.253 . S
H906 C902 0.931 . S
H907 C903 0.930 . S
O908 Co897 2.039 . S
O908 C898 1.265 . S
C909 O905 1.253 . S
C909 O910 1.227 . S
O910 C909 1.227 . S
N911 Co897 2.140 . S
N911 C914 1.346 . S
N911 C915 1.345 . S
C912 C913 1.387 . S
C912 C916 1.391 . S
C913 C912 1.387 . S
C913 C914 1.369 . S
C913 H922 0.929 . S
C914 N911 1.346 . S
C914 C913 1.369 . S
C914 H917 0.928 . S
C915 N911 1.345 . S
C915 C916 1.371 . S
C915 H918 0.931 . S
C916 C912 1.391 . S
C916 C915 1.371 . S
C916 H923 0.930 . S
H917 C914 0.928 . S
H918 C915 0.931 . S
H919 C895 0.930 . S
H920 C892 0.930 . S
H921 C901 0.930 . S
H922 C913 0.929 . S
H923 C916 0.930 . S
C924 C925 1.351 . S
C924 N927 1.368 . S
C924 H929 0.931 . S
C925 C924 1.351 . S
C925 N926 1.373 . S
C925 H953 0.930 . S
N926 C925 1.373 . S
N926 C928 1.340 . S
N927 C924 1.368 . S
N927 C928 1.321 . S
N927 Co930 2.135 . S
C928 N926 1.340 . S
C928 N927 1.321 . S
C928 H952 0.930 . S
H929 C924 0.931 . S
Co930 N927 2.135 . S
Co930 N933 2.121 . S
Co930 O938 2.055 . S
Co930 O941 2.039 . S
Co930 N944 2.140 . S
C931 O932 1.227 . S
C931 O941 1.265 . S
O932 C931 1.227 . S
N933 Co930 2.121 . S
N933 C935 1.375 . S
N933 C936 1.313 . S
C934 C935 1.338 . S
C934 N937 1.377 . S
C934 H954 0.930 . S
C935 N933 1.375 . S
C935 C934 1.338 . S
C935 H939 0.931 . S
C936 N933 1.313 . S
C936 N937 1.344 . S
C936 H940 0.930 . S
N937 C934 1.377 . S
N937 C936 1.344 . S
O938 Co930 2.055 . S
O938 C942 1.253 . S
H939 C935 0.931 . S
H940 C936 0.930 . S
O941 Co930 2.039 . S
O941 C931 1.265 . S
C942 O938 1.253 . S
C942 O943 1.227 . S
O943 C942 1.227 . S
N944 Co930 2.140 . S
N944 C947 1.346 . S
N944 C948 1.345 . S
C945 C946 1.387 . S
C945 C949 1.391 . S
C946 C945 1.387 . S
C946 C947 1.369 . S
C946 H955 0.929 . S
C947 N944 1.346 . S
C947 C946 1.369 . S
C947 H950 0.928 . S
C948 N944 1.345 . S
C948 C949 1.371 . S
C948 H951 0.931 . S
C949 C945 1.391 . S
C949 C948 1.371 . S
C949 H956 0.930 . S
H950 C947 0.928 . S
H951 C948 0.931 . S
H952 C928 0.930 . S
H953 C925 0.930 . S
H954 C934 0.930 . S
H955 C946 0.929 . S
H956 C949 0.930 . S
C957 C958 1.351 . S
C957 N960 1.368 . S
C957 H962 0.931 . S
C958 C957 1.351 . S
C958 N959 1.373 . S
C958 H986 0.930 . S
N959 C958 1.373 . S
N959 C961 1.340 . S
N960 C957 1.368 . S
N960 C961 1.321 . S
N960 Co963 2.135 . S
C961 N959 1.340 . S
C961 N960 1.321 . S
C961 H985 0.930 . S
H962 C957 0.931 . S
Co963 N960 2.135 . S
Co963 N966 2.121 1_554 S
Co963 O971 2.055 . S
Co963 O974 2.039 . S
Co963 N977 2.140 . S
C964 O965 1.227 . S
C964 O974 1.265 . S
O965 C964 1.227 . S
N966 Co963 2.121 1_556 S
N966 C968 1.375 . S
N966 C969 1.313 . S
C967 C968 1.338 . S
C967 N970 1.377 . S
C967 H987 0.930 . S
C968 N966 1.375 . S
C968 C967 1.338 . S
C968 H972 0.931 . S
C969 N966 1.313 . S
C969 N970 1.344 . S
C969 H973 0.930 . S
N970 C967 1.377 . S
N970 C969 1.344 . S
O971 Co963 2.055 . S
O971 C975 1.253 . S
H972 C968 0.931 . S
H973 C969 0.930 . S
O974 Co963 2.039 . S
O974 C964 1.265 . S
C975 O971 1.253 . S
C975 O976 1.227 . S
O976 C975 1.227 . S
N977 Co963 2.140 . S
N977 C980 1.346 . S
N977 C981 1.345 . S
C978 C979 1.387 . S
C978 C982 1.391 . S
C979 C978 1.387 . S
C979 C980 1.369 . S
C979 H988 0.929 . S
C980 N977 1.346 . S
C980 C979 1.369 . S
C980 H983 0.928 . S
C981 N977 1.345 . S
C981 C982 1.371 . S
C981 H984 0.931 . S
C982 C978 1.391 . S
C982 C981 1.371 . S
C982 H989 0.930 . S
H983 C980 0.928 . S
H984 C981 0.931 . S
H985 C961 0.930 . S
H986 C958 0.930 . S
H987 C967 0.930 . S
H988 C979 0.929 . S
H989 C982 0.930 . S
C990 C991 1.351 . S
C990 N993 1.368 . S
C990 H995 0.931 . S
C991 C990 1.351 . S
C991 N992 1.373 . S
C991 H1019 0.930 . S
N992 C991 1.373 . S
N992 C994 1.340 . S
N993 C990 1.368 . S
N993 C994 1.321 . S
N993 Co996 2.135 . S
C994 N992 1.340 . S
C994 N993 1.321 . S
C994 H1018 0.930 . S
H995 C990 0.931 . S
Co996 N993 2.135 . S
Co996 N999 2.121 . S
Co996 O1004 2.055 . S
Co996 O1007 2.039 . S
Co996 N1010 2.140 . S
C997 O998 1.227 . S
C997 O1007 1.265 . S
O998 C997 1.227 . S
N999 Co996 2.121 . S
N999 C1001 1.375 . S
N999 C1002 1.313 . S
C1000 C1001 1.338 . S
C1000 N1003 1.377 . S
C1000 H1020 0.930 . S
C1001 N999 1.375 . S
C1001 C1000 1.338 . S
C1001 H1005 0.931 . S
C1002 N999 1.313 . S
C1002 N1003 1.344 . S
C1002 H1006 0.930 . S
N1003 C1000 1.377 . S
N1003 C1002 1.344 . S
O1004 Co996 2.055 . S
O1004 C1008 1.253 . S
H1005 C1001 0.931 . S
H1006 C1002 0.930 . S
O1007 Co996 2.039 . S
O1007 C997 1.265 . S
C1008 O1004 1.253 . S
C1008 O1009 1.227 . S
O1009 C1008 1.227 . S
N1010 Co996 2.140 . S
N1010 C1013 1.346 . S
N1010 C1014 1.345 . S
C1011 C1012 1.387 . S
C1011 C1015 1.391 . S
C1012 C1011 1.387 . S
C1012 C1013 1.369 . S
C1012 H1021 0.929 . S
C1013 N1010 1.346 . S
C1013 C1012 1.369 . S
C1013 H1016 0.928 . S
C1014 N1010 1.345 . S
C1014 C1015 1.371 . S
C1014 H1017 0.931 . S
C1015 C1011 1.391 . S
C1015 C1014 1.371 . S
C1015 H1022 0.930 . S
H1016 C1013 0.928 . S
H1017 C1014 0.931 . S
H1018 C994 0.930 . S
H1019 C991 0.930 . S
H1020 C1000 0.930 . S
H1021 C1012 0.929 . S
H1022 C1015 0.930 . S
C1023 C1024 1.351 . S
C1023 N1026 1.368 . S
C1023 H1028 0.931 . S
C1024 C1023 1.351 . S
C1024 N1025 1.373 . S
C1024 H1052 0.930 . S
N1025 C1024 1.373 . S
N1025 C1027 1.340 . S
N1026 C1023 1.368 . S
N1026 C1027 1.321 . S
N1026 Co1029 2.135 . S
C1027 N1025 1.340 . S
C1027 N1026 1.321 . S
C1027 H1051 0.930 . S
H1028 C1023 0.931 . S
Co1029 N1026 2.135 . S
Co1029 N1032 2.121 . S
Co1029 O1037 2.055 . S
Co1029 O1040 2.039 . S
Co1029 N1043 2.140 . S
C1030 O1031 1.227 . S
C1030 O1040 1.265 . S
O1031 C1030 1.227 . S
N1032 Co1029 2.121 . S
N1032 C1034 1.375 . S
N1032 C1035 1.313 . S
C1033 C1034 1.338 . S
C1033 N1036 1.377 . S
C1033 H1053 0.930 . S
C1034 N1032 1.375 . S
C1034 C1033 1.338 . S
C1034 H1038 0.931 . S
C1035 N1032 1.313 . S
C1035 N1036 1.344 . S
C1035 H1039 0.930 . S
N1036 C1033 1.377 . S
N1036 C1035 1.344 . S
O1037 Co1029 2.055 . S
O1037 C1041 1.253 . S
H1038 C1034 0.931 . S
H1039 C1035 0.930 . S
O1040 Co1029 2.039 . S
O1040 C1030 1.265 . S
C1041 O1037 1.253 . S
C1041 O1042 1.227 . S
O1042 C1041 1.227 . S
N1043 Co1029 2.140 . S
N1043 C1046 1.346 . S
N1043 C1047 1.345 . S
C1044 C1045 1.387 . S
C1044 C1048 1.391 . S
C1045 C1044 1.387 . S
C1045 C1046 1.369 . S
C1045 H1054 0.929 . S
C1046 N1043 1.346 . S
C1046 C1045 1.369 . S
C1046 H1049 0.928 . S
C1047 N1043 1.345 . S
C1047 C1048 1.371 . S
C1047 H1050 0.931 . S
C1048 C1044 1.391 . S
C1048 C1047 1.371 . S
C1048 H1055 0.930 . S
H1049 C1046 0.928 . S
H1050 C1047 0.931 . S
H1051 C1027 0.930 . S
H1052 C1024 0.930 . S
H1053 C1033 0.930 . S
H1054 C1045 0.929 . S
H1055 C1048 0.930 . S
H1056 C1068 0.930 . S
H1057 C1070 0.930 . S
H1058 C1071 0.930 . S
H1059 C1075 0.959 . S
H1060 C1075 0.959 . S
H1061 C1075 0.961 . S
H1062 C1076 0.960 . S
H1063 C1076 0.961 . S
H1064 C1076 0.959 . S
H1065 C1079 0.929 . S
H1066 C1080 0.931 . S
H1067 C1082 0.930 . S
C1068 H1056 0.930 . S
C1068 C1069 1.399 . S
C1068 C1073 1.399 . S
C1069 C1068 1.399 . S
C1069 C1070 1.376 . S
C1070 H1057 0.930 . S
C1070 C1069 1.376 . S
C1070 C1071 1.388 . S
C1071 H1058 0.930 . S
C1071 C1070 1.388 . S
C1071 C1072 1.390 . S
C1072 C1071 1.390 . S
C1072 C1073 1.394 . S
C1072 C1078 1.465 . S
C1073 C1068 1.399 . S
C1073 C1072 1.394 . S
C1073 C1074 1.516 . S
C1074 C1073 1.516 . S
C1074 C1075 1.502 . S
C1074 C1076 1.561 . S
C1074 C1077 1.526 . S
C1075 H1059 0.959 . S
C1075 H1060 0.959 . S
C1075 H1061 0.961 . S
C1075 C1074 1.502 . S
C1076 H1062 0.960 . S
C1076 H1063 0.961 . S
C1076 H1064 0.959 . S
C1076 C1074 1.561 . S
C1077 C1074 1.526 . S
C1077 C1078 1.396 . S
C1077 C1082 1.390 . S
C1078 C1072 1.465 . S
C1078 C1077 1.396 . S
C1078 C1079 1.399 . S
C1079 H1065 0.929 . S
C1079 C1078 1.399 . S
C1079 C1080 1.385 . S
C1080 H1066 0.931 . S
C1080 C1079 1.385 . S
C1080 C1081 1.389 . S
C1081 C1080 1.389 . S
C1081 C1082 1.387 . S
C1082 H1067 0.930 . S
C1082 C1077 1.390 . S
C1082 C1081 1.387 . S
H1083 C1095 0.930 . S
H1084 C1097 0.930 . S
H1085 C1098 0.930 . S
H1086 C1102 0.959 . S
H1087 C1102 0.959 . S
H1088 C1102 0.961 . S
H1089 C1103 0.960 . S
H1090 C1103 0.961 . S
H1091 C1103 0.959 . S
H1092 C1106 0.929 . S
H1093 C1107 0.931 . S
H1094 C1109 0.930 . S
C1095 H1083 0.930 . S
C1095 C1096 1.399 . S
C1095 C1100 1.399 . S
C1096 C1095 1.399 . S
C1096 C1097 1.376 . S
C1097 H1084 0.930 . S
C1097 C1096 1.376 . S
C1097 C1098 1.388 . S
C1098 H1085 0.930 . S
C1098 C1097 1.388 . S
C1098 C1099 1.390 . S
C1099 C1098 1.390 . S
C1099 C1100 1.394 . S
C1099 C1105 1.465 . S
C1100 C1095 1.399 . S
C1100 C1099 1.394 . S
C1100 C1101 1.516 . S
C1101 C1100 1.516 . S
C1101 C1102 1.502 . S
C1101 C1103 1.561 . S
C1101 C1104 1.526 . S
C1102 H1086 0.959 . S
C1102 H1087 0.959 . S
C1102 H1088 0.961 . S
C1102 C1101 1.502 . S
C1103 H1089 0.960 . S
C1103 H1090 0.961 . S
C1103 H1091 0.959 . S
C1103 C1101 1.561 . S
C1104 C1101 1.526 . S
C1104 C1105 1.396 . S
C1104 C1109 1.390 . S
C1105 C1099 1.465 . S
C1105 C1104 1.396 . S
C1105 C1106 1.399 . S
C1106 H1092 0.929 . S
C1106 C1105 1.399 . S
C1106 C1107 1.385 . S
C1107 H1093 0.931 . S
C1107 C1106 1.385 . S
C1107 C1108 1.389 . S
C1108 C1107 1.389 . S
C1108 C1109 1.387 . S
C1109 H1094 0.930 . S
C1109 C1104 1.390 . S
C1109 C1108 1.387 . S
H1110 C1122 0.930 . S
H1111 C1124 0.930 . S
H1112 C1125 0.930 . S
H1113 C1129 0.959 . S
H1114 C1129 0.959 . S
H1115 C1129 0.961 . S
H1116 C1130 0.960 . S
H1117 C1130 0.961 . S
H1118 C1130 0.959 . S
H1119 C1133 0.929 . S
H1120 C1134 0.931 . S
H1121 C1136 0.930 . S
C1122 H1110 0.930 . S
C1122 C1123 1.399 . S
C1122 C1127 1.399 . S
C1123 C1122 1.399 . S
C1123 C1124 1.376 . S
C1124 H1111 0.930 . S
C1124 C1123 1.376 . S
C1124 C1125 1.388 . S
C1125 H1112 0.930 . S
C1125 C1124 1.388 . S
C1125 C1126 1.390 . S
C1126 C1125 1.390 . S
C1126 C1127 1.394 . S
C1126 C1132 1.465 . S
C1127 C1122 1.399 . S
C1127 C1126 1.394 . S
C1127 C1128 1.516 . S
C1128 C1127 1.516 . S
C1128 C1129 1.502 . S
C1128 C1130 1.561 . S
C1128 C1131 1.526 . S
C1129 H1113 0.959 . S
C1129 H1114 0.959 . S
C1129 H1115 0.961 . S
C1129 C1128 1.502 . S
C1130 H1116 0.960 . S
C1130 H1117 0.961 . S
C1130 H1118 0.959 . S
C1130 C1128 1.561 . S
C1131 C1128 1.526 . S
C1131 C1132 1.396 . S
C1131 C1136 1.390 . S
C1132 C1126 1.465 . S
C1132 C1131 1.396 . S
C1132 C1133 1.399 . S
C1133 H1119 0.929 . S
C1133 C1132 1.399 . S
C1133 C1134 1.385 . S
C1134 H1120 0.931 . S
C1134 C1133 1.385 . S
C1134 C1135 1.389 . S
C1135 C1134 1.389 . S
C1135 C1136 1.387 . S
C1136 H1121 0.930 . S
C1136 C1131 1.390 . S
C1136 C1135 1.387 . S
H1137 C1149 0.930 . S
H1138 C1151 0.930 . S
H1139 C1152 0.930 . S
H1140 C1156 0.959 . S
H1141 C1156 0.959 . S
H1142 C1156 0.961 . S
H1143 C1157 0.960 . S
H1144 C1157 0.961 . S
H1145 C1157 0.959 . S
H1146 C1160 0.929 . S
H1147 C1161 0.931 . S
H1148 C1163 0.930 . S
C1149 H1137 0.930 . S
C1149 C1150 1.399 . S
C1149 C1154 1.399 . S
C1150 C1149 1.399 . S
C1150 C1151 1.376 . S
C1151 H1138 0.930 . S
C1151 C1150 1.376 . S
C1151 C1152 1.388 . S
C1152 H1139 0.930 . S
C1152 C1151 1.388 . S
C1152 C1153 1.390 . S
C1153 C1152 1.390 . S
C1153 C1154 1.394 . S
C1153 C1159 1.465 . S
C1154 C1149 1.399 . S
C1154 C1153 1.394 . S
C1154 C1155 1.516 . S
C1155 C1154 1.516 . S
C1155 C1156 1.502 . S
C1155 C1157 1.561 . S
C1155 C1158 1.526 . S
C1156 H1140 0.959 . S
C1156 H1141 0.959 . S
C1156 H1142 0.961 . S
C1156 C1155 1.502 . S
C1157 H1143 0.960 . S
C1157 H1144 0.961 . S
C1157 H1145 0.959 . S
C1157 C1155 1.561 . S
C1158 C1155 1.526 . S
C1158 C1159 1.396 . S
C1158 C1163 1.390 . S
C1159 C1153 1.465 . S
C1159 C1158 1.396 . S
C1159 C1160 1.399 . S
C1160 H1146 0.929 . S
C1160 C1159 1.399 . S
C1160 C1161 1.385 . S
C1161 H1147 0.931 . S
C1161 C1160 1.385 . S
C1161 C1162 1.389 . S
C1162 C1161 1.389 . S
C1162 C1163 1.387 . S
C1163 H1148 0.930 . S
C1163 C1158 1.390 . S
C1163 C1162 1.387 . S
H1164 C1176 0.930 . S
H1165 C1178 0.930 . S
H1166 C1179 0.930 . S
H1167 C1183 0.959 . S
H1168 C1183 0.959 . S
H1169 C1183 0.961 . S
H1170 C1184 0.960 . S
H1171 C1184 0.961 . S
H1172 C1184 0.959 . S
H1173 C1187 0.929 . S
H1174 C1188 0.931 . S
H1175 C1190 0.930 . S
C1176 H1164 0.930 . S
C1176 C1177 1.399 . S
C1176 C1181 1.399 . S
C1177 C1176 1.399 . S
C1177 C1178 1.376 . S
C1178 H1165 0.930 . S
C1178 C1177 1.376 . S
C1178 C1179 1.388 . S
C1179 H1166 0.930 . S
C1179 C1178 1.388 . S
C1179 C1180 1.390 . S
C1180 C1179 1.390 . S
C1180 C1181 1.394 . S
C1180 C1186 1.465 . S
C1181 C1176 1.399 . S
C1181 C1180 1.394 . S
C1181 C1182 1.516 . S
C1182 C1181 1.516 . S
C1182 C1183 1.502 . S
C1182 C1184 1.561 . S
C1182 C1185 1.526 . S
C1183 H1167 0.959 . S
C1183 H1168 0.959 . S
C1183 H1169 0.961 . S
C1183 C1182 1.502 . S
C1184 H1170 0.960 . S
C1184 H1171 0.961 . S
C1184 H1172 0.959 . S
C1184 C1182 1.561 . S
C1185 C1182 1.526 . S
C1185 C1186 1.396 . S
C1185 C1190 1.390 . S
C1186 C1180 1.465 . S
C1186 C1185 1.396 . S
C1186 C1187 1.399 . S
C1187 H1173 0.929 . S
C1187 C1186 1.399 . S
C1187 C1188 1.385 . S
C1188 H1174 0.931 . S
C1188 C1187 1.385 . S
C1188 C1189 1.389 . S
C1189 C1188 1.389 . S
C1189 C1190 1.387 . S
C1190 H1175 0.930 . S
C1190 C1185 1.390 . S
C1190 C1189 1.387 . S
H1191 C1203 0.930 . S
H1192 C1205 0.930 . S
H1193 C1206 0.930 . S
H1194 C1210 0.959 . S
H1195 C1210 0.959 . S
H1196 C1210 0.961 . S
H1197 C1211 0.960 . S
H1198 C1211 0.961 . S
H1199 C1211 0.959 . S
H1200 C1214 0.929 . S
H1201 C1215 0.931 . S
H1202 C1217 0.930 . S
C1203 H1191 0.930 . S
C1203 C1204 1.399 . S
C1203 C1208 1.399 . S
C1204 C1203 1.399 . S
C1204 C1205 1.376 . S
C1205 H1192 0.930 . S
C1205 C1204 1.376 . S
C1205 C1206 1.388 . S
C1206 H1193 0.930 . S
C1206 C1205 1.388 . S
C1206 C1207 1.390 . S
C1207 C1206 1.390 . S
C1207 C1208 1.394 . S
C1207 C1213 1.465 . S
C1208 C1203 1.399 . S
C1208 C1207 1.394 . S
C1208 C1209 1.516 . S
C1209 C1208 1.516 . S
C1209 C1210 1.502 . S
C1209 C1211 1.561 . S
C1209 C1212 1.526 . S
C1210 H1194 0.959 . S
C1210 H1195 0.959 . S
C1210 H1196 0.961 . S
C1210 C1209 1.502 . S
C1211 H1197 0.960 . S
C1211 H1198 0.961 . S
C1211 H1199 0.959 . S
C1211 C1209 1.561 . S
C1212 C1209 1.526 . S
C1212 C1213 1.396 . S
C1212 C1217 1.390 . S
C1213 C1207 1.465 . S
C1213 C1212 1.396 . S
C1213 C1214 1.399 . S
C1214 H1200 0.929 . S
C1214 C1213 1.399 . S
C1214 C1215 1.385 . S
C1215 H1201 0.931 . S
C1215 C1214 1.385 . S
C1215 C1216 1.389 . S
C1216 C1215 1.389 . S
C1216 C1217 1.387 . S
C1217 H1202 0.930 . S
C1217 C1212 1.390 . S
C1217 C1216 1.387 . S
H1218 C1230 0.930 . S
H1219 C1232 0.930 . S
H1220 C1233 0.930 . S
H1221 C1237 0.959 . S
H1222 C1237 0.959 . S
H1223 C1237 0.961 . S
H1224 C1238 0.960 . S
H1225 C1238 0.961 . S
H1226 C1238 0.959 . S
H1227 C1241 0.929 . S
H1228 C1242 0.931 . S
H1229 C1244 0.930 . S
C1230 H1218 0.930 . S
C1230 C1231 1.399 . S
C1230 C1235 1.399 . S
C1231 C1230 1.399 . S
C1231 C1232 1.376 . S
C1232 H1219 0.930 . S
C1232 C1231 1.376 . S
C1232 C1233 1.388 . S
C1233 H1220 0.930 . S
C1233 C1232 1.388 . S
C1233 C1234 1.390 . S
C1234 C1233 1.390 . S
C1234 C1235 1.394 . S
C1234 C1240 1.465 . S
C1235 C1230 1.399 . S
C1235 C1234 1.394 . S
C1235 C1236 1.516 . S
C1236 C1235 1.516 . S
C1236 C1237 1.502 . S
C1236 C1238 1.561 . S
C1236 C1239 1.526 . S
C1237 H1221 0.959 . S
C1237 H1222 0.959 . S
C1237 H1223 0.961 . S
C1237 C1236 1.502 . S
C1238 H1224 0.960 . S
C1238 H1225 0.961 . S
C1238 H1226 0.959 . S
C1238 C1236 1.561 . S
C1239 C1236 1.526 . S
C1239 C1240 1.396 . S
C1239 C1244 1.390 . S
C1240 C1234 1.465 . S
C1240 C1239 1.396 . S
C1240 C1241 1.399 . S
C1241 H1227 0.929 . S
C1241 C1240 1.399 . S
C1241 C1242 1.385 . S
C1242 H1228 0.931 . S
C1242 C1241 1.385 . S
C1242 C1243 1.389 . S
C1243 C1242 1.389 . S
C1243 C1244 1.387 . S
C1244 H1229 0.930 . S
C1244 C1239 1.390 . S
C1244 C1243 1.387 . S
H1245 C1257 0.930 . S
H1246 C1259 0.930 . S
H1247 C1260 0.930 . S
H1248 C1264 0.959 . S
H1249 C1264 0.959 . S
H1250 C1264 0.961 . S
H1251 C1265 0.960 . S
H1252 C1265 0.961 . S
H1253 C1265 0.959 . S
H1254 C1268 0.929 . S
H1255 C1269 0.931 . S
H1256 C1271 0.930 . S
C1257 H1245 0.930 . S
C1257 C1258 1.399 . S
C1257 C1262 1.399 . S
C1258 C1257 1.399 . S
C1258 C1259 1.376 . S
C1259 H1246 0.930 . S
C1259 C1258 1.376 . S
C1259 C1260 1.388 . S
C1260 H1247 0.930 . S
C1260 C1259 1.388 . S
C1260 C1261 1.390 . S
C1261 C1260 1.390 . S
C1261 C1262 1.394 . S
C1261 C1267 1.465 . S
C1262 C1257 1.399 . S
C1262 C1261 1.394 . S
C1262 C1263 1.516 . S
C1263 C1262 1.516 . S
C1263 C1264 1.502 . S
C1263 C1265 1.561 . S
C1263 C1266 1.526 . S
C1264 H1248 0.959 . S
C1264 H1249 0.959 . S
C1264 H1250 0.961 . S
C1264 C1263 1.502 . S
C1265 H1251 0.960 . S
C1265 H1252 0.961 . S
C1265 H1253 0.959 . S
C1265 C1263 1.561 . S
C1266 C1263 1.526 . S
C1266 C1267 1.396 . S
C1266 C1271 1.390 . S
C1267 C1261 1.465 . S
C1267 C1266 1.396 . S
C1267 C1268 1.399 . S
C1268 H1254 0.929 . S
C1268 C1267 1.399 . S
C1268 C1269 1.385 . S
C1269 H1255 0.931 . S
C1269 C1268 1.385 . S
C1269 C1270 1.389 . S
C1270 C1269 1.389 . S
C1270 C1271 1.387 . S
C1271 H1256 0.930 . S
C1271 C1266 1.390 . S
C1271 C1270 1.387 . S
H1272 C1284 0.930 . S
H1273 C1286 0.930 . S
H1274 C1287 0.930 . S
H1275 C1291 0.959 . S
H1276 C1291 0.959 . S
H1277 C1291 0.961 . S
H1278 C1292 0.960 . S
H1279 C1292 0.961 . S
H1280 C1292 0.959 . S
H1281 C1295 0.929 . S
H1282 C1296 0.931 . S
H1283 C1298 0.930 . S
C1284 H1272 0.930 . S
C1284 C1285 1.399 . S
C1284 C1289 1.399 . S
C1285 C1284 1.399 . S
C1285 C1286 1.376 . S
C1286 H1273 0.930 . S
C1286 C1285 1.376 . S
C1286 C1287 1.388 . S
C1287 H1274 0.930 . S
C1287 C1286 1.388 . S
C1287 C1288 1.390 . S
C1288 C1287 1.390 . S
C1288 C1289 1.394 . S
C1288 C1294 1.465 . S
C1289 C1284 1.399 . S
C1289 C1288 1.394 . S
C1289 C1290 1.516 . S
C1290 C1289 1.516 . S
C1290 C1291 1.502 . S
C1290 C1292 1.561 . S
C1290 C1293 1.526 . S
C1291 H1275 0.959 . S
C1291 H1276 0.959 . S
C1291 H1277 0.961 . S
C1291 C1290 1.502 . S
C1292 H1278 0.960 . S
C1292 H1279 0.961 . S
C1292 H1280 0.959 . S
C1292 C1290 1.561 . S
C1293 C1290 1.526 . S
C1293 C1294 1.396 . S
C1293 C1298 1.390 . S
C1294 C1288 1.465 . S
C1294 C1293 1.396 . S
C1294 C1295 1.399 . S
C1295 H1281 0.929 . S
C1295 C1294 1.399 . S
C1295 C1296 1.385 . S
C1296 H1282 0.931 . S
C1296 C1295 1.385 . S
C1296 C1297 1.389 . S
C1297 C1296 1.389 . S
C1297 C1298 1.387 . S
C1298 H1283 0.930 . S
C1298 C1293 1.390 . S
C1298 C1297 1.387 . S
H1299 C1311 0.930 . S
H1300 C1313 0.930 . S
H1301 C1314 0.930 . S
H1302 C1318 0.959 . S
H1303 C1318 0.959 . S
H1304 C1318 0.961 . S
H1305 C1319 0.960 . S
H1306 C1319 0.961 . S
H1307 C1319 0.959 . S
H1308 C1322 0.929 . S
H1309 C1323 0.931 . S
H1310 C1325 0.930 . S
C1311 H1299 0.930 . S
C1311 C1312 1.399 . S
C1311 C1316 1.399 . S
C1312 C1311 1.399 . S
C1312 C1313 1.376 . S
C1313 H1300 0.930 . S
C1313 C1312 1.376 . S
C1313 C1314 1.388 . S
C1314 H1301 0.930 . S
C1314 C1313 1.388 . S
C1314 C1315 1.390 . S
C1315 C1314 1.390 . S
C1315 C1316 1.394 . S
C1315 C1321 1.465 . S
C1316 C1311 1.399 . S
C1316 C1315 1.394 . S
C1316 C1317 1.516 . S
C1317 C1316 1.516 . S
C1317 C1318 1.502 . S
C1317 C1319 1.561 . S
C1317 C1320 1.526 . S
C1318 H1302 0.959 . S
C1318 H1303 0.959 . S
C1318 H1304 0.961 . S
C1318 C1317 1.502 . S
C1319 H1305 0.960 . S
C1319 H1306 0.961 . S
C1319 H1307 0.959 . S
C1319 C1317 1.561 . S
C1320 C1317 1.526 . S
C1320 C1321 1.396 . S
C1320 C1325 1.390 . S
C1321 C1315 1.465 . S
C1321 C1320 1.396 . S
C1321 C1322 1.399 . S
C1322 H1308 0.929 . S
C1322 C1321 1.399 . S
C1322 C1323 1.385 . S
C1323 H1309 0.931 . S
C1323 C1322 1.385 . S
C1323 C1324 1.389 . S
C1324 C1323 1.389 . S
C1324 C1325 1.387 . S
C1325 H1310 0.930 . S
C1325 C1320 1.390 . S
C1325 C1324 1.387 . S
H1326 C1338 0.930 . S
H1327 C1340 0.930 . S
H1328 C1341 0.930 . S
H1329 C1345 0.959 . S
H1330 C1345 0.959 . S
H1331 C1345 0.961 . S
H1332 C1346 0.960 . S
H1333 C1346 0.961 . S
H1334 C1346 0.959 . S
H1335 C1349 0.929 . S
H1336 C1350 0.931 . S
H1337 C1352 0.930 . S
C1338 H1326 0.930 . S
C1338 C1339 1.399 . S
C1338 C1343 1.399 . S
C1339 C1338 1.399 . S
C1339 C1340 1.376 . S
C1340 H1327 0.930 . S
C1340 C1339 1.376 . S
C1340 C1341 1.388 . S
C1341 H1328 0.930 . S
C1341 C1340 1.388 . S
C1341 C1342 1.390 . S
C1342 C1341 1.390 . S
C1342 C1343 1.394 . S
C1342 C1348 1.465 . S
C1343 C1338 1.399 . S
C1343 C1342 1.394 . S
C1343 C1344 1.516 . S
C1344 C1343 1.516 . S
C1344 C1345 1.502 . S
C1344 C1346 1.561 . S
C1344 C1347 1.526 . S
C1345 H1329 0.959 . S
C1345 H1330 0.959 . S
C1345 H1331 0.961 . S
C1345 C1344 1.502 . S
C1346 H1332 0.960 . S
C1346 H1333 0.961 . S
C1346 H1334 0.959 . S
C1346 C1344 1.561 . S
C1347 C1344 1.526 . S
C1347 C1348 1.396 . S
C1347 C1352 1.390 . S
C1348 C1342 1.465 . S
C1348 C1347 1.396 . S
C1348 C1349 1.399 . S
C1349 H1335 0.929 . S
C1349 C1348 1.399 . S
C1349 C1350 1.385 . S
C1350 H1336 0.931 . S
C1350 C1349 1.385 . S
C1350 C1351 1.389 . S
C1351 C1350 1.389 . S
C1351 C1352 1.387 . S
C1352 H1337 0.930 . S
C1352 C1347 1.390 . S
C1352 C1351 1.387 . S
H1353 C1365 0.930 . S
H1354 C1367 0.930 . S
H1355 C1368 0.930 . S
H1356 C1372 0.959 . S
H1357 C1372 0.959 . S
H1358 C1372 0.961 . S
H1359 C1373 0.960 . S
H1360 C1373 0.961 . S
H1361 C1373 0.959 . S
H1362 C1376 0.929 . S
H1363 C1377 0.931 . S
H1364 C1379 0.930 . S
C1365 H1353 0.930 . S
C1365 C1366 1.399 . S
C1365 C1370 1.399 . S
C1366 C1365 1.399 . S
C1366 C1367 1.376 . S
C1367 H1354 0.930 . S
C1367 C1366 1.376 . S
C1367 C1368 1.388 . S
C1368 H1355 0.930 . S
C1368 C1367 1.388 . S
C1368 C1369 1.390 . S
C1369 C1368 1.390 . S
C1369 C1370 1.394 . S
C1369 C1375 1.465 . S
C1370 C1365 1.399 . S
C1370 C1369 1.394 . S
C1370 C1371 1.516 . S
C1371 C1370 1.516 . S
C1371 C1372 1.502 . S
C1371 C1373 1.561 . S
C1371 C1374 1.526 . S
C1372 H1356 0.959 . S
C1372 H1357 0.959 . S
C1372 H1358 0.961 . S
C1372 C1371 1.502 . S
C1373 H1359 0.960 . S
C1373 H1360 0.961 . S
C1373 H1361 0.959 . S
C1373 C1371 1.561 . S
C1374 C1371 1.526 . S
C1374 C1375 1.396 . S
C1374 C1379 1.390 . S
C1375 C1369 1.465 . S
C1375 C1374 1.396 . S
C1375 C1376 1.399 . S
C1376 H1362 0.929 . S
C1376 C1375 1.399 . S
C1376 C1377 1.385 . S
C1377 H1363 0.931 . S
C1377 C1376 1.385 . S
C1377 C1378 1.389 . S
C1378 C1377 1.389 . S
C1378 C1379 1.387 . S
C1379 H1364 0.930 . S
C1379 C1374 1.390 . S
C1379 C1378 1.387 . S
H1380 C1392 0.930 . S
H1381 C1394 0.930 . S
H1382 C1395 0.930 . S
H1383 C1399 0.959 . S
H1384 C1399 0.959 . S
H1385 C1399 0.961 . S
H1386 C1400 0.960 . S
H1387 C1400 0.961 . S
H1388 C1400 0.959 . S
H1389 C1403 0.929 . S
H1390 C1404 0.931 . S
H1391 C1406 0.930 . S
C1392 H1380 0.930 . S
C1392 C1393 1.399 . S
C1392 C1397 1.399 . S
C1393 C1392 1.399 . S
C1393 C1394 1.376 . S
C1394 H1381 0.930 . S
C1394 C1393 1.376 . S
C1394 C1395 1.388 . S
C1395 H1382 0.930 . S
C1395 C1394 1.388 . S
C1395 C1396 1.390 . S
C1396 C1395 1.390 . S
C1396 C1397 1.394 . S
C1396 C1402 1.465 . S
C1397 C1392 1.399 . S
C1397 C1396 1.394 . S
C1397 C1398 1.516 . S
C1398 C1397 1.516 . S
C1398 C1399 1.502 . S
C1398 C1400 1.561 . S
C1398 C1401 1.526 . S
C1399 H1383 0.959 . S
C1399 H1384 0.959 . S
C1399 H1385 0.961 . S
C1399 C1398 1.502 . S
C1400 H1386 0.960 . S
C1400 H1387 0.961 . S
C1400 H1388 0.959 . S
C1400 C1398 1.561 . S
C1401 C1398 1.526 . S
C1401 C1402 1.396 . S
C1401 C1406 1.390 . S
C1402 C1396 1.465 . S
C1402 C1401 1.396 . S
C1402 C1403 1.399 . S
C1403 H1389 0.929 . S
C1403 C1402 1.399 . S
C1403 C1404 1.385 . S
C1404 H1390 0.931 . S
C1404 C1403 1.385 . S
C1404 C1405 1.389 . S
C1405 C1404 1.389 . S
C1405 C1406 1.387 . S
C1406 H1391 0.930 . S
C1406 C1401 1.390 . S
C1406 C1405 1.387 . S
H1407 C1419 0.930 . S
H1408 C1421 0.930 . S
H1409 C1422 0.930 . S
H1410 C1426 0.959 . S
H1411 C1426 0.959 . S
H1412 C1426 0.961 . S
H1413 C1427 0.960 . S
H1414 C1427 0.961 . S
H1415 C1427 0.959 . S
H1416 C1430 0.929 . S
H1417 C1431 0.931 . S
H1418 C1433 0.930 . S
C1419 H1407 0.930 . S
C1419 C1420 1.399 . S
C1419 C1424 1.399 . S
C1420 C1419 1.399 . S
C1420 C1421 1.376 . S
C1421 H1408 0.930 . S
C1421 C1420 1.376 . S
C1421 C1422 1.388 . S
C1422 H1409 0.930 . S
C1422 C1421 1.388 . S
C1422 C1423 1.390 . S
C1423 C1422 1.390 . S
C1423 C1424 1.394 . S
C1423 C1429 1.465 . S
C1424 C1419 1.399 . S
C1424 C1423 1.394 . S
C1424 C1425 1.516 . S
C1425 C1424 1.516 . S
C1425 C1426 1.502 . S
C1425 C1427 1.561 . S
C1425 C1428 1.526 . S
C1426 H1410 0.959 . S
C1426 H1411 0.959 . S
C1426 H1412 0.961 . S
C1426 C1425 1.502 . S
C1427 H1413 0.960 . S
C1427 H1414 0.961 . S
C1427 H1415 0.959 . S
C1427 C1425 1.561 . S
C1428 C1425 1.526 . S
C1428 C1429 1.396 . S
C1428 C1433 1.390 . S
C1429 C1423 1.465 . S
C1429 C1428 1.396 . S
C1429 C1430 1.399 . S
C1430 H1416 0.929 . S
C1430 C1429 1.399 . S
C1430 C1431 1.385 . S
C1431 H1417 0.931 . S
C1431 C1430 1.385 . S
C1431 C1432 1.389 . S
C1432 C1431 1.389 . S
C1432 C1433 1.387 . S
C1433 H1418 0.930 . S
C1433 C1428 1.390 . S
C1433 C1432 1.387 . S
H1434 C1446 0.930 . S
H1435 C1448 0.930 . S
H1436 C1449 0.930 . S
H1437 C1453 0.959 . S
H1438 C1453 0.959 . S
H1439 C1453 0.961 . S
H1440 C1454 0.960 . S
H1441 C1454 0.961 . S
H1442 C1454 0.959 . S
H1443 C1457 0.929 . S
H1444 C1458 0.931 . S
H1445 C1460 0.930 . S
C1446 H1434 0.930 . S
C1446 C1447 1.399 . S
C1446 C1451 1.399 . S
C1447 C1446 1.399 . S
C1447 C1448 1.376 . S
C1448 H1435 0.930 . S
C1448 C1447 1.376 . S
C1448 C1449 1.388 . S
C1449 H1436 0.930 . S
C1449 C1448 1.388 . S
C1449 C1450 1.390 . S
C1450 C1449 1.390 . S
C1450 C1451 1.394 . S
C1450 C1456 1.465 . S
C1451 C1446 1.399 . S
C1451 C1450 1.394 . S
C1451 C1452 1.516 . S
C1452 C1451 1.516 . S
C1452 C1453 1.502 . S
C1452 C1454 1.561 . S
C1452 C1455 1.526 . S
C1453 H1437 0.959 . S
C1453 H1438 0.959 . S
C1453 H1439 0.961 . S
C1453 C1452 1.502 . S
C1454 H1440 0.960 . S
C1454 H1441 0.961 . S
C1454 H1442 0.959 . S
C1454 C1452 1.561 . S
C1455 C1452 1.526 . S
C1455 C1456 1.396 . S
C1455 C1460 1.390 . S
C1456 C1450 1.465 . S
C1456 C1455 1.396 . S
C1456 C1457 1.399 . S
C1457 H1443 0.929 . S
C1457 C1456 1.399 . S
C1457 C1458 1.385 . S
C1458 H1444 0.931 . S
C1458 C1457 1.385 . S
C1458 C1459 1.389 . S
C1459 C1458 1.389 . S
C1459 C1460 1.387 . S
C1460 H1445 0.930 . S
C1460 C1455 1.390 . S
C1460 C1459 1.387 . S
H1461 C1473 0.930 . S
H1462 C1475 0.930 . S
H1463 C1476 0.930 . S
H1464 C1480 0.959 . S
H1465 C1480 0.959 . S
H1466 C1480 0.961 . S
H1467 C1481 0.960 . S
H1468 C1481 0.961 . S
H1469 C1481 0.959 . S
H1470 C1484 0.929 . S
H1471 C1485 0.931 . S
H1472 C1487 0.930 . S
C1473 H1461 0.930 . S
C1473 C1474 1.399 . S
C1473 C1478 1.399 . S
C1474 C1473 1.399 . S
C1474 C1475 1.376 . S
C1475 H1462 0.930 . S
C1475 C1474 1.376 . S
C1475 C1476 1.388 . S
C1476 H1463 0.930 . S
C1476 C1475 1.388 . S
C1476 C1477 1.390 . S
C1477 C1476 1.390 . S
C1477 C1478 1.394 . S
C1477 C1483 1.465 . S
C1478 C1473 1.399 . S
C1478 C1477 1.394 . S
C1478 C1479 1.516 . S
C1479 C1478 1.516 . S
C1479 C1480 1.502 . S
C1479 C1481 1.561 . S
C1479 C1482 1.526 . S
C1480 H1464 0.959 . S
C1480 H1465 0.959 . S
C1480 H1466 0.961 . S
C1480 C1479 1.502 . S
C1481 H1467 0.960 . S
C1481 H1468 0.961 . S
C1481 H1469 0.959 . S
C1481 C1479 1.561 . S
C1482 C1479 1.526 . S
C1482 C1483 1.396 . S
C1482 C1487 1.390 . S
C1483 C1477 1.465 . S
C1483 C1482 1.396 . S
C1483 C1484 1.399 . S
C1484 H1470 0.929 . S
C1484 C1483 1.399 . S
C1484 C1485 1.385 . S
C1485 H1471 0.931 . S
C1485 C1484 1.385 . S
C1485 C1486 1.389 . S
C1486 C1485 1.389 . S
C1486 C1487 1.387 . S
C1487 H1472 0.930 . S
C1487 C1482 1.390 . S
C1487 C1486 1.387 . S
H1488 C1500 0.930 . S
H1489 C1502 0.930 . S
H1490 C1503 0.930 . S
H1491 C1507 0.959 1_455 S
H1492 C1507 0.959 1_455 S
H1493 C1507 0.961 . S
H1494 C1508 0.960 . S
H1495 C1508 0.961 . S
H1496 C1508 0.959 . S
H1497 C1511 0.929 . S
H1498 C1512 0.931 . S
H1499 C1514 0.930 . S
C1500 H1488 0.930 . S
C1500 C1501 1.399 . S
C1500 C1505 1.399 . S
C1501 C1500 1.399 . S
C1501 C1502 1.376 . S
C1502 H1489 0.930 . S
C1502 C1501 1.376 . S
C1502 C1503 1.388 . S
C1503 H1490 0.930 . S
C1503 C1502 1.388 . S
C1503 C1504 1.390 . S
C1504 C1503 1.390 . S
C1504 C1505 1.394 . S
C1504 C1510 1.465 1_655 S
C1505 C1500 1.399 . S
C1505 C1504 1.394 . S
C1505 C1506 1.516 . S
C1506 C1505 1.516 . S
C1506 C1507 1.502 . S
C1506 C1508 1.561 . S
C1506 C1509 1.526 1_655 S
C1507 H1491 0.959 1_655 S
C1507 H1492 0.959 1_655 S
C1507 H1493 0.961 . S
C1507 C1506 1.502 . S
C1508 H1494 0.960 . S
C1508 H1495 0.961 . S
C1508 H1496 0.959 . S
C1508 C1506 1.561 . S
C1509 C1506 1.526 1_455 S
C1509 C1510 1.396 . S
C1509 C1514 1.390 . S
C1510 C1504 1.465 1_455 S
C1510 C1509 1.396 . S
C1510 C1511 1.399 . S
C1511 H1497 0.929 . S
C1511 C1510 1.399 . S
C1511 C1512 1.385 . S
C1512 H1498 0.931 . S
C1512 C1511 1.385 . S
C1512 C1513 1.389 . S
C1513 C1512 1.389 . S
C1513 C1514 1.387 . S
C1514 H1499 0.930 . S
C1514 C1509 1.390 . S
C1514 C1513 1.387 . S
H1515 C1527 0.930 . S
H1516 C1529 0.924 1_455 S
H1517 C1530 0.930 . S
H1518 C1534 0.959 . S
H1519 C1534 0.959 . S
H1520 C1534 0.961 . S
H1521 C1535 0.960 1_655 S
H1522 C1535 0.961 . S
H1523 C1535 0.959 . S
H1524 C1538 0.929 . S
H1525 C1539 0.931 . S
H1526 C1541 0.930 . S
C1527 H1515 0.930 . S
C1527 C1528 1.399 . S
C1527 C1532 1.399 . S
C1528 C1527 1.399 . S
C1528 C1529 1.376 . S
C1529 H1516 0.924 1_655 S
C1529 C1528 1.376 . S
C1529 C1530 1.388 1_655 S
C1530 H1517 0.930 . S
C1530 C1529 1.388 1_455 S
C1530 C1531 1.390 . S
C1531 C1530 1.390 . S
C1531 C1532 1.394 1_455 S
C1531 C1537 1.465 . S
C1532 C1527 1.399 . S
C1532 C1531 1.394 1_655 S
C1532 C1533 1.516 . S
C1533 C1532 1.516 . S
C1533 C1534 1.502 . S
C1533 C1535 1.561 1_655 S
C1533 C1536 1.526 1_655 S
C1534 H1518 0.959 . S
C1534 H1519 0.959 . S
C1534 H1520 0.961 . S
C1534 C1533 1.502 . S
C1535 H1521 0.960 1_455 S
C1535 H1522 0.961 . S
C1535 H1523 0.959 . S
C1535 C1533 1.561 1_455 S
C1536 C1533 1.526 1_455 S
C1536 C1537 1.396 . S
C1536 C1541 1.390 . S
C1537 C1531 1.465 . S
C1537 C1536 1.396 . S
C1537 C1538 1.399 . S
C1538 H1524 0.929 . S
C1538 C1537 1.399 . S
C1538 C1539 1.385 . S
C1539 H1525 0.931 . S
C1539 C1538 1.385 . S
C1539 C1540 1.389 . S
C1540 C1539 1.389 . S
C1540 C1541 1.387 . S
C1541 H1526 0.930 . S
C1541 C1536 1.390 . S
C1541 C1540 1.387 . S
H1542 C1554 0.930 . S
H1543 C1556 0.930 . S
H1544 C1557 0.930 . S
H1545 C1561 0.959 . S
H1546 C1561 0.959 . S
H1547 C1561 0.961 . S
H1548 C1562 0.960 . S
H1549 C1562 0.961 . S
H1550 C1562 0.959 . S
H1551 C1565 0.929 . S
H1552 C1566 0.931 . S
H1553 C1568 0.930 . S
C1554 H1542 0.930 . S
C1554 C1555 1.399 . S
C1554 C1559 1.399 . S
C1555 C1554 1.399 . S
C1555 C1556 1.376 . S
C1556 H1543 0.930 . S
C1556 C1555 1.376 . S
C1556 C1557 1.388 . S
C1557 H1544 0.930 . S
C1557 C1556 1.388 . S
C1557 C1558 1.390 . S
C1558 C1557 1.390 . S
C1558 C1559 1.394 . S
C1558 C1564 1.465 . S
C1559 C1554 1.399 . S
C1559 C1558 1.394 . S
C1559 C1560 1.516 . S
C1560 C1559 1.516 . S
C1560 C1561 1.502 . S
C1560 C1562 1.561 . S
C1560 C1563 1.526 . S
C1561 H1545 0.959 . S
C1561 H1546 0.959 . S
C1561 H1547 0.961 . S
C1561 C1560 1.502 . S
C1562 H1548 0.960 . S
C1562 H1549 0.961 . S
C1562 H1550 0.959 . S
C1562 C1560 1.561 . S
C1563 C1560 1.526 . S
C1563 C1564 1.396 . S
C1563 C1568 1.390 . S
C1564 C1558 1.465 . S
C1564 C1563 1.396 . S
C1564 C1565 1.399 . S
C1565 H1551 0.929 . S
C1565 C1564 1.399 . S
C1565 C1566 1.385 . S
C1566 H1552 0.931 . S
C1566 C1565 1.385 . S
C1566 C1567 1.389 . S
C1567 C1566 1.389 . S
C1567 C1568 1.387 . S
C1568 H1553 0.930 . S
C1568 C1563 1.390 . S
C1568 C1567 1.387 . S
H1569 C1581 0.930 . S
H1570 C1583 0.930 . S
H1571 C1584 0.930 . S
H1572 C1588 0.959 . S
H1573 C1588 0.959 . S
H1574 C1588 0.961 . S
H1575 C1589 0.960 . S
H1576 C1589 0.961 . S
H1577 C1589 0.959 . S
H1578 C1592 0.929 . S
H1579 C1593 0.931 . S
H1580 C1595 0.930 . S
C1581 H1569 0.930 . S
C1581 C1582 1.399 . S
C1581 C1586 1.399 . S
C1582 C1581 1.399 . S
C1582 C1583 1.376 1_554 S
C1583 H1570 0.930 . S
C1583 C1582 1.376 1_556 S
C1583 C1584 1.388 . S
C1584 H1571 0.930 . S
C1584 C1583 1.388 . S
C1584 C1585 1.390 1_556 S
C1585 C1584 1.390 1_554 S
C1585 C1586 1.394 . S
C1585 C1591 1.465 . S
C1586 C1581 1.399 . S
C1586 C1585 1.394 . S
C1586 C1587 1.516 . S
C1587 C1586 1.516 . S
C1587 C1588 1.502 . S
C1587 C1589 1.561 . S
C1587 C1590 1.526 . S
C1588 H1572 0.959 . S
C1588 H1573 0.959 . S
C1588 H1574 0.961 . S
C1588 C1587 1.502 . S
C1589 H1575 0.960 . S
C1589 H1576 0.961 . S
C1589 H1577 0.959 . S
C1589 C1587 1.561 . S
C1590 C1587 1.526 . S
C1590 C1591 1.396 . S
C1590 C1595 1.390 . S
C1591 C1585 1.465 . S
C1591 C1590 1.396 . S
C1591 C1592 1.399 1_554 S
C1592 H1578 0.929 . S
C1592 C1591 1.399 1_556 S
C1592 C1593 1.385 . S
C1593 H1579 0.931 . S
C1593 C1592 1.385 . S
C1593 C1594 1.389 1_556 S
C1594 C1593 1.389 1_554 S
C1594 C1595 1.387 . S
C1595 H1580 0.930 . S
C1595 C1590 1.390 . S
C1595 C1594 1.387 . S
H1596 C1608 0.930 . S
H1597 C1610 0.930 . S
H1598 C1611 0.930 . S
H1599 C1615 0.959 . S
H1600 C1615 0.959 . S
H1601 C1615 0.961 1_655 S
H1602 C1616 0.960 . S
H1603 C1616 0.961 1_455 S
H1604 C1616 0.959 . S
H1605 C1619 0.929 . S
H1606 C1620 0.931 . S
H1607 C1622 0.930 . S
C1608 H1596 0.930 . S
C1608 C1609 1.399 . S
C1608 C1613 1.399 . S
C1609 C1608 1.399 . S
C1609 C1610 1.376 . S
C1610 H1597 0.930 . S
C1610 C1609 1.376 . S
C1610 C1611 1.388 . S
C1611 H1598 0.930 . S
C1611 C1610 1.388 . S
C1611 C1612 1.390 . S
C1612 C1611 1.390 . S
C1612 C1613 1.394 . S
C1612 C1618 1.465 1_655 S
C1613 C1608 1.399 . S
C1613 C1612 1.394 . S
C1613 C1614 1.511 1_655 S
C1614 C1613 1.511 1_455 S
C1614 C1615 1.503 . S
C1614 C1616 1.560 1_455 S
C1614 C1617 1.531 . S
C1615 H1599 0.959 . S
C1615 H1600 0.959 . S
C1615 H1601 0.961 1_455 S
C1615 C1614 1.503 . S
C1616 H1602 0.960 . S
C1616 H1603 0.961 1_655 S
C1616 H1604 0.959 . S
C1616 C1614 1.560 1_655 S
C1617 C1614 1.531 . S
C1617 C1618 1.396 . S
C1617 C1622 1.390 . S
C1618 C1612 1.465 1_455 S
C1618 C1617 1.396 . S
C1618 C1619 1.399 . S
C1619 H1605 0.929 . S
C1619 C1618 1.399 . S
C1619 C1620 1.385 . S
C1620 H1606 0.931 . S
C1620 C1619 1.385 . S
C1620 C1621 1.389 . S
C1621 C1620 1.389 . S
C1621 C1622 1.387 . S
C1622 H1607 0.930 . S
C1622 C1617 1.390 . S
C1622 C1621 1.387 . S
H1623 C1635 0.930 . S
H1624 C1637 0.930 . S
H1625 C1638 0.930 . S
H1626 C1642 0.959 . S
H1627 C1642 0.959 . S
H1628 C1642 0.961 . S
H1629 C1643 0.960 . S
H1630 C1643 0.961 . S
H1631 C1643 0.959 . S
H1632 C1646 0.929 . S
H1633 C1647 0.931 . S
H1634 C1649 0.930 . S
C1635 H1623 0.930 . S
C1635 C1636 1.399 . S
C1635 C1640 1.399 . S
C1636 C1635 1.399 . S
C1636 C1637 1.376 . S
C1637 H1624 0.930 . S
C1637 C1636 1.376 . S
C1637 C1638 1.388 . S
C1638 H1625 0.930 . S
C1638 C1637 1.388 . S
C1638 C1639 1.390 . S
C1639 C1638 1.390 . S
C1639 C1640 1.394 . S
C1639 C1645 1.465 . S
C1640 C1635 1.399 . S
C1640 C1639 1.394 . S
C1640 C1641 1.516 . S
C1641 C1640 1.516 . S
C1641 C1642 1.502 . S
C1641 C1643 1.561 . S
C1641 C1644 1.526 . S
C1642 H1626 0.959 . S
C1642 H1627 0.959 . S
C1642 H1628 0.961 . S
C1642 C1641 1.502 . S
C1643 H1629 0.960 . S
C1643 H1630 0.961 . S
C1643 H1631 0.959 . S
C1643 C1641 1.561 . S
C1644 C1641 1.526 . S
C1644 C1645 1.396 . S
C1644 C1649 1.390 . S
C1645 C1639 1.465 . S
C1645 C1644 1.396 . S
C1645 C1646 1.399 . S
C1646 H1632 0.929 . S
C1646 C1645 1.399 . S
C1646 C1647 1.385 . S
C1647 H1633 0.931 . S
C1647 C1646 1.385 . S
C1647 C1648 1.389 . S
C1648 C1647 1.389 . S
C1648 C1649 1.387 . S
C1649 H1634 0.930 . S
C1649 C1644 1.390 . S
C1649 C1648 1.387 . S
H1650 C1662 0.930 . S
H1651 C1664 0.930 . S
H1652 C1665 0.930 . S
H1653 C1669 0.959 . S
H1654 C1669 0.959 . S
H1655 C1669 0.961 . S
H1656 C1670 0.960 . S
H1657 C1670 0.961 . S
H1658 C1670 0.959 . S
H1659 C1673 0.929 . S
H1660 C1674 0.931 . S
H1661 C1676 0.930 . S
C1662 H1650 0.930 . S
C1662 C1663 1.399 . S
C1662 C1667 1.399 . S
C1663 C1662 1.399 . S
C1663 C1664 1.376 . S
C1664 H1651 0.930 . S
C1664 C1663 1.376 . S
C1664 C1665 1.388 . S
C1665 H1652 0.930 . S
C1665 C1664 1.388 . S
C1665 C1666 1.390 . S
C1666 C1665 1.390 . S
C1666 C1667 1.394 . S
C1666 C1672 1.465 . S
C1667 C1662 1.399 . S
C1667 C1666 1.394 . S
C1667 C1668 1.516 . S
C1668 C1667 1.516 . S
C1668 C1669 1.502 . S
C1668 C1670 1.561 . S
C1668 C1671 1.526 . S
C1669 H1653 0.959 . S
C1669 H1654 0.959 . S
C1669 H1655 0.961 . S
C1669 C1668 1.502 . S
C1670 H1656 0.960 . S
C1670 H1657 0.961 . S
C1670 H1658 0.959 . S
C1670 C1668 1.561 . S
C1671 C1668 1.526 . S
C1671 C1672 1.396 . S
C1671 C1676 1.390 . S
C1672 C1666 1.465 . S
C1672 C1671 1.396 . S
C1672 C1673 1.399 . S
C1673 H1659 0.929 . S
C1673 C1672 1.399 . S
C1673 C1674 1.385 . S
C1674 H1660 0.931 . S
C1674 C1673 1.385 . S
C1674 C1675 1.389 . S
C1675 C1674 1.389 . S
C1675 C1676 1.387 . S
C1676 H1661 0.930 . S
C1676 C1671 1.390 . S
C1676 C1675 1.387 . S
H1677 C1689 0.930 . S
H1678 C1691 0.930 . S
H1679 C1692 0.930 . S
H1680 C1696 0.959 . S
H1681 C1696 0.959 . S
H1682 C1696 0.961 . S
H1683 C1697 0.960 . S
H1684 C1697 0.961 . S
H1685 C1697 0.959 . S
H1686 C1700 0.929 . S
H1687 C1701 0.931 . S
H1688 C1703 0.930 . S
C1689 H1677 0.930 . S
C1689 C1690 1.399 . S
C1689 C1694 1.399 . S
C1690 C1689 1.399 . S
C1690 C1691 1.376 1_556 S
C1691 H1678 0.930 . S
C1691 C1690 1.376 1_554 S
C1691 C1692 1.388 1_455 S
C1692 H1679 0.930 . S
C1692 C1691 1.388 1_655 S
C1692 C1693 1.390 1_554 S
C1693 C1692 1.390 1_556 S
C1693 C1694 1.394 1_655 S
C1693 C1699 1.465 . S
C1694 C1689 1.399 . S
C1694 C1693 1.394 1_455 S
C1694 C1695 1.516 . S
C1695 C1694 1.516 . S
C1695 C1696 1.502 . S
C1695 C1697 1.561 1_455 S
C1695 C1698 1.526 1_455 S
C1696 H1680 0.959 . S
C1696 H1681 0.959 . S
C1696 H1682 0.961 . S
C1696 C1695 1.502 . S
C1697 H1683 0.960 . S
C1697 H1684 0.961 . S
C1697 H1685 0.959 . S
C1697 C1695 1.561 1_655 S
C1698 C1695 1.526 1_655 S
C1698 C1699 1.396 . S
C1698 C1703 1.390 . S
C1699 C1693 1.465 . S
C1699 C1698 1.396 . S
C1699 C1700 1.399 1_556 S
C1700 H1686 0.929 . S
C1700 C1699 1.399 1_554 S
C1700 C1701 1.385 . S
C1701 H1687 0.931 . S
C1701 C1700 1.385 . S
C1701 C1702 1.389 1_554 S
C1702 C1701 1.389 1_556 S
C1702 C1703 1.387 . S
C1703 H1688 0.930 . S
C1703 C1698 1.390 . S
C1703 C1702 1.387 . S
H1704 C1716 0.930 . S
H1705 C1718 0.930 . S
H1706 C1719 0.930 . S
H1707 C1723 0.959 . S
H1708 C1723 0.959 . S
H1709 C1723 0.961 1_655 S
H1710 C1724 0.960 . S
H1711 C1724 0.961 1_455 S
H1712 C1724 0.959 . S
H1713 C1727 0.929 . S
H1714 C1728 0.931 . S
H1715 C1730 0.930 . S
C1716 H1704 0.930 . S
C1716 C1717 1.399 . S
C1716 C1721 1.399 . S
C1717 C1716 1.399 . S
C1717 C1718 1.376 . S
C1718 H1705 0.930 . S
C1718 C1717 1.376 . S
C1718 C1719 1.388 . S
C1719 H1706 0.930 . S
C1719 C1718 1.388 . S
C1719 C1720 1.390 . S
C1720 C1719 1.390 . S
C1720 C1721 1.394 . S
C1720 C1726 1.465 1_655 S
C1721 C1716 1.399 . S
C1721 C1720 1.394 . S
C1721 C1722 1.543 . S
C1722 C1721 1.543 . S
C1722 C1723 1.493 1_655 S
C1722 C1724 1.571 . S
C1722 C1725 1.498 1_655 S
C1723 H1707 0.959 . S
C1723 H1708 0.959 . S
C1723 H1709 0.961 1_455 S
C1723 C1722 1.493 1_455 S
C1724 H1710 0.960 . S
C1724 H1711 0.961 1_655 S
C1724 H1712 0.959 . S
C1724 C1722 1.571 . S
C1725 C1722 1.498 1_455 S
C1725 C1726 1.396 . S
C1725 C1730 1.390 . S
C1726 C1720 1.465 1_455 S
C1726 C1725 1.396 . S
C1726 C1727 1.399 . S
C1727 H1713 0.929 . S
C1727 C1726 1.399 . S
C1727 C1728 1.385 . S
C1728 H1714 0.931 . S
C1728 C1727 1.385 . S
C1728 C1729 1.389 . S
C1729 C1728 1.389 . S
C1729 C1730 1.387 . S
C1730 H1715 0.930 . S
C1730 C1725 1.390 . S
C1730 C1729 1.387 . S
H1731 C1743 0.930 . S
H1732 C1745 0.930 . S
H1733 C1746 0.930 . S
H1734 C1750 0.959 . S
H1735 C1750 0.959 . S
H1736 C1750 0.961 . S
H1737 C1751 0.960 . S
H1738 C1751 0.961 . S
H1739 C1751 0.959 . S
H1740 C1754 0.929 . S
H1741 C1755 0.931 . S
H1742 C1757 0.930 . S
C1743 H1731 0.930 . S
C1743 C1744 1.399 . S
C1743 C1748 1.399 . S
C1744 C1743 1.399 . S
C1744 C1745 1.376 . S
C1745 H1732 0.930 . S
C1745 C1744 1.376 . S
C1745 C1746 1.388 1_455 S
C1746 H1733 0.930 . S
C1746 C1745 1.388 1_655 S
C1746 C1747 1.390 . S
C1747 C1746 1.390 . S
C1747 C1748 1.394 1_655 S
C1747 C1753 1.465 . S
C1748 C1743 1.399 . S
C1748 C1747 1.394 1_455 S
C1748 C1749 1.516 . S
C1749 C1748 1.516 . S
C1749 C1750 1.502 . S
C1749 C1751 1.561 1_455 S
C1749 C1752 1.526 1_455 S
C1750 H1734 0.959 . S
C1750 H1735 0.959 . S
C1750 H1736 0.961 . S
C1750 C1749 1.502 . S
C1751 H1737 0.960 . S
C1751 H1738 0.961 . S
C1751 H1739 0.959 . S
C1751 C1749 1.561 1_655 S
C1752 C1749 1.526 1_655 S
C1752 C1753 1.396 . S
C1752 C1757 1.390 . S
C1753 C1747 1.465 . S
C1753 C1752 1.396 . S
C1753 C1754 1.399 . S
C1754 H1740 0.929 . S
C1754 C1753 1.399 . S
C1754 C1755 1.385 . S
C1755 H1741 0.931 . S
C1755 C1754 1.385 . S
C1755 C1756 1.389 . S
C1756 C1755 1.389 . S
C1756 C1757 1.387 . S
C1757 H1742 0.930 . S
C1757 C1752 1.390 . S
C1757 C1756 1.387 . S
H1758 C1770 0.930 . S
H1759 C1772 0.930 . S
H1760 C1773 0.930 . S
H1761 C1777 0.959 . S
H1762 C1777 0.959 . S
H1763 C1777 0.961 . S
H1764 C1778 0.960 . S
H1765 C1778 0.961 . S
H1766 C1778 0.959 . S
H1767 C1781 0.929 . S
H1768 C1782 0.931 . S
H1769 C1784 0.930 . S
C1770 H1758 0.930 . S
C1770 C1771 1.399 . S
C1770 C1775 1.399 . S
C1771 C1770 1.399 . S
C1771 C1772 1.376 . S
C1772 H1759 0.930 . S
C1772 C1771 1.376 . S
C1772 C1773 1.388 . S
C1773 H1760 0.930 . S
C1773 C1772 1.388 . S
C1773 C1774 1.390 . S
C1774 C1773 1.390 . S
C1774 C1775 1.394 . S
C1774 C1780 1.465 . S
C1775 C1770 1.399 . S
C1775 C1774 1.394 . S
C1775 C1776 1.516 . S
C1776 C1775 1.516 . S
C1776 C1777 1.502 . S
C1776 C1778 1.561 . S
C1776 C1779 1.526 . S
C1777 H1761 0.959 . S
C1777 H1762 0.959 . S
C1777 H1763 0.961 . S
C1777 C1776 1.502 . S
C1778 H1764 0.960 . S
C1778 H1765 0.961 . S
C1778 H1766 0.959 . S
C1778 C1776 1.561 . S
C1779 C1776 1.526 . S
C1779 C1780 1.396 . S
C1779 C1784 1.390 . S
C1780 C1774 1.465 . S
C1780 C1779 1.396 . S
C1780 C1781 1.399 . S
C1781 H1767 0.929 . S
C1781 C1780 1.399 . S
C1781 C1782 1.385 . S
C1782 H1768 0.931 . S
C1782 C1781 1.385 . S
C1782 C1783 1.389 . S
C1783 C1782 1.389 . S
C1783 C1784 1.387 . S
C1784 H1769 0.930 . S
C1784 C1779 1.390 . S
C1784 C1783 1.387 . S
H1785 C1797 0.930 . S
H1786 C1799 0.930 . S
H1787 C1800 0.930 . S
H1788 C1804 0.959 . S
H1789 C1804 0.959 . S
H1790 C1804 0.961 . S
H1791 C1805 0.960 . S
H1792 C1805 0.961 . S
H1793 C1805 0.959 . S
H1794 C1808 0.929 . S
H1795 C1809 0.931 . S
H1796 C1811 0.930 . S
C1797 H1785 0.930 . S
C1797 C1798 1.399 . S
C1797 C1802 1.399 . S
C1798 C1797 1.399 . S
C1798 C1799 1.376 1_556 S
C1799 H1786 0.930 . S
C1799 C1798 1.376 1_554 S
C1799 C1800 1.388 . S
C1800 H1787 0.930 . S
C1800 C1799 1.388 . S
C1800 C1801 1.390 1_554 S
C1801 C1800 1.390 1_556 S
C1801 C1802 1.394 . S
C1801 C1807 1.465 . S
C1802 C1797 1.399 . S
C1802 C1801 1.394 . S
C1802 C1803 1.516 . S
C1803 C1802 1.516 . S
C1803 C1804 1.502 . S
C1803 C1805 1.561 . S
C1803 C1806 1.526 . S
C1804 H1788 0.959 . S
C1804 H1789 0.959 . S
C1804 H1790 0.961 . S
C1804 C1803 1.502 . S
C1805 H1791 0.960 . S
C1805 H1792 0.961 . S
C1805 H1793 0.959 . S
C1805 C1803 1.561 . S
C1806 C1803 1.526 . S
C1806 C1807 1.396 . S
C1806 C1811 1.390 . S
C1807 C1801 1.465 . S
C1807 C1806 1.396 . S
C1807 C1808 1.399 1_556 S
C1808 H1794 0.929 . S
C1808 C1807 1.399 1_554 S
C1808 C1809 1.385 . S
C1809 H1795 0.931 . S
C1809 C1808 1.385 . S
C1809 C1810 1.389 1_554 S
C1810 C1809 1.389 1_556 S
C1810 C1811 1.387 . S
C1811 H1796 0.930 . S
C1811 C1806 1.390 . S
C1811 C1810 1.387 . S
H1812 C1824 0.930 . S
H1813 C1826 0.930 . S
H1814 C1827 0.930 . S
H1815 C1831 0.959 . S
H1816 C1831 0.959 1_455 S
H1817 C1831 0.961 . S
H1818 C1832 0.960 1_655 S
H1819 C1832 0.961 . S
H1820 C1832 0.959 . S
H1821 C1835 0.929 . S
H1822 C1836 0.931 . S
H1823 C1838 0.930 . S
C1824 H1812 0.930 . S
C1824 C1825 1.399 . S
C1824 C1829 1.399 . S
C1825 C1824 1.399 . S
C1825 C1826 1.376 . S
C1826 H1813 0.930 . S
C1826 C1825 1.376 . S
C1826 C1827 1.388 . S
C1827 H1814 0.930 . S
C1827 C1826 1.388 . S
C1827 C1828 1.390 . S
C1828 C1827 1.390 . S
C1828 C1829 1.394 . S
C1828 C1834 1.465 1_655 S
C1829 C1824 1.399 . S
C1829 C1828 1.394 . S
C1829 C1830 1.516 . S
C1830 C1829 1.516 . S
C1830 C1831 1.502 . S
C1830 C1832 1.561 1_655 S
C1830 C1833 1.526 1_655 S
C1831 H1815 0.959 . S
C1831 H1816 0.959 1_655 S
C1831 H1817 0.961 . S
C1831 C1830 1.502 . S
C1832 H1818 0.960 1_455 S
C1832 H1819 0.961 . S
C1832 H1820 0.959 . S
C1832 C1830 1.561 1_455 S
C1833 C1830 1.526 1_455 S
C1833 C1834 1.396 . S
C1833 C1838 1.390 . S
C1834 C1828 1.465 1_455 S
C1834 C1833 1.396 . S
C1834 C1835 1.399 . S
C1835 H1821 0.929 . S
C1835 C1834 1.399 . S
C1835 C1836 1.385 . S
C1836 H1822 0.931 . S
C1836 C1835 1.385 . S
C1836 C1837 1.389 . S
C1837 C1836 1.389 . S
C1837 C1838 1.387 . S
C1838 H1823 0.930 . S
C1838 C1833 1.390 . S
C1838 C1837 1.387 . S
H1839 C1851 0.930 . S
H1840 C1853 0.930 . S
H1841 C1854 0.930 . S
H1842 C1858 0.959 . S
H1843 C1858 0.959 . S
H1844 C1858 0.961 . S
H1845 C1859 0.960 . S
H1846 C1859 0.961 . S
H1847 C1859 0.959 . S
H1848 C1862 0.929 . S
H1849 C1863 0.931 . S
H1850 C1865 0.930 . S
C1851 H1839 0.930 . S
C1851 C1852 1.399 . S
C1851 C1856 1.399 . S
C1852 C1851 1.399 . S
C1852 C1853 1.376 . S
C1853 H1840 0.930 . S
C1853 C1852 1.376 . S
C1853 C1854 1.388 . S
C1854 H1841 0.930 . S
C1854 C1853 1.388 . S
C1854 C1855 1.390 . S
C1855 C1854 1.390 . S
C1855 C1856 1.394 . S
C1855 C1861 1.465 . S
C1856 C1851 1.399 . S
C1856 C1855 1.394 . S
C1856 C1857 1.516 . S
C1857 C1856 1.516 . S
C1857 C1858 1.502 . S
C1857 C1859 1.561 . S
C1857 C1860 1.526 . S
C1858 H1842 0.959 . S
C1858 H1843 0.959 . S
C1858 H1844 0.961 . S
C1858 C1857 1.502 . S
C1859 H1845 0.960 . S
C1859 H1846 0.961 . S
C1859 H1847 0.959 . S
C1859 C1857 1.561 . S
C1860 C1857 1.526 . S
C1860 C1861 1.396 . S
C1860 C1865 1.390 . S
C1861 C1855 1.465 . S
C1861 C1860 1.396 . S
C1861 C1862 1.399 . S
C1862 H1848 0.929 . S
C1862 C1861 1.399 . S
C1862 C1863 1.385 . S
C1863 H1849 0.931 . S
C1863 C1862 1.385 . S
C1863 C1864 1.389 . S
C1864 C1863 1.389 . S
C1864 C1865 1.387 . S
C1865 H1850 0.930 . S
C1865 C1860 1.390 . S
C1865 C1864 1.387 . S
H1866 C1878 0.930 . S
H1867 C1880 0.930 . S
H1868 C1881 0.930 . S
H1869 C1885 0.959 . S
H1870 C1885 0.959 . S
H1871 C1885 0.961 . S
H1872 C1886 0.960 . S
H1873 C1886 0.961 . S
H1874 C1886 0.959 . S
H1875 C1889 0.929 . S
H1876 C1890 0.931 . S
H1877 C1892 0.930 . S
C1878 H1866 0.930 . S
C1878 C1879 1.399 . S
C1878 C1883 1.399 . S
C1879 C1878 1.399 . S
C1879 C1880 1.376 . S
C1880 H1867 0.930 . S
C1880 C1879 1.376 . S
C1880 C1881 1.388 . S
C1881 H1868 0.930 . S
C1881 C1880 1.388 . S
C1881 C1882 1.390 . S
C1882 C1881 1.390 . S
C1882 C1883 1.394 . S
C1882 C1888 1.465 . S
C1883 C1878 1.399 . S
C1883 C1882 1.394 . S
C1883 C1884 1.516 . S
C1884 C1883 1.516 . S
C1884 C1885 1.502 . S
C1884 C1886 1.561 . S
C1884 C1887 1.526 . S
C1885 H1869 0.959 . S
C1885 H1870 0.959 . S
C1885 H1871 0.961 . S
C1885 C1884 1.502 . S
C1886 H1872 0.960 . S
C1886 H1873 0.961 . S
C1886 H1874 0.959 . S
C1886 C1884 1.561 . S
C1887 C1884 1.526 . S
C1887 C1888 1.396 . S
C1887 C1892 1.390 . S
C1888 C1882 1.465 . S
C1888 C1887 1.396 . S
C1888 C1889 1.399 . S
C1889 H1875 0.929 . S
C1889 C1888 1.399 . S
C1889 C1890 1.385 . S
C1890 H1876 0.931 . S
C1890 C1889 1.385 . S
C1890 C1891 1.389 . S
C1891 C1890 1.389 . S
C1891 C1892 1.387 . S
C1892 H1877 0.930 . S
C1892 C1887 1.390 . S
C1892 C1891 1.387 . S
H1893 C1905 0.919 1_556 S
H1894 C1907 0.930 . S
H1895 C1908 0.930 . S
H1896 C1912 0.959 . S
H1897 C1912 0.959 . S
H1898 C1912 0.961 . S
H1899 C1913 0.960 . S
H1900 C1913 0.961 . S
H1901 C1913 0.959 . S
H1902 C1916 0.929 . S
H1903 C1917 0.931 . S
H1904 C1919 0.903 1_556 S
C1905 H1893 0.919 1_554 S
C1905 C1906 1.408 . S
C1905 C1910 1.401 . S
C1906 C1905 1.408 . S
C1906 C1907 1.376 . S
C1907 H1894 0.930 . S
C1907 C1906 1.376 . S
C1907 C1908 1.388 1_455 S
C1908 H1895 0.930 . S
C1908 C1907 1.388 1_655 S
C1908 C1909 1.390 . S
C1909 C1908 1.390 . S
C1909 C1910 1.394 1_655 S
C1909 C1915 1.465 . S
C1910 C1905 1.401 . S
C1910 C1909 1.394 1_455 S
C1910 C1911 1.516 1_554 S
C1911 C1910 1.516 1_556 S
C1911 C1912 1.502 . S
C1911 C1913 1.561 1_455 S
C1911 C1914 1.526 1_456 S
C1912 H1896 0.959 . S
C1912 H1897 0.959 . S
C1912 H1898 0.961 . S
C1912 C1911 1.502 . S
C1913 H1899 0.960 . S
C1913 H1900 0.961 . S
C1913 H1901 0.959 . S
C1913 C1911 1.561 1_655 S
C1914 C1911 1.526 1_654 S
C1914 C1915 1.396 . S
C1914 C1919 1.395 . S
C1915 C1909 1.465 . S
C1915 C1914 1.396 . S
C1915 C1916 1.399 . S
C1916 H1902 0.929 . S
C1916 C1915 1.399 . S
C1916 C1917 1.385 . S
C1917 H1903 0.931 . S
C1917 C1916 1.385 . S
C1917 C1918 1.389 . S
C1918 C1917 1.389 . S
C1918 C1919 1.409 . S
C1919 H1904 0.903 1_554 S
C1919 C1914 1.395 . S
C1919 C1918 1.409 . S
H1920 C1932 0.930 . S
H1921 C1934 0.930 . S
H1922 C1935 0.930 . S
H1923 C1939 0.959 . S
H1924 C1939 0.959 . S
H1925 C1939 0.961 . S
H1926 C1940 0.960 . S
H1927 C1940 0.961 . S
H1928 C1940 0.959 . S
H1929 C1943 0.929 . S
H1930 C1944 0.931 . S
H1931 C1946 0.930 . S
C1932 H1920 0.930 . S
C1932 C1933 1.399 . S
C1932 C1937 1.399 . S
C1933 C1932 1.399 . S
C1933 C1934 1.376 . S
C1934 H1921 0.930 . S
C1934 C1933 1.376 . S
C1934 C1935 1.388 . S
C1935 H1922 0.930 . S
C1935 C1934 1.388 . S
C1935 C1936 1.390 . S
C1936 C1935 1.390 . S
C1936 C1937 1.394 . S
C1936 C1942 1.465 . S
C1937 C1932 1.399 . S
C1937 C1936 1.394 . S
C1937 C1938 1.516 . S
C1938 C1937 1.516 . S
C1938 C1939 1.502 . S
C1938 C1940 1.561 . S
C1938 C1941 1.526 . S
C1939 H1923 0.959 . S
C1939 H1924 0.959 . S
C1939 H1925 0.961 . S
C1939 C1938 1.502 . S
C1940 H1926 0.960 . S
C1940 H1927 0.961 . S
C1940 H1928 0.959 . S
C1940 C1938 1.561 . S
C1941 C1938 1.526 . S
C1941 C1942 1.396 . S
C1941 C1946 1.390 . S
C1942 C1936 1.465 . S
C1942 C1941 1.396 . S
C1942 C1943 1.399 . S
C1943 H1929 0.929 . S
C1943 C1942 1.399 . S
C1943 C1944 1.385 . S
C1944 H1930 0.931 . S
C1944 C1943 1.385 . S
C1944 C1945 1.389 . S
C1945 C1944 1.389 . S
C1945 C1946 1.387 . S
C1946 H1931 0.930 . S
C1946 C1941 1.390 . S
C1946 C1945 1.387 . S
H1947 C1959 0.930 . S
H1948 C1961 0.930 . S
H1949 C1962 0.930 . S
H1950 C1966 0.959 . S
H1951 C1966 0.959 . S
H1952 C1966 0.961 . S
H1953 C1967 0.960 . S
H1954 C1967 0.961 . S
H1955 C1967 0.959 . S
H1956 C1970 0.929 . S
H1957 C1971 0.931 1_455 S
H1958 C1973 0.930 . S
C1959 H1947 0.930 . S
C1959 C1960 1.399 . S
C1959 C1964 1.399 . S
C1960 C1959 1.399 . S
C1960 C1961 1.376 . S
C1961 H1948 0.930 . S
C1961 C1960 1.376 . S
C1961 C1962 1.388 . S
C1962 H1949 0.930 . S
C1962 C1961 1.388 . S
C1962 C1963 1.390 . S
C1963 C1962 1.390 . S
C1963 C1964 1.394 . S
C1963 C1969 1.465 . S
C1964 C1959 1.399 . S
C1964 C1963 1.394 . S
C1964 C1965 1.516 . S
C1965 C1964 1.516 . S
C1965 C1966 1.502 . S
C1965 C1967 1.561 . S
C1965 C1968 1.526 . S
C1966 H1950 0.959 . S
C1966 H1951 0.959 . S
C1966 H1952 0.961 . S
C1966 C1965 1.502 . S
C1967 H1953 0.960 . S
C1967 H1954 0.961 . S
C1967 H1955 0.959 . S
C1967 C1965 1.561 . S
C1968 C1965 1.526 . S
C1968 C1969 1.396 . S
C1968 C1973 1.390 . S
C1969 C1963 1.465 . S
C1969 C1968 1.396 . S
C1969 C1970 1.399 . S
C1970 H1956 0.929 . S
C1970 C1969 1.399 . S
C1970 C1971 1.385 . S
C1971 H1957 0.931 1_655 S
C1971 C1970 1.385 . S
C1971 C1972 1.389 . S
C1972 C1971 1.389 . S
C1972 C1973 1.387 . S
C1973 H1958 0.930 . S
C1973 C1968 1.390 . S
C1973 C1972 1.387 . S
H1974 C1986 0.930 . S
H1975 C1988 0.930 . S
H1976 C1989 0.930 . S
H1977 C1993 0.959 . S
H1978 C1993 0.959 . S
H1979 C1993 0.961 . S
H1980 C1994 0.960 . S
H1981 C1994 0.961 . S
H1982 C1994 0.959 . S
H1983 C1997 0.929 . S
H1984 C1998 0.931 . S
H1985 C2000 0.930 . S
C1986 H1974 0.930 . S
C1986 C1987 1.399 . S
C1986 C1991 1.399 . S
C1987 C1986 1.399 . S
C1987 C1988 1.376 . S
C1988 H1975 0.930 . S
C1988 C1987 1.376 . S
C1988 C1989 1.388 . S
C1989 H1976 0.930 . S
C1989 C1988 1.388 . S
C1989 C1990 1.390 . S
C1990 C1989 1.390 . S
C1990 C1991 1.394 . S
C1990 C1996 1.465 . S
C1991 C1986 1.399 . S
C1991 C1990 1.394 . S
C1991 C1992 1.516 . S
C1992 C1991 1.516 . S
C1992 C1993 1.502 . S
C1992 C1994 1.561 . S
C1992 C1995 1.526 . S
C1993 H1977 0.959 . S
C1993 H1978 0.959 . S
C1993 H1979 0.961 . S
C1993 C1992 1.502 . S
C1994 H1980 0.960 . S
C1994 H1981 0.961 . S
C1994 H1982 0.959 . S
C1994 C1992 1.561 . S
C1995 C1992 1.526 . S
C1995 C1996 1.396 . S
C1995 C2000 1.390 . S
C1996 C1990 1.465 . S
C1996 C1995 1.396 . S
C1996 C1997 1.399 . S
C1997 H1983 0.929 . S
C1997 C1996 1.399 . S
C1997 C1998 1.385 . S
C1998 H1984 0.931 . S
C1998 C1997 1.385 . S
C1998 C1999 1.389 . S
C1999 C1998 1.389 . S
C1999 C2000 1.387 . S
C2000 H1985 0.930 . S
C2000 C1995 1.390 . S
C2000 C1999 1.387 . S
H2001 C2013 0.930 . S
H2002 C2015 0.930 . S
H2003 C2016 0.930 . S
H2004 C2020 0.959 . S
H2005 C2020 0.959 . S
H2006 C2020 0.961 . S
H2007 C2021 0.960 . S
H2008 C2021 0.961 . S
H2009 C2021 0.959 . S
H2010 C2024 0.929 . S
H2011 C2025 0.931 . S
H2012 C2027 0.930 . S
C2013 H2001 0.930 . S
C2013 C2014 1.399 . S
C2013 C2018 1.399 . S
C2014 C2013 1.399 . S
C2014 C2015 1.376 . S
C2015 H2002 0.930 . S
C2015 C2014 1.376 . S
C2015 C2016 1.388 . S
C2016 H2003 0.930 . S
C2016 C2015 1.388 . S
C2016 C2017 1.390 . S
C2017 C2016 1.390 . S
C2017 C2018 1.394 . S
C2017 C2023 1.465 . S
C2018 C2013 1.399 . S
C2018 C2017 1.394 . S
C2018 C2019 1.516 . S
C2019 C2018 1.516 . S
C2019 C2020 1.502 . S
C2019 C2021 1.561 . S
C2019 C2022 1.526 . S
C2020 H2004 0.959 . S
C2020 H2005 0.959 . S
C2020 H2006 0.961 . S
C2020 C2019 1.502 . S
C2021 H2007 0.960 . S
C2021 H2008 0.961 . S
C2021 H2009 0.959 . S
C2021 C2019 1.561 . S
C2022 C2019 1.526 . S
C2022 C2023 1.396 . S
C2022 C2027 1.390 . S
C2023 C2017 1.465 . S
C2023 C2022 1.396 . S
C2023 C2024 1.399 . S
C2024 H2010 0.929 . S
C2024 C2023 1.399 . S
C2024 C2025 1.385 . S
C2025 H2011 0.931 . S
C2025 C2024 1.385 . S
C2025 C2026 1.389 . S
C2026 C2025 1.389 . S
C2026 C2027 1.387 . S
C2027 H2012 0.930 . S
C2027 C2022 1.390 . S
C2027 C2026 1.387 . S
H2028 C2040 0.930 . S
H2029 C2042 0.930 . S
H2030 C2043 0.930 . S
H2031 C2047 0.959 . S
H2032 C2047 0.959 . S
H2033 C2047 0.961 . S
H2034 C2048 0.960 . S
H2035 C2048 0.961 . S
H2036 C2048 0.959 . S
H2037 C2051 0.929 . S
H2038 C2052 0.931 . S
H2039 C2054 0.930 . S
C2040 H2028 0.930 . S
C2040 C2041 1.399 . S
C2040 C2045 1.399 . S
C2041 C2040 1.399 . S
C2041 C2042 1.376 . S
C2042 H2029 0.930 . S
C2042 C2041 1.376 . S
C2042 C2043 1.388 . S
C2043 H2030 0.930 . S
C2043 C2042 1.388 . S
C2043 C2044 1.390 . S
C2044 C2043 1.390 . S
C2044 C2045 1.394 . S
C2044 C2050 1.465 . S
C2045 C2040 1.399 . S
C2045 C2044 1.394 . S
C2045 C2046 1.516 . S
C2046 C2045 1.516 . S
C2046 C2047 1.502 . S
C2046 C2048 1.561 . S
C2046 C2049 1.526 . S
C2047 H2031 0.959 . S
C2047 H2032 0.959 . S
C2047 H2033 0.961 . S
C2047 C2046 1.502 . S
C2048 H2034 0.960 . S
C2048 H2035 0.961 . S
C2048 H2036 0.959 . S
C2048 C2046 1.561 . S
C2049 C2046 1.526 . S
C2049 C2050 1.396 . S
C2049 C2054 1.390 . S
C2050 C2044 1.465 . S
C2050 C2049 1.396 . S
C2050 C2051 1.399 . S
C2051 H2037 0.929 . S
C2051 C2050 1.399 . S
C2051 C2052 1.385 . S
C2052 H2038 0.931 . S
C2052 C2051 1.385 . S
C2052 C2053 1.389 . S
C2053 C2052 1.389 . S
C2053 C2054 1.387 . S
C2054 H2039 0.930 . S
C2054 C2049 1.390 . S
C2054 C2053 1.387 . S
H2055 C2067 0.930 . S
H2056 C2069 0.930 . S
H2057 C2070 0.930 . S
H2058 C2074 0.959 . S
H2059 C2074 0.959 . S
H2060 C2074 0.961 . S
H2061 C2075 0.960 . S
H2062 C2075 0.961 . S
H2063 C2075 0.959 . S
H2064 C2078 0.929 . S
H2065 C2079 0.931 . S
H2066 C2081 0.930 . S
C2067 H2055 0.930 . S
C2067 C2068 1.399 . S
C2067 C2072 1.399 . S
C2068 C2067 1.399 . S
C2068 C2069 1.376 . S
C2069 H2056 0.930 . S
C2069 C2068 1.376 . S
C2069 C2070 1.388 . S
C2070 H2057 0.930 . S
C2070 C2069 1.388 . S
C2070 C2071 1.390 . S
C2071 C2070 1.390 . S
C2071 C2072 1.394 . S
C2071 C2077 1.465 . S
C2072 C2067 1.399 . S
C2072 C2071 1.394 . S
C2072 C2073 1.516 . S
C2073 C2072 1.516 . S
C2073 C2074 1.502 . S
C2073 C2075 1.561 . S
C2073 C2076 1.526 . S
C2074 H2058 0.959 . S
C2074 H2059 0.959 . S
C2074 H2060 0.961 . S
C2074 C2073 1.502 . S
C2075 H2061 0.960 . S
C2075 H2062 0.961 . S
C2075 H2063 0.959 . S
C2075 C2073 1.561 . S
C2076 C2073 1.526 . S
C2076 C2077 1.396 . S
C2076 C2081 1.390 . S
C2077 C2071 1.465 . S
C2077 C2076 1.396 . S
C2077 C2078 1.399 . S
C2078 H2064 0.929 . S
C2078 C2077 1.399 . S
C2078 C2079 1.385 . S
C2079 H2065 0.931 . S
C2079 C2078 1.385 . S
C2079 C2080 1.389 . S
C2080 C2079 1.389 . S
C2080 C2081 1.387 . S
C2081 H2066 0.930 . S
C2081 C2076 1.390 . S
C2081 C2080 1.387 . S
H2082 C2094 0.930 . S
H2083 C2096 0.930 . S
H2084 C2097 0.930 . S
H2085 C2101 0.959 . S
H2086 C2101 0.959 . S
H2087 C2101 0.961 . S
H2088 C2102 0.960 . S
H2089 C2102 0.961 . S
H2090 C2102 0.959 . S
H2091 C2105 0.929 . S
H2092 C2106 0.931 . S
H2093 C2108 0.930 . S
C2094 H2082 0.930 . S
C2094 C2095 1.399 . S
C2094 C2099 1.399 . S
C2095 C2094 1.399 . S
C2095 C2096 1.376 . S
C2096 H2083 0.930 . S
C2096 C2095 1.376 . S
C2096 C2097 1.388 . S
C2097 H2084 0.930 . S
C2097 C2096 1.388 . S
C2097 C2098 1.390 . S
C2098 C2097 1.390 . S
C2098 C2099 1.394 . S
C2098 C2104 1.465 . S
C2099 C2094 1.399 . S
C2099 C2098 1.394 . S
C2099 C2100 1.516 . S
C2100 C2099 1.516 . S
C2100 C2101 1.502 . S
C2100 C2102 1.561 . S
C2100 C2103 1.526 . S
C2101 H2085 0.959 . S
C2101 H2086 0.959 . S
C2101 H2087 0.961 . S
C2101 C2100 1.502 . S
C2102 H2088 0.960 . S
C2102 H2089 0.961 . S
C2102 H2090 0.959 . S
C2102 C2100 1.561 . S
C2103 C2100 1.526 . S
C2103 C2104 1.396 . S
C2103 C2108 1.390 . S
C2104 C2098 1.465 . S
C2104 C2103 1.396 . S
C2104 C2105 1.399 . S
C2105 H2091 0.929 . S
C2105 C2104 1.399 . S
C2105 C2106 1.385 . S
C2106 H2092 0.931 . S
C2106 C2105 1.385 . S
C2106 C2107 1.389 . S
C2107 C2106 1.389 . S
C2107 C2108 1.387 . S
C2108 H2093 0.930 . S
C2108 C2103 1.390 . S
C2108 C2107 1.387 . S
H2109 C2121 0.930 . S
H2110 C2123 0.930 . S
H2111 C2124 0.930 . S
H2112 C2128 0.959 . S
H2113 C2128 0.959 . S
H2114 C2128 0.961 . S
H2115 C2129 0.960 . S
H2116 C2129 0.961 . S
H2117 C2129 0.959 . S
H2118 C2132 0.929 . S
H2119 C2133 0.931 . S
H2120 C2135 0.930 . S
C2121 H2109 0.930 . S
C2121 C2122 1.431 . S
C2121 C2126 1.399 . S
C2122 C2121 1.431 . S
C2122 C2123 1.372 1_655 S
C2123 H2110 0.930 . S
C2123 C2122 1.372 1_455 S
C2123 C2124 1.388 1_455 S
C2124 H2111 0.930 . S
C2124 C2123 1.388 1_655 S
C2124 C2125 1.390 . S
C2125 C2124 1.390 . S
C2125 C2126 1.394 . S
C2125 C2131 1.465 . S
C2126 C2121 1.399 . S
C2126 C2125 1.394 . S
C2126 C2127 1.516 . S
C2127 C2126 1.516 . S
C2127 C2128 1.502 . S
C2127 C2129 1.561 . S
C2127 C2130 1.526 . S
C2128 H2112 0.959 . S
C2128 H2113 0.959 . S
C2128 H2114 0.961 . S
C2128 C2127 1.502 . S
C2129 H2115 0.960 . S
C2129 H2116 0.961 . S
C2129 H2117 0.959 . S
C2129 C2127 1.561 . S
C2130 C2127 1.526 . S
C2130 C2131 1.396 . S
C2130 C2135 1.390 . S
C2131 C2125 1.465 . S
C2131 C2130 1.396 . S
C2131 C2132 1.399 . S
C2132 H2118 0.929 . S
C2132 C2131 1.399 . S
C2132 C2133 1.385 . S
C2133 H2119 0.931 . S
C2133 C2132 1.385 . S
C2133 C2134 1.389 . S
C2134 C2133 1.389 . S
C2134 C2135 1.387 . S
C2135 H2120 0.930 . S
C2135 C2130 1.390 . S
C2135 C2134 1.387 . S
H2136 C2148 0.930 . S
H2137 C2150 0.930 . S
H2138 C2151 0.930 . S
H2139 C2155 0.959 . S
H2140 C2155 0.959 . S
H2141 C2155 0.961 . S
H2142 C2156 0.960 . S
H2143 C2156 0.961 . S
H2144 C2156 0.959 . S
H2145 C2159 0.929 . S
H2146 C2160 0.931 . S
H2147 C2162 0.930 . S
C2148 H2136 0.930 . S
C2148 C2149 1.399 . S
C2148 C2153 1.399 . S
C2149 C2148 1.399 . S
C2149 C2150 1.376 . S
C2150 H2137 0.930 . S
C2150 C2149 1.376 . S
C2150 C2151 1.388 . S
C2151 H2138 0.930 . S
C2151 C2150 1.388 . S
C2151 C2152 1.390 . S
C2152 C2151 1.390 . S
C2152 C2153 1.394 . S
C2152 C2158 1.465 . S
C2153 C2148 1.399 . S
C2153 C2152 1.394 . S
C2153 C2154 1.516 . S
C2154 C2153 1.516 . S
C2154 C2155 1.502 . S
C2154 C2156 1.561 . S
C2154 C2157 1.526 . S
C2155 H2139 0.959 . S
C2155 H2140 0.959 . S
C2155 H2141 0.961 . S
C2155 C2154 1.502 . S
C2156 H2142 0.960 . S
C2156 H2143 0.961 . S
C2156 H2144 0.959 . S
C2156 C2154 1.561 . S
C2157 C2154 1.526 . S
C2157 C2158 1.396 . S
C2157 C2162 1.390 . S
C2158 C2152 1.465 . S
C2158 C2157 1.396 . S
C2158 C2159 1.399 . S
C2159 H2145 0.929 . S
C2159 C2158 1.399 . S
C2159 C2160 1.385 . S
C2160 H2146 0.931 . S
C2160 C2159 1.385 . S
C2160 C2161 1.389 . S
C2161 C2160 1.389 . S
C2161 C2162 1.387 . S
C2162 H2147 0.930 . S
C2162 C2157 1.390 . S
C2162 C2161 1.387 . S
H2163 C2175 0.930 1_655 S
H2164 C2177 0.930 . S
H2165 C2178 0.930 . S
H2166 C2182 0.959 . S
H2167 C2182 0.959 . S
H2168 C2182 0.961 . S
H2169 C2183 0.935 1_655 S
H2170 C2183 0.961 . S
H2171 C2183 0.959 . S
H2172 C2186 0.929 . S
H2173 C2187 0.931 . S
H2174 C2189 0.930 . S
C2175 H2163 0.930 1_455 S
C2175 C2176 1.399 . S
C2175 C2180 1.399 . S
C2176 C2175 1.399 . S
C2176 C2177 1.376 . S
C2177 H2164 0.930 . S
C2177 C2176 1.376 . S
C2177 C2178 1.388 . S
C2178 H2165 0.930 . S
C2178 C2177 1.388 . S
C2178 C2179 1.390 . S
C2179 C2178 1.390 . S
C2179 C2180 1.394 . S
C2179 C2185 1.465 . S
C2180 C2175 1.399 . S
C2180 C2179 1.394 . S
C2180 C2181 1.516 . S
C2181 C2180 1.516 . S
C2181 C2182 1.502 . S
C2181 C2183 1.561 . S
C2181 C2184 1.526 . S
C2182 H2166 0.959 . S
C2182 H2167 0.959 . S
C2182 H2168 0.961 . S
C2182 C2181 1.502 . S
C2183 H2169 0.935 1_455 S
C2183 H2170 0.961 . S
C2183 H2171 0.959 . S
C2183 C2181 1.561 . S
C2184 C2181 1.526 . S
C2184 C2185 1.396 . S
C2184 C2189 1.390 . S
C2185 C2179 1.465 . S
C2185 C2184 1.396 . S
C2185 C2186 1.399 . S
C2186 H2172 0.929 . S
C2186 C2185 1.399 . S
C2186 C2187 1.385 . S
C2187 H2173 0.931 . S
C2187 C2186 1.385 . S
C2187 C2188 1.389 . S
C2188 C2187 1.389 . S
C2188 C2189 1.387 . S
C2189 H2174 0.930 . S
C2189 C2184 1.390 . S
C2189 C2188 1.387 . S
H2190 C2202 0.930 . S
H2191 C2204 0.930 . S
H2192 C2205 0.930 . S
H2193 C2209 0.959 . S
H2194 C2209 0.959 . S
H2195 C2209 0.961 . S
H2196 C2210 0.960 . S
H2197 C2210 0.961 . S
H2198 C2210 0.959 . S
H2199 C2213 0.929 . S
H2200 C2214 0.931 . S
H2201 C2216 0.930 . S
C2202 H2190 0.930 . S
C2202 C2203 1.399 . S
C2202 C2207 1.399 . S
C2203 C2202 1.399 . S
C2203 C2204 1.376 . S
C2204 H2191 0.930 . S
C2204 C2203 1.376 . S
C2204 C2205 1.388 . S
C2205 H2192 0.930 . S
C2205 C2204 1.388 . S
C2205 C2206 1.390 . S
C2206 C2205 1.390 . S
C2206 C2207 1.394 . S
C2206 C2212 1.465 . S
C2207 C2202 1.399 . S
C2207 C2206 1.394 . S
C2207 C2208 1.516 . S
C2208 C2207 1.516 . S
C2208 C2209 1.502 . S
C2208 C2210 1.561 . S
C2208 C2211 1.526 . S
C2209 H2193 0.959 . S
C2209 H2194 0.959 . S
C2209 H2195 0.961 . S
C2209 C2208 1.502 . S
C2210 H2196 0.960 . S
C2210 H2197 0.961 . S
C2210 H2198 0.959 . S
C2210 C2208 1.561 . S
C2211 C2208 1.526 . S
C2211 C2212 1.396 . S
C2211 C2216 1.390 . S
C2212 C2206 1.465 . S
C2212 C2211 1.396 . S
C2212 C2213 1.399 . S
C2213 H2199 0.929 . S
C2213 C2212 1.399 . S
C2213 C2214 1.385 . S
C2214 H2200 0.931 . S
C2214 C2213 1.385 . S
C2214 C2215 1.389 . S
C2215 C2214 1.389 . S
C2215 C2216 1.387 . S
C2216 H2201 0.930 . S
C2216 C2211 1.390 . S
C2216 C2215 1.387 . S
H2217 C2229 0.930 . S
H2218 C2231 0.930 . S
H2219 C2232 0.930 . S
H2220 C2236 0.959 . S
H2221 C2236 0.959 . S
H2222 C2236 0.961 . S
H2223 C2237 0.960 . S
H2224 C2237 0.961 . S
H2225 C2237 0.959 . S
H2226 C2240 0.929 . S
H2227 C2241 0.931 . S
H2228 C2243 0.930 . S
C2229 H2217 0.930 . S
C2229 C2230 1.399 . S
C2229 C2234 1.399 . S
C2230 C2229 1.399 . S
C2230 C2231 1.376 . S
C2231 H2218 0.930 . S
C2231 C2230 1.376 . S
C2231 C2232 1.388 . S
C2232 H2219 0.930 . S
C2232 C2231 1.388 . S
C2232 C2233 1.390 . S
C2233 C2232 1.390 . S
C2233 C2234 1.394 . S
C2233 C2239 1.465 . S
C2234 C2229 1.399 . S
C2234 C2233 1.394 . S
C2234 C2235 1.516 . S
C2235 C2234 1.516 . S
C2235 C2236 1.502 . S
C2235 C2237 1.561 . S
C2235 C2238 1.526 . S
C2236 H2220 0.959 . S
C2236 H2221 0.959 . S
C2236 H2222 0.961 . S
C2236 C2235 1.502 . S
C2237 H2223 0.960 . S
C2237 H2224 0.961 . S
C2237 H2225 0.959 . S
C2237 C2235 1.561 . S
C2238 C2235 1.526 . S
C2238 C2239 1.396 . S
C2238 C2243 1.390 . S
C2239 C2233 1.465 . S
C2239 C2238 1.396 . S
C2239 C2240 1.399 . S
C2240 H2226 0.929 . S
C2240 C2239 1.399 . S
C2240 C2241 1.385 . S
C2241 H2227 0.931 . S
C2241 C2240 1.385 . S
C2241 C2242 1.389 . S
C2242 C2241 1.389 . S
C2242 C2243 1.387 . S
C2243 H2228 0.930 . S
C2243 C2238 1.390 . S
C2243 C2242 1.387 . S
H2244 C2256 0.930 . S
H2245 C2258 0.930 . S
H2246 C2259 0.930 . S
H2247 C2263 0.959 . S
H2248 C2263 0.959 . S
H2249 C2263 0.961 . S
H2250 C2264 0.960 . S
H2251 C2264 0.961 . S
H2252 C2264 0.959 . S
H2253 C2267 0.929 . S
H2254 C2268 0.931 . S
H2255 C2270 0.930 . S
C2256 H2244 0.930 . S
C2256 C2257 1.399 . S
C2256 C2261 1.399 . S
C2257 C2256 1.399 . S
C2257 C2258 1.376 . S
C2258 H2245 0.930 . S
C2258 C2257 1.376 . S
C2258 C2259 1.388 . S
C2259 H2246 0.930 . S
C2259 C2258 1.388 . S
C2259 C2260 1.390 . S
C2260 C2259 1.390 . S
C2260 C2261 1.394 . S
C2260 C2266 1.465 . S
C2261 C2256 1.399 . S
C2261 C2260 1.394 . S
C2261 C2262 1.516 . S
C2262 C2261 1.516 . S
C2262 C2263 1.502 . S
C2262 C2264 1.561 . S
C2262 C2265 1.526 . S
C2263 H2247 0.959 . S
C2263 H2248 0.959 . S
C2263 H2249 0.961 . S
C2263 C2262 1.502 . S
C2264 H2250 0.960 . S
C2264 H2251 0.961 . S
C2264 H2252 0.959 . S
C2264 C2262 1.561 . S
C2265 C2262 1.526 . S
C2265 C2266 1.396 . S
C2265 C2270 1.390 . S
C2266 C2260 1.465 . S
C2266 C2265 1.396 . S
C2266 C2267 1.399 . S
C2267 H2253 0.929 . S
C2267 C2266 1.399 . S
C2267 C2268 1.385 . S
C2268 H2254 0.931 . S
C2268 C2267 1.385 . S
C2268 C2269 1.389 . S
C2269 C2268 1.389 . S
C2269 C2270 1.387 . S
C2270 H2255 0.930 . S
C2270 C2265 1.390 . S
C2270 C2269 1.387 . S
H2271 C2283 0.930 . S
H2272 C2285 0.930 . S
H2273 C2286 0.930 . S
H2274 C2290 0.959 . S
H2275 C2290 0.959 . S
H2276 C2290 0.961 . S
H2277 C2291 0.960 . S
H2278 C2291 0.961 . S
H2279 C2291 0.959 . S
H2280 C2294 0.929 . S
H2281 C2295 0.931 . S
H2282 C2297 0.930 . S
C2283 H2271 0.930 . S
C2283 C2284 1.399 . S
C2283 C2288 1.399 . S
C2284 C2283 1.399 . S
C2284 C2285 1.376 . S
C2285 H2272 0.930 . S
C2285 C2284 1.376 . S
C2285 C2286 1.388 . S
C2286 H2273 0.930 . S
C2286 C2285 1.388 . S
C2286 C2287 1.390 . S
C2287 C2286 1.390 . S
C2287 C2288 1.394 . S
C2287 C2293 1.465 . S
C2288 C2283 1.399 . S
C2288 C2287 1.394 . S
C2288 C2289 1.516 . S
C2289 C2288 1.516 . S
C2289 C2290 1.502 . S
C2289 C2291 1.561 . S
C2289 C2292 1.526 . S
C2290 H2274 0.959 . S
C2290 H2275 0.959 . S
C2290 H2276 0.961 . S
C2290 C2289 1.502 . S
C2291 H2277 0.960 . S
C2291 H2278 0.961 . S
C2291 H2279 0.959 . S
C2291 C2289 1.561 . S
C2292 C2289 1.526 . S
C2292 C2293 1.396 . S
C2292 C2297 1.390 . S
C2293 C2287 1.465 . S
C2293 C2292 1.396 . S
C2293 C2294 1.399 . S
C2294 H2280 0.929 . S
C2294 C2293 1.399 . S
C2294 C2295 1.385 . S
C2295 H2281 0.931 . S
C2295 C2294 1.385 . S
C2295 C2296 1.389 . S
C2296 C2295 1.389 . S
C2296 C2297 1.387 . S
C2297 H2282 0.930 . S
C2297 C2292 1.390 . S
C2297 C2296 1.387 . S
H2298 C2310 0.930 . S
H2299 C2312 0.930 . S
H2300 C2313 0.930 . S
H2301 C2317 0.959 . S
H2302 C2317 0.959 . S
H2303 C2317 0.961 . S
H2304 C2318 0.960 . S
H2305 C2318 0.961 . S
H2306 C2318 0.959 . S
H2307 C2321 0.929 . S
H2308 C2322 0.931 . S
H2309 C2324 0.930 . S
C2310 H2298 0.930 . S
C2310 C2311 1.399 . S
C2310 C2315 1.399 . S
C2311 C2310 1.399 . S
C2311 C2312 1.376 . S
C2312 H2299 0.930 . S
C2312 C2311 1.376 . S
C2312 C2313 1.388 . S
C2313 H2300 0.930 . S
C2313 C2312 1.388 . S
C2313 C2314 1.390 . S
C2314 C2313 1.390 . S
C2314 C2315 1.394 . S
C2314 C2320 1.465 . S
C2315 C2310 1.399 . S
C2315 C2314 1.394 . S
C2315 C2316 1.516 . S
C2316 C2315 1.516 . S
C2316 C2317 1.502 . S
C2316 C2318 1.561 . S
C2316 C2319 1.526 . S
C2317 H2301 0.959 . S
C2317 H2302 0.959 . S
C2317 H2303 0.961 . S
C2317 C2316 1.502 . S
C2318 H2304 0.960 . S
C2318 H2305 0.961 . S
C2318 H2306 0.959 . S
C2318 C2316 1.561 . S
C2319 C2316 1.526 . S
C2319 C2320 1.396 . S
C2319 C2324 1.390 . S
C2320 C2314 1.465 . S
C2320 C2319 1.396 . S
C2320 C2321 1.399 . S
C2321 H2307 0.929 . S
C2321 C2320 1.399 . S
C2321 C2322 1.385 . S
C2322 H2308 0.931 . S
C2322 C2321 1.385 . S
C2322 C2323 1.389 . S
C2323 C2322 1.389 . S
C2323 C2324 1.387 . S
C2324 H2309 0.930 . S
C2324 C2319 1.390 . S
C2324 C2323 1.387 . S
H2325 C2337 0.930 . S
H2326 C2339 0.930 . S
H2327 C2340 0.930 . S
H2328 C2344 0.959 . S
H2329 C2344 0.959 . S
H2330 C2344 0.961 . S
H2331 C2345 0.960 . S
H2332 C2345 0.961 . S
H2333 C2345 0.959 . S
H2334 C2348 0.929 . S
H2335 C2349 0.931 . S
H2336 C2351 0.939 . S
C2337 H2325 0.930 . S
C2337 C2338 1.399 . S
C2337 C2342 1.399 . S
C2338 C2337 1.399 . S
C2338 C2339 1.376 . S
C2339 H2326 0.930 . S
C2339 C2338 1.376 . S
C2339 C2340 1.388 . S
C2340 H2327 0.930 . S
C2340 C2339 1.388 . S
C2340 C2341 1.390 . S
C2341 C2340 1.390 . S
C2341 C2342 1.394 . S
C2341 C2347 1.465 . S
C2342 C2337 1.399 . S
C2342 C2341 1.394 . S
C2342 C2343 1.516 . S
C2343 C2342 1.516 . S
C2343 C2344 1.502 . S
C2343 C2345 1.561 . S
C2343 C2346 1.526 . S
C2344 H2328 0.959 . S
C2344 H2329 0.959 . S
C2344 H2330 0.961 . S
C2344 C2343 1.502 . S
C2345 H2331 0.960 . S
C2345 H2332 0.961 . S
C2345 H2333 0.959 . S
C2345 C2343 1.561 . S
C2346 C2343 1.526 . S
C2346 C2347 1.396 . S
C2346 C2351 1.390 . S
C2347 C2341 1.465 . S
C2347 C2346 1.396 . S
C2347 C2348 1.399 . S
C2348 H2334 0.929 . S
C2348 C2347 1.399 . S
C2348 C2349 1.385 . S
C2349 H2335 0.931 . S
C2349 C2348 1.385 . S
C2349 C2350 1.389 . S
C2350 C2349 1.389 . S
C2350 C2351 1.387 . S
C2351 H2336 0.939 . S
C2351 C2346 1.390 . S
C2351 C2350 1.387 . S
H2352 C2364 0.930 . S
H2353 C2366 0.930 . S
H2354 C2367 0.930 . S
H2355 C2371 0.959 . S
H2356 C2371 0.959 . S
H2357 C2371 0.961 . S
H2358 C2372 0.960 . S
H2359 C2372 0.961 . S
H2360 C2372 0.959 . S
H2361 C2375 0.929 . S
H2362 C2376 0.931 . S
H2363 C2378 0.930 . S
C2364 H2352 0.930 . S
C2364 C2365 1.399 . S
C2364 C2369 1.399 . S
C2365 C2364 1.399 . S
C2365 C2366 1.376 . S
C2366 H2353 0.930 . S
C2366 C2365 1.376 . S
C2366 C2367 1.388 . S
C2367 H2354 0.930 . S
C2367 C2366 1.388 . S
C2367 C2368 1.390 . S
C2368 C2367 1.390 . S
C2368 C2369 1.394 . S
C2368 C2374 1.465 . S
C2369 C2364 1.399 . S
C2369 C2368 1.394 . S
C2369 C2370 1.516 . S
C2370 C2369 1.516 . S
C2370 C2371 1.502 . S
C2370 C2372 1.561 . S
C2370 C2373 1.526 . S
C2371 H2355 0.959 . S
C2371 H2356 0.959 . S
C2371 H2357 0.961 . S
C2371 C2370 1.502 . S
C2372 H2358 0.960 . S
C2372 H2359 0.961 . S
C2372 H2360 0.959 . S
C2372 C2370 1.561 . S
C2373 C2370 1.526 . S
C2373 C2374 1.396 . S
C2373 C2378 1.390 . S
C2374 C2368 1.465 . S
C2374 C2373 1.396 . S
C2374 C2375 1.399 . S
C2375 H2361 0.929 . S
C2375 C2374 1.399 . S
C2375 C2376 1.385 . S
C2376 H2362 0.931 . S
C2376 C2375 1.385 . S
C2376 C2377 1.389 . S
C2377 C2376 1.389 . S
C2377 C2378 1.387 . S
C2378 H2363 0.930 . S
C2378 C2373 1.390 . S
C2378 C2377 1.387 . S
H2379 C2391 0.930 . S
H2380 C2393 0.930 . S
H2381 C2394 0.930 . S
H2382 C2398 0.959 . S
H2383 C2398 0.959 . S
H2384 C2398 0.961 . S
H2385 C2399 0.960 . S
H2386 C2399 0.961 . S
H2387 C2399 0.959 . S
H2388 C2402 0.929 . S
H2389 C2403 0.931 . S
H2390 C2405 0.930 . S
C2391 H2379 0.930 . S
C2391 C2392 1.399 . S
C2391 C2396 1.399 . S
C2392 C2391 1.399 . S
C2392 C2393 1.376 . S
C2393 H2380 0.930 . S
C2393 C2392 1.376 . S
C2393 C2394 1.388 . S
C2394 H2381 0.930 . S
C2394 C2393 1.388 . S
C2394 C2395 1.390 . S
C2395 C2394 1.390 . S
C2395 C2396 1.394 . S
C2395 C2401 1.465 . S
C2396 C2391 1.399 . S
C2396 C2395 1.394 . S
C2396 C2397 1.516 . S
C2397 C2396 1.516 . S
C2397 C2398 1.502 . S
C2397 C2399 1.561 . S
C2397 C2400 1.526 . S
C2398 H2382 0.959 . S
C2398 H2383 0.959 . S
C2398 H2384 0.961 . S
C2398 C2397 1.502 . S
C2399 H2385 0.960 . S
C2399 H2386 0.961 . S
C2399 H2387 0.959 . S
C2399 C2397 1.561 . S
C2400 C2397 1.526 . S
C2400 C2401 1.396 . S
C2400 C2405 1.390 . S
C2401 C2395 1.465 . S
C2401 C2400 1.396 . S
C2401 C2402 1.399 . S
C2402 H2388 0.929 . S
C2402 C2401 1.399 . S
C2402 C2403 1.385 . S
C2403 H2389 0.931 . S
C2403 C2402 1.385 . S
C2403 C2404 1.389 . S
C2404 C2403 1.389 . S
C2404 C2405 1.387 . S
C2405 H2390 0.930 . S
C2405 C2400 1.390 . S
C2405 C2404 1.387 . S
H2406 C2418 0.930 . S
H2407 C2420 0.930 . S
H2408 C2421 0.930 . S
H2409 C2425 0.959 . S
H2410 C2425 0.959 . S
H2411 C2425 0.961 . S
H2412 C2426 0.960 . S
H2413 C2426 0.961 . S
H2414 C2426 0.959 . S
H2415 C2429 0.929 . S
H2416 C2430 0.931 . S
H2417 C2432 0.930 . S
C2418 H2406 0.930 . S
C2418 C2419 1.399 . S
C2418 C2423 1.399 . S
C2419 C2418 1.399 . S
C2419 C2420 1.376 . S
C2420 H2407 0.930 . S
C2420 C2419 1.376 . S
C2420 C2421 1.388 . S
C2421 H2408 0.930 . S
C2421 C2420 1.388 . S
C2421 C2422 1.390 . S
C2422 C2421 1.390 . S
C2422 C2423 1.394 . S
C2422 C2428 1.465 . S
C2423 C2418 1.399 . S
C2423 C2422 1.394 . S
C2423 C2424 1.516 . S
C2424 C2423 1.516 . S
C2424 C2425 1.502 . S
C2424 C2426 1.561 . S
C2424 C2427 1.526 . S
C2425 H2409 0.959 . S
C2425 H2410 0.959 . S
C2425 H2411 0.961 . S
C2425 C2424 1.502 . S
C2426 H2412 0.960 . S
C2426 H2413 0.961 . S
C2426 H2414 0.959 . S
C2426 C2424 1.561 . S
C2427 C2424 1.526 . S
C2427 C2428 1.396 . S
C2427 C2432 1.390 . S
C2428 C2422 1.465 . S
C2428 C2427 1.396 . S
C2428 C2429 1.399 . S
C2429 H2415 0.929 . S
C2429 C2428 1.399 . S
C2429 C2430 1.385 . S
C2430 H2416 0.931 . S
C2430 C2429 1.385 . S
C2430 C2431 1.389 . S
C2431 C2430 1.389 . S
C2431 C2432 1.387 . S
C2432 H2417 0.930 . S
C2432 C2427 1.390 . S
C2432 C2431 1.387 . S
H2433 C2445 0.930 . S
H2434 C2447 0.930 . S
H2435 C2448 0.947 . S
H2436 C2452 0.959 . S
H2437 C2452 0.959 . S
H2438 C2452 0.961 . S
H2439 C2453 0.960 . S
H2440 C2453 0.961 . S
H2441 C2453 0.959 . S
H2442 C2456 0.929 . S
H2443 C2457 0.931 . S
H2444 C2459 0.930 . S
C2445 H2433 0.930 . S
C2445 C2446 1.424 . S
C2445 C2450 1.399 . S
C2446 C2445 1.424 . S
C2446 C2447 1.368 1_455 S
C2447 H2434 0.930 . S
C2447 C2446 1.368 1_655 S
C2447 C2448 1.388 1_655 S
C2448 H2435 0.947 . S
C2448 C2447 1.388 1_455 S
C2448 C2449 1.390 . S
C2449 C2448 1.390 . S
C2449 C2450 1.394 . S
C2449 C2455 1.465 . S
C2450 C2445 1.399 . S
C2450 C2449 1.394 . S
C2450 C2451 1.516 . S
C2451 C2450 1.516 . S
C2451 C2452 1.502 . S
C2451 C2453 1.561 . S
C2451 C2454 1.526 . S
C2452 H2436 0.959 . S
C2452 H2437 0.959 . S
C2452 H2438 0.961 . S
C2452 C2451 1.502 . S
C2453 H2439 0.960 . S
C2453 H2440 0.961 . S
C2453 H2441 0.959 . S
C2453 C2451 1.561 . S
C2454 C2451 1.526 . S
C2454 C2455 1.396 . S
C2454 C2459 1.390 . S
C2455 C2449 1.465 . S
C2455 C2454 1.396 . S
C2455 C2456 1.399 . S
C2456 H2442 0.929 . S
C2456 C2455 1.399 . S
C2456 C2457 1.385 . S
C2457 H2443 0.931 . S
C2457 C2456 1.385 . S
C2457 C2458 1.389 . S
C2458 C2457 1.389 . S
C2458 C2459 1.387 . S
C2459 H2444 0.930 . S
C2459 C2454 1.390 . S
C2459 C2458 1.387 . S
H2460 C2472 0.930 . S
H2461 C2474 0.930 . S
H2462 C2475 0.930 . S
H2463 C2479 0.959 . S
H2464 C2479 0.959 . S
H2465 C2479 0.961 . S
H2466 C2480 0.960 . S
H2467 C2480 0.961 . S
H2468 C2480 0.959 . S
H2469 C2483 0.929 . S
H2470 C2484 0.931 . S
H2471 C2486 0.930 . S
C2472 H2460 0.930 . S
C2472 C2473 1.399 . S
C2472 C2477 1.399 . S
C2473 C2472 1.399 . S
C2473 C2474 1.376 . S
C2474 H2461 0.930 . S
C2474 C2473 1.376 . S
C2474 C2475 1.388 . S
C2475 H2462 0.930 . S
C2475 C2474 1.388 . S
C2475 C2476 1.390 . S
C2476 C2475 1.390 . S
C2476 C2477 1.394 . S
C2476 C2482 1.465 . S
C2477 C2472 1.399 . S
C2477 C2476 1.394 . S
C2477 C2478 1.516 . S
C2478 C2477 1.516 . S
C2478 C2479 1.502 . S
C2478 C2480 1.561 . S
C2478 C2481 1.526 . S
C2479 H2463 0.959 . S
C2479 H2464 0.959 . S
C2479 H2465 0.961 . S
C2479 C2478 1.502 . S
C2480 H2466 0.960 . S
C2480 H2467 0.961 . S
C2480 H2468 0.959 . S
C2480 C2478 1.561 . S
C2481 C2478 1.526 . S
C2481 C2482 1.396 . S
C2481 C2486 1.390 . S
C2482 C2476 1.465 . S
C2482 C2481 1.396 . S
C2482 C2483 1.399 . S
C2483 H2469 0.929 . S
C2483 C2482 1.399 . S
C2483 C2484 1.385 . S
C2484 H2470 0.931 . S
C2484 C2483 1.385 . S
C2484 C2485 1.389 . S
C2485 C2484 1.389 . S
C2485 C2486 1.387 . S
C2486 H2471 0.930 . S
C2486 C2481 1.390 . S
C2486 C2485 1.387 . S
H2487 C2499 0.930 . S
H2488 C2501 0.930 . S
H2489 C2502 0.930 . S
H2490 C2506 0.959 . S
H2491 C2506 0.959 . S
H2492 C2506 0.961 . S
H2493 C2507 0.960 . S
H2494 C2507 0.961 . S
H2495 C2507 0.959 . S
H2496 C2510 0.929 . S
H2497 C2511 0.931 1_655 S
H2498 C2513 0.930 . S
C2499 H2487 0.930 . S
C2499 C2500 1.399 . S
C2499 C2504 1.399 . S
C2500 C2499 1.399 . S
C2500 C2501 1.376 . S
C2501 H2488 0.930 . S
C2501 C2500 1.376 . S
C2501 C2502 1.388 . S
C2502 H2489 0.930 . S
C2502 C2501 1.388 . S
C2502 C2503 1.390 . S
C2503 C2502 1.390 . S
C2503 C2504 1.394 . S
C2503 C2509 1.465 . S
C2504 C2499 1.399 . S
C2504 C2503 1.394 . S
C2504 C2505 1.516 . S
C2505 C2504 1.516 . S
C2505 C2506 1.502 . S
C2505 C2507 1.561 . S
C2505 C2508 1.526 . S
C2506 H2490 0.959 . S
C2506 H2491 0.959 . S
C2506 H2492 0.961 . S
C2506 C2505 1.502 . S
C2507 H2493 0.960 . S
C2507 H2494 0.961 . S
C2507 H2495 0.959 . S
C2507 C2505 1.561 . S
C2508 C2505 1.526 . S
C2508 C2509 1.396 . S
C2508 C2513 1.390 . S
C2509 C2503 1.465 . S
C2509 C2508 1.396 . S
C2509 C2510 1.399 . S
C2510 H2496 0.929 . S
C2510 C2509 1.399 . S
C2510 C2511 1.385 . S
C2511 H2497 0.931 1_455 S
C2511 C2510 1.385 . S
C2511 C2512 1.389 . S
C2512 C2511 1.389 . S
C2512 C2513 1.387 . S
C2513 H2498 0.930 . S
C2513 C2508 1.390 . S
C2513 C2512 1.387 . S
H2514 C2526 0.930 . S
H2515 C2528 0.930 . S
H2516 C2529 0.930 . S
H2517 C2533 0.959 . S
H2518 C2533 0.959 . S
H2519 C2533 0.961 . S
H2520 C2534 0.960 . S
H2521 C2534 0.961 . S
H2522 C2534 0.959 . S
H2523 C2537 0.929 . S
H2524 C2538 0.931 . S
H2525 C2540 0.930 . S
C2526 H2514 0.930 . S
C2526 C2527 1.399 . S
C2526 C2531 1.399 . S
C2527 C2526 1.399 . S
C2527 C2528 1.376 . S
C2528 H2515 0.930 . S
C2528 C2527 1.376 . S
C2528 C2529 1.388 . S
C2529 H2516 0.930 . S
C2529 C2528 1.388 . S
C2529 C2530 1.390 . S
C2530 C2529 1.390 . S
C2530 C2531 1.394 . S
C2530 C2536 1.465 . S
C2531 C2526 1.399 . S
C2531 C2530 1.394 . S
C2531 C2532 1.516 . S
C2532 C2531 1.516 . S
C2532 C2533 1.502 . S
C2532 C2534 1.561 . S
C2532 C2535 1.526 . S
C2533 H2517 0.959 . S
C2533 H2518 0.959 . S
C2533 H2519 0.961 . S
C2533 C2532 1.502 . S
C2534 H2520 0.960 . S
C2534 H2521 0.961 . S
C2534 H2522 0.959 . S
C2534 C2532 1.561 . S
C2535 C2532 1.526 . S
C2535 C2536 1.396 . S
C2535 C2540 1.390 . S
C2536 C2530 1.465 . S
C2536 C2535 1.396 . S
C2536 C2537 1.399 . S
C2537 H2523 0.929 . S
C2537 C2536 1.399 . S
C2537 C2538 1.385 . S
C2538 H2524 0.931 . S
C2538 C2537 1.385 . S
C2538 C2539 1.389 . S
C2539 C2538 1.389 . S
C2539 C2540 1.387 . S
C2540 H2525 0.930 . S
C2540 C2535 1.390 . S
C2540 C2539 1.387 . S
H2541 C2553 0.930 . S
H2542 C2555 0.930 . S
H2543 C2556 0.930 . S
H2544 C2560 0.959 . S
H2545 C2560 0.959 . S
H2546 C2560 0.961 . S
H2547 C2561 0.960 . S
H2548 C2561 0.961 . S
H2549 C2561 0.959 . S
H2550 C2564 0.929 . S
H2551 C2565 0.931 . S
H2552 C2567 0.930 . S
C2553 H2541 0.930 . S
C2553 C2554 1.399 . S
C2553 C2558 1.399 . S
C2554 C2553 1.399 . S
C2554 C2555 1.376 . S
C2555 H2542 0.930 . S
C2555 C2554 1.376 . S
C2555 C2556 1.388 . S
C2556 H2543 0.930 . S
C2556 C2555 1.388 . S
C2556 C2557 1.390 . S
C2557 C2556 1.390 . S
C2557 C2558 1.394 . S
C2557 C2563 1.465 . S
C2558 C2553 1.399 . S
C2558 C2557 1.394 . S
C2558 C2559 1.516 . S
C2559 C2558 1.516 . S
C2559 C2560 1.502 . S
C2559 C2561 1.561 . S
C2559 C2562 1.526 . S
C2560 H2544 0.959 . S
C2560 H2545 0.959 . S
C2560 H2546 0.961 . S
C2560 C2559 1.502 . S
C2561 H2547 0.960 . S
C2561 H2548 0.961 . S
C2561 H2549 0.959 . S
C2561 C2559 1.561 . S
C2562 C2559 1.526 . S
C2562 C2563 1.396 . S
C2562 C2567 1.390 . S
C2563 C2557 1.465 . S
C2563 C2562 1.396 . S
C2563 C2564 1.399 . S
C2564 H2550 0.929 . S
C2564 C2563 1.399 . S
C2564 C2565 1.385 . S
C2565 H2551 0.931 . S
C2565 C2564 1.385 . S
C2565 C2566 1.389 . S
C2566 C2565 1.389 . S
C2566 C2567 1.387 . S
C2567 H2552 0.930 . S
C2567 C2562 1.390 . S
C2567 C2566 1.387 . S
H2568 C2580 0.930 . S
H2569 C2582 0.930 . S
H2570 C2583 0.930 . S
H2571 C2587 0.959 . S
H2572 C2587 0.959 . S
H2573 C2587 0.961 . S
H2574 C2588 0.960 . S
H2575 C2588 0.961 . S
H2576 C2588 0.959 . S
H2577 C2591 0.929 . S
H2578 C2592 0.931 . S
H2579 C2594 0.930 . S
C2580 H2568 0.930 . S
C2580 C2581 1.399 . S
C2580 C2585 1.399 . S
C2581 C2580 1.399 . S
C2581 C2582 1.376 . S
C2582 H2569 0.930 . S
C2582 C2581 1.376 . S
C2582 C2583 1.388 . S
C2583 H2570 0.930 . S
C2583 C2582 1.388 . S
C2583 C2584 1.390 . S
C2584 C2583 1.390 . S
C2584 C2585 1.394 . S
C2584 C2590 1.465 . S
C2585 C2580 1.399 . S
C2585 C2584 1.394 . S
C2585 C2586 1.516 . S
C2586 C2585 1.516 . S
C2586 C2587 1.502 . S
C2586 C2588 1.561 . S
C2586 C2589 1.526 . S
C2587 H2571 0.959 . S
C2587 H2572 0.959 . S
C2587 H2573 0.961 . S
C2587 C2586 1.502 . S
C2588 H2574 0.960 . S
C2588 H2575 0.961 . S
C2588 H2576 0.959 . S
C2588 C2586 1.561 . S
C2589 C2586 1.526 . S
C2589 C2590 1.396 . S
C2589 C2594 1.390 . S
C2590 C2584 1.465 . S
C2590 C2589 1.396 . S
C2590 C2591 1.399 . S
C2591 H2577 0.929 . S
C2591 C2590 1.399 . S
C2591 C2592 1.385 . S
C2592 H2578 0.931 . S
C2592 C2591 1.385 . S
C2592 C2593 1.389 . S
C2593 C2592 1.389 . S
C2593 C2594 1.387 . S
C2594 H2579 0.930 . S
C2594 C2589 1.390 . S
C2594 C2593 1.387 . S
H2595 C2607 0.930 . S
H2596 C2609 0.930 . S
H2597 C2610 0.930 . S
H2598 C2614 0.959 . S
H2599 C2614 0.959 . S
H2600 C2614 0.961 . S
H2601 C2615 0.960 . S
H2602 C2615 0.961 . S
H2603 C2615 0.959 . S
H2604 C2618 0.929 . S
H2605 C2619 0.931 . S
H2606 C2621 0.930 . S
C2607 H2595 0.930 . S
C2607 C2608 1.399 . S
C2607 C2612 1.399 . S
C2608 C2607 1.399 . S
C2608 C2609 1.376 . S
C2609 H2596 0.930 . S
C2609 C2608 1.376 . S
C2609 C2610 1.388 . S
C2610 H2597 0.930 . S
C2610 C2609 1.388 . S
C2610 C2611 1.390 . S
C2611 C2610 1.390 . S
C2611 C2612 1.394 . S
C2611 C2617 1.465 . S
C2612 C2607 1.399 . S
C2612 C2611 1.394 . S
C2612 C2613 1.516 . S
C2613 C2612 1.516 . S
C2613 C2614 1.502 . S
C2613 C2615 1.561 . S
C2613 C2616 1.526 . S
C2614 H2598 0.959 . S
C2614 H2599 0.959 . S
C2614 H2600 0.961 . S
C2614 C2613 1.502 . S
C2615 H2601 0.960 . S
C2615 H2602 0.961 . S
C2615 H2603 0.959 . S
C2615 C2613 1.561 . S
C2616 C2613 1.526 . S
C2616 C2617 1.396 . S
C2616 C2621 1.390 . S
C2617 C2611 1.465 . S
C2617 C2616 1.396 . S
C2617 C2618 1.399 . S
C2618 H2604 0.929 . S
C2618 C2617 1.399 . S
C2618 C2619 1.385 . S
C2619 H2605 0.931 . S
C2619 C2618 1.385 . S
C2619 C2620 1.389 . S
C2620 C2619 1.389 . S
C2620 C2621 1.387 . S
C2621 H2606 0.930 . S
C2621 C2616 1.390 . S
C2621 C2620 1.387 . S
H2622 C2634 0.930 . S
H2623 C2636 0.930 . S
H2624 C2637 0.930 . S
H2625 C2641 0.959 . S
H2626 C2641 0.959 . S
H2627 C2641 0.961 . S
H2628 C2642 0.960 . S
H2629 C2642 0.961 . S
H2630 C2642 0.959 . S
H2631 C2645 0.929 . S
H2632 C2646 0.931 . S
H2633 C2648 0.930 . S
C2634 H2622 0.930 . S
C2634 C2635 1.399 . S
C2634 C2639 1.399 . S
C2635 C2634 1.399 . S
C2635 C2636 1.376 . S
C2636 H2623 0.930 . S
C2636 C2635 1.376 . S
C2636 C2637 1.388 . S
C2637 H2624 0.930 . S
C2637 C2636 1.388 . S
C2637 C2638 1.390 . S
C2638 C2637 1.390 . S
C2638 C2639 1.394 . S
C2638 C2644 1.465 . S
C2639 C2634 1.399 . S
C2639 C2638 1.394 . S
C2639 C2640 1.516 . S
C2640 C2639 1.516 . S
C2640 C2641 1.502 . S
C2640 C2642 1.561 . S
C2640 C2643 1.526 . S
C2641 H2625 0.959 . S
C2641 H2626 0.959 . S
C2641 H2627 0.961 . S
C2641 C2640 1.502 . S
C2642 H2628 0.960 . S
C2642 H2629 0.961 . S
C2642 H2630 0.959 . S
C2642 C2640 1.561 . S
C2643 C2640 1.526 . S
C2643 C2644 1.396 . S
C2643 C2648 1.390 . S
C2644 C2638 1.465 . S
C2644 C2643 1.396 . S
C2644 C2645 1.399 . S
C2645 H2631 0.929 . S
C2645 C2644 1.399 . S
C2645 C2646 1.385 . S
C2646 H2632 0.931 . S
C2646 C2645 1.385 . S
C2646 C2647 1.389 . S
C2647 C2646 1.389 . S
C2647 C2648 1.387 . S
C2648 H2633 0.930 . S
C2648 C2643 1.390 . S
C2648 C2647 1.387 . S
H2649 C2661 0.930 . S
H2650 C2663 0.930 . S
H2651 C2664 0.930 . S
H2652 C2668 0.959 . S
H2653 C2668 0.959 . S
H2654 C2668 0.961 . S
H2655 C2669 0.960 . S
H2656 C2669 0.961 . S
H2657 C2669 0.959 . S
H2658 C2672 0.929 . S
H2659 C2673 0.931 . S
H2660 C2675 0.930 . S
C2661 H2649 0.930 . S
C2661 C2662 1.399 . S
C2661 C2666 1.399 . S
C2662 C2661 1.399 . S
C2662 C2663 1.376 . S
C2663 H2650 0.930 . S
C2663 C2662 1.376 . S
C2663 C2664 1.388 . S
C2664 H2651 0.930 . S
C2664 C2663 1.388 . S
C2664 C2665 1.390 . S
C2665 C2664 1.390 . S
C2665 C2666 1.394 . S
C2665 C2671 1.465 . S
C2666 C2661 1.399 . S
C2666 C2665 1.394 . S
C2666 C2667 1.516 . S
C2667 C2666 1.516 . S
C2667 C2668 1.502 . S
C2667 C2669 1.561 . S
C2667 C2670 1.526 . S
C2668 H2652 0.959 . S
C2668 H2653 0.959 . S
C2668 H2654 0.961 . S
C2668 C2667 1.502 . S
C2669 H2655 0.960 . S
C2669 H2656 0.961 . S
C2669 H2657 0.959 . S
C2669 C2667 1.561 . S
C2670 C2667 1.526 . S
C2670 C2671 1.396 . S
C2670 C2675 1.390 . S
C2671 C2665 1.465 . S
C2671 C2670 1.396 . S
C2671 C2672 1.399 . S
C2672 H2658 0.929 . S
C2672 C2671 1.399 . S
C2672 C2673 1.385 1_655 S
C2673 H2659 0.931 . S
C2673 C2672 1.385 1_455 S
C2673 C2674 1.389 1_455 S
C2674 C2673 1.389 1_655 S
C2674 C2675 1.387 . S
C2675 H2660 0.930 . S
C2675 C2670 1.390 . S
C2675 C2674 1.387 . S
H2676 C2688 0.930 . S
H2677 C2690 0.930 . S
H2678 C2691 0.930 . S
H2679 C2695 0.959 . S
H2680 C2695 0.959 . S
H2681 C2695 0.961 . S
H2682 C2696 0.960 . S
H2683 C2696 0.961 . S
H2684 C2696 0.959 . S
H2685 C2699 0.929 . S
H2686 C2700 0.931 . S
H2687 C2702 0.930 . S
C2688 H2676 0.930 . S
C2688 C2689 1.399 . S
C2688 C2693 1.399 . S
C2689 C2688 1.399 . S
C2689 C2690 1.376 . S
C2690 H2677 0.930 . S
C2690 C2689 1.376 . S
C2690 C2691 1.388 . S
C2691 H2678 0.930 . S
C2691 C2690 1.388 . S
C2691 C2692 1.390 . S
C2692 C2691 1.390 . S
C2692 C2693 1.394 . S
C2692 C2698 1.465 . S
C2693 C2688 1.399 . S
C2693 C2692 1.394 . S
C2693 C2694 1.516 . S
C2694 C2693 1.516 . S
C2694 C2695 1.502 . S
C2694 C2696 1.561 . S
C2694 C2697 1.526 . S
C2695 H2679 0.959 . S
C2695 H2680 0.959 . S
C2695 H2681 0.961 . S
C2695 C2694 1.502 . S
C2696 H2682 0.960 . S
C2696 H2683 0.961 . S
C2696 H2684 0.959 . S
C2696 C2694 1.561 . S
C2697 C2694 1.526 . S
C2697 C2698 1.396 . S
C2697 C2702 1.390 . S
C2698 C2692 1.465 . S
C2698 C2697 1.396 . S
C2698 C2699 1.399 . S
C2699 H2685 0.929 . S
C2699 C2698 1.399 . S
C2699 C2700 1.385 . S
C2700 H2686 0.931 . S
C2700 C2699 1.385 . S
C2700 C2701 1.389 . S
C2701 C2700 1.389 . S
C2701 C2702 1.387 . S
C2702 H2687 0.930 . S
C2702 C2697 1.390 . S
C2702 C2701 1.387 . S
H2703 C2715 0.930 . S
H2704 C2717 0.930 . S
H2705 C2718 0.930 . S
H2706 C2722 0.959 . S
H2707 C2722 0.959 . S
H2708 C2722 0.961 . S
H2709 C2723 0.960 . S
H2710 C2723 0.961 . S
H2711 C2723 0.959 . S
H2712 C2726 0.929 . S
H2713 C2727 0.931 . S
H2714 C2729 0.930 . S
C2715 H2703 0.930 . S
C2715 C2716 1.399 . S
C2715 C2720 1.399 . S
C2716 C2715 1.399 . S
C2716 C2717 1.376 . S
C2717 H2704 0.930 . S
C2717 C2716 1.376 . S
C2717 C2718 1.388 . S
C2718 H2705 0.930 . S
C2718 C2717 1.388 . S
C2718 C2719 1.390 . S
C2719 C2718 1.390 . S
C2719 C2720 1.394 . S
C2719 C2725 1.465 . S
C2720 C2715 1.399 . S
C2720 C2719 1.394 . S
C2720 C2721 1.516 . S
C2721 C2720 1.516 . S
C2721 C2722 1.502 . S
C2721 C2723 1.561 . S
C2721 C2724 1.526 . S
C2722 H2706 0.959 . S
C2722 H2707 0.959 . S
C2722 H2708 0.961 . S
C2722 C2721 1.502 . S
C2723 H2709 0.960 . S
C2723 H2710 0.961 . S
C2723 H2711 0.959 . S
C2723 C2721 1.561 . S
C2724 C2721 1.526 . S
C2724 C2725 1.396 . S
C2724 C2729 1.390 . S
C2725 C2719 1.465 . S
C2725 C2724 1.396 . S
C2725 C2726 1.399 . S
C2726 H2712 0.929 . S
C2726 C2725 1.399 . S
C2726 C2727 1.385 . S
C2727 H2713 0.931 . S
C2727 C2726 1.385 . S
C2727 C2728 1.389 . S
C2728 C2727 1.389 . S
C2728 C2729 1.387 . S
C2729 H2714 0.930 . S
C2729 C2724 1.390 . S
C2729 C2728 1.387 . S
H2730 C2742 0.930 . S
H2731 C2744 0.930 . S
H2732 C2745 0.930 . S
H2733 C2749 0.959 . S
H2734 C2749 0.959 . S
H2735 C2749 0.961 . S
H2736 C2750 0.960 . S
H2737 C2750 0.961 . S
H2738 C2750 0.959 . S
H2739 C2753 0.929 . S
H2740 C2754 0.931 . S
H2741 C2756 0.930 . S
C2742 H2730 0.930 . S
C2742 C2743 1.399 . S
C2742 C2747 1.399 . S
C2743 C2742 1.399 . S
C2743 C2744 1.376 . S
C2744 H2731 0.930 . S
C2744 C2743 1.376 . S
C2744 C2745 1.388 . S
C2745 H2732 0.930 . S
C2745 C2744 1.388 . S
C2745 C2746 1.390 . S
C2746 C2745 1.390 . S
C2746 C2747 1.394 . S
C2746 C2752 1.465 . S
C2747 C2742 1.399 . S
C2747 C2746 1.394 . S
C2747 C2748 1.516 . S
C2748 C2747 1.516 . S
C2748 C2749 1.502 . S
C2748 C2750 1.561 . S
C2748 C2751 1.526 . S
C2749 H2733 0.959 . S
C2749 H2734 0.959 . S
C2749 H2735 0.961 . S
C2749 C2748 1.502 . S
C2750 H2736 0.960 . S
C2750 H2737 0.961 . S
C2750 H2738 0.959 . S
C2750 C2748 1.561 . S
C2751 C2748 1.526 . S
C2751 C2752 1.396 . S
C2751 C2756 1.390 . S
C2752 C2746 1.465 . S
C2752 C2751 1.396 . S
C2752 C2753 1.399 . S
C2753 H2739 0.929 . S
C2753 C2752 1.399 . S
C2753 C2754 1.385 . S
C2754 H2740 0.931 . S
C2754 C2753 1.385 . S
C2754 C2755 1.389 . S
C2755 C2754 1.389 . S
C2755 C2756 1.387 . S
C2756 H2741 0.930 . S
C2756 C2751 1.390 . S
C2756 C2755 1.387 . S
H2757 C2769 0.930 . S
H2758 C2771 0.930 . S
H2759 C2772 0.930 . S
H2760 C2776 0.959 . S
H2761 C2776 0.959 . S
H2762 C2776 0.961 . S
H2763 C2777 0.960 . S
H2764 C2777 0.961 . S
H2765 C2777 0.959 . S
H2766 C2780 0.929 . S
H2767 C2781 0.931 . S
H2768 C2783 0.930 . S
C2769 H2757 0.930 . S
C2769 C2770 1.399 . S
C2769 C2774 1.399 . S
C2770 C2769 1.399 . S
C2770 C2771 1.376 . S
C2771 H2758 0.930 . S
C2771 C2770 1.376 . S
C2771 C2772 1.388 . S
C2772 H2759 0.930 . S
C2772 C2771 1.388 . S
C2772 C2773 1.390 . S
C2773 C2772 1.390 . S
C2773 C2774 1.394 . S
C2773 C2779 1.465 . S
C2774 C2769 1.399 . S
C2774 C2773 1.394 . S
C2774 C2775 1.516 . S
C2775 C2774 1.516 . S
C2775 C2776 1.502 . S
C2775 C2777 1.561 . S
C2775 C2778 1.526 . S
C2776 H2760 0.959 . S
C2776 H2761 0.959 . S
C2776 H2762 0.961 . S
C2776 C2775 1.502 . S
C2777 H2763 0.960 . S
C2777 H2764 0.961 . S
C2777 H2765 0.959 . S
C2777 C2775 1.561 . S
C2778 C2775 1.526 . S
C2778 C2779 1.396 . S
C2778 C2783 1.390 . S
C2779 C2773 1.465 . S
C2779 C2778 1.396 . S
C2779 C2780 1.399 . S
C2780 H2766 0.929 . S
C2780 C2779 1.399 . S
C2780 C2781 1.385 . S
C2781 H2767 0.931 . S
C2781 C2780 1.385 . S
C2781 C2782 1.389 . S
C2782 C2781 1.389 . S
C2782 C2783 1.387 . S
C2783 H2768 0.930 . S
C2783 C2778 1.390 . S
C2783 C2782 1.387 . S
H2784 C2796 0.930 . S
H2785 C2798 0.930 . S
H2786 C2799 0.930 . S
H2787 C2803 0.959 . S
H2788 C2803 0.959 . S
H2789 C2803 0.961 . S
H2790 C2804 0.960 . S
H2791 C2804 0.961 . S
H2792 C2804 0.959 . S
H2793 C2807 0.929 . S
H2794 C2808 0.931 . S
H2795 C2810 0.930 . S
C2796 H2784 0.930 . S
C2796 C2797 1.399 . S
C2796 C2801 1.399 . S
C2797 C2796 1.399 . S
C2797 C2798 1.376 . S
C2798 H2785 0.930 . S
C2798 C2797 1.376 . S
C2798 C2799 1.388 . S
C2799 H2786 0.930 . S
C2799 C2798 1.388 . S
C2799 C2800 1.390 . S
C2800 C2799 1.390 . S
C2800 C2801 1.394 . S
C2800 C2806 1.465 . S
C2801 C2796 1.399 . S
C2801 C2800 1.394 . S
C2801 C2802 1.516 . S
C2802 C2801 1.516 . S
C2802 C2803 1.502 . S
C2802 C2804 1.561 . S
C2802 C2805 1.526 . S
C2803 H2787 0.959 . S
C2803 H2788 0.959 . S
C2803 H2789 0.961 . S
C2803 C2802 1.502 . S
C2804 H2790 0.960 . S
C2804 H2791 0.961 . S
C2804 H2792 0.959 . S
C2804 C2802 1.561 . S
C2805 C2802 1.526 . S
C2805 C2806 1.396 . S
C2805 C2810 1.390 . S
C2806 C2800 1.465 . S
C2806 C2805 1.396 . S
C2806 C2807 1.399 . S
C2807 H2793 0.929 . S
C2807 C2806 1.399 . S
C2807 C2808 1.385 . S
C2808 H2794 0.931 . S
C2808 C2807 1.385 . S
C2808 C2809 1.389 . S
C2809 C2808 1.389 . S
C2809 C2810 1.387 . S
C2810 H2795 0.930 . S
C2810 C2805 1.390 . S
C2810 C2809 1.387 . S
H2811 C2823 0.930 . S
H2812 C2825 0.930 . S
H2813 C2826 0.930 1_655 S
H2814 C2830 0.959 . S
H2815 C2830 0.959 . S
H2816 C2830 0.961 . S
H2817 C2831 0.960 1_455 S
H2818 C2831 0.961 1_545 S
H2819 C2831 0.959 . S
H2820 C2834 0.929 . S
H2821 C2835 0.931 . S
H2822 C2837 0.930 . S
C2823 H2811 0.930 . S
C2823 C2824 1.399 . S
C2823 C2828 1.399 . S
C2824 C2823 1.399 . S
C2824 C2825 1.376 . S
C2825 H2812 0.930 . S
C2825 C2824 1.376 . S
C2825 C2826 1.388 . S
C2826 H2813 0.930 1_455 S
C2826 C2825 1.388 . S
C2826 C2827 1.394 . S
C2827 C2826 1.394 . S
C2827 C2828 1.423 . S
C2827 C2833 1.438 1_465 S
C2828 C2823 1.399 . S
C2828 C2827 1.423 . S
C2828 C2829 1.516 1_565 S
C2829 C2828 1.516 1_545 S
C2829 C2830 1.502 . S
C2829 C2831 1.561 1_445 S
C2829 C2832 1.526 1_455 S
C2830 H2814 0.959 . S
C2830 H2815 0.959 . S
C2830 H2816 0.961 . S
C2830 C2829 1.502 . S
C2831 H2817 0.960 1_655 S
C2831 H2818 0.961 1_565 S
C2831 H2819 0.959 . S
C2831 C2829 1.561 1_665 S
C2832 C2829 1.526 1_655 S
C2832 C2833 1.396 . S
C2832 C2837 1.390 . S
C2833 C2827 1.438 1_645 S
C2833 C2832 1.396 . S
C2833 C2834 1.399 . S
C2834 H2820 0.929 . S
C2834 C2833 1.399 . S
C2834 C2835 1.385 . S
C2835 H2821 0.931 . S
C2835 C2834 1.385 . S
C2835 C2836 1.389 . S
C2836 C2835 1.389 . S
C2836 C2837 1.387 . S
C2837 H2822 0.930 . S
C2837 C2832 1.390 . S
C2837 C2836 1.387 . S
H2838 C2850 0.930 . S
H2839 C2852 0.930 . S
H2840 C2853 0.930 . S
H2841 C2857 0.959 . S
H2842 C2857 0.959 . S
H2843 C2857 0.961 . S
H2844 C2858 0.960 . S
H2845 C2858 0.961 . S
H2846 C2858 0.959 . S
H2847 C2861 0.929 . S
H2848 C2862 0.931 . S
H2849 C2864 0.930 . S
C2850 H2838 0.930 . S
C2850 C2851 1.399 . S
C2850 C2855 1.399 . S
C2851 C2850 1.399 . S
C2851 C2852 1.376 . S
C2852 H2839 0.930 . S
C2852 C2851 1.376 . S
C2852 C2853 1.388 . S
C2853 H2840 0.930 . S
C2853 C2852 1.388 . S
C2853 C2854 1.390 . S
C2854 C2853 1.390 . S
C2854 C2855 1.394 . S
C2854 C2860 1.465 . S
C2855 C2850 1.399 . S
C2855 C2854 1.394 . S
C2855 C2856 1.516 . S
C2856 C2855 1.516 . S
C2856 C2857 1.502 . S
C2856 C2858 1.561 . S
C2856 C2859 1.526 . S
C2857 H2841 0.959 . S
C2857 H2842 0.959 . S
C2857 H2843 0.961 . S
C2857 C2856 1.502 . S
C2858 H2844 0.960 . S
C2858 H2845 0.961 . S
C2858 H2846 0.959 . S
C2858 C2856 1.561 . S
C2859 C2856 1.526 . S
C2859 C2860 1.396 . S
C2859 C2864 1.390 . S
C2860 C2854 1.465 . S
C2860 C2859 1.396 . S
C2860 C2861 1.399 . S
C2861 H2847 0.929 . S
C2861 C2860 1.399 . S
C2861 C2862 1.385 . S
C2862 H2848 0.931 . S
C2862 C2861 1.385 . S
C2862 C2863 1.389 . S
C2863 C2862 1.389 . S
C2863 C2864 1.387 . S
C2864 H2849 0.930 . S
C2864 C2859 1.390 . S
C2864 C2863 1.387 . S
H2865 C2877 0.930 . S
H2866 C2879 0.930 . S
H2867 C2880 0.930 . S
H2868 C2884 0.959 . S
H2869 C2884 0.959 1_545 S
H2870 C2884 0.961 . S
H2871 C2885 0.960 . S
H2872 C2885 0.961 . S
H2873 C2885 0.959 . S
H2874 C2888 0.929 . S
H2875 C2889 0.931 . S
H2876 C2891 0.930 . S
C2877 H2865 0.930 . S
C2877 C2878 1.399 1_554 S
C2877 C2882 1.399 . S
C2878 C2877 1.399 1_556 S
C2878 C2879 1.376 . S
C2879 H2866 0.930 . S
C2879 C2878 1.376 . S
C2879 C2880 1.388 . S
C2880 H2867 0.930 . S
C2880 C2879 1.388 . S
C2880 C2881 1.390 . S
C2881 C2880 1.390 . S
C2881 C2882 1.394 1_556 S
C2881 C2887 1.465 1_565 S
C2882 C2877 1.399 . S
C2882 C2881 1.394 1_554 S
C2882 C2883 1.516 1_565 S
C2883 C2882 1.516 1_545 S
C2883 C2884 1.502 1_545 S
C2883 C2885 1.561 . S
C2883 C2886 1.526 . S
C2884 H2868 0.959 . S
C2884 H2869 0.959 1_565 S
C2884 H2870 0.961 . S
C2884 C2883 1.502 1_565 S
C2885 H2871 0.960 . S
C2885 H2872 0.961 . S
C2885 H2873 0.959 . S
C2885 C2883 1.561 . S
C2886 C2883 1.526 . S
C2886 C2887 1.396 1_554 S
C2886 C2891 1.390 . S
C2887 C2881 1.465 1_545 S
C2887 C2886 1.396 1_556 S
C2887 C2888 1.399 . S
C2888 H2874 0.929 . S
C2888 C2887 1.399 . S
C2888 C2889 1.385 . S
C2889 H2875 0.931 . S
C2889 C2888 1.385 . S
C2889 C2890 1.389 1_556 S
C2890 C2889 1.389 1_554 S
C2890 C2891 1.387 . S
C2891 H2876 0.930 . S
C2891 C2886 1.390 . S
C2891 C2890 1.387 . S
H2892 C2904 0.930 . S
H2893 C2906 0.930 . S
H2894 C2907 0.930 . S
H2895 C2911 0.959 . S
H2896 C2911 0.959 . S
H2897 C2911 0.961 . S
H2898 C2912 0.960 . S
H2899 C2912 0.961 . S
H2900 C2912 0.959 . S
H2901 C2915 0.929 . S
H2902 C2916 0.931 . S
H2903 C2918 0.930 . S
C2904 H2892 0.930 . S
C2904 C2905 1.399 . S
C2904 C2909 1.399 . S
C2905 C2904 1.399 . S
C2905 C2906 1.376 . S
C2906 H2893 0.930 . S
C2906 C2905 1.376 . S
C2906 C2907 1.388 . S
C2907 H2894 0.930 . S
C2907 C2906 1.388 . S
C2907 C2908 1.390 . S
C2908 C2907 1.390 . S
C2908 C2909 1.394 . S
C2908 C2914 1.465 . S
C2909 C2904 1.399 . S
C2909 C2908 1.394 . S
C2909 C2910 1.516 . S
C2910 C2909 1.516 . S
C2910 C2911 1.502 . S
C2910 C2912 1.561 . S
C2910 C2913 1.526 . S
C2911 H2895 0.959 . S
C2911 H2896 0.959 . S
C2911 H2897 0.961 . S
C2911 C2910 1.502 . S
C2912 H2898 0.960 . S
C2912 H2899 0.961 . S
C2912 H2900 0.959 . S
C2912 C2910 1.561 . S
C2913 C2910 1.526 . S
C2913 C2914 1.396 . S
C2913 C2918 1.390 . S
C2914 C2908 1.465 . S
C2914 C2913 1.396 . S
C2914 C2915 1.399 . S
C2915 H2901 0.929 . S
C2915 C2914 1.399 . S
C2915 C2916 1.385 . S
C2916 H2902 0.931 . S
C2916 C2915 1.385 . S
C2916 C2917 1.389 . S
C2917 C2916 1.389 . S
C2917 C2918 1.387 . S
C2918 H2903 0.930 . S
C2918 C2913 1.390 . S
C2918 C2917 1.387 . S
H2919 C2931 0.930 . S
H2920 C2933 0.930 . S
H2921 C2934 0.930 . S
H2922 C2938 0.959 . S
H2923 C2938 0.959 . S
H2924 C2938 0.961 . S
H2925 C2939 0.960 1_545 S
H2926 C2939 0.961 . S
H2927 C2939 0.959 . S
H2928 C2942 0.929 . S
H2929 C2943 0.931 . S
H2930 C2945 0.930 . S
C2931 H2919 0.930 . S
C2931 C2932 1.399 . S
C2931 C2936 1.399 . S
C2932 C2931 1.399 . S
C2932 C2933 1.376 . S
C2933 H2920 0.930 . S
C2933 C2932 1.376 . S
C2933 C2934 1.388 . S
C2934 H2921 0.930 . S
C2934 C2933 1.388 . S
C2934 C2935 1.390 . S
C2935 C2934 1.390 . S
C2935 C2936 1.394 . S
C2935 C2941 1.465 1_545 S
C2936 C2931 1.399 . S
C2936 C2935 1.394 . S
C2936 C2937 1.516 . S
C2937 C2936 1.516 . S
C2937 C2938 1.502 . S
C2937 C2939 1.561 1_545 S
C2937 C2940 1.526 1_545 S
C2938 H2922 0.959 . S
C2938 H2923 0.959 . S
C2938 H2924 0.961 . S
C2938 C2937 1.502 . S
C2939 H2925 0.960 1_565 S
C2939 H2926 0.961 . S
C2939 H2927 0.959 . S
C2939 C2937 1.561 1_565 S
C2940 C2937 1.526 1_565 S
C2940 C2941 1.396 . S
C2940 C2945 1.390 . S
C2941 C2935 1.465 1_565 S
C2941 C2940 1.396 . S
C2941 C2942 1.399 . S
C2942 H2928 0.929 . S
C2942 C2941 1.399 . S
C2942 C2943 1.385 . S
C2943 H2929 0.931 . S
C2943 C2942 1.385 . S
C2943 C2944 1.389 . S
C2944 C2943 1.389 . S
C2944 C2945 1.387 . S
C2945 H2930 0.930 . S
C2945 C2940 1.390 . S
C2945 C2944 1.387 . S
H2946 C2958 0.930 . S
H2947 C2960 0.930 . S
H2948 C2961 0.930 . S
H2949 C2965 0.959 . S
H2950 C2965 0.959 . S
H2951 C2965 0.961 . S
H2952 C2966 0.960 . S
H2953 C2966 0.961 . S
H2954 C2966 0.959 . S
H2955 C2969 0.929 . S
H2956 C2970 0.931 . S
H2957 C2972 0.930 . S
C2958 H2946 0.930 . S
C2958 C2959 1.399 . S
C2958 C2963 1.399 . S
C2959 C2958 1.399 . S
C2959 C2960 1.376 . S
C2960 H2947 0.930 . S
C2960 C2959 1.376 . S
C2960 C2961 1.388 . S
C2961 H2948 0.930 . S
C2961 C2960 1.388 . S
C2961 C2962 1.390 . S
C2962 C2961 1.390 . S
C2962 C2963 1.394 . S
C2962 C2968 1.465 . S
C2963 C2958 1.399 . S
C2963 C2962 1.394 . S
C2963 C2964 1.516 . S
C2964 C2963 1.516 . S
C2964 C2965 1.502 . S
C2964 C2966 1.561 . S
C2964 C2967 1.526 . S
C2965 H2949 0.959 . S
C2965 H2950 0.959 . S
C2965 H2951 0.961 . S
C2965 C2964 1.502 . S
C2966 H2952 0.960 . S
C2966 H2953 0.961 . S
C2966 H2954 0.959 . S
C2966 C2964 1.561 . S
C2967 C2964 1.526 . S
C2967 C2968 1.396 . S
C2967 C2972 1.390 . S
C2968 C2962 1.465 . S
C2968 C2967 1.396 . S
C2968 C2969 1.399 . S
C2969 H2955 0.929 . S
C2969 C2968 1.399 . S
C2969 C2970 1.385 . S
C2970 H2956 0.931 . S
C2970 C2969 1.385 . S
C2970 C2971 1.389 . S
C2971 C2970 1.389 . S
C2971 C2972 1.387 . S
C2972 H2957 0.930 . S
C2972 C2967 1.390 . S
C2972 C2971 1.387 . S
H2973 C2985 0.930 . S
H2974 C2987 0.930 . S
H2975 C2988 0.930 1_545 S
H2976 C2992 0.959 . S
H2977 C2992 0.959 . S
H2978 C2992 0.961 . S
H2979 C2993 0.960 . S
H2980 C2993 0.961 1_445 S
H2981 C2993 0.959 1_545 S
H2982 C2996 0.929 1_655 S
H2983 C2997 0.931 . S
H2984 C2999 0.930 . S
C2985 H2973 0.930 . S
C2985 C2986 1.399 1_556 S
C2985 C2990 1.399 . S
C2986 C2985 1.399 1_554 S
C2986 C2987 1.376 . S
C2987 H2974 0.930 . S
C2987 C2986 1.376 . S
C2987 C2988 1.388 . S
C2988 H2975 0.930 1_565 S
C2988 C2987 1.388 . S
C2988 C2989 1.390 . S
C2989 C2988 1.390 . S
C2989 C2990 1.394 1_554 S
C2989 C2995 1.465 1_665 S
C2990 C2985 1.399 . S
C2990 C2989 1.394 1_556 S
C2990 C2991 1.516 1_655 S
C2991 C2990 1.516 1_455 S
C2991 C2992 1.502 . S
C2991 C2993 1.561 1_455 S
C2991 C2994 1.526 1_565 S
C2992 H2976 0.959 . S
C2992 H2977 0.959 . S
C2992 H2978 0.961 . S
C2992 C2991 1.502 . S
C2993 H2979 0.960 . S
C2993 H2980 0.961 1_665 S
C2993 H2981 0.959 1_565 S
C2993 C2991 1.561 1_655 S
C2994 C2991 1.526 1_545 S
C2994 C2995 1.396 1_556 S
C2994 C2999 1.390 . S
C2995 C2989 1.465 1_445 S
C2995 C2994 1.396 1_554 S
C2995 C2996 1.399 . S
C2996 H2982 0.929 1_455 S
C2996 C2995 1.399 . S
C2996 C2997 1.385 . S
C2997 H2983 0.931 . S
C2997 C2996 1.385 . S
C2997 C2998 1.389 1_554 S
C2998 C2997 1.389 1_556 S
C2998 C2999 1.387 . S
C2999 H2984 0.930 . S
C2999 C2994 1.390 . S
C2999 C2998 1.387 . S
H3000 C3012 0.930 . S
H3001 C3014 0.930 . S
H3002 C3015 0.930 . S
H3003 C3019 0.959 . S
H3004 C3019 0.959 . S
H3005 C3019 0.961 . S
H3006 C3020 0.960 . S
H3007 C3020 0.961 . S
H3008 C3020 0.959 . S
H3009 C3023 0.929 . S
H3010 C3024 0.931 . S
H3011 C3026 0.930 . S
C3012 H3000 0.930 . S
C3012 C3013 1.399 . S
C3012 C3017 1.399 . S
C3013 C3012 1.399 . S
C3013 C3014 1.376 . S
C3014 H3001 0.930 . S
C3014 C3013 1.376 . S
C3014 C3015 1.388 . S
C3015 H3002 0.930 . S
C3015 C3014 1.388 . S
C3015 C3016 1.390 . S
C3016 C3015 1.390 . S
C3016 C3017 1.394 . S
C3016 C3022 1.465 . S
C3017 C3012 1.399 . S
C3017 C3016 1.394 . S
C3017 C3018 1.516 . S
C3018 C3017 1.516 . S
C3018 C3019 1.502 . S
C3018 C3020 1.561 . S
C3018 C3021 1.526 . S
C3019 H3003 0.959 . S
C3019 H3004 0.959 . S
C3019 H3005 0.961 . S
C3019 C3018 1.502 . S
C3020 H3006 0.960 . S
C3020 H3007 0.961 . S
C3020 H3008 0.959 . S
C3020 C3018 1.561 . S
C3021 C3018 1.526 . S
C3021 C3022 1.396 . S
C3021 C3026 1.390 . S
C3022 C3016 1.465 . S
C3022 C3021 1.396 . S
C3022 C3023 1.399 . S
C3023 H3009 0.929 . S
C3023 C3022 1.399 . S
C3023 C3024 1.385 . S
C3024 H3010 0.931 . S
C3024 C3023 1.385 . S
C3024 C3025 1.389 . S
C3025 C3024 1.389 . S
C3025 C3026 1.387 . S
C3026 H3011 0.930 . S
C3026 C3021 1.390 . S
C3026 C3025 1.387 . S
H3027 C3039 0.930 . S
H3028 C3041 0.930 . S
H3029 C3042 0.930 . S
H3030 C3046 0.959 . S
H3031 C3046 0.959 . S
H3032 C3046 0.961 . S
H3033 C3047 0.960 . S
H3034 C3047 0.961 . S
H3035 C3047 0.959 . S
H3036 C3050 0.929 . S
H3037 C3051 0.931 . S
H3038 C3053 0.930 . S
C3039 H3027 0.930 . S
C3039 C3040 1.399 . S
C3039 C3044 1.399 . S
C3040 C3039 1.399 . S
C3040 C3041 1.376 . S
C3041 H3028 0.930 . S
C3041 C3040 1.376 . S
C3041 C3042 1.388 . S
C3042 H3029 0.930 . S
C3042 C3041 1.388 . S
C3042 C3043 1.390 . S
C3043 C3042 1.390 . S
C3043 C3044 1.394 . S
C3043 C3049 1.465 . S
C3044 C3039 1.399 . S
C3044 C3043 1.394 . S
C3044 C3045 1.516 . S
C3045 C3044 1.516 . S
C3045 C3046 1.502 . S
C3045 C3047 1.561 . S
C3045 C3048 1.526 . S
C3046 H3030 0.959 . S
C3046 H3031 0.959 . S
C3046 H3032 0.961 . S
C3046 C3045 1.502 . S
C3047 H3033 0.960 . S
C3047 H3034 0.961 . S
C3047 H3035 0.959 . S
C3047 C3045 1.561 . S
C3048 C3045 1.526 . S
C3048 C3049 1.396 . S
C3048 C3053 1.390 . S
C3049 C3043 1.465 . S
C3049 C3048 1.396 . S
C3049 C3050 1.399 . S
C3050 H3036 0.929 . S
C3050 C3049 1.399 . S
C3050 C3051 1.385 . S
C3051 H3037 0.931 . S
C3051 C3050 1.385 . S
C3051 C3052 1.389 . S
C3052 C3051 1.389 . S
C3052 C3053 1.387 . S
C3053 H3038 0.930 . S
C3053 C3048 1.390 . S
C3053 C3052 1.387 . S
H3054 C3066 0.930 . S
H3055 C3068 0.930 . S
H3056 C3069 0.930 . S
H3057 C3073 0.959 . S
H3058 C3073 0.959 . S
H3059 C3073 0.961 . S
H3060 C3074 0.960 . S
H3061 C3074 0.961 . S
H3062 C3074 0.959 . S
H3063 C3077 0.929 . S
H3064 C3078 0.931 . S
H3065 C3080 0.930 . S
C3066 H3054 0.930 . S
C3066 C3067 1.399 . S
C3066 C3071 1.399 . S
C3067 C3066 1.399 . S
C3067 C3068 1.376 . S
C3068 H3055 0.930 . S
C3068 C3067 1.376 . S
C3068 C3069 1.388 . S
C3069 H3056 0.930 . S
C3069 C3068 1.388 . S
C3069 C3070 1.390 . S
C3070 C3069 1.390 . S
C3070 C3071 1.394 . S
C3070 C3076 1.465 . S
C3071 C3066 1.399 . S
C3071 C3070 1.394 . S
C3071 C3072 1.516 . S
C3072 C3071 1.516 . S
C3072 C3073 1.502 . S
C3072 C3074 1.561 . S
C3072 C3075 1.526 . S
C3073 H3057 0.959 . S
C3073 H3058 0.959 . S
C3073 H3059 0.961 . S
C3073 C3072 1.502 . S
C3074 H3060 0.960 . S
C3074 H3061 0.961 . S
C3074 H3062 0.959 . S
C3074 C3072 1.561 . S
C3075 C3072 1.526 . S
C3075 C3076 1.396 . S
C3075 C3080 1.390 . S
C3076 C3070 1.465 . S
C3076 C3075 1.396 . S
C3076 C3077 1.399 . S
C3077 H3063 0.929 . S
C3077 C3076 1.399 . S
C3077 C3078 1.385 . S
C3078 H3064 0.931 . S
C3078 C3077 1.385 . S
C3078 C3079 1.389 . S
C3079 C3078 1.389 . S
C3079 C3080 1.387 . S
C3080 H3065 0.930 . S
C3080 C3075 1.390 . S
C3080 C3079 1.387 . S
H3081 C3093 0.930 . S
H3082 C3095 0.930 . S
H3083 C3096 0.930 . S
H3084 C3100 0.959 . S
H3085 C3100 0.959 . S
H3086 C3100 0.961 . S
H3087 C3101 0.960 . S
H3088 C3101 0.961 . S
H3089 C3101 0.959 . S
H3090 C3104 0.929 . S
H3091 C3105 0.931 . S
H3092 C3107 0.930 . S
C3093 H3081 0.930 . S
C3093 C3094 1.399 . S
C3093 C3098 1.399 . S
C3094 C3093 1.399 . S
C3094 C3095 1.376 . S
C3095 H3082 0.930 . S
C3095 C3094 1.376 . S
C3095 C3096 1.388 . S
C3096 H3083 0.930 . S
C3096 C3095 1.388 . S
C3096 C3097 1.390 . S
C3097 C3096 1.390 . S
C3097 C3098 1.394 . S
C3097 C3103 1.465 . S
C3098 C3093 1.399 . S
C3098 C3097 1.394 . S
C3098 C3099 1.516 . S
C3099 C3098 1.516 . S
C3099 C3100 1.502 . S
C3099 C3101 1.561 . S
C3099 C3102 1.526 . S
C3100 H3084 0.959 . S
C3100 H3085 0.959 . S
C3100 H3086 0.961 . S
C3100 C3099 1.502 . S
C3101 H3087 0.960 . S
C3101 H3088 0.961 . S
C3101 H3089 0.959 . S
C3101 C3099 1.561 . S
C3102 C3099 1.526 . S
C3102 C3103 1.396 . S
C3102 C3107 1.390 . S
C3103 C3097 1.465 . S
C3103 C3102 1.396 . S
C3103 C3104 1.399 . S
C3104 H3090 0.929 . S
C3104 C3103 1.399 . S
C3104 C3105 1.385 . S
C3105 H3091 0.931 . S
C3105 C3104 1.385 . S
C3105 C3106 1.389 . S
C3106 C3105 1.389 . S
C3106 C3107 1.387 . S
C3107 H3092 0.930 . S
C3107 C3102 1.390 . S
C3107 C3106 1.387 . S
H3108 C3120 0.930 . S
H3109 C3122 0.930 . S
H3110 C3123 0.930 . S
H3111 C3127 0.959 . S
H3112 C3127 0.959 . S
H3113 C3127 0.961 . S
H3114 C3128 0.960 . S
H3115 C3128 0.961 . S
H3116 C3128 0.959 . S
H3117 C3131 0.929 . S
H3118 C3132 0.931 . S
H3119 C3134 0.930 . S
C3120 H3108 0.930 . S
C3120 C3121 1.399 1_554 S
C3120 C3125 1.399 . S
C3121 C3120 1.399 1_556 S
C3121 C3122 1.376 . S
C3122 H3109 0.930 . S
C3122 C3121 1.376 . S
C3122 C3123 1.388 . S
C3123 H3110 0.930 . S
C3123 C3122 1.388 . S
C3123 C3124 1.390 . S
C3124 C3123 1.390 . S
C3124 C3125 1.394 1_556 S
C3124 C3130 1.465 . S
C3125 C3120 1.399 . S
C3125 C3124 1.394 1_554 S
C3125 C3126 1.516 . S
C3126 C3125 1.516 . S
C3126 C3127 1.502 . S
C3126 C3128 1.561 . S
C3126 C3129 1.526 . S
C3127 H3111 0.959 . S
C3127 H3112 0.959 . S
C3127 H3113 0.961 . S
C3127 C3126 1.502 . S
C3128 H3114 0.960 . S
C3128 H3115 0.961 . S
C3128 H3116 0.959 . S
C3128 C3126 1.561 . S
C3129 C3126 1.526 . S
C3129 C3130 1.396 1_554 S
C3129 C3134 1.390 . S
C3130 C3124 1.465 . S
C3130 C3129 1.396 1_556 S
C3130 C3131 1.399 . S
C3131 H3117 0.929 . S
C3131 C3130 1.399 . S
C3131 C3132 1.385 . S
C3132 H3118 0.931 . S
C3132 C3131 1.385 . S
C3132 C3133 1.389 1_556 S
C3133 C3132 1.389 1_554 S
C3133 C3134 1.387 . S
C3134 H3119 0.930 . S
C3134 C3129 1.390 . S
C3134 C3133 1.387 . S
H3135 C3147 0.930 . S
H3136 C3149 0.930 . S
H3137 C3150 0.930 . S
H3138 C3154 0.959 . S
H3139 C3154 0.959 . S
H3140 C3154 0.961 . S
H3141 C3155 0.960 . S
H3142 C3155 0.961 . S
H3143 C3155 0.959 . S
H3144 C3158 0.929 . S
H3145 C3159 0.931 . S
H3146 C3161 0.930 . S
C3147 H3135 0.930 . S
C3147 C3148 1.399 . S
C3147 C3152 1.399 . S
C3148 C3147 1.399 . S
C3148 C3149 1.376 . S
C3149 H3136 0.930 . S
C3149 C3148 1.376 . S
C3149 C3150 1.388 1_655 S
C3150 H3137 0.930 . S
C3150 C3149 1.388 1_455 S
C3150 C3151 1.390 . S
C3151 C3150 1.390 . S
C3151 C3152 1.394 1_455 S
C3151 C3157 1.465 . S
C3152 C3147 1.399 . S
C3152 C3151 1.394 1_655 S
C3152 C3153 1.516 . S
C3153 C3152 1.516 . S
C3153 C3154 1.502 . S
C3153 C3155 1.561 . S
C3153 C3156 1.526 1_655 S
C3154 H3138 0.959 . S
C3154 H3139 0.959 . S
C3154 H3140 0.961 . S
C3154 C3153 1.502 . S
C3155 H3141 0.960 . S
C3155 H3142 0.961 . S
C3155 H3143 0.959 . S
C3155 C3153 1.561 . S
C3156 C3153 1.526 1_455 S
C3156 C3157 1.396 . S
C3156 C3161 1.390 . S
C3157 C3151 1.465 . S
C3157 C3156 1.396 . S
C3157 C3158 1.399 . S
C3158 H3144 0.929 . S
C3158 C3157 1.399 . S
C3158 C3159 1.385 . S
C3159 H3145 0.931 . S
C3159 C3158 1.385 . S
C3159 C3160 1.389 . S
C3160 C3159 1.389 . S
C3160 C3161 1.387 . S
C3161 H3146 0.930 . S
C3161 C3156 1.390 . S
C3161 C3160 1.387 . S
H3162 C3174 0.930 . S
H3163 C3176 0.930 . S
H3164 C3177 0.930 . S
H3165 C3181 0.959 . S
H3166 C3181 0.959 . S
H3167 C3181 0.961 . S
H3168 C3182 0.960 . S
H3169 C3182 0.961 . S
H3170 C3182 0.959 . S
H3171 C3185 0.929 . S
H3172 C3186 0.931 . S
H3173 C3188 0.930 . S
C3174 H3162 0.930 . S
C3174 C3175 1.399 . S
C3174 C3179 1.399 . S
C3175 C3174 1.399 . S
C3175 C3176 1.376 1_554 S
C3176 H3163 0.930 . S
C3176 C3175 1.376 1_556 S
C3176 C3177 1.388 . S
C3177 H3164 0.930 . S
C3177 C3176 1.388 . S
C3177 C3178 1.390 . S
C3178 C3177 1.390 . S
C3178 C3179 1.394 1_556 S
C3178 C3184 1.465 1_455 S
C3179 C3174 1.399 . S
C3179 C3178 1.394 1_554 S
C3179 C3180 1.507 1_455 S
C3180 C3179 1.507 1_655 S
C3180 C3181 1.490 1_655 S
C3180 C3182 1.574 . S
C3180 C3183 1.535 . S
C3181 H3165 0.959 . S
C3181 H3166 0.959 . S
C3181 H3167 0.961 . S
C3181 C3180 1.490 1_455 S
C3182 H3168 0.960 . S
C3182 H3169 0.961 . S
C3182 H3170 0.959 . S
C3182 C3180 1.574 . S
C3183 C3180 1.535 . S
C3183 C3184 1.396 1_554 S
C3183 C3188 1.390 . S
C3184 C3178 1.465 1_655 S
C3184 C3183 1.396 1_556 S
C3184 C3185 1.399 . S
C3185 H3171 0.929 . S
C3185 C3184 1.399 . S
C3185 C3186 1.385 . S
C3186 H3172 0.931 . S
C3186 C3185 1.385 . S
C3186 C3187 1.389 . S
C3187 C3186 1.389 . S
C3187 C3188 1.387 1_556 S
C3188 H3173 0.930 . S
C3188 C3183 1.390 . S
C3188 C3187 1.387 1_554 S
H3189 C3201 0.930 . S
H3190 C3203 0.930 . S
H3191 C3204 0.930 . S
H3192 C3208 0.959 . S
H3193 C3208 0.959 . S
H3194 C3208 0.961 . S
H3195 C3209 0.960 . S
H3196 C3209 0.961 . S
H3197 C3209 0.959 . S
H3198 C3212 0.929 . S
H3199 C3213 0.931 . S
H3200 C3215 0.930 . S
C3201 H3189 0.930 . S
C3201 C3202 1.399 . S
C3201 C3206 1.399 . S
C3202 C3201 1.399 . S
C3202 C3203 1.376 . S
C3203 H3190 0.930 . S
C3203 C3202 1.376 . S
C3203 C3204 1.388 . S
C3204 H3191 0.930 . S
C3204 C3203 1.388 . S
C3204 C3205 1.390 . S
C3205 C3204 1.390 . S
C3205 C3206 1.394 . S
C3205 C3211 1.465 . S
C3206 C3201 1.399 . S
C3206 C3205 1.394 . S
C3206 C3207 1.516 . S
C3207 C3206 1.516 . S
C3207 C3208 1.502 . S
C3207 C3209 1.561 . S
C3207 C3210 1.526 . S
C3208 H3192 0.959 . S
C3208 H3193 0.959 . S
C3208 H3194 0.961 . S
C3208 C3207 1.502 . S
C3209 H3195 0.960 . S
C3209 H3196 0.961 . S
C3209 H3197 0.959 . S
C3209 C3207 1.561 . S
C3210 C3207 1.526 . S
C3210 C3211 1.396 . S
C3210 C3215 1.390 . S
C3211 C3205 1.465 . S
C3211 C3210 1.396 . S
C3211 C3212 1.399 . S
C3212 H3198 0.929 . S
C3212 C3211 1.399 . S
C3212 C3213 1.385 . S
C3213 H3199 0.931 . S
C3213 C3212 1.385 . S
C3213 C3214 1.389 . S
C3214 C3213 1.389 . S
C3214 C3215 1.387 . S
C3215 H3200 0.930 . S
C3215 C3210 1.390 . S
C3215 C3214 1.387 . S
C1069 N244 1.918 . S
C1081 N13 1.920 . S
C1096 N46 1.953 . S
C1108 N145 1.951 . S
C1123 N79 1.958 . S
C1135 N178 1.958 . S
C1150 N211 1.884 . S
C1162 N112 1.886 . S
C1177 N508 1.885 . S
C1189 N277 1.887 . S
C1204 N409 1.918 . S
C1216 N310 1.938 . S
C1231 N343 1.916 . S
C1243 N442 1.937 . S
C1258 N376 1.914 . S
C1270 N475 1.935 . S
C1285 N772 1.928 . S
C1297 N541 1.927 . S
C1312 N574 1.911 . S
C1324 N673 1.913 . S
C1339 N607 1.958 . S
C1351 N706 1.957 . S
C1366 N739 1.884 . S
C1378 N640 1.885 . S
C1393 N1036 1.884 . S
C1405 N805 1.889 . S
C1420 N838 1.959 . S
C1432 N937 1.954 . S
C1447 N970 1.950 . S
C1459 N871 1.958 . S
C1474 N1003 1.918 . S
C1486 N904 1.938 . S
C1501 C601 1.032 . S
C1513 C7 1.041 . S
C1528 C634 1.041 . S
C1540 C40 1.007 . S
C1555 C73 0.960 . S
C1567 C535 0.938 . S
C1582 C106 1.043 . S
C1594 C568 1.014 . S
C1609 C733 1.044 . S
C1621 C139 1.024 . S
C1636 C766 1.044 . S
C1648 C172 1.023 . S
C1663 C205 0.937 . S
C1675 C667 0.959 . S
C1690 C238 1.043 . S
C1702 C700 1.011 . S
C1717 C271 0.967 . S
C1729 C865 0.945 . S
C1744 C898 0.984 . S
C1756 C304 0.939 . S
C1771 C799 0.986 . S
C1783 C337 0.938 . S
C1798 C370 0.989 . S
C1810 C832 1.043 . S
C1825 C403 0.999 . S
C1837 C997 1.043 . S
C1852 C1030 0.986 . S
C1864 C436 0.938 . S
C1879 C931 1.017 . S
C1891 C469 0.944 . S
C1906 C964 0.981 . S
C1918 C502 0.939 . S
C1933 N2 0.955 . S
C1945 C912 0.898 . S
C1960 C285 0.764 . S
C1972 N35 1.004 1_655 S
C1987 C846 0.884 . S
C1999 N68 0.964 . S
C2014 N101 0.966 . S
C2026 C351 0.791 . S
C2041 C978 0.921 . S
C2053 N134 0.892 . S
C2068 C483 0.804 . S
C2080 N167 0.997 . S
C2095 N200 0.999 . S
C2107 C1044 0.756 . S
C2122 N233 0.907 1_655 S
C2134 C417 0.940 . S
C2149 N266 0.917 . S
C2161 C648 0.933 . S
C2176 N299 0.974 1_455 S
C2188 C21 0.838 . S
C2203 C582 0.786 . S
C2215 N332 0.980 . S
C2230 N365 0.875 . S
C2242 C87 0.979 . S
C2257 C714 0.872 . S
C2269 N398 0.932 . S
C2284 N431 0.876 . S
C2296 C219 0.979 . S
C2311 N464 0.968 . S
C2323 C780 0.849 . S
C2338 C153 0.832 . S
C2350 N497 0.976 1_455 S
C2365 N530 0.963 . S
C2377 C384 0.794 . S
C2392 C813 0.778 . S
C2404 N563 1.003 . S
C2419 C318 0.799 . S
C2431 N596 0.959 . S
C2446 N629 0.957 1_455 S
C2458 C879 0.876 . S
C2473 N662 1.001 . S
C2485 C450 0.795 . S
C2500 C1011 0.762 . S
C2512 N695 1.004 1_455 S
C2527 N728 1.001 . S
C2539 C516 0.756 . S
C2554 C945 0.978 . S
C2566 N761 0.876 . S
C2581 C120 0.773 . S
C2593 N794 0.988 . S
C2608 C549 0.961 . S
C2620 N827 0.882 . S
C2635 C54 0.976 . S
C2647 N860 0.884 . S
C2662 C615 0.906 . S
C2674 N893 0.912 1_655 S
C2689 N926 0.941 . S
C2701 C186 0.855 . S
C2716 C747 0.827 . S
C2728 N959 0.978 1_655 S
C2743 C252 0.754 . S
C2755 N992 1.004 . S
C2770 C681 0.932 . S
C2782 N1025 0.897 . S
C2797 C18 1.345 . S
C2809 C810 1.410 . S
C2824 C51 1.345 . S
C2836 C315 1.407 . S
C2851 C876 1.366 . S
C2863 C84 1.382 . S
C2878 C381 1.365 . S
C2890 C117 1.401 . S
C2905 C942 1.373 . S
C2917 C150 1.374 . S
C2932 C447 1.388 . S
C2944 C183 1.380 . S
C2959 C1008 1.364 . S
C2971 C216 1.383 . S
C2986 C513 1.397 . S
C2998 C249 1.370 . S
C3013 C282 1.409 . S
C3025 C546 1.354 . S
C3040 C612 1.411 . S
C3052 C348 1.351 . S
C3067 C414 1.363 . S
C3079 C678 1.384 . S
C3094 C480 1.407 . S
C3106 C744 1.357 . S
C3121 C843 1.390 . S
C3133 C579 1.378 . S
C3148 C645 1.345 . S
C3160 C909 1.411 . S
C3175 C975 1.372 . S
C3187 C711 1.375 . S
C3202 C1041 1.359 . S
C3214 C777 1.405 . S
