# Generated by pormake.
# Topology yfm, (5)-cn, num edge types: 1
# Building blocks:
#     Node 0, Type 0, BuildingBlock: XOMCOT_clean_sbu_1, # of connection points: 5
#     Node 1, Type 0, BuildingBlock: XOMCOT_clean_sbu_1, # of connection points: 5
#     Node 2, Type 0, BuildingBlock: XOMCOT_clean_sbu_1, # of connection points: 5
#     Node 3, Type 0, BuildingBlock: XOMCOT_clean_sbu_1, # of connection points: 5
#     Node 4, Type 0, BuildingBlock: XOMCOT_clean_sbu_1, # of connection points: 5
#     Node 5, Type 0, BuildingBlock: XOMCOT_clean_sbu_1, # of connection points: 5
#     Node 6, Type 0, BuildingBlock: XOMCOT_clean_sbu_1, # of connection points: 5
#     Node 7, Type 0, BuildingBlock: XOMCOT_clean_sbu_1, # of connection points: 5
#     Node 8, Type 0, BuildingBlock: XOMCOT_clean_sbu_1, # of connection points: 5
#     Node 9, Type 0, BuildingBlock: XOMCOT_clean_sbu_1, # of connection points: 5
#     Node 10, Type 0, BuildingBlock: XOMCOT_clean_sbu_1, # of connection points: 5
#     Node 11, Type 0, BuildingBlock: XOMCOT_clean_sbu_1, # of connection points: 5
#     Node 12, Type 0, BuildingBlock: XOMCOT_clean_sbu_1, # of connection points: 5
#     Node 13, Type 0, BuildingBlock: XOMCOT_clean_sbu_1, # of connection points: 5
#     Node 14, Type 0, BuildingBlock: XOMCOT_clean_sbu_1, # of connection points: 5
#     Node 15, Type 0, BuildingBlock: XOMCOT_clean_sbu_1, # of connection points: 5
#     Node 16, Type 0, BuildingBlock: XOMCOT_clean_sbu_1, # of connection points: 5
#     Node 17, Type 0, BuildingBlock: XOMCOT_clean_sbu_1, # of connection points: 5
#     Node 18, Type 0, BuildingBlock: XOMCOT_clean_sbu_1, # of connection points: 5
#     Node 19, Type 0, BuildingBlock: XOMCOT_clean_sbu_1, # of connection points: 5
#     Node 20, Type 0, BuildingBlock: XOMCOT_clean_sbu_1, # of connection points: 5
#     Node 21, Type 0, BuildingBlock: XOMCOT_clean_sbu_1, # of connection points: 5
#     Node 22, Type 0, BuildingBlock: XOMCOT_clean_sbu_1, # of connection points: 5
#     Node 23, Type 0, BuildingBlock: XOMCOT_clean_sbu_1, # of connection points: 5
#     Node 24, Type 0, BuildingBlock: XOMCOT_clean_sbu_1, # of connection points: 5
#     Node 25, Type 0, BuildingBlock: XOMCOT_clean_sbu_1, # of connection points: 5
#     Node 26, Type 0, BuildingBlock: XOMCOT_clean_sbu_1, # of connection points: 5
#     Node 27, Type 0, BuildingBlock: XOMCOT_clean_sbu_1, # of connection points: 5
#     Node 28, Type 0, BuildingBlock: XOMCOT_clean_sbu_1, # of connection points: 5
#     Node 29, Type 0, BuildingBlock: XOMCOT_clean_sbu_1, # of connection points: 5
#     Node 30, Type 0, BuildingBlock: XOMCOT_clean_sbu_1, # of connection points: 5
#     Node 31, Type 0, BuildingBlock: XOMCOT_clean_sbu_1, # of connection points: 5
#     Edge 32, Type (0, 0), BuildingBlock: CIFDUS_clean_linker_0, # of connection points: 2
#     Edge 33, Type (0, 0), BuildingBlock: CIFDUS_clean_linker_0, # of connection points: 2
#     Edge 34, Type (0, 0), BuildingBlock: CIFDUS_clean_linker_0, # of connection points: 2
#     Edge 35, Type (0, 0), BuildingBlock: CIFDUS_clean_linker_0, # of connection points: 2
#     Edge 36, Type (0, 0), BuildingBlock: CIFDUS_clean_linker_0, # of connection points: 2
#     Edge 37, Type (0, 0), BuildingBlock: CIFDUS_clean_linker_0, # of connection points: 2
#     Edge 38, Type (0, 0), BuildingBlock: CIFDUS_clean_linker_0, # of connection points: 2
#     Edge 39, Type (0, 0), BuildingBlock: CIFDUS_clean_linker_0, # of connection points: 2
#     Edge 40, Type (0, 0), BuildingBlock: CIFDUS_clean_linker_0, # of connection points: 2
#     Edge 41, Type (0, 0), BuildingBlock: CIFDUS_clean_linker_0, # of connection points: 2
#     Edge 42, Type (0, 0), BuildingBlock: CIFDUS_clean_linker_0, # of connection points: 2
#     Edge 43, Type (0, 0), BuildingBlock: CIFDUS_clean_linker_0, # of connection points: 2
#     Edge 44, Type (0, 0), BuildingBlock: CIFDUS_clean_linker_0, # of connection points: 2
#     Edge 45, Type (0, 0), BuildingBlock: CIFDUS_clean_linker_0, # of connection points: 2
#     Edge 46, Type (0, 0), BuildingBlock: CIFDUS_clean_linker_0, # of connection points: 2
#     Edge 47, Type (0, 0), BuildingBlock: CIFDUS_clean_linker_0, # of connection points: 2
#     Edge 48, Type (0, 0), BuildingBlock: CIFDUS_clean_linker_0, # of connection points: 2
#     Edge 49, Type (0, 0), BuildingBlock: CIFDUS_clean_linker_0, # of connection points: 2
#     Edge 50, Type (0, 0), BuildingBlock: CIFDUS_clean_linker_0, # of connection points: 2
#     Edge 51, Type (0, 0), BuildingBlock: CIFDUS_clean_linker_0, # of connection points: 2
#     Edge 52, Type (0, 0), BuildingBlock: CIFDUS_clean_linker_0, # of connection points: 2
#     Edge 53, Type (0, 0), BuildingBlock: CIFDUS_clean_linker_0, # of connection points: 2
#     Edge 54, Type (0, 0), BuildingBlock: CIFDUS_clean_linker_0, # of connection points: 2
#     Edge 55, Type (0, 0), BuildingBlock: CIFDUS_clean_linker_0, # of connection points: 2
#     Edge 56, Type (0, 0), BuildingBlock: CIFDUS_clean_linker_0, # of connection points: 2
#     Edge 57, Type (0, 0), BuildingBlock: CIFDUS_clean_linker_0, # of connection points: 2
#     Edge 58, Type (0, 0), BuildingBlock: CIFDUS_clean_linker_0, # of connection points: 2
#     Edge 59, Type (0, 0), BuildingBlock: CIFDUS_clean_linker_0, # of connection points: 2
#     Edge 60, Type (0, 0), BuildingBlock: CIFDUS_clean_linker_0, # of connection points: 2
#     Edge 61, Type (0, 0), BuildingBlock: CIFDUS_clean_linker_0, # of connection points: 2
#     Edge 62, Type (0, 0), BuildingBlock: CIFDUS_clean_linker_0, # of connection points: 2
#     Edge 63, Type (0, 0), BuildingBlock: CIFDUS_clean_linker_0, # of connection points: 2
#     Edge 64, Type (0, 0), BuildingBlock: CIFDUS_clean_linker_0, # of connection points: 2
#     Edge 65, Type (0, 0), BuildingBlock: CIFDUS_clean_linker_0, # of connection points: 2
#     Edge 66, Type (0, 0), BuildingBlock: CIFDUS_clean_linker_0, # of connection points: 2
#     Edge 67, Type (0, 0), BuildingBlock: CIFDUS_clean_linker_0, # of connection points: 2
#     Edge 68, Type (0, 0), BuildingBlock: CIFDUS_clean_linker_0, # of connection points: 2
#     Edge 69, Type (0, 0), BuildingBlock: CIFDUS_clean_linker_0, # of connection points: 2
#     Edge 70, Type (0, 0), BuildingBlock: CIFDUS_clean_linker_0, # of connection points: 2
#     Edge 71, Type (0, 0), BuildingBlock: CIFDUS_clean_linker_0, # of connection points: 2
#     Edge 72, Type (0, 0), BuildingBlock: CIFDUS_clean_linker_0, # of connection points: 2
#     Edge 73, Type (0, 0), BuildingBlock: CIFDUS_clean_linker_0, # of connection points: 2
#     Edge 74, Type (0, 0), BuildingBlock: CIFDUS_clean_linker_0, # of connection points: 2
#     Edge 75, Type (0, 0), BuildingBlock: CIFDUS_clean_linker_0, # of connection points: 2
#     Edge 76, Type (0, 0), BuildingBlock: CIFDUS_clean_linker_0, # of connection points: 2
#     Edge 77, Type (0, 0), BuildingBlock: CIFDUS_clean_linker_0, # of connection points: 2
#     Edge 78, Type (0, 0), BuildingBlock: CIFDUS_clean_linker_0, # of connection points: 2
#     Edge 79, Type (0, 0), BuildingBlock: CIFDUS_clean_linker_0, # of connection points: 2
#     Edge 80, Type (0, 0), BuildingBlock: CIFDUS_clean_linker_0, # of connection points: 2
#     Edge 81, Type (0, 0), BuildingBlock: CIFDUS_clean_linker_0, # of connection points: 2
#     Edge 82, Type (0, 0), BuildingBlock: CIFDUS_clean_linker_0, # of connection points: 2
#     Edge 83, Type (0, 0), BuildingBlock: CIFDUS_clean_linker_0, # of connection points: 2
#     Edge 84, Type (0, 0), BuildingBlock: CIFDUS_clean_linker_0, # of connection points: 2
#     Edge 85, Type (0, 0), BuildingBlock: CIFDUS_clean_linker_0, # of connection points: 2
#     Edge 86, Type (0, 0), BuildingBlock: CIFDUS_clean_linker_0, # of connection points: 2
#     Edge 87, Type (0, 0), BuildingBlock: CIFDUS_clean_linker_0, # of connection points: 2
#     Edge 88, Type (0, 0), BuildingBlock: CIFDUS_clean_linker_0, # of connection points: 2
#     Edge 89, Type (0, 0), BuildingBlock: CIFDUS_clean_linker_0, # of connection points: 2
#     Edge 90, Type (0, 0), BuildingBlock: CIFDUS_clean_linker_0, # of connection points: 2
#     Edge 91, Type (0, 0), BuildingBlock: CIFDUS_clean_linker_0, # of connection points: 2
#     Edge 92, Type (0, 0), BuildingBlock: CIFDUS_clean_linker_0, # of connection points: 2
#     Edge 93, Type (0, 0), BuildingBlock: CIFDUS_clean_linker_0, # of connection points: 2
#     Edge 94, Type (0, 0), BuildingBlock: CIFDUS_clean_linker_0, # of connection points: 2
#     Edge 95, Type (0, 0), BuildingBlock: CIFDUS_clean_linker_0, # of connection points: 2
#     Edge 96, Type (0, 0), BuildingBlock: CIFDUS_clean_linker_0, # of connection points: 2
#     Edge 97, Type (0, 0), BuildingBlock: CIFDUS_clean_linker_0, # of connection points: 2
#     Edge 98, Type (0, 0), BuildingBlock: CIFDUS_clean_linker_0, # of connection points: 2
#     Edge 99, Type (0, 0), BuildingBlock: CIFDUS_clean_linker_0, # of connection points: 2
#     Edge 100, Type (0, 0), BuildingBlock: CIFDUS_clean_linker_0, # of connection points: 2
#     Edge 101, Type (0, 0), BuildingBlock: CIFDUS_clean_linker_0, # of connection points: 2
#     Edge 102, Type (0, 0), BuildingBlock: CIFDUS_clean_linker_0, # of connection points: 2
#     Edge 103, Type (0, 0), BuildingBlock: CIFDUS_clean_linker_0, # of connection points: 2
#     Edge 104, Type (0, 0), BuildingBlock: CIFDUS_clean_linker_0, # of connection points: 2
#     Edge 105, Type (0, 0), BuildingBlock: CIFDUS_clean_linker_0, # of connection points: 2
#     Edge 106, Type (0, 0), BuildingBlock: CIFDUS_clean_linker_0, # of connection points: 2
#     Edge 107, Type (0, 0), BuildingBlock: CIFDUS_clean_linker_0, # of connection points: 2
#     Edge 108, Type (0, 0), BuildingBlock: CIFDUS_clean_linker_0, # of connection points: 2
#     Edge 109, Type (0, 0), BuildingBlock: CIFDUS_clean_linker_0, # of connection points: 2
#     Edge 110, Type (0, 0), BuildingBlock: CIFDUS_clean_linker_0, # of connection points: 2
#     Edge 111, Type (0, 0), BuildingBlock: CIFDUS_clean_linker_0, # of connection points: 2
# Relax obj value: 0.623
# Max RMSD: 0.257
# Mean RMSD: 0.256
data_MOF--net-yfm--node1-XOMCOT_clean_sbu_1--edge1-CIFDUS_clean_linker_0
_symmetry_space_group_name_H-M    P1
_symmetry_Int_Tables_number       1
_symmetry_cell_setting            triclinic
loop_
_symmetry_equiv_pos_as_xyz
'x, y, z'
_cell_length_a     58.995117
_cell_length_b     58.804942
_cell_length_c     40.204471
_cell_angle_alpha  89.994351
_cell_angle_beta   90.006724
_cell_angle_gamma 89.966646
loop_
_atom_site_label
_atom_site_type_symbol
_atom_site_fract_x
_atom_site_fract_y
_atom_site_fract_z
_atom_type_partial_charge
C0 C 0.29424 0.12498 0.11689 0.0
C1 C 0.29157 0.12826 0.15047 0.0
N2 N 0.28059 0.14807 0.15503 0.0
N3 N 0.28523 0.14276 0.10037 0.0
C4 C 0.27704 0.15662 0.12433 0.0
H5 H 0.30155 0.11016 0.10513 0.0
Co6 Co 0.2836 0.1438 0.05433 0.0
C7 C 0.26015 0.1886 0.04179 0.0
O8 O 0.245 0.1796 0.02187 0.0
N9 N 0.28264 0.14374 0.0066 0.0
C10 C 0.27148 0.13608 0.95465 0.0
C11 C 0.26443 0.1408 0.98655 0.0
C12 C 0.30052 0.14124 0.98561 0.0
N13 N 0.29427 0.13614 0.95416 0.0
O14 O 0.31455 0.15358 0.05447 0.0
H15 H 0.247 0.14031 0.99477 0.0
H16 H 0.31799 0.14138 0.99334 0.0
O17 O 0.27492 0.17592 0.05577 0.0
C18 C 0.32938 0.13786 0.05548 0.0
O19 O 0.32343 0.11743 0.04548 0.0
N20 N 0.25365 0.13253 0.05745 0.0
C21 C 0.2198 0.10531 0.08599 0.0
C22 C 0.22008 0.12897 0.09111 0.0
C23 C 0.23703 0.14233 0.07637 0.0
C24 C 0.25244 0.11001 0.04974 0.0
C25 C 0.2354 0.09625 0.06305 0.0
H26 H 0.23814 0.15997 0.08348 0.0
H27 H 0.26597 0.10223 0.03559 0.0
H28 H 0.26773 0.17212 0.1195 0.0
H29 H 0.29592 0.11629 0.16993 0.0
H30 H 0.26067 0.13162 0.93391 0.0
H31 H 0.20863 0.13694 0.10862 0.0
H32 H 0.23555 0.07829 0.05717 0.0
C33 C 0.13025 0.05229 0.38003 0.0
C34 C 0.12441 0.0493 0.41278 0.0
N35 N 0.10686 0.03472 0.41412 0.0
N36 N 0.11621 0.04001 0.36064 0.0
C37 C 0.10208 0.02949 0.38216 0.0
H38 H 0.14474 0.06172 0.37107 0.0
Co39 Co 0.12081 0.03615 0.31526 0.0
C40 C 0.07753 0.01601 0.28904 0.0
O41 O 0.08881 1.00418 0.26687 0.0
N42 N 0.12696 0.0326 0.26829 0.0
C43 C 0.14259 0.01887 0.22175 0.0
C44 C 0.13477 0.01362 0.25299 0.0
C45 C 0.12982 0.04905 0.24482 0.0
N46 N 0.13989 0.04131 0.21677 0.0
O47 O 0.11364 0.06785 0.30967 0.0
H48 H 0.13582 0.99692 0.26404 0.0
H49 H 0.12616 0.06681 0.24873 0.0
O50 O 0.08833 0.02871 0.30946 0.0
C51 C 0.13079 0.08101 0.30871 0.0
O52 O 0.15092 0.07192 0.30424 0.0
N53 N 0.12958 1.00586 0.32423 0.0
C54 C 0.1486 0.9682 0.35646 0.0
C55 C 0.12516 0.9694 0.35051 0.0
C56 C 0.11595 0.98836 0.33427 0.0
C57 C 0.15248 1.00441 0.32827 0.0
C58 C 0.16237 0.98566 0.34397 0.0
H59 H 0.09778 0.98959 0.3325 0.0
H60 H 0.16301 0.01867 0.3212 0.0
H61 H 0.08945 0.01715 0.37481 0.0
H62 H 0.13367 0.0557 0.43407 0.0
H63 H 0.15069 1.00718 0.20469 0.0
H64 H 0.1139 0.9563 0.35976 0.0
H65 H 0.18048 0.98567 0.3484 0.0
C66 C 0.2149 0.88748 0.6302 0.0
C67 C 0.21486 0.88322 0.66371 0.0
N68 N 0.22737 0.86449 0.66929 0.0
N69 N 0.22705 0.87132 0.61446 0.0
C70 C 0.23468 0.85757 0.63904 0.0
H71 H 0.20699 0.90183 0.61803 0.0
Co72 Co 0.2312 0.87284 0.56867 0.0
C73 C 0.25718 0.8303 0.55197 0.0
O74 O 0.27177 0.84177 0.534 0.0
N75 N 0.23462 0.87608 0.5213 0.0
C76 C 0.24811 0.88858 0.47265 0.0
C77 C 0.25365 0.88139 0.50413 0.0
C78 C 0.2178 0.87998 0.49889 0.0
N79 N 0.22543 0.8881 0.46944 0.0
O80 O 0.20087 0.86137 0.56378 0.0
H81 H 0.27056 0.88205 0.51439 0.0
H82 H 0.20006 0.87804 0.50429 0.0
O83 O 0.2414 0.84087 0.56735 0.0
C84 C 0.18416 0.87508 0.56442 0.0
O85 O 0.18797 0.8966 0.55754 0.0
N86 N 0.26043 0.885 0.57648 0.0
C87 C 0.29819 0.90886 0.60035 0.0
C88 C 0.29629 0.88529 0.60496 0.0
C89 C 0.27726 0.8737 0.59304 0.0
C90 C 0.26214 0.90787 0.57132 0.0
C91 C 0.28104 0.92007 0.58255 0.0
H92 H 0.27558 0.85594 0.59907 0.0
H93 H 0.24828 0.91686 0.55958 0.0
H94 H 0.24582 0.84319 0.6351 0.0
H95 H 0.20729 0.89381 0.68275 0.0
H96 H 0.25986 0.8956 0.4547 0.0
H97 H 0.30906 0.87597 0.61873 0.0
H98 H 0.28158 0.93832 0.57898 0.0
C99 C 0.38258 0.99965 0.87094 0.0
C100 C 0.38639 1.00157 0.90441 0.0
N101 N 0.40885 1.00029 0.90957 0.0
N102 N 0.40259 0.9974 0.8551 0.0
C103 C 0.41844 0.99753 0.8794 0.0
H104 H 0.36625 0.99978 0.8587 0.0
Co105 Co 0.40334 0.99375 0.80953 0.0
C106 C 0.4461 0.01805 0.79168 0.0
O107 O 0.43484 0.03143 0.77135 0.0
N108 N 0.40242 0.98847 0.76318 0.0
C109 C 0.40861 0.9762 0.71134 0.0
C110 C 0.41834 0.98605 0.7392 0.0
C111 C 0.38347 0.97971 0.74929 0.0
N112 N 0.38668 0.97204 0.71811 0.0
O113 O 0.4131 0.96307 0.81676 0.0
H114 H 0.43625 0.98909 0.74243 0.0
H115 H 0.36772 0.97757 0.76266 0.0
O116 O 0.43544 1.0028 0.80804 0.0
C117 C 0.3983 0.94738 0.81829 0.0
O118 O 0.3775 0.95196 0.80894 0.0
N119 N 0.39249 0.02438 0.80494 0.0
C120 C 0.36489 0.06059 0.82611 0.0
C121 C 0.38752 0.0588 0.83678 0.0
C122 C 0.40114 0.04086 0.82544 0.0
C123 C 0.37158 0.02753 0.79114 0.0
C124 C 0.3578 0.04574 0.80075 0.0
H125 H 0.41747 0.03851 0.8371 0.0
H126 H 0.3642 0.01484 0.77532 0.0
H127 H 0.43643 0.99532 0.87519 0.0
H128 H 0.37367 1.00328 0.92368 0.0
H129 H 0.41742 0.97065 0.68916 0.0
H130 H 0.39414 0.06966 0.85619 0.0
H131 H 0.34095 0.0469 0.79025 0.0
C132 C 0.30228 0.88798 0.87744 0.0
C133 C 0.30071 0.88435 0.84386 0.0
N134 N 0.28901 0.86503 0.83894 0.0
N135 N 0.29203 0.87083 0.89379 0.0
C136 C 0.28371 0.85717 0.86957 0.0
H137 H 0.3102 0.90244 0.88928 0.0
Co138 Co 0.29116 0.87061 0.93998 0.0
C139 C 0.27272 0.82483 0.95894 0.0
O140 O 0.26075 0.8335 0.98336 0.0
N141 N 0.291 0.87197 0.988 0.0
C142 C 0.28188 0.88433 0.03895 0.0
C143 C 0.27365 0.87801 0.00822 0.0
C144 C 0.30945 0.87393 0.00803 0.0
N145 N 0.30459 0.88228 0.03858 0.0
O146 O 0.32272 0.86272 0.93916 0.0
H147 H 0.25614 0.87956 1.00069 0.0
H148 H 0.32654 0.87059 1.00008 0.0
O149 O 0.28431 0.83796 0.94015 0.0
C150 C 0.33697 0.87898 0.93959 0.0
O151 O 0.33007 0.89904 0.94992 0.0
N152 N 0.26066 0.87987 0.93742 0.0
C153 C 0.22161 0.90199 0.9143 0.0
C154 C 0.2235 0.87816 0.9129 0.0
C155 C 0.24325 0.86741 0.92436 0.0
C156 C 0.25869 0.90286 0.94042 0.0
C157 C 0.2393 0.91422 0.92933 0.0
H158 H 0.2451 0.84941 0.9201 0.0
H159 H 0.27299 0.91263 0.94933 0.0
H160 H 0.27377 0.84203 0.87416 0.0
H161 H 0.30685 0.89552 0.82444 0.0
H162 H 0.27206 0.89191 0.0588 0.0
H163 H 0.21031 0.86796 0.90158 0.0
H164 H 0.23897 0.93262 0.93041 0.0
C165 C 0.37853 0.0187 0.13213 0.0
C166 C 0.38327 0.01615 0.09899 0.0
N167 N 0.40568 0.019 0.09482 0.0
N168 N 0.39792 0.0229 0.14876 0.0
C169 C 0.41429 0.02329 0.12523 0.0
H170 H 0.36195 0.0177 0.14352 0.0
Co171 Co 0.39799 0.0272 0.19421 0.0
C172 C 0.44416 0.00893 0.21323 0.0
O173 O 0.43578 0.99561 0.23642 0.0
N174 N 0.39657 0.03266 0.24063 0.0
C175 C 0.40278 0.04621 0.29169 0.0
C176 C 0.41279 0.03895 0.26251 0.0
C177 C 0.37693 0.03687 0.25701 0.0
N178 N 0.38011 0.045 0.28813 0.0
O179 O 0.40527 0.05838 0.18653 0.0
H180 H 0.43066 0.04009 0.25705 0.0
H181 H 0.36054 0.03632 0.24514 0.0
O182 O 0.4308 0.02122 0.19581 0.0
C183 C 0.39045 0.07407 0.18733 0.0
O184 O 0.37096 0.07005 0.20196 0.0
N185 N 0.38969 0.99601 0.19898 0.0
C186 C 0.36813 0.95632 0.176 0.0
C187 C 0.39165 0.95921 0.17257 0.0
C188 C 0.40204 0.9792 0.18383 0.0
C189 C 0.36722 0.99246 0.20528 0.0
C190 C 0.35619 0.97278 0.19424 0.0
H191 H 0.41928 0.98217 0.17616 0.0
H192 H 0.35686 1.00608 0.21456 0.0
H193 H 0.43197 0.02687 0.13011 0.0
H194 H 0.37119 0.01296 0.07925 0.0
H195 H 0.41159 0.0529 0.31316 0.0
H196 H 0.40172 0.94696 0.15893 0.0
H197 H 0.33797 0.97173 0.19704 0.0
C198 C 0.21371 0.13283 0.3726 0.0
C199 C 0.21808 0.13586 0.33936 0.0
N200 N 0.23455 0.15154 0.33643 0.0
N201 N 0.22709 0.14678 0.39047 0.0
C202 C 0.23973 0.15796 0.36773 0.0
H203 H 0.20204 0.12066 0.38324 0.0
Co204 Co 0.22739 0.14622 0.43636 0.0
C205 C 0.25025 0.1896 0.45671 0.0
O206 O 0.26196 0.17859 0.47943 0.0
N207 N 0.22656 0.1445 0.48331 0.0
C208 C 0.21454 0.15104 0.53493 0.0
C209 C 0.21932 0.1607 0.5046 0.0
C210 C 0.22567 0.12505 0.50136 0.0
N211 N 0.21807 0.12843 0.5328 0.0
O212 O 0.19624 0.15639 0.43546 0.0
H213 H 0.21554 0.17808 0.49779 0.0
H214 H 0.22774 0.10842 0.49042 0.0
O215 O 0.23682 0.17853 0.43763 0.0
C216 C 0.17952 0.14433 0.44512 0.0
O217 O 0.1834 0.12713 0.46514 0.0
N218 N 0.25752 0.13456 0.43445 0.0
C219 C 0.29577 0.11126 0.4101 0.0
C220 C 0.29564 0.13505 0.41278 0.0
C221 C 0.27635 0.14636 0.42455 0.0
C222 C 0.25774 0.11136 0.43334 0.0
C223 C 0.27666 0.0994 0.42156 0.0
H224 H 0.27616 0.16455 0.4222 0.0
H225 H 0.2424 0.10205 0.43873 0.0
H226 H 0.25296 0.16997 0.37385 0.0
H227 H 0.21077 0.12626 0.31903 0.0
H228 H 0.20741 0.1599 0.55605 0.0
H229 H 0.30964 0.14507 0.40336 0.0
H230 H 0.27586 0.08103 0.41999 0.0
C231 C 0.12926 0.9653 0.62585 0.0
C232 C 0.12385 0.96942 0.59325 0.0
N233 N 0.10659 0.98439 0.59251 0.0
N234 N 0.11521 0.97718 0.64574 0.0
C235 C 0.10163 0.98885 0.62468 0.0
H236 H 0.14328 0.95505 0.63453 0.0
Co237 Co 0.11946 0.97812 0.6914 0.0
C238 C 0.07813 1.00125 0.7191 0.0
O239 O 0.09034 0.0118 0.74157 0.0
N240 N 0.1255 0.97841 0.73857 0.0
C241 C 0.14292 0.9875 0.78621 0.0
C242 C 0.13449 0.99565 0.7566 0.0
C243 C 0.12822 0.96008 0.75879 0.0
N244 N 0.13943 0.96493 0.78728 0.0
O245 O 0.10846 0.94736 0.69316 0.0
H246 H 0.13648 0.01296 0.74807 0.0
H247 H 0.12332 0.94303 0.75226 0.0
O248 O 0.08788 0.98839 0.69782 0.0
C249 C 0.12306 0.93147 0.69082 0.0
O250 O 0.14439 0.9364 0.69698 0.0
N251 N 0.13143 1.00764 0.68608 0.0
C252 C 0.15417 0.04509 0.6587 0.0
C253 C 0.13054 0.04543 0.6633 0.0
C254 C 0.11947 0.02653 0.67686 0.0
C255 C 0.15446 1.00738 0.68324 0.0
C256 C 0.16618 0.02594 0.66989 0.0
H257 H 0.10122 0.02659 0.67717 0.0
H258 H 0.16367 0.99206 0.68957 0.0
H259 H 0.08916 1.00121 0.6326 0.0
H260 H 0.13304 0.96327 0.57174 0.0
H261 H 0.1528 0.99713 0.80398 0.0
H262 H 0.12041 0.05955 0.65445 0.0
H263 H 0.18442 0.02491 0.66728 0.0
C264 C 0.72072 0.88078 0.87582 0.0
C265 C 0.72477 0.87636 0.84284 0.0
N266 N 0.73995 0.85934 0.84096 0.0
N267 N 0.73298 0.86632 0.8946 0.0
C268 C 0.74467 0.85351 0.87263 0.0
H269 H 0.71029 0.89436 0.88552 0.0
Co270 Co 0.73468 0.86794 0.94037 0.0
C271 C 0.75112 0.822 0.96273 0.0
O272 O 0.75998 0.8297 0.99049 0.0
N273 N 0.73591 0.87084 0.98769 0.0
C274 C 0.74486 0.88622 0.03675 0.0
C275 C 0.75303 0.87945 0.00624 0.0
C276 C 0.71786 0.87161 0.00851 0.0
N277 N 0.72249 0.88183 0.03783 0.0
O278 O 0.70338 0.85902 0.94162 0.0
H279 H 0.77004 0.88263 0.99749 0.0
H280 H 0.70105 0.86623 1.00176 0.0
O281 O 0.74208 0.83576 0.94208 0.0
C282 C 0.68777 0.87398 0.94176 0.0
O283 O 0.69302 0.89482 0.95071 0.0
N284 N 0.76497 0.87767 0.93573 0.0
C285 C 0.8032 0.89725 0.90614 0.0
C286 C 0.80242 0.87381 0.91288 0.0
C287 C 0.78316 0.86431 0.92782 0.0
C288 C 0.76615 0.90065 0.93171 0.0
C289 C 0.78514 0.91083 0.91718 0.0
H290 H 0.78229 0.84608 0.93009 0.0
H291 H 0.75142 0.91095 0.93727 0.0
H292 H 0.7572 0.84095 0.87959 0.0
H293 H 0.7184 0.88605 0.82191 0.0
H294 H 0.75422 0.89586 0.05511 0.0
H295 H 0.81604 0.8627 0.90496 0.0
H296 H 0.78484 0.92893 0.91222 0.0
C297 C 0.8809 0.96332 0.63068 0.0
C298 C 0.8845 0.96429 0.597 0.0
N299 N 0.90329 0.97667 0.59157 0.0
N300 N 0.89754 0.97469 0.64651 0.0
C301 C 0.9109 0.98285 0.62192 0.0
H302 H 0.8666 0.95542 0.64289 0.0
Co303 Co 0.89718 0.97865 0.69232 0.0
C304 C 0.94223 1.00165 0.70698 0.0
O305 O 0.93358 0.0164 0.7279 0.0
N306 N 0.89522 0.98207 0.7396 0.0
C307 C 0.88453 0.99622 0.78868 0.0
C308 C 0.89176 1.00142 0.75707 0.0
C309 C 0.89029 0.9654 0.76182 0.0
N310 N 0.8832 0.97344 0.79164 0.0
O311 O 0.90796 0.94796 0.69653 0.0
H312 H 0.89239 0.01841 0.7469 0.0
H313 H 0.89072 0.9476 0.75589 0.0
O314 O 0.92925 0.98767 0.69185 0.0
C315 C 0.89405 0.93144 0.69517 0.0
O316 O 0.87273 0.93542 0.70276 0.0
N317 N 0.88569 0.00824 0.68528 0.0
C318 C 0.86142 0.04453 0.65782 0.0
C319 C 0.88501 0.04312 0.65406 0.0
C320 C 0.89691 0.02493 0.66827 0.0
C321 C 0.86287 0.00986 0.69028 0.0
C322 C 0.85045 0.02809 0.67724 0.0
H323 H 0.91478 0.02345 0.66315 0.0
H324 H 0.85405 0.99615 0.7027 0.0
H325 H 0.92537 0.9938 0.62595 0.0
H326 H 0.87339 0.95768 0.57787 0.0
H327 H 0.8788 0.00846 0.80692 0.0
H328 H 0.89403 0.05548 0.63911 0.0
H329 H 0.83222 0.02847 0.68039 0.0
C330 C 0.80454 0.14187 0.37629 0.0
C331 C 0.80234 0.14639 0.34301 0.0
N332 N 0.78562 0.16172 0.33917 0.0
N333 N 0.78956 0.15455 0.39349 0.0
C334 C 0.77809 0.16645 0.37015 0.0
H335 H 0.81593 0.12959 0.38734 0.0
Co336 Co 0.7873 0.15131 0.43905 0.0
C337 C 0.76182 0.19281 0.46206 0.0
O338 O 0.74943 0.18075 0.48274 0.0
N339 N 0.7866 0.14649 0.48546 0.0
C340 C 0.7976 0.14951 0.53837 0.0
C341 C 0.79122 0.16131 0.51025 0.0
C342 C 0.79066 0.12585 0.49921 0.0
N343 N 0.79771 0.12716 0.53118 0.0
O344 O 0.81741 0.16351 0.44253 0.0
H345 H 0.79287 0.17948 0.50716 0.0
H346 H 0.79134 0.11035 0.48484 0.0
O347 O 0.77626 0.18279 0.44338 0.0
C348 C 0.83509 0.15178 0.4485 0.0
O349 O 0.83276 0.13207 0.46345 0.0
N350 N 0.75785 0.13852 0.43288 0.0
C351 C 0.72157 0.11613 0.4015 0.0
C352 C 0.72116 0.1397 0.40647 0.0
C353 C 0.73943 0.15057 0.42188 0.0
C354 C 0.75796 0.11539 0.42976 0.0
C355 C 0.73991 0.10383 0.41456 0.0
H356 H 0.7394 0.16881 0.42142 0.0
H357 H 0.77307 0.10595 0.43598 0.0
H358 H 0.76412 0.17779 0.3755 0.0
H359 H 0.81135 0.138 0.323 0.0
H360 H 0.8044 0.15695 0.5609 0.0
H361 H 0.70743 0.14992 0.39661 0.0
H362 H 0.74122 0.08566 0.41064 0.0
C363 C 0.63468 0.04624 0.13132 0.0
C364 C 0.63018 0.0455 0.09793 0.0
N365 N 0.61221 0.03187 0.09311 0.0
N366 N 0.61935 0.03359 0.1479 0.0
C367 C 0.60599 0.02461 0.12377 0.0
H368 H 0.64873 0.05504 0.14278 0.0
Co369 Co 0.62228 0.03025 0.19392 0.0
C370 C 0.58041 1.0055 0.21619 0.0
O371 O 0.59279 0.992 0.23471 0.0
N372 N 0.62721 0.02744 0.24151 0.0
C373 C 0.64211 0.0142 0.28898 0.0
C374 C 0.63406 0.00855 0.25805 0.0
C375 C 0.63107 0.04434 0.264 0.0
N376 N 0.64068 0.03686 0.29259 0.0
O377 O 0.61217 0.06124 0.19843 0.0
H378 H 0.6349 0.99161 0.24773 0.0
H379 H 0.62797 0.06208 0.2593 0.0
O380 O 0.59013 0.02051 0.19803 0.0
C381 C 0.62747 0.07651 0.19941 0.0
O382 O 0.64851 0.07018 0.20499 0.0
N383 N 0.63363 1.00085 0.18641 0.0
C384 C 0.65736 0.96284 0.16312 0.0
C385 C 0.63355 0.96355 0.16205 0.0
C386 C 0.622 0.98285 0.17339 0.0
C387 C 0.65669 1.00031 0.18815 0.0
C388 C 0.66886 0.98144 0.17702 0.0
H389 H 0.60391 0.9837 0.1698 0.0
H390 H 0.66573 0.01513 0.197 0.0
H391 H 0.59247 0.01258 0.12836 0.0
H392 H 0.64008 0.05341 0.07843 0.0
H393 H 0.65029 1.00266 0.30618 0.0
H394 H 0.62392 0.94967 0.15139 0.0
H395 H 0.6872 0.98205 0.17757 0.0
C396 C 0.70585 0.12939 0.13636 0.0
C397 C 0.70556 0.13346 0.16994 0.0
N398 N 0.71632 0.15325 0.17562 0.0
N399 N 0.71638 0.1467 0.12078 0.0
C400 C 0.72268 0.161 0.1454 0.0
H401 H 0.69964 0.11425 0.12413 0.0
Co402 Co 0.7226 0.14581 0.07568 0.0
C403 C 0.73996 0.19212 0.05764 0.0
O404 O 0.75464 0.18314 0.03695 0.0
N405 N 0.72858 0.14326 0.02873 0.0
C406 C 0.74491 0.13129 0.98167 0.0
C407 C 0.74856 0.13799 0.01399 0.0
C408 C 0.7132 0.14023 0.00395 0.0
N409 N 0.72253 0.1323 0.97552 0.0
O410 O 0.69085 0.15115 0.06802 0.0
H411 H 0.76486 0.13765 0.02619 0.0
H412 H 0.69516 0.14196 0.00706 0.0
O413 O 0.72713 0.17911 0.07486 0.0
C414 C 0.67807 0.13385 0.06451 0.0
O415 O 0.68754 0.11423 0.05729 0.0
N416 N 0.75306 0.13906 0.08657 0.0
C417 C 0.79064 0.12172 0.12084 0.0
C418 C 0.78674 0.14525 0.11902 0.0
C419 C 0.76786 0.1536 0.10181 0.0
C420 C 0.75722 0.11623 0.08667 0.0
C421 C 0.77606 0.10722 0.10328 0.0
H422 H 0.76431 0.17153 0.10345 0.0
H423 H 0.74496 0.10481 0.07567 0.0
H424 H 0.73274 0.17615 0.14155 0.0
H425 H 0.69945 0.12193 0.18894 0.0
H426 H 0.75763 0.12483 0.96473 0.0
H427 H 0.79755 0.15706 0.13227 0.0
H428 H 0.7782 0.08894 0.10439 0.0
C429 C 0.64285 0.96777 0.87864 0.0
C430 C 0.63916 0.96709 0.91227 0.0
N431 N 0.61904 0.97692 0.9186 0.0
N432 N 0.62502 0.97766 0.86345 0.0
C433 C 0.61075 0.98334 0.88859 0.0
H434 H 0.65785 0.96176 0.86597 0.0
Co435 Co 0.62556 0.98115 0.81719 0.0
C436 C 0.58154 1.0077 0.80625 0.0
O437 O 0.59134 0.02528 0.79227 0.0
N438 N 0.62789 0.9838 0.76964 0.0
C439 C 0.63773 0.99857 0.72048 0.0
C440 C 0.62842 1.00305 0.75119 0.0
C441 C 0.63667 0.96781 0.74877 0.0
N442 N 0.64309 0.97638 0.71903 0.0
O443 O 0.61428 0.95065 0.81361 0.0
H444 H 0.62533 0.01994 0.76055 0.0
H445 H 0.64058 0.95065 0.75599 0.0
O446 O 0.59358 0.99108 0.8168 0.0
C447 C 0.62828 0.93425 0.81604 0.0
O448 O 0.64989 0.93855 0.81117 0.0
N449 N 0.63764 0.01061 0.82335 0.0
C450 C 0.66394 0.04619 0.84926 0.0
C451 C 0.6408 0.04424 0.85713 0.0
C452 C 0.62798 0.02636 0.84395 0.0
C453 C 0.65971 0.01292 0.81392 0.0
C454 C 0.673 0.0308 0.82599 0.0
H455 H 0.61088 0.02413 0.85282 0.0
H456 H 0.66753 0.99995 0.79868 0.0
H457 H 0.59487 0.99225 0.88514 0.0
H458 H 0.65083 0.96072 0.93087 0.0
H459 H 0.64225 0.01111 0.70192 0.0
H460 H 0.63299 0.05528 0.87537 0.0
H461 H 0.69059 0.03173 0.8185 0.0
C462 C 0.80351 0.88512 0.62593 0.0
C463 C 0.80095 0.88042 0.65916 0.0
N464 N 0.78869 0.86124 0.66201 0.0
N465 N 0.79321 0.86879 0.60794 0.0
C466 C 0.78432 0.85443 0.63065 0.0
H467 H 0.81145 0.90009 0.61553 0.0
Co468 Co 0.79006 0.87024 0.56227 0.0
C469 C 0.77135 0.82367 0.54343 0.0
O470 O 0.75922 0.83117 0.51837 0.0
N471 N 0.7874 0.87327 0.51504 0.0
C472 C 0.77402 0.88555 0.4662 0.0
C473 C 0.76836 0.87706 0.49705 0.0
C474 C 0.80435 0.87913 0.49384 0.0
N475 N 0.79672 0.88705 0.46435 0.0
O476 O 0.82119 0.86099 0.55872 0.0
H477 H 0.75126 0.87554 0.50643 0.0
H478 H 0.822 0.87962 0.50053 0.0
O479 O 0.7826 0.83769 0.56121 0.0
C480 C 0.83691 0.87569 0.56137 0.0
O481 O 0.83194 0.8971 0.55541 0.0
N482 N 0.75978 0.88019 0.56891 0.0
C483 C 0.7222 0.90156 0.59889 0.0
C484 C 0.72436 0.87768 0.59847 0.0
C485 C 0.74308 0.86735 0.5831 0.0
C486 C 0.7574 0.90321 0.56719 0.0
C487 C 0.73864 0.91417 0.5814 0.0
H488 H 0.74496 0.84918 0.58535 0.0
H489 H 0.77089 0.9133 0.55649 0.0
H490 H 0.77375 0.84001 0.62452 0.0
H491 H 0.80607 0.89124 0.67961 0.0
H492 H 0.76228 0.89153 0.44743 0.0
H493 H 0.71256 0.86692 0.61172 0.0
H494 H 0.73766 0.9325 0.57971 0.0
C495 C 0.88177 0.05862 0.38544 0.0
C496 C 0.88451 0.05734 0.41927 0.0
N497 N 0.9027 0.04422 0.42555 0.0
N498 N 0.89825 0.04655 0.37038 0.0
C499 C 0.91083 0.03792 0.39552 0.0
H500 H 0.86846 0.06763 0.37245 0.0
Co501 Co 0.89906 0.04496 0.32442 0.0
C502 C 0.94232 0.01832 0.31232 0.0
O503 O 0.93233 1.0031 0.29339 0.0
N504 N 0.89827 0.045 0.27737 0.0
C505 C 0.90521 0.04942 0.22314 0.0
C506 C 0.91445 0.0437 0.25359 0.0
C507 C 0.87966 0.05217 0.26067 0.0
N508 N 0.88334 0.05501 0.22782 0.0
O509 O 0.91134 0.07513 0.32438 0.0
H510 H 0.93225 0.0408 0.25796 0.0
H511 H 0.86395 0.05677 0.27274 0.0
O512 O 0.93057 0.03422 0.32547 0.0
C513 C 0.89961 0.09308 0.32045 0.0
O514 O 0.88035 0.09165 0.30424 0.0
N515 N 0.88611 0.0152 0.3269 0.0
C516 C 0.85918 0.97887 0.35005 0.0
C517 C 0.88245 0.98003 0.35747 0.0
C518 C 0.89557 0.99818 0.34555 0.0
C519 C 0.86388 0.01361 0.31786 0.0
C520 C 0.85037 0.99541 0.32835 0.0
H521 H 0.91279 0.99945 0.35421 0.0
H522 H 0.85577 0.02738 0.30491 0.0
H523 H 0.92541 0.027 0.39206 0.0
H524 H 0.8734 0.06463 0.43788 0.0
H525 H 0.91431 0.05106 0.19988 0.0
H526 H 0.89025 0.96807 0.37442 0.0
H527 H 0.83273 0.9952 0.32096 0.0
C528 C 0.80865 0.63467 0.63703 0.0
C529 C 0.80817 0.64078 0.66988 0.0
N530 N 0.79487 0.65924 0.67301 0.0
N531 N 0.7962 0.64947 0.6191 0.0
C532 C 0.78782 0.66425 0.64182 0.0
H533 H 0.81666 0.61961 0.62711 0.0
Co534 Co 0.79066 0.64434 0.57412 0.0
C535 C 0.76769 0.68682 0.54935 0.0
O536 O 0.75272 0.67429 0.53377 0.0
N537 N 0.78543 0.6373 0.52756 0.0
C538 C 0.76879 0.62139 0.48328 0.0
C539 C 0.76535 0.63125 0.51373 0.0
C540 C 0.80079 0.63106 0.5039 0.0
N541 N 0.79117 0.62077 0.47733 0.0
O542 O 0.82207 0.65151 0.56584 0.0
H543 H 0.74901 0.63221 0.52574 0.0
H544 H 0.8189 0.63212 0.50687 0.0
O545 O 0.78292 0.67714 0.56718 0.0
C546 C 0.83527 0.63432 0.56557 0.0
O547 O 0.82617 0.61396 0.56341 0.0
N548 N 0.76093 0.63545 0.58559 0.0
C549 C 0.72267 0.6154 0.61476 0.0
C550 C 0.72489 0.63919 0.61298 0.0
C551 C 0.74422 0.64889 0.59854 0.0
C552 C 0.75895 0.61236 0.58674 0.0
C553 C 0.7399 0.60201 0.60076 0.0
H554 H 0.74617 0.66709 0.59967 0.0
H555 H 0.77268 0.6019 0.57757 0.0
H556 H 0.77588 0.67764 0.63601 0.0
H557 H 0.81545 0.63122 0.69028 0.0
H558 H 0.75587 0.6136 0.46793 0.0
H559 H 0.71238 0.65028 0.62418 0.0
H560 H 0.73896 0.58362 0.60121 0.0
C561 C 0.63188 0.56286 0.89059 0.0
C562 C 0.62911 0.56083 0.92438 0.0
N563 N 0.61309 0.545 0.93008 0.0
N564 N 0.61755 0.54857 0.875 0.0
C565 C 0.60621 0.53795 0.89973 0.0
H566 H 0.64407 0.57361 0.87808 0.0
Co567 Co 0.61759 0.54539 0.82915 0.0
C568 C 0.57353 0.52274 0.81297 0.0
O569 O 0.58367 0.50914 0.7917 0.0
N570 N 0.6188 0.54344 0.78223 0.0
C571 C 0.61252 0.55434 0.72991 0.0
C572 C 0.60273 0.55025 0.76041 0.0
C573 C 0.63819 0.54365 0.76418 0.0
N574 N 0.63497 0.55056 0.73244 0.0
O575 O 0.60829 0.57667 0.82602 0.0
H576 H 0.58551 0.55463 0.767 0.0
H577 H 0.6548 0.54218 0.77519 0.0
O578 O 0.58532 0.53695 0.82975 0.0
C579 C 0.62098 0.59244 0.81485 0.0
O580 O 0.6389 0.58687 0.79728 0.0
N581 N 0.6282 0.51501 0.83455 0.0
C582 C 0.6509 0.47668 0.86032 0.0
C583 C 0.62713 0.4782 0.86104 0.0
C584 C 0.61615 0.49742 0.84813 0.0
C585 C 0.65123 0.51351 0.83283 0.0
C586 C 0.66281 0.49438 0.84462 0.0
H587 H 0.59818 0.49875 0.85221 0.0
H588 H 0.66099 0.52804 0.82492 0.0
H589 H 0.59355 0.52496 0.89574 0.0
H590 H 0.63902 0.56938 0.94329 0.0
H591 H 0.60401 0.56146 0.70846 0.0
H592 H 0.61701 0.46549 0.87361 0.0
H593 H 0.68111 0.49414 0.84286 0.0
C594 C 0.70847 0.38129 0.13386 0.0
C595 C 0.71002 0.37624 0.16705 0.0
N596 N 0.72552 0.35968 0.17086 0.0
N597 N 0.72246 0.36762 0.11642 0.0
C598 C 0.73285 0.35471 0.13982 0.0
H599 H 0.69876 0.39512 0.12341 0.0
Co600 Co 0.72788 0.37219 0.07112 0.0
C601 C 0.74822 0.3283 0.04586 0.0
O602 O 0.76088 0.33934 0.02453 0.0
N603 N 0.73313 0.37885 0.02458 0.0
C604 C 0.75017 0.39511 0.98089 0.0
C605 C 0.75337 0.38437 0.01078 0.0
C606 C 0.71792 0.38629 1.00147 0.0
N607 N 0.7278 0.39678 0.97529 0.0
O608 O 0.69661 0.36438 0.0628 0.0
H609 H 0.76971 0.38239 0.02256 0.0
H610 H 0.69982 0.38607 0.0047 0.0
O611 O 0.73539 0.33941 0.06575 0.0
C612 C 0.68208 0.38042 0.06212 0.0
O613 O 0.68948 0.40146 0.06011 0.0
N614 N 0.75765 0.38102 0.08212 0.0
C615 C 0.79624 0.39996 0.11154 0.0
C616 C 0.79449 0.37637 0.1067 0.0
C617 C 0.77503 0.3672 0.09196 0.0
C618 C 0.75945 0.40402 0.08544 0.0
C619 C 0.77865 0.41387 0.09979 0.0
H620 H 0.77355 0.34897 0.0906 0.0
H621 H 0.74532 0.4147 0.07832 0.0
H622 H 0.74639 0.34284 0.13457 0.0
H623 H 0.70185 0.38539 0.18712 0.0
H624 H 0.76329 0.40283 0.96582 0.0
H625 H 0.80767 0.365 0.1154 0.0
H626 H 0.77907 0.43211 0.10347 0.0
C627 C 0.88468 0.46565 0.37668 0.0
C628 C 0.88953 0.46774 0.40995 0.0
N629 N 0.90839 0.48044 0.41305 0.0
N630 N 0.90056 0.47671 0.35885 0.0
C631 C 0.9149 0.48543 0.38172 0.0
H632 H 0.86982 0.45763 0.36625 0.0
Co633 Co 0.89861 0.48104 0.31326 0.0
C634 C 0.94368 0.50124 0.29462 0.0
O635 O 0.9344 0.51565 0.27374 0.0
N636 N 0.89535 0.485 0.26599 0.0
C637 C 0.88218 0.49912 0.2181 0.0
C638 C 0.89005 0.50433 0.24939 0.0
C639 C 0.89134 0.46843 0.24322 0.0
N640 N 0.88248 0.47638 0.21446 0.0
O641 O 0.90593 0.44945 0.30814 0.0
H642 H 0.8901 0.52123 0.25992 0.0
H643 H 0.89367 0.45059 0.2479 0.0
O644 O 0.93113 0.48776 0.31138 0.0
C645 C 0.88909 0.43592 0.30687 0.0
O646 O 0.86887 0.44448 0.30119 0.0
N647 N 0.88971 0.51137 0.3215 0.0
C648 C 0.86815 0.54834 0.35228 0.0
C649 C 0.89194 0.54641 0.35222 0.0
C650 C 0.90241 0.52787 0.33653 0.0
C651 C 0.86678 0.51366 0.31953 0.0
C652 C 0.85574 0.53219 0.33402 0.0
H653 H 0.92049 0.52594 0.33917 0.0
H654 H 0.85684 0.50025 0.30828 0.0
H655 H 0.92908 0.49632 0.37577 0.0
H656 H 0.87894 0.46207 0.43031 0.0
H657 H 0.87482 0.51108 0.20072 0.0
H658 H 0.90238 0.55818 0.36613 0.0
H659 H 0.83746 0.53313 0.33221 0.0
C660 C 0.80937 0.3899 0.37538 0.0
C661 C 0.80783 0.38714 0.34155 0.0
N662 N 0.79461 0.36896 0.33541 0.0
N663 N 0.79734 0.37347 0.39062 0.0
C664 C 0.78848 0.36091 0.36561 0.0
H665 H 0.81848 0.40322 0.38822 0.0
Co666 Co 0.79531 0.37246 0.43663 0.0
C667 C 0.7711 0.32859 0.45054 0.0
O668 O 0.75747 0.33849 0.47199 0.0
N669 N 0.79456 0.37268 0.48388 0.0
C670 C 0.80409 0.36449 0.5363 0.0
C671 C 0.79967 0.35564 0.50518 0.0
C672 C 0.79636 0.39168 0.50281 0.0
N673 N 0.80222 0.38729 0.53469 0.0
O674 O 0.82614 0.36201 0.43748 0.0
H675 H 0.80234 0.33812 0.49807 0.0
H676 H 0.7966 0.4086 0.49258 0.0
O677 O 0.78581 0.34049 0.43497 0.0
C678 C 0.84272 0.3742 0.44712 0.0
O679 O 0.83866 0.39145 0.46695 0.0
N680 N 0.7653 0.3841 0.43319 0.0
C681 C 0.72878 0.40951 0.40759 0.0
C682 C 0.72968 0.38577 0.40371 0.0
C683 C 0.748 0.37339 0.41672 0.0
C684 C 0.76413 0.40697 0.43829 0.0
C685 C 0.74575 0.41976 0.42698 0.0
H686 H 0.74921 0.35568 0.41018 0.0
H687 H 0.77856 0.41599 0.4479 0.0
H688 H 0.77753 0.34638 0.36933 0.0
H689 H 0.81514 0.39819 0.32287 0.0
H690 H 0.80978 0.35494 0.55773 0.0
H691 H 0.71741 0.37692 0.38845 0.0
H692 H 0.74587 0.4379 0.43143 0.0
C693 C 0.88943 0.55026 0.62676 0.0
C694 C 0.89368 0.54562 0.5939 0.0
N695 N 0.90973 0.52939 0.59247 0.0
N696 N 0.90298 0.53728 0.64591 0.0
C697 C 0.91516 0.52463 0.62431 0.0
H698 H 0.87667 0.56177 0.63625 0.0
Co699 Co 0.90053 0.5372 0.69159 0.0
C700 C 0.94214 0.51362 0.71647 0.0
O701 O 0.9296 0.50212 0.73762 0.0
N702 N 0.89694 0.53817 0.7383 0.0
C703 C 0.90148 0.54987 0.79054 0.0
C704 C 0.91222 0.54551 0.76088 0.0
C705 C 0.87695 0.53859 0.75489 0.0
N706 N 0.87912 0.54593 0.78667 0.0
O707 O 0.91083 0.56848 0.69125 0.0
H708 H 0.92971 0.54951 0.75545 0.0
H709 H 0.8608 0.53634 0.74278 0.0
O710 O 0.93257 0.52732 0.69605 0.0
C711 C 0.89851 0.58522 0.70031 0.0
O712 O 0.88093 0.58128 0.71947 0.0
N713 N 0.88871 0.50713 0.68888 0.0
C714 C 0.86568 0.46913 0.66296 0.0
C715 C 0.88932 0.46895 0.667 0.0
C716 C 0.90051 0.4881 0.67961 0.0
C717 C 0.86564 0.50725 0.68626 0.0
C718 C 0.85381 0.48844 0.67387 0.0
H719 H 0.91871 0.48808 0.67846 0.0
H720 H 0.85642 0.52281 0.69086 0.0
H721 H 0.92711 0.51161 0.63162 0.0
H722 H 0.88461 0.55252 0.57276 0.0
H723 H 0.90944 0.55694 0.81245 0.0
H724 H 0.8994 0.45483 0.65804 0.0
H725 H 0.83557 0.48953 0.67133 0.0
C726 C 0.70578 0.6388 0.87197 0.0
C727 C 0.70762 0.64409 0.83887 0.0
N728 N 0.72413 0.6597 0.83533 0.0
N729 N 0.72087 0.65113 0.88945 0.0
C730 C 0.73192 0.66374 0.86645 0.0
H731 H 0.6945 0.6263 0.88271 0.0
Co732 Co 0.72337 0.64682 0.93489 0.0
C733 C 0.75074 0.68585 0.96015 0.0
O734 O 0.76266 0.67188 0.9788 0.0
N735 N 0.7246 0.64111 0.98118 0.0
C736 C 0.71538 0.64345 0.03488 0.0
C737 C 0.72052 0.65562 0.0066 0.0
C738 C 0.72156 0.62027 0.99479 0.0
N739 N 0.71554 0.62119 0.0272 0.0
O740 O 0.69305 0.65926 0.93912 0.0
H741 H 0.71849 0.6738 0.00403 0.0
H742 H 0.72061 0.60489 0.98024 0.0
O743 O 0.7354 0.67787 0.94087 0.0
C744 C 0.67549 0.6501 0.95194 0.0
O745 O 0.67803 0.63378 0.97384 0.0
N746 N 0.75243 0.63357 0.92786 0.0
C747 C 0.79032 0.60997 0.90314 0.0
C748 C 0.79027 0.63377 0.90534 0.0
C749 C 0.77114 0.64521 0.91714 0.0
C750 C 0.75215 0.6104 0.92567 0.0
C751 C 0.77093 0.59826 0.91384 0.0
H752 H 0.77109 0.66343 0.91502 0.0
H753 H 0.7367 0.60125 0.93084 0.0
H754 H 0.74568 0.67523 0.87218 0.0
H755 H 0.69835 0.63613 0.81876 0.0
H756 H 0.70912 0.65053 0.05799 0.0
H757 H 0.80439 0.64367 0.89603 0.0
H758 H 0.76996 0.57991 0.91212 0.0
C759 C 0.63503 0.45633 0.12914 0.0
C760 C 0.63133 0.45801 0.09555 0.0
N761 N 0.61257 0.47057 0.09075 0.0
N762 N 0.61849 0.46747 0.14558 0.0
C763 C 0.60502 0.47607 0.12143 0.0
H764 H 0.64952 0.44843 0.14084 0.0
Co765 Co 0.61995 0.47176 0.19131 0.0
C766 C 0.57687 0.49677 0.208 0.0
O767 O 0.58817 0.51165 0.2257 0.0
N768 N 0.62309 0.47564 0.23877 0.0
C769 C 0.63593 0.49034 0.28651 0.0
C770 C 0.62815 0.49515 0.25512 0.0
C771 C 0.62754 0.45926 0.26178 0.0
N772 N 0.63596 0.46768 0.29051 0.0
O773 O 0.61018 0.44074 0.19642 0.0
H774 H 0.62837 0.51195 0.24426 0.0
H775 H 0.62673 0.44128 0.257 0.0
O776 O 0.58761 0.48103 0.19265 0.0
C777 C 0.6259 0.42587 0.19736 0.0
O778 O 0.64669 0.4328 0.20336 0.0
N779 N 0.63113 0.50131 0.1831 0.0
C780 C 0.65511 0.53746 0.15496 0.0
C781 C 0.63149 0.53614 0.15182 0.0
C782 C 0.61976 0.51797 0.16622 0.0
C783 C 0.65405 0.50273 0.18717 0.0
C784 C 0.66634 0.5209 0.17383 0.0
H785 H 0.60186 0.51657 0.1614 0.0
H786 H 0.66301 0.48896 0.19926 0.0
H787 H 0.59073 0.48718 0.12599 0.0
H788 H 0.64253 0.45199 0.0761 0.0
H789 H 0.64285 0.50252 0.30397 0.0
H790 H 0.62229 0.54855 0.13717 0.0
H791 H 0.68462 0.52116 0.17636 0.0
C792 C 0.20249 0.3874 0.36476 0.0
C793 C 0.20336 0.38424 0.33097 0.0
N794 N 0.21516 0.36509 0.3249 0.0
N795 N 0.21356 0.37026 0.37992 0.0
C796 C 0.22126 0.35694 0.35499 0.0
H797 H 0.19458 0.40148 0.37763 0.0
Co798 Co 0.21669 0.3694 0.42549 0.0
C799 C 0.2407 0.32513 0.43871 0.0
O800 O 0.25507 0.33518 0.45893 0.0
N801 N 0.21884 0.36977 0.47251 0.0
C802 C 0.21234 0.3613 0.52579 0.0
C803 C 0.21495 0.35262 0.49421 0.0
C804 C 0.21785 0.38874 0.49164 0.0
N805 N 0.21392 0.38405 0.52402 0.0
O806 O 0.18549 0.35963 0.428 0.0
H807 H 0.21171 0.33517 0.48733 0.0
H808 H 0.21732 0.40578 0.48165 0.0
O809 O 0.22565 0.33702 0.42372 0.0
C810 C 0.16945 0.37198 0.43923 0.0
O811 O 0.17429 0.38766 0.46131 0.0
N812 N 0.24671 0.38062 0.4201 0.0
C813 C 0.28268 0.40477 0.39079 0.0
C814 C 0.28202 0.38093 0.38979 0.0
C815 C 0.26374 0.36922 0.40401 0.0
C816 C 0.24771 0.40375 0.42261 0.0
C817 C 0.26555 0.4161 0.40843 0.0
H818 H 0.26241 0.35135 0.39871 0.0
H819 H 0.23343 0.41299 0.43251 0.0
H820 H 0.23152 0.34188 0.35867 0.0
H821 H 0.19667 0.39563 0.31222 0.0
H822 H 0.20716 0.35187 0.54764 0.0
H823 H 0.29446 0.37148 0.3756 0.0
H824 H 0.2652 0.43449 0.40963 0.0
C825 C 0.37828 0.45262 0.11978 0.0
C826 C 0.38118 0.45401 0.08598 0.0
N827 N 0.40047 0.46551 0.08003 0.0
N828 N 0.39574 0.463 0.13511 0.0
C829 C 0.40905 0.47076 0.11021 0.0
H830 H 0.36419 0.44473 0.13256 0.0
Co831 Co 0.39694 0.46451 0.18099 0.0
C832 C 0.44134 0.48833 0.19417 0.0
O833 O 0.43175 0.50281 0.21475 0.0
N834 N 0.39672 0.46451 0.22806 0.0
C835 C 0.40578 0.45465 0.27993 0.0
C836 C 0.41412 0.46066 0.24921 0.0
C837 C 0.378 0.46025 0.24666 0.0
N838 N 0.383 0.45408 0.27826 0.0
O839 O 0.40727 0.43367 0.18102 0.0
H840 H 0.43175 0.45961 0.24223 0.0
H841 H 0.3612 0.45875 0.23621 0.0
O842 O 0.42913 0.47344 0.17945 0.0
C843 C 0.39401 0.41682 0.18474 0.0
O844 O 0.37518 0.41987 0.2016 0.0
N845 N 0.38585 0.49499 0.17831 0.0
C846 C 0.3624 0.53283 0.15297 0.0
C847 C 0.38572 0.5303 0.14775 0.0
C848 C 0.3971 0.51138 0.16058 0.0
C849 C 0.36328 0.49776 0.18483 0.0
C850 C 0.35132 0.51674 0.1729 0.0
H851 H 0.41445 0.50905 0.15309 0.0
H852 H 0.35385 0.48425 0.19647 0.0
H853 H 0.42446 0.48039 0.11396 0.0
H854 H 0.3695 0.44796 0.06719 0.0
H855 H 0.41584 0.44936 0.30108 0.0
H856 H 0.39487 0.54225 0.13226 0.0
H857 H 0.33321 0.51784 0.17698 0.0
C858 C 0.30586 0.63828 0.87262 0.0
C859 C 0.30263 0.64366 0.83981 0.0
N860 N 0.28695 0.66022 0.83814 0.0
N861 N 0.29264 0.65165 0.89167 0.0
C862 C 0.28096 0.66472 0.8699 0.0
H863 H 0.31689 0.6251 0.88215 0.0
Co864 Co 0.29258 0.64758 0.93722 0.0
C865 C 0.26828 0.68843 0.96474 0.0
O866 O 0.25692 0.67564 0.98575 0.0
N867 N 0.29394 0.6418 0.98349 0.0
C868 C 0.30571 0.64352 0.03621 0.0
C869 C 0.29957 0.65602 0.0086 0.0
C870 C 0.29736 0.62079 0.99644 0.0
N871 N 0.30468 0.62131 0.02833 0.0
O872 O 0.32295 0.65955 0.93806 0.0
H873 H 0.30163 0.67419 0.00613 0.0
H874 H 0.297 0.60546 0.98169 0.0
O875 O 0.28188 0.67908 0.94405 0.0
C876 C 0.34082 0.64771 0.9422 0.0
O877 O 0.33925 0.62849 0.95866 0.0
N878 N 0.26292 0.63502 0.93336 0.0
C879 C 0.22592 0.6135 0.90258 0.0
C880 C 0.22553 0.63687 0.90932 0.0
C881 C 0.2442 0.64733 0.92429 0.0
C882 C 0.26297 0.612 0.92878 0.0
C883 C 0.24457 0.60086 0.91383 0.0
H884 H 0.24418 0.66558 0.92479 0.0
H885 H 0.2783 0.60245 0.93325 0.0
H886 H 0.26799 0.6768 0.87697 0.0
H887 H 0.31031 0.63526 0.81865 0.0
H888 H 0.31284 0.65028 0.05896 0.0
H889 H 0.21155 0.64735 0.90089 0.0
H890 H 0.24589 0.58286 0.90846 0.0
C891 C 0.13492 0.55437 0.62661 0.0
C892 C 0.12943 0.55182 0.59361 0.0
N893 N 0.11147 0.53778 0.59151 0.0
N894 N 0.12025 0.54235 0.64533 0.0
C895 C 0.10611 0.53246 0.6232 0.0
H896 H 0.14953 0.56331 0.63621 0.0
Co897 Co 0.12387 0.53732 0.69066 0.0
C898 C 0.07816 0.51978 0.71391 0.0
O899 O 0.08661 0.50845 0.73915 0.0
N900 N 0.12898 0.53235 0.73738 0.0
C901 C 0.14309 0.5164 0.78344 0.0
C902 C 0.13426 0.5124 0.75232 0.0
C903 C 0.13429 0.54811 0.76086 0.0
N904 N 0.14355 0.53899 0.78864 0.0
O905 O 0.11655 0.56879 0.6978 0.0
H906 H 0.13322 0.49584 0.74079 0.0
H907 H 0.13241 0.56614 0.75741 0.0
O908 O 0.09137 0.53056 0.69427 0.0
C909 C 0.13301 0.58277 0.69878 0.0
O910 O 0.15362 0.57466 0.70256 0.0
N911 N 0.13238 0.50722 0.68047 0.0
C912 C 0.15036 0.47098 0.64411 0.0
C913 C 0.12705 0.4721 0.65105 0.0
C914 C 0.11836 0.49032 0.66955 0.0
C915 C 0.15524 0.50547 0.67615 0.0
C916 C 0.16463 0.48737 0.65828 0.0
H917 H 0.10024 0.4917 0.67225 0.0
H918 H 0.16607 0.51924 0.68428 0.0
H919 H 0.09306 0.52039 0.62992 0.0
H920 H 0.13914 0.55812 0.5727 0.0
H921 H 0.1503 0.50365 0.79973 0.0
H922 H 0.11547 0.4597 0.64066 0.0
H923 H 0.18268 0.48726 0.65333 0.0
C924 C 0.21273 0.6293 0.63232 0.0
C925 C 0.2117 0.63254 0.66606 0.0
N926 N 0.22055 0.65308 0.67302 0.0
N927 N 0.22191 0.6478 0.61785 0.0
C928 C 0.22656 0.66206 0.64334 0.0
H929 H 0.20787 0.61402 0.6192 0.0
Co930 Co 0.22782 0.64836 0.57246 0.0
C931 C 0.24973 0.69429 0.56254 0.0
O932 O 0.26719 0.68544 0.54709 0.0
N933 N 0.23334 0.64735 0.52531 0.0
C934 C 0.25069 0.63805 0.47776 0.0
C935 C 0.25362 0.64604 0.50959 0.0
C936 C 0.21838 0.64057 0.50156 0.0
N937 N 0.22849 0.63432 0.47286 0.0
O938 O 0.19649 0.65604 0.56575 0.0
H939 H 0.26996 0.64799 0.52132 0.0
H940 H 0.20058 0.63788 0.5058 0.0
O941 O 0.23421 0.68129 0.57404 0.0
C942 C 0.1825 0.63959 0.56413 0.0
O943 O 0.1905 0.61907 0.55852 0.0
N944 N 0.25791 0.63936 0.58192 0.0
C945 C 0.29577 0.61738 0.60943 0.0
C946 C 0.29133 0.64042 0.61619 0.0
C947 C 0.27233 0.65106 0.60228 0.0
C948 C 0.26231 0.61722 0.57418 0.0
C949 C 0.28133 0.60608 0.58704 0.0
H950 H 0.26843 0.66816 0.61005 0.0
H951 H 0.25035 0.60781 0.55914 0.0
H952 H 0.23509 0.67823 0.64048 0.0
H953 H 0.20631 0.62011 0.68428 0.0
H954 H 0.26407 0.6332 0.46075 0.0
H955 H 0.30153 0.64983 0.63382 0.0
H956 H 0.28411 0.58846 0.58045 0.0
C957 C 0.13202 0.4726 0.37644 0.0
C958 C 0.12652 0.47503 0.40942 0.0
N959 N 0.10873 0.48926 0.41165 0.0
N960 N 0.11756 0.48496 0.35777 0.0
C961 C 0.10339 0.49476 0.37999 0.0
H962 H 0.1466 0.46361 0.36689 0.0
Co963 Co 0.12199 0.48969 0.31244 0.0
C964 C 0.07923 0.51336 0.2903 0.0
O965 O 0.09077 0.52855 0.27353 0.0
N966 N 0.12793 0.49409 0.26564 0.0
C967 C 0.14242 0.50987 0.21967 0.0
C968 C 0.13312 0.51398 0.25035 0.0
C969 C 0.134 0.47818 0.24272 0.0
N970 N 0.14332 0.48728 0.21505 0.0
O971 O 0.11334 0.45852 0.30543 0.0
H972 H 0.13215 0.53064 0.26156 0.0
H973 H 0.13358 0.46011 0.24691 0.0
O974 O 0.08975 0.49815 0.30704 0.0
C975 C 0.1294 0.44402 0.30564 0.0
O976 O 0.15036 0.45146 0.30358 0.0
N977 N 0.13203 0.51948 0.32241 0.0
C978 C 0.15394 0.55685 0.35181 0.0
C979 C 0.13013 0.55514 0.35161 0.0
C980 C 0.11952 0.53648 0.33655 0.0
C981 C 0.15504 0.52118 0.32127 0.0
C982 C 0.16626 0.5399 0.33496 0.0
H983 H 0.10136 0.53512 0.33853 0.0
H984 H 0.16485 0.50742 0.31068 0.0
H985 H 0.09033 0.50685 0.37343 0.0
H986 H 0.13624 0.46862 0.43027 0.0
H987 H 0.14961 0.5225 0.20317 0.0
H988 H 0.11964 0.56734 0.36459 0.0
H989 H 0.18454 0.54051 0.33319 0.0
C990 C 0.29414 0.37888 0.1207 0.0
C991 C 0.29361 0.37407 0.15403 0.0
N992 N 0.28034 0.35576 0.15856 0.0
N993 N 0.28159 0.36347 0.1041 0.0
C994 C 0.2732 0.3496 0.12794 0.0
H995 H 0.30249 0.39327 0.10934 0.0
Co996 Co 0.27725 0.36609 0.05859 0.0
C997 C 0.25018 0.32464 0.0402 0.0
O998 O 0.23556 0.3368 0.02324 0.0
N999 N 0.27365 0.37039 0.01153 0.0
C1000 C 0.26058 0.38488 0.96381 0.0
C1001 C 0.25478 0.37673 0.99471 0.0
C1002 C 0.29058 0.37448 0.98947 0.0
N1003 N 0.28325 0.3839 0.96074 0.0
O1004 O 0.30731 0.35406 0.05295 0.0
H1005 H 0.2379 0.37758 0.00505 0.0
H1006 H 0.30825 0.37187 0.99473 0.0
O1007 O 0.26628 0.33452 0.05581 0.0
C1008 C 0.32409 0.36764 0.05436 0.0
O1009 O 0.32041 0.38935 0.04865 0.0
N1010 N 0.24844 0.37884 0.06731 0.0
C1011 C 0.21304 0.40404 0.09599 0.0
C1012 C 0.21376 0.38021 0.09871 0.0
C1013 C 0.23151 0.36795 0.08417 0.0
C1014 C 0.24767 0.40184 0.06337 0.0
C1015 C 0.22993 0.41468 0.07679 0.0
H1016 H 0.23241 0.34993 0.08888 0.0
H1017 H 0.26153 0.41042 0.051 0.0
H1018 H 0.26134 0.33594 0.12329 0.0
H1019 H 0.30098 0.38424 0.1737 0.0
H1020 H 0.24914 0.39299 0.94641 0.0
H1021 H 0.20158 0.37108 0.11376 0.0
H1022 H 0.23005 0.43291 0.07315 0.0
C1023 C 0.38458 0.55158 0.881 0.0
C1024 C 0.38989 0.55016 0.91412 0.0
N1025 N 0.40756 0.53589 0.91745 0.0
N1026 N 0.39915 0.53871 0.8633 0.0
C1027 C 0.41289 0.52912 0.88631 0.0
H1028 H 0.37025 0.56056 0.87062 0.0
Co1029 Co 0.39527 0.53394 0.81802 0.0
C1030 C 0.43864 0.51066 0.79586 0.0
O1031 O 0.42794 0.49701 0.77546 0.0
N1032 N 0.38948 0.52954 0.77149 0.0
C1033 C 0.37477 0.5136 0.72589 0.0
C1034 C 0.3847 0.5096 0.75616 0.0
C1035 C 0.38217 0.5454 0.74932 0.0
N1036 N 0.37271 0.53618 0.7218 0.0
O1037 O 0.4055 0.56466 0.81078 0.0
H1038 H 0.38634 0.49294 0.76723 0.0
H1039 H 0.38172 0.56338 0.75423 0.0
O1040 O 0.42739 0.52467 0.81377 0.0
C1041 C 0.39153 0.58113 0.81279 0.0
O1042 O 0.36982 0.57671 0.80931 0.0
N1043 N 0.38453 0.50451 0.82804 0.0
C1044 C 0.36338 0.46727 0.85823 0.0
C1045 C 0.38707 0.46824 0.8553 0.0
C1046 C 0.39734 0.48704 0.84027 0.0
C1047 C 0.36146 0.50335 0.82917 0.0
C1048 C 0.35052 0.48481 0.84391 0.0
H1049 H 0.41555 0.48806 0.84083 0.0
H1050 H 0.35153 0.5176 0.82032 0.0
H1051 H 0.42566 0.51649 0.88071 0.0
H1052 H 0.38032 0.5575 0.93444 0.0
H1053 H 0.36796 0.50076 0.70939 0.0
H1054 H 0.39768 0.45506 0.86591 0.0
H1055 H 0.33222 0.48498 0.84599 0.0
H1056 H 0.17828 0.03167 0.18327 0.0
H1057 H 0.12541 0.0819 0.19219 0.0
H1058 H 0.14464 0.10587 0.15099 0.0
H1059 H 0.17732 0.11293 0.11356 0.0
H1060 H 0.23094 0.06285 0.10872 0.0
H1061 H 0.21014 0.03831 0.14608 0.0
C1062 C 0.17064 0.04763 0.17582 0.0
C1063 C 0.15026 0.05482 0.19074 0.0
C1064 C 0.18193 0.0614 0.15253 0.0
C1065 C 0.14108 0.07594 0.18125 0.0
C1066 C 0.15209 0.08964 0.15763 0.0
C1067 C 0.18452 0.09668 0.12062 0.0
C1068 C 0.20572 0.08987 0.10748 0.0
C1069 C 0.1727 0.08265 0.14332 0.0
C1070 C 0.21447 0.06854 0.11714 0.0
C1071 C 0.20268 0.05446 0.13905 0.0
H1072 H 0.18748 0.94352 0.34778 0.0
H1073 H 0.13195 0.95356 0.41602 0.0
H1074 H 0.14992 0.92812 0.45613 0.0
H1075 H 0.18294 0.90584 0.47386 0.0
H1076 H 0.2384 0.89525 0.40554 0.0
H1077 H 0.219 0.91815 0.36369 0.0
C1078 C 0.17923 0.93995 0.37131 0.0
C1079 C 0.15839 0.95047 0.37881 0.0
C1080 C 0.18976 0.92537 0.39446 0.0
C1081 C 0.14784 0.94551 0.40935 0.0
C1082 C 0.15821 0.93108 0.43246 0.0
C1083 C 0.19066 0.90802 0.44964 0.0
C1084 C 0.21237 0.8989 0.44324 0.0
C1085 C 0.17937 0.92123 0.42555 0.0
C1086 C 0.22198 0.90233 0.41157 0.0
C1087 C 0.21084 0.91541 0.3875 0.0
H1088 H 0.31299 0.90483 0.66388 0.0
H1089 H 0.32477 0.94256 0.57362 0.0
H1090 H 0.35429 0.96488 0.60154 0.0
H1091 H 0.37611 0.97445 0.65275 0.0
H1092 H 0.36246 0.93735 0.74293 0.0
H1093 H 0.33462 0.91389 0.71404 0.0
C1094 C 0.32223 0.91772 0.65016 0.0
C1095 C 0.31681 0.92188 0.61663 0.0
C1096 C 0.33885 0.93068 0.6665 0.0
C1097 C 0.32859 0.93904 0.59946 0.0
C1098 C 0.3455 0.95177 0.61541 0.0
C1099 C 0.3671 0.96109 0.6658 0.0
C1100 C 0.37121 0.95769 0.69992 0.0
C1101 C 0.3507 0.94786 0.64905 0.0
C1102 C 0.35936 0.94045 0.71678 0.0
C1103 C 0.34349 0.92699 0.70024 0.0
H1104 H 0.37179 0.10131 0.85956 0.0
H1105 H 0.31956 0.05225 0.83597 0.0
H1106 H 0.29283 0.07283 0.87009 0.0
H1107 H 0.28472 0.10233 0.9112 0.0
H1108 H 0.33708 0.14951 0.93961 0.0
H1109 H 0.36325 0.13177 0.89996 0.0
C1110 C 0.35461 0.09501 0.86178 0.0
C1111 C 0.34803 0.07512 0.84452 0.0
C1112 C 0.33923 0.10646 0.88288 0.0
C1113 C 0.32537 0.06771 0.84776 0.0
C1114 C 0.30994 0.07934 0.86785 0.0
C1115 C 0.30169 0.10907 0.90825 0.0
C1116 C 0.30887 0.12731 0.92829 0.0
C1117 C 0.31676 0.09845 0.886 0.0
C1118 C 0.33115 0.13544 0.9246 0.0
C1119 C 0.34611 0.12529 0.9019 0.0
H1120 H 0.20154 0.89168 0.85483 0.0
H1121 H 0.19925 0.94048 0.93496 0.0
H1122 H 0.17231 0.9636 0.90357 0.0
H1123 H 0.15154 0.97146 0.85148 0.0
H1124 H 0.15413 0.92244 0.77171 0.0
H1125 H 0.17807 0.89774 0.80521 0.0
C1126 C 0.19476 0.90707 0.8659 0.0
C1127 C 0.20268 0.91433 0.89725 0.0
C1128 C 0.17924 0.92035 0.84767 0.0
C1129 C 0.19384 0.93459 0.91071 0.0
C1130 C 0.17834 0.94782 0.89279 0.0
C1131 C 0.15716 0.95527 0.84157 0.0
C1132 C 0.15095 0.94899 0.80899 0.0
C1133 C 0.1713 0.94115 0.86091 0.0
C1134 C 0.15826 0.92776 0.79674 0.0
C1135 C 0.17221 0.91363 0.81583 0.0
H1136 H 0.29856 0.88995 0.10465 0.0
H1137 H 0.34629 0.89937 0.0244 0.0
H1138 H 0.37089 0.92114 0.06073 0.0
H1139 H 0.37735 0.94082 0.11338 0.0
H1140 H 0.33019 0.93195 0.19441 0.0
H1141 H 0.3069 0.90713 0.15961 0.0
C1142 C 0.31443 0.8966 0.09519 0.0
C1143 C 0.32036 0.89284 0.06161 0.0
C1144 C 0.32858 0.90955 0.11628 0.0
C1145 C 0.34119 0.9015 0.05005 0.0
C1146 C 0.3553 0.91425 0.07082 0.0
C1147 C 0.36234 0.93302 0.12393 0.0
C1148 C 0.35565 0.93845 0.15667 0.0
C1149 C 0.34898 0.91875 0.10377 0.0
C1150 C 0.33573 0.92842 0.16926 0.0
C1151 C 0.32238 0.91414 0.14934 0.0
H1152 H 0.29288 0.07581 0.3662 0.0
H1153 H 0.34144 0.12011 0.41355 0.0
H1154 H 0.37194 0.10314 0.38076 0.0
H1155 H 0.3846 0.07696 0.33665 0.0
H1156 H 0.33603 0.03212 0.29042 0.0
H1157 H 0.30593 0.04797 0.32487 0.0
C1158 C 0.31018 0.08148 0.36993 0.0
C1159 C 0.31472 0.09931 0.39246 0.0
C1160 C 0.3277 0.07166 0.35091 0.0
C1161 C 0.33729 0.10664 0.39622 0.0
C1162 C 0.3548 0.09688 0.3775 0.0
C1163 C 0.36754 0.07037 0.33437 0.0
C1164 C 0.36273 0.05342 0.31052 0.0
C1165 C 0.35018 0.07956 0.35444 0.0
C1166 C 0.34031 0.04539 0.30796 0.0
C1167 C 0.32303 0.05439 0.32784 0.0
H1168 H 0.18882 0.04155 0.61357 0.0
H1169 H 0.14559 0.09092 0.66153 0.0
H1170 H 0.16208 0.12109 0.62765 0.0
H1171 H 0.18719 0.13315 0.58262 0.0
H1172 H 0.23156 0.08424 0.53586 0.0
H1173 H 0.21626 0.05429 0.57136 0.0
C1174 C 0.18328 0.05896 0.61718 0.0
C1175 C 0.16581 0.06381 0.64013 0.0
C1176 C 0.19293 0.07634 0.59764 0.0
C1177 C 0.15869 0.08651 0.6438 0.0
C1178 C 0.1682 0.10384 0.62449 0.0
C1179 C 0.19394 0.11611 0.58039 0.0
C1180 C 0.21052 0.11114 0.5561 0.0
C1181 C 0.18512 0.09891 0.60103 0.0
C1182 C 0.2186 0.08866 0.55376 0.0
C1183 C 0.20989 0.07147 0.57421 0.0
H1184 H 0.86629 0.93028 0.78923 0.0
H1185 H 0.87442 0.98797 0.85471 0.0
H1186 H 0.85124 0.96917 0.89659 0.0
H1187 H 0.82645 0.93732 0.91343 0.0
H1188 H 0.8196 0.87941 0.84836 0.0
H1189 H 0.84491 0.89714 0.80809 0.0
C1190 C 0.86351 0.93874 0.81275 0.0
C1191 C 0.872 0.9609 0.81814 0.0
C1192 C 0.85027 0.92773 0.83704 0.0
C1193 C 0.86781 0.97125 0.84917 0.0
C1194 C 0.85458 0.96043 0.87336 0.0
C1195 C 0.83068 0.92851 0.89057 0.0
C1196 C 0.82103 0.90705 0.88401 0.0
C1197 C 0.84531 0.93886 0.86732 0.0
C1198 C 0.82689 0.89579 0.85434 0.0
C1199 C 0.84128 0.90602 0.8311 0.0
H1200 H 0.79769 0.1212 0.59775 0.0
H1201 H 0.82524 0.09437 0.50651 0.0
H1202 H 0.84791 0.06707 0.53776 0.0
H1203 H 0.8606 0.05104 0.59119 0.0
H1204 H 0.83178 0.07599 0.6826 0.0
H1205 H 0.80912 0.10381 0.65144 0.0
C1206 C 0.80857 0.10926 0.58482 0.0
C1207 C 0.80961 0.10981 0.54981 0.0
C1208 C 0.82151 0.09337 0.60305 0.0
C1209 C 0.82375 0.09415 0.53333 0.0
C1210 C 0.83692 0.07863 0.55123 0.0
C1211 C 0.84944 0.06269 0.60423 0.0
C1212 C 0.84805 0.06174 0.63913 0.0
C1213 C 0.83606 0.07816 0.58608 0.0
C1214 C 0.8332 0.07656 0.65575 0.0
C1215 C 0.82024 0.09241 0.63793 0.0
H1216 H 0.69867 0.07603 0.41094 0.0
H1217 H 0.70678 0.13117 0.3412 0.0
H1218 H 0.68109 0.11249 0.30233 0.0
H1219 H 0.65825 0.07933 0.28644 0.0
H1220 H 0.6495 0.02425 0.35614 0.0
H1221 H 0.67338 0.04399 0.39649 0.0
C1222 C 0.69468 0.08398 0.38732 0.0
C1223 C 0.70461 0.10504 0.37916 0.0
C1224 C 0.6798 0.0731 0.36491 0.0
C1225 C 0.69916 0.11516 0.34843 0.0
C1226 C 0.68454 0.10441 0.32603 0.0
C1227 C 0.66108 0.07181 0.31067 0.0
C1228 C 0.65208 0.05015 0.31797 0.0
C1229 C 0.67492 0.08326 0.33383 0.0
C1230 C 0.65639 0.0407 0.34954 0.0
C1231 C 0.67006 0.052 0.3727 0.0
H1232 H 0.72894 0.89457 0.10187 0.0
H1233 H 0.67914 0.89406 0.02311 0.0
H1234 H 0.65384 0.91711 0.05647 0.0
H1235 H 0.6474 0.94118 0.10503 0.0
H1236 H 0.69684 0.94258 0.18414 0.0
H1237 H 0.72071 0.91588 0.15341 0.0
C1238 C 0.71247 0.89931 0.09216 0.0
C1239 C 0.70621 0.89249 0.05983 0.0
C1240 C 0.69796 0.91311 0.11133 0.0
C1241 C 0.68457 0.89862 0.0479 0.0
C1242 C 0.67004 0.91211 0.0669 0.0
C1243 C 0.6631 0.93524 0.11607 0.0
C1244 C 0.67032 0.9441 0.14681 0.0
C1245 C 0.67678 0.91993 0.09827 0.0
C1246 C 0.69098 0.93639 0.16027 0.0
C1247 C 0.70464 0.92104 0.14276 0.0
H1248 H 0.82153 0.08775 0.1092 0.0
H1249 H 0.79836 0.1342 0.18501 0.0
H1250 H 0.82487 0.11764 0.2248 0.0
H1251 H 0.85415 0.08944 0.23864 0.0
H1252 H 0.87852 0.04365 0.16309 0.0
H1253 H 0.85217 0.06038 0.12265 0.0
C1254 C 0.82237 0.09426 0.13441 0.0
C1255 C 0.80802 0.11228 0.144 0.0
C1256 C 0.83782 0.08468 0.15727 0.0
C1257 C 0.80941 0.12061 0.17675 0.0
C1258 C 0.82447 0.11102 0.19964 0.0
C1259 C 0.85356 0.08302 0.21339 0.0
C1260 C 0.86805 0.06512 0.20395 0.0
C1261 C 0.83864 0.09296 0.19027 0.0
C1262 C 0.86751 0.05739 0.17089 0.0
C1263 C 0.85242 0.06692 0.14784 0.0
H1264 H 0.6541 0.08891 0.87387 0.0
H1265 H 0.70786 0.03905 0.86882 0.0
H1266 H 0.73147 0.0626 0.90414 0.0
H1267 H 0.7358 0.09531 0.94099 0.0
H1268 H 0.68171 0.14422 0.94984 0.0
H1269 H 0.65923 0.12289 0.9092 0.0
C1270 C 0.67097 0.08314 0.88042 0.0
C1271 C 0.67901 0.06209 0.86827 0.0
C1272 C 0.6844 0.09652 0.90186 0.0
C1273 C 0.70116 0.05527 0.87688 0.0
C1274 C 0.7147 0.06866 0.89754 0.0
C1275 C 0.71933 0.10165 0.93352 0.0
C1276 C 0.71051 0.12142 0.94848 0.0
C1277 C 0.70637 0.08908 0.91067 0.0
C1278 C 0.68886 0.12901 0.9389 0.0
C1279 C 0.676 0.1168 0.91565 0.0
H1280 H 0.63947 0.93522 0.68926 0.0
H1281 H 0.68243 0.99412 0.69749 0.0
H1282 H 0.71051 0.97638 0.66112 0.0
H1283 H 0.72361 0.94369 0.629 0.0
H1284 H 0.67928 0.88589 0.61561 0.0
H1285 H 0.65143 0.90337 0.65228 0.0
C1286 C 0.65493 0.94413 0.6828 0.0
C1287 C 0.65882 0.966 0.69596 0.0
C1288 C 0.67092 0.93393 0.66119 0.0
C1289 C 0.67891 0.97742 0.68738 0.0
C1290 C 0.69504 0.96721 0.66671 0.0
C1291 C 0.70771 0.93496 0.63317 0.0
C1292 C 0.70402 0.91318 0.61924 0.0
C1293 C 0.69129 0.94544 0.65355 0.0
C1294 C 0.68322 0.90231 0.62625 0.0
C1295 C 0.66704 0.91242 0.64715 0.0
H1296 H 0.7845 0.9255 0.43263 0.0
H1297 H 0.83903 0.87728 0.44269 0.0
H1298 H 0.86288 0.90049 0.40603 0.0
H1299 H 0.86871 0.93549 0.37318 0.0
H1300 H 0.81468 0.98513 0.36826 0.0
H1301 H 0.79016 0.96009 0.39965 0.0
C1302 C 0.80144 0.91984 0.42627 0.0
C1303 C 0.80991 0.89957 0.44016 0.0
C1304 C 0.81522 0.93357 0.40592 0.0
C1305 C 0.83213 0.8928 0.43231 0.0
C1306 C 0.84576 0.9061 0.41137 0.0
C1307 C 0.85163 0.94098 0.37898 0.0
C1308 C 0.8438 0.96236 0.36766 0.0
C1309 C 0.83761 0.92675 0.39842 0.0
C1310 C 0.82133 0.9687 0.37542 0.0
C1311 C 0.80721 0.95444 0.39391 0.0
H1312 H 0.63248 0.58509 0.68784 0.0
H1313 H 0.67736 0.53353 0.72649 0.0
H1314 H 0.70839 0.54869 0.69286 0.0
H1315 H 0.72326 0.57781 0.65488 0.0
H1316 H 0.67813 0.62896 0.61542 0.0
H1317 H 0.64676 0.61275 0.64713 0.0
C1318 C 0.64888 0.57683 0.68847 0.0
C1319 C 0.6525 0.55812 0.7098 0.0
C1320 C 0.66671 0.58574 0.66919 0.0
C1321 C 0.67411 0.54803 0.71058 0.0
C1322 C 0.69187 0.55669 0.69132 0.0
C1323 C 0.7065 0.58522 0.65266 0.0
C1324 C 0.7032 0.60468 0.6327 0.0
C1325 C 0.68845 0.57574 0.67087 0.0
C1326 C 0.68135 0.61421 0.63087 0.0
C1327 C 0.66332 0.60486 0.64887 0.0
H1328 H 0.6919 0.47921 0.8921 0.0
H1329 H 0.63763 0.43207 0.87101 0.0
H1330 H 0.65635 0.40322 0.905 0.0
H1331 H 0.68815 0.39147 0.94205 0.0
H1332 H 0.74307 0.43843 0.95885 0.0
H1333 H 0.72444 0.46681 0.92435 0.0
C1334 C 0.68428 0.46251 0.89395 0.0
C1335 C 0.6632 0.45812 0.87869 0.0
C1336 C 0.69538 0.44576 0.91285 0.0
C1337 C 0.65359 0.43633 0.88272 0.0
C1338 C 0.66438 0.41967 0.90207 0.0
C1339 C 0.69603 0.40787 0.93784 0.0
C1340 C 0.71708 0.4127 0.95284 0.0
C1341 C 0.68523 0.42424 0.91753 0.0
C1342 C 0.72712 0.43405 0.94719 0.0
C1343 C 0.71638 0.45041 0.92763 0.0
H1344 H 0.86446 0.43415 0.22112 0.0
H1345 H 0.87235 0.4894 0.15135 0.0
H1346 H 0.84716 0.47008 0.11227 0.0
H1347 H 0.82073 0.43867 0.09957 0.0
H1348 H 0.81342 0.38363 0.16969 0.0
H1349 H 0.84099 0.40147 0.20657 0.0
C1350 C 0.86125 0.44185 0.19713 0.0
C1351 C 0.87033 0.46343 0.18949 0.0
C1352 C 0.84671 0.43066 0.17477 0.0
C1353 C 0.86542 0.47303 0.15823 0.0
C1354 C 0.85102 0.46195 0.1358 0.0
C1355 C 0.82532 0.43052 0.12281 0.0
C1356 C 0.81496 0.40983 0.13183 0.0
C1357 C 0.84116 0.44099 0.1441 0.0
C1358 C 0.82128 0.39939 0.16191 0.0
C1359 C 0.83695 0.40968 0.18316 0.0
H1360 H 0.83088 0.62823 0.44487 0.0
H1361 H 0.77681 0.57959 0.45703 0.0
H1362 H 0.79566 0.55342 0.41935 0.0
H1363 H 0.8279 0.54342 0.38495 0.0
H1364 H 0.88161 0.59207 0.36892 0.0
H1365 H 0.86284 0.61875 0.40661 0.0
C1366 C 0.82325 0.61195 0.43903 0.0
C1367 C 0.8023 0.60605 0.45356 0.0
C1368 C 0.83421 0.59682 0.4169 0.0
C1369 C 0.79262 0.58485 0.44578 0.0
C1370 C 0.8035 0.56973 0.42438 0.0
C1371 C 0.83538 0.56004 0.38879 0.0
C1372 C 0.85621 0.56555 0.37362 0.0
C1373 C 0.8243 0.57549 0.40988 0.0
C1374 C 0.86576 0.58705 0.38032 0.0
C1375 C 0.85495 0.60245 0.40181 0.0
H1376 H 0.67568 0.47993 0.31752 0.0
H1377 H 0.62568 0.42664 0.31738 0.0
H1378 H 0.64926 0.40411 0.35559 0.0
H1379 H 0.68493 0.39931 0.38754 0.0
H1380 H 0.73588 0.45208 0.38175 0.0
H1381 H 0.71079 0.47519 0.34848 0.0
C1382 C 0.66969 0.4636 0.32637 0.0
C1383 C 0.64879 0.45512 0.31503 0.0
C1384 C 0.68354 0.45062 0.34749 0.0
C1385 C 0.64166 0.43356 0.32591 0.0
C1386 C 0.65516 0.42071 0.3477 0.0
C1387 C 0.69064 0.41582 0.37901 0.0
C1388 C 0.71236 0.42385 0.38815 0.0
C1389 C 0.67632 0.42897 0.35839 0.0
C1390 C 0.71914 0.44547 0.37661 0.0
C1391 C 0.70485 0.45874 0.35698 0.0
H1392 H 0.83072 0.47276 0.61845 0.0
H1393 H 0.87447 0.42319 0.66492 0.0
H1394 H 0.85803 0.39326 0.63042 0.0
H1395 H 0.83276 0.3815 0.58473 0.0
H1396 H 0.78829 0.43101 0.53973 0.0
H1397 H 0.80329 0.46045 0.57632 0.0
C1398 C 0.83637 0.45536 0.62171 0.0
C1399 C 0.85396 0.45041 0.64439 0.0
C1400 C 0.82678 0.43815 0.60181 0.0
C1401 C 0.86124 0.4277 0.64745 0.0
C1402 C 0.85176 0.41049 0.62777 0.0
C1403 C 0.826 0.39859 0.58326 0.0
C1404 C 0.80949 0.40394 0.55907 0.0
C1405 C 0.83474 0.41556 0.6045 0.0
C1406 C 0.80123 0.42639 0.55757 0.0
C1407 C 0.80977 0.44327 0.57862 0.0
H1408 H 0.88141 0.57696 0.83663 0.0
H1409 H 0.83541 0.53127 0.78654 0.0
H1410 H 0.80393 0.54624 0.81932 0.0
H1411 H 0.78905 0.57411 0.85963 0.0
H1412 H 0.83554 0.61884 0.91051 0.0
H1413 H 0.86724 0.60221 0.8801 0.0
C1414 C 0.86467 0.56984 0.83315 0.0
C1415 C 0.86096 0.55304 0.80867 0.0
C1416 C 0.84661 0.57849 0.85215 0.0
C1417 C 0.83886 0.54444 0.80464 0.0
C1418 C 0.8208 0.55295 0.82352 0.0
C1419 C 0.80615 0.57992 0.86461 0.0
C1420 C 0.80979 0.59789 0.88724 0.0
C1421 C 0.8244 0.57025 0.84697 0.0
C1422 C 0.83212 0.60534 0.8929 0.0
C1423 C 0.8503 0.59577 0.87558 0.0
H1424 H 0.65388 0.54496 0.08867 0.0
H1425 H 0.68612 0.56787 0.17879 0.0
H1426 H 0.70822 0.59577 0.14703 0.0
H1427 H 0.71801 0.61393 0.09326 0.0
H1428 H 0.68681 0.58931 1.00324 0.0
H1429 H 0.66489 0.56173 0.03506 0.0
C1430 C 0.66566 0.55619 0.10131 0.0
C1431 C 0.6682 0.55466 0.13601 0.0
C1432 C 0.67865 0.57172 0.08281 0.0
C1433 C 0.68384 0.5689 0.15209 0.0
C1434 C 0.69646 0.5848 0.13394 0.0
C1435 C 0.70654 0.60237 0.08073 0.0
C1436 C 0.70423 0.60358 0.04593 0.0
C1437 C 0.69401 0.58638 0.09926 0.0
C1438 C 0.68928 0.58849 0.02989 0.0
C1439 C 0.67655 0.57283 0.04812 0.0
H1440 H 0.33896 0.46466 0.28863 0.0
H1441 H 0.39251 0.4202 0.32187 0.0
H1442 H 0.36659 0.40165 0.36046 0.0
H1443 H 0.3282 0.39691 0.38363 0.0
H1444 H 0.27456 0.4414 0.35071 0.0
H1445 H 0.30085 0.46099 0.31361 0.0
C1446 C 0.34493 0.45095 0.30438 0.0
C1447 C 0.36773 0.44396 0.30228 0.0
C1448 C 0.32985 0.44028 0.32672 0.0
C1449 C 0.37521 0.42624 0.32316 0.0
C1450 C 0.36032 0.41546 0.34515 0.0
C1451 C 0.32229 0.41095 0.36843 0.0
C1452 C 0.2994 0.41767 0.37017 0.0
C1453 C 0.33755 0.42219 0.347 0.0
C1454 C 0.29212 0.43604 0.35038 0.0
C1455 C 0.30713 0.44717 0.32888 0.0
H1456 H 0.362 0.54034 0.08655 0.0
H1457 H 0.33343 0.56489 0.17837 0.0
H1458 H 0.31268 0.59453 0.14788 0.0
H1459 H 0.30326 0.61395 0.09467 0.0
H1460 H 0.33068 0.58764 1.00304 0.0
H1461 H 0.35108 0.55821 0.03363 0.0
C1462 C 0.35128 0.55225 0.09986 0.0
C1463 C 0.34947 0.55066 0.1347 0.0
C1464 C 0.33908 0.56886 0.08209 0.0
C1465 C 0.33516 0.56587 0.15159 0.0
C1466 C 0.32332 0.5828 0.13414 0.0
C1467 C 0.31361 0.60165 0.08151 0.0
C1468 C 0.31531 0.60296 0.04657 0.0
C1469 C 0.32521 0.58453 0.09935 0.0
C1470 C 0.32873 0.58685 0.02978 0.0
C1471 C 0.34058 0.5701 0.04732 0.0
H1472 H 0.20363 0.57267 0.90874 0.0
H1473 H 0.21011 0.63104 0.84443 0.0
H1474 H 0.18419 0.61387 0.80454 0.0
H1475 H 0.16152 0.58149 0.78618 0.0
H1476 H 0.15401 0.52309 0.85031 0.0
H1477 H 0.17849 0.54099 0.89169 0.0
C1478 C 0.19923 0.58165 0.88609 0.0
C1479 C 0.20875 0.60321 0.8798 0.0
C1480 C 0.18419 0.57163 0.86303 0.0
C1481 C 0.20279 0.61463 0.85029 0.0
C1482 C 0.18805 0.60475 0.82727 0.0
C1483 C 0.16473 0.57275 0.8094 0.0
C1484 C 0.15585 0.55077 0.81475 0.0
C1485 C 0.1788 0.58317 0.83322 0.0
C1486 C 0.16076 0.53982 0.84508 0.0
C1487 C 0.17477 0.55009 0.86889 0.0
H1488 H 0.18755 0.44316 0.64863 0.0
H1489 H 0.13355 0.46296 0.58238 0.0
H1490 H 0.14922 0.4389 0.53862 0.0
H1491 H 0.17843 0.4122 0.51885 0.0
H1492 H 0.23084 0.38984 0.58559 0.0
H1493 H 0.21598 0.41496 0.62941 0.0
C1494 C 0.17921 0.44208 0.62464 0.0
C1495 C 0.15933 0.45477 0.61885 0.0
C1496 C 0.1882 0.4279 0.59961 0.0
C1497 C 0.14865 0.45315 0.58767 0.0
C1498 C 0.15771 0.43951 0.56251 0.0
C1499 C 0.18666 0.41307 0.54292 0.0
C1500 C 0.20591 0.39963 0.549 0.0
C1501 C 0.17752 0.42689 0.56813 0.0
C1502 C 0.21616 0.40033 0.58046 0.0
C1503 C 0.2076 0.41459 0.60543 0.0
H1504 H 0.37707 0.57883 0.69694 0.0
H1505 H 0.33437 0.5193 0.6945 0.0
H1506 H 0.30759 0.53884 0.65859 0.0
H1507 H 0.29485 0.57331 0.63086 0.0
H1508 H 0.33753 0.63295 0.63066 0.0
H1509 H 0.36533 0.61308 0.66512 0.0
C1510 C 0.36197 0.57015 0.68834 0.0
C1511 C 0.35792 0.54753 0.69836 0.0
C1512 C 0.34642 0.58158 0.66751 0.0
C1513 C 0.33826 0.53649 0.68683 0.0
C1514 C 0.32275 0.54775 0.66645 0.0
C1515 C 0.31044 0.58194 0.6375 0.0
C1516 C 0.31388 0.60474 0.62795 0.0
C1517 C 0.32653 0.57033 0.6569 0.0
C1518 C 0.33409 0.61556 0.6379 0.0
C1519 C 0.35012 0.60415 0.65753 0.0
H1520 H 0.18868 0.63962 0.44061 0.0
H1521 H 0.24619 0.59498 0.45072 0.0
H1522 H 0.2284 0.56732 0.41382 0.0
H1523 H 0.19568 0.55472 0.38202 0.0
H1524 H 0.13923 0.60048 0.36675 0.0
H1525 H 0.15715 0.62842 0.40292 0.0
C1526 C 0.19733 0.62394 0.43427 0.0
C1527 C 0.21876 0.61941 0.4482 0.0
C1528 C 0.18707 0.60814 0.41258 0.0
C1529 C 0.22987 0.59903 0.43991 0.0
C1530 C 0.21961 0.58312 0.41902 0.0
C1531 C 0.18737 0.57097 0.38555 0.0
C1532 C 0.16583 0.57508 0.37145 0.0
C1533 C 0.19811 0.58737 0.4055 0.0
C1534 C 0.15546 0.59629 0.37765 0.0
C1535 C 0.16583 0.61249 0.39821 0.0
H1536 H 0.13475 0.44697 0.18518 0.0
H1537 H 0.18392 0.50098 0.19183 0.0
H1538 H 0.20937 0.48035 0.15493 0.0
H1539 H 0.21874 0.44621 0.12361 0.0
H1540 H 0.169 0.3928 0.11299 0.0
H1541 H 0.14305 0.41368 0.14906 0.0
C1542 C 0.15097 0.45421 0.17824 0.0
C1543 C 0.15734 0.47554 0.19111 0.0
C1544 C 0.16558 0.44226 0.15663 0.0
C1545 C 0.1784 0.48479 0.18189 0.0
C1546 C 0.19308 0.47291 0.16096 0.0
C1547 C 0.20205 0.43924 0.12826 0.0
C1548 C 0.19612 0.41774 0.1154 0.0
C1549 C 0.18694 0.45156 0.1484 0.0
C1550 C 0.17444 0.40903 0.12287 0.0
C1551 C 0.15943 0.42105 0.1434 0.0
H1552 H 0.32512 0.40195 0.96923 0.0
H1553 H 0.27172 0.39348 0.89692 0.0
H1554 H 0.29224 0.41785 0.85791 0.0
H1555 H 0.32439 0.44343 0.84561 0.0
H1556 H 0.37737 0.45165 0.91864 0.0
H1557 H 0.35822 0.4251 0.95568 0.0
C1558 C 0.31811 0.40489 0.94472 0.0
C1559 C 0.29675 0.39582 0.93621 0.0
C1560 C 0.32995 0.419 0.92247 0.0
C1561 C 0.28795 0.40039 0.90436 0.0
C1562 C 0.2997 0.41432 0.882 0.0
C1563 C 0.33178 0.4393 0.86956 0.0
C1564 C 0.35236 0.44952 0.8792 0.0
C1565 C 0.32052 0.42409 0.89101 0.0
C1566 C 0.36178 0.44382 0.91027 0.0
C1567 C 0.35073 0.42873 0.93163 0.0
H1568 H 0.21703 0.16156 0.27698 0.0
H1569 H 0.27987 0.15116 0.3292 0.0
H1570 H 0.3007 0.15152 0.27647 0.0
H1571 H 0.30004 0.14988 0.21505 0.0
H1572 H 0.23725 0.16115 0.16301 0.0
H1573 H 0.21726 0.16575 0.21593 0.0
C1574 C 0.23534 0.15989 0.27663 0.0
C1575 C 0.24699 0.15622 0.30658 0.0
C1576 C 0.24709 0.16012 0.24631 0.0
C1577 C 0.27069 0.15417 0.30629 0.0
C1578 C 0.28253 0.15418 0.27619 0.0
C1579 C 0.28209 0.15384 0.21553 0.0
C1580 C 0.27004 0.15509 0.18548 0.0
C1581 C 0.27079 0.15643 0.246 0.0
C1582 C 0.24682 0.16033 0.18598 0.0
C1583 C 0.23539 0.16275 0.21617 0.0
H1584 H 0.0997 0.05243 0.47463 0.0
H1585 H 0.09931 0.98962 0.41946 0.0
H1586 H 0.09582 0.96803 0.47111 0.0
H1587 H 0.09867 0.96699 0.5322 0.0
H1588 H 0.09974 0.02965 0.58759 0.0
H1589 H 0.09671 0.05143 0.53588 0.0
C1590 C 0.09831 0.03405 0.47405 0.0
C1591 C 0.09988 0.02261 0.44344 0.0
C1592 C 0.09659 0.02176 0.5039 0.0
C1593 C 0.09793 0.9988 0.44272 0.0
C1594 C 0.09616 0.98645 0.47227 0.0
C1595 C 0.09769 0.9854 0.53282 0.0
C1596 C 0.09958 0.99675 0.56344 0.0
C1597 C 0.0963 0.99773 0.50302 0.0
C1598 C 0.09813 0.02058 0.56426 0.0
C1599 C 0.09665 0.03302 0.5347 0.0
H1600 H 0.27002 0.85519 0.68777 0.0
H1601 H 0.20133 0.85857 0.72337 0.0
H1602 H 0.21454 0.85474 0.78088 0.0
H1603 H 0.2461 0.85668 0.8211 0.0
H1604 H 0.31478 0.8574 0.78527 0.0
H1605 H 0.30143 0.85293 0.72793 0.0
C1606 C 0.258 0.85429 0.70812 0.0
C1607 C 0.23479 0.85707 0.70157 0.0
C1608 C 0.26583 0.85306 0.74111 0.0
C1609 C 0.21928 0.85643 0.72807 0.0
C1610 C 0.22684 0.85435 0.76087 0.0
C1611 C 0.25803 0.85504 0.80072 0.0
C1612 C 0.28132 0.85717 0.8071 0.0
C1613 C 0.25013 0.85353 0.76777 0.0
C1614 C 0.29677 0.85565 0.78064 0.0
C1615 C 0.28914 0.85325 0.74795 0.0
H1616 H 0.41984 0.03631 0.94607 0.0
H1617 H 0.41875 0.96332 0.94517 0.0
H1618 H 0.42252 0.96241 0.00588 0.0
H1619 H 0.41722 0.98291 0.05891 0.0
H1620 H 0.41702 0.05593 0.05989 0.0
H1621 H 0.42319 0.05678 0.99955 0.0
C1622 C 0.42156 0.02032 0.95928 0.0
C1623 C 0.41918 0.99988 0.94169 0.0
C1624 C 0.4231 0.02011 0.99412 0.0
C1625 C 0.42088 0.97912 0.95858 0.0
C1626 C 0.42274 0.97867 0.9932 0.0
C1627 C 0.41961 0.99888 0.04588 0.0
C1628 C 0.4168 0.01934 0.06328 0.0
C1629 C 0.42261 0.99908 0.01127 0.0
C1630 C 0.41942 0.04009 0.04663 0.0
C1631 C 0.42269 0.04052 0.01221 0.0
H1632 H 0.80724 0.8567 0.72231 0.0
H1633 H 0.7446 0.85034 0.66809 0.0
H1634 H 0.72363 0.84613 0.72016 0.0
H1635 H 0.72273 0.85007 0.78115 0.0
H1636 H 0.78525 0.85598 0.83556 0.0
H1637 H 0.80688 0.85432 0.78363 0.0
C1638 C 0.78908 0.85384 0.7221 0.0
C1639 C 0.77739 0.85396 0.69171 0.0
C1640 C 0.77718 0.8516 0.75211 0.0
C1641 C 0.7539 0.85012 0.69132 0.0
C1642 C 0.74191 0.84794 0.72105 0.0
C1643 C 0.74111 0.85041 0.78145 0.0
C1644 C 0.75249 0.85335 0.81175 0.0
C1645 C 0.75329 0.84948 0.75157 0.0
C1646 C 0.77627 0.85364 0.81233 0.0
C1647 C 0.78857 0.85287 0.78269 0.0
H1648 H 0.91191 1.00097 0.44143 0.0
H1649 H 0.90638 0.06851 0.48186 0.0
H1650 H 0.9099 0.0534 0.53843 0.0
H1651 H 0.9093 0.02046 0.57624 0.0
H1652 H 0.9106 0.95276 0.53579 0.0
H1653 H 0.91442 0.96816 0.47936 0.0
C1654 C 0.91218 0.01233 0.46267 0.0
C1655 C 0.90902 0.03576 0.45774 0.0
C1656 C 0.91328 1.00339 0.49504 0.0
C1657 C 0.90882 0.0504 0.48532 0.0
C1658 C 0.91075 0.04177 0.51756 0.0
C1659 C 0.91115 0.0092 0.55505 0.0
C1660 C 0.90993 0.98559 0.55984 0.0
C1661 C 0.91227 0.01823 0.52275 0.0
C1662 C 0.91167 0.971 0.53236 0.0
C1663 C 0.91371 0.9798 0.50023 0.0
H1664 H 0.74116 0.16225 0.32549 0.0
H1665 H 0.80721 0.17286 0.28273 0.0
H1666 H 0.79059 0.17481 0.22701 0.0
H1667 H 0.75808 0.16797 0.19032 0.0
H1668 H 0.69253 0.15394 0.23267 0.0
H1669 H 0.70787 0.15914 0.28879 0.0
C1670 C 0.75172 0.16572 0.30401 0.0
C1671 C 0.7753 0.1675 0.30797 0.0
C1672 C 0.74211 0.16594 0.27205 0.0
C1673 C 0.789 0.17146 0.28001 0.0
C1674 C 0.77952 0.17248 0.24825 0.0
C1675 C 0.74706 0.16681 0.21184 0.0
C1676 C 0.72423 0.1607 0.20758 0.0
C1677 C 0.75621 0.16898 0.24389 0.0
C1678 C 0.71017 0.15864 0.2356 0.0
C1679 C 0.71895 0.16153 0.26758 0.0
H1680 H 0.60376 0.01728 0.94058 0.0
H1681 H 0.61705 0.94832 0.97053 0.0
H1682 H 0.61176 0.95867 0.02901 0.0
H1683 H 0.60961 0.98871 0.07185 0.0
H1684 H 0.59995 0.05822 0.04185 0.0
H1685 H 0.59705 0.04655 0.9835 0.0
C1686 C 0.6047 1.00447 0.95992 0.0
C1687 C 0.61073 0.98209 0.95142 0.0
C1688 C 0.60251 0.01079 0.99359 0.0
C1689 C 0.61242 0.96564 0.97667 0.0
C1690 C 0.60951 0.97159 0.01006 0.0
C1691 C 0.60602 1.00107 0.05254 0.0
C1692 C 0.60477 0.02422 0.06094 0.0
C1693 C 0.60542 0.99429 0.01893 0.0
C1694 C 0.60076 0.04029 0.03576 0.0
C1695 C 0.5993 0.03363 1.00245 0.0
H1696 H 0.75129 0.66878 0.68639 0.0
H1697 H 0.81795 0.66604 0.72976 0.0
H1698 H 0.80169 0.66966 0.78551 0.0
H1699 H 0.76822 0.66713 0.8218 0.0
H1700 H 0.70147 0.66765 0.77831 0.0
H1701 H 0.71789 0.67164 0.7228 0.0
C1702 C 0.76223 0.66981 0.70801 0.0
C1703 C 0.78575 0.6671 0.70413 0.0
C1704 C 0.75268 0.67107 0.73999 0.0
C1705 C 0.79979 0.66802 0.73233 0.0
C1706 C 0.79048 0.66996 0.76415 0.0
C1707 C 0.75729 0.66883 0.80026 0.0
C1708 C 0.73369 0.66684 0.80406 0.0
C1709 C 0.7669 0.67053 0.76835 0.0
C1710 C 0.71971 0.66881 0.77587 0.0
C1711 C 0.72909 0.67108 0.74416 0.0
H1712 H 0.60531 0.50084 0.94277 0.0
H1713 H 0.61004 0.5668 0.98888 0.0
H1714 H 0.60692 0.54938 0.04399 0.0
H1715 H 0.60717 0.51499 0.07896 0.0
H1716 H 0.60588 0.449 0.03282 0.0
H1717 H 0.60278 0.46664 0.97772 0.0
C1718 C 0.60503 0.5114 0.96487 0.0
C1719 C 0.60786 0.53505 0.96186 0.0
C1720 C 0.60388 0.50119 0.9964 0.0
C1721 C 0.60799 0.54855 0.9907 0.0
C1722 C 0.6062 0.5386 0.02215 0.0
C1723 C 0.60549 0.50459 0.05682 0.0
C1724 C 0.60642 0.48081 0.05965 0.0
C1725 C 0.60472 0.5149 0.02532 0.0
C1726 C 0.60496 0.46735 0.03093 0.0
C1727 C 0.60334 0.47743 0.99956 0.0
H1728 H 0.75263 0.35451 0.32021 0.0
H1729 H 0.81825 0.36863 0.27807 0.0
H1730 H 0.80311 0.36313 0.22202 0.0
H1731 H 0.76999 0.35955 0.18493 0.0
H1732 H 0.7039 0.34837 0.22715 0.0
H1733 H 0.72029 0.34703 0.28312 0.0
C1734 C 0.76369 0.35579 0.29876 0.0
C1735 C 0.78647 0.36207 0.30318 0.0
C1736 C 0.75467 0.35329 0.26658 0.0
C1737 C 0.80059 0.36404 0.27516 0.0
C1738 C 0.79193 0.36092 0.24314 0.0
C1739 C 0.75938 0.35606 0.20636 0.0
C1740 C 0.73584 0.35388 0.20212 0.0
C1741 C 0.76884 0.35626 0.23848 0.0
C1742 C 0.72208 0.34997 0.23004 0.0
C1743 C 0.73143 0.34936 0.26196 0.0
H1744 H 0.91986 0.54634 0.53273 0.0
H1745 H 0.91162 0.48378 0.58697 0.0
H1746 H 0.91333 0.46208 0.53502 0.0
H1747 H 0.91177 0.46175 0.47362 0.0
H1748 H 0.92003 0.52451 0.41968 0.0
H1749 H 0.92416 0.54536 0.47184 0.0
C1750 C 0.91898 0.52792 0.53302 0.0
C1751 C 0.91548 0.5166 0.5633 0.0
C1752 C 0.91982 0.51569 0.50313 0.0
C1753 C 0.91448 0.49275 0.56382 0.0
C1754 C 0.91525 0.4804 0.53414 0.0
C1755 C 0.91498 0.4799 0.47347 0.0
C1756 C 0.91546 0.49162 0.44305 0.0
C1757 C 0.91712 0.49178 0.50358 0.0
C1758 C 0.91979 0.51512 0.44284 0.0
C1759 C 0.92193 0.52707 0.47265 0.0
H1760 H 0.23644 0.35386 0.17419 0.0
H1761 H 0.30364 0.34486 0.21355 0.0
H1762 H 0.28843 0.34315 0.27027 0.0
H1763 H 0.25671 0.35043 0.30858 0.0
H1764 H 0.19015 0.3636 0.26908 0.0
H1765 H 0.2041 0.35732 0.21245 0.0
C1766 C 0.24754 0.3507 0.19521 0.0
C1767 C 0.27101 0.34924 0.19004 0.0
C1768 C 0.23876 0.35092 0.22765 0.0
C1769 C 0.28548 0.34581 0.21728 0.0
C1770 C 0.2768 0.34503 0.24958 0.0
C1771 C 0.24521 0.35124 0.28757 0.0
C1772 C 0.2225 0.35747 0.29274 0.0
C1773 C 0.25358 0.34847 0.25513 0.0
C1774 C 0.20774 0.35894 0.26543 0.0
C1775 C 0.21571 0.35539 0.23316 0.0
H1776 H 0.40914 0.49134 0.93042 0.0
H1777 H 0.41895 0.55749 0.97375 0.0
H1778 H 0.42137 0.54055 0.02936 0.0
H1779 H 0.41482 0.50761 0.06584 0.0
H1780 H 0.40108 0.44207 0.02265 0.0
H1781 H 0.40631 0.45776 0.96674 0.0
C1782 C 0.4126 0.50184 0.95201 0.0
C1783 C 0.4141 0.52553 0.94828 0.0
C1784 C 0.41289 0.49206 0.98387 0.0
C1785 C 0.41793 0.53919 0.97633 0.0
C1786 C 0.41914 0.52952 0.00801 0.0
C1787 C 0.41366 0.49671 0.04415 0.0
C1788 C 0.40762 0.47378 0.04811 0.0
C1789 C 0.41581 0.50608 0.01218 0.0
C1790 C 0.40565 0.45981 0.01994 0.0
C1791 C 0.40858 0.46878 0.98807 0.0
H1792 H 0.26019 0.67197 0.69023 0.0
H1793 H 0.19597 0.64969 0.72923 0.0
H1794 H 0.21004 0.6542 0.78614 0.0
H1795 H 0.24268 0.65848 0.8241 0.0
H1796 H 0.30778 0.67687 0.7843 0.0
H1797 H 0.29145 0.68049 0.72852 0.0
C1798 C 0.24909 0.66888 0.71123 0.0
C1799 C 0.22711 0.66053 0.7057 0.0
C1800 C 0.25762 0.67064 0.74374 0.0
C1801 C 0.21298 0.65607 0.73307 0.0
C1802 C 0.22105 0.65857 0.76554 0.0
C1803 C 0.25296 0.66405 0.80329 0.0
C1804 C 0.27627 0.6676 0.80799 0.0
C1805 C 0.24363 0.66499 0.77114 0.0
C1806 C 0.28975 0.67424 0.78095 0.0
C1807 C 0.28045 0.67613 0.74915 0.0
H1808 H 0.10157 0.47128 0.47193 0.0
H1809 H 0.10294 0.53452 0.41796 0.0
H1810 H 0.1012 0.5558 0.47013 0.0
H1811 H 0.10489 0.55616 0.53128 0.0
H1812 H 0.10298 0.49294 0.58527 0.0
H1813 H 0.09909 0.47183 0.53322 0.0
C1814 C 0.1009 0.48971 0.47175 0.0
C1815 C 0.10247 0.50135 0.44133 0.0
C1816 C 0.10008 0.50178 0.50185 0.0
C1817 C 0.10152 0.52522 0.44111 0.0
C1818 C 0.10077 0.53738 0.47094 0.0
C1819 C 0.1031 0.5378 0.53151 0.0
C1820 C 0.10445 0.52607 0.56187 0.0
C1821 C 0.10087 0.52583 0.50147 0.0
C1822 C 0.10192 0.50231 0.56215 0.0
C1823 C 0.09986 0.49024 0.53238 0.0
H1824 H 0.37038 0.1157 0.1891 0.0
H1825 H 0.41168 0.07237 0.12724 0.0
H1826 H 0.40004 0.09346 0.07805 0.0
H1827 H 0.36993 0.11657 0.05246 0.0
H1828 H 0.33026 0.16157 0.11386 0.0
H1829 H 0.34997 0.14802 0.16334 0.0
C1830 C 0.37757 0.11153 0.16502 0.0
C1831 C 0.39117 0.09203 0.16165 0.0
C1832 C 0.37081 0.12376 0.13668 0.0
C1833 C 0.40081 0.08703 0.13048 0.0
C1834 C 0.39404 0.099 0.1022 0.0
C1835 C 0.36646 0.12425 0.07647 0.0
C1836 C 0.34806 0.13923 0.07979 0.0
C1837 C 0.37781 0.1163 0.10485 0.0
C1838 C 0.34403 0.14955 0.11078 0.0
C1839 C 0.35513 0.14162 0.13922 0.0
H1840 H 0.10883 0.09362 0.36467 0.0
H1841 H 0.15229 0.11903 0.28711 0.0
H1842 H 0.16596 0.14906 0.32395 0.0
H1843 H 0.17437 0.1593 0.38149 0.0
H1844 H 0.13835 0.12622 0.46121 0.0
H1845 H 0.11257 0.1088 0.42116 0.0
C1846 C 0.12061 0.10631 0.35553 0.0
C1847 C 0.12995 0.10391 0.32356 0.0
C1848 C 0.13022 0.12188 0.37797 0.0
C1849 C 0.145 0.12053 0.31175 0.0
C1850 C 0.15306 0.13749 0.33302 0.0
C1851 C 0.16046 0.14885 0.39019 0.0
C1852 C 0.15888 0.14325 0.42415 0.0
C1853 C 0.14722 0.13705 0.36684 0.0
C1854 C 0.14026 0.13034 0.43509 0.0
C1855 C 0.12566 0.12016 0.41212 0.0
H1856 H 0.1412 0.89143 0.55964 0.0
H1857 H 0.18352 0.84765 0.61914 0.0
H1858 H 0.16202 0.85762 0.66866 0.0
H1859 H 0.14084 0.88905 0.69532 0.0
H1860 H 0.09592 0.93011 0.6359 0.0
H1861 H 0.10807 0.91022 0.58584 0.0
C1862 C 0.14483 0.88303 0.58307 0.0
C1863 C 0.16468 0.86998 0.58625 0.0
C1864 C 0.13226 0.88873 0.61152 0.0
C1865 C 0.16879 0.85847 0.61633 0.0
C1866 C 0.15659 0.86432 0.64484 0.0
C1867 C 0.13266 0.89265 0.67172 0.0
C1868 C 0.11869 0.9119 0.66878 0.0
C1869 C 0.13969 0.88104 0.64301 0.0
C1870 C 0.10748 0.91591 0.63849 0.0
C1871 C 0.11461 0.90467 0.6097 0.0
H1872 H 0.38282 0.90436 0.81163 0.0
H1873 H 0.4193 0.94845 0.8784 0.0
H1874 H 0.40729 0.92549 0.92573 0.0
H1875 H 0.37676 0.90114 0.94761 0.0
H1876 H 0.34132 0.85605 0.88104 0.0
H1877 H 0.36303 0.87068 0.83415 0.0
C1878 C 0.38911 0.90819 0.83637 0.0
C1879 C 0.40126 0.92839 0.84176 0.0
C1880 C 0.38184 0.8951 0.86355 0.0
C1881 C 0.40965 0.93313 0.87372 0.0
C1882 C 0.40254 0.92017 0.90089 0.0
C1883 C 0.37469 0.89367 0.92311 0.0
C1884 C 0.35687 0.87835 0.91743 0.0
C1885 C 0.38716 0.90229 0.8962 0.0
C1886 C 0.35463 0.8683 0.88588 0.0
C1887 C 0.36689 0.87684 0.85891 0.0
H1888 H 0.64317 0.89076 0.81146 0.0
H1889 H 0.60222 0.93506 0.872 0.0
H1890 H 0.61419 0.91491 0.92191 0.0
H1891 H 0.64642 0.89405 0.94713 0.0
H1892 H 0.68462 0.84719 0.88662 0.0
H1893 H 0.66292 0.85832 0.8378 0.0
C1894 C 0.63574 0.89506 0.83534 0.0
C1895 C 0.62303 0.91514 0.83847 0.0
C1896 C 0.64267 0.8833 0.86397 0.0
C1897 C 0.61282 0.92015 0.8692 0.0
C1898 C 0.61985 0.90875 0.89789 0.0
C1899 C 0.64911 0.88536 0.92365 0.0
C1900 C 0.66789 0.87088 0.91994 0.0
C1901 C 0.6364 0.89171 0.89562 0.0
C1902 C 0.67074 0.85905 0.88982 0.0
C1903 C 0.65843 0.86553 0.86172 0.0
H1904 H 0.87628 0.88882 0.69578 0.0
H1905 H 0.92162 0.93213 0.64056 0.0
H1906 H 0.91098 0.91324 0.58905 0.0
H1907 H 0.87914 0.89408 0.5602 0.0
H1908 H 0.837 0.84757 0.6153 0.0
H1909 H 0.85664 0.85745 0.66652 0.0
C1910 C 0.88483 0.89322 0.67276 0.0
C1911 C 0.89852 0.91274 0.67152 0.0
C1912 C 0.8788 0.88209 0.64317 0.0
C1913 C 0.91025 0.9177 0.64193 0.0
C1914 C 0.90403 0.90702 0.61228 0.0
C1915 C 0.87518 0.88511 0.58306 0.0
C1916 C 0.85584 0.87122 0.58447 0.0
C1917 C 0.88679 0.89064 0.61245 0.0
C1918 C 0.85133 0.85904 0.61385 0.0
C1919 C 0.86245 0.86481 0.64332 0.0
H1920 H 0.88189 0.13578 0.31823 0.0
H1921 H 0.92193 0.09132 0.38018 0.0
H1922 H 0.90877 0.11106 0.42965 0.0
H1923 H 0.87676 0.13222 0.4542 0.0
H1924 H 0.8383 0.17822 0.39247 0.0
H1925 H 0.86065 0.16729 0.34426 0.0
C1926 C 0.8886 0.13113 0.34242 0.0
C1927 C 0.90171 0.11129 0.34571 0.0
C1928 C 0.88089 0.14254 0.37093 0.0
C1929 C 0.91108 0.10602 0.37699 0.0
C1930 C 0.90343 0.11723 0.40547 0.0
C1931 C 0.87398 0.14066 0.43055 0.0
C1932 C 0.85497 0.15483 0.42643 0.0
C1933 C 0.88685 0.13419 0.40274 0.0
C1934 C 0.85224 0.16648 0.39608 0.0
C1935 C 0.86493 0.16011 0.36829 0.0
H1936 H 0.60638 0.08357 0.14088 0.0
H1937 H 0.64258 0.1181 0.21888 0.0
H1938 H 0.65483 0.14731 0.17964 0.0
H1939 H 0.66621 0.15421 0.1221 0.0
H1940 H 0.64036 0.11095 0.04449 0.0
H1941 H 0.61276 0.09471 0.08304 0.0
C1942 C 0.61624 0.09798 0.14941 0.0
C1943 C 0.62413 0.09843 0.18238 0.0
C1944 C 0.62569 0.11288 0.12592 0.0
C1945 C 0.63649 0.11737 0.19347 0.0
C1946 C 0.64381 0.13384 0.17086 0.0
C1947 C 0.65396 0.14182 0.11341 0.0
C1948 C 0.6557 0.13324 0.08088 0.0
C1949 C 0.64027 0.13051 0.13668 0.0
C1950 C 0.63947 0.11757 0.0696 0.0
C1951 C 0.62394 0.10804 0.09183 0.0
H1952 H 0.8487 0.65702 0.62053 0.0
H1953 H 0.873 0.61301 0.54276 0.0
H1954 H 0.90307 0.59903 0.57916 0.0
H1955 H 0.91345 0.59035 0.63665 0.0
H1956 H 0.88114 0.62675 0.71669 0.0
H1957 H 0.86402 0.65297 0.67688 0.0
C1958 C 0.86116 0.64505 0.61124 0.0
C1959 C 0.85838 0.63563 0.57937 0.0
C1960 C 0.87668 0.63517 0.63352 0.0
C1961 C 0.87478 0.62039 0.56733 0.0
C1962 C 0.89174 0.61211 0.58837 0.0
C1963 C 0.90321 0.60442 0.64545 0.0
C1964 C 0.89776 0.60601 0.67945 0.0
C1965 C 0.89153 0.61792 0.62222 0.0
C1966 C 0.88517 0.62485 0.69054 0.0
C1967 C 0.87515 0.63971 0.66771 0.0
H1968 H 0.66824 0.66766 0.88999 0.0
H1969 H 0.63425 0.63302 0.97032 0.0
H1970 H 0.60714 0.61688 0.93123 0.0
H1971 H 0.60203 0.60283 0.87457 0.0
H1972 H 0.64141 0.63173 0.79469 0.0
H1973 H 0.6568 0.6602 0.83258 0.0
C1974 C 0.65445 0.6572 0.89913 0.0
C1975 C 0.65404 0.65049 0.93273 0.0
C1976 C 0.64011 0.64643 0.87616 0.0
C1977 C 0.63544 0.63782 0.94436 0.0
C1978 C 0.62003 0.62837 0.92192 0.0
C1979 C 0.61329 0.6159 0.86512 0.0
C1980 C 0.62132 0.61462 0.83221 0.0
C1981 C 0.62353 0.63095 0.88763 0.0
C1982 C 0.63543 0.63202 0.82017 0.0
C1983 C 0.64442 0.64818 0.84194 0.0
H1984 H 0.60499 0.41934 0.13848 0.0
H1985 H 0.64293 0.3845 0.21441 0.0
H1986 H 0.6579 0.35805 0.17312 0.0
H1987 H 0.67096 0.35512 0.11562 0.0
H1988 H 0.64245 0.39947 0.04141 0.0
H1989 H 0.61261 0.41094 0.07999 0.0
C1990 C 0.61576 0.40532 0.14609 0.0
C1991 C 0.6235 0.40426 0.17911 0.0
C1992 C 0.6266 0.39218 0.12162 0.0
C1993 C 0.637 0.38578 0.18897 0.0
C1994 C 0.64588 0.37091 0.16519 0.0
C1995 C 0.65766 0.36661 0.10758 0.0
C1996 C 0.65926 0.37706 0.07624 0.0
C1997 C 0.64255 0.37544 0.13127 0.0
C1998 C 0.64169 0.39146 0.06566 0.0
C1999 C 0.62487 0.39833 0.08798 0.0
H2000 H 0.9112 0.4253 0.36339 0.0
H2001 H 0.86805 0.39706 0.28751 0.0
H2002 H 0.8554 0.36749 0.32589 0.0
H2003 H 0.84748 0.35848 0.38392 0.0
H2004 H 0.88353 0.39373 0.46169 0.0
H2005 H 0.90845 0.41108 0.42044 0.0
C2006 C 0.89977 0.41207 0.35494 0.0
C2007 C 0.89021 0.41349 0.32299 0.0
C2008 C 0.89077 0.3967 0.37816 0.0
C2009 C 0.87549 0.39628 0.31212 0.0
C2010 C 0.86803 0.37959 0.33425 0.0
C2011 C 0.8613 0.36932 0.39199 0.0
C2012 C 0.86309 0.37555 0.42569 0.0
C2013 C 0.87409 0.3809 0.36795 0.0
C2014 C 0.88147 0.38909 0.43578 0.0
C2015 C 0.89559 0.39921 0.41213 0.0
H2016 H 0.16318 0.35938 0.37454 0.0
H2017 H 0.13036 0.39414 0.45578 0.0
H2018 H 0.10736 0.41576 0.41652 0.0
H2019 H 0.10627 0.43303 0.36106 0.0
H2020 H 0.14645 0.4042 0.28223 0.0
H2021 H 0.15589 0.37164 0.31739 0.0
C2022 C 0.15047 0.37113 0.38372 0.0
C2023 C 0.14927 0.37596 0.41798 0.0
C2024 C 0.13882 0.38499 0.36094 0.0
C2025 C 0.13209 0.39058 0.42946 0.0
C2026 C 0.11908 0.40315 0.40696 0.0
C2027 C 0.11636 0.41915 0.35125 0.0
C2028 C 0.12599 0.42109 0.31942 0.0
C2029 C 0.12375 0.40187 0.3728 0.0
C2030 C 0.13894 0.40303 0.30677 0.0
C2031 C 0.14464 0.38462 0.3271 0.0
H2032 H 0.36713 0.3834 0.04926 0.0
H2033 H 0.32477 0.3394 0.10823 0.0
H2034 H 0.34768 0.34732 0.15726 0.0
H2035 H 0.37166 0.37623 0.18489 0.0
H2036 H 0.41647 0.41734 0.12508 0.0
H2037 H 0.40133 0.40032 0.07471 0.0
C2038 C 0.3637 0.37455 0.0724 0.0
C2039 C 0.34365 0.36188 0.07567 0.0
C2040 C 0.37708 0.37905 0.1005 0.0
C2041 C 0.33974 0.34987 0.10537 0.0
C2042 C 0.35274 0.35455 0.1336 0.0
C2043 C 0.3789 0.38066 0.16094 0.0
C2044 C 0.39404 0.39905 0.1586 0.0
C2045 C 0.37024 0.37063 0.13189 0.0
C2046 C 0.40405 0.40388 0.12758 0.0
C2047 C 0.39531 0.39424 0.09858 0.0
H2048 H 0.37509 0.62416 0.80735 0.0
H2049 H 0.42108 0.58306 0.865 0.0
H2050 H 0.41276 0.60551 0.91441 0.0
H2051 H 0.3827 0.62778 0.94268 0.0
H2052 H 0.34047 0.67237 0.88418 0.0
H2053 H 0.3579 0.65833 0.83336 0.0
C2054 C 0.38432 0.62098 0.83023 0.0
C2055 C 0.39749 0.60117 0.83319 0.0
C2056 C 0.37975 0.63423 0.85851 0.0
C2057 C 0.41008 0.59772 0.86247 0.0
C2058 C 0.4052 0.61046 0.89093 0.0
C2059 C 0.3781 0.63529 0.91897 0.0
C2060 C 0.35907 0.64966 0.91692 0.0
C2061 C 0.38849 0.6274 0.8897 0.0
C2062 C 0.35423 0.66026 0.88632 0.0
C2063 C 0.36413 0.65216 0.85707 0.0
H2064 H 0.17453 0.65966 0.62311 0.0
H2065 H 0.14219 0.62114 0.54545 0.0
H2066 H 0.11499 0.60586 0.58538 0.0
H2067 H 0.11024 0.59332 0.64287 0.0
H2068 H 0.1522 0.62241 0.71942 0.0
H2069 H 0.16479 0.65205 0.68107 0.0
C2070 C 0.16089 0.6487 0.61479 0.0
C2071 C 0.16064 0.64102 0.58169 0.0
C2072 C 0.14729 0.63777 0.63855 0.0
C2073 C 0.14277 0.6271 0.57094 0.0
C2074 C 0.12746 0.61807 0.59393 0.0
C2075 C 0.12148 0.60668 0.65139 0.0
C2076 C 0.13082 0.60541 0.68349 0.0
C2077 C 0.13098 0.62165 0.62806 0.0
C2078 C 0.145 0.62299 0.69463 0.0
C2079 C 0.1525 0.63968 0.6725 0.0
H2080 H 0.23072 0.22014 0.01734 0.0
H2081 H 0.29051 0.21355 0.07844 0.0
H2082 H 0.29234 0.25489 0.08454 0.0
H2083 H 0.27779 0.2932 0.07056 0.0
H2084 H 0.21793 0.29913 0.00929 0.0
H2085 H 0.21535 0.25793 0.00547 0.0
C2086 C 0.24411 0.22767 0.03215 0.0
C2087 C 0.26051 0.21365 0.04721 0.0
C2088 C 0.24512 0.25147 0.0355 0.0
C2089 C 0.27767 0.22385 0.06644 0.0
C2090 C 0.27875 0.24754 0.06993 0.0
C2091 C 0.2641 0.28548 0.05655 0.0
C2092 C 0.24816 0.2994 0.04012 0.0
C2093 C 0.2627 0.26157 0.05427 0.0
C2094 C 0.23051 0.28899 0.02215 0.0
C2095 C 0.229 0.26534 0.01987 0.0
H2096 H 0.97292 0.99377 0.27638 0.0
H2097 H 0.96855 0.04502 0.35288 0.0
H2098 H 0.00986 0.04858 0.35327 0.0
H2099 H 0.04742 0.03814 0.33022 0.0
H2100 H 0.05099 0.9875 0.2526 0.0
H2101 H 0.01007 0.98282 0.25442 0.0
C2102 C 0.98096 1.00557 0.29341 0.0
C2103 C 0.96752 0.01908 0.31456 0.0
C2104 C 1.00473 1.00781 0.29315 0.0
C2105 C 0.97838 0.0344 0.33626 0.0
C2106 C 1.00206 0.03649 0.33646 0.0
C2107 C 0.03925 0.02605 0.31376 0.0
C2108 C 0.05244 0.0133 0.2912 0.0
C2109 C 0.01544 0.02348 0.31471 0.0
C2110 C 0.04144 0.99768 0.27014 0.0
C2111 C 0.01793 0.99492 0.27115 0.0
H2112 H 0.27986 0.72573 0.54065 0.0
H2113 H 0.21592 0.71963 0.59195 0.0
H2114 H 0.21284 0.76116 0.59461 0.0
H2115 H 0.22782 0.79943 0.58028 0.0
H2116 H 0.29167 0.80435 0.52818 0.0
H2117 H 0.29519 0.76319 0.5281 0.0
C2118 C 0.26525 0.73338 0.55258 0.0
C2119 C 0.24811 0.71946 0.56594 0.0
C2120 C 0.26352 0.7572 0.55382 0.0
C2121 C 0.22937 0.72986 0.58136 0.0
C2122 C 0.22758 0.75365 0.58286 0.0
C2123 C 0.24256 0.79149 0.56912 0.0
C2124 C 0.25939 0.80512 0.55412 0.0
C2125 C 0.24448 0.76753 0.56887 0.0
C2126 C 0.27836 0.79444 0.53976 0.0
C2127 C 0.28043 0.77082 0.53968 0.0
H2128 H 0.47603 0.98917 0.82272 0.0
H2129 H 0.47295 0.05105 0.76506 0.0
H2130 H 0.51416 0.05364 0.76561 0.0
H2131 H 0.5512 0.03793 0.78065 0.0
H2132 H 0.55497 0.97565 0.83717 0.0
H2133 H 0.51354 0.97373 0.83891 0.0
C2134 C 0.48437 1.00329 0.81044 0.0
C2135 C 0.47126 0.01985 0.79379 0.0
C2136 C 0.50828 1.00461 0.81053 0.0
C2137 C 0.48247 0.03799 0.77796 0.0
C2138 C 0.50611 0.03951 0.77825 0.0
C2139 C 0.54303 0.02396 0.79354 0.0
C2140 C 0.55632 1.00694 0.8087 0.0
C2141 C 0.5192 0.02284 0.79418 0.0
C2142 C 0.54527 0.98898 0.82519 0.0
C2143 C 0.52152 0.98786 0.82619 0.0
H2144 H 0.24945 0.7925 0.99345 0.0
H2145 H 0.29717 0.80054 0.91295 0.0
H2146 H 0.29953 0.75922 0.9068 0.0
H2147 H 0.28908 0.72058 0.92571 0.0
H2148 H 0.24134 0.71311 0.00639 0.0
H2149 H 0.23797 0.75427 0.01081 0.0
C2150 C 0.26031 0.78528 0.97442 0.0
C2151 C 0.27319 0.79973 0.95384 0.0
C2152 C 0.26166 0.76149 0.97107 0.0
C2153 C 0.28708 0.78992 0.92925 0.0
C2154 C 0.28847 0.76624 0.92572 0.0
C2155 C 0.27785 0.72795 0.94416 0.0
C2156 C 0.26557 0.71361 0.96577 0.0
C2157 C 0.276 0.75182 0.94672 0.0
C2158 C 0.25107 0.72358 0.98944 0.0
C2159 C 0.24912 0.74719 0.99205 0.0
H2160 H 0.54778 0.0298 0.18196 0.0
H2161 H 0.55618 0.97522 0.25283 0.0
H2162 H 0.51537 0.97123 0.25748 0.0
H2163 H 0.47705 0.9836 0.24308 0.0
H2164 H 0.46768 0.03785 0.17215 0.0
H2165 H 0.50878 0.04143 0.16591 0.0
C2166 C 0.54067 0.01698 0.19829 0.0
C2167 C 0.55525 1.00294 0.21708 0.0
C2168 C 0.51687 0.01468 0.20099 0.0
C2169 C 0.54559 0.98637 0.23805 0.0
C2170 C 0.52213 0.98403 0.24082 0.0
C2171 C 0.48393 0.99619 0.22616 0.0
C2172 C 0.46917 0.01047 0.20827 0.0
C2173 C 0.50759 0.99818 0.22266 0.0
C2174 C 0.47855 0.02659 0.18632 0.0
C2175 C 0.50212 0.0287 0.18276 0.0
H2176 H 0.22529 0.2192 0.41844 0.0
H2177 H 0.28006 0.21683 0.48963 0.0
H2178 H 0.2826 0.25813 0.48899 0.0
H2179 H 0.26838 0.29509 0.47043 0.0
H2180 H 0.21324 0.29822 0.40005 0.0
H2181 H 0.21189 0.25664 0.39807 0.0
C2182 C 0.23789 0.22771 0.43362 0.0
C2183 C 0.25238 0.21478 0.45417 0.0
C2184 C 0.23918 0.25169 0.4334 0.0
C2185 C 0.26858 0.2262 0.47368 0.0
C2186 C 0.27007 0.2499 0.47336 0.0
C2187 C 0.25614 0.28675 0.45444 0.0
C2188 C 0.24088 0.29989 0.43553 0.0
C2189 C 0.25531 0.26284 0.45365 0.0
C2190 C 0.22518 0.28862 0.41497 0.0
C2191 C 0.22437 0.2648 0.41385 0.0
H2192 H 0.04615 0.97993 0.68018 0.0
H2193 H 0.05362 0.03083 0.75682 0.0
H2194 H 0.01275 0.03616 0.75849 0.0
H2195 H 0.97467 0.02557 0.74013 0.0
H2196 H 0.96638 0.97423 0.66444 0.0
H2197 H 1.00756 0.97006 0.66041 0.0
C2198 C 0.03884 0.99226 0.69712 0.0
C2199 C 0.05311 1.00485 0.71844 0.0
C2200 C 0.01507 0.99519 0.69822 0.0
C2201 C 0.04322 0.02077 0.7402 0.0
C2202 C 0.01976 0.02388 0.74121 0.0
C2203 C 0.9818 0.01357 0.72253 0.0
C2204 C 0.9673 1.00022 0.7027 0.0
C2205 C 1.00549 0.01106 0.7206 0.0
C2206 C 0.97703 0.98473 0.68011 0.0
C2207 C 1.00063 0.9823 0.67781 0.0
H2208 H 0.77166 0.78803 0.99777 0.0
H2209 H 0.72903 0.80004 0.91227 0.0
H2210 H 0.7256 0.75914 0.90325 0.0
H2211 H 0.73333 0.71974 0.92104 0.0
H2212 H 0.77653 0.70803 0.00603 0.0
H2213 H 0.78111 0.74886 0.01361 0.0
C2214 C 0.76171 0.78174 0.97705 0.0
C2215 C 0.75051 0.79717 0.95594 0.0
C2216 C 0.75981 0.75815 0.9719 0.0
C2217 C 0.73783 0.78862 0.92903 0.0
C2218 C 0.73579 0.76518 0.92385 0.0
C2219 C 0.74382 0.72612 0.94112 0.0
C2220 C 0.75444 0.71075 0.96302 0.0
C2221 C 0.74649 0.74975 0.94536 0.0
C2222 C 0.76813 0.71938 0.98876 0.0
C2223 C 0.77074 0.74279 0.99321 0.0
H2224 H 0.78561 0.22335 0.42431 0.0
H2225 H 0.73282 0.21911 0.49842 0.0
H2226 H 0.73031 0.26047 0.50018 0.0
H2227 H 0.74415 0.29797 0.48271 0.0
H2228 H 0.79719 0.30248 0.40906 0.0
H2229 H 0.7984 0.26105 0.40505 0.0
C2230 C 0.77345 0.23145 0.44071 0.0
C2231 C 0.75951 0.21801 0.46131 0.0
C2232 C 0.77216 0.25538 0.44179 0.0
C2233 C 0.74384 0.22891 0.48233 0.0
C2234 C 0.74238 0.25263 0.4834 0.0
C2235 C 0.75588 0.28995 0.46558 0.0
C2236 C 0.77063 0.30344 0.44635 0.0
C2237 C 0.75662 0.26605 0.46354 0.0
C2238 C 0.78568 0.29261 0.42428 0.0
C2239 C 0.78641 0.26886 0.42198 0.0
H2240 H 0.76593 0.22333 0.02596 0.0
H2241 H 0.71157 0.21783 0.09723 0.0
H2242 H 0.7095 0.25943 0.10093 0.0
H2243 H 0.72273 0.2977 0.08249 0.0
H2244 H 0.77715 0.30166 0.01077 0.0
H2245 H 0.77952 0.26054 0.00893 0.0
C2246 C 0.75362 0.23112 0.04243 0.0
C2247 C 0.73888 0.21734 0.06117 0.0
C2248 C 0.75249 0.25494 0.04436 0.0
C2249 C 0.72312 0.22794 0.08242 0.0
C2250 C 0.72192 0.25177 0.08453 0.0
C2251 C 0.73515 0.28955 0.0666 0.0
C2252 C 0.74965 0.30298 0.04671 0.0
C2253 C 0.73645 0.26552 0.06542 0.0
C2254 C 0.76565 0.29198 0.02629 0.0
C2255 C 0.76707 0.26834 0.02515 0.0
H2256 H 0.74891 0.78956 0.51168 0.0
H2257 H 0.79706 0.80148 0.5905 0.0
H2258 H 0.80052 0.76044 0.59962 0.0
H2259 H 0.79023 0.72065 0.58433 0.0
H2260 H 0.74157 0.71004 0.50554 0.0
H2261 H 0.73813 0.75074 0.49749 0.0
C2262 C 0.76013 0.78327 0.53097 0.0
C2263 C 0.77272 0.79874 0.55024 0.0
C2264 C 0.76206 0.75967 0.53609 0.0
C2265 C 0.78712 0.79007 0.57518 0.0
C2266 C 0.78916 0.76653 0.5804 0.0
C2267 C 0.7789 0.72727 0.56542 0.0
C2268 C 0.76622 0.71206 0.54563 0.0
C2269 C 0.77681 0.75108 0.56085 0.0
C2270 C 0.75154 0.7211 0.52134 0.0
C2271 C 0.74952 0.74451 0.51659 0.0
H2272 H 0.54403 0.49477 0.78109 0.0
H2273 H 0.54637 0.55004 0.85158 0.0
H2274 H 0.5049 0.55086 0.85358 0.0
H2275 H 0.46774 0.53674 0.83344 0.0
H2276 H 0.46636 0.48156 0.76253 0.0
H2277 H 0.50749 0.47991 0.76275 0.0
C2278 C 0.53554 0.50695 0.79707 0.0
C2279 C 0.5484 0.52237 0.81603 0.0
C2280 C 0.51173 0.50742 0.79796 0.0
C2281 C 0.53696 0.53796 0.83665 0.0
C2282 C 0.51321 0.53847 0.83776 0.0
C2283 C 0.47644 0.52429 0.81817 0.0
C2284 C 0.46381 0.50939 0.79788 0.0
C2285 C 0.50037 0.52343 0.81824 0.0
C2286 C 0.47547 0.49334 0.77833 0.0
C2287 C 0.4991 0.49235 0.77839 0.0
H2288 H 0.04856 0.48595 0.32296 0.0
H2289 H 0.05293 0.54284 0.25527 0.0
H2290 H 0.01188 0.54425 0.25124 0.0
H2291 H 0.97462 0.52913 0.26556 0.0
H2292 H 0.96927 0.47249 0.33332 0.0
H2293 H 0.01059 0.4713 0.33865 0.0
C2294 C 0.04052 0.49869 0.30741 0.0
C2295 C 0.054 0.51421 0.28939 0.0
C2296 C 0.01664 0.49947 0.3051 0.0
C2297 C 0.04317 0.53063 0.26945 0.0
C2298 C 0.0196 0.53148 0.26705 0.0
C2299 C 0.98242 0.51652 0.28158 0.0
C2300 C 0.96875 0.50087 0.29886 0.0
C2301 C 1.00616 0.51593 0.28456 0.0
C2302 C 0.9793 0.48474 0.31962 0.0
C2303 C 1.00298 0.48403 0.32268 0.0
H2304 H 0.04577 0.49622 0.74773 0.0
H2305 H 0.05418 0.54427 0.66756 0.0
H2306 H 0.01305 0.5462 0.66035 0.0
H2307 H 0.97435 0.53515 0.67819 0.0
H2308 H 0.96671 0.48679 0.75825 0.0
H2309 H 1.00766 0.48409 0.76386 0.0
C2310 C 0.03867 0.50709 0.72858 0.0
C2311 C 0.05317 0.52018 0.7084 0.0
C2312 C 0.01499 0.50811 0.72452 0.0
C2313 C 0.04352 0.53403 0.68358 0.0
C2314 C 0.01994 0.53517 0.67943 0.0
C2315 C 0.98165 0.52393 0.69672 0.0
C2316 C 0.96729 0.51129 0.71783 0.0
C2317 C 1.00545 0.52242 0.69996 0.0
C2318 C 0.97717 0.4968 0.74165 0.0
C2319 C 1.00068 0.49523 0.74496 0.0
H2320 H 0.47205 0.51688 0.22258 0.0
H2321 H 0.46734 0.45857 0.15784 0.0
H2322 H 0.50872 0.45621 0.15541 0.0
H2323 H 0.54654 0.46986 0.17367 0.0
H2324 H 0.55033 0.52826 0.23859 0.0
H2325 H 0.50928 0.53132 0.23878 0.0
C2326 C 0.48001 0.50371 0.20774 0.0
C2327 C 0.46648 0.48789 0.19058 0.0
C2328 C 0.50381 0.50236 0.20658 0.0
C2329 C 0.47725 0.471 0.1714 0.0
C2330 C 0.50097 0.46959 0.17005 0.0
C2331 C 0.53838 0.4833 0.18774 0.0
C2332 C 0.5517 0.4987 0.20623 0.0
C2333 C 0.51448 0.48503 0.18786 0.0
C2334 C 0.54071 0.51607 0.22418 0.0
C2335 C 0.51712 0.51788 0.22436 0.0
loop_
_geom_bond_atom_site_label_1
_geom_bond_atom_site_label_2
_geom_bond_distance
_geom_bond_site_symmetry_2
_ccdc_geom_bond_type
C0 C1 1.351 . S
C0 N3 1.368 . S
C0 H5 0.931 . S
C1 C0 1.351 . S
C1 N2 1.373 . S
C1 H29 0.930 . S
N2 C1 1.373 . S
N2 C4 1.340 . S
N3 C0 1.368 . S
N3 C4 1.321 . S
N3 Co6 2.135 . S
C4 N2 1.340 . S
C4 N3 1.321 . S
C4 H28 0.930 . S
H5 C0 0.931 . S
Co6 N3 2.135 . S
Co6 N9 2.121 . S
Co6 O14 2.055 . S
Co6 O17 2.039 . S
Co6 N20 2.140 . S
C7 O8 1.227 . S
C7 O17 1.265 . S
O8 C7 1.227 . S
N9 Co6 2.121 . S
N9 C11 1.375 . S
N9 C12 1.313 . S
C10 C11 1.338 1_556 S
C10 N13 1.377 . S
C10 H30 0.930 . S
C11 N9 1.375 . S
C11 C10 1.338 1_554 S
C11 H15 0.931 . S
C12 N9 1.313 . S
C12 N13 1.344 1_554 S
C12 H16 0.930 . S
N13 C10 1.377 . S
N13 C12 1.344 1_556 S
O14 Co6 2.055 . S
O14 C18 1.253 . S
H15 C11 0.931 . S
H16 C12 0.930 . S
O17 Co6 2.039 . S
O17 C7 1.265 . S
C18 O14 1.253 . S
C18 O19 1.227 . S
O19 C18 1.227 . S
N20 Co6 2.140 . S
N20 C23 1.346 . S
N20 C24 1.345 . S
C21 C22 1.387 . S
C21 C25 1.391 . S
C22 C21 1.387 . S
C22 C23 1.369 . S
C22 H31 0.929 . S
C23 N20 1.346 . S
C23 C22 1.369 . S
C23 H26 0.928 . S
C24 N20 1.345 . S
C24 C25 1.371 . S
C24 H27 0.931 . S
C25 C21 1.391 . S
C25 C24 1.371 . S
C25 H32 0.930 . S
H26 C23 0.928 . S
H27 C24 0.931 . S
H28 C4 0.930 . S
H29 C1 0.930 . S
H30 C10 0.930 . S
H31 C22 0.929 . S
H32 C25 0.930 . S
C33 C34 1.351 . S
C33 N36 1.368 . S
C33 H38 0.931 . S
C34 C33 1.351 . S
C34 N35 1.373 . S
C34 H62 0.930 . S
N35 C34 1.373 . S
N35 C37 1.340 . S
N36 C33 1.368 . S
N36 C37 1.321 . S
N36 Co39 2.135 . S
C37 N35 1.340 . S
C37 N36 1.321 . S
C37 H61 0.930 . S
H38 C33 0.931 . S
Co39 N36 2.135 . S
Co39 N42 2.121 . S
Co39 O47 2.055 . S
Co39 O50 2.039 . S
Co39 N53 2.140 1_545 S
C40 O41 1.227 . S
C40 O50 1.265 1_565 S
O41 C40 1.227 . S
N42 Co39 2.121 . S
N42 C44 1.375 1_545 S
N42 C45 1.313 . S
C43 C44 1.338 . S
C43 N46 1.377 1_565 S
C43 H63 0.930 . S
C44 N42 1.375 1_565 S
C44 C43 1.338 . S
C44 H48 0.931 . S
C45 N42 1.313 . S
C45 N46 1.344 . S
C45 H49 0.930 . S
N46 C43 1.377 1_545 S
N46 C45 1.344 . S
O47 Co39 2.055 . S
O47 C51 1.253 . S
H48 C44 0.931 . S
H49 C45 0.930 . S
O50 Co39 2.039 . S
O50 C40 1.265 1_545 S
C51 O47 1.253 . S
C51 O52 1.227 . S
O52 C51 1.227 . S
N53 Co39 2.140 1_565 S
N53 C56 1.346 . S
N53 C57 1.345 . S
C54 C55 1.387 . S
C54 C58 1.391 . S
C55 C54 1.387 . S
C55 C56 1.369 . S
C55 H64 0.929 . S
C56 N53 1.346 . S
C56 C55 1.369 . S
C56 H59 0.928 . S
C57 N53 1.345 . S
C57 C58 1.371 . S
C57 H60 0.931 . S
C58 C54 1.391 . S
C58 C57 1.371 . S
C58 H65 0.930 . S
H59 C56 0.928 . S
H60 C57 0.931 . S
H61 C37 0.930 . S
H62 C34 0.930 . S
H63 C43 0.930 . S
H64 C55 0.929 . S
H65 C58 0.930 . S
C66 C67 1.351 . S
C66 N69 1.368 . S
C66 H71 0.931 . S
C67 C66 1.351 . S
C67 N68 1.373 . S
C67 H95 0.930 . S
N68 C67 1.373 . S
N68 C70 1.340 . S
N69 C66 1.368 . S
N69 C70 1.321 . S
N69 Co72 2.135 . S
C70 N68 1.340 . S
C70 N69 1.321 . S
C70 H94 0.930 . S
H71 C66 0.931 . S
Co72 N69 2.135 . S
Co72 N75 2.121 . S
Co72 O80 2.055 . S
Co72 O83 2.039 . S
Co72 N86 2.140 . S
C73 O74 1.227 . S
C73 O83 1.265 . S
O74 C73 1.227 . S
N75 Co72 2.121 . S
N75 C77 1.375 . S
N75 C78 1.313 . S
C76 C77 1.338 . S
C76 N79 1.377 . S
C76 H96 0.930 . S
C77 N75 1.375 . S
C77 C76 1.338 . S
C77 H81 0.931 . S
C78 N75 1.313 . S
C78 N79 1.344 . S
C78 H82 0.930 . S
N79 C76 1.377 . S
N79 C78 1.344 . S
O80 Co72 2.055 . S
O80 C84 1.253 . S
H81 C77 0.931 . S
H82 C78 0.930 . S
O83 Co72 2.039 . S
O83 C73 1.265 . S
C84 O80 1.253 . S
C84 O85 1.227 . S
O85 C84 1.227 . S
N86 Co72 2.140 . S
N86 C89 1.346 . S
N86 C90 1.345 . S
C87 C88 1.387 . S
C87 C91 1.391 . S
C88 C87 1.387 . S
C88 C89 1.369 . S
C88 H97 0.929 . S
C89 N86 1.346 . S
C89 C88 1.369 . S
C89 H92 0.928 . S
C90 N86 1.345 . S
C90 C91 1.371 . S
C90 H93 0.931 . S
C91 C87 1.391 . S
C91 C90 1.371 . S
C91 H98 0.930 . S
H92 C89 0.928 . S
H93 C90 0.931 . S
H94 C70 0.930 . S
H95 C67 0.930 . S
H96 C76 0.930 . S
H97 C88 0.929 . S
H98 C91 0.930 . S
C99 C100 1.351 . S
C99 N102 1.368 . S
C99 H104 0.931 . S
C100 C99 1.351 . S
C100 N101 1.373 . S
C100 H128 0.930 . S
N101 C100 1.373 . S
N101 C103 1.340 . S
N102 C99 1.368 . S
N102 C103 1.321 . S
N102 Co105 2.135 . S
C103 N101 1.340 . S
C103 N102 1.321 . S
C103 H127 0.930 . S
H104 C99 0.931 . S
Co105 N102 2.135 . S
Co105 N108 2.121 . S
Co105 O113 2.055 . S
Co105 O116 2.039 . S
Co105 N119 2.140 1_565 S
C106 O107 1.227 . S
C106 O116 1.265 1_545 S
O107 C106 1.227 . S
N108 Co105 2.121 . S
N108 C110 1.375 1_565 S
N108 C111 1.313 . S
C109 C110 1.338 . S
C109 N112 1.377 1_545 S
C109 H129 0.930 . S
C110 N108 1.375 1_545 S
C110 C109 1.338 . S
C110 H114 0.931 . S
C111 N108 1.313 . S
C111 N112 1.344 . S
C111 H115 0.930 . S
N112 C109 1.377 1_565 S
N112 C111 1.344 . S
O113 Co105 2.055 . S
O113 C117 1.253 . S
H114 C110 0.931 . S
H115 C111 0.930 . S
O116 Co105 2.039 . S
O116 C106 1.265 1_565 S
C117 O113 1.253 . S
C117 O118 1.227 . S
O118 C117 1.227 . S
N119 Co105 2.140 1_545 S
N119 C122 1.346 . S
N119 C123 1.345 . S
C120 C121 1.387 . S
C120 C124 1.391 . S
C121 C120 1.387 . S
C121 C122 1.369 . S
C121 H130 0.929 . S
C122 N119 1.346 . S
C122 C121 1.369 . S
C122 H125 0.928 . S
C123 N119 1.345 . S
C123 C124 1.371 . S
C123 H126 0.931 . S
C124 C120 1.391 . S
C124 C123 1.371 . S
C124 H131 0.930 . S
H125 C122 0.928 . S
H126 C123 0.931 . S
H127 C103 0.930 . S
H128 C100 0.930 . S
H129 C109 0.930 . S
H130 C121 0.929 . S
H131 C124 0.930 . S
C132 C133 1.351 . S
C132 N135 1.368 . S
C132 H137 0.931 . S
C133 C132 1.351 . S
C133 N134 1.373 . S
C133 H161 0.930 . S
N134 C133 1.373 . S
N134 C136 1.340 . S
N135 C132 1.368 . S
N135 C136 1.321 . S
N135 Co138 2.135 . S
C136 N134 1.340 . S
C136 N135 1.321 . S
C136 H160 0.930 . S
H137 C132 0.931 . S
Co138 N135 2.135 . S
Co138 N141 2.121 . S
Co138 O146 2.055 . S
Co138 O149 2.039 . S
Co138 N152 2.140 . S
C139 O140 1.227 . S
C139 O149 1.265 . S
O140 C139 1.227 . S
N141 Co138 2.121 . S
N141 C143 1.375 . S
N141 C144 1.313 . S
C142 C143 1.338 1_554 S
C142 N145 1.377 . S
C142 H162 0.930 . S
C143 N141 1.375 . S
C143 C142 1.338 1_556 S
C143 H147 0.931 . S
C144 N141 1.313 . S
C144 N145 1.344 1_556 S
C144 H148 0.930 . S
N145 C142 1.377 . S
N145 C144 1.344 1_554 S
O146 Co138 2.055 . S
O146 C150 1.253 . S
H147 C143 0.931 . S
H148 C144 0.930 . S
O149 Co138 2.039 . S
O149 C139 1.265 . S
C150 O146 1.253 . S
C150 O151 1.227 . S
O151 C150 1.227 . S
N152 Co138 2.140 . S
N152 C155 1.346 . S
N152 C156 1.345 . S
C153 C154 1.387 . S
C153 C157 1.391 . S
C154 C153 1.387 . S
C154 C155 1.369 . S
C154 H163 0.929 . S
C155 N152 1.346 . S
C155 C154 1.369 . S
C155 H158 0.928 . S
C156 N152 1.345 . S
C156 C157 1.371 . S
C156 H159 0.931 . S
C157 C153 1.391 . S
C157 C156 1.371 . S
C157 H164 0.930 . S
H158 C155 0.928 . S
H159 C156 0.931 . S
H160 C136 0.930 . S
H161 C133 0.930 . S
H162 C142 0.930 . S
H163 C154 0.929 . S
H164 C157 0.930 . S
C165 C166 1.351 . S
C165 N168 1.368 . S
C165 H170 0.931 . S
C166 C165 1.351 . S
C166 N167 1.373 . S
C166 H194 0.930 . S
N167 C166 1.373 . S
N167 C169 1.340 . S
N168 C165 1.368 . S
N168 C169 1.321 . S
N168 Co171 2.135 . S
C169 N167 1.340 . S
C169 N168 1.321 . S
C169 H193 0.930 . S
H170 C165 0.931 . S
Co171 N168 2.135 . S
Co171 N174 2.121 . S
Co171 O179 2.055 . S
Co171 O182 2.039 . S
Co171 N185 2.140 1_545 S
C172 O173 1.227 . S
C172 O182 1.265 1_565 S
O173 C172 1.227 . S
N174 Co171 2.121 . S
N174 C176 1.375 1_545 S
N174 C177 1.313 . S
C175 C176 1.338 . S
C175 N178 1.377 1_565 S
C175 H195 0.930 . S
C176 N174 1.375 1_565 S
C176 C175 1.338 . S
C176 H180 0.931 . S
C177 N174 1.313 . S
C177 N178 1.344 . S
C177 H181 0.930 . S
N178 C175 1.377 1_545 S
N178 C177 1.344 . S
O179 Co171 2.055 . S
O179 C183 1.253 . S
H180 C176 0.931 . S
H181 C177 0.930 . S
O182 Co171 2.039 . S
O182 C172 1.265 1_545 S
C183 O179 1.253 . S
C183 O184 1.227 . S
O184 C183 1.227 . S
N185 Co171 2.140 1_565 S
N185 C188 1.346 . S
N185 C189 1.345 . S
C186 C187 1.387 . S
C186 C190 1.391 . S
C187 C186 1.387 . S
C187 C188 1.369 . S
C187 H196 0.929 . S
C188 N185 1.346 . S
C188 C187 1.369 . S
C188 H191 0.928 . S
C189 N185 1.345 . S
C189 C190 1.371 . S
C189 H192 0.931 . S
C190 C186 1.391 . S
C190 C189 1.371 . S
C190 H197 0.930 . S
H191 C188 0.928 . S
H192 C189 0.931 . S
H193 C169 0.930 . S
H194 C166 0.930 . S
H195 C175 0.930 . S
H196 C187 0.929 . S
H197 C190 0.930 . S
C198 C199 1.351 . S
C198 N201 1.368 . S
C198 H203 0.931 . S
C199 C198 1.351 . S
C199 N200 1.373 . S
C199 H227 0.930 . S
N200 C199 1.373 . S
N200 C202 1.340 . S
N201 C198 1.368 . S
N201 C202 1.321 . S
N201 Co204 2.135 . S
C202 N200 1.340 . S
C202 N201 1.321 . S
C202 H226 0.930 . S
H203 C198 0.931 . S
Co204 N201 2.135 . S
Co204 N207 2.121 . S
Co204 O212 2.055 . S
Co204 O215 2.039 . S
Co204 N218 2.140 . S
C205 O206 1.227 . S
C205 O215 1.265 . S
O206 C205 1.227 . S
N207 Co204 2.121 . S
N207 C209 1.375 . S
N207 C210 1.313 . S
C208 C209 1.338 . S
C208 N211 1.377 . S
C208 H228 0.930 . S
C209 N207 1.375 . S
C209 C208 1.338 . S
C209 H213 0.931 . S
C210 N207 1.313 . S
C210 N211 1.344 . S
C210 H214 0.930 . S
N211 C208 1.377 . S
N211 C210 1.344 . S
O212 Co204 2.055 . S
O212 C216 1.253 . S
H213 C209 0.931 . S
H214 C210 0.930 . S
O215 Co204 2.039 . S
O215 C205 1.265 . S
C216 O212 1.253 . S
C216 O217 1.227 . S
O217 C216 1.227 . S
N218 Co204 2.140 . S
N218 C221 1.346 . S
N218 C222 1.345 . S
C219 C220 1.387 . S
C219 C223 1.391 . S
C220 C219 1.387 . S
C220 C221 1.369 . S
C220 H229 0.929 . S
C221 N218 1.346 . S
C221 C220 1.369 . S
C221 H224 0.928 . S
C222 N218 1.345 . S
C222 C223 1.371 . S
C222 H225 0.931 . S
C223 C219 1.391 . S
C223 C222 1.371 . S
C223 H230 0.930 . S
H224 C221 0.928 . S
H225 C222 0.931 . S
H226 C202 0.930 . S
H227 C199 0.930 . S
H228 C208 0.930 . S
H229 C220 0.929 . S
H230 C223 0.930 . S
C231 C232 1.351 . S
C231 N234 1.368 . S
C231 H236 0.931 . S
C232 C231 1.351 . S
C232 N233 1.373 . S
C232 H260 0.930 . S
N233 C232 1.373 . S
N233 C235 1.340 . S
N234 C231 1.368 . S
N234 C235 1.321 . S
N234 Co237 2.135 . S
C235 N233 1.340 . S
C235 N234 1.321 . S
C235 H259 0.930 . S
H236 C231 0.931 . S
Co237 N234 2.135 . S
Co237 N240 2.121 . S
Co237 O245 2.055 . S
Co237 O248 2.039 . S
Co237 N251 2.140 1_565 S
C238 O239 1.227 . S
C238 O248 1.265 1_545 S
O239 C238 1.227 . S
N240 Co237 2.121 . S
N240 C242 1.375 1_565 S
N240 C243 1.313 . S
C241 C242 1.338 . S
C241 N244 1.377 1_545 S
C241 H261 0.930 . S
C242 N240 1.375 1_545 S
C242 C241 1.338 . S
C242 H246 0.931 . S
C243 N240 1.313 . S
C243 N244 1.344 . S
C243 H247 0.930 . S
N244 C241 1.377 1_565 S
N244 C243 1.344 . S
O245 Co237 2.055 . S
O245 C249 1.253 . S
H246 C242 0.931 . S
H247 C243 0.930 . S
O248 Co237 2.039 . S
O248 C238 1.265 1_565 S
C249 O245 1.253 . S
C249 O250 1.227 . S
O250 C249 1.227 . S
N251 Co237 2.140 1_545 S
N251 C254 1.346 . S
N251 C255 1.345 . S
C252 C253 1.387 . S
C252 C256 1.391 . S
C253 C252 1.387 . S
C253 C254 1.369 . S
C253 H262 0.929 . S
C254 N251 1.346 . S
C254 C253 1.369 . S
C254 H257 0.928 . S
C255 N251 1.345 . S
C255 C256 1.371 . S
C255 H258 0.931 . S
C256 C252 1.391 . S
C256 C255 1.371 . S
C256 H263 0.930 . S
H257 C254 0.928 . S
H258 C255 0.931 . S
H259 C235 0.930 . S
H260 C232 0.930 . S
H261 C241 0.930 . S
H262 C253 0.929 . S
H263 C256 0.930 . S
C264 C265 1.351 . S
C264 N267 1.368 . S
C264 H269 0.931 . S
C265 C264 1.351 . S
C265 N266 1.373 . S
C265 H293 0.930 . S
N266 C265 1.373 . S
N266 C268 1.340 . S
N267 C264 1.368 . S
N267 C268 1.321 . S
N267 Co270 2.135 . S
C268 N266 1.340 . S
C268 N267 1.321 . S
C268 H292 0.930 . S
H269 C264 0.931 . S
Co270 N267 2.135 . S
Co270 N273 2.121 . S
Co270 O278 2.055 . S
Co270 O281 2.039 . S
Co270 N284 2.140 . S
C271 O272 1.227 . S
C271 O281 1.265 . S
O272 C271 1.227 . S
N273 Co270 2.121 . S
N273 C275 1.375 . S
N273 C276 1.313 . S
C274 C275 1.338 1_554 S
C274 N277 1.377 . S
C274 H294 0.930 . S
C275 N273 1.375 . S
C275 C274 1.338 1_556 S
C275 H279 0.931 . S
C276 N273 1.313 . S
C276 N277 1.344 1_556 S
C276 H280 0.930 . S
N277 C274 1.377 . S
N277 C276 1.344 1_554 S
O278 Co270 2.055 . S
O278 C282 1.253 . S
H279 C275 0.931 . S
H280 C276 0.930 . S
O281 Co270 2.039 . S
O281 C271 1.265 . S
C282 O278 1.253 . S
C282 O283 1.227 . S
O283 C282 1.227 . S
N284 Co270 2.140 . S
N284 C287 1.346 . S
N284 C288 1.345 . S
C285 C286 1.387 . S
C285 C289 1.391 . S
C286 C285 1.387 . S
C286 C287 1.369 . S
C286 H295 0.929 . S
C287 N284 1.346 . S
C287 C286 1.369 . S
C287 H290 0.928 . S
C288 N284 1.345 . S
C288 C289 1.371 . S
C288 H291 0.931 . S
C289 C285 1.391 . S
C289 C288 1.371 . S
C289 H296 0.930 . S
H290 C287 0.928 . S
H291 C288 0.931 . S
H292 C268 0.930 . S
H293 C265 0.930 . S
H294 C274 0.930 . S
H295 C286 0.929 . S
H296 C289 0.930 . S
C297 C298 1.351 . S
C297 N300 1.368 . S
C297 H302 0.931 . S
C298 C297 1.351 . S
C298 N299 1.373 . S
C298 H326 0.930 . S
N299 C298 1.373 . S
N299 C301 1.340 . S
N300 C297 1.368 . S
N300 C301 1.321 . S
N300 Co303 2.135 . S
C301 N299 1.340 . S
C301 N300 1.321 . S
C301 H325 0.930 . S
H302 C297 0.931 . S
Co303 N300 2.135 . S
Co303 N306 2.121 . S
Co303 O311 2.055 . S
Co303 O314 2.039 . S
Co303 N317 2.140 1_565 S
C304 O305 1.227 . S
C304 O314 1.265 1_545 S
O305 C304 1.227 . S
N306 Co303 2.121 . S
N306 C308 1.375 1_565 S
N306 C309 1.313 . S
C307 C308 1.338 . S
C307 N310 1.377 1_545 S
C307 H327 0.930 . S
C308 N306 1.375 1_545 S
C308 C307 1.338 . S
C308 H312 0.931 . S
C309 N306 1.313 . S
C309 N310 1.344 . S
C309 H313 0.930 . S
N310 C307 1.377 1_565 S
N310 C309 1.344 . S
O311 Co303 2.055 . S
O311 C315 1.253 . S
H312 C308 0.931 . S
H313 C309 0.930 . S
O314 Co303 2.039 . S
O314 C304 1.265 1_565 S
C315 O311 1.253 . S
C315 O316 1.227 . S
O316 C315 1.227 . S
N317 Co303 2.140 1_545 S
N317 C320 1.346 . S
N317 C321 1.345 . S
C318 C319 1.387 . S
C318 C322 1.391 . S
C319 C318 1.387 . S
C319 C320 1.369 . S
C319 H328 0.929 . S
C320 N317 1.346 . S
C320 C319 1.369 . S
C320 H323 0.928 . S
C321 N317 1.345 . S
C321 C322 1.371 . S
C321 H324 0.931 . S
C322 C318 1.391 . S
C322 C321 1.371 . S
C322 H329 0.930 . S
H323 C320 0.928 . S
H324 C321 0.931 . S
H325 C301 0.930 . S
H326 C298 0.930 . S
H327 C307 0.930 . S
H328 C319 0.929 . S
H329 C322 0.930 . S
C330 C331 1.351 . S
C330 N333 1.368 . S
C330 H335 0.931 . S
C331 C330 1.351 . S
C331 N332 1.373 . S
C331 H359 0.930 . S
N332 C331 1.373 . S
N332 C334 1.340 . S
N333 C330 1.368 . S
N333 C334 1.321 . S
N333 Co336 2.135 . S
C334 N332 1.340 . S
C334 N333 1.321 . S
C334 H358 0.930 . S
H335 C330 0.931 . S
Co336 N333 2.135 . S
Co336 N339 2.121 . S
Co336 O344 2.055 . S
Co336 O347 2.039 . S
Co336 N350 2.140 . S
C337 O338 1.227 . S
C337 O347 1.265 . S
O338 C337 1.227 . S
N339 Co336 2.121 . S
N339 C341 1.375 . S
N339 C342 1.313 . S
C340 C341 1.338 . S
C340 N343 1.377 . S
C340 H360 0.930 . S
C341 N339 1.375 . S
C341 C340 1.338 . S
C341 H345 0.931 . S
C342 N339 1.313 . S
C342 N343 1.344 . S
C342 H346 0.930 . S
N343 C340 1.377 . S
N343 C342 1.344 . S
O344 Co336 2.055 . S
O344 C348 1.253 . S
H345 C341 0.931 . S
H346 C342 0.930 . S
O347 Co336 2.039 . S
O347 C337 1.265 . S
C348 O344 1.253 . S
C348 O349 1.227 . S
O349 C348 1.227 . S
N350 Co336 2.140 . S
N350 C353 1.346 . S
N350 C354 1.345 . S
C351 C352 1.387 . S
C351 C355 1.391 . S
C352 C351 1.387 . S
C352 C353 1.369 . S
C352 H361 0.929 . S
C353 N350 1.346 . S
C353 C352 1.369 . S
C353 H356 0.928 . S
C354 N350 1.345 . S
C354 C355 1.371 . S
C354 H357 0.931 . S
C355 C351 1.391 . S
C355 C354 1.371 . S
C355 H362 0.930 . S
H356 C353 0.928 . S
H357 C354 0.931 . S
H358 C334 0.930 . S
H359 C331 0.930 . S
H360 C340 0.930 . S
H361 C352 0.929 . S
H362 C355 0.930 . S
C363 C364 1.351 . S
C363 N366 1.368 . S
C363 H368 0.931 . S
C364 C363 1.351 . S
C364 N365 1.373 . S
C364 H392 0.930 . S
N365 C364 1.373 . S
N365 C367 1.340 . S
N366 C363 1.368 . S
N366 C367 1.321 . S
N366 Co369 2.135 . S
C367 N365 1.340 . S
C367 N366 1.321 . S
C367 H391 0.930 . S
H368 C363 0.931 . S
Co369 N366 2.135 . S
Co369 N372 2.121 . S
Co369 O377 2.055 . S
Co369 O380 2.039 . S
Co369 N383 2.140 1_545 S
C370 O371 1.227 . S
C370 O380 1.265 1_565 S
O371 C370 1.227 . S
N372 Co369 2.121 . S
N372 C374 1.375 1_545 S
N372 C375 1.313 . S
C373 C374 1.338 . S
C373 N376 1.377 1_565 S
C373 H393 0.930 . S
C374 N372 1.375 1_565 S
C374 C373 1.338 . S
C374 H378 0.931 . S
C375 N372 1.313 . S
C375 N376 1.344 . S
C375 H379 0.930 . S
N376 C373 1.377 1_545 S
N376 C375 1.344 . S
O377 Co369 2.055 . S
O377 C381 1.253 . S
H378 C374 0.931 . S
H379 C375 0.930 . S
O380 Co369 2.039 . S
O380 C370 1.265 1_545 S
C381 O377 1.253 . S
C381 O382 1.227 . S
O382 C381 1.227 . S
N383 Co369 2.140 1_565 S
N383 C386 1.346 . S
N383 C387 1.345 . S
C384 C385 1.387 . S
C384 C388 1.391 . S
C385 C384 1.387 . S
C385 C386 1.369 . S
C385 H394 0.929 . S
C386 N383 1.346 . S
C386 C385 1.369 . S
C386 H389 0.928 . S
C387 N383 1.345 . S
C387 C388 1.371 . S
C387 H390 0.931 . S
C388 C384 1.391 . S
C388 C387 1.371 . S
C388 H395 0.930 . S
H389 C386 0.928 . S
H390 C387 0.931 . S
H391 C367 0.930 . S
H392 C364 0.930 . S
H393 C373 0.930 . S
H394 C385 0.929 . S
H395 C388 0.930 . S
C396 C397 1.351 . S
C396 N399 1.368 . S
C396 H401 0.931 . S
C397 C396 1.351 . S
C397 N398 1.373 . S
C397 H425 0.930 . S
N398 C397 1.373 . S
N398 C400 1.340 . S
N399 C396 1.368 . S
N399 C400 1.321 . S
N399 Co402 2.135 . S
C400 N398 1.340 . S
C400 N399 1.321 . S
C400 H424 0.930 . S
H401 C396 0.931 . S
Co402 N399 2.135 . S
Co402 N405 2.121 . S
Co402 O410 2.055 . S
Co402 O413 2.039 . S
Co402 N416 2.140 . S
C403 O404 1.227 . S
C403 O413 1.265 . S
O404 C403 1.227 . S
N405 Co402 2.121 . S
N405 C407 1.375 . S
N405 C408 1.313 . S
C406 C407 1.338 1_556 S
C406 N409 1.377 . S
C406 H426 0.930 . S
C407 N405 1.375 . S
C407 C406 1.338 1_554 S
C407 H411 0.931 . S
C408 N405 1.313 . S
C408 N409 1.344 1_554 S
C408 H412 0.930 . S
N409 C406 1.377 . S
N409 C408 1.344 1_556 S
O410 Co402 2.055 . S
O410 C414 1.253 . S
H411 C407 0.931 . S
H412 C408 0.930 . S
O413 Co402 2.039 . S
O413 C403 1.265 . S
C414 O410 1.253 . S
C414 O415 1.227 . S
O415 C414 1.227 . S
N416 Co402 2.140 . S
N416 C419 1.346 . S
N416 C420 1.345 . S
C417 C418 1.387 . S
C417 C421 1.391 . S
C418 C417 1.387 . S
C418 C419 1.369 . S
C418 H427 0.929 . S
C419 N416 1.346 . S
C419 C418 1.369 . S
C419 H422 0.928 . S
C420 N416 1.345 . S
C420 C421 1.371 . S
C420 H423 0.931 . S
C421 C417 1.391 . S
C421 C420 1.371 . S
C421 H428 0.930 . S
H422 C419 0.928 . S
H423 C420 0.931 . S
H424 C400 0.930 . S
H425 C397 0.930 . S
H426 C406 0.930 . S
H427 C418 0.929 . S
H428 C421 0.930 . S
C429 C430 1.351 . S
C429 N432 1.368 . S
C429 H434 0.931 . S
C430 C429 1.351 . S
C430 N431 1.373 . S
C430 H458 0.930 . S
N431 C430 1.373 . S
N431 C433 1.340 . S
N432 C429 1.368 . S
N432 C433 1.321 . S
N432 Co435 2.135 . S
C433 N431 1.340 . S
C433 N432 1.321 . S
C433 H457 0.930 . S
H434 C429 0.931 . S
Co435 N432 2.135 . S
Co435 N438 2.121 . S
Co435 O443 2.055 . S
Co435 O446 2.039 . S
Co435 N449 2.140 1_565 S
C436 O437 1.227 . S
C436 O446 1.265 1_545 S
O437 C436 1.227 . S
N438 Co435 2.121 . S
N438 C440 1.375 1_565 S
N438 C441 1.313 . S
C439 C440 1.338 . S
C439 N442 1.377 1_545 S
C439 H459 0.930 . S
C440 N438 1.375 1_545 S
C440 C439 1.338 . S
C440 H444 0.931 . S
C441 N438 1.313 . S
C441 N442 1.344 . S
C441 H445 0.930 . S
N442 C439 1.377 1_565 S
N442 C441 1.344 . S
O443 Co435 2.055 . S
O443 C447 1.253 . S
H444 C440 0.931 . S
H445 C441 0.930 . S
O446 Co435 2.039 . S
O446 C436 1.265 1_565 S
C447 O443 1.253 . S
C447 O448 1.227 . S
O448 C447 1.227 . S
N449 Co435 2.140 1_545 S
N449 C452 1.346 . S
N449 C453 1.345 . S
C450 C451 1.387 . S
C450 C454 1.391 . S
C451 C450 1.387 . S
C451 C452 1.369 . S
C451 H460 0.929 . S
C452 N449 1.346 . S
C452 C451 1.369 . S
C452 H455 0.928 . S
C453 N449 1.345 . S
C453 C454 1.371 . S
C453 H456 0.931 . S
C454 C450 1.391 . S
C454 C453 1.371 . S
C454 H461 0.930 . S
H455 C452 0.928 . S
H456 C453 0.931 . S
H457 C433 0.930 . S
H458 C430 0.930 . S
H459 C439 0.930 . S
H460 C451 0.929 . S
H461 C454 0.930 . S
C462 C463 1.351 . S
C462 N465 1.368 . S
C462 H467 0.931 . S
C463 C462 1.351 . S
C463 N464 1.373 . S
C463 H491 0.930 . S
N464 C463 1.373 . S
N464 C466 1.340 . S
N465 C462 1.368 . S
N465 C466 1.321 . S
N465 Co468 2.135 . S
C466 N464 1.340 . S
C466 N465 1.321 . S
C466 H490 0.930 . S
H467 C462 0.931 . S
Co468 N465 2.135 . S
Co468 N471 2.121 . S
Co468 O476 2.055 . S
Co468 O479 2.039 . S
Co468 N482 2.140 . S
C469 O470 1.227 . S
C469 O479 1.265 . S
O470 C469 1.227 . S
N471 Co468 2.121 . S
N471 C473 1.375 . S
N471 C474 1.313 . S
C472 C473 1.338 . S
C472 N475 1.377 . S
C472 H492 0.930 . S
C473 N471 1.375 . S
C473 C472 1.338 . S
C473 H477 0.931 . S
C474 N471 1.313 . S
C474 N475 1.344 . S
C474 H478 0.930 . S
N475 C472 1.377 . S
N475 C474 1.344 . S
O476 Co468 2.055 . S
O476 C480 1.253 . S
H477 C473 0.931 . S
H478 C474 0.930 . S
O479 Co468 2.039 . S
O479 C469 1.265 . S
C480 O476 1.253 . S
C480 O481 1.227 . S
O481 C480 1.227 . S
N482 Co468 2.140 . S
N482 C485 1.346 . S
N482 C486 1.345 . S
C483 C484 1.387 . S
C483 C487 1.391 . S
C484 C483 1.387 . S
C484 C485 1.369 . S
C484 H493 0.929 . S
C485 N482 1.346 . S
C485 C484 1.369 . S
C485 H488 0.928 . S
C486 N482 1.345 . S
C486 C487 1.371 . S
C486 H489 0.931 . S
C487 C483 1.391 . S
C487 C486 1.371 . S
C487 H494 0.930 . S
H488 C485 0.928 . S
H489 C486 0.931 . S
H490 C466 0.930 . S
H491 C463 0.930 . S
H492 C472 0.930 . S
H493 C484 0.929 . S
H494 C487 0.930 . S
C495 C496 1.351 . S
C495 N498 1.368 . S
C495 H500 0.931 . S
C496 C495 1.351 . S
C496 N497 1.373 . S
C496 H524 0.930 . S
N497 C496 1.373 . S
N497 C499 1.340 . S
N498 C495 1.368 . S
N498 C499 1.321 . S
N498 Co501 2.135 . S
C499 N497 1.340 . S
C499 N498 1.321 . S
C499 H523 0.930 . S
H500 C495 0.931 . S
Co501 N498 2.135 . S
Co501 N504 2.121 . S
Co501 O509 2.055 . S
Co501 O512 2.039 . S
Co501 N515 2.140 1_545 S
C502 O503 1.227 . S
C502 O512 1.265 1_565 S
O503 C502 1.227 . S
N504 Co501 2.121 . S
N504 C506 1.375 1_545 S
N504 C507 1.313 . S
C505 C506 1.338 . S
C505 N508 1.377 1_565 S
C505 H525 0.930 . S
C506 N504 1.375 1_565 S
C506 C505 1.338 . S
C506 H510 0.931 . S
C507 N504 1.313 . S
C507 N508 1.344 . S
C507 H511 0.930 . S
N508 C505 1.377 1_545 S
N508 C507 1.344 . S
O509 Co501 2.055 . S
O509 C513 1.253 . S
H510 C506 0.931 . S
H511 C507 0.930 . S
O512 Co501 2.039 . S
O512 C502 1.265 1_545 S
C513 O509 1.253 . S
C513 O514 1.227 . S
O514 C513 1.227 . S
N515 Co501 2.140 1_565 S
N515 C518 1.346 . S
N515 C519 1.345 . S
C516 C517 1.387 . S
C516 C520 1.391 . S
C517 C516 1.387 . S
C517 C518 1.369 . S
C517 H526 0.929 . S
C518 N515 1.346 . S
C518 C517 1.369 . S
C518 H521 0.928 . S
C519 N515 1.345 . S
C519 C520 1.371 . S
C519 H522 0.931 . S
C520 C516 1.391 . S
C520 C519 1.371 . S
C520 H527 0.930 . S
H521 C518 0.928 . S
H522 C519 0.931 . S
H523 C499 0.930 . S
H524 C496 0.930 . S
H525 C505 0.930 . S
H526 C517 0.929 . S
H527 C520 0.930 . S
C528 C529 1.351 . S
C528 N531 1.368 . S
C528 H533 0.931 . S
C529 C528 1.351 . S
C529 N530 1.373 . S
C529 H557 0.930 . S
N530 C529 1.373 . S
N530 C532 1.340 . S
N531 C528 1.368 . S
N531 C532 1.321 . S
N531 Co534 2.135 . S
C532 N530 1.340 . S
C532 N531 1.321 . S
C532 H556 0.930 . S
H533 C528 0.931 . S
Co534 N531 2.135 . S
Co534 N537 2.121 . S
Co534 O542 2.055 . S
Co534 O545 2.039 . S
Co534 N548 2.140 . S
C535 O536 1.227 . S
C535 O545 1.265 . S
O536 C535 1.227 . S
N537 Co534 2.121 . S
N537 C539 1.375 . S
N537 C540 1.313 . S
C538 C539 1.338 . S
C538 N541 1.377 . S
C538 H558 0.930 . S
C539 N537 1.375 . S
C539 C538 1.338 . S
C539 H543 0.931 . S
C540 N537 1.313 . S
C540 N541 1.344 . S
C540 H544 0.930 . S
N541 C538 1.377 . S
N541 C540 1.344 . S
O542 Co534 2.055 . S
O542 C546 1.253 . S
H543 C539 0.931 . S
H544 C540 0.930 . S
O545 Co534 2.039 . S
O545 C535 1.265 . S
C546 O542 1.253 . S
C546 O547 1.227 . S
O547 C546 1.227 . S
N548 Co534 2.140 . S
N548 C551 1.346 . S
N548 C552 1.345 . S
C549 C550 1.387 . S
C549 C553 1.391 . S
C550 C549 1.387 . S
C550 C551 1.369 . S
C550 H559 0.929 . S
C551 N548 1.346 . S
C551 C550 1.369 . S
C551 H554 0.928 . S
C552 N548 1.345 . S
C552 C553 1.371 . S
C552 H555 0.931 . S
C553 C549 1.391 . S
C553 C552 1.371 . S
C553 H560 0.930 . S
H554 C551 0.928 . S
H555 C552 0.931 . S
H556 C532 0.930 . S
H557 C529 0.930 . S
H558 C538 0.930 . S
H559 C550 0.929 . S
H560 C553 0.930 . S
C561 C562 1.351 . S
C561 N564 1.368 . S
C561 H566 0.931 . S
C562 C561 1.351 . S
C562 N563 1.373 . S
C562 H590 0.930 . S
N563 C562 1.373 . S
N563 C565 1.340 . S
N564 C561 1.368 . S
N564 C565 1.321 . S
N564 Co567 2.135 . S
C565 N563 1.340 . S
C565 N564 1.321 . S
C565 H589 0.930 . S
H566 C561 0.931 . S
Co567 N564 2.135 . S
Co567 N570 2.121 . S
Co567 O575 2.055 . S
Co567 O578 2.039 . S
Co567 N581 2.140 . S
C568 O569 1.227 . S
C568 O578 1.265 . S
O569 C568 1.227 . S
N570 Co567 2.121 . S
N570 C572 1.375 . S
N570 C573 1.313 . S
C571 C572 1.338 . S
C571 N574 1.377 . S
C571 H591 0.930 . S
C572 N570 1.375 . S
C572 C571 1.338 . S
C572 H576 0.931 . S
C573 N570 1.313 . S
C573 N574 1.344 . S
C573 H577 0.930 . S
N574 C571 1.377 . S
N574 C573 1.344 . S
O575 Co567 2.055 . S
O575 C579 1.253 . S
H576 C572 0.931 . S
H577 C573 0.930 . S
O578 Co567 2.039 . S
O578 C568 1.265 . S
C579 O575 1.253 . S
C579 O580 1.227 . S
O580 C579 1.227 . S
N581 Co567 2.140 . S
N581 C584 1.346 . S
N581 C585 1.345 . S
C582 C583 1.387 . S
C582 C586 1.391 . S
C583 C582 1.387 . S
C583 C584 1.369 . S
C583 H592 0.929 . S
C584 N581 1.346 . S
C584 C583 1.369 . S
C584 H587 0.928 . S
C585 N581 1.345 . S
C585 C586 1.371 . S
C585 H588 0.931 . S
C586 C582 1.391 . S
C586 C585 1.371 . S
C586 H593 0.930 . S
H587 C584 0.928 . S
H588 C585 0.931 . S
H589 C565 0.930 . S
H590 C562 0.930 . S
H591 C571 0.930 . S
H592 C583 0.929 . S
H593 C586 0.930 . S
C594 C595 1.351 . S
C594 N597 1.368 . S
C594 H599 0.931 . S
C595 C594 1.351 . S
C595 N596 1.373 . S
C595 H623 0.930 . S
N596 C595 1.373 . S
N596 C598 1.340 . S
N597 C594 1.368 . S
N597 C598 1.321 . S
N597 Co600 2.135 . S
C598 N596 1.340 . S
C598 N597 1.321 . S
C598 H622 0.930 . S
H599 C594 0.931 . S
Co600 N597 2.135 . S
Co600 N603 2.121 . S
Co600 O608 2.055 . S
Co600 O611 2.039 . S
Co600 N614 2.140 . S
C601 O602 1.227 . S
C601 O611 1.265 . S
O602 C601 1.227 . S
N603 Co600 2.121 . S
N603 C605 1.375 . S
N603 C606 1.313 . S
C604 C605 1.338 1_556 S
C604 N607 1.377 . S
C604 H624 0.930 . S
C605 N603 1.375 . S
C605 C604 1.338 1_554 S
C605 H609 0.931 . S
C606 N603 1.313 . S
C606 N607 1.344 1_554 S
C606 H610 0.930 . S
N607 C604 1.377 . S
N607 C606 1.344 1_556 S
O608 Co600 2.055 . S
O608 C612 1.253 . S
H609 C605 0.931 . S
H610 C606 0.930 . S
O611 Co600 2.039 . S
O611 C601 1.265 . S
C612 O608 1.253 . S
C612 O613 1.227 . S
O613 C612 1.227 . S
N614 Co600 2.140 . S
N614 C617 1.346 . S
N614 C618 1.345 . S
C615 C616 1.387 . S
C615 C619 1.391 . S
C616 C615 1.387 . S
C616 C617 1.369 . S
C616 H625 0.929 . S
C617 N614 1.346 . S
C617 C616 1.369 . S
C617 H620 0.928 . S
C618 N614 1.345 . S
C618 C619 1.371 . S
C618 H621 0.931 . S
C619 C615 1.391 . S
C619 C618 1.371 . S
C619 H626 0.930 . S
H620 C617 0.928 . S
H621 C618 0.931 . S
H622 C598 0.930 . S
H623 C595 0.930 . S
H624 C604 0.930 . S
H625 C616 0.929 . S
H626 C619 0.930 . S
C627 C628 1.351 . S
C627 N630 1.368 . S
C627 H632 0.931 . S
C628 C627 1.351 . S
C628 N629 1.373 . S
C628 H656 0.930 . S
N629 C628 1.373 . S
N629 C631 1.340 . S
N630 C627 1.368 . S
N630 C631 1.321 . S
N630 Co633 2.135 . S
C631 N629 1.340 . S
C631 N630 1.321 . S
C631 H655 0.930 . S
H632 C627 0.931 . S
Co633 N630 2.135 . S
Co633 N636 2.121 . S
Co633 O641 2.055 . S
Co633 O644 2.039 . S
Co633 N647 2.140 . S
C634 O635 1.227 . S
C634 O644 1.265 . S
O635 C634 1.227 . S
N636 Co633 2.121 . S
N636 C638 1.375 . S
N636 C639 1.313 . S
C637 C638 1.338 . S
C637 N640 1.377 . S
C637 H657 0.930 . S
C638 N636 1.375 . S
C638 C637 1.338 . S
C638 H642 0.931 . S
C639 N636 1.313 . S
C639 N640 1.344 . S
C639 H643 0.930 . S
N640 C637 1.377 . S
N640 C639 1.344 . S
O641 Co633 2.055 . S
O641 C645 1.253 . S
H642 C638 0.931 . S
H643 C639 0.930 . S
O644 Co633 2.039 . S
O644 C634 1.265 . S
C645 O641 1.253 . S
C645 O646 1.227 . S
O646 C645 1.227 . S
N647 Co633 2.140 . S
N647 C650 1.346 . S
N647 C651 1.345 . S
C648 C649 1.387 . S
C648 C652 1.391 . S
C649 C648 1.387 . S
C649 C650 1.369 . S
C649 H658 0.929 . S
C650 N647 1.346 . S
C650 C649 1.369 . S
C650 H653 0.928 . S
C651 N647 1.345 . S
C651 C652 1.371 . S
C651 H654 0.931 . S
C652 C648 1.391 . S
C652 C651 1.371 . S
C652 H659 0.930 . S
H653 C650 0.928 . S
H654 C651 0.931 . S
H655 C631 0.930 . S
H656 C628 0.930 . S
H657 C637 0.930 . S
H658 C649 0.929 . S
H659 C652 0.930 . S
C660 C661 1.351 . S
C660 N663 1.368 . S
C660 H665 0.931 . S
C661 C660 1.351 . S
C661 N662 1.373 . S
C661 H689 0.930 . S
N662 C661 1.373 . S
N662 C664 1.340 . S
N663 C660 1.368 . S
N663 C664 1.321 . S
N663 Co666 2.135 . S
C664 N662 1.340 . S
C664 N663 1.321 . S
C664 H688 0.930 . S
H665 C660 0.931 . S
Co666 N663 2.135 . S
Co666 N669 2.121 . S
Co666 O674 2.055 . S
Co666 O677 2.039 . S
Co666 N680 2.140 . S
C667 O668 1.227 . S
C667 O677 1.265 . S
O668 C667 1.227 . S
N669 Co666 2.121 . S
N669 C671 1.375 . S
N669 C672 1.313 . S
C670 C671 1.338 . S
C670 N673 1.377 . S
C670 H690 0.930 . S
C671 N669 1.375 . S
C671 C670 1.338 . S
C671 H675 0.931 . S
C672 N669 1.313 . S
C672 N673 1.344 . S
C672 H676 0.930 . S
N673 C670 1.377 . S
N673 C672 1.344 . S
O674 Co666 2.055 . S
O674 C678 1.253 . S
H675 C671 0.931 . S
H676 C672 0.930 . S
O677 Co666 2.039 . S
O677 C667 1.265 . S
C678 O674 1.253 . S
C678 O679 1.227 . S
O679 C678 1.227 . S
N680 Co666 2.140 . S
N680 C683 1.346 . S
N680 C684 1.345 . S
C681 C682 1.387 . S
C681 C685 1.391 . S
C682 C681 1.387 . S
C682 C683 1.369 . S
C682 H691 0.929 . S
C683 N680 1.346 . S
C683 C682 1.369 . S
C683 H686 0.928 . S
C684 N680 1.345 . S
C684 C685 1.371 . S
C684 H687 0.931 . S
C685 C681 1.391 . S
C685 C684 1.371 . S
C685 H692 0.930 . S
H686 C683 0.928 . S
H687 C684 0.931 . S
H688 C664 0.930 . S
H689 C661 0.930 . S
H690 C670 0.930 . S
H691 C682 0.929 . S
H692 C685 0.930 . S
C693 C694 1.351 . S
C693 N696 1.368 . S
C693 H698 0.931 . S
C694 C693 1.351 . S
C694 N695 1.373 . S
C694 H722 0.930 . S
N695 C694 1.373 . S
N695 C697 1.340 . S
N696 C693 1.368 . S
N696 C697 1.321 . S
N696 Co699 2.135 . S
C697 N695 1.340 . S
C697 N696 1.321 . S
C697 H721 0.930 . S
H698 C693 0.931 . S
Co699 N696 2.135 . S
Co699 N702 2.121 . S
Co699 O707 2.055 . S
Co699 O710 2.039 . S
Co699 N713 2.140 . S
C700 O701 1.227 . S
C700 O710 1.265 . S
O701 C700 1.227 . S
N702 Co699 2.121 . S
N702 C704 1.375 . S
N702 C705 1.313 . S
C703 C704 1.338 . S
C703 N706 1.377 . S
C703 H723 0.930 . S
C704 N702 1.375 . S
C704 C703 1.338 . S
C704 H708 0.931 . S
C705 N702 1.313 . S
C705 N706 1.344 . S
C705 H709 0.930 . S
N706 C703 1.377 . S
N706 C705 1.344 . S
O707 Co699 2.055 . S
O707 C711 1.253 . S
H708 C704 0.931 . S
H709 C705 0.930 . S
O710 Co699 2.039 . S
O710 C700 1.265 . S
C711 O707 1.253 . S
C711 O712 1.227 . S
O712 C711 1.227 . S
N713 Co699 2.140 . S
N713 C716 1.346 . S
N713 C717 1.345 . S
C714 C715 1.387 . S
C714 C718 1.391 . S
C715 C714 1.387 . S
C715 C716 1.369 . S
C715 H724 0.929 . S
C716 N713 1.346 . S
C716 C715 1.369 . S
C716 H719 0.928 . S
C717 N713 1.345 . S
C717 C718 1.371 . S
C717 H720 0.931 . S
C718 C714 1.391 . S
C718 C717 1.371 . S
C718 H725 0.930 . S
H719 C716 0.928 . S
H720 C717 0.931 . S
H721 C697 0.930 . S
H722 C694 0.930 . S
H723 C703 0.930 . S
H724 C715 0.929 . S
H725 C718 0.930 . S
C726 C727 1.351 . S
C726 N729 1.368 . S
C726 H731 0.931 . S
C727 C726 1.351 . S
C727 N728 1.373 . S
C727 H755 0.930 . S
N728 C727 1.373 . S
N728 C730 1.340 . S
N729 C726 1.368 . S
N729 C730 1.321 . S
N729 Co732 2.135 . S
C730 N728 1.340 . S
C730 N729 1.321 . S
C730 H754 0.930 . S
H731 C726 0.931 . S
Co732 N729 2.135 . S
Co732 N735 2.121 . S
Co732 O740 2.055 . S
Co732 O743 2.039 . S
Co732 N746 2.140 . S
C733 O734 1.227 . S
C733 O743 1.265 . S
O734 C733 1.227 . S
N735 Co732 2.121 . S
N735 C737 1.375 . S
N735 C738 1.313 . S
C736 C737 1.338 1_554 S
C736 N739 1.377 . S
C736 H756 0.930 . S
C737 N735 1.375 . S
C737 C736 1.338 1_556 S
C737 H741 0.931 . S
C738 N735 1.313 . S
C738 N739 1.344 1_556 S
C738 H742 0.930 . S
N739 C736 1.377 . S
N739 C738 1.344 1_554 S
O740 Co732 2.055 . S
O740 C744 1.253 . S
H741 C737 0.931 . S
H742 C738 0.930 . S
O743 Co732 2.039 . S
O743 C733 1.265 . S
C744 O740 1.253 . S
C744 O745 1.227 . S
O745 C744 1.227 . S
N746 Co732 2.140 . S
N746 C749 1.346 . S
N746 C750 1.345 . S
C747 C748 1.387 . S
C747 C751 1.391 . S
C748 C747 1.387 . S
C748 C749 1.369 . S
C748 H757 0.929 . S
C749 N746 1.346 . S
C749 C748 1.369 . S
C749 H752 0.928 . S
C750 N746 1.345 . S
C750 C751 1.371 . S
C750 H753 0.931 . S
C751 C747 1.391 . S
C751 C750 1.371 . S
C751 H758 0.930 . S
H752 C749 0.928 . S
H753 C750 0.931 . S
H754 C730 0.930 . S
H755 C727 0.930 . S
H756 C736 0.930 . S
H757 C748 0.929 . S
H758 C751 0.930 . S
C759 C760 1.351 . S
C759 N762 1.368 . S
C759 H764 0.931 . S
C760 C759 1.351 . S
C760 N761 1.373 . S
C760 H788 0.930 . S
N761 C760 1.373 . S
N761 C763 1.340 . S
N762 C759 1.368 . S
N762 C763 1.321 . S
N762 Co765 2.135 . S
C763 N761 1.340 . S
C763 N762 1.321 . S
C763 H787 0.930 . S
H764 C759 0.931 . S
Co765 N762 2.135 . S
Co765 N768 2.121 . S
Co765 O773 2.055 . S
Co765 O776 2.039 . S
Co765 N779 2.140 . S
C766 O767 1.227 . S
C766 O776 1.265 . S
O767 C766 1.227 . S
N768 Co765 2.121 . S
N768 C770 1.375 . S
N768 C771 1.313 . S
C769 C770 1.338 . S
C769 N772 1.377 . S
C769 H789 0.930 . S
C770 N768 1.375 . S
C770 C769 1.338 . S
C770 H774 0.931 . S
C771 N768 1.313 . S
C771 N772 1.344 . S
C771 H775 0.930 . S
N772 C769 1.377 . S
N772 C771 1.344 . S
O773 Co765 2.055 . S
O773 C777 1.253 . S
H774 C770 0.931 . S
H775 C771 0.930 . S
O776 Co765 2.039 . S
O776 C766 1.265 . S
C777 O773 1.253 . S
C777 O778 1.227 . S
O778 C777 1.227 . S
N779 Co765 2.140 . S
N779 C782 1.346 . S
N779 C783 1.345 . S
C780 C781 1.387 . S
C780 C784 1.391 . S
C781 C780 1.387 . S
C781 C782 1.369 . S
C781 H790 0.929 . S
C782 N779 1.346 . S
C782 C781 1.369 . S
C782 H785 0.928 . S
C783 N779 1.345 . S
C783 C784 1.371 . S
C783 H786 0.931 . S
C784 C780 1.391 . S
C784 C783 1.371 . S
C784 H791 0.930 . S
H785 C782 0.928 . S
H786 C783 0.931 . S
H787 C763 0.930 . S
H788 C760 0.930 . S
H789 C769 0.930 . S
H790 C781 0.929 . S
H791 C784 0.930 . S
C792 C793 1.351 . S
C792 N795 1.368 . S
C792 H797 0.931 . S
C793 C792 1.351 . S
C793 N794 1.373 . S
C793 H821 0.930 . S
N794 C793 1.373 . S
N794 C796 1.340 . S
N795 C792 1.368 . S
N795 C796 1.321 . S
N795 Co798 2.135 . S
C796 N794 1.340 . S
C796 N795 1.321 . S
C796 H820 0.930 . S
H797 C792 0.931 . S
Co798 N795 2.135 . S
Co798 N801 2.121 . S
Co798 O806 2.055 . S
Co798 O809 2.039 . S
Co798 N812 2.140 . S
C799 O800 1.227 . S
C799 O809 1.265 . S
O800 C799 1.227 . S
N801 Co798 2.121 . S
N801 C803 1.375 . S
N801 C804 1.313 . S
C802 C803 1.338 . S
C802 N805 1.377 . S
C802 H822 0.930 . S
C803 N801 1.375 . S
C803 C802 1.338 . S
C803 H807 0.931 . S
C804 N801 1.313 . S
C804 N805 1.344 . S
C804 H808 0.930 . S
N805 C802 1.377 . S
N805 C804 1.344 . S
O806 Co798 2.055 . S
O806 C810 1.253 . S
H807 C803 0.931 . S
H808 C804 0.930 . S
O809 Co798 2.039 . S
O809 C799 1.265 . S
C810 O806 1.253 . S
C810 O811 1.227 . S
O811 C810 1.227 . S
N812 Co798 2.140 . S
N812 C815 1.346 . S
N812 C816 1.345 . S
C813 C814 1.387 . S
C813 C817 1.391 . S
C814 C813 1.387 . S
C814 C815 1.369 . S
C814 H823 0.929 . S
C815 N812 1.346 . S
C815 C814 1.369 . S
C815 H818 0.928 . S
C816 N812 1.345 . S
C816 C817 1.371 . S
C816 H819 0.931 . S
C817 C813 1.391 . S
C817 C816 1.371 . S
C817 H824 0.930 . S
H818 C815 0.928 . S
H819 C816 0.931 . S
H820 C796 0.930 . S
H821 C793 0.930 . S
H822 C802 0.930 . S
H823 C814 0.929 . S
H824 C817 0.930 . S
C825 C826 1.351 . S
C825 N828 1.368 . S
C825 H830 0.931 . S
C826 C825 1.351 . S
C826 N827 1.373 . S
C826 H854 0.930 . S
N827 C826 1.373 . S
N827 C829 1.340 . S
N828 C825 1.368 . S
N828 C829 1.321 . S
N828 Co831 2.135 . S
C829 N827 1.340 . S
C829 N828 1.321 . S
C829 H853 0.930 . S
H830 C825 0.931 . S
Co831 N828 2.135 . S
Co831 N834 2.121 . S
Co831 O839 2.055 . S
Co831 O842 2.039 . S
Co831 N845 2.140 . S
C832 O833 1.227 . S
C832 O842 1.265 . S
O833 C832 1.227 . S
N834 Co831 2.121 . S
N834 C836 1.375 . S
N834 C837 1.313 . S
C835 C836 1.338 . S
C835 N838 1.377 . S
C835 H855 0.930 . S
C836 N834 1.375 . S
C836 C835 1.338 . S
C836 H840 0.931 . S
C837 N834 1.313 . S
C837 N838 1.344 . S
C837 H841 0.930 . S
N838 C835 1.377 . S
N838 C837 1.344 . S
O839 Co831 2.055 . S
O839 C843 1.253 . S
H840 C836 0.931 . S
H841 C837 0.930 . S
O842 Co831 2.039 . S
O842 C832 1.265 . S
C843 O839 1.253 . S
C843 O844 1.227 . S
O844 C843 1.227 . S
N845 Co831 2.140 . S
N845 C848 1.346 . S
N845 C849 1.345 . S
C846 C847 1.387 . S
C846 C850 1.391 . S
C847 C846 1.387 . S
C847 C848 1.369 . S
C847 H856 0.929 . S
C848 N845 1.346 . S
C848 C847 1.369 . S
C848 H851 0.928 . S
C849 N845 1.345 . S
C849 C850 1.371 . S
C849 H852 0.931 . S
C850 C846 1.391 . S
C850 C849 1.371 . S
C850 H857 0.930 . S
H851 C848 0.928 . S
H852 C849 0.931 . S
H853 C829 0.930 . S
H854 C826 0.930 . S
H855 C835 0.930 . S
H856 C847 0.929 . S
H857 C850 0.930 . S
C858 C859 1.351 . S
C858 N861 1.368 . S
C858 H863 0.931 . S
C859 C858 1.351 . S
C859 N860 1.373 . S
C859 H887 0.930 . S
N860 C859 1.373 . S
N860 C862 1.340 . S
N861 C858 1.368 . S
N861 C862 1.321 . S
N861 Co864 2.135 . S
C862 N860 1.340 . S
C862 N861 1.321 . S
C862 H886 0.930 . S
H863 C858 0.931 . S
Co864 N861 2.135 . S
Co864 N867 2.121 . S
Co864 O872 2.055 . S
Co864 O875 2.039 . S
Co864 N878 2.140 . S
C865 O866 1.227 . S
C865 O875 1.265 . S
O866 C865 1.227 . S
N867 Co864 2.121 . S
N867 C869 1.375 . S
N867 C870 1.313 . S
C868 C869 1.338 1_554 S
C868 N871 1.377 . S
C868 H888 0.930 . S
C869 N867 1.375 . S
C869 C868 1.338 1_556 S
C869 H873 0.931 . S
C870 N867 1.313 . S
C870 N871 1.344 1_556 S
C870 H874 0.930 . S
N871 C868 1.377 . S
N871 C870 1.344 1_554 S
O872 Co864 2.055 . S
O872 C876 1.253 . S
H873 C869 0.931 . S
H874 C870 0.930 . S
O875 Co864 2.039 . S
O875 C865 1.265 . S
C876 O872 1.253 . S
C876 O877 1.227 . S
O877 C876 1.227 . S
N878 Co864 2.140 . S
N878 C881 1.346 . S
N878 C882 1.345 . S
C879 C880 1.387 . S
C879 C883 1.391 . S
C880 C879 1.387 . S
C880 C881 1.369 . S
C880 H889 0.929 . S
C881 N878 1.346 . S
C881 C880 1.369 . S
C881 H884 0.928 . S
C882 N878 1.345 . S
C882 C883 1.371 . S
C882 H885 0.931 . S
C883 C879 1.391 . S
C883 C882 1.371 . S
C883 H890 0.930 . S
H884 C881 0.928 . S
H885 C882 0.931 . S
H886 C862 0.930 . S
H887 C859 0.930 . S
H888 C868 0.930 . S
H889 C880 0.929 . S
H890 C883 0.930 . S
C891 C892 1.351 . S
C891 N894 1.368 . S
C891 H896 0.931 . S
C892 C891 1.351 . S
C892 N893 1.373 . S
C892 H920 0.930 . S
N893 C892 1.373 . S
N893 C895 1.340 . S
N894 C891 1.368 . S
N894 C895 1.321 . S
N894 Co897 2.135 . S
C895 N893 1.340 . S
C895 N894 1.321 . S
C895 H919 0.930 . S
H896 C891 0.931 . S
Co897 N894 2.135 . S
Co897 N900 2.121 . S
Co897 O905 2.055 . S
Co897 O908 2.039 . S
Co897 N911 2.140 . S
C898 O899 1.227 . S
C898 O908 1.265 . S
O899 C898 1.227 . S
N900 Co897 2.121 . S
N900 C902 1.375 . S
N900 C903 1.313 . S
C901 C902 1.338 . S
C901 N904 1.377 . S
C901 H921 0.930 . S
C902 N900 1.375 . S
C902 C901 1.338 . S
C902 H906 0.931 . S
C903 N900 1.313 . S
C903 N904 1.344 . S
C903 H907 0.930 . S
N904 C901 1.377 . S
N904 C903 1.344 . S
O905 Co897 2.055 . S
O905 C909 1.253 . S
H906 C902 0.931 . S
H907 C903 0.930 . S
O908 Co897 2.039 . S
O908 C898 1.265 . S
C909 O905 1.253 . S
C909 O910 1.227 . S
O910 C909 1.227 . S
N911 Co897 2.140 . S
N911 C914 1.346 . S
N911 C915 1.345 . S
C912 C913 1.387 . S
C912 C916 1.391 . S
C913 C912 1.387 . S
C913 C914 1.369 . S
C913 H922 0.929 . S
C914 N911 1.346 . S
C914 C913 1.369 . S
C914 H917 0.928 . S
C915 N911 1.345 . S
C915 C916 1.371 . S
C915 H918 0.931 . S
C916 C912 1.391 . S
C916 C915 1.371 . S
C916 H923 0.930 . S
H917 C914 0.928 . S
H918 C915 0.931 . S
H919 C895 0.930 . S
H920 C892 0.930 . S
H921 C901 0.930 . S
H922 C913 0.929 . S
H923 C916 0.930 . S
C924 C925 1.351 . S
C924 N927 1.368 . S
C924 H929 0.931 . S
C925 C924 1.351 . S
C925 N926 1.373 . S
C925 H953 0.930 . S
N926 C925 1.373 . S
N926 C928 1.340 . S
N927 C924 1.368 . S
N927 C928 1.321 . S
N927 Co930 2.135 . S
C928 N926 1.340 . S
C928 N927 1.321 . S
C928 H952 0.930 . S
H929 C924 0.931 . S
Co930 N927 2.135 . S
Co930 N933 2.121 . S
Co930 O938 2.055 . S
Co930 O941 2.039 . S
Co930 N944 2.140 . S
C931 O932 1.227 . S
C931 O941 1.265 . S
O932 C931 1.227 . S
N933 Co930 2.121 . S
N933 C935 1.375 . S
N933 C936 1.313 . S
C934 C935 1.338 . S
C934 N937 1.377 . S
C934 H954 0.930 . S
C935 N933 1.375 . S
C935 C934 1.338 . S
C935 H939 0.931 . S
C936 N933 1.313 . S
C936 N937 1.344 . S
C936 H940 0.930 . S
N937 C934 1.377 . S
N937 C936 1.344 . S
O938 Co930 2.055 . S
O938 C942 1.253 . S
H939 C935 0.931 . S
H940 C936 0.930 . S
O941 Co930 2.039 . S
O941 C931 1.265 . S
C942 O938 1.253 . S
C942 O943 1.227 . S
O943 C942 1.227 . S
N944 Co930 2.140 . S
N944 C947 1.346 . S
N944 C948 1.345 . S
C945 C946 1.387 . S
C945 C949 1.391 . S
C946 C945 1.387 . S
C946 C947 1.369 . S
C946 H955 0.929 . S
C947 N944 1.346 . S
C947 C946 1.369 . S
C947 H950 0.928 . S
C948 N944 1.345 . S
C948 C949 1.371 . S
C948 H951 0.931 . S
C949 C945 1.391 . S
C949 C948 1.371 . S
C949 H956 0.930 . S
H950 C947 0.928 . S
H951 C948 0.931 . S
H952 C928 0.930 . S
H953 C925 0.930 . S
H954 C934 0.930 . S
H955 C946 0.929 . S
H956 C949 0.930 . S
C957 C958 1.351 . S
C957 N960 1.368 . S
C957 H962 0.931 . S
C958 C957 1.351 . S
C958 N959 1.373 . S
C958 H986 0.930 . S
N959 C958 1.373 . S
N959 C961 1.340 . S
N960 C957 1.368 . S
N960 C961 1.321 . S
N960 Co963 2.135 . S
C961 N959 1.340 . S
C961 N960 1.321 . S
C961 H985 0.930 . S
H962 C957 0.931 . S
Co963 N960 2.135 . S
Co963 N966 2.121 . S
Co963 O971 2.055 . S
Co963 O974 2.039 . S
Co963 N977 2.140 . S
C964 O965 1.227 . S
C964 O974 1.265 . S
O965 C964 1.227 . S
N966 Co963 2.121 . S
N966 C968 1.375 . S
N966 C969 1.313 . S
C967 C968 1.338 . S
C967 N970 1.377 . S
C967 H987 0.930 . S
C968 N966 1.375 . S
C968 C967 1.338 . S
C968 H972 0.931 . S
C969 N966 1.313 . S
C969 N970 1.344 . S
C969 H973 0.930 . S
N970 C967 1.377 . S
N970 C969 1.344 . S
O971 Co963 2.055 . S
O971 C975 1.253 . S
H972 C968 0.931 . S
H973 C969 0.930 . S
O974 Co963 2.039 . S
O974 C964 1.265 . S
C975 O971 1.253 . S
C975 O976 1.227 . S
O976 C975 1.227 . S
N977 Co963 2.140 . S
N977 C980 1.346 . S
N977 C981 1.345 . S
C978 C979 1.387 . S
C978 C982 1.391 . S
C979 C978 1.387 . S
C979 C980 1.369 . S
C979 H988 0.929 . S
C980 N977 1.346 . S
C980 C979 1.369 . S
C980 H983 0.928 . S
C981 N977 1.345 . S
C981 C982 1.371 . S
C981 H984 0.931 . S
C982 C978 1.391 . S
C982 C981 1.371 . S
C982 H989 0.930 . S
H983 C980 0.928 . S
H984 C981 0.931 . S
H985 C961 0.930 . S
H986 C958 0.930 . S
H987 C967 0.930 . S
H988 C979 0.929 . S
H989 C982 0.930 . S
C990 C991 1.351 . S
C990 N993 1.368 . S
C990 H995 0.931 . S
C991 C990 1.351 . S
C991 N992 1.373 . S
C991 H1019 0.930 . S
N992 C991 1.373 . S
N992 C994 1.340 . S
N993 C990 1.368 . S
N993 C994 1.321 . S
N993 Co996 2.135 . S
C994 N992 1.340 . S
C994 N993 1.321 . S
C994 H1018 0.930 . S
H995 C990 0.931 . S
Co996 N993 2.135 . S
Co996 N999 2.121 . S
Co996 O1004 2.055 . S
Co996 O1007 2.039 . S
Co996 N1010 2.140 . S
C997 O998 1.227 . S
C997 O1007 1.265 . S
O998 C997 1.227 . S
N999 Co996 2.121 . S
N999 C1001 1.375 . S
N999 C1002 1.313 . S
C1000 C1001 1.338 1_556 S
C1000 N1003 1.377 . S
C1000 H1020 0.930 . S
C1001 N999 1.375 . S
C1001 C1000 1.338 1_554 S
C1001 H1005 0.931 . S
C1002 N999 1.313 . S
C1002 N1003 1.344 1_554 S
C1002 H1006 0.930 . S
N1003 C1000 1.377 . S
N1003 C1002 1.344 1_556 S
O1004 Co996 2.055 . S
O1004 C1008 1.253 . S
H1005 C1001 0.931 . S
H1006 C1002 0.930 . S
O1007 Co996 2.039 . S
O1007 C997 1.265 . S
C1008 O1004 1.253 . S
C1008 O1009 1.227 . S
O1009 C1008 1.227 . S
N1010 Co996 2.140 . S
N1010 C1013 1.346 . S
N1010 C1014 1.345 . S
C1011 C1012 1.387 . S
C1011 C1015 1.391 . S
C1012 C1011 1.387 . S
C1012 C1013 1.369 . S
C1012 H1021 0.929 . S
C1013 N1010 1.346 . S
C1013 C1012 1.369 . S
C1013 H1016 0.928 . S
C1014 N1010 1.345 . S
C1014 C1015 1.371 . S
C1014 H1017 0.931 . S
C1015 C1011 1.391 . S
C1015 C1014 1.371 . S
C1015 H1022 0.930 . S
H1016 C1013 0.928 . S
H1017 C1014 0.931 . S
H1018 C994 0.930 . S
H1019 C991 0.930 . S
H1020 C1000 0.930 . S
H1021 C1012 0.929 . S
H1022 C1015 0.930 . S
C1023 C1024 1.351 . S
C1023 N1026 1.368 . S
C1023 H1028 0.931 . S
C1024 C1023 1.351 . S
C1024 N1025 1.373 . S
C1024 H1052 0.930 . S
N1025 C1024 1.373 . S
N1025 C1027 1.340 . S
N1026 C1023 1.368 . S
N1026 C1027 1.321 . S
N1026 Co1029 2.135 . S
C1027 N1025 1.340 . S
C1027 N1026 1.321 . S
C1027 H1051 0.930 . S
H1028 C1023 0.931 . S
Co1029 N1026 2.135 . S
Co1029 N1032 2.121 . S
Co1029 O1037 2.055 . S
Co1029 O1040 2.039 . S
Co1029 N1043 2.140 . S
C1030 O1031 1.227 . S
C1030 O1040 1.265 . S
O1031 C1030 1.227 . S
N1032 Co1029 2.121 . S
N1032 C1034 1.375 . S
N1032 C1035 1.313 . S
C1033 C1034 1.338 . S
C1033 N1036 1.377 . S
C1033 H1053 0.930 . S
C1034 N1032 1.375 . S
C1034 C1033 1.338 . S
C1034 H1038 0.931 . S
C1035 N1032 1.313 . S
C1035 N1036 1.344 . S
C1035 H1039 0.930 . S
N1036 C1033 1.377 . S
N1036 C1035 1.344 . S
O1037 Co1029 2.055 . S
O1037 C1041 1.253 . S
H1038 C1034 0.931 . S
H1039 C1035 0.930 . S
O1040 Co1029 2.039 . S
O1040 C1030 1.265 . S
C1041 O1037 1.253 . S
C1041 O1042 1.227 . S
O1042 C1041 1.227 . S
N1043 Co1029 2.140 . S
N1043 C1046 1.346 . S
N1043 C1047 1.345 . S
C1044 C1045 1.387 . S
C1044 C1048 1.391 . S
C1045 C1044 1.387 . S
C1045 C1046 1.369 . S
C1045 H1054 0.929 . S
C1046 N1043 1.346 . S
C1046 C1045 1.369 . S
C1046 H1049 0.928 . S
C1047 N1043 1.345 . S
C1047 C1048 1.371 . S
C1047 H1050 0.931 . S
C1048 C1044 1.391 . S
C1048 C1047 1.371 . S
C1048 H1055 0.930 . S
H1049 C1046 0.928 . S
H1050 C1047 0.931 . S
H1051 C1027 0.930 . S
H1052 C1024 0.930 . S
H1053 C1033 0.930 . S
H1054 C1045 0.929 . S
H1055 C1048 0.930 . S
H1056 C1062 0.930 . S
H1057 C1065 0.930 . S
H1058 C1066 0.930 . S
H1059 C1067 0.930 . S
H1060 C1070 0.930 . S
H1061 C1071 0.930 . S
C1062 H1056 0.930 . S
C1062 C1063 1.355 . S
C1062 C1064 1.415 . S
C1063 C1062 1.355 . S
C1063 C1065 1.419 . S
C1064 C1062 1.415 . S
C1064 C1069 1.425 . S
C1064 C1071 1.409 . S
C1065 H1057 0.930 . S
C1065 C1063 1.419 . S
C1065 C1066 1.362 . S
C1066 H1058 0.930 . S
C1066 C1065 1.362 . S
C1066 C1069 1.409 . S
C1067 H1059 0.930 . S
C1067 C1068 1.355 . S
C1067 C1069 1.415 . S
C1068 C1067 1.355 . S
C1068 C1070 1.419 . S
C1069 C1064 1.425 . S
C1069 C1066 1.409 . S
C1069 C1067 1.415 . S
C1070 H1060 0.930 . S
C1070 C1068 1.419 . S
C1070 C1071 1.362 . S
C1071 H1061 0.930 . S
C1071 C1064 1.409 . S
C1071 C1070 1.362 . S
H1072 C1078 0.930 . S
H1073 C1081 0.930 . S
H1074 C1082 0.930 . S
H1075 C1083 0.930 . S
H1076 C1086 0.930 . S
H1077 C1087 0.930 . S
C1078 H1072 0.930 . S
C1078 C1079 1.355 . S
C1078 C1080 1.415 . S
C1079 C1078 1.355 . S
C1079 C1081 1.419 . S
C1080 C1078 1.415 . S
C1080 C1085 1.425 . S
C1080 C1087 1.409 . S
C1081 H1073 0.930 . S
C1081 C1079 1.419 . S
C1081 C1082 1.362 . S
C1082 H1074 0.930 . S
C1082 C1081 1.362 . S
C1082 C1085 1.409 . S
C1083 H1075 0.930 . S
C1083 C1084 1.355 . S
C1083 C1085 1.415 . S
C1084 C1083 1.355 . S
C1084 C1086 1.419 . S
C1085 C1080 1.425 . S
C1085 C1082 1.409 . S
C1085 C1083 1.415 . S
C1086 H1076 0.930 . S
C1086 C1084 1.419 . S
C1086 C1087 1.362 . S
C1087 H1077 0.930 . S
C1087 C1080 1.409 . S
C1087 C1086 1.362 . S
H1088 C1094 0.930 . S
H1089 C1097 0.930 . S
H1090 C1098 0.930 . S
H1091 C1099 0.930 . S
H1092 C1102 0.930 . S
H1093 C1103 0.930 . S
C1094 H1088 0.930 . S
C1094 C1095 1.355 . S
C1094 C1096 1.415 . S
C1095 C1094 1.355 . S
C1095 C1097 1.419 . S
C1096 C1094 1.415 . S
C1096 C1101 1.425 . S
C1096 C1103 1.409 . S
C1097 H1089 0.930 . S
C1097 C1095 1.419 . S
C1097 C1098 1.362 . S
C1098 H1090 0.930 . S
C1098 C1097 1.362 . S
C1098 C1101 1.409 . S
C1099 H1091 0.930 . S
C1099 C1100 1.355 . S
C1099 C1101 1.415 . S
C1100 C1099 1.355 . S
C1100 C1102 1.419 . S
C1101 C1096 1.425 . S
C1101 C1098 1.409 . S
C1101 C1099 1.415 . S
C1102 H1092 0.930 . S
C1102 C1100 1.419 . S
C1102 C1103 1.362 . S
C1103 H1093 0.930 . S
C1103 C1096 1.409 . S
C1103 C1102 1.362 . S
H1104 C1110 0.930 . S
H1105 C1113 0.930 . S
H1106 C1114 0.930 . S
H1107 C1115 0.930 . S
H1108 C1118 0.930 . S
H1109 C1119 0.930 . S
C1110 H1104 0.930 . S
C1110 C1111 1.355 . S
C1110 C1112 1.415 . S
C1111 C1110 1.355 . S
C1111 C1113 1.419 . S
C1112 C1110 1.415 . S
C1112 C1117 1.425 . S
C1112 C1119 1.409 . S
C1113 H1105 0.930 . S
C1113 C1111 1.419 . S
C1113 C1114 1.362 . S
C1114 H1106 0.930 . S
C1114 C1113 1.362 . S
C1114 C1117 1.409 . S
C1115 H1107 0.930 . S
C1115 C1116 1.355 . S
C1115 C1117 1.415 . S
C1116 C1115 1.355 . S
C1116 C1118 1.419 . S
C1117 C1112 1.425 . S
C1117 C1114 1.409 . S
C1117 C1115 1.415 . S
C1118 H1108 0.930 . S
C1118 C1116 1.419 . S
C1118 C1119 1.362 . S
C1119 H1109 0.930 . S
C1119 C1112 1.409 . S
C1119 C1118 1.362 . S
H1120 C1126 0.930 . S
H1121 C1129 0.930 . S
H1122 C1130 0.930 . S
H1123 C1131 0.930 . S
H1124 C1134 0.930 . S
H1125 C1135 0.930 . S
C1126 H1120 0.930 . S
C1126 C1127 1.355 . S
C1126 C1128 1.415 . S
C1127 C1126 1.355 . S
C1127 C1129 1.419 . S
C1128 C1126 1.415 . S
C1128 C1133 1.425 . S
C1128 C1135 1.409 . S
C1129 H1121 0.930 . S
C1129 C1127 1.419 . S
C1129 C1130 1.362 . S
C1130 H1122 0.930 . S
C1130 C1129 1.362 . S
C1130 C1133 1.409 . S
C1131 H1123 0.930 . S
C1131 C1132 1.355 . S
C1131 C1133 1.415 . S
C1132 C1131 1.355 . S
C1132 C1134 1.419 . S
C1133 C1128 1.425 . S
C1133 C1130 1.409 . S
C1133 C1131 1.415 . S
C1134 H1124 0.930 . S
C1134 C1132 1.419 . S
C1134 C1135 1.362 . S
C1135 H1125 0.930 . S
C1135 C1128 1.409 . S
C1135 C1134 1.362 . S
H1136 C1142 0.930 . S
H1137 C1145 0.930 . S
H1138 C1146 0.930 . S
H1139 C1147 0.930 . S
H1140 C1150 0.930 . S
H1141 C1151 0.930 . S
C1142 H1136 0.930 . S
C1142 C1143 1.355 . S
C1142 C1144 1.415 . S
C1143 C1142 1.355 . S
C1143 C1145 1.419 . S
C1144 C1142 1.415 . S
C1144 C1149 1.425 . S
C1144 C1151 1.409 . S
C1145 H1137 0.930 . S
C1145 C1143 1.419 . S
C1145 C1146 1.362 . S
C1146 H1138 0.930 . S
C1146 C1145 1.362 . S
C1146 C1149 1.409 . S
C1147 H1139 0.930 . S
C1147 C1148 1.355 . S
C1147 C1149 1.415 . S
C1148 C1147 1.355 . S
C1148 C1150 1.419 . S
C1149 C1144 1.425 . S
C1149 C1146 1.409 . S
C1149 C1147 1.415 . S
C1150 H1140 0.930 . S
C1150 C1148 1.419 . S
C1150 C1151 1.362 . S
C1151 H1141 0.930 . S
C1151 C1144 1.409 . S
C1151 C1150 1.362 . S
H1152 C1158 0.930 . S
H1153 C1161 0.930 . S
H1154 C1162 0.930 . S
H1155 C1163 0.930 . S
H1156 C1166 0.930 . S
H1157 C1167 0.930 . S
C1158 H1152 0.930 . S
C1158 C1159 1.355 . S
C1158 C1160 1.415 . S
C1159 C1158 1.355 . S
C1159 C1161 1.419 . S
C1160 C1158 1.415 . S
C1160 C1165 1.425 . S
C1160 C1167 1.409 . S
C1161 H1153 0.930 . S
C1161 C1159 1.419 . S
C1161 C1162 1.362 . S
C1162 H1154 0.930 . S
C1162 C1161 1.362 . S
C1162 C1165 1.409 . S
C1163 H1155 0.930 . S
C1163 C1164 1.355 . S
C1163 C1165 1.415 . S
C1164 C1163 1.355 . S
C1164 C1166 1.419 . S
C1165 C1160 1.425 . S
C1165 C1162 1.409 . S
C1165 C1163 1.415 . S
C1166 H1156 0.930 . S
C1166 C1164 1.419 . S
C1166 C1167 1.362 . S
C1167 H1157 0.930 . S
C1167 C1160 1.409 . S
C1167 C1166 1.362 . S
H1168 C1174 0.930 . S
H1169 C1177 0.930 . S
H1170 C1178 0.930 . S
H1171 C1179 0.930 . S
H1172 C1182 0.930 . S
H1173 C1183 0.930 . S
C1174 H1168 0.930 . S
C1174 C1175 1.355 . S
C1174 C1176 1.415 . S
C1175 C1174 1.355 . S
C1175 C1177 1.419 . S
C1176 C1174 1.415 . S
C1176 C1181 1.425 . S
C1176 C1183 1.409 . S
C1177 H1169 0.930 . S
C1177 C1175 1.419 . S
C1177 C1178 1.362 . S
C1178 H1170 0.930 . S
C1178 C1177 1.362 . S
C1178 C1181 1.409 . S
C1179 H1171 0.930 . S
C1179 C1180 1.355 . S
C1179 C1181 1.415 . S
C1180 C1179 1.355 . S
C1180 C1182 1.419 . S
C1181 C1176 1.425 . S
C1181 C1178 1.409 . S
C1181 C1179 1.415 . S
C1182 H1172 0.930 . S
C1182 C1180 1.419 . S
C1182 C1183 1.362 . S
C1183 H1173 0.930 . S
C1183 C1176 1.409 . S
C1183 C1182 1.362 . S
H1184 C1190 0.930 . S
H1185 C1193 0.930 . S
H1186 C1194 0.930 . S
H1187 C1195 0.930 . S
H1188 C1198 0.930 . S
H1189 C1199 0.930 . S
C1190 H1184 0.930 . S
C1190 C1191 1.355 . S
C1190 C1192 1.415 . S
C1191 C1190 1.355 . S
C1191 C1193 1.419 . S
C1192 C1190 1.415 . S
C1192 C1197 1.425 . S
C1192 C1199 1.409 . S
C1193 H1185 0.930 . S
C1193 C1191 1.419 . S
C1193 C1194 1.362 . S
C1194 H1186 0.930 . S
C1194 C1193 1.362 . S
C1194 C1197 1.409 . S
C1195 H1187 0.930 . S
C1195 C1196 1.355 . S
C1195 C1197 1.415 . S
C1196 C1195 1.355 . S
C1196 C1198 1.419 . S
C1197 C1192 1.425 . S
C1197 C1194 1.409 . S
C1197 C1195 1.415 . S
C1198 H1188 0.930 . S
C1198 C1196 1.419 . S
C1198 C1199 1.362 . S
C1199 H1189 0.930 . S
C1199 C1192 1.409 . S
C1199 C1198 1.362 . S
H1200 C1206 0.930 . S
H1201 C1209 0.930 . S
H1202 C1210 0.930 . S
H1203 C1211 0.930 . S
H1204 C1214 0.930 . S
H1205 C1215 0.930 . S
C1206 H1200 0.930 . S
C1206 C1207 1.355 . S
C1206 C1208 1.415 . S
C1207 C1206 1.355 . S
C1207 C1209 1.419 . S
C1208 C1206 1.415 . S
C1208 C1213 1.425 . S
C1208 C1215 1.409 . S
C1209 H1201 0.930 . S
C1209 C1207 1.419 . S
C1209 C1210 1.362 . S
C1210 H1202 0.930 . S
C1210 C1209 1.362 . S
C1210 C1213 1.409 . S
C1211 H1203 0.930 . S
C1211 C1212 1.355 . S
C1211 C1213 1.415 . S
C1212 C1211 1.355 . S
C1212 C1214 1.419 . S
C1213 C1208 1.425 . S
C1213 C1210 1.409 . S
C1213 C1211 1.415 . S
C1214 H1204 0.930 . S
C1214 C1212 1.419 . S
C1214 C1215 1.362 . S
C1215 H1205 0.930 . S
C1215 C1208 1.409 . S
C1215 C1214 1.362 . S
H1216 C1222 0.930 . S
H1217 C1225 0.930 . S
H1218 C1226 0.930 . S
H1219 C1227 0.930 . S
H1220 C1230 0.930 . S
H1221 C1231 0.930 . S
C1222 H1216 0.930 . S
C1222 C1223 1.355 . S
C1222 C1224 1.415 . S
C1223 C1222 1.355 . S
C1223 C1225 1.419 . S
C1224 C1222 1.415 . S
C1224 C1229 1.425 . S
C1224 C1231 1.409 . S
C1225 H1217 0.930 . S
C1225 C1223 1.419 . S
C1225 C1226 1.362 . S
C1226 H1218 0.930 . S
C1226 C1225 1.362 . S
C1226 C1229 1.409 . S
C1227 H1219 0.930 . S
C1227 C1228 1.355 . S
C1227 C1229 1.415 . S
C1228 C1227 1.355 . S
C1228 C1230 1.419 . S
C1229 C1224 1.425 . S
C1229 C1226 1.409 . S
C1229 C1227 1.415 . S
C1230 H1220 0.930 . S
C1230 C1228 1.419 . S
C1230 C1231 1.362 . S
C1231 H1221 0.930 . S
C1231 C1224 1.409 . S
C1231 C1230 1.362 . S
H1232 C1238 0.930 . S
H1233 C1241 0.930 . S
H1234 C1242 0.930 . S
H1235 C1243 0.930 . S
H1236 C1246 0.930 . S
H1237 C1247 0.930 . S
C1238 H1232 0.930 . S
C1238 C1239 1.355 . S
C1238 C1240 1.415 . S
C1239 C1238 1.355 . S
C1239 C1241 1.419 . S
C1240 C1238 1.415 . S
C1240 C1245 1.425 . S
C1240 C1247 1.409 . S
C1241 H1233 0.930 . S
C1241 C1239 1.419 . S
C1241 C1242 1.362 . S
C1242 H1234 0.930 . S
C1242 C1241 1.362 . S
C1242 C1245 1.409 . S
C1243 H1235 0.930 . S
C1243 C1244 1.355 . S
C1243 C1245 1.415 . S
C1244 C1243 1.355 . S
C1244 C1246 1.419 . S
C1245 C1240 1.425 . S
C1245 C1242 1.409 . S
C1245 C1243 1.415 . S
C1246 H1236 0.930 . S
C1246 C1244 1.419 . S
C1246 C1247 1.362 . S
C1247 H1237 0.930 . S
C1247 C1240 1.409 . S
C1247 C1246 1.362 . S
H1248 C1254 0.930 . S
H1249 C1257 0.930 . S
H1250 C1258 0.930 . S
H1251 C1259 0.930 . S
H1252 C1262 0.930 . S
H1253 C1263 0.930 . S
C1254 H1248 0.930 . S
C1254 C1255 1.355 . S
C1254 C1256 1.415 . S
C1255 C1254 1.355 . S
C1255 C1257 1.419 . S
C1256 C1254 1.415 . S
C1256 C1261 1.425 . S
C1256 C1263 1.409 . S
C1257 H1249 0.930 . S
C1257 C1255 1.419 . S
C1257 C1258 1.362 . S
C1258 H1250 0.930 . S
C1258 C1257 1.362 . S
C1258 C1261 1.409 . S
C1259 H1251 0.930 . S
C1259 C1260 1.355 . S
C1259 C1261 1.415 . S
C1260 C1259 1.355 . S
C1260 C1262 1.419 . S
C1261 C1256 1.425 . S
C1261 C1258 1.409 . S
C1261 C1259 1.415 . S
C1262 H1252 0.930 . S
C1262 C1260 1.419 . S
C1262 C1263 1.362 . S
C1263 H1253 0.930 . S
C1263 C1256 1.409 . S
C1263 C1262 1.362 . S
H1264 C1270 0.930 . S
H1265 C1273 0.930 . S
H1266 C1274 0.930 . S
H1267 C1275 0.930 . S
H1268 C1278 0.930 . S
H1269 C1279 0.930 . S
C1270 H1264 0.930 . S
C1270 C1271 1.355 . S
C1270 C1272 1.415 . S
C1271 C1270 1.355 . S
C1271 C1273 1.419 . S
C1272 C1270 1.415 . S
C1272 C1277 1.425 . S
C1272 C1279 1.409 . S
C1273 H1265 0.930 . S
C1273 C1271 1.419 . S
C1273 C1274 1.362 . S
C1274 H1266 0.930 . S
C1274 C1273 1.362 . S
C1274 C1277 1.409 . S
C1275 H1267 0.930 . S
C1275 C1276 1.355 . S
C1275 C1277 1.415 . S
C1276 C1275 1.355 . S
C1276 C1278 1.419 . S
C1277 C1272 1.425 . S
C1277 C1274 1.409 . S
C1277 C1275 1.415 . S
C1278 H1268 0.930 . S
C1278 C1276 1.419 . S
C1278 C1279 1.362 . S
C1279 H1269 0.930 . S
C1279 C1272 1.409 . S
C1279 C1278 1.362 . S
H1280 C1286 0.930 . S
H1281 C1289 0.930 . S
H1282 C1290 0.930 . S
H1283 C1291 0.930 . S
H1284 C1294 0.930 . S
H1285 C1295 0.930 . S
C1286 H1280 0.930 . S
C1286 C1287 1.355 . S
C1286 C1288 1.415 . S
C1287 C1286 1.355 . S
C1287 C1289 1.419 . S
C1288 C1286 1.415 . S
C1288 C1293 1.425 . S
C1288 C1295 1.409 . S
C1289 H1281 0.930 . S
C1289 C1287 1.419 . S
C1289 C1290 1.362 . S
C1290 H1282 0.930 . S
C1290 C1289 1.362 . S
C1290 C1293 1.409 . S
C1291 H1283 0.930 . S
C1291 C1292 1.355 . S
C1291 C1293 1.415 . S
C1292 C1291 1.355 . S
C1292 C1294 1.419 . S
C1293 C1288 1.425 . S
C1293 C1290 1.409 . S
C1293 C1291 1.415 . S
C1294 H1284 0.930 . S
C1294 C1292 1.419 . S
C1294 C1295 1.362 . S
C1295 H1285 0.930 . S
C1295 C1288 1.409 . S
C1295 C1294 1.362 . S
H1296 C1302 0.930 . S
H1297 C1305 0.930 . S
H1298 C1306 0.930 . S
H1299 C1307 0.930 . S
H1300 C1310 0.930 . S
H1301 C1311 0.930 . S
C1302 H1296 0.930 . S
C1302 C1303 1.355 . S
C1302 C1304 1.415 . S
C1303 C1302 1.355 . S
C1303 C1305 1.419 . S
C1304 C1302 1.415 . S
C1304 C1309 1.425 . S
C1304 C1311 1.409 . S
C1305 H1297 0.930 . S
C1305 C1303 1.419 . S
C1305 C1306 1.362 . S
C1306 H1298 0.930 . S
C1306 C1305 1.362 . S
C1306 C1309 1.409 . S
C1307 H1299 0.930 . S
C1307 C1308 1.355 . S
C1307 C1309 1.415 . S
C1308 C1307 1.355 . S
C1308 C1310 1.419 . S
C1309 C1304 1.425 . S
C1309 C1306 1.409 . S
C1309 C1307 1.415 . S
C1310 H1300 0.930 . S
C1310 C1308 1.419 . S
C1310 C1311 1.362 . S
C1311 H1301 0.930 . S
C1311 C1304 1.409 . S
C1311 C1310 1.362 . S
H1312 C1318 0.930 . S
H1313 C1321 0.930 . S
H1314 C1322 0.930 . S
H1315 C1323 0.930 . S
H1316 C1326 0.930 . S
H1317 C1327 0.930 . S
C1318 H1312 0.930 . S
C1318 C1319 1.355 . S
C1318 C1320 1.415 . S
C1319 C1318 1.355 . S
C1319 C1321 1.419 . S
C1320 C1318 1.415 . S
C1320 C1325 1.425 . S
C1320 C1327 1.409 . S
C1321 H1313 0.930 . S
C1321 C1319 1.419 . S
C1321 C1322 1.362 . S
C1322 H1314 0.930 . S
C1322 C1321 1.362 . S
C1322 C1325 1.409 . S
C1323 H1315 0.930 . S
C1323 C1324 1.355 . S
C1323 C1325 1.415 . S
C1324 C1323 1.355 . S
C1324 C1326 1.419 . S
C1325 C1320 1.425 . S
C1325 C1322 1.409 . S
C1325 C1323 1.415 . S
C1326 H1316 0.930 . S
C1326 C1324 1.419 . S
C1326 C1327 1.362 . S
C1327 H1317 0.930 . S
C1327 C1320 1.409 . S
C1327 C1326 1.362 . S
H1328 C1334 0.930 . S
H1329 C1337 0.930 . S
H1330 C1338 0.930 . S
H1331 C1339 0.930 . S
H1332 C1342 0.930 . S
H1333 C1343 0.930 . S
C1334 H1328 0.930 . S
C1334 C1335 1.355 . S
C1334 C1336 1.415 . S
C1335 C1334 1.355 . S
C1335 C1337 1.419 . S
C1336 C1334 1.415 . S
C1336 C1341 1.425 . S
C1336 C1343 1.409 . S
C1337 H1329 0.930 . S
C1337 C1335 1.419 . S
C1337 C1338 1.362 . S
C1338 H1330 0.930 . S
C1338 C1337 1.362 . S
C1338 C1341 1.409 . S
C1339 H1331 0.930 . S
C1339 C1340 1.355 . S
C1339 C1341 1.415 . S
C1340 C1339 1.355 . S
C1340 C1342 1.419 . S
C1341 C1336 1.425 . S
C1341 C1338 1.409 . S
C1341 C1339 1.415 . S
C1342 H1332 0.930 . S
C1342 C1340 1.419 . S
C1342 C1343 1.362 . S
C1343 H1333 0.930 . S
C1343 C1336 1.409 . S
C1343 C1342 1.362 . S
H1344 C1350 0.930 . S
H1345 C1353 0.930 . S
H1346 C1354 0.930 . S
H1347 C1355 0.930 . S
H1348 C1358 0.930 . S
H1349 C1359 0.930 . S
C1350 H1344 0.930 . S
C1350 C1351 1.355 . S
C1350 C1352 1.415 . S
C1351 C1350 1.355 . S
C1351 C1353 1.419 . S
C1352 C1350 1.415 . S
C1352 C1357 1.425 . S
C1352 C1359 1.409 . S
C1353 H1345 0.930 . S
C1353 C1351 1.419 . S
C1353 C1354 1.362 . S
C1354 H1346 0.930 . S
C1354 C1353 1.362 . S
C1354 C1357 1.409 . S
C1355 H1347 0.930 . S
C1355 C1356 1.355 . S
C1355 C1357 1.415 . S
C1356 C1355 1.355 . S
C1356 C1358 1.419 . S
C1357 C1352 1.425 . S
C1357 C1354 1.409 . S
C1357 C1355 1.415 . S
C1358 H1348 0.930 . S
C1358 C1356 1.419 . S
C1358 C1359 1.362 . S
C1359 H1349 0.930 . S
C1359 C1352 1.409 . S
C1359 C1358 1.362 . S
H1360 C1366 0.930 . S
H1361 C1369 0.930 . S
H1362 C1370 0.930 . S
H1363 C1371 0.930 . S
H1364 C1374 0.930 . S
H1365 C1375 0.930 . S
C1366 H1360 0.930 . S
C1366 C1367 1.355 . S
C1366 C1368 1.415 . S
C1367 C1366 1.355 . S
C1367 C1369 1.419 . S
C1368 C1366 1.415 . S
C1368 C1373 1.425 . S
C1368 C1375 1.409 . S
C1369 H1361 0.930 . S
C1369 C1367 1.419 . S
C1369 C1370 1.362 . S
C1370 H1362 0.930 . S
C1370 C1369 1.362 . S
C1370 C1373 1.409 . S
C1371 H1363 0.930 . S
C1371 C1372 1.355 . S
C1371 C1373 1.415 . S
C1372 C1371 1.355 . S
C1372 C1374 1.419 . S
C1373 C1368 1.425 . S
C1373 C1370 1.409 . S
C1373 C1371 1.415 . S
C1374 H1364 0.930 . S
C1374 C1372 1.419 . S
C1374 C1375 1.362 . S
C1375 H1365 0.930 . S
C1375 C1368 1.409 . S
C1375 C1374 1.362 . S
H1376 C1382 0.930 . S
H1377 C1385 0.930 . S
H1378 C1386 0.930 . S
H1379 C1387 0.930 . S
H1380 C1390 0.930 . S
H1381 C1391 0.930 . S
C1382 H1376 0.930 . S
C1382 C1383 1.355 . S
C1382 C1384 1.415 . S
C1383 C1382 1.355 . S
C1383 C1385 1.419 . S
C1384 C1382 1.415 . S
C1384 C1389 1.425 . S
C1384 C1391 1.409 . S
C1385 H1377 0.930 . S
C1385 C1383 1.419 . S
C1385 C1386 1.362 . S
C1386 H1378 0.930 . S
C1386 C1385 1.362 . S
C1386 C1389 1.409 . S
C1387 H1379 0.930 . S
C1387 C1388 1.355 . S
C1387 C1389 1.415 . S
C1388 C1387 1.355 . S
C1388 C1390 1.419 . S
C1389 C1384 1.425 . S
C1389 C1386 1.409 . S
C1389 C1387 1.415 . S
C1390 H1380 0.930 . S
C1390 C1388 1.419 . S
C1390 C1391 1.362 . S
C1391 H1381 0.930 . S
C1391 C1384 1.409 . S
C1391 C1390 1.362 . S
H1392 C1398 0.930 . S
H1393 C1401 0.930 . S
H1394 C1402 0.930 . S
H1395 C1403 0.930 . S
H1396 C1406 0.930 . S
H1397 C1407 0.930 . S
C1398 H1392 0.930 . S
C1398 C1399 1.355 . S
C1398 C1400 1.415 . S
C1399 C1398 1.355 . S
C1399 C1401 1.419 . S
C1400 C1398 1.415 . S
C1400 C1405 1.425 . S
C1400 C1407 1.409 . S
C1401 H1393 0.930 . S
C1401 C1399 1.419 . S
C1401 C1402 1.362 . S
C1402 H1394 0.930 . S
C1402 C1401 1.362 . S
C1402 C1405 1.409 . S
C1403 H1395 0.930 . S
C1403 C1404 1.355 . S
C1403 C1405 1.415 . S
C1404 C1403 1.355 . S
C1404 C1406 1.419 . S
C1405 C1400 1.425 . S
C1405 C1402 1.409 . S
C1405 C1403 1.415 . S
C1406 H1396 0.930 . S
C1406 C1404 1.419 . S
C1406 C1407 1.362 . S
C1407 H1397 0.930 . S
C1407 C1400 1.409 . S
C1407 C1406 1.362 . S
H1408 C1414 0.930 . S
H1409 C1417 0.930 . S
H1410 C1418 0.930 . S
H1411 C1419 0.930 . S
H1412 C1422 0.930 . S
H1413 C1423 0.930 . S
C1414 H1408 0.930 . S
C1414 C1415 1.355 . S
C1414 C1416 1.415 . S
C1415 C1414 1.355 . S
C1415 C1417 1.419 . S
C1416 C1414 1.415 . S
C1416 C1421 1.425 . S
C1416 C1423 1.409 . S
C1417 H1409 0.930 . S
C1417 C1415 1.419 . S
C1417 C1418 1.362 . S
C1418 H1410 0.930 . S
C1418 C1417 1.362 . S
C1418 C1421 1.409 . S
C1419 H1411 0.930 . S
C1419 C1420 1.355 . S
C1419 C1421 1.415 . S
C1420 C1419 1.355 . S
C1420 C1422 1.419 . S
C1421 C1416 1.425 . S
C1421 C1418 1.409 . S
C1421 C1419 1.415 . S
C1422 H1412 0.930 . S
C1422 C1420 1.419 . S
C1422 C1423 1.362 . S
C1423 H1413 0.930 . S
C1423 C1416 1.409 . S
C1423 C1422 1.362 . S
H1424 C1430 0.930 . S
H1425 C1433 0.930 . S
H1426 C1434 0.930 . S
H1427 C1435 0.930 . S
H1428 C1438 0.930 . S
H1429 C1439 0.930 . S
C1430 H1424 0.930 . S
C1430 C1431 1.355 . S
C1430 C1432 1.415 . S
C1431 C1430 1.355 . S
C1431 C1433 1.419 . S
C1432 C1430 1.415 . S
C1432 C1437 1.425 . S
C1432 C1439 1.409 . S
C1433 H1425 0.930 . S
C1433 C1431 1.419 . S
C1433 C1434 1.362 . S
C1434 H1426 0.930 . S
C1434 C1433 1.362 . S
C1434 C1437 1.409 . S
C1435 H1427 0.930 . S
C1435 C1436 1.355 . S
C1435 C1437 1.415 . S
C1436 C1435 1.355 . S
C1436 C1438 1.419 . S
C1437 C1432 1.425 . S
C1437 C1434 1.409 . S
C1437 C1435 1.415 . S
C1438 H1428 0.930 . S
C1438 C1436 1.419 . S
C1438 C1439 1.362 . S
C1439 H1429 0.930 . S
C1439 C1432 1.409 . S
C1439 C1438 1.362 . S
H1440 C1446 0.930 . S
H1441 C1449 0.930 . S
H1442 C1450 0.930 . S
H1443 C1451 0.930 . S
H1444 C1454 0.930 . S
H1445 C1455 0.930 . S
C1446 H1440 0.930 . S
C1446 C1447 1.355 . S
C1446 C1448 1.415 . S
C1447 C1446 1.355 . S
C1447 C1449 1.419 . S
C1448 C1446 1.415 . S
C1448 C1453 1.425 . S
C1448 C1455 1.409 . S
C1449 H1441 0.930 . S
C1449 C1447 1.419 . S
C1449 C1450 1.362 . S
C1450 H1442 0.930 . S
C1450 C1449 1.362 . S
C1450 C1453 1.409 . S
C1451 H1443 0.930 . S
C1451 C1452 1.355 . S
C1451 C1453 1.415 . S
C1452 C1451 1.355 . S
C1452 C1454 1.419 . S
C1453 C1448 1.425 . S
C1453 C1450 1.409 . S
C1453 C1451 1.415 . S
C1454 H1444 0.930 . S
C1454 C1452 1.419 . S
C1454 C1455 1.362 . S
C1455 H1445 0.930 . S
C1455 C1448 1.409 . S
C1455 C1454 1.362 . S
H1456 C1462 0.930 . S
H1457 C1465 0.930 . S
H1458 C1466 0.930 . S
H1459 C1467 0.930 . S
H1460 C1470 0.930 . S
H1461 C1471 0.930 . S
C1462 H1456 0.930 . S
C1462 C1463 1.355 . S
C1462 C1464 1.415 . S
C1463 C1462 1.355 . S
C1463 C1465 1.419 . S
C1464 C1462 1.415 . S
C1464 C1469 1.425 . S
C1464 C1471 1.409 . S
C1465 H1457 0.930 . S
C1465 C1463 1.419 . S
C1465 C1466 1.362 . S
C1466 H1458 0.930 . S
C1466 C1465 1.362 . S
C1466 C1469 1.409 . S
C1467 H1459 0.930 . S
C1467 C1468 1.355 . S
C1467 C1469 1.415 . S
C1468 C1467 1.355 . S
C1468 C1470 1.419 . S
C1469 C1464 1.425 . S
C1469 C1466 1.409 . S
C1469 C1467 1.415 . S
C1470 H1460 0.930 . S
C1470 C1468 1.419 . S
C1470 C1471 1.362 . S
C1471 H1461 0.930 . S
C1471 C1464 1.409 . S
C1471 C1470 1.362 . S
H1472 C1478 0.930 . S
H1473 C1481 0.930 . S
H1474 C1482 0.930 . S
H1475 C1483 0.930 . S
H1476 C1486 0.930 . S
H1477 C1487 0.930 . S
C1478 H1472 0.930 . S
C1478 C1479 1.355 . S
C1478 C1480 1.415 . S
C1479 C1478 1.355 . S
C1479 C1481 1.419 . S
C1480 C1478 1.415 . S
C1480 C1485 1.425 . S
C1480 C1487 1.409 . S
C1481 H1473 0.930 . S
C1481 C1479 1.419 . S
C1481 C1482 1.362 . S
C1482 H1474 0.930 . S
C1482 C1481 1.362 . S
C1482 C1485 1.409 . S
C1483 H1475 0.930 . S
C1483 C1484 1.355 . S
C1483 C1485 1.415 . S
C1484 C1483 1.355 . S
C1484 C1486 1.419 . S
C1485 C1480 1.425 . S
C1485 C1482 1.409 . S
C1485 C1483 1.415 . S
C1486 H1476 0.930 . S
C1486 C1484 1.419 . S
C1486 C1487 1.362 . S
C1487 H1477 0.930 . S
C1487 C1480 1.409 . S
C1487 C1486 1.362 . S
H1488 C1494 0.930 . S
H1489 C1497 0.930 . S
H1490 C1498 0.930 . S
H1491 C1499 0.930 . S
H1492 C1502 0.930 . S
H1493 C1503 0.930 . S
C1494 H1488 0.930 . S
C1494 C1495 1.355 . S
C1494 C1496 1.415 . S
C1495 C1494 1.355 . S
C1495 C1497 1.419 . S
C1496 C1494 1.415 . S
C1496 C1501 1.425 . S
C1496 C1503 1.409 . S
C1497 H1489 0.930 . S
C1497 C1495 1.419 . S
C1497 C1498 1.362 . S
C1498 H1490 0.930 . S
C1498 C1497 1.362 . S
C1498 C1501 1.409 . S
C1499 H1491 0.930 . S
C1499 C1500 1.355 . S
C1499 C1501 1.415 . S
C1500 C1499 1.355 . S
C1500 C1502 1.419 . S
C1501 C1496 1.425 . S
C1501 C1498 1.409 . S
C1501 C1499 1.415 . S
C1502 H1492 0.930 . S
C1502 C1500 1.419 . S
C1502 C1503 1.362 . S
C1503 H1493 0.930 . S
C1503 C1496 1.409 . S
C1503 C1502 1.362 . S
H1504 C1510 0.930 . S
H1505 C1513 0.930 . S
H1506 C1514 0.930 . S
H1507 C1515 0.930 . S
H1508 C1518 0.930 . S
H1509 C1519 0.930 . S
C1510 H1504 0.930 . S
C1510 C1511 1.355 . S
C1510 C1512 1.415 . S
C1511 C1510 1.355 . S
C1511 C1513 1.419 . S
C1512 C1510 1.415 . S
C1512 C1517 1.425 . S
C1512 C1519 1.409 . S
C1513 H1505 0.930 . S
C1513 C1511 1.419 . S
C1513 C1514 1.362 . S
C1514 H1506 0.930 . S
C1514 C1513 1.362 . S
C1514 C1517 1.409 . S
C1515 H1507 0.930 . S
C1515 C1516 1.355 . S
C1515 C1517 1.415 . S
C1516 C1515 1.355 . S
C1516 C1518 1.419 . S
C1517 C1512 1.425 . S
C1517 C1514 1.409 . S
C1517 C1515 1.415 . S
C1518 H1508 0.930 . S
C1518 C1516 1.419 . S
C1518 C1519 1.362 . S
C1519 H1509 0.930 . S
C1519 C1512 1.409 . S
C1519 C1518 1.362 . S
H1520 C1526 0.930 . S
H1521 C1529 0.930 . S
H1522 C1530 0.930 . S
H1523 C1531 0.930 . S
H1524 C1534 0.930 . S
H1525 C1535 0.930 . S
C1526 H1520 0.930 . S
C1526 C1527 1.355 . S
C1526 C1528 1.415 . S
C1527 C1526 1.355 . S
C1527 C1529 1.419 . S
C1528 C1526 1.415 . S
C1528 C1533 1.425 . S
C1528 C1535 1.409 . S
C1529 H1521 0.930 . S
C1529 C1527 1.419 . S
C1529 C1530 1.362 . S
C1530 H1522 0.930 . S
C1530 C1529 1.362 . S
C1530 C1533 1.409 . S
C1531 H1523 0.930 . S
C1531 C1532 1.355 . S
C1531 C1533 1.415 . S
C1532 C1531 1.355 . S
C1532 C1534 1.419 . S
C1533 C1528 1.425 . S
C1533 C1530 1.409 . S
C1533 C1531 1.415 . S
C1534 H1524 0.930 . S
C1534 C1532 1.419 . S
C1534 C1535 1.362 . S
C1535 H1525 0.930 . S
C1535 C1528 1.409 . S
C1535 C1534 1.362 . S
H1536 C1542 0.930 . S
H1537 C1545 0.930 . S
H1538 C1546 0.930 . S
H1539 C1547 0.930 . S
H1540 C1550 0.930 . S
H1541 C1551 0.930 . S
C1542 H1536 0.930 . S
C1542 C1543 1.355 . S
C1542 C1544 1.415 . S
C1543 C1542 1.355 . S
C1543 C1545 1.419 . S
C1544 C1542 1.415 . S
C1544 C1549 1.425 . S
C1544 C1551 1.409 . S
C1545 H1537 0.930 . S
C1545 C1543 1.419 . S
C1545 C1546 1.362 . S
C1546 H1538 0.930 . S
C1546 C1545 1.362 . S
C1546 C1549 1.409 . S
C1547 H1539 0.930 . S
C1547 C1548 1.355 . S
C1547 C1549 1.415 . S
C1548 C1547 1.355 . S
C1548 C1550 1.419 . S
C1549 C1544 1.425 . S
C1549 C1546 1.409 . S
C1549 C1547 1.415 . S
C1550 H1540 0.930 . S
C1550 C1548 1.419 . S
C1550 C1551 1.362 . S
C1551 H1541 0.930 . S
C1551 C1544 1.409 . S
C1551 C1550 1.362 . S
H1552 C1558 0.930 . S
H1553 C1561 0.930 . S
H1554 C1562 0.930 . S
H1555 C1563 0.930 . S
H1556 C1566 0.930 . S
H1557 C1567 0.930 . S
C1558 H1552 0.930 . S
C1558 C1559 1.355 . S
C1558 C1560 1.415 . S
C1559 C1558 1.355 . S
C1559 C1561 1.419 . S
C1560 C1558 1.415 . S
C1560 C1565 1.425 . S
C1560 C1567 1.409 . S
C1561 H1553 0.930 . S
C1561 C1559 1.419 . S
C1561 C1562 1.362 . S
C1562 H1554 0.930 . S
C1562 C1561 1.362 . S
C1562 C1565 1.409 . S
C1563 H1555 0.930 . S
C1563 C1564 1.355 . S
C1563 C1565 1.415 . S
C1564 C1563 1.355 . S
C1564 C1566 1.419 . S
C1565 C1560 1.425 . S
C1565 C1562 1.409 . S
C1565 C1563 1.415 . S
C1566 H1556 0.930 . S
C1566 C1564 1.419 . S
C1566 C1567 1.362 . S
C1567 H1557 0.930 . S
C1567 C1560 1.409 . S
C1567 C1566 1.362 . S
H1568 C1574 0.930 . S
H1569 C1577 0.930 . S
H1570 C1578 0.930 . S
H1571 C1579 0.930 . S
H1572 C1582 0.930 . S
H1573 C1583 0.930 . S
C1574 H1568 0.930 . S
C1574 C1575 1.355 . S
C1574 C1576 1.415 . S
C1575 C1574 1.355 . S
C1575 C1577 1.419 . S
C1576 C1574 1.415 . S
C1576 C1581 1.425 . S
C1576 C1583 1.409 . S
C1577 H1569 0.930 . S
C1577 C1575 1.419 . S
C1577 C1578 1.362 . S
C1578 H1570 0.930 . S
C1578 C1577 1.362 . S
C1578 C1581 1.409 . S
C1579 H1571 0.930 . S
C1579 C1580 1.355 . S
C1579 C1581 1.415 . S
C1580 C1579 1.355 . S
C1580 C1582 1.419 . S
C1581 C1576 1.425 . S
C1581 C1578 1.409 . S
C1581 C1579 1.415 . S
C1582 H1572 0.930 . S
C1582 C1580 1.419 . S
C1582 C1583 1.362 . S
C1583 H1573 0.930 . S
C1583 C1576 1.409 . S
C1583 C1582 1.362 . S
H1584 C1590 0.930 . S
H1585 C1593 0.930 . S
H1586 C1594 0.930 . S
H1587 C1595 0.930 . S
H1588 C1598 0.930 . S
H1589 C1599 0.930 . S
C1590 H1584 0.930 . S
C1590 C1591 1.355 . S
C1590 C1592 1.415 . S
C1591 C1590 1.355 . S
C1591 C1593 1.419 1_545 S
C1592 C1590 1.415 . S
C1592 C1597 1.425 1_545 S
C1592 C1599 1.409 . S
C1593 H1585 0.930 . S
C1593 C1591 1.419 1_565 S
C1593 C1594 1.362 . S
C1594 H1586 0.930 . S
C1594 C1593 1.362 . S
C1594 C1597 1.409 . S
C1595 H1587 0.930 . S
C1595 C1596 1.355 . S
C1595 C1597 1.415 . S
C1596 C1595 1.355 . S
C1596 C1598 1.419 1_565 S
C1597 C1592 1.425 1_565 S
C1597 C1594 1.409 . S
C1597 C1595 1.415 . S
C1598 H1588 0.930 . S
C1598 C1596 1.419 1_545 S
C1598 C1599 1.362 . S
C1599 H1589 0.930 . S
C1599 C1592 1.409 . S
C1599 C1598 1.362 . S
H1600 C1606 0.930 . S
H1601 C1609 0.930 . S
H1602 C1610 0.930 . S
H1603 C1611 0.930 . S
H1604 C1614 0.930 . S
H1605 C1615 0.930 . S
C1606 H1600 0.930 . S
C1606 C1607 1.355 . S
C1606 C1608 1.415 . S
C1607 C1606 1.355 . S
C1607 C1609 1.419 . S
C1608 C1606 1.415 . S
C1608 C1613 1.425 . S
C1608 C1615 1.409 . S
C1609 H1601 0.930 . S
C1609 C1607 1.419 . S
C1609 C1610 1.362 . S
C1610 H1602 0.930 . S
C1610 C1609 1.362 . S
C1610 C1613 1.409 . S
C1611 H1603 0.930 . S
C1611 C1612 1.355 . S
C1611 C1613 1.415 . S
C1612 C1611 1.355 . S
C1612 C1614 1.419 . S
C1613 C1608 1.425 . S
C1613 C1610 1.409 . S
C1613 C1611 1.415 . S
C1614 H1604 0.930 . S
C1614 C1612 1.419 . S
C1614 C1615 1.362 . S
C1615 H1605 0.930 . S
C1615 C1608 1.409 . S
C1615 C1614 1.362 . S
H1616 C1622 0.930 . S
H1617 C1625 0.930 . S
H1618 C1626 0.930 . S
H1619 C1627 0.930 . S
H1620 C1630 0.930 . S
H1621 C1631 0.930 . S
C1622 H1616 0.930 . S
C1622 C1623 1.355 1_545 S
C1622 C1624 1.415 . S
C1623 C1622 1.355 1_565 S
C1623 C1625 1.419 . S
C1624 C1622 1.415 . S
C1624 C1629 1.425 1_546 S
C1624 C1631 1.409 1_556 S
C1625 H1617 0.930 . S
C1625 C1623 1.419 . S
C1625 C1626 1.362 . S
C1626 H1618 0.930 . S
C1626 C1625 1.362 . S
C1626 C1629 1.409 1_556 S
C1627 H1619 0.930 . S
C1627 C1628 1.355 1_565 S
C1627 C1629 1.415 . S
C1628 C1627 1.355 1_545 S
C1628 C1630 1.419 . S
C1629 C1624 1.425 1_564 S
C1629 C1626 1.409 1_554 S
C1629 C1627 1.415 . S
C1630 H1620 0.930 . S
C1630 C1628 1.419 . S
C1630 C1631 1.362 . S
C1631 H1621 0.930 . S
C1631 C1624 1.409 1_554 S
C1631 C1630 1.362 . S
H1632 C1638 0.930 . S
H1633 C1641 0.930 . S
H1634 C1642 0.930 . S
H1635 C1643 0.930 . S
H1636 C1646 0.930 . S
H1637 C1647 0.930 . S
C1638 H1632 0.930 . S
C1638 C1639 1.355 . S
C1638 C1640 1.415 . S
C1639 C1638 1.355 . S
C1639 C1641 1.419 . S
C1640 C1638 1.415 . S
C1640 C1645 1.425 . S
C1640 C1647 1.409 . S
C1641 H1633 0.930 . S
C1641 C1639 1.419 . S
C1641 C1642 1.362 . S
C1642 H1634 0.930 . S
C1642 C1641 1.362 . S
C1642 C1645 1.409 . S
C1643 H1635 0.930 . S
C1643 C1644 1.355 . S
C1643 C1645 1.415 . S
C1644 C1643 1.355 . S
C1644 C1646 1.419 . S
C1645 C1640 1.425 . S
C1645 C1642 1.409 . S
C1645 C1643 1.415 . S
C1646 H1636 0.930 . S
C1646 C1644 1.419 . S
C1646 C1647 1.362 . S
C1647 H1637 0.930 . S
C1647 C1640 1.409 . S
C1647 C1646 1.362 . S
H1648 C1654 0.930 . S
H1649 C1657 0.930 . S
H1650 C1658 0.930 . S
H1651 C1659 0.930 . S
H1652 C1662 0.930 . S
H1653 C1663 0.930 . S
C1654 H1648 0.930 . S
C1654 C1655 1.355 1_565 S
C1654 C1656 1.415 . S
C1655 C1654 1.355 1_545 S
C1655 C1657 1.419 . S
C1656 C1654 1.415 . S
C1656 C1661 1.425 1_565 S
C1656 C1663 1.409 . S
C1657 H1649 0.930 . S
C1657 C1655 1.419 . S
C1657 C1658 1.362 . S
C1658 H1650 0.930 . S
C1658 C1657 1.362 . S
C1658 C1661 1.409 . S
C1659 H1651 0.930 . S
C1659 C1660 1.355 1_545 S
C1659 C1661 1.415 . S
C1660 C1659 1.355 1_565 S
C1660 C1662 1.419 . S
C1661 C1656 1.425 1_545 S
C1661 C1658 1.409 . S
C1661 C1659 1.415 . S
C1662 H1652 0.930 . S
C1662 C1660 1.419 . S
C1662 C1663 1.362 . S
C1663 H1653 0.930 . S
C1663 C1656 1.409 . S
C1663 C1662 1.362 . S
H1664 C1670 0.930 . S
H1665 C1673 0.930 . S
H1666 C1674 0.930 . S
H1667 C1675 0.930 . S
H1668 C1678 0.930 . S
H1669 C1679 0.930 . S
C1670 H1664 0.930 . S
C1670 C1671 1.355 . S
C1670 C1672 1.415 . S
C1671 C1670 1.355 . S
C1671 C1673 1.419 . S
C1672 C1670 1.415 . S
C1672 C1677 1.425 . S
C1672 C1679 1.409 . S
C1673 H1665 0.930 . S
C1673 C1671 1.419 . S
C1673 C1674 1.362 . S
C1674 H1666 0.930 . S
C1674 C1673 1.362 . S
C1674 C1677 1.409 . S
C1675 H1667 0.930 . S
C1675 C1676 1.355 . S
C1675 C1677 1.415 . S
C1676 C1675 1.355 . S
C1676 C1678 1.419 . S
C1677 C1672 1.425 . S
C1677 C1674 1.409 . S
C1677 C1675 1.415 . S
C1678 H1668 0.930 . S
C1678 C1676 1.419 . S
C1678 C1679 1.362 . S
C1679 H1669 0.930 . S
C1679 C1672 1.409 . S
C1679 C1678 1.362 . S
H1680 C1686 0.930 . S
H1681 C1689 0.930 . S
H1682 C1690 0.930 . S
H1683 C1691 0.930 . S
H1684 C1694 0.930 . S
H1685 C1695 0.930 . S
C1686 H1680 0.930 . S
C1686 C1687 1.355 1_545 S
C1686 C1688 1.415 . S
C1687 C1686 1.355 1_565 S
C1687 C1689 1.419 . S
C1688 C1686 1.415 . S
C1688 C1693 1.425 1_546 S
C1688 C1695 1.409 1_556 S
C1689 H1681 0.930 . S
C1689 C1687 1.419 . S
C1689 C1690 1.362 . S
C1690 H1682 0.930 . S
C1690 C1689 1.362 . S
C1690 C1693 1.409 1_556 S
C1691 H1683 0.930 . S
C1691 C1692 1.355 1_565 S
C1691 C1693 1.415 . S
C1692 C1691 1.355 1_545 S
C1692 C1694 1.419 . S
C1693 C1688 1.425 1_564 S
C1693 C1690 1.409 1_554 S
C1693 C1691 1.415 . S
C1694 H1684 0.930 . S
C1694 C1692 1.419 . S
C1694 C1695 1.362 . S
C1695 H1685 0.930 . S
C1695 C1688 1.409 1_554 S
C1695 C1694 1.362 . S
H1696 C1702 0.930 . S
H1697 C1705 0.930 . S
H1698 C1706 0.930 . S
H1699 C1707 0.930 . S
H1700 C1710 0.930 . S
H1701 C1711 0.930 . S
C1702 H1696 0.930 . S
C1702 C1703 1.355 . S
C1702 C1704 1.415 . S
C1703 C1702 1.355 . S
C1703 C1705 1.419 . S
C1704 C1702 1.415 . S
C1704 C1709 1.425 . S
C1704 C1711 1.409 . S
C1705 H1697 0.930 . S
C1705 C1703 1.419 . S
C1705 C1706 1.362 . S
C1706 H1698 0.930 . S
C1706 C1705 1.362 . S
C1706 C1709 1.409 . S
C1707 H1699 0.930 . S
C1707 C1708 1.355 . S
C1707 C1709 1.415 . S
C1708 C1707 1.355 . S
C1708 C1710 1.419 . S
C1709 C1704 1.425 . S
C1709 C1706 1.409 . S
C1709 C1707 1.415 . S
C1710 H1700 0.930 . S
C1710 C1708 1.419 . S
C1710 C1711 1.362 . S
C1711 H1701 0.930 . S
C1711 C1704 1.409 . S
C1711 C1710 1.362 . S
H1712 C1718 0.930 . S
H1713 C1721 0.930 . S
H1714 C1722 0.930 1_554 S
H1715 C1723 0.930 . S
H1716 C1726 0.930 . S
H1717 C1727 0.930 1_556 S
C1718 H1712 0.930 . S
C1718 C1719 1.355 . S
C1718 C1720 1.415 . S
C1719 C1718 1.355 . S
C1719 C1721 1.419 . S
C1720 C1718 1.415 . S
C1720 C1725 1.425 1_556 S
C1720 C1727 1.409 1_556 S
C1721 H1713 0.930 . S
C1721 C1719 1.419 . S
C1721 C1722 1.362 . S
C1722 H1714 0.930 1_556 S
C1722 C1721 1.362 . S
C1722 C1725 1.409 1_556 S
C1723 H1715 0.930 . S
C1723 C1724 1.355 . S
C1723 C1725 1.415 . S
C1724 C1723 1.355 . S
C1724 C1726 1.419 . S
C1725 C1720 1.425 1_554 S
C1725 C1722 1.409 1_554 S
C1725 C1723 1.415 . S
C1726 H1716 0.930 . S
C1726 C1724 1.419 . S
C1726 C1727 1.362 . S
C1727 H1717 0.930 1_554 S
C1727 C1720 1.409 1_554 S
C1727 C1726 1.362 . S
H1728 C1734 0.930 . S
H1729 C1737 0.930 . S
H1730 C1738 0.930 . S
H1731 C1739 0.930 . S
H1732 C1742 0.930 . S
H1733 C1743 0.930 . S
C1734 H1728 0.930 . S
C1734 C1735 1.355 . S
C1734 C1736 1.415 . S
C1735 C1734 1.355 . S
C1735 C1737 1.419 . S
C1736 C1734 1.415 . S
C1736 C1741 1.425 . S
C1736 C1743 1.409 . S
C1737 H1729 0.930 . S
C1737 C1735 1.419 . S
C1737 C1738 1.362 . S
C1738 H1730 0.930 . S
C1738 C1737 1.362 . S
C1738 C1741 1.409 . S
C1739 H1731 0.930 . S
C1739 C1740 1.355 . S
C1739 C1741 1.415 . S
C1740 C1739 1.355 . S
C1740 C1742 1.419 . S
C1741 C1736 1.425 . S
C1741 C1738 1.409 . S
C1741 C1739 1.415 . S
C1742 H1732 0.930 . S
C1742 C1740 1.419 . S
C1742 C1743 1.362 . S
C1743 H1733 0.930 . S
C1743 C1736 1.409 . S
C1743 C1742 1.362 . S
H1744 C1750 0.930 . S
H1745 C1753 0.930 . S
H1746 C1754 0.930 . S
H1747 C1755 0.930 . S
H1748 C1758 0.930 . S
H1749 C1759 0.930 . S
C1750 H1744 0.930 . S
C1750 C1751 1.355 . S
C1750 C1752 1.415 . S
C1751 C1750 1.355 . S
C1751 C1753 1.419 . S
C1752 C1750 1.415 . S
C1752 C1757 1.425 . S
C1752 C1759 1.409 . S
C1753 H1745 0.930 . S
C1753 C1751 1.419 . S
C1753 C1754 1.362 . S
C1754 H1746 0.930 . S
C1754 C1753 1.362 . S
C1754 C1757 1.409 . S
C1755 H1747 0.930 . S
C1755 C1756 1.355 . S
C1755 C1757 1.415 . S
C1756 C1755 1.355 . S
C1756 C1758 1.419 . S
C1757 C1752 1.425 . S
C1757 C1754 1.409 . S
C1757 C1755 1.415 . S
C1758 H1748 0.930 . S
C1758 C1756 1.419 . S
C1758 C1759 1.362 . S
C1759 H1749 0.930 . S
C1759 C1752 1.409 . S
C1759 C1758 1.362 . S
H1760 C1766 0.930 . S
H1761 C1769 0.930 . S
H1762 C1770 0.930 . S
H1763 C1771 0.930 . S
H1764 C1774 0.930 . S
H1765 C1775 0.930 . S
C1766 H1760 0.930 . S
C1766 C1767 1.355 . S
C1766 C1768 1.415 . S
C1767 C1766 1.355 . S
C1767 C1769 1.419 . S
C1768 C1766 1.415 . S
C1768 C1773 1.425 . S
C1768 C1775 1.409 . S
C1769 H1761 0.930 . S
C1769 C1767 1.419 . S
C1769 C1770 1.362 . S
C1770 H1762 0.930 . S
C1770 C1769 1.362 . S
C1770 C1773 1.409 . S
C1771 H1763 0.930 . S
C1771 C1772 1.355 . S
C1771 C1773 1.415 . S
C1772 C1771 1.355 . S
C1772 C1774 1.419 . S
C1773 C1768 1.425 . S
C1773 C1770 1.409 . S
C1773 C1771 1.415 . S
C1774 H1764 0.930 . S
C1774 C1772 1.419 . S
C1774 C1775 1.362 . S
C1775 H1765 0.930 . S
C1775 C1768 1.409 . S
C1775 C1774 1.362 . S
H1776 C1782 0.930 . S
H1777 C1785 0.930 . S
H1778 C1786 0.930 . S
H1779 C1787 0.930 . S
H1780 C1790 0.930 . S
H1781 C1791 0.930 . S
C1782 H1776 0.930 . S
C1782 C1783 1.355 . S
C1782 C1784 1.415 . S
C1783 C1782 1.355 . S
C1783 C1785 1.419 . S
C1784 C1782 1.415 . S
C1784 C1789 1.425 1_556 S
C1784 C1791 1.409 1_556 S
C1785 H1777 0.930 . S
C1785 C1783 1.419 . S
C1785 C1786 1.362 . S
C1786 H1778 0.930 . S
C1786 C1785 1.362 . S
C1786 C1789 1.409 1_556 S
C1787 H1779 0.930 . S
C1787 C1788 1.355 . S
C1787 C1789 1.415 . S
C1788 C1787 1.355 . S
C1788 C1790 1.419 . S
C1789 C1784 1.425 1_554 S
C1789 C1786 1.409 1_554 S
C1789 C1787 1.415 . S
C1790 H1780 0.930 . S
C1790 C1788 1.419 . S
C1790 C1791 1.362 . S
C1791 H1781 0.930 . S
C1791 C1784 1.409 1_554 S
C1791 C1790 1.362 . S
H1792 C1798 0.930 . S
H1793 C1801 0.930 . S
H1794 C1802 0.930 . S
H1795 C1803 0.930 . S
H1796 C1806 0.930 . S
H1797 C1807 0.930 . S
C1798 H1792 0.930 . S
C1798 C1799 1.355 . S
C1798 C1800 1.415 . S
C1799 C1798 1.355 . S
C1799 C1801 1.419 . S
C1800 C1798 1.415 . S
C1800 C1805 1.425 . S
C1800 C1807 1.409 . S
C1801 H1793 0.930 . S
C1801 C1799 1.419 . S
C1801 C1802 1.362 . S
C1802 H1794 0.930 . S
C1802 C1801 1.362 . S
C1802 C1805 1.409 . S
C1803 H1795 0.930 . S
C1803 C1804 1.355 . S
C1803 C1805 1.415 . S
C1804 C1803 1.355 . S
C1804 C1806 1.419 . S
C1805 C1800 1.425 . S
C1805 C1802 1.409 . S
C1805 C1803 1.415 . S
C1806 H1796 0.930 . S
C1806 C1804 1.419 . S
C1806 C1807 1.362 . S
C1807 H1797 0.930 . S
C1807 C1800 1.409 . S
C1807 C1806 1.362 . S
H1808 C1814 0.930 . S
H1809 C1817 0.930 . S
H1810 C1818 0.930 . S
H1811 C1819 0.930 . S
H1812 C1822 0.930 . S
H1813 C1823 0.930 . S
C1814 H1808 0.930 . S
C1814 C1815 1.355 . S
C1814 C1816 1.415 . S
C1815 C1814 1.355 . S
C1815 C1817 1.419 . S
C1816 C1814 1.415 . S
C1816 C1821 1.425 . S
C1816 C1823 1.409 . S
C1817 H1809 0.930 . S
C1817 C1815 1.419 . S
C1817 C1818 1.362 . S
C1818 H1810 0.930 . S
C1818 C1817 1.362 . S
C1818 C1821 1.409 . S
C1819 H1811 0.930 . S
C1819 C1820 1.355 . S
C1819 C1821 1.415 . S
C1820 C1819 1.355 . S
C1820 C1822 1.419 . S
C1821 C1816 1.425 . S
C1821 C1818 1.409 . S
C1821 C1819 1.415 . S
C1822 H1812 0.930 . S
C1822 C1820 1.419 . S
C1822 C1823 1.362 . S
C1823 H1813 0.930 . S
C1823 C1816 1.409 . S
C1823 C1822 1.362 . S
H1824 C1830 0.930 . S
H1825 C1833 0.930 . S
H1826 C1834 0.930 . S
H1827 C1835 0.930 . S
H1828 C1838 0.930 . S
H1829 C1839 0.930 . S
C1830 H1824 0.930 . S
C1830 C1831 1.355 . S
C1830 C1832 1.415 . S
C1831 C1830 1.355 . S
C1831 C1833 1.419 . S
C1832 C1830 1.415 . S
C1832 C1837 1.425 . S
C1832 C1839 1.409 . S
C1833 H1825 0.930 . S
C1833 C1831 1.419 . S
C1833 C1834 1.362 . S
C1834 H1826 0.930 . S
C1834 C1833 1.362 . S
C1834 C1837 1.409 . S
C1835 H1827 0.930 . S
C1835 C1836 1.355 . S
C1835 C1837 1.415 . S
C1836 C1835 1.355 . S
C1836 C1838 1.419 . S
C1837 C1832 1.425 . S
C1837 C1834 1.409 . S
C1837 C1835 1.415 . S
C1838 H1828 0.930 . S
C1838 C1836 1.419 . S
C1838 C1839 1.362 . S
C1839 H1829 0.930 . S
C1839 C1832 1.409 . S
C1839 C1838 1.362 . S
H1840 C1846 0.930 . S
H1841 C1849 0.930 . S
H1842 C1850 0.930 . S
H1843 C1851 0.930 . S
H1844 C1854 0.930 . S
H1845 C1855 0.930 . S
C1846 H1840 0.930 . S
C1846 C1847 1.355 . S
C1846 C1848 1.415 . S
C1847 C1846 1.355 . S
C1847 C1849 1.419 . S
C1848 C1846 1.415 . S
C1848 C1853 1.425 . S
C1848 C1855 1.409 . S
C1849 H1841 0.930 . S
C1849 C1847 1.419 . S
C1849 C1850 1.362 . S
C1850 H1842 0.930 . S
C1850 C1849 1.362 . S
C1850 C1853 1.409 . S
C1851 H1843 0.930 . S
C1851 C1852 1.355 . S
C1851 C1853 1.415 . S
C1852 C1851 1.355 . S
C1852 C1854 1.419 . S
C1853 C1848 1.425 . S
C1853 C1850 1.409 . S
C1853 C1851 1.415 . S
C1854 H1844 0.930 . S
C1854 C1852 1.419 . S
C1854 C1855 1.362 . S
C1855 H1845 0.930 . S
C1855 C1848 1.409 . S
C1855 C1854 1.362 . S
H1856 C1862 0.930 . S
H1857 C1865 0.930 . S
H1858 C1866 0.930 . S
H1859 C1867 0.930 . S
H1860 C1870 0.930 . S
H1861 C1871 0.930 . S
C1862 H1856 0.930 . S
C1862 C1863 1.355 . S
C1862 C1864 1.415 . S
C1863 C1862 1.355 . S
C1863 C1865 1.419 . S
C1864 C1862 1.415 . S
C1864 C1869 1.425 . S
C1864 C1871 1.409 . S
C1865 H1857 0.930 . S
C1865 C1863 1.419 . S
C1865 C1866 1.362 . S
C1866 H1858 0.930 . S
C1866 C1865 1.362 . S
C1866 C1869 1.409 . S
C1867 H1859 0.930 . S
C1867 C1868 1.355 . S
C1867 C1869 1.415 . S
C1868 C1867 1.355 . S
C1868 C1870 1.419 . S
C1869 C1864 1.425 . S
C1869 C1866 1.409 . S
C1869 C1867 1.415 . S
C1870 H1860 0.930 . S
C1870 C1868 1.419 . S
C1870 C1871 1.362 . S
C1871 H1861 0.930 . S
C1871 C1864 1.409 . S
C1871 C1870 1.362 . S
H1872 C1878 0.930 . S
H1873 C1881 0.930 . S
H1874 C1882 0.930 . S
H1875 C1883 0.930 . S
H1876 C1886 0.930 . S
H1877 C1887 0.930 . S
C1878 H1872 0.930 . S
C1878 C1879 1.355 . S
C1878 C1880 1.415 . S
C1879 C1878 1.355 . S
C1879 C1881 1.419 . S
C1880 C1878 1.415 . S
C1880 C1885 1.425 . S
C1880 C1887 1.409 . S
C1881 H1873 0.930 . S
C1881 C1879 1.419 . S
C1881 C1882 1.362 . S
C1882 H1874 0.930 . S
C1882 C1881 1.362 . S
C1882 C1885 1.409 . S
C1883 H1875 0.930 . S
C1883 C1884 1.355 . S
C1883 C1885 1.415 . S
C1884 C1883 1.355 . S
C1884 C1886 1.419 . S
C1885 C1880 1.425 . S
C1885 C1882 1.409 . S
C1885 C1883 1.415 . S
C1886 H1876 0.930 . S
C1886 C1884 1.419 . S
C1886 C1887 1.362 . S
C1887 H1877 0.930 . S
C1887 C1880 1.409 . S
C1887 C1886 1.362 . S
H1888 C1894 0.930 . S
H1889 C1897 0.930 . S
H1890 C1898 0.930 . S
H1891 C1899 0.930 . S
H1892 C1902 0.930 . S
H1893 C1903 0.930 . S
C1894 H1888 0.930 . S
C1894 C1895 1.355 . S
C1894 C1896 1.415 . S
C1895 C1894 1.355 . S
C1895 C1897 1.419 . S
C1896 C1894 1.415 . S
C1896 C1901 1.425 . S
C1896 C1903 1.409 . S
C1897 H1889 0.930 . S
C1897 C1895 1.419 . S
C1897 C1898 1.362 . S
C1898 H1890 0.930 . S
C1898 C1897 1.362 . S
C1898 C1901 1.409 . S
C1899 H1891 0.930 . S
C1899 C1900 1.355 . S
C1899 C1901 1.415 . S
C1900 C1899 1.355 . S
C1900 C1902 1.419 . S
C1901 C1896 1.425 . S
C1901 C1898 1.409 . S
C1901 C1899 1.415 . S
C1902 H1892 0.930 . S
C1902 C1900 1.419 . S
C1902 C1903 1.362 . S
C1903 H1893 0.930 . S
C1903 C1896 1.409 . S
C1903 C1902 1.362 . S
H1904 C1910 0.930 . S
H1905 C1913 0.930 . S
H1906 C1914 0.930 . S
H1907 C1915 0.930 . S
H1908 C1918 0.930 . S
H1909 C1919 0.930 . S
C1910 H1904 0.930 . S
C1910 C1911 1.355 . S
C1910 C1912 1.415 . S
C1911 C1910 1.355 . S
C1911 C1913 1.419 . S
C1912 C1910 1.415 . S
C1912 C1917 1.425 . S
C1912 C1919 1.409 . S
C1913 H1905 0.930 . S
C1913 C1911 1.419 . S
C1913 C1914 1.362 . S
C1914 H1906 0.930 . S
C1914 C1913 1.362 . S
C1914 C1917 1.409 . S
C1915 H1907 0.930 . S
C1915 C1916 1.355 . S
C1915 C1917 1.415 . S
C1916 C1915 1.355 . S
C1916 C1918 1.419 . S
C1917 C1912 1.425 . S
C1917 C1914 1.409 . S
C1917 C1915 1.415 . S
C1918 H1908 0.930 . S
C1918 C1916 1.419 . S
C1918 C1919 1.362 . S
C1919 H1909 0.930 . S
C1919 C1912 1.409 . S
C1919 C1918 1.362 . S
H1920 C1926 0.930 . S
H1921 C1929 0.930 . S
H1922 C1930 0.930 . S
H1923 C1931 0.930 . S
H1924 C1934 0.930 . S
H1925 C1935 0.930 . S
C1926 H1920 0.930 . S
C1926 C1927 1.355 . S
C1926 C1928 1.415 . S
C1927 C1926 1.355 . S
C1927 C1929 1.419 . S
C1928 C1926 1.415 . S
C1928 C1933 1.425 . S
C1928 C1935 1.409 . S
C1929 H1921 0.930 . S
C1929 C1927 1.419 . S
C1929 C1930 1.362 . S
C1930 H1922 0.930 . S
C1930 C1929 1.362 . S
C1930 C1933 1.409 . S
C1931 H1923 0.930 . S
C1931 C1932 1.355 . S
C1931 C1933 1.415 . S
C1932 C1931 1.355 . S
C1932 C1934 1.419 . S
C1933 C1928 1.425 . S
C1933 C1930 1.409 . S
C1933 C1931 1.415 . S
C1934 H1924 0.930 . S
C1934 C1932 1.419 . S
C1934 C1935 1.362 . S
C1935 H1925 0.930 . S
C1935 C1928 1.409 . S
C1935 C1934 1.362 . S
H1936 C1942 0.930 . S
H1937 C1945 0.930 . S
H1938 C1946 0.930 . S
H1939 C1947 0.930 . S
H1940 C1950 0.930 . S
H1941 C1951 0.930 . S
C1942 H1936 0.930 . S
C1942 C1943 1.355 . S
C1942 C1944 1.415 . S
C1943 C1942 1.355 . S
C1943 C1945 1.419 . S
C1944 C1942 1.415 . S
C1944 C1949 1.425 . S
C1944 C1951 1.409 . S
C1945 H1937 0.930 . S
C1945 C1943 1.419 . S
C1945 C1946 1.362 . S
C1946 H1938 0.930 . S
C1946 C1945 1.362 . S
C1946 C1949 1.409 . S
C1947 H1939 0.930 . S
C1947 C1948 1.355 . S
C1947 C1949 1.415 . S
C1948 C1947 1.355 . S
C1948 C1950 1.419 . S
C1949 C1944 1.425 . S
C1949 C1946 1.409 . S
C1949 C1947 1.415 . S
C1950 H1940 0.930 . S
C1950 C1948 1.419 . S
C1950 C1951 1.362 . S
C1951 H1941 0.930 . S
C1951 C1944 1.409 . S
C1951 C1950 1.362 . S
H1952 C1958 0.930 . S
H1953 C1961 0.930 . S
H1954 C1962 0.930 . S
H1955 C1963 0.930 . S
H1956 C1966 0.930 . S
H1957 C1967 0.930 . S
C1958 H1952 0.930 . S
C1958 C1959 1.355 . S
C1958 C1960 1.415 . S
C1959 C1958 1.355 . S
C1959 C1961 1.419 . S
C1960 C1958 1.415 . S
C1960 C1965 1.425 . S
C1960 C1967 1.409 . S
C1961 H1953 0.930 . S
C1961 C1959 1.419 . S
C1961 C1962 1.362 . S
C1962 H1954 0.930 . S
C1962 C1961 1.362 . S
C1962 C1965 1.409 . S
C1963 H1955 0.930 . S
C1963 C1964 1.355 . S
C1963 C1965 1.415 . S
C1964 C1963 1.355 . S
C1964 C1966 1.419 . S
C1965 C1960 1.425 . S
C1965 C1962 1.409 . S
C1965 C1963 1.415 . S
C1966 H1956 0.930 . S
C1966 C1964 1.419 . S
C1966 C1967 1.362 . S
C1967 H1957 0.930 . S
C1967 C1960 1.409 . S
C1967 C1966 1.362 . S
H1968 C1974 0.930 . S
H1969 C1977 0.930 . S
H1970 C1978 0.930 . S
H1971 C1979 0.930 . S
H1972 C1982 0.930 . S
H1973 C1983 0.930 . S
C1974 H1968 0.930 . S
C1974 C1975 1.355 . S
C1974 C1976 1.415 . S
C1975 C1974 1.355 . S
C1975 C1977 1.419 . S
C1976 C1974 1.415 . S
C1976 C1981 1.425 . S
C1976 C1983 1.409 . S
C1977 H1969 0.930 . S
C1977 C1975 1.419 . S
C1977 C1978 1.362 . S
C1978 H1970 0.930 . S
C1978 C1977 1.362 . S
C1978 C1981 1.409 . S
C1979 H1971 0.930 . S
C1979 C1980 1.355 . S
C1979 C1981 1.415 . S
C1980 C1979 1.355 . S
C1980 C1982 1.419 . S
C1981 C1976 1.425 . S
C1981 C1978 1.409 . S
C1981 C1979 1.415 . S
C1982 H1972 0.930 . S
C1982 C1980 1.419 . S
C1982 C1983 1.362 . S
C1983 H1973 0.930 . S
C1983 C1976 1.409 . S
C1983 C1982 1.362 . S
H1984 C1990 0.930 . S
H1985 C1993 0.930 . S
H1986 C1994 0.930 . S
H1987 C1995 0.930 . S
H1988 C1998 0.930 . S
H1989 C1999 0.930 . S
C1990 H1984 0.930 . S
C1990 C1991 1.355 . S
C1990 C1992 1.415 . S
C1991 C1990 1.355 . S
C1991 C1993 1.419 . S
C1992 C1990 1.415 . S
C1992 C1997 1.425 . S
C1992 C1999 1.409 . S
C1993 H1985 0.930 . S
C1993 C1991 1.419 . S
C1993 C1994 1.362 . S
C1994 H1986 0.930 . S
C1994 C1993 1.362 . S
C1994 C1997 1.409 . S
C1995 H1987 0.930 . S
C1995 C1996 1.355 . S
C1995 C1997 1.415 . S
C1996 C1995 1.355 . S
C1996 C1998 1.419 . S
C1997 C1992 1.425 . S
C1997 C1994 1.409 . S
C1997 C1995 1.415 . S
C1998 H1988 0.930 . S
C1998 C1996 1.419 . S
C1998 C1999 1.362 . S
C1999 H1989 0.930 . S
C1999 C1992 1.409 . S
C1999 C1998 1.362 . S
H2000 C2006 0.930 . S
H2001 C2009 0.930 . S
H2002 C2010 0.930 . S
H2003 C2011 0.930 . S
H2004 C2014 0.930 . S
H2005 C2015 0.930 . S
C2006 H2000 0.930 . S
C2006 C2007 1.355 . S
C2006 C2008 1.415 . S
C2007 C2006 1.355 . S
C2007 C2009 1.419 . S
C2008 C2006 1.415 . S
C2008 C2013 1.425 . S
C2008 C2015 1.409 . S
C2009 H2001 0.930 . S
C2009 C2007 1.419 . S
C2009 C2010 1.362 . S
C2010 H2002 0.930 . S
C2010 C2009 1.362 . S
C2010 C2013 1.409 . S
C2011 H2003 0.930 . S
C2011 C2012 1.355 . S
C2011 C2013 1.415 . S
C2012 C2011 1.355 . S
C2012 C2014 1.419 . S
C2013 C2008 1.425 . S
C2013 C2010 1.409 . S
C2013 C2011 1.415 . S
C2014 H2004 0.930 . S
C2014 C2012 1.419 . S
C2014 C2015 1.362 . S
C2015 H2005 0.930 . S
C2015 C2008 1.409 . S
C2015 C2014 1.362 . S
H2016 C2022 0.930 . S
H2017 C2025 0.930 . S
H2018 C2026 0.930 . S
H2019 C2027 0.930 . S
H2020 C2030 0.930 . S
H2021 C2031 0.930 . S
C2022 H2016 0.930 . S
C2022 C2023 1.355 . S
C2022 C2024 1.415 . S
C2023 C2022 1.355 . S
C2023 C2025 1.419 . S
C2024 C2022 1.415 . S
C2024 C2029 1.425 . S
C2024 C2031 1.409 . S
C2025 H2017 0.930 . S
C2025 C2023 1.419 . S
C2025 C2026 1.362 . S
C2026 H2018 0.930 . S
C2026 C2025 1.362 . S
C2026 C2029 1.409 . S
C2027 H2019 0.930 . S
C2027 C2028 1.355 . S
C2027 C2029 1.415 . S
C2028 C2027 1.355 . S
C2028 C2030 1.419 . S
C2029 C2024 1.425 . S
C2029 C2026 1.409 . S
C2029 C2027 1.415 . S
C2030 H2020 0.930 . S
C2030 C2028 1.419 . S
C2030 C2031 1.362 . S
C2031 H2021 0.930 . S
C2031 C2024 1.409 . S
C2031 C2030 1.362 . S
H2032 C2038 0.930 . S
H2033 C2041 0.930 . S
H2034 C2042 0.930 . S
H2035 C2043 0.930 . S
H2036 C2046 0.930 . S
H2037 C2047 0.930 . S
C2038 H2032 0.930 . S
C2038 C2039 1.355 . S
C2038 C2040 1.415 . S
C2039 C2038 1.355 . S
C2039 C2041 1.419 . S
C2040 C2038 1.415 . S
C2040 C2045 1.425 . S
C2040 C2047 1.409 . S
C2041 H2033 0.930 . S
C2041 C2039 1.419 . S
C2041 C2042 1.362 . S
C2042 H2034 0.930 . S
C2042 C2041 1.362 . S
C2042 C2045 1.409 . S
C2043 H2035 0.930 . S
C2043 C2044 1.355 . S
C2043 C2045 1.415 . S
C2044 C2043 1.355 . S
C2044 C2046 1.419 . S
C2045 C2040 1.425 . S
C2045 C2042 1.409 . S
C2045 C2043 1.415 . S
C2046 H2036 0.930 . S
C2046 C2044 1.419 . S
C2046 C2047 1.362 . S
C2047 H2037 0.930 . S
C2047 C2040 1.409 . S
C2047 C2046 1.362 . S
H2048 C2054 0.930 . S
H2049 C2057 0.930 . S
H2050 C2058 0.930 . S
H2051 C2059 0.930 . S
H2052 C2062 0.930 . S
H2053 C2063 0.930 . S
C2054 H2048 0.930 . S
C2054 C2055 1.355 . S
C2054 C2056 1.415 . S
C2055 C2054 1.355 . S
C2055 C2057 1.419 . S
C2056 C2054 1.415 . S
C2056 C2061 1.425 . S
C2056 C2063 1.409 . S
C2057 H2049 0.930 . S
C2057 C2055 1.419 . S
C2057 C2058 1.362 . S
C2058 H2050 0.930 . S
C2058 C2057 1.362 . S
C2058 C2061 1.409 . S
C2059 H2051 0.930 . S
C2059 C2060 1.355 . S
C2059 C2061 1.415 . S
C2060 C2059 1.355 . S
C2060 C2062 1.419 . S
C2061 C2056 1.425 . S
C2061 C2058 1.409 . S
C2061 C2059 1.415 . S
C2062 H2052 0.930 . S
C2062 C2060 1.419 . S
C2062 C2063 1.362 . S
C2063 H2053 0.930 . S
C2063 C2056 1.409 . S
C2063 C2062 1.362 . S
H2064 C2070 0.930 . S
H2065 C2073 0.930 . S
H2066 C2074 0.930 . S
H2067 C2075 0.930 . S
H2068 C2078 0.930 . S
H2069 C2079 0.930 . S
C2070 H2064 0.930 . S
C2070 C2071 1.355 . S
C2070 C2072 1.415 . S
C2071 C2070 1.355 . S
C2071 C2073 1.419 . S
C2072 C2070 1.415 . S
C2072 C2077 1.425 . S
C2072 C2079 1.409 . S
C2073 H2065 0.930 . S
C2073 C2071 1.419 . S
C2073 C2074 1.362 . S
C2074 H2066 0.930 . S
C2074 C2073 1.362 . S
C2074 C2077 1.409 . S
C2075 H2067 0.930 . S
C2075 C2076 1.355 . S
C2075 C2077 1.415 . S
C2076 C2075 1.355 . S
C2076 C2078 1.419 . S
C2077 C2072 1.425 . S
C2077 C2074 1.409 . S
C2077 C2075 1.415 . S
C2078 H2068 0.930 . S
C2078 C2076 1.419 . S
C2078 C2079 1.362 . S
C2079 H2069 0.930 . S
C2079 C2072 1.409 . S
C2079 C2078 1.362 . S
H2080 C2086 0.930 . S
H2081 C2089 0.930 . S
H2082 C2090 0.930 . S
H2083 C2091 0.930 . S
H2084 C2094 0.930 . S
H2085 C2095 0.930 . S
C2086 H2080 0.930 . S
C2086 C2087 1.355 . S
C2086 C2088 1.415 . S
C2087 C2086 1.355 . S
C2087 C2089 1.419 . S
C2088 C2086 1.415 . S
C2088 C2093 1.425 . S
C2088 C2095 1.409 . S
C2089 H2081 0.930 . S
C2089 C2087 1.419 . S
C2089 C2090 1.362 . S
C2090 H2082 0.930 . S
C2090 C2089 1.362 . S
C2090 C2093 1.409 . S
C2091 H2083 0.930 . S
C2091 C2092 1.355 . S
C2091 C2093 1.415 . S
C2092 C2091 1.355 . S
C2092 C2094 1.419 . S
C2093 C2088 1.425 . S
C2093 C2090 1.409 . S
C2093 C2091 1.415 . S
C2094 H2084 0.930 . S
C2094 C2092 1.419 . S
C2094 C2095 1.362 . S
C2095 H2085 0.930 . S
C2095 C2088 1.409 . S
C2095 C2094 1.362 . S
H2096 C2102 0.930 . S
H2097 C2105 0.930 . S
H2098 C2106 0.930 . S
H2099 C2107 0.930 . S
H2100 C2110 0.930 . S
H2101 C2111 0.930 . S
C2102 H2096 0.930 . S
C2102 C2103 1.355 . S
C2102 C2104 1.415 . S
C2103 C2102 1.355 . S
C2103 C2105 1.419 1_565 S
C2104 C2102 1.415 . S
C2104 C2109 1.425 1_665 S
C2104 C2111 1.409 1_655 S
C2105 H2097 0.930 . S
C2105 C2103 1.419 1_545 S
C2105 C2106 1.362 . S
C2106 H2098 0.930 . S
C2106 C2105 1.362 . S
C2106 C2109 1.409 1_655 S
C2107 H2099 0.930 . S
C2107 C2108 1.355 1_545 S
C2107 C2109 1.415 . S
C2108 C2107 1.355 1_565 S
C2108 C2110 1.419 . S
C2109 C2104 1.425 1_445 S
C2109 C2106 1.409 1_455 S
C2109 C2107 1.415 . S
C2110 H2100 0.930 . S
C2110 C2108 1.419 . S
C2110 C2111 1.362 . S
C2111 H2101 0.930 . S
C2111 C2104 1.409 1_455 S
C2111 C2110 1.362 . S
H2112 C2118 0.930 . S
H2113 C2121 0.930 . S
H2114 C2122 0.930 . S
H2115 C2123 0.930 . S
H2116 C2126 0.930 . S
H2117 C2127 0.930 . S
C2118 H2112 0.930 . S
C2118 C2119 1.355 . S
C2118 C2120 1.415 . S
C2119 C2118 1.355 . S
C2119 C2121 1.419 . S
C2120 C2118 1.415 . S
C2120 C2125 1.425 . S
C2120 C2127 1.409 . S
C2121 H2113 0.930 . S
C2121 C2119 1.419 . S
C2121 C2122 1.362 . S
C2122 H2114 0.930 . S
C2122 C2121 1.362 . S
C2122 C2125 1.409 . S
C2123 H2115 0.930 . S
C2123 C2124 1.355 . S
C2123 C2125 1.415 . S
C2124 C2123 1.355 . S
C2124 C2126 1.419 . S
C2125 C2120 1.425 . S
C2125 C2122 1.409 . S
C2125 C2123 1.415 . S
C2126 H2116 0.930 . S
C2126 C2124 1.419 . S
C2126 C2127 1.362 . S
C2127 H2117 0.930 . S
C2127 C2120 1.409 . S
C2127 C2126 1.362 . S
H2128 C2134 0.930 . S
H2129 C2137 0.930 . S
H2130 C2138 0.930 . S
H2131 C2139 0.930 . S
H2132 C2142 0.930 . S
H2133 C2143 0.930 . S
C2134 H2128 0.930 . S
C2134 C2135 1.355 1_565 S
C2134 C2136 1.415 . S
C2135 C2134 1.355 1_545 S
C2135 C2137 1.419 . S
C2136 C2134 1.415 . S
C2136 C2141 1.425 1_565 S
C2136 C2143 1.409 . S
C2137 H2129 0.930 . S
C2137 C2135 1.419 . S
C2137 C2138 1.362 . S
C2138 H2130 0.930 . S
C2138 C2137 1.362 . S
C2138 C2141 1.409 . S
C2139 H2131 0.930 . S
C2139 C2140 1.355 . S
C2139 C2141 1.415 . S
C2140 C2139 1.355 . S
C2140 C2142 1.419 1_545 S
C2141 C2136 1.425 1_545 S
C2141 C2138 1.409 . S
C2141 C2139 1.415 . S
C2142 H2132 0.930 . S
C2142 C2140 1.419 1_565 S
C2142 C2143 1.362 . S
C2143 H2133 0.930 . S
C2143 C2136 1.409 . S
C2143 C2142 1.362 . S
H2144 C2150 0.930 . S
H2145 C2153 0.930 . S
H2146 C2154 0.930 . S
H2147 C2155 0.930 . S
H2148 C2158 0.930 . S
H2149 C2159 0.930 1_554 S
C2150 H2144 0.930 . S
C2150 C2151 1.355 . S
C2150 C2152 1.415 . S
C2151 C2150 1.355 . S
C2151 C2153 1.419 . S
C2152 C2150 1.415 . S
C2152 C2157 1.425 . S
C2152 C2159 1.409 . S
C2153 H2145 0.930 . S
C2153 C2151 1.419 . S
C2153 C2154 1.362 . S
C2154 H2146 0.930 . S
C2154 C2153 1.362 . S
C2154 C2157 1.409 . S
C2155 H2147 0.930 . S
C2155 C2156 1.355 . S
C2155 C2157 1.415 . S
C2156 C2155 1.355 . S
C2156 C2158 1.419 . S
C2157 C2152 1.425 . S
C2157 C2154 1.409 . S
C2157 C2155 1.415 . S
C2158 H2148 0.930 . S
C2158 C2156 1.419 . S
C2158 C2159 1.362 . S
C2159 H2149 0.930 1_556 S
C2159 C2152 1.409 . S
C2159 C2158 1.362 . S
H2160 C2166 0.930 . S
H2161 C2169 0.930 . S
H2162 C2170 0.930 . S
H2163 C2171 0.930 . S
H2164 C2174 0.930 . S
H2165 C2175 0.930 . S
C2166 H2160 0.930 . S
C2166 C2167 1.355 1_545 S
C2166 C2168 1.413 1_545 S
C2167 C2166 1.355 1_565 S
C2167 C2169 1.419 . S
C2168 C2166 1.413 1_565 S
C2168 C2173 1.432 . S
C2168 C2175 1.405 1_565 S
C2169 H2161 0.930 . S
C2169 C2167 1.419 . S
C2169 C2170 1.362 . S
C2170 H2162 0.930 . S
C2170 C2169 1.362 . S
C2170 C2173 1.409 . S
C2171 H2163 0.930 . S
C2171 C2172 1.355 . S
C2171 C2173 1.415 . S
C2172 C2171 1.355 . S
C2172 C2174 1.419 1_565 S
C2173 C2168 1.432 . S
C2173 C2170 1.409 . S
C2173 C2171 1.415 . S
C2174 H2164 0.930 . S
C2174 C2172 1.419 1_545 S
C2174 C2175 1.362 . S
C2175 H2165 0.930 . S
C2175 C2168 1.405 1_545 S
C2175 C2174 1.362 . S
H2176 C2182 0.930 . S
H2177 C2185 0.930 . S
H2178 C2186 0.930 . S
H2179 C2187 0.930 . S
H2180 C2190 0.930 . S
H2181 C2191 0.930 . S
C2182 H2176 0.930 . S
C2182 C2183 1.355 . S
C2182 C2184 1.415 . S
C2183 C2182 1.355 . S
C2183 C2185 1.419 . S
C2184 C2182 1.415 . S
C2184 C2189 1.425 . S
C2184 C2191 1.409 . S
C2185 H2177 0.930 . S
C2185 C2183 1.419 . S
C2185 C2186 1.362 . S
C2186 H2178 0.930 . S
C2186 C2185 1.362 . S
C2186 C2189 1.409 . S
C2187 H2179 0.930 . S
C2187 C2188 1.355 . S
C2187 C2189 1.415 . S
C2188 C2187 1.355 . S
C2188 C2190 1.419 . S
C2189 C2184 1.425 . S
C2189 C2186 1.409 . S
C2189 C2187 1.415 . S
C2190 H2180 0.930 . S
C2190 C2188 1.419 . S
C2190 C2191 1.362 . S
C2191 H2181 0.930 . S
C2191 C2184 1.409 . S
C2191 C2190 1.362 . S
H2192 C2198 0.946 . S
H2193 C2201 0.930 . S
H2194 C2202 0.930 . S
H2195 C2203 0.930 . S
H2196 C2206 0.930 . S
H2197 C2207 0.930 . S
C2198 H2192 0.946 . S
C2198 C2199 1.342 1_565 S
C2198 C2200 1.414 . S
C2199 C2198 1.342 1_545 S
C2199 C2201 1.419 . S
C2200 C2198 1.414 . S
C2200 C2205 1.424 1_465 S
C2200 C2207 1.410 1_455 S
C2201 H2193 0.930 . S
C2201 C2199 1.419 . S
C2201 C2202 1.362 . S
C2202 H2194 0.930 . S
C2202 C2201 1.362 . S
C2202 C2205 1.409 1_455 S
C2203 H2195 0.930 . S
C2203 C2204 1.355 . S
C2203 C2205 1.415 . S
C2204 C2203 1.355 . S
C2204 C2206 1.419 1_545 S
C2205 C2200 1.424 1_645 S
C2205 C2202 1.409 1_655 S
C2205 C2203 1.415 . S
C2206 H2196 0.930 . S
C2206 C2204 1.419 1_565 S
C2206 C2207 1.362 . S
C2207 H2197 0.930 . S
C2207 C2200 1.410 1_655 S
C2207 C2206 1.362 . S
H2208 C2214 0.930 . S
H2209 C2217 0.930 . S
H2210 C2218 0.930 . S
H2211 C2219 0.930 . S
H2212 C2222 0.930 . S
H2213 C2223 0.930 . S
C2214 H2208 0.930 . S
C2214 C2215 1.355 . S
C2214 C2216 1.415 . S
C2215 C2214 1.355 . S
C2215 C2217 1.419 . S
C2216 C2214 1.415 . S
C2216 C2221 1.425 . S
C2216 C2223 1.409 . S
C2217 H2209 0.930 . S
C2217 C2215 1.419 . S
C2217 C2218 1.362 . S
C2218 H2210 0.930 . S
C2218 C2217 1.362 . S
C2218 C2221 1.409 . S
C2219 H2211 0.930 . S
C2219 C2220 1.355 . S
C2219 C2221 1.415 . S
C2220 C2219 1.355 . S
C2220 C2222 1.419 . S
C2221 C2216 1.425 . S
C2221 C2218 1.409 . S
C2221 C2219 1.415 . S
C2222 H2212 0.930 . S
C2222 C2220 1.419 . S
C2222 C2223 1.362 . S
C2223 H2213 0.930 . S
C2223 C2216 1.409 . S
C2223 C2222 1.362 . S
H2224 C2230 0.930 . S
H2225 C2233 0.930 . S
H2226 C2234 0.930 . S
H2227 C2235 0.930 . S
H2228 C2238 0.930 . S
H2229 C2239 0.930 . S
C2230 H2224 0.930 . S
C2230 C2231 1.355 . S
C2230 C2232 1.415 . S
C2231 C2230 1.355 . S
C2231 C2233 1.419 . S
C2232 C2230 1.415 . S
C2232 C2237 1.425 . S
C2232 C2239 1.409 . S
C2233 H2225 0.930 . S
C2233 C2231 1.419 . S
C2233 C2234 1.362 . S
C2234 H2226 0.930 . S
C2234 C2233 1.362 . S
C2234 C2237 1.409 . S
C2235 H2227 0.930 . S
C2235 C2236 1.355 . S
C2235 C2237 1.415 . S
C2236 C2235 1.355 . S
C2236 C2238 1.419 . S
C2237 C2232 1.425 . S
C2237 C2234 1.409 . S
C2237 C2235 1.415 . S
C2238 H2228 0.930 . S
C2238 C2236 1.419 . S
C2238 C2239 1.362 . S
C2239 H2229 0.930 . S
C2239 C2232 1.409 . S
C2239 C2238 1.362 . S
H2240 C2246 0.930 . S
H2241 C2249 0.930 . S
H2242 C2250 0.930 . S
H2243 C2251 0.930 . S
H2244 C2254 0.930 . S
H2245 C2255 0.930 . S
C2246 H2240 0.930 . S
C2246 C2247 1.355 . S
C2246 C2248 1.415 . S
C2247 C2246 1.355 . S
C2247 C2249 1.419 . S
C2248 C2246 1.415 . S
C2248 C2253 1.425 . S
C2248 C2255 1.409 . S
C2249 H2241 0.930 . S
C2249 C2247 1.419 . S
C2249 C2250 1.362 . S
C2250 H2242 0.930 . S
C2250 C2249 1.362 . S
C2250 C2253 1.409 . S
C2251 H2243 0.930 . S
C2251 C2252 1.355 . S
C2251 C2253 1.415 . S
C2252 C2251 1.355 . S
C2252 C2254 1.419 . S
C2253 C2248 1.425 . S
C2253 C2250 1.409 . S
C2253 C2251 1.415 . S
C2254 H2244 0.930 . S
C2254 C2252 1.419 . S
C2254 C2255 1.362 . S
C2255 H2245 0.930 . S
C2255 C2248 1.409 . S
C2255 C2254 1.362 . S
H2256 C2262 0.930 . S
H2257 C2265 0.930 . S
H2258 C2266 0.930 . S
H2259 C2267 0.930 . S
H2260 C2270 0.930 . S
H2261 C2271 0.930 . S
C2262 H2256 0.930 . S
C2262 C2263 1.355 . S
C2262 C2264 1.415 . S
C2263 C2262 1.355 . S
C2263 C2265 1.419 . S
C2264 C2262 1.415 . S
C2264 C2269 1.425 . S
C2264 C2271 1.409 . S
C2265 H2257 0.930 . S
C2265 C2263 1.419 . S
C2265 C2266 1.362 . S
C2266 H2258 0.930 . S
C2266 C2265 1.362 . S
C2266 C2269 1.409 . S
C2267 H2259 0.930 . S
C2267 C2268 1.355 . S
C2267 C2269 1.415 . S
C2268 C2267 1.355 . S
C2268 C2270 1.419 . S
C2269 C2264 1.425 . S
C2269 C2266 1.409 . S
C2269 C2267 1.415 . S
C2270 H2260 0.930 . S
C2270 C2268 1.419 . S
C2270 C2271 1.362 . S
C2271 H2261 0.930 . S
C2271 C2264 1.409 . S
C2271 C2270 1.362 . S
H2272 C2278 0.930 . S
H2273 C2281 0.930 . S
H2274 C2282 0.930 . S
H2275 C2283 0.930 . S
H2276 C2286 0.930 . S
H2277 C2287 0.930 . S
C2278 H2272 0.930 . S
C2278 C2279 1.355 . S
C2278 C2280 1.415 . S
C2279 C2278 1.355 . S
C2279 C2281 1.419 . S
C2280 C2278 1.415 . S
C2280 C2285 1.425 . S
C2280 C2287 1.409 . S
C2281 H2273 0.930 . S
C2281 C2279 1.419 . S
C2281 C2282 1.362 . S
C2282 H2274 0.930 . S
C2282 C2281 1.362 . S
C2282 C2285 1.409 . S
C2283 H2275 0.930 . S
C2283 C2284 1.355 . S
C2283 C2285 1.415 . S
C2284 C2283 1.355 . S
C2284 C2286 1.419 . S
C2285 C2280 1.425 . S
C2285 C2282 1.409 . S
C2285 C2283 1.415 . S
C2286 H2276 0.930 . S
C2286 C2284 1.419 . S
C2286 C2287 1.362 . S
C2287 H2277 0.930 . S
C2287 C2280 1.409 . S
C2287 C2286 1.362 . S
H2288 C2294 0.930 . S
H2289 C2297 0.930 . S
H2290 C2298 0.930 . S
H2291 C2299 0.930 . S
H2292 C2302 0.930 . S
H2293 C2303 0.930 . S
C2294 H2288 0.930 . S
C2294 C2295 1.355 . S
C2294 C2296 1.415 . S
C2295 C2294 1.355 . S
C2295 C2297 1.419 . S
C2296 C2294 1.415 . S
C2296 C2301 1.425 1_455 S
C2296 C2303 1.409 1_455 S
C2297 H2289 0.930 . S
C2297 C2295 1.419 . S
C2297 C2298 1.362 . S
C2298 H2290 0.930 . S
C2298 C2297 1.362 . S
C2298 C2301 1.409 1_455 S
C2299 H2291 0.930 . S
C2299 C2300 1.355 . S
C2299 C2301 1.415 . S
C2300 C2299 1.355 . S
C2300 C2302 1.419 . S
C2301 C2296 1.425 1_655 S
C2301 C2298 1.409 1_655 S
C2301 C2299 1.415 . S
C2302 H2292 0.930 . S
C2302 C2300 1.419 . S
C2302 C2303 1.362 . S
C2303 H2293 0.930 . S
C2303 C2296 1.409 1_655 S
C2303 C2302 1.362 . S
H2304 C2310 0.930 . S
H2305 C2313 0.930 . S
H2306 C2314 0.930 . S
H2307 C2315 0.930 . S
H2308 C2318 0.930 . S
H2309 C2319 0.930 . S
C2310 H2304 0.930 . S
C2310 C2311 1.355 . S
C2310 C2312 1.415 . S
C2311 C2310 1.355 . S
C2311 C2313 1.419 . S
C2312 C2310 1.415 . S
C2312 C2317 1.425 1_455 S
C2312 C2319 1.409 1_455 S
C2313 H2305 0.930 . S
C2313 C2311 1.419 . S
C2313 C2314 1.362 . S
C2314 H2306 0.930 . S
C2314 C2313 1.362 . S
C2314 C2317 1.409 1_455 S
C2315 H2307 0.930 . S
C2315 C2316 1.355 . S
C2315 C2317 1.415 . S
C2316 C2315 1.355 . S
C2316 C2318 1.419 . S
C2317 C2312 1.425 1_655 S
C2317 C2314 1.409 1_655 S
C2317 C2315 1.415 . S
C2318 H2308 0.930 . S
C2318 C2316 1.419 . S
C2318 C2319 1.362 . S
C2319 H2309 0.930 . S
C2319 C2312 1.409 1_655 S
C2319 C2318 1.362 . S
H2320 C2326 0.930 . S
H2321 C2329 0.930 . S
H2322 C2330 0.930 . S
H2323 C2331 0.930 . S
H2324 C2334 0.930 . S
H2325 C2335 0.930 . S
C2326 H2320 0.930 . S
C2326 C2327 1.355 . S
C2326 C2328 1.415 . S
C2327 C2326 1.355 . S
C2327 C2329 1.419 . S
C2328 C2326 1.415 . S
C2328 C2333 1.425 . S
C2328 C2335 1.409 . S
C2329 H2321 0.930 . S
C2329 C2327 1.419 . S
C2329 C2330 1.362 . S
C2330 H2322 0.930 . S
C2330 C2329 1.362 . S
C2330 C2333 1.409 . S
C2331 H2323 0.930 . S
C2331 C2332 1.355 . S
C2331 C2333 1.415 . S
C2332 C2331 1.355 . S
C2332 C2334 1.419 . S
C2333 C2328 1.425 . S
C2333 C2330 1.409 . S
C2333 C2331 1.415 . S
C2334 H2324 0.930 . S
C2334 C2332 1.419 . S
C2334 C2335 1.362 . S
C2335 H2325 0.930 . S
C2335 C2328 1.409 . S
C2335 C2334 1.362 . S
C1063 N46 2.073 . S
C1068 C21 1.993 . S
C1079 C54 1.743 . S
C1084 N79 1.868 . S
C1095 C87 2.027 . S
C1100 N112 2.084 . S
C1111 C120 1.760 . S
C1116 N13 1.852 . S
C1127 C153 2.042 . S
C1132 N244 2.097 . S
C1143 N145 1.872 . S
C1148 C186 1.806 . S
C1159 C219 2.043 . S
C1164 N178 2.101 . S
C1175 C252 1.785 . S
C1180 N211 1.857 . S
C1191 N310 2.111 . S
C1196 C285 2.018 . S
C1207 N343 1.860 . S
C1212 C318 1.783 . S
C1223 C351 1.981 . S
C1228 N376 2.098 . S
C1239 N277 1.858 . S
C1244 C384 1.776 . S
C1255 C417 1.982 . S
C1260 N508 2.099 . S
C1271 C450 1.764 . S
C1276 N409 1.852 . S
C1287 N442 2.112 . S
C1292 C483 2.030 . S
C1303 N475 1.858 . S
C1308 C516 1.743 . S
C1319 N574 2.023 . S
C1324 C549 1.935 . S
C1335 C582 1.943 . S
C1340 N607 2.033 . S
C1351 N640 1.996 . S
C1356 C615 1.883 . S
C1367 N541 2.029 . S
C1372 C648 1.917 . S
C1383 N772 1.988 . S
C1388 C681 1.902 . S
C1399 C714 1.961 . S
C1404 N673 2.024 . S
C1415 N706 2.013 . S
C1420 C747 1.951 . S
C1431 C780 1.927 . S
C1436 N739 2.000 . S
C1447 N838 1.992 . S
C1452 C813 1.886 . S
C1463 C846 1.949 . S
C1468 N871 2.008 . S
C1479 C879 1.886 . S
C1484 N904 1.992 . S
C1495 C912 1.900 . S
C1500 N805 2.021 . S
C1511 N1036 2.019 . S
C1516 C945 1.948 . S
C1527 N937 2.033 . S
C1532 C978 1.942 . S
C1543 N970 2.023 . S
C1548 C1011 1.928 . S
C1559 N1003 2.013 . S
C1564 C1044 1.894 . S
C1575 N200 0.627 . S
C1580 N2 0.637 . S
C1591 N35 0.767 . S
C1596 N233 0.701 . S
C1607 N68 0.609 . S
C1612 N134 0.539 . S
C1623 N101 0.686 . S
C1628 N167 0.630 . S
C1639 N464 0.635 . S
C1644 N266 0.629 . S
C1655 N497 0.593 . S
C1660 N299 0.748 . S
C1671 N332 0.558 . S
C1676 N398 0.590 . S
C1687 N431 0.698 . S
C1692 N365 0.621 . S
C1703 N530 0.614 . S
C1708 N728 0.656 . S
C1719 N563 0.644 . S
C1724 N761 0.650 . S
C1735 N662 0.751 . S
C1740 N596 0.555 . S
C1751 N695 0.657 . S
C1756 N629 0.734 . S
C1767 N992 0.692 . S
C1772 N794 0.582 . S
C1783 N1025 0.733 . S
C1788 N827 0.574 . S
C1799 N926 0.668 . S
C1804 N860 0.604 . S
C1815 N959 0.596 . S
C1820 N893 0.764 . S
C1831 C183 0.863 . S
C1836 C18 0.878 . S
C1847 C51 0.928 . S
C1852 C216 0.867 . S
C1863 C84 0.908 . S
C1868 C249 0.864 . S
C1879 C117 0.888 . S
C1884 C150 0.858 . S
C1895 C447 0.879 . S
C1900 C282 0.861 . S
C1911 C315 0.946 . S
C1916 C480 0.884 . S
C1927 C513 0.867 . S
C1932 C348 0.929 . S
C1943 C381 0.960 . S
C1948 C414 0.938 . S
C1959 C546 0.863 . S
C1964 C711 0.802 . S
C1975 C744 0.835 . S
C1980 C579 0.763 . S
C1991 C777 0.867 . S
C1996 C612 0.825 . S
C2007 C645 0.839 . S
C2012 C678 0.766 . S
C2023 C810 0.811 . S
C2028 C975 0.865 . S
C2039 C1008 0.749 . S
C2044 C843 0.796 . S
C2055 C1041 0.782 . S
C2060 C876 0.750 . S
C2071 C942 0.851 . S
C2076 C909 0.858 . S
C2087 C7 0.947 . S
C2092 C997 0.954 . S
C2103 C502 0.918 . S
C2108 C40 0.970 . S
C2119 C931 0.972 . S
C2124 C73 0.928 . S
C2135 C106 0.959 . S
C2140 C436 0.928 . S
C2151 C139 0.911 . S
C2156 C865 0.991 . S
C2167 C370 0.986 . S
C2172 C172 0.899 . S
C2183 C205 0.988 . S
C2188 C799 0.904 . S
C2199 C238 0.975 . S
C2204 C304 0.913 . S
C2215 C271 0.918 . S
C2220 C733 0.985 . S
C2231 C337 0.941 . S
C2236 C667 0.958 . S
C2247 C403 0.980 . S
C2252 C601 0.915 . S
C2263 C469 0.937 . S
C2268 C535 0.966 . S
C2279 C568 0.956 . S
C2284 C1030 0.905 . S
C2295 C964 0.958 . S
C2300 C634 0.901 . S
C2311 C898 0.893 . S
C2316 C700 0.966 . S
C2327 C832 0.887 . S
C2332 C766 0.973 . S
