# Generated by pormake.
# Topology thp-x, (12)-cn, num edge types: 1
# Building blocks:
#     Node 0, Type 0, BuildingBlock: ENOWUB_clean_sbu_0, # of connection points: 12
#     Node 1, Type 0, BuildingBlock: ENOWUB_clean_sbu_0, # of connection points: 12
#     Node 2, Type 0, BuildingBlock: ENOWUB_clean_sbu_0, # of connection points: 12
#     Node 3, Type 0, BuildingBlock: ENOWUB_clean_sbu_0, # of connection points: 12
#     Node 4, Type 0, BuildingBlock: ENOWUB_clean_sbu_0, # of connection points: 12
#     Node 5, Type 0, BuildingBlock: ENOWUB_clean_sbu_0, # of connection points: 12
#     Node 6, Type 0, BuildingBlock: ENOWUB_clean_sbu_0, # of connection points: 12
#     Node 7, Type 0, BuildingBlock: ENOWUB_clean_sbu_0, # of connection points: 12
#     Node 8, Type 0, BuildingBlock: ENOWUB_clean_sbu_0, # of connection points: 12
#     Node 9, Type 0, BuildingBlock: ENOWUB_clean_sbu_0, # of connection points: 12
#     Node 10, Type 0, BuildingBlock: ENOWUB_clean_sbu_0, # of connection points: 12
#     Node 11, Type 0, BuildingBlock: ENOWUB_clean_sbu_0, # of connection points: 12
#     Edge 12, Type (0, 0), BuildingBlock: AJUNOK_clean_linker_0, # of connection points: 2
#     Edge 13, Type (0, 0), BuildingBlock: AJUNOK_clean_linker_0, # of connection points: 2
#     Edge 14, Type (0, 0), BuildingBlock: AJUNOK_clean_linker_0, # of connection points: 2
#     Edge 15, Type (0, 0), BuildingBlock: AJUNOK_clean_linker_0, # of connection points: 2
#     Edge 16, Type (0, 0), BuildingBlock: AJUNOK_clean_linker_0, # of connection points: 2
#     Edge 17, Type (0, 0), BuildingBlock: AJUNOK_clean_linker_0, # of connection points: 2
#     Edge 18, Type (0, 0), BuildingBlock: AJUNOK_clean_linker_0, # of connection points: 2
#     Edge 19, Type (0, 0), BuildingBlock: AJUNOK_clean_linker_0, # of connection points: 2
#     Edge 20, Type (0, 0), BuildingBlock: AJUNOK_clean_linker_0, # of connection points: 2
#     Edge 21, Type (0, 0), BuildingBlock: AJUNOK_clean_linker_0, # of connection points: 2
#     Edge 22, Type (0, 0), BuildingBlock: AJUNOK_clean_linker_0, # of connection points: 2
#     Edge 23, Type (0, 0), BuildingBlock: AJUNOK_clean_linker_0, # of connection points: 2
#     Edge 24, Type (0, 0), BuildingBlock: AJUNOK_clean_linker_0, # of connection points: 2
#     Edge 25, Type (0, 0), BuildingBlock: AJUNOK_clean_linker_0, # of connection points: 2
#     Edge 26, Type (0, 0), BuildingBlock: AJUNOK_clean_linker_0, # of connection points: 2
#     Edge 27, Type (0, 0), BuildingBlock: AJUNOK_clean_linker_0, # of connection points: 2
#     Edge 28, Type (0, 0), BuildingBlock: AJUNOK_clean_linker_0, # of connection points: 2
#     Edge 29, Type (0, 0), BuildingBlock: AJUNOK_clean_linker_0, # of connection points: 2
#     Edge 30, Type (0, 0), BuildingBlock: AJUNOK_clean_linker_0, # of connection points: 2
#     Edge 31, Type (0, 0), BuildingBlock: AJUNOK_clean_linker_0, # of connection points: 2
#     Edge 32, Type (0, 0), BuildingBlock: AJUNOK_clean_linker_0, # of connection points: 2
#     Edge 33, Type (0, 0), BuildingBlock: AJUNOK_clean_linker_0, # of connection points: 2
#     Edge 34, Type (0, 0), BuildingBlock: AJUNOK_clean_linker_0, # of connection points: 2
#     Edge 35, Type (0, 0), BuildingBlock: AJUNOK_clean_linker_0, # of connection points: 2
#     Edge 36, Type (0, 0), BuildingBlock: AJUNOK_clean_linker_0, # of connection points: 2
#     Edge 37, Type (0, 0), BuildingBlock: AJUNOK_clean_linker_0, # of connection points: 2
#     Edge 38, Type (0, 0), BuildingBlock: AJUNOK_clean_linker_0, # of connection points: 2
#     Edge 39, Type (0, 0), BuildingBlock: AJUNOK_clean_linker_0, # of connection points: 2
#     Edge 40, Type (0, 0), BuildingBlock: AJUNOK_clean_linker_0, # of connection points: 2
#     Edge 41, Type (0, 0), BuildingBlock: AJUNOK_clean_linker_0, # of connection points: 2
#     Edge 42, Type (0, 0), BuildingBlock: AJUNOK_clean_linker_0, # of connection points: 2
#     Edge 43, Type (0, 0), BuildingBlock: AJUNOK_clean_linker_0, # of connection points: 2
#     Edge 44, Type (0, 0), BuildingBlock: AJUNOK_clean_linker_0, # of connection points: 2
#     Edge 45, Type (0, 0), BuildingBlock: AJUNOK_clean_linker_0, # of connection points: 2
#     Edge 46, Type (0, 0), BuildingBlock: AJUNOK_clean_linker_0, # of connection points: 2
#     Edge 47, Type (0, 0), BuildingBlock: AJUNOK_clean_linker_0, # of connection points: 2
#     Edge 48, Type (0, 0), BuildingBlock: AJUNOK_clean_linker_0, # of connection points: 2
#     Edge 49, Type (0, 0), BuildingBlock: AJUNOK_clean_linker_0, # of connection points: 2
#     Edge 50, Type (0, 0), BuildingBlock: AJUNOK_clean_linker_0, # of connection points: 2
#     Edge 51, Type (0, 0), BuildingBlock: AJUNOK_clean_linker_0, # of connection points: 2
#     Edge 52, Type (0, 0), BuildingBlock: AJUNOK_clean_linker_0, # of connection points: 2
#     Edge 53, Type (0, 0), BuildingBlock: AJUNOK_clean_linker_0, # of connection points: 2
#     Edge 54, Type (0, 0), BuildingBlock: AJUNOK_clean_linker_0, # of connection points: 2
#     Edge 55, Type (0, 0), BuildingBlock: AJUNOK_clean_linker_0, # of connection points: 2
#     Edge 56, Type (0, 0), BuildingBlock: AJUNOK_clean_linker_0, # of connection points: 2
#     Edge 57, Type (0, 0), BuildingBlock: AJUNOK_clean_linker_0, # of connection points: 2
#     Edge 58, Type (0, 0), BuildingBlock: AJUNOK_clean_linker_0, # of connection points: 2
#     Edge 59, Type (0, 0), BuildingBlock: AJUNOK_clean_linker_0, # of connection points: 2
#     Edge 60, Type (0, 0), BuildingBlock: AJUNOK_clean_linker_0, # of connection points: 2
#     Edge 61, Type (0, 0), BuildingBlock: AJUNOK_clean_linker_0, # of connection points: 2
#     Edge 62, Type (0, 0), BuildingBlock: AJUNOK_clean_linker_0, # of connection points: 2
#     Edge 63, Type (0, 0), BuildingBlock: AJUNOK_clean_linker_0, # of connection points: 2
#     Edge 64, Type (0, 0), BuildingBlock: AJUNOK_clean_linker_0, # of connection points: 2
#     Edge 65, Type (0, 0), BuildingBlock: AJUNOK_clean_linker_0, # of connection points: 2
#     Edge 66, Type (0, 0), BuildingBlock: AJUNOK_clean_linker_0, # of connection points: 2
#     Edge 67, Type (0, 0), BuildingBlock: AJUNOK_clean_linker_0, # of connection points: 2
#     Edge 68, Type (0, 0), BuildingBlock: AJUNOK_clean_linker_0, # of connection points: 2
#     Edge 69, Type (0, 0), BuildingBlock: AJUNOK_clean_linker_0, # of connection points: 2
#     Edge 70, Type (0, 0), BuildingBlock: AJUNOK_clean_linker_0, # of connection points: 2
#     Edge 71, Type (0, 0), BuildingBlock: AJUNOK_clean_linker_0, # of connection points: 2
#     Edge 72, Type (0, 0), BuildingBlock: AJUNOK_clean_linker_0, # of connection points: 2
#     Edge 73, Type (0, 0), BuildingBlock: AJUNOK_clean_linker_0, # of connection points: 2
#     Edge 74, Type (0, 0), BuildingBlock: AJUNOK_clean_linker_0, # of connection points: 2
#     Edge 75, Type (0, 0), BuildingBlock: AJUNOK_clean_linker_0, # of connection points: 2
#     Edge 76, Type (0, 0), BuildingBlock: AJUNOK_clean_linker_0, # of connection points: 2
#     Edge 77, Type (0, 0), BuildingBlock: AJUNOK_clean_linker_0, # of connection points: 2
#     Edge 78, Type (0, 0), BuildingBlock: AJUNOK_clean_linker_0, # of connection points: 2
#     Edge 79, Type (0, 0), BuildingBlock: AJUNOK_clean_linker_0, # of connection points: 2
#     Edge 80, Type (0, 0), BuildingBlock: AJUNOK_clean_linker_0, # of connection points: 2
#     Edge 81, Type (0, 0), BuildingBlock: AJUNOK_clean_linker_0, # of connection points: 2
#     Edge 82, Type (0, 0), BuildingBlock: AJUNOK_clean_linker_0, # of connection points: 2
#     Edge 83, Type (0, 0), BuildingBlock: AJUNOK_clean_linker_0, # of connection points: 2
# Relax obj value: 0.246
# Max RMSD: 0.289
# Mean RMSD: 0.289
data_MOF--net-thp-x--node1-ENOWUB_clean_sbu_0--edge1-AJUNOK_clean_linker_0
_symmetry_space_group_name_H-M    P1
_symmetry_Int_Tables_number       1
_symmetry_cell_setting            triclinic
loop_
_symmetry_equiv_pos_as_xyz
'x, y, z'
_cell_length_a     27.591412
_cell_length_b     27.646649
_cell_length_c     27.724522
_cell_angle_alpha  89.637515
_cell_angle_beta   90.342802
_cell_angle_gamma 89.87982
loop_
_atom_site_label
_atom_site_type_symbol
_atom_site_fract_x
_atom_site_fract_y
_atom_site_fract_z
_atom_type_partial_charge
O0 O 0.89235 0.28382 0.31318 0.0
O1 O 0.97497 0.31342 0.3422 0.0
O2 O 0.98337 0.21517 0.43947 0.0
O3 O 0.98303 0.21749 0.337 0.0
O4 O 0.9772 0.30722 0.44032 0.0
Zr5 Zr 0.93108 0.25911 0.38828 0.0
Zr6 Zr 0.02098 0.36115 0.394 0.0
Zr7 Zr 0.02627 0.27365 0.28801 0.0
O8 O 0.07447 0.31701 0.4423 0.0
O9 O 0.07747 0.22506 0.33732 0.0
O10 O 0.07209 0.32118 0.3401 0.0
Zr11 Zr 0.02975 0.26417 0.49124 0.0
Zr12 Zr 0.03489 0.17374 0.38936 0.0
Zr13 Zr 0.12287 0.27272 0.38781 0.0
O14 O 0.08056 0.22205 0.43945 0.0
O15 O 0.17849 0.26865 0.4493 0.0
O16 O 0.164 0.26114 0.31402 0.0
O17 O 0.87906 0.25311 0.45301 0.0
O18 O 0.02462 0.18484 0.52486 0.0
O19 O 0.02293 0.37259 0.26878 0.0
O20 O 0.02319 0.17737 0.26563 0.0
O21 O 0.02674 0.34073 0.52936 0.0
O22 O 0.09922 0.37043 0.35596 0.0
O23 O 0.95893 0.1402 0.36388 0.0
O24 O 0.11023 0.13508 0.4089 0.0
O25 O 0.93999 0.39116 0.38292 0.0
O26 O 0.12793 0.26428 0.51504 0.0
O27 O 0.94677 0.29315 0.25573 0.0
O28 O 0.10665 0.26793 0.25392 0.0
O29 O 0.93291 0.26587 0.51603 0.0
O30 O 0.90142 0.33282 0.42247 0.0
O31 O 0.16307 0.19742 0.40326 0.0
O32 O 0.16571 0.34821 0.38963 0.0
O33 O 0.8967 0.1786 0.39489 0.0
C34 C 0.90978 0.27098 0.27254 0.0
O35 O 0.01923 0.40008 0.47128 0.0
O36 O 1.01163 0.42025 0.33592 0.0
C37 C 0.17275 0.26526 0.4943 0.0
C38 C 0.15035 0.26057 0.27 0.0
C39 C 0.88739 0.26063 0.4974 0.0
C40 C 0.02125 0.14168 0.50779 0.0
C41 C 0.01584 0.41626 0.29056 0.0
C42 C 0.03899 0.13412 0.28257 0.0
C43 C 0.01912 0.38448 0.51512 0.0
C44 C 0.13582 0.38206 0.38094 0.0
C45 C 0.92253 0.1402 0.39163 0.0
C46 C 0.15312 0.15276 0.41103 0.0
C47 C 0.90103 0.37254 0.39944 0.0
O48 O 0.06037 0.13009 0.32284 0.0
O49 O 0.0236 0.13008 0.46315 0.0
O50 O 0.36941 0.7632 0.79764 0.0
O51 O 0.4518 0.8082 0.82855 0.0
O52 O 0.452 0.71366 0.93413 0.0
O53 O 0.45886 0.71064 0.83648 0.0
O54 O 0.44875 0.81058 0.92912 0.0
Zr55 Zr 0.40524 0.75959 0.87785 0.0
Zr56 Zr 0.49666 0.85928 0.88086 0.0
Zr57 Zr 0.50411 0.7578 0.78423 0.0
O58 O 0.54604 0.8147 0.93237 0.0
O59 O 0.5535 0.71255 0.83766 0.0
O60 O 0.54753 0.81146 0.83289 0.0
Zr61 Zr 0.49715 0.76711 0.98361 0.0
Zr62 Zr 0.50554 0.66527 0.89099 0.0
Zr63 Zr 0.59735 0.76626 0.88387 0.0
O64 O 0.55047 0.71987 0.93737 0.0
O65 O 0.65037 0.7672 0.94819 0.0
O66 O 0.63762 0.75816 0.80668 0.0
O67 O 0.3501 0.75682 0.93985 0.0
O68 O 0.46832 0.6883 1.00674 0.0
O69 O 0.50687 0.85404 0.75599 0.0
O70 O 0.49999 0.65886 0.76522 0.0
O71 O 0.49986 0.84537 0.01681 0.0
O72 O 0.57728 0.87241 0.85098 0.0
O73 O 0.42888 0.66171 0.84854 0.0
O74 O 0.58219 0.62546 0.88042 0.0
O75 O 0.42184 0.9027 0.86941 0.0
O76 O 0.59485 0.76439 0.01057 0.0
O77 O 0.43032 0.76121 0.7418 0.0
O78 O 0.58035 0.75328 0.74667 0.0
O79 O 0.39936 0.77888 1.00343 0.0
O80 O 0.39437 0.8408 0.9074 0.0
O81 O 0.6127 0.68716 0.91729 0.0
O82 O 0.63979 0.84201 0.88753 0.0
O83 O 0.36062 0.68595 0.87755 0.0
C84 C 0.38563 0.76225 0.7541 0.0
O85 O 0.49916 0.90246 0.95632 0.0
O86 O 0.49003 0.90968 0.81555 0.0
C87 C 0.64111 0.76487 0.9929 0.0
C88 C 0.62425 0.75531 0.76206 0.0
C89 C 0.35496 0.77139 0.98286 0.0
C90 C 0.49677 0.65235 1.00819 0.0
C91 C 0.49943 0.89997 0.77213 0.0
C92 C 0.50037 0.61392 0.78641 0.0
C93 C 0.50068 0.88909 1.00081 0.0
C94 C 0.61243 0.8784 0.87975 0.0
C95 C 0.38828 0.65099 0.86661 0.0
C96 C 0.61893 0.65143 0.88982 0.0
C97 C 0.3861 0.87535 0.87847 0.0
O98 O 0.50405 0.60756 0.83153 0.0
O99 O 0.50195 0.62673 0.97017 0.0
O100 O 0.99811 0.70274 1.00046 0.0
O101 O 0.04693 0.72776 0.08355 0.0
O102 O 0.9577 0.83299 0.0918 0.0
O103 O 0.95143 0.73771 0.09222 0.0
O104 O 0.05573 0.82199 0.08417 0.0
Zr105 Zr 0.99813 0.78139 0.03691 0.0
Zr106 Zr 0.10279 0.76953 0.13273 0.0
Zr107 Zr 0.99885 0.68418 0.13631 0.0
O108 O 0.06291 0.82189 0.18446 0.0
O109 O 0.95941 0.73397 0.19299 0.0
O110 O 0.05472 0.72443 0.18521 0.0
Zr111 Zr 0.01545 0.87452 0.13588 0.0
Zr112 Zr 0.91293 0.78776 0.14798 0.0
Zr113 Zr 0.01678 0.77676 0.23948 0.0
O114 O 0.97025 0.82996 0.19152 0.0
O115 O 0.02276 0.87392 0.26438 0.0
O116 O 0.01933 0.67756 0.2594 0.0
O117 O 0.97282 0.86471 0.02697 0.0
O118 O 0.9418 0.91478 0.15371 0.0
O119 O 0.07647 0.65249 0.1576 0.0
O120 O 0.9229 0.64304 0.14358 0.0
O121 O 0.09407 0.91149 0.14398 0.0
O122 O 0.15297 0.75993 0.20432 0.0
O123 O 0.85439 0.79591 0.08715 0.0
O124 O 0.88039 0.7822 0.22944 0.0
O125 O 0.15234 0.77806 0.06816 0.0
O126 O 0.01557 0.92642 0.19966 0.0
O127 O 1.00036 0.64458 0.06003 0.0
O128 O 0.99675 0.62728 0.19717 0.0
O129 O 0.01609 0.92051 0.06181 0.0
O130 O 0.09429 0.79018 1.00821 0.0
O131 O 0.94404 0.77614 0.2833 0.0
O132 O 0.10087 0.79446 0.25238 0.0
O133 O 0.89942 0.77554 0.02029 0.0
C134 C 1.00028 0.65859 0.01597 0.0
O135 O 0.12095 0.85005 0.10521 0.0
O136 O 0.12901 0.69032 0.11042 0.0
C137 C 0.02116 0.91921 0.24429 0.0
C138 C 1.01054 0.63287 0.24037 0.0
C139 C 1.00335 0.89873 0.02336 0.0
C140 C 0.89697 0.90686 0.16226 0.0
C141 C 0.11116 0.6516 0.12808 0.0
C142 C 0.88824 0.67307 0.1402 0.0
C143 C 0.12932 0.88345 0.13482 0.0
C144 C 0.13247 0.76198 0.24559 0.0
C145 C 0.85647 0.78387 0.04289 0.0
C146 C 0.89894 0.78001 0.27235 0.0
C147 C 0.14106 0.78845 0.02502 0.0
O148 O 0.89553 0.70966 0.11379 0.0
O149 O 0.87669 0.86527 0.15974 0.0
O150 O 0.25815 1.00616 0.1689 0.0
O151 O 0.33044 0.06415 0.21446 0.0
O152 O 0.33637 0.97019 0.31522 0.0
O153 O 0.33377 0.96828 0.21753 0.0
O154 O 0.33367 0.06414 0.31231 0.0
Zr155 Zr 0.2825 0.01433 0.26551 0.0
Zr156 Zr 0.37855 0.11436 0.26097 0.0
Zr157 Zr 0.38456 0.01651 0.17016 0.0
O158 O 0.43532 0.06882 0.30837 0.0
O159 O 0.43477 0.96725 0.21557 0.0
O160 O 0.43177 0.06639 0.21657 0.0
Zr161 Zr 0.38993 0.02071 0.35989 0.0
Zr162 Zr 0.38351 0.92223 0.26671 0.0
Zr163 Zr 0.48485 0.0174 0.26165 0.0
O164 O 0.43646 0.97038 0.3117 0.0
O165 O 0.52766 0.02227 0.33536 0.0
O166 O 0.52303 0.01308 0.18546 0.0
O167 O 0.26332 0.01223 0.36414 0.0
O168 O 0.3845 0.94913 0.40909 0.0
O169 O 0.39987 0.08718 0.12383 0.0
O170 O 0.35571 0.93657 0.15466 0.0
O171 O 0.35749 0.10096 0.36654 0.0
O172 O 0.44282 0.16688 0.25548 0.0
O173 O 0.30804 0.87891 0.26988 0.0
O174 O 0.4406 0.86486 0.27484 0.0
O175 O 0.29963 0.15405 0.26513 0.0
O176 O 0.47104 0.02586 0.39553 0.0
O177 O 0.32083 0.02151 0.11602 0.0
O178 O 0.46157 1.00757 0.12998 0.0
O179 O 0.3288 0.01945 0.41601 0.0
O180 O 0.25546 0.09343 0.24018 0.0
O181 O 0.50474 0.91733 0.26246 0.0
O182 O 0.50839 0.11473 0.25716 0.0
O183 O 0.24739 0.93586 0.26607 0.0
C184 C 0.27671 1.01142 0.12366 0.0
O185 O 0.39209 0.16158 0.33248 0.0
O186 O 0.39096 0.14548 0.18055 0.0
C187 C 0.51504 0.02484 0.37974 0.0
C188 C 0.50666 1.00894 0.14217 0.0
C189 C 0.28359 0.01536 0.40911 0.0
C190 C 0.3956 0.91316 0.38324 0.0
C191 C 0.4008 0.1312 0.13751 0.0
C192 C 0.38732 0.90376 0.15187 0.0
C193 C 0.3856 0.13666 0.37048 0.0
C194 C 0.48814 0.1598 0.2556 0.0
C195 C 0.26332 0.89201 0.26736 0.0
C196 C 0.48514 0.87186 0.26796 0.0
C197 C 0.26118 0.12833 0.26902 0.0
O198 O 0.40101 0.88366 0.19099 0.0
O199 O 0.42027 0.92281 0.34612 0.0
O200 O 0.16281 0.23938 0.99855 0.0
O201 O 0.21531 0.31499 0.05493 0.0
O202 O 0.30683 0.3151 0.95561 0.0
O203 O 0.20694 0.31291 0.96226 0.0
O204 O 0.31235 0.31757 0.04825 0.0
Zr205 Zr 0.2612 0.26363 1.00557 0.0
Zr206 Zr 0.26588 0.36536 0.09945 0.0
Zr207 Zr 0.16018 0.3649 0.01101 0.0
O208 O 0.30712 0.41885 0.04803 0.0
O209 O 0.20364 0.41149 0.95758 0.0
O210 O 0.21193 0.41486 0.05473 0.0
Zr211 Zr 0.3548 0.37214 0.99911 0.0
Zr212 Zr 0.25247 0.36021 0.91117 0.0
Zr213 Zr 0.25285 0.46505 0.99991 0.0
O214 O 0.30045 0.4165 0.95162 0.0
O215 O 0.32888 0.49857 0.02348 0.0
O216 O 0.1733 0.49116 0.97976 0.0
O217 O 0.36136 0.24511 1.00762 0.0
O218 O 0.40031 0.37107 0.92616 0.0
O219 O 0.12235 0.34306 0.08568 0.0
O220 O 0.13673 0.34276 0.93024 0.0
O221 O 0.39123 0.35549 0.0755 0.0
O222 O 0.26184 0.42684 0.15392 0.0
O223 O 0.26127 0.2842 0.87155 0.0
O224 O 0.25903 0.411 0.84915 0.0
O225 O 0.27333 0.29017 0.14436 0.0
O226 O 0.3868 0.45375 0.9891 0.0
O227 O 0.10788 0.3017 0.0108 0.0
O228 O 0.12411 0.44494 0.02427 0.0
O229 O 0.41118 0.31146 0.99791 0.0
O230 O 0.23985 0.24696 0.08767 0.0
O231 O 0.25118 0.47737 0.89721 0.0
O232 O 0.24732 0.48762 0.09799 0.0
O233 O 0.26012 0.22474 0.92948 0.0
C234 C 0.11669 0.25783 1.00186 0.0
O235 O 0.34372 0.39339 0.12779 0.0
O236 O 0.18186 0.38769 0.10745 0.0
C237 C 0.36634 0.49464 0.99763 0.0
C238 C 0.1393 0.48661 1.0098 0.0
C239 C 0.40606 0.26655 1.0047 0.0
C240 C 0.36897 0.38121 0.89426 0.0
C241 C 0.15079 0.35619 0.11902 0.0
C242 C 0.13706 0.3734 0.89612 0.0
C243 C 0.3857 0.38248 0.11176 0.0
C244 C 0.25221 0.47065 0.14418 0.0
C245 C 0.26015 0.23985 0.88545 0.0
C246 C 0.25364 0.45583 0.8526 0.0
C247 C 0.27191 0.25094 0.12015 0.0
O248 O 0.17571 0.37665 0.8713 0.0
O249 O 0.33045 0.4005 0.90988 0.0
O250 O 0.58227 0.36928 0.23875 0.0
O251 O 0.59118 0.46816 0.29563 0.0
O252 O 0.69136 0.47867 0.20001 0.0
O253 O 0.59038 0.4747 0.19841 0.0
O254 O 0.69178 0.47263 0.29405 0.0
Zr255 Zr 0.64331 0.42516 0.24373 0.0
Zr256 Zr 0.6402 0.51308 0.34645 0.0
Zr257 Zr 0.53948 0.51857 0.25048 0.0
O258 O 0.69162 0.56616 0.30323 0.0
O259 O 0.59028 0.57183 0.2064 0.0
O260 O 0.59097 0.56362 0.3007 0.0
Zr261 Zr 0.74279 0.52441 0.25006 0.0
Zr262 Zr 0.63942 0.52907 0.15387 0.0
Zr263 Zr 0.64209 0.61596 0.25779 0.0
O264 O 0.69081 0.57387 0.20465 0.0
O265 O 0.71856 0.65618 0.26825 0.0
O266 O 0.57647 0.66674 0.25898 0.0
O267 O 0.72199 0.38646 0.25208 0.0
O268 O 0.76408 0.52903 0.15151 0.0
O269 O 0.50438 0.5155 0.32836 0.0
O270 O 0.52489 0.55725 0.17348 0.0
O271 O 0.76112 0.52614 0.34957 0.0
O272 O 0.66132 0.58506 0.39116 0.0
O273 O 0.6673 0.45716 0.11287 0.0
O274 O 0.67358 0.60996 0.15187 0.0
O275 O 0.67039 0.4316 0.33949 0.0
O276 O 0.78027 0.60171 0.25842 0.0
O277 O 0.51609 0.42023 0.2438 0.0
O278 O 0.51221 0.61321 0.26236 0.0
O279 O 0.77237 0.44575 0.23068 0.0
O280 O 0.62868 0.373 0.31136 0.0
O281 O 0.63783 0.66879 0.18894 0.0
O282 O 0.61825 0.62709 0.34014 0.0
O283 O 0.61922 0.42098 0.16111 0.0
C284 C 0.53688 0.37528 0.24031 0.0
O285 O 0.70421 0.48472 0.39192 0.0
O286 O 0.56307 0.50977 0.38746 0.0
C287 C 0.76356 0.64444 0.26695 0.0
C288 C 0.53166 0.65834 0.26325 0.0
C289 C 0.76257 0.40872 0.25619 0.0
C290 C 0.74413 0.53272 0.10614 0.0
C291 C 0.51875 0.51303 0.37255 0.0
C292 C 0.52409 0.53365 0.13459 0.0
C293 C 0.74233 0.50954 0.39207 0.0
C294 C 0.65041 0.62612 0.37286 0.0
C295 C 0.65411 0.41786 0.13239 0.0
C296 C 0.64923 0.64892 0.1493 0.0
C297 C 0.64363 0.39562 0.34798 0.0
O298 O 0.56318 0.53101 0.11006 0.0
O299 O 0.69914 0.53629 0.09849 0.0
O300 O 0.82007 0.0674 0.89224 0.0
O301 O 0.82028 0.08861 0.98755 0.0
O302 O 0.72943 0.18604 0.95618 0.0
O303 O 0.73368 0.08722 0.96142 0.0
O304 O 0.82537 0.18744 0.98443 0.0
Zr305 Zr 0.79157 0.13929 0.9269 0.0
Zr306 Zr 0.85839 0.13565 0.04399 0.0
Zr307 Zr 0.76374 0.03554 0.02179 0.0
O308 O 0.80203 0.19135 0.07368 0.0
O309 O 0.70753 0.08917 0.05465 0.0
O310 O 0.79952 0.08718 0.07981 0.0
Zr311 Zr 0.76369 0.23805 0.01296 0.0
Zr312 Zr 0.67328 0.13435 0.99241 0.0
Zr313 Zr 0.74377 0.14404 0.10903 0.0
O314 O 0.70559 0.18875 0.04891 0.0
O315 O 0.75117 0.22217 0.14599 0.0
O316 O 0.73304 0.08392 0.16486 0.0
O317 O 0.78317 0.21684 0.88498 0.0
O318 O 0.66538 0.25474 0.01112 0.0
O319 O 0.84585 0.01256 0.9998 0.0
O320 O 0.68433 1.00047 0.01369 0.0
O321 O 0.86063 0.25315 1.00268 0.0
O322 O 0.87745 0.12205 0.1272 0.0
O323 O 0.65838 0.11419 0.90909 0.0
O324 O 0.63399 0.1687 0.06196 0.0
O325 O 0.91859 0.14438 0.98392 0.0
O326 O 0.76732 0.27921 0.08807 0.0
O327 O 0.76361 0.01825 0.92376 0.0
O328 O 0.75525 0.01754 0.12147 0.0
O329 O 0.75956 0.27609 0.93705 0.0
O330 O 0.87808 0.14968 0.91223 0.0
O331 O 0.6601 0.14657 0.13346 0.0
O332 O 0.80762 0.13483 0.16793 0.0
O333 O 0.7298 0.12209 0.86891 0.0
C334 C 0.78946 0.03422 0.88541 0.0
O335 O 0.89022 0.21211 0.06495 0.0
O336 O 0.90226 0.0614 0.02628 0.0
C337 C 0.76192 0.26524 0.13215 0.0
C338 C 0.74349 0.03959 0.16393 0.0
C339 C 0.77017 0.26069 0.89486 0.0
C340 C 0.62744 0.23689 0.98597 0.0
C341 C 0.87996 0.02095 0.02966 0.0
C342 C 0.64064 0.01623 1.00687 0.0
C343 C 0.89904 0.23883 0.02901 0.0
C344 C 0.85317 0.12551 0.16633 0.0
C345 C 0.68411 0.11367 0.87042 0.0
C346 C 0.62747 0.14495 0.10064 0.0
C347 C 0.9174 0.14846 0.93797 0.0
O348 O 0.62842 0.06064 0.99996 0.0
O349 O 0.63563 0.20234 0.95763 0.0
O350 O 0.26719 0.57764 0.35045 0.0
O351 O 0.31541 0.5847 0.45065 0.0
O352 O 0.22128 0.68934 0.45002 0.0
O353 O 0.22209 0.58633 0.4458 0.0
O354 O 0.31999 0.68568 0.45536 0.0
Zr355 Zr 0.27059 0.64141 0.40386 0.0
Zr356 Zr 0.3653 0.62972 0.50126 0.0
Zr357 Zr 0.26521 0.53165 0.49557 0.0
O358 O 0.31796 0.68134 0.5501 0.0
O359 O 0.21776 0.58322 0.54257 0.0
O360 O 0.3133 0.58035 0.54645 0.0
Zr361 Zr 0.27074 0.73456 0.50323 0.0
Zr362 Zr 0.17345 0.63409 0.49282 0.0
Zr363 Zr 0.2659 0.63243 0.59263 0.0
O364 O 0.21876 0.68304 0.54489 0.0
O365 O 0.27064 0.70776 0.6349 0.0
O366 O 0.26897 0.56966 0.6454 0.0
O367 O 0.27041 0.72222 0.36928 0.0
O368 O 0.17322 0.7577 0.50992 0.0
O369 O 0.34459 0.50105 0.47473 0.0
O370 O 0.18729 0.49594 0.49896 0.0
O371 O 0.36969 0.75522 0.50521 0.0
O372 O 0.4057 0.64204 0.57751 0.0
O373 O 0.13198 0.62611 0.41711 0.0
O374 O 0.1545 0.65919 0.57333 0.0
O375 O 0.37059 0.66879 0.42338 0.0
O376 O 0.27148 0.77065 0.5806 0.0
O377 O 0.25933 0.51016 0.39889 0.0
O378 O 0.25635 0.50657 0.59328 0.0
O379 O 0.26413 0.77781 0.42994 0.0
O380 O 0.34388 0.6375 0.35792 0.0
O381 O 0.18934 0.61994 0.6322 0.0
O382 O 0.3461 0.60195 0.60769 0.0
O383 O 0.1943 0.63427 0.36472 0.0
C384 C 0.26247 0.53228 0.35508 0.0
O385 O 0.42208 0.68958 0.50245 0.0
O386 O 0.40407 0.55199 0.48951 0.0
C387 C 0.26975 0.7529 0.62352 0.0
C388 C 0.25955 0.52562 0.63864 0.0
C389 C 0.26775 0.76575 0.38549 0.0
C390 C 0.1281 0.74095 0.49871 0.0
C391 C 0.38111 0.5132 0.5003 0.0
C392 C 0.14416 0.51328 0.50291 0.0
C393 C 0.41498 0.7348 0.50455 0.0
C394 C 0.38039 0.63143 0.6142 0.0
C395 C 0.14957 0.62715 0.37445 0.0
C396 C 0.15134 0.62836 0.60709 0.0
C397 C 0.37964 0.64481 0.38581 0.0
O398 O 0.13272 0.55817 0.50115 0.0
O399 O 0.12124 0.69898 0.48197 0.0
O400 O 0.76821 0.51774 0.65425 0.0
O401 O 0.83769 0.56074 0.704 0.0
O402 O 0.83885 0.46563 0.80586 0.0
O403 O 0.83939 0.46425 0.70825 0.0
O404 O 0.84045 0.55856 0.80241 0.0
Zr405 Zr 0.78875 0.513 0.75356 0.0
Zr406 Zr 0.88692 0.607 0.75326 0.0
Zr407 Zr 0.88986 0.51042 0.65889 0.0
O408 O 0.94173 0.56179 0.80161 0.0
O409 O 0.93868 0.46295 0.70815 0.0
O410 O 0.93863 0.56029 0.7058 0.0
Zr411 Zr 0.89409 0.51381 0.85078 0.0
Zr412 Zr 0.88745 0.41698 0.75915 0.0
Zr413 Zr 0.99055 0.51256 0.75336 0.0
O414 O 0.94174 0.46428 0.8031 0.0
O415 O 0.02982 0.51754 0.83027 0.0
O416 O 0.0264 0.50673 0.67628 0.0
O417 O 0.76653 0.52395 0.84939 0.0
O418 O 0.88687 0.44184 0.89931 0.0
O419 O 0.86604 0.5842 0.61683 0.0
O420 O 0.85556 0.42986 0.66209 0.0
O421 O 0.86458 0.59556 0.85432 0.0
O422 O 0.94663 0.66187 0.75242 0.0
O423 O 0.81066 0.37902 0.77296 0.0
O424 O 0.94865 0.36162 0.7566 0.0
O425 O 0.80939 0.64504 0.76526 0.0
O426 O 0.9724 0.52171 0.88971 0.0
O427 O 0.82973 0.48978 0.6067 0.0
O428 O 0.96687 0.50547 0.61794 0.0
O429 O 0.83115 0.52161 0.90338 0.0
O430 O 0.74967 0.58925 0.75226 0.0
O431 O 0.01384 0.41406 0.75565 0.0
O432 O 1.01239 0.61103 0.74437 0.0
O433 O 0.7508 0.43559 0.76147 0.0
C434 C 0.78754 0.50682 0.61016 0.0
O435 O 0.90521 0.65404 0.8232 0.0
O436 O 0.9084 0.62157 0.67035 0.0
C437 C 0.01654 0.51984 0.87477 0.0
C438 C 1.01145 0.50485 0.63229 0.0
C439 C 0.78627 0.52625 0.8944 0.0
C440 C 0.89612 0.40416 0.87498 0.0
C441 C 0.87485 0.62336 0.63916 0.0
C442 C 0.8799 0.39205 0.65344 0.0
C443 C 0.89368 0.63015 0.86047 0.0
C444 C 0.99121 0.65589 0.74532 0.0
C445 C 0.7661 0.3922 0.77021 0.0
C446 C 0.99381 0.36872 0.75674 0.0
C447 C 0.76496 0.63207 0.76158 0.0
O448 O 0.88921 0.36561 0.68984 0.0
O449 O 0.92287 0.41012 0.83858 0.0
O450 O 0.67438 0.76439 0.51118 0.0
O451 O 0.71698 0.83839 0.56638 0.0
O452 O 0.82303 0.84285 0.47937 0.0
O453 O 0.72415 0.84271 0.47112 0.0
O454 O 0.81358 0.83841 0.57484 0.0
Zr455 Zr 0.77036 0.79105 0.51977 0.0
Zr456 Zr 0.76074 0.88557 0.62035 0.0
Zr457 Zr 0.67271 0.89245 0.51649 0.0
O458 O 0.81316 0.94003 0.57971 0.0
O459 O 0.72417 0.94144 0.4721 0.0
O460 O 0.71728 0.93927 0.57032 0.0
Zr461 Zr 0.86551 0.89185 0.53586 0.0
Zr462 Zr 0.77753 0.89127 0.42804 0.0
Zr463 Zr 0.76803 0.99036 0.52557 0.0
O464 O 0.82004 0.94015 0.4826 0.0
O465 O 0.84584 0.02712 0.52709 0.0
O466 O 0.69099 0.0289 0.51974 0.0
O467 O 0.86818 0.76769 0.51611 0.0
O468 O 0.91929 0.88128 0.4691 0.0
O469 O 0.62231 0.88182 0.58673 0.0
O470 O 0.66562 0.8684 0.43364 0.0
O471 O 0.859 0.85016 0.61307 0.0
O472 O 0.76423 0.9495 0.67396 0.0
O473 O 0.78046 0.81389 0.38625 0.0
O474 O 0.80072 0.95651 0.38184 0.0
O475 O 0.75116 0.80601 0.65588 0.0
O476 O 0.90414 0.97025 0.54559 0.0
O477 O 0.61999 0.82805 0.51175 0.0
O478 O 0.6334 0.97018 0.50888 0.0
O479 O 0.92118 0.82965 0.53434 0.0
O480 O 0.76318 0.75195 0.59472 0.0
O481 O 0.75866 1.01042 0.42662 0.0
O482 O 0.7679 0.01503 0.6221 0.0
O483 O 0.77649 0.75402 0.44389 0.0
C484 C 0.6287 0.78312 0.50936 0.0
O485 O 0.8274 0.88166 0.67618 0.0
O486 O 0.68 0.91812 0.62457 0.0
C487 C 0.88978 0.01381 0.53601 0.0
C488 C 0.64718 0.01445 0.51238 0.0
C489 C 0.91367 0.78606 0.52259 0.0
C490 C 0.89584 0.8947 0.4321 0.0
C491 C 0.64457 0.8894 0.62634 0.0
C492 C 0.66453 0.90081 0.40128 0.0
C493 C 0.86558 0.87086 0.65325 0.0
C494 C 0.76664 0.99487 0.66706 0.0
C495 C 0.77876 0.76912 0.40014 0.0
C496 C 0.77417 0.99359 0.38309 0.0
C497 C 0.75427 0.76302 0.63871 0.0
O498 O 0.70497 0.9129 0.38268 0.0
O499 O 0.85905 0.92077 0.43995 0.0
O500 O 0.05301 0.88139 0.79474 0.0
O501 O 0.07431 0.96151 0.80511 0.0
O502 O 0.17708 0.95513 0.71588 0.0
O503 O 0.07537 0.9548 0.71258 0.0
O504 O 0.17363 0.95977 0.81201 0.0
Zr505 Zr 0.12718 0.90902 0.7642 0.0
Zr506 Zr 0.12014 1.00602 0.85788 0.0
Zr507 Zr 0.02277 1.0089 0.75422 0.0
O508 O 0.17412 0.05367 0.81048 0.0
O509 O 0.0771 0.05318 0.70647 0.0
O510 O 0.07343 0.05482 0.80526 0.0
Zr511 Zr 0.22631 1.00464 0.76484 0.0
Zr512 Zr 0.12656 1.00055 0.66354 0.0
Zr513 Zr 0.12739 0.09936 0.75739 0.0
O514 O 0.17606 0.04833 0.71269 0.0
O515 O 0.20269 0.14084 0.7594 0.0
O516 O 0.06953 0.15777 0.7505 0.0
O517 O 0.20412 0.86847 0.75586 0.0
O518 O 0.25329 1.0063 0.66812 0.0
O519 O 0.98055 0.98414 0.82663 0.0
O520 O 0.0151 0.03922 0.67281 0.0
O521 O 0.24667 1.00542 0.86431 0.0
O522 O 0.12095 0.08239 0.89998 0.0
O523 O 0.13857 0.9227 0.62771 0.0
O524 O 0.16395 0.07942 0.65761 0.0
O525 O 0.16428 0.92994 0.86678 0.0
O526 O 0.26187 0.08254 0.75982 0.0
O527 O 1.00452 0.91355 0.73922 0.0
O528 O 1.00277 0.10801 0.75605 0.0
O529 O 0.26299 0.92693 0.76046 0.0
O530 O 0.13775 0.86288 0.83733 0.0
O531 O 0.12954 0.14425 0.68312 0.0
O532 O 0.09013 0.11211 0.83476 0.0
O533 O 0.10073 0.88344 0.68572 0.0
C534 C 0.0222 0.87429 0.76211 0.0
O535 O 0.18039 1.00569 0.91561 0.0
O536 O 0.04053 0.97346 0.87863 0.0
C537 C 0.24667 0.12652 0.75746 0.0
C538 C 0.02432 0.15246 0.75384 0.0
C539 C 0.24852 0.88289 0.75593 0.0
C540 C 0.23565 1.00189 0.62211 0.0
C541 C 1.00132 0.99554 0.86641 0.0
C542 C 0.01413 0.01211 0.63618 0.0
C543 C 0.22599 1.00542 0.90935 0.0
C544 C 0.11635 0.11857 0.87164 0.0
C545 C 0.13015 0.88353 0.6507 0.0
C546 C 0.13912 0.11676 0.64789 0.0
C547 C 0.14562 0.88854 0.87426 0.0
O548 O 0.05391 1.00331 0.61462 0.0
O549 O 0.19118 0.99588 0.61265 0.0
O550 O 0.53232 0.19174 0.4924 0.0
O551 O 0.56957 0.21242 0.58731 0.0
O552 O 0.48404 0.32235 0.57895 0.0
O553 O 0.46996 0.2272 0.57858 0.0
O554 O 0.58103 0.30569 0.58923 0.0
Zr555 Zr 0.53032 0.26606 0.53455 0.0
Zr556 Zr 0.61816 0.25381 0.64517 0.0
Zr557 Zr 0.50923 0.1715 0.6274 0.0
O558 O 0.57012 0.30548 0.69017 0.0
O559 O 0.46271 0.22287 0.67647 0.0
O560 O 0.55817 0.20928 0.68527 0.0
Zr561 Zr 0.53511 0.35982 0.63312 0.0
Zr562 Zr 0.42778 0.28205 0.62778 0.0
Zr563 Zr 0.51152 0.26003 0.73404 0.0
O564 O 0.47935 0.31846 0.68106 0.0
O565 O 0.50327 0.35527 0.75927 0.0
O566 O 0.50979 0.15915 0.7496 0.0
O567 O 0.52904 0.34248 0.49697 0.0
O568 O 0.46493 0.40892 0.63784 0.0
O569 O 0.58559 0.1552 0.66767 0.0
O570 O 0.42661 0.1448 0.63676 0.0
O571 O 0.61102 0.40065 0.6391 0.0
O572 O 0.64327 0.27199 0.72722 0.0
O573 O 0.39235 0.31103 0.55718 0.0
O574 O 0.37636 0.27755 0.69603 0.0
O575 O 0.67675 0.25124 0.58632 0.0
O576 O 0.53197 0.40786 0.70123 0.0
O577 O 0.51771 0.13364 0.54964 0.0
O578 O 0.50262 0.11039 0.68228 0.0
O579 O 0.54491 0.39864 0.55544 0.0
O580 O 0.62917 0.26477 0.51847 0.0
O581 O 0.4286 0.26342 0.75942 0.0
O582 O 0.58387 0.27335 0.7804 0.0
O583 O 0.43355 0.25915 0.51031 0.0
C584 C 0.52426 0.14789 0.50581 0.0
O585 O 0.63535 0.33268 0.61101 0.0
O586 O 0.65598 0.17563 0.64222 0.0
C587 C 0.51384 0.40018 0.74248 0.0
C588 C 0.50667 0.11477 0.72752 0.0
C589 C 0.53831 0.38542 0.51153 0.0
C590 C 0.4195 0.4036 0.64477 0.0
C591 C 0.62346 0.14336 0.64497 0.0
C592 C 0.38889 0.17121 0.63051 0.0
C593 C 0.64447 0.36938 0.63664 0.0
C594 C 0.6227 0.25414 0.76451 0.0
C595 C 0.39176 0.28118 0.52309 0.0
C596 C 0.38618 0.27101 0.74076 0.0
C597 C 0.67275 0.2587 0.54119 0.0
O598 O 0.38985 0.20815 0.60301 0.0
O599 O 0.39771 0.36249 0.64444 0.0
C600 C 0.19231 0.34008 0.19565 0.0
C601 C 0.16546 0.32183 0.15654 0.0
C602 C 0.20711 0.30999 0.23326 0.0
C603 C 0.18864 0.26313 0.23496 0.0
H604 H 0.20044 0.37784 0.19808 0.0
H605 H 0.22214 0.3265 0.2654 0.0
S606 S 0.14985 0.19106 0.13195 0.0
N607 N 0.14278 0.24789 0.1137 0.0
N608 N 0.17199 0.19298 0.18709 0.0
C609 C 0.1764 0.24152 0.19168 0.0
C610 C 0.16027 0.27125 0.15291 0.0
C611 C 0.61301 0.62031 0.07237 0.0
C612 C 0.61665 0.65612 0.10791 0.0
C613 C 0.5742 0.61947 0.04021 0.0
C614 C 0.53814 0.65515 0.04173 0.0
H615 H 0.63859 0.59104 0.0707 0.0
H616 H 0.57191 0.58981 0.01493 0.0
S617 S 0.54192 0.76655 0.1162 0.0
N618 N 0.58901 0.73464 0.13459 0.0
N619 N 0.51444 0.73333 0.07517 0.0
C620 C 0.54416 0.69412 0.07398 0.0
C621 C 0.5842 0.69491 0.10636 0.0
C622 C 0.9354 0.20154 0.22325 0.0
C623 C 0.90484 0.22015 0.25894 0.0
C624 C 0.92611 0.1571 0.20251 0.0
C625 C 0.8813 0.13473 0.21044 0.0
H626 H 0.96532 0.2224 0.20896 0.0
H627 H 0.94869 0.14677 0.17259 0.0
S628 S 0.79953 0.15765 0.31282 0.0
N629 N 0.83747 0.20366 0.31293 0.0
N630 N 0.81685 0.12218 0.26838 0.0
C631 C 0.85619 0.14686 0.2525 0.0
C632 C 0.86728 0.19079 0.27639 0.0
C633 C 0.40777 0.93177 0.06979 0.0
C634 C 0.42321 0.91065 0.11363 0.0
C635 C 0.44048 0.9404 0.03264 0.0
C636 C 0.48833 0.92389 0.03715 0.0
H637 H 0.36996 0.94026 0.06352 0.0
H638 H 0.42614 0.95131 0.99772 0.0
S639 S 0.55143 0.88738 0.14934 0.0
N640 N 0.49355 0.89002 0.16366 0.0
N641 N 0.5537 0.90285 0.09188 0.0
C642 C 0.50612 0.91244 0.08304 0.0
C643 C 0.47333 0.90382 0.12114 0.0
C644 C 0.08783 0.67676 0.34162 0.0
C645 C 0.11726 0.63641 0.33383 0.0
C646 C 0.09417 0.7178 0.31315 0.0
C647 C 0.12441 0.7168 0.27225 0.0
H648 H 0.06825 0.68066 0.37518 0.0
H649 H 0.07621 0.75075 0.3243 0.0
S650 S 0.19212 0.61074 0.22713 0.0
N651 N 0.16475 0.59116 0.27631 0.0
N652 N 0.17487 0.66748 0.22011 0.0
C653 C 0.14495 0.67253 0.2585 0.0
C654 C 0.13876 0.63111 0.28831 0.0
C655 C 0.94164 0.60463 0.98413 0.0
C656 C 0.98892 0.62246 0.98066 0.0
C657 C 0.91122 0.60697 0.94412 0.0
C658 C 0.92839 0.6246 0.89982 0.0
H659 H 0.92559 0.59751 0.01907 0.0
H660 H 0.87342 0.59813 0.94874 0.0
S661 S 0.05706 0.64801 0.87038 0.0
N662 N 0.05693 0.63859 0.92905 0.0
N663 N 1.00019 0.643 0.85211 0.0
C664 C 0.97842 0.63234 0.89451 0.0
C665 C 1.00913 0.62923 0.93542 0.0
C666 C 0.87956 0.7831 0.35672 0.0
C667 C 0.87324 0.80351 0.31069 0.0
C668 C 0.88856 0.81253 0.39639 0.0
C669 C 0.89213 0.86286 0.3909 0.0
H670 H 0.88216 0.74418 0.36116 0.0
H671 H 0.89272 0.79559 0.43106 0.0
S672 S 0.88082 0.93298 0.27849 0.0
N673 N 0.86875 0.87693 0.2627 0.0
N674 N 0.8899 0.93152 0.33712 0.0
C675 C 0.88372 0.88356 0.34587 0.0
C676 C 0.87199 0.85408 0.30602 0.0
C677 C 0.12023 0.9132 0.95559 0.0
C678 C 0.11316 0.88318 0.91558 0.0
C679 C 0.084 0.91922 0.98965 0.0
C680 C 0.03983 0.89433 0.98546 0.0
H681 H 0.15359 0.93308 0.96011 0.0
H682 H 0.09089 0.94355 0.01939 0.0
S683 S 1.00813 0.80228 0.89334 0.0
N684 N 0.06275 0.82113 0.8788 0.0
N685 N 0.99321 0.83398 0.94116 0.0
C686 C 0.0336 0.86153 0.94729 0.0
C687 C 0.07098 0.85492 0.91318 0.0
C688 C 0.23934 0.14272 0.4027 0.0
C689 C 0.19423 0.11941 0.40668 0.0
C690 C 0.26011 0.14735 0.35708 0.0
C691 C 0.24176 0.12074 0.31787 0.0
H692 H 0.25083 0.16773 0.43043 0.0
H693 H 0.28903 0.17329 0.3523 0.0
S694 S 0.15039 0.02223 0.32772 0.0
N695 N 0.15055 0.04823 0.38105 0.0
N696 N 0.18988 0.05263 0.29484 0.0
C697 C 0.20583 0.08559 0.32739 0.0
C698 C 0.18491 0.08262 0.37388 0.0
C699 C 0.42326 0.58063 0.91056 0.0
C700 C 0.38272 0.60577 0.89236 0.0
C701 C 0.41803 0.54397 0.94463 0.0
C702 C 0.37206 0.53253 0.96175 0.0
H703 H 0.45931 0.59062 0.90078 0.0
H704 H 0.44999 0.52593 0.95893 0.0
S705 S 0.25441 0.57823 0.9135 0.0
N706 N 0.29576 0.60881 0.8838 0.0
N707 N 0.28469 0.54437 0.95262 0.0
C708 C 0.33102 0.55541 0.9411 0.0
C709 C 0.33665 0.59071 0.9048 0.0
C710 C 0.82361 0.43889 0.31392 0.0
C711 C 0.79033 0.40269 0.30071 0.0
C712 C 0.85495 0.43212 0.35253 0.0
C713 C 0.85529 0.3882 0.37775 0.0
H714 H 0.82724 0.47199 0.29314 0.0
H715 H 0.88223 0.45936 0.35947 0.0
S716 S 0.76532 0.28885 0.36707 0.0
N717 N 0.75147 0.3269 0.32304 0.0
N718 N 0.81192 0.31323 0.39534 0.0
C719 C 0.8175 0.3549 0.36975 0.0
C720 C 0.78497 0.3621 0.33064 0.0
C721 C 0.62059 0.89863 0.96653 0.0
C722 C 0.60425 0.91127 0.92007 0.0
C723 C 0.61829 0.93185 1.00389 0.0
C724 C 0.6049 0.97968 0.99388 0.0
H725 H 0.63717 0.86394 0.97352 0.0
H726 H 0.63557 0.92316 0.0379 0.0
S727 S 0.53427 0.02181 0.88798 0.0
N728 N 0.55465 0.96774 0.87311 0.0
N729 N 0.55398 0.03124 0.94342 0.0
C730 C 0.57754 0.98881 0.95216 0.0
C731 C 0.57848 0.95487 0.91414 0.0
C732 C 0.14888 0.8792 0.22253 0.0
C733 C 0.16267 0.87147 0.17448 0.0
C734 C 0.18034 0.86865 0.2606 0.0
C735 C 0.22851 0.85651 0.25066 0.0
H736 H 0.11353 0.89291 0.23114 0.0
H737 H 0.17019 0.87995 0.29654 0.0
S738 S 0.27655 0.81318 0.13459 0.0
N739 N 0.2225 0.83555 0.12133 0.0
N740 N 0.28279 0.81862 0.19355 0.0
C741 C 0.23918 0.83838 0.20486 0.0
C742 C 0.20691 0.84798 0.16591 0.0
C743 C 0.08731 0.53619 0.06244 0.0
C744 C 0.13218 0.52824 0.04083 0.0
C745 C 0.08119 0.57533 0.09315 0.0
C746 C 0.12007 0.60665 0.10346 0.0
H747 H 0.05684 0.51266 0.05496 0.0
H748 H 0.04574 0.58128 0.10855 0.0
S749 S 0.24725 0.59439 0.06589 0.0
N750 N 0.21743 0.55253 0.03568 0.0
N751 N 0.20586 0.62256 0.09782 0.0
C752 C 0.16565 0.59709 0.08513 0.0
C753 C 0.17168 0.55882 0.05239 0.0
C754 C 0.84629 0.67025 0.26897 0.0
C755 C 0.79788 0.68404 0.26173 0.0
C756 C 0.87591 0.66554 0.22877 0.0
C757 C 0.85951 0.68155 0.18316 0.0
H758 H 0.85695 0.65186 0.30202 0.0
H759 H 0.91033 0.64739 0.23318 0.0
S760 S 0.74753 0.75202 0.1582 0.0
N761 N 0.74425 0.73686 0.21578 0.0
N762 N 0.79918 0.72909 0.13894 0.0
C763 C 0.81647 0.70864 0.18027 0.0
C764 C 0.78708 0.71305 0.22159 0.0
C765 C 0.83351 0.96912 0.08569 0.0
C766 C 0.87089 1.00302 0.0782 0.0
C767 C 0.82867 0.94614 0.13007 0.0
C768 C 0.86646 0.95022 0.16314 0.0
H769 H 0.80895 0.95883 0.05699 0.0
H770 H 0.80294 0.91687 0.13341 0.0
S771 S 0.96126 0.04223 0.16867 0.0
N772 N 0.93898 0.04621 0.1136 0.0
N773 N 0.92584 1.00409 0.19774 0.0
C774 C 0.89301 0.99351 0.16273 0.0
C775 C 0.90015 0.01629 0.11742 0.0
C776 C 0.31701 0.18675 0.07786 0.0
C777 C 0.31762 0.22692 0.10906 0.0
C778 C 0.35915 0.16031 0.06977 0.0
C779 C 0.39888 0.16847 0.10013 0.0
H780 H 0.28389 0.17481 0.06076 0.0
H781 H 0.35614 0.12685 0.04978 0.0
S782 S 0.4263 0.27962 0.16643 0.0
N783 N 0.36788 0.28294 0.15452 0.0
N784 N 0.44609 0.23026 0.13967 0.0
C785 C 0.40463 0.21531 0.11803 0.0
C786 C 0.36242 0.24319 0.12663 0.0
C787 C 0.27578 0.85076 0.36854 0.0
C788 C 0.29028 0.80349 0.35721 0.0
C789 C 0.31035 0.88595 0.37854 0.0
C790 C 0.35993 0.87507 0.37695 0.0
H791 H 0.23798 0.85874 0.37547 0.0
H792 H 0.29826 0.92175 0.38746 0.0
S793 S 0.41523 0.75942 0.33991 0.0
N794 N 0.35649 0.75067 0.33435 0.0
N795 N 0.42164 0.81556 0.35869 0.0
C796 C 0.37451 0.82961 0.36069 0.0
C797 C 0.33938 0.7947 0.3477 0.0
C798 C 0.10118 0.50554 0.89176 0.0
C799 C 0.05358 0.50347 0.90923 0.0
C800 C 0.127 0.4627 0.88542 0.0
C801 C 0.10971 0.4185 0.90395 0.0
H802 H 0.11355 0.53759 0.8728 0.0
H803 H 0.15958 0.4643 0.86432 0.0
S804 S 1.00009 0.40279 0.97941 0.0
N805 N 0.99883 0.46014 0.96246 0.0
N806 N 0.04963 0.37982 0.95546 0.0
C807 C 0.06777 0.41937 0.93257 0.0
C808 C 0.04055 0.46281 0.93674 0.0
C809 C 0.73696 0.65058 0.38345 0.0
C810 C 0.68926 0.66252 0.36946 0.0
C811 C 0.77422 0.68442 0.37955 0.0
C812 C 0.76375 0.73245 0.36583 0.0
H813 H 0.74558 0.61549 0.39867 0.0
H814 H 0.8091 0.67558 0.39556 0.0
S815 S 0.65091 0.77682 0.30884 0.0
N816 N 0.63788 0.72184 0.32832 0.0
N817 N 0.70836 0.78542 0.3228 0.0
C818 C 0.71932 0.742 0.34347 0.0
C819 C 0.68118 0.70784 0.34713 0.0
C820 C 0.40175 0.55801 0.38364 0.0
C821 C 0.41506 0.60623 0.39197 0.0
C822 C 0.43448 0.52062 0.39267 0.0
C823 C 0.48269 0.53118 0.4057 0.0
H824 H 0.36616 0.54899 0.36991 0.0
H825 H 0.42453 0.48475 0.38093 0.0
S826 S 0.53128 0.64952 0.44316 0.0
N827 N 0.47617 0.66137 0.42271 0.0
N828 N 0.53763 0.59031 0.43992 0.0
C829 C 0.49333 0.57769 0.42238 0.0
C830 C 0.46031 0.61597 0.41297 0.0
C831 C 0.21814 0.86631 0.64995 0.0
C832 C 0.17027 0.84975 0.65464 0.0
C833 C 0.25682 0.83411 0.65206 0.0
C834 C 0.24801 0.78469 0.65848 0.0
H835 H 0.2258 0.90412 0.64423 0.0
H836 H 0.29253 0.84675 0.64195 0.0
S837 S 0.13163 0.725 0.68168 0.0
N838 N 0.11726 0.78214 0.67155 0.0
N839 N 0.19102 0.72253 0.68201 0.0
C840 C 0.20187 0.76965 0.67309 0.0
C841 C 0.16216 0.80164 0.66767 0.0
C842 C 0.09637 0.50384 0.61368 0.0
C843 C 0.04915 0.51334 0.59691 0.0
C844 C 0.12868 0.54207 0.61879 0.0
C845 C 0.11731 0.58819 0.60011 0.0
H846 H 0.10417 0.47047 0.633 0.0
H847 H 0.16169 0.53559 0.63889 0.0
S848 S 1.01237 0.61621 0.51961 0.0
N849 N 1.00131 0.56153 0.541 0.0
N850 N 0.06457 0.6325 0.54392 0.0
C851 C 0.07515 0.59305 0.57132 0.0
C852 C 0.04169 0.55441 0.56849 0.0
C853 C 0.93229 0.98757 0.65849 0.0
C854 C 0.97651 0.9755 0.63677 0.0
C855 C 0.8978 0.95248 0.66798 0.0
C856 C 0.90605 0.90433 0.65496 0.0
H857 H 0.92458 0.02454 0.66867 0.0
H858 H 0.86388 0.96359 0.68376 0.0
S859 S 0.01712 0.85353 0.60028 0.0
N860 N 0.02757 0.91203 0.60399 0.0
N861 N 0.96238 0.84536 0.62248 0.0
C862 C 0.95046 0.8915 0.63413 0.0
C863 C 0.98561 0.92736 0.62427 0.0
C864 C 0.63817 0.80166 0.64575 0.0
C865 C 0.65026 0.84866 0.66008 0.0
C866 C 0.64399 0.76267 0.67745 0.0
C867 C 0.65853 0.77075 0.72543 0.0
H868 H 0.62333 0.79533 0.61038 0.0
H869 H 0.6289 0.7281 0.66737 0.0
S870 S 0.71383 0.8815 0.77361 0.0
N871 N 0.69068 0.89753 0.72081 0.0
N872 N 0.70361 0.82311 0.77887 0.0
C873 C 0.68101 0.81451 0.73608 0.0
C874 C 0.67389 0.85459 0.70476 0.0
C875 C 0.01617 0.11596 0.5897 0.0
C876 C 0.02846 0.10309 0.5426 0.0
C877 C 0.05312 0.12243 0.62326 0.0
C878 C 0.1011 0.11006 0.61212 0.0
H879 H 0.9808 0.13112 0.59731 0.0
H880 H 0.04405 0.13655 0.65809 0.0
S881 S 0.14153 0.04518 0.50301 0.0
N882 N 0.08341 0.05598 0.49363 0.0
N883 N 0.15444 0.06866 0.55615 0.0
C884 C 0.11021 0.08549 0.569 0.0
C885 C 0.07211 0.07862 0.53547 0.0
C886 C 0.3682 0.7552 0.66955 0.0
C887 C 0.35423 0.74341 0.71679 0.0
C888 C 0.3776 0.71862 0.63652 0.0
C889 C 0.37128 0.66971 0.64925 0.0
H890 H 0.37876 0.7919 0.66056 0.0
H891 H 0.38952 0.72894 0.60101 0.0
S892 S 0.32163 0.6234 0.76418 0.0
N893 N 0.32158 0.6825 0.77032 0.0
N894 N 0.34223 0.61277 0.70948 0.0
C895 C 0.35019 0.65867 0.69386 0.0
C896 C 0.3388 0.69623 0.72654 0.0
C897 C 1.00284 0.4032 0.59794 0.0
C898 C 0.99142 0.41191 0.54946 0.0
C899 C 0.96618 0.39663 0.6313 0.0
C900 C 0.91741 0.39753 0.61733 0.0
H901 H 0.04005 0.39667 0.60904 0.0
H902 H 0.9762 0.39056 0.66815 0.0
S903 S 0.86906 0.42827 0.49674 0.0
N904 N 0.92839 0.43169 0.4909 0.0
N905 N 0.85925 0.41296 0.55337 0.0
C906 C 0.90553 0.41081 0.57014 0.0
C907 C 0.94283 0.42062 0.53656 0.0
C908 C 0.61025 0.13649 0.82872 0.0
C909 C 0.65796 0.11949 0.82451 0.0
C910 C 0.597 0.1792 0.80577 0.0
C911 C 0.62949 0.2028 0.77469 0.0
H912 H 0.58661 0.12252 0.85653 0.0
H913 H 0.56324 0.19596 0.81641 0.0
S914 S 0.74721 0.15547 0.73195 0.0
N915 N 0.72844 0.11581 0.77241 0.0
N916 N 0.70428 0.19695 0.72887 0.0
C917 C 0.67173 0.17858 0.7607 0.0
C918 C 0.68481 0.13491 0.78429 0.0
C919 C 0.51301 0.1329 0.42038 0.0
C920 C 0.50472 0.11707 0.46791 0.0
C921 C 0.47399 0.14073 0.38912 0.0
C922 C 0.42649 0.1298 0.40358 0.0
H923 H 0.54824 0.14681 0.41024 0.0
H924 H 0.48109 0.15638 0.35418 0.0
S925 S 0.39066 0.06753 0.51674 0.0
N926 N 0.44988 0.07383 0.52119 0.0
N927 N 0.37551 0.0922 0.46442 0.0
C928 C 0.41961 0.10599 0.44787 0.0
C929 C 0.45964 0.09642 0.47861 0.0
C930 C 0.34806 0.36836 0.80942 0.0
C931 C 0.36343 0.34922 0.85379 0.0
C932 C 0.34143 0.33808 0.77003 0.0
C933 C 0.35102 0.2884 0.77472 0.0
H934 H 0.34362 0.40697 0.80464 0.0
H935 H 0.33732 0.35467 0.73472 0.0
S936 S 0.37415 0.21973 0.88596 0.0
N937 N 0.37795 0.27686 0.90199 0.0
N938 N 0.35966 0.22062 0.82853 0.0
C939 C 0.35568 0.2687 0.82065 0.0
C940 C 0.36599 0.29909 0.85988 0.0
C941 C 0.63628 0.40877 0.43441 0.0
C942 C 0.61329 0.39943 0.39028 0.0
C943 C 0.60924 0.41671 0.47565 0.0
C944 C 0.55853 0.41458 0.47384 0.0
H945 H 0.67545 0.40758 0.43754 0.0
H946 H 0.62824 0.41689 0.51 0.0
S947 S 0.48092 0.39913 0.36662 0.0
N948 N 0.53685 0.39408 0.3463 0.0
N949 N 0.48614 0.41024 0.42471 0.0
C950 C 0.5352 0.41128 0.42921 0.0
C951 C 0.56254 0.4016 0.38735 0.0
C952 C 0.73826 0.67706 0.83097 0.0
C953 C 0.72899 0.66291 0.78322 0.0
C954 C 0.70174 0.67385 0.8654 0.0
C955 C 0.65544 0.65732 0.85238 0.0
H956 H 0.775 0.68361 0.84331 0.0
H957 H 0.71056 0.68128 0.90272 0.0
S958 S 0.6107 0.63612 0.72753 0.0
N959 N 0.66901 0.64654 0.72191 0.0
N960 N 0.60006 0.64025 0.78591 0.0
C961 C 0.64467 0.65076 0.80326 0.0
C962 C 0.68141 0.65533 0.76851 0.0
C963 C 0.90928 0.12587 0.47941 0.0
C964 C 0.92536 0.10856 0.43468 0.0
C965 C 0.9114 0.09688 0.52077 0.0
C966 C 0.9251 0.04817 0.5175 0.0
H967 H 0.89446 0.16177 0.48242 0.0
H968 H 0.89491 0.10978 0.55357 0.0
S969 S 0.98822 0.99141 0.41511 0.0
N970 N 0.96999 0.04453 0.39425 0.0
N971 N 0.97058 0.98917 0.47183 0.0
C972 C 0.94954 0.03343 0.47601 0.0
C973 C 0.94856 0.06312 0.43392 0.0
C974 C 0.33279 0.863 0.75367 0.0
C975 C 0.28591 0.84693 0.76506 0.0
C976 C 0.36469 0.87474 0.79103 0.0
C977 C 0.35235 0.8646 0.83924 0.0
H978 H 0.34045 0.87664 0.7178 0.0
H979 H 0.39823 0.89263 0.78211 0.0
S980 S 0.24434 0.79642 0.88029 0.0
N981 N 0.23788 0.80057 0.8213 0.0
N982 N 0.29544 0.82463 0.89319 0.0
C983 C 0.31005 0.83784 0.8484 0.0
C984 C 0.27901 0.82491 0.8098 0.0
C985 C 0.11784 0.43177 0.50528 0.0
C986 C 0.10532 0.47949 0.49347 0.0
C987 C 0.13016 0.40049 0.46816 0.0
C988 C 0.1248 0.41514 0.41971 0.0
H989 H 0.12806 0.42223 0.54193 0.0
H990 H 0.14344 0.36498 0.47748 0.0
S991 S 0.06412 0.52673 0.37617 0.0
N992 N 0.06391 0.53103 0.43546 0.0
N993 N 0.091 0.47485 0.36404 0.0
C994 C 0.10018 0.45841 0.40944 0.0
C995 C 0.08559 0.48848 0.44775 0.0
C996 C 0.65522 0.37614 0.72533 0.0
C997 C 0.67276 0.3608 0.68025 0.0
C998 C 0.68282 0.36893 0.767 0.0
C999 C 0.73101 0.35378 0.76217 0.0
H1000 H 0.6209 0.39462 0.72842 0.0
H1001 H 0.67118 0.38632 0.7999 0.0
S1002 S 0.78384 0.28844 0.65939 0.0
N1003 N 0.73382 0.31374 0.63799 0.0
N1004 N 0.78507 0.30125 0.71749 0.0
C1005 C 0.74281 0.32624 0.72164 0.0
C1006 C 0.7154 0.33312 0.67887 0.0
C1007 C 0.63002 0.12815 0.55697 0.0
C1008 C 0.61627 0.11229 0.60319 0.0
C1009 C 0.62483 0.09803 0.51721 0.0
C1010 C 0.61035 0.04994 0.52428 0.0
H1011 H 0.64567 0.16341 0.55155 0.0
H1012 H 0.64129 0.10896 0.48345 0.0
S1013 S 0.55287 0.99801 0.63251 0.0
N1014 N 0.57495 0.05052 0.6501 0.0
N1015 N 0.56383 0.99486 0.57419 0.0
C1016 C 0.58558 0.03834 0.56672 0.0
C1017 C 0.59154 0.06828 0.60759 0.0
C1018 C 0.2707 0.18398 0.69582 0.0
C1019 C 0.28173 0.16043 0.73962 0.0
C1020 C 0.30631 0.18894 0.66063 0.0
C1021 C 0.35342 0.1717 0.66951 0.0
H1022 H 0.23345 0.1919 0.68589 0.0
H1023 H 0.29615 0.20302 0.62546 0.0
S1024 S 0.40141 0.12401 0.7861 0.0
N1025 N 0.34283 0.13002 0.79441 0.0
N1026 N 0.41089 0.14376 0.73065 0.0
C1027 C 0.3657 0.15637 0.71654 0.0
C1028 C 0.32958 0.15068 0.75159 0.0
C1029 C 0.34471 0.46486 0.56626 0.0
C1030 C 0.37961 0.49869 0.55119 0.0
C1031 C 0.3487 0.44157 0.61066 0.0
C1032 C 0.39081 0.44796 0.63804 0.0
H1033 H 0.31565 0.45395 0.54262 0.0
H1034 H 0.32483 0.41127 0.61755 0.0
S1035 S 0.48072 0.54625 0.62551 0.0
N1036 N 0.44881 0.54786 0.57501 0.0
N1037 N 0.45501 0.50422 0.65912 0.0
C1038 C 0.41757 0.49067 0.63025 0.0
C1039 C 0.41443 0.51406 0.58472 0.0
C1040 C 0.80446 0.72546 0.69582 0.0
C1041 C 0.76019 0.72253 0.67154 0.0
C1042 C 0.84157 0.69366 0.68357 0.0
C1043 C 0.83365 0.65529 0.65121 0.0
H1044 H 0.81358 0.75745 0.71639 0.0
H1045 H 0.87651 0.6994 0.69966 0.0
S1046 S 0.71539 0.62457 0.59501 0.0
N1047 N 0.70386 0.67176 0.62888 0.0
N1048 N 0.77348 0.61259 0.60324 0.0
C1049 C 0.78583 0.64702 0.63548 0.0
C1050 C 0.74791 0.67853 0.65 0.0
C1051 C 0.77257 0.34645 0.87578 0.0
C1052 C 0.78361 0.29904 0.86101 0.0
C1053 C 0.80976 0.37995 0.88212 0.0
C1054 C 0.85765 0.36814 0.86984 0.0
H1055 H 0.73722 0.35474 0.89048 0.0
H1056 H 0.80113 0.41484 0.89709 0.0
S1057 S 0.89666 0.25771 0.80533 0.0
N1058 N 0.83842 0.24977 0.81451 0.0
N1059 N 0.91032 0.31023 0.82995 0.0
C1060 C 0.86622 0.32422 0.84598 0.0
C1061 C 0.82771 0.29138 0.83801 0.0
C1062 C 0.6008 0.02233 0.39878 0.0
C1063 C 0.55353 1.00968 0.41264 0.0
C1064 C 0.63635 0.98665 0.39403 0.0
C1065 C 0.62661 0.93817 0.40603 0.0
H1066 H 0.60784 0.05794 0.38384 0.0
H1067 H 0.67093 0.99691 0.3795 0.0
S1068 S 0.51361 0.89253 0.46251 0.0
N1069 N 0.50317 0.95045 0.45271 0.0
N1070 N 0.56898 0.88246 0.44265 0.0
C1071 C 0.58171 0.92739 0.42752 0.0
C1072 C 0.54617 0.96409 0.43322 0.0
C1073 C 0.20576 0.12952 0.8726 0.0
C1074 C 0.15934 0.14829 0.86318 0.0
C1075 C 0.24707 0.15698 0.86476 0.0
C1076 C 0.24207 0.2054 0.85067 0.0
H1077 H 0.21034 0.09358 0.88611 0.0
H1078 H 0.28147 0.1435 0.87838 0.0
S1079 S 0.13291 0.26348 0.79916 0.0
N1080 N 0.11333 0.21274 0.824 0.0
N1081 N 0.19219 0.26322 0.80661 0.0
C1082 C 0.1982 0.21998 0.8295 0.0
C1083 C 0.1558 0.19284 0.83892 0.0
C1084 C 0.95755 0.12399 0.8645 0.0
C1085 C 0.96276 0.13537 0.91331 0.0
C1086 C 0.97102 0.07822 0.84919 0.0
C1087 C 0.99734 0.04658 0.87928 0.0
H1088 H 0.93346 0.14492 0.84141 0.0
H1089 H 0.95719 0.066 0.81506 0.0
S1090 S 0.04456 0.07344 1.00111 0.0
N1091 N 1.01179 0.12113 0.98561 0.0
N1092 N 0.0418 0.03678 0.95451 0.0
C1093 C 0.01407 0.06358 0.92362 0.0
C1094 C 0.99791 0.10924 0.94022 0.0
C1095 C 0.6739 0.3393 0.16928 0.0
C1096 C 0.69076 0.3814 0.14618 0.0
C1097 C 0.70521 0.30231 0.18275 0.0
C1098 C 0.75282 0.30357 0.16608 0.0
H1099 H 0.6361 0.33427 0.176 0.0
H1100 H 0.68942 0.26887 0.19591 0.0
S1101 S 0.82095 0.41255 0.13086 0.0
N1102 N 0.76345 0.42939 0.13034 0.0
N1103 N 0.82095 0.35515 0.14752 0.0
C1104 C 0.7727 0.34842 0.15438 0.0
C1105 C 0.74139 0.3877 0.14323 0.0
C1106 C 0.61838 0.0572 0.11745 0.0
C1107 C 0.60035 0.09995 0.0963 0.0
C1108 C 0.59043 0.01553 0.11853 0.0
C1109 C 0.54175 0.01838 0.10412 0.0
H1110 H 0.65283 0.05641 0.13557 0.0
H1111 H 0.60309 0.98553 0.14059 0.0
S1112 S 0.48597 0.11182 0.02702 0.0
N1113 N 0.53767 0.13581 0.04525 0.0
N1114 N 0.48482 0.05644 0.04902 0.0
C1115 C 0.52834 0.05526 0.07208 0.0
C1116 C 0.55667 0.09789 0.07026 0.0
C1117 C 0.49263 0.46196 0.09205 0.0
C1118 C 0.4903 0.49287 0.13181 0.0
C1119 C 0.46138 0.42294 0.08818 0.0
C1120 C 0.42628 0.41381 0.12374 0.0
H1121 H 0.51794 0.46854 0.063 0.0
H1122 H 0.46298 0.40175 0.05548 0.0
S1123 S 0.41154 0.47708 0.23963 0.0
N1124 N 0.4533 0.50815 0.21049 0.0
N1125 N 0.39596 0.43284 0.20318 0.0
C1126 C 0.4258 0.44187 0.16532 0.0
C1127 C 0.45713 0.48223 0.16918 0.0
C1128 C 0.981 0.55527 0.28656 0.0
C1129 C 0.01841 0.58015 0.26166 0.0
C1130 C 0.97853 0.50307 0.29073 0.0
C1131 C 1.01216 0.46956 0.26935 0.0
H1132 H 0.95201 0.57636 0.30216 0.0
H1133 H 0.94964 0.48849 0.3126 0.0
S1134 S 0.11155 0.51239 0.19089 0.0
N1135 N 0.0858 0.56329 0.20821 0.0
N1136 N 0.08223 0.46815 0.21807 0.0
C1137 C 0.04844 0.49353 0.24265 0.0
C1138 C 0.05088 0.54688 0.23816 0.0
C1139 C 0.72784 0.72872 1.00515 0.0
C1140 C 0.69211 0.76411 0.01904 0.0
C1141 C 0.78012 0.73528 1.00852 0.0
C1142 C 0.80223 0.7792 0.02379 0.0
H1143 H 0.71499 0.69516 0.98982 0.0
H1144 H 0.8033 0.70504 0.99957 0.0
S1145 S 0.72831 0.88378 0.0673 0.0
N1146 N 0.68642 0.84416 0.05213 0.0
N1147 N 0.78094 0.85809 0.05556 0.0
C1148 C 0.76687 0.81451 0.03815 0.0
C1149 C 0.71396 0.80694 0.03634 0.0
C1150 C 0.99339 0.05215 0.28677 0.0
C1151 C 0.02864 0.08205 0.26358 0.0
C1152 C 0.9944 0.99967 0.2873 0.0
C1153 C 0.03111 0.97141 0.26508 0.0
H1154 H 0.9639 0.0698 0.30508 0.0
H1155 H 0.96485 0.98116 0.30435 0.0
S1156 S 0.13157 0.03036 0.1952 0.0
N1157 N 0.10147 0.07716 0.21641 0.0
N1158 N 0.10307 0.98201 0.21552 0.0
C1159 C 0.06641 1.00159 0.24129 0.0
C1160 C 0.06535 0.05481 0.24103 0.0
C1161 C 0.27782 0.82372 1.00867 0.0
C1162 C 0.30152 0.7781 1.00254 0.0
C1163 C 0.22515 0.82962 1.00904 0.0
C1164 C 0.19105 0.79149 0.99902 0.0
H1165 H 0.30012 0.85556 0.01296 0.0
H1166 H 0.21084 0.86467 0.01886 0.0
S1167 S 0.23055 0.66721 0.97572 0.0
N1168 N 0.2827 0.69463 0.9847 0.0
N1169 N 0.1876 0.70749 0.98143 0.0
C1170 C 0.2145 0.74723 0.9907 0.0
C1171 C 0.26734 0.74029 0.99332 0.0
C1172 C 0.26763 0.05242 0.49365 0.0
C1173 C 0.2603 0.01299 0.46086 0.0
C1174 C 0.26649 0.0484 0.54585 0.0
C1175 C 0.26089 1.0038 0.57133 0.0
H1176 H 0.27569 0.08765 0.47867 0.0
H1177 H 0.2685 0.08144 0.56653 0.0
S1178 S 0.24043 0.88736 0.50598 0.0
N1179 N 0.24624 0.92676 0.46147 0.0
N1180 N 0.2467 0.91862 0.5561 0.0
C1181 C 0.25439 0.96398 0.53891 0.0
C1182 C 0.25379 0.96846 0.48583 0.0
C1183 C 0.24786 0.52338 0.78244 0.0
C1184 C 0.24846 0.47496 0.79799 0.0
C1185 C 0.2473 0.53675 0.73203 0.0
C1186 C 0.25115 0.50391 0.69142 0.0
H1187 H 0.24741 0.55165 0.80915 0.0
H1188 H 0.24354 0.57503 0.72506 0.0
S1189 S 0.2348 0.37231 0.70823 0.0
N1190 N 0.23679 0.39304 0.7639 0.0
N1191 N 0.24285 0.41971 0.67289 0.0
C1192 C 0.24715 0.45551 0.70588 0.0
C1193 C 0.24451 0.44121 0.75725 0.0
C1194 C 0.80832 0.5261 0.51962 0.0
C1195 C 0.77127 0.51865 0.55598 0.0
C1196 C 0.80052 0.52634 0.46798 0.0
C1197 C 0.75412 0.52168 0.44716 0.0
H1198 H 0.84569 0.52969 0.53112 0.0
H1199 H 0.83167 0.52817 0.44449 0.0
S1200 S 0.64102 0.5204 0.52349 0.0
N1201 N 0.68458 0.5164 0.56431 0.0
N1202 N 0.66825 0.52246 0.47062 0.0
C1203 C 0.71586 0.52078 0.48332 0.0
C1204 C 0.72442 0.51809 0.53592 0.0
C1205 C 0.74148 1.00295 0.80671 0.0
C1206 C 0.78217 0.02501 0.8286 0.0
C1207 C 0.73483 1.00038 0.75474 0.0
C1208 C 0.76741 0.01856 0.7189 0.0
H1209 H 0.7142 0.98733 0.82989 0.0
H1210 H 0.70358 0.98185 0.74134 0.0
S1211 S 0.87894 0.08452 0.75304 0.0
N1212 N 0.85561 0.06965 0.80582 0.0
N1213 N 0.84227 0.06207 0.71183 0.0
C1214 C 0.80787 0.04144 0.73992 0.0
C1215 C 0.81505 0.04515 0.79279 0.0
C1216 C 0.26723 0.96659 0.04148 0.0
C1217 C 0.25237 1.00522 0.07263 0.0
C1218 C 0.26422 0.96796 0.98903 0.0
C1219 C 0.24872 1.00933 0.96188 0.0
H1220 H 0.28251 0.93445 0.05813 0.0
H1221 H 0.27324 0.93537 0.96956 0.0
S1222 S 0.20227 0.1205 0.02365 0.0
N1223 N 0.21969 0.08609 0.06942 0.0
N1224 N 0.21395 0.0892 0.97464 0.0
C1225 C 0.23331 0.04788 0.99306 0.0
C1226 C 0.23555 0.04599 0.0462 0.0
C1227 C 0.22434 0.48246 0.28258 0.0
C1228 C 0.262 0.5111 0.30218 0.0
C1229 C 0.21817 0.47523 0.23126 0.0
C1230 C 0.24755 0.49679 0.19408 0.0
H1231 H 0.19832 0.46628 0.30687 0.0
H1232 H 0.18939 0.45135 0.22045 0.0
S1233 S 0.34767 0.58129 0.22317 0.0
N1234 N 0.32752 0.56495 0.27681 0.0
N1235 N 0.31485 0.5511 0.18359 0.0
C1236 C 0.28435 0.52651 0.2131 0.0
C1237 C 0.2914 0.53365 0.26525 0.0
C1238 C 0.77742 0.57008 0.02667 0.0
C1239 C 0.766 0.52791 0.05416 0.0
C1240 C 0.77647 0.5719 0.97447 0.0
C1241 C 0.76195 0.5325 0.94425 0.0
H1242 H 0.78581 0.6031 0.04578 0.0
H1243 H 0.7887 0.60489 0.95722 0.0
S1244 S 0.72018 0.41507 0.99369 0.0
N1245 N 0.73392 0.4465 0.04214 0.0
N1246 N 0.73225 0.45102 0.94777 0.0
C1247 C 0.74827 0.49125 0.97072 0.0
C1248 C 0.75012 0.4888 0.02357 0.0
C1249 C 0.76574 0.98037 0.23903 0.0
C1250 C 0.74318 0.02193 0.21948 0.0
C1251 C 0.77125 0.97229 0.29041 0.0
C1252 C 0.75885 1.00604 0.32834 0.0
H1253 H 0.77895 0.95302 0.21485 0.0
H1254 H 0.78534 0.93723 0.30047 0.0
S1255 S 0.68092 0.11223 0.30087 0.0
N1256 N 0.69335 0.09053 0.24699 0.0
N1257 N 0.71038 0.07752 0.33986 0.0
C1258 C 0.73177 0.04533 0.30993 0.0
C1259 C 0.723 0.0525 0.25751 0.0
C1260 C 0.54737 0.27285 0.02899 0.0
C1261 C 0.57018 0.24384 0.99373 0.0
C1262 C 0.4952 0.2738 0.03623 0.0
C1263 C 0.4599 0.24631 1.00898 0.0
H1264 H 0.56987 0.29622 0.05077 0.0
H1265 H 0.48181 0.29933 0.06248 0.0
S1266 S 0.49761 0.16469 0.90986 0.0
N1267 N 0.5494 0.18719 0.92916 0.0
N1268 N 0.45574 0.18876 0.94441 0.0
C1269 C 0.4824 0.21738 0.97371 0.0
C1270 C 0.53528 0.21638 0.96582 0.0
C1271 C 0.54644 0.77208 0.46547 0.0
C1272 C 0.578 0.75788 0.50443 0.0
C1273 C 0.49395 0.77081 0.46719 0.0
C1274 C 0.46711 0.75739 0.50891 0.0
H1275 H 0.56283 0.78566 0.4327 0.0
H1276 H 0.47418 0.77925 0.43445 0.0
S1277 S 0.52932 0.70847 0.61949 0.0
N1278 N 0.57518 0.72335 0.58452 0.0
N1279 N 0.4799 0.723 0.58889 0.0
C1280 C 0.49845 0.74154 0.54754 0.0
C1281 C 0.55181 0.74148 0.5452 0.0
C1282 C 0.01446 0.28644 0.79808 0.0
C1283 C 0.01624 0.31623 0.75563 0.0
C1284 C 1.01003 0.23401 0.79787 0.0
C1285 C 1.00358 0.20545 0.75535 0.0
H1286 H 0.01497 0.30417 0.83281 0.0
H1287 H 1.01263 0.21533 0.83224 0.0
S1288 S 1.0056 0.26194 0.63276 0.0
N1289 N 0.01322 0.30864 0.66868 0.0
N1290 N 1.00042 0.21448 0.66863 0.0
C1291 C 1.00475 0.23476 0.71286 0.0
C1292 C 1.01177 0.2877 0.71294 0.0
C1293 C 0.52862 0.74151 0.30461 0.0
C1294 C 0.5079 0.70903 0.2699 0.0
C1295 C 0.52765 0.79374 0.30083 0.0
C1296 C 0.5061 0.8192 0.26149 0.0
H1297 H 0.54649 0.72583 0.33581 0.0
H1298 H 0.54196 0.81439 0.33075 0.0
S1299 S 0.43274 0.75293 0.16768 0.0
N1300 N 0.45808 0.70839 0.19864 0.0
N1301 N 0.45312 0.80317 0.19231 0.0
C1302 C 0.48218 0.78646 0.2283 0.0
C1303 C 0.48387 0.73337 0.23208 0.0
C1304 C 0.99382 0.78242 0.4732 0.0
C1305 C 0.96509 0.7636 0.51208 0.0
C1306 C 0.04627 0.78031 0.47109 0.0
C1307 C 0.07637 0.76266 0.50934 0.0
H1308 H 0.97573 0.80062 0.44366 0.0
H1309 H 0.06351 0.79221 0.43812 0.0
S1310 S 0.02299 0.70785 0.62005 0.0
N1311 N 0.97428 0.72517 0.58984 0.0
N1312 N 0.07013 0.72379 0.58732 0.0
C1313 C 0.04822 0.74428 0.54851 0.0
C1314 C 0.99461 0.74456 0.54978 0.0
C1315 C 0.98023 0.79654 0.72433 0.0
C1316 C 0.01908 0.81853 0.74857 0.0
C1317 C 0.97721 0.74505 0.71802 0.0
C1318 C 1.01025 0.70936 0.73835 0.0
H1319 H 0.95059 0.81885 0.71157 0.0
H1320 H 0.94629 0.73269 0.69787 0.0
S1321 S 0.12295 0.74596 0.80111 0.0
N1322 N 0.09728 0.79777 0.78567 0.0
N1323 N 0.08559 0.70365 0.78198 0.0
C1324 C 0.04966 0.73082 0.76199 0.0
C1325 C 0.05514 0.78369 0.76507 0.0
C1326 C 0.46326 0.03124 0.73442 0.0
C1327 C 0.50341 0.06141 0.74815 0.0
C1328 C 0.46357 0.97889 0.73552 0.0
C1329 C 0.50524 0.95037 0.7469 0.0
H1330 H 0.4306 0.04832 0.72087 0.0
H1331 H 0.42975 0.96044 0.72833 0.0
S1332 S 0.62134 1.00746 0.7832 0.0
N1333 N 0.58728 0.05478 0.77066 0.0
N1334 N 0.58827 0.95905 0.77309 0.0
C1335 C 0.5459 0.97973 0.759 0.0
C1336 C 0.54509 0.03322 0.75901 0.0
C1337 C 0.25682 0.22733 0.52253 0.0
C1338 C 0.22587 0.26883 0.51587 0.0
C1339 C 0.30982 0.22885 0.52086 0.0
C1340 C 0.33704 0.27129 0.50845 0.0
H1341 H 0.23984 0.19246 0.52795 0.0
H1342 H 0.3295 0.19601 0.52953 0.0
S1343 S 0.27655 0.3883 0.47795 0.0
N1344 N 0.23076 0.35303 0.4922 0.0
N1345 N 0.32567 0.35498 0.4855 0.0
C1346 C 0.30646 0.31195 0.49962 0.0
C1347 C 0.2534 0.31096 0.50388 0.0
C1348 C 0.54527 0.53409 0.76794 0.0
C1349 C 0.50148 0.56165 0.7644 0.0
C1350 C 0.54778 0.48219 0.76782 0.0
C1351 C 0.50673 0.45107 0.76591 0.0
H1352 H 0.57914 0.55243 0.77348 0.0
H1353 H 0.58353 0.46594 0.76771 0.0
S1354 S 0.38093 0.50041 0.76332 0.0
N1355 N 0.41443 0.54985 0.76562 0.0
N1356 N 0.41905 0.45424 0.76215 0.0
C1357 C 0.46226 0.47739 0.76434 0.0
C1358 C 0.45975 0.53093 0.76499 0.0
C1359 C 0.7518 0.30103 0.50874 0.0
C1360 C 0.72585 0.25822 0.52088 0.0
C1361 C 0.80433 0.30352 0.50771 0.0
C1362 C 0.83639 0.26482 0.52173 0.0
H1363 H 0.73139 0.33356 0.50046 0.0
H1364 H 0.82022 0.33628 0.49363 0.0
S1365 S 0.78908 0.14564 0.56304 0.0
N1366 N 0.73928 0.17631 0.55023 0.0
N1367 N 0.83447 0.18253 0.55113 0.0
C1368 C 0.81065 0.22275 0.53581 0.0
C1369 C 0.75748 0.21934 0.53496 0.0
C1370 C 0.02939 0.25912 0.96569 0.0
C1371 C 0.06472 0.23484 0.99615 0.0
C1372 C 0.97743 0.26094 0.97455 0.0
C1373 C 0.95552 0.23914 0.0156 0.0
H1374 H 0.04275 0.28037 0.93566 0.0
H1375 H 0.95467 0.281 0.94952 0.0
S1376 S 0.02772 0.16228 0.10275 0.0
N1377 N 0.06908 0.18205 0.06491 0.0
N1378 N 0.97633 0.18643 0.08402 0.0
C1379 C 0.99021 0.21252 0.04475 0.0
C1380 C 0.04248 0.21017 0.0347 0.0
C1381 C 0.49165 0.24753 0.28822 0.0
C1382 C 0.51136 0.21191 0.25603 0.0
C1383 C 0.49406 0.29941 0.28113 0.0
C1384 C 0.51523 0.32198 0.24018 0.0
H1385 H 0.47168 0.23496 0.31932 0.0
H1386 H 0.47882 0.32168 0.3087 0.0
S1387 S 0.57104 0.24791 0.14212 0.0
N1388 N 0.55259 0.2059 0.18015 0.0
N1389 N 0.55548 0.30048 0.16542 0.0
C1390 C 0.53468 0.28653 0.2074 0.0
C1391 C 0.53308 0.23354 0.21529 0.0
loop_
_geom_bond_atom_site_label_1
_geom_bond_atom_site_label_2
_geom_bond_distance
_geom_bond_site_symmetry_2
_ccdc_geom_bond_type
O0 Zr5 2.207 . S
O0 C34 1.295 . S
O1 Zr5 2.133 . S
O1 Zr6 2.133 . S
O1 Zr7 2.133 1_655 S
O2 Zr5 2.133 . S
O2 Zr11 2.133 1_655 S
O2 Zr12 2.133 1_655 S
O3 Zr5 2.133 . S
O3 Zr7 2.133 1_655 S
O3 Zr12 2.133 1_655 S
O4 Zr5 2.133 . S
O4 Zr6 2.133 . S
O4 Zr11 2.133 1_655 S
Zr5 O0 2.207 . S
Zr5 O1 2.133 . S
Zr5 O2 2.133 . S
Zr5 O3 2.133 . S
Zr5 O4 2.133 . S
Zr5 O17 2.207 . S
Zr5 O30 2.207 . S
Zr5 O33 2.207 . S
Zr6 O1 2.133 . S
Zr6 O4 2.133 . S
Zr6 O8 2.133 1_655 S
Zr6 O10 2.133 1_655 S
Zr6 O22 2.207 1_655 S
Zr6 O25 2.207 . S
Zr6 O35 2.207 . S
Zr6 O36 2.207 . S
Zr7 O1 2.133 1_455 S
Zr7 O3 2.133 1_455 S
Zr7 O9 2.133 . S
Zr7 O10 2.133 . S
Zr7 O19 2.207 1_455 S
Zr7 O20 2.207 . S
Zr7 O27 2.207 1_455 S
Zr7 O28 2.207 . S
O8 Zr6 2.133 1_455 S
O8 Zr11 2.133 . S
O8 Zr13 2.133 . S
O9 Zr7 2.133 . S
O9 Zr12 2.133 . S
O9 Zr13 2.133 . S
O10 Zr6 2.133 1_455 S
O10 Zr7 2.133 . S
O10 Zr13 2.133 . S
Zr11 O2 2.133 1_455 S
Zr11 O4 2.133 1_455 S
Zr11 O8 2.133 . S
Zr11 O14 2.133 . S
Zr11 O18 2.207 . S
Zr11 O21 2.207 1_455 S
Zr11 O26 2.207 . S
Zr11 O29 2.207 1_455 S
Zr12 O2 2.133 1_455 S
Zr12 O3 2.133 1_455 S
Zr12 O9 2.133 . S
Zr12 O14 2.133 . S
Zr12 O23 2.207 1_455 S
Zr12 O24 2.207 . S
Zr12 O48 2.207 . S
Zr12 O49 2.207 . S
Zr13 O8 2.133 . S
Zr13 O9 2.133 . S
Zr13 O10 2.133 . S
Zr13 O14 2.133 . S
Zr13 O15 2.207 . S
Zr13 O16 2.207 . S
Zr13 O31 2.207 . S
Zr13 O32 2.207 . S
O14 Zr11 2.133 . S
O14 Zr12 2.133 . S
O14 Zr13 2.133 . S
O15 Zr13 2.207 . S
O15 C37 1.295 . S
O16 Zr13 2.207 . S
O16 C38 1.295 . S
O17 Zr5 2.207 . S
O17 C39 1.295 . S
O18 Zr11 2.207 . S
O18 C40 1.295 . S
O19 Zr7 2.207 1_655 S
O19 C41 1.295 . S
O20 Zr7 2.207 . S
O20 C42 1.295 . S
O21 Zr11 2.207 1_655 S
O21 C43 1.295 . S
O22 Zr6 2.207 1_455 S
O22 C44 1.295 . S
O23 Zr12 2.207 1_655 S
O23 C45 1.295 . S
O24 Zr12 2.207 . S
O24 C46 1.295 . S
O25 Zr6 2.207 . S
O25 C47 1.295 . S
O26 Zr11 2.207 . S
O26 C37 1.295 . S
O27 Zr7 2.207 1_655 S
O27 C34 1.295 . S
O28 Zr7 2.207 . S
O28 C38 1.295 . S
O29 Zr11 2.207 1_655 S
O29 C39 1.295 . S
O30 Zr5 2.207 . S
O30 C47 1.295 . S
O31 Zr13 2.207 . S
O31 C46 1.295 . S
O32 Zr13 2.207 . S
O32 C44 1.295 . S
O33 Zr5 2.207 . S
O33 C45 1.295 . S
C34 O0 1.295 . S
C34 O27 1.295 . S
O35 Zr6 2.207 . S
O35 C43 1.295 . S
O36 Zr6 2.207 . S
O36 C41 1.295 . S
C37 O15 1.295 . S
C37 O26 1.295 . S
C38 O16 1.295 . S
C38 O28 1.295 . S
C39 O17 1.295 . S
C39 O29 1.295 . S
C40 O18 1.295 . S
C40 O49 1.295 . S
C41 O19 1.295 . S
C41 O36 1.295 . S
C42 O20 1.295 . S
C42 O48 1.295 . S
C43 O21 1.295 . S
C43 O35 1.295 . S
C44 O22 1.295 . S
C44 O32 1.295 . S
C45 O23 1.295 . S
C45 O33 1.295 . S
C46 O24 1.295 . S
C46 O31 1.295 . S
C47 O25 1.295 . S
C47 O30 1.295 . S
O48 Zr12 2.207 . S
O48 C42 1.295 . S
O49 Zr12 2.207 . S
O49 C40 1.295 . S
O50 Zr55 2.207 . S
O50 C84 1.295 . S
O51 Zr55 2.133 . S
O51 Zr56 2.133 . S
O51 Zr57 2.133 . S
O52 Zr55 2.133 . S
O52 Zr61 2.133 . S
O52 Zr62 2.133 . S
O53 Zr55 2.133 . S
O53 Zr57 2.133 . S
O53 Zr62 2.133 . S
O54 Zr55 2.133 . S
O54 Zr56 2.133 . S
O54 Zr61 2.133 . S
Zr55 O50 2.207 . S
Zr55 O51 2.133 . S
Zr55 O52 2.133 . S
Zr55 O53 2.133 . S
Zr55 O54 2.133 . S
Zr55 O67 2.207 . S
Zr55 O80 2.207 . S
Zr55 O83 2.207 . S
Zr56 O51 2.133 . S
Zr56 O54 2.133 . S
Zr56 O58 2.133 . S
Zr56 O60 2.133 . S
Zr56 O72 2.207 . S
Zr56 O75 2.207 . S
Zr56 O85 2.207 . S
Zr56 O86 2.207 . S
Zr57 O51 2.133 . S
Zr57 O53 2.133 . S
Zr57 O59 2.133 . S
Zr57 O60 2.133 . S
Zr57 O69 2.207 . S
Zr57 O70 2.207 . S
Zr57 O77 2.207 . S
Zr57 O78 2.207 . S
O58 Zr56 2.133 . S
O58 Zr61 2.133 . S
O58 Zr63 2.133 . S
O59 Zr57 2.133 . S
O59 Zr62 2.133 . S
O59 Zr63 2.133 . S
O60 Zr56 2.133 . S
O60 Zr57 2.133 . S
O60 Zr63 2.133 . S
Zr61 O52 2.133 . S
Zr61 O54 2.133 . S
Zr61 O58 2.133 . S
Zr61 O64 2.133 . S
Zr61 O68 2.207 1_556 S
Zr61 O71 2.207 1_556 S
Zr61 O76 2.207 1_556 S
Zr61 O79 2.207 1_556 S
Zr62 O52 2.133 . S
Zr62 O53 2.133 . S
Zr62 O59 2.133 . S
Zr62 O64 2.133 . S
Zr62 O73 2.207 . S
Zr62 O74 2.207 . S
Zr62 O98 2.207 . S
Zr62 O99 2.207 . S
Zr63 O58 2.133 . S
Zr63 O59 2.133 . S
Zr63 O60 2.133 . S
Zr63 O64 2.133 . S
Zr63 O65 2.207 . S
Zr63 O66 2.207 . S
Zr63 O81 2.207 . S
Zr63 O82 2.207 . S
O64 Zr61 2.133 . S
O64 Zr62 2.133 . S
O64 Zr63 2.133 . S
O65 Zr63 2.207 . S
O65 C87 1.295 . S
O66 Zr63 2.207 . S
O66 C88 1.295 . S
O67 Zr55 2.207 . S
O67 C89 1.295 . S
O68 Zr61 2.207 1_554 S
O68 C90 1.295 1_554 S
O69 Zr57 2.207 . S
O69 C91 1.295 . S
O70 Zr57 2.207 . S
O70 C92 1.295 . S
O71 Zr61 2.207 1_554 S
O71 C93 1.295 1_554 S
O72 Zr56 2.207 . S
O72 C94 1.295 . S
O73 Zr62 2.207 . S
O73 C95 1.295 . S
O74 Zr62 2.207 . S
O74 C96 1.295 . S
O75 Zr56 2.207 . S
O75 C97 1.295 . S
O76 Zr61 2.207 1_554 S
O76 C87 1.295 1_554 S
O77 Zr57 2.207 . S
O77 C84 1.295 . S
O78 Zr57 2.207 . S
O78 C88 1.295 . S
O79 Zr61 2.207 1_554 S
O79 C89 1.295 1_554 S
O80 Zr55 2.207 . S
O80 C97 1.295 . S
O81 Zr63 2.207 . S
O81 C96 1.295 . S
O82 Zr63 2.207 . S
O82 C94 1.295 . S
O83 Zr55 2.207 . S
O83 C95 1.295 . S
C84 O50 1.295 . S
C84 O77 1.295 . S
O85 Zr56 2.207 . S
O85 C93 1.295 . S
O86 Zr56 2.207 . S
O86 C91 1.295 . S
C87 O65 1.295 . S
C87 O76 1.295 1_556 S
C88 O66 1.295 . S
C88 O78 1.295 . S
C89 O67 1.295 . S
C89 O79 1.295 1_556 S
C90 O68 1.295 1_556 S
C90 O99 1.295 . S
C91 O69 1.295 . S
C91 O86 1.295 . S
C92 O70 1.295 . S
C92 O98 1.295 . S
C93 O71 1.295 1_556 S
C93 O85 1.295 . S
C94 O72 1.295 . S
C94 O82 1.295 . S
C95 O73 1.295 . S
C95 O83 1.295 . S
C96 O74 1.295 . S
C96 O81 1.295 . S
C97 O75 1.295 . S
C97 O80 1.295 . S
O98 Zr62 2.207 . S
O98 C92 1.295 . S
O99 Zr62 2.207 . S
O99 C90 1.295 . S
O100 Zr105 2.207 1_656 S
O100 C134 1.295 1_556 S
O101 Zr105 2.133 . S
O101 Zr106 2.133 . S
O101 Zr107 2.133 1_455 S
O102 Zr105 2.133 1_655 S
O102 Zr111 2.133 1_655 S
O102 Zr112 2.133 . S
O103 Zr105 2.133 1_655 S
O103 Zr107 2.133 . S
O103 Zr112 2.133 . S
O104 Zr105 2.133 . S
O104 Zr106 2.133 . S
O104 Zr111 2.133 . S
Zr105 O100 2.207 1_454 S
Zr105 O101 2.133 . S
Zr105 O102 2.133 1_455 S
Zr105 O103 2.133 1_455 S
Zr105 O104 2.133 . S
Zr105 O117 2.207 1_554 S
Zr105 O130 2.207 1_554 S
Zr105 O133 2.207 1_454 S
Zr106 O101 2.133 . S
Zr106 O104 2.133 . S
Zr106 O108 2.133 . S
Zr106 O110 2.133 . S
Zr106 O122 2.207 . S
Zr106 O125 2.207 . S
Zr106 O135 2.207 . S
Zr106 O136 2.207 . S
Zr107 O101 2.133 1_655 S
Zr107 O103 2.133 . S
Zr107 O109 2.133 . S
Zr107 O110 2.133 1_655 S
Zr107 O119 2.207 1_655 S
Zr107 O120 2.207 . S
Zr107 O127 2.207 . S
Zr107 O128 2.207 . S
O108 Zr106 2.133 . S
O108 Zr111 2.133 . S
O108 Zr113 2.133 . S
O109 Zr107 2.133 . S
O109 Zr112 2.133 . S
O109 Zr113 2.133 1_655 S
O110 Zr106 2.133 . S
O110 Zr107 2.133 1_455 S
O110 Zr113 2.133 . S
Zr111 O102 2.133 1_455 S
Zr111 O104 2.133 . S
Zr111 O108 2.133 . S
Zr111 O114 2.133 1_455 S
Zr111 O118 2.207 1_455 S
Zr111 O121 2.207 . S
Zr111 O126 2.207 . S
Zr111 O129 2.207 . S
Zr112 O102 2.133 . S
Zr112 O103 2.133 . S
Zr112 O109 2.133 . S
Zr112 O114 2.133 . S
Zr112 O123 2.207 . S
Zr112 O124 2.207 . S
Zr112 O148 2.207 . S
Zr112 O149 2.207 . S
Zr113 O108 2.133 . S
Zr113 O109 2.133 1_455 S
Zr113 O110 2.133 . S
Zr113 O114 2.133 1_455 S
Zr113 O115 2.207 . S
Zr113 O116 2.207 1_455 S
Zr113 O131 2.207 1_455 S
Zr113 O132 2.207 . S
O114 Zr111 2.133 1_655 S
O114 Zr112 2.133 . S
O114 Zr113 2.133 1_655 S
O115 Zr113 2.207 . S
O115 C137 1.295 . S
O116 Zr113 2.207 1_655 S
O116 C138 1.295 . S
O117 Zr105 2.207 1_556 S
O117 C139 1.295 1_556 S
O118 Zr111 2.207 1_655 S
O118 C140 1.295 . S
O119 Zr107 2.207 1_455 S
O119 C141 1.295 . S
O120 Zr107 2.207 . S
O120 C142 1.295 . S
O121 Zr111 2.207 . S
O121 C143 1.295 . S
O122 Zr106 2.207 . S
O122 C144 1.295 . S
O123 Zr112 2.207 . S
O123 C145 1.295 . S
O124 Zr112 2.207 . S
O124 C146 1.295 . S
O125 Zr106 2.207 . S
O125 C147 1.295 . S
O126 Zr111 2.207 . S
O126 C137 1.295 . S
O127 Zr107 2.207 . S
O127 C134 1.295 . S
O128 Zr107 2.207 . S
O128 C138 1.295 . S
O129 Zr111 2.207 . S
O129 C139 1.295 . S
O130 Zr105 2.207 1_556 S
O130 C147 1.295 1_556 S
O131 Zr113 2.207 1_655 S
O131 C146 1.295 . S
O132 Zr113 2.207 . S
O132 C144 1.295 . S
O133 Zr105 2.207 1_656 S
O133 C145 1.295 1_556 S
C134 O100 1.295 1_554 S
C134 O127 1.295 . S
O135 Zr106 2.207 . S
O135 C143 1.295 . S
O136 Zr106 2.207 . S
O136 C141 1.295 . S
C137 O115 1.295 . S
C137 O126 1.295 . S
C138 O116 1.295 . S
C138 O128 1.295 . S
C139 O117 1.295 1_554 S
C139 O129 1.295 . S
C140 O118 1.295 . S
C140 O149 1.295 . S
C141 O119 1.295 . S
C141 O136 1.295 . S
C142 O120 1.295 . S
C142 O148 1.295 . S
C143 O121 1.295 . S
C143 O135 1.295 . S
C144 O122 1.295 . S
C144 O132 1.295 . S
C145 O123 1.295 . S
C145 O133 1.295 1_554 S
C146 O124 1.295 . S
C146 O131 1.295 . S
C147 O125 1.295 . S
C147 O130 1.295 1_554 S
O148 Zr112 2.207 . S
O148 C142 1.295 . S
O149 Zr112 2.207 . S
O149 C140 1.295 . S
O150 Zr155 2.207 . S
O150 C184 1.295 . S
O151 Zr155 2.133 . S
O151 Zr156 2.133 . S
O151 Zr157 2.133 . S
O152 Zr155 2.133 1_565 S
O152 Zr161 2.133 . S
O152 Zr162 2.133 . S
O153 Zr155 2.133 1_565 S
O153 Zr157 2.133 1_565 S
O153 Zr162 2.133 . S
O154 Zr155 2.133 . S
O154 Zr156 2.133 . S
O154 Zr161 2.133 1_545 S
Zr155 O150 2.207 . S
Zr155 O151 2.133 . S
Zr155 O152 2.133 1_545 S
Zr155 O153 2.133 1_545 S
Zr155 O154 2.133 . S
Zr155 O167 2.207 1_545 S
Zr155 O180 2.207 . S
Zr155 O183 2.207 1_545 S
Zr156 O151 2.133 . S
Zr156 O154 2.133 . S
Zr156 O158 2.133 . S
Zr156 O160 2.133 . S
Zr156 O172 2.207 . S
Zr156 O175 2.207 . S
Zr156 O185 2.207 . S
Zr156 O186 2.207 . S
Zr157 O151 2.133 . S
Zr157 O153 2.133 1_545 S
Zr157 O159 2.133 1_545 S
Zr157 O160 2.133 . S
Zr157 O169 2.207 . S
Zr157 O170 2.207 1_545 S
Zr157 O177 2.207 . S
Zr157 O178 2.207 . S
O158 Zr156 2.133 . S
O158 Zr161 2.133 1_545 S
O158 Zr163 2.133 . S
O159 Zr157 2.133 1_565 S
O159 Zr162 2.133 . S
O159 Zr163 2.133 1_565 S
O160 Zr156 2.133 . S
O160 Zr157 2.133 . S
O160 Zr163 2.133 . S
Zr161 O152 2.133 . S
Zr161 O154 2.133 1_565 S
Zr161 O158 2.133 1_565 S
Zr161 O164 2.133 . S
Zr161 O168 2.207 . S
Zr161 O171 2.207 1_565 S
Zr161 O176 2.207 . S
Zr161 O179 2.207 . S
Zr162 O152 2.133 . S
Zr162 O153 2.133 . S
Zr162 O159 2.133 . S
Zr162 O164 2.133 . S
Zr162 O173 2.207 . S
Zr162 O174 2.207 . S
Zr162 O198 2.207 . S
Zr162 O199 2.207 . S
Zr163 O158 2.133 . S
Zr163 O159 2.133 1_545 S
Zr163 O160 2.133 . S
Zr163 O164 2.133 1_545 S
Zr163 O165 2.207 1_545 S
Zr163 O166 2.207 . S
Zr163 O181 2.207 1_545 S
Zr163 O182 2.207 . S
O164 Zr161 2.133 . S
O164 Zr162 2.133 . S
O164 Zr163 2.133 1_565 S
O165 Zr163 2.207 1_565 S
O165 C187 1.295 . S
O166 Zr163 2.207 . S
O166 C188 1.295 . S
O167 Zr155 2.207 1_565 S
O167 C189 1.295 . S
O168 Zr161 2.207 . S
O168 C190 1.295 . S
O169 Zr157 2.207 . S
O169 C191 1.295 . S
O170 Zr157 2.207 1_565 S
O170 C192 1.295 . S
O171 Zr161 2.207 1_545 S
O171 C193 1.295 . S
O172 Zr156 2.207 . S
O172 C194 1.295 . S
O173 Zr162 2.207 . S
O173 C195 1.295 . S
O174 Zr162 2.207 . S
O174 C196 1.295 . S
O175 Zr156 2.207 . S
O175 C197 1.295 . S
O176 Zr161 2.207 . S
O176 C187 1.295 . S
O177 Zr157 2.207 . S
O177 C184 1.295 . S
O178 Zr157 2.207 . S
O178 C188 1.295 . S
O179 Zr161 2.207 . S
O179 C189 1.295 . S
O180 Zr155 2.207 . S
O180 C197 1.295 . S
O181 Zr163 2.207 1_565 S
O181 C196 1.295 . S
O182 Zr163 2.207 . S
O182 C194 1.295 . S
O183 Zr155 2.207 1_565 S
O183 C195 1.295 . S
C184 O150 1.295 . S
C184 O177 1.295 . S
O185 Zr156 2.207 . S
O185 C193 1.295 . S
O186 Zr156 2.207 . S
O186 C191 1.295 . S
C187 O165 1.295 . S
C187 O176 1.295 . S
C188 O166 1.295 . S
C188 O178 1.295 . S
C189 O167 1.295 . S
C189 O179 1.295 . S
C190 O168 1.295 . S
C190 O199 1.295 . S
C191 O169 1.295 . S
C191 O186 1.295 . S
C192 O170 1.295 . S
C192 O198 1.295 . S
C193 O171 1.295 . S
C193 O185 1.295 . S
C194 O172 1.295 . S
C194 O182 1.295 . S
C195 O173 1.295 . S
C195 O183 1.295 . S
C196 O174 1.295 . S
C196 O181 1.295 . S
C197 O175 1.295 . S
C197 O180 1.295 . S
O198 Zr162 2.207 . S
O198 C192 1.295 . S
O199 Zr162 2.207 . S
O199 C190 1.295 . S
O200 Zr205 2.207 . S
O200 C234 1.295 . S
O201 Zr205 2.133 . S
O201 Zr206 2.133 . S
O201 Zr207 2.133 . S
O202 Zr205 2.133 1_556 S
O202 Zr211 2.133 . S
O202 Zr212 2.133 . S
O203 Zr205 2.133 1_556 S
O203 Zr207 2.133 1_556 S
O203 Zr212 2.133 . S
O204 Zr205 2.133 . S
O204 Zr206 2.133 . S
O204 Zr211 2.133 1_554 S
Zr205 O200 2.207 . S
Zr205 O201 2.133 . S
Zr205 O202 2.133 1_554 S
Zr205 O203 2.133 1_554 S
Zr205 O204 2.133 . S
Zr205 O217 2.207 1_554 S
Zr205 O230 2.207 . S
Zr205 O233 2.207 1_554 S
Zr206 O201 2.133 . S
Zr206 O204 2.133 . S
Zr206 O208 2.133 . S
Zr206 O210 2.133 . S
Zr206 O222 2.207 . S
Zr206 O225 2.207 . S
Zr206 O235 2.207 . S
Zr206 O236 2.207 . S
Zr207 O201 2.133 . S
Zr207 O203 2.133 1_554 S
Zr207 O209 2.133 1_554 S
Zr207 O210 2.133 . S
Zr207 O219 2.207 . S
Zr207 O220 2.207 1_554 S
Zr207 O227 2.207 . S
Zr207 O228 2.207 . S
O208 Zr206 2.133 . S
O208 Zr211 2.133 1_554 S
O208 Zr213 2.133 . S
O209 Zr207 2.133 1_556 S
O209 Zr212 2.133 . S
O209 Zr213 2.133 1_556 S
O210 Zr206 2.133 . S
O210 Zr207 2.133 . S
O210 Zr213 2.133 . S
Zr211 O202 2.133 . S
Zr211 O204 2.133 1_556 S
Zr211 O208 2.133 1_556 S
Zr211 O214 2.133 . S
Zr211 O218 2.207 . S
Zr211 O221 2.207 1_556 S
Zr211 O226 2.207 . S
Zr211 O229 2.207 . S
Zr212 O202 2.133 . S
Zr212 O203 2.133 . S
Zr212 O209 2.133 . S
Zr212 O214 2.133 . S
Zr212 O223 2.207 . S
Zr212 O224 2.207 . S
Zr212 O248 2.207 . S
Zr212 O249 2.207 . S
Zr213 O208 2.133 . S
Zr213 O209 2.133 1_554 S
Zr213 O210 2.133 . S
Zr213 O214 2.133 1_554 S
Zr213 O215 2.207 1_554 S
Zr213 O216 2.207 . S
Zr213 O231 2.207 1_554 S
Zr213 O232 2.207 . S
O214 Zr211 2.133 . S
O214 Zr212 2.133 . S
O214 Zr213 2.133 1_556 S
O215 Zr213 2.207 1_556 S
O215 C237 1.295 . S
O216 Zr213 2.207 . S
O216 C238 1.295 . S
O217 Zr205 2.207 1_556 S
O217 C239 1.295 . S
O218 Zr211 2.207 . S
O218 C240 1.295 . S
O219 Zr207 2.207 . S
O219 C241 1.295 . S
O220 Zr207 2.207 1_556 S
O220 C242 1.295 . S
O221 Zr211 2.207 1_554 S
O221 C243 1.295 . S
O222 Zr206 2.207 . S
O222 C244 1.295 . S
O223 Zr212 2.207 . S
O223 C245 1.295 . S
O224 Zr212 2.207 . S
O224 C246 1.295 . S
O225 Zr206 2.207 . S
O225 C247 1.295 . S
O226 Zr211 2.207 . S
O226 C237 1.295 . S
O227 Zr207 2.207 . S
O227 C234 1.295 . S
O228 Zr207 2.207 . S
O228 C238 1.295 . S
O229 Zr211 2.207 . S
O229 C239 1.295 . S
O230 Zr205 2.207 . S
O230 C247 1.295 . S
O231 Zr213 2.207 1_556 S
O231 C246 1.295 . S
O232 Zr213 2.207 . S
O232 C244 1.295 . S
O233 Zr205 2.207 1_556 S
O233 C245 1.295 . S
C234 O200 1.295 . S
C234 O227 1.295 . S
O235 Zr206 2.207 . S
O235 C243 1.295 . S
O236 Zr206 2.207 . S
O236 C241 1.295 . S
C237 O215 1.295 . S
C237 O226 1.295 . S
C238 O216 1.295 . S
C238 O228 1.295 . S
C239 O217 1.295 . S
C239 O229 1.295 . S
C240 O218 1.295 . S
C240 O249 1.295 . S
C241 O219 1.295 . S
C241 O236 1.295 . S
C242 O220 1.295 . S
C242 O248 1.295 . S
C243 O221 1.295 . S
C243 O235 1.295 . S
C244 O222 1.295 . S
C244 O232 1.295 . S
C245 O223 1.295 . S
C245 O233 1.295 . S
C246 O224 1.295 . S
C246 O231 1.295 . S
C247 O225 1.295 . S
C247 O230 1.295 . S
O248 Zr212 2.207 . S
O248 C242 1.295 . S
O249 Zr212 2.207 . S
O249 C240 1.295 . S
O250 Zr255 2.207 . S
O250 C284 1.295 . S
O251 Zr255 2.133 . S
O251 Zr256 2.133 . S
O251 Zr257 2.133 . S
O252 Zr255 2.133 . S
O252 Zr261 2.133 . S
O252 Zr262 2.133 . S
O253 Zr255 2.133 . S
O253 Zr257 2.133 . S
O253 Zr262 2.133 . S
O254 Zr255 2.133 . S
O254 Zr256 2.133 . S
O254 Zr261 2.133 . S
Zr255 O250 2.207 . S
Zr255 O251 2.133 . S
Zr255 O252 2.133 . S
Zr255 O253 2.133 . S
Zr255 O254 2.133 . S
Zr255 O267 2.207 . S
Zr255 O280 2.207 . S
Zr255 O283 2.207 . S
Zr256 O251 2.133 . S
Zr256 O254 2.133 . S
Zr256 O258 2.133 . S
Zr256 O260 2.133 . S
Zr256 O272 2.207 . S
Zr256 O275 2.207 . S
Zr256 O285 2.207 . S
Zr256 O286 2.207 . S
Zr257 O251 2.133 . S
Zr257 O253 2.133 . S
Zr257 O259 2.133 . S
Zr257 O260 2.133 . S
Zr257 O269 2.207 . S
Zr257 O270 2.207 . S
Zr257 O277 2.207 . S
Zr257 O278 2.207 . S
O258 Zr256 2.133 . S
O258 Zr261 2.133 . S
O258 Zr263 2.133 . S
O259 Zr257 2.133 . S
O259 Zr262 2.133 . S
O259 Zr263 2.133 . S
O260 Zr256 2.133 . S
O260 Zr257 2.133 . S
O260 Zr263 2.133 . S
Zr261 O252 2.133 . S
Zr261 O254 2.133 . S
Zr261 O258 2.133 . S
Zr261 O264 2.133 . S
Zr261 O268 2.207 . S
Zr261 O271 2.207 . S
Zr261 O276 2.207 . S
Zr261 O279 2.207 . S
Zr262 O252 2.133 . S
Zr262 O253 2.133 . S
Zr262 O259 2.133 . S
Zr262 O264 2.133 . S
Zr262 O273 2.207 . S
Zr262 O274 2.207 . S
Zr262 O298 2.207 . S
Zr262 O299 2.207 . S
Zr263 O258 2.133 . S
Zr263 O259 2.133 . S
Zr263 O260 2.133 . S
Zr263 O264 2.133 . S
Zr263 O265 2.207 . S
Zr263 O266 2.207 . S
Zr263 O281 2.207 . S
Zr263 O282 2.207 . S
O264 Zr261 2.133 . S
O264 Zr262 2.133 . S
O264 Zr263 2.133 . S
O265 Zr263 2.207 . S
O265 C287 1.295 . S
O266 Zr263 2.207 . S
O266 C288 1.295 . S
O267 Zr255 2.207 . S
O267 C289 1.295 . S
O268 Zr261 2.207 . S
O268 C290 1.295 . S
O269 Zr257 2.207 . S
O269 C291 1.295 . S
O270 Zr257 2.207 . S
O270 C292 1.295 . S
O271 Zr261 2.207 . S
O271 C293 1.295 . S
O272 Zr256 2.207 . S
O272 C294 1.295 . S
O273 Zr262 2.207 . S
O273 C295 1.295 . S
O274 Zr262 2.207 . S
O274 C296 1.295 . S
O275 Zr256 2.207 . S
O275 C297 1.295 . S
O276 Zr261 2.207 . S
O276 C287 1.295 . S
O277 Zr257 2.207 . S
O277 C284 1.295 . S
O278 Zr257 2.207 . S
O278 C288 1.295 . S
O279 Zr261 2.207 . S
O279 C289 1.295 . S
O280 Zr255 2.207 . S
O280 C297 1.295 . S
O281 Zr263 2.207 . S
O281 C296 1.295 . S
O282 Zr263 2.207 . S
O282 C294 1.295 . S
O283 Zr255 2.207 . S
O283 C295 1.295 . S
C284 O250 1.295 . S
C284 O277 1.295 . S
O285 Zr256 2.207 . S
O285 C293 1.295 . S
O286 Zr256 2.207 . S
O286 C291 1.295 . S
C287 O265 1.295 . S
C287 O276 1.295 . S
C288 O266 1.295 . S
C288 O278 1.295 . S
C289 O267 1.295 . S
C289 O279 1.295 . S
C290 O268 1.295 . S
C290 O299 1.295 . S
C291 O269 1.295 . S
C291 O286 1.295 . S
C292 O270 1.295 . S
C292 O298 1.295 . S
C293 O271 1.295 . S
C293 O285 1.295 . S
C294 O272 1.295 . S
C294 O282 1.295 . S
C295 O273 1.295 . S
C295 O283 1.295 . S
C296 O274 1.295 . S
C296 O281 1.295 . S
C297 O275 1.295 . S
C297 O280 1.295 . S
O298 Zr262 2.207 . S
O298 C292 1.295 . S
O299 Zr262 2.207 . S
O299 C290 1.295 . S
O300 Zr305 2.207 . S
O300 C334 1.295 . S
O301 Zr305 2.133 . S
O301 Zr306 2.133 1_556 S
O301 Zr307 2.133 1_556 S
O302 Zr305 2.133 . S
O302 Zr311 2.133 1_556 S
O302 Zr312 2.133 . S
O303 Zr305 2.133 . S
O303 Zr307 2.133 1_556 S
O303 Zr312 2.133 . S
O304 Zr305 2.133 . S
O304 Zr306 2.133 1_556 S
O304 Zr311 2.133 1_556 S
Zr305 O300 2.207 . S
Zr305 O301 2.133 . S
Zr305 O302 2.133 . S
Zr305 O303 2.133 . S
Zr305 O304 2.133 . S
Zr305 O317 2.207 . S
Zr305 O330 2.207 . S
Zr305 O333 2.207 . S
Zr306 O301 2.133 1_554 S
Zr306 O304 2.133 1_554 S
Zr306 O308 2.133 . S
Zr306 O310 2.133 . S
Zr306 O322 2.207 . S
Zr306 O325 2.207 1_554 S
Zr306 O335 2.207 . S
Zr306 O336 2.207 . S
Zr307 O301 2.133 1_554 S
Zr307 O303 2.133 1_554 S
Zr307 O309 2.133 . S
Zr307 O310 2.133 . S
Zr307 O319 2.207 1_545 S
Zr307 O320 2.207 1_544 S
Zr307 O327 2.207 1_544 S
Zr307 O328 2.207 1_545 S
O308 Zr306 2.133 . S
O308 Zr311 2.133 . S
O308 Zr313 2.133 . S
O309 Zr307 2.133 . S
O309 Zr312 2.133 1_554 S
O309 Zr313 2.133 . S
O310 Zr306 2.133 . S
O310 Zr307 2.133 . S
O310 Zr313 2.133 . S
Zr311 O302 2.133 1_554 S
Zr311 O304 2.133 1_554 S
Zr311 O308 2.133 . S
Zr311 O314 2.133 . S
Zr311 O318 2.207 1_554 S
Zr311 O321 2.207 . S
Zr311 O326 2.207 . S
Zr311 O329 2.207 1_554 S
Zr312 O302 2.133 . S
Zr312 O303 2.133 . S
Zr312 O309 2.133 1_556 S
Zr312 O314 2.133 1_556 S
Zr312 O323 2.207 . S
Zr312 O324 2.207 1_556 S
Zr312 O348 2.207 . S
Zr312 O349 2.207 . S
Zr313 O308 2.133 . S
Zr313 O309 2.133 . S
Zr313 O310 2.133 . S
Zr313 O314 2.133 . S
Zr313 O315 2.207 . S
Zr313 O316 2.207 . S
Zr313 O331 2.207 . S
Zr313 O332 2.207 . S
O314 Zr311 2.133 . S
O314 Zr312 2.133 1_554 S
O314 Zr313 2.133 . S
O315 Zr313 2.207 . S
O315 C337 1.295 . S
O316 Zr313 2.207 . S
O316 C338 1.295 . S
O317 Zr305 2.207 . S
O317 C339 1.295 . S
O318 Zr311 2.207 1_556 S
O318 C340 1.295 . S
O319 Zr307 2.207 1_565 S
O319 C341 1.295 1_565 S
O320 Zr307 2.207 1_566 S
O320 C342 1.295 1_565 S
O321 Zr311 2.207 . S
O321 C343 1.295 . S
O322 Zr306 2.207 . S
O322 C344 1.295 . S
O323 Zr312 2.207 . S
O323 C345 1.295 . S
O324 Zr312 2.207 1_554 S
O324 C346 1.295 . S
O325 Zr306 2.207 1_556 S
O325 C347 1.295 . S
O326 Zr311 2.207 . S
O326 C337 1.295 . S
O327 Zr307 2.207 1_566 S
O327 C334 1.295 1_565 S
O328 Zr307 2.207 1_565 S
O328 C338 1.295 1_565 S
O329 Zr311 2.207 1_556 S
O329 C339 1.295 . S
O330 Zr305 2.207 . S
O330 C347 1.295 . S
O331 Zr313 2.207 . S
O331 C346 1.295 . S
O332 Zr313 2.207 . S
O332 C344 1.295 . S
O333 Zr305 2.207 . S
O333 C345 1.295 . S
C334 O300 1.295 . S
C334 O327 1.295 1_545 S
O335 Zr306 2.207 . S
O335 C343 1.295 . S
O336 Zr306 2.207 . S
O336 C341 1.295 . S
C337 O315 1.295 . S
C337 O326 1.295 . S
C338 O316 1.295 . S
C338 O328 1.295 1_545 S
C339 O317 1.295 . S
C339 O329 1.295 . S
C340 O318 1.295 . S
C340 O349 1.295 . S
C341 O319 1.295 1_545 S
C341 O336 1.295 . S
C342 O320 1.295 1_545 S
C342 O348 1.295 . S
C343 O321 1.295 . S
C343 O335 1.295 . S
C344 O322 1.295 . S
C344 O332 1.295 . S
C345 O323 1.295 . S
C345 O333 1.295 . S
C346 O324 1.295 . S
C346 O331 1.295 . S
C347 O325 1.295 . S
C347 O330 1.295 . S
O348 Zr312 2.207 . S
O348 C342 1.295 . S
O349 Zr312 2.207 . S
O349 C340 1.295 . S
O350 Zr355 2.207 . S
O350 C384 1.295 . S
O351 Zr355 2.133 . S
O351 Zr356 2.133 . S
O351 Zr357 2.133 . S
O352 Zr355 2.133 . S
O352 Zr361 2.133 . S
O352 Zr362 2.133 . S
O353 Zr355 2.133 . S
O353 Zr357 2.133 . S
O353 Zr362 2.133 . S
O354 Zr355 2.133 . S
O354 Zr356 2.133 . S
O354 Zr361 2.133 . S
Zr355 O350 2.207 . S
Zr355 O351 2.133 . S
Zr355 O352 2.133 . S
Zr355 O353 2.133 . S
Zr355 O354 2.133 . S
Zr355 O367 2.207 . S
Zr355 O380 2.207 . S
Zr355 O383 2.207 . S
Zr356 O351 2.133 . S
Zr356 O354 2.133 . S
Zr356 O358 2.133 . S
Zr356 O360 2.133 . S
Zr356 O372 2.207 . S
Zr356 O375 2.207 . S
Zr356 O385 2.207 . S
Zr356 O386 2.207 . S
Zr357 O351 2.133 . S
Zr357 O353 2.133 . S
Zr357 O359 2.133 . S
Zr357 O360 2.133 . S
Zr357 O369 2.207 . S
Zr357 O370 2.207 . S
Zr357 O377 2.207 . S
Zr357 O378 2.207 . S
O358 Zr356 2.133 . S
O358 Zr361 2.133 . S
O358 Zr363 2.133 . S
O359 Zr357 2.133 . S
O359 Zr362 2.133 . S
O359 Zr363 2.133 . S
O360 Zr356 2.133 . S
O360 Zr357 2.133 . S
O360 Zr363 2.133 . S
Zr361 O352 2.133 . S
Zr361 O354 2.133 . S
Zr361 O358 2.133 . S
Zr361 O364 2.133 . S
Zr361 O368 2.207 . S
Zr361 O371 2.207 . S
Zr361 O376 2.207 . S
Zr361 O379 2.207 . S
Zr362 O352 2.133 . S
Zr362 O353 2.133 . S
Zr362 O359 2.133 . S
Zr362 O364 2.133 . S
Zr362 O373 2.207 . S
Zr362 O374 2.207 . S
Zr362 O398 2.207 . S
Zr362 O399 2.207 . S
Zr363 O358 2.133 . S
Zr363 O359 2.133 . S
Zr363 O360 2.133 . S
Zr363 O364 2.133 . S
Zr363 O365 2.207 . S
Zr363 O366 2.207 . S
Zr363 O381 2.207 . S
Zr363 O382 2.207 . S
O364 Zr361 2.133 . S
O364 Zr362 2.133 . S
O364 Zr363 2.133 . S
O365 Zr363 2.207 . S
O365 C387 1.295 . S
O366 Zr363 2.207 . S
O366 C388 1.295 . S
O367 Zr355 2.207 . S
O367 C389 1.295 . S
O368 Zr361 2.207 . S
O368 C390 1.295 . S
O369 Zr357 2.207 . S
O369 C391 1.295 . S
O370 Zr357 2.207 . S
O370 C392 1.295 . S
O371 Zr361 2.207 . S
O371 C393 1.295 . S
O372 Zr356 2.207 . S
O372 C394 1.295 . S
O373 Zr362 2.207 . S
O373 C395 1.295 . S
O374 Zr362 2.207 . S
O374 C396 1.295 . S
O375 Zr356 2.207 . S
O375 C397 1.295 . S
O376 Zr361 2.207 . S
O376 C387 1.295 . S
O377 Zr357 2.207 . S
O377 C384 1.295 . S
O378 Zr357 2.207 . S
O378 C388 1.295 . S
O379 Zr361 2.207 . S
O379 C389 1.295 . S
O380 Zr355 2.207 . S
O380 C397 1.295 . S
O381 Zr363 2.207 . S
O381 C396 1.295 . S
O382 Zr363 2.207 . S
O382 C394 1.295 . S
O383 Zr355 2.207 . S
O383 C395 1.295 . S
C384 O350 1.295 . S
C384 O377 1.295 . S
O385 Zr356 2.207 . S
O385 C393 1.295 . S
O386 Zr356 2.207 . S
O386 C391 1.295 . S
C387 O365 1.295 . S
C387 O376 1.295 . S
C388 O366 1.295 . S
C388 O378 1.295 . S
C389 O367 1.295 . S
C389 O379 1.295 . S
C390 O368 1.295 . S
C390 O399 1.295 . S
C391 O369 1.295 . S
C391 O386 1.295 . S
C392 O370 1.295 . S
C392 O398 1.295 . S
C393 O371 1.295 . S
C393 O385 1.295 . S
C394 O372 1.295 . S
C394 O382 1.295 . S
C395 O373 1.295 . S
C395 O383 1.295 . S
C396 O374 1.295 . S
C396 O381 1.295 . S
C397 O375 1.295 . S
C397 O380 1.295 . S
O398 Zr362 2.207 . S
O398 C392 1.295 . S
O399 Zr362 2.207 . S
O399 C390 1.295 . S
O400 Zr405 2.207 . S
O400 C434 1.295 . S
O401 Zr405 2.133 . S
O401 Zr406 2.133 . S
O401 Zr407 2.133 . S
O402 Zr405 2.133 . S
O402 Zr411 2.133 . S
O402 Zr412 2.133 . S
O403 Zr405 2.133 . S
O403 Zr407 2.133 . S
O403 Zr412 2.133 . S
O404 Zr405 2.133 . S
O404 Zr406 2.133 . S
O404 Zr411 2.133 . S
Zr405 O400 2.207 . S
Zr405 O401 2.133 . S
Zr405 O402 2.133 . S
Zr405 O403 2.133 . S
Zr405 O404 2.133 . S
Zr405 O417 2.207 . S
Zr405 O430 2.207 . S
Zr405 O433 2.207 . S
Zr406 O401 2.133 . S
Zr406 O404 2.133 . S
Zr406 O408 2.133 . S
Zr406 O410 2.133 . S
Zr406 O422 2.207 . S
Zr406 O425 2.207 . S
Zr406 O435 2.207 . S
Zr406 O436 2.207 . S
Zr407 O401 2.133 . S
Zr407 O403 2.133 . S
Zr407 O409 2.133 . S
Zr407 O410 2.133 . S
Zr407 O419 2.207 . S
Zr407 O420 2.207 . S
Zr407 O427 2.207 . S
Zr407 O428 2.207 . S
O408 Zr406 2.133 . S
O408 Zr411 2.133 . S
O408 Zr413 2.133 . S
O409 Zr407 2.133 . S
O409 Zr412 2.133 . S
O409 Zr413 2.133 . S
O410 Zr406 2.133 . S
O410 Zr407 2.133 . S
O410 Zr413 2.133 . S
Zr411 O402 2.133 . S
Zr411 O404 2.133 . S
Zr411 O408 2.133 . S
Zr411 O414 2.133 . S
Zr411 O418 2.207 . S
Zr411 O421 2.207 . S
Zr411 O426 2.207 . S
Zr411 O429 2.207 . S
Zr412 O402 2.133 . S
Zr412 O403 2.133 . S
Zr412 O409 2.133 . S
Zr412 O414 2.133 . S
Zr412 O423 2.207 . S
Zr412 O424 2.207 . S
Zr412 O448 2.207 . S
Zr412 O449 2.207 . S
Zr413 O408 2.133 . S
Zr413 O409 2.133 . S
Zr413 O410 2.133 . S
Zr413 O414 2.133 . S
Zr413 O415 2.207 1_655 S
Zr413 O416 2.207 1_655 S
Zr413 O431 2.207 1_655 S
Zr413 O432 2.207 1_655 S
O414 Zr411 2.133 . S
O414 Zr412 2.133 . S
O414 Zr413 2.133 . S
O415 Zr413 2.207 1_455 S
O415 C437 1.295 1_455 S
O416 Zr413 2.207 1_455 S
O416 C438 1.295 1_455 S
O417 Zr405 2.207 . S
O417 C439 1.295 . S
O418 Zr411 2.207 . S
O418 C440 1.295 . S
O419 Zr407 2.207 . S
O419 C441 1.295 . S
O420 Zr407 2.207 . S
O420 C442 1.295 . S
O421 Zr411 2.207 . S
O421 C443 1.295 . S
O422 Zr406 2.207 . S
O422 C444 1.295 . S
O423 Zr412 2.207 . S
O423 C445 1.295 . S
O424 Zr412 2.207 . S
O424 C446 1.295 . S
O425 Zr406 2.207 . S
O425 C447 1.295 . S
O426 Zr411 2.207 . S
O426 C437 1.295 . S
O427 Zr407 2.207 . S
O427 C434 1.295 . S
O428 Zr407 2.207 . S
O428 C438 1.295 . S
O429 Zr411 2.207 . S
O429 C439 1.295 . S
O430 Zr405 2.207 . S
O430 C447 1.295 . S
O431 Zr413 2.207 1_455 S
O431 C446 1.295 1_455 S
O432 Zr413 2.207 1_455 S
O432 C444 1.295 1_455 S
O433 Zr405 2.207 . S
O433 C445 1.295 . S
C434 O400 1.295 . S
C434 O427 1.295 . S
O435 Zr406 2.207 . S
O435 C443 1.295 . S
O436 Zr406 2.207 . S
O436 C441 1.295 . S
C437 O415 1.295 1_655 S
C437 O426 1.295 . S
C438 O416 1.295 1_655 S
C438 O428 1.295 . S
C439 O417 1.295 . S
C439 O429 1.295 . S
C440 O418 1.295 . S
C440 O449 1.295 . S
C441 O419 1.295 . S
C441 O436 1.295 . S
C442 O420 1.295 . S
C442 O448 1.295 . S
C443 O421 1.295 . S
C443 O435 1.295 . S
C444 O422 1.295 . S
C444 O432 1.295 1_655 S
C445 O423 1.295 . S
C445 O433 1.295 . S
C446 O424 1.295 . S
C446 O431 1.295 1_655 S
C447 O425 1.295 . S
C447 O430 1.295 . S
O448 Zr412 2.207 . S
O448 C442 1.295 . S
O449 Zr412 2.207 . S
O449 C440 1.295 . S
O450 Zr455 2.207 . S
O450 C484 1.295 . S
O451 Zr455 2.133 . S
O451 Zr456 2.133 . S
O451 Zr457 2.133 . S
O452 Zr455 2.133 . S
O452 Zr461 2.133 . S
O452 Zr462 2.133 . S
O453 Zr455 2.133 . S
O453 Zr457 2.133 . S
O453 Zr462 2.133 . S
O454 Zr455 2.133 . S
O454 Zr456 2.133 . S
O454 Zr461 2.133 . S
Zr455 O450 2.207 . S
Zr455 O451 2.133 . S
Zr455 O452 2.133 . S
Zr455 O453 2.133 . S
Zr455 O454 2.133 . S
Zr455 O467 2.207 . S
Zr455 O480 2.207 . S
Zr455 O483 2.207 . S
Zr456 O451 2.133 . S
Zr456 O454 2.133 . S
Zr456 O458 2.133 . S
Zr456 O460 2.133 . S
Zr456 O472 2.207 . S
Zr456 O475 2.207 . S
Zr456 O485 2.207 . S
Zr456 O486 2.207 . S
Zr457 O451 2.133 . S
Zr457 O453 2.133 . S
Zr457 O459 2.133 . S
Zr457 O460 2.133 . S
Zr457 O469 2.207 . S
Zr457 O470 2.207 . S
Zr457 O477 2.207 . S
Zr457 O478 2.207 . S
O458 Zr456 2.133 . S
O458 Zr461 2.133 . S
O458 Zr463 2.133 . S
O459 Zr457 2.133 . S
O459 Zr462 2.133 . S
O459 Zr463 2.133 . S
O460 Zr456 2.133 . S
O460 Zr457 2.133 . S
O460 Zr463 2.133 . S
Zr461 O452 2.133 . S
Zr461 O454 2.133 . S
Zr461 O458 2.133 . S
Zr461 O464 2.133 . S
Zr461 O468 2.207 . S
Zr461 O471 2.207 . S
Zr461 O476 2.207 . S
Zr461 O479 2.207 . S
Zr462 O452 2.133 . S
Zr462 O453 2.133 . S
Zr462 O459 2.133 . S
Zr462 O464 2.133 . S
Zr462 O473 2.207 . S
Zr462 O474 2.207 . S
Zr462 O498 2.207 . S
Zr462 O499 2.207 . S
Zr463 O458 2.133 . S
Zr463 O459 2.133 . S
Zr463 O460 2.133 . S
Zr463 O464 2.133 . S
Zr463 O465 2.207 1_565 S
Zr463 O466 2.207 1_565 S
Zr463 O481 2.207 1_565 S
Zr463 O482 2.207 1_565 S
O464 Zr461 2.133 . S
O464 Zr462 2.133 . S
O464 Zr463 2.133 . S
O465 Zr463 2.207 1_545 S
O465 C487 1.295 1_545 S
O466 Zr463 2.207 1_545 S
O466 C488 1.295 1_545 S
O467 Zr455 2.207 . S
O467 C489 1.295 . S
O468 Zr461 2.207 . S
O468 C490 1.295 . S
O469 Zr457 2.207 . S
O469 C491 1.295 . S
O470 Zr457 2.207 . S
O470 C492 1.295 . S
O471 Zr461 2.207 . S
O471 C493 1.295 . S
O472 Zr456 2.207 . S
O472 C494 1.295 . S
O473 Zr462 2.207 . S
O473 C495 1.295 . S
O474 Zr462 2.207 . S
O474 C496 1.295 . S
O475 Zr456 2.207 . S
O475 C497 1.295 . S
O476 Zr461 2.207 . S
O476 C487 1.295 . S
O477 Zr457 2.207 . S
O477 C484 1.295 . S
O478 Zr457 2.207 . S
O478 C488 1.295 . S
O479 Zr461 2.207 . S
O479 C489 1.295 . S
O480 Zr455 2.207 . S
O480 C497 1.295 . S
O481 Zr463 2.207 1_545 S
O481 C496 1.295 1_545 S
O482 Zr463 2.207 1_545 S
O482 C494 1.295 1_545 S
O483 Zr455 2.207 . S
O483 C495 1.295 . S
C484 O450 1.295 . S
C484 O477 1.295 . S
O485 Zr456 2.207 . S
O485 C493 1.295 . S
O486 Zr456 2.207 . S
O486 C491 1.295 . S
C487 O465 1.295 1_565 S
C487 O476 1.295 . S
C488 O466 1.295 1_565 S
C488 O478 1.295 . S
C489 O467 1.295 . S
C489 O479 1.295 . S
C490 O468 1.295 . S
C490 O499 1.295 . S
C491 O469 1.295 . S
C491 O486 1.295 . S
C492 O470 1.295 . S
C492 O498 1.295 . S
C493 O471 1.295 . S
C493 O485 1.295 . S
C494 O472 1.295 . S
C494 O482 1.295 1_565 S
C495 O473 1.295 . S
C495 O483 1.295 . S
C496 O474 1.295 . S
C496 O481 1.295 1_565 S
C497 O475 1.295 . S
C497 O480 1.295 . S
O498 Zr462 2.207 . S
O498 C492 1.295 . S
O499 Zr462 2.207 . S
O499 C490 1.295 . S
O500 Zr505 2.207 . S
O500 C534 1.295 . S
O501 Zr505 2.133 . S
O501 Zr506 2.133 1_565 S
O501 Zr507 2.133 1_565 S
O502 Zr505 2.133 . S
O502 Zr511 2.133 1_565 S
O502 Zr512 2.133 . S
O503 Zr505 2.133 . S
O503 Zr507 2.133 1_565 S
O503 Zr512 2.133 . S
O504 Zr505 2.133 . S
O504 Zr506 2.133 1_565 S
O504 Zr511 2.133 1_565 S
Zr505 O500 2.207 . S
Zr505 O501 2.133 . S
Zr505 O502 2.133 . S
Zr505 O503 2.133 . S
Zr505 O504 2.133 . S
Zr505 O517 2.207 . S
Zr505 O530 2.207 . S
Zr505 O533 2.207 . S
Zr506 O501 2.133 1_545 S
Zr506 O504 2.133 1_545 S
Zr506 O508 2.133 . S
Zr506 O510 2.133 . S
Zr506 O522 2.207 . S
Zr506 O525 2.207 1_545 S
Zr506 O535 2.207 . S
Zr506 O536 2.207 . S
Zr507 O501 2.133 1_545 S
Zr507 O503 2.133 1_545 S
Zr507 O509 2.133 . S
Zr507 O510 2.133 . S
Zr507 O519 2.207 1_455 S
Zr507 O520 2.207 1_445 S
Zr507 O527 2.207 1_445 S
Zr507 O528 2.207 1_455 S
O508 Zr506 2.133 . S
O508 Zr511 2.133 . S
O508 Zr513 2.133 . S
O509 Zr507 2.133 . S
O509 Zr512 2.133 1_545 S
O509 Zr513 2.133 . S
O510 Zr506 2.133 . S
O510 Zr507 2.133 . S
O510 Zr513 2.133 . S
Zr511 O502 2.133 1_545 S
Zr511 O504 2.133 1_545 S
Zr511 O508 2.133 . S
Zr511 O514 2.133 . S
Zr511 O518 2.207 1_545 S
Zr511 O521 2.207 . S
Zr511 O526 2.207 . S
Zr511 O529 2.207 1_545 S
Zr512 O502 2.133 . S
Zr512 O503 2.133 . S
Zr512 O509 2.133 1_565 S
Zr512 O514 2.133 1_565 S
Zr512 O523 2.207 . S
Zr512 O524 2.207 1_565 S
Zr512 O548 2.207 . S
Zr512 O549 2.207 . S
Zr513 O508 2.133 . S
Zr513 O509 2.133 . S
Zr513 O510 2.133 . S
Zr513 O514 2.133 . S
Zr513 O515 2.207 . S
Zr513 O516 2.207 . S
Zr513 O531 2.207 . S
Zr513 O532 2.207 . S
O514 Zr511 2.133 . S
O514 Zr512 2.133 1_545 S
O514 Zr513 2.133 . S
O515 Zr513 2.207 . S
O515 C537 1.295 . S
O516 Zr513 2.207 . S
O516 C538 1.295 . S
O517 Zr505 2.207 . S
O517 C539 1.295 . S
O518 Zr511 2.207 1_565 S
O518 C540 1.295 . S
O519 Zr507 2.207 1_655 S
O519 C541 1.295 1_655 S
O520 Zr507 2.207 1_665 S
O520 C542 1.295 1_655 S
O521 Zr511 2.207 . S
O521 C543 1.295 . S
O522 Zr506 2.207 . S
O522 C544 1.295 . S
O523 Zr512 2.207 . S
O523 C545 1.295 . S
O524 Zr512 2.207 1_545 S
O524 C546 1.295 . S
O525 Zr506 2.207 1_565 S
O525 C547 1.295 . S
O526 Zr511 2.207 . S
O526 C537 1.295 . S
O527 Zr507 2.207 1_665 S
O527 C534 1.295 1_655 S
O528 Zr507 2.207 1_655 S
O528 C538 1.295 1_655 S
O529 Zr511 2.207 1_565 S
O529 C539 1.295 . S
O530 Zr505 2.207 . S
O530 C547 1.295 . S
O531 Zr513 2.207 . S
O531 C546 1.295 . S
O532 Zr513 2.207 . S
O532 C544 1.295 . S
O533 Zr505 2.207 . S
O533 C545 1.295 . S
C534 O500 1.295 . S
C534 O527 1.295 1_455 S
O535 Zr506 2.207 . S
O535 C543 1.295 . S
O536 Zr506 2.207 . S
O536 C541 1.295 . S
C537 O515 1.295 . S
C537 O526 1.295 . S
C538 O516 1.295 . S
C538 O528 1.295 1_455 S
C539 O517 1.295 . S
C539 O529 1.295 . S
C540 O518 1.295 . S
C540 O549 1.295 . S
C541 O519 1.295 1_455 S
C541 O536 1.295 . S
C542 O520 1.295 1_455 S
C542 O548 1.295 . S
C543 O521 1.295 . S
C543 O535 1.295 . S
C544 O522 1.295 . S
C544 O532 1.295 . S
C545 O523 1.295 . S
C545 O533 1.295 . S
C546 O524 1.295 . S
C546 O531 1.295 . S
C547 O525 1.295 . S
C547 O530 1.295 . S
O548 Zr512 2.207 . S
O548 C542 1.295 . S
O549 Zr512 2.207 . S
O549 C540 1.295 . S
O550 Zr555 2.207 . S
O550 C584 1.295 . S
O551 Zr555 2.133 . S
O551 Zr556 2.133 . S
O551 Zr557 2.133 . S
O552 Zr555 2.133 . S
O552 Zr561 2.133 . S
O552 Zr562 2.133 . S
O553 Zr555 2.133 . S
O553 Zr557 2.133 . S
O553 Zr562 2.133 . S
O554 Zr555 2.133 . S
O554 Zr556 2.133 . S
O554 Zr561 2.133 . S
Zr555 O550 2.207 . S
Zr555 O551 2.133 . S
Zr555 O552 2.133 . S
Zr555 O553 2.133 . S
Zr555 O554 2.133 . S
Zr555 O567 2.207 . S
Zr555 O580 2.207 . S
Zr555 O583 2.207 . S
Zr556 O551 2.133 . S
Zr556 O554 2.133 . S
Zr556 O558 2.133 . S
Zr556 O560 2.133 . S
Zr556 O572 2.207 . S
Zr556 O575 2.207 . S
Zr556 O585 2.207 . S
Zr556 O586 2.207 . S
Zr557 O551 2.133 . S
Zr557 O553 2.133 . S
Zr557 O559 2.133 . S
Zr557 O560 2.133 . S
Zr557 O569 2.207 . S
Zr557 O570 2.207 . S
Zr557 O577 2.207 . S
Zr557 O578 2.207 . S
O558 Zr556 2.133 . S
O558 Zr561 2.133 . S
O558 Zr563 2.133 . S
O559 Zr557 2.133 . S
O559 Zr562 2.133 . S
O559 Zr563 2.133 . S
O560 Zr556 2.133 . S
O560 Zr557 2.133 . S
O560 Zr563 2.133 . S
Zr561 O552 2.133 . S
Zr561 O554 2.133 . S
Zr561 O558 2.133 . S
Zr561 O564 2.133 . S
Zr561 O568 2.207 . S
Zr561 O571 2.207 . S
Zr561 O576 2.207 . S
Zr561 O579 2.207 . S
Zr562 O552 2.133 . S
Zr562 O553 2.133 . S
Zr562 O559 2.133 . S
Zr562 O564 2.133 . S
Zr562 O573 2.207 . S
Zr562 O574 2.207 . S
Zr562 O598 2.207 . S
Zr562 O599 2.207 . S
Zr563 O558 2.133 . S
Zr563 O559 2.133 . S
Zr563 O560 2.133 . S
Zr563 O564 2.133 . S
Zr563 O565 2.207 . S
Zr563 O566 2.207 . S
Zr563 O581 2.207 . S
Zr563 O582 2.207 . S
O564 Zr561 2.133 . S
O564 Zr562 2.133 . S
O564 Zr563 2.133 . S
O565 Zr563 2.207 . S
O565 C587 1.295 . S
O566 Zr563 2.207 . S
O566 C588 1.295 . S
O567 Zr555 2.207 . S
O567 C589 1.295 . S
O568 Zr561 2.207 . S
O568 C590 1.295 . S
O569 Zr557 2.207 . S
O569 C591 1.295 . S
O570 Zr557 2.207 . S
O570 C592 1.295 . S
O571 Zr561 2.207 . S
O571 C593 1.295 . S
O572 Zr556 2.207 . S
O572 C594 1.295 . S
O573 Zr562 2.207 . S
O573 C595 1.295 . S
O574 Zr562 2.207 . S
O574 C596 1.295 . S
O575 Zr556 2.207 . S
O575 C597 1.295 . S
O576 Zr561 2.207 . S
O576 C587 1.295 . S
O577 Zr557 2.207 . S
O577 C584 1.295 . S
O578 Zr557 2.207 . S
O578 C588 1.295 . S
O579 Zr561 2.207 . S
O579 C589 1.295 . S
O580 Zr555 2.207 . S
O580 C597 1.295 . S
O581 Zr563 2.207 . S
O581 C596 1.295 . S
O582 Zr563 2.207 . S
O582 C594 1.295 . S
O583 Zr555 2.207 . S
O583 C595 1.295 . S
C584 O550 1.295 . S
C584 O577 1.295 . S
O585 Zr556 2.207 . S
O585 C593 1.295 . S
O586 Zr556 2.207 . S
O586 C591 1.295 . S
C587 O565 1.295 . S
C587 O576 1.295 . S
C588 O566 1.295 . S
C588 O578 1.295 . S
C589 O567 1.295 . S
C589 O579 1.295 . S
C590 O568 1.295 . S
C590 O599 1.295 . S
C591 O569 1.295 . S
C591 O586 1.295 . S
C592 O570 1.295 . S
C592 O598 1.295 . S
C593 O571 1.295 . S
C593 O585 1.295 . S
C594 O572 1.295 . S
C594 O582 1.295 . S
C595 O573 1.295 . S
C595 O583 1.295 . S
C596 O574 1.295 . S
C596 O581 1.295 . S
C597 O575 1.295 . S
C597 O580 1.295 . S
O598 Zr562 2.207 . S
O598 C592 1.295 . S
O599 Zr562 2.207 . S
O599 C590 1.295 . S
C600 C601 1.369 . S
C600 C602 1.419 . S
C600 H604 0.930 . S
C601 C600 1.369 . S
C601 C610 1.429 . S
C602 C600 1.419 . S
C602 C603 1.363 . S
C602 H605 0.929 . S
C603 C602 1.363 . S
C603 C609 1.428 . S
H604 C600 0.930 . S
H605 C602 0.929 . S
S606 N607 1.613 . S
S606 N608 1.610 . S
N607 S606 1.613 . S
N607 C610 1.350 . S
N608 S606 1.610 . S
N608 C609 1.351 . S
C609 C603 1.428 . S
C609 N608 1.351 . S
C609 C610 1.434 . S
C610 C601 1.429 . S
C610 N607 1.350 . S
C610 C609 1.434 . S
C611 C612 1.369 . S
C611 C613 1.419 . S
C611 H615 0.930 . S
C612 C611 1.369 . S
C612 C621 1.429 . S
C613 C611 1.419 . S
C613 C614 1.363 . S
C613 H616 0.929 1_554 S
C614 C613 1.363 . S
C614 C620 1.428 . S
H615 C611 0.930 . S
H616 C613 0.929 1_556 S
S617 N618 1.613 . S
S617 N619 1.610 . S
N618 S617 1.613 . S
N618 C621 1.350 . S
N619 S617 1.610 . S
N619 C620 1.351 . S
C620 C614 1.428 . S
C620 N619 1.351 . S
C620 C621 1.434 . S
C621 C612 1.429 . S
C621 N618 1.350 . S
C621 C620 1.434 . S
C622 C623 1.369 . S
C622 C624 1.419 . S
C622 H626 0.930 . S
C623 C622 1.369 . S
C623 C632 1.429 . S
C624 C622 1.419 . S
C624 C625 1.363 . S
C624 H627 0.929 . S
C625 C624 1.363 . S
C625 C631 1.428 . S
H626 C622 0.930 . S
H627 C624 0.929 . S
S628 N629 1.613 . S
S628 N630 1.610 . S
N629 S628 1.613 . S
N629 C632 1.350 . S
N630 S628 1.610 . S
N630 C631 1.351 . S
C631 C625 1.428 . S
C631 N630 1.351 . S
C631 C632 1.434 . S
C632 C623 1.429 . S
C632 N629 1.350 . S
C632 C631 1.434 . S
C633 C634 1.369 . S
C633 C635 1.419 . S
C633 H637 0.930 . S
C634 C633 1.369 . S
C634 C643 1.429 . S
C635 C633 1.419 . S
C635 C636 1.363 . S
C635 H638 0.929 1_554 S
C636 C635 1.363 . S
C636 C642 1.428 . S
H637 C633 0.930 . S
H638 C635 0.929 1_556 S
S639 N640 1.613 . S
S639 N641 1.610 . S
N640 S639 1.613 . S
N640 C643 1.350 . S
N641 S639 1.610 . S
N641 C642 1.351 . S
C642 C636 1.428 . S
C642 N641 1.351 . S
C642 C643 1.434 . S
C643 C634 1.429 . S
C643 N640 1.350 . S
C643 C642 1.434 . S
C644 C645 1.369 . S
C644 C646 1.419 . S
C644 H648 0.930 . S
C645 C644 1.369 . S
C645 C654 1.429 . S
C646 C644 1.419 . S
C646 C647 1.363 . S
C646 H649 0.929 . S
C647 C646 1.363 . S
C647 C653 1.428 . S
H648 C644 0.930 . S
H649 C646 0.929 . S
S650 N651 1.613 . S
S650 N652 1.610 . S
N651 S650 1.613 . S
N651 C654 1.350 . S
N652 S650 1.610 . S
N652 C653 1.351 . S
C653 C647 1.428 . S
C653 N652 1.351 . S
C653 C654 1.434 . S
C654 C645 1.429 . S
C654 N651 1.350 . S
C654 C653 1.434 . S
C655 C656 1.369 . S
C655 C657 1.419 . S
C655 H659 0.930 1_556 S
C656 C655 1.369 . S
C656 C665 1.429 . S
C657 C655 1.419 . S
C657 C658 1.363 . S
C657 H660 0.929 . S
C658 C657 1.363 . S
C658 C664 1.428 . S
H659 C655 0.930 1_554 S
H660 C657 0.929 . S
S661 N662 1.615 . S
S661 N663 1.600 1_455 S
N662 S661 1.615 . S
N662 C665 1.350 1_455 S
N663 S661 1.600 1_655 S
N663 C664 1.351 . S
C664 C658 1.428 . S
C664 N663 1.351 . S
C664 C665 1.434 . S
C665 C656 1.429 . S
C665 N662 1.350 1_655 S
C665 C664 1.434 . S
C666 C667 1.369 . S
C666 C668 1.419 . S
C666 H670 0.930 . S
C667 C666 1.369 . S
C667 C676 1.429 . S
C668 C666 1.419 . S
C668 C669 1.363 . S
C668 H671 0.929 . S
C669 C668 1.363 . S
C669 C675 1.428 . S
H670 C666 0.930 . S
H671 C668 0.929 . S
S672 N673 1.613 . S
S672 N674 1.610 . S
N673 S672 1.613 . S
N673 C676 1.350 . S
N674 S672 1.610 . S
N674 C675 1.351 . S
C675 C669 1.428 . S
C675 N674 1.351 . S
C675 C676 1.434 . S
C676 C667 1.429 . S
C676 N673 1.350 . S
C676 C675 1.434 . S
C677 C678 1.369 . S
C677 C679 1.419 . S
C677 H681 0.930 . S
C678 C677 1.369 . S
C678 C687 1.429 . S
C679 C677 1.419 . S
C679 C680 1.363 . S
C679 H682 0.929 . S
C680 C679 1.363 . S
C680 C686 1.428 . S
H681 C677 0.930 . S
H682 C679 0.929 . S
S683 N684 1.613 . S
S683 N685 1.610 . S
N684 S683 1.613 . S
N684 C687 1.350 . S
N685 S683 1.610 . S
N685 C686 1.351 . S
C686 C680 1.428 . S
C686 N685 1.351 . S
C686 C687 1.434 . S
C687 C678 1.429 . S
C687 N684 1.350 . S
C687 C686 1.434 . S
C688 C689 1.369 . S
C688 C690 1.419 . S
C688 H692 0.930 . S
C689 C688 1.369 . S
C689 C698 1.429 . S
C690 C688 1.419 . S
C690 C691 1.363 . S
C690 H693 0.929 . S
C691 C690 1.363 . S
C691 C697 1.428 . S
H692 C688 0.930 . S
H693 C690 0.929 . S
S694 N695 1.613 . S
S694 N696 1.610 . S
N695 S694 1.613 . S
N695 C698 1.350 . S
N696 S694 1.610 . S
N696 C697 1.351 . S
C697 C691 1.428 . S
C697 N696 1.351 . S
C697 C698 1.434 . S
C698 C689 1.429 . S
C698 N695 1.350 . S
C698 C697 1.434 . S
C699 C700 1.369 . S
C699 C701 1.419 . S
C699 H703 0.930 . S
C700 C699 1.369 . S
C700 C709 1.429 . S
C701 C699 1.419 . S
C701 C702 1.363 . S
C701 H704 0.929 . S
C702 C701 1.363 . S
C702 C708 1.428 . S
H703 C699 0.930 . S
H704 C701 0.929 . S
S705 N706 1.613 . S
S705 N707 1.610 . S
N706 S705 1.613 . S
N706 C709 1.350 . S
N707 S705 1.610 . S
N707 C708 1.351 . S
C708 C702 1.428 . S
C708 N707 1.351 . S
C708 C709 1.434 . S
C709 C700 1.429 . S
C709 N706 1.350 . S
C709 C708 1.434 . S
C710 C711 1.369 . S
C710 C712 1.419 . S
C710 H714 0.930 . S
C711 C710 1.369 . S
C711 C720 1.429 . S
C712 C710 1.419 . S
C712 C713 1.363 . S
C712 H715 0.929 . S
C713 C712 1.363 . S
C713 C719 1.428 . S
H714 C710 0.930 . S
H715 C712 0.929 . S
S716 N717 1.613 . S
S716 N718 1.610 . S
N717 S716 1.613 . S
N717 C720 1.350 . S
N718 S716 1.610 . S
N718 C719 1.351 . S
C719 C713 1.428 . S
C719 N718 1.351 . S
C719 C720 1.434 . S
C720 C711 1.429 . S
C720 N717 1.350 . S
C720 C719 1.434 . S
C721 C722 1.369 . S
C721 C723 1.419 . S
C721 H725 0.930 . S
C722 C721 1.369 . S
C722 C731 1.429 . S
C723 C721 1.419 . S
C723 C724 1.363 . S
C723 H726 0.929 . S
C724 C723 1.363 . S
C724 C730 1.428 . S
H725 C721 0.930 . S
H726 C723 0.929 . S
S727 N728 1.613 . S
S727 N729 1.610 1_565 S
N728 S727 1.613 . S
N728 C731 1.350 . S
N729 S727 1.610 1_545 S
N729 C730 1.351 1_545 S
C730 C724 1.428 . S
C730 N729 1.351 1_565 S
C730 C731 1.434 . S
C731 C722 1.429 . S
C731 N728 1.350 . S
C731 C730 1.434 . S
C732 C733 1.369 . S
C732 C734 1.419 . S
C732 H736 0.930 . S
C733 C732 1.369 . S
C733 C742 1.429 . S
C734 C732 1.419 . S
C734 C735 1.363 . S
C734 H737 0.929 . S
C735 C734 1.363 . S
C735 C741 1.428 . S
H736 C732 0.930 . S
H737 C734 0.929 . S
S738 N739 1.613 . S
S738 N740 1.610 . S
N739 S738 1.613 . S
N739 C742 1.350 . S
N740 S738 1.610 . S
N740 C741 1.351 . S
C741 C735 1.428 . S
C741 N740 1.351 . S
C741 C742 1.434 . S
C742 C733 1.429 . S
C742 N739 1.350 . S
C742 C741 1.434 . S
C743 C744 1.369 . S
C743 C745 1.419 . S
C743 H747 0.930 . S
C744 C743 1.369 . S
C744 C753 1.429 . S
C745 C743 1.419 . S
C745 C746 1.363 . S
C745 H748 0.929 . S
C746 C745 1.363 . S
C746 C752 1.428 . S
H747 C743 0.930 . S
H748 C745 0.929 . S
S749 N750 1.613 . S
S749 N751 1.610 . S
N750 S749 1.613 . S
N750 C753 1.350 . S
N751 S749 1.610 . S
N751 C752 1.351 . S
C752 C746 1.428 . S
C752 N751 1.351 . S
C752 C753 1.434 . S
C753 C744 1.429 . S
C753 N750 1.350 . S
C753 C752 1.434 . S
C754 C755 1.369 . S
C754 C756 1.419 . S
C754 H758 0.930 . S
C755 C754 1.369 . S
C755 C764 1.429 . S
C756 C754 1.419 . S
C756 C757 1.363 . S
C756 H759 0.929 . S
C757 C756 1.363 . S
C757 C763 1.428 . S
H758 C754 0.930 . S
H759 C756 0.929 . S
S760 N761 1.613 . S
S760 N762 1.610 . S
N761 S760 1.613 . S
N761 C764 1.350 . S
N762 S760 1.610 . S
N762 C763 1.351 . S
C763 C757 1.428 . S
C763 N762 1.351 . S
C763 C764 1.434 . S
C764 C755 1.429 . S
C764 N761 1.350 . S
C764 C763 1.434 . S
C765 C766 1.369 . S
C765 C767 1.419 . S
C765 H769 0.930 . S
C766 C765 1.369 . S
C766 C775 1.429 . S
C767 C765 1.419 . S
C767 C768 1.363 . S
C767 H770 0.929 . S
C768 C767 1.363 . S
C768 C774 1.428 . S
H769 C765 0.930 . S
H770 C767 0.929 . S
S771 N772 1.613 1_455 S
S771 N773 1.610 1_455 S
N772 S771 1.613 1_655 S
N772 C775 1.350 . S
N773 S771 1.610 1_655 S
N773 C774 1.351 . S
C774 C768 1.428 . S
C774 N773 1.351 . S
C774 C775 1.434 . S
C775 C766 1.429 . S
C775 N772 1.350 . S
C775 C774 1.434 . S
C776 C777 1.369 . S
C776 C778 1.419 . S
C776 H780 0.930 . S
C777 C776 1.369 . S
C777 C786 1.429 . S
C778 C776 1.419 . S
C778 C779 1.363 . S
C778 H781 0.929 . S
C779 C778 1.363 . S
C779 C785 1.428 . S
H780 C776 0.930 . S
H781 C778 0.929 . S
S782 N783 1.613 . S
S782 N784 1.610 . S
N783 S782 1.613 . S
N783 C786 1.350 . S
N784 S782 1.610 . S
N784 C785 1.351 . S
C785 C779 1.428 . S
C785 N784 1.351 . S
C785 C786 1.434 . S
C786 C777 1.429 . S
C786 N783 1.350 . S
C786 C785 1.434 . S
C787 C788 1.369 . S
C787 C789 1.419 . S
C787 H791 0.930 . S
C788 C787 1.369 . S
C788 C797 1.429 . S
C789 C787 1.419 . S
C789 C790 1.363 . S
C789 H792 0.929 . S
C790 C789 1.363 . S
C790 C796 1.428 . S
H791 C787 0.930 . S
H792 C789 0.929 . S
S793 N794 1.613 . S
S793 N795 1.610 . S
N794 S793 1.613 . S
N794 C797 1.350 . S
N795 S793 1.610 . S
N795 C796 1.351 . S
C796 C790 1.428 . S
C796 N795 1.351 . S
C796 C797 1.434 . S
C797 C788 1.429 . S
C797 N794 1.350 . S
C797 C796 1.434 . S
C798 C799 1.369 . S
C798 C800 1.419 . S
C798 H802 0.930 . S
C799 C798 1.369 . S
C799 C808 1.429 . S
C800 C798 1.419 . S
C800 C801 1.363 . S
C800 H803 0.929 . S
C801 C800 1.363 . S
C801 C807 1.428 . S
H802 C798 0.930 . S
H803 C800 0.929 . S
S804 N805 1.613 1_454 S
S804 N806 1.610 1_554 S
N805 S804 1.613 1_656 S
N805 C808 1.350 1_655 S
N806 S804 1.610 1_556 S
N806 C807 1.351 . S
C807 C801 1.428 . S
C807 N806 1.351 . S
C807 C808 1.434 . S
C808 C799 1.429 . S
C808 N805 1.350 1_455 S
C808 C807 1.434 . S
C809 C810 1.369 . S
C809 C811 1.419 . S
C809 H813 0.930 . S
C810 C809 1.369 . S
C810 C819 1.429 . S
C811 C809 1.419 . S
C811 C812 1.363 . S
C811 H814 0.929 . S
C812 C811 1.363 . S
C812 C818 1.428 . S
H813 C809 0.930 . S
H814 C811 0.929 . S
S815 N816 1.613 . S
S815 N817 1.610 . S
N816 S815 1.613 . S
N816 C819 1.350 . S
N817 S815 1.610 . S
N817 C818 1.351 . S
C818 C812 1.428 . S
C818 N817 1.351 . S
C818 C819 1.434 . S
C819 C810 1.429 . S
C819 N816 1.350 . S
C819 C818 1.434 . S
C820 C821 1.369 . S
C820 C822 1.419 . S
C820 H824 0.930 . S
C821 C820 1.369 . S
C821 C830 1.429 . S
C822 C820 1.419 . S
C822 C823 1.363 . S
C822 H825 0.929 . S
C823 C822 1.363 . S
C823 C829 1.428 . S
H824 C820 0.930 . S
H825 C822 0.929 . S
S826 N827 1.613 . S
S826 N828 1.610 . S
N827 S826 1.613 . S
N827 C830 1.350 . S
N828 S826 1.610 . S
N828 C829 1.351 . S
C829 C823 1.428 . S
C829 N828 1.351 . S
C829 C830 1.434 . S
C830 C821 1.429 . S
C830 N827 1.350 . S
C830 C829 1.434 . S
C831 C832 1.369 . S
C831 C833 1.419 . S
C831 H835 0.930 . S
C832 C831 1.369 . S
C832 C841 1.429 . S
C833 C831 1.419 . S
C833 C834 1.363 . S
C833 H836 0.929 . S
C834 C833 1.363 . S
C834 C840 1.428 . S
H835 C831 0.930 . S
H836 C833 0.929 . S
S837 N838 1.613 . S
S837 N839 1.610 . S
N838 S837 1.613 . S
N838 C841 1.350 . S
N839 S837 1.610 . S
N839 C840 1.351 . S
C840 C834 1.428 . S
C840 N839 1.351 . S
C840 C841 1.434 . S
C841 C832 1.429 . S
C841 N838 1.350 . S
C841 C840 1.434 . S
C842 C843 1.369 . S
C842 C844 1.419 . S
C842 H846 0.930 . S
C843 C842 1.369 . S
C843 C852 1.429 . S
C844 C842 1.419 . S
C844 C845 1.363 . S
C844 H847 0.929 . S
C845 C844 1.363 . S
C845 C851 1.428 . S
H846 C842 0.930 . S
H847 C844 0.929 . S
S848 N849 1.613 . S
S848 N850 1.610 1_655 S
N849 S848 1.613 . S
N849 C852 1.350 1_655 S
N850 S848 1.610 1_455 S
N850 C851 1.351 . S
C851 C845 1.428 . S
C851 N850 1.351 . S
C851 C852 1.434 . S
C852 C843 1.429 . S
C852 N849 1.350 1_455 S
C852 C851 1.434 . S
C853 C854 1.369 . S
C853 C855 1.419 . S
C853 H857 0.930 . S
C854 C853 1.369 . S
C854 C863 1.429 . S
C855 C853 1.419 . S
C855 C856 1.363 . S
C855 H858 0.929 . S
C856 C855 1.363 . S
C856 C862 1.428 . S
H857 C853 0.930 . S
H858 C855 0.929 . S
S859 N860 1.613 . S
S859 N861 1.610 . S
N860 S859 1.613 . S
N860 C863 1.350 . S
N861 S859 1.610 . S
N861 C862 1.351 . S
C862 C856 1.428 . S
C862 N861 1.351 . S
C862 C863 1.434 . S
C863 C854 1.429 . S
C863 N860 1.350 . S
C863 C862 1.434 . S
C864 C865 1.369 . S
C864 C866 1.419 . S
C864 H868 0.930 . S
C865 C864 1.369 . S
C865 C874 1.429 . S
C866 C864 1.419 . S
C866 C867 1.363 . S
C866 H869 0.929 . S
C867 C866 1.363 . S
C867 C873 1.428 . S
H868 C864 0.930 . S
H869 C866 0.929 . S
S870 N871 1.613 . S
S870 N872 1.610 . S
N871 S870 1.613 . S
N871 C874 1.350 . S
N872 S870 1.610 . S
N872 C873 1.351 . S
C873 C867 1.428 . S
C873 N872 1.351 . S
C873 C874 1.434 . S
C874 C865 1.429 . S
C874 N871 1.350 . S
C874 C873 1.434 . S
C875 C876 1.369 . S
C875 C877 1.419 . S
C875 H879 0.930 1_455 S
C876 C875 1.369 . S
C876 C885 1.429 . S
C877 C875 1.419 . S
C877 C878 1.363 . S
C877 H880 0.929 . S
C878 C877 1.363 . S
C878 C884 1.428 . S
H879 C875 0.930 1_655 S
H880 C877 0.929 . S
S881 N882 1.613 . S
S881 N883 1.610 . S
N882 S881 1.613 . S
N882 C885 1.350 . S
N883 S881 1.610 . S
N883 C884 1.351 . S
C884 C878 1.428 . S
C884 N883 1.351 . S
C884 C885 1.434 . S
C885 C876 1.429 . S
C885 N882 1.350 . S
C885 C884 1.434 . S
C886 C887 1.369 . S
C886 C888 1.419 . S
C886 H890 0.930 . S
C887 C886 1.369 . S
C887 C896 1.429 . S
C888 C886 1.419 . S
C888 C889 1.363 . S
C888 H891 0.929 . S
C889 C888 1.363 . S
C889 C895 1.428 . S
H890 C886 0.930 . S
H891 C888 0.929 . S
S892 N893 1.613 . S
S892 N894 1.610 . S
N893 S892 1.613 . S
N893 C896 1.350 . S
N894 S892 1.610 . S
N894 C895 1.351 . S
C895 C889 1.428 . S
C895 N894 1.351 . S
C895 C896 1.434 . S
C896 C887 1.429 . S
C896 N893 1.350 . S
C896 C895 1.434 . S
C897 C898 1.369 . S
C897 C899 1.419 . S
C897 H901 0.928 1_655 S
C898 C897 1.369 . S
C898 C907 1.429 . S
C899 C897 1.419 . S
C899 C900 1.363 . S
C899 H902 0.929 . S
C900 C899 1.363 . S
C900 C906 1.428 . S
H901 C897 0.928 1_455 S
H902 C899 0.929 . S
S903 N904 1.613 . S
S903 N905 1.610 . S
N904 S903 1.613 . S
N904 C907 1.350 . S
N905 S903 1.610 . S
N905 C906 1.351 . S
C906 C900 1.428 . S
C906 N905 1.351 . S
C906 C907 1.434 . S
C907 C898 1.429 . S
C907 N904 1.350 . S
C907 C906 1.434 . S
C908 C909 1.369 . S
C908 C910 1.419 . S
C908 H912 0.930 . S
C909 C908 1.369 . S
C909 C918 1.429 . S
C910 C908 1.419 . S
C910 C911 1.363 . S
C910 H913 0.929 . S
C911 C910 1.363 . S
C911 C917 1.428 . S
H912 C908 0.930 . S
H913 C910 0.929 . S
S914 N915 1.613 . S
S914 N916 1.610 . S
N915 S914 1.613 . S
N915 C918 1.350 . S
N916 S914 1.610 . S
N916 C917 1.351 . S
C917 C911 1.428 . S
C917 N916 1.351 . S
C917 C918 1.434 . S
C918 C909 1.429 . S
C918 N915 1.350 . S
C918 C917 1.434 . S
C919 C920 1.369 . S
C919 C921 1.419 . S
C919 H923 0.930 . S
C920 C919 1.369 . S
C920 C929 1.429 . S
C921 C919 1.419 . S
C921 C922 1.363 . S
C921 H924 0.929 . S
C922 C921 1.363 . S
C922 C928 1.428 . S
H923 C919 0.930 . S
H924 C921 0.929 . S
S925 N926 1.613 . S
S925 N927 1.610 . S
N926 S925 1.613 . S
N926 C929 1.350 . S
N927 S925 1.610 . S
N927 C928 1.351 . S
C928 C922 1.428 . S
C928 N927 1.351 . S
C928 C929 1.434 . S
C929 C920 1.429 . S
C929 N926 1.350 . S
C929 C928 1.434 . S
C930 C931 1.369 . S
C930 C932 1.419 . S
C930 H934 0.930 . S
C931 C930 1.369 . S
C931 C940 1.429 . S
C932 C930 1.419 . S
C932 C933 1.363 . S
C932 H935 0.929 . S
C933 C932 1.363 . S
C933 C939 1.428 . S
H934 C930 0.930 . S
H935 C932 0.929 . S
S936 N937 1.613 . S
S936 N938 1.610 . S
N937 S936 1.613 . S
N937 C940 1.350 . S
N938 S936 1.610 . S
N938 C939 1.351 . S
C939 C933 1.428 . S
C939 N938 1.351 . S
C939 C940 1.434 . S
C940 C931 1.429 . S
C940 N937 1.350 . S
C940 C939 1.434 . S
C941 C942 1.369 . S
C941 C943 1.419 . S
C941 H945 0.930 . S
C942 C941 1.369 . S
C942 C951 1.429 . S
C943 C941 1.419 . S
C943 C944 1.363 . S
C943 H946 0.929 . S
C944 C943 1.363 . S
C944 C950 1.428 . S
H945 C941 0.930 . S
H946 C943 0.929 . S
S947 N948 1.613 . S
S947 N949 1.610 . S
N948 S947 1.613 . S
N948 C951 1.350 . S
N949 S947 1.610 . S
N949 C950 1.351 . S
C950 C944 1.428 . S
C950 N949 1.351 . S
C950 C951 1.434 . S
C951 C942 1.429 . S
C951 N948 1.350 . S
C951 C950 1.434 . S
C952 C953 1.369 . S
C952 C954 1.419 . S
C952 H956 0.930 . S
C953 C952 1.369 . S
C953 C962 1.429 . S
C954 C952 1.419 . S
C954 C955 1.363 . S
C954 H957 0.929 . S
C955 C954 1.363 . S
C955 C961 1.428 . S
H956 C952 0.930 . S
H957 C954 0.929 . S
S958 N959 1.613 . S
S958 N960 1.610 . S
N959 S958 1.613 . S
N959 C962 1.350 . S
N960 S958 1.610 . S
N960 C961 1.351 . S
C961 C955 1.428 . S
C961 N960 1.351 . S
C961 C962 1.434 . S
C962 C953 1.429 . S
C962 N959 1.350 . S
C962 C961 1.434 . S
C963 C964 1.369 . S
C963 C965 1.419 . S
C963 H967 0.930 . S
C964 C963 1.369 . S
C964 C973 1.429 . S
C965 C963 1.419 . S
C965 C966 1.363 . S
C965 H968 0.929 . S
C966 C965 1.363 . S
C966 C972 1.428 . S
H967 C963 0.930 . S
H968 C965 0.929 . S
S969 N970 1.613 1_565 S
S969 N971 1.610 . S
N970 S969 1.613 1_545 S
N970 C973 1.350 . S
N971 S969 1.610 . S
N971 C972 1.351 1_565 S
C972 C966 1.428 . S
C972 N971 1.351 1_545 S
C972 C973 1.434 . S
C973 C964 1.429 . S
C973 N970 1.350 . S
C973 C972 1.434 . S
C974 C975 1.369 . S
C974 C976 1.419 . S
C974 H978 0.930 . S
C975 C974 1.369 . S
C975 C984 1.429 . S
C976 C974 1.419 . S
C976 C977 1.363 . S
C976 H979 0.929 . S
C977 C976 1.363 . S
C977 C983 1.428 . S
H978 C974 0.930 . S
H979 C976 0.929 . S
S980 N981 1.613 . S
S980 N982 1.610 . S
N981 S980 1.613 . S
N981 C984 1.350 . S
N982 S980 1.610 . S
N982 C983 1.351 . S
C983 C977 1.428 . S
C983 N982 1.351 . S
C983 C984 1.434 . S
C984 C975 1.429 . S
C984 N981 1.350 . S
C984 C983 1.434 . S
C985 C986 1.369 . S
C985 C987 1.419 . S
C985 H989 0.930 . S
C986 C985 1.369 . S
C986 C995 1.429 . S
C987 C985 1.419 . S
C987 C988 1.363 . S
C987 H990 0.929 . S
C988 C987 1.363 . S
C988 C994 1.428 . S
H989 C985 0.930 . S
H990 C987 0.929 . S
S991 N992 1.613 . S
S991 N993 1.610 . S
N992 S991 1.613 . S
N992 C995 1.350 . S
N993 S991 1.610 . S
N993 C994 1.351 . S
C994 C988 1.428 . S
C994 N993 1.351 . S
C994 C995 1.434 . S
C995 C986 1.429 . S
C995 N992 1.350 . S
C995 C994 1.434 . S
C996 C997 1.369 . S
C996 C998 1.419 . S
C996 H1000 0.930 . S
C997 C996 1.369 . S
C997 C1006 1.429 . S
C998 C996 1.419 . S
C998 C999 1.363 . S
C998 H1001 0.929 . S
C999 C998 1.363 . S
C999 C1005 1.428 . S
H1000 C996 0.930 . S
H1001 C998 0.929 . S
S1002 N1003 1.613 . S
S1002 N1004 1.610 . S
N1003 S1002 1.613 . S
N1003 C1006 1.350 . S
N1004 S1002 1.610 . S
N1004 C1005 1.351 . S
C1005 C999 1.428 . S
C1005 N1004 1.351 . S
C1005 C1006 1.434 . S
C1006 C997 1.429 . S
C1006 N1003 1.350 . S
C1006 C1005 1.434 . S
C1007 C1008 1.369 . S
C1007 C1009 1.419 . S
C1007 H1011 0.930 . S
C1008 C1007 1.369 . S
C1008 C1017 1.429 . S
C1009 C1007 1.419 . S
C1009 C1010 1.363 . S
C1009 H1012 0.929 . S
C1010 C1009 1.363 . S
C1010 C1016 1.428 . S
H1011 C1007 0.930 . S
H1012 C1009 0.929 . S
S1013 N1014 1.613 1_565 S
S1013 N1015 1.610 . S
N1014 S1013 1.613 1_545 S
N1014 C1017 1.350 . S
N1015 S1013 1.610 . S
N1015 C1016 1.351 1_565 S
C1016 C1010 1.428 . S
C1016 N1015 1.351 1_545 S
C1016 C1017 1.434 . S
C1017 C1008 1.429 . S
C1017 N1014 1.350 . S
C1017 C1016 1.434 . S
C1018 C1019 1.369 . S
C1018 C1020 1.419 . S
C1018 H1022 0.930 . S
C1019 C1018 1.369 . S
C1019 C1028 1.429 . S
C1020 C1018 1.419 . S
C1020 C1021 1.363 . S
C1020 H1023 0.929 . S
C1021 C1020 1.363 . S
C1021 C1027 1.428 . S
H1022 C1018 0.930 . S
H1023 C1020 0.929 . S
S1024 N1025 1.613 . S
S1024 N1026 1.610 . S
N1025 S1024 1.613 . S
N1025 C1028 1.350 . S
N1026 S1024 1.610 . S
N1026 C1027 1.351 . S
C1027 C1021 1.428 . S
C1027 N1026 1.351 . S
C1027 C1028 1.434 . S
C1028 C1019 1.429 . S
C1028 N1025 1.350 . S
C1028 C1027 1.434 . S
C1029 C1030 1.369 . S
C1029 C1031 1.419 . S
C1029 H1033 0.930 . S
C1030 C1029 1.369 . S
C1030 C1039 1.429 . S
C1031 C1029 1.419 . S
C1031 C1032 1.363 . S
C1031 H1034 0.929 . S
C1032 C1031 1.363 . S
C1032 C1038 1.428 . S
H1033 C1029 0.930 . S
H1034 C1031 0.929 . S
S1035 N1036 1.613 . S
S1035 N1037 1.610 . S
N1036 S1035 1.613 . S
N1036 C1039 1.350 . S
N1037 S1035 1.610 . S
N1037 C1038 1.351 . S
C1038 C1032 1.428 . S
C1038 N1037 1.351 . S
C1038 C1039 1.434 . S
C1039 C1030 1.429 . S
C1039 N1036 1.350 . S
C1039 C1038 1.434 . S
C1040 C1041 1.369 . S
C1040 C1042 1.419 . S
C1040 H1044 0.930 . S
C1041 C1040 1.369 . S
C1041 C1050 1.429 . S
C1042 C1040 1.419 . S
C1042 C1043 1.363 . S
C1042 H1045 0.929 . S
C1043 C1042 1.363 . S
C1043 C1049 1.428 . S
H1044 C1040 0.930 . S
H1045 C1042 0.929 . S
S1046 N1047 1.613 . S
S1046 N1048 1.610 . S
N1047 S1046 1.613 . S
N1047 C1050 1.350 . S
N1048 S1046 1.610 . S
N1048 C1049 1.351 . S
C1049 C1043 1.428 . S
C1049 N1048 1.351 . S
C1049 C1050 1.434 . S
C1050 C1041 1.429 . S
C1050 N1047 1.350 . S
C1050 C1049 1.434 . S
C1051 C1052 1.369 . S
C1051 C1053 1.419 . S
C1051 H1055 0.930 . S
C1052 C1051 1.369 . S
C1052 C1061 1.429 . S
C1053 C1051 1.419 . S
C1053 C1054 1.363 . S
C1053 H1056 0.929 . S
C1054 C1053 1.363 . S
C1054 C1060 1.428 . S
H1055 C1051 0.930 . S
H1056 C1053 0.929 . S
S1057 N1058 1.613 . S
S1057 N1059 1.610 . S
N1058 S1057 1.613 . S
N1058 C1061 1.350 . S
N1059 S1057 1.610 . S
N1059 C1060 1.351 . S
C1060 C1054 1.428 . S
C1060 N1059 1.351 . S
C1060 C1061 1.434 . S
C1061 C1052 1.429 . S
C1061 N1058 1.350 . S
C1061 C1060 1.434 . S
C1062 C1063 1.369 . S
C1062 C1064 1.419 . S
C1062 H1066 0.930 . S
C1063 C1062 1.369 . S
C1063 C1072 1.429 . S
C1064 C1062 1.419 . S
C1064 C1065 1.363 . S
C1064 H1067 0.929 . S
C1065 C1064 1.363 . S
C1065 C1071 1.428 . S
H1066 C1062 0.930 . S
H1067 C1064 0.929 . S
S1068 N1069 1.613 . S
S1068 N1070 1.610 . S
N1069 S1068 1.613 . S
N1069 C1072 1.350 . S
N1070 S1068 1.610 . S
N1070 C1071 1.351 . S
C1071 C1065 1.428 . S
C1071 N1070 1.351 . S
C1071 C1072 1.434 . S
C1072 C1063 1.429 . S
C1072 N1069 1.350 . S
C1072 C1071 1.434 . S
C1073 C1074 1.369 . S
C1073 C1075 1.419 . S
C1073 H1077 0.930 . S
C1074 C1073 1.369 . S
C1074 C1083 1.429 . S
C1075 C1073 1.419 . S
C1075 C1076 1.363 . S
C1075 H1078 0.929 . S
C1076 C1075 1.363 . S
C1076 C1082 1.428 . S
H1077 C1073 0.930 . S
H1078 C1075 0.929 . S
S1079 N1080 1.613 . S
S1079 N1081 1.610 . S
N1080 S1079 1.613 . S
N1080 C1083 1.350 . S
N1081 S1079 1.610 . S
N1081 C1082 1.351 . S
C1082 C1076 1.428 . S
C1082 N1081 1.351 . S
C1082 C1083 1.434 . S
C1083 C1074 1.429 . S
C1083 N1080 1.350 . S
C1083 C1082 1.434 . S
C1084 C1085 1.369 . S
C1084 C1086 1.419 . S
C1084 H1088 0.930 . S
C1085 C1084 1.369 . S
C1085 C1094 1.429 . S
C1086 C1084 1.419 . S
C1086 C1087 1.363 . S
C1086 H1089 0.929 . S
C1087 C1086 1.363 . S
C1087 C1093 1.428 . S
H1088 C1084 0.930 . S
H1089 C1086 0.929 . S
S1090 N1091 1.613 1_455 S
S1090 N1092 1.610 . S
N1091 S1090 1.613 1_655 S
N1091 C1094 1.350 . S
N1092 S1090 1.610 . S
N1092 C1093 1.351 1_455 S
C1093 C1087 1.428 . S
C1093 N1092 1.351 1_655 S
C1093 C1094 1.434 . S
C1094 C1085 1.429 . S
C1094 N1091 1.350 . S
C1094 C1093 1.434 . S
C1095 C1096 1.369 . S
C1095 C1097 1.419 . S
C1095 H1099 0.930 . S
C1096 C1095 1.369 . S
C1096 C1105 1.429 . S
C1097 C1095 1.419 . S
C1097 C1098 1.363 . S
C1097 H1100 0.929 . S
C1098 C1097 1.363 . S
C1098 C1104 1.428 . S
H1099 C1095 0.930 . S
H1100 C1097 0.929 . S
S1101 N1102 1.613 . S
S1101 N1103 1.610 . S
N1102 S1101 1.613 . S
N1102 C1105 1.350 . S
N1103 S1101 1.610 . S
N1103 C1104 1.351 . S
C1104 C1098 1.428 . S
C1104 N1103 1.351 . S
C1104 C1105 1.434 . S
C1105 C1096 1.429 . S
C1105 N1102 1.350 . S
C1105 C1104 1.434 . S
C1106 C1107 1.369 . S
C1106 C1108 1.419 . S
C1106 H1110 0.930 . S
C1107 C1106 1.369 . S
C1107 C1116 1.429 . S
C1108 C1106 1.419 . S
C1108 C1109 1.363 . S
C1108 H1111 0.929 1_545 S
C1109 C1108 1.363 . S
C1109 C1115 1.428 . S
H1110 C1106 0.930 . S
H1111 C1108 0.929 1_565 S
S1112 N1113 1.613 . S
S1112 N1114 1.610 . S
N1113 S1112 1.613 . S
N1113 C1116 1.350 . S
N1114 S1112 1.610 . S
N1114 C1115 1.351 . S
C1115 C1109 1.428 . S
C1115 N1114 1.351 . S
C1115 C1116 1.434 . S
C1116 C1107 1.429 . S
C1116 N1113 1.350 . S
C1116 C1115 1.434 . S
C1117 C1118 1.369 . S
C1117 C1119 1.419 . S
C1117 H1121 0.930 . S
C1118 C1117 1.369 . S
C1118 C1127 1.429 . S
C1119 C1117 1.419 . S
C1119 C1120 1.363 . S
C1119 H1122 0.929 . S
C1120 C1119 1.363 . S
C1120 C1126 1.428 . S
H1121 C1117 0.930 . S
H1122 C1119 0.929 . S
S1123 N1124 1.613 . S
S1123 N1125 1.610 . S
N1124 S1123 1.613 . S
N1124 C1127 1.350 . S
N1125 S1123 1.610 . S
N1125 C1126 1.351 . S
C1126 C1120 1.428 . S
C1126 N1125 1.351 . S
C1126 C1127 1.434 . S
C1127 C1118 1.429 . S
C1127 N1124 1.350 . S
C1127 C1126 1.434 . S
C1128 C1129 1.369 . S
C1128 C1130 1.419 . S
C1128 H1132 0.930 . S
C1129 C1128 1.369 . S
C1129 C1138 1.429 1_655 S
C1130 C1128 1.419 . S
C1130 C1131 1.363 . S
C1130 H1133 0.929 . S
C1131 C1130 1.363 . S
C1131 C1137 1.428 1_655 S
H1132 C1128 0.930 . S
H1133 C1130 0.929 . S
S1134 N1135 1.613 . S
S1134 N1136 1.610 . S
N1135 S1134 1.613 . S
N1135 C1138 1.350 . S
N1136 S1134 1.610 . S
N1136 C1137 1.351 . S
C1137 C1131 1.428 1_455 S
C1137 N1136 1.351 . S
C1137 C1138 1.434 . S
C1138 C1129 1.429 1_455 S
C1138 N1135 1.350 . S
C1138 C1137 1.434 . S
C1139 C1140 1.369 1_556 S
C1139 C1141 1.419 . S
C1139 H1143 0.930 . S
C1140 C1139 1.369 1_554 S
C1140 C1149 1.429 . S
C1141 C1139 1.419 . S
C1141 C1142 1.363 . S
C1141 H1144 0.929 . S
C1142 C1141 1.363 . S
C1142 C1148 1.428 1_556 S
H1143 C1139 0.930 . S
H1144 C1141 0.929 . S
S1145 N1146 1.613 . S
S1145 N1147 1.610 . S
N1146 S1145 1.613 . S
N1146 C1149 1.350 . S
N1147 S1145 1.610 . S
N1147 C1148 1.351 . S
C1148 C1142 1.428 1_554 S
C1148 N1147 1.351 . S
C1148 C1149 1.434 . S
C1149 C1140 1.429 . S
C1149 N1146 1.350 . S
C1149 C1148 1.434 . S
C1150 C1151 1.370 1_655 S
C1150 C1152 1.419 1_545 S
C1150 H1154 0.929 . S
C1151 C1150 1.370 1_455 S
C1151 C1160 1.429 . S
C1152 C1150 1.419 1_565 S
C1152 C1153 1.361 1_655 S
C1152 H1155 0.932 . S
C1153 C1152 1.361 1_455 S
C1153 C1159 1.428 . S
H1154 C1150 0.929 . S
H1155 C1152 0.932 . S
S1156 N1157 1.613 1_565 S
S1156 N1158 1.610 . S
N1157 S1156 1.613 1_545 S
N1157 C1160 1.350 . S
N1158 S1156 1.610 . S
N1158 C1159 1.351 . S
C1159 C1153 1.428 . S
C1159 N1158 1.351 . S
C1159 C1160 1.434 1_565 S
C1160 C1151 1.429 . S
C1160 N1157 1.350 . S
C1160 C1159 1.434 1_545 S
C1161 C1162 1.369 . S
C1161 C1163 1.419 . S
C1161 H1165 0.930 . S
C1162 C1161 1.369 . S
C1162 C1171 1.429 1_554 S
C1163 C1161 1.419 . S
C1163 C1164 1.363 1_554 S
C1163 H1166 0.929 . S
C1164 C1163 1.363 1_556 S
C1164 C1170 1.428 . S
H1165 C1161 0.930 . S
H1166 C1163 0.929 . S
S1167 N1168 1.613 . S
S1167 N1169 1.610 . S
N1168 S1167 1.613 . S
N1168 C1171 1.350 . S
N1169 S1167 1.610 . S
N1169 C1170 1.351 . S
C1170 C1164 1.428 . S
C1170 N1169 1.351 . S
C1170 C1171 1.434 . S
C1171 C1162 1.429 1_556 S
C1171 N1168 1.350 . S
C1171 C1170 1.434 . S
C1172 C1173 1.369 . S
C1172 C1174 1.419 . S
C1172 H1176 0.930 . S
C1173 C1172 1.369 . S
C1173 C1182 1.429 1_565 S
C1174 C1172 1.419 . S
C1174 C1175 1.363 . S
C1174 H1177 0.929 . S
C1175 C1174 1.363 . S
C1175 C1181 1.428 1_565 S
H1176 C1172 0.930 . S
H1177 C1174 0.929 . S
S1178 N1179 1.613 . S
S1178 N1180 1.610 . S
N1179 S1178 1.613 . S
N1179 C1182 1.350 . S
N1180 S1178 1.610 . S
N1180 C1181 1.351 . S
C1181 C1175 1.428 1_545 S
C1181 N1180 1.351 . S
C1181 C1182 1.434 . S
C1182 C1173 1.429 1_545 S
C1182 N1179 1.350 . S
C1182 C1181 1.434 . S
C1183 C1184 1.369 . S
C1183 C1185 1.419 . S
C1183 H1187 0.930 . S
C1184 C1183 1.369 . S
C1184 C1193 1.429 . S
C1185 C1183 1.419 . S
C1185 C1186 1.363 . S
C1185 H1188 0.929 . S
C1186 C1185 1.363 . S
C1186 C1192 1.428 . S
H1187 C1183 0.930 . S
H1188 C1185 0.929 . S
S1189 N1190 1.613 . S
S1189 N1191 1.610 . S
N1190 S1189 1.613 . S
N1190 C1193 1.350 . S
N1191 S1189 1.610 . S
N1191 C1192 1.351 . S
C1192 C1186 1.428 . S
C1192 N1191 1.351 . S
C1192 C1193 1.434 . S
C1193 C1184 1.429 . S
C1193 N1190 1.350 . S
C1193 C1192 1.434 . S
C1194 C1195 1.369 . S
C1194 C1196 1.419 . S
C1194 H1198 0.930 . S
C1195 C1194 1.369 . S
C1195 C1204 1.429 . S
C1196 C1194 1.419 . S
C1196 C1197 1.363 . S
C1196 H1199 0.929 . S
C1197 C1196 1.363 . S
C1197 C1203 1.428 . S
H1198 C1194 0.930 . S
H1199 C1196 0.929 . S
S1200 N1201 1.613 . S
S1200 N1202 1.610 . S
N1201 S1200 1.613 . S
N1201 C1204 1.350 . S
N1202 S1200 1.610 . S
N1202 C1203 1.351 . S
C1203 C1197 1.428 . S
C1203 N1202 1.351 . S
C1203 C1204 1.434 . S
C1204 C1195 1.429 . S
C1204 N1201 1.350 . S
C1204 C1203 1.434 . S
C1205 C1206 1.369 . S
C1205 C1207 1.419 . S
C1205 H1209 0.930 . S
C1206 C1205 1.369 . S
C1206 C1215 1.429 1_565 S
C1207 C1205 1.419 . S
C1207 C1208 1.363 1_565 S
C1207 H1210 0.929 . S
C1208 C1207 1.363 1_545 S
C1208 C1214 1.428 . S
H1209 C1205 0.930 . S
H1210 C1207 0.929 . S
S1211 N1212 1.613 . S
S1211 N1213 1.610 . S
N1212 S1211 1.613 . S
N1212 C1215 1.350 . S
N1213 S1211 1.610 . S
N1213 C1214 1.351 . S
C1214 C1208 1.428 . S
C1214 N1213 1.351 . S
C1214 C1215 1.434 . S
C1215 C1206 1.429 1_545 S
C1215 N1212 1.350 . S
C1215 C1214 1.434 . S
C1216 C1217 1.369 1_565 S
C1216 C1218 1.419 1_554 S
C1216 H1220 0.930 . S
C1217 C1216 1.369 1_545 S
C1217 C1226 1.429 . S
C1218 C1216 1.419 1_556 S
C1218 C1219 1.363 1_565 S
C1218 H1221 0.929 . S
C1219 C1218 1.363 1_545 S
C1219 C1225 1.428 . S
H1220 C1216 0.930 . S
H1221 C1218 0.929 . S
S1222 N1223 1.613 1_556 S
S1222 N1224 1.610 . S
N1223 S1222 1.613 1_554 S
N1223 C1226 1.350 . S
N1224 S1222 1.610 . S
N1224 C1225 1.351 . S
C1225 C1219 1.428 . S
C1225 N1224 1.351 . S
C1225 C1226 1.434 1_556 S
C1226 C1217 1.429 . S
C1226 N1223 1.350 . S
C1226 C1225 1.434 1_554 S
C1227 C1228 1.369 . S
C1227 C1229 1.419 . S
C1227 H1231 0.930 . S
C1228 C1227 1.369 . S
C1228 C1237 1.429 . S
C1229 C1227 1.419 . S
C1229 C1230 1.363 . S
C1229 H1232 0.929 . S
C1230 C1229 1.363 . S
C1230 C1236 1.428 . S
H1231 C1227 0.930 . S
H1232 C1229 0.929 . S
S1233 N1234 1.613 . S
S1233 N1235 1.610 . S
N1234 S1233 1.613 . S
N1234 C1237 1.350 . S
N1235 S1233 1.610 . S
N1235 C1236 1.351 . S
C1236 C1230 1.428 . S
C1236 N1235 1.351 . S
C1236 C1237 1.434 . S
C1237 C1228 1.429 . S
C1237 N1234 1.350 . S
C1237 C1236 1.434 . S
C1238 C1239 1.369 . S
C1238 C1240 1.419 1_554 S
C1238 H1242 0.930 . S
C1239 C1238 1.369 . S
C1239 C1248 1.429 . S
C1240 C1238 1.419 1_556 S
C1240 C1241 1.363 . S
C1240 H1243 0.929 . S
C1241 C1240 1.363 . S
C1241 C1247 1.428 . S
H1242 C1238 0.930 . S
H1243 C1240 0.929 . S
S1244 N1245 1.613 1_556 S
S1244 N1246 1.610 . S
N1245 S1244 1.613 1_554 S
N1245 C1248 1.350 . S
N1246 S1244 1.610 . S
N1246 C1247 1.351 . S
C1247 C1241 1.428 . S
C1247 N1246 1.351 . S
C1247 C1248 1.434 1_556 S
C1248 C1239 1.429 . S
C1248 N1245 1.350 . S
C1248 C1247 1.434 1_554 S
C1249 C1250 1.369 . S
C1249 C1251 1.419 . S
C1249 H1253 0.930 . S
C1250 C1249 1.369 . S
C1250 C1259 1.429 1_565 S
C1251 C1249 1.419 . S
C1251 C1252 1.363 1_565 S
C1251 H1254 0.929 . S
C1252 C1251 1.363 1_545 S
C1252 C1258 1.428 . S
H1253 C1249 0.930 . S
H1254 C1251 0.929 . S
S1255 N1256 1.613 . S
S1255 N1257 1.610 . S
N1256 S1255 1.613 . S
N1256 C1259 1.350 . S
N1257 S1255 1.610 . S
N1257 C1258 1.351 . S
C1258 C1252 1.428 . S
C1258 N1257 1.351 . S
C1258 C1259 1.434 . S
C1259 C1250 1.429 1_545 S
C1259 N1256 1.350 . S
C1259 C1258 1.434 . S
C1260 C1261 1.369 . S
C1260 C1262 1.419 . S
C1260 H1264 0.930 . S
C1261 C1260 1.369 . S
C1261 C1270 1.429 . S
C1262 C1260 1.419 . S
C1262 C1263 1.363 . S
C1262 H1265 0.929 . S
C1263 C1262 1.363 . S
C1263 C1269 1.428 . S
H1264 C1260 0.930 . S
H1265 C1262 0.929 . S
S1266 N1267 1.613 . S
S1266 N1268 1.610 . S
N1267 S1266 1.613 . S
N1267 C1270 1.350 1_554 S
N1268 S1266 1.610 . S
N1268 C1269 1.351 1_554 S
C1269 C1263 1.428 . S
C1269 N1268 1.351 1_556 S
C1269 C1270 1.434 . S
C1270 C1261 1.429 . S
C1270 N1267 1.350 1_556 S
C1270 C1269 1.434 . S
C1271 C1272 1.369 . S
C1271 C1273 1.419 . S
C1271 H1275 0.930 . S
C1272 C1271 1.369 . S
C1272 C1281 1.429 . S
C1273 C1271 1.419 . S
C1273 C1274 1.363 . S
C1273 H1276 0.929 . S
C1274 C1273 1.363 . S
C1274 C1280 1.428 . S
H1275 C1271 0.930 . S
H1276 C1273 0.929 . S
S1277 N1278 1.613 . S
S1277 N1279 1.610 . S
N1278 S1277 1.613 . S
N1278 C1281 1.350 . S
N1279 S1277 1.610 . S
N1279 C1280 1.351 . S
C1280 C1274 1.428 . S
C1280 N1279 1.351 . S
C1280 C1281 1.434 . S
C1281 C1272 1.429 . S
C1281 N1278 1.350 . S
C1281 C1280 1.434 . S
C1282 C1283 1.369 1_655 S
C1282 C1284 1.419 . S
C1282 H1286 0.930 . S
C1283 C1282 1.369 1_455 S
C1283 C1292 1.429 . S
C1284 C1282 1.419 . S
C1284 C1285 1.363 . S
C1284 H1287 0.929 . S
C1285 C1284 1.363 . S
C1285 C1291 1.428 1_655 S
H1286 C1282 0.930 . S
H1287 C1284 0.929 . S
S1288 N1289 1.613 . S
S1288 N1290 1.610 . S
N1289 S1288 1.613 . S
N1289 C1292 1.350 . S
N1290 S1288 1.610 . S
N1290 C1291 1.351 . S
C1291 C1285 1.428 1_455 S
C1291 N1290 1.351 . S
C1291 C1292 1.434 . S
C1292 C1283 1.429 . S
C1292 N1289 1.350 . S
C1292 C1291 1.434 . S
C1293 C1294 1.369 . S
C1293 C1295 1.419 . S
C1293 H1297 0.930 . S
C1294 C1293 1.369 . S
C1294 C1303 1.429 . S
C1295 C1293 1.419 . S
C1295 C1296 1.363 . S
C1295 H1298 0.929 . S
C1296 C1295 1.363 . S
C1296 C1302 1.428 . S
H1297 C1293 0.930 . S
H1298 C1295 0.929 . S
S1299 N1300 1.613 . S
S1299 N1301 1.610 . S
N1300 S1299 1.613 . S
N1300 C1303 1.350 . S
N1301 S1299 1.610 . S
N1301 C1302 1.351 . S
C1302 C1296 1.428 . S
C1302 N1301 1.351 . S
C1302 C1303 1.434 . S
C1303 C1294 1.429 . S
C1303 N1300 1.350 . S
C1303 C1302 1.434 . S
C1304 C1305 1.369 . S
C1304 C1306 1.419 1_655 S
C1304 H1308 0.930 . S
C1305 C1304 1.369 . S
C1305 C1314 1.429 . S
C1306 C1304 1.419 1_455 S
C1306 C1307 1.363 . S
C1306 H1309 0.929 . S
C1307 C1306 1.363 . S
C1307 C1313 1.428 . S
H1308 C1304 0.930 . S
H1309 C1306 0.929 . S
S1310 N1311 1.613 . S
S1310 N1312 1.610 1_655 S
N1311 S1310 1.613 . S
N1311 C1314 1.350 . S
N1312 S1310 1.610 1_455 S
N1312 C1313 1.351 . S
C1313 C1307 1.428 . S
C1313 N1312 1.351 . S
C1313 C1314 1.434 1_455 S
C1314 C1305 1.429 . S
C1314 N1311 1.350 . S
C1314 C1313 1.434 1_655 S
C1315 C1316 1.369 . S
C1315 C1317 1.419 . S
C1315 H1319 0.930 . S
C1316 C1315 1.369 . S
C1316 C1325 1.429 1_655 S
C1317 C1315 1.419 . S
C1317 C1318 1.363 1_655 S
C1317 H1320 0.929 . S
C1318 C1317 1.363 1_455 S
C1318 C1324 1.428 . S
H1319 C1315 0.930 . S
H1320 C1317 0.929 . S
S1321 N1322 1.613 . S
S1321 N1323 1.610 . S
N1322 S1321 1.613 . S
N1322 C1325 1.350 . S
N1323 S1321 1.610 . S
N1323 C1324 1.351 . S
C1324 C1318 1.428 . S
C1324 N1323 1.351 . S
C1324 C1325 1.434 . S
C1325 C1316 1.429 1_455 S
C1325 N1322 1.350 . S
C1325 C1324 1.434 . S
C1326 C1327 1.369 . S
C1326 C1328 1.419 1_545 S
C1326 H1330 0.930 . S
C1327 C1326 1.369 . S
C1327 C1336 1.429 . S
C1328 C1326 1.419 1_565 S
C1328 C1329 1.363 . S
C1328 H1331 0.929 . S
C1329 C1328 1.363 . S
C1329 C1335 1.428 . S
H1330 C1326 0.930 . S
H1331 C1328 0.929 . S
S1332 N1333 1.613 1_565 S
S1332 N1334 1.610 . S
N1333 S1332 1.613 1_545 S
N1333 C1336 1.350 . S
N1334 S1332 1.610 . S
N1334 C1335 1.351 . S
C1335 C1329 1.428 . S
C1335 N1334 1.351 . S
C1335 C1336 1.434 1_565 S
C1336 C1327 1.429 . S
C1336 N1333 1.350 . S
C1336 C1335 1.434 1_545 S
C1337 C1338 1.369 . S
C1337 C1339 1.419 . S
C1337 H1341 0.930 . S
C1338 C1337 1.369 . S
C1338 C1347 1.429 . S
C1339 C1337 1.419 . S
C1339 C1340 1.363 . S
C1339 H1342 0.929 . S
C1340 C1339 1.363 . S
C1340 C1346 1.428 . S
H1341 C1337 0.930 . S
H1342 C1339 0.929 . S
S1343 N1344 1.613 . S
S1343 N1345 1.610 . S
N1344 S1343 1.613 . S
N1344 C1347 1.350 . S
N1345 S1343 1.610 . S
N1345 C1346 1.351 . S
C1346 C1340 1.428 . S
C1346 N1345 1.351 . S
C1346 C1347 1.434 . S
C1347 C1338 1.429 . S
C1347 N1344 1.350 . S
C1347 C1346 1.434 . S
C1348 C1349 1.369 . S
C1348 C1350 1.419 . S
C1348 H1352 0.930 . S
C1349 C1348 1.369 . S
C1349 C1358 1.429 . S
C1350 C1348 1.419 . S
C1350 C1351 1.363 . S
C1350 H1353 0.929 . S
C1351 C1350 1.363 . S
C1351 C1357 1.428 . S
H1352 C1348 0.930 . S
H1353 C1350 0.929 . S
S1354 N1355 1.613 . S
S1354 N1356 1.610 . S
N1355 S1354 1.613 . S
N1355 C1358 1.350 . S
N1356 S1354 1.610 . S
N1356 C1357 1.351 . S
C1357 C1351 1.428 . S
C1357 N1356 1.351 . S
C1357 C1358 1.434 . S
C1358 C1349 1.429 . S
C1358 N1355 1.350 . S
C1358 C1357 1.434 . S
C1359 C1360 1.369 . S
C1359 C1361 1.419 . S
C1359 H1363 0.930 . S
C1360 C1359 1.369 . S
C1360 C1369 1.429 . S
C1361 C1359 1.419 . S
C1361 C1362 1.363 . S
C1361 H1364 0.929 . S
C1362 C1361 1.363 . S
C1362 C1368 1.428 . S
H1363 C1359 0.930 . S
H1364 C1361 0.929 . S
S1365 N1366 1.613 . S
S1365 N1367 1.610 . S
N1366 S1365 1.613 . S
N1366 C1369 1.350 . S
N1367 S1365 1.610 . S
N1367 C1368 1.351 . S
C1368 C1362 1.428 . S
C1368 N1367 1.351 . S
C1368 C1369 1.434 . S
C1369 C1360 1.429 . S
C1369 N1366 1.350 . S
C1369 C1368 1.434 . S
C1370 C1371 1.369 . S
C1370 C1372 1.419 1_455 S
C1370 H1374 0.931 . S
C1371 C1370 1.369 . S
C1371 C1380 1.429 . S
C1372 C1370 1.419 1_655 S
C1372 C1373 1.363 . S
C1372 H1375 0.922 1_554 S
C1373 C1372 1.363 . S
C1373 C1379 1.428 . S
H1374 C1370 0.931 . S
H1375 C1372 0.922 1_556 S
S1376 N1377 1.613 1_655 S
S1376 N1378 1.610 . S
N1377 S1376 1.613 1_455 S
N1377 C1380 1.350 . S
N1378 S1376 1.610 . S
N1378 C1379 1.351 . S
C1379 C1373 1.428 . S
C1379 N1378 1.351 . S
C1379 C1380 1.434 1_655 S
C1380 C1371 1.429 . S
C1380 N1377 1.350 . S
C1380 C1379 1.434 1_455 S
C1381 C1382 1.369 . S
C1381 C1383 1.419 . S
C1381 H1385 0.930 . S
C1382 C1381 1.369 . S
C1382 C1391 1.429 . S
C1383 C1381 1.419 . S
C1383 C1384 1.363 . S
C1383 H1386 0.929 . S
C1384 C1383 1.363 . S
C1384 C1390 1.428 . S
H1385 C1381 0.930 . S
H1386 C1383 0.929 . S
S1387 N1388 1.613 . S
S1387 N1389 1.610 . S
N1388 S1387 1.613 . S
N1388 C1391 1.350 . S
N1389 S1387 1.610 . S
N1389 C1390 1.351 . S
C1390 C1384 1.428 . S
C1390 N1389 1.351 . S
C1390 C1391 1.434 . S
C1391 C1382 1.429 . S
C1391 N1388 1.350 . S
C1391 C1390 1.434 . S
C601 C241 1.142 . S
C603 C38 1.159 . S
C612 C296 1.145 . S
C614 C90 1.160 1_554 S
C623 C34 1.158 . S
C625 C344 1.150 . S
C634 C192 1.139 . S
C636 C93 1.167 1_554 S
C645 C395 1.140 . S
C647 C144 1.164 . S
C656 C134 1.166 1_556 S
C658 C443 1.142 . S
C667 C146 1.152 . S
C669 C490 1.156 . S
C678 C547 1.149 . S
C680 C139 1.157 1_556 S
C689 C46 1.152 . S
C691 C197 1.152 . S
C700 C95 1.148 . S
C702 C237 1.158 . S
C711 C289 1.167 . S
C713 C47 1.145 . S
C722 C94 1.155 . S
C724 C342 1.154 1_565 S
C733 C143 1.152 . S
C735 C195 1.157 . S
C744 C238 1.154 . S
C746 C141 1.148 . S
C755 C287 1.153 . S
C757 C142 1.157 . S
C766 C341 1.168 1_565 S
C768 C140 1.143 . S
C777 C247 1.164 . S
C779 C191 1.142 . S
C788 C389 1.151 . S
C790 C190 1.157 . S
C799 C437 1.166 1_455 S
C801 C242 1.145 . S
C810 C294 1.156 . S
C812 C495 1.154 . S
C821 C397 1.156 . S
C823 C291 1.153 . S
C832 C545 1.156 . S
C834 C387 1.157 . S
C843 C438 1.157 1_455 S
C845 C396 1.153 . S
C854 C542 1.168 1_655 S
C856 C493 1.142 . S
C865 C491 1.140 . S
C867 C88 1.166 . S
C876 C40 1.158 . S
C878 C546 1.150 . S
C887 C84 1.157 . S
C889 C394 1.152 . S
C898 C43 1.154 . S
C900 C442 1.155 . S
C909 C345 1.140 . S
C911 C594 1.168 . S
C920 C584 1.155 . S
C922 C193 1.152 . S
C931 C240 1.147 . S
C933 C596 1.161 . S
C942 C297 1.142 . S
C944 C589 1.162 . S
C953 C447 1.165 . S
C955 C96 1.143 . S
C964 C45 1.156 . S
C966 C487 1.156 1_545 S
C975 C539 1.165 . S
C977 C97 1.146 . S
C986 C392 1.163 . S
C988 C44 1.147 . S
C997 C593 1.148 . S
C999 C445 1.161 . S
C1008 C591 1.151 . S
C1010 C488 1.160 1_545 S
C1019 C537 1.164 . S
C1021 C592 1.142 . S
C1030 C391 1.167 . S
C1032 C590 1.141 . S
C1041 C497 1.166 . S
C1043 C441 1.142 . S
C1052 C339 1.151 . S
C1054 C440 1.155 . S
C1063 C187 1.164 . S
C1065 C492 1.148 . S
C1074 C544 1.147 . S
C1076 C245 1.161 . S
C1085 C347 1.151 . S
C1087 C541 1.160 1_655 S
C1096 C295 1.141 . S
C1098 C337 1.163 . S
C1107 C346 1.156 . S
C1109 C188 1.152 . S
C1118 C292 1.154 . S
C1120 C243 1.149 . S
C1129 C138 2.585 . S
C1131 C41 2.591 . S
C1140 C87 2.591 1_554 S
C1142 C145 2.590 1_556 S
C1151 C42 2.592 . S
C1153 C137 2.586 . S
C1162 C89 2.587 1_554 S
C1164 C147 2.588 1_556 S
C1173 C189 2.589 . S
C1175 C540 2.587 . S
C1184 C246 2.585 . S
C1186 C388 2.594 . S
C1195 C434 2.590 . S
C1197 C293 2.586 . S
C1206 C334 2.585 1_565 S
C1208 C494 2.594 1_545 S
C1217 C184 2.592 . S
C1219 C543 2.587 . S
C1228 C384 2.585 . S
C1230 C244 2.589 . S
C1239 C290 2.592 . S
C1241 C439 2.586 . S
C1250 C338 2.585 1_565 S
C1252 C496 2.589 1_545 S
C1261 C340 2.585 . S
C1263 C239 2.591 . S
C1272 C484 2.592 . S
C1274 C393 2.586 . S
C1283 C446 2.590 1_455 S
C1285 C538 2.585 1_655 S
C1294 C288 2.591 . S
C1296 C196 2.590 . S
C1305 C489 2.585 . S
C1307 C390 2.591 . S
C1316 C534 2.585 1_655 S
C1318 C444 2.593 1_455 S
C1327 C588 2.588 . S
C1329 C91 2.588 . S
C1338 C37 2.588 . S
C1340 C595 2.587 . S
C1349 C92 2.586 . S
C1351 C587 2.589 . S
C1360 C597 2.586 . S
C1362 C39 2.593 . S
C1371 C234 2.592 . S
C1373 C343 2.586 . S
C1382 C194 2.588 . S
C1384 C284 2.585 . S
