# Generated by pormake.
# Topology uli, (4)-cn, num edge types: 1
# Building blocks:
#     Node 0, Type 0, BuildingBlock: QUQFOY_clean_sbu_1, # of connection points: 4
#     Node 1, Type 0, BuildingBlock: QUQFOY_clean_sbu_1, # of connection points: 4
#     Node 2, Type 0, BuildingBlock: QUQFOY_clean_sbu_1, # of connection points: 4
#     Node 3, Type 0, BuildingBlock: QUQFOY_clean_sbu_1, # of connection points: 4
#     Node 4, Type 0, BuildingBlock: QUQFOY_clean_sbu_1, # of connection points: 4
#     Node 5, Type 0, BuildingBlock: QUQFOY_clean_sbu_1, # of connection points: 4
#     Node 6, Type 0, BuildingBlock: QUQFOY_clean_sbu_1, # of connection points: 4
#     Node 7, Type 0, BuildingBlock: QUQFOY_clean_sbu_1, # of connection points: 4
#     Node 8, Type 0, BuildingBlock: QUQFOY_clean_sbu_1, # of connection points: 4
#     Node 9, Type 0, BuildingBlock: QUQFOY_clean_sbu_1, # of connection points: 4
#     Node 10, Type 0, BuildingBlock: QUQFOY_clean_sbu_1, # of connection points: 4
#     Node 11, Type 0, BuildingBlock: QUQFOY_clean_sbu_1, # of connection points: 4
#     Node 12, Type 0, BuildingBlock: QUQFOY_clean_sbu_1, # of connection points: 4
#     Node 13, Type 0, BuildingBlock: QUQFOY_clean_sbu_1, # of connection points: 4
#     Node 14, Type 0, BuildingBlock: QUQFOY_clean_sbu_1, # of connection points: 4
#     Node 15, Type 0, BuildingBlock: QUQFOY_clean_sbu_1, # of connection points: 4
#     Node 16, Type 0, BuildingBlock: QUQFOY_clean_sbu_1, # of connection points: 4
#     Node 17, Type 0, BuildingBlock: QUQFOY_clean_sbu_1, # of connection points: 4
#     Node 18, Type 0, BuildingBlock: QUQFOY_clean_sbu_1, # of connection points: 4
#     Node 19, Type 0, BuildingBlock: QUQFOY_clean_sbu_1, # of connection points: 4
#     Node 20, Type 0, BuildingBlock: QUQFOY_clean_sbu_1, # of connection points: 4
#     Node 21, Type 0, BuildingBlock: QUQFOY_clean_sbu_1, # of connection points: 4
#     Node 22, Type 0, BuildingBlock: QUQFOY_clean_sbu_1, # of connection points: 4
#     Node 23, Type 0, BuildingBlock: QUQFOY_clean_sbu_1, # of connection points: 4
#     Node 24, Type 0, BuildingBlock: QUQFOY_clean_sbu_1, # of connection points: 4
#     Node 25, Type 0, BuildingBlock: QUQFOY_clean_sbu_1, # of connection points: 4
#     Node 26, Type 0, BuildingBlock: QUQFOY_clean_sbu_1, # of connection points: 4
#     Node 27, Type 0, BuildingBlock: QUQFOY_clean_sbu_1, # of connection points: 4
#     Node 28, Type 0, BuildingBlock: QUQFOY_clean_sbu_1, # of connection points: 4
#     Node 29, Type 0, BuildingBlock: QUQFOY_clean_sbu_1, # of connection points: 4
#     Node 30, Type 0, BuildingBlock: QUQFOY_clean_sbu_1, # of connection points: 4
#     Node 31, Type 0, BuildingBlock: QUQFOY_clean_sbu_1, # of connection points: 4
#     Node 32, Type 0, BuildingBlock: QUQFOY_clean_sbu_1, # of connection points: 4
#     Node 33, Type 0, BuildingBlock: QUQFOY_clean_sbu_1, # of connection points: 4
#     Node 34, Type 0, BuildingBlock: QUQFOY_clean_sbu_1, # of connection points: 4
#     Node 35, Type 0, BuildingBlock: QUQFOY_clean_sbu_1, # of connection points: 4
#     Node 36, Type 0, BuildingBlock: QUQFOY_clean_sbu_1, # of connection points: 4
#     Node 37, Type 0, BuildingBlock: QUQFOY_clean_sbu_1, # of connection points: 4
#     Node 38, Type 0, BuildingBlock: QUQFOY_clean_sbu_1, # of connection points: 4
#     Node 39, Type 0, BuildingBlock: QUQFOY_clean_sbu_1, # of connection points: 4
#     Node 40, Type 0, BuildingBlock: QUQFOY_clean_sbu_1, # of connection points: 4
#     Node 41, Type 0, BuildingBlock: QUQFOY_clean_sbu_1, # of connection points: 4
#     Node 42, Type 0, BuildingBlock: QUQFOY_clean_sbu_1, # of connection points: 4
#     Node 43, Type 0, BuildingBlock: QUQFOY_clean_sbu_1, # of connection points: 4
#     Node 44, Type 0, BuildingBlock: QUQFOY_clean_sbu_1, # of connection points: 4
#     Node 45, Type 0, BuildingBlock: QUQFOY_clean_sbu_1, # of connection points: 4
#     Node 46, Type 0, BuildingBlock: QUQFOY_clean_sbu_1, # of connection points: 4
#     Node 47, Type 0, BuildingBlock: QUQFOY_clean_sbu_1, # of connection points: 4
#     Edge 48, Type (0, 0), BuildingBlock: CIFDUS_clean_linker_0, # of connection points: 2
#     Edge 49, Type (0, 0), BuildingBlock: CIFDUS_clean_linker_0, # of connection points: 2
#     Edge 50, Type (0, 0), BuildingBlock: CIFDUS_clean_linker_0, # of connection points: 2
#     Edge 51, Type (0, 0), BuildingBlock: CIFDUS_clean_linker_0, # of connection points: 2
#     Edge 52, Type (0, 0), BuildingBlock: CIFDUS_clean_linker_0, # of connection points: 2
#     Edge 53, Type (0, 0), BuildingBlock: CIFDUS_clean_linker_0, # of connection points: 2
#     Edge 54, Type (0, 0), BuildingBlock: CIFDUS_clean_linker_0, # of connection points: 2
#     Edge 55, Type (0, 0), BuildingBlock: CIFDUS_clean_linker_0, # of connection points: 2
#     Edge 56, Type (0, 0), BuildingBlock: CIFDUS_clean_linker_0, # of connection points: 2
#     Edge 57, Type (0, 0), BuildingBlock: CIFDUS_clean_linker_0, # of connection points: 2
#     Edge 58, Type (0, 0), BuildingBlock: CIFDUS_clean_linker_0, # of connection points: 2
#     Edge 59, Type (0, 0), BuildingBlock: CIFDUS_clean_linker_0, # of connection points: 2
#     Edge 60, Type (0, 0), BuildingBlock: CIFDUS_clean_linker_0, # of connection points: 2
#     Edge 61, Type (0, 0), BuildingBlock: CIFDUS_clean_linker_0, # of connection points: 2
#     Edge 62, Type (0, 0), BuildingBlock: CIFDUS_clean_linker_0, # of connection points: 2
#     Edge 63, Type (0, 0), BuildingBlock: CIFDUS_clean_linker_0, # of connection points: 2
#     Edge 64, Type (0, 0), BuildingBlock: CIFDUS_clean_linker_0, # of connection points: 2
#     Edge 65, Type (0, 0), BuildingBlock: CIFDUS_clean_linker_0, # of connection points: 2
#     Edge 66, Type (0, 0), BuildingBlock: CIFDUS_clean_linker_0, # of connection points: 2
#     Edge 67, Type (0, 0), BuildingBlock: CIFDUS_clean_linker_0, # of connection points: 2
#     Edge 68, Type (0, 0), BuildingBlock: CIFDUS_clean_linker_0, # of connection points: 2
#     Edge 69, Type (0, 0), BuildingBlock: CIFDUS_clean_linker_0, # of connection points: 2
#     Edge 70, Type (0, 0), BuildingBlock: CIFDUS_clean_linker_0, # of connection points: 2
#     Edge 71, Type (0, 0), BuildingBlock: CIFDUS_clean_linker_0, # of connection points: 2
#     Edge 72, Type (0, 0), BuildingBlock: CIFDUS_clean_linker_0, # of connection points: 2
#     Edge 73, Type (0, 0), BuildingBlock: CIFDUS_clean_linker_0, # of connection points: 2
#     Edge 74, Type (0, 0), BuildingBlock: CIFDUS_clean_linker_0, # of connection points: 2
#     Edge 75, Type (0, 0), BuildingBlock: CIFDUS_clean_linker_0, # of connection points: 2
#     Edge 76, Type (0, 0), BuildingBlock: CIFDUS_clean_linker_0, # of connection points: 2
#     Edge 77, Type (0, 0), BuildingBlock: CIFDUS_clean_linker_0, # of connection points: 2
#     Edge 78, Type (0, 0), BuildingBlock: CIFDUS_clean_linker_0, # of connection points: 2
#     Edge 79, Type (0, 0), BuildingBlock: CIFDUS_clean_linker_0, # of connection points: 2
#     Edge 80, Type (0, 0), BuildingBlock: CIFDUS_clean_linker_0, # of connection points: 2
#     Edge 81, Type (0, 0), BuildingBlock: CIFDUS_clean_linker_0, # of connection points: 2
#     Edge 82, Type (0, 0), BuildingBlock: CIFDUS_clean_linker_0, # of connection points: 2
#     Edge 83, Type (0, 0), BuildingBlock: CIFDUS_clean_linker_0, # of connection points: 2
#     Edge 84, Type (0, 0), BuildingBlock: CIFDUS_clean_linker_0, # of connection points: 2
#     Edge 85, Type (0, 0), BuildingBlock: CIFDUS_clean_linker_0, # of connection points: 2
#     Edge 86, Type (0, 0), BuildingBlock: CIFDUS_clean_linker_0, # of connection points: 2
#     Edge 87, Type (0, 0), BuildingBlock: CIFDUS_clean_linker_0, # of connection points: 2
#     Edge 88, Type (0, 0), BuildingBlock: CIFDUS_clean_linker_0, # of connection points: 2
#     Edge 89, Type (0, 0), BuildingBlock: CIFDUS_clean_linker_0, # of connection points: 2
#     Edge 90, Type (0, 0), BuildingBlock: CIFDUS_clean_linker_0, # of connection points: 2
#     Edge 91, Type (0, 0), BuildingBlock: CIFDUS_clean_linker_0, # of connection points: 2
#     Edge 92, Type (0, 0), BuildingBlock: CIFDUS_clean_linker_0, # of connection points: 2
#     Edge 93, Type (0, 0), BuildingBlock: CIFDUS_clean_linker_0, # of connection points: 2
#     Edge 94, Type (0, 0), BuildingBlock: CIFDUS_clean_linker_0, # of connection points: 2
#     Edge 95, Type (0, 0), BuildingBlock: CIFDUS_clean_linker_0, # of connection points: 2
#     Edge 96, Type (0, 0), BuildingBlock: CIFDUS_clean_linker_0, # of connection points: 2
#     Edge 97, Type (0, 0), BuildingBlock: CIFDUS_clean_linker_0, # of connection points: 2
#     Edge 98, Type (0, 0), BuildingBlock: CIFDUS_clean_linker_0, # of connection points: 2
#     Edge 99, Type (0, 0), BuildingBlock: CIFDUS_clean_linker_0, # of connection points: 2
#     Edge 100, Type (0, 0), BuildingBlock: CIFDUS_clean_linker_0, # of connection points: 2
#     Edge 101, Type (0, 0), BuildingBlock: CIFDUS_clean_linker_0, # of connection points: 2
#     Edge 102, Type (0, 0), BuildingBlock: CIFDUS_clean_linker_0, # of connection points: 2
#     Edge 103, Type (0, 0), BuildingBlock: CIFDUS_clean_linker_0, # of connection points: 2
#     Edge 104, Type (0, 0), BuildingBlock: CIFDUS_clean_linker_0, # of connection points: 2
#     Edge 105, Type (0, 0), BuildingBlock: CIFDUS_clean_linker_0, # of connection points: 2
#     Edge 106, Type (0, 0), BuildingBlock: CIFDUS_clean_linker_0, # of connection points: 2
#     Edge 107, Type (0, 0), BuildingBlock: CIFDUS_clean_linker_0, # of connection points: 2
#     Edge 108, Type (0, 0), BuildingBlock: CIFDUS_clean_linker_0, # of connection points: 2
#     Edge 109, Type (0, 0), BuildingBlock: CIFDUS_clean_linker_0, # of connection points: 2
#     Edge 110, Type (0, 0), BuildingBlock: CIFDUS_clean_linker_0, # of connection points: 2
#     Edge 111, Type (0, 0), BuildingBlock: CIFDUS_clean_linker_0, # of connection points: 2
#     Edge 112, Type (0, 0), BuildingBlock: CIFDUS_clean_linker_0, # of connection points: 2
#     Edge 113, Type (0, 0), BuildingBlock: CIFDUS_clean_linker_0, # of connection points: 2
#     Edge 114, Type (0, 0), BuildingBlock: CIFDUS_clean_linker_0, # of connection points: 2
#     Edge 115, Type (0, 0), BuildingBlock: CIFDUS_clean_linker_0, # of connection points: 2
#     Edge 116, Type (0, 0), BuildingBlock: CIFDUS_clean_linker_0, # of connection points: 2
#     Edge 117, Type (0, 0), BuildingBlock: CIFDUS_clean_linker_0, # of connection points: 2
#     Edge 118, Type (0, 0), BuildingBlock: CIFDUS_clean_linker_0, # of connection points: 2
#     Edge 119, Type (0, 0), BuildingBlock: CIFDUS_clean_linker_0, # of connection points: 2
#     Edge 120, Type (0, 0), BuildingBlock: CIFDUS_clean_linker_0, # of connection points: 2
#     Edge 121, Type (0, 0), BuildingBlock: CIFDUS_clean_linker_0, # of connection points: 2
#     Edge 122, Type (0, 0), BuildingBlock: CIFDUS_clean_linker_0, # of connection points: 2
#     Edge 123, Type (0, 0), BuildingBlock: CIFDUS_clean_linker_0, # of connection points: 2
#     Edge 124, Type (0, 0), BuildingBlock: CIFDUS_clean_linker_0, # of connection points: 2
#     Edge 125, Type (0, 0), BuildingBlock: CIFDUS_clean_linker_0, # of connection points: 2
#     Edge 126, Type (0, 0), BuildingBlock: CIFDUS_clean_linker_0, # of connection points: 2
#     Edge 127, Type (0, 0), BuildingBlock: CIFDUS_clean_linker_0, # of connection points: 2
#     Edge 128, Type (0, 0), BuildingBlock: CIFDUS_clean_linker_0, # of connection points: 2
#     Edge 129, Type (0, 0), BuildingBlock: CIFDUS_clean_linker_0, # of connection points: 2
#     Edge 130, Type (0, 0), BuildingBlock: CIFDUS_clean_linker_0, # of connection points: 2
#     Edge 131, Type (0, 0), BuildingBlock: CIFDUS_clean_linker_0, # of connection points: 2
#     Edge 132, Type (0, 0), BuildingBlock: CIFDUS_clean_linker_0, # of connection points: 2
#     Edge 133, Type (0, 0), BuildingBlock: CIFDUS_clean_linker_0, # of connection points: 2
#     Edge 134, Type (0, 0), BuildingBlock: CIFDUS_clean_linker_0, # of connection points: 2
#     Edge 135, Type (0, 0), BuildingBlock: CIFDUS_clean_linker_0, # of connection points: 2
#     Edge 136, Type (0, 0), BuildingBlock: CIFDUS_clean_linker_0, # of connection points: 2
#     Edge 137, Type (0, 0), BuildingBlock: CIFDUS_clean_linker_0, # of connection points: 2
#     Edge 138, Type (0, 0), BuildingBlock: CIFDUS_clean_linker_0, # of connection points: 2
#     Edge 139, Type (0, 0), BuildingBlock: CIFDUS_clean_linker_0, # of connection points: 2
#     Edge 140, Type (0, 0), BuildingBlock: CIFDUS_clean_linker_0, # of connection points: 2
#     Edge 141, Type (0, 0), BuildingBlock: CIFDUS_clean_linker_0, # of connection points: 2
#     Edge 142, Type (0, 0), BuildingBlock: CIFDUS_clean_linker_0, # of connection points: 2
#     Edge 143, Type (0, 0), BuildingBlock: CIFDUS_clean_linker_0, # of connection points: 2
# Relax obj value: 0.317
# Max RMSD: 0.110
# Mean RMSD: 0.110
data_MOF--net-uli--node1-QUQFOY_clean_sbu_1--edge1-CIFDUS_clean_linker_0
_symmetry_space_group_name_H-M    P1
_symmetry_Int_Tables_number       1
_symmetry_cell_setting            triclinic
loop_
_symmetry_equiv_pos_as_xyz
'x, y, z'
_cell_length_a     64.224378
_cell_length_b     64.273016
_cell_length_c     64.263412
_cell_angle_alpha  89.973022
_cell_angle_beta   89.983797
_cell_angle_gamma 90.002019
loop_
_atom_site_label
_atom_site_type_symbol
_atom_site_fract_x
_atom_site_fract_y
_atom_site_fract_z
_atom_type_partial_charge
O0 O 0.1192 0.2313 0.23053 0.0
Cd1 Cd 0.09915 0.24757 0.21187 0.0
Cd2 Cd 0.13372 0.27971 0.22007 0.0
O3 O 0.14433 0.25404 0.23648 0.0
O4 O 0.0782 0.22535 0.20695 0.0
O5 O 0.07033 0.25477 0.22267 0.0
C6 C 0.06457 0.23664 0.21623 0.0
C7 C 0.15068 0.31092 0.22938 0.0
C8 C 0.13655 0.23598 0.23872 0.0
C9 C 0.12279 0.26552 0.1755 0.0
O10 O 0.13247 0.27708 0.18824 0.0
O11 O 0.109 0.2528 0.18177 0.0
O12 O 0.16003 0.29599 0.22003 0.0
O13 O 0.13137 0.30821 0.23413 0.0
O14 O 0.77847 0.10559 0.23701 0.0
Cd15 Cd 0.75081 0.09625 0.2241 0.0
Cd16 Cd 0.73699 0.12107 0.25123 0.0
O17 O 0.76532 0.11774 0.26614 0.0
O18 O 0.7585 0.07022 0.20958 0.0
O19 O 0.73758 0.0711 0.23699 0.0
C20 C 0.74814 0.06035 0.22367 0.0
C21 C 0.70355 0.11725 0.26383 0.0
C22 C 0.78107 0.11273 0.25523 0.0
C23 C 0.73547 0.13571 0.20766 0.0
O24 O 0.73716 0.14136 0.22653 0.0
O25 O 0.73761 0.1166 0.20293 0.0
O26 O 0.71558 0.13183 0.27065 0.0
O27 O 0.71138 0.10332 0.25161 0.0
O28 O 0.90113 0.78616 0.19791 0.0
Cd29 Cd 0.91347 0.76116 0.1824 0.0
Cd30 Cd 0.89338 0.73813 0.21195 0.0
O31 O 0.89519 0.76726 0.22584 0.0
O32 O 0.94073 0.76956 0.17088 0.0
O33 O 0.93701 0.74733 0.19716 0.0
C34 C 0.94907 0.75828 0.1853 0.0
C35 C 0.88548 0.71098 0.23504 0.0
C36 C 0.89626 0.78494 0.21702 0.0
C37 C 0.87872 0.73724 0.16634 0.0
O38 O 0.87544 0.73398 0.18556 0.0
O39 O 0.89492 0.74695 0.16054 0.0
O40 O 0.87326 0.72647 0.23214 0.0
O41 O 0.90309 0.71097 0.2254 0.0
O42 O 0.20085 0.91222 0.18951 0.0
Cd43 Cd 0.22785 0.92634 0.18026 0.0
Cd44 Cd 0.24625 0.89958 0.20742 0.0
O45 O 0.21556 0.90006 0.21795 0.0
O46 O 0.22239 0.95648 0.17766 0.0
O47 O 0.24277 0.94264 0.20204 0.0
C48 C 0.23354 0.95877 0.19427 0.0
C49 C 0.27069 0.88526 0.23047 0.0
C50 C 0.19929 0.90369 0.20724 0.0
C51 C 0.25243 0.89531 0.15969 0.0
O52 O 0.25339 0.88828 0.17815 0.0
O53 O 0.24348 0.91253 0.15603 0.0
O54 O 0.25528 0.87477 0.22334 0.0
O55 O 0.27187 0.90467 0.22552 0.0
O56 O 0.10377 0.77256 0.77327 0.0
Cd57 Cd 0.09238 0.7478 0.78991 0.0
Cd58 Cd 0.1155 0.7291 0.76422 0.0
O59 O 0.11149 0.75474 0.74518 0.0
O60 O 0.06871 0.76039 0.80502 0.0
O61 O 0.06481 0.73719 0.77981 0.0
C62 C 0.05658 0.75044 0.79251 0.0
C63 C 0.11305 0.69405 0.75708 0.0
C64 C 0.10886 0.77216 0.75419 0.0
C65 C 0.13108 0.7322 0.80706 0.0
O66 O 0.13653 0.73269 0.78806 0.0
O67 O 0.11205 0.73486 0.81182 0.0
O68 O 0.12673 0.70556 0.7479 0.0
O69 O 0.09878 0.70307 0.76806 0.0
O70 O 0.21091 0.09869 0.81481 0.0
Cd71 Cd 0.23807 0.08478 0.82403 0.0
Cd72 Cd 0.25443 0.10597 0.79349 0.0
O73 O 0.22363 0.10422 0.78358 0.0
O74 O 0.23079 0.05616 0.8322 0.0
O75 O 0.24931 0.06403 0.80398 0.0
C76 C 0.23941 0.05034 0.81496 0.0
C77 C 0.28028 0.112 0.76863 0.0
C78 C 0.20812 0.10349 0.79587 0.0
C79 C 0.26299 0.11846 0.83862 0.0
O80 O 0.26163 0.12344 0.81952 0.0
O81 O 0.25605 0.10103 0.8448 0.0
O82 O 0.26538 0.12493 0.77185 0.0
O83 O 0.27995 0.09459 0.7786 0.0
O84 O 0.88293 0.20956 0.77601 0.0
Cd85 Cd 0.90076 0.22816 0.79477 0.0
Cd86 Cd 0.86935 0.25835 0.785 0.0
O87 O 0.85976 0.23329 0.76704 0.0
O88 O 0.92781 0.21344 0.79696 0.0
O89 O 0.92448 0.24442 0.78227 0.0
C90 C 0.93621 0.22886 0.78726 0.0
C91 C 0.85539 0.29062 0.77442 0.0
C92 C 0.86672 0.21478 0.766 0.0
C93 C 0.8754 0.24346 0.83014 0.0
O94 O 0.86667 0.25509 0.81676 0.0
O95 O 0.89002 0.23127 0.82484 0.0
O96 O 0.84411 0.27598 0.78193 0.0
O97 O 0.875 0.28698 0.77218 0.0
O98 O 0.77707 0.89499 0.74919 0.0
Cd99 Cd 0.75178 0.90642 0.76515 0.0
Cd100 Cd 0.7339 0.87984 0.74195 0.0
O101 O 0.75971 0.88184 0.72286 0.0
O102 O 0.76267 0.93213 0.7782 0.0
O103 O 0.73833 0.93229 0.7538 0.0
C104 C 0.75077 0.94253 0.76583 0.0
C105 C 0.69884 0.88074 0.73411 0.0
C106 C 0.77697 0.88665 0.73128 0.0
C107 C 0.7379 0.86853 0.78608 0.0
O108 O 0.7378 0.86136 0.76768 0.0
O109 O 0.74045 0.88794 0.78898 0.0
O110 O 0.71077 0.86639 0.72668 0.0
O111 O 0.7074 0.89624 0.74368 0.0
O112 O 0.24505 0.11637 0.21045 0.0
Cd113 Cd 0.23077 0.10863 0.23793 0.0
Cd114 Cd 0.26229 0.12811 0.25122 0.0
O115 O 0.27639 0.12206 0.22294 0.0
O116 O 0.21011 0.08764 0.22872 0.0
O117 O 0.23736 0.07994 0.24836 0.0
C118 C 0.22165 0.07374 0.23744 0.0
C119 C 0.27069 0.11982 0.28501 0.0
C120 C 0.26432 0.11962 0.20744 0.0
C121 C 0.22256 0.15036 0.25405 0.0
O122 O 0.24197 0.15276 0.25103 0.0
O123 O 0.21461 0.13226 0.25273 0.0
O124 O 0.28181 0.13298 0.27458 0.0
O125 O 0.25668 0.10921 0.27519 0.0
O126 O 0.89958 0.20807 0.20672 0.0
Cd127 Cd 0.91184 0.1992 0.23489 0.0
Cd128 Cd 0.88974 0.23007 0.24953 0.0
O129 O 0.89111 0.23904 0.21851 0.0
O130 O 0.94117 0.1907 0.23094 0.0
O131 O 0.9316 0.21937 0.24774 0.0
C132 C 0.94627 0.20783 0.2402 0.0
C133 C 0.88408 0.25492 0.27543 0.0
C134 C 0.89324 0.22648 0.20336 0.0
C135 C 0.87664 0.18549 0.25901 0.0
O136 O 0.87183 0.20457 0.25722 0.0
O137 O 0.89413 0.17904 0.25244 0.0
O138 O 0.87122 0.25215 0.26038 0.0
O139 O 0.90142 0.2448 0.27497 0.0
O140 O 0.77402 0.89087 0.21497 0.0
Cd141 Cd 0.79345 0.90755 0.23382 0.0
Cd142 Cd 0.78284 0.87339 0.26186 0.0
O143 O 0.76391 0.8663 0.23674 0.0
O144 O 0.79762 0.93299 0.21685 0.0
O145 O 0.78204 0.93341 0.2475 0.0
C146 C 0.78785 0.94326 0.23097 0.0
C147 C 0.77224 0.85828 0.29359 0.0
C148 C 0.7632 0.87485 0.2189 0.0
C149 C 0.82802 0.87961 0.24675 0.0
O150 O 0.81436 0.86986 0.25721 0.0
O151 O 0.8232 0.8959 0.23665 0.0
O152 O 0.7792 0.84745 0.27835 0.0
O153 O 0.77072 0.8781 0.29093 0.0
O154 O 0.11709 0.77106 0.21882 0.0
Cd155 Cd 0.09708 0.78904 0.23581 0.0
Cd156 Cd 0.12867 0.78135 0.26717 0.0
O157 O 0.14121 0.76481 0.24246 0.0
O158 O 0.07309 0.79054 0.21646 0.0
O159 O 0.0709 0.77622 0.24763 0.0
C160 C 0.06222 0.78061 0.23004 0.0
C161 C 0.14129 0.77113 0.30001 0.0
C162 C 0.13425 0.76281 0.22404 0.0
C163 C 0.11971 0.82594 0.25236 0.0
O164 O 0.12883 0.81319 0.26437 0.0
O165 O 0.10604 0.81965 0.23954 0.0
O166 O 0.15277 0.78025 0.28647 0.0
O167 O 0.12229 0.76714 0.29493 0.0
O168 O 0.20698 0.88928 0.79023 0.0
Cd169 Cd 0.19055 0.90675 0.76931 0.0
Cd170 Cd 0.21397 0.87991 0.74099 0.0
O171 O 0.23101 0.87805 0.76844 0.0
O172 O 0.18112 0.93032 0.78665 0.0
O173 O 0.20378 0.93375 0.76088 0.0
C174 C 0.194 0.94186 0.77647 0.0
C175 C 0.22954 0.86388 0.71202 0.0
C176 C 0.2244 0.8806 0.78694 0.0
C177 C 0.16558 0.8771 0.74624 0.0
O178 O 0.18326 0.87048 0.74042 0.0
O179 O 0.1642 0.89352 0.7571 0.0
O180 O 0.22386 0.8537 0.72821 0.0
O181 O 0.22788 0.88386 0.71255 0.0
O182 O 0.10984 0.22688 0.7759 0.0
Cd183 Cd 0.09249 0.20475 0.76089 0.0
Cd184 Cd 0.12308 0.21399 0.72771 0.0
O185 O 0.13305 0.2335 0.75137 0.0
O186 O 0.06955 0.19939 0.78096 0.0
O187 O 0.06406 0.21221 0.74954 0.0
C188 C 0.05669 0.20632 0.76728 0.0
C189 C 0.13648 0.22271 0.6947 0.0
C190 C 0.12599 0.23641 0.76964 0.0
C191 C 0.12017 0.17012 0.7463 0.0
O192 O 0.12707 0.18267 0.73271 0.0
O193 O 0.10625 0.17582 0.75912 0.0
O194 O 0.14797 0.21602 0.70955 0.0
O195 O 0.11695 0.22532 0.69849 0.0
O196 O 0.7417 0.10752 0.77426 0.0
Cd197 Cd 0.75667 0.09975 0.74713 0.0
Cd198 Cd 0.73055 0.12594 0.73288 0.0
O199 O 0.71391 0.12154 0.76009 0.0
O200 O 0.77023 0.07305 0.75432 0.0
O201 O 0.74503 0.0757 0.73093 0.0
C202 C 0.75728 0.06409 0.74186 0.0
C203 C 0.71863 0.12606 0.69892 0.0
C204 C 0.72359 0.11519 0.77614 0.0
C205 C 0.77465 0.13977 0.73534 0.0
O206 O 0.75572 0.14548 0.73557 0.0
O207 O 0.77915 0.12057 0.73717 0.0
O208 O 0.71227 0.13971 0.71219 0.0
O209 O 0.73002 0.11086 0.70554 0.0
O210 O 0.89802 0.79653 0.78679 0.0
Cd211 Cd 0.91279 0.80671 0.76052 0.0
Cd212 Cd 0.88736 0.77991 0.74096 0.0
O213 O 0.88942 0.76757 0.77085 0.0
O214 O 0.94201 0.81135 0.76865 0.0
O215 O 0.93182 0.78599 0.74736 0.0
C216 C 0.94636 0.79465 0.7583 0.0
C217 C 0.87504 0.75682 0.71569 0.0
C218 C 0.89159 0.77792 0.78758 0.0
C219 C 0.88115 0.8273 0.73674 0.0
O220 O 0.8741 0.80884 0.7358 0.0
O221 O 0.89889 0.83075 0.74474 0.0
O222 O 0.86388 0.76244 0.73124 0.0
O223 O 0.89388 0.76366 0.71453 0.0
O224 O 0.19779 0.20147 0.08513 0.0
Cd225 Cd 0.22406 0.19124 0.0703 0.0
Cd226 Cd 0.244 0.21803 0.09504 0.0
O227 O 0.21381 0.22972 0.09591 0.0
O228 O 0.21813 0.18891 0.0402 0.0
O229 O 0.23916 0.21277 0.05393 0.0
C230 C 0.22954 0.20535 0.03789 0.0
C231 C 0.27078 0.2407 0.10467 0.0
C232 C 0.19709 0.21942 0.09328 0.0
C233 C 0.24903 0.17075 0.10119 0.0
O234 O 0.25049 0.18928 0.10789 0.0
O235 O 0.23974 0.16703 0.08415 0.0
O236 O 0.25606 0.23566 0.1172 0.0
O237 O 0.26989 0.23384 0.08583 0.0
O238 O 0.22722 0.75701 0.8894 0.0
Cd239 Cd 0.24481 0.77644 0.90752 0.0
Cd240 Cd 0.27449 0.76753 0.87633 0.0
O241 O 0.25114 0.74753 0.86665 0.0
O242 O 0.22977 0.77688 0.93446 0.0
O243 O 0.26195 0.76501 0.93105 0.0
C244 C 0.24594 0.76838 0.94277 0.0
C245 C 0.308 0.76089 0.86314 0.0
C246 C 0.23258 0.74656 0.87352 0.0
C247 C 0.25667 0.81188 0.88137 0.0
O248 O 0.26814 0.79856 0.87239 0.0
O249 O 0.24602 0.80677 0.8972 0.0
O250 O 0.29276 0.76634 0.85149 0.0
O251 O 0.30427 0.75795 0.88262 0.0
O252 O 0.24643 0.22944 0.88285 0.0
Cd253 Cd 0.22747 0.2542 0.88977 0.0
Cd254 Cd 0.25565 0.27147 0.86804 0.0
O255 O 0.27487 0.24664 0.87475 0.0
O256 O 0.20802 0.24097 0.90969 0.0
O257 O 0.23072 0.26518 0.91886 0.0
C258 C 0.21702 0.25146 0.92419 0.0
C259 C 0.25838 0.30648 0.87469 0.0
C260 C 0.26578 0.22956 0.87884 0.0
C261 C 0.21523 0.26679 0.84767 0.0
O262 O 0.23473 0.26659 0.84428 0.0
O263 O 0.20853 0.26528 0.86624 0.0
O264 O 0.27066 0.2975 0.86151 0.0
O265 O 0.24661 0.29491 0.88627 0.0
O266 O 0.78862 0.18095 0.91059 0.0
Cd267 Cd 0.76033 0.1719 0.92235 0.0
Cd268 Cd 0.74493 0.20333 0.89952 0.0
O269 O 0.77618 0.21155 0.90155 0.0
O270 O 0.76388 0.16284 0.95154 0.0
O271 O 0.74759 0.19195 0.94229 0.0
C272 C 0.75484 0.18004 0.95683 0.0
C273 C 0.72172 0.23007 0.89075 0.0
C274 C 0.7916 0.1994 0.90421 0.0
C275 C 0.73575 0.15802 0.88735 0.0
O276 O 0.73655 0.17722 0.88274 0.0
O277 O 0.74327 0.1516 0.90445 0.0
O278 O 0.73666 0.22451 0.87872 0.0
O279 O 0.72035 0.22121 0.9087 0.0
O280 O 0.76324 0.78225 0.87991 0.0
Cd281 Cd 0.78154 0.76761 0.90143 0.0
Cd282 Cd 0.77893 0.73456 0.87119 0.0
O283 O 0.75924 0.75634 0.85773 0.0
O284 O 0.77769 0.78431 0.92707 0.0
O285 O 0.76861 0.75117 0.92466 0.0
C286 C 0.76944 0.76808 0.93551 0.0
C287 C 0.77577 0.70071 0.85738 0.0
C288 C 0.75567 0.77504 0.86316 0.0
C289 C 0.82099 0.7558 0.88149 0.0
O290 O 0.80989 0.74235 0.87222 0.0
O291 O 0.8129 0.76795 0.8948 0.0
O292 O 0.78255 0.71609 0.84666 0.0
O293 O 0.76982 0.70442 0.87618 0.0
O294 O 0.77678 0.77106 0.09521 0.0
Cd295 Cd 0.7486 0.78486 0.08921 0.0
Cd296 Cd 0.73621 0.75382 0.11033 0.0
O297 O 0.76442 0.74007 0.10295 0.0
O298 O 0.75358 0.80315 0.06475 0.0
O299 O 0.73433 0.77453 0.06361 0.0
C300 C 0.74317 0.78979 0.05395 0.0
C301 C 0.70201 0.74377 0.10619 0.0
C302 C 0.77985 0.75194 0.09918 0.0
C303 C 0.73531 0.79432 0.13162 0.0
O304 O 0.73785 0.77489 0.13415 0.0
O305 O 0.73598 0.80204 0.11339 0.0
O306 O 0.71421 0.73374 0.11866 0.0
O307 O 0.71013 0.75749 0.09391 0.0
O308 O 0.24819 0.78561 0.10541 0.0
Cd309 Cd 0.2341 0.75758 0.09936 0.0
Cd310 Cd 0.2644 0.74516 0.12163 0.0
O311 O 0.27878 0.77303 0.11426 0.0
O312 O 0.21569 0.76295 0.07504 0.0
O313 O 0.2439 0.74317 0.07355 0.0
C314 C 0.22863 0.75218 0.06409 0.0
C315 C 0.27333 0.7108 0.11655 0.0
C316 C 0.26722 0.78853 0.10992 0.0
C317 C 0.22351 0.74459 0.14187 0.0
O318 O 0.24285 0.74719 0.14505 0.0
O319 O 0.21646 0.74509 0.12336 0.0
O320 O 0.28365 0.72225 0.12949 0.0
O321 O 0.2599 0.71971 0.10452 0.0
O322 O 0.75885 0.22957 0.12136 0.0
Cd323 Cd 0.77695 0.24543 0.1005 0.0
Cd324 Cd 0.76833 0.27883 0.1305 0.0
O325 O 0.75255 0.2543 0.14431 0.0
O326 O 0.77972 0.22393 0.07851 0.0
O327 O 0.765 0.25443 0.07277 0.0
C328 C 0.7701 0.23623 0.06598 0.0
C329 C 0.75663 0.31166 0.14186 0.0
C330 C 0.75067 0.23555 0.1383 0.0
C331 C 0.81332 0.26459 0.12237 0.0
O332 O 0.80034 0.27708 0.13051 0.0
O333 O 0.80728 0.25059 0.10979 0.0
O334 O 0.76674 0.29919 0.15369 0.0
O335 O 0.75268 0.30559 0.12316 0.0
O336 O 0.61413 0.72558 0.76123 0.0
Cd337 Cd 0.60457 0.75111 0.7446 0.0
Cd338 Cd 0.63064 0.76726 0.76985 0.0
O339 O 0.62766 0.74121 0.78844 0.0
O340 O 0.58115 0.73837 0.72921 0.0
O341 O 0.57671 0.76322 0.75259 0.0
C342 C 0.5687 0.7494 0.74039 0.0
C343 C 0.62656 0.80223 0.77636 0.0
C344 C 0.62184 0.72463 0.77937 0.0
C345 C 0.64452 0.76362 0.72639 0.0
O346 O 0.65054 0.76345 0.74522 0.0
O347 O 0.62523 0.76182 0.72222 0.0
O348 O 0.64119 0.79169 0.7853 0.0
O349 O 0.61249 0.79223 0.76597 0.0
O350 O 0.27921 0.60749 0.74533 0.0
Cd351 Cd 0.25527 0.59471 0.72855 0.0
Cd352 Cd 0.23446 0.6211 0.74993 0.0
O353 O 0.26021 0.62288 0.76926 0.0
O354 O 0.26738 0.5683 0.71842 0.0
O355 O 0.24074 0.56968 0.74029 0.0
C356 C 0.25435 0.55872 0.73032 0.0
C357 C 0.19962 0.61812 0.75872 0.0
C358 C 0.27797 0.61765 0.76221 0.0
C359 C 0.24032 0.63052 0.70495 0.0
O360 O 0.23703 0.638 0.72294 0.0
O361 O 0.24581 0.61162 0.70296 0.0
O362 O 0.21049 0.63397 0.76448 0.0
O363 O 0.20914 0.60271 0.74998 0.0
O364 O 0.3908 0.27241 0.72991 0.0
Cd365 Cd 0.41146 0.25595 0.71208 0.0
Cd366 Cd 0.37702 0.22401 0.71796 0.0
O367 O 0.3675 0.24814 0.73708 0.0
O368 O 0.43571 0.27507 0.71152 0.0
O369 O 0.43722 0.24368 0.72539 0.0
C370 C 0.44626 0.26115 0.72131 0.0
C371 C 0.35619 0.19399 0.72241 0.0
C372 C 0.3742 0.26666 0.73897 0.0
C373 C 0.38903 0.24174 0.67435 0.0
O374 O 0.37882 0.23012 0.68664 0.0
O375 O 0.40354 0.2533 0.68114 0.0
O376 O 0.34908 0.21112 0.71516 0.0
O377 O 0.37547 0.19364 0.72791 0.0
O378 O 0.71253 0.41349 0.69563 0.0
Cd379 Cd 0.74181 0.42301 0.68723 0.0
Cd380 Cd 0.75504 0.39376 0.71394 0.0
O381 O 0.72537 0.401 0.7248 0.0
O382 O 0.74194 0.45357 0.68374 0.0
O383 O 0.75666 0.43709 0.71049 0.0
C384 C 0.75111 0.4543 0.70164 0.0
C385 C 0.77685 0.37704 0.73792 0.0
C386 C 0.70978 0.40655 0.71391 0.0
C387 C 0.75996 0.38757 0.6668 0.0
O388 O 0.75882 0.38007 0.68506 0.0
O389 O 0.7557 0.40658 0.66358 0.0
O390 O 0.75976 0.36887 0.7316 0.0
O391 O 0.78155 0.39539 0.73129 0.0
O392 O 0.59893 0.26485 0.26652 0.0
Cd393 Cd 0.59152 0.23731 0.28104 0.0
Cd394 Cd 0.61667 0.22393 0.25419 0.0
O395 O 0.61011 0.2506 0.23753 0.0
O396 O 0.56566 0.24362 0.29658 0.0
O397 O 0.56668 0.22261 0.26922 0.0
C398 C 0.55589 0.23251 0.28302 0.0
C399 C 0.61672 0.18966 0.24361 0.0
C400 C 0.60483 0.2667 0.24774 0.0
C401 C 0.63232 0.22584 0.29712 0.0
O402 O 0.6375 0.22774 0.27814 0.0
O403 O 0.61314 0.22602 0.30206 0.0
O404 O 0.62955 0.20296 0.23572 0.0
O405 O 0.60213 0.1964 0.25572 0.0
O406 O 0.72069 0.60997 0.27924 0.0
Cd407 Cd 0.73525 0.59073 0.29991 0.0
Cd408 Cd 0.76911 0.62289 0.29064 0.0
O409 O 0.74603 0.63111 0.2696 0.0
O410 O 0.71356 0.56892 0.30249 0.0
O411 O 0.74489 0.56254 0.28987 0.0
C412 C 0.7263 0.55606 0.29396 0.0
C413 C 0.80053 0.64101 0.28473 0.0
C414 C 0.7273 0.62487 0.26813 0.0
C415 C 0.75002 0.61671 0.33501 0.0
O416 O 0.76221 0.62501 0.32185 0.0
O417 O 0.73793 0.602 0.32974 0.0
O418 O 0.78376 0.65004 0.29059 0.0
O419 O 0.7997 0.62126 0.28138 0.0
O420 O 0.3823 0.71764 0.26218 0.0
Cd421 Cd 0.40175 0.73502 0.28032 0.0
Cd422 Cd 0.36662 0.76605 0.27407 0.0
O423 O 0.35906 0.74172 0.25425 0.0
O424 O 0.42793 0.7186 0.27987 0.0
O425 O 0.42562 0.75042 0.26701 0.0
C426 C 0.4366 0.73388 0.27021 0.0
C427 C 0.34392 0.79464 0.26905 0.0
C428 C 0.36607 0.7233 0.25246 0.0
C429 C 0.37861 0.74849 0.31781 0.0
O430 O 0.36831 0.76002 0.3055 0.0
O431 O 0.39328 0.73706 0.31112 0.0
O432 O 0.33774 0.77698 0.27586 0.0
O433 O 0.36339 0.79642 0.26455 0.0
O434 O 0.3104 0.39952 0.31063 0.0
Cd435 Cd 0.2824 0.412 0.31959 0.0
Cd436 Cd 0.2665 0.38941 0.28899 0.0
O437 O 0.29751 0.39157 0.27993 0.0
O438 O 0.28592 0.44172 0.32681 0.0
O439 O 0.26933 0.43062 0.29855 0.0
C440 C 0.27661 0.4459 0.30945 0.0
C441 C 0.24173 0.38266 0.26324 0.0
C442 C 0.31309 0.39359 0.29199 0.0
C443 C 0.25778 0.37743 0.3342 0.0
O444 O 0.25877 0.37236 0.31512 0.0
O445 O 0.26505 0.39477 0.34024 0.0
O446 O 0.25659 0.36992 0.26724 0.0
O447 O 0.24135 0.40015 0.27305 0.0
O448 O 0.69898 0.60044 0.7162 0.0
Cd449 Cd 0.69792 0.59045 0.7467 0.0
Cd450 Cd 0.73065 0.61329 0.7507 0.0
O451 O 0.73246 0.60714 0.71908 0.0
O452 O 0.69069 0.56038 0.74858 0.0
O453 O 0.72256 0.57299 0.7535 0.0
C454 C 0.71035 0.55714 0.75156 0.0
C455 C 0.75898 0.61859 0.77242 0.0
C456 C 0.71638 0.60472 0.70775 0.0
C457 C 0.69094 0.62843 0.76975 0.0
O458 O 0.70798 0.63327 0.76099 0.0
O459 O 0.68392 0.61002 0.76819 0.0
O460 O 0.75582 0.63014 0.75637 0.0
O461 O 0.7475 0.60226 0.77477 0.0
O462 O 0.41105 0.69983 0.70872 0.0
Cd463 Cd 0.42135 0.69042 0.73741 0.0
Cd464 Cd 0.39664 0.71944 0.75118 0.0
O465 O 0.40027 0.72991 0.72085 0.0
O466 O 0.45033 0.68084 0.73384 0.0
O467 O 0.44169 0.70966 0.75089 0.0
C468 C 0.45599 0.6977 0.74325 0.0
C469 C 0.38929 0.74325 0.77752 0.0
C470 C 0.40436 0.71813 0.70549 0.0
C471 C 0.38458 0.67438 0.75799 0.0
O472 O 0.37882 0.6932 0.75622 0.0
O473 O 0.40303 0.66921 0.75306 0.0
O474 O 0.37727 0.74091 0.76173 0.0
O475 O 0.40658 0.73306 0.77789 0.0
O476 O 0.26775 0.39098 0.71354 0.0
Cd477 Cd 0.28404 0.40285 0.73833 0.0
Cd478 Cd 0.25964 0.37897 0.75795 0.0
O479 O 0.24103 0.37971 0.7317 0.0
O480 O 0.29696 0.4288 0.7278 0.0
O481 O 0.27219 0.42827 0.75184 0.0
C482 C 0.28425 0.43883 0.73969 0.0
C483 C 0.25124 0.38445 0.79249 0.0
C484 C 0.24956 0.38326 0.71418 0.0
C485 C 0.30339 0.36519 0.75479 0.0
O486 O 0.28464 0.35906 0.75612 0.0
O487 O 0.30723 0.38409 0.75035 0.0
O488 O 0.24337 0.36908 0.78223 0.0
O489 O 0.26182 0.39824 0.78236 0.0
O490 O 0.61396 0.28801 0.73111 0.0
Cd491 Cd 0.59641 0.30742 0.74924 0.0
Cd492 Cd 0.63128 0.29662 0.77965 0.0
O493 O 0.63726 0.27769 0.75422 0.0
O494 O 0.57165 0.31255 0.73146 0.0
O495 O 0.56977 0.29614 0.76164 0.0
C496 C 0.56062 0.30283 0.74505 0.0
C497 C 0.65241 0.28757 0.80841 0.0
C498 C 0.62961 0.27698 0.73598 0.0
C499 C 0.62352 0.3419 0.76441 0.0
O500 O 0.63282 0.32832 0.77534 0.0
O501 O 0.60817 0.33695 0.75301 0.0
O502 O 0.65981 0.29498 0.79145 0.0
O503 O 0.63257 0.28475 0.80932 0.0
O504 O 0.67824 0.40057 0.30002 0.0
Cd505 Cd 0.66342 0.41357 0.27499 0.0
Cd506 Cd 0.6925 0.39405 0.25196 0.0
O507 O 0.70646 0.39663 0.28104 0.0
O508 O 0.65407 0.44184 0.28254 0.0
O509 O 0.68028 0.4353 0.26082 0.0
C510 C 0.66946 0.44857 0.27144 0.0
C511 C 0.71582 0.38784 0.22468 0.0
C512 C 0.69759 0.39683 0.29874 0.0
C513 C 0.64701 0.37928 0.25116 0.0
O514 O 0.66624 0.37578 0.24808 0.0
O515 O 0.6413 0.39572 0.26048 0.0
O516 O 0.71327 0.37489 0.23964 0.0
O517 O 0.70549 0.40503 0.22514 0.0
O518 O 0.60059 0.73066 0.26581 0.0
Cd519 Cd 0.59039 0.71055 0.24313 0.0
Cd520 Cd 0.61639 0.73277 0.22191 0.0
O521 O 0.61329 0.75477 0.24509 0.0
O522 O 0.56583 0.69709 0.25615 0.0
O523 O 0.5635 0.71826 0.22904 0.0
C524 C 0.55438 0.70717 0.24314 0.0
C525 C 0.61759 0.73825 0.18628 0.0
C526 C 0.60831 0.74868 0.26325 0.0
C527 C 0.62963 0.69003 0.23279 0.0
O528 O 0.63571 0.70852 0.22946 0.0
O529 O 0.61039 0.68642 0.23579 0.0
O530 O 0.63113 0.74649 0.19856 0.0
O531 O 0.60192 0.7286 0.19442 0.0
O532 O 0.25145 0.60211 0.26354 0.0
Cd533 Cd 0.2713 0.58955 0.24188 0.0
Cd534 Cd 0.2493 0.61794 0.21974 0.0
O535 O 0.22795 0.6172 0.24375 0.0
O536 O 0.28433 0.56831 0.26004 0.0
O537 O 0.26548 0.56003 0.23257 0.0
C538 C 0.27549 0.55419 0.24898 0.0
C539 C 0.24161 0.62258 0.18472 0.0
C540 C 0.23415 0.61145 0.26162 0.0
C541 C 0.29398 0.62707 0.22925 0.0
O542 O 0.2759 0.63439 0.22613 0.0
O543 O 0.29633 0.60783 0.2332 0.0
O544 O 0.23607 0.63598 0.19852 0.0
O545 O 0.24968 0.60528 0.19098 0.0
O546 O 0.38505 0.25844 0.26629 0.0
Cd547 Cd 0.40655 0.27642 0.25127 0.0
Cd548 Cd 0.37158 0.27697 0.2193 0.0
O549 O 0.36065 0.25692 0.24212 0.0
O550 O 0.43155 0.27226 0.26891 0.0
O551 O 0.43031 0.26284 0.23586 0.0
C552 C 0.44045 0.26357 0.2532 0.0
C553 C 0.34959 0.27634 0.18981 0.0
C554 C 0.3675 0.25194 0.26001 0.0
C555 C 0.38817 0.31742 0.24027 0.0
O556 O 0.3772 0.3075 0.22717 0.0
O557 O 0.40109 0.308 0.25189 0.0
O558 O 0.34373 0.28333 0.20751 0.0
O559 O 0.3683 0.26919 0.18849 0.0
O560 O 0.70814 0.72791 0.61301 0.0
Cd561 Cd 0.72394 0.7096 0.59241 0.0
Cd562 Cd 0.75775 0.71758 0.62149 0.0
O563 O 0.7338 0.73475 0.63478 0.0
O564 O 0.70508 0.70961 0.56803 0.0
O565 O 0.73704 0.72244 0.56696 0.0
C566 C 0.71943 0.71918 0.55779 0.0
C567 C 0.79096 0.72654 0.63436 0.0
C568 C 0.71484 0.73666 0.62936 0.0
C569 C 0.74171 0.67287 0.61369 0.0
O570 O 0.7546 0.68571 0.62138 0.0
O571 O 0.72746 0.67899 0.60143 0.0
O572 O 0.77706 0.71772 0.64563 0.0
O573 O 0.78605 0.73103 0.61544 0.0
O574 O 0.72221 0.26156 0.38352 0.0
Cd575 Cd 0.7346 0.28228 0.40427 0.0
Cd576 Cd 0.76569 0.28621 0.36994 0.0
O577 O 0.74558 0.26375 0.35839 0.0
O578 O 0.71682 0.27765 0.4291 0.0
O579 O 0.7508 0.27244 0.42935 0.0
C580 C 0.73323 0.27202 0.43911 0.0
C581 C 0.79718 0.28811 0.35099 0.0
C582 C 0.72876 0.25625 0.36567 0.0
C583 C 0.73912 0.32377 0.38406 0.0
O584 O 0.75373 0.31566 0.37352 0.0
O585 O 0.72925 0.31312 0.39746 0.0
O586 O 0.77954 0.29306 0.34315 0.0
O587 O 0.7973 0.28144 0.3699 0.0
O588 O 0.68276 0.71095 0.40048 0.0
Cd589 Cd 0.67348 0.74005 0.4096 0.0
Cd590 Cd 0.70454 0.75256 0.38416 0.0
O591 O 0.71374 0.72238 0.39146 0.0
O592 O 0.66092 0.73671 0.43746 0.0
O593 O 0.69093 0.75299 0.43187 0.0
C594 C 0.67736 0.74565 0.44483 0.0
C595 C 0.73072 0.77507 0.37229 0.0
C596 C 0.70151 0.70733 0.39546 0.0
C597 C 0.65904 0.75918 0.37154 0.0
O598 O 0.67804 0.75716 0.36638 0.0
O599 O 0.65331 0.75523 0.39002 0.0
O600 O 0.72585 0.75835 0.36253 0.0
O601 O 0.72138 0.77888 0.38964 0.0
O602 O 0.29034 0.68209 0.39184 0.0
Cd603 Cd 0.26219 0.67437 0.40481 0.0
Cd604 Cd 0.24813 0.70559 0.38309 0.0
O605 O 0.27925 0.71389 0.3862 0.0
O606 O 0.26793 0.66547 0.4336 0.0
O607 O 0.25136 0.69478 0.42549 0.0
C608 C 0.26 0.68304 0.43939 0.0
C609 C 0.22423 0.73225 0.37714 0.0
C610 C 0.29415 0.70091 0.38732 0.0
C611 C 0.23755 0.66123 0.37004 0.0
O612 O 0.24016 0.68017 0.36499 0.0
O613 O 0.24345 0.65486 0.3878 0.0
O614 O 0.23907 0.72829 0.36436 0.0
O615 O 0.22329 0.72172 0.3942 0.0
O616 O 0.26465 0.26636 0.38704 0.0
Cd617 Cd 0.28025 0.24027 0.39691 0.0
Cd618 Cd 0.25375 0.22466 0.37118 0.0
O619 O 0.23626 0.25126 0.3754 0.0
O620 O 0.29753 0.2523 0.41938 0.0
O621 O 0.27214 0.22983 0.42535 0.0
C622 C 0.28599 0.24252 0.43252 0.0
C623 C 0.24319 0.19031 0.37071 0.0
C624 C 0.24613 0.26769 0.3803 0.0
C625 C 0.29743 0.22681 0.3572 0.0
O626 O 0.27859 0.22811 0.35136 0.0
O627 O 0.30181 0.228 0.37645 0.0
O628 O 0.23613 0.20355 0.35737 0.0
O629 O 0.25433 0.19716 0.386 0.0
O630 O 0.29755 0.28423 0.59422 0.0
Cd631 Cd 0.27176 0.29665 0.58025 0.0
Cd632 Cd 0.25026 0.27213 0.60578 0.0
O633 O 0.2792 0.25762 0.60536 0.0
O634 O 0.27882 0.30054 0.55065 0.0
O635 O 0.25578 0.27727 0.562 0.0
C636 C 0.26657 0.28502 0.54685 0.0
C637 C 0.22257 0.2507 0.6157 0.0
C638 C 0.29676 0.26618 0.60213 0.0
C639 C 0.2499 0.31949 0.61209 0.0
O640 O 0.24696 0.30125 0.61918 0.0
O641 O 0.25853 0.322 0.59448 0.0
O642 O 0.23759 0.25508 0.6281 0.0
O643 O 0.22321 0.25803 0.59704 0.0
O644 O 0.72955 0.28484 0.60299 0.0
Cd645 Cd 0.71046 0.26066 0.59426 0.0
Cd646 Cd 0.73434 0.24046 0.61861 0.0
O647 O 0.75482 0.26495 0.61466 0.0
O648 O 0.69668 0.26964 0.56822 0.0
O649 O 0.7198 0.244 0.56962 0.0
C650 C 0.70782 0.25592 0.5587 0.0
C651 C 0.74219 0.20526 0.61821 0.0
C652 C 0.74795 0.28291 0.60999 0.0
C653 C 0.69169 0.24908 0.63398 0.0
O654 O 0.7105 0.24601 0.63922 0.0
O655 O 0.68727 0.25273 0.61506 0.0
O656 O 0.75024 0.21758 0.63183 0.0
O657 O 0.73122 0.21327 0.60338 0.0
O658 O 0.29164 0.70231 0.60394 0.0
Cd659 Cd 0.30619 0.72411 0.58597 0.0
Cd660 Cd 0.28393 0.75194 0.61488 0.0
O661 O 0.26907 0.72355 0.61859 0.0
O662 O 0.31557 0.70726 0.56198 0.0
O663 O 0.29201 0.73224 0.55927 0.0
C664 C 0.30219 0.71712 0.55077 0.0
C665 C 0.26499 0.77826 0.63184 0.0
C666 C 0.27562 0.70524 0.61506 0.0
C667 C 0.33226 0.74831 0.6147 0.0
O668 O 0.31509 0.75442 0.62239 0.0
O669 O 0.33261 0.73688 0.59859 0.0
O670 O 0.27316 0.76295 0.64161 0.0
O671 O 0.26742 0.7791 0.61196 0.0
H672 H 0.97912 0.1891 0.22173 0.0
H673 H 0.96243 0.24303 0.25807 0.0
H674 H 0.99771 0.25685 0.25403 0.0
H675 H 0.0329 0.2543 0.23861 0.0
H676 H 0.04861 0.20037 0.20173 0.0
H677 H 0.01406 0.18603 0.20741 0.0
C678 C 0.98321 0.20376 0.229 0.0
C679 C 0.96815 0.215 0.24017 0.0
C680 C 0.00331 0.21178 0.22627 0.0
C681 C 0.97375 0.23403 0.24941 0.0
C682 C 0.99389 0.242 0.247 0.0
C683 C 0.02872 0.23944 0.2318 0.0
C684 C 0.04331 0.22852 0.21966 0.0
C685 C 0.00871 0.23117 0.23516 0.0
C686 C 0.0377 0.20919 0.21108 0.0
C687 C 0.01794 0.2009 0.21435 0.0
H688 H 0.75954 0.96702 0.25195 0.0
H689 H 0.80399 0.96886 0.20156 0.0
H690 H 0.79409 0.00456 0.19371 0.0
H691 H 0.7735 0.03536 0.20138 0.0
H692 H 0.72934 0.0345 0.25201 0.0
H693 H 0.73807 0.99813 0.2592 0.0
C694 C 0.76714 0.97532 0.23937 0.0
C695 C 0.78257 0.96534 0.22746 0.0
C696 C 0.76122 0.99588 0.23477 0.0
C697 C 0.79211 0.97619 0.21102 0.0
C698 C 0.78641 0.99658 0.20644 0.0
C699 C 0.76554 0.02718 0.21383 0.0
C700 C 0.75077 0.03763 0.22611 0.0
C701 C 0.77098 0.00655 0.21818 0.0
C702 C 0.74071 0.02679 0.24225 0.0
C703 C 0.74582 0.00604 0.24648 0.0
H704 H 0.04305 0.78345 0.19277 0.0
H705 H 0.03347 0.76223 0.25577 0.0
H706 H 0.99805 0.75126 0.24682 0.0
H707 H 0.96928 0.74949 0.22143 0.0
H708 H 0.97918 0.7717 0.1588 0.0
H709 H 0.01524 0.78012 0.1672 0.0
C710 C 0.03325 0.77644 0.2046 0.0
C711 C 0.0408 0.77388 0.22498 0.0
C712 C 0.01304 0.77018 0.19934 0.0
C713 C 0.02796 0.76452 0.24001 0.0
C714 C 0.00775 0.75819 0.23488 0.0
C715 C 0.97947 0.75578 0.20952 0.0
C716 C 0.9716 0.75996 0.18951 0.0
C717 C 7e-05 0.76111 0.21462 0.0
C718 C 0.98488 0.76837 0.17431 0.0
C719 C 0.00546 0.77329 0.17913 0.0
H720 H 0.20443 0.98886 0.19289 0.0
H721 H 0.26371 0.97358 0.22043 0.0
H722 H 0.2642 0.0072 0.23844 0.0
H723 H 0.24856 0.04172 0.24457 0.0
H724 H 0.18882 0.05617 0.21733 0.0
H725 H 0.18746 0.02179 0.20145 0.0
C726 C 0.21752 0.99294 0.20275 0.0
C727 C 0.23422 0.97903 0.20501 0.0
C728 C 0.21745 0.01199 0.21333 0.0
C729 C 0.2508 0.98421 0.21828 0.0
C730 C 0.25103 0.00336 0.22863 0.0
C731 C 0.23503 0.03718 0.23555 0.0
C732 C 0.21888 0.05156 0.23203 0.0
C733 C 0.2345 0.01746 0.22612 0.0
C734 C 0.2015 0.04544 0.22023 0.0
C735 C 0.20077 0.02584 0.211 0.0
H736 H 0.97154 0.798 0.79149 0.0
H737 H 0.96603 0.7673 0.7321 0.0
H738 H -0.00108 0.7489 0.73841 0.0
H739 H 0.02986 0.74275 0.76045 0.0
H740 H 0.03418 0.77313 0.82022 0.0
H741 H 0.00074 0.79001 0.81435 0.0
C742 C 0.97763 0.78744 0.77981 0.0
C743 C 0.96668 0.78434 0.76115 0.0
C744 C 0.9961 0.77659 0.78379 0.0
C745 C 0.9744 0.77014 0.74645 0.0
C746 C 0.9931 0.75955 0.75012 0.0
C747 C 0.02325 0.7527 0.77238 0.0
C748 C 0.03453 0.75673 0.79072 0.0
C749 C 0.00411 0.76269 0.76874 0.0
C750 C 0.02584 0.76979 0.80595 0.0
C751 C 0.00679 0.77959 0.80255 0.0
H752 H 0.2081 0.02483 0.82594 0.0
H753 H 0.26051 0.02958 0.78422 0.0
H754 H 0.25041 0.99676 0.7676 0.0
H755 H 0.22626 0.96695 0.76486 0.0
H756 H 0.17321 0.96369 0.80605 0.0
H757 H 0.18376 0.99604 0.82263 0.0
C758 C 0.21754 0.01855 0.81343 0.0
C759 C 0.23521 0.02942 0.80652 0.0
C760 C 0.21126 0.00019 0.80357 0.0
C761 C 0.24696 0.02134 0.78995 0.0
C762 C 0.2411 0.00269 0.78036 0.0
C763 C 0.21687 0.97349 0.77725 0.0
C764 C 0.19896 0.96292 0.78418 0.0
C765 C 0.22313 0.99209 0.78691 0.0
C766 C 0.18704 0.9715 0.80039 0.0
C767 C 0.19313 0.98994 0.80999 0.0
H768 H 0.0279 0.23318 0.75134 0.0
H769 H 0.03553 0.1826 0.79486 0.0
H770 H -0.00096 0.1853 0.80493 0.0
H771 H 0.96517 0.2021 0.80176 0.0
H772 H 0.9572 0.25379 0.75966 0.0
H773 H 0.99366 0.25079 0.74882 0.0
C774 C 0.02146 0.22267 0.76289 0.0
C775 C 0.0343 0.20763 0.77226 0.0
C776 C 0.00051 0.22465 0.76901 0.0
C777 C 0.02593 0.19431 0.78744 0.0
C778 C 0.00508 0.19585 0.79323 0.0
C779 C 0.97139 0.21276 0.79023 0.0
C780 C 0.95849 0.2281 0.78149 0.0
C781 C 0.99228 0.21102 0.78421 0.0
C782 C 0.96685 0.24188 0.76669 0.0
C783 C 0.98765 0.2401 0.76042 0.0
H784 H 0.77404 0.03745 0.76962 0.0
H785 H 0.73479 0.03944 0.71518 0.0
H786 H 0.72855 0.00194 0.71818 0.0
H787 H 0.73396 0.96867 0.73678 0.0
H788 H 0.77265 0.96772 0.79174 0.0
H789 H 0.77907 0.00486 0.78819 0.0
C790 C 0.7643 0.02969 0.75823 0.0
C791 C 0.75505 0.04119 0.74209 0.0
C792 C 0.76041 0.00836 0.76035 0.0
C793 C 0.74222 0.0309 0.72767 0.0
C794 C 0.73855 0.0095 0.72946 0.0
C795 C 0.74361 0.97665 0.74808 0.0
C796 C 0.75276 0.96541 0.76452 0.0
C797 C 0.74741 0.9981 0.74587 0.0
C798 C 0.76538 0.97596 0.77895 0.0
C799 C 0.76916 0.9972 0.77689 0.0
H800 H 0.20112 0.203 0.00712 0.0
H801 H 0.2586 0.23324 0.02413 0.0
H802 H 0.25847 0.25245 0.9912 0.0
H803 H 0.24284 0.25913 0.95682 0.0
H804 H 0.18519 0.22879 0.94034 0.0
H805 H 0.18425 0.21159 0.97414 0.0
C806 C 0.2137 0.21369 0.00356 0.0
C807 C 0.23006 0.21642 0.0178 0.0
C808 C 0.2133 0.22491 0.98487 0.0
C809 C 0.24597 0.23071 0.01325 0.0
C810 C 0.24584 0.24177 0.9945 0.0
C811 C 0.22982 0.24916 0.96083 0.0
C812 C 0.21413 0.2452 0.94609 0.0
C813 C 0.22963 0.2389 0.98014 0.0
C814 C 0.19747 0.23207 0.95142 0.0
C815 C 0.197 0.22209 0.97068 0.0
H816 H 0.21353 0.77117 0.96954 0.0
H817 H 0.27784 0.75201 0.96586 0.0
H818 H 0.27741 0.74301 0.00286 0.0
H819 H 0.25932 0.74268 0.03663 0.0
H820 H 0.19538 0.76307 0.04018 0.0
H821 H 0.195 0.76911 0.00268 0.0
C822 C 0.22747 0.76499 0.97678 0.0
C823 C 0.24576 0.76247 0.96501 0.0
C824 C 0.22712 0.75993 0.998 0.0
C825 C 0.2636 0.75424 0.97462 0.0
C826 C 0.26335 0.74905 0.99575 0.0
C827 C 0.24518 0.74806 0.02913 0.0
C828 C 0.2274 0.75243 0.04115 0.0
C829 C 0.24525 0.75205 0.00764 0.0
C830 C 0.20927 0.75961 0.03126 0.0
C831 C 0.20907 0.76318 0.00984 0.0
H832 H 0.74691 0.21882 0.97203 0.0
H833 H 0.76369 0.15654 0.99089 0.0
H834 H 0.76934 0.16855 0.02641 0.0
H835 H 0.77192 0.19691 0.05143 0.0
H836 H 0.75563 0.25943 0.03314 0.0
H837 H 0.74745 0.24714 0.99797 0.0
C838 C 0.75145 0.20782 0.984 0.0
C839 C 0.75495 0.18682 0.9788 0.0
C840 C 0.75507 0.21491 0.00437 0.0
C841 C 0.76096 0.17279 0.99445 0.0
C842 C 0.76429 0.17965 0.01475 0.0
C843 C 0.76658 0.2079 0.03977 0.0
C844 C 0.76465 0.2291 0.0448 0.0
C845 C 0.76186 0.20073 0.01975 0.0
C846 C 0.75739 0.24305 0.0296 0.0
C847 C 0.75269 0.23602 0.00952 0.0
H848 H 0.76731 0.80203 0.96035 0.0
H849 H 0.75272 0.73649 0.95874 0.0
H850 H 0.74043 0.73818 0.99473 0.0
H851 H 0.73659 0.75769 0.02741 0.0
H852 H 0.75285 0.82282 0.02921 0.0
H853 H 0.76129 0.82198 0.99216 0.0
C854 C 0.76137 0.78811 0.96781 0.0
C855 C 0.76117 0.7691 0.95696 0.0
C856 C 0.7545 0.78916 0.98848 0.0
C857 C 0.75321 0.75127 0.96681 0.0
C858 C 0.74614 0.75224 0.98737 0.0
C859 C 0.74152 0.77181 0.01958 0.0
C860 C 0.74411 0.79029 0.03101 0.0
C861 C 0.74703 0.77104 0.99845 0.0
C862 C 0.75075 0.8084 0.02073 0.0
C863 C 0.7557 0.8079 -0.00041 0.0
H864 H 0.55124 0.71353 0.72792 0.0
H865 H 0.53629 0.77265 0.75595 0.0
H866 H 0.49999 0.76151 0.7603 0.0
H867 H 0.47268 0.73463 0.75622 0.0
H868 H 0.48899 0.67516 0.72946 0.0
H869 H 0.52478 0.6867 0.72496 0.0
C870 C 0.54002 0.72415 0.73474 0.0
C871 C 0.54636 0.74401 0.74131 0.0
C872 C 0.51952 0.71742 0.73777 0.0
C873 C 0.53171 0.75735 0.75056 0.0
C874 C 0.51102 0.75093 0.75318 0.0
C875 C 0.48413 0.72412 0.74965 0.0
C876 C 0.47812 0.70405 0.74319 0.0
C877 C 0.50479 0.7309 0.74697 0.0
C878 C 0.49314 0.69067 0.7346 0.0
C879 C 0.51361 0.69729 0.73188 0.0
H880 H 0.25331 0.46354 0.75482 0.0
H881 H 0.31084 0.46523 0.72005 0.0
H882 H 0.30615 0.50229 0.71359 0.0
H883 H 0.28545 0.53386 0.71692 0.0
H884 H 0.22794 0.53285 0.75168 0.0
H885 H 0.23276 0.49572 0.7588 0.0
C886 C 0.26494 0.47209 0.74606 0.0
C887 C 0.28242 0.46165 0.73795 0.0
C888 C 0.262 0.49339 0.74212 0.0
C889 C 0.29725 0.47289 0.72646 0.0
C890 C 0.29454 0.49407 0.72267 0.0
C891 C 0.27385 0.52553 0.72594 0.0
C892 C 0.25627 0.53606 0.73361 0.0
C893 C 0.27687 0.50438 0.73019 0.0
C894 C 0.24155 0.52506 0.74548 0.0
C895 C 0.24435 0.50387 0.74963 0.0
H896 H 0.46915 0.29502 0.71167 0.0
H897 H 0.47163 0.23762 0.74643 0.0
H898 H 0.50684 0.24622 0.75835 0.0
H899 H 0.53727 0.26994 0.75816 0.0
H900 H 0.53457 0.32638 0.72189 0.0
H901 H 0.49892 0.31844 0.71157 0.0
C902 C 0.47735 0.28434 0.72186 0.0
C903 C 0.4678 0.26568 0.72811 0.0
C904 C 0.49749 0.28933 0.72852 0.0
C905 C 0.47869 0.25204 0.74129 0.0
C906 C 0.49877 0.257 0.74818 0.0
C907 C 0.52871 0.28059 0.74825 0.0
C908 C 0.53842 0.29877 0.74088 0.0
C909 C 0.50834 0.27562 0.74188 0.0
C910 C 0.52737 0.3123 0.72776 0.0
C911 C 0.50703 0.30775 0.7218 0.0
H912 H 0.72638 0.46278 0.73368 0.0
H913 H 0.77384 0.48946 0.69461 0.0
H914 H 0.76768 0.52381 0.71018 0.0
H915 H 0.74533 0.54672 0.73117 0.0
H916 H 0.69399 0.52062 0.76561 0.0
H917 H 0.70512 0.48545 0.75595 0.0
C918 C 0.73573 0.47608 0.72909 0.0
C919 C 0.75078 0.47378 0.71343 0.0
C920 C 0.73116 0.49583 0.73716 0.0
C921 C 0.76243 0.49102 0.70692 0.0
C922 C 0.75878 0.5106 0.71571 0.0
C923 C 0.73696 0.53326 0.73701 0.0
C924 C 0.71903 0.53609 0.74924 0.0
C925 C 0.74272 0.51328 0.73034 0.0
C926 C 0.70791 0.51868 0.75628 0.0
C927 C 0.71421 0.49864 0.75068 0.0
H928 H 0.46248 0.25909 0.28875 0.0
H929 H 0.46555 0.24736 0.2227 0.0
H930 H 0.50092 0.23367 0.22665 0.0
H931 H 0.53193 0.22787 0.24856 0.0
H932 H 0.52884 0.24126 0.31427 0.0
H933 H 0.49227 0.251 0.31085 0.0
C934 C 0.47082 0.25349 0.27518 0.0
C935 C 0.46151 0.25451 0.25541 0.0
C936 C 0.49108 0.24577 0.27756 0.0
C937 C 0.47245 0.24692 0.23807 0.0
C938 C 0.49265 0.23905 0.24033 0.0
C939 C 0.52307 0.23241 0.2622 0.0
C940 C 0.53301 0.23384 0.28165 0.0
C941 C 0.50223 0.23871 0.25997 0.0
C942 C 0.52149 0.24004 0.29915 0.0
C943 C 0.50064 0.24575 0.29717 0.0
H944 H 0.7079 0.46435 0.26378 0.0
H945 H 0.64619 0.48157 0.28406 0.0
H946 H 0.65854 0.51641 0.29276 0.0
H947 H 0.6871 0.5411 0.29661 0.0
H948 H 0.74918 0.52407 0.27731 0.0
H949 H 0.73648 0.48982 0.26645 0.0
C950 C 0.69708 0.47588 0.26971 0.0
C951 C 0.67614 0.47045 0.2732 0.0
C952 C 0.70443 0.4957 0.27524 0.0
C953 C 0.66236 0.48541 0.28119 0.0
C954 C 0.66944 0.50527 0.2863 0.0
C955 C 0.69792 0.52991 0.29009 0.0
C956 C 0.7191 0.53505 0.28796 0.0
C957 C 0.69051 0.51041 0.28381 0.0
C958 C 0.73283 0.52042 0.27927 0.0
C959 C 0.72556 0.50089 0.27297 0.0
H960 H 0.5278 0.73854 0.23332 0.0
H961 H 0.53028 0.67723 0.26055 0.0
H962 H 0.4938 0.68001 0.27086 0.0
H963 H 0.46211 0.70064 0.27426 0.0
H964 H 0.45958 0.76264 0.24856 0.0
H965 H 0.49526 0.75891 0.23569 0.0
C966 C 0.52018 0.72565 0.24112 0.0
C967 C 0.53162 0.70766 0.24607 0.0
C968 C 0.49937 0.72764 0.24762 0.0
C969 C 0.52173 0.6912 0.25653 0.0
C970 C 0.50094 0.69283 0.26253 0.0
C971 C 0.46931 0.71338 0.26584 0.0
C972 C 0.45824 0.73196 0.26253 0.0
C973 C 0.48977 0.71115 0.25858 0.0
C974 C 0.46781 0.74823 0.25147 0.0
C975 C 0.48819 0.74607 0.24403 0.0
H976 H 0.28725 0.5404 0.28678 0.0
H977 H 0.26217 0.51928 0.22819 0.0
H978 H 0.25932 0.48386 0.24211 0.0
H979 H 0.26401 0.45906 0.27111 0.0
H980 H 0.28846 0.48111 0.3297 0.0
H981 H 0.29114 0.51619 0.31562 0.0
C982 C 0.28133 0.52805 0.27692 0.0
C983 C 0.27514 0.53242 0.25639 0.0
C984 C 0.27935 0.50797 0.28514 0.0
C985 C 0.2672 0.51627 0.24399 0.0
C986 C 0.26547 0.49606 0.25199 0.0
C987 C 0.26971 0.47159 0.28086 0.0
C988 C 0.27601 0.46745 0.30145 0.0
C989 C 0.2714 0.49177 0.27259 0.0
C990 C 0.28349 0.48384 0.31383 0.0
C991 C 0.28512 0.5039 0.30577 0.0
H992 H 0.68189 0.72327 0.53949 0.0
H993 H 0.7475 0.73266 0.52851 0.0
H994 H 0.74 0.7443 0.49296 0.0
H995 H 0.71483 0.7493 0.46431 0.0
H996 H 0.64938 0.73923 0.47584 0.0
H997 H 0.65678 0.7308 0.51208 0.0
C998 C 0.69459 0.72785 0.52934 0.0
C999 C 0.71525 0.72678 0.53649 0.0
C1000 C 0.69016 0.73458 0.50909 0.0
C1001 C 0.73147 0.73318 0.52329 0.0
C1002 C 0.72719 0.73987 0.50299 0.0
C1003 C 0.70216 0.74572 0.47489 0.0
C1004 C 0.68158 0.74482 0.46739 0.0
C1005 C 0.70659 0.74037 0.49564 0.0
C1006 C 0.66535 0.73997 0.48122 0.0
C1007 C 0.66957 0.73502 0.50191 0.0
H1008 H 0.69881 0.27286 0.46324 0.0
H1009 H 0.76403 0.25671 0.46444 0.0
H1010 H 0.7612 0.24757 0.50134 0.0
H1011 H 0.74064 0.24674 0.53382 0.0
H1012 H 0.67614 0.26536 0.53253 0.0
H1013 H 0.67811 0.27059 0.49494 0.0
C1014 C 0.71242 0.26722 0.4715 0.0
C1015 C 0.73164 0.26561 0.46115 0.0
C1016 C 0.71074 0.26234 0.49267 0.0
C1017 C 0.74908 0.25823 0.47209 0.0
C1018 C 0.74746 0.25297 0.49317 0.0
C1019 C 0.72694 0.25149 0.52518 0.0
C1020 C 0.70824 0.25558 0.53581 0.0
C1021 C 0.72842 0.25525 0.50369 0.0
C1022 C 0.69067 0.26212 0.5246 0.0
C1023 C 0.69182 0.2652 0.50316 0.0
H1024 H 0.28938 0.66994 0.46615 0.0
H1025 H 0.23936 0.71427 0.45991 0.0
H1026 H 0.24844 0.72947 0.49371 0.0
H1027 H 0.27121 0.73037 0.52475 0.0
H1028 H 0.32216 0.68672 0.52932 0.0
H1029 H 0.31232 0.67133 0.4962 0.0
C1030 C 0.28023 0.68272 0.4723 0.0
C1031 C 0.26354 0.69078 0.46072 0.0
C1032 C 0.28597 0.69176 0.49125 0.0
C1033 C 0.25216 0.70767 0.46867 0.0
C1034 C 0.25745 0.71644 0.4879 0.0
C1035 C 0.28028 0.71765 0.51837 0.0
C1036 C 0.2974 0.70974 0.52952 0.0
C1037 C 0.27449 0.70875 0.49923 0.0
C1038 C 0.30893 0.69316 0.52109 0.0
C1039 C 0.30325 0.68424 0.50218 0.0
H1040 H 0.29724 0.28689 0.51845 0.0
H1041 H 0.23668 0.26006 0.52941 0.0
H1042 H 0.23819 0.24248 0.49556 0.0
H1043 H 0.25637 0.23604 0.46224 0.0
H1044 H 0.3173 0.26269 0.45235 0.0
H1045 H 0.31623 0.2786 0.48671 0.0
C1046 C 0.28427 0.27734 0.51337 0.0
C1047 C 0.26669 0.27509 0.52617 0.0
C1048 C 0.28549 0.26698 0.49426 0.0
C1049 C 0.25027 0.26221 0.51966 0.0
C1050 C 0.25119 0.25209 0.50039 0.0
C1051 C 0.26959 0.24495 0.46781 0.0
C1052 C 0.28687 0.24823 0.45474 0.0
C1053 C 0.26872 0.25442 0.48752 0.0
C1054 C 0.3038 0.25996 0.46209 0.0
C1055 C 0.30315 0.2692 0.48167 0.0
H1056 H 0.18036 0.15135 0.25823 0.0
H1057 H 0.23456 0.19107 0.25611 0.0
H1058 H 0.2123 0.22174 0.2546 0.0
H1059 H 0.17774 0.23682 0.24872 0.0
H1060 H 0.12363 0.19696 0.24951 0.0
H1061 H 0.14555 0.16696 0.25712 0.0
C1062 C 0.18732 0.16672 0.25778 0.0
C1063 C 0.20909 0.16885 0.25684 0.0
C1064 C 0.17444 0.18433 0.25655 0.0
C1065 C 0.21783 0.18892 0.25655 0.0
C1066 C 0.20512 0.20651 0.25566 0.0
C1067 C 0.17067 0.22168 0.25105 0.0
C1068 C 0.14911 0.21912 0.24816 0.0
C1069 C 0.18342 0.20435 0.25487 0.0
C1070 C 0.14022 0.19936 0.25135 0.0
C1071 C 0.15276 0.18214 0.25563 0.0
H1072 H 0.87205 0.14447 0.24955 0.0
H1073 H 0.84504 0.1942 0.28563 0.0
H1074 H 0.81397 0.17331 0.29189 0.0
H1075 H 0.79197 0.14412 0.28118 0.0
H1076 H 0.81772 0.09577 0.24245 0.0
H1077 H 0.85183 0.1125 0.24364 0.0
C1078 C 0.85962 0.15045 0.25929 0.0
C1079 C 0.86065 0.17094 0.2668 0.0
C1080 C 0.84141 0.13864 0.26217 0.0
C1081 C 0.84443 0.17855 0.27939 0.0
C1082 C 0.82664 0.16663 0.28295 0.0
C1083 C 0.80522 0.13686 0.27364 0.0
C1084 C 0.80229 0.11893 0.26151 0.0
C1085 C 0.82453 0.1471 0.27355 0.0
C1086 C 0.81958 0.10973 0.25172 0.0
C1087 C 0.83906 0.11936 0.25226 0.0
H1088 H 0.89394 0.82491 0.20269 0.0
H1089 H 0.88276 0.7872 0.25722 0.0
H1090 H 0.86418 0.81587 0.27354 0.0
H1091 H 0.84556 0.84878 0.26953 0.0
H1092 H 0.85515 0.88602 0.21447 0.0
H1093 H 0.88048 0.86079 0.20158 0.0
C1094 C 0.88783 0.8231 0.21832 0.0
C1095 C 0.88925 0.80371 0.22844 0.0
C1096 C 0.87678 0.83957 0.22753 0.0
C1097 C 0.88157 0.80179 0.24886 0.0
C1098 C 0.8709 0.8182 0.25824 0.0
C1099 C 0.85364 0.8517 0.25498 0.0
C1100 C 0.84808 0.86898 0.24275 0.0
C1101 C 0.86756 0.83676 0.24731 0.0
C1102 C 0.85898 0.87276 0.22415 0.0
C1103 C 0.87331 0.85818 0.21663 0.0
H1104 H 0.18832 0.8927 0.24655 0.0
H1105 H 0.16453 0.89645 0.18387 0.0
H1106 H 0.13409 0.87607 0.19393 0.0
H1107 H 0.11825 0.85154 0.21865 0.0
H1108 H 0.14286 0.84695 0.28096 0.0
H1109 H 0.16845 0.87383 0.27314 0.0
C1110 C 0.17626 0.88942 0.2352 0.0
C1111 C 0.17895 0.8956 0.21439 0.0
C1112 C 0.15892 0.87746 0.24102 0.0
C1113 C 0.16298 0.89165 0.19996 0.0
C1114 C 0.14557 0.87992 0.20568 0.0
C1115 C 0.12867 0.85698 0.23077 0.0
C1116 C 0.12898 0.8469 0.2502 0.0
C1117 C 0.14389 0.87192 0.22592 0.0
C1118 C 0.14252 0.85423 0.26576 0.0
C1119 C 0.15731 0.86948 0.26124 0.0
H1120 H 0.09835 0.81118 0.76605 0.0
H1121 H 0.13341 0.77744 0.71976 0.0
H1122 H 0.1513 0.80946 0.70972 0.0
H1123 H 0.16207 0.84473 0.71946 0.0
H1124 H 0.12857 0.87775 0.76742 0.0
H1125 H 0.10456 0.84851 0.77101 0.0
C1126 C 0.10954 0.81093 0.7534 0.0
C1127 C 0.11497 0.79188 0.74403 0.0
C1128 C 0.1202 0.82924 0.74818 0.0
C1129 C 0.12912 0.79185 0.72737 0.0
C1130 C 0.13947 0.81014 0.72173 0.0
C1131 C 0.14917 0.84577 0.73032 0.0
C1132 C 0.14745 0.86315 0.74357 0.0
C1133 C 0.13593 0.82861 0.73284 0.0
C1134 C 0.1304 0.86448 0.7572 0.0
C1135 C 0.11677 0.84766 0.7594 0.0
H1136 H 0.19582 0.11125 0.75609 0.0
H1137 H 0.17344 0.11067 0.81944 0.0
H1138 H 0.14125 0.12753 0.8085 0.0
H1139 H 0.12249 0.14782 0.78217 0.0
H1140 H 0.14568 0.14977 0.71916 0.0
H1141 H 0.17408 0.12641 0.72861 0.0
C1142 C 0.18376 0.11449 0.76745 0.0
C1143 C 0.18727 0.11017 0.78862 0.0
C1144 C 0.16538 0.12447 0.76111 0.0
C1145 C 0.1713 0.1141 0.80308 0.0
C1146 C 0.15286 0.12377 0.79684 0.0
C1147 C 0.13331 0.14256 0.77032 0.0
C1148 C 0.13219 0.15085 0.75008 0.0
C1149 C 0.15011 0.12979 0.77605 0.0
C1150 C 0.14634 0.14382 0.73492 0.0
C1151 C 0.16271 0.13061 0.74036 0.0
H1152 H 0.82967 0.21953 0.74605 0.0
H1153 H 0.87545 0.17321 0.76266 0.0
H1154 H 0.85168 0.14562 0.752 0.0
H1155 H 0.8162 0.1346 0.74269 0.0
H1156 H 0.7702 0.18115 0.72736 0.0
H1157 H 0.79582 0.20857 0.7326 0.0
C1158 C 0.83465 0.20343 0.74699 0.0
C1159 C 0.8542 0.1985 0.7555 0.0
C1160 C 0.82073 0.1876 0.7413 0.0
C1161 C 0.86041 0.17751 0.75637 0.0
C1162 C 0.84678 0.16167 0.75036 0.0
C1163 C 0.81188 0.15071 0.74012 0.0
C1164 C 0.7912 0.1558 0.73502 0.0
C1165 C 0.82662 0.16651 0.74355 0.0
C1166 C 0.78592 0.17677 0.73161 0.0
C1167 C 0.80056 0.19251 0.73462 0.0
H1168 H 0.84871 0.82602 0.70991 0.0
H1169 H 0.88172 0.86726 0.75133 0.0
H1170 H 0.85302 0.89219 0.74959 0.0
H1171 H 0.81604 0.89849 0.74212 0.0
H1172 H 0.7826 0.85641 0.70187 0.0
H1173 H 0.81418 0.8359 0.69684 0.0
C1174 C 0.84984 0.84071 0.71815 0.0
C1175 C 0.86706 0.8446 0.73113 0.0
C1176 C 0.83311 0.85472 0.71743 0.0
C1177 C 0.86855 0.86384 0.74136 0.0
C1178 C 0.85207 0.87803 0.74049 0.0
C1179 C 0.8158 0.88516 0.73177 0.0
C1180 C 0.79686 0.87868 0.72282 0.0
C1181 C 0.83386 0.8731 0.72946 0.0
C1182 C 0.79689 0.86164 0.70912 0.0
C1183 C 0.81492 0.84978 0.70639 0.0
H1184 H 0.24776 0.10523 0.17156 0.0
H1185 H 0.2956 0.14579 0.19548 0.0
H1186 H 0.29808 0.1631 0.1617 0.0
H1187 H 0.28079 0.17171 0.12868 0.0
H1188 H 0.23199 0.13204 0.10526 0.0
H1189 H 0.23599 0.10906 0.13535 0.0
C1190 C 0.25922 0.11741 0.16914 0.0
C1191 C 0.27114 0.12459 0.18607 0.0
C1192 C 0.26009 0.12766 0.14989 0.0
C1193 C 0.28618 0.14008 0.18272 0.0
C1194 C 0.28742 0.15014 0.16347 0.0
C1195 C 0.27148 0.15767 0.12988 0.0
C1196 C 0.25579 0.15377 0.1151 0.0
C1197 C 0.27356 0.14486 0.14742 0.0
C1198 C 0.24407 0.1354 0.11653 0.0
C1199 C 0.24624 0.12238 0.13383 0.0
H1200 H 0.83998 0.23166 0.12259 0.0
H1201 H 0.83365 0.29506 0.14375 0.0
H1202 H 0.86138 0.28964 0.16907 0.0
H1203 H 0.88158 0.26492 0.18995 0.0
H1204 H 0.88669 0.20103 0.1699 0.0
H1205 H 0.8656 0.20872 0.1393 0.0
C1206 C 0.84518 0.24453 0.13219 0.0
C1207 C 0.83442 0.26359 0.13161 0.0
C1208 C 0.86061 0.24107 0.14731 0.0
C1209 C 0.84145 0.28012 0.14411 0.0
C1210 C 0.85721 0.27699 0.15873 0.0
C1211 C 0.87849 0.25278 0.17865 0.0
C1212 C 0.88523 0.23232 0.18253 0.0
C1213 C 0.86597 0.25719 0.16129 0.0
C1214 C 0.88145 0.21687 0.16749 0.0
C1215 C 0.8693 0.22123 0.14998 0.0
H1216 H 0.74576 0.83628 0.21876 0.0
H1217 H 0.75611 0.89008 0.17985 0.0
H1218 H 0.74527 0.87041 0.14931 0.0
H1219 H 0.73827 0.83658 0.13305 0.0
H1220 H 0.72951 0.78247 0.17192 0.0
H1221 H 0.73403 0.80368 0.20299 0.0
C1222 C 0.7452 0.84386 0.20369 0.0
C1223 C 0.75213 0.86449 0.20157 0.0
C1224 C 0.7395 0.83231 0.18607 0.0
C1225 C 0.75114 0.87411 0.18191 0.0
C1226 C 0.74501 0.86285 0.16439 0.0
C1227 C 0.73693 0.8295 0.14832 0.0
C1228 C 0.73398 0.80791 0.15013 0.0
C1229 C 0.74002 0.84171 0.16617 0.0
C1230 C 0.73211 0.79901 0.17005 0.0
C1231 C 0.73472 0.81112 0.18786 0.0
H1232 H 0.17531 0.75258 0.22645 0.0
H1233 H 0.12282 0.7524 0.18448 0.0
H1234 H 0.14579 0.74424 0.15542 0.0
H1235 H 0.18117 0.74199 0.14122 0.0
H1236 H 0.23374 0.74342 0.18307 0.0
H1237 H 0.21033 0.74604 0.21278 0.0
C1238 C 0.16881 0.7503 0.21104 0.0
C1239 C 0.14742 0.75343 0.20763 0.0
C1240 C 0.18217 0.74613 0.19426 0.0
C1241 C 0.13928 0.75034 0.18754 0.0
C1242 C 0.15241 0.74574 0.17085 0.0
C1243 C 0.18751 0.74256 0.15685 0.0
C1244 C 0.20919 0.7429 0.15984 0.0
C1245 C 0.17397 0.7444 0.17391 0.0
C1246 C 0.21712 0.74342 0.18025 0.0
C1247 C 0.20374 0.74493 0.1973 0.0
H1248 H 0.21244 0.87885 0.82758 0.0
H1249 H 0.26307 0.86287 0.78629 0.0
H1250 H 0.28015 0.84385 0.81434 0.0
H1251 H 0.27783 0.82725 0.84835 0.0
H1252 H 0.22573 0.84049 0.8887 0.0
H1253 H 0.21258 0.86582 0.86355 0.0
C1254 C 0.22738 0.87149 0.82477 0.0
C1255 C 0.23624 0.87191 0.8047 0.0
C1256 C 0.23687 0.86012 0.84083 0.0
C1257 C 0.25572 0.86251 0.80146 0.0
C1258 C 0.26552 0.85165 0.81751 0.0
C1259 C 0.26384 0.83601 0.85193 0.0
C1260 C 0.25253 0.83161 0.87018 0.0
C1261 C 0.25582 0.84967 0.83696 0.0
C1262 C 0.23468 0.84342 0.87471 0.0
C1263 C 0.22701 0.85774 0.8602 0.0
H1264 H 0.1657 0.25054 0.76519 0.0
H1265 H 0.11455 0.24847 0.80878 0.0
H1266 H 0.13749 0.26039 0.83655 0.0
H1267 H 0.17291 0.26629 0.84942 0.0
H1268 H 0.22433 0.26687 0.80612 0.0
H1269 H 0.20038 0.26086 0.7773 0.0
C1270 C 0.15942 0.25316 0.78064 0.0
C1271 C 0.1385 0.24827 0.78494 0.0
C1272 C 0.17283 0.25944 0.7967 0.0
C1273 C 0.13065 0.25186 0.80506 0.0
C1274 C 0.14378 0.2586 0.821 0.0
C1275 C 0.17887 0.26542 0.83365 0.0
C1276 C 0.20043 0.26662 0.83002 0.0
C1277 C 0.16506 0.26159 0.81717 0.0
C1278 C 0.20783 0.26574 0.80943 0.0
C1279 C 0.19414 0.26227 0.79291 0.0
H1280 H 0.73512 0.09714 0.81248 0.0
H1281 H 0.69591 0.14549 0.78727 0.0
H1282 H 0.69306 0.16135 0.82166 0.0
H1283 H 0.70794 0.16546 0.85665 0.0
H1284 H 0.74803 0.11774 0.8816 0.0
H1285 H 0.74402 0.09745 0.84968 0.0
C1286 C 0.72544 0.11081 0.81465 0.0
C1287 C 0.71615 0.12042 0.79728 0.0
C1288 C 0.72433 0.12014 0.83435 0.0
C1289 C 0.70334 0.13787 0.80034 0.0
C1290 C 0.70188 0.14708 0.81999 0.0
C1291 C 0.71534 0.15034 0.85529 0.0
C1292 C 0.72864 0.14329 0.87121 0.0
C1293 C 0.71328 0.13899 0.83678 0.0
C1294 C 0.73783 0.12355 0.8695 0.0
C1295 C 0.73567 0.11202 0.85118 0.0
H1296 H 0.8441 0.7303 0.85736 0.0
H1297 H 0.84404 0.79163 0.88463 0.0
H1298 H 0.86971 0.80319 0.85905 0.0
H1299 H 0.88543 0.79795 0.82446 0.0
H1300 H 0.88227 0.73734 0.79565 0.0
H1301 H 0.86454 0.72349 0.82618 0.0
C1302 C 0.85017 0.74604 0.85812 0.0
C1303 C 0.84173 0.76024 0.8725 0.0
C1304 C 0.86389 0.75289 0.84264 0.0
C1305 C 0.8501 0.78042 0.87361 0.0
C1306 C 0.86457 0.78713 0.85876 0.0
C1307 C 0.88127 0.78161 0.82505 0.0
C1308 C 0.88469 0.76882 0.80758 0.0
C1309 C 0.8705 0.77386 0.84244 0.0
C1310 C 0.87943 0.74763 0.80869 0.0
C1311 C 0.86932 0.73967 0.82617 0.0
H1312 H 0.11873 0.23296 0.14876 0.0
H1313 H 0.14691 0.29362 0.15478 0.0
H1314 H 0.17092 0.28559 0.12653 0.0
H1315 H 0.1885 0.25884 0.10581 0.0
H1316 H 0.16136 0.19761 0.10089 0.0
H1317 H 0.13227 0.20845 0.12277 0.0
C1318 C 0.1296 0.24471 0.1434 0.0
C1319 C 0.13137 0.26366 0.15421 0.0
C1320 C 0.14393 0.2397 0.12766 0.0
C1321 C 0.14546 0.27877 0.14695 0.0
C1322 C 0.15933 0.27413 0.13089 0.0
C1323 C 0.17599 0.24799 0.10916 0.0
C1324 C 0.17738 0.22731 0.10221 0.0
C1325 C 0.1595 0.25421 0.12206 0.0
C1326 C 0.16083 0.21357 0.10628 0.0
C1327 C 0.1442 0.21973 0.11887 0.0
H1328 H 0.19144 0.74309 0.88284 0.0
H1329 H 0.23666 0.72752 0.83559 0.0
H1330 H 0.20864 0.71913 0.81138 0.0
H1331 H 0.17169 0.72158 0.80206 0.0
H1332 H 0.12659 0.73861 0.84889 0.0
H1333 H 0.15423 0.74095 0.87486 0.0
C1334 C 0.19523 0.73745 0.8674 0.0
C1335 C 0.21616 0.73636 0.86094 0.0
C1336 C 0.17905 0.73326 0.85335 0.0
C1337 C 0.22072 0.72871 0.84095 0.0
C1338 C 0.20468 0.72405 0.82702 0.0
C1339 C 0.16785 0.72555 0.81801 0.0
C1340 C 0.14716 0.73035 0.82343 0.0
C1341 C 0.18385 0.72717 0.83278 0.0
C1342 C 0.14241 0.73506 0.84425 0.0
C1343 C 0.15822 0.73644 0.8591 0.0
H1344 H 0.25789 0.19327 0.89838 0.0
H1345 H 0.29584 0.22058 0.85023 0.0
H1346 H 0.30222 0.18613 0.83544 0.0
H1347 H 0.28973 0.15016 0.83156 0.0
H1348 H 0.25052 0.12321 0.87894 0.0
H1349 H 0.25227 0.15546 0.89899 0.0
C1350 C 0.26818 0.19155 0.88509 0.0
C1351 C 0.276 0.20938 0.87508 0.0
C1352 C 0.2712 0.17181 0.87634 0.0
C1353 C 0.28957 0.20706 0.85812 0.0
C1354 C 0.293 0.18738 0.84952 0.0
C1355 C 0.28211 0.15116 0.8466 0.0
C1356 C 0.26957 0.1346 0.85355 0.0
C1357 C 0.28278 0.1699 0.85775 0.0
C1358 C 0.26012 0.13583 0.8732 0.0
C1359 C 0.26097 0.15434 0.88458 0.0
H1360 H 0.80436 0.23855 0.89465 0.0
H1361 H 0.82593 0.17502 0.8977 0.0
H1362 H 0.85731 0.18453 0.87848 0.0
H1363 H 0.87474 0.20923 0.85498 0.0
H1364 H 0.85189 0.2722 0.85048 0.0
H1365 H 0.82533 0.26472 0.87656 0.0
C1366 C 0.81613 0.22685 0.8915 0.0
C1367 C 0.81254 0.20601 0.89713 0.0
C1368 C 0.83392 0.23232 0.88006 0.0
C1369 C 0.82815 0.19115 0.89331 0.0
C1370 C 0.84609 0.19655 0.88224 0.0
C1371 C 0.86447 0.22153 0.8603 0.0
C1372 C 0.86504 0.24113 0.85055 0.0
C1373 C 0.84864 0.21687 0.87468 0.0
C1374 C 0.8516 0.2569 0.85759 0.0
C1375 C 0.83628 0.25259 0.87237 0.0
H1376 H 0.7303 0.827 0.78487 0.0
H1377 H 0.74285 0.87743 0.82743 0.0
H1378 H 0.74604 0.85266 0.85607 0.0
H1379 H 0.74993 0.81667 0.86787 0.0
H1380 H 0.73916 0.76616 0.82487 0.0
H1381 H 0.73013 0.79108 0.79766 0.0
C1382 C 0.73349 0.83263 0.80045 0.0
C1383 C 0.73674 0.85401 0.80392 0.0
C1384 C 0.73568 0.81829 0.81676 0.0
C1385 C 0.74051 0.86105 0.82427 0.0
C1386 C 0.74237 0.84688 0.84066 0.0
C1387 C 0.74522 0.81103 0.85268 0.0
C1388 C 0.7456 0.78955 0.84834 0.0
C1389 C 0.74068 0.82544 0.83692 0.0
C1390 C 0.73922 0.7826 0.82861 0.0
C1391 C 0.73417 0.79685 0.81298 0.0
H1392 H 0.7924 0.72116 0.12524 0.0
H1393 H 0.81563 0.76819 0.08336 0.0
H1394 H 0.85039 0.76482 0.09832 0.0
H1395 H 0.87201 0.75379 0.12788 0.0
H1396 H 0.84777 0.70879 0.17144 0.0
H1397 H 0.81585 0.70584 0.15115 0.0
C1398 C 0.80523 0.73012 0.11889 0.0
C1399 C 0.8014 0.7451 0.10344 0.0
C1400 C 0.82498 0.72878 0.12821 0.0
C1401 C 0.81817 0.75669 0.09542 0.0
C1402 C 0.83803 0.75488 0.10407 0.0
C1403 C 0.85999 0.74291 0.13259 0.0
C1404 C 0.86209 0.73185 0.15134 0.0
C1405 C 0.84133 0.74181 0.12122 0.0
C1406 C 0.84638 0.71777 0.15723 0.0
C1407 C 0.82808 0.71608 0.14565 0.0
H1408 H 0.25061 0.82436 0.09505 0.0
H1409 H 0.2988 0.80094 0.13555 0.0
H1410 H 0.30154 0.83493 0.15224 0.0
H1411 H 0.28437 0.86806 0.16058 0.0
H1412 H 0.23525 0.89106 0.12107 0.0
H1413 H 0.239 0.86069 0.09844 0.0
C1414 C 0.26218 0.8269 0.10708 0.0
C1415 C 0.27409 0.81002 0.11444 0.0
C1416 C 0.26323 0.84632 0.11701 0.0
C1417 C 0.28931 0.8136 0.12972 0.0
C1418 C 0.29073 0.833 0.13943 0.0
C1419 C 0.27496 0.86672 0.14661 0.0
C1420 C 0.25926 0.88147 0.14269 0.0
C1421 C 0.27688 0.84901 0.13403 0.0
C1422 C 0.24737 0.87984 0.12443 0.0
C1423 C 0.24938 0.86236 0.11162 0.0
H1424 H 0.72826 0.177 0.2129 0.0
H1425 H 0.73786 0.13041 0.16546 0.0
H1426 H 0.74031 0.1576 0.13903 0.0
H1427 H 0.74451 0.19446 0.13034 0.0
H1428 H 0.73636 0.24105 0.17808 0.0
H1429 H 0.72817 0.21392 0.20336 0.0
C1430 C 0.7306 0.17274 0.19674 0.0
C1431 C 0.73328 0.15171 0.19124 0.0
C1432 C 0.73238 0.18846 0.18169 0.0
C1433 C 0.73595 0.14647 0.17017 0.0
C1434 C 0.73742 0.16203 0.15505 0.0
C1435 C 0.7406 0.19876 0.14619 0.0
C1436 C 0.74144 0.21977 0.15236 0.0
C1437 C 0.7364 0.18307 0.16077 0.0
C1438 C 0.73603 0.22502 0.1729 0.0
C1439 C 0.73144 0.2095 0.18742 0.0
H1440 H 0.64886 0.63314 0.77244 0.0
H1441 H 0.70705 0.66104 0.79088 0.0
H1442 H 0.68897 0.69268 0.80143 0.0
H1443 H 0.65812 0.71475 0.79801 0.0
H1444 H 0.60066 0.68824 0.77588 0.0
H1445 H 0.61656 0.65371 0.77493 0.0
C1446 C 0.65742 0.64593 0.77937 0.0
C1447 C 0.67923 0.64497 0.78054 0.0
C1448 C 0.647 0.66445 0.78463 0.0
C1449 C 0.69024 0.66162 0.7895 0.0
C1450 C 0.67993 0.67972 0.79554 0.0
C1451 C 0.64885 0.70125 0.79392 0.0
C1452 C 0.62835 0.70398 0.7869 0.0
C1453 C 0.65848 0.68171 0.79215 0.0
C1454 C 0.61653 0.68644 0.78132 0.0
C1455 C 0.62569 0.66674 0.78052 0.0
H1456 H 0.31752 0.60425 0.75604 0.0
H1457 H 0.28187 0.65202 0.78699 0.0
H1458 H 0.31334 0.67289 0.7913 0.0
H1459 H 0.3492 0.6803 0.78014 0.0
H1460 H 0.38462 0.63297 0.7483 0.0
H1461 H 0.35507 0.60909 0.75068 0.0
C1462 C 0.31673 0.61898 0.76425 0.0
C1463 C 0.29731 0.62678 0.77078 0.0
C1464 C 0.33478 0.63114 0.76615 0.0
C1465 C 0.29658 0.6457 0.78171 0.0
C1466 C 0.31456 0.65775 0.78398 0.0
C1467 C 0.35059 0.6646 0.77409 0.0
C1468 C 0.36887 0.65854 0.76364 0.0
C1469 C 0.33347 0.65109 0.77528 0.0
C1470 C 0.37065 0.63805 0.75627 0.0
C1471 C 0.35372 0.62443 0.75753 0.0
H1472 H 0.38155 0.30824 0.74197 0.0
H1473 H 0.3365 0.26099 0.75808 0.0
H1474 H 0.31125 0.28786 0.76708 0.0
H1475 H 0.30039 0.32437 0.76534 0.0
H1476 H 0.34493 0.3715 0.74764 0.0
H1477 H 0.37199 0.34503 0.7445 0.0
C1478 C 0.36636 0.30376 0.74784 0.0
C1479 C 0.36083 0.28258 0.74896 0.0
C1480 C 0.3517 0.31928 0.75243 0.0
C1481 C 0.34114 0.27714 0.75684 0.0
C1482 C 0.32662 0.29251 0.76189 0.0
C1483 C 0.31609 0.32892 0.76108 0.0
C1484 C 0.32051 0.34984 0.75633 0.0
C1485 C 0.33147 0.31358 0.75891 0.0
C1486 C 0.34102 0.35549 0.75116 0.0
C1487 C 0.3565 0.34035 0.74931 0.0
H1488 H 0.62339 0.36594 0.72967 0.0
H1489 H 0.64881 0.36213 0.79168 0.0
H1490 H 0.67676 0.38591 0.78197 0.0
H1491 H 0.69806 0.40059 0.75397 0.0
H1492 H 0.67387 0.40268 0.69139 0.0
H1493 H 0.64129 0.38704 0.70322 0.0
C1494 C 0.63453 0.37101 0.7413 0.0
C1495 C 0.6343 0.36195 0.76124 0.0
C1496 C 0.65115 0.38391 0.73532 0.0
C1497 C 0.64883 0.3687 0.77615 0.0
C1498 C 0.66495 0.38212 0.77054 0.0
C1499 C 0.68547 0.39806 0.74301 0.0
C1500 C 0.68857 0.40223 0.72176 0.0
C1501 C 0.66699 0.38866 0.74984 0.0
C1502 C 0.67197 0.39935 0.7078 0.0
C1503 C 0.65335 0.39031 0.71455 0.0
H1504 H 0.65147 0.34766 0.22363 0.0
H1505 H 0.60891 0.37297 0.26901 0.0
H1506 H 0.58908 0.34054 0.26881 0.0
H1507 H 0.58832 0.30313 0.26107 0.0
H1508 H 0.63156 0.27756 0.21648 0.0
H1509 H 0.64632 0.31209 0.21066 0.0
C1510 C 0.63755 0.34626 0.23309 0.0
C1511 C 0.63194 0.36248 0.24669 0.0
C1512 C 0.62649 0.32744 0.23321 0.0
C1513 C 0.61365 0.36064 0.25854 0.0
C1514 C 0.60239 0.34204 0.25855 0.0
C1515 C 0.60061 0.30521 0.24966 0.0
C1516 C 0.60918 0.28776 0.23959 0.0
C1517 C 0.60933 0.32501 0.24676 0.0
C1518 C 0.62479 0.29071 0.22456 0.0
C1519 C 0.63337 0.31044 0.22136 0.0
H1520 H 0.68619 0.61644 0.26275 0.0
H1521 H 0.73421 0.66011 0.2451 0.0
H1522 H 0.70795 0.68302 0.22998 0.0
H1523 H 0.67127 0.69272 0.22617 0.0
H1524 H 0.62321 0.64983 0.24542 0.0
H1525 H 0.64969 0.62443 0.25532 0.0
C1526 C 0.69101 0.63081 0.25531 0.0
C1527 C 0.71214 0.6367 0.25541 0.0
C1528 C 0.6758 0.64416 0.24713 0.0
C1529 C 0.71806 0.65525 0.24544 0.0
C1530 C 0.70303 0.66842 0.23686 0.0
C1531 C 0.66654 0.67771 0.23226 0.0
C1532 C 0.64528 0.67334 0.2354 0.0
C1533 C 0.68183 0.66337 0.23833 0.0
C1534 C 0.63945 0.65369 0.24301 0.0
C1535 C 0.65459 0.63917 0.24875 0.0
H1536 H 0.29455 0.66746 0.21726 0.0
H1537 H 0.33358 0.61927 0.24316 0.0
H1538 H 0.36101 0.64481 0.2497 0.0
H1539 H 0.37174 0.68134 0.25241 0.0
H1540 H 0.33172 0.72961 0.22814 0.0
H1541 H 0.30697 0.70339 0.2163 0.0
C1542 C 0.30915 0.66246 0.22411 0.0
C1543 C 0.31186 0.64156 0.23008 0.0
C1544 C 0.32463 0.67725 0.22822 0.0
C1545 C 0.33101 0.63529 0.23859 0.0
C1546 C 0.34668 0.6499 0.2424 0.0
C1547 C 0.35782 0.68615 0.24416 0.0
C1548 C 0.35345 0.70746 0.24147 0.0
C1549 C 0.34335 0.67103 0.23793 0.0
C1550 C 0.33538 0.71335 0.23063 0.0
C1551 C 0.32116 0.69836 0.22392 0.0
H1552 H 0.39031 0.33739 0.27749 0.0
H1553 H 0.37039 0.34531 0.21388 0.0
H1554 H 0.34722 0.37346 0.22431 0.0
H1555 H 0.32684 0.38942 0.25233 0.0
H1556 H 0.3455 0.38046 0.31618 0.0
H1557 H 0.37506 0.35942 0.30485 0.0
C1558 C 0.38159 0.34587 0.26579 0.0
C1559 C 0.38168 0.33896 0.24502 0.0
C1560 C 0.36759 0.36149 0.27205 0.0
C1561 C 0.37034 0.35016 0.23002 0.0
C1562 C 0.35691 0.36613 0.23601 0.0
C1563 C 0.33769 0.3833 0.26373 0.0
C1564 C 0.33368 0.38599 0.28505 0.0
C1565 C 0.35441 0.37091 0.25713 0.0
C1566 C 0.3481 0.37839 0.29965 0.0
C1567 C 0.36497 0.36625 0.29319 0.0
H1568 H 0.75111 0.60925 0.68405 0.0
H1569 H 0.68406 0.61234 0.68107 0.0
H1570 H 0.68615 0.62964 0.64732 0.0
H1571 H 0.70708 0.65066 0.62306 0.0
H1572 H 0.77404 0.64948 0.62763 0.0
H1573 H 0.77197 0.62411 0.65581 0.0
C1574 C 0.73693 0.61327 0.6758 0.0
C1575 C 0.71749 0.61004 0.68534 0.0
C1576 C 0.73825 0.62367 0.65663 0.0
C1577 C 0.69926 0.61491 0.67423 0.0
C1578 C 0.70044 0.6249 0.65493 0.0
C1579 C 0.72122 0.64412 0.62959 0.0
C1580 C 0.74068 0.65213 0.62351 0.0
C1581 C 0.71986 0.63034 0.64654 0.0
C1582 C 0.75888 0.64363 0.63218 0.0
C1583 C 0.75769 0.62931 0.64847 0.0
H1584 H 0.38655 0.75463 0.69352 0.0
H1585 H 0.40909 0.69615 0.66936 0.0
H1586 H 0.3923 0.70318 0.63608 0.0
H1587 H 0.36542 0.7223 0.61684 0.0
H1588 H 0.34077 0.77933 0.64222 0.0
H1589 H 0.36464 0.77685 0.67165 0.0
C1590 C 0.3882 0.74362 0.68084 0.0
C1591 C 0.39858 0.72464 0.68414 0.0
C1592 C 0.37799 0.74747 0.66192 0.0
C1593 C 0.40086 0.71073 0.6674 0.0
C1594 C 0.39122 0.71471 0.64833 0.0
C1595 C 0.36584 0.7346 0.62838 0.0
C1596 C 0.35114 0.75079 0.62756 0.0
C1597 C 0.37888 0.73252 0.6458 0.0
C1598 C 0.35182 0.76659 0.64266 0.0
C1599 C 0.36533 0.76508 0.65959 0.0
H1600 H 0.26062 0.39262 0.67452 0.0
H1601 H 0.21877 0.3541 0.7103 0.0
H1602 H 0.21222 0.33254 0.67974 0.0
H1603 H 0.224 0.32071 0.64537 0.0
H1604 H 0.26691 0.35844 0.61004 0.0
H1605 H 0.26717 0.38441 0.63779 0.0
C1606 C 0.24963 0.37984 0.67549 0.0
C1607 C 0.2406 0.37466 0.69479 0.0
C1608 C 0.2464 0.36716 0.65802 0.0
C1609 C 0.22608 0.35833 0.69571 0.0
C1610 C 0.22248 0.34586 0.67827 0.0
C1611 C 0.23304 0.33485 0.64353 0.0
C1612 C 0.24582 0.33742 0.62591 0.0
C1613 C 0.23344 0.34949 0.65972 0.0
C1614 C 0.2571 0.356 0.62353 0.0
C1615 C 0.25735 0.3708 0.63946 0.0
H1616 H 0.69557 0.23935 0.67489 0.0
H1617 H 0.65136 0.26222 0.62973 0.0
H1618 H 0.62675 0.27016 0.65759 0.0
H1619 H 0.61985 0.2749 0.6948 0.0
H1620 H 0.66476 0.25325 0.73993 0.0
H1621 H 0.68686 0.24023 0.71196 0.0
C1622 C 0.68044 0.24581 0.67108 0.0
C1623 C 0.67548 0.25054 0.65028 0.0
C1624 C 0.66653 0.25069 0.68718 0.0
C1625 C 0.65567 0.25859 0.64562 0.0
C1626 C 0.64161 0.26321 0.66155 0.0
C1627 C 0.63429 0.26701 0.69859 0.0
C1628 C 0.64078 0.26541 0.71946 0.0
C1629 C 0.64718 0.25998 0.68242 0.0
C1630 C 0.65945 0.25492 0.72402 0.0
C1631 C 0.67216 0.24753 0.70802 0.0
H1632 H 0.68243 0.38519 0.33666 0.0
H1633 H 0.7397 0.39369 0.30248 0.0
H1634 H 0.75895 0.37574 0.32974 0.0
H1635 H 0.75829 0.35184 0.35918 0.0
H1636 H 0.70072 0.34072 0.39198 0.0
H1637 H 0.68306 0.36618 0.36997 0.0
C1638 C 0.69919 0.38357 0.33543 0.0
C1639 C 0.70953 0.39029 0.31731 0.0
C1640 C 0.71013 0.37266 0.35092 0.0
C1641 C 0.73129 0.38827 0.31605 0.0
C1642 C 0.74234 0.37801 0.33165 0.0
C1643 C 0.74201 0.35541 0.36194 0.0
C1644 C 0.73072 0.34396 0.3768 0.0
C1645 C 0.73175 0.36924 0.34858 0.0
C1646 C 0.70976 0.34912 0.3805 0.0
C1647 C 0.69957 0.36351 0.36772 0.0
H1648 H 0.59283 0.746 0.30238 0.0
H1649 H 0.64024 0.77659 0.26594 0.0
H1650 H 0.65888 0.78596 0.29768 0.0
H1651 H 0.66521 0.77889 0.33476 0.0
H1652 H 0.61813 0.74769 0.37111 0.0
H1653 H 0.59569 0.74545 0.34052 0.0
C1654 C 0.60691 0.75528 0.30144 0.0
C1655 C 0.61539 0.76019 0.28185 0.0
C1656 C 0.61779 0.76018 0.31972 0.0
C1657 C 0.63344 0.77251 0.28082 0.0
C1658 C 0.64424 0.77768 0.29897 0.0
C1659 C 0.64981 0.77208 0.33609 0.0
C1660 C 0.64352 0.76303 0.35501 0.0
C1661 C 0.63713 0.77058 0.31837 0.0
C1662 C 0.6234 0.75462 0.35667 0.0
C1663 C 0.61061 0.75321 0.33914 0.0
H1664 H 0.21559 0.6701 0.33513 0.0
H1665 H 0.24369 0.61916 0.36869 0.0
H1666 H 0.24034 0.59693 0.33806 0.0
H1667 H 0.23651 0.59469 0.30013 0.0
H1668 H 0.21001 0.64619 0.26618 0.0
H1669 H 0.20499 0.66524 0.29869 0.0
C1670 C 0.22052 0.65398 0.33589 0.0
C1671 C 0.2304 0.64643 0.35394 0.0
C1672 C 0.21896 0.64144 0.31809 0.0
C1673 C 0.23626 0.62541 0.3549 0.0
C1674 C 0.23446 0.61272 0.33734 0.0
C1675 C 0.22901 0.60982 0.29994 0.0
C1676 C 0.2241 0.61924 0.28078 0.0
C1677 C 0.22688 0.62095 0.31858 0.0
C1678 C 0.21404 0.63865 0.28071 0.0
C1679 C 0.21141 0.64966 0.29929 0.0
H1680 H 0.29307 0.22236 0.31544 0.0
H1681 H 0.33947 0.23023 0.36342 0.0
H1682 H 0.36621 0.23556 0.33694 0.0
H1683 H 0.37524 0.24286 0.30063 0.0
H1684 H 0.32838 0.23665 0.25282 0.0
H1685 H 0.30309 0.22542 0.27882 0.0
C1686 C 0.30909 0.22495 0.32014 0.0
C1687 C 0.31418 0.2263 0.34139 0.0
C1688 C 0.32428 0.22843 0.30487 0.0
C1689 C 0.33507 0.22931 0.34718 0.0
C1690 C 0.35037 0.23244 0.33204 0.0
C1691 C 0.35962 0.23869 0.29579 0.0
C1692 C 0.35364 0.24099 0.27483 0.0
C1693 C 0.34498 0.23278 0.31088 0.0
C1694 C 0.33337 0.23527 0.26886 0.0
C1695 C 0.31885 0.22893 0.28374 0.0
H1696 H 0.72208 0.75206 0.66816 0.0
H1697 H 0.67342 0.74364 0.62257 0.0
H1698 H 0.64731 0.75366 0.64819 0.0
H1699 H 0.63793 0.76025 0.68462 0.0
H1700 H 0.68661 0.76769 0.73036 0.0
H1701 H 0.71296 0.76283 0.70355 0.0
C1702 C 0.70582 0.75279 0.66368 0.0
C1703 C 0.69974 0.74675 0.64356 0.0
C1704 C 0.69079 0.75815 0.67861 0.0
C1705 C 0.67857 0.74797 0.63802 0.0
C1706 C 0.66357 0.75363 0.65269 0.0
C1707 C 0.65429 0.76113 0.68868 0.0
C1708 C 0.66023 0.76394 0.70954 0.0
C1709 C 0.66944 0.75801 0.67322 0.0
C1710 C 0.68155 0.76525 0.71447 0.0
C1711 C 0.69667 0.76246 0.69914 0.0
H1712 H 0.68959 0.24257 0.37417 0.0
H1713 H 0.73644 0.24288 0.32593 0.0
H1714 H 0.71082 0.23049 0.3008 0.0
H1715 H 0.67424 0.22497 0.29151 0.0
H1716 H 0.62707 0.22658 0.33939 0.0
H1717 H 0.65379 0.23261 0.36569 0.0
C1718 C 0.69436 0.23952 0.35827 0.0
C1719 C 0.71485 0.24405 0.35189 0.0
C1720 C 0.67941 0.23304 0.34374 0.0
C1721 C 0.72074 0.23976 0.33125 0.0
C1722 C 0.70606 0.23279 0.31682 0.0
C1723 C 0.66979 0.22633 0.30774 0.0
C1724 C 0.64862 0.22575 0.3134 0.0
C1725 C 0.68518 0.23025 0.32272 0.0
C1726 C 0.64321 0.2272 0.33454 0.0
C1727 C 0.65849 0.23071 0.34961 0.0
H1728 H 0.71424 0.61921 0.35738 0.0
H1729 H 0.77779 0.64089 0.35592 0.0
H1730 H 0.76862 0.67009 0.37832 0.0
H1731 H 0.74122 0.69339 0.39109 0.0
H1732 H 0.67732 0.67263 0.39107 0.0
H1733 H 0.68796 0.63915 0.37673 0.0
C1734 C 0.72626 0.62981 0.36269 0.0
C1735 C 0.74656 0.62816 0.35464 0.0
C1736 C 0.72067 0.64713 0.37481 0.0
C1737 C 0.76198 0.642 0.3617 0.0
C1738 C 0.7567 0.65885 0.37433 0.0
C1739 C 0.72968 0.68138 0.38837 0.0
C1740 C 0.70847 0.68572 0.39157 0.0
C1741 C 0.73586 0.66227 0.37979 0.0
C1742 C 0.69374 0.66982 0.38844 0.0
C1743 C 0.6998 0.65066 0.38018 0.0
H1744 H 0.3088 0.74024 0.38233 0.0
H1745 H 0.32721 0.67582 0.37788 0.0
H1746 H 0.35917 0.68593 0.36001 0.0
H1747 H 0.37768 0.71225 0.33932 0.0
H1748 H 0.35789 0.7763 0.34202 0.0
H1749 H 0.33123 0.7673 0.36753 0.0
C1750 C 0.32001 0.72844 0.37784 0.0
C1751 C 0.31535 0.70729 0.3809 0.0
C1752 C 0.33817 0.73433 0.36721 0.0
C1753 C 0.33025 0.69221 0.37543 0.0
C1754 C 0.34854 0.69798 0.36515 0.0
C1755 C 0.36815 0.72438 0.34619 0.0
C1756 C 0.3695 0.74485 0.33858 0.0
C1757 C 0.35214 0.7189 0.36005 0.0
C1758 C 0.357 0.7604 0.34754 0.0
C1759 C 0.34158 0.75521 0.36193 0.0
H1760 H 0.25667 0.30458 0.3975 0.0
H1761 H 0.2187 0.27737 0.3493 0.0
H1762 H 0.21574 0.31123 0.33226 0.0
H1763 H 0.23042 0.34621 0.32724 0.0
H1764 H 0.26938 0.37307 0.37485 0.0
H1765 H 0.2652 0.34183 0.39615 0.0
C1766 C 0.2472 0.30623 0.38361 0.0
C1767 C 0.23831 0.28847 0.37439 0.0
C1768 C 0.24608 0.32559 0.37361 0.0
C1769 C 0.22578 0.29079 0.35664 0.0
C1770 C 0.22429 0.31012 0.34675 0.0
C1771 C 0.23755 0.34541 0.34253 0.0
C1772 C 0.2506 0.36165 0.34929 0.0
C1773 C 0.23538 0.32728 0.35448 0.0
C1774 C 0.2594 0.36069 0.36926 0.0
C1775 C 0.25713 0.34276 0.38137 0.0
H1776 H 0.36218 0.21677 0.65375 0.0
H1777 H 0.39508 0.27505 0.64829 0.0
H1778 H 0.37045 0.28663 0.62173 0.0
H1779 H 0.33542 0.28322 0.60645 0.0
H1780 H 0.30122 0.22596 0.6148 0.0
H1781 H 0.33042 0.21103 0.63382 0.0
C1782 C 0.36435 0.23177 0.6463 0.0
C1783 C 0.3801 0.24524 0.6534 0.0
C1784 C 0.3495 0.23877 0.63196 0.0
C1785 C 0.38299 0.26442 0.64328 0.0
C1786 C 0.36871 0.27118 0.62828 0.0
C1787 C 0.33454 0.26731 0.61202 0.0
C1788 C 0.31595 0.25591 0.60967 0.0
C1789 C 0.3512 0.259 0.62351 0.0
C1790 C 0.31516 0.23523 0.61677 0.0
C1791 C 0.33188 0.22666 0.62763 0.0
H1792 H 0.74091 0.3229 0.59803 0.0
H1793 H 0.78019 0.28539 0.63758 0.0
H1794 H 0.79081 0.31634 0.65674 0.0
H1795 H 0.78286 0.35233 0.66684 0.0
H1796 H 0.7431 0.38981 0.62789 0.0
H1797 H 0.73908 0.36074 0.60367 0.0
C1798 C 0.75226 0.32158 0.61045 0.0
C1799 C 0.7593 0.30179 0.61673 0.0
C1800 C 0.75798 0.33941 0.62172 0.0
C1801 C 0.77433 0.30038 0.63256 0.0
C1802 C 0.7803 0.31807 0.64367 0.0
C1803 C 0.77384 0.3543 0.6527 0.0
C1804 C 0.76294 0.37297 0.64932 0.0
C1805 C 0.77129 0.33743 0.6391 0.0
C1806 C 0.75156 0.37553 0.63084 0.0
C1807 C 0.7491 0.35884 0.6171 0.0
H1808 H 0.2589 0.62471 0.66735 0.0
H1809 H 0.22124 0.66818 0.70205 0.0
H1810 H 0.22625 0.69444 0.67512 0.0
H1811 H 0.24547 0.70658 0.64466 0.0
H1812 H 0.28495 0.66389 0.61097 0.0
H1813 H 0.27476 0.63574 0.63433 0.0
C1814 C 0.2514 0.63977 0.66878 0.0
C1815 C 0.23999 0.64461 0.6868 0.0
C1816 C 0.25486 0.65503 0.65352 0.0
C1817 C 0.23036 0.66418 0.68844 0.0
C1818 C 0.23323 0.67922 0.67307 0.0
C1819 C 0.25155 0.69104 0.64214 0.0
C1820 C 0.26624 0.68747 0.62631 0.0
C1821 C 0.24612 0.67508 0.65598 0.0
C1822 C 0.2738 0.66716 0.62319 0.0
C1823 C 0.26804 0.65104 0.63659 0.0
H1824 H 0.20065 0.38291 0.27252 0.0
H1825 H 0.24485 0.36503 0.22534 0.0
H1826 H 0.21863 0.3432 0.20861 0.0
H1827 H 0.18573 0.32459 0.21117 0.0
H1828 H 0.14198 0.33981 0.25973 0.0
H1829 H 0.16525 0.36745 0.27214 0.0
C1830 C 0.20417 0.37486 0.2581 0.0
C1831 C 0.22451 0.37558 0.24999 0.0
C1832 C 0.18929 0.36147 0.24921 0.0
C1833 C 0.2292 0.36475 0.23166 0.0
C1834 C 0.2143 0.35212 0.22225 0.0
C1835 C 0.18113 0.33415 0.22431 0.0
C1836 C 0.16241 0.32992 0.23482 0.0
C1837 C 0.1947 0.34958 0.23151 0.0
C1838 C 0.15642 0.34269 0.25151 0.0
C1839 C 0.16976 0.35842 0.25863 0.0
H1840 H 0.67706 0.11754 0.23186 0.0
H1841 H 0.6803 0.12601 0.29823 0.0
H1842 H 0.64714 0.14475 0.29772 0.0
H1843 H 0.62356 0.16669 0.2774 0.0
H1844 H 0.6259 0.1648 0.21048 0.0
H1845 H 0.64986 0.13522 0.21189 0.0
C1846 C 0.66992 0.12261 0.2463 0.0
C1847 C 0.68091 0.12036 0.26508 0.0
C1848 C 0.65194 0.13502 0.24556 0.0
C1849 C 0.67194 0.12747 0.28366 0.0
C1850 C 0.65313 0.1384 0.2833 0.0
C1851 C 0.62852 0.15904 0.26317 0.0
C1852 C 0.62293 0.16766 0.24386 0.0
C1853 C 0.6438 0.14346 0.26419 0.0
C1854 C 0.62987 0.15818 0.22548 0.0
C1855 C 0.6438 0.14149 0.22633 0.0
H1856 H 0.83465 0.63262 0.26023 0.0
H1857 H 0.80906 0.67772 0.30295 0.0
H1858 H 0.83653 0.70215 0.29425 0.0
H1859 H 0.86373 0.71299 0.27033 0.0
H1860 H 0.88914 0.66947 0.22622 0.0
H1861 H 0.86641 0.64197 0.23996 0.0
C1862 C 0.83544 0.64761 0.26792 0.0
C1863 C 0.81958 0.65355 0.28182 0.0
C1864 C 0.8512 0.66192 0.26253 0.0
C1865 C 0.82081 0.67296 0.29183 0.0
C1866 C 0.83656 0.68696 0.28693 0.0
C1867 C 0.86475 0.69728 0.26421 0.0
C1868 C 0.87785 0.6932 0.24727 0.0
C1869 C 0.85124 0.68194 0.27168 0.0
C1870 C 0.87921 0.67286 0.23942 0.0
C1871 C 0.86599 0.65725 0.24708 0.0
H1872 H 0.35054 0.83444 0.25445 0.0
H1873 H 0.30277 0.79317 0.27775 0.0
H1874 H 0.27635 0.81914 0.27079 0.0
H1875 H 0.26607 0.85171 0.25469 0.0
H1876 H 0.3126 0.89358 0.23066 0.0
H1877 H 0.34022 0.86962 0.24183 0.0
C1878 C 0.33438 0.83127 0.25817 0.0
C1879 C 0.32867 0.8117 0.26625 0.0
C1880 C 0.31901 0.84641 0.25408 0.0
C1881 C 0.30767 0.80793 0.27124 0.0
C1882 C 0.29246 0.82281 0.26733 0.0
C1883 C 0.28229 0.85581 0.25231 0.0
C1884 C 0.28734 0.87422 0.24176 0.0
C1885 C 0.29788 0.84183 0.25829 0.0
C1886 C 0.30838 0.87949 0.2389 0.0
C1887 C 0.32413 0.86567 0.24504 0.0
H1888 H 0.12382 0.66497 0.72827 0.0
H1889 H 0.11582 0.67478 0.79408 0.0
H1890 H 0.14063 0.64708 0.80159 0.0
H1891 H 0.17148 0.62786 0.78882 0.0
H1892 H 0.17786 0.61615 0.72315 0.0
H1893 H 0.14643 0.63628 0.71614 0.0
C1894 C 0.12662 0.66019 0.74421 0.0
C1895 C 0.11834 0.67205 0.76058 0.0
C1896 C 0.14097 0.64421 0.74843 0.0
C1897 C 0.122 0.66579 0.78121 0.0
C1898 C 0.13647 0.65016 0.78554 0.0
C1899 C 0.16529 0.62877 0.77314 0.0
C1900 C 0.177 0.62084 0.7565 0.0
C1901 C 0.14712 0.64034 0.76923 0.0
C1902 C 0.16897 0.62208 0.73621 0.0
C1903 C 0.15115 0.63386 0.73215 0.0
H1904 H 0.3619 0.15818 0.7452 0.0
H1905 H 0.31853 0.18936 0.70437 0.0
H1906 H 0.29213 0.16345 0.71193 0.0
H1907 H 0.27943 0.13583 0.73448 0.0
H1908 H 0.32148 0.10468 0.77634 0.0
H1909 H 0.35042 0.1261 0.76362 0.0
C1910 C 0.34681 0.15901 0.73769 0.0
C1911 C 0.34203 0.17599 0.72469 0.0
C1912 C 0.33141 0.14407 0.74231 0.0
C1913 C 0.32249 0.17675 0.71484 0.0
C1914 C 0.30734 0.16189 0.71908 0.0
C1915 C 0.29509 0.13328 0.7403 0.0
C1916 C 0.29836 0.11894 0.75639 0.0
C1917 C 0.31135 0.14604 0.73343 0.0
C1918 C 0.31866 0.1156 0.76381 0.0
C1919 C 0.33514 0.12807 0.75676 0.0
H1920 H 0.81872 0.37212 0.73355 0.0
H1921 H 0.76599 0.3531 0.77048 0.0
H1922 H 0.78678 0.32583 0.78676 0.0
H1923 H 0.81807 0.30464 0.78701 0.0
H1924 H 0.87073 0.32153 0.74893 0.0
H1925 H 0.85197 0.35248 0.7366 0.0
C1926 C 0.81208 0.36238 0.74563 0.0
C1927 C 0.79094 0.36456 0.75094 0.0
C1928 C 0.82396 0.34612 0.75433 0.0
C1929 C 0.78227 0.35166 0.76627 0.0
C1930 C 0.79409 0.33599 0.77545 0.0
C1931 C 0.82557 0.31516 0.77613 0.0
C1932 C 0.84559 0.31063 0.76859 0.0
C1933 C 0.81465 0.3326 0.769 0.0
C1934 C 0.85523 0.32462 0.75483 0.0
C1935 C 0.84449 0.34228 0.74776 0.0
H1936 H 0.67847 0.88146 0.77032 0.0
H1937 H 0.67093 0.86659 0.70544 0.0
H1938 H 0.64108 0.84444 0.71372 0.0
H1939 H 0.62461 0.82214 0.73986 0.0
H1940 H 0.63817 0.83151 0.8048 0.0
H1941 H 0.65757 0.86318 0.79642 0.0
C1942 C 0.66956 0.87421 0.75793 0.0
C1943 C 0.67672 0.87569 0.7373 0.0
C1944 C 0.65373 0.86002 0.76306 0.0
C1945 C 0.66552 0.86579 0.72139 0.0
C1946 C 0.64865 0.8529 0.7262 0.0
C1947 C 0.63093 0.83173 0.75223 0.0
C1948 C 0.62994 0.82464 0.77291 0.0
C1949 C 0.64361 0.84879 0.74707 0.0
C1950 C 0.63864 0.83682 0.7888 0.0
C1951 C 0.64996 0.85476 0.78395 0.0
H1952 H 0.27721 0.16675 0.36713 0.0
H1953 H 0.21075 0.16588 0.3585 0.0
H1954 H 0.21401 0.13677 0.33423 0.0
H1955 H 0.23619 0.11962 0.30852 0.0
H1956 H 0.30281 0.1267 0.31201 0.0
H1957 H 0.29937 0.14464 0.34539 0.0
C1958 C 0.2634 0.1594 0.36075 0.0
C1959 C 0.24376 0.16827 0.36459 0.0
C1960 C 0.26563 0.14404 0.34536 0.0
C1961 C 0.22597 0.15911 0.35586 0.0
C1962 C 0.22791 0.14268 0.34175 0.0
C1963 C 0.25 0.12419 0.31711 0.0
C1964 C 0.26973 0.12195 0.30785 0.0
C1965 C 0.24774 0.1361 0.33529 0.0
C1966 C 0.28749 0.12826 0.3189 0.0
C1967 C 0.28547 0.13875 0.33785 0.0
H1968 H 0.85894 0.28822 0.27647 0.0
H1969 H 0.89176 0.24526 0.31608 0.0
H1970 H 0.86888 0.25427 0.34522 0.0
H1971 H 0.83492 0.26879 0.35675 0.0
H1972 H 0.80182 0.31047 0.31573 0.0
H1973 H 0.82939 0.30769 0.29001 0.0
C1974 C 0.86156 0.28144 0.29172 0.0
C1975 C 0.87675 0.26596 0.29412 0.0
C1976 C 0.84788 0.28607 0.30804 0.0
C1977 C 0.88017 0.25732 0.31391 0.0
C1978 C 0.86685 0.26221 0.33049 0.0
C1979 C 0.83404 0.27762 0.3424 0.0
C1980 C 0.81609 0.28935 0.33792 0.0
C1981 C 0.8499 0.27568 0.32736 0.0
C1982 C 0.81523 0.30091 0.31935 0.0
C1983 C 0.83103 0.2994 0.30462 0.0
H1984 H 0.78512 0.82084 0.30691 0.0
H1985 H 0.74519 0.87202 0.32384 0.0
H1986 H 0.7311 0.85158 0.35291 0.0
H1987 H 0.72672 0.81718 0.37007 0.0
H1988 H 0.7657 0.76598 0.35104 0.0
H1989 H 0.78398 0.78851 0.32655 0.0
C1990 C 0.7735 0.82765 0.31711 0.0
C1991 C 0.76588 0.84773 0.31303 0.0
C1992 C 0.76536 0.81576 0.33344 0.0
C1993 C 0.75117 0.85651 0.3266 0.0
C1994 C 0.74308 0.84479 0.34316 0.0
C1995 C 0.73969 0.81123 0.36103 0.0
C1996 C 0.74493 0.79001 0.36227 0.0
C1997 C 0.74959 0.82414 0.34631 0.0
C1998 C 0.76147 0.78229 0.35028 0.0
C1999 C 0.7718 0.79511 0.33619 0.0
H2000 H 0.18333 0.72336 0.37364 0.0
H2001 H 0.22869 0.77177 0.36393 0.0
H2002 H 0.20448 0.79039 0.34132 0.0
H2003 H 0.17383 0.78902 0.31906 0.0
H2004 H 0.12934 0.73928 0.32593 0.0
H2005 H 0.14954 0.72507 0.35507 0.0
C2006 C 0.18745 0.73844 0.36727 0.0
C2007 C 0.2076 0.74637 0.37044 0.0
C2008 C 0.17383 0.74844 0.35334 0.0
C2009 C 0.21314 0.7656 0.36177 0.0
C2010 C 0.19941 0.77608 0.34866 0.0
C2011 C 0.16835 0.77527 0.32719 0.0
C2012 C 0.15044 0.7649 0.32013 0.0
C2013 C 0.18024 0.76703 0.34346 0.0
C2014 C 0.14321 0.74739 0.33102 0.0
C2015 C 0.15481 0.73924 0.3476 0.0
H2016 H 0.27037 0.82043 0.63363 0.0
H2017 H 0.23339 0.76971 0.65739 0.0
H2018 H 0.21801 0.79254 0.68345 0.0
H2019 H 0.21806 0.82533 0.7019 0.0
H2020 H 0.25526 0.87667 0.67997 0.0
H2021 H 0.26764 0.85529 0.65068 0.0
C2022 C 0.25849 0.81468 0.64417 0.0
C2023 C 0.25283 0.79354 0.64365 0.0
C2024 C 0.25018 0.82783 0.65965 0.0
C2025 C 0.2378 0.78599 0.65755 0.0
C2026 C 0.22914 0.79897 0.67252 0.0
C2027 C 0.22887 0.83192 0.6907 0.0
C2028 C 0.23615 0.85234 0.6933 0.0
C2029 C 0.23577 0.81965 0.67415 0.0
C2030 C 0.24965 0.86086 0.67837 0.0
C2031 C 0.2567 0.84864 0.66167 0.0
H2032 H 0.18248 0.26332 0.61907 0.0
H2033 H 0.22398 0.21223 0.63186 0.0
H2034 H 0.19844 0.19693 0.65547 0.0
H2035 H 0.16781 0.20174 0.67725 0.0
H2036 H 0.12682 0.25377 0.6669 0.0
H2037 H 0.14839 0.26505 0.63736 0.0
C2038 C 0.18544 0.24841 0.62641 0.0
C2039 C 0.20489 0.23873 0.62375 0.0
C2040 C 0.17101 0.24023 0.64074 0.0
C2041 C 0.20896 0.21973 0.63364 0.0
C2042 C 0.19448 0.21113 0.64727 0.0
C2043 C 0.16337 0.21533 0.66824 0.0
C2044 C 0.14608 0.22718 0.67436 0.0
C2045 C 0.17599 0.22181 0.65172 0.0
C2046 C 0.14018 0.2445 0.66245 0.0
C2047 C 0.15258 0.25098 0.64567 0.0
H2048 H 0.75098 0.12797 0.67289 0.0
H2049 H 0.68481 0.13807 0.67632 0.0
H2050 H 0.68624 0.15985 0.6451 0.0
H2051 H 0.70748 0.18314 0.62362 0.0
H2052 H 0.77431 0.17874 0.62601 0.0
H2053 H 0.77176 0.1474 0.64752 0.0
C2054 C 0.73677 0.13413 0.66614 0.0
C2055 C 0.71779 0.13137 0.67667 0.0
C2056 C 0.73807 0.14811 0.64938 0.0
C2057 C 0.69952 0.13988 0.66827 0.0
C2058 C 0.70042 0.15254 0.65059 0.0
C2059 C 0.72141 0.17465 0.62803 0.0
C2060 C 0.74105 0.18297 0.62316 0.0
C2061 C 0.71978 0.15784 0.64191 0.0
C2062 C 0.75907 0.17237 0.62943 0.0
C2063 C 0.75757 0.15464 0.64195 0.0
H2064 H 0.80893 0.70729 0.66672 0.0
H2065 H 0.8188 0.75691 0.62267 0.0
H2066 H 0.84945 0.76846 0.64237 0.0
H2067 H 0.8696 0.76763 0.67537 0.0
H2068 H 0.85729 0.71922 0.7201 0.0
H2069 H 0.83176 0.70358 0.69669 0.0
C2070 C 0.81796 0.72046 0.66125 0.0
C2071 C 0.81143 0.73152 0.64356 0.0
C2072 C 0.83517 0.72713 0.6728 0.0
C2073 C 0.82348 0.74827 0.63636 0.0
C2074 C 0.84094 0.7549 0.64767 0.0
C2075 C 0.86188 0.7532 0.67951 0.0
C2076 C 0.86534 0.74436 0.69923 0.0
C2077 C 0.84646 0.74489 0.66634 0.0
C2078 C 0.85494 0.72604 0.70485 0.0
C2079 C 0.84021 0.71726 0.69158 0.0
H2080 H 0.27071 0.27089 0.13329 0.0
H2081 H 0.31178 0.23369 0.09562 0.0
H2082 H 0.34133 0.2434 0.11779 0.0
H2083 H 0.35386 0.25774 0.15148 0.0
H2084 H 0.31155 0.2943 0.18884 0.0
H2085 H 0.28425 0.28968 0.16321 0.0
C2086 C 0.28627 0.26545 0.12957 0.0
C2087 C 0.28913 0.25153 0.11306 0.0
C2088 C 0.3029 0.27063 0.14264 0.0
C2089 C 0.3093 0.24459 0.10823 0.0
C2090 C 0.32612 0.2499 0.12109 0.0
C2091 C 0.33878 0.26497 0.15378 0.0
C2092 C 0.33464 0.27589 0.17231 0.0
C2093 C 0.32289 0.26214 0.13892 0.0
C2094 C 0.31509 0.28543 0.17495 0.0
C2095 C 0.29941 0.28286 0.16027 0.0
H2096 H 0.38757 0.72925 0.81713 0.0
H2097 H 0.37129 0.78114 0.77788 0.0
H2098 H 0.34635 0.79335 0.8038 0.0
H2099 H 0.32426 0.78494 0.83346 0.0
H2100 H 0.33816 0.73185 0.87196 0.0
H2101 H 0.36908 0.72437 0.85068 0.0
C2102 C 0.37922 0.74374 0.81477 0.0
C2103 C 0.38119 0.75438 0.79574 0.0
C2104 C 0.36407 0.75001 0.8293 0.0
C2105 C 0.37003 0.77286 0.79252 0.0
C2106 C 0.35561 0.77966 0.8072 0.0
C2107 C 0.33433 0.77198 0.83743 0.0
C2108 C 0.32884 0.75867 0.85386 0.0
C2109 C 0.35167 0.76767 0.82499 0.0
C2110 C 0.3421 0.74218 0.85923 0.0
C2111 C 0.35968 0.73788 0.84701 0.0
H2112 H 0.28489 0.33849 0.86654 0.0
H2113 H 0.21993 0.32333 0.87369 0.0
H2114 H 0.21037 0.3519 0.8507 0.0
H2115 H 0.22173 0.37304 0.82063 0.0
H2116 H 0.28648 0.38948 0.81466 0.0
H2117 H 0.29485 0.36915 0.84556 0.0
C2118 C 0.26861 0.34223 0.864 0.0
C2119 C 0.25319 0.32854 0.87127 0.0
C2120 C 0.26322 0.35863 0.85057 0.0
C2121 C 0.23212 0.33359 0.86813 0.0
C2122 C 0.22663 0.34977 0.8547 0.0
C2123 C 0.23745 0.37312 0.82682 0.0
C2124 C 0.25354 0.38224 0.81518 0.0
C2125 C 0.24218 0.36125 0.84458 0.0
C2126 C 0.27383 0.38246 0.82335 0.0
C2127 C 0.2787 0.37057 0.84088 0.0
H2128 H 0.64403 0.26604 0.84453 0.0
H2129 H 0.69328 0.29718 0.8109 0.0
H2130 H 0.71869 0.28493 0.83595 0.0
H2131 H 0.72779 0.26163 0.8643 0.0
H2132 H 0.67971 0.22946 0.89818 0.0
H2133 H 0.65298 0.24627 0.87664 0.0
C2134 C 0.66027 0.27037 0.84291 0.0
C2135 C 0.66677 0.28212 0.82558 0.0
C2136 C 0.67504 0.2631 0.85743 0.0
C2137 C 0.68785 0.28781 0.82383 0.0
C2138 C 0.70245 0.28088 0.8382 0.0
C2139 C 0.71141 0.25873 0.86731 0.0
C2140 C 0.70567 0.24426 0.88259 0.0
C2141 C 0.69634 0.26797 0.8546 0.0
C2142 C 0.68445 0.24068 0.88653 0.0
C2143 C 0.66921 0.25008 0.87403 0.0
H2144 H 0.74817 0.61876 0.81294 0.0
H2145 H 0.79559 0.63946 0.7702 0.0
H2146 H 0.80738 0.66535 0.79539 0.0
H2147 H 0.79914 0.68661 0.82574 0.0
H2148 H 0.7498 0.66824 0.86737 0.0
H2149 H 0.74377 0.63682 0.84655 0.0
C2150 C 0.7617 0.6283 0.80958 0.0
C2151 C 0.77106 0.62728 0.78979 0.0
C2152 C 0.76752 0.644 0.82365 0.0
C2153 C 0.78828 0.63996 0.78539 0.0
C2154 C 0.7948 0.65494 0.79967 0.0
C2155 C 0.78729 0.67554 0.83046 0.0
C2156 C 0.77457 0.67991 0.84773 0.0
C2157 C 0.78371 0.65788 0.81823 0.0
C2158 C 0.75962 0.66527 0.854 0.0
C2159 C 0.75616 0.64736 0.84206 0.0
H2160 H 0.6771 0.71149 0.1179 0.0
H2161 H 0.67693 0.77748 0.10589 0.0
H2162 H 0.64613 0.7817 0.12759 0.0
H2163 H 0.62579 0.76773 0.15714 0.0
H2164 H 0.62429 0.70157 0.16755 0.0
H2165 H 0.64876 0.69616 0.13897 0.0
C2166 C 0.66968 0.7266 0.11923 0.0
C2167 C 0.6795 0.74419 0.11072 0.0
C2168 C 0.65188 0.72894 0.13176 0.0
C2169 C 0.6697 0.76368 0.11235 0.0
C2170 C 0.65219 0.76618 0.12501 0.0
C2171 C 0.62998 0.75209 0.15236 0.0
C2172 C 0.62349 0.73509 0.16443 0.0
C2173 C 0.64405 0.74911 0.13587 0.0
C2174 C 0.62902 0.71486 0.1583 0.0
C2175 C 0.64325 0.71179 0.14214 0.0
H2176 H 0.27757 0.62861 0.1651 0.0
H2177 H 0.21127 0.63504 0.15789 0.0
H2178 H 0.2165 0.66014 0.1297 0.0
H2179 H 0.23944 0.68645 0.11452 0.0
H2180 H 0.30519 0.68496 0.12779 0.0
H2181 H 0.30103 0.65158 0.14564 0.0
C2182 C 0.26435 0.63475 0.15656 0.0
C2183 C 0.24408 0.62986 0.16321 0.0
C2184 C 0.26753 0.65052 0.14176 0.0
C2185 C 0.22697 0.63838 0.1527 0.0
C2186 C 0.23 0.65295 0.13681 0.0
C2187 C 0.25299 0.67833 0.1205 0.0
C2188 C 0.2726 0.68809 0.11989 0.0
C2189 C 0.25016 0.6601 0.13221 0.0
C2190 C 0.28998 0.67768 0.12806 0.0
C2191 C 0.28754 0.65872 0.13846 0.0
H2192 H 0.70406 0.38122 0.18483 0.0
H2193 H 0.7567 0.37918 0.22631 0.0
H2194 H 0.77593 0.35777 0.2015 0.0
H2195 H 0.77483 0.33414 0.17188 0.0
H2196 H 0.72148 0.33354 0.13124 0.0
H2197 H 0.70548 0.36167 0.15154 0.0
C2198 C 0.72007 0.37679 0.1879 0.0
C2199 C 0.72914 0.38179 0.20717 0.0
C2200 C 0.73063 0.36359 0.17396 0.0
C2201 C 0.74963 0.37561 0.21142 0.0
C2202 C 0.76049 0.36319 0.19736 0.0
C2203 C 0.75989 0.3405 0.1672 0.0
C2204 C 0.74911 0.33159 0.15042 0.0
C2205 C 0.7507 0.3562 0.17917 0.0
C2206 C 0.72998 0.34013 0.14421 0.0
C2207 C 0.7208 0.35611 0.1559 0.0
loop_
_geom_bond_atom_site_label_1
_geom_bond_atom_site_label_2
_geom_bond_distance
_geom_bond_site_symmetry_2
_ccdc_geom_bond_type
O0 Cd1 2.223 . S
O0 C8 1.315 . S
Cd1 O0 2.223 . S
Cd1 O4 2.297 . S
Cd1 O5 2.439 . S
Cd1 O11 2.240 . S
Cd2 O3 2.240 . S
Cd2 O10 2.223 . S
Cd2 O12 2.297 . S
Cd2 O13 2.439 . S
O3 Cd2 2.240 . S
O3 C8 1.279 . S
O4 Cd1 2.297 . S
O4 C6 1.247 . S
O5 Cd1 2.439 . S
O5 C6 1.208 . S
C6 O4 1.247 . S
C6 O5 1.208 . S
C7 O12 1.247 . S
C7 O13 1.208 . S
C8 O0 1.315 . S
C8 O3 1.279 . S
C9 O10 1.315 . S
C9 O11 1.279 . S
O10 Cd2 2.223 . S
O10 C9 1.315 . S
O11 Cd1 2.240 . S
O11 C9 1.279 . S
O12 Cd2 2.297 . S
O12 C7 1.247 . S
O13 Cd2 2.439 . S
O13 C7 1.208 . S
O14 Cd15 2.223 . S
O14 C22 1.315 . S
Cd15 O14 2.223 . S
Cd15 O18 2.297 . S
Cd15 O19 2.439 . S
Cd15 O25 2.240 . S
Cd16 O17 2.240 . S
Cd16 O24 2.223 . S
Cd16 O26 2.297 . S
Cd16 O27 2.439 . S
O17 Cd16 2.240 . S
O17 C22 1.279 . S
O18 Cd15 2.297 . S
O18 C20 1.247 . S
O19 Cd15 2.439 . S
O19 C20 1.208 . S
C20 O18 1.247 . S
C20 O19 1.208 . S
C21 O26 1.247 . S
C21 O27 1.208 . S
C22 O14 1.315 . S
C22 O17 1.279 . S
C23 O24 1.315 . S
C23 O25 1.279 . S
O24 Cd16 2.223 . S
O24 C23 1.315 . S
O25 Cd15 2.240 . S
O25 C23 1.279 . S
O26 Cd16 2.297 . S
O26 C21 1.247 . S
O27 Cd16 2.439 . S
O27 C21 1.208 . S
O28 Cd29 2.223 . S
O28 C36 1.315 . S
Cd29 O28 2.223 . S
Cd29 O32 2.297 . S
Cd29 O33 2.439 . S
Cd29 O39 2.240 . S
Cd30 O31 2.240 . S
Cd30 O38 2.223 . S
Cd30 O40 2.297 . S
Cd30 O41 2.439 . S
O31 Cd30 2.240 . S
O31 C36 1.279 . S
O32 Cd29 2.297 . S
O32 C34 1.247 . S
O33 Cd29 2.439 . S
O33 C34 1.208 . S
C34 O32 1.247 . S
C34 O33 1.208 . S
C35 O40 1.247 . S
C35 O41 1.208 . S
C36 O28 1.315 . S
C36 O31 1.279 . S
C37 O38 1.315 . S
C37 O39 1.279 . S
O38 Cd30 2.223 . S
O38 C37 1.315 . S
O39 Cd29 2.240 . S
O39 C37 1.279 . S
O40 Cd30 2.297 . S
O40 C35 1.247 . S
O41 Cd30 2.439 . S
O41 C35 1.208 . S
O42 Cd43 2.223 . S
O42 C50 1.315 . S
Cd43 O42 2.223 . S
Cd43 O46 2.297 . S
Cd43 O47 2.439 . S
Cd43 O53 2.240 . S
Cd44 O45 2.240 . S
Cd44 O52 2.223 . S
Cd44 O54 2.297 . S
Cd44 O55 2.439 . S
O45 Cd44 2.240 . S
O45 C50 1.279 . S
O46 Cd43 2.297 . S
O46 C48 1.247 . S
O47 Cd43 2.439 . S
O47 C48 1.208 . S
C48 O46 1.247 . S
C48 O47 1.208 . S
C49 O54 1.247 . S
C49 O55 1.208 . S
C50 O42 1.315 . S
C50 O45 1.279 . S
C51 O52 1.315 . S
C51 O53 1.279 . S
O52 Cd44 2.223 . S
O52 C51 1.315 . S
O53 Cd43 2.240 . S
O53 C51 1.279 . S
O54 Cd44 2.297 . S
O54 C49 1.247 . S
O55 Cd44 2.439 . S
O55 C49 1.208 . S
O56 Cd57 2.223 . S
O56 C64 1.315 . S
Cd57 O56 2.223 . S
Cd57 O60 2.297 . S
Cd57 O61 2.439 . S
Cd57 O67 2.240 . S
Cd58 O59 2.240 . S
Cd58 O66 2.223 . S
Cd58 O68 2.297 . S
Cd58 O69 2.439 . S
O59 Cd58 2.240 . S
O59 C64 1.279 . S
O60 Cd57 2.297 . S
O60 C62 1.247 . S
O61 Cd57 2.439 . S
O61 C62 1.208 . S
C62 O60 1.247 . S
C62 O61 1.208 . S
C63 O68 1.247 . S
C63 O69 1.208 . S
C64 O56 1.315 . S
C64 O59 1.279 . S
C65 O66 1.315 . S
C65 O67 1.279 . S
O66 Cd58 2.223 . S
O66 C65 1.315 . S
O67 Cd57 2.240 . S
O67 C65 1.279 . S
O68 Cd58 2.297 . S
O68 C63 1.247 . S
O69 Cd58 2.439 . S
O69 C63 1.208 . S
O70 Cd71 2.223 . S
O70 C78 1.315 . S
Cd71 O70 2.223 . S
Cd71 O74 2.297 . S
Cd71 O75 2.439 . S
Cd71 O81 2.240 . S
Cd72 O73 2.240 . S
Cd72 O80 2.223 . S
Cd72 O82 2.297 . S
Cd72 O83 2.439 . S
O73 Cd72 2.240 . S
O73 C78 1.279 . S
O74 Cd71 2.297 . S
O74 C76 1.247 . S
O75 Cd71 2.439 . S
O75 C76 1.208 . S
C76 O74 1.247 . S
C76 O75 1.208 . S
C77 O82 1.247 . S
C77 O83 1.208 . S
C78 O70 1.315 . S
C78 O73 1.279 . S
C79 O80 1.315 . S
C79 O81 1.279 . S
O80 Cd72 2.223 . S
O80 C79 1.315 . S
O81 Cd71 2.240 . S
O81 C79 1.279 . S
O82 Cd72 2.297 . S
O82 C77 1.247 . S
O83 Cd72 2.439 . S
O83 C77 1.208 . S
O84 Cd85 2.223 . S
O84 C92 1.315 . S
Cd85 O84 2.223 . S
Cd85 O88 2.297 . S
Cd85 O89 2.439 . S
Cd85 O95 2.240 . S
Cd86 O87 2.240 . S
Cd86 O94 2.223 . S
Cd86 O96 2.297 . S
Cd86 O97 2.439 . S
O87 Cd86 2.240 . S
O87 C92 1.279 . S
O88 Cd85 2.297 . S
O88 C90 1.247 . S
O89 Cd85 2.439 . S
O89 C90 1.208 . S
C90 O88 1.247 . S
C90 O89 1.208 . S
C91 O96 1.247 . S
C91 O97 1.208 . S
C92 O84 1.315 . S
C92 O87 1.279 . S
C93 O94 1.315 . S
C93 O95 1.279 . S
O94 Cd86 2.223 . S
O94 C93 1.315 . S
O95 Cd85 2.240 . S
O95 C93 1.279 . S
O96 Cd86 2.297 . S
O96 C91 1.247 . S
O97 Cd86 2.439 . S
O97 C91 1.208 . S
O98 Cd99 2.223 . S
O98 C106 1.315 . S
Cd99 O98 2.223 . S
Cd99 O102 2.297 . S
Cd99 O103 2.439 . S
Cd99 O109 2.240 . S
Cd100 O101 2.240 . S
Cd100 O108 2.223 . S
Cd100 O110 2.297 . S
Cd100 O111 2.439 . S
O101 Cd100 2.240 . S
O101 C106 1.279 . S
O102 Cd99 2.297 . S
O102 C104 1.247 . S
O103 Cd99 2.439 . S
O103 C104 1.208 . S
C104 O102 1.247 . S
C104 O103 1.208 . S
C105 O110 1.247 . S
C105 O111 1.208 . S
C106 O98 1.315 . S
C106 O101 1.279 . S
C107 O108 1.315 . S
C107 O109 1.279 . S
O108 Cd100 2.223 . S
O108 C107 1.315 . S
O109 Cd99 2.240 . S
O109 C107 1.279 . S
O110 Cd100 2.297 . S
O110 C105 1.247 . S
O111 Cd100 2.439 . S
O111 C105 1.208 . S
O112 Cd113 2.223 . S
O112 C120 1.315 . S
Cd113 O112 2.223 . S
Cd113 O116 2.297 . S
Cd113 O117 2.439 . S
Cd113 O123 2.240 . S
Cd114 O115 2.240 . S
Cd114 O122 2.223 . S
Cd114 O124 2.297 . S
Cd114 O125 2.439 . S
O115 Cd114 2.240 . S
O115 C120 1.279 . S
O116 Cd113 2.297 . S
O116 C118 1.247 . S
O117 Cd113 2.439 . S
O117 C118 1.208 . S
C118 O116 1.247 . S
C118 O117 1.208 . S
C119 O124 1.247 . S
C119 O125 1.208 . S
C120 O112 1.315 . S
C120 O115 1.279 . S
C121 O122 1.315 . S
C121 O123 1.279 . S
O122 Cd114 2.223 . S
O122 C121 1.315 . S
O123 Cd113 2.240 . S
O123 C121 1.279 . S
O124 Cd114 2.297 . S
O124 C119 1.247 . S
O125 Cd114 2.439 . S
O125 C119 1.208 . S
O126 Cd127 2.223 . S
O126 C134 1.315 . S
Cd127 O126 2.223 . S
Cd127 O130 2.297 . S
Cd127 O131 2.439 . S
Cd127 O137 2.240 . S
Cd128 O129 2.240 . S
Cd128 O136 2.223 . S
Cd128 O138 2.297 . S
Cd128 O139 2.439 . S
O129 Cd128 2.240 . S
O129 C134 1.279 . S
O130 Cd127 2.297 . S
O130 C132 1.247 . S
O131 Cd127 2.439 . S
O131 C132 1.208 . S
C132 O130 1.247 . S
C132 O131 1.208 . S
C133 O138 1.247 . S
C133 O139 1.208 . S
C134 O126 1.315 . S
C134 O129 1.279 . S
C135 O136 1.315 . S
C135 O137 1.279 . S
O136 Cd128 2.223 . S
O136 C135 1.315 . S
O137 Cd127 2.240 . S
O137 C135 1.279 . S
O138 Cd128 2.297 . S
O138 C133 1.247 . S
O139 Cd128 2.439 . S
O139 C133 1.208 . S
O140 Cd141 2.223 . S
O140 C148 1.315 . S
Cd141 O140 2.223 . S
Cd141 O144 2.297 . S
Cd141 O145 2.439 . S
Cd141 O151 2.240 . S
Cd142 O143 2.240 . S
Cd142 O150 2.223 . S
Cd142 O152 2.297 . S
Cd142 O153 2.439 . S
O143 Cd142 2.240 . S
O143 C148 1.279 . S
O144 Cd141 2.297 . S
O144 C146 1.247 . S
O145 Cd141 2.439 . S
O145 C146 1.208 . S
C146 O144 1.247 . S
C146 O145 1.208 . S
C147 O152 1.247 . S
C147 O153 1.208 . S
C148 O140 1.315 . S
C148 O143 1.279 . S
C149 O150 1.315 . S
C149 O151 1.279 . S
O150 Cd142 2.223 . S
O150 C149 1.315 . S
O151 Cd141 2.240 . S
O151 C149 1.279 . S
O152 Cd142 2.297 . S
O152 C147 1.247 . S
O153 Cd142 2.439 . S
O153 C147 1.208 . S
O154 Cd155 2.223 . S
O154 C162 1.315 . S
Cd155 O154 2.223 . S
Cd155 O158 2.297 . S
Cd155 O159 2.439 . S
Cd155 O165 2.240 . S
Cd156 O157 2.240 . S
Cd156 O164 2.223 . S
Cd156 O166 2.297 . S
Cd156 O167 2.439 . S
O157 Cd156 2.240 . S
O157 C162 1.279 . S
O158 Cd155 2.297 . S
O158 C160 1.247 . S
O159 Cd155 2.439 . S
O159 C160 1.208 . S
C160 O158 1.247 . S
C160 O159 1.208 . S
C161 O166 1.247 . S
C161 O167 1.208 . S
C162 O154 1.315 . S
C162 O157 1.279 . S
C163 O164 1.315 . S
C163 O165 1.279 . S
O164 Cd156 2.223 . S
O164 C163 1.315 . S
O165 Cd155 2.240 . S
O165 C163 1.279 . S
O166 Cd156 2.297 . S
O166 C161 1.247 . S
O167 Cd156 2.439 . S
O167 C161 1.208 . S
O168 Cd169 2.223 . S
O168 C176 1.315 . S
Cd169 O168 2.223 . S
Cd169 O172 2.297 . S
Cd169 O173 2.439 . S
Cd169 O179 2.240 . S
Cd170 O171 2.240 . S
Cd170 O178 2.223 . S
Cd170 O180 2.297 . S
Cd170 O181 2.439 . S
O171 Cd170 2.240 . S
O171 C176 1.279 . S
O172 Cd169 2.297 . S
O172 C174 1.247 . S
O173 Cd169 2.439 . S
O173 C174 1.208 . S
C174 O172 1.247 . S
C174 O173 1.208 . S
C175 O180 1.247 . S
C175 O181 1.208 . S
C176 O168 1.315 . S
C176 O171 1.279 . S
C177 O178 1.315 . S
C177 O179 1.279 . S
O178 Cd170 2.223 . S
O178 C177 1.315 . S
O179 Cd169 2.240 . S
O179 C177 1.279 . S
O180 Cd170 2.297 . S
O180 C175 1.247 . S
O181 Cd170 2.439 . S
O181 C175 1.208 . S
O182 Cd183 2.223 . S
O182 C190 1.315 . S
Cd183 O182 2.223 . S
Cd183 O186 2.297 . S
Cd183 O187 2.439 . S
Cd183 O193 2.240 . S
Cd184 O185 2.240 . S
Cd184 O192 2.223 . S
Cd184 O194 2.297 . S
Cd184 O195 2.439 . S
O185 Cd184 2.240 . S
O185 C190 1.279 . S
O186 Cd183 2.297 . S
O186 C188 1.247 . S
O187 Cd183 2.439 . S
O187 C188 1.208 . S
C188 O186 1.247 . S
C188 O187 1.208 . S
C189 O194 1.247 . S
C189 O195 1.208 . S
C190 O182 1.315 . S
C190 O185 1.279 . S
C191 O192 1.315 . S
C191 O193 1.279 . S
O192 Cd184 2.223 . S
O192 C191 1.315 . S
O193 Cd183 2.240 . S
O193 C191 1.279 . S
O194 Cd184 2.297 . S
O194 C189 1.247 . S
O195 Cd184 2.439 . S
O195 C189 1.208 . S
O196 Cd197 2.223 . S
O196 C204 1.315 . S
Cd197 O196 2.223 . S
Cd197 O200 2.297 . S
Cd197 O201 2.439 . S
Cd197 O207 2.240 . S
Cd198 O199 2.240 . S
Cd198 O206 2.223 . S
Cd198 O208 2.297 . S
Cd198 O209 2.439 . S
O199 Cd198 2.240 . S
O199 C204 1.279 . S
O200 Cd197 2.297 . S
O200 C202 1.247 . S
O201 Cd197 2.439 . S
O201 C202 1.208 . S
C202 O200 1.247 . S
C202 O201 1.208 . S
C203 O208 1.247 . S
C203 O209 1.208 . S
C204 O196 1.315 . S
C204 O199 1.279 . S
C205 O206 1.315 . S
C205 O207 1.279 . S
O206 Cd198 2.223 . S
O206 C205 1.315 . S
O207 Cd197 2.240 . S
O207 C205 1.279 . S
O208 Cd198 2.297 . S
O208 C203 1.247 . S
O209 Cd198 2.439 . S
O209 C203 1.208 . S
O210 Cd211 2.223 . S
O210 C218 1.315 . S
Cd211 O210 2.223 . S
Cd211 O214 2.297 . S
Cd211 O215 2.439 . S
Cd211 O221 2.240 . S
Cd212 O213 2.240 . S
Cd212 O220 2.223 . S
Cd212 O222 2.297 . S
Cd212 O223 2.439 . S
O213 Cd212 2.240 . S
O213 C218 1.279 . S
O214 Cd211 2.297 . S
O214 C216 1.247 . S
O215 Cd211 2.439 . S
O215 C216 1.208 . S
C216 O214 1.247 . S
C216 O215 1.208 . S
C217 O222 1.247 . S
C217 O223 1.208 . S
C218 O210 1.315 . S
C218 O213 1.279 . S
C219 O220 1.315 . S
C219 O221 1.279 . S
O220 Cd212 2.223 . S
O220 C219 1.315 . S
O221 Cd211 2.240 . S
O221 C219 1.279 . S
O222 Cd212 2.297 . S
O222 C217 1.247 . S
O223 Cd212 2.439 . S
O223 C217 1.208 . S
O224 Cd225 2.223 . S
O224 C232 1.315 . S
Cd225 O224 2.223 . S
Cd225 O228 2.297 . S
Cd225 O229 2.439 . S
Cd225 O235 2.240 . S
Cd226 O227 2.240 . S
Cd226 O234 2.223 . S
Cd226 O236 2.297 . S
Cd226 O237 2.439 . S
O227 Cd226 2.240 . S
O227 C232 1.279 . S
O228 Cd225 2.297 . S
O228 C230 1.247 . S
O229 Cd225 2.439 . S
O229 C230 1.208 . S
C230 O228 1.247 . S
C230 O229 1.208 . S
C231 O236 1.247 . S
C231 O237 1.208 . S
C232 O224 1.315 . S
C232 O227 1.279 . S
C233 O234 1.315 . S
C233 O235 1.279 . S
O234 Cd226 2.223 . S
O234 C233 1.315 . S
O235 Cd225 2.240 . S
O235 C233 1.279 . S
O236 Cd226 2.297 . S
O236 C231 1.247 . S
O237 Cd226 2.439 . S
O237 C231 1.208 . S
O238 Cd239 2.223 . S
O238 C246 1.315 . S
Cd239 O238 2.223 . S
Cd239 O242 2.297 . S
Cd239 O243 2.439 . S
Cd239 O249 2.240 . S
Cd240 O241 2.240 . S
Cd240 O248 2.223 . S
Cd240 O250 2.297 . S
Cd240 O251 2.439 . S
O241 Cd240 2.240 . S
O241 C246 1.279 . S
O242 Cd239 2.297 . S
O242 C244 1.247 . S
O243 Cd239 2.439 . S
O243 C244 1.208 . S
C244 O242 1.247 . S
C244 O243 1.208 . S
C245 O250 1.247 . S
C245 O251 1.208 . S
C246 O238 1.315 . S
C246 O241 1.279 . S
C247 O248 1.315 . S
C247 O249 1.279 . S
O248 Cd240 2.223 . S
O248 C247 1.315 . S
O249 Cd239 2.240 . S
O249 C247 1.279 . S
O250 Cd240 2.297 . S
O250 C245 1.247 . S
O251 Cd240 2.439 . S
O251 C245 1.208 . S
O252 Cd253 2.223 . S
O252 C260 1.315 . S
Cd253 O252 2.223 . S
Cd253 O256 2.297 . S
Cd253 O257 2.439 . S
Cd253 O263 2.240 . S
Cd254 O255 2.240 . S
Cd254 O262 2.223 . S
Cd254 O264 2.297 . S
Cd254 O265 2.439 . S
O255 Cd254 2.240 . S
O255 C260 1.279 . S
O256 Cd253 2.297 . S
O256 C258 1.247 . S
O257 Cd253 2.439 . S
O257 C258 1.208 . S
C258 O256 1.247 . S
C258 O257 1.208 . S
C259 O264 1.247 . S
C259 O265 1.208 . S
C260 O252 1.315 . S
C260 O255 1.279 . S
C261 O262 1.315 . S
C261 O263 1.279 . S
O262 Cd254 2.223 . S
O262 C261 1.315 . S
O263 Cd253 2.240 . S
O263 C261 1.279 . S
O264 Cd254 2.297 . S
O264 C259 1.247 . S
O265 Cd254 2.439 . S
O265 C259 1.208 . S
O266 Cd267 2.223 . S
O266 C274 1.315 . S
Cd267 O266 2.223 . S
Cd267 O270 2.297 . S
Cd267 O271 2.439 . S
Cd267 O277 2.240 . S
Cd268 O269 2.240 . S
Cd268 O276 2.223 . S
Cd268 O278 2.297 . S
Cd268 O279 2.439 . S
O269 Cd268 2.240 . S
O269 C274 1.279 . S
O270 Cd267 2.297 . S
O270 C272 1.247 . S
O271 Cd267 2.439 . S
O271 C272 1.208 . S
C272 O270 1.247 . S
C272 O271 1.208 . S
C273 O278 1.247 . S
C273 O279 1.208 . S
C274 O266 1.315 . S
C274 O269 1.279 . S
C275 O276 1.315 . S
C275 O277 1.279 . S
O276 Cd268 2.223 . S
O276 C275 1.315 . S
O277 Cd267 2.240 . S
O277 C275 1.279 . S
O278 Cd268 2.297 . S
O278 C273 1.247 . S
O279 Cd268 2.439 . S
O279 C273 1.208 . S
O280 Cd281 2.223 . S
O280 C288 1.315 . S
Cd281 O280 2.223 . S
Cd281 O284 2.297 . S
Cd281 O285 2.439 . S
Cd281 O291 2.240 . S
Cd282 O283 2.240 . S
Cd282 O290 2.223 . S
Cd282 O292 2.297 . S
Cd282 O293 2.439 . S
O283 Cd282 2.240 . S
O283 C288 1.279 . S
O284 Cd281 2.297 . S
O284 C286 1.247 . S
O285 Cd281 2.439 . S
O285 C286 1.208 . S
C286 O284 1.247 . S
C286 O285 1.208 . S
C287 O292 1.247 . S
C287 O293 1.208 . S
C288 O280 1.315 . S
C288 O283 1.279 . S
C289 O290 1.315 . S
C289 O291 1.279 . S
O290 Cd282 2.223 . S
O290 C289 1.315 . S
O291 Cd281 2.240 . S
O291 C289 1.279 . S
O292 Cd282 2.297 . S
O292 C287 1.247 . S
O293 Cd282 2.439 . S
O293 C287 1.208 . S
O294 Cd295 2.223 . S
O294 C302 1.315 . S
Cd295 O294 2.223 . S
Cd295 O298 2.297 . S
Cd295 O299 2.439 . S
Cd295 O305 2.240 . S
Cd296 O297 2.240 . S
Cd296 O304 2.223 . S
Cd296 O306 2.297 . S
Cd296 O307 2.439 . S
O297 Cd296 2.240 . S
O297 C302 1.279 . S
O298 Cd295 2.297 . S
O298 C300 1.247 . S
O299 Cd295 2.439 . S
O299 C300 1.208 . S
C300 O298 1.247 . S
C300 O299 1.208 . S
C301 O306 1.247 . S
C301 O307 1.208 . S
C302 O294 1.315 . S
C302 O297 1.279 . S
C303 O304 1.315 . S
C303 O305 1.279 . S
O304 Cd296 2.223 . S
O304 C303 1.315 . S
O305 Cd295 2.240 . S
O305 C303 1.279 . S
O306 Cd296 2.297 . S
O306 C301 1.247 . S
O307 Cd296 2.439 . S
O307 C301 1.208 . S
O308 Cd309 2.223 . S
O308 C316 1.315 . S
Cd309 O308 2.223 . S
Cd309 O312 2.297 . S
Cd309 O313 2.439 . S
Cd309 O319 2.240 . S
Cd310 O311 2.240 . S
Cd310 O318 2.223 . S
Cd310 O320 2.297 . S
Cd310 O321 2.439 . S
O311 Cd310 2.240 . S
O311 C316 1.279 . S
O312 Cd309 2.297 . S
O312 C314 1.247 . S
O313 Cd309 2.439 . S
O313 C314 1.208 . S
C314 O312 1.247 . S
C314 O313 1.208 . S
C315 O320 1.247 . S
C315 O321 1.208 . S
C316 O308 1.315 . S
C316 O311 1.279 . S
C317 O318 1.315 . S
C317 O319 1.279 . S
O318 Cd310 2.223 . S
O318 C317 1.315 . S
O319 Cd309 2.240 . S
O319 C317 1.279 . S
O320 Cd310 2.297 . S
O320 C315 1.247 . S
O321 Cd310 2.439 . S
O321 C315 1.208 . S
O322 Cd323 2.223 . S
O322 C330 1.315 . S
Cd323 O322 2.223 . S
Cd323 O326 2.297 . S
Cd323 O327 2.439 . S
Cd323 O333 2.240 . S
Cd324 O325 2.240 . S
Cd324 O332 2.223 . S
Cd324 O334 2.297 . S
Cd324 O335 2.439 . S
O325 Cd324 2.240 . S
O325 C330 1.279 . S
O326 Cd323 2.297 . S
O326 C328 1.247 . S
O327 Cd323 2.439 . S
O327 C328 1.208 . S
C328 O326 1.247 . S
C328 O327 1.208 . S
C329 O334 1.247 . S
C329 O335 1.208 . S
C330 O322 1.315 . S
C330 O325 1.279 . S
C331 O332 1.315 . S
C331 O333 1.279 . S
O332 Cd324 2.223 . S
O332 C331 1.315 . S
O333 Cd323 2.240 . S
O333 C331 1.279 . S
O334 Cd324 2.297 . S
O334 C329 1.247 . S
O335 Cd324 2.439 . S
O335 C329 1.208 . S
O336 Cd337 2.223 . S
O336 C344 1.315 . S
Cd337 O336 2.223 . S
Cd337 O340 2.297 . S
Cd337 O341 2.439 . S
Cd337 O347 2.240 . S
Cd338 O339 2.240 . S
Cd338 O346 2.223 . S
Cd338 O348 2.297 . S
Cd338 O349 2.439 . S
O339 Cd338 2.240 . S
O339 C344 1.279 . S
O340 Cd337 2.297 . S
O340 C342 1.247 . S
O341 Cd337 2.439 . S
O341 C342 1.208 . S
C342 O340 1.247 . S
C342 O341 1.208 . S
C343 O348 1.247 . S
C343 O349 1.208 . S
C344 O336 1.315 . S
C344 O339 1.279 . S
C345 O346 1.315 . S
C345 O347 1.279 . S
O346 Cd338 2.223 . S
O346 C345 1.315 . S
O347 Cd337 2.240 . S
O347 C345 1.279 . S
O348 Cd338 2.297 . S
O348 C343 1.247 . S
O349 Cd338 2.439 . S
O349 C343 1.208 . S
O350 Cd351 2.223 . S
O350 C358 1.315 . S
Cd351 O350 2.223 . S
Cd351 O354 2.297 . S
Cd351 O355 2.439 . S
Cd351 O361 2.240 . S
Cd352 O353 2.240 . S
Cd352 O360 2.223 . S
Cd352 O362 2.297 . S
Cd352 O363 2.439 . S
O353 Cd352 2.240 . S
O353 C358 1.279 . S
O354 Cd351 2.297 . S
O354 C356 1.247 . S
O355 Cd351 2.439 . S
O355 C356 1.208 . S
C356 O354 1.247 . S
C356 O355 1.208 . S
C357 O362 1.247 . S
C357 O363 1.208 . S
C358 O350 1.315 . S
C358 O353 1.279 . S
C359 O360 1.315 . S
C359 O361 1.279 . S
O360 Cd352 2.223 . S
O360 C359 1.315 . S
O361 Cd351 2.240 . S
O361 C359 1.279 . S
O362 Cd352 2.297 . S
O362 C357 1.247 . S
O363 Cd352 2.439 . S
O363 C357 1.208 . S
O364 Cd365 2.223 . S
O364 C372 1.315 . S
Cd365 O364 2.223 . S
Cd365 O368 2.297 . S
Cd365 O369 2.439 . S
Cd365 O375 2.240 . S
Cd366 O367 2.240 . S
Cd366 O374 2.223 . S
Cd366 O376 2.297 . S
Cd366 O377 2.439 . S
O367 Cd366 2.240 . S
O367 C372 1.279 . S
O368 Cd365 2.297 . S
O368 C370 1.247 . S
O369 Cd365 2.439 . S
O369 C370 1.208 . S
C370 O368 1.247 . S
C370 O369 1.208 . S
C371 O376 1.247 . S
C371 O377 1.208 . S
C372 O364 1.315 . S
C372 O367 1.279 . S
C373 O374 1.315 . S
C373 O375 1.279 . S
O374 Cd366 2.223 . S
O374 C373 1.315 . S
O375 Cd365 2.240 . S
O375 C373 1.279 . S
O376 Cd366 2.297 . S
O376 C371 1.247 . S
O377 Cd366 2.439 . S
O377 C371 1.208 . S
O378 Cd379 2.223 . S
O378 C386 1.315 . S
Cd379 O378 2.223 . S
Cd379 O382 2.297 . S
Cd379 O383 2.439 . S
Cd379 O389 2.240 . S
Cd380 O381 2.240 . S
Cd380 O388 2.223 . S
Cd380 O390 2.297 . S
Cd380 O391 2.439 . S
O381 Cd380 2.240 . S
O381 C386 1.279 . S
O382 Cd379 2.297 . S
O382 C384 1.247 . S
O383 Cd379 2.439 . S
O383 C384 1.208 . S
C384 O382 1.247 . S
C384 O383 1.208 . S
C385 O390 1.247 . S
C385 O391 1.208 . S
C386 O378 1.315 . S
C386 O381 1.279 . S
C387 O388 1.315 . S
C387 O389 1.279 . S
O388 Cd380 2.223 . S
O388 C387 1.315 . S
O389 Cd379 2.240 . S
O389 C387 1.279 . S
O390 Cd380 2.297 . S
O390 C385 1.247 . S
O391 Cd380 2.439 . S
O391 C385 1.208 . S
O392 Cd393 2.223 . S
O392 C400 1.315 . S
Cd393 O392 2.223 . S
Cd393 O396 2.297 . S
Cd393 O397 2.439 . S
Cd393 O403 2.240 . S
Cd394 O395 2.240 . S
Cd394 O402 2.223 . S
Cd394 O404 2.297 . S
Cd394 O405 2.439 . S
O395 Cd394 2.240 . S
O395 C400 1.279 . S
O396 Cd393 2.297 . S
O396 C398 1.247 . S
O397 Cd393 2.439 . S
O397 C398 1.208 . S
C398 O396 1.247 . S
C398 O397 1.208 . S
C399 O404 1.247 . S
C399 O405 1.208 . S
C400 O392 1.315 . S
C400 O395 1.279 . S
C401 O402 1.315 . S
C401 O403 1.279 . S
O402 Cd394 2.223 . S
O402 C401 1.315 . S
O403 Cd393 2.240 . S
O403 C401 1.279 . S
O404 Cd394 2.297 . S
O404 C399 1.247 . S
O405 Cd394 2.439 . S
O405 C399 1.208 . S
O406 Cd407 2.223 . S
O406 C414 1.315 . S
Cd407 O406 2.223 . S
Cd407 O410 2.297 . S
Cd407 O411 2.439 . S
Cd407 O417 2.240 . S
Cd408 O409 2.240 . S
Cd408 O416 2.223 . S
Cd408 O418 2.297 . S
Cd408 O419 2.439 . S
O409 Cd408 2.240 . S
O409 C414 1.279 . S
O410 Cd407 2.297 . S
O410 C412 1.247 . S
O411 Cd407 2.439 . S
O411 C412 1.208 . S
C412 O410 1.247 . S
C412 O411 1.208 . S
C413 O418 1.247 . S
C413 O419 1.208 . S
C414 O406 1.315 . S
C414 O409 1.279 . S
C415 O416 1.315 . S
C415 O417 1.279 . S
O416 Cd408 2.223 . S
O416 C415 1.315 . S
O417 Cd407 2.240 . S
O417 C415 1.279 . S
O418 Cd408 2.297 . S
O418 C413 1.247 . S
O419 Cd408 2.439 . S
O419 C413 1.208 . S
O420 Cd421 2.223 . S
O420 C428 1.315 . S
Cd421 O420 2.223 . S
Cd421 O424 2.297 . S
Cd421 O425 2.439 . S
Cd421 O431 2.240 . S
Cd422 O423 2.240 . S
Cd422 O430 2.223 . S
Cd422 O432 2.297 . S
Cd422 O433 2.439 . S
O423 Cd422 2.240 . S
O423 C428 1.279 . S
O424 Cd421 2.297 . S
O424 C426 1.247 . S
O425 Cd421 2.439 . S
O425 C426 1.208 . S
C426 O424 1.247 . S
C426 O425 1.208 . S
C427 O432 1.247 . S
C427 O433 1.208 . S
C428 O420 1.315 . S
C428 O423 1.279 . S
C429 O430 1.315 . S
C429 O431 1.279 . S
O430 Cd422 2.223 . S
O430 C429 1.315 . S
O431 Cd421 2.240 . S
O431 C429 1.279 . S
O432 Cd422 2.297 . S
O432 C427 1.247 . S
O433 Cd422 2.439 . S
O433 C427 1.208 . S
O434 Cd435 2.223 . S
O434 C442 1.315 . S
Cd435 O434 2.223 . S
Cd435 O438 2.297 . S
Cd435 O439 2.439 . S
Cd435 O445 2.240 . S
Cd436 O437 2.240 . S
Cd436 O444 2.223 . S
Cd436 O446 2.297 . S
Cd436 O447 2.439 . S
O437 Cd436 2.240 . S
O437 C442 1.279 . S
O438 Cd435 2.297 . S
O438 C440 1.247 . S
O439 Cd435 2.439 . S
O439 C440 1.208 . S
C440 O438 1.247 . S
C440 O439 1.208 . S
C441 O446 1.247 . S
C441 O447 1.208 . S
C442 O434 1.315 . S
C442 O437 1.279 . S
C443 O444 1.315 . S
C443 O445 1.279 . S
O444 Cd436 2.223 . S
O444 C443 1.315 . S
O445 Cd435 2.240 . S
O445 C443 1.279 . S
O446 Cd436 2.297 . S
O446 C441 1.247 . S
O447 Cd436 2.439 . S
O447 C441 1.208 . S
O448 Cd449 2.223 . S
O448 C456 1.315 . S
Cd449 O448 2.223 . S
Cd449 O452 2.297 . S
Cd449 O453 2.439 . S
Cd449 O459 2.240 . S
Cd450 O451 2.240 . S
Cd450 O458 2.223 . S
Cd450 O460 2.297 . S
Cd450 O461 2.439 . S
O451 Cd450 2.240 . S
O451 C456 1.279 . S
O452 Cd449 2.297 . S
O452 C454 1.247 . S
O453 Cd449 2.439 . S
O453 C454 1.208 . S
C454 O452 1.247 . S
C454 O453 1.208 . S
C455 O460 1.247 . S
C455 O461 1.208 . S
C456 O448 1.315 . S
C456 O451 1.279 . S
C457 O458 1.315 . S
C457 O459 1.279 . S
O458 Cd450 2.223 . S
O458 C457 1.315 . S
O459 Cd449 2.240 . S
O459 C457 1.279 . S
O460 Cd450 2.297 . S
O460 C455 1.247 . S
O461 Cd450 2.439 . S
O461 C455 1.208 . S
O462 Cd463 2.223 . S
O462 C470 1.315 . S
Cd463 O462 2.223 . S
Cd463 O466 2.297 . S
Cd463 O467 2.439 . S
Cd463 O473 2.240 . S
Cd464 O465 2.240 . S
Cd464 O472 2.223 . S
Cd464 O474 2.297 . S
Cd464 O475 2.439 . S
O465 Cd464 2.240 . S
O465 C470 1.279 . S
O466 Cd463 2.297 . S
O466 C468 1.247 . S
O467 Cd463 2.439 . S
O467 C468 1.208 . S
C468 O466 1.247 . S
C468 O467 1.208 . S
C469 O474 1.247 . S
C469 O475 1.208 . S
C470 O462 1.315 . S
C470 O465 1.279 . S
C471 O472 1.315 . S
C471 O473 1.279 . S
O472 Cd464 2.223 . S
O472 C471 1.315 . S
O473 Cd463 2.240 . S
O473 C471 1.279 . S
O474 Cd464 2.297 . S
O474 C469 1.247 . S
O475 Cd464 2.439 . S
O475 C469 1.208 . S
O476 Cd477 2.223 . S
O476 C484 1.315 . S
Cd477 O476 2.223 . S
Cd477 O480 2.297 . S
Cd477 O481 2.439 . S
Cd477 O487 2.240 . S
Cd478 O479 2.240 . S
Cd478 O486 2.223 . S
Cd478 O488 2.297 . S
Cd478 O489 2.439 . S
O479 Cd478 2.240 . S
O479 C484 1.279 . S
O480 Cd477 2.297 . S
O480 C482 1.247 . S
O481 Cd477 2.439 . S
O481 C482 1.208 . S
C482 O480 1.247 . S
C482 O481 1.208 . S
C483 O488 1.247 . S
C483 O489 1.208 . S
C484 O476 1.315 . S
C484 O479 1.279 . S
C485 O486 1.315 . S
C485 O487 1.279 . S
O486 Cd478 2.223 . S
O486 C485 1.315 . S
O487 Cd477 2.240 . S
O487 C485 1.279 . S
O488 Cd478 2.297 . S
O488 C483 1.247 . S
O489 Cd478 2.439 . S
O489 C483 1.208 . S
O490 Cd491 2.223 . S
O490 C498 1.315 . S
Cd491 O490 2.223 . S
Cd491 O494 2.297 . S
Cd491 O495 2.439 . S
Cd491 O501 2.240 . S
Cd492 O493 2.240 . S
Cd492 O500 2.223 . S
Cd492 O502 2.297 . S
Cd492 O503 2.439 . S
O493 Cd492 2.240 . S
O493 C498 1.279 . S
O494 Cd491 2.297 . S
O494 C496 1.247 . S
O495 Cd491 2.439 . S
O495 C496 1.208 . S
C496 O494 1.247 . S
C496 O495 1.208 . S
C497 O502 1.247 . S
C497 O503 1.208 . S
C498 O490 1.315 . S
C498 O493 1.279 . S
C499 O500 1.315 . S
C499 O501 1.279 . S
O500 Cd492 2.223 . S
O500 C499 1.315 . S
O501 Cd491 2.240 . S
O501 C499 1.279 . S
O502 Cd492 2.297 . S
O502 C497 1.247 . S
O503 Cd492 2.439 . S
O503 C497 1.208 . S
O504 Cd505 2.223 . S
O504 C512 1.315 . S
Cd505 O504 2.223 . S
Cd505 O508 2.297 . S
Cd505 O509 2.439 . S
Cd505 O515 2.240 . S
Cd506 O507 2.240 . S
Cd506 O514 2.223 . S
Cd506 O516 2.297 . S
Cd506 O517 2.439 . S
O507 Cd506 2.240 . S
O507 C512 1.279 . S
O508 Cd505 2.297 . S
O508 C510 1.247 . S
O509 Cd505 2.439 . S
O509 C510 1.208 . S
C510 O508 1.247 . S
C510 O509 1.208 . S
C511 O516 1.247 . S
C511 O517 1.208 . S
C512 O504 1.315 . S
C512 O507 1.279 . S
C513 O514 1.315 . S
C513 O515 1.279 . S
O514 Cd506 2.223 . S
O514 C513 1.315 . S
O515 Cd505 2.240 . S
O515 C513 1.279 . S
O516 Cd506 2.297 . S
O516 C511 1.247 . S
O517 Cd506 2.439 . S
O517 C511 1.208 . S
O518 Cd519 2.223 . S
O518 C526 1.315 . S
Cd519 O518 2.223 . S
Cd519 O522 2.297 . S
Cd519 O523 2.439 . S
Cd519 O529 2.240 . S
Cd520 O521 2.240 . S
Cd520 O528 2.223 . S
Cd520 O530 2.297 . S
Cd520 O531 2.439 . S
O521 Cd520 2.240 . S
O521 C526 1.279 . S
O522 Cd519 2.297 . S
O522 C524 1.247 . S
O523 Cd519 2.439 . S
O523 C524 1.208 . S
C524 O522 1.247 . S
C524 O523 1.208 . S
C525 O530 1.247 . S
C525 O531 1.208 . S
C526 O518 1.315 . S
C526 O521 1.279 . S
C527 O528 1.315 . S
C527 O529 1.279 . S
O528 Cd520 2.223 . S
O528 C527 1.315 . S
O529 Cd519 2.240 . S
O529 C527 1.279 . S
O530 Cd520 2.297 . S
O530 C525 1.247 . S
O531 Cd520 2.439 . S
O531 C525 1.208 . S
O532 Cd533 2.223 . S
O532 C540 1.315 . S
Cd533 O532 2.223 . S
Cd533 O536 2.297 . S
Cd533 O537 2.439 . S
Cd533 O543 2.240 . S
Cd534 O535 2.240 . S
Cd534 O542 2.223 . S
Cd534 O544 2.297 . S
Cd534 O545 2.439 . S
O535 Cd534 2.240 . S
O535 C540 1.279 . S
O536 Cd533 2.297 . S
O536 C538 1.247 . S
O537 Cd533 2.439 . S
O537 C538 1.208 . S
C538 O536 1.247 . S
C538 O537 1.208 . S
C539 O544 1.247 . S
C539 O545 1.208 . S
C540 O532 1.315 . S
C540 O535 1.279 . S
C541 O542 1.315 . S
C541 O543 1.279 . S
O542 Cd534 2.223 . S
O542 C541 1.315 . S
O543 Cd533 2.240 . S
O543 C541 1.279 . S
O544 Cd534 2.297 . S
O544 C539 1.247 . S
O545 Cd534 2.439 . S
O545 C539 1.208 . S
O546 Cd547 2.223 . S
O546 C554 1.315 . S
Cd547 O546 2.223 . S
Cd547 O550 2.297 . S
Cd547 O551 2.439 . S
Cd547 O557 2.240 . S
Cd548 O549 2.240 . S
Cd548 O556 2.223 . S
Cd548 O558 2.297 . S
Cd548 O559 2.439 . S
O549 Cd548 2.240 . S
O549 C554 1.279 . S
O550 Cd547 2.297 . S
O550 C552 1.247 . S
O551 Cd547 2.439 . S
O551 C552 1.208 . S
C552 O550 1.247 . S
C552 O551 1.208 . S
C553 O558 1.247 . S
C553 O559 1.208 . S
C554 O546 1.315 . S
C554 O549 1.279 . S
C555 O556 1.315 . S
C555 O557 1.279 . S
O556 Cd548 2.223 . S
O556 C555 1.315 . S
O557 Cd547 2.240 . S
O557 C555 1.279 . S
O558 Cd548 2.297 . S
O558 C553 1.247 . S
O559 Cd548 2.439 . S
O559 C553 1.208 . S
O560 Cd561 2.223 . S
O560 C568 1.315 . S
Cd561 O560 2.223 . S
Cd561 O564 2.297 . S
Cd561 O565 2.439 . S
Cd561 O571 2.240 . S
Cd562 O563 2.240 . S
Cd562 O570 2.223 . S
Cd562 O572 2.297 . S
Cd562 O573 2.439 . S
O563 Cd562 2.240 . S
O563 C568 1.279 . S
O564 Cd561 2.297 . S
O564 C566 1.247 . S
O565 Cd561 2.439 . S
O565 C566 1.208 . S
C566 O564 1.247 . S
C566 O565 1.208 . S
C567 O572 1.247 . S
C567 O573 1.208 . S
C568 O560 1.315 . S
C568 O563 1.279 . S
C569 O570 1.315 . S
C569 O571 1.279 . S
O570 Cd562 2.223 . S
O570 C569 1.315 . S
O571 Cd561 2.240 . S
O571 C569 1.279 . S
O572 Cd562 2.297 . S
O572 C567 1.247 . S
O573 Cd562 2.439 . S
O573 C567 1.208 . S
O574 Cd575 2.223 . S
O574 C582 1.315 . S
Cd575 O574 2.223 . S
Cd575 O578 2.297 . S
Cd575 O579 2.439 . S
Cd575 O585 2.240 . S
Cd576 O577 2.240 . S
Cd576 O584 2.223 . S
Cd576 O586 2.297 . S
Cd576 O587 2.439 . S
O577 Cd576 2.240 . S
O577 C582 1.279 . S
O578 Cd575 2.297 . S
O578 C580 1.247 . S
O579 Cd575 2.439 . S
O579 C580 1.208 . S
C580 O578 1.247 . S
C580 O579 1.208 . S
C581 O586 1.247 . S
C581 O587 1.208 . S
C582 O574 1.315 . S
C582 O577 1.279 . S
C583 O584 1.315 . S
C583 O585 1.279 . S
O584 Cd576 2.223 . S
O584 C583 1.315 . S
O585 Cd575 2.240 . S
O585 C583 1.279 . S
O586 Cd576 2.297 . S
O586 C581 1.247 . S
O587 Cd576 2.439 . S
O587 C581 1.208 . S
O588 Cd589 2.223 . S
O588 C596 1.315 . S
Cd589 O588 2.223 . S
Cd589 O592 2.297 . S
Cd589 O593 2.439 . S
Cd589 O599 2.240 . S
Cd590 O591 2.240 . S
Cd590 O598 2.223 . S
Cd590 O600 2.297 . S
Cd590 O601 2.439 . S
O591 Cd590 2.240 . S
O591 C596 1.279 . S
O592 Cd589 2.297 . S
O592 C594 1.247 . S
O593 Cd589 2.439 . S
O593 C594 1.208 . S
C594 O592 1.247 . S
C594 O593 1.208 . S
C595 O600 1.247 . S
C595 O601 1.208 . S
C596 O588 1.315 . S
C596 O591 1.279 . S
C597 O598 1.315 . S
C597 O599 1.279 . S
O598 Cd590 2.223 . S
O598 C597 1.315 . S
O599 Cd589 2.240 . S
O599 C597 1.279 . S
O600 Cd590 2.297 . S
O600 C595 1.247 . S
O601 Cd590 2.439 . S
O601 C595 1.208 . S
O602 Cd603 2.223 . S
O602 C610 1.315 . S
Cd603 O602 2.223 . S
Cd603 O606 2.297 . S
Cd603 O607 2.439 . S
Cd603 O613 2.240 . S
Cd604 O605 2.240 . S
Cd604 O612 2.223 . S
Cd604 O614 2.297 . S
Cd604 O615 2.439 . S
O605 Cd604 2.240 . S
O605 C610 1.279 . S
O606 Cd603 2.297 . S
O606 C608 1.247 . S
O607 Cd603 2.439 . S
O607 C608 1.208 . S
C608 O606 1.247 . S
C608 O607 1.208 . S
C609 O614 1.247 . S
C609 O615 1.208 . S
C610 O602 1.315 . S
C610 O605 1.279 . S
C611 O612 1.315 . S
C611 O613 1.279 . S
O612 Cd604 2.223 . S
O612 C611 1.315 . S
O613 Cd603 2.240 . S
O613 C611 1.279 . S
O614 Cd604 2.297 . S
O614 C609 1.247 . S
O615 Cd604 2.439 . S
O615 C609 1.208 . S
O616 Cd617 2.223 . S
O616 C624 1.315 . S
Cd617 O616 2.223 . S
Cd617 O620 2.297 . S
Cd617 O621 2.439 . S
Cd617 O627 2.240 . S
Cd618 O619 2.240 . S
Cd618 O626 2.223 . S
Cd618 O628 2.297 . S
Cd618 O629 2.439 . S
O619 Cd618 2.240 . S
O619 C624 1.279 . S
O620 Cd617 2.297 . S
O620 C622 1.247 . S
O621 Cd617 2.439 . S
O621 C622 1.208 . S
C622 O620 1.247 . S
C622 O621 1.208 . S
C623 O628 1.247 . S
C623 O629 1.208 . S
C624 O616 1.315 . S
C624 O619 1.279 . S
C625 O626 1.315 . S
C625 O627 1.279 . S
O626 Cd618 2.223 . S
O626 C625 1.315 . S
O627 Cd617 2.240 . S
O627 C625 1.279 . S
O628 Cd618 2.297 . S
O628 C623 1.247 . S
O629 Cd618 2.439 . S
O629 C623 1.208 . S
O630 Cd631 2.223 . S
O630 C638 1.315 . S
Cd631 O630 2.223 . S
Cd631 O634 2.297 . S
Cd631 O635 2.439 . S
Cd631 O641 2.240 . S
Cd632 O633 2.240 . S
Cd632 O640 2.223 . S
Cd632 O642 2.297 . S
Cd632 O643 2.439 . S
O633 Cd632 2.240 . S
O633 C638 1.279 . S
O634 Cd631 2.297 . S
O634 C636 1.247 . S
O635 Cd631 2.439 . S
O635 C636 1.208 . S
C636 O634 1.247 . S
C636 O635 1.208 . S
C637 O642 1.247 . S
C637 O643 1.208 . S
C638 O630 1.315 . S
C638 O633 1.279 . S
C639 O640 1.315 . S
C639 O641 1.279 . S
O640 Cd632 2.223 . S
O640 C639 1.315 . S
O641 Cd631 2.240 . S
O641 C639 1.279 . S
O642 Cd632 2.297 . S
O642 C637 1.247 . S
O643 Cd632 2.439 . S
O643 C637 1.208 . S
O644 Cd645 2.223 . S
O644 C652 1.315 . S
Cd645 O644 2.223 . S
Cd645 O648 2.297 . S
Cd645 O649 2.439 . S
Cd645 O655 2.240 . S
Cd646 O647 2.240 . S
Cd646 O654 2.223 . S
Cd646 O656 2.297 . S
Cd646 O657 2.439 . S
O647 Cd646 2.240 . S
O647 C652 1.279 . S
O648 Cd645 2.297 . S
O648 C650 1.247 . S
O649 Cd645 2.439 . S
O649 C650 1.208 . S
C650 O648 1.247 . S
C650 O649 1.208 . S
C651 O656 1.247 . S
C651 O657 1.208 . S
C652 O644 1.315 . S
C652 O647 1.279 . S
C653 O654 1.315 . S
C653 O655 1.279 . S
O654 Cd646 2.223 . S
O654 C653 1.315 . S
O655 Cd645 2.240 . S
O655 C653 1.279 . S
O656 Cd646 2.297 . S
O656 C651 1.247 . S
O657 Cd646 2.439 . S
O657 C651 1.208 . S
O658 Cd659 2.223 . S
O658 C666 1.315 . S
Cd659 O658 2.223 . S
Cd659 O662 2.297 . S
Cd659 O663 2.439 . S
Cd659 O669 2.240 . S
Cd660 O661 2.240 . S
Cd660 O668 2.223 . S
Cd660 O670 2.297 . S
Cd660 O671 2.439 . S
O661 Cd660 2.240 . S
O661 C666 1.279 . S
O662 Cd659 2.297 . S
O662 C664 1.247 . S
O663 Cd659 2.439 . S
O663 C664 1.208 . S
C664 O662 1.247 . S
C664 O663 1.208 . S
C665 O670 1.247 . S
C665 O671 1.208 . S
C666 O658 1.315 . S
C666 O661 1.279 . S
C667 O668 1.315 . S
C667 O669 1.279 . S
O668 Cd660 2.223 . S
O668 C667 1.315 . S
O669 Cd659 2.240 . S
O669 C667 1.279 . S
O670 Cd660 2.297 . S
O670 C665 1.247 . S
O671 Cd660 2.439 . S
O671 C665 1.208 . S
H672 C678 0.930 . S
H673 C681 0.930 . S
H674 C682 0.930 . S
H675 C683 0.930 . S
H676 C686 0.930 . S
H677 C687 0.930 . S
C678 H672 0.930 . S
C678 C679 1.355 . S
C678 C680 1.415 . S
C679 C678 1.355 . S
C679 C681 1.419 . S
C680 C678 1.415 . S
C680 C685 1.425 1_655 S
C680 C687 1.409 . S
C681 H673 0.930 . S
C681 C679 1.419 . S
C681 C682 1.362 1_655 S
C682 H674 0.930 . S
C682 C681 1.362 1_455 S
C682 C685 1.409 . S
C683 H675 0.930 . S
C683 C684 1.355 . S
C683 C685 1.415 . S
C684 C683 1.355 . S
C684 C686 1.419 . S
C685 C680 1.425 1_455 S
C685 C682 1.409 . S
C685 C683 1.415 . S
C686 H676 0.930 . S
C686 C684 1.419 . S
C686 C687 1.362 1_455 S
C687 H677 0.930 . S
C687 C680 1.409 . S
C687 C686 1.362 1_655 S
H688 C694 0.930 . S
H689 C697 0.930 . S
H690 C698 0.930 . S
H691 C699 0.930 . S
H692 C702 0.930 . S
H693 C703 0.930 . S
C694 H688 0.930 . S
C694 C695 1.355 . S
C694 C696 1.415 . S
C695 C694 1.355 . S
C695 C697 1.419 . S
C696 C694 1.415 . S
C696 C701 1.425 1_565 S
C696 C703 1.409 . S
C697 H689 0.930 . S
C697 C695 1.419 . S
C697 C698 1.362 1_565 S
C698 H690 0.930 . S
C698 C697 1.362 1_545 S
C698 C701 1.409 . S
C699 H691 0.930 . S
C699 C700 1.355 . S
C699 C701 1.415 . S
C700 C699 1.355 . S
C700 C702 1.419 . S
C701 C696 1.425 1_545 S
C701 C698 1.409 . S
C701 C699 1.415 . S
C702 H692 0.930 . S
C702 C700 1.419 . S
C702 C703 1.362 1_545 S
C703 H693 0.930 . S
C703 C696 1.409 . S
C703 C702 1.362 1_565 S
H704 C710 0.930 . S
H705 C713 0.930 . S
H706 C714 0.930 . S
H707 C715 0.930 . S
H708 C718 0.930 . S
H709 C719 0.930 . S
C710 H704 0.930 . S
C710 C711 1.355 . S
C710 C712 1.438 . S
C711 C710 1.355 . S
C711 C713 1.419 . S
C712 C710 1.438 . S
C712 C717 1.423 1_455 S
C712 C719 1.389 1_455 S
C713 H705 0.930 . S
C713 C711 1.419 . S
C713 C714 1.362 . S
C714 H706 0.930 . S
C714 C713 1.362 . S
C714 C717 1.389 1_455 S
C715 H707 0.930 . S
C715 C716 1.355 . S
C715 C717 1.438 . S
C716 C715 1.355 . S
C716 C718 1.419 . S
C717 C712 1.423 1_655 S
C717 C714 1.389 1_655 S
C717 C715 1.438 . S
C718 H708 0.930 . S
C718 C716 1.419 . S
C718 C719 1.362 . S
C719 H709 0.930 . S
C719 C712 1.389 1_655 S
C719 C718 1.362 . S
H720 C726 0.930 . S
H721 C729 0.930 . S
H722 C730 0.930 . S
H723 C731 0.930 . S
H724 C734 0.930 . S
H725 C735 0.930 . S
C726 H720 0.930 . S
C726 C727 1.355 . S
C726 C728 1.415 . S
C727 C726 1.355 . S
C727 C729 1.419 . S
C728 C726 1.415 . S
C728 C733 1.425 1_565 S
C728 C735 1.409 . S
C729 H721 0.930 . S
C729 C727 1.419 . S
C729 C730 1.362 1_565 S
C730 H722 0.930 . S
C730 C729 1.362 1_545 S
C730 C733 1.409 . S
C731 H723 0.930 . S
C731 C732 1.355 . S
C731 C733 1.415 . S
C732 C731 1.355 . S
C732 C734 1.419 . S
C733 C728 1.425 1_545 S
C733 C730 1.409 . S
C733 C731 1.415 . S
C734 H724 0.930 . S
C734 C732 1.419 . S
C734 C735 1.362 1_545 S
C735 H725 0.930 . S
C735 C728 1.409 . S
C735 C734 1.362 1_565 S
H736 C742 0.930 . S
H737 C745 0.930 . S
H738 C746 0.930 . S
H739 C747 0.930 . S
H740 C750 0.930 . S
H741 C751 0.930 . S
C742 H736 0.930 . S
C742 C743 1.355 . S
C742 C744 1.415 . S
C743 C742 1.355 . S
C743 C745 1.419 . S
C744 C742 1.415 . S
C744 C749 1.425 1_655 S
C744 C751 1.409 . S
C745 H737 0.930 . S
C745 C743 1.419 . S
C745 C746 1.362 1_655 S
C746 H738 0.930 . S
C746 C745 1.362 1_455 S
C746 C749 1.409 . S
C747 H739 0.930 . S
C747 C748 1.355 . S
C747 C749 1.415 . S
C748 C747 1.355 . S
C748 C750 1.419 . S
C749 C744 1.425 1_455 S
C749 C746 1.409 . S
C749 C747 1.415 . S
C750 H740 0.930 . S
C750 C748 1.419 . S
C750 C751 1.362 1_455 S
C751 H741 0.930 . S
C751 C744 1.409 . S
C751 C750 1.362 1_655 S
H752 C758 0.930 . S
H753 C761 0.930 . S
H754 C762 0.930 . S
H755 C763 0.930 . S
H756 C766 0.930 . S
H757 C767 0.930 . S
C758 H752 0.930 . S
C758 C759 1.355 . S
C758 C760 1.415 . S
C759 C758 1.355 . S
C759 C761 1.419 . S
C760 C758 1.415 . S
C760 C765 1.425 1_545 S
C760 C767 1.409 . S
C761 H753 0.930 . S
C761 C759 1.419 . S
C761 C762 1.362 1_545 S
C762 H754 0.930 . S
C762 C761 1.362 1_565 S
C762 C765 1.409 . S
C763 H755 0.930 . S
C763 C764 1.355 . S
C763 C765 1.415 . S
C764 C763 1.355 . S
C764 C766 1.419 . S
C765 C760 1.425 1_565 S
C765 C762 1.409 . S
C765 C763 1.415 . S
C766 H756 0.930 . S
C766 C764 1.419 . S
C766 C767 1.362 1_565 S
C767 H757 0.930 . S
C767 C760 1.409 . S
C767 C766 1.362 1_545 S
H768 C774 0.930 . S
H769 C777 0.930 . S
H770 C778 0.930 . S
H771 C779 0.930 . S
H772 C782 0.930 . S
H773 C783 0.930 . S
C774 H768 0.930 . S
C774 C775 1.355 . S
C774 C776 1.415 1_455 S
C775 C774 1.355 . S
C775 C777 1.419 . S
C776 C774 1.415 1_655 S
C776 C781 1.425 1_655 S
C776 C783 1.409 . S
C777 H769 0.930 . S
C777 C775 1.419 . S
C777 C778 1.362 . S
C778 H770 0.930 . S
C778 C777 1.362 . S
C778 C781 1.409 . S
C779 H771 0.930 . S
C779 C780 1.355 . S
C779 C781 1.415 1_655 S
C780 C779 1.355 . S
C780 C782 1.419 . S
C781 C776 1.425 1_455 S
C781 C778 1.409 . S
C781 C779 1.415 1_455 S
C782 H772 0.930 . S
C782 C780 1.419 . S
C782 C783 1.362 . S
C783 H773 0.930 . S
C783 C776 1.409 . S
C783 C782 1.362 . S
H784 C790 0.930 . S
H785 C793 0.930 . S
H786 C794 0.930 1_565 S
H787 C795 0.930 . S
H788 C798 0.930 . S
H789 C799 0.930 1_545 S
C790 H784 0.930 . S
C790 C791 1.355 . S
C790 C792 1.415 . S
C791 C790 1.355 . S
C791 C793 1.419 . S
C792 C790 1.415 . S
C792 C797 1.425 1_545 S
C792 C799 1.409 1_545 S
C793 H785 0.930 . S
C793 C791 1.419 . S
C793 C794 1.362 . S
C794 H786 0.930 1_545 S
C794 C793 1.362 . S
C794 C797 1.409 1_545 S
C795 H787 0.930 . S
C795 C796 1.355 . S
C795 C797 1.415 . S
C796 C795 1.355 . S
C796 C798 1.419 . S
C797 C792 1.425 1_565 S
C797 C794 1.409 1_565 S
C797 C795 1.415 . S
C798 H788 0.930 . S
C798 C796 1.419 . S
C798 C799 1.362 . S
C799 H789 0.930 1_565 S
C799 C792 1.409 1_565 S
C799 C798 1.362 . S
H800 C806 0.930 . S
H801 C809 0.930 . S
H802 C810 0.930 1_556 S
H803 C811 0.930 . S
H804 C814 0.930 . S
H805 C815 0.930 1_554 S
C806 H800 0.930 . S
C806 C807 1.355 . S
C806 C808 1.415 . S
C807 C806 1.355 . S
C807 C809 1.419 . S
C808 C806 1.415 . S
C808 C813 1.425 1_554 S
C808 C815 1.409 1_554 S
C809 H801 0.930 . S
C809 C807 1.419 . S
C809 C810 1.362 . S
C810 H802 0.930 1_554 S
C810 C809 1.362 . S
C810 C813 1.409 1_554 S
C811 H803 0.930 . S
C811 C812 1.355 . S
C811 C813 1.415 . S
C812 C811 1.355 . S
C812 C814 1.419 . S
C813 C808 1.425 1_556 S
C813 C810 1.409 1_556 S
C813 C811 1.415 . S
C814 H804 0.930 . S
C814 C812 1.419 . S
C814 C815 1.362 . S
C815 H805 0.930 1_556 S
C815 C808 1.409 1_556 S
C815 C814 1.362 . S
H816 C822 0.930 . S
H817 C825 0.930 . S
H818 C826 0.930 . S
H819 C827 0.930 . S
H820 C830 0.930 . S
H821 C831 0.930 . S
C822 H816 0.930 . S
C822 C823 1.355 . S
C822 C824 1.415 . S
C823 C822 1.355 . S
C823 C825 1.419 . S
C824 C822 1.415 . S
C824 C829 1.425 1_556 S
C824 C831 1.409 . S
C825 H817 0.930 . S
C825 C823 1.419 . S
C825 C826 1.362 1_556 S
C826 H818 0.930 . S
C826 C825 1.362 1_554 S
C826 C829 1.409 . S
C827 H819 0.930 . S
C827 C828 1.355 . S
C827 C829 1.415 . S
C828 C827 1.355 . S
C828 C830 1.419 . S
C829 C824 1.425 1_554 S
C829 C826 1.409 . S
C829 C827 1.415 . S
C830 H820 0.930 . S
C830 C828 1.419 . S
C830 C831 1.362 1_554 S
C831 H821 0.930 . S
C831 C824 1.409 . S
C831 C830 1.362 1_556 S
H832 C838 0.930 . S
H833 C841 0.930 . S
H834 C842 0.930 . S
H835 C843 0.930 . S
H836 C846 0.930 . S
H837 C847 0.930 . S
C838 H832 0.930 . S
C838 C839 1.355 . S
C838 C840 1.415 . S
C839 C838 1.355 . S
C839 C841 1.419 . S
C840 C838 1.415 . S
C840 C845 1.425 1_556 S
C840 C847 1.409 . S
C841 H833 0.930 . S
C841 C839 1.419 . S
C841 C842 1.362 1_556 S
C842 H834 0.930 . S
C842 C841 1.362 1_554 S
C842 C845 1.409 . S
C843 H835 0.930 . S
C843 C844 1.355 . S
C843 C845 1.415 . S
C844 C843 1.355 . S
C844 C846 1.419 . S
C845 C840 1.425 1_554 S
C845 C842 1.409 . S
C845 C843 1.415 . S
C846 H836 0.930 . S
C846 C844 1.419 . S
C846 C847 1.362 1_554 S
C847 H837 0.930 . S
C847 C840 1.409 . S
C847 C846 1.362 1_556 S
H848 C854 0.930 . S
H849 C857 0.930 . S
H850 C858 0.930 . S
H851 C859 0.930 . S
H852 C862 0.930 . S
H853 C863 0.930 . S
C854 H848 0.930 . S
C854 C855 1.355 . S
C854 C856 1.415 . S
C855 C854 1.355 . S
C855 C857 1.419 . S
C856 C854 1.415 . S
C856 C861 1.425 1_556 S
C856 C863 1.409 . S
C857 H849 0.930 . S
C857 C855 1.419 . S
C857 C858 1.362 1_556 S
C858 H850 0.930 . S
C858 C857 1.362 1_554 S
C858 C861 1.409 . S
C859 H851 0.930 . S
C859 C860 1.355 . S
C859 C861 1.415 . S
C860 C859 1.355 . S
C860 C862 1.419 . S
C861 C856 1.425 1_554 S
C861 C858 1.409 . S
C861 C859 1.415 . S
C862 H852 0.930 . S
C862 C860 1.419 . S
C862 C863 1.362 1_554 S
C863 H853 0.930 . S
C863 C856 1.409 . S
C863 C862 1.362 1_556 S
H864 C870 0.930 . S
H865 C873 0.930 . S
H866 C874 0.930 . S
H867 C875 0.930 . S
H868 C878 0.930 . S
H869 C879 0.930 . S
C870 H864 0.930 . S
C870 C871 1.355 . S
C870 C872 1.415 . S
C871 C870 1.355 . S
C871 C873 1.419 . S
C872 C870 1.415 . S
C872 C877 1.425 . S
C872 C879 1.409 . S
C873 H865 0.930 . S
C873 C871 1.419 . S
C873 C874 1.362 . S
C874 H866 0.930 . S
C874 C873 1.362 . S
C874 C877 1.409 . S
C875 H867 0.930 . S
C875 C876 1.355 . S
C875 C877 1.415 . S
C876 C875 1.355 . S
C876 C878 1.419 . S
C877 C872 1.425 . S
C877 C874 1.409 . S
C877 C875 1.415 . S
C878 H868 0.930 . S
C878 C876 1.419 . S
C878 C879 1.362 . S
C879 H869 0.930 . S
C879 C872 1.409 . S
C879 C878 1.362 . S
H880 C886 0.930 . S
H881 C889 0.930 . S
H882 C890 0.930 . S
H883 C891 0.930 . S
H884 C894 0.930 . S
H885 C895 0.930 . S
C886 H880 0.930 . S
C886 C887 1.355 . S
C886 C888 1.415 . S
C887 C886 1.355 . S
C887 C889 1.419 . S
C888 C886 1.415 . S
C888 C893 1.425 . S
C888 C895 1.409 . S
C889 H881 0.930 . S
C889 C887 1.419 . S
C889 C890 1.362 . S
C890 H882 0.930 . S
C890 C889 1.362 . S
C890 C893 1.409 . S
C891 H883 0.930 . S
C891 C892 1.355 . S
C891 C893 1.415 . S
C892 C891 1.355 . S
C892 C894 1.419 . S
C893 C888 1.425 . S
C893 C890 1.409 . S
C893 C891 1.415 . S
C894 H884 0.930 . S
C894 C892 1.419 . S
C894 C895 1.362 . S
C895 H885 0.930 . S
C895 C888 1.409 . S
C895 C894 1.362 . S
H896 C902 0.930 . S
H897 C905 0.930 . S
H898 C906 0.930 . S
H899 C907 0.930 . S
H900 C910 0.930 . S
H901 C911 0.930 . S
C902 H896 0.930 . S
C902 C903 1.355 . S
C902 C904 1.415 . S
C903 C902 1.355 . S
C903 C905 1.419 . S
C904 C902 1.415 . S
C904 C909 1.425 . S
C904 C911 1.409 . S
C905 H897 0.930 . S
C905 C903 1.419 . S
C905 C906 1.362 . S
C906 H898 0.930 . S
C906 C905 1.362 . S
C906 C909 1.409 . S
C907 H899 0.930 . S
C907 C908 1.355 . S
C907 C909 1.415 . S
C908 C907 1.355 . S
C908 C910 1.419 . S
C909 C904 1.425 . S
C909 C906 1.409 . S
C909 C907 1.415 . S
C910 H900 0.930 . S
C910 C908 1.419 . S
C910 C911 1.362 . S
C911 H901 0.930 . S
C911 C904 1.409 . S
C911 C910 1.362 . S
H912 C918 0.930 . S
H913 C921 0.930 . S
H914 C922 0.930 . S
H915 C923 0.930 . S
H916 C926 0.930 . S
H917 C927 0.930 . S
C918 H912 0.930 . S
C918 C919 1.355 . S
C918 C920 1.415 . S
C919 C918 1.355 . S
C919 C921 1.419 . S
C920 C918 1.415 . S
C920 C925 1.425 . S
C920 C927 1.409 . S
C921 H913 0.930 . S
C921 C919 1.419 . S
C921 C922 1.362 . S
C922 H914 0.930 . S
C922 C921 1.362 . S
C922 C925 1.409 . S
C923 H915 0.930 . S
C923 C924 1.355 . S
C923 C925 1.415 . S
C924 C923 1.355 . S
C924 C926 1.419 . S
C925 C920 1.425 . S
C925 C922 1.409 . S
C925 C923 1.415 . S
C926 H916 0.930 . S
C926 C924 1.419 . S
C926 C927 1.362 . S
C927 H917 0.930 . S
C927 C920 1.409 . S
C927 C926 1.362 . S
H928 C934 0.930 . S
H929 C937 0.930 . S
H930 C938 0.930 . S
H931 C939 0.930 . S
H932 C942 0.930 . S
H933 C943 0.930 . S
C934 H928 0.930 . S
C934 C935 1.355 . S
C934 C936 1.415 . S
C935 C934 1.355 . S
C935 C937 1.419 . S
C936 C934 1.415 . S
C936 C941 1.425 . S
C936 C943 1.409 . S
C937 H929 0.930 . S
C937 C935 1.419 . S
C937 C938 1.362 . S
C938 H930 0.930 . S
C938 C937 1.362 . S
C938 C941 1.409 . S
C939 H931 0.930 . S
C939 C940 1.355 . S
C939 C941 1.415 . S
C940 C939 1.355 . S
C940 C942 1.419 . S
C941 C936 1.425 . S
C941 C938 1.409 . S
C941 C939 1.415 . S
C942 H932 0.930 . S
C942 C940 1.419 . S
C942 C943 1.362 . S
C943 H933 0.930 . S
C943 C936 1.409 . S
C943 C942 1.362 . S
H944 C950 0.930 . S
H945 C953 0.930 . S
H946 C954 0.930 . S
H947 C955 0.930 . S
H948 C958 0.930 . S
H949 C959 0.930 . S
C950 H944 0.930 . S
C950 C951 1.355 . S
C950 C952 1.415 . S
C951 C950 1.355 . S
C951 C953 1.419 . S
C952 C950 1.415 . S
C952 C957 1.425 . S
C952 C959 1.409 . S
C953 H945 0.930 . S
C953 C951 1.419 . S
C953 C954 1.362 . S
C954 H946 0.930 . S
C954 C953 1.362 . S
C954 C957 1.409 . S
C955 H947 0.930 . S
C955 C956 1.355 . S
C955 C957 1.415 . S
C956 C955 1.355 . S
C956 C958 1.419 . S
C957 C952 1.425 . S
C957 C954 1.409 . S
C957 C955 1.415 . S
C958 H948 0.930 . S
C958 C956 1.419 . S
C958 C959 1.362 . S
C959 H949 0.930 . S
C959 C952 1.409 . S
C959 C958 1.362 . S
H960 C966 0.930 . S
H961 C969 0.930 . S
H962 C970 0.930 . S
H963 C971 0.930 . S
H964 C974 0.930 . S
H965 C975 0.930 . S
C966 H960 0.930 . S
C966 C967 1.355 . S
C966 C968 1.415 . S
C967 C966 1.355 . S
C967 C969 1.419 . S
C968 C966 1.415 . S
C968 C973 1.425 . S
C968 C975 1.409 . S
C969 H961 0.930 . S
C969 C967 1.419 . S
C969 C970 1.362 . S
C970 H962 0.930 . S
C970 C969 1.362 . S
C970 C973 1.409 . S
C971 H963 0.930 . S
C971 C972 1.355 . S
C971 C973 1.415 . S
C972 C971 1.355 . S
C972 C974 1.419 . S
C973 C968 1.425 . S
C973 C970 1.409 . S
C973 C971 1.415 . S
C974 H964 0.930 . S
C974 C972 1.419 . S
C974 C975 1.362 . S
C975 H965 0.930 . S
C975 C968 1.409 . S
C975 C974 1.362 . S
H976 C982 0.930 . S
H977 C985 0.930 . S
H978 C986 0.930 . S
H979 C987 0.930 . S
H980 C990 0.930 . S
H981 C991 0.930 . S
C982 H976 0.930 . S
C982 C983 1.355 . S
C982 C984 1.415 . S
C983 C982 1.355 . S
C983 C985 1.419 . S
C984 C982 1.415 . S
C984 C989 1.425 . S
C984 C991 1.409 . S
C985 H977 0.930 . S
C985 C983 1.419 . S
C985 C986 1.362 . S
C986 H978 0.930 . S
C986 C985 1.362 . S
C986 C989 1.409 . S
C987 H979 0.930 . S
C987 C988 1.355 . S
C987 C989 1.415 . S
C988 C987 1.355 . S
C988 C990 1.419 . S
C989 C984 1.425 . S
C989 C986 1.409 . S
C989 C987 1.415 . S
C990 H980 0.930 . S
C990 C988 1.419 . S
C990 C991 1.362 . S
C991 H981 0.930 . S
C991 C984 1.409 . S
C991 C990 1.362 . S
H992 C998 0.930 . S
H993 C1001 0.930 . S
H994 C1002 0.930 . S
H995 C1003 0.930 . S
H996 C1006 0.930 . S
H997 C1007 0.930 . S
C998 H992 0.930 . S
C998 C999 1.355 . S
C998 C1000 1.415 . S
C999 C998 1.355 . S
C999 C1001 1.419 . S
C1000 C998 1.415 . S
C1000 C1005 1.425 . S
C1000 C1007 1.409 . S
C1001 H993 0.930 . S
C1001 C999 1.419 . S
C1001 C1002 1.362 . S
C1002 H994 0.930 . S
C1002 C1001 1.362 . S
C1002 C1005 1.409 . S
C1003 H995 0.930 . S
C1003 C1004 1.355 . S
C1003 C1005 1.415 . S
C1004 C1003 1.355 . S
C1004 C1006 1.419 . S
C1005 C1000 1.425 . S
C1005 C1002 1.409 . S
C1005 C1003 1.415 . S
C1006 H996 0.930 . S
C1006 C1004 1.419 . S
C1006 C1007 1.362 . S
C1007 H997 0.930 . S
C1007 C1000 1.409 . S
C1007 C1006 1.362 . S
H1008 C1014 0.930 . S
H1009 C1017 0.930 . S
H1010 C1018 0.930 . S
H1011 C1019 0.930 . S
H1012 C1022 0.930 . S
H1013 C1023 0.930 . S
C1014 H1008 0.930 . S
C1014 C1015 1.355 . S
C1014 C1016 1.415 . S
C1015 C1014 1.355 . S
C1015 C1017 1.419 . S
C1016 C1014 1.415 . S
C1016 C1021 1.425 . S
C1016 C1023 1.409 . S
C1017 H1009 0.930 . S
C1017 C1015 1.419 . S
C1017 C1018 1.362 . S
C1018 H1010 0.930 . S
C1018 C1017 1.362 . S
C1018 C1021 1.409 . S
C1019 H1011 0.930 . S
C1019 C1020 1.355 . S
C1019 C1021 1.415 . S
C1020 C1019 1.355 . S
C1020 C1022 1.419 . S
C1021 C1016 1.425 . S
C1021 C1018 1.409 . S
C1021 C1019 1.415 . S
C1022 H1012 0.930 . S
C1022 C1020 1.419 . S
C1022 C1023 1.362 . S
C1023 H1013 0.930 . S
C1023 C1016 1.409 . S
C1023 C1022 1.362 . S
H1024 C1030 0.930 . S
H1025 C1033 0.930 . S
H1026 C1034 0.930 . S
H1027 C1035 0.930 . S
H1028 C1038 0.930 . S
H1029 C1039 0.930 . S
C1030 H1024 0.930 . S
C1030 C1031 1.355 . S
C1030 C1032 1.415 . S
C1031 C1030 1.355 . S
C1031 C1033 1.419 . S
C1032 C1030 1.415 . S
C1032 C1037 1.425 . S
C1032 C1039 1.409 . S
C1033 H1025 0.930 . S
C1033 C1031 1.419 . S
C1033 C1034 1.362 . S
C1034 H1026 0.930 . S
C1034 C1033 1.362 . S
C1034 C1037 1.409 . S
C1035 H1027 0.930 . S
C1035 C1036 1.355 . S
C1035 C1037 1.415 . S
C1036 C1035 1.355 . S
C1036 C1038 1.419 . S
C1037 C1032 1.425 . S
C1037 C1034 1.409 . S
C1037 C1035 1.415 . S
C1038 H1028 0.930 . S
C1038 C1036 1.419 . S
C1038 C1039 1.362 . S
C1039 H1029 0.930 . S
C1039 C1032 1.409 . S
C1039 C1038 1.362 . S
H1040 C1046 0.930 . S
H1041 C1049 0.930 . S
H1042 C1050 0.930 . S
H1043 C1051 0.930 . S
H1044 C1054 0.930 . S
H1045 C1055 0.930 . S
C1046 H1040 0.930 . S
C1046 C1047 1.355 . S
C1046 C1048 1.415 . S
C1047 C1046 1.355 . S
C1047 C1049 1.419 . S
C1048 C1046 1.415 . S
C1048 C1053 1.425 . S
C1048 C1055 1.409 . S
C1049 H1041 0.930 . S
C1049 C1047 1.419 . S
C1049 C1050 1.362 . S
C1050 H1042 0.930 . S
C1050 C1049 1.362 . S
C1050 C1053 1.409 . S
C1051 H1043 0.930 . S
C1051 C1052 1.355 . S
C1051 C1053 1.415 . S
C1052 C1051 1.355 . S
C1052 C1054 1.419 . S
C1053 C1048 1.425 . S
C1053 C1050 1.409 . S
C1053 C1051 1.415 . S
C1054 H1044 0.930 . S
C1054 C1052 1.419 . S
C1054 C1055 1.362 . S
C1055 H1045 0.930 . S
C1055 C1048 1.409 . S
C1055 C1054 1.362 . S
H1056 C1062 0.930 . S
H1057 C1065 0.930 . S
H1058 C1066 0.930 . S
H1059 C1067 0.930 . S
H1060 C1070 0.930 . S
H1061 C1071 0.930 . S
C1062 H1056 0.930 . S
C1062 C1063 1.355 . S
C1062 C1064 1.415 . S
C1063 C1062 1.355 . S
C1063 C1065 1.419 . S
C1064 C1062 1.415 . S
C1064 C1069 1.425 . S
C1064 C1071 1.409 . S
C1065 H1057 0.930 . S
C1065 C1063 1.419 . S
C1065 C1066 1.362 . S
C1066 H1058 0.930 . S
C1066 C1065 1.362 . S
C1066 C1069 1.409 . S
C1067 H1059 0.930 . S
C1067 C1068 1.355 . S
C1067 C1069 1.415 . S
C1068 C1067 1.355 . S
C1068 C1070 1.419 . S
C1069 C1064 1.425 . S
C1069 C1066 1.409 . S
C1069 C1067 1.415 . S
C1070 H1060 0.930 . S
C1070 C1068 1.419 . S
C1070 C1071 1.362 . S
C1071 H1061 0.930 . S
C1071 C1064 1.409 . S
C1071 C1070 1.362 . S
H1072 C1078 0.930 . S
H1073 C1081 0.930 . S
H1074 C1082 0.930 . S
H1075 C1083 0.930 . S
H1076 C1086 0.930 . S
H1077 C1087 0.930 . S
C1078 H1072 0.930 . S
C1078 C1079 1.355 . S
C1078 C1080 1.415 . S
C1079 C1078 1.355 . S
C1079 C1081 1.419 . S
C1080 C1078 1.415 . S
C1080 C1085 1.425 . S
C1080 C1087 1.409 . S
C1081 H1073 0.930 . S
C1081 C1079 1.419 . S
C1081 C1082 1.362 . S
C1082 H1074 0.930 . S
C1082 C1081 1.362 . S
C1082 C1085 1.409 . S
C1083 H1075 0.930 . S
C1083 C1084 1.355 . S
C1083 C1085 1.415 . S
C1084 C1083 1.355 . S
C1084 C1086 1.419 . S
C1085 C1080 1.425 . S
C1085 C1082 1.409 . S
C1085 C1083 1.415 . S
C1086 H1076 0.930 . S
C1086 C1084 1.419 . S
C1086 C1087 1.362 . S
C1087 H1077 0.930 . S
C1087 C1080 1.409 . S
C1087 C1086 1.362 . S
H1088 C1094 0.930 . S
H1089 C1097 0.930 . S
H1090 C1098 0.930 . S
H1091 C1099 0.930 . S
H1092 C1102 0.930 . S
H1093 C1103 0.930 . S
C1094 H1088 0.930 . S
C1094 C1095 1.355 . S
C1094 C1096 1.415 . S
C1095 C1094 1.355 . S
C1095 C1097 1.419 . S
C1096 C1094 1.415 . S
C1096 C1101 1.425 . S
C1096 C1103 1.409 . S
C1097 H1089 0.930 . S
C1097 C1095 1.419 . S
C1097 C1098 1.362 . S
C1098 H1090 0.930 . S
C1098 C1097 1.362 . S
C1098 C1101 1.409 . S
C1099 H1091 0.930 . S
C1099 C1100 1.355 . S
C1099 C1101 1.415 . S
C1100 C1099 1.355 . S
C1100 C1102 1.419 . S
C1101 C1096 1.425 . S
C1101 C1098 1.409 . S
C1101 C1099 1.415 . S
C1102 H1092 0.930 . S
C1102 C1100 1.419 . S
C1102 C1103 1.362 . S
C1103 H1093 0.930 . S
C1103 C1096 1.409 . S
C1103 C1102 1.362 . S
H1104 C1110 0.930 . S
H1105 C1113 0.930 . S
H1106 C1114 0.930 . S
H1107 C1115 0.930 . S
H1108 C1118 0.930 . S
H1109 C1119 0.930 . S
C1110 H1104 0.930 . S
C1110 C1111 1.355 . S
C1110 C1112 1.415 . S
C1111 C1110 1.355 . S
C1111 C1113 1.419 . S
C1112 C1110 1.415 . S
C1112 C1117 1.425 . S
C1112 C1119 1.409 . S
C1113 H1105 0.930 . S
C1113 C1111 1.419 . S
C1113 C1114 1.362 . S
C1114 H1106 0.930 . S
C1114 C1113 1.362 . S
C1114 C1117 1.409 . S
C1115 H1107 0.930 . S
C1115 C1116 1.355 . S
C1115 C1117 1.415 . S
C1116 C1115 1.355 . S
C1116 C1118 1.419 . S
C1117 C1112 1.425 . S
C1117 C1114 1.409 . S
C1117 C1115 1.415 . S
C1118 H1108 0.930 . S
C1118 C1116 1.419 . S
C1118 C1119 1.362 . S
C1119 H1109 0.930 . S
C1119 C1112 1.409 . S
C1119 C1118 1.362 . S
H1120 C1126 0.930 . S
H1121 C1129 0.930 . S
H1122 C1130 0.930 . S
H1123 C1131 0.930 . S
H1124 C1134 0.930 . S
H1125 C1135 0.930 . S
C1126 H1120 0.930 . S
C1126 C1127 1.355 . S
C1126 C1128 1.415 . S
C1127 C1126 1.355 . S
C1127 C1129 1.419 . S
C1128 C1126 1.415 . S
C1128 C1133 1.425 . S
C1128 C1135 1.409 . S
C1129 H1121 0.930 . S
C1129 C1127 1.419 . S
C1129 C1130 1.362 . S
C1130 H1122 0.930 . S
C1130 C1129 1.362 . S
C1130 C1133 1.409 . S
C1131 H1123 0.930 . S
C1131 C1132 1.355 . S
C1131 C1133 1.415 . S
C1132 C1131 1.355 . S
C1132 C1134 1.419 . S
C1133 C1128 1.425 . S
C1133 C1130 1.409 . S
C1133 C1131 1.415 . S
C1134 H1124 0.930 . S
C1134 C1132 1.419 . S
C1134 C1135 1.362 . S
C1135 H1125 0.930 . S
C1135 C1128 1.409 . S
C1135 C1134 1.362 . S
H1136 C1142 0.930 . S
H1137 C1145 0.930 . S
H1138 C1146 0.930 . S
H1139 C1147 0.930 . S
H1140 C1150 0.930 . S
H1141 C1151 0.930 . S
C1142 H1136 0.930 . S
C1142 C1143 1.355 . S
C1142 C1144 1.415 . S
C1143 C1142 1.355 . S
C1143 C1145 1.419 . S
C1144 C1142 1.415 . S
C1144 C1149 1.425 . S
C1144 C1151 1.409 . S
C1145 H1137 0.930 . S
C1145 C1143 1.419 . S
C1145 C1146 1.362 . S
C1146 H1138 0.930 . S
C1146 C1145 1.362 . S
C1146 C1149 1.409 . S
C1147 H1139 0.930 . S
C1147 C1148 1.355 . S
C1147 C1149 1.415 . S
C1148 C1147 1.355 . S
C1148 C1150 1.419 . S
C1149 C1144 1.425 . S
C1149 C1146 1.409 . S
C1149 C1147 1.415 . S
C1150 H1140 0.930 . S
C1150 C1148 1.419 . S
C1150 C1151 1.362 . S
C1151 H1141 0.930 . S
C1151 C1144 1.409 . S
C1151 C1150 1.362 . S
H1152 C1158 0.930 . S
H1153 C1161 0.930 . S
H1154 C1162 0.930 . S
H1155 C1163 0.930 . S
H1156 C1166 0.930 . S
H1157 C1167 0.930 . S
C1158 H1152 0.930 . S
C1158 C1159 1.355 . S
C1158 C1160 1.415 . S
C1159 C1158 1.355 . S
C1159 C1161 1.419 . S
C1160 C1158 1.415 . S
C1160 C1165 1.425 . S
C1160 C1167 1.409 . S
C1161 H1153 0.930 . S
C1161 C1159 1.419 . S
C1161 C1162 1.362 . S
C1162 H1154 0.930 . S
C1162 C1161 1.362 . S
C1162 C1165 1.409 . S
C1163 H1155 0.930 . S
C1163 C1164 1.355 . S
C1163 C1165 1.415 . S
C1164 C1163 1.355 . S
C1164 C1166 1.419 . S
C1165 C1160 1.425 . S
C1165 C1162 1.409 . S
C1165 C1163 1.415 . S
C1166 H1156 0.930 . S
C1166 C1164 1.419 . S
C1166 C1167 1.362 . S
C1167 H1157 0.930 . S
C1167 C1160 1.409 . S
C1167 C1166 1.362 . S
H1168 C1174 0.930 . S
H1169 C1177 0.930 . S
H1170 C1178 0.930 . S
H1171 C1179 0.930 . S
H1172 C1182 0.930 . S
H1173 C1183 0.930 . S
C1174 H1168 0.930 . S
C1174 C1175 1.355 . S
C1174 C1176 1.415 . S
C1175 C1174 1.355 . S
C1175 C1177 1.419 . S
C1176 C1174 1.415 . S
C1176 C1181 1.425 . S
C1176 C1183 1.409 . S
C1177 H1169 0.930 . S
C1177 C1175 1.419 . S
C1177 C1178 1.362 . S
C1178 H1170 0.930 . S
C1178 C1177 1.362 . S
C1178 C1181 1.409 . S
C1179 H1171 0.930 . S
C1179 C1180 1.355 . S
C1179 C1181 1.415 . S
C1180 C1179 1.355 . S
C1180 C1182 1.419 . S
C1181 C1176 1.425 . S
C1181 C1178 1.409 . S
C1181 C1179 1.415 . S
C1182 H1172 0.930 . S
C1182 C1180 1.419 . S
C1182 C1183 1.362 . S
C1183 H1173 0.930 . S
C1183 C1176 1.409 . S
C1183 C1182 1.362 . S
H1184 C1190 0.930 . S
H1185 C1193 0.930 . S
H1186 C1194 0.930 . S
H1187 C1195 0.930 . S
H1188 C1198 0.930 . S
H1189 C1199 0.930 . S
C1190 H1184 0.930 . S
C1190 C1191 1.355 . S
C1190 C1192 1.415 . S
C1191 C1190 1.355 . S
C1191 C1193 1.419 . S
C1192 C1190 1.415 . S
C1192 C1197 1.425 . S
C1192 C1199 1.409 . S
C1193 H1185 0.930 . S
C1193 C1191 1.419 . S
C1193 C1194 1.362 . S
C1194 H1186 0.930 . S
C1194 C1193 1.362 . S
C1194 C1197 1.409 . S
C1195 H1187 0.930 . S
C1195 C1196 1.355 . S
C1195 C1197 1.415 . S
C1196 C1195 1.355 . S
C1196 C1198 1.419 . S
C1197 C1192 1.425 . S
C1197 C1194 1.409 . S
C1197 C1195 1.415 . S
C1198 H1188 0.930 . S
C1198 C1196 1.419 . S
C1198 C1199 1.362 . S
C1199 H1189 0.930 . S
C1199 C1192 1.409 . S
C1199 C1198 1.362 . S
H1200 C1206 0.930 . S
H1201 C1209 0.930 . S
H1202 C1210 0.930 . S
H1203 C1211 0.930 . S
H1204 C1214 0.930 . S
H1205 C1215 0.930 . S
C1206 H1200 0.930 . S
C1206 C1207 1.355 . S
C1206 C1208 1.415 . S
C1207 C1206 1.355 . S
C1207 C1209 1.419 . S
C1208 C1206 1.415 . S
C1208 C1213 1.425 . S
C1208 C1215 1.409 . S
C1209 H1201 0.930 . S
C1209 C1207 1.419 . S
C1209 C1210 1.362 . S
C1210 H1202 0.930 . S
C1210 C1209 1.362 . S
C1210 C1213 1.409 . S
C1211 H1203 0.930 . S
C1211 C1212 1.355 . S
C1211 C1213 1.415 . S
C1212 C1211 1.355 . S
C1212 C1214 1.419 . S
C1213 C1208 1.425 . S
C1213 C1210 1.409 . S
C1213 C1211 1.415 . S
C1214 H1204 0.930 . S
C1214 C1212 1.419 . S
C1214 C1215 1.362 . S
C1215 H1205 0.930 . S
C1215 C1208 1.409 . S
C1215 C1214 1.362 . S
H1216 C1222 0.930 . S
H1217 C1225 0.930 . S
H1218 C1226 0.930 . S
H1219 C1227 0.930 . S
H1220 C1230 0.930 . S
H1221 C1231 0.930 . S
C1222 H1216 0.930 . S
C1222 C1223 1.355 . S
C1222 C1224 1.415 . S
C1223 C1222 1.355 . S
C1223 C1225 1.419 . S
C1224 C1222 1.415 . S
C1224 C1229 1.425 . S
C1224 C1231 1.409 . S
C1225 H1217 0.930 . S
C1225 C1223 1.419 . S
C1225 C1226 1.362 . S
C1226 H1218 0.930 . S
C1226 C1225 1.362 . S
C1226 C1229 1.409 . S
C1227 H1219 0.930 . S
C1227 C1228 1.355 . S
C1227 C1229 1.415 . S
C1228 C1227 1.355 . S
C1228 C1230 1.419 . S
C1229 C1224 1.425 . S
C1229 C1226 1.409 . S
C1229 C1227 1.415 . S
C1230 H1220 0.930 . S
C1230 C1228 1.419 . S
C1230 C1231 1.362 . S
C1231 H1221 0.930 . S
C1231 C1224 1.409 . S
C1231 C1230 1.362 . S
H1232 C1238 0.930 . S
H1233 C1241 0.930 . S
H1234 C1242 0.930 . S
H1235 C1243 0.930 . S
H1236 C1246 0.930 . S
H1237 C1247 0.930 . S
C1238 H1232 0.930 . S
C1238 C1239 1.355 . S
C1238 C1240 1.415 . S
C1239 C1238 1.355 . S
C1239 C1241 1.419 . S
C1240 C1238 1.415 . S
C1240 C1245 1.425 . S
C1240 C1247 1.409 . S
C1241 H1233 0.930 . S
C1241 C1239 1.419 . S
C1241 C1242 1.362 . S
C1242 H1234 0.930 . S
C1242 C1241 1.362 . S
C1242 C1245 1.409 . S
C1243 H1235 0.930 . S
C1243 C1244 1.355 . S
C1243 C1245 1.415 . S
C1244 C1243 1.355 . S
C1244 C1246 1.419 . S
C1245 C1240 1.425 . S
C1245 C1242 1.409 . S
C1245 C1243 1.415 . S
C1246 H1236 0.930 . S
C1246 C1244 1.419 . S
C1246 C1247 1.362 . S
C1247 H1237 0.930 . S
C1247 C1240 1.409 . S
C1247 C1246 1.362 . S
H1248 C1254 0.930 . S
H1249 C1257 0.930 . S
H1250 C1258 0.930 . S
H1251 C1259 0.930 . S
H1252 C1262 0.930 . S
H1253 C1263 0.930 . S
C1254 H1248 0.930 . S
C1254 C1255 1.355 . S
C1254 C1256 1.415 . S
C1255 C1254 1.355 . S
C1255 C1257 1.419 . S
C1256 C1254 1.415 . S
C1256 C1261 1.425 . S
C1256 C1263 1.409 . S
C1257 H1249 0.930 . S
C1257 C1255 1.419 . S
C1257 C1258 1.362 . S
C1258 H1250 0.930 . S
C1258 C1257 1.362 . S
C1258 C1261 1.409 . S
C1259 H1251 0.930 . S
C1259 C1260 1.355 . S
C1259 C1261 1.415 . S
C1260 C1259 1.355 . S
C1260 C1262 1.419 . S
C1261 C1256 1.425 . S
C1261 C1258 1.409 . S
C1261 C1259 1.415 . S
C1262 H1252 0.930 . S
C1262 C1260 1.419 . S
C1262 C1263 1.362 . S
C1263 H1253 0.930 . S
C1263 C1256 1.409 . S
C1263 C1262 1.362 . S
H1264 C1270 0.930 . S
H1265 C1273 0.930 . S
H1266 C1274 0.930 . S
H1267 C1275 0.930 . S
H1268 C1278 0.930 . S
H1269 C1279 0.930 . S
C1270 H1264 0.930 . S
C1270 C1271 1.355 . S
C1270 C1272 1.415 . S
C1271 C1270 1.355 . S
C1271 C1273 1.419 . S
C1272 C1270 1.415 . S
C1272 C1277 1.425 . S
C1272 C1279 1.409 . S
C1273 H1265 0.930 . S
C1273 C1271 1.419 . S
C1273 C1274 1.362 . S
C1274 H1266 0.930 . S
C1274 C1273 1.362 . S
C1274 C1277 1.409 . S
C1275 H1267 0.930 . S
C1275 C1276 1.355 . S
C1275 C1277 1.415 . S
C1276 C1275 1.355 . S
C1276 C1278 1.419 . S
C1277 C1272 1.425 . S
C1277 C1274 1.409 . S
C1277 C1275 1.415 . S
C1278 H1268 0.930 . S
C1278 C1276 1.419 . S
C1278 C1279 1.362 . S
C1279 H1269 0.930 . S
C1279 C1272 1.409 . S
C1279 C1278 1.362 . S
H1280 C1286 0.930 . S
H1281 C1289 0.930 . S
H1282 C1290 0.930 . S
H1283 C1291 0.930 . S
H1284 C1294 0.930 . S
H1285 C1295 0.930 . S
C1286 H1280 0.930 . S
C1286 C1287 1.355 . S
C1286 C1288 1.415 . S
C1287 C1286 1.355 . S
C1287 C1289 1.419 . S
C1288 C1286 1.415 . S
C1288 C1293 1.425 . S
C1288 C1295 1.409 . S
C1289 H1281 0.930 . S
C1289 C1287 1.419 . S
C1289 C1290 1.362 . S
C1290 H1282 0.930 . S
C1290 C1289 1.362 . S
C1290 C1293 1.409 . S
C1291 H1283 0.930 . S
C1291 C1292 1.355 . S
C1291 C1293 1.415 . S
C1292 C1291 1.355 . S
C1292 C1294 1.419 . S
C1293 C1288 1.425 . S
C1293 C1290 1.409 . S
C1293 C1291 1.415 . S
C1294 H1284 0.930 . S
C1294 C1292 1.419 . S
C1294 C1295 1.362 . S
C1295 H1285 0.930 . S
C1295 C1288 1.409 . S
C1295 C1294 1.362 . S
H1296 C1302 0.930 . S
H1297 C1305 0.930 . S
H1298 C1306 0.930 . S
H1299 C1307 0.930 . S
H1300 C1310 0.930 . S
H1301 C1311 0.930 . S
C1302 H1296 0.930 . S
C1302 C1303 1.355 . S
C1302 C1304 1.415 . S
C1303 C1302 1.355 . S
C1303 C1305 1.419 . S
C1304 C1302 1.415 . S
C1304 C1309 1.425 . S
C1304 C1311 1.409 . S
C1305 H1297 0.930 . S
C1305 C1303 1.419 . S
C1305 C1306 1.362 . S
C1306 H1298 0.930 . S
C1306 C1305 1.362 . S
C1306 C1309 1.409 . S
C1307 H1299 0.930 . S
C1307 C1308 1.355 . S
C1307 C1309 1.415 . S
C1308 C1307 1.355 . S
C1308 C1310 1.419 . S
C1309 C1304 1.425 . S
C1309 C1306 1.409 . S
C1309 C1307 1.415 . S
C1310 H1300 0.930 . S
C1310 C1308 1.419 . S
C1310 C1311 1.362 . S
C1311 H1301 0.930 . S
C1311 C1304 1.409 . S
C1311 C1310 1.362 . S
H1312 C1318 0.930 . S
H1313 C1321 0.930 . S
H1314 C1322 0.930 . S
H1315 C1323 0.930 . S
H1316 C1326 0.930 . S
H1317 C1327 0.930 . S
C1318 H1312 0.930 . S
C1318 C1319 1.355 . S
C1318 C1320 1.415 . S
C1319 C1318 1.355 . S
C1319 C1321 1.419 . S
C1320 C1318 1.415 . S
C1320 C1325 1.425 . S
C1320 C1327 1.409 . S
C1321 H1313 0.930 . S
C1321 C1319 1.419 . S
C1321 C1322 1.362 . S
C1322 H1314 0.930 . S
C1322 C1321 1.362 . S
C1322 C1325 1.409 . S
C1323 H1315 0.930 . S
C1323 C1324 1.355 . S
C1323 C1325 1.415 . S
C1324 C1323 1.355 . S
C1324 C1326 1.419 . S
C1325 C1320 1.425 . S
C1325 C1322 1.409 . S
C1325 C1323 1.415 . S
C1326 H1316 0.930 . S
C1326 C1324 1.419 . S
C1326 C1327 1.362 . S
C1327 H1317 0.930 . S
C1327 C1320 1.409 . S
C1327 C1326 1.362 . S
H1328 C1334 0.930 . S
H1329 C1337 0.930 . S
H1330 C1338 0.930 . S
H1331 C1339 0.930 . S
H1332 C1342 0.930 . S
H1333 C1343 0.930 . S
C1334 H1328 0.930 . S
C1334 C1335 1.355 . S
C1334 C1336 1.415 . S
C1335 C1334 1.355 . S
C1335 C1337 1.419 . S
C1336 C1334 1.415 . S
C1336 C1341 1.425 . S
C1336 C1343 1.409 . S
C1337 H1329 0.930 . S
C1337 C1335 1.419 . S
C1337 C1338 1.362 . S
C1338 H1330 0.930 . S
C1338 C1337 1.362 . S
C1338 C1341 1.409 . S
C1339 H1331 0.930 . S
C1339 C1340 1.355 . S
C1339 C1341 1.415 . S
C1340 C1339 1.355 . S
C1340 C1342 1.419 . S
C1341 C1336 1.425 . S
C1341 C1338 1.409 . S
C1341 C1339 1.415 . S
C1342 H1332 0.930 . S
C1342 C1340 1.419 . S
C1342 C1343 1.362 . S
C1343 H1333 0.930 . S
C1343 C1336 1.409 . S
C1343 C1342 1.362 . S
H1344 C1350 0.930 . S
H1345 C1353 0.930 . S
H1346 C1354 0.930 . S
H1347 C1355 0.930 . S
H1348 C1358 0.930 . S
H1349 C1359 0.930 . S
C1350 H1344 0.930 . S
C1350 C1351 1.355 . S
C1350 C1352 1.415 . S
C1351 C1350 1.355 . S
C1351 C1353 1.419 . S
C1352 C1350 1.415 . S
C1352 C1357 1.425 . S
C1352 C1359 1.409 . S
C1353 H1345 0.930 . S
C1353 C1351 1.419 . S
C1353 C1354 1.362 . S
C1354 H1346 0.930 . S
C1354 C1353 1.362 . S
C1354 C1357 1.409 . S
C1355 H1347 0.930 . S
C1355 C1356 1.355 . S
C1355 C1357 1.415 . S
C1356 C1355 1.355 . S
C1356 C1358 1.419 . S
C1357 C1352 1.425 . S
C1357 C1354 1.409 . S
C1357 C1355 1.415 . S
C1358 H1348 0.930 . S
C1358 C1356 1.419 . S
C1358 C1359 1.362 . S
C1359 H1349 0.930 . S
C1359 C1352 1.409 . S
C1359 C1358 1.362 . S
H1360 C1366 0.930 . S
H1361 C1369 0.930 . S
H1362 C1370 0.930 . S
H1363 C1371 0.930 . S
H1364 C1374 0.930 . S
H1365 C1375 0.930 . S
C1366 H1360 0.930 . S
C1366 C1367 1.355 . S
C1366 C1368 1.415 . S
C1367 C1366 1.355 . S
C1367 C1369 1.419 . S
C1368 C1366 1.415 . S
C1368 C1373 1.425 . S
C1368 C1375 1.409 . S
C1369 H1361 0.930 . S
C1369 C1367 1.419 . S
C1369 C1370 1.362 . S
C1370 H1362 0.930 . S
C1370 C1369 1.362 . S
C1370 C1373 1.409 . S
C1371 H1363 0.930 . S
C1371 C1372 1.355 . S
C1371 C1373 1.415 . S
C1372 C1371 1.355 . S
C1372 C1374 1.419 . S
C1373 C1368 1.425 . S
C1373 C1370 1.409 . S
C1373 C1371 1.415 . S
C1374 H1364 0.930 . S
C1374 C1372 1.419 . S
C1374 C1375 1.362 . S
C1375 H1365 0.930 . S
C1375 C1368 1.409 . S
C1375 C1374 1.362 . S
H1376 C1382 0.930 . S
H1377 C1385 0.930 . S
H1378 C1386 0.930 . S
H1379 C1387 0.930 . S
H1380 C1390 0.930 . S
H1381 C1391 0.930 . S
C1382 H1376 0.930 . S
C1382 C1383 1.355 . S
C1382 C1384 1.415 . S
C1383 C1382 1.355 . S
C1383 C1385 1.419 . S
C1384 C1382 1.415 . S
C1384 C1389 1.425 . S
C1384 C1391 1.409 . S
C1385 H1377 0.930 . S
C1385 C1383 1.419 . S
C1385 C1386 1.362 . S
C1386 H1378 0.930 . S
C1386 C1385 1.362 . S
C1386 C1389 1.409 . S
C1387 H1379 0.930 . S
C1387 C1388 1.355 . S
C1387 C1389 1.415 . S
C1388 C1387 1.355 . S
C1388 C1390 1.419 . S
C1389 C1384 1.425 . S
C1389 C1386 1.409 . S
C1389 C1387 1.415 . S
C1390 H1380 0.930 . S
C1390 C1388 1.419 . S
C1390 C1391 1.362 . S
C1391 H1381 0.930 . S
C1391 C1384 1.409 . S
C1391 C1390 1.362 . S
H1392 C1398 0.930 . S
H1393 C1401 0.930 . S
H1394 C1402 0.930 . S
H1395 C1403 0.930 . S
H1396 C1406 0.930 . S
H1397 C1407 0.930 . S
C1398 H1392 0.930 . S
C1398 C1399 1.355 . S
C1398 C1400 1.415 . S
C1399 C1398 1.355 . S
C1399 C1401 1.419 . S
C1400 C1398 1.415 . S
C1400 C1405 1.425 . S
C1400 C1407 1.409 . S
C1401 H1393 0.930 . S
C1401 C1399 1.419 . S
C1401 C1402 1.362 . S
C1402 H1394 0.930 . S
C1402 C1401 1.362 . S
C1402 C1405 1.409 . S
C1403 H1395 0.930 . S
C1403 C1404 1.355 . S
C1403 C1405 1.415 . S
C1404 C1403 1.355 . S
C1404 C1406 1.419 . S
C1405 C1400 1.425 . S
C1405 C1402 1.409 . S
C1405 C1403 1.415 . S
C1406 H1396 0.930 . S
C1406 C1404 1.419 . S
C1406 C1407 1.362 . S
C1407 H1397 0.930 . S
C1407 C1400 1.409 . S
C1407 C1406 1.362 . S
H1408 C1414 0.930 . S
H1409 C1417 0.930 . S
H1410 C1418 0.930 . S
H1411 C1419 0.930 . S
H1412 C1422 0.930 . S
H1413 C1423 0.930 . S
C1414 H1408 0.930 . S
C1414 C1415 1.355 . S
C1414 C1416 1.415 . S
C1415 C1414 1.355 . S
C1415 C1417 1.419 . S
C1416 C1414 1.415 . S
C1416 C1421 1.425 . S
C1416 C1423 1.409 . S
C1417 H1409 0.930 . S
C1417 C1415 1.419 . S
C1417 C1418 1.362 . S
C1418 H1410 0.930 . S
C1418 C1417 1.362 . S
C1418 C1421 1.409 . S
C1419 H1411 0.930 . S
C1419 C1420 1.355 . S
C1419 C1421 1.415 . S
C1420 C1419 1.355 . S
C1420 C1422 1.419 . S
C1421 C1416 1.425 . S
C1421 C1418 1.409 . S
C1421 C1419 1.415 . S
C1422 H1412 0.930 . S
C1422 C1420 1.419 . S
C1422 C1423 1.362 . S
C1423 H1413 0.930 . S
C1423 C1416 1.409 . S
C1423 C1422 1.362 . S
H1424 C1430 0.930 . S
H1425 C1433 0.930 . S
H1426 C1434 0.930 . S
H1427 C1435 0.930 . S
H1428 C1438 0.930 . S
H1429 C1439 0.930 . S
C1430 H1424 0.930 . S
C1430 C1431 1.355 . S
C1430 C1432 1.415 . S
C1431 C1430 1.355 . S
C1431 C1433 1.419 . S
C1432 C1430 1.415 . S
C1432 C1437 1.425 . S
C1432 C1439 1.409 . S
C1433 H1425 0.930 . S
C1433 C1431 1.419 . S
C1433 C1434 1.362 . S
C1434 H1426 0.930 . S
C1434 C1433 1.362 . S
C1434 C1437 1.409 . S
C1435 H1427 0.930 . S
C1435 C1436 1.355 . S
C1435 C1437 1.415 . S
C1436 C1435 1.355 . S
C1436 C1438 1.419 . S
C1437 C1432 1.425 . S
C1437 C1434 1.409 . S
C1437 C1435 1.415 . S
C1438 H1428 0.930 . S
C1438 C1436 1.419 . S
C1438 C1439 1.362 . S
C1439 H1429 0.930 . S
C1439 C1432 1.409 . S
C1439 C1438 1.362 . S
H1440 C1446 0.930 . S
H1441 C1449 0.930 . S
H1442 C1450 0.930 . S
H1443 C1451 0.930 . S
H1444 C1454 0.930 . S
H1445 C1455 0.930 . S
C1446 H1440 0.930 . S
C1446 C1447 1.355 . S
C1446 C1448 1.415 . S
C1447 C1446 1.355 . S
C1447 C1449 1.419 . S
C1448 C1446 1.415 . S
C1448 C1453 1.425 . S
C1448 C1455 1.409 . S
C1449 H1441 0.930 . S
C1449 C1447 1.419 . S
C1449 C1450 1.362 . S
C1450 H1442 0.930 . S
C1450 C1449 1.362 . S
C1450 C1453 1.409 . S
C1451 H1443 0.930 . S
C1451 C1452 1.355 . S
C1451 C1453 1.415 . S
C1452 C1451 1.355 . S
C1452 C1454 1.419 . S
C1453 C1448 1.425 . S
C1453 C1450 1.409 . S
C1453 C1451 1.415 . S
C1454 H1444 0.930 . S
C1454 C1452 1.419 . S
C1454 C1455 1.362 . S
C1455 H1445 0.930 . S
C1455 C1448 1.409 . S
C1455 C1454 1.362 . S
H1456 C1462 0.930 . S
H1457 C1465 0.930 . S
H1458 C1466 0.930 . S
H1459 C1467 0.930 . S
H1460 C1470 0.930 . S
H1461 C1471 0.930 . S
C1462 H1456 0.930 . S
C1462 C1463 1.355 . S
C1462 C1464 1.415 . S
C1463 C1462 1.355 . S
C1463 C1465 1.419 . S
C1464 C1462 1.415 . S
C1464 C1469 1.425 . S
C1464 C1471 1.409 . S
C1465 H1457 0.930 . S
C1465 C1463 1.419 . S
C1465 C1466 1.362 . S
C1466 H1458 0.930 . S
C1466 C1465 1.362 . S
C1466 C1469 1.409 . S
C1467 H1459 0.930 . S
C1467 C1468 1.355 . S
C1467 C1469 1.415 . S
C1468 C1467 1.355 . S
C1468 C1470 1.419 . S
C1469 C1464 1.425 . S
C1469 C1466 1.409 . S
C1469 C1467 1.415 . S
C1470 H1460 0.930 . S
C1470 C1468 1.419 . S
C1470 C1471 1.362 . S
C1471 H1461 0.930 . S
C1471 C1464 1.409 . S
C1471 C1470 1.362 . S
H1472 C1478 0.930 . S
H1473 C1481 0.930 . S
H1474 C1482 0.930 . S
H1475 C1483 0.930 . S
H1476 C1486 0.930 . S
H1477 C1487 0.930 . S
C1478 H1472 0.930 . S
C1478 C1479 1.355 . S
C1478 C1480 1.415 . S
C1479 C1478 1.355 . S
C1479 C1481 1.419 . S
C1480 C1478 1.415 . S
C1480 C1485 1.425 . S
C1480 C1487 1.409 . S
C1481 H1473 0.930 . S
C1481 C1479 1.419 . S
C1481 C1482 1.362 . S
C1482 H1474 0.930 . S
C1482 C1481 1.362 . S
C1482 C1485 1.409 . S
C1483 H1475 0.930 . S
C1483 C1484 1.355 . S
C1483 C1485 1.415 . S
C1484 C1483 1.355 . S
C1484 C1486 1.419 . S
C1485 C1480 1.425 . S
C1485 C1482 1.409 . S
C1485 C1483 1.415 . S
C1486 H1476 0.930 . S
C1486 C1484 1.419 . S
C1486 C1487 1.362 . S
C1487 H1477 0.930 . S
C1487 C1480 1.409 . S
C1487 C1486 1.362 . S
H1488 C1494 0.930 . S
H1489 C1497 0.930 . S
H1490 C1498 0.930 . S
H1491 C1499 0.930 . S
H1492 C1502 0.930 . S
H1493 C1503 0.930 . S
C1494 H1488 0.930 . S
C1494 C1495 1.355 . S
C1494 C1496 1.415 . S
C1495 C1494 1.355 . S
C1495 C1497 1.419 . S
C1496 C1494 1.415 . S
C1496 C1501 1.425 . S
C1496 C1503 1.409 . S
C1497 H1489 0.930 . S
C1497 C1495 1.419 . S
C1497 C1498 1.362 . S
C1498 H1490 0.930 . S
C1498 C1497 1.362 . S
C1498 C1501 1.409 . S
C1499 H1491 0.930 . S
C1499 C1500 1.355 . S
C1499 C1501 1.415 . S
C1500 C1499 1.355 . S
C1500 C1502 1.419 . S
C1501 C1496 1.425 . S
C1501 C1498 1.409 . S
C1501 C1499 1.415 . S
C1502 H1492 0.930 . S
C1502 C1500 1.419 . S
C1502 C1503 1.362 . S
C1503 H1493 0.930 . S
C1503 C1496 1.409 . S
C1503 C1502 1.362 . S
H1504 C1510 0.930 . S
H1505 C1513 0.930 . S
H1506 C1514 0.930 . S
H1507 C1515 0.930 . S
H1508 C1518 0.930 . S
H1509 C1519 0.930 . S
C1510 H1504 0.930 . S
C1510 C1511 1.355 . S
C1510 C1512 1.415 . S
C1511 C1510 1.355 . S
C1511 C1513 1.419 . S
C1512 C1510 1.415 . S
C1512 C1517 1.425 . S
C1512 C1519 1.409 . S
C1513 H1505 0.930 . S
C1513 C1511 1.419 . S
C1513 C1514 1.362 . S
C1514 H1506 0.930 . S
C1514 C1513 1.362 . S
C1514 C1517 1.409 . S
C1515 H1507 0.930 . S
C1515 C1516 1.355 . S
C1515 C1517 1.415 . S
C1516 C1515 1.355 . S
C1516 C1518 1.419 . S
C1517 C1512 1.425 . S
C1517 C1514 1.409 . S
C1517 C1515 1.415 . S
C1518 H1508 0.930 . S
C1518 C1516 1.419 . S
C1518 C1519 1.362 . S
C1519 H1509 0.930 . S
C1519 C1512 1.409 . S
C1519 C1518 1.362 . S
H1520 C1526 0.930 . S
H1521 C1529 0.930 . S
H1522 C1530 0.930 . S
H1523 C1531 0.930 . S
H1524 C1534 0.930 . S
H1525 C1535 0.930 . S
C1526 H1520 0.930 . S
C1526 C1527 1.355 . S
C1526 C1528 1.415 . S
C1527 C1526 1.355 . S
C1527 C1529 1.419 . S
C1528 C1526 1.415 . S
C1528 C1533 1.425 . S
C1528 C1535 1.409 . S
C1529 H1521 0.930 . S
C1529 C1527 1.419 . S
C1529 C1530 1.362 . S
C1530 H1522 0.930 . S
C1530 C1529 1.362 . S
C1530 C1533 1.409 . S
C1531 H1523 0.930 . S
C1531 C1532 1.355 . S
C1531 C1533 1.415 . S
C1532 C1531 1.355 . S
C1532 C1534 1.419 . S
C1533 C1528 1.425 . S
C1533 C1530 1.409 . S
C1533 C1531 1.415 . S
C1534 H1524 0.930 . S
C1534 C1532 1.419 . S
C1534 C1535 1.362 . S
C1535 H1525 0.930 . S
C1535 C1528 1.409 . S
C1535 C1534 1.362 . S
H1536 C1542 0.930 . S
H1537 C1545 0.930 . S
H1538 C1546 0.930 . S
H1539 C1547 0.930 . S
H1540 C1550 0.930 . S
H1541 C1551 0.930 . S
C1542 H1536 0.930 . S
C1542 C1543 1.355 . S
C1542 C1544 1.415 . S
C1543 C1542 1.355 . S
C1543 C1545 1.419 . S
C1544 C1542 1.415 . S
C1544 C1549 1.425 . S
C1544 C1551 1.409 . S
C1545 H1537 0.930 . S
C1545 C1543 1.419 . S
C1545 C1546 1.362 . S
C1546 H1538 0.930 . S
C1546 C1545 1.362 . S
C1546 C1549 1.409 . S
C1547 H1539 0.930 . S
C1547 C1548 1.355 . S
C1547 C1549 1.415 . S
C1548 C1547 1.355 . S
C1548 C1550 1.419 . S
C1549 C1544 1.425 . S
C1549 C1546 1.409 . S
C1549 C1547 1.415 . S
C1550 H1540 0.930 . S
C1550 C1548 1.419 . S
C1550 C1551 1.362 . S
C1551 H1541 0.930 . S
C1551 C1544 1.409 . S
C1551 C1550 1.362 . S
H1552 C1558 0.930 . S
H1553 C1561 0.930 . S
H1554 C1562 0.930 . S
H1555 C1563 0.930 . S
H1556 C1566 0.930 . S
H1557 C1567 0.930 . S
C1558 H1552 0.930 . S
C1558 C1559 1.355 . S
C1558 C1560 1.415 . S
C1559 C1558 1.355 . S
C1559 C1561 1.419 . S
C1560 C1558 1.415 . S
C1560 C1565 1.425 . S
C1560 C1567 1.409 . S
C1561 H1553 0.930 . S
C1561 C1559 1.419 . S
C1561 C1562 1.362 . S
C1562 H1554 0.930 . S
C1562 C1561 1.362 . S
C1562 C1565 1.409 . S
C1563 H1555 0.930 . S
C1563 C1564 1.355 . S
C1563 C1565 1.415 . S
C1564 C1563 1.355 . S
C1564 C1566 1.419 . S
C1565 C1560 1.425 . S
C1565 C1562 1.409 . S
C1565 C1563 1.415 . S
C1566 H1556 0.930 . S
C1566 C1564 1.419 . S
C1566 C1567 1.362 . S
C1567 H1557 0.930 . S
C1567 C1560 1.409 . S
C1567 C1566 1.362 . S
H1568 C1574 0.930 . S
H1569 C1577 0.930 . S
H1570 C1578 0.930 . S
H1571 C1579 0.930 . S
H1572 C1582 0.930 . S
H1573 C1583 0.930 . S
C1574 H1568 0.930 . S
C1574 C1575 1.355 . S
C1574 C1576 1.415 . S
C1575 C1574 1.355 . S
C1575 C1577 1.419 . S
C1576 C1574 1.415 . S
C1576 C1581 1.425 . S
C1576 C1583 1.409 . S
C1577 H1569 0.930 . S
C1577 C1575 1.419 . S
C1577 C1578 1.362 . S
C1578 H1570 0.930 . S
C1578 C1577 1.362 . S
C1578 C1581 1.409 . S
C1579 H1571 0.930 . S
C1579 C1580 1.355 . S
C1579 C1581 1.415 . S
C1580 C1579 1.355 . S
C1580 C1582 1.419 . S
C1581 C1576 1.425 . S
C1581 C1578 1.409 . S
C1581 C1579 1.415 . S
C1582 H1572 0.930 . S
C1582 C1580 1.419 . S
C1582 C1583 1.362 . S
C1583 H1573 0.930 . S
C1583 C1576 1.409 . S
C1583 C1582 1.362 . S
H1584 C1590 0.930 . S
H1585 C1593 0.930 . S
H1586 C1594 0.930 . S
H1587 C1595 0.930 . S
H1588 C1598 0.930 . S
H1589 C1599 0.930 . S
C1590 H1584 0.930 . S
C1590 C1591 1.355 . S
C1590 C1592 1.415 . S
C1591 C1590 1.355 . S
C1591 C1593 1.419 . S
C1592 C1590 1.415 . S
C1592 C1597 1.425 . S
C1592 C1599 1.409 . S
C1593 H1585 0.930 . S
C1593 C1591 1.419 . S
C1593 C1594 1.362 . S
C1594 H1586 0.930 . S
C1594 C1593 1.362 . S
C1594 C1597 1.409 . S
C1595 H1587 0.930 . S
C1595 C1596 1.355 . S
C1595 C1597 1.415 . S
C1596 C1595 1.355 . S
C1596 C1598 1.419 . S
C1597 C1592 1.425 . S
C1597 C1594 1.409 . S
C1597 C1595 1.415 . S
C1598 H1588 0.930 . S
C1598 C1596 1.419 . S
C1598 C1599 1.362 . S
C1599 H1589 0.930 . S
C1599 C1592 1.409 . S
C1599 C1598 1.362 . S
H1600 C1606 0.930 . S
H1601 C1609 0.930 . S
H1602 C1610 0.930 . S
H1603 C1611 0.930 . S
H1604 C1614 0.930 . S
H1605 C1615 0.930 . S
C1606 H1600 0.930 . S
C1606 C1607 1.355 . S
C1606 C1608 1.415 . S
C1607 C1606 1.355 . S
C1607 C1609 1.419 . S
C1608 C1606 1.415 . S
C1608 C1613 1.425 . S
C1608 C1615 1.409 . S
C1609 H1601 0.930 . S
C1609 C1607 1.419 . S
C1609 C1610 1.362 . S
C1610 H1602 0.930 . S
C1610 C1609 1.362 . S
C1610 C1613 1.409 . S
C1611 H1603 0.930 . S
C1611 C1612 1.355 . S
C1611 C1613 1.415 . S
C1612 C1611 1.355 . S
C1612 C1614 1.419 . S
C1613 C1608 1.425 . S
C1613 C1610 1.409 . S
C1613 C1611 1.415 . S
C1614 H1604 0.930 . S
C1614 C1612 1.419 . S
C1614 C1615 1.362 . S
C1615 H1605 0.930 . S
C1615 C1608 1.409 . S
C1615 C1614 1.362 . S
H1616 C1622 0.930 . S
H1617 C1625 0.930 . S
H1618 C1626 0.930 . S
H1619 C1627 0.930 . S
H1620 C1630 0.930 . S
H1621 C1631 0.930 . S
C1622 H1616 0.930 . S
C1622 C1623 1.355 . S
C1622 C1624 1.415 . S
C1623 C1622 1.355 . S
C1623 C1625 1.419 . S
C1624 C1622 1.415 . S
C1624 C1629 1.425 . S
C1624 C1631 1.409 . S
C1625 H1617 0.930 . S
C1625 C1623 1.419 . S
C1625 C1626 1.362 . S
C1626 H1618 0.930 . S
C1626 C1625 1.362 . S
C1626 C1629 1.409 . S
C1627 H1619 0.930 . S
C1627 C1628 1.355 . S
C1627 C1629 1.415 . S
C1628 C1627 1.355 . S
C1628 C1630 1.419 . S
C1629 C1624 1.425 . S
C1629 C1626 1.409 . S
C1629 C1627 1.415 . S
C1630 H1620 0.930 . S
C1630 C1628 1.419 . S
C1630 C1631 1.362 . S
C1631 H1621 0.930 . S
C1631 C1624 1.409 . S
C1631 C1630 1.362 . S
H1632 C1638 0.930 . S
H1633 C1641 0.930 . S
H1634 C1642 0.930 . S
H1635 C1643 0.930 . S
H1636 C1646 0.930 . S
H1637 C1647 0.930 . S
C1638 H1632 0.930 . S
C1638 C1639 1.355 . S
C1638 C1640 1.415 . S
C1639 C1638 1.355 . S
C1639 C1641 1.419 . S
C1640 C1638 1.415 . S
C1640 C1645 1.425 . S
C1640 C1647 1.409 . S
C1641 H1633 0.930 . S
C1641 C1639 1.419 . S
C1641 C1642 1.362 . S
C1642 H1634 0.930 . S
C1642 C1641 1.362 . S
C1642 C1645 1.409 . S
C1643 H1635 0.930 . S
C1643 C1644 1.355 . S
C1643 C1645 1.415 . S
C1644 C1643 1.355 . S
C1644 C1646 1.419 . S
C1645 C1640 1.425 . S
C1645 C1642 1.409 . S
C1645 C1643 1.415 . S
C1646 H1636 0.930 . S
C1646 C1644 1.419 . S
C1646 C1647 1.362 . S
C1647 H1637 0.930 . S
C1647 C1640 1.409 . S
C1647 C1646 1.362 . S
H1648 C1654 0.930 . S
H1649 C1657 0.930 . S
H1650 C1658 0.930 . S
H1651 C1659 0.930 . S
H1652 C1662 0.930 . S
H1653 C1663 0.930 . S
C1654 H1648 0.930 . S
C1654 C1655 1.355 . S
C1654 C1656 1.415 . S
C1655 C1654 1.355 . S
C1655 C1657 1.419 . S
C1656 C1654 1.415 . S
C1656 C1661 1.425 . S
C1656 C1663 1.409 . S
C1657 H1649 0.930 . S
C1657 C1655 1.419 . S
C1657 C1658 1.362 . S
C1658 H1650 0.930 . S
C1658 C1657 1.362 . S
C1658 C1661 1.409 . S
C1659 H1651 0.930 . S
C1659 C1660 1.355 . S
C1659 C1661 1.415 . S
C1660 C1659 1.355 . S
C1660 C1662 1.419 . S
C1661 C1656 1.425 . S
C1661 C1658 1.409 . S
C1661 C1659 1.415 . S
C1662 H1652 0.930 . S
C1662 C1660 1.419 . S
C1662 C1663 1.362 . S
C1663 H1653 0.930 . S
C1663 C1656 1.409 . S
C1663 C1662 1.362 . S
H1664 C1670 0.930 . S
H1665 C1673 0.930 . S
H1666 C1674 0.930 . S
H1667 C1675 0.930 . S
H1668 C1678 0.930 . S
H1669 C1679 0.930 . S
C1670 H1664 0.930 . S
C1670 C1671 1.355 . S
C1670 C1672 1.415 . S
C1671 C1670 1.355 . S
C1671 C1673 1.419 . S
C1672 C1670 1.415 . S
C1672 C1677 1.425 . S
C1672 C1679 1.409 . S
C1673 H1665 0.930 . S
C1673 C1671 1.419 . S
C1673 C1674 1.362 . S
C1674 H1666 0.930 . S
C1674 C1673 1.362 . S
C1674 C1677 1.409 . S
C1675 H1667 0.930 . S
C1675 C1676 1.355 . S
C1675 C1677 1.415 . S
C1676 C1675 1.355 . S
C1676 C1678 1.419 . S
C1677 C1672 1.425 . S
C1677 C1674 1.409 . S
C1677 C1675 1.415 . S
C1678 H1668 0.930 . S
C1678 C1676 1.419 . S
C1678 C1679 1.362 . S
C1679 H1669 0.930 . S
C1679 C1672 1.409 . S
C1679 C1678 1.362 . S
H1680 C1686 0.930 . S
H1681 C1689 0.930 . S
H1682 C1690 0.930 . S
H1683 C1691 0.930 . S
H1684 C1694 0.930 . S
H1685 C1695 0.930 . S
C1686 H1680 0.930 . S
C1686 C1687 1.355 . S
C1686 C1688 1.415 . S
C1687 C1686 1.355 . S
C1687 C1689 1.419 . S
C1688 C1686 1.415 . S
C1688 C1693 1.425 . S
C1688 C1695 1.409 . S
C1689 H1681 0.930 . S
C1689 C1687 1.419 . S
C1689 C1690 1.362 . S
C1690 H1682 0.930 . S
C1690 C1689 1.362 . S
C1690 C1693 1.409 . S
C1691 H1683 0.930 . S
C1691 C1692 1.355 . S
C1691 C1693 1.415 . S
C1692 C1691 1.355 . S
C1692 C1694 1.419 . S
C1693 C1688 1.425 . S
C1693 C1690 1.409 . S
C1693 C1691 1.415 . S
C1694 H1684 0.930 . S
C1694 C1692 1.419 . S
C1694 C1695 1.362 . S
C1695 H1685 0.930 . S
C1695 C1688 1.409 . S
C1695 C1694 1.362 . S
H1696 C1702 0.930 . S
H1697 C1705 0.930 . S
H1698 C1706 0.930 . S
H1699 C1707 0.930 . S
H1700 C1710 0.930 . S
H1701 C1711 0.930 . S
C1702 H1696 0.930 . S
C1702 C1703 1.355 . S
C1702 C1704 1.415 . S
C1703 C1702 1.355 . S
C1703 C1705 1.419 . S
C1704 C1702 1.415 . S
C1704 C1709 1.425 . S
C1704 C1711 1.409 . S
C1705 H1697 0.930 . S
C1705 C1703 1.419 . S
C1705 C1706 1.362 . S
C1706 H1698 0.930 . S
C1706 C1705 1.362 . S
C1706 C1709 1.409 . S
C1707 H1699 0.930 . S
C1707 C1708 1.355 . S
C1707 C1709 1.415 . S
C1708 C1707 1.355 . S
C1708 C1710 1.419 . S
C1709 C1704 1.425 . S
C1709 C1706 1.409 . S
C1709 C1707 1.415 . S
C1710 H1700 0.930 . S
C1710 C1708 1.419 . S
C1710 C1711 1.362 . S
C1711 H1701 0.930 . S
C1711 C1704 1.409 . S
C1711 C1710 1.362 . S
H1712 C1718 0.930 . S
H1713 C1721 0.930 . S
H1714 C1722 0.930 . S
H1715 C1723 0.930 . S
H1716 C1726 0.930 . S
H1717 C1727 0.930 . S
C1718 H1712 0.930 . S
C1718 C1719 1.355 . S
C1718 C1720 1.415 . S
C1719 C1718 1.355 . S
C1719 C1721 1.419 . S
C1720 C1718 1.415 . S
C1720 C1725 1.425 . S
C1720 C1727 1.409 . S
C1721 H1713 0.930 . S
C1721 C1719 1.419 . S
C1721 C1722 1.362 . S
C1722 H1714 0.930 . S
C1722 C1721 1.362 . S
C1722 C1725 1.409 . S
C1723 H1715 0.930 . S
C1723 C1724 1.355 . S
C1723 C1725 1.415 . S
C1724 C1723 1.355 . S
C1724 C1726 1.419 . S
C1725 C1720 1.425 . S
C1725 C1722 1.409 . S
C1725 C1723 1.415 . S
C1726 H1716 0.930 . S
C1726 C1724 1.419 . S
C1726 C1727 1.362 . S
C1727 H1717 0.930 . S
C1727 C1720 1.409 . S
C1727 C1726 1.362 . S
H1728 C1734 0.930 . S
H1729 C1737 0.930 . S
H1730 C1738 0.930 . S
H1731 C1739 0.930 . S
H1732 C1742 0.930 . S
H1733 C1743 0.930 . S
C1734 H1728 0.930 . S
C1734 C1735 1.355 . S
C1734 C1736 1.415 . S
C1735 C1734 1.355 . S
C1735 C1737 1.419 . S
C1736 C1734 1.415 . S
C1736 C1741 1.425 . S
C1736 C1743 1.409 . S
C1737 H1729 0.930 . S
C1737 C1735 1.419 . S
C1737 C1738 1.362 . S
C1738 H1730 0.930 . S
C1738 C1737 1.362 . S
C1738 C1741 1.409 . S
C1739 H1731 0.930 . S
C1739 C1740 1.355 . S
C1739 C1741 1.415 . S
C1740 C1739 1.355 . S
C1740 C1742 1.419 . S
C1741 C1736 1.425 . S
C1741 C1738 1.409 . S
C1741 C1739 1.415 . S
C1742 H1732 0.930 . S
C1742 C1740 1.419 . S
C1742 C1743 1.362 . S
C1743 H1733 0.930 . S
C1743 C1736 1.409 . S
C1743 C1742 1.362 . S
H1744 C1750 0.930 . S
H1745 C1753 0.930 . S
H1746 C1754 0.930 . S
H1747 C1755 0.930 . S
H1748 C1758 0.930 . S
H1749 C1759 0.930 . S
C1750 H1744 0.930 . S
C1750 C1751 1.355 . S
C1750 C1752 1.415 . S
C1751 C1750 1.355 . S
C1751 C1753 1.419 . S
C1752 C1750 1.415 . S
C1752 C1757 1.425 . S
C1752 C1759 1.409 . S
C1753 H1745 0.930 . S
C1753 C1751 1.419 . S
C1753 C1754 1.362 . S
C1754 H1746 0.930 . S
C1754 C1753 1.362 . S
C1754 C1757 1.409 . S
C1755 H1747 0.930 . S
C1755 C1756 1.355 . S
C1755 C1757 1.415 . S
C1756 C1755 1.355 . S
C1756 C1758 1.419 . S
C1757 C1752 1.425 . S
C1757 C1754 1.409 . S
C1757 C1755 1.415 . S
C1758 H1748 0.930 . S
C1758 C1756 1.419 . S
C1758 C1759 1.362 . S
C1759 H1749 0.930 . S
C1759 C1752 1.409 . S
C1759 C1758 1.362 . S
H1760 C1766 0.930 . S
H1761 C1769 0.930 . S
H1762 C1770 0.930 . S
H1763 C1771 0.930 . S
H1764 C1774 0.930 . S
H1765 C1775 0.930 . S
C1766 H1760 0.930 . S
C1766 C1767 1.355 . S
C1766 C1768 1.415 . S
C1767 C1766 1.355 . S
C1767 C1769 1.419 . S
C1768 C1766 1.415 . S
C1768 C1773 1.425 . S
C1768 C1775 1.409 . S
C1769 H1761 0.930 . S
C1769 C1767 1.419 . S
C1769 C1770 1.362 . S
C1770 H1762 0.930 . S
C1770 C1769 1.362 . S
C1770 C1773 1.409 . S
C1771 H1763 0.930 . S
C1771 C1772 1.355 . S
C1771 C1773 1.415 . S
C1772 C1771 1.355 . S
C1772 C1774 1.419 . S
C1773 C1768 1.425 . S
C1773 C1770 1.409 . S
C1773 C1771 1.415 . S
C1774 H1764 0.930 . S
C1774 C1772 1.419 . S
C1774 C1775 1.362 . S
C1775 H1765 0.930 . S
C1775 C1768 1.409 . S
C1775 C1774 1.362 . S
H1776 C1782 0.930 . S
H1777 C1785 0.930 . S
H1778 C1786 0.930 . S
H1779 C1787 0.930 . S
H1780 C1790 0.930 . S
H1781 C1791 0.930 . S
C1782 H1776 0.930 . S
C1782 C1783 1.355 . S
C1782 C1784 1.415 . S
C1783 C1782 1.355 . S
C1783 C1785 1.419 . S
C1784 C1782 1.415 . S
C1784 C1789 1.425 . S
C1784 C1791 1.409 . S
C1785 H1777 0.930 . S
C1785 C1783 1.419 . S
C1785 C1786 1.362 . S
C1786 H1778 0.930 . S
C1786 C1785 1.362 . S
C1786 C1789 1.409 . S
C1787 H1779 0.930 . S
C1787 C1788 1.355 . S
C1787 C1789 1.415 . S
C1788 C1787 1.355 . S
C1788 C1790 1.419 . S
C1789 C1784 1.425 . S
C1789 C1786 1.409 . S
C1789 C1787 1.415 . S
C1790 H1780 0.930 . S
C1790 C1788 1.419 . S
C1790 C1791 1.362 . S
C1791 H1781 0.930 . S
C1791 C1784 1.409 . S
C1791 C1790 1.362 . S
H1792 C1798 0.930 . S
H1793 C1801 0.930 . S
H1794 C1802 0.930 . S
H1795 C1803 0.930 . S
H1796 C1806 0.930 . S
H1797 C1807 0.930 . S
C1798 H1792 0.930 . S
C1798 C1799 1.355 . S
C1798 C1800 1.415 . S
C1799 C1798 1.355 . S
C1799 C1801 1.419 . S
C1800 C1798 1.415 . S
C1800 C1805 1.425 . S
C1800 C1807 1.409 . S
C1801 H1793 0.930 . S
C1801 C1799 1.419 . S
C1801 C1802 1.362 . S
C1802 H1794 0.930 . S
C1802 C1801 1.362 . S
C1802 C1805 1.409 . S
C1803 H1795 0.930 . S
C1803 C1804 1.355 . S
C1803 C1805 1.415 . S
C1804 C1803 1.355 . S
C1804 C1806 1.419 . S
C1805 C1800 1.425 . S
C1805 C1802 1.409 . S
C1805 C1803 1.415 . S
C1806 H1796 0.930 . S
C1806 C1804 1.419 . S
C1806 C1807 1.362 . S
C1807 H1797 0.930 . S
C1807 C1800 1.409 . S
C1807 C1806 1.362 . S
H1808 C1814 0.930 . S
H1809 C1817 0.930 . S
H1810 C1818 0.930 . S
H1811 C1819 0.930 . S
H1812 C1822 0.930 . S
H1813 C1823 0.930 . S
C1814 H1808 0.930 . S
C1814 C1815 1.355 . S
C1814 C1816 1.415 . S
C1815 C1814 1.355 . S
C1815 C1817 1.419 . S
C1816 C1814 1.415 . S
C1816 C1821 1.425 . S
C1816 C1823 1.409 . S
C1817 H1809 0.930 . S
C1817 C1815 1.419 . S
C1817 C1818 1.362 . S
C1818 H1810 0.930 . S
C1818 C1817 1.362 . S
C1818 C1821 1.409 . S
C1819 H1811 0.930 . S
C1819 C1820 1.355 . S
C1819 C1821 1.415 . S
C1820 C1819 1.355 . S
C1820 C1822 1.419 . S
C1821 C1816 1.425 . S
C1821 C1818 1.409 . S
C1821 C1819 1.415 . S
C1822 H1812 0.930 . S
C1822 C1820 1.419 . S
C1822 C1823 1.362 . S
C1823 H1813 0.930 . S
C1823 C1816 1.409 . S
C1823 C1822 1.362 . S
H1824 C1830 0.930 . S
H1825 C1833 0.930 . S
H1826 C1834 0.930 . S
H1827 C1835 0.930 . S
H1828 C1838 0.930 . S
H1829 C1839 0.930 . S
C1830 H1824 0.930 . S
C1830 C1831 1.355 . S
C1830 C1832 1.415 . S
C1831 C1830 1.355 . S
C1831 C1833 1.419 . S
C1832 C1830 1.415 . S
C1832 C1837 1.425 . S
C1832 C1839 1.409 . S
C1833 H1825 0.930 . S
C1833 C1831 1.419 . S
C1833 C1834 1.362 . S
C1834 H1826 0.930 . S
C1834 C1833 1.362 . S
C1834 C1837 1.409 . S
C1835 H1827 0.930 . S
C1835 C1836 1.355 . S
C1835 C1837 1.415 . S
C1836 C1835 1.355 . S
C1836 C1838 1.419 . S
C1837 C1832 1.425 . S
C1837 C1834 1.409 . S
C1837 C1835 1.415 . S
C1838 H1828 0.930 . S
C1838 C1836 1.419 . S
C1838 C1839 1.362 . S
C1839 H1829 0.930 . S
C1839 C1832 1.409 . S
C1839 C1838 1.362 . S
H1840 C1846 0.930 . S
H1841 C1849 0.930 . S
H1842 C1850 0.930 . S
H1843 C1851 0.930 . S
H1844 C1854 0.930 . S
H1845 C1855 0.930 . S
C1846 H1840 0.930 . S
C1846 C1847 1.355 . S
C1846 C1848 1.415 . S
C1847 C1846 1.355 . S
C1847 C1849 1.419 . S
C1848 C1846 1.415 . S
C1848 C1853 1.425 . S
C1848 C1855 1.409 . S
C1849 H1841 0.930 . S
C1849 C1847 1.419 . S
C1849 C1850 1.362 . S
C1850 H1842 0.930 . S
C1850 C1849 1.362 . S
C1850 C1853 1.409 . S
C1851 H1843 0.930 . S
C1851 C1852 1.355 . S
C1851 C1853 1.415 . S
C1852 C1851 1.355 . S
C1852 C1854 1.419 . S
C1853 C1848 1.425 . S
C1853 C1850 1.409 . S
C1853 C1851 1.415 . S
C1854 H1844 0.930 . S
C1854 C1852 1.419 . S
C1854 C1855 1.362 . S
C1855 H1845 0.930 . S
C1855 C1848 1.409 . S
C1855 C1854 1.362 . S
H1856 C1862 0.930 . S
H1857 C1865 0.930 . S
H1858 C1866 0.930 . S
H1859 C1867 0.930 . S
H1860 C1870 0.930 . S
H1861 C1871 0.930 . S
C1862 H1856 0.930 . S
C1862 C1863 1.355 . S
C1862 C1864 1.415 . S
C1863 C1862 1.355 . S
C1863 C1865 1.419 . S
C1864 C1862 1.415 . S
C1864 C1869 1.425 . S
C1864 C1871 1.409 . S
C1865 H1857 0.930 . S
C1865 C1863 1.419 . S
C1865 C1866 1.362 . S
C1866 H1858 0.930 . S
C1866 C1865 1.362 . S
C1866 C1869 1.409 . S
C1867 H1859 0.930 . S
C1867 C1868 1.355 . S
C1867 C1869 1.415 . S
C1868 C1867 1.355 . S
C1868 C1870 1.419 . S
C1869 C1864 1.425 . S
C1869 C1866 1.409 . S
C1869 C1867 1.415 . S
C1870 H1860 0.930 . S
C1870 C1868 1.419 . S
C1870 C1871 1.362 . S
C1871 H1861 0.930 . S
C1871 C1864 1.409 . S
C1871 C1870 1.362 . S
H1872 C1878 0.930 . S
H1873 C1881 0.930 . S
H1874 C1882 0.930 . S
H1875 C1883 0.930 . S
H1876 C1886 0.930 . S
H1877 C1887 0.930 . S
C1878 H1872 0.930 . S
C1878 C1879 1.355 . S
C1878 C1880 1.415 . S
C1879 C1878 1.355 . S
C1879 C1881 1.419 . S
C1880 C1878 1.415 . S
C1880 C1885 1.425 . S
C1880 C1887 1.409 . S
C1881 H1873 0.930 . S
C1881 C1879 1.419 . S
C1881 C1882 1.362 . S
C1882 H1874 0.930 . S
C1882 C1881 1.362 . S
C1882 C1885 1.409 . S
C1883 H1875 0.930 . S
C1883 C1884 1.355 . S
C1883 C1885 1.415 . S
C1884 C1883 1.355 . S
C1884 C1886 1.419 . S
C1885 C1880 1.425 . S
C1885 C1882 1.409 . S
C1885 C1883 1.415 . S
C1886 H1876 0.930 . S
C1886 C1884 1.419 . S
C1886 C1887 1.362 . S
C1887 H1877 0.930 . S
C1887 C1880 1.409 . S
C1887 C1886 1.362 . S
H1888 C1894 0.930 . S
H1889 C1897 0.930 . S
H1890 C1898 0.930 . S
H1891 C1899 0.930 . S
H1892 C1902 0.930 . S
H1893 C1903 0.930 . S
C1894 H1888 0.930 . S
C1894 C1895 1.355 . S
C1894 C1896 1.415 . S
C1895 C1894 1.355 . S
C1895 C1897 1.419 . S
C1896 C1894 1.415 . S
C1896 C1901 1.425 . S
C1896 C1903 1.409 . S
C1897 H1889 0.930 . S
C1897 C1895 1.419 . S
C1897 C1898 1.362 . S
C1898 H1890 0.930 . S
C1898 C1897 1.362 . S
C1898 C1901 1.409 . S
C1899 H1891 0.930 . S
C1899 C1900 1.355 . S
C1899 C1901 1.415 . S
C1900 C1899 1.355 . S
C1900 C1902 1.419 . S
C1901 C1896 1.425 . S
C1901 C1898 1.409 . S
C1901 C1899 1.415 . S
C1902 H1892 0.930 . S
C1902 C1900 1.419 . S
C1902 C1903 1.362 . S
C1903 H1893 0.930 . S
C1903 C1896 1.409 . S
C1903 C1902 1.362 . S
H1904 C1910 0.930 . S
H1905 C1913 0.930 . S
H1906 C1914 0.930 . S
H1907 C1915 0.930 . S
H1908 C1918 0.930 . S
H1909 C1919 0.930 . S
C1910 H1904 0.930 . S
C1910 C1911 1.355 . S
C1910 C1912 1.415 . S
C1911 C1910 1.355 . S
C1911 C1913 1.419 . S
C1912 C1910 1.415 . S
C1912 C1917 1.425 . S
C1912 C1919 1.409 . S
C1913 H1905 0.930 . S
C1913 C1911 1.419 . S
C1913 C1914 1.362 . S
C1914 H1906 0.930 . S
C1914 C1913 1.362 . S
C1914 C1917 1.409 . S
C1915 H1907 0.930 . S
C1915 C1916 1.355 . S
C1915 C1917 1.415 . S
C1916 C1915 1.355 . S
C1916 C1918 1.419 . S
C1917 C1912 1.425 . S
C1917 C1914 1.409 . S
C1917 C1915 1.415 . S
C1918 H1908 0.930 . S
C1918 C1916 1.419 . S
C1918 C1919 1.362 . S
C1919 H1909 0.930 . S
C1919 C1912 1.409 . S
C1919 C1918 1.362 . S
H1920 C1926 0.930 . S
H1921 C1929 0.930 . S
H1922 C1930 0.930 . S
H1923 C1931 0.930 . S
H1924 C1934 0.930 . S
H1925 C1935 0.930 . S
C1926 H1920 0.930 . S
C1926 C1927 1.355 . S
C1926 C1928 1.415 . S
C1927 C1926 1.355 . S
C1927 C1929 1.419 . S
C1928 C1926 1.415 . S
C1928 C1933 1.425 . S
C1928 C1935 1.409 . S
C1929 H1921 0.930 . S
C1929 C1927 1.419 . S
C1929 C1930 1.362 . S
C1930 H1922 0.930 . S
C1930 C1929 1.362 . S
C1930 C1933 1.409 . S
C1931 H1923 0.930 . S
C1931 C1932 1.355 . S
C1931 C1933 1.415 . S
C1932 C1931 1.355 . S
C1932 C1934 1.419 . S
C1933 C1928 1.425 . S
C1933 C1930 1.409 . S
C1933 C1931 1.415 . S
C1934 H1924 0.930 . S
C1934 C1932 1.419 . S
C1934 C1935 1.362 . S
C1935 H1925 0.930 . S
C1935 C1928 1.409 . S
C1935 C1934 1.362 . S
H1936 C1942 0.930 . S
H1937 C1945 0.930 . S
H1938 C1946 0.930 . S
H1939 C1947 0.930 . S
H1940 C1950 0.930 . S
H1941 C1951 0.930 . S
C1942 H1936 0.930 . S
C1942 C1943 1.355 . S
C1942 C1944 1.415 . S
C1943 C1942 1.355 . S
C1943 C1945 1.419 . S
C1944 C1942 1.415 . S
C1944 C1949 1.425 . S
C1944 C1951 1.409 . S
C1945 H1937 0.930 . S
C1945 C1943 1.419 . S
C1945 C1946 1.362 . S
C1946 H1938 0.930 . S
C1946 C1945 1.362 . S
C1946 C1949 1.409 . S
C1947 H1939 0.930 . S
C1947 C1948 1.355 . S
C1947 C1949 1.415 . S
C1948 C1947 1.355 . S
C1948 C1950 1.419 . S
C1949 C1944 1.425 . S
C1949 C1946 1.409 . S
C1949 C1947 1.415 . S
C1950 H1940 0.930 . S
C1950 C1948 1.419 . S
C1950 C1951 1.362 . S
C1951 H1941 0.930 . S
C1951 C1944 1.409 . S
C1951 C1950 1.362 . S
H1952 C1958 0.930 . S
H1953 C1961 0.930 . S
H1954 C1962 0.930 . S
H1955 C1963 0.930 . S
H1956 C1966 0.930 . S
H1957 C1967 0.930 . S
C1958 H1952 0.930 . S
C1958 C1959 1.355 . S
C1958 C1960 1.415 . S
C1959 C1958 1.355 . S
C1959 C1961 1.419 . S
C1960 C1958 1.415 . S
C1960 C1965 1.425 . S
C1960 C1967 1.409 . S
C1961 H1953 0.930 . S
C1961 C1959 1.419 . S
C1961 C1962 1.362 . S
C1962 H1954 0.930 . S
C1962 C1961 1.362 . S
C1962 C1965 1.409 . S
C1963 H1955 0.930 . S
C1963 C1964 1.355 . S
C1963 C1965 1.415 . S
C1964 C1963 1.355 . S
C1964 C1966 1.419 . S
C1965 C1960 1.425 . S
C1965 C1962 1.409 . S
C1965 C1963 1.415 . S
C1966 H1956 0.930 . S
C1966 C1964 1.419 . S
C1966 C1967 1.362 . S
C1967 H1957 0.930 . S
C1967 C1960 1.409 . S
C1967 C1966 1.362 . S
H1968 C1974 0.930 . S
H1969 C1977 0.930 . S
H1970 C1978 0.930 . S
H1971 C1979 0.930 . S
H1972 C1982 0.930 . S
H1973 C1983 0.930 . S
C1974 H1968 0.930 . S
C1974 C1975 1.355 . S
C1974 C1976 1.415 . S
C1975 C1974 1.355 . S
C1975 C1977 1.419 . S
C1976 C1974 1.415 . S
C1976 C1981 1.425 . S
C1976 C1983 1.409 . S
C1977 H1969 0.930 . S
C1977 C1975 1.419 . S
C1977 C1978 1.362 . S
C1978 H1970 0.930 . S
C1978 C1977 1.362 . S
C1978 C1981 1.409 . S
C1979 H1971 0.930 . S
C1979 C1980 1.355 . S
C1979 C1981 1.415 . S
C1980 C1979 1.355 . S
C1980 C1982 1.419 . S
C1981 C1976 1.425 . S
C1981 C1978 1.409 . S
C1981 C1979 1.415 . S
C1982 H1972 0.930 . S
C1982 C1980 1.419 . S
C1982 C1983 1.362 . S
C1983 H1973 0.930 . S
C1983 C1976 1.409 . S
C1983 C1982 1.362 . S
H1984 C1990 0.930 . S
H1985 C1993 0.930 . S
H1986 C1994 0.930 . S
H1987 C1995 0.930 . S
H1988 C1998 0.930 . S
H1989 C1999 0.930 . S
C1990 H1984 0.930 . S
C1990 C1991 1.355 . S
C1990 C1992 1.415 . S
C1991 C1990 1.355 . S
C1991 C1993 1.419 . S
C1992 C1990 1.415 . S
C1992 C1997 1.425 . S
C1992 C1999 1.409 . S
C1993 H1985 0.930 . S
C1993 C1991 1.419 . S
C1993 C1994 1.362 . S
C1994 H1986 0.930 . S
C1994 C1993 1.362 . S
C1994 C1997 1.409 . S
C1995 H1987 0.930 . S
C1995 C1996 1.355 . S
C1995 C1997 1.415 . S
C1996 C1995 1.355 . S
C1996 C1998 1.419 . S
C1997 C1992 1.425 . S
C1997 C1994 1.409 . S
C1997 C1995 1.415 . S
C1998 H1988 0.930 . S
C1998 C1996 1.419 . S
C1998 C1999 1.362 . S
C1999 H1989 0.930 . S
C1999 C1992 1.409 . S
C1999 C1998 1.362 . S
H2000 C2006 0.930 . S
H2001 C2009 0.930 . S
H2002 C2010 0.930 . S
H2003 C2011 0.930 . S
H2004 C2014 0.930 . S
H2005 C2015 0.930 . S
C2006 H2000 0.930 . S
C2006 C2007 1.355 . S
C2006 C2008 1.415 . S
C2007 C2006 1.355 . S
C2007 C2009 1.419 . S
C2008 C2006 1.415 . S
C2008 C2013 1.425 . S
C2008 C2015 1.409 . S
C2009 H2001 0.930 . S
C2009 C2007 1.419 . S
C2009 C2010 1.362 . S
C2010 H2002 0.930 . S
C2010 C2009 1.362 . S
C2010 C2013 1.409 . S
C2011 H2003 0.930 . S
C2011 C2012 1.355 . S
C2011 C2013 1.415 . S
C2012 C2011 1.355 . S
C2012 C2014 1.419 . S
C2013 C2008 1.425 . S
C2013 C2010 1.409 . S
C2013 C2011 1.415 . S
C2014 H2004 0.930 . S
C2014 C2012 1.419 . S
C2014 C2015 1.362 . S
C2015 H2005 0.930 . S
C2015 C2008 1.409 . S
C2015 C2014 1.362 . S
H2016 C2022 0.930 . S
H2017 C2025 0.930 . S
H2018 C2026 0.930 . S
H2019 C2027 0.930 . S
H2020 C2030 0.930 . S
H2021 C2031 0.930 . S
C2022 H2016 0.930 . S
C2022 C2023 1.355 . S
C2022 C2024 1.415 . S
C2023 C2022 1.355 . S
C2023 C2025 1.419 . S
C2024 C2022 1.415 . S
C2024 C2029 1.425 . S
C2024 C2031 1.409 . S
C2025 H2017 0.930 . S
C2025 C2023 1.419 . S
C2025 C2026 1.362 . S
C2026 H2018 0.930 . S
C2026 C2025 1.362 . S
C2026 C2029 1.409 . S
C2027 H2019 0.930 . S
C2027 C2028 1.355 . S
C2027 C2029 1.415 . S
C2028 C2027 1.355 . S
C2028 C2030 1.419 . S
C2029 C2024 1.425 . S
C2029 C2026 1.409 . S
C2029 C2027 1.415 . S
C2030 H2020 0.930 . S
C2030 C2028 1.419 . S
C2030 C2031 1.362 . S
C2031 H2021 0.930 . S
C2031 C2024 1.409 . S
C2031 C2030 1.362 . S
H2032 C2038 0.930 . S
H2033 C2041 0.930 . S
H2034 C2042 0.930 . S
H2035 C2043 0.930 . S
H2036 C2046 0.930 . S
H2037 C2047 0.930 . S
C2038 H2032 0.930 . S
C2038 C2039 1.355 . S
C2038 C2040 1.415 . S
C2039 C2038 1.355 . S
C2039 C2041 1.419 . S
C2040 C2038 1.415 . S
C2040 C2045 1.425 . S
C2040 C2047 1.409 . S
C2041 H2033 0.930 . S
C2041 C2039 1.419 . S
C2041 C2042 1.362 . S
C2042 H2034 0.930 . S
C2042 C2041 1.362 . S
C2042 C2045 1.409 . S
C2043 H2035 0.930 . S
C2043 C2044 1.355 . S
C2043 C2045 1.415 . S
C2044 C2043 1.355 . S
C2044 C2046 1.419 . S
C2045 C2040 1.425 . S
C2045 C2042 1.409 . S
C2045 C2043 1.415 . S
C2046 H2036 0.930 . S
C2046 C2044 1.419 . S
C2046 C2047 1.362 . S
C2047 H2037 0.930 . S
C2047 C2040 1.409 . S
C2047 C2046 1.362 . S
H2048 C2054 0.930 . S
H2049 C2057 0.930 . S
H2050 C2058 0.930 . S
H2051 C2059 0.930 . S
H2052 C2062 0.930 . S
H2053 C2063 0.930 . S
C2054 H2048 0.930 . S
C2054 C2055 1.355 . S
C2054 C2056 1.415 . S
C2055 C2054 1.355 . S
C2055 C2057 1.419 . S
C2056 C2054 1.415 . S
C2056 C2061 1.425 . S
C2056 C2063 1.409 . S
C2057 H2049 0.930 . S
C2057 C2055 1.419 . S
C2057 C2058 1.362 . S
C2058 H2050 0.930 . S
C2058 C2057 1.362 . S
C2058 C2061 1.409 . S
C2059 H2051 0.930 . S
C2059 C2060 1.355 . S
C2059 C2061 1.415 . S
C2060 C2059 1.355 . S
C2060 C2062 1.419 . S
C2061 C2056 1.425 . S
C2061 C2058 1.409 . S
C2061 C2059 1.415 . S
C2062 H2052 0.930 . S
C2062 C2060 1.419 . S
C2062 C2063 1.362 . S
C2063 H2053 0.930 . S
C2063 C2056 1.409 . S
C2063 C2062 1.362 . S
H2064 C2070 0.930 . S
H2065 C2073 0.930 . S
H2066 C2074 0.930 . S
H2067 C2075 0.930 . S
H2068 C2078 0.930 . S
H2069 C2079 0.930 . S
C2070 H2064 0.930 . S
C2070 C2071 1.355 . S
C2070 C2072 1.415 . S
C2071 C2070 1.355 . S
C2071 C2073 1.419 . S
C2072 C2070 1.415 . S
C2072 C2077 1.425 . S
C2072 C2079 1.409 . S
C2073 H2065 0.930 . S
C2073 C2071 1.419 . S
C2073 C2074 1.362 . S
C2074 H2066 0.930 . S
C2074 C2073 1.362 . S
C2074 C2077 1.409 . S
C2075 H2067 0.930 . S
C2075 C2076 1.355 . S
C2075 C2077 1.415 . S
C2076 C2075 1.355 . S
C2076 C2078 1.419 . S
C2077 C2072 1.425 . S
C2077 C2074 1.409 . S
C2077 C2075 1.415 . S
C2078 H2068 0.930 . S
C2078 C2076 1.419 . S
C2078 C2079 1.362 . S
C2079 H2069 0.930 . S
C2079 C2072 1.409 . S
C2079 C2078 1.362 . S
H2080 C2086 0.930 . S
H2081 C2089 0.930 . S
H2082 C2090 0.930 . S
H2083 C2091 0.930 . S
H2084 C2094 0.930 . S
H2085 C2095 0.930 . S
C2086 H2080 0.930 . S
C2086 C2087 1.355 . S
C2086 C2088 1.415 . S
C2087 C2086 1.355 . S
C2087 C2089 1.419 . S
C2088 C2086 1.415 . S
C2088 C2093 1.425 . S
C2088 C2095 1.409 . S
C2089 H2081 0.930 . S
C2089 C2087 1.419 . S
C2089 C2090 1.362 . S
C2090 H2082 0.930 . S
C2090 C2089 1.362 . S
C2090 C2093 1.409 . S
C2091 H2083 0.930 . S
C2091 C2092 1.355 . S
C2091 C2093 1.415 . S
C2092 C2091 1.355 . S
C2092 C2094 1.419 . S
C2093 C2088 1.425 . S
C2093 C2090 1.409 . S
C2093 C2091 1.415 . S
C2094 H2084 0.930 . S
C2094 C2092 1.419 . S
C2094 C2095 1.362 . S
C2095 H2085 0.930 . S
C2095 C2088 1.409 . S
C2095 C2094 1.362 . S
H2096 C2102 0.930 . S
H2097 C2105 0.930 . S
H2098 C2106 0.930 . S
H2099 C2107 0.930 . S
H2100 C2110 0.930 . S
H2101 C2111 0.930 . S
C2102 H2096 0.930 . S
C2102 C2103 1.355 . S
C2102 C2104 1.415 . S
C2103 C2102 1.355 . S
C2103 C2105 1.419 . S
C2104 C2102 1.415 . S
C2104 C2109 1.425 . S
C2104 C2111 1.409 . S
C2105 H2097 0.930 . S
C2105 C2103 1.419 . S
C2105 C2106 1.362 . S
C2106 H2098 0.930 . S
C2106 C2105 1.362 . S
C2106 C2109 1.409 . S
C2107 H2099 0.930 . S
C2107 C2108 1.355 . S
C2107 C2109 1.415 . S
C2108 C2107 1.355 . S
C2108 C2110 1.419 . S
C2109 C2104 1.425 . S
C2109 C2106 1.409 . S
C2109 C2107 1.415 . S
C2110 H2100 0.930 . S
C2110 C2108 1.419 . S
C2110 C2111 1.362 . S
C2111 H2101 0.930 . S
C2111 C2104 1.409 . S
C2111 C2110 1.362 . S
H2112 C2118 0.930 . S
H2113 C2121 0.930 . S
H2114 C2122 0.930 . S
H2115 C2123 0.930 . S
H2116 C2126 0.930 . S
H2117 C2127 0.930 . S
C2118 H2112 0.930 . S
C2118 C2119 1.355 . S
C2118 C2120 1.415 . S
C2119 C2118 1.355 . S
C2119 C2121 1.419 . S
C2120 C2118 1.415 . S
C2120 C2125 1.425 . S
C2120 C2127 1.409 . S
C2121 H2113 0.930 . S
C2121 C2119 1.419 . S
C2121 C2122 1.362 . S
C2122 H2114 0.930 . S
C2122 C2121 1.362 . S
C2122 C2125 1.409 . S
C2123 H2115 0.930 . S
C2123 C2124 1.355 . S
C2123 C2125 1.415 . S
C2124 C2123 1.355 . S
C2124 C2126 1.419 . S
C2125 C2120 1.425 . S
C2125 C2122 1.409 . S
C2125 C2123 1.415 . S
C2126 H2116 0.930 . S
C2126 C2124 1.419 . S
C2126 C2127 1.362 . S
C2127 H2117 0.930 . S
C2127 C2120 1.409 . S
C2127 C2126 1.362 . S
H2128 C2134 0.930 . S
H2129 C2137 0.930 . S
H2130 C2138 0.930 . S
H2131 C2139 0.930 . S
H2132 C2142 0.930 . S
H2133 C2143 0.930 . S
C2134 H2128 0.930 . S
C2134 C2135 1.355 . S
C2134 C2136 1.415 . S
C2135 C2134 1.355 . S
C2135 C2137 1.419 . S
C2136 C2134 1.415 . S
C2136 C2141 1.425 . S
C2136 C2143 1.409 . S
C2137 H2129 0.930 . S
C2137 C2135 1.419 . S
C2137 C2138 1.362 . S
C2138 H2130 0.930 . S
C2138 C2137 1.362 . S
C2138 C2141 1.409 . S
C2139 H2131 0.930 . S
C2139 C2140 1.355 . S
C2139 C2141 1.415 . S
C2140 C2139 1.355 . S
C2140 C2142 1.419 . S
C2141 C2136 1.425 . S
C2141 C2138 1.409 . S
C2141 C2139 1.415 . S
C2142 H2132 0.930 . S
C2142 C2140 1.419 . S
C2142 C2143 1.362 . S
C2143 H2133 0.930 . S
C2143 C2136 1.409 . S
C2143 C2142 1.362 . S
H2144 C2150 0.930 . S
H2145 C2153 0.930 . S
H2146 C2154 0.930 . S
H2147 C2155 0.930 . S
H2148 C2158 0.930 . S
H2149 C2159 0.930 . S
C2150 H2144 0.930 . S
C2150 C2151 1.355 . S
C2150 C2152 1.415 . S
C2151 C2150 1.355 . S
C2151 C2153 1.419 . S
C2152 C2150 1.415 . S
C2152 C2157 1.425 . S
C2152 C2159 1.409 . S
C2153 H2145 0.930 . S
C2153 C2151 1.419 . S
C2153 C2154 1.362 . S
C2154 H2146 0.930 . S
C2154 C2153 1.362 . S
C2154 C2157 1.409 . S
C2155 H2147 0.930 . S
C2155 C2156 1.355 . S
C2155 C2157 1.415 . S
C2156 C2155 1.355 . S
C2156 C2158 1.419 . S
C2157 C2152 1.425 . S
C2157 C2154 1.409 . S
C2157 C2155 1.415 . S
C2158 H2148 0.930 . S
C2158 C2156 1.419 . S
C2158 C2159 1.362 . S
C2159 H2149 0.930 . S
C2159 C2152 1.409 . S
C2159 C2158 1.362 . S
H2160 C2166 0.930 . S
H2161 C2169 0.930 . S
H2162 C2170 0.930 . S
H2163 C2171 0.930 . S
H2164 C2174 0.930 . S
H2165 C2175 0.930 . S
C2166 H2160 0.930 . S
C2166 C2167 1.355 . S
C2166 C2168 1.415 . S
C2167 C2166 1.355 . S
C2167 C2169 1.419 . S
C2168 C2166 1.415 . S
C2168 C2173 1.425 . S
C2168 C2175 1.409 . S
C2169 H2161 0.930 . S
C2169 C2167 1.419 . S
C2169 C2170 1.362 . S
C2170 H2162 0.930 . S
C2170 C2169 1.362 . S
C2170 C2173 1.409 . S
C2171 H2163 0.930 . S
C2171 C2172 1.355 . S
C2171 C2173 1.415 . S
C2172 C2171 1.355 . S
C2172 C2174 1.419 . S
C2173 C2168 1.425 . S
C2173 C2170 1.409 . S
C2173 C2171 1.415 . S
C2174 H2164 0.930 . S
C2174 C2172 1.419 . S
C2174 C2175 1.362 . S
C2175 H2165 0.930 . S
C2175 C2168 1.409 . S
C2175 C2174 1.362 . S
H2176 C2182 0.930 . S
H2177 C2185 0.930 . S
H2178 C2186 0.930 . S
H2179 C2187 0.930 . S
H2180 C2190 0.930 . S
H2181 C2191 0.930 . S
C2182 H2176 0.930 . S
C2182 C2183 1.355 . S
C2182 C2184 1.415 . S
C2183 C2182 1.355 . S
C2183 C2185 1.419 . S
C2184 C2182 1.415 . S
C2184 C2189 1.425 . S
C2184 C2191 1.409 . S
C2185 H2177 0.930 . S
C2185 C2183 1.419 . S
C2185 C2186 1.362 . S
C2186 H2178 0.930 . S
C2186 C2185 1.362 . S
C2186 C2189 1.409 . S
C2187 H2179 0.930 . S
C2187 C2188 1.355 . S
C2187 C2189 1.415 . S
C2188 C2187 1.355 . S
C2188 C2190 1.419 . S
C2189 C2184 1.425 . S
C2189 C2186 1.409 . S
C2189 C2187 1.415 . S
C2190 H2180 0.930 . S
C2190 C2188 1.419 . S
C2190 C2191 1.362 . S
C2191 H2181 0.930 . S
C2191 C2184 1.409 . S
C2191 C2190 1.362 . S
H2192 C2198 0.930 . S
H2193 C2201 0.930 . S
H2194 C2202 0.930 . S
H2195 C2203 0.930 . S
H2196 C2206 0.930 . S
H2197 C2207 0.930 . S
C2198 H2192 0.930 . S
C2198 C2199 1.355 . S
C2198 C2200 1.415 . S
C2199 C2198 1.355 . S
C2199 C2201 1.419 . S
C2200 C2198 1.415 . S
C2200 C2205 1.425 . S
C2200 C2207 1.409 . S
C2201 H2193 0.930 . S
C2201 C2199 1.419 . S
C2201 C2202 1.362 . S
C2202 H2194 0.930 . S
C2202 C2201 1.362 . S
C2202 C2205 1.409 . S
C2203 H2195 0.930 . S
C2203 C2204 1.355 . S
C2203 C2205 1.415 . S
C2204 C2203 1.355 . S
C2204 C2206 1.419 . S
C2205 C2200 1.425 . S
C2205 C2202 1.409 . S
C2205 C2203 1.415 . S
C2206 H2196 0.930 . S
C2206 C2204 1.419 . S
C2206 C2207 1.362 . S
C2207 H2197 0.930 . S
C2207 C2200 1.409 . S
C2207 C2206 1.362 . S
C679 C132 1.596 . S
C684 C6 1.597 . S
C695 C146 1.554 . S
C700 C20 1.601 . S
C711 C160 1.594 . S
C716 C34 1.544 . S
C727 C48 1.605 . S
C732 C118 1.571 . S
C743 C216 1.600 . S
C748 C62 1.592 . S
C759 C76 1.605 . S
C764 C174 1.579 . S
C775 C188 1.528 . S
C780 C90 1.559 . S
C791 C202 1.604 . S
C796 C104 1.563 . S
C807 C230 1.604 . S
C812 C258 1.564 . S
C823 C244 1.605 . S
C828 C314 1.579 . S
C839 C272 1.550 . S
C844 C328 1.598 . S
C855 C286 1.605 . S
C860 C300 1.573 . S
C871 C342 1.604 . S
C876 C468 1.583 . S
C887 C482 1.569 . S
C892 C356 1.605 . S
C903 C370 1.603 . S
C908 C496 1.586 . S
C919 C384 1.588 . S
C924 C454 1.602 . S
C935 C552 1.602 . S
C940 C398 1.589 . S
C951 C510 1.533 . S
C956 C412 1.580 . S
C967 C524 1.529 . S
C972 C426 1.555 . S
C983 C538 1.589 . S
C988 C440 1.602 . S
C999 C566 1.605 . S
C1004 C594 1.565 . S
C1015 C580 1.605 . S
C1020 C650 1.572 . S
C1031 C608 1.605 . S
C1036 C664 1.579 . S
C1047 C636 1.596 . S
C1052 C622 1.597 . S
C1063 C121 1.363 . S
C1068 C8 1.507 . S
C1079 C135 1.365 . S
C1084 C22 1.513 . S
C1095 C36 1.516 . S
C1100 C149 1.458 . S
C1111 C50 1.521 . S
C1116 C163 1.398 . S
C1127 C64 1.518 . S
C1132 C177 1.460 . S
C1143 C78 1.524 . S
C1148 C191 1.430 . S
C1159 C92 1.513 . S
C1164 C205 1.365 . S
C1175 C219 1.452 . S
C1180 C106 1.514 . S
C1191 C120 1.517 . S
C1196 C233 1.459 . S
C1207 C331 1.362 . S
C1212 C134 1.508 . S
C1223 C148 1.524 . S
C1228 C303 1.430 . S
C1239 C162 1.514 . S
C1244 C317 1.369 . S
C1255 C176 1.504 . S
C1260 C247 1.391 . S
C1271 C190 1.512 . S
C1276 C261 1.365 . S
C1287 C204 1.504 . S
C1292 C275 1.398 . S
C1303 C289 1.369 . S
C1308 C218 1.505 . S
C1319 C9 1.422 . S
C1324 C232 1.523 . S
C1335 C246 1.505 . S
C1340 C65 1.404 . S
C1351 C260 1.506 . S
C1356 C79 1.365 . S
C1367 C274 1.523 . S
C1372 C93 1.411 . S
C1383 C107 1.459 . S
C1388 C288 1.517 . S
C1399 C302 1.520 . S
C1404 C37 1.460 . S
C1415 C316 1.505 . S
C1420 C51 1.367 . S
C1431 C23 1.449 . S
C1436 C330 1.523 . S
C1447 C457 1.439 . S
C1452 C344 1.524 . S
C1463 C358 1.505 . S
C1468 C471 1.405 . S
C1479 C372 1.510 . S
C1484 C485 1.442 . S
C1495 C499 1.364 . S
C1500 C386 1.506 . S
C1511 C513 1.450 . S
C1516 C400 1.513 . S
C1527 C414 1.504 . S
C1532 C527 1.383 . S
C1543 C541 1.450 . S
C1548 C428 1.513 . S
C1559 C555 1.385 . S
C1564 C442 1.519 . S
C1575 C456 1.524 . S
C1580 C569 1.434 . S
C1591 C470 1.523 . S
C1596 C667 1.414 . S
C1607 C484 1.504 . S
C1612 C639 1.376 . S
C1623 C653 1.402 . S
C1628 C498 1.505 . S
C1639 C512 1.507 . S
C1644 C583 1.424 . S
C1655 C526 1.514 . S
C1660 C597 1.453 . S
C1671 C611 1.458 . S
C1676 C540 1.522 . S
C1687 C625 1.456 . S
C1692 C554 1.522 . S
C1703 C568 1.524 . S
C1708 C345 1.445 . S
C1719 C582 1.505 . S
C1724 C401 1.409 . S
C1735 C415 1.426 . S
C1740 C596 1.524 . S
C1751 C610 1.523 . S
C1756 C429 1.453 . S
C1767 C624 1.506 . S
C1772 C443 1.419 . S
C1783 C373 1.440 . S
C1788 C638 1.510 . S
C1799 C652 1.506 . S
C1804 C387 1.365 . S
C1815 C359 1.364 . S
C1820 C666 1.512 . S
C1831 C441 1.611 . S
C1836 C7 1.688 . S
C1847 C21 1.624 . S
C1852 C399 1.652 . S
C1863 C413 1.643 . S
C1868 C35 1.708 . S
C1879 C427 1.650 . S
C1884 C49 1.706 . S
C1895 C63 1.665 . S
C1900 C357 1.699 . S
C1911 C371 1.681 . S
C1916 C77 1.687 . S
C1927 C385 1.615 . S
C1932 C91 1.701 . S
C1943 C105 1.621 . S
C1948 C343 1.706 . S
C1959 C623 1.656 . S
C1964 C119 1.622 . S
C1975 C133 1.683 . S
C1980 C581 1.685 . S
C1991 C147 1.667 . S
C1996 C595 1.616 . S
C2007 C609 1.626 . S
C2012 C161 1.650 . S
C2023 C665 1.637 . S
C2028 C175 1.709 . S
C2039 C637 1.613 . S
C2044 C189 1.674 . S
C2055 C203 1.618 . S
C2060 C651 1.663 . S
C2071 C567 1.633 . S
C2076 C217 1.641 . S
C2087 C231 1.678 . S
C2092 C553 1.612 . S
C2103 C469 1.629 . S
C2108 C245 1.708 . S
C2119 C259 1.690 . S
C2124 C483 1.678 . S
C2135 C497 1.648 . S
C2140 C273 1.707 . S
C2151 C455 1.620 . S
C2156 C287 1.705 . S
C2167 C301 1.694 . S
C2172 C525 1.672 . S
C2183 C539 1.613 . S
C2188 C315 1.673 . S
C2199 C511 1.643 . S
C2204 C329 1.631 . S
