# Generated by pormake.
# Topology wgj, (5)-cn, num edge types: 1
# Building blocks:
#     Node 0, Type 0, BuildingBlock: XOMCOT_clean_sbu_1, # of connection points: 5
#     Node 1, Type 0, BuildingBlock: XOMCOT_clean_sbu_1, # of connection points: 5
#     Node 2, Type 0, BuildingBlock: XOMCOT_clean_sbu_1, # of connection points: 5
#     Node 3, Type 0, BuildingBlock: XOMCOT_clean_sbu_1, # of connection points: 5
#     Node 4, Type 0, BuildingBlock: XOMCOT_clean_sbu_1, # of connection points: 5
#     Node 5, Type 0, BuildingBlock: XOMCOT_clean_sbu_1, # of connection points: 5
#     Node 6, Type 0, BuildingBlock: XOMCOT_clean_sbu_1, # of connection points: 5
#     Node 7, Type 0, BuildingBlock: XOMCOT_clean_sbu_1, # of connection points: 5
#     Node 8, Type 0, BuildingBlock: XOMCOT_clean_sbu_1, # of connection points: 5
#     Node 9, Type 0, BuildingBlock: XOMCOT_clean_sbu_1, # of connection points: 5
#     Node 10, Type 0, BuildingBlock: XOMCOT_clean_sbu_1, # of connection points: 5
#     Node 11, Type 0, BuildingBlock: XOMCOT_clean_sbu_1, # of connection points: 5
#     Node 12, Type 0, BuildingBlock: XOMCOT_clean_sbu_1, # of connection points: 5
#     Node 13, Type 0, BuildingBlock: XOMCOT_clean_sbu_1, # of connection points: 5
#     Node 14, Type 0, BuildingBlock: XOMCOT_clean_sbu_1, # of connection points: 5
#     Node 15, Type 0, BuildingBlock: XOMCOT_clean_sbu_1, # of connection points: 5
#     Node 16, Type 0, BuildingBlock: XOMCOT_clean_sbu_1, # of connection points: 5
#     Node 17, Type 0, BuildingBlock: XOMCOT_clean_sbu_1, # of connection points: 5
#     Node 18, Type 0, BuildingBlock: XOMCOT_clean_sbu_1, # of connection points: 5
#     Node 19, Type 0, BuildingBlock: XOMCOT_clean_sbu_1, # of connection points: 5
#     Node 20, Type 0, BuildingBlock: XOMCOT_clean_sbu_1, # of connection points: 5
#     Node 21, Type 0, BuildingBlock: XOMCOT_clean_sbu_1, # of connection points: 5
#     Node 22, Type 0, BuildingBlock: XOMCOT_clean_sbu_1, # of connection points: 5
#     Node 23, Type 0, BuildingBlock: XOMCOT_clean_sbu_1, # of connection points: 5
#     Node 24, Type 0, BuildingBlock: XOMCOT_clean_sbu_1, # of connection points: 5
#     Node 25, Type 0, BuildingBlock: XOMCOT_clean_sbu_1, # of connection points: 5
#     Node 26, Type 0, BuildingBlock: XOMCOT_clean_sbu_1, # of connection points: 5
#     Node 27, Type 0, BuildingBlock: XOMCOT_clean_sbu_1, # of connection points: 5
#     Node 28, Type 0, BuildingBlock: XOMCOT_clean_sbu_1, # of connection points: 5
#     Node 29, Type 0, BuildingBlock: XOMCOT_clean_sbu_1, # of connection points: 5
#     Node 30, Type 0, BuildingBlock: XOMCOT_clean_sbu_1, # of connection points: 5
#     Node 31, Type 0, BuildingBlock: XOMCOT_clean_sbu_1, # of connection points: 5
#     Edge 32, Type (0, 0), None
#     Edge 33, Type (0, 0), None
#     Edge 34, Type (0, 0), None
#     Edge 35, Type (0, 0), None
#     Edge 36, Type (0, 0), None
#     Edge 37, Type (0, 0), None
#     Edge 38, Type (0, 0), None
#     Edge 39, Type (0, 0), None
#     Edge 40, Type (0, 0), None
#     Edge 41, Type (0, 0), None
#     Edge 42, Type (0, 0), None
#     Edge 43, Type (0, 0), None
#     Edge 44, Type (0, 0), None
#     Edge 45, Type (0, 0), None
#     Edge 46, Type (0, 0), None
#     Edge 47, Type (0, 0), None
#     Edge 48, Type (0, 0), None
#     Edge 49, Type (0, 0), None
#     Edge 50, Type (0, 0), None
#     Edge 51, Type (0, 0), None
#     Edge 52, Type (0, 0), None
#     Edge 53, Type (0, 0), None
#     Edge 54, Type (0, 0), None
#     Edge 55, Type (0, 0), None
#     Edge 56, Type (0, 0), None
#     Edge 57, Type (0, 0), None
#     Edge 58, Type (0, 0), None
#     Edge 59, Type (0, 0), None
#     Edge 60, Type (0, 0), None
#     Edge 61, Type (0, 0), None
#     Edge 62, Type (0, 0), None
#     Edge 63, Type (0, 0), None
#     Edge 64, Type (0, 0), None
#     Edge 65, Type (0, 0), None
#     Edge 66, Type (0, 0), None
#     Edge 67, Type (0, 0), None
#     Edge 68, Type (0, 0), None
#     Edge 69, Type (0, 0), None
#     Edge 70, Type (0, 0), None
#     Edge 71, Type (0, 0), None
#     Edge 72, Type (0, 0), None
#     Edge 73, Type (0, 0), None
#     Edge 74, Type (0, 0), None
#     Edge 75, Type (0, 0), None
#     Edge 76, Type (0, 0), None
#     Edge 77, Type (0, 0), None
#     Edge 78, Type (0, 0), None
#     Edge 79, Type (0, 0), None
#     Edge 80, Type (0, 0), None
#     Edge 81, Type (0, 0), None
#     Edge 82, Type (0, 0), None
#     Edge 83, Type (0, 0), None
#     Edge 84, Type (0, 0), None
#     Edge 85, Type (0, 0), None
#     Edge 86, Type (0, 0), None
#     Edge 87, Type (0, 0), None
#     Edge 88, Type (0, 0), None
#     Edge 89, Type (0, 0), None
#     Edge 90, Type (0, 0), None
#     Edge 91, Type (0, 0), None
#     Edge 92, Type (0, 0), None
#     Edge 93, Type (0, 0), None
#     Edge 94, Type (0, 0), None
#     Edge 95, Type (0, 0), None
#     Edge 96, Type (0, 0), None
#     Edge 97, Type (0, 0), None
#     Edge 98, Type (0, 0), None
#     Edge 99, Type (0, 0), None
#     Edge 100, Type (0, 0), None
#     Edge 101, Type (0, 0), None
#     Edge 102, Type (0, 0), None
#     Edge 103, Type (0, 0), None
#     Edge 104, Type (0, 0), None
#     Edge 105, Type (0, 0), None
#     Edge 106, Type (0, 0), None
#     Edge 107, Type (0, 0), None
#     Edge 108, Type (0, 0), None
#     Edge 109, Type (0, 0), None
#     Edge 110, Type (0, 0), None
#     Edge 111, Type (0, 0), None
# Relax obj value: 0.336
# Max RMSD: 0.159
# Mean RMSD: 0.159
data_MOF--net-wgj--node1-XOMCOT_clean_sbu_1--edge1-none
_symmetry_space_group_name_H-M    P1
_symmetry_Int_Tables_number       1
_symmetry_cell_setting            triclinic
loop_
_symmetry_equiv_pos_as_xyz
'x, y, z'
_cell_length_a     34.551993
_cell_length_b     34.552424
_cell_length_c     13.648592
_cell_angle_alpha  90.020066
_cell_angle_beta   90.021335
_cell_angle_gamma 89.999728
loop_
_atom_site_label
_atom_site_type_symbol
_atom_site_fract_x
_atom_site_fract_y
_atom_site_fract_z
_atom_type_partial_charge
C0 C 0.2412 0.21243 0.20579 0.0
C1 C 0.26148 0.24684 0.20099 0.0
N2 N 0.27032 0.25758 0.29337 0.0
N3 N 0.23736 0.20228 0.30054 0.0
C4 C 0.25698 0.22949 0.35123 0.0
H5 H 0.22599 0.19867 0.14597 0.0
Co6 Co 0.19677 0.17556 0.35707 0.0
C7 C 0.26701 0.15714 0.49739 0.0
O8 O 0.28815 0.14027 0.42988 0.0
N9 N 0.15538 0.14986 0.41464 0.0
C10 C 0.11687 0.11556 0.51147 0.0
C11 C 0.15474 0.12543 0.49163 0.0
C12 C 0.11785 0.15408 0.38821 0.0
N13 N 0.09389 0.13344 0.44575 0.0
O14 O 0.21128 0.1283 0.28671 0.0
H15 H 0.17997 0.11608 0.53213 0.0
H16 H 0.10816 0.17316 0.33029 0.0
O17 O 0.23179 0.16748 0.47709 0.0
C18 C 0.18916 0.12191 0.21168 0.0
O19 O 0.15893 0.14412 0.19796 0.0
N20 N 0.17833 0.22279 0.40702 0.0
C21 C 0.16795 0.30232 0.42243 0.0
C22 C 0.179 0.28052 0.50494 0.0
C23 C 0.18413 0.24023 0.4957 0.0
C24 C 0.16314 0.24306 0.33048 0.0
C25 C 0.15856 0.28296 0.33588 0.0
H26 H 0.19564 0.22392 0.55665 0.0
H27 H 0.15826 0.22857 0.26126 0.0
H28 H 0.25638 0.23205 0.42984 0.0
H29 H 0.26585 0.26419 0.13597 0.0
H30 H 0.10685 0.09725 0.57066 0.0
H31 H 0.18608 0.29479 0.57329 0.0
H32 H 0.14934 0.29888 0.27162 0.0
C33 C 0.08982 0.99128 0.45577 0.0
C34 C 0.05541 1.01158 0.45096 0.0
N35 N 0.04466 1.02036 0.54334 0.0
N36 N 0.09996 0.98738 0.55053 0.0
C37 C 0.07275 1.00698 0.60122 0.0
H38 H 0.10358 0.9761 0.39592 0.0
Co39 Co 0.12666 0.94677 0.60701 0.0
C40 C 0.14506 1.01698 0.74743 0.0
O41 O 0.16186 0.03816 0.6799 0.0
N42 N 0.15236 0.90534 0.66453 0.0
C43 C 0.18671 0.86679 0.7612 0.0
C44 C 0.17685 0.90468 0.74142 0.0
C45 C 0.14809 0.86782 0.63808 0.0
N46 N 0.16878 0.84383 0.69551 0.0
O47 O 0.17394 0.96127 0.53673 0.0
H48 H 0.18626 0.92989 0.7819 0.0
H49 H 0.12896 0.85815 0.5802 0.0
O50 O 0.13477 0.98175 0.72712 0.0
C51 C 0.18033 0.93914 0.46173 0.0
O52 O 0.15813 0.90891 0.44799 0.0
N53 N 0.07943 0.92832 0.65686 0.0
C54 C 0.9999 0.91794 0.67226 0.0
C55 C 1.02173 0.92893 0.7548 0.0
C56 C 0.06202 0.93407 0.74558 0.0
C57 C 0.05914 0.91318 0.58027 0.0
C58 C 1.01924 0.90861 0.58566 0.0
H59 H 0.07836 0.94554 0.80657 0.0
H60 H 0.0736 0.90835 0.51102 0.0
H61 H 0.07018 1.00634 0.67982 0.0
H62 H 0.03807 1.01598 0.38591 0.0
H63 H 0.20507 0.85675 0.82031 0.0
H64 H 1.00749 0.93596 0.82319 0.0
H65 H 1.0033 0.89943 0.52137 0.0
C66 C 0.31081 0.83977 0.70572 0.0
C67 C 0.29052 0.80535 0.70093 0.0
N68 N 0.28172 0.79463 0.79331 0.0
N69 N 0.3147 0.84994 0.80048 0.0
C70 C 0.29509 0.82274 0.85117 0.0
H71 H 0.326 0.85351 0.64589 0.0
Co72 Co 0.35532 0.87664 0.85699 0.0
C73 C 0.28514 0.89506 0.99742 0.0
O74 O 0.26394 0.91188 0.92993 0.0
N75 N 0.39676 0.90233 0.91453 0.0
C76 C 0.43532 0.93671 1.01118 0.0
C77 C 0.39743 0.92684 0.9914 0.0
C78 C 0.43427 0.89806 0.88809 0.0
N79 N 0.45827 0.91877 0.94551 0.0
O80 O 0.34083 0.92391 0.78664 0.0
H81 H 0.37223 0.93625 1.03186 0.0
H82 H 0.44393 0.87893 0.83024 0.0
O83 O 0.32036 0.88476 0.97707 0.0
C84 C 0.36295 0.93029 0.71167 0.0
O85 O 0.39318 0.90807 0.698 0.0
N86 N 0.37377 0.82941 0.90688 0.0
C87 C 0.38415 0.74988 0.92234 0.0
C88 C 0.37316 0.77172 1.00486 0.0
C89 C 0.36803 0.81201 0.9956 0.0
C90 C 0.3889 0.80911 0.83032 0.0
C91 C 0.39347 0.76921 0.83575 0.0
H92 H 0.35657 0.82835 1.05657 0.0
H93 H 0.39373 0.82357 0.76108 0.0
H94 H 0.29574 0.82019 0.92978 0.0
H95 H 0.28614 0.78799 0.6359 0.0
H96 H 0.44537 0.95508 0.07027 0.0
H97 H 0.36613 0.75748 0.07325 0.0
H98 H 0.40264 0.75326 0.77147 0.0
C99 C 0.46238 0.06094 0.95573 0.0
C100 C 0.4968 0.04065 0.95093 0.0
N101 N 0.5075 0.03178 1.04329 0.0
N102 N 0.4522 0.06475 1.05048 0.0
C103 C 0.4794 0.04511 0.10115 0.0
H104 H 0.44865 0.07618 0.89594 0.0
Co105 Co 0.4255 0.10534 0.10709 0.0
C106 C 0.40706 0.03511 0.24742 0.0
O107 O 0.39019 1.01394 0.17992 0.0
N108 N 0.39981 0.14675 0.16473 0.0
C109 C 0.36553 0.18528 0.2616 0.0
C110 C 0.3754 0.1474 0.24175 0.0
C111 C 0.40403 0.18426 0.13829 0.0
N112 N 0.38339 0.20825 0.19585 0.0
O113 O 0.37823 0.09087 1.03666 0.0
H114 H 0.36606 0.12219 0.28226 0.0
H115 H 0.4231 0.19394 0.08035 0.0
O116 O 0.4174 0.07032 0.22708 0.0
C117 C 0.37188 0.11299 0.96166 0.0
O118 O 0.39414 0.14318 0.94799 0.0
N119 N 0.47274 0.12377 0.15708 0.0
C120 C 0.55227 0.13415 0.17252 0.0
C121 C 0.53047 0.12309 0.25499 0.0
C122 C 0.49018 0.11796 0.24575 0.0
C123 C 0.493 0.13896 0.08057 0.0
C124 C 0.53291 0.14354 0.08599 0.0
H125 H 0.47386 0.10644 0.30667 0.0
H126 H 0.47852 0.14384 1.01136 0.0
H127 H 0.48194 0.04569 0.17976 0.0
H128 H 0.51416 0.03631 0.88592 0.0
H129 H 0.34723 0.19532 0.3208 0.0
H130 H 0.54474 0.116 0.32333 0.0
H131 H 0.54882 0.15276 1.02175 0.0
C132 C 0.27586 0.85953 0.31402 0.0
C133 C 0.29699 0.82556 0.3195 0.0
N134 N 0.27203 0.79569 0.3205 0.0
N135 N 0.23796 0.85048 0.30665 0.0
C136 C 0.23689 0.81173 0.32118 0.0
H137 H 0.28775 0.88791 0.29925 0.0
Co138 Co 0.19763 0.87849 0.24541 0.0
C139 C 0.26556 0.87779 0.08624 0.0
O140 O 0.2804 0.84547 0.11938 0.0
N141 N 0.15569 0.90419 0.1876 0.0
C142 C 0.10913 0.90761 0.07549 0.0
C143 C 0.14839 0.90446 0.09044 0.0
C144 C 0.12032 0.9084 0.22987 0.0
N145 N 0.09143 0.91 0.16328 0.0
O146 O 0.21596 0.92726 0.30907 0.0
H147 H 0.16942 0.89797 1.03415 0.0
H148 H 0.11508 0.90527 0.30731 0.0
O149 O 0.23345 0.89086 0.12395 0.0
C150 C 0.21025 0.94808 0.38668 0.0
O151 O 0.23119 0.97945 0.39838 0.0
N152 N 0.17752 0.83132 0.19166 0.0
C153 C 0.16069 0.75216 0.18843 0.0
C154 C 0.18552 0.76851 0.11827 0.0
C155 C 0.19349 0.80847 0.12053 0.0
C156 C 0.14851 0.81693 0.24924 0.0
C157 C 0.14003 0.77732 0.24972 0.0
H158 H 0.21482 0.81986 0.07098 0.0
H159 H 0.13585 0.83502 0.30531 0.0
H160 H 0.21111 0.79462 0.32352 0.0
H161 H 0.3277 0.82294 0.30985 0.0
H162 H 0.09453 0.9066 1.00531 0.0
H163 H 0.20113 0.75016 0.06817 0.0
H164 H 0.11981 0.76609 0.3032 0.0
C165 C 0.44258 1.02582 0.56402 0.0
C166 C 0.47655 0.04695 0.56953 0.0
N167 N 0.50642 1.02199 0.5706 0.0
N168 N 0.45163 0.98792 0.55669 0.0
C169 C 0.49038 0.98684 0.5713 0.0
H170 H 0.4142 0.0377 0.54918 0.0
Co171 Co 0.42363 0.94758 0.49541 0.0
C172 C 0.42434 1.01551 0.33623 0.0
O173 O 0.45668 0.03032 0.3694 0.0
N174 N 0.39795 0.90563 0.43756 0.0
C175 C 0.39457 0.85906 0.3255 0.0
C176 C 0.39769 0.89833 0.34041 0.0
C177 C 0.39373 0.87027 0.47985 0.0
N178 N 0.39215 0.84137 0.4133 0.0
O179 O 0.37485 0.9659 0.559 0.0
H180 H 0.4042 0.91935 0.28413 0.0
H181 H 0.39684 0.86505 0.55731 0.0
O182 O 0.41125 0.98341 0.37392 0.0
C183 C 0.35402 0.9602 0.63657 0.0
O184 O 0.32265 0.98114 0.64817 0.0
N185 N 0.4708 0.92748 0.44172 0.0
C186 C 0.54997 0.91068 0.43855 0.0
C187 C 0.5336 0.9355 0.36836 0.0
C188 C 0.49364 0.94345 0.37059 0.0
C189 C 0.48522 0.89848 0.49932 0.0
C190 C 0.52483 0.89001 0.49983 0.0
H191 H 0.48223 0.96476 0.32099 0.0
H192 H 0.46714 0.88582 0.55537 0.0
H193 H 0.50749 0.96107 0.57369 0.0
H194 H 0.47917 0.07766 0.55986 0.0
H195 H 0.3956 0.84445 0.25533 0.0
H196 H 0.55194 0.9511 0.31824 0.0
H197 H 0.53607 0.8698 0.55333 0.0
C198 C 0.27637 0.19262 0.81396 0.0
C199 C 0.25522 0.22658 0.81944 0.0
N200 N 0.28015 0.25647 0.82038 0.0
N201 N 0.31426 0.2017 0.80656 0.0
C202 C 0.31531 0.24046 0.82103 0.0
H203 H 0.26451 0.16423 0.79923 0.0
Co204 Co 0.35459 0.1737 0.74534 0.0
C205 C 0.28665 0.17442 0.58618 0.0
O206 O 0.27187 0.20677 0.61932 0.0
N207 N 0.39653 0.148 0.68754 0.0
C208 C 0.44305 0.14454 0.57543 0.0
C209 C 0.40379 0.14768 0.59038 0.0
C210 C 0.43191 0.14381 0.72981 0.0
N211 N 0.46078 0.14218 0.66322 0.0
O212 O 0.33628 0.12493 0.80894 0.0
H213 H 0.38274 0.15415 0.53409 0.0
H214 H 0.43717 0.14697 0.80725 0.0
O215 O 0.31875 0.16131 0.62387 0.0
C216 C 0.34196 0.10409 0.8865 0.0
O217 O 0.32099 0.07273 0.89807 0.0
N218 N 0.3747 0.22086 0.69164 0.0
C219 C 0.3915 0.30002 0.68839 0.0
C220 C 0.36671 0.28363 0.61813 0.0
C221 C 0.35875 0.24368 0.6204 0.0
C222 C 0.40368 0.23528 0.74931 0.0
C223 C 0.41215 0.27489 0.74978 0.0
H224 H 0.33745 0.23225 0.57075 0.0
H225 H 0.41634 0.21722 0.80543 0.0
H226 H 0.34107 0.2576 0.82333 0.0
H227 H 0.2245 0.22917 0.80987 0.0
H228 H 0.45763 0.14552 0.50524 0.0
H229 H 0.35112 0.30195 0.56791 0.0
H230 H 0.43235 0.28615 0.80334 0.0
C231 C 0.10959 0.02638 0.06409 0.0
C232 C 0.07563 1.00523 0.06965 0.0
N233 N 0.04575 0.03018 0.0706 0.0
N234 N 0.10052 0.06427 1.05663 0.0
C235 C 0.06177 0.06533 0.07119 0.0
H236 H 0.13797 1.0145 1.04935 0.0
Co237 Co 0.12849 0.10458 0.99534 0.0
C238 C 0.1278 0.03658 0.83625 0.0
O239 O 0.0955 1.02174 0.86947 0.0
N240 N 0.15417 0.14652 0.93748 0.0
C241 C 0.15758 0.19304 0.82537 0.0
C242 C 0.15444 0.15378 0.84032 0.0
C243 C 0.15839 0.1819 0.97975 0.0
N244 N 0.15999 0.21077 0.91316 0.0
O245 O 0.17728 0.08629 1.05895 0.0
H246 H 0.14794 0.13274 0.78405 0.0
H247 H 0.15528 0.18715 1.0572 0.0
O248 O 0.14086 0.06873 0.87389 0.0
C249 C 0.19811 0.092 0.13656 0.0
O250 O 0.22949 0.07108 0.1482 0.0
N251 N 0.08132 0.12466 0.94162 0.0
C252 C 1.00214 0.14143 0.93846 0.0
C253 C 1.01849 0.11658 0.86831 0.0
C254 C 0.05846 0.10864 0.87053 0.0
C255 C 0.06691 0.15368 0.99918 0.0
C256 C 0.0273 0.16214 0.9997 0.0
H257 H 0.06986 0.08729 0.82099 0.0
H258 H 0.08501 0.16638 1.05522 0.0
H259 H 0.04464 0.0911 0.07348 0.0
H260 H 0.07303 0.97451 0.06011 0.0
H261 H 0.15656 0.20762 0.75519 0.0
H262 H 1.00015 0.10094 0.81825 0.0
H263 H 1.01607 0.18238 1.05317 0.0
C264 C 0.81099 0.83976 0.91316 0.0
C265 C 0.79071 0.80534 0.91796 0.0
N266 N 0.78186 0.79461 0.8256 0.0
N267 N 0.81482 0.84991 0.8184 0.0
C268 C 0.79519 0.8227 0.76773 0.0
H269 H 0.82622 0.85351 0.97297 0.0
Co270 Co 0.85541 0.87661 0.76184 0.0
C271 C 0.78516 0.89503 0.62153 0.0
O272 O 0.76401 0.91188 0.68906 0.0
N273 N 0.8968 0.90231 0.70423 0.0
C274 C 0.9353 0.93657 0.6073 0.0
C275 C 0.89743 0.92673 0.62723 0.0
C276 C 0.93433 0.89805 0.73059 0.0
N277 N 0.95829 0.91866 0.67294 0.0
O278 O 0.84093 0.92389 0.8322 0.0
H279 H 0.8722 0.93611 0.58679 0.0
H280 H 0.94402 0.87899 0.78852 0.0
O281 O 0.82038 0.8847 0.64183 0.0
C282 C 0.86305 0.93027 0.90721 0.0
O283 O 0.89327 0.90805 0.92093 0.0
N284 N 0.87384 0.82938 0.7119 0.0
C285 C 0.88422 0.74984 0.69649 0.0
C286 C 0.87316 0.77164 0.61399 0.0
C287 C 0.86803 0.81193 0.62322 0.0
C288 C 0.88903 0.80911 0.78844 0.0
C289 C 0.89361 0.76921 0.78304 0.0
H290 H 0.85651 0.82825 0.56227 0.0
H291 H 0.89391 0.8236 0.85765 0.0
H292 H 0.79578 0.82015 0.68912 0.0
H293 H 0.78636 0.788 0.98299 0.0
H294 H 0.94531 0.95489 0.54812 0.0
H295 H 0.86608 0.75737 0.54564 0.0
H296 H 0.90283 0.7533 0.8473 0.0
C297 C 0.96245 0.0609 0.66315 0.0
C298 C 0.99691 0.04069 0.66795 0.0
N299 N 1.00768 0.03196 0.57556 0.0
N300 N 0.95229 0.06478 0.56839 0.0
C301 C 0.97954 0.04523 0.51769 0.0
H302 H 0.94866 0.07605 0.72299 0.0
Co303 Co 0.92554 0.10537 0.51192 0.0
C304 C 0.90714 0.03514 0.37158 0.0
O305 O 0.89032 1.01398 0.43911 0.0
N306 N 0.89981 0.14678 0.45443 0.0
C307 C 0.86544 0.1853 0.35776 0.0
C308 C 0.87531 0.14742 0.37753 0.0
C309 C 0.90406 0.18429 0.48088 0.0
N310 N 0.88337 0.20827 0.42344 0.0
O311 O 0.8783 0.09084 0.58229 0.0
H312 H 0.86593 0.12221 0.33704 0.0
H313 H 0.92319 0.19397 0.53875 0.0
O314 O 0.91744 0.07037 0.39187 0.0
C315 C 0.87189 0.11296 0.65728 0.0
O316 O 0.89407 0.14321 0.671 0.0
N317 N 0.97275 0.12385 0.46199 0.0
C318 C 0.05228 0.13421 0.44648 0.0
C319 C 0.03043 0.12321 0.36397 0.0
C320 C 0.99014 0.11809 0.37325 0.0
C321 C 0.99306 0.139 0.53853 0.0
C322 C 0.03296 0.14357 0.53308 0.0
H323 H 0.97379 0.10661 0.31229 0.0
H324 H 0.97861 0.14385 0.60779 0.0
H325 H 0.98208 0.04585 0.43908 0.0
H326 H 1.01426 0.03632 0.733 0.0
H327 H 0.84708 0.19534 0.29863 0.0
H328 H 0.04466 0.11616 0.29558 0.0
H329 H 0.04892 0.15275 0.59735 0.0
C330 C 0.74132 0.21232 0.41322 0.0
C331 C 0.76161 0.24674 0.41802 0.0
N332 N 0.77042 0.25745 0.32565 0.0
N333 N 0.73744 0.20215 0.31847 0.0
C334 C 0.75706 0.22935 0.26778 0.0
H335 H 0.72612 0.19859 0.47304 0.0
Co336 Co 0.69682 0.17546 0.26192 0.0
C337 C 0.76702 0.15704 0.12151 0.0
O338 O 0.78822 0.14024 0.18903 0.0
N339 N 0.65538 0.14977 0.20433 0.0
C340 C 0.61684 0.11543 0.10758 0.0
C341 C 0.65472 0.12527 0.12745 0.0
C342 C 0.61787 0.15407 0.23069 0.0
N343 N 0.59388 0.13341 0.17317 0.0
O344 O 0.7113 0.12818 0.33227 0.0
H345 H 0.67993 0.11585 0.08705 0.0
H346 H 0.6082 0.17319 0.28857 0.0
O347 O 0.73179 0.16733 0.14185 0.0
C348 C 0.68916 0.1218 0.40722 0.0
O349 O 0.65894 0.14403 0.42088 0.0
N350 N 0.67839 0.22269 0.21202 0.0
C351 C 0.668 0.30223 0.19658 0.0
C352 C 0.679 0.28039 0.11407 0.0
C353 C 0.68414 0.2401 0.12332 0.0
C354 C 0.66325 0.24299 0.28858 0.0
C355 C 0.65867 0.28289 0.28316 0.0
H356 H 0.6956 0.22376 0.06235 0.0
H357 H 0.65842 0.22853 0.35782 0.0
H358 H 0.75642 0.2319 0.18918 0.0
H359 H 0.76598 0.2641 0.48305 0.0
H360 H 0.60679 0.09705 1.04849 0.0
H361 H 0.68603 0.29463 1.04569 0.0
H362 H 0.6495 0.29883 0.34744 0.0
C363 C 0.58967 0.99116 0.16316 0.0
C364 C 0.55521 1.01136 0.16796 0.0
N365 N 0.54448 1.02017 0.07559 0.0
N366 N 0.59987 0.98737 0.06842 0.0
C367 C 0.57264 1.00696 1.01774 0.0
H368 H 0.60344 0.97594 0.22296 0.0
Co369 Co 0.62662 0.9468 1.01183 0.0
C370 C 0.64506 1.01704 0.87158 0.0
O371 O 0.66195 0.03819 0.93907 0.0
N372 N 0.65235 0.90541 0.95422 0.0
C373 C 0.68663 0.86689 0.85733 0.0
C374 C 0.67676 0.90477 0.87719 0.0
C375 C 0.64814 0.8679 0.98066 0.0
N376 N 0.66879 0.84392 0.92309 0.0
O377 O 0.67386 0.9613 0.08233 0.0
H378 H 0.68608 0.92998 0.83666 0.0
H379 H 0.62908 0.85822 1.0386 0.0
O380 O 0.63471 0.98183 0.89189 0.0
C381 C 0.68022 0.93918 0.15734 0.0
O382 O 0.65797 0.90898 0.171 0.0
N383 N 0.57941 0.92834 0.96176 0.0
C384 C 0.49987 0.91798 0.94621 0.0
C385 C 0.52169 0.92904 0.86376 0.0
C386 C 0.56198 0.93416 0.87306 0.0
C387 C 0.55912 0.91313 1.03821 0.0
C388 C 0.51922 0.90856 1.03274 0.0
H389 H 0.57831 0.94568 0.81217 0.0
H390 H 0.57359 0.90823 0.10744 0.0
H391 H 0.57013 1.0064 0.93912 0.0
H392 H 0.53784 1.01567 0.23296 0.0
H393 H 0.70493 0.85686 0.79812 0.0
H394 H 0.50744 0.93615 0.79542 0.0
H395 H 0.50329 0.89933 0.09695 0.0
C396 C 0.77636 0.19253 0.8048 0.0
C397 C 0.75523 0.22651 0.79921 0.0
N398 N 0.78019 0.25637 0.79821 0.0
N399 N 0.81425 0.20159 0.81225 0.0
C400 C 0.81533 0.24033 0.79764 0.0
H401 H 0.76447 0.16416 0.81959 0.0
Co402 Co 0.85457 0.17361 0.8736 0.0
C403 C 0.78659 0.1743 1.03266 0.0
O404 O 0.77173 0.20659 0.99942 0.0
N405 N 0.89651 0.14793 0.93151 0.0
C406 C 0.94308 0.1446 1.04361 0.0
C407 C 0.90381 0.14772 1.02866 0.0
C408 C 0.93187 0.1437 0.88924 0.0
N409 N 0.96077 0.14217 0.95581 0.0
O410 O 0.83628 0.12482 0.80997 0.0
H411 H 0.88278 0.15425 0.08493 0.0
H412 H 0.9371 0.14676 0.81178 0.0
O413 O 0.81873 0.16124 0.99503 0.0
C414 C 0.84199 0.104 0.73236 0.0
O415 O 0.82108 0.07261 0.72069 0.0
N416 N 0.87466 0.22079 0.92732 0.0
C417 C 0.89145 0.29996 0.93047 0.0
C418 C 0.86659 0.28362 1.00057 0.0
C419 C 0.85864 0.24366 0.99836 0.0
C420 C 0.90368 0.23518 0.86982 0.0
C421 C 0.91215 0.27479 0.8693 0.0
H422 H 0.83728 0.23227 1.04784 0.0
H423 H 0.91638 0.21708 0.81382 0.0
H424 H 0.84111 0.25744 0.79532 0.0
H425 H 0.72451 0.22913 0.80877 0.0
H426 H 0.95768 0.14566 0.11378 0.0
H427 H 0.85094 0.30198 1.05057 0.0
H428 H 0.9324 0.28601 0.81586 0.0
C429 C 0.60949 0.02625 0.55515 0.0
C430 C 0.57552 1.00511 0.54993 0.0
N431 N 0.54565 0.03007 0.54908 0.0
N432 N 0.60044 0.06416 0.56239 0.0
C433 C 0.56168 0.06522 0.54803 0.0
H434 H 0.63788 1.01439 0.56986 0.0
Co435 Co 0.62847 0.10452 0.62353 0.0
C436 C 0.62775 0.03666 0.78283 0.0
O437 O 0.59536 1.02191 0.74983 0.0
N438 N 0.65418 0.14648 0.68126 0.0
C439 C 0.65764 0.19305 0.79334 0.0
C440 C 0.6545 0.15378 0.77841 0.0
C441 C 0.65836 0.18185 0.63897 0.0
N442 N 0.65999 0.21075 0.70554 0.0
O443 O 0.67723 0.08618 0.55986 0.0
H444 H 0.64804 0.13276 0.83471 0.0
H445 H 0.6552 0.18708 0.56153 0.0
O446 O 0.64088 0.06873 0.74503 0.0
C447 C 0.69806 0.09187 0.4823 0.0
O448 O 0.72941 0.0709 0.47067 0.0
N449 N 0.58132 0.12466 0.67726 0.0
C450 C 0.50216 0.14148 0.68053 0.0
C451 C 0.51855 0.11672 0.75084 0.0
C452 C 0.55851 0.10876 0.74856 0.0
C453 C 0.56689 0.15362 0.61957 0.0
C454 C 0.52729 0.1621 0.61911 0.0
H455 H 0.56994 0.0875 0.79826 0.0
H456 H 0.58495 0.16624 0.56341 0.0
H457 H 0.54456 0.09099 0.5456 0.0
H458 H 0.57291 0.9744 0.55969 0.0
H459 H 0.65665 0.20765 0.86352 0.0
H460 H 0.50024 0.10116 0.8011 0.0
H461 H 0.51603 0.18227 0.56552 0.0
C462 C 0.77573 0.85958 0.30482 0.0
C463 C 0.79688 0.82562 0.29922 0.0
N464 N 0.77194 0.79573 0.2983 0.0
N465 N 0.73784 0.8505 0.31232 0.0
C466 C 0.73678 0.81174 0.29776 0.0
H467 H 0.7876 0.88796 0.31956 0.0
Co468 Co 0.69753 0.87848 0.37365 0.0
C469 C 0.76553 0.87777 0.5327 0.0
O470 O 0.78034 0.84546 0.49943 0.0
N471 N 0.6556 0.90416 0.43156 0.0
C472 C 0.60907 0.90754 0.54366 0.0
C473 C 0.64834 0.90442 0.52872 0.0
C474 C 0.62022 0.90837 0.38929 0.0
N475 N 0.59135 0.90994 0.45587 0.0
O476 O 0.71582 0.92727 0.31008 0.0
H477 H 0.66938 0.89792 0.58498 0.0
H478 H 0.61497 0.90528 0.31183 0.0
O479 O 0.7334 0.89086 0.49509 0.0
C480 C 0.71012 0.9481 0.23252 0.0
O481 O 0.73107 0.97947 0.22097 0.0
N482 N 0.67745 0.83131 0.42734 0.0
C483 C 0.66068 0.75214 0.43051 0.0
C484 C 0.68552 0.76851 0.5007 0.0
C485 C 0.69346 0.80847 0.49847 0.0
C486 C 0.64844 0.81688 0.36976 0.0
C487 C 0.63998 0.77727 0.36925 0.0
H488 H 0.71479 0.81989 0.54804 0.0
H489 H 0.63574 0.83496 0.31372 0.0
H490 H 0.71102 0.79461 0.29549 0.0
H491 H 0.8276 0.82303 0.30869 0.0
H492 H 0.59449 0.90651 0.61384 0.0
H493 H 0.70115 0.75018 0.5508 0.0
H494 H 0.61975 0.76602 0.31576 0.0
C495 C 0.94267 1.02583 1.05511 0.0
C496 C 0.97663 0.047 1.04986 0.0
N497 N 1.00651 1.02205 1.04911 0.0
N498 N 0.95174 0.98794 0.06247 0.0
C499 C 0.99051 0.9869 1.04816 0.0
H500 H 0.91427 0.03769 0.06973 0.0
Co501 Co 0.92373 0.94759 0.1236 0.0
C502 C 0.92443 1.01552 0.28283 0.0
O503 O 0.95679 0.0303 0.2498 0.0
N504 N 0.89803 0.90564 0.18133 0.0
C505 C 0.89453 0.85913 0.29345 0.0
C506 C 0.89768 0.89839 0.27849 0.0
C507 C 0.89385 0.87026 0.13906 0.0
N508 N 0.8922 0.84139 0.20567 0.0
O509 O 0.87497 0.96591 0.05991 0.0
H510 H 0.90413 0.91944 0.33479 0.0
H511 H 0.89703 0.86499 0.06164 0.0
O512 O 0.91133 0.98341 0.24507 0.0
C513 C 0.85414 0.9602 0.98231 0.0
O514 O 0.82278 0.98116 0.97064 0.0
N515 N 0.97089 0.92748 0.17736 0.0
C516 C 0.05005 0.91069 0.18061 0.0
C517 C 0.03368 0.93547 0.2509 0.0
C518 C 0.99372 0.94342 0.24863 0.0
C519 C 0.98531 0.8985 0.11969 0.0
C520 C 1.02492 0.89004 0.11922 0.0
H521 H 0.9823 0.96471 0.29828 0.0
H522 H 0.96723 0.88585 0.06354 0.0
H523 H 1.00764 0.96114 1.04581 0.0
H524 H 0.97922 0.07771 0.0595 0.0
H525 H 0.89549 0.84456 0.36366 0.0
H526 H 0.05201 0.95107 0.30112 0.0
H527 H 0.03616 0.86985 0.06565 0.0
C528 C 0.74124 0.71241 0.70574 0.0
C529 C 0.76147 0.74686 0.70095 0.0
N530 N 0.77024 0.75763 0.79333 0.0
N531 N 0.7374 0.70226 0.80049 0.0
C532 C 0.75698 0.7295 0.85119 0.0
H533 H 0.72606 0.69863 0.64591 0.0
Co534 Co 0.6968 0.67555 0.857 0.0
C535 C 0.76703 0.65713 0.99735 0.0
O536 O 0.78817 0.64025 0.92985 0.0
N537 N 0.65539 0.64985 0.91453 0.0
C538 C 0.61687 0.61553 1.01128 0.0
C539 C 0.65475 0.62539 0.99146 0.0
C540 C 0.61787 0.6541 0.88811 0.0
N541 N 0.5939 0.63343 0.9456 0.0
O542 O 0.7113 0.62828 0.78664 0.0
H543 H 0.67997 0.61601 1.03194 0.0
H544 H 0.60819 0.6732 0.83023 0.0
O545 O 0.73181 0.66746 0.97704 0.0
C546 C 0.68918 0.62189 0.71163 0.0
O547 O 0.65895 0.6441 0.69793 0.0
N548 N 0.67835 0.72278 0.90693 0.0
C549 C 0.66802 0.80232 0.92238 0.0
C550 C 0.67903 0.7805 1.00489 0.0
C551 C 0.68414 0.7402 0.99564 0.0
C552 C 0.66319 0.74306 0.83038 0.0
C553 C 0.65864 0.78297 0.83581 0.0
H554 H 0.69563 0.72387 1.0566 0.0
H555 H 0.65832 0.72859 0.76115 0.0
H556 H 0.75639 0.73205 0.9298 0.0
H557 H 0.76582 0.76421 0.63592 0.0
H558 H 0.60685 0.5972 0.07042 0.0
H559 H 0.6861 0.79475 0.07327 0.0
H560 H 0.64945 0.79889 0.77154 0.0
C561 C 0.58979 0.49123 0.95578 0.0
C562 C 0.55539 0.51154 0.95096 0.0
N563 N 0.54465 0.52034 1.04334 0.0
N564 N 0.59993 0.48733 1.05054 0.0
C565 C 0.57273 0.50695 0.10123 0.0
H566 H 0.60355 0.47604 0.89594 0.0
Co567 Co 0.62665 0.44673 0.10707 0.0
C568 C 0.64505 0.51697 0.24741 0.0
O569 O 0.66185 0.53814 0.17987 0.0
N570 N 0.65235 0.40532 0.16465 0.0
C571 C 0.68668 0.36682 0.26148 0.0
C572 C 0.67683 0.4047 0.24157 0.0
C573 C 0.64808 0.36779 0.1383 0.0
N574 N 0.66873 0.34383 0.19589 0.0
O575 O 0.67392 0.46122 1.03672 0.0
H576 H 0.68624 0.42993 0.28197 0.0
H577 H 0.62897 0.3581 0.08041 0.0
O578 O 0.63476 0.48174 0.22712 0.0
C579 C 0.68032 0.43908 0.96174 0.0
O580 O 0.65812 0.40884 0.94804 0.0
N581 N 0.57942 0.42829 0.15697 0.0
C582 C 0.49989 0.41792 0.17242 0.0
C583 C 0.52173 0.42893 0.25494 0.0
C584 C 0.56202 0.43406 0.24568 0.0
C585 C 0.55912 0.41314 0.08041 0.0
C586 C 0.51922 0.40857 0.08583 0.0
H587 H 0.57836 0.44554 0.30666 0.0
H588 H 0.57358 0.40829 1.01117 0.0
H589 H 0.57016 0.50631 0.17982 0.0
H590 H 0.53806 0.51595 0.8859 0.0
H591 H 0.70505 0.35681 0.32061 0.0
H592 H 0.50749 0.43599 0.32332 0.0
H593 H 0.50327 0.39938 1.02156 0.0
C594 C 0.81096 0.33964 0.2058 0.0
C595 C 0.79077 0.30516 0.201 0.0
N596 N 0.782 0.29443 0.29338 0.0
N597 N 0.81478 0.34984 0.30055 0.0
C598 C 0.79522 0.3226 0.35124 0.0
H599 H 0.82614 0.35341 0.14599 0.0
Co600 Co 0.85536 0.37661 0.3571 0.0
C601 C 0.78512 0.39504 0.49734 0.0
O602 O 0.76395 0.41188 0.42981 0.0
N603 N 0.89675 0.40236 0.41468 0.0
C604 C 0.93528 0.4367 0.51148 0.0
C605 C 0.8974 0.42681 0.49166 0.0
C606 C 0.93427 0.39814 0.38823 0.0
N607 N 0.95825 0.41882 0.44574 0.0
O608 O 0.84085 0.42384 0.2866 0.0
H609 H 0.87219 0.43615 0.53218 0.0
H610 H 0.94395 0.37904 0.33032 0.0
O611 O 0.82034 0.38473 0.47706 0.0
C612 C 0.86297 0.43021 0.21162 0.0
O613 O 0.8932 0.40799 0.19797 0.0
N614 N 0.87383 0.32941 0.40716 0.0
C615 C 0.88416 0.24988 0.42273 0.0
C616 C 0.87314 0.27173 0.50518 0.0
C617 C 0.86803 0.31202 0.49587 0.0
C618 C 0.88902 0.30909 0.33069 0.0
C619 C 0.89357 0.26919 0.33617 0.0
H620 H 0.85653 0.32837 0.55678 0.0
H621 H 0.8939 0.32354 0.26145 0.0
H622 H 0.7958 0.3201 0.42985 0.0
H623 H 0.78644 0.28778 0.13598 0.0
H624 H 0.94531 0.45503 0.57066 0.0
H625 H 0.86605 0.2575 0.57354 0.0
H626 H 0.90278 0.25323 0.27195 0.0
C627 C 0.96236 0.56087 0.45569 0.0
C628 C 0.99679 0.54061 0.45091 0.0
N629 N 1.0075 0.53175 0.54328 0.0
N630 N 0.95216 0.56468 0.55044 0.0
C631 C 0.97937 0.54505 0.60112 0.0
H632 H 0.94863 0.5761 0.3959 0.0
Co633 Co 0.92549 0.6053 0.60703 0.0
C634 C 0.90706 0.53509 0.7474 0.0
O635 O 0.89021 0.51391 0.67988 0.0
N636 N 0.89984 0.64673 0.66464 0.0
C637 C 0.86554 0.68528 0.76145 0.0
C638 C 0.87537 0.64739 0.74156 0.0
C639 C 0.90411 0.68425 0.63828 0.0
N640 N 0.88349 0.70824 0.69585 0.0
O641 O 0.8782 0.59084 0.53666 0.0
H642 H 0.86596 0.62218 0.78197 0.0
H643 H 0.92321 0.69391 0.58038 0.0
O644 O 0.91739 0.57031 0.72706 0.0
C645 C 0.87184 0.61298 0.46169 0.0
O646 O 0.8941 0.64317 0.44805 0.0
N647 N 0.97275 0.62371 0.65693 0.0
C648 C 0.05229 0.63407 0.67231 0.0
C649 C 0.03049 0.62304 0.75482 0.0
C650 C 0.9902 0.61792 0.74561 0.0
C651 C 0.99301 0.63887 0.58039 0.0
C652 C 0.03292 0.64343 0.58576 0.0
H653 H 0.97388 0.60643 0.80657 0.0
H654 H 0.97852 0.64374 0.51118 0.0
H655 H 0.98191 0.54565 0.67973 0.0
H656 H 1.01417 0.5363 0.38592 0.0
H657 H 0.84719 0.69532 0.82056 0.0
H658 H 0.04476 0.61598 0.82317 0.0
H659 H 0.04883 0.65263 0.5215 0.0
C660 C 0.77589 0.35945 0.81371 0.0
C661 C 0.79704 0.32548 0.81891 0.0
N662 N 0.77209 0.29561 0.8197 0.0
N663 N 0.73799 0.3504 0.80642 0.0
C664 C 0.73694 0.31163 0.82071 0.0
H665 H 0.78776 0.38785 0.79908 0.0
Co666 Co 0.69762 0.37842 0.74532 0.0
C667 C 0.7655 0.37773 0.58605 0.0
O668 O 0.78026 0.34535 0.61902 0.0
N669 N 0.65566 0.40413 0.68762 0.0
C670 C 0.6091 0.4076 0.57554 0.0
C671 C 0.64836 0.40445 0.59047 0.0
C672 C 0.62029 0.40833 0.72991 0.0
N673 N 0.5914 0.40996 0.66334 0.0
O674 O 0.71595 0.42718 0.80909 0.0
H675 H 0.66939 0.39798 0.53416 0.0
H676 H 0.61506 0.40517 0.80735 0.0
O677 O 0.73342 0.39084 0.62385 0.0
C678 C 0.71024 0.448 0.88669 0.0
O679 O 0.7312 0.47936 0.8984 0.0
N680 N 0.67749 0.33128 0.6915 0.0
C681 C 0.66068 0.25212 0.68821 0.0
C682 C 0.68545 0.26849 0.61792 0.0
C683 C 0.69341 0.30845 0.62022 0.0
C684 C 0.64853 0.31686 0.74917 0.0
C685 C 0.64005 0.27726 0.74961 0.0
H686 H 0.71468 0.31987 0.57056 0.0
H687 H 0.6359 0.33493 0.80533 0.0
H688 H 0.71117 0.29451 0.8231 0.0
H689 H 0.82775 0.32288 0.8092 0.0
H690 H 0.59449 0.40662 0.50535 0.0
H691 H 0.70102 0.25016 0.56768 0.0
H692 H 0.61987 0.26601 0.80318 0.0
C693 C 0.94258 0.52575 0.06412 0.0
C694 C 0.97654 0.5469 0.06969 0.0
N695 N 1.00643 0.52196 0.07058 0.0
N696 N 0.95166 0.48786 1.0566 0.0
C697 C 0.99042 0.48681 0.07112 0.0
H698 H 0.91419 0.53762 1.04941 0.0
Co699 Co 0.92366 0.44753 0.99528 0.0
C700 C 0.92433 0.5155 0.83623 0.0
O701 O 0.95664 0.53033 0.86949 0.0
N702 N 0.89797 0.40559 0.93739 0.0
C703 C 0.89462 0.35902 0.82531 0.0
C704 C 0.89774 0.39828 0.84023 0.0
C705 C 0.89375 0.37023 0.97967 0.0
N706 N 0.8922 0.34133 0.9131 0.0
O707 O 0.87488 0.46582 1.05894 0.0
H708 H 0.90426 0.41931 0.78397 0.0
H709 H 0.89683 0.36501 1.05713 0.0
O710 O 0.91126 0.48337 0.87385 0.0
C711 C 0.85405 0.46012 0.1365 0.0
O712 O 0.82268 0.48106 0.1481 0.0
N713 N 0.97083 0.42745 0.94154 0.0
C714 C 0.05 0.41066 0.93831 0.0
C715 C 0.03362 0.43549 0.86816 0.0
C716 C 0.99366 0.44344 0.87042 0.0
C717 C 0.98525 0.39844 0.99908 0.0
C718 C 1.02486 0.38998 0.99957 0.0
H719 H 0.98224 0.46477 0.82088 0.0
H720 H 0.96718 0.38576 1.05512 0.0
H721 H 1.00755 0.46105 0.07336 0.0
H722 H 0.97913 0.57762 0.06022 0.0
H723 H 0.89567 0.34441 0.75514 0.0
H724 H 0.05195 0.45112 0.81807 0.0
H725 H 0.03611 0.36976 1.05304 0.0
C726 C 0.77631 0.69266 0.31384 0.0
C727 C 0.75514 0.72662 0.31907 0.0
N728 N 0.78007 0.75651 0.3198 0.0
N729 N 0.81421 0.70174 0.3065 0.0
C730 C 0.81524 0.74051 0.32076 0.0
H731 H 0.76445 0.66426 0.29924 0.0
Co732 Co 0.85456 0.67371 0.2454 0.0
C733 C 0.78666 0.67443 0.08611 0.0
O734 O 0.77191 0.70681 0.11915 0.0
N735 N 0.89651 0.64799 0.18771 0.0
C736 C 0.94304 0.64451 0.07564 0.0
C737 C 0.90378 0.64765 0.09056 0.0
C738 C 0.93189 0.64383 0.23001 0.0
N739 N 0.96077 0.64218 0.16344 0.0
O740 O 0.83621 0.62495 0.30903 0.0
H741 H 0.88274 0.65409 1.03424 0.0
H742 H 0.93714 0.64702 0.30744 0.0
O743 O 0.81875 0.6613 0.12388 0.0
C744 C 0.8419 0.6041 0.38657 0.0
O745 O 0.82091 0.57277 0.39815 0.0
N746 N 0.87469 0.72085 0.19169 0.0
C747 C 0.89151 0.80001 0.18839 0.0
C748 C 0.86676 0.78361 0.11804 0.0
C749 C 0.85879 0.74365 0.12035 0.0
C750 C 0.90365 0.73529 0.24944 0.0
C751 C 0.91212 0.7749 0.24989 0.0
H752 H 0.83753 0.73221 0.07062 0.0
H753 H 0.91627 0.71724 0.30565 0.0
H754 H 0.84099 0.75766 0.32311 0.0
H755 H 0.72442 0.7292 0.30944 0.0
H756 H 0.95762 0.64547 1.00545 0.0
H757 H 0.8512 0.80192 0.06773 0.0
H758 H 0.93229 0.78617 0.30351 0.0
C759 C 0.60958 0.52637 0.56409 0.0
C760 C 0.57562 0.50523 0.56966 0.0
N761 N 0.54574 0.53017 0.57057 0.0
N762 N 0.60051 0.56426 0.55659 0.0
C763 C 0.56176 0.56533 0.57112 0.0
H764 H 0.63796 0.51449 0.54937 0.0
Co765 Co 0.6285 0.60457 0.49531 0.0
C766 C 0.62779 0.53658 0.33623 0.0
O767 O 0.59549 0.52175 0.36946 0.0
N768 N 0.65418 0.6465 0.43746 0.0
C769 C 0.65755 0.69304 0.32537 0.0
C770 C 0.65443 0.65378 0.34031 0.0
C771 C 0.6584 0.68188 0.47974 0.0
N772 N 0.65995 0.71076 0.41317 0.0
O773 O 0.67728 0.58627 0.55891 0.0
H774 H 0.64792 0.63273 0.28403 0.0
H775 H 0.65531 0.68713 0.5572 0.0
O776 O 0.64086 0.56872 0.37386 0.0
C777 C 0.69812 0.59197 0.63652 0.0
O778 O 0.72949 0.57104 0.64815 0.0
N779 N 0.58132 0.62466 0.4416 0.0
C780 C 0.50216 0.64146 0.43841 0.0
C781 C 0.51851 0.61661 0.36824 0.0
C782 C 0.55847 0.60866 0.37048 0.0
C783 C 0.56692 0.65368 0.49917 0.0
C784 C 0.52731 0.66215 0.49967 0.0
H785 H 0.56986 0.58731 0.32094 0.0
H786 H 0.58502 0.66637 0.55523 0.0
H787 H 0.54463 0.59109 0.57339 0.0
H788 H 0.57302 0.47451 0.56018 0.0
H789 H 0.65651 0.70763 0.2552 0.0
H790 H 0.50016 0.60098 0.31816 0.0
H791 H 0.51608 0.68238 0.55316 0.0
C792 C 0.31095 0.33977 0.41322 0.0
C793 C 0.29072 0.30532 0.41802 0.0
N794 N 0.28194 0.29456 0.32563 0.0
N795 N 0.31478 0.34993 0.31846 0.0
C796 C 0.29519 0.32269 0.26777 0.0
H797 H 0.32614 0.35355 0.47304 0.0
Co798 Co 0.35538 0.37663 0.26192 0.0
C799 C 0.28514 0.39505 0.12157 0.0
O800 O 0.26399 0.41191 0.18908 0.0
N801 N 0.39679 0.40232 0.20435 0.0
C802 C 0.4353 0.43661 0.10751 0.0
C803 C 0.39742 0.42677 0.12742 0.0
C804 C 0.43431 0.39804 0.2307 0.0
N805 N 0.45828 0.41866 0.17311 0.0
O806 O 0.34089 0.42391 0.33227 0.0
H807 H 0.37219 0.43617 0.08701 0.0
H808 H 0.444 0.37895 0.28859 0.0
O809 O 0.32036 0.38472 0.14189 0.0
C810 C 0.36302 0.43029 0.40727 0.0
O811 O 0.39325 0.40806 0.42098 0.0
N812 N 0.37381 0.32939 0.212 0.0
C813 C 0.38415 0.24985 0.19655 0.0
C814 C 0.37313 0.27167 0.11404 0.0
C815 C 0.36802 0.31196 0.12329 0.0
C816 C 0.38898 0.30911 0.28854 0.0
C817 C 0.39354 0.2692 0.28312 0.0
H818 H 0.35653 0.32829 0.06234 0.0
H819 H 0.39385 0.32359 0.35778 0.0
H820 H 0.29577 0.32015 0.18916 0.0
H821 H 0.28637 0.28798 0.48304 0.0
H822 H 0.44532 0.45495 1.04838 0.0
H823 H 0.36606 0.25741 1.04567 0.0
H824 H 0.40273 0.25328 0.34739 0.0
C825 C 0.46247 0.56095 0.16313 0.0
C826 C 0.49692 0.54071 0.16794 0.0
N827 N 0.50768 0.53198 0.07556 0.0
N828 N 0.45231 0.56482 0.06837 0.0
C829 C 0.47955 0.54526 1.01768 0.0
H830 H 0.44867 0.5761 0.22298 0.0
Co831 Co 0.42555 0.6054 1.01187 0.0
C832 C 0.40714 0.53515 0.87159 0.0
O833 O 0.39032 0.514 0.93913 0.0
N834 N 0.39981 0.64679 0.95431 0.0
C835 C 0.36547 0.68528 0.85746 0.0
C836 C 0.37533 0.6474 0.87738 0.0
C837 C 0.40407 0.68432 0.98065 0.0
N838 N 0.38342 0.70827 0.92305 0.0
O839 O 0.37831 0.59089 0.08228 0.0
H840 H 0.36594 0.62217 0.83697 0.0
H841 H 0.42318 0.69402 1.03853 0.0
O842 O 0.41745 0.57038 0.89186 0.0
C843 C 0.3719 0.61302 0.15726 0.0
O844 O 0.39408 0.64328 0.17094 0.0
N845 N 0.47276 0.62387 0.96188 0.0
C846 C 0.55229 0.63422 0.94633 0.0
C847 C 0.53044 0.62321 0.86385 0.0
C848 C 0.49015 0.61809 0.87315 0.0
C849 C 0.49308 0.63904 1.0384 0.0
C850 C 0.53298 0.6436 1.03293 0.0
H851 H 0.47379 0.6066 0.81221 0.0
H852 H 0.47863 0.6439 0.10766 0.0
H853 H 0.48209 0.54587 0.93907 0.0
H854 H 0.51425 0.53633 0.233 0.0
H855 H 0.34711 0.69528 0.79832 0.0
H856 H 0.54466 0.61614 0.79546 0.0
H857 H 0.54894 0.6528 0.09718 0.0
C858 C 0.24117 0.71245 0.91315 0.0
C859 C 0.26136 0.74693 0.91796 0.0
N860 N 0.27014 0.75766 0.82558 0.0
N861 N 0.23736 0.70224 0.8184 0.0
C862 C 0.25693 0.72948 0.76772 0.0
H863 H 0.22598 0.69869 0.97295 0.0
Co864 Co 0.19678 0.67549 0.76182 0.0
C865 C 0.26704 0.65706 0.62159 0.0
O866 O 0.28821 0.64023 0.68912 0.0
N867 N 0.15539 0.64975 0.7042 0.0
C868 C 0.11687 0.61544 0.60731 0.0
C869 C 0.15475 0.6253 0.62721 0.0
C870 C 0.11787 0.65399 0.73058 0.0
N871 N 0.0939 0.63335 0.67296 0.0
O872 O 0.21127 0.62825 0.83232 0.0
H873 H 0.17997 0.61594 0.58675 0.0
H874 H 0.10819 0.67308 0.7885 0.0
O875 O 0.23181 0.66737 0.64186 0.0
C876 C 0.18914 0.62189 0.90729 0.0
O877 O 0.15892 0.64411 0.92093 0.0
N878 N 0.17832 0.7227 0.71176 0.0
C879 C 0.16798 0.80223 0.69621 0.0
C880 C 0.17902 0.78038 0.61376 0.0
C881 C 0.18413 0.74009 0.62306 0.0
C882 C 0.16313 0.74301 0.78823 0.0
C883 C 0.15857 0.78291 0.78276 0.0
H884 H 0.19563 0.72374 0.56215 0.0
H885 H 0.15824 0.72856 0.85746 0.0
H886 H 0.25635 0.73199 0.68911 0.0
H887 H 0.26568 0.76431 0.98297 0.0
H888 H 0.10684 0.5971 0.54813 0.0
H889 H 0.18611 0.79461 0.5454 0.0
H890 H 0.14936 0.79886 0.84698 0.0
C891 C 0.0897 0.49123 0.66321 0.0
C892 C 0.05522 0.51141 0.66798 0.0
N893 N 0.04449 0.5202 0.5756 0.0
N894 N 0.09991 0.48745 0.56846 0.0
C895 C 0.07267 0.50702 0.51777 0.0
H896 H 0.10347 0.47602 0.723 0.0
Co897 Co 0.12662 0.44684 0.5119 0.0
C898 C 0.14506 0.51706 0.3716 0.0
O899 O 0.16193 0.53822 0.43912 0.0
N900 N 0.15232 0.40543 0.4543 0.0
C901 C 0.18662 0.36689 0.35748 0.0
C902 C 0.17678 0.40478 0.37738 0.0
C903 C 0.14805 0.36791 0.48067 0.0
N904 N 0.16868 0.34393 0.42309 0.0
O905 O 0.17389 0.46133 0.58233 0.0
H906 H 0.18617 0.42999 0.33696 0.0
H907 H 0.12896 0.35824 0.53856 0.0
O908 O 0.13472 0.48185 0.39191 0.0
C909 C 0.18026 0.4392 0.6573 0.0
O910 O 0.15802 0.40898 0.67093 0.0
N911 N 0.07939 0.4284 0.46191 0.0
C912 C 0.99985 0.41806 0.44644 0.0
C913 C 1.02167 0.42909 0.36396 0.0
C914 C 0.06196 0.4342 0.37322 0.0
C915 C 0.05911 0.41322 0.53841 0.0
C916 C 1.0192 0.40867 0.53298 0.0
H917 H 0.07829 0.44569 0.31229 0.0
H918 H 0.07359 0.40835 0.60764 0.0
H919 H 0.07016 0.50645 0.43916 0.0
H920 H 0.03784 0.5157 0.73297 0.0
H921 H 0.20496 0.35686 0.29836 0.0
H922 H 1.00741 0.43617 0.2956 0.0
H923 H 1.00328 0.39946 0.59723 0.0
C924 C 0.27631 0.69261 0.30512 0.0
C925 C 0.25516 0.72659 0.29983 0.0
N926 N 0.28012 0.75645 0.29902 0.0
N927 N 0.31422 0.70167 0.31245 0.0
C928 C 0.31527 0.74043 0.29807 0.0
H929 H 0.26444 0.66423 0.3198 0.0
Co930 Co 0.35457 0.67367 0.37366 0.0
C931 C 0.28665 0.67435 0.53284 0.0
O932 O 0.27186 0.70671 0.49979 0.0
N933 N 0.39652 0.64798 0.43146 0.0
C934 C 0.44309 0.64459 0.54355 0.0
C935 C 0.40382 0.64772 0.52862 0.0
C936 C 0.43189 0.64376 0.38918 0.0
N937 N 0.46079 0.6422 0.45575 0.0
O938 O 0.33627 0.6249 0.30993 0.0
H939 H 0.3828 0.65422 0.5849 0.0
H940 H 0.43711 0.64686 0.31172 0.0
O941 O 0.31875 0.66126 0.49511 0.0
C942 C 0.34199 0.60407 0.23232 0.0
O943 O 0.32106 0.5727 0.22063 0.0
N944 N 0.37467 0.72083 0.42746 0.0
C945 C 0.39145 0.8 0.43067 0.0
C946 C 0.36665 0.78364 0.50089 0.0
C947 C 0.35871 0.74368 0.49864 0.0
C948 C 0.40366 0.73524 0.36986 0.0
C949 C 0.41212 0.77485 0.36938 0.0
H950 H 0.3374 0.73226 0.54824 0.0
H951 H 0.41632 0.71716 0.31378 0.0
H952 H 0.34104 0.75754 0.29568 0.0
H953 H 0.22445 0.7292 0.30949 0.0
H954 H 0.4577 0.64562 0.61372 0.0
H955 H 0.35105 0.80197 0.55104 0.0
H956 H 0.43233 0.78609 0.31586 0.0
C957 C 0.1095 0.52633 1.05506 0.0
C958 C 0.07554 0.50516 1.04978 0.0
N959 N 0.04565 0.5301 1.0491 0.0
N960 N 0.10042 0.56423 0.06249 0.0
C961 C 0.06165 0.56526 1.04822 0.0
H962 H 0.1379 0.51448 0.06964 0.0
Co963 Co 0.12845 0.60458 0.12367 0.0
C964 C 0.12777 0.53667 0.28284 0.0
O965 O 0.0954 0.5219 0.24975 0.0
N966 N 0.15416 0.64653 0.18145 0.0
C967 C 0.15758 0.69309 0.29355 0.0
C968 C 0.15445 0.65383 0.27861 0.0
C969 C 0.15836 0.6819 0.13917 0.0
N970 N 0.15995 0.71079 0.20575 0.0
O971 O 0.17721 0.58627 0.05994 0.0
H972 H 0.14798 0.6328 0.33489 0.0
H973 H 0.15523 0.68713 0.06173 0.0
O974 O 0.14088 0.56877 0.24512 0.0
C975 C 0.19804 0.59196 0.98239 0.0
O976 O 0.2294 0.571 0.97077 0.0
N977 N 0.0813 0.6247 0.17746 0.0
C978 C 1.00214 0.6415 0.18077 0.0
C979 C 1.01854 0.61673 0.25104 0.0
C980 C 0.0585 0.60877 0.24874 0.0
C981 C 0.06687 0.65366 0.11981 0.0
C982 C 0.02726 0.66214 0.11937 0.0
H983 H 0.06994 0.58749 0.29838 0.0
H984 H 0.08493 0.6663 0.06367 0.0
H985 H 0.0445 0.59101 1.04593 0.0
H986 H 0.07296 0.47444 1.05933 0.0
H987 H 0.15658 0.7077 0.36373 0.0
H988 H 1.00023 0.60116 0.30127 0.0
H989 H 1.01599 0.68231 0.06581 0.0
C990 C 0.2758 0.35954 0.80495 0.0
C991 C 0.29697 0.32558 0.79961 0.0
N992 N 0.27202 0.2957 0.79888 0.0
N993 N 0.23791 0.35046 0.81236 0.0
C994 C 0.23687 0.3117 0.798 0.0
H995 H 0.28766 0.38794 0.81959 0.0
Co996 Co 0.19757 0.37847 0.87358 0.0
C997 C 0.26552 0.37777 1.03277 0.0
O998 O 0.2803 0.34542 0.99962 0.0
N999 N 0.15563 0.40417 0.93138 0.0
C1000 C 0.10909 0.40758 1.04346 0.0
C1001 C 0.14836 0.40446 1.02853 0.0
C1002 C 0.12025 0.40836 0.88909 0.0
N1003 N 0.09137 0.40994 0.95566 0.0
O1004 O 0.21589 0.42724 0.80998 0.0
H1005 H 0.1694 0.39798 0.08482 0.0
H1006 H 0.11501 0.40523 0.81164 0.0
O1007 O 0.23341 0.39087 0.99507 0.0
C1008 C 0.21019 0.44809 0.73244 0.0
O1009 O 0.23115 0.47945 0.72087 0.0
N1010 N 0.17747 0.33131 0.92728 0.0
C1011 C 0.16069 0.25215 0.93049 0.0
C1012 C 0.18548 0.26853 1.00076 0.0
C1013 C 0.19342 0.30849 0.99851 0.0
C1014 C 0.14848 0.31688 0.86962 0.0
C1015 C 0.14002 0.27727 0.86912 0.0
H1016 H 0.21472 0.31992 1.04816 0.0
H1017 H 0.13582 0.33495 0.8135 0.0
H1018 H 0.21111 0.29456 0.79567 0.0
H1019 H 0.32769 0.323 0.80917 0.0
H1020 H 0.09451 0.40657 0.11363 0.0
H1021 H 0.20108 0.25022 1.05095 0.0
H1022 H 0.11982 0.26601 0.81557 0.0
C1023 C 0.44266 0.52583 0.55509 0.0
C1024 C 0.47662 0.54699 0.54981 0.0
N1025 N 0.5065 0.52204 0.54911 0.0
N1026 N 0.45173 0.48793 0.5625 0.0
C1027 C 0.4905 0.48689 0.54821 0.0
H1028 H 0.41426 0.53769 0.56968 0.0
Co1029 Co 0.42371 0.44759 0.62364 0.0
C1030 C 0.42443 0.51552 0.78284 0.0
O1031 O 0.45679 0.53029 0.74978 0.0
N1032 N 0.398 0.40565 0.68137 0.0
C1033 C 0.39456 0.35913 0.79348 0.0
C1034 C 0.39769 0.39839 0.77853 0.0
C1035 C 0.39382 0.37027 0.6391 0.0
N1036 N 0.39222 0.3414 0.70569 0.0
O1037 O 0.37495 0.46592 0.55997 0.0
H1038 H 0.40415 0.41944 0.83483 0.0
H1039 H 0.39697 0.36501 0.56166 0.0
O1040 O 0.41132 0.48342 0.74511 0.0
C1041 C 0.35411 0.46022 0.48237 0.0
O1042 O 0.32276 0.48118 0.47071 0.0
N1043 N 0.47086 0.42747 0.67739 0.0
C1044 C 0.55003 0.41066 0.68067 0.0
C1045 C 0.53366 0.43544 0.75095 0.0
C1046 C 0.4937 0.4434 0.74867 0.0
C1047 C 0.48528 0.39849 0.61971 0.0
C1048 C 0.52488 0.39001 0.61926 0.0
H1049 H 0.48228 0.4647 0.79832 0.0
H1050 H 0.4672 0.38585 0.56356 0.0
H1051 H 0.50763 0.46113 0.54589 0.0
H1052 H 0.47921 0.57771 0.55938 0.0
H1053 H 0.39555 0.34455 0.86367 0.0
H1054 H 0.55198 0.45103 0.80118 0.0
H1055 H 0.53613 0.36982 0.56568 0.0
loop_
_geom_bond_atom_site_label_1
_geom_bond_atom_site_label_2
_geom_bond_distance
_geom_bond_site_symmetry_2
_ccdc_geom_bond_type
C0 C1 1.351 . S
C0 N3 1.368 . S
C0 H5 0.931 . S
C1 C0 1.351 . S
C1 N2 1.373 . S
C1 H29 0.930 . S
N2 C1 1.373 . S
N2 C4 1.340 . S
N3 C0 1.368 . S
N3 C4 1.321 . S
N3 Co6 2.135 . S
C4 N2 1.340 . S
C4 N3 1.321 . S
C4 H28 0.930 . S
H5 C0 0.931 . S
Co6 N3 2.135 . S
Co6 N9 2.121 . S
Co6 O14 2.055 . S
Co6 O17 2.039 . S
Co6 N20 2.140 . S
C7 O8 1.227 . S
C7 O17 1.265 . S
O8 C7 1.227 . S
N9 Co6 2.121 . S
N9 C11 1.375 . S
N9 C12 1.313 . S
C10 C11 1.338 . S
C10 N13 1.377 . S
C10 H30 0.930 . S
C11 N9 1.375 . S
C11 C10 1.338 . S
C11 H15 0.931 . S
C12 N9 1.313 . S
C12 N13 1.344 . S
C12 H16 0.930 . S
N13 C10 1.377 . S
N13 C12 1.344 . S
O14 Co6 2.055 . S
O14 C18 1.253 . S
H15 C11 0.931 . S
H16 C12 0.930 . S
O17 Co6 2.039 . S
O17 C7 1.265 . S
C18 O14 1.253 . S
C18 O19 1.227 . S
O19 C18 1.227 . S
N20 Co6 2.140 . S
N20 C23 1.346 . S
N20 C24 1.345 . S
C21 C22 1.387 . S
C21 C25 1.391 . S
C22 C21 1.387 . S
C22 C23 1.369 . S
C22 H31 0.929 . S
C23 N20 1.346 . S
C23 C22 1.369 . S
C23 H26 0.928 . S
C24 N20 1.345 . S
C24 C25 1.371 . S
C24 H27 0.931 . S
C25 C21 1.391 . S
C25 C24 1.371 . S
C25 H32 0.930 . S
H26 C23 0.928 . S
H27 C24 0.931 . S
H28 C4 0.930 . S
H29 C1 0.930 . S
H30 C10 0.930 . S
H31 C22 0.929 . S
H32 C25 0.930 . S
C33 C34 1.351 . S
C33 N36 1.368 . S
C33 H38 0.931 . S
C34 C33 1.351 . S
C34 N35 1.373 1_565 S
C34 H62 0.930 . S
N35 C34 1.373 1_545 S
N35 C37 1.339 1_545 S
N36 C33 1.368 . S
N36 C37 1.324 . S
N36 Co39 2.135 . S
C37 N35 1.339 1_565 S
C37 N36 1.324 . S
C37 H61 0.929 1_565 S
H38 C33 0.931 . S
Co39 N36 2.135 . S
Co39 N42 2.121 . S
Co39 O47 2.055 . S
Co39 O50 2.039 . S
Co39 N53 2.140 . S
C40 O41 1.227 . S
C40 O50 1.265 . S
O41 C40 1.227 . S
N42 Co39 2.121 . S
N42 C44 1.375 . S
N42 C45 1.313 . S
C43 C44 1.338 . S
C43 N46 1.377 . S
C43 H63 0.930 . S
C44 N42 1.375 . S
C44 C43 1.338 . S
C44 H48 0.931 . S
C45 N42 1.313 . S
C45 N46 1.344 . S
C45 H49 0.930 . S
N46 C43 1.377 . S
N46 C45 1.344 . S
O47 Co39 2.055 . S
O47 C51 1.253 . S
H48 C44 0.931 . S
H49 C45 0.930 . S
O50 Co39 2.039 . S
O50 C40 1.265 . S
C51 O47 1.253 . S
C51 O52 1.227 . S
O52 C51 1.227 . S
N53 Co39 2.140 . S
N53 C56 1.346 . S
N53 C57 1.345 . S
C54 C55 1.387 . S
C54 C58 1.391 1_655 S
C55 C54 1.387 . S
C55 C56 1.369 1_655 S
C55 H64 0.929 . S
C56 N53 1.346 . S
C56 C55 1.369 1_455 S
C56 H59 0.928 . S
C57 N53 1.345 . S
C57 C58 1.371 . S
C57 H60 0.931 . S
C58 C54 1.391 1_455 S
C58 C57 1.371 . S
C58 H65 0.933 . S
H59 C56 0.928 . S
H60 C57 0.931 . S
H61 C37 0.929 1_545 S
H62 C34 0.930 . S
H63 C43 0.930 . S
H64 C55 0.929 . S
H65 C58 0.933 . S
C66 C67 1.351 . S
C66 N69 1.368 . S
C66 H71 0.931 . S
C67 C66 1.351 . S
C67 N68 1.373 . S
C67 H95 0.930 . S
N68 C67 1.373 . S
N68 C70 1.340 . S
N69 C66 1.368 . S
N69 C70 1.321 . S
N69 Co72 2.135 . S
C70 N68 1.340 . S
C70 N69 1.321 . S
C70 H94 0.930 . S
H71 C66 0.931 . S
Co72 N69 2.135 . S
Co72 N75 2.121 . S
Co72 O80 2.055 . S
Co72 O83 2.039 . S
Co72 N86 2.140 . S
C73 O74 1.227 . S
C73 O83 1.265 . S
O74 C73 1.227 . S
N75 Co72 2.121 . S
N75 C77 1.375 . S
N75 C78 1.313 . S
C76 C77 1.338 1_554 S
C76 N79 1.377 1_554 S
C76 H96 0.930 . S
C77 N75 1.375 . S
C77 C76 1.338 1_556 S
C77 H81 0.931 1_556 S
C78 N75 1.313 . S
C78 N79 1.344 . S
C78 H82 0.930 . S
N79 C76 1.377 1_556 S
N79 C78 1.344 . S
O80 Co72 2.055 . S
O80 C84 1.253 . S
H81 C77 0.931 1_554 S
H82 C78 0.930 . S
O83 Co72 2.039 . S
O83 C73 1.265 . S
C84 O80 1.253 . S
C84 O85 1.227 . S
O85 C84 1.227 . S
N86 Co72 2.140 . S
N86 C89 1.346 . S
N86 C90 1.345 . S
C87 C88 1.387 . S
C87 C91 1.391 . S
C88 C87 1.387 . S
C88 C89 1.369 . S
C88 H97 0.929 . S
C89 N86 1.346 . S
C89 C88 1.369 . S
C89 H92 0.928 . S
C90 N86 1.345 . S
C90 C91 1.371 . S
C90 H93 0.931 . S
C91 C87 1.391 . S
C91 C90 1.371 . S
C91 H98 0.930 . S
H92 C89 0.928 . S
H93 C90 0.931 . S
H94 C70 0.930 . S
H95 C67 0.930 . S
H96 C76 0.930 . S
H97 C88 0.929 . S
H98 C91 0.930 . S
C99 C100 1.351 . S
C99 N102 1.368 . S
C99 H104 0.931 . S
C100 C99 1.351 . S
C100 N101 1.373 1_545 S
C100 H128 0.930 . S
N101 C100 1.373 1_565 S
N101 C103 1.339 1_566 S
N102 C99 1.368 . S
N102 C103 1.324 1_556 S
N102 Co105 2.135 1_556 S
C103 N101 1.339 1_544 S
C103 N102 1.324 1_554 S
C103 H127 0.929 1_545 S
H104 C99 0.931 . S
Co105 N102 2.135 1_554 S
Co105 N108 2.121 . S
Co105 O113 2.055 1_554 S
Co105 O116 2.039 . S
Co105 N119 2.140 . S
C106 O107 1.227 . S
C106 O116 1.265 . S
O107 C106 1.227 . S
N108 Co105 2.121 . S
N108 C110 1.375 . S
N108 C111 1.313 . S
C109 C110 1.338 . S
C109 N112 1.377 . S
C109 H129 0.930 . S
C110 N108 1.375 . S
C110 C109 1.338 . S
C110 H114 0.931 . S
C111 N108 1.313 . S
C111 N112 1.344 . S
C111 H115 0.930 . S
N112 C109 1.377 . S
N112 C111 1.344 . S
O113 Co105 2.055 1_556 S
O113 C117 1.253 . S
H114 C110 0.931 . S
H115 C111 0.930 . S
O116 Co105 2.039 . S
O116 C106 1.265 . S
C117 O113 1.253 . S
C117 O118 1.227 . S
O118 C117 1.227 . S
N119 Co105 2.140 . S
N119 C122 1.346 . S
N119 C123 1.345 . S
C120 C121 1.387 . S
C120 C124 1.391 . S
C121 C120 1.387 . S
C121 C122 1.369 . S
C121 H130 0.929 . S
C122 N119 1.346 . S
C122 C121 1.369 . S
C122 H125 0.928 . S
C123 N119 1.345 . S
C123 C124 1.371 . S
C123 H126 0.931 . S
C124 C120 1.391 . S
C124 C123 1.371 . S
C124 H131 0.930 . S
H125 C122 0.928 . S
H126 C123 0.931 . S
H127 C103 0.929 1_565 S
H128 C100 0.930 . S
H129 C109 0.930 . S
H130 C121 0.929 . S
H131 C124 0.930 . S
C132 C133 1.351 . S
C132 N135 1.368 . S
C132 H137 0.931 . S
C133 C132 1.351 . S
C133 N134 1.373 . S
C133 H161 0.930 . S
N134 C133 1.373 . S
N134 C136 1.340 . S
N135 C132 1.368 . S
N135 C136 1.321 . S
N135 Co138 2.135 . S
C136 N134 1.340 . S
C136 N135 1.321 . S
C136 H160 0.930 . S
H137 C132 0.931 . S
Co138 N135 2.135 . S
Co138 N141 2.121 . S
Co138 O146 2.055 . S
Co138 O149 2.039 . S
Co138 N152 2.140 . S
C139 O140 1.227 . S
C139 O149 1.265 . S
O140 C139 1.227 . S
N141 Co138 2.121 . S
N141 C143 1.375 . S
N141 C144 1.313 . S
C142 C143 1.338 1_556 S
C142 N145 1.377 1_556 S
C142 H162 0.930 . S
C143 N141 1.375 . S
C143 C142 1.338 1_554 S
C143 H147 0.931 1_554 S
C144 N141 1.313 . S
C144 N145 1.344 . S
C144 H148 0.930 . S
N145 C142 1.377 1_554 S
N145 C144 1.344 . S
O146 Co138 2.055 . S
O146 C150 1.253 . S
H147 C143 0.931 1_556 S
H148 C144 0.930 . S
O149 Co138 2.039 . S
O149 C139 1.265 . S
C150 O146 1.253 . S
C150 O151 1.227 . S
O151 C150 1.227 . S
N152 Co138 2.140 . S
N152 C155 1.346 . S
N152 C156 1.345 . S
C153 C154 1.387 . S
C153 C157 1.391 . S
C154 C153 1.387 . S
C154 C155 1.369 . S
C154 H163 0.929 . S
C155 N152 1.346 . S
C155 C154 1.369 . S
C155 H158 0.928 . S
C156 N152 1.345 . S
C156 C157 1.371 . S
C156 H159 0.931 . S
C157 C153 1.391 . S
C157 C156 1.371 . S
C157 H164 0.930 . S
H158 C155 0.928 . S
H159 C156 0.931 . S
H160 C136 0.930 . S
H161 C133 0.930 . S
H162 C142 0.930 . S
H163 C154 0.929 . S
H164 C157 0.930 . S
C165 C166 1.351 . S
C165 N168 1.368 . S
C165 H170 0.931 . S
C166 C165 1.351 . S
C166 N167 1.373 1_565 S
C166 H194 0.930 . S
N167 C166 1.373 1_545 S
N167 C169 1.339 1_545 S
N168 C165 1.368 . S
N168 C169 1.324 . S
N168 Co171 2.135 . S
C169 N167 1.339 1_565 S
C169 N168 1.324 . S
C169 H193 0.929 1_565 S
H170 C165 0.931 . S
Co171 N168 2.135 . S
Co171 N174 2.121 . S
Co171 O179 2.055 . S
Co171 O182 2.039 . S
Co171 N185 2.140 . S
C172 O173 1.227 . S
C172 O182 1.265 . S
O173 C172 1.227 . S
N174 Co171 2.121 . S
N174 C176 1.375 . S
N174 C177 1.313 . S
C175 C176 1.338 . S
C175 N178 1.377 . S
C175 H195 0.930 . S
C176 N174 1.375 . S
C176 C175 1.338 . S
C176 H180 0.931 . S
C177 N174 1.313 . S
C177 N178 1.344 . S
C177 H181 0.930 . S
N178 C175 1.377 . S
N178 C177 1.344 . S
O179 Co171 2.055 . S
O179 C183 1.253 . S
H180 C176 0.931 . S
H181 C177 0.930 . S
O182 Co171 2.039 . S
O182 C172 1.265 . S
C183 O179 1.253 . S
C183 O184 1.227 . S
O184 C183 1.227 . S
N185 Co171 2.140 . S
N185 C188 1.346 . S
N185 C189 1.345 . S
C186 C187 1.387 . S
C186 C190 1.391 . S
C187 C186 1.387 . S
C187 C188 1.369 . S
C187 H196 0.929 . S
C188 N185 1.346 . S
C188 C187 1.369 . S
C188 H191 0.928 . S
C189 N185 1.345 . S
C189 C190 1.371 . S
C189 H192 0.931 . S
C190 C186 1.391 . S
C190 C189 1.371 . S
C190 H197 0.930 . S
H191 C188 0.928 . S
H192 C189 0.931 . S
H193 C169 0.929 1_545 S
H194 C166 0.930 . S
H195 C175 0.930 . S
H196 C187 0.929 . S
H197 C190 0.930 . S
C198 C199 1.351 . S
C198 N201 1.368 . S
C198 H203 0.931 . S
C199 C198 1.351 . S
C199 N200 1.373 . S
C199 H227 0.930 . S
N200 C199 1.373 . S
N200 C202 1.340 . S
N201 C198 1.368 . S
N201 C202 1.321 . S
N201 Co204 2.135 . S
C202 N200 1.340 . S
C202 N201 1.321 . S
C202 H226 0.930 . S
H203 C198 0.931 . S
Co204 N201 2.135 . S
Co204 N207 2.121 . S
Co204 O212 2.055 . S
Co204 O215 2.039 . S
Co204 N218 2.140 . S
C205 O206 1.227 . S
C205 O215 1.265 . S
O206 C205 1.227 . S
N207 Co204 2.121 . S
N207 C209 1.375 . S
N207 C210 1.313 . S
C208 C209 1.338 . S
C208 N211 1.377 . S
C208 H228 0.930 . S
C209 N207 1.375 . S
C209 C208 1.338 . S
C209 H213 0.931 . S
C210 N207 1.313 . S
C210 N211 1.344 . S
C210 H214 0.930 . S
N211 C208 1.377 . S
N211 C210 1.344 . S
O212 Co204 2.055 . S
O212 C216 1.253 . S
H213 C209 0.931 . S
H214 C210 0.930 . S
O215 Co204 2.039 . S
O215 C205 1.265 . S
C216 O212 1.253 . S
C216 O217 1.227 . S
O217 C216 1.227 . S
N218 Co204 2.140 . S
N218 C221 1.346 . S
N218 C222 1.345 . S
C219 C220 1.387 . S
C219 C223 1.391 . S
C220 C219 1.387 . S
C220 C221 1.369 . S
C220 H229 0.929 . S
C221 N218 1.346 . S
C221 C220 1.369 . S
C221 H224 0.928 . S
C222 N218 1.345 . S
C222 C223 1.371 . S
C222 H225 0.931 . S
C223 C219 1.391 . S
C223 C222 1.371 . S
C223 H230 0.930 . S
H224 C221 0.928 . S
H225 C222 0.931 . S
H226 C202 0.930 . S
H227 C199 0.930 . S
H228 C208 0.930 . S
H229 C220 0.929 . S
H230 C223 0.930 . S
C231 C232 1.351 . S
C231 N234 1.368 . S
C231 H236 0.931 . S
C232 C231 1.351 . S
C232 N233 1.373 1_545 S
C232 H260 0.930 . S
N233 C232 1.373 1_565 S
N233 C235 1.339 1_564 S
N234 C231 1.368 . S
N234 C235 1.324 1_554 S
N234 Co237 2.135 1_554 S
C235 N233 1.339 1_546 S
C235 N234 1.324 1_556 S
C235 H259 0.929 1_545 S
H236 C231 0.931 . S
Co237 N234 2.135 1_556 S
Co237 N240 2.121 . S
Co237 O245 2.055 1_556 S
Co237 O248 2.039 . S
Co237 N251 2.140 . S
C238 O239 1.227 . S
C238 O248 1.265 . S
O239 C238 1.227 . S
N240 Co237 2.121 . S
N240 C242 1.375 . S
N240 C243 1.313 . S
C241 C242 1.338 . S
C241 N244 1.377 . S
C241 H261 0.930 . S
C242 N240 1.375 . S
C242 C241 1.338 . S
C242 H246 0.931 . S
C243 N240 1.313 . S
C243 N244 1.344 . S
C243 H247 0.930 . S
N244 C241 1.377 . S
N244 C243 1.344 . S
O245 Co237 2.055 1_554 S
O245 C249 1.253 . S
H246 C242 0.931 . S
H247 C243 0.930 . S
O248 Co237 2.039 . S
O248 C238 1.265 . S
C249 O245 1.253 . S
C249 O250 1.227 . S
O250 C249 1.227 . S
N251 Co237 2.140 . S
N251 C254 1.346 . S
N251 C255 1.345 . S
C252 C253 1.387 . S
C252 C256 1.391 1_655 S
C253 C252 1.387 . S
C253 C254 1.369 1_655 S
C253 H262 0.929 . S
C254 N251 1.346 . S
C254 C253 1.369 1_455 S
C254 H257 0.928 . S
C255 N251 1.345 . S
C255 C256 1.371 . S
C255 H258 0.931 . S
C256 C252 1.391 1_455 S
C256 C255 1.371 . S
C256 H263 0.933 . S
H257 C254 0.928 . S
H258 C255 0.931 . S
H259 C235 0.929 1_565 S
H260 C232 0.930 . S
H261 C241 0.930 . S
H262 C253 0.929 . S
H263 C256 0.933 . S
C264 C265 1.351 . S
C264 N267 1.368 . S
C264 H269 0.931 . S
C265 C264 1.351 . S
C265 N266 1.373 . S
C265 H293 0.930 . S
N266 C265 1.373 . S
N266 C268 1.340 . S
N267 C264 1.368 . S
N267 C268 1.321 . S
N267 Co270 2.135 . S
C268 N266 1.340 . S
C268 N267 1.321 . S
C268 H292 0.930 . S
H269 C264 0.931 . S
Co270 N267 2.135 . S
Co270 N273 2.121 . S
Co270 O278 2.055 . S
Co270 O281 2.039 . S
Co270 N284 2.140 . S
C271 O272 1.227 . S
C271 O281 1.265 . S
O272 C271 1.227 . S
N273 Co270 2.121 . S
N273 C275 1.375 . S
N273 C276 1.313 . S
C274 C275 1.338 . S
C274 N277 1.377 . S
C274 H294 0.930 . S
C275 N273 1.375 . S
C275 C274 1.338 . S
C275 H279 0.931 . S
C276 N273 1.313 . S
C276 N277 1.344 . S
C276 H280 0.930 . S
N277 C274 1.377 . S
N277 C276 1.344 . S
O278 Co270 2.055 . S
O278 C282 1.253 . S
H279 C275 0.931 . S
H280 C276 0.930 . S
O281 Co270 2.039 . S
O281 C271 1.265 . S
C282 O278 1.253 . S
C282 O283 1.227 . S
O283 C282 1.227 . S
N284 Co270 2.140 . S
N284 C287 1.346 . S
N284 C288 1.345 . S
C285 C286 1.387 . S
C285 C289 1.391 . S
C286 C285 1.387 . S
C286 C287 1.369 . S
C286 H295 0.929 . S
C287 N284 1.346 . S
C287 C286 1.369 . S
C287 H290 0.928 . S
C288 N284 1.345 . S
C288 C289 1.371 . S
C288 H291 0.931 . S
C289 C285 1.391 . S
C289 C288 1.371 . S
C289 H296 0.930 . S
H290 C287 0.928 . S
H291 C288 0.931 . S
H292 C268 0.930 . S
H293 C265 0.930 . S
H294 C274 0.930 . S
H295 C286 0.929 . S
H296 C289 0.930 . S
C297 C298 1.351 . S
C297 N300 1.368 . S
C297 H302 0.931 . S
C298 C297 1.351 . S
C298 N299 1.373 1_545 S
C298 H326 0.930 . S
N299 C298 1.373 1_565 S
N299 C301 1.339 1_565 S
N300 C297 1.368 . S
N300 C301 1.324 . S
N300 Co303 2.135 . S
C301 N299 1.339 1_545 S
C301 N300 1.324 . S
C301 H325 0.929 1_545 S
H302 C297 0.931 . S
Co303 N300 2.135 . S
Co303 N306 2.121 . S
Co303 O311 2.055 . S
Co303 O314 2.039 . S
Co303 N317 2.140 . S
C304 O305 1.227 . S
C304 O314 1.265 . S
O305 C304 1.227 . S
N306 Co303 2.121 . S
N306 C308 1.375 . S
N306 C309 1.313 . S
C307 C308 1.338 . S
C307 N310 1.377 . S
C307 H327 0.930 . S
C308 N306 1.375 . S
C308 C307 1.338 . S
C308 H312 0.931 . S
C309 N306 1.313 . S
C309 N310 1.344 . S
C309 H313 0.930 . S
N310 C307 1.377 . S
N310 C309 1.344 . S
O311 Co303 2.055 . S
O311 C315 1.253 . S
H312 C308 0.931 . S
H313 C309 0.930 . S
O314 Co303 2.039 . S
O314 C304 1.265 . S
C315 O311 1.253 . S
C315 O316 1.227 . S
O316 C315 1.227 . S
N317 Co303 2.140 . S
N317 C320 1.346 . S
N317 C321 1.345 . S
C318 C319 1.387 . S
C318 C322 1.391 1_455 S
C319 C318 1.387 . S
C319 C320 1.369 1_455 S
C319 H328 0.929 . S
C320 N317 1.346 . S
C320 C319 1.369 1_655 S
C320 H323 0.928 . S
C321 N317 1.345 . S
C321 C322 1.371 . S
C321 H324 0.931 . S
C322 C318 1.391 1_655 S
C322 C321 1.371 . S
C322 H329 0.933 . S
H323 C320 0.928 . S
H324 C321 0.931 . S
H325 C301 0.929 1_565 S
H326 C298 0.930 . S
H327 C307 0.930 . S
H328 C319 0.929 . S
H329 C322 0.933 . S
C330 C331 1.351 . S
C330 N333 1.368 . S
C330 H335 0.931 . S
C331 C330 1.351 . S
C331 N332 1.373 . S
C331 H359 0.930 . S
N332 C331 1.373 . S
N332 C334 1.340 . S
N333 C330 1.368 . S
N333 C334 1.321 . S
N333 Co336 2.135 . S
C334 N332 1.340 . S
C334 N333 1.321 . S
C334 H358 0.930 . S
H335 C330 0.931 . S
Co336 N333 2.135 . S
Co336 N339 2.121 . S
Co336 O344 2.055 . S
Co336 O347 2.039 . S
Co336 N350 2.140 . S
C337 O338 1.227 . S
C337 O347 1.265 . S
O338 C337 1.227 . S
N339 Co336 2.121 . S
N339 C341 1.375 . S
N339 C342 1.313 . S
C340 C341 1.338 1_556 S
C340 N343 1.377 1_556 S
C340 H360 0.930 . S
C341 N339 1.375 . S
C341 C340 1.338 1_554 S
C341 H345 0.931 1_554 S
C342 N339 1.313 . S
C342 N343 1.344 . S
C342 H346 0.930 . S
N343 C340 1.377 1_554 S
N343 C342 1.344 . S
O344 Co336 2.055 . S
O344 C348 1.253 . S
H345 C341 0.931 1_556 S
H346 C342 0.930 . S
O347 Co336 2.039 . S
O347 C337 1.265 . S
C348 O344 1.253 . S
C348 O349 1.227 . S
O349 C348 1.227 . S
N350 Co336 2.140 . S
N350 C353 1.346 . S
N350 C354 1.345 . S
C351 C352 1.387 . S
C351 C355 1.391 . S
C352 C351 1.387 . S
C352 C353 1.369 . S
C352 H361 0.929 . S
C353 N350 1.346 . S
C353 C352 1.369 . S
C353 H356 0.928 . S
C354 N350 1.345 . S
C354 C355 1.371 . S
C354 H357 0.931 . S
C355 C351 1.391 . S
C355 C354 1.371 . S
C355 H362 0.930 . S
H356 C353 0.928 . S
H357 C354 0.931 . S
H358 C334 0.930 . S
H359 C331 0.930 . S
H360 C340 0.930 . S
H361 C352 0.929 . S
H362 C355 0.930 . S
C363 C364 1.351 . S
C363 N366 1.368 . S
C363 H368 0.931 . S
C364 C363 1.351 . S
C364 N365 1.373 1_565 S
C364 H392 0.930 . S
N365 C364 1.373 1_545 S
N365 C367 1.339 1_544 S
N366 C363 1.368 . S
N366 C367 1.324 1_554 S
N366 Co369 2.135 1_554 S
C367 N365 1.339 1_566 S
C367 N366 1.324 1_556 S
C367 H391 0.929 1_565 S
H368 C363 0.931 . S
Co369 N366 2.135 1_556 S
Co369 N372 2.121 . S
Co369 O377 2.055 1_556 S
Co369 O380 2.039 . S
Co369 N383 2.140 . S
C370 O371 1.227 . S
C370 O380 1.265 . S
O371 C370 1.227 . S
N372 Co369 2.121 . S
N372 C374 1.375 . S
N372 C375 1.313 . S
C373 C374 1.338 . S
C373 N376 1.377 . S
C373 H393 0.930 . S
C374 N372 1.375 . S
C374 C373 1.338 . S
C374 H378 0.931 . S
C375 N372 1.313 . S
C375 N376 1.344 . S
C375 H379 0.930 . S
N376 C373 1.377 . S
N376 C375 1.344 . S
O377 Co369 2.055 1_554 S
O377 C381 1.253 . S
H378 C374 0.931 . S
H379 C375 0.930 . S
O380 Co369 2.039 . S
O380 C370 1.265 . S
C381 O377 1.253 . S
C381 O382 1.227 . S
O382 C381 1.227 . S
N383 Co369 2.140 . S
N383 C386 1.346 . S
N383 C387 1.345 . S
C384 C385 1.387 . S
C384 C388 1.391 . S
C385 C384 1.387 . S
C385 C386 1.369 . S
C385 H394 0.929 . S
C386 N383 1.346 . S
C386 C385 1.369 . S
C386 H389 0.928 . S
C387 N383 1.345 . S
C387 C388 1.371 . S
C387 H390 0.931 . S
C388 C384 1.391 . S
C388 C387 1.371 . S
C388 H395 0.930 . S
H389 C386 0.928 . S
H390 C387 0.931 . S
H391 C367 0.929 1_545 S
H392 C364 0.930 . S
H393 C373 0.930 . S
H394 C385 0.929 . S
H395 C388 0.930 . S
C396 C397 1.351 . S
C396 N399 1.368 . S
C396 H401 0.931 . S
C397 C396 1.351 . S
C397 N398 1.373 . S
C397 H425 0.930 . S
N398 C397 1.373 . S
N398 C400 1.340 . S
N399 C396 1.368 . S
N399 C400 1.321 . S
N399 Co402 2.135 . S
C400 N398 1.340 . S
C400 N399 1.321 . S
C400 H424 0.930 . S
H401 C396 0.931 . S
Co402 N399 2.135 . S
Co402 N405 2.121 . S
Co402 O410 2.055 . S
Co402 O413 2.039 . S
Co402 N416 2.140 . S
C403 O404 1.227 . S
C403 O413 1.265 . S
O404 C403 1.227 . S
N405 Co402 2.121 . S
N405 C407 1.375 . S
N405 C408 1.313 . S
C406 C407 1.338 1_554 S
C406 N409 1.377 1_554 S
C406 H426 0.930 . S
C407 N405 1.375 . S
C407 C406 1.338 1_556 S
C407 H411 0.931 1_556 S
C408 N405 1.313 . S
C408 N409 1.344 . S
C408 H412 0.930 . S
N409 C406 1.377 1_556 S
N409 C408 1.344 . S
O410 Co402 2.055 . S
O410 C414 1.253 . S
H411 C407 0.931 1_554 S
H412 C408 0.930 . S
O413 Co402 2.039 . S
O413 C403 1.265 . S
C414 O410 1.253 . S
C414 O415 1.227 . S
O415 C414 1.227 . S
N416 Co402 2.140 . S
N416 C419 1.346 . S
N416 C420 1.345 . S
C417 C418 1.387 . S
C417 C421 1.391 . S
C418 C417 1.387 . S
C418 C419 1.369 . S
C418 H427 0.929 . S
C419 N416 1.346 . S
C419 C418 1.369 . S
C419 H422 0.928 . S
C420 N416 1.345 . S
C420 C421 1.371 . S
C420 H423 0.931 . S
C421 C417 1.391 . S
C421 C420 1.371 . S
C421 H428 0.930 . S
H422 C419 0.928 . S
H423 C420 0.931 . S
H424 C400 0.930 . S
H425 C397 0.930 . S
H426 C406 0.930 . S
H427 C418 0.929 . S
H428 C421 0.930 . S
C429 C430 1.351 . S
C429 N432 1.368 . S
C429 H434 0.931 . S
C430 C429 1.351 . S
C430 N431 1.373 1_545 S
C430 H458 0.930 . S
N431 C430 1.373 1_565 S
N431 C433 1.339 1_565 S
N432 C429 1.368 . S
N432 C433 1.324 . S
N432 Co435 2.135 . S
C433 N431 1.339 1_545 S
C433 N432 1.324 . S
C433 H457 0.929 1_545 S
H434 C429 0.931 . S
Co435 N432 2.135 . S
Co435 N438 2.121 . S
Co435 O443 2.055 . S
Co435 O446 2.039 . S
Co435 N449 2.140 . S
C436 O437 1.227 . S
C436 O446 1.265 . S
O437 C436 1.227 . S
N438 Co435 2.121 . S
N438 C440 1.375 . S
N438 C441 1.313 . S
C439 C440 1.338 . S
C439 N442 1.377 . S
C439 H459 0.930 . S
C440 N438 1.375 . S
C440 C439 1.338 . S
C440 H444 0.931 . S
C441 N438 1.313 . S
C441 N442 1.344 . S
C441 H445 0.930 . S
N442 C439 1.377 . S
N442 C441 1.344 . S
O443 Co435 2.055 . S
O443 C447 1.253 . S
H444 C440 0.931 . S
H445 C441 0.930 . S
O446 Co435 2.039 . S
O446 C436 1.265 . S
C447 O443 1.253 . S
C447 O448 1.227 . S
O448 C447 1.227 . S
N449 Co435 2.140 . S
N449 C452 1.346 . S
N449 C453 1.345 . S
C450 C451 1.387 . S
C450 C454 1.391 . S
C451 C450 1.387 . S
C451 C452 1.369 . S
C451 H460 0.929 . S
C452 N449 1.346 . S
C452 C451 1.369 . S
C452 H455 0.928 . S
C453 N449 1.345 . S
C453 C454 1.371 . S
C453 H456 0.931 . S
C454 C450 1.391 . S
C454 C453 1.371 . S
C454 H461 0.930 . S
H455 C452 0.928 . S
H456 C453 0.931 . S
H457 C433 0.929 1_565 S
H458 C430 0.930 . S
H459 C439 0.930 . S
H460 C451 0.929 . S
H461 C454 0.930 . S
C462 C463 1.351 . S
C462 N465 1.368 . S
C462 H467 0.931 . S
C463 C462 1.351 . S
C463 N464 1.373 . S
C463 H491 0.930 . S
N464 C463 1.373 . S
N464 C466 1.340 . S
N465 C462 1.368 . S
N465 C466 1.321 . S
N465 Co468 2.135 . S
C466 N464 1.340 . S
C466 N465 1.321 . S
C466 H490 0.930 . S
H467 C462 0.931 . S
Co468 N465 2.135 . S
Co468 N471 2.121 . S
Co468 O476 2.055 . S
Co468 O479 2.039 . S
Co468 N482 2.140 . S
C469 O470 1.227 . S
C469 O479 1.265 . S
O470 C469 1.227 . S
N471 Co468 2.121 . S
N471 C473 1.375 . S
N471 C474 1.313 . S
C472 C473 1.338 . S
C472 N475 1.377 . S
C472 H492 0.930 . S
C473 N471 1.375 . S
C473 C472 1.338 . S
C473 H477 0.931 . S
C474 N471 1.313 . S
C474 N475 1.344 . S
C474 H478 0.930 . S
N475 C472 1.377 . S
N475 C474 1.344 . S
O476 Co468 2.055 . S
O476 C480 1.253 . S
H477 C473 0.931 . S
H478 C474 0.930 . S
O479 Co468 2.039 . S
O479 C469 1.265 . S
C480 O476 1.253 . S
C480 O481 1.227 . S
O481 C480 1.227 . S
N482 Co468 2.140 . S
N482 C485 1.346 . S
N482 C486 1.345 . S
C483 C484 1.387 . S
C483 C487 1.391 . S
C484 C483 1.387 . S
C484 C485 1.369 . S
C484 H493 0.929 . S
C485 N482 1.346 . S
C485 C484 1.369 . S
C485 H488 0.928 . S
C486 N482 1.345 . S
C486 C487 1.371 . S
C486 H489 0.931 . S
C487 C483 1.391 . S
C487 C486 1.371 . S
C487 H494 0.930 . S
H488 C485 0.928 . S
H489 C486 0.931 . S
H490 C466 0.930 . S
H491 C463 0.930 . S
H492 C472 0.930 . S
H493 C484 0.929 . S
H494 C487 0.930 . S
C495 C496 1.351 . S
C495 N498 1.368 . S
C495 H500 0.931 . S
C496 C495 1.351 . S
C496 N497 1.373 1_565 S
C496 H524 0.930 . S
N497 C496 1.373 1_545 S
N497 C499 1.339 1_546 S
N498 C495 1.368 . S
N498 C499 1.324 1_556 S
N498 Co501 2.135 1_556 S
C499 N497 1.339 1_564 S
C499 N498 1.324 1_554 S
C499 H523 0.929 1_565 S
H500 C495 0.931 . S
Co501 N498 2.135 1_554 S
Co501 N504 2.121 . S
Co501 O509 2.055 1_554 S
Co501 O512 2.039 . S
Co501 N515 2.140 . S
C502 O503 1.227 . S
C502 O512 1.265 . S
O503 C502 1.227 . S
N504 Co501 2.121 . S
N504 C506 1.375 . S
N504 C507 1.313 . S
C505 C506 1.338 . S
C505 N508 1.377 . S
C505 H525 0.930 . S
C506 N504 1.375 . S
C506 C505 1.338 . S
C506 H510 0.931 . S
C507 N504 1.313 . S
C507 N508 1.344 . S
C507 H511 0.930 . S
N508 C505 1.377 . S
N508 C507 1.344 . S
O509 Co501 2.055 1_556 S
O509 C513 1.253 . S
H510 C506 0.931 . S
H511 C507 0.930 . S
O512 Co501 2.039 . S
O512 C502 1.265 . S
C513 O509 1.253 . S
C513 O514 1.227 . S
O514 C513 1.227 . S
N515 Co501 2.140 . S
N515 C518 1.346 . S
N515 C519 1.345 . S
C516 C517 1.387 . S
C516 C520 1.391 1_455 S
C517 C516 1.387 . S
C517 C518 1.369 1_455 S
C517 H526 0.929 . S
C518 N515 1.346 . S
C518 C517 1.369 1_655 S
C518 H521 0.928 . S
C519 N515 1.345 . S
C519 C520 1.371 . S
C519 H522 0.931 . S
C520 C516 1.391 1_655 S
C520 C519 1.371 . S
C520 H527 0.933 . S
H521 C518 0.928 . S
H522 C519 0.931 . S
H523 C499 0.929 1_545 S
H524 C496 0.930 . S
H525 C505 0.930 . S
H526 C517 0.929 . S
H527 C520 0.933 . S
C528 C529 1.351 . S
C528 N531 1.368 . S
C528 H533 0.931 . S
C529 C528 1.351 . S
C529 N530 1.373 . S
C529 H557 0.930 . S
N530 C529 1.373 . S
N530 C532 1.340 . S
N531 C528 1.368 . S
N531 C532 1.321 . S
N531 Co534 2.135 . S
C532 N530 1.340 . S
C532 N531 1.321 . S
C532 H556 0.930 . S
H533 C528 0.931 . S
Co534 N531 2.135 . S
Co534 N537 2.121 . S
Co534 O542 2.055 . S
Co534 O545 2.039 . S
Co534 N548 2.140 . S
C535 O536 1.227 . S
C535 O545 1.265 . S
O536 C535 1.227 . S
N537 Co534 2.121 . S
N537 C539 1.375 . S
N537 C540 1.313 . S
C538 C539 1.338 1_554 S
C538 N541 1.377 1_554 S
C538 H558 0.930 . S
C539 N537 1.375 . S
C539 C538 1.338 1_556 S
C539 H543 0.931 1_556 S
C540 N537 1.313 . S
C540 N541 1.344 . S
C540 H544 0.930 . S
N541 C538 1.377 1_556 S
N541 C540 1.344 . S
O542 Co534 2.055 . S
O542 C546 1.253 . S
H543 C539 0.931 1_554 S
H544 C540 0.930 . S
O545 Co534 2.039 . S
O545 C535 1.265 . S
C546 O542 1.253 . S
C546 O547 1.227 . S
O547 C546 1.227 . S
N548 Co534 2.140 . S
N548 C551 1.346 . S
N548 C552 1.345 . S
C549 C550 1.387 . S
C549 C553 1.391 . S
C550 C549 1.387 . S
C550 C551 1.369 . S
C550 H559 0.929 . S
C551 N548 1.346 . S
C551 C550 1.369 . S
C551 H554 0.928 . S
C552 N548 1.345 . S
C552 C553 1.371 . S
C552 H555 0.931 . S
C553 C549 1.391 . S
C553 C552 1.371 . S
C553 H560 0.930 . S
H554 C551 0.928 . S
H555 C552 0.931 . S
H556 C532 0.930 . S
H557 C529 0.930 . S
H558 C538 0.930 . S
H559 C550 0.929 . S
H560 C553 0.930 . S
C561 C562 1.351 . S
C561 N564 1.368 . S
C561 H566 0.931 . S
C562 C561 1.351 . S
C562 N563 1.373 . S
C562 H590 0.930 . S
N563 C562 1.373 . S
N563 C565 1.340 1_556 S
N564 C561 1.368 . S
N564 C565 1.321 1_556 S
N564 Co567 2.135 1_556 S
C565 N563 1.340 1_554 S
C565 N564 1.321 1_554 S
C565 H589 0.930 . S
H566 C561 0.931 . S
Co567 N564 2.135 1_554 S
Co567 N570 2.121 . S
Co567 O575 2.055 1_554 S
Co567 O578 2.039 . S
Co567 N581 2.140 . S
C568 O569 1.227 . S
C568 O578 1.265 . S
O569 C568 1.227 . S
N570 Co567 2.121 . S
N570 C572 1.375 . S
N570 C573 1.313 . S
C571 C572 1.338 . S
C571 N574 1.377 . S
C571 H591 0.930 . S
C572 N570 1.375 . S
C572 C571 1.338 . S
C572 H576 0.931 . S
C573 N570 1.313 . S
C573 N574 1.344 . S
C573 H577 0.930 . S
N574 C571 1.377 . S
N574 C573 1.344 . S
O575 Co567 2.055 1_556 S
O575 C579 1.253 . S
H576 C572 0.931 . S
H577 C573 0.930 . S
O578 Co567 2.039 . S
O578 C568 1.265 . S
C579 O575 1.253 . S
C579 O580 1.227 . S
O580 C579 1.227 . S
N581 Co567 2.140 . S
N581 C584 1.346 . S
N581 C585 1.345 . S
C582 C583 1.387 . S
C582 C586 1.391 . S
C583 C582 1.387 . S
C583 C584 1.369 . S
C583 H592 0.929 . S
C584 N581 1.346 . S
C584 C583 1.369 . S
C584 H587 0.928 . S
C585 N581 1.345 . S
C585 C586 1.371 . S
C585 H588 0.931 . S
C586 C582 1.391 . S
C586 C585 1.371 . S
C586 H593 0.930 . S
H587 C584 0.928 . S
H588 C585 0.931 . S
H589 C565 0.930 . S
H590 C562 0.930 . S
H591 C571 0.930 . S
H592 C583 0.929 . S
H593 C586 0.930 . S
C594 C595 1.351 . S
C594 N597 1.368 . S
C594 H599 0.931 . S
C595 C594 1.351 . S
C595 N596 1.373 . S
C595 H623 0.930 . S
N596 C595 1.373 . S
N596 C598 1.340 . S
N597 C594 1.368 . S
N597 C598 1.321 . S
N597 Co600 2.135 . S
C598 N596 1.340 . S
C598 N597 1.321 . S
C598 H622 0.930 . S
H599 C594 0.931 . S
Co600 N597 2.135 . S
Co600 N603 2.121 . S
Co600 O608 2.055 . S
Co600 O611 2.039 . S
Co600 N614 2.140 . S
C601 O602 1.227 . S
C601 O611 1.265 . S
O602 C601 1.227 . S
N603 Co600 2.121 . S
N603 C605 1.375 . S
N603 C606 1.313 . S
C604 C605 1.338 . S
C604 N607 1.377 . S
C604 H624 0.930 . S
C605 N603 1.375 . S
C605 C604 1.338 . S
C605 H609 0.931 . S
C606 N603 1.313 . S
C606 N607 1.344 . S
C606 H610 0.930 . S
N607 C604 1.377 . S
N607 C606 1.344 . S
O608 Co600 2.055 . S
O608 C612 1.253 . S
H609 C605 0.931 . S
H610 C606 0.930 . S
O611 Co600 2.039 . S
O611 C601 1.265 . S
C612 O608 1.253 . S
C612 O613 1.227 . S
O613 C612 1.227 . S
N614 Co600 2.140 . S
N614 C617 1.346 . S
N614 C618 1.345 . S
C615 C616 1.387 . S
C615 C619 1.391 . S
C616 C615 1.387 . S
C616 C617 1.369 . S
C616 H625 0.929 . S
C617 N614 1.346 . S
C617 C616 1.369 . S
C617 H620 0.928 . S
C618 N614 1.345 . S
C618 C619 1.371 . S
C618 H621 0.931 . S
C619 C615 1.391 . S
C619 C618 1.371 . S
C619 H626 0.930 . S
H620 C617 0.928 . S
H621 C618 0.931 . S
H622 C598 0.930 . S
H623 C595 0.930 . S
H624 C604 0.930 . S
H625 C616 0.929 . S
H626 C619 0.930 . S
C627 C628 1.351 . S
C627 N630 1.368 . S
C627 H632 0.931 . S
C628 C627 1.351 . S
C628 N629 1.373 . S
C628 H656 0.930 . S
N629 C628 1.373 . S
N629 C631 1.340 . S
N630 C627 1.368 . S
N630 C631 1.321 . S
N630 Co633 2.135 . S
C631 N629 1.340 . S
C631 N630 1.321 . S
C631 H655 0.930 . S
H632 C627 0.931 . S
Co633 N630 2.135 . S
Co633 N636 2.121 . S
Co633 O641 2.055 . S
Co633 O644 2.039 . S
Co633 N647 2.140 . S
C634 O635 1.227 . S
C634 O644 1.265 . S
O635 C634 1.227 . S
N636 Co633 2.121 . S
N636 C638 1.375 . S
N636 C639 1.313 . S
C637 C638 1.338 . S
C637 N640 1.377 . S
C637 H657 0.930 . S
C638 N636 1.375 . S
C638 C637 1.338 . S
C638 H642 0.931 . S
C639 N636 1.313 . S
C639 N640 1.344 . S
C639 H643 0.930 . S
N640 C637 1.377 . S
N640 C639 1.344 . S
O641 Co633 2.055 . S
O641 C645 1.253 . S
H642 C638 0.931 . S
H643 C639 0.930 . S
O644 Co633 2.039 . S
O644 C634 1.265 . S
C645 O641 1.253 . S
C645 O646 1.227 . S
O646 C645 1.227 . S
N647 Co633 2.140 . S
N647 C650 1.346 . S
N647 C651 1.345 . S
C648 C649 1.387 . S
C648 C652 1.391 1_455 S
C649 C648 1.387 . S
C649 C650 1.369 1_455 S
C649 H658 0.929 . S
C650 N647 1.346 . S
C650 C649 1.369 1_655 S
C650 H653 0.928 . S
C651 N647 1.345 . S
C651 C652 1.371 . S
C651 H654 0.931 . S
C652 C648 1.391 1_655 S
C652 C651 1.371 . S
C652 H659 0.933 . S
H653 C650 0.928 . S
H654 C651 0.931 . S
H655 C631 0.930 . S
H656 C628 0.930 . S
H657 C637 0.930 . S
H658 C649 0.929 . S
H659 C652 0.933 . S
C660 C661 1.351 . S
C660 N663 1.368 . S
C660 H665 0.931 . S
C661 C660 1.351 . S
C661 N662 1.373 . S
C661 H689 0.930 . S
N662 C661 1.373 . S
N662 C664 1.340 . S
N663 C660 1.368 . S
N663 C664 1.321 . S
N663 Co666 2.135 . S
C664 N662 1.340 . S
C664 N663 1.321 . S
C664 H688 0.930 . S
H665 C660 0.931 . S
Co666 N663 2.135 . S
Co666 N669 2.121 . S
Co666 O674 2.055 . S
Co666 O677 2.039 . S
Co666 N680 2.140 . S
C667 O668 1.227 . S
C667 O677 1.265 . S
O668 C667 1.227 . S
N669 Co666 2.121 . S
N669 C671 1.375 . S
N669 C672 1.313 . S
C670 C671 1.338 . S
C670 N673 1.377 . S
C670 H690 0.930 . S
C671 N669 1.375 . S
C671 C670 1.338 . S
C671 H675 0.931 . S
C672 N669 1.313 . S
C672 N673 1.344 . S
C672 H676 0.930 . S
N673 C670 1.377 . S
N673 C672 1.344 . S
O674 Co666 2.055 . S
O674 C678 1.253 . S
H675 C671 0.931 . S
H676 C672 0.930 . S
O677 Co666 2.039 . S
O677 C667 1.265 . S
C678 O674 1.253 . S
C678 O679 1.227 . S
O679 C678 1.227 . S
N680 Co666 2.140 . S
N680 C683 1.346 . S
N680 C684 1.345 . S
C681 C682 1.387 . S
C681 C685 1.391 . S
C682 C681 1.387 . S
C682 C683 1.369 . S
C682 H691 0.929 . S
C683 N680 1.346 . S
C683 C682 1.369 . S
C683 H686 0.928 . S
C684 N680 1.345 . S
C684 C685 1.371 . S
C684 H687 0.931 . S
C685 C681 1.391 . S
C685 C684 1.371 . S
C685 H692 0.930 . S
H686 C683 0.928 . S
H687 C684 0.931 . S
H688 C664 0.930 . S
H689 C661 0.930 . S
H690 C670 0.930 . S
H691 C682 0.929 . S
H692 C685 0.930 . S
C693 C694 1.351 . S
C693 N696 1.368 . S
C693 H698 0.931 . S
C694 C693 1.351 . S
C694 N695 1.373 . S
C694 H722 0.930 . S
N695 C694 1.373 . S
N695 C697 1.340 1_554 S
N696 C693 1.368 . S
N696 C697 1.321 1_554 S
N696 Co699 2.135 1_554 S
C697 N695 1.340 1_556 S
C697 N696 1.321 1_556 S
C697 H721 0.930 . S
H698 C693 0.931 . S
Co699 N696 2.135 1_556 S
Co699 N702 2.121 . S
Co699 O707 2.055 1_556 S
Co699 O710 2.039 . S
Co699 N713 2.140 . S
C700 O701 1.227 . S
C700 O710 1.265 . S
O701 C700 1.227 . S
N702 Co699 2.121 . S
N702 C704 1.375 . S
N702 C705 1.313 . S
C703 C704 1.338 . S
C703 N706 1.377 . S
C703 H723 0.930 . S
C704 N702 1.375 . S
C704 C703 1.338 . S
C704 H708 0.931 . S
C705 N702 1.313 . S
C705 N706 1.344 . S
C705 H709 0.930 . S
N706 C703 1.377 . S
N706 C705 1.344 . S
O707 Co699 2.055 1_554 S
O707 C711 1.253 . S
H708 C704 0.931 . S
H709 C705 0.930 . S
O710 Co699 2.039 . S
O710 C700 1.265 . S
C711 O707 1.253 . S
C711 O712 1.227 . S
O712 C711 1.227 . S
N713 Co699 2.140 . S
N713 C716 1.346 . S
N713 C717 1.345 . S
C714 C715 1.387 . S
C714 C718 1.391 1_455 S
C715 C714 1.387 . S
C715 C716 1.369 1_455 S
C715 H724 0.929 . S
C716 N713 1.346 . S
C716 C715 1.369 1_655 S
C716 H719 0.928 . S
C717 N713 1.345 . S
C717 C718 1.371 . S
C717 H720 0.931 . S
C718 C714 1.391 1_655 S
C718 C717 1.371 . S
C718 H725 0.933 . S
H719 C716 0.928 . S
H720 C717 0.931 . S
H721 C697 0.930 . S
H722 C694 0.930 . S
H723 C703 0.930 . S
H724 C715 0.929 . S
H725 C718 0.933 . S
C726 C727 1.351 . S
C726 N729 1.368 . S
C726 H731 0.931 . S
C727 C726 1.351 . S
C727 N728 1.373 . S
C727 H755 0.930 . S
N728 C727 1.373 . S
N728 C730 1.340 . S
N729 C726 1.368 . S
N729 C730 1.321 . S
N729 Co732 2.135 . S
C730 N728 1.340 . S
C730 N729 1.321 . S
C730 H754 0.930 . S
H731 C726 0.931 . S
Co732 N729 2.135 . S
Co732 N735 2.121 . S
Co732 O740 2.055 . S
Co732 O743 2.039 . S
Co732 N746 2.140 . S
C733 O734 1.227 . S
C733 O743 1.265 . S
O734 C733 1.227 . S
N735 Co732 2.121 . S
N735 C737 1.375 . S
N735 C738 1.313 . S
C736 C737 1.338 1_556 S
C736 N739 1.377 1_556 S
C736 H756 0.930 . S
C737 N735 1.375 . S
C737 C736 1.338 1_554 S
C737 H741 0.931 1_554 S
C738 N735 1.313 . S
C738 N739 1.344 . S
C738 H742 0.930 . S
N739 C736 1.377 1_554 S
N739 C738 1.344 . S
O740 Co732 2.055 . S
O740 C744 1.253 . S
H741 C737 0.931 1_556 S
H742 C738 0.930 . S
O743 Co732 2.039 . S
O743 C733 1.265 . S
C744 O740 1.253 . S
C744 O745 1.227 . S
O745 C744 1.227 . S
N746 Co732 2.140 . S
N746 C749 1.346 . S
N746 C750 1.345 . S
C747 C748 1.387 . S
C747 C751 1.391 . S
C748 C747 1.387 . S
C748 C749 1.369 . S
C748 H757 0.929 . S
C749 N746 1.346 . S
C749 C748 1.369 . S
C749 H752 0.928 . S
C750 N746 1.345 . S
C750 C751 1.371 . S
C750 H753 0.931 . S
C751 C747 1.391 . S
C751 C750 1.371 . S
C751 H758 0.930 . S
H752 C749 0.928 . S
H753 C750 0.931 . S
H754 C730 0.930 . S
H755 C727 0.930 . S
H756 C736 0.930 . S
H757 C748 0.929 . S
H758 C751 0.930 . S
C759 C760 1.351 . S
C759 N762 1.368 . S
C759 H764 0.931 . S
C760 C759 1.351 . S
C760 N761 1.373 . S
C760 H788 0.930 . S
N761 C760 1.373 . S
N761 C763 1.340 . S
N762 C759 1.368 . S
N762 C763 1.321 . S
N762 Co765 2.135 . S
C763 N761 1.340 . S
C763 N762 1.321 . S
C763 H787 0.930 . S
H764 C759 0.931 . S
Co765 N762 2.135 . S
Co765 N768 2.121 . S
Co765 O773 2.055 . S
Co765 O776 2.039 . S
Co765 N779 2.140 . S
C766 O767 1.227 . S
C766 O776 1.265 . S
O767 C766 1.227 . S
N768 Co765 2.121 . S
N768 C770 1.375 . S
N768 C771 1.313 . S
C769 C770 1.338 . S
C769 N772 1.377 . S
C769 H789 0.930 . S
C770 N768 1.375 . S
C770 C769 1.338 . S
C770 H774 0.931 . S
C771 N768 1.313 . S
C771 N772 1.344 . S
C771 H775 0.930 . S
N772 C769 1.377 . S
N772 C771 1.344 . S
O773 Co765 2.055 . S
O773 C777 1.253 . S
H774 C770 0.931 . S
H775 C771 0.930 . S
O776 Co765 2.039 . S
O776 C766 1.265 . S
C777 O773 1.253 . S
C777 O778 1.227 . S
O778 C777 1.227 . S
N779 Co765 2.140 . S
N779 C782 1.346 . S
N779 C783 1.345 . S
C780 C781 1.387 . S
C780 C784 1.391 . S
C781 C780 1.387 . S
C781 C782 1.369 . S
C781 H790 0.929 . S
C782 N779 1.346 . S
C782 C781 1.369 . S
C782 H785 0.928 . S
C783 N779 1.345 . S
C783 C784 1.371 . S
C783 H786 0.931 . S
C784 C780 1.391 . S
C784 C783 1.371 . S
C784 H791 0.930 . S
H785 C782 0.928 . S
H786 C783 0.931 . S
H787 C763 0.930 . S
H788 C760 0.930 . S
H789 C769 0.930 . S
H790 C781 0.929 . S
H791 C784 0.930 . S
C792 C793 1.351 . S
C792 N795 1.368 . S
C792 H797 0.931 . S
C793 C792 1.351 . S
C793 N794 1.373 . S
C793 H821 0.930 . S
N794 C793 1.373 . S
N794 C796 1.340 . S
N795 C792 1.368 . S
N795 C796 1.321 . S
N795 Co798 2.135 . S
C796 N794 1.340 . S
C796 N795 1.321 . S
C796 H820 0.930 . S
H797 C792 0.931 . S
Co798 N795 2.135 . S
Co798 N801 2.121 . S
Co798 O806 2.055 . S
Co798 O809 2.039 . S
Co798 N812 2.140 . S
C799 O800 1.227 . S
C799 O809 1.265 . S
O800 C799 1.227 . S
N801 Co798 2.121 . S
N801 C803 1.375 . S
N801 C804 1.313 . S
C802 C803 1.338 1_556 S
C802 N805 1.377 1_556 S
C802 H822 0.930 . S
C803 N801 1.375 . S
C803 C802 1.338 1_554 S
C803 H807 0.931 1_554 S
C804 N801 1.313 . S
C804 N805 1.344 . S
C804 H808 0.930 . S
N805 C802 1.377 1_554 S
N805 C804 1.344 . S
O806 Co798 2.055 . S
O806 C810 1.253 . S
H807 C803 0.931 1_556 S
H808 C804 0.930 . S
O809 Co798 2.039 . S
O809 C799 1.265 . S
C810 O806 1.253 . S
C810 O811 1.227 . S
O811 C810 1.227 . S
N812 Co798 2.140 . S
N812 C815 1.346 . S
N812 C816 1.345 . S
C813 C814 1.387 . S
C813 C817 1.391 . S
C814 C813 1.387 . S
C814 C815 1.369 . S
C814 H823 0.929 . S
C815 N812 1.346 . S
C815 C814 1.369 . S
C815 H818 0.928 . S
C816 N812 1.345 . S
C816 C817 1.371 . S
C816 H819 0.931 . S
C817 C813 1.391 . S
C817 C816 1.371 . S
C817 H824 0.930 . S
H818 C815 0.928 . S
H819 C816 0.931 . S
H820 C796 0.930 . S
H821 C793 0.930 . S
H822 C802 0.930 . S
H823 C814 0.929 . S
H824 C817 0.930 . S
C825 C826 1.351 . S
C825 N828 1.368 . S
C825 H830 0.931 . S
C826 C825 1.351 . S
C826 N827 1.373 . S
C826 H854 0.930 . S
N827 C826 1.373 . S
N827 C829 1.340 1_554 S
N828 C825 1.368 . S
N828 C829 1.321 1_554 S
N828 Co831 2.135 1_554 S
C829 N827 1.340 1_556 S
C829 N828 1.321 1_556 S
C829 H853 0.930 . S
H830 C825 0.931 . S
Co831 N828 2.135 1_556 S
Co831 N834 2.121 . S
Co831 O839 2.055 1_556 S
Co831 O842 2.039 . S
Co831 N845 2.140 . S
C832 O833 1.227 . S
C832 O842 1.265 . S
O833 C832 1.227 . S
N834 Co831 2.121 . S
N834 C836 1.375 . S
N834 C837 1.313 . S
C835 C836 1.338 . S
C835 N838 1.377 . S
C835 H855 0.930 . S
C836 N834 1.375 . S
C836 C835 1.338 . S
C836 H840 0.931 . S
C837 N834 1.313 . S
C837 N838 1.344 . S
C837 H841 0.930 . S
N838 C835 1.377 . S
N838 C837 1.344 . S
O839 Co831 2.055 1_554 S
O839 C843 1.253 . S
H840 C836 0.931 . S
H841 C837 0.930 . S
O842 Co831 2.039 . S
O842 C832 1.265 . S
C843 O839 1.253 . S
C843 O844 1.227 . S
O844 C843 1.227 . S
N845 Co831 2.140 . S
N845 C848 1.346 . S
N845 C849 1.345 . S
C846 C847 1.387 . S
C846 C850 1.391 . S
C847 C846 1.387 . S
C847 C848 1.369 . S
C847 H856 0.929 . S
C848 N845 1.346 . S
C848 C847 1.369 . S
C848 H851 0.928 . S
C849 N845 1.345 . S
C849 C850 1.371 . S
C849 H852 0.931 . S
C850 C846 1.391 . S
C850 C849 1.371 . S
C850 H857 0.930 . S
H851 C848 0.928 . S
H852 C849 0.931 . S
H853 C829 0.930 . S
H854 C826 0.930 . S
H855 C835 0.930 . S
H856 C847 0.929 . S
H857 C850 0.930 . S
C858 C859 1.351 . S
C858 N861 1.368 . S
C858 H863 0.931 . S
C859 C858 1.351 . S
C859 N860 1.373 . S
C859 H887 0.930 . S
N860 C859 1.373 . S
N860 C862 1.340 . S
N861 C858 1.368 . S
N861 C862 1.321 . S
N861 Co864 2.135 . S
C862 N860 1.340 . S
C862 N861 1.321 . S
C862 H886 0.930 . S
H863 C858 0.931 . S
Co864 N861 2.135 . S
Co864 N867 2.121 . S
Co864 O872 2.055 . S
Co864 O875 2.039 . S
Co864 N878 2.140 . S
C865 O866 1.227 . S
C865 O875 1.265 . S
O866 C865 1.227 . S
N867 Co864 2.121 . S
N867 C869 1.375 . S
N867 C870 1.313 . S
C868 C869 1.338 . S
C868 N871 1.377 . S
C868 H888 0.930 . S
C869 N867 1.375 . S
C869 C868 1.338 . S
C869 H873 0.931 . S
C870 N867 1.313 . S
C870 N871 1.344 . S
C870 H874 0.930 . S
N871 C868 1.377 . S
N871 C870 1.344 . S
O872 Co864 2.055 . S
O872 C876 1.253 . S
H873 C869 0.931 . S
H874 C870 0.930 . S
O875 Co864 2.039 . S
O875 C865 1.265 . S
C876 O872 1.253 . S
C876 O877 1.227 . S
O877 C876 1.227 . S
N878 Co864 2.140 . S
N878 C881 1.346 . S
N878 C882 1.345 . S
C879 C880 1.387 . S
C879 C883 1.391 . S
C880 C879 1.387 . S
C880 C881 1.369 . S
C880 H889 0.929 . S
C881 N878 1.346 . S
C881 C880 1.369 . S
C881 H884 0.928 . S
C882 N878 1.345 . S
C882 C883 1.371 . S
C882 H885 0.931 . S
C883 C879 1.391 . S
C883 C882 1.371 . S
C883 H890 0.930 . S
H884 C881 0.928 . S
H885 C882 0.931 . S
H886 C862 0.930 . S
H887 C859 0.930 . S
H888 C868 0.930 . S
H889 C880 0.929 . S
H890 C883 0.930 . S
C891 C892 1.351 . S
C891 N894 1.368 . S
C891 H896 0.931 . S
C892 C891 1.351 . S
C892 N893 1.373 . S
C892 H920 0.930 . S
N893 C892 1.373 . S
N893 C895 1.340 . S
N894 C891 1.368 . S
N894 C895 1.321 . S
N894 Co897 2.135 . S
C895 N893 1.340 . S
C895 N894 1.321 . S
C895 H919 0.930 . S
H896 C891 0.931 . S
Co897 N894 2.135 . S
Co897 N900 2.121 . S
Co897 O905 2.055 . S
Co897 O908 2.039 . S
Co897 N911 2.140 . S
C898 O899 1.227 . S
C898 O908 1.265 . S
O899 C898 1.227 . S
N900 Co897 2.121 . S
N900 C902 1.375 . S
N900 C903 1.313 . S
C901 C902 1.338 . S
C901 N904 1.377 . S
C901 H921 0.930 . S
C902 N900 1.375 . S
C902 C901 1.338 . S
C902 H906 0.931 . S
C903 N900 1.313 . S
C903 N904 1.344 . S
C903 H907 0.930 . S
N904 C901 1.377 . S
N904 C903 1.344 . S
O905 Co897 2.055 . S
O905 C909 1.253 . S
H906 C902 0.931 . S
H907 C903 0.930 . S
O908 Co897 2.039 . S
O908 C898 1.265 . S
C909 O905 1.253 . S
C909 O910 1.227 . S
O910 C909 1.227 . S
N911 Co897 2.140 . S
N911 C914 1.346 . S
N911 C915 1.345 . S
C912 C913 1.387 . S
C912 C916 1.391 1_655 S
C913 C912 1.387 . S
C913 C914 1.369 1_655 S
C913 H922 0.929 . S
C914 N911 1.346 . S
C914 C913 1.369 1_455 S
C914 H917 0.928 . S
C915 N911 1.345 . S
C915 C916 1.371 . S
C915 H918 0.931 . S
C916 C912 1.391 1_455 S
C916 C915 1.371 . S
C916 H923 0.933 . S
H917 C914 0.928 . S
H918 C915 0.931 . S
H919 C895 0.930 . S
H920 C892 0.930 . S
H921 C901 0.930 . S
H922 C913 0.929 . S
H923 C916 0.933 . S
C924 C925 1.351 . S
C924 N927 1.368 . S
C924 H929 0.931 . S
C925 C924 1.351 . S
C925 N926 1.373 . S
C925 H953 0.930 . S
N926 C925 1.373 . S
N926 C928 1.340 . S
N927 C924 1.368 . S
N927 C928 1.321 . S
N927 Co930 2.135 . S
C928 N926 1.340 . S
C928 N927 1.321 . S
C928 H952 0.930 . S
H929 C924 0.931 . S
Co930 N927 2.135 . S
Co930 N933 2.121 . S
Co930 O938 2.055 . S
Co930 O941 2.039 . S
Co930 N944 2.140 . S
C931 O932 1.227 . S
C931 O941 1.265 . S
O932 C931 1.227 . S
N933 Co930 2.121 . S
N933 C935 1.375 . S
N933 C936 1.313 . S
C934 C935 1.338 . S
C934 N937 1.377 . S
C934 H954 0.930 . S
C935 N933 1.375 . S
C935 C934 1.338 . S
C935 H939 0.931 . S
C936 N933 1.313 . S
C936 N937 1.344 . S
C936 H940 0.930 . S
N937 C934 1.377 . S
N937 C936 1.344 . S
O938 Co930 2.055 . S
O938 C942 1.253 . S
H939 C935 0.931 . S
H940 C936 0.930 . S
O941 Co930 2.039 . S
O941 C931 1.265 . S
C942 O938 1.253 . S
C942 O943 1.227 . S
O943 C942 1.227 . S
N944 Co930 2.140 . S
N944 C947 1.346 . S
N944 C948 1.345 . S
C945 C946 1.387 . S
C945 C949 1.391 . S
C946 C945 1.387 . S
C946 C947 1.369 . S
C946 H955 0.929 . S
C947 N944 1.346 . S
C947 C946 1.369 . S
C947 H950 0.928 . S
C948 N944 1.345 . S
C948 C949 1.371 . S
C948 H951 0.931 . S
C949 C945 1.391 . S
C949 C948 1.371 . S
C949 H956 0.930 . S
H950 C947 0.928 . S
H951 C948 0.931 . S
H952 C928 0.930 . S
H953 C925 0.930 . S
H954 C934 0.930 . S
H955 C946 0.929 . S
H956 C949 0.930 . S
C957 C958 1.351 . S
C957 N960 1.368 . S
C957 H962 0.931 . S
C958 C957 1.351 . S
C958 N959 1.373 . S
C958 H986 0.930 . S
N959 C958 1.373 . S
N959 C961 1.340 1_556 S
N960 C957 1.368 . S
N960 C961 1.321 1_556 S
N960 Co963 2.135 1_556 S
C961 N959 1.340 1_554 S
C961 N960 1.321 1_554 S
C961 H985 0.930 . S
H962 C957 0.931 . S
Co963 N960 2.135 1_554 S
Co963 N966 2.121 . S
Co963 O971 2.055 1_554 S
Co963 O974 2.039 . S
Co963 N977 2.140 . S
C964 O965 1.227 . S
C964 O974 1.265 . S
O965 C964 1.227 . S
N966 Co963 2.121 . S
N966 C968 1.375 . S
N966 C969 1.313 . S
C967 C968 1.338 . S
C967 N970 1.377 . S
C967 H987 0.930 . S
C968 N966 1.375 . S
C968 C967 1.338 . S
C968 H972 0.931 . S
C969 N966 1.313 . S
C969 N970 1.344 . S
C969 H973 0.930 . S
N970 C967 1.377 . S
N970 C969 1.344 . S
O971 Co963 2.055 1_556 S
O971 C975 1.253 . S
H972 C968 0.931 . S
H973 C969 0.930 . S
O974 Co963 2.039 . S
O974 C964 1.265 . S
C975 O971 1.253 . S
C975 O976 1.227 . S
O976 C975 1.227 . S
N977 Co963 2.140 . S
N977 C980 1.346 . S
N977 C981 1.345 . S
C978 C979 1.387 . S
C978 C982 1.391 1_655 S
C979 C978 1.387 . S
C979 C980 1.369 1_655 S
C979 H988 0.929 . S
C980 N977 1.346 . S
C980 C979 1.369 1_455 S
C980 H983 0.928 . S
C981 N977 1.345 . S
C981 C982 1.371 . S
C981 H984 0.931 . S
C982 C978 1.391 1_455 S
C982 C981 1.371 . S
C982 H989 0.933 . S
H983 C980 0.928 . S
H984 C981 0.931 . S
H985 C961 0.930 . S
H986 C958 0.930 . S
H987 C967 0.930 . S
H988 C979 0.929 . S
H989 C982 0.933 . S
C990 C991 1.351 . S
C990 N993 1.368 . S
C990 H995 0.931 . S
C991 C990 1.351 . S
C991 N992 1.373 . S
C991 H1019 0.930 . S
N992 C991 1.373 . S
N992 C994 1.340 . S
N993 C990 1.368 . S
N993 C994 1.321 . S
N993 Co996 2.135 . S
C994 N992 1.340 . S
C994 N993 1.321 . S
C994 H1018 0.930 . S
H995 C990 0.931 . S
Co996 N993 2.135 . S
Co996 N999 2.121 . S
Co996 O1004 2.055 . S
Co996 O1007 2.039 . S
Co996 N1010 2.140 . S
C997 O998 1.227 . S
C997 O1007 1.265 . S
O998 C997 1.227 . S
N999 Co996 2.121 . S
N999 C1001 1.375 . S
N999 C1002 1.313 . S
C1000 C1001 1.338 1_554 S
C1000 N1003 1.377 1_554 S
C1000 H1020 0.930 . S
C1001 N999 1.375 . S
C1001 C1000 1.338 1_556 S
C1001 H1005 0.931 1_556 S
C1002 N999 1.313 . S
C1002 N1003 1.344 . S
C1002 H1006 0.930 . S
N1003 C1000 1.377 1_556 S
N1003 C1002 1.344 . S
O1004 Co996 2.055 . S
O1004 C1008 1.253 . S
H1005 C1001 0.931 1_554 S
H1006 C1002 0.930 . S
O1007 Co996 2.039 . S
O1007 C997 1.265 . S
C1008 O1004 1.253 . S
C1008 O1009 1.227 . S
O1009 C1008 1.227 . S
N1010 Co996 2.140 . S
N1010 C1013 1.346 . S
N1010 C1014 1.345 . S
C1011 C1012 1.387 . S
C1011 C1015 1.391 . S
C1012 C1011 1.387 . S
C1012 C1013 1.369 . S
C1012 H1021 0.929 . S
C1013 N1010 1.346 . S
C1013 C1012 1.369 . S
C1013 H1016 0.928 . S
C1014 N1010 1.345 . S
C1014 C1015 1.371 . S
C1014 H1017 0.931 . S
C1015 C1011 1.391 . S
C1015 C1014 1.371 . S
C1015 H1022 0.930 . S
H1016 C1013 0.928 . S
H1017 C1014 0.931 . S
H1018 C994 0.930 . S
H1019 C991 0.930 . S
H1020 C1000 0.930 . S
H1021 C1012 0.929 . S
H1022 C1015 0.930 . S
C1023 C1024 1.351 . S
C1023 N1026 1.368 . S
C1023 H1028 0.931 . S
C1024 C1023 1.351 . S
C1024 N1025 1.373 . S
C1024 H1052 0.930 . S
N1025 C1024 1.373 . S
N1025 C1027 1.340 . S
N1026 C1023 1.368 . S
N1026 C1027 1.321 . S
N1026 Co1029 2.135 . S
C1027 N1025 1.340 . S
C1027 N1026 1.321 . S
C1027 H1051 0.930 . S
H1028 C1023 0.931 . S
Co1029 N1026 2.135 . S
Co1029 N1032 2.121 . S
Co1029 O1037 2.055 . S
Co1029 O1040 2.039 . S
Co1029 N1043 2.140 . S
C1030 O1031 1.227 . S
C1030 O1040 1.265 . S
O1031 C1030 1.227 . S
N1032 Co1029 2.121 . S
N1032 C1034 1.375 . S
N1032 C1035 1.313 . S
C1033 C1034 1.338 . S
C1033 N1036 1.377 . S
C1033 H1053 0.930 . S
C1034 N1032 1.375 . S
C1034 C1033 1.338 . S
C1034 H1038 0.931 . S
C1035 N1032 1.313 . S
C1035 N1036 1.344 . S
C1035 H1039 0.930 . S
N1036 C1033 1.377 . S
N1036 C1035 1.344 . S
O1037 Co1029 2.055 . S
O1037 C1041 1.253 . S
H1038 C1034 0.931 . S
H1039 C1035 0.930 . S
O1040 Co1029 2.039 . S
O1040 C1030 1.265 . S
C1041 O1037 1.253 . S
C1041 O1042 1.227 . S
O1042 C1041 1.227 . S
N1043 Co1029 2.140 . S
N1043 C1046 1.346 . S
N1043 C1047 1.345 . S
C1044 C1045 1.387 . S
C1044 C1048 1.391 . S
C1045 C1044 1.387 . S
C1045 C1046 1.369 . S
C1045 H1054 0.929 . S
C1046 N1043 1.346 . S
C1046 C1045 1.369 . S
C1046 H1049 0.928 . S
C1047 N1043 1.345 . S
C1047 C1048 1.371 . S
C1047 H1050 0.931 . S
C1048 C1044 1.391 . S
C1048 C1047 1.371 . S
C1048 H1055 0.930 . S
H1049 C1046 0.928 . S
H1050 C1047 0.931 . S
H1051 C1027 0.930 . S
H1052 C1024 0.930 . S
H1053 C1033 0.930 . S
H1054 C1045 0.929 . S
H1055 C1048 0.930 . S
C249 C18 1.933 . S
C51 C150 1.933 . S
C84 C183 1.933 . S
C216 C117 1.933 . S
C282 C513 1.933 . S
C414 C315 1.933 . S
C348 C447 1.933 . S
C480 C381 1.933 . S
C777 C546 1.933 . S
C678 C579 1.933 . S
C711 C612 1.933 . S
C744 C645 1.933 . S
C1041 C810 1.933 . S
C843 C942 1.933 . S
C975 C876 1.933 . S
C1008 C909 1.933 . S
C21 N904 2.498 . S
N277 C54 2.498 . S
N838 C87 2.498 . S
C120 N343 2.498 . S
N970 C153 2.498 . S
C186 N475 2.498 . S
N1036 C219 2.498 . S
N409 C252 2.498 . S
C285 N640 2.498 . S
C318 N13 2.498 . S
N574 C351 2.498 . S
N79 C384 2.498 . S
N706 C417 2.498 . S
N211 C450 2.498 . S
C483 N772 2.498 . S
C516 N145 2.498 . S
C549 N376 2.498 . S
N805 C582 2.498 . S
N310 C615 2.498 . S
C648 N871 2.498 . S
C681 N442 2.498 . S
N1003 C714 2.498 . S
N508 C747 2.498 . S
C780 N937 2.498 . S
N112 C813 2.498 . S
N541 C846 2.498 . S
N46 C879 2.498 . S
N607 C912 2.498 . S
C945 N178 2.498 . S
C978 N739 2.498 . S
C1011 N244 2.498 . S
N673 C1044 2.498 . S
N2 N794 3.211 . S
N35 N299 3.211 1_445 S
N68 N860 3.211 . S
N365 N101 3.211 1_544 S
N926 N134 3.211 . S
N167 N431 3.211 1_545 S
N200 N992 3.211 . S
N233 N497 3.211 1_464 S
N530 N266 3.211 . S
N332 N596 3.211 . S
N662 N398 3.211 . S
N464 N728 3.211 . S
N563 N827 3.211 1_556 S
N893 N629 3.211 1_455 S
N695 N959 3.211 1_654 S
N1025 N761 3.211 . S
C7 C205 2.252 . S
C238 C40 2.252 1_545 S
C139 C73 2.252 1_554 S
C172 C106 2.252 1_565 S
C271 C469 2.252 . S
C304 C502 2.252 1_545 S
C403 C337 2.252 1_556 S
C436 C370 2.252 1_545 S
C535 C733 2.252 1_556 S
C568 C766 2.252 . S
C667 C601 2.252 . S
C700 C634 2.252 . S
C799 C997 2.252 1_554 S
C832 C1030 2.252 . S
C931 C865 2.252 . S
C898 C964 2.252 . S
