# Generated by pormake.
# Topology zfp, (5)-cn, num edge types: 1
# Building blocks:
#     Node 0, Type 0, BuildingBlock: XOMCOT_clean_sbu_0, # of connection points: 5
#     Node 1, Type 0, BuildingBlock: XOMCOT_clean_sbu_0, # of connection points: 5
#     Node 2, Type 0, BuildingBlock: XOMCOT_clean_sbu_0, # of connection points: 5
#     Node 3, Type 0, BuildingBlock: XOMCOT_clean_sbu_0, # of connection points: 5
#     Node 4, Type 0, BuildingBlock: XOMCOT_clean_sbu_0, # of connection points: 5
#     Node 5, Type 0, BuildingBlock: XOMCOT_clean_sbu_0, # of connection points: 5
#     Node 6, Type 0, BuildingBlock: XOMCOT_clean_sbu_0, # of connection points: 5
#     Node 7, Type 0, BuildingBlock: XOMCOT_clean_sbu_0, # of connection points: 5
#     Node 8, Type 0, BuildingBlock: XOMCOT_clean_sbu_0, # of connection points: 5
#     Node 9, Type 0, BuildingBlock: XOMCOT_clean_sbu_0, # of connection points: 5
#     Node 10, Type 0, BuildingBlock: XOMCOT_clean_sbu_0, # of connection points: 5
#     Node 11, Type 0, BuildingBlock: XOMCOT_clean_sbu_0, # of connection points: 5
#     Node 12, Type 0, BuildingBlock: XOMCOT_clean_sbu_0, # of connection points: 5
#     Node 13, Type 0, BuildingBlock: XOMCOT_clean_sbu_0, # of connection points: 5
#     Node 14, Type 0, BuildingBlock: XOMCOT_clean_sbu_0, # of connection points: 5
#     Node 15, Type 0, BuildingBlock: XOMCOT_clean_sbu_0, # of connection points: 5
#     Edge 16, Type (0, 0), BuildingBlock: XIVTED_clean_linker_0, # of connection points: 2
#     Edge 17, Type (0, 0), BuildingBlock: XIVTED_clean_linker_0, # of connection points: 2
#     Edge 18, Type (0, 0), BuildingBlock: XIVTED_clean_linker_0, # of connection points: 2
#     Edge 19, Type (0, 0), BuildingBlock: XIVTED_clean_linker_0, # of connection points: 2
#     Edge 20, Type (0, 0), BuildingBlock: XIVTED_clean_linker_0, # of connection points: 2
#     Edge 21, Type (0, 0), BuildingBlock: XIVTED_clean_linker_0, # of connection points: 2
#     Edge 22, Type (0, 0), BuildingBlock: XIVTED_clean_linker_0, # of connection points: 2
#     Edge 23, Type (0, 0), BuildingBlock: XIVTED_clean_linker_0, # of connection points: 2
#     Edge 24, Type (0, 0), BuildingBlock: XIVTED_clean_linker_0, # of connection points: 2
#     Edge 25, Type (0, 0), BuildingBlock: XIVTED_clean_linker_0, # of connection points: 2
#     Edge 26, Type (0, 0), BuildingBlock: XIVTED_clean_linker_0, # of connection points: 2
#     Edge 27, Type (0, 0), BuildingBlock: XIVTED_clean_linker_0, # of connection points: 2
#     Edge 28, Type (0, 0), BuildingBlock: XIVTED_clean_linker_0, # of connection points: 2
#     Edge 29, Type (0, 0), BuildingBlock: XIVTED_clean_linker_0, # of connection points: 2
#     Edge 30, Type (0, 0), BuildingBlock: XIVTED_clean_linker_0, # of connection points: 2
#     Edge 31, Type (0, 0), BuildingBlock: XIVTED_clean_linker_0, # of connection points: 2
#     Edge 32, Type (0, 0), BuildingBlock: XIVTED_clean_linker_0, # of connection points: 2
#     Edge 33, Type (0, 0), BuildingBlock: XIVTED_clean_linker_0, # of connection points: 2
#     Edge 34, Type (0, 0), BuildingBlock: XIVTED_clean_linker_0, # of connection points: 2
#     Edge 35, Type (0, 0), BuildingBlock: XIVTED_clean_linker_0, # of connection points: 2
#     Edge 36, Type (0, 0), BuildingBlock: XIVTED_clean_linker_0, # of connection points: 2
#     Edge 37, Type (0, 0), BuildingBlock: XIVTED_clean_linker_0, # of connection points: 2
#     Edge 38, Type (0, 0), BuildingBlock: XIVTED_clean_linker_0, # of connection points: 2
#     Edge 39, Type (0, 0), BuildingBlock: XIVTED_clean_linker_0, # of connection points: 2
#     Edge 40, Type (0, 0), BuildingBlock: XIVTED_clean_linker_0, # of connection points: 2
#     Edge 41, Type (0, 0), BuildingBlock: XIVTED_clean_linker_0, # of connection points: 2
#     Edge 42, Type (0, 0), BuildingBlock: XIVTED_clean_linker_0, # of connection points: 2
#     Edge 43, Type (0, 0), BuildingBlock: XIVTED_clean_linker_0, # of connection points: 2
#     Edge 44, Type (0, 0), BuildingBlock: XIVTED_clean_linker_0, # of connection points: 2
#     Edge 45, Type (0, 0), BuildingBlock: XIVTED_clean_linker_0, # of connection points: 2
#     Edge 46, Type (0, 0), BuildingBlock: XIVTED_clean_linker_0, # of connection points: 2
#     Edge 47, Type (0, 0), BuildingBlock: XIVTED_clean_linker_0, # of connection points: 2
#     Edge 48, Type (0, 0), BuildingBlock: XIVTED_clean_linker_0, # of connection points: 2
#     Edge 49, Type (0, 0), BuildingBlock: XIVTED_clean_linker_0, # of connection points: 2
#     Edge 50, Type (0, 0), BuildingBlock: XIVTED_clean_linker_0, # of connection points: 2
#     Edge 51, Type (0, 0), BuildingBlock: XIVTED_clean_linker_0, # of connection points: 2
#     Edge 52, Type (0, 0), BuildingBlock: XIVTED_clean_linker_0, # of connection points: 2
#     Edge 53, Type (0, 0), BuildingBlock: XIVTED_clean_linker_0, # of connection points: 2
#     Edge 54, Type (0, 0), BuildingBlock: XIVTED_clean_linker_0, # of connection points: 2
#     Edge 55, Type (0, 0), BuildingBlock: XIVTED_clean_linker_0, # of connection points: 2
# Relax obj value: 0.349
# Max RMSD: 0.237
# Mean RMSD: 0.237
data_MOF--net-zfp--node1-XOMCOT_clean_sbu_0--edge1-XIVTED_clean_linker_0
_symmetry_space_group_name_H-M    P1
_symmetry_Int_Tables_number       1
_symmetry_cell_setting            triclinic
loop_
_symmetry_equiv_pos_as_xyz
'x, y, z'
_cell_length_a     29.511924
_cell_length_b     29.516799
_cell_length_c     70.553362
_cell_angle_alpha  90.335946
_cell_angle_beta   89.814763
_cell_angle_gamma 89.887943
loop_
_atom_site_label
_atom_site_type_symbol
_atom_site_fract_x
_atom_site_fract_y
_atom_site_fract_z
_atom_type_partial_charge
Co0 Co 0.25172 0.32564 0.13617 0.0
C1 C 0.26769 0.29387 0.17618 0.0
C2 C 0.19733 0.30236 0.16957 0.0
C3 C 0.20065 0.28997 0.18817 0.0
N4 N 0.23915 0.30392 0.16176 0.0
N5 N 0.24476 0.28478 0.19239 0.0
H6 H 0.30424 0.2945 0.17514 0.0
H7 H 0.16637 0.31223 0.16255 0.0
C8 C 0.17297 0.25922 0.13155 0.0
O9 O 0.19562 0.22817 0.14088 0.0
N10 N 0.26372 0.34805 0.11092 0.0
C11 C 0.28265 0.38843 0.10706 0.0
C12 C 0.28202 0.3949 0.0878 0.0
C13 C 0.25219 0.3301 0.09392 0.0
N14 N 0.26273 0.35841 0.07955 0.0
C15 C 0.21935 0.4021 0.15819 0.0
C16 C 0.14952 0.42252 0.13359 0.0
C17 C 0.15043 0.44363 0.15142 0.0
C18 C 0.18658 0.43409 0.16365 0.0
C19 C 0.18227 0.39062 0.12886 0.0
N20 N 0.21525 0.37905 0.14144 0.0
H21 H 0.24636 0.3937 0.16788 0.0
H22 H 0.17961 0.37349 0.11535 0.0
H23 H 0.29475 0.41219 0.11761 0.0
H24 H 0.23477 0.29812 0.09218 0.0
O25 O 0.31072 0.3479 0.14396 0.0
O26 O 0.29968 0.27966 0.13216 0.0
O27 O 0.19319 0.29573 0.12668 0.0
C28 C 0.32859 0.31006 0.13818 0.0
H29 H 0.17288 0.28773 0.19819 0.0
H30 H 0.29426 0.42455 0.08044 0.0
H31 H 0.12221 0.42854 0.1237 0.0
H32 H 0.18884 0.45024 0.17744 0.0
Co33 Co 0.74433 0.23633 0.63847 0.0
C34 C 0.76001 0.25288 0.67939 0.0
C35 C 0.82179 0.23864 0.66431 0.0
C36 C 0.83165 0.24364 0.68328 0.0
N37 N 0.77692 0.24415 0.66195 0.0
N38 N 0.79276 0.25239 0.69278 0.0
H39 H 0.72428 0.25767 0.68227 0.0
H40 H 0.84552 0.23068 0.65305 0.0
C41 C 0.7879 0.15502 0.61842 0.0
O42 O 0.78388 0.17418 0.60176 0.0
N43 N 0.71183 0.22799 0.61456 0.0
C44 C 0.68806 0.19076 0.60944 0.0
C45 C 0.67833 0.19286 0.59043 0.0
C46 C 0.7157 0.25241 0.59841 0.0
N47 N 0.69577 0.23151 0.58355 0.0
C48 C 0.65479 0.21061 0.65006 0.0
C49 C 0.68076 0.1304 0.66711 0.0
C50 C 0.6349 0.13766 0.66314 0.0
C51 C 0.6217 0.17939 0.65544 0.0
C52 C 0.71267 0.1622 0.66131 0.0
N53 N 0.6996 0.20001 0.65166 0.0
H54 H 0.64468 0.24138 0.64297 0.0
H55 H 0.74811 0.1551 0.66368 0.0
H56 H 0.68172 0.16187 0.61841 0.0
H57 H 0.73577 0.28282 0.59703 0.0
O58 O 0.71691 0.29535 0.64205 0.0
O59 O 0.78182 0.28429 0.62711 0.0
O60 O 0.78009 0.17799 0.63355 0.0
C61 C 0.7513 0.313 0.63335 0.0
H62 H 0.86492 0.24082 0.68957 0.0
H63 H 0.6621 0.16672 0.58204 0.0
H64 H 0.69232 0.09882 0.67319 0.0
H65 H 0.58643 0.1865 0.65245 0.0
Co66 Co 0.7766 0.72675 0.13487 0.0
C67 C 0.7695 0.74556 0.17712 0.0
C68 C 0.77395 0.80553 0.1603 0.0
C69 C 0.77274 0.81813 0.17913 0.0
N70 N 0.77289 0.75991 0.15895 0.0
N71 N 0.77 0.78034 0.18968 0.0
H72 H 0.76769 0.71082 0.18144 0.0
H73 H 0.77664 0.82814 0.14834 0.0
C74 C 0.86661 0.77039 0.13982 0.0
O75 O 0.86203 0.75953 0.15774 0.0
N76 N 0.7787 0.6951 0.11079 0.0
C77 C 0.7682 0.65117 0.10819 0.0
C78 C 0.7723 0.64083 0.08926 0.0
C79 C 0.78851 0.71123 0.09335 0.0
N80 N 0.78512 0.67847 0.07989 0.0
C81 C 0.7964 0.64868 0.15878 0.0
C82 C 0.88219 0.6351 0.14405 0.0
C83 C 0.86769 0.60829 0.15908 0.0
C84 C 0.82387 0.61431 0.16631 0.0
C85 C 0.85402 0.66866 0.13716 0.0
N86 N 0.81309 0.67779 0.14547 0.0
H87 H 0.76159 0.65138 0.16341 0.0
H88 H 0.86502 0.68667 0.12473 0.0
H89 H 0.75778 0.62833 0.11931 0.0
H90 H 0.7979 0.74602 0.09062 0.0
O91 O 0.71642 0.70261 0.13925 0.0
O92 O 0.7309 0.76719 0.12466 0.0
O93 O 0.83467 0.76118 0.12805 0.0
C94 C 0.70086 0.73804 0.13051 0.0
H95 H 0.7738 0.85243 0.18462 0.0
H96 H 0.76517 0.60823 0.08285 0.0
H97 H 0.91504 0.62971 0.13748 0.0
H98 H 0.81082 0.59228 0.17725 0.0
Co99 Co 0.31836 0.76844 0.6299 0.0
C100 C 0.30482 0.76509 0.67268 0.0
C101 C 0.24324 0.76617 0.6567 0.0
C102 C 0.2323 0.76508 0.67564 0.0
N103 N 0.28871 0.76707 0.65472 0.0
N104 N 0.27101 0.7645 0.6857 0.0
H105 H 0.34004 0.76454 0.67646 0.0
H106 H 0.21951 0.76675 0.64505 0.0
C107 C 0.27151 0.85713 0.63424 0.0
O108 O 0.28629 0.85538 0.65174 0.0
N109 N 0.34617 0.7677 0.60502 0.0
C110 C 0.3886 0.75339 0.60116 0.0
C111 C 0.39489 0.75319 0.58184 0.0
C112 C 0.32716 0.77631 0.58801 0.0
N113 N 0.35633 0.76754 0.57359 0.0
C114 C 0.39811 0.79692 0.65132 0.0
C115 C 0.40728 0.87808 0.6324 0.0
C116 C 0.43768 0.86799 0.64691 0.0
C117 C 0.43321 0.82666 0.65643 0.0
C118 C 0.37306 0.84788 0.62795 0.0
N119 N 0.36665 0.80916 0.63812 0.0
H120 H 0.39733 0.76356 0.65747 0.0
H121 H 0.35241 0.8553 0.61579 0.0
H122 H 0.41299 0.74295 0.61168 0.0
H123 H 0.29242 0.78726 0.58619 0.0
O124 O 0.34694 0.71101 0.6353 0.0
O125 O 0.27959 0.7181 0.62202 0.0
O126 O 0.27969 0.82389 0.62277 0.0
C127 C 0.31165 0.69131 0.62805 0.0
H128 H 0.19841 0.76426 0.68153 0.0
H129 H 0.42549 0.74324 0.57439 0.0
H130 H 0.4101 0.90909 0.62434 0.0
H131 H 0.45742 0.81679 0.66715 0.0
Co132 Co 0.7424 0.23792 0.88746 0.0
C133 C 0.75736 0.25689 0.84615 0.0
C134 C 0.72335 0.31133 0.86054 0.0
C135 C 0.72666 0.32196 0.84166 0.0
N136 N 0.74152 0.26996 0.86338 0.0
N137 N 0.74769 0.28755 0.83255 0.0
H138 H 0.77538 0.22566 0.8435 0.0
H139 H 0.70851 0.33273 0.87139 0.0
C140 C 0.66256 0.28386 0.90981 0.0
O141 O 0.67652 0.27127 0.92656 0.0
N142 N 0.74473 0.20586 0.91146 0.0
C143 C 0.74262 0.16053 0.9134 0.0
C144 C 0.74737 0.1499 0.93218 0.0
C145 C 0.75382 0.22189 0.92905 0.0
N146 N 0.75359 0.18853 0.94216 0.0
C147 C 0.70976 0.16552 0.86257 0.0
C148 C 0.62848 0.15477 0.8815 0.0
C149 C 0.63719 0.12779 0.86557 0.0
C150 C 0.67846 0.13332 0.85596 0.0
C151 C 0.66036 0.18587 0.88757 0.0
N152 N 0.69978 0.19264 0.87782 0.0
H153 H 0.74247 0.16722 0.85586 0.0
H154 H 0.65396 0.20239 0.90086 0.0
H155 H 0.73832 0.13653 0.90192 0.0
H156 H 0.75934 0.25736 0.93221 0.0
O157 O 0.79896 0.20893 0.88073 0.0
O158 O 0.79411 0.27499 0.89547 0.0
O159 O 0.68712 0.27653 0.89506 0.0
C160 C 0.81991 0.24301 0.88841 0.0
H161 H 0.71455 0.3528 0.83517 0.0
H162 H 0.74655 0.11604 0.93795 0.0
H163 H 0.59735 0.15144 0.88955 0.0
H164 H 0.68704 0.11205 0.84391 0.0
Co165 Co 0.81722 0.76417 0.38633 0.0
C166 C 0.80098 0.76833 0.34376 0.0
C167 C 0.74083 0.75944 0.36039 0.0
C168 C 0.72881 0.76011 0.34159 0.0
N169 N 0.78622 0.76348 0.36187 0.0
N170 N 0.76662 0.76563 0.33113 0.0
H171 H 0.83563 0.7735 0.3396 0.0
H172 H 0.71796 0.7557 0.37229 0.0
C173 C 0.77725 0.67229 0.38248 0.0
O174 O 0.79171 0.67483 0.3649 0.0
N175 N 0.84611 0.76689 0.41091 0.0
C176 C 0.88772 0.78371 0.41428 0.0
C177 C 0.89461 0.78515 0.43355 0.0
C178 C 0.82817 0.75808 0.42814 0.0
N179 N 0.85722 0.76911 0.44223 0.0
C180 C 0.89736 0.74008 0.36373 0.0
C181 C 0.91323 0.66063 0.38316 0.0
C182 C 0.94155 0.67159 0.368 0.0
C183 C 0.93375 0.71208 0.35822 0.0
C184 C 0.8776 0.68898 0.38797 0.0
N185 N 0.86786 0.7267 0.37759 0.0
H186 H 0.89411 0.77307 0.35741 0.0
H187 H 0.85831 0.68082 0.40048 0.0
H188 H 0.91103 0.79515 0.40347 0.0
H189 H 0.79414 0.74549 0.43034 0.0
O190 O 0.84117 0.82367 0.3807 0.0
O191 O 0.77533 0.81134 0.3948 0.0
O192 O 0.78304 0.70617 0.39385 0.0
C193 C 0.80501 0.84051 0.38862 0.0
H194 H 0.69476 0.75727 0.33606 0.0
H195 H 0.92477 0.7972 0.44065 0.0
H196 H 0.91867 0.63026 0.39142 0.0
H197 H 0.95632 0.72262 0.34695 0.0
Co198 Co 0.28491 0.81092 0.8799 0.0
C199 C 0.28076 0.78513 0.83943 0.0
C200 C 0.3068 0.73094 0.85644 0.0
C201 C 0.30842 0.71784 0.83765 0.0
N202 N 0.28982 0.77322 0.85748 0.0
N203 N 0.29217 0.75202 0.82696 0.0
H204 H 0.26806 0.81817 0.83549 0.0
H205 H 0.31826 0.71146 0.86845 0.0
C206 C 0.37638 0.80865 0.89727 0.0
O207 O 0.36965 0.85204 0.90054 0.0
N208 N 0.27824 0.84755 0.90299 0.0
C209 C 0.2541 0.88609 0.90534 0.0
C210 C 0.25237 0.89706 0.92428 0.0
C211 C 0.28827 0.8343 0.92089 0.0
N212 N 0.274 0.8646 0.9341 0.0
C213 C 0.30231 0.90021 0.86412 0.0
C214 C 0.38823 0.87932 0.85098 0.0
C215 C 0.37432 0.92463 0.85127 0.0
C216 C 0.32986 0.93469 0.85701 0.0
C217 C 0.35977 0.84623 0.85835 0.0
N218 N 0.31908 0.85754 0.86647 0.0
H219 H 0.26786 0.90807 0.86779 0.0
H220 H 0.37166 0.81159 0.85837 0.0
H221 H 0.23537 0.90344 0.89451 0.0
H222 H 0.30507 0.80272 0.9242 0.0
O223 O 0.22425 0.82786 0.87255 0.0
O224 O 0.24111 0.76924 0.8907 0.0
O225 O 0.34458 0.78488 0.88977 0.0
C226 C 0.21003 0.79402 0.88265 0.0
H227 H 0.32092 0.68573 0.83228 0.0
H228 H 0.23419 0.92547 0.93043 0.0
H229 H 0.42196 0.86974 0.84634 0.0
H230 H 0.31707 0.9691 0.85661 0.0
Co231 Co 0.23936 0.29707 0.38265 0.0
C232 C 0.26637 0.28804 0.34262 0.0
C233 C 0.32122 0.31347 0.35951 0.0
C234 C 0.33534 0.31082 0.34085 0.0
N235 N 0.2779 0.2995 0.36049 0.0
N236 N 0.30077 0.29477 0.33026 0.0
H237 H 0.23291 0.27638 0.33873 0.0
H238 H 0.34096 0.32515 0.37146 0.0
C239 C 0.24449 0.38868 0.40015 0.0
O240 O 0.20094 0.38284 0.40318 0.0
N241 N 0.2022 0.29208 0.40555 0.0
C242 C 0.16367 0.26808 0.40793 0.0
C243 C 0.15308 0.26651 0.4269 0.0
C244 C 0.21601 0.30177 0.42344 0.0
N245 N 0.18599 0.28776 0.43666 0.0
C246 C 0.15029 0.325 0.36872 0.0
C247 C 0.1807 0.40592 0.3538 0.0
C248 C 0.13414 0.39908 0.35582 0.0
C249 C 0.11886 0.35719 0.36255 0.0
C250 C 0.21072 0.37334 0.36048 0.0
N251 N 0.19537 0.33505 0.3693 0.0
H252 H 0.13805 0.2928 0.3734 0.0
H253 H 0.24652 0.38071 0.35981 0.0
H254 H 0.14633 0.24911 0.39706 0.0
H255 H 0.24797 0.31782 0.42675 0.0
O256 O 0.21873 0.23795 0.37456 0.0
O257 O 0.27769 0.2493 0.39323 0.0
O258 O 0.26801 0.35586 0.39295 0.0
C259 C 0.25127 0.22052 0.38449 0.0
H260 H 0.36852 0.31987 0.33553 0.0
H261 H 0.12485 0.2485 0.43313 0.0
H262 H 0.19393 0.43768 0.34853 0.0
H263 H 0.08295 0.35014 0.3637 0.0
Co264 Co 0.78543 0.73165 0.88431 0.0
C265 C 0.77618 0.75465 0.84393 0.0
C266 C 0.80317 0.81054 0.85989 0.0
C267 C 0.80167 0.82239 0.84101 0.0
N268 N 0.78758 0.76794 0.86161 0.0
N269 N 0.78477 0.78715 0.831 0.0
H270 H 0.76371 0.7211 0.84056 0.0
H271 H 0.81561 0.83114 0.87148 0.0
C272 C 0.87773 0.7374 0.90047 0.0
O273 O 0.87221 0.69415 0.90411 0.0
N274 N 0.78088 0.69663 0.90774 0.0
C275 C 0.75598 0.65896 0.91073 0.0
C276 C 0.75586 0.64908 0.92973 0.0
C277 C 0.79259 0.71082 0.9254 0.0
N278 N 0.779 0.68162 0.93897 0.0
C279 C 0.81077 0.64065 0.87106 0.0
C280 C 0.89081 0.66848 0.8543 0.0
C281 C 0.88314 0.62224 0.85668 0.0
C282 C 0.84175 0.60819 0.86445 0.0
C283 C 0.85961 0.69951 0.86149 0.0
N284 N 0.82166 0.68556 0.87104 0.0
H285 H 0.77882 0.62931 0.87647 0.0
H286 H 0.86774 0.73506 0.86043 0.0
H287 H 0.73572 0.64166 0.90027 0.0
H288 H 0.81001 0.7423 0.9283 0.0
O289 O 0.72522 0.71206 0.87744 0.0
O290 O 0.74037 0.77259 0.89499 0.0
O291 O 0.84468 0.76022 0.89341 0.0
C292 C 0.71001 0.74644 0.88717 0.0
H293 H 0.81237 0.85442 0.83512 0.0
H294 H 0.73781 0.62148 0.93638 0.0
H295 H 0.92229 0.68075 0.84829 0.0
H296 H 0.83416 0.57251 0.86599 0.0
Co297 Co 0.30645 0.79831 0.37879 0.0
C298 C 0.29191 0.77936 0.33773 0.0
C299 C 0.22979 0.7905 0.35304 0.0
C300 C 0.21977 0.78494 0.33414 0.0
N301 N 0.27493 0.78734 0.35525 0.0
N302 N 0.25881 0.77823 0.32449 0.0
H303 H 0.32776 0.77659 0.33464 0.0
H304 H 0.20595 0.7976 0.36435 0.0
C305 C 0.25935 0.87954 0.39667 0.0
O306 O 0.26031 0.8604 0.41342 0.0
N307 N 0.33736 0.81027 0.40283 0.0
C308 C 0.36022 0.8486 0.40716 0.0
C309 C 0.36846 0.84991 0.42631 0.0
C310 C 0.3323 0.78873 0.41965 0.0
N311 N 0.35066 0.81247 0.43416 0.0
C312 C 0.39691 0.82071 0.36759 0.0
C313 C 0.37403 0.89972 0.34888 0.0
C314 C 0.41942 0.89177 0.35353 0.0
C315 C 0.43107 0.85053 0.36205 0.0
C316 C 0.34096 0.86924 0.35483 0.0
N317 N 0.3525 0.83212 0.36525 0.0
H318 H 0.40581 0.79056 0.37538 0.0
H319 H 0.30585 0.87694 0.35197 0.0
H320 H 0.36719 0.87585 0.39741 0.0
H321 H 0.31253 0.75831 0.4216 0.0
O322 O 0.33347 0.73876 0.37714 0.0
O323 O 0.26763 0.75303 0.39094 0.0
O324 O 0.27094 0.85697 0.38191 0.0
C325 C 0.29816 0.72308 0.38588 0.0
H326 H 0.18627 0.78632 0.32797 0.0
H327 H 0.38435 0.87741 0.43401 0.0
H328 H 0.36369 0.93097 0.34217 0.0
H329 H 0.46594 0.84295 0.36561 0.0
Co330 Co 0.24815 0.30822 0.88411 0.0
C331 C 0.25642 0.29011 0.84184 0.0
C332 C 0.24939 0.23008 0.85851 0.0
C333 C 0.25186 0.2176 0.83971 0.0
N334 N 0.25114 0.27566 0.85993 0.0
N335 N 0.25625 0.25537 0.82925 0.0
H336 H 0.25992 0.32485 0.83766 0.0
H337 H 0.2458 0.20743 0.87041 0.0
C338 C 0.15796 0.26409 0.87971 0.0
O339 O 0.16201 0.27571 0.86185 0.0
N340 N 0.24705 0.33922 0.90834 0.0
C341 C 0.25658 0.38338 0.911 0.0
C342 C 0.25325 0.39325 0.92998 0.0
C343 C 0.23877 0.32246 0.9258 0.0
N344 N 0.24203 0.35507 0.93932 0.0
C345 C 0.22448 0.38656 0.86085 0.0
C346 C 0.1418 0.40042 0.87844 0.0
C347 C 0.15469 0.42931 0.86384 0.0
C348 C 0.19668 0.42251 0.85494 0.0
C349 C 0.1701 0.36534 0.8837 0.0
N350 N 0.20971 0.35665 0.87425 0.0
H351 H 0.25851 0.38423 0.85532 0.0
H352 H 0.16076 0.34638 0.8961 0.0
H353 H 0.26563 0.40673 0.89986 0.0
H354 H 0.23043 0.2874 0.92852 0.0
O355 O 0.30721 0.33417 0.87905 0.0
O356 O 0.2963 0.269 0.89362 0.0
O357 O 0.19067 0.27246 0.8913 0.0
C358 C 0.32484 0.29933 0.88746 0.0
H359 H 0.25088 0.18334 0.83417 0.0
H360 H 0.25966 0.42592 0.93648 0.0
H361 H 0.1103 0.40554 0.88612 0.0
H362 H 0.20858 0.4457 0.84418 0.0
Co363 Co 0.73749 0.25892 0.38948 0.0
C364 C 0.75602 0.27084 0.34776 0.0
C365 C 0.80921 0.23569 0.36209 0.0
C366 C 0.82061 0.23893 0.34327 0.0
N367 N 0.76811 0.25462 0.36495 0.0
N368 N 0.787 0.26067 0.33412 0.0
H369 H 0.72563 0.29019 0.34525 0.0
H370 H 0.83031 0.22108 0.37295 0.0
C371 C 0.77913 0.17734 0.41165 0.0
O372 O 0.76365 0.1904 0.42821 0.0
N373 N 0.70772 0.26504 0.41402 0.0
C374 C 0.66264 0.26774 0.41709 0.0
C375 C 0.65493 0.27552 0.4361 0.0
C376 C 0.72674 0.27386 0.43105 0.0
N377 N 0.69527 0.2788 0.44487 0.0
C378 C 0.6632 0.22721 0.36558 0.0
C379 C 0.64636 0.1504 0.38659 0.0
C380 C 0.62059 0.15808 0.37036 0.0
C381 C 0.62916 0.19708 0.35971 0.0
C382 C 0.67972 0.18091 0.39181 0.0
N383 N 0.68934 0.21803 0.38107 0.0
H384 H 0.66722 0.25846 0.35803 0.0
H385 H 0.69595 0.17551 0.40516 0.0
H386 H 0.63699 0.26423 0.40628 0.0
H387 H 0.76294 0.27582 0.43336 0.0
O388 O 0.71073 0.31615 0.38262 0.0
O389 O 0.77758 0.30919 0.39636 0.0
O390 O 0.77406 0.20255 0.39705 0.0
C391 C 0.74622 0.33592 0.38964 0.0
H392 H 0.85176 0.22664 0.33695 0.0
H393 H 0.62218 0.27701 0.44304 0.0
H394 H 0.64049 0.12109 0.39544 0.0
H395 H 0.6089 0.20489 0.34737 0.0
Co396 Co 0.27955 0.80944 0.13003 0.0
C397 C 0.27434 0.78749 0.1707 0.0
C398 C 0.29669 0.73013 0.15428 0.0
C399 C 0.29698 0.71856 0.1732 0.0
N400 N 0.28286 0.77344 0.1528 0.0
N401 N 0.28296 0.75471 0.1835 0.0
H402 H 0.26374 0.82162 0.17427 0.0
H403 H 0.30665 0.70875 0.14247 0.0
C404 C 0.36956 0.79751 0.11188 0.0
O405 O 0.366 0.84088 0.10802 0.0
N406 N 0.27387 0.84457 0.10664 0.0
C407 C 0.25 0.88322 0.10426 0.0
C408 C 0.24859 0.89369 0.08535 0.0
C409 C 0.28371 0.83059 0.0887 0.0
N410 N 0.27004 0.86078 0.07551 0.0
C411 C 0.3097 0.89863 0.14269 0.0
C412 C 0.3911 0.86841 0.1573 0.0
C413 C 0.38381 0.91493 0.1555 0.0
C414 C 0.34182 0.93013 0.14883 0.0
C415 C 0.35848 0.83829 0.15069 0.0
N416 N 0.31979 0.85352 0.14212 0.0
H417 H 0.27726 0.91083 0.13822 0.0
H418 H 0.36567 0.80247 0.15154 0.0
H419 H 0.23142 0.90109 0.11517 0.0
H420 H 0.30002 0.79867 0.08535 0.0
O421 O 0.2224 0.83338 0.13859 0.0
O422 O 0.2296 0.77172 0.12086 0.0
O423 O 0.33582 0.77689 0.11957 0.0
C424 C 0.2028 0.80044 0.12956 0.0
H425 H 0.30675 0.68604 0.17892 0.0
H426 H 0.23087 0.9222 0.07923 0.0
H427 H 0.42296 0.8553 0.16256 0.0
H428 H 0.33447 0.96601 0.14787 0.0
Co429 Co 0.22869 0.26912 0.63264 0.0
C430 C 0.24357 0.26337 0.67507 0.0
C431 C 0.30509 0.26448 0.65889 0.0
C432 C 0.31606 0.26297 0.67783 0.0
N433 N 0.2596 0.26578 0.65707 0.0
N434 N 0.27733 0.26228 0.68797 0.0
H435 H 0.20838 0.26295 0.67897 0.0
H436 H 0.32877 0.26541 0.64716 0.0
C437 C 0.2781 0.35641 0.63682 0.0
O438 O 0.26508 0.35437 0.6546 0.0
N439 N 0.19888 0.27059 0.60827 0.0
C440 C 0.15493 0.26052 0.60549 0.0
C441 C 0.14507 0.26571 0.58665 0.0
C442 C 0.2155 0.28137 0.59098 0.0
N443 N 0.18299 0.27894 0.57748 0.0
C444 C 0.15005 0.29779 0.65506 0.0
C445 C 0.14221 0.38072 0.63744 0.0
C446 C 0.11142 0.36981 0.65175 0.0
C447 C 0.11528 0.32766 0.66066 0.0
C448 C 0.17598 0.35033 0.63246 0.0
N449 N 0.18177 0.31056 0.64197 0.0
H450 H 0.15018 0.26385 0.66065 0.0
H451 H 0.19634 0.35826 0.62025 0.0
H452 H 0.13158 0.25024 0.6165 0.0
H453 H 0.25025 0.29131 0.58842 0.0
O454 O 0.19942 0.21198 0.63788 0.0
O455 O 0.26599 0.21844 0.62372 0.0
O456 O 0.26805 0.32383 0.62534 0.0
C457 C 0.23389 0.19197 0.62993 0.0
H458 H 0.34992 0.2621 0.68368 0.0
H459 H 0.1125 0.25948 0.58014 0.0
H460 H 0.13973 0.41237 0.62979 0.0
H461 H 0.09071 0.31725 0.67119 0.0
Co462 Co 0.75227 0.23184 0.13912 0.0
C463 C 0.76273 0.26458 0.17947 0.0
C464 C 0.69349 0.25524 0.17128 0.0
C465 C 0.6943 0.26738 0.19003 0.0
N466 N 0.73622 0.25433 0.16437 0.0
N467 N 0.73773 0.27308 0.19527 0.0
H468 H 0.79936 0.26418 0.17919 0.0
H469 H 0.66366 0.24487 0.16356 0.0
C470 C 0.67403 0.29766 0.13268 0.0
O471 O 0.69633 0.32917 0.14198 0.0
N472 N 0.76788 0.20809 0.11432 0.0
C473 C 0.78851 0.16789 0.11142 0.0
C474 C 0.79103 0.15966 0.0923 0.0
C475 C 0.75846 0.22422 0.09685 0.0
N476 N 0.77208 0.19486 0.08315 0.0
C477 C 0.7217 0.15375 0.16008 0.0
C478 C 0.65649 0.12926 0.13388 0.0
C479 C 0.65923 0.10525 0.1509 0.0
C480 C 0.6927 0.11745 0.16407 0.0
C481 C 0.68564 0.16509 0.13055 0.0
N482 N 0.71676 0.17789 0.14376 0.0
H483 H 0.74718 0.16347 0.1703 0.0
H484 H 0.68248 0.18317 0.11736 0.0
H485 H 0.7996 0.14537 0.12252 0.0
H486 H 0.74035 0.25548 0.09426 0.0
O487 O 0.81073 0.21108 0.14816 0.0
O488 O 0.79959 0.27845 0.13578 0.0
O489 O 0.69427 0.26048 0.12845 0.0
C490 C 0.82846 0.24873 0.14235 0.0
H491 H 0.66528 0.26875 0.19945 0.0
H492 H 0.80498 0.1296 0.0856 0.0
H493 H 0.63089 0.1216 0.12338 0.0
H494 H 0.69615 0.09946 0.17732 0.0
Co495 Co 0.80469 0.73643 0.63664 0.0
C496 C 0.78782 0.75631 0.6773 0.0
C497 C 0.72643 0.74231 0.66209 0.0
C498 C 0.71587 0.74877 0.68094 0.0
N499 N 0.77148 0.74672 0.65988 0.0
N500 N 0.7545 0.75736 0.69052 0.0
H501 H 0.8235 0.76048 0.68033 0.0
H502 H 0.70306 0.73399 0.65082 0.0
C503 C 0.76095 0.65436 0.61764 0.0
O504 O 0.76445 0.67298 0.60086 0.0
N505 N 0.83772 0.72538 0.61293 0.0
C506 C 0.86232 0.68786 0.60882 0.0
C507 C 0.87161 0.68665 0.58974 0.0
C508 C 0.83268 0.74655 0.59603 0.0
N509 N 0.85267 0.72328 0.58168 0.0
C510 C 0.89369 0.71253 0.64931 0.0
C511 C 0.868 0.63307 0.66702 0.0
C512 C 0.91402 0.64081 0.66342 0.0
C513 C 0.92695 0.68233 0.65545 0.0
C514 C 0.83593 0.66401 0.66056 0.0
N515 N 0.849 0.7013 0.65056 0.0
H516 H 0.90376 0.74294 0.64195 0.0
H517 H 0.80048 0.65663 0.66274 0.0
H518 H 0.86958 0.66075 0.61859 0.0
H519 H 0.81161 0.77606 0.59387 0.0
O520 O 0.83226 0.79546 0.63931 0.0
O521 O 0.76769 0.78369 0.62445 0.0
O522 O 0.76897 0.67788 0.63257 0.0
C523 C 0.79812 0.81269 0.63036 0.0
H524 H 0.68232 0.74691 0.68711 0.0
H525 H 0.8887 0.6595 0.58219 0.0
H526 H 0.85656 0.60173 0.67333 0.0
H527 H 0.96229 0.68993 0.65279 0.0
H528 H 0.21096 0.22753 0.21829 0.0
H529 H 0.35147 0.3377 0.30347 0.0
H530 H 0.3164 0.32587 0.20947 0.0
H531 H 0.24766 0.2364 0.31048 0.0
H532 H 0.34528 0.32892 0.26903 0.0
H533 H 0.23048 0.22458 0.25184 0.0
C534 C 0.23875 0.24803 0.22346 0.0
C535 C 0.26193 0.27715 0.21118 0.0
C536 C 0.32412 0.30839 0.27812 0.0
C537 C 0.28415 0.27475 0.24971 0.0
C538 C 0.32774 0.31326 0.29781 0.0
C539 C 0.29969 0.28809 0.30996 0.0
C540 C 0.29227 0.27808 0.2705 0.0
C541 C 0.26931 0.25721 0.30174 0.0
C542 C 0.24986 0.24647 0.24262 0.0
C543 C 0.29789 0.30282 0.2185 0.0
N544 N 0.26628 0.25329 0.28259 0.0
N545 N 0.30753 0.30152 0.23738 0.0
H546 H 0.69853 0.3267 0.80458 0.0
H547 H 0.84673 0.21836 0.7205 0.0
H548 H 0.81268 0.23824 0.8141 0.0
H549 H 0.72599 0.29798 0.71157 0.0
H550 H 0.83671 0.22737 0.75468 0.0
H551 H 0.71007 0.31876 0.77053 0.0
C552 C 0.72634 0.30591 0.79955 0.0
C553 C 0.75484 0.28332 0.81233 0.0
C554 C 0.8124 0.24289 0.74525 0.0
C555 C 0.76792 0.27357 0.77309 0.0
C556 C 0.81826 0.23802 0.72568 0.0
C557 C 0.78722 0.25756 0.71304 0.0
C558 C 0.77531 0.26765 0.75233 0.0
C559 C 0.75052 0.28196 0.72071 0.0
C560 C 0.73269 0.3011 0.78003 0.0
C561 C 0.78968 0.25602 0.80483 0.0
N562 N 0.74568 0.28638 0.73982 0.0
N563 N 0.79529 0.252 0.78572 0.0
H564 H 0.82581 0.81368 0.30949 0.0
H565 H 0.72841 0.71705 0.21139 0.0
H566 H 0.71331 0.7211 0.30603 0.0
H567 H 0.81127 0.83695 0.21473 0.0
H568 H 0.72901 0.71246 0.24603 0.0
H569 H 0.82772 0.81705 0.27471 0.0
C570 C 0.80173 0.79388 0.30142 0.0
C571 C 0.7692 0.76726 0.31069 0.0
C572 C 0.74702 0.73983 0.23919 0.0
C573 C 0.77119 0.77084 0.27094 0.0
C574 C 0.74688 0.7423 0.2194 0.0
C575 C 0.7697 0.77751 0.21012 0.0
C576 C 0.77067 0.77244 0.24984 0.0
C577 C 0.79275 0.80959 0.22129 0.0
C578 C 0.80262 0.79603 0.28159 0.0
C579 C 0.73853 0.74255 0.2995 0.0
N580 N 0.79282 0.80618 0.24053 0.0
N581 N 0.74038 0.74481 0.28027 0.0
H582 H 0.346 0.7075 0.80158 0.0
H583 H 0.21225 0.80079 0.71126 0.0
H584 H 0.23369 0.80085 0.80546 0.0
H585 H 0.33841 0.72744 0.70692 0.0
H586 H 0.21773 0.79813 0.74576 0.0
H587 H 0.34182 0.71112 0.767 0.0
C588 C 0.32026 0.72856 0.79518 0.0
C589 C 0.29003 0.75381 0.80651 0.0
C590 C 0.24431 0.78267 0.7373 0.0
C591 C 0.28526 0.75833 0.76681 0.0
C592 C 0.24105 0.78393 0.71756 0.0
C593 C 0.27481 0.7641 0.70612 0.0
C594 C 0.28144 0.76108 0.74579 0.0
C595 C 0.31178 0.74344 0.71515 0.0
C596 C 0.31812 0.73086 0.77541 0.0
C597 C 0.25791 0.78111 0.79735 0.0
N598 N 0.31397 0.74223 0.73443 0.0
N599 N 0.25625 0.78248 0.77808 0.0
H600 H 0.72433 0.73534 0.81174 0.0
H601 H 0.82019 0.80369 0.7094 0.0
H602 H 0.83293 0.83102 0.80377 0.0
H603 H 0.69984 0.72361 0.71806 0.0
H604 H 0.82769 0.8119 0.74384 0.0
H605 H 0.71696 0.72843 0.77737 0.0
C606 C 0.74673 0.75481 0.80277 0.0
C607 C 0.77932 0.78378 0.81071 0.0
C608 C 0.79957 0.79265 0.73818 0.0
C609 C 0.77099 0.77618 0.77121 0.0
C610 C 0.79542 0.78776 0.71852 0.0
C611 C 0.75925 0.76305 0.71077 0.0
C612 C 0.76754 0.77236 0.75022 0.0
C613 C 0.72789 0.74351 0.72331 0.0
C614 C 0.74235 0.75105 0.78312 0.0
C615 C 0.807 0.80867 0.79832 0.0
N616 N 0.73285 0.74846 0.74236 0.0
N617 N 0.80234 0.80415 0.77921 0.0
H618 H 0.32502 0.73402 0.30473 0.0
H619 H 0.22627 0.80891 0.20384 0.0
H620 H 0.20417 0.8145 0.29769 0.0
H621 H 0.33184 0.7088 0.20984 0.0
H622 H 0.22139 0.81515 0.23833 0.0
H623 H 0.33192 0.7281 0.2701 0.0
C624 C 0.30006 0.75053 0.29592 0.0
C625 C 0.2638 0.77452 0.30416 0.0
C626 C 0.24561 0.79174 0.23212 0.0
C627 C 0.27143 0.76795 0.26457 0.0
C628 C 0.24858 0.78836 0.2124 0.0
C629 C 0.27948 0.75826 0.20388 0.0
C630 C 0.274 0.76509 0.24352 0.0
C631 C 0.30715 0.73204 0.21577 0.0
C632 C 0.30385 0.74695 0.27617 0.0
C633 C 0.23223 0.79501 0.29203 0.0
N634 N 0.30387 0.73617 0.23496 0.0
N635 N 0.23685 0.79135 0.27292 0.0
H636 H 0.21167 0.22175 0.7089 0.0
H637 H 0.30358 0.31597 0.80818 0.0
H638 H 0.33316 0.30179 0.71366 0.0
H639 H 0.21489 0.20057 0.80368 0.0
H640 H 0.30816 0.31872 0.77345 0.0
H641 H 0.20555 0.22097 0.74358 0.0
C642 C 0.23691 0.23934 0.71724 0.0
C643 C 0.27307 0.26171 0.70837 0.0
C644 C 0.28773 0.29279 0.78008 0.0
C645 C 0.26621 0.26118 0.74805 0.0
C646 C 0.2849 0.29139 0.79988 0.0
C647 C 0.25897 0.25787 0.80884 0.0
C648 C 0.26384 0.26091 0.76913 0.0
C649 C 0.23572 0.2266 0.79737 0.0
C650 C 0.23357 0.23867 0.73703 0.0
C651 C 0.30507 0.28366 0.71991 0.0
N652 N 0.23852 0.229 0.77815 0.0
N653 N 0.30078 0.28304 0.73912 0.0
H654 H 0.73233 0.32082 0.31561 0.0
H655 H 0.81178 0.23659 0.21232 0.0
H656 H 0.83492 0.2186 0.30591 0.0
H657 H 0.69673 0.32371 0.22236 0.0
H658 H 0.82852 0.23871 0.24638 0.0
H659 H 0.72542 0.33005 0.28137 0.0
C660 C 0.75349 0.30033 0.3064 0.0
C661 C 0.78413 0.26868 0.3139 0.0
C662 C 0.79988 0.25778 0.24109 0.0
C663 C 0.77667 0.27956 0.27446 0.0
C664 C 0.79063 0.25689 0.22163 0.0
C665 C 0.75261 0.27971 0.21454 0.0
C666 C 0.77102 0.28184 0.25351 0.0
C667 C 0.726 0.30513 0.2273 0.0
C668 C 0.74967 0.30582 0.28678 0.0
C669 C 0.81111 0.24376 0.30102 0.0
N670 N 0.73549 0.30526 0.24613 0.0
N671 N 0.80659 0.24959 0.28202 0.0
H672 H 0.26466 0.28123 0.05812 0.0
H673 H 0.2101 0.41928 0.96325 0.0
H674 H 0.23779 0.4246 0.05554 0.0
H675 H 0.26098 0.28232 0.96172 0.0
H676 H 0.209 0.41676 0.9977 0.0
H677 H 0.25316 0.27612 0.02353 0.0
C678 C 0.25591 0.31144 0.05031 0.0
C679 C 0.25274 0.35351 0.05964 0.0
C680 C 0.22028 0.38706 0.98992 0.0
C681 C 0.2394 0.34801 0.02033 0.0
C682 C 0.221 0.38856 0.9702 0.0
C683 C 0.23639 0.35125 0.95958 0.0
C684 C 0.23524 0.34797 0.99929 0.0
C685 C 0.24896 0.31186 0.96938 0.0
C686 C 0.24957 0.30859 0.03061 0.0
C687 C 0.24144 0.39168 0.04888 0.0
N688 N 0.24859 0.31137 0.98873 0.0
N689 N 0.2353 0.38802 0.02989 0.0
H690 H 0.75869 0.23206 0.46431 0.0
H691 H 0.67834 0.31257 0.56729 0.0
H692 H 0.64727 0.32523 0.47147 0.0
H693 H 0.72343 0.17663 0.55514 0.0
H694 H 0.68279 0.32989 0.5331 0.0
H695 H 0.76322 0.22434 0.49885 0.0
C696 C 0.73584 0.25163 0.47318 0.0
C697 C 0.70244 0.27919 0.46507 0.0
C698 C 0.69189 0.29639 0.53801 0.0
C699 C 0.70751 0.27064 0.50448 0.0
C700 C 0.68948 0.28664 0.5574 0.0
C701 C 0.70005 0.24306 0.56385 0.0
C702 C 0.70627 0.26264 0.52519 0.0
C703 C 0.71442 0.21042 0.5506 0.0
C704 C 0.73819 0.24692 0.49284 0.0
C705 C 0.67325 0.30339 0.47722 0.0
N706 N 0.71734 0.22091 0.53192 0.0
N707 N 0.67643 0.2986 0.49636 0.0
H708 H 0.78351 0.75761 0.96115 0.0
H709 H 0.81189 0.61171 0.0559 0.0
H710 H 0.79002 0.61182 0.96301 0.0
H711 H 0.77398 0.75287 0.05742 0.0
H712 H 0.81531 0.61474 0.0215 0.0
H713 H 0.79061 0.75991 0.99594 0.0
C714 C 0.78687 0.72618 0.96885 0.0
C715 C 0.78579 0.6844 0.9592 0.0
C716 C 0.80632 0.64519 0.02929 0.0
C717 C 0.79405 0.68675 0.99883 0.0
C718 C 0.80421 0.64343 0.049 0.0
C719 C 0.7918 0.68186 0.05963 0.0
C720 C 0.79602 0.68573 0.01992 0.0
C721 C 0.78361 0.7224 0.04982 0.0
C722 C 0.79066 0.72749 0.98868 0.0
C723 C 0.78997 0.64468 0.96988 0.0
N724 N 0.78548 0.72321 0.03048 0.0
N725 N 0.79389 0.64686 0.98903 0.0
H726 H 0.35623 0.73111 0.45167 0.0
H727 H 0.30963 0.83353 0.55546 0.0
H728 H 0.33492 0.87351 0.46222 0.0
H729 H 0.38606 0.71093 0.54596 0.0
H730 H 0.30334 0.84309 0.52093 0.0
H731 H 0.35234 0.71756 0.48605 0.0
C732 C 0.35043 0.75938 0.46123 0.0
C733 C 0.34649 0.80351 0.45416 0.0
C734 C 0.32121 0.81394 0.52644 0.0
C735 C 0.34138 0.78839 0.4933 0.0
C736 C 0.32451 0.80838 0.54609 0.0
C737 C 0.34869 0.77162 0.5535 0.0
C738 C 0.34149 0.78204 0.51417 0.0
C739 C 0.36766 0.74005 0.54077 0.0
C740 C 0.34838 0.75173 0.48079 0.0
C741 C 0.33898 0.83909 0.46712 0.0
N742 N 0.36363 0.74592 0.52175 0.0
N743 N 0.33656 0.83077 0.48604 0.0
H744 H 0.74666 0.12623 0.06043 0.0
H745 H 0.78635 0.25918 0.96349 0.0
H746 H 0.78078 0.26804 0.06004 0.0
H747 H 0.72268 0.12804 0.96798 0.0
H748 H 0.78736 0.26433 0.99828 0.0
H749 H 0.7405 0.1271 0.02607 0.0
C750 C 0.75277 0.15767 0.05302 0.0
C751 C 0.76455 0.19702 0.06302 0.0
C752 C 0.77318 0.23454 0.99154 0.0
C753 C 0.7578 0.19845 0.02346 0.0
C754 C 0.77258 0.23152 0.97167 0.0
C755 C 0.75504 0.19276 0.96261 0.0
C756 C 0.75623 0.1985 1.00238 0.0
C757 C 0.73772 0.15806 0.97409 0.0
C758 C 0.74911 0.15826 0.03338 0.0
C759 C 0.77147 0.23706 0.05277 0.0
N760 N 0.73895 0.16174 0.99323 0.0
N761 N 0.76846 0.23671 0.03345 0.0
H762 H 0.83879 0.66045 0.55427 0.0
H763 H 0.88478 0.82844 0.46914 0.0
H764 H 0.85588 0.80385 0.56338 0.0
H765 H 0.81461 0.70189 0.46133 0.0
H766 H 0.87884 0.81925 0.50356 0.0
H767 H 0.83443 0.6735 0.5201 0.0
C768 C 0.84176 0.69472 0.54903 0.0
C769 C 0.84823 0.73113 0.56162 0.0
C770 C 0.86437 0.79368 0.49434 0.0
C771 C 0.84329 0.74633 0.52252 0.0
C772 C 0.86796 0.79878 0.47472 0.0
C773 C 0.85037 0.76571 0.46241 0.0
C774 C 0.84385 0.75473 0.50175 0.0
C775 C 0.82843 0.72819 0.47035 0.0
C776 C 0.83888 0.70218 0.52955 0.0
C777 C 0.85095 0.77495 0.55412 0.0
N778 N 0.82633 0.72338 0.48953 0.0
N779 N 0.84905 0.7813 0.53502 0.0
H780 H 0.27801 0.78571 0.05276 0.0
H781 H 0.27868 0.93571 0.95828 0.0
H782 H 0.27528 0.93176 0.05157 0.0
H783 H 0.28027 0.78966 0.95661 0.0
H784 H 0.28162 0.93344 0.99269 0.0
H785 H 0.28341 0.78482 0.01794 0.0
C786 C 0.27887 0.81753 0.04523 0.0
C787 C 0.27561 0.85889 0.05514 0.0
C788 C 0.28143 0.90174 0.98489 0.0
C789 C 0.28163 0.85812 0.01536 0.0
C790 C 0.27952 0.90306 0.96517 0.0
C791 C 0.27866 0.86285 0.95448 0.0
C792 C 0.28233 0.85984 0.99423 0.0
C793 C 0.28095 0.82151 0.96426 0.0
C794 C 0.28175 0.817 0.02535 0.0
C795 C 0.27669 0.89906 0.04459 0.0
N796 N 0.28233 0.82104 0.9836 0.0
N797 N 0.27946 0.89762 0.02539 0.0
H798 H 0.11677 0.30957 0.55445 0.0
H799 H 0.26197 0.28814 0.45863 0.0
H800 H 0.2572 0.26888 0.55453 0.0
H801 H 0.11627 0.29717 0.4612 0.0
H802 H 0.26439 0.29154 0.49349 0.0
H803 H 0.11978 0.31645 0.52016 0.0
C804 C 0.14833 0.302 0.54724 0.0
C805 C 0.18655 0.28775 0.55741 0.0
C806 C 0.23197 0.29295 0.48637 0.0
C807 C 0.19038 0.29594 0.51785 0.0
C808 C 0.23058 0.29127 0.4665 0.0
C809 C 0.18878 0.29204 0.45701 0.0
C810 C 0.1913 0.29606 0.49674 0.0
C811 C 0.14913 0.29577 0.46792 0.0
C812 C 0.15008 0.30609 0.5276 0.0
C813 C 0.22691 0.27983 0.54727 0.0
N814 N 0.15139 0.29764 0.48712 0.0
N815 N 0.22771 0.28365 0.52799 0.0
H816 H 0.10647 0.50709 0.13042 0.0
H817 H 0.92283 0.61122 0.18995 0.0
H818 H 0.10494 0.44445 0.18558 0.0
H819 H 0.88639 0.52882 0.1418 0.0
H820 H 0.99464 0.56876 0.19244 0.0
H821 H 0.03234 0.54039 0.13725 0.0
C822 C 0.09087 0.50091 0.14408 0.0
C823 C 0.11146 0.47224 0.15731 0.0
C824 C 0.96991 0.5589 0.18189 0.0
C825 C 0.02725 0.51071 0.16518 0.0
C826 C 0.92895 0.58264 0.18058 0.0
C827 C 0.89883 0.57298 0.16575 0.0
C828 C 0.98054 0.52643 0.16801 0.0
C829 C 0.90869 0.53676 0.15352 0.0
C830 C 0.04869 0.51978 0.14791 0.0
C831 C 0.09013 0.46633 0.175 0.0
N832 N 0.94938 0.51559 0.15457 0.0
N833 N 0.04868 0.48518 0.17844 0.0
H834 H 0.49423 0.90803 0.62173 0.0
H835 H 0.6212 0.07542 0.69164 0.0
H836 H 0.46368 0.90282 0.68151 0.0
H837 H 0.57823 0.11077 0.63522 0.0
H838 H 0.5765 1.00503 0.68926 0.0
H839 H 0.54254 0.97351 0.62741 0.0
C840 C 0.49822 0.9204 0.63612 0.0
C841 C 0.47428 0.90067 0.65114 0.0
C842 C 0.57661 0.02866 0.67758 0.0
C843 C 0.52947 0.9756 0.65771 0.0
C844 C 0.60184 0.06868 0.67892 0.0
C845 C 0.603 0.09907 0.66366 0.0
C846 C 0.5537 1.01873 0.66067 0.0
C847 C 0.57769 0.08873 0.64744 0.0
C848 C 0.52557 0.95785 0.63932 0.0
C849 C 0.48147 0.91735 0.66957 0.0
N850 N 0.55458 0.04923 0.64629 0.0
N851 N 0.50824 0.95437 0.67237 0.0
H852 H 0.3861 0.99904 0.87335 0.0
H853 H 0.60466 0.10708 0.82987 0.0
H854 H 0.44104 0.93158 0.82388 0.0
H855 H 0.5922 0.07018 0.88877 0.0
H856 H 0.53784 0.0595 0.82276 0.0
H857 H 0.45205 0.0486 0.8739 0.0
C858 C 0.4113 0.99556 0.86223 0.0
C859 C 0.40826 0.96093 0.84863 0.0
C860 C 0.55033 0.06182 0.83715 0.0
C861 C 0.48391 1.01714 0.8494 0.0
C862 C 0.58841 0.0885 0.8412 0.0
C863 C 0.60324 0.09334 0.86001 0.0
C864 C 0.52707 0.04097 0.85211 0.0
C865 C 0.58108 0.06855 0.87418 0.0
C866 C 0.4491 0.02348 0.86271 0.0
C867 C 0.44249 0.9576 0.83474 0.0
N868 N 0.54364 0.04419 0.87 0.0
N869 N 0.47936 0.98521 0.83554 0.0
H870 H 0.12595 0.45937 0.32632 0.0
H871 H 1.00457 0.63858 0.39208 0.0
H872 H 0.07386 0.4287 0.38197 0.0
H873 H 0.96274 0.63239 0.33361 0.0
H874 H 0.05236 0.57208 0.38684 0.0
H875 H 0.08301 0.53132 0.32698 0.0
C876 C 0.10488 0.46746 0.33848 0.0
C877 C 0.10297 0.43804 0.35406 0.0
C878 C 0.03326 0.58573 0.37509 0.0
C879 C 0.05602 0.52009 0.35517 0.0
C880 C 1.00633 0.62375 0.378 0.0
C881 C 0.97919 0.64034 0.36332 0.0
C882 C 0.03355 0.56442 0.3573 0.0
C883 C 0.98315 0.62036 0.34527 0.0
C884 C 0.08071 0.50833 0.33886 0.0
C885 C 0.07569 0.45008 0.36957 0.0
N886 N 1.00955 0.58281 0.34276 0.0
N887 N 0.05385 0.4905 0.36985 0.0
H888 H 0.93891 0.61119 0.82562 0.0
H889 H 0.12626 0.49505 0.88779 0.0
H890 H 0.9155 0.56336 0.88246 0.0
H891 H 0.11246 0.44804 0.83014 0.0
H892 H 0.05948 0.54298 0.88369 0.0
H893 H 1.01085 0.56828 0.82478 0.0
C894 C 0.94853 0.59095 0.83772 0.0
C895 C 0.92123 0.5903 0.85408 0.0
C896 C 0.07161 0.52281 0.87183 0.0
C897 C 1.00334 0.54354 0.85347 0.0
C898 C 0.10983 0.49596 0.87408 0.0
C899 C 0.12434 0.46743 0.85932 0.0
C900 C 0.04797 0.52145 0.85466 0.0
C901 C 0.1021 0.46974 0.8418 0.0
C902 C 0.98942 0.56686 0.83725 0.0
C903 C 0.93522 0.56416 0.86949 0.0
N904 N 0.06437 0.49604 0.83996 0.0
N905 N 0.97567 0.54241 0.86892 0.0
H906 H 0.55704 0.12332 0.39398 0.0
H907 H 0.4376 0.95104 0.32432 0.0
H908 H 0.60199 0.11846 0.33575 0.0
H909 H 0.47363 0.9199 0.38202 0.0
H910 H 0.48404 0.02043 0.32642 0.0
H911 H 0.50804 0.05856 0.38792 0.0
C912 C 0.55617 0.10886 0.37984 0.0
C913 C 0.58434 0.12551 0.36545 0.0
C914 C 0.48204 0.99788 0.33845 0.0
C915 C 0.52817 0.05157 0.35843 0.0
C916 C 0.45581 0.95846 0.33727 0.0
C917 C 0.45223 0.92957 0.35297 0.0
C918 C 0.50337 1.00877 0.35562 0.0
C919 C 0.47606 0.94076 0.36949 0.0
C920 C 0.52835 0.07189 0.37642 0.0
C921 C 0.58095 0.10631 0.34724 0.0
N922 N 0.50009 0.97972 0.37045 0.0
N923 N 0.55357 0.06982 0.34423 0.0
H924 H 0.41296 0.97673 0.1302 0.0
H925 H 0.6131 0.08911 0.18419 0.0
H926 H 0.44276 0.92285 0.18551 0.0
H927 H 0.62677 0.04123 0.1265 0.0
H928 H 0.54518 0.04147 0.18774 0.0
H929 H 0.48372 1.0195 0.13122 0.0
C930 C 0.43391 0.97483 0.14276 0.0
C931 C 0.42214 0.94646 0.15782 0.0
C932 C 0.56371 0.04114 0.17446 0.0
C933 C 0.50295 0.99474 0.15895 0.0
C934 C 0.60251 0.0679 0.17244 0.0
C935 C 0.62503 0.06983 0.15488 0.0
C936 C 0.54731 1.0172 0.1587 0.0
C937 C 0.60969 0.04183 0.1401 0.0
C938 C 0.47441 0.99869 0.14322 0.0
C939 C 0.45091 0.94446 0.17363 0.0
N940 N 0.57122 1.01746 0.14221 0.0
N941 N 0.49024 0.96849 0.17385 0.0
H942 H 0.08567 0.40476 0.68645 0.0
H943 H 0.97517 0.61533 0.63674 0.0
H944 H 0.05473 0.40971 0.62679 0.0
H945 H 0.92532 0.57844 0.69213 0.0
H946 H 1.01969 0.54595 0.63575 0.0
H947 H 0.03658 0.47171 0.69156 0.0
C948 C 0.06773 0.41925 0.67456 0.0
C949 C 0.07468 0.40236 0.65614 0.0
C950 C 0.9993 0.55321 0.64821 0.0
C951 C 0.02042 0.4787 0.66174 0.0
C952 C 0.97443 0.59315 0.64892 0.0
C953 C 0.94664 0.60276 0.66458 0.0
C954 C 0.99681 0.52263 0.6633 0.0
C955 C 0.94628 0.57209 0.67977 0.0
C956 C 0.04017 0.45745 0.67746 0.0
C957 C 0.05094 0.42232 0.64116 0.0
N958 N 0.97111 0.53316 0.67879 0.0
N959 N 0.02557 0.45988 0.64424 0.0
H960 H 0.61792 0.36803 0.14346 0.0
H961 H 0.38121 0.23883 0.12376 0.0
H962 H 0.61256 0.2336 0.11934 0.0
H963 H 0.3928 0.36996 0.15049 0.0
H964 H 0.46468 0.23554 0.12121 0.0
H965 H 0.53517 0.36942 0.14469 0.0
C966 C 0.59951 0.33888 0.13819 0.0
C967 C 0.62301 0.3007 0.13122 0.0
C968 C 0.44889 0.26495 0.12768 0.0
C969 C 0.52671 0.30182 0.13286 0.0
C970 C 0.40111 0.26675 0.12922 0.0
C971 C 0.37942 0.30466 0.13743 0.0
C972 C 0.47549 0.30142 0.13432 0.0
C973 C 0.40747 0.3399 0.14409 0.0
C974 C 0.55192 0.3396 0.13901 0.0
C975 C 0.59645 0.26396 0.12477 0.0
N976 N 0.45349 0.33743 0.14236 0.0
N977 N 0.55005 0.26538 0.1258 0.0
H978 H 0.70976 0.37784 0.65483 0.0
H979 H 0.77664 0.5894 0.59026 0.0
H980 H 0.79882 0.36325 0.60663 0.0
H981 H 0.73648 0.60369 0.64882 0.0
H982 H 0.77618 0.50672 0.5939 0.0
H983 H 0.71118 0.46005 0.65089 0.0
C984 C 0.72972 0.39191 0.64338 0.0
C985 C 0.7543 0.36331 0.63107 0.0
C986 C 0.76727 0.52795 0.60592 0.0
C987 C 0.75544 0.45827 0.62628 0.0
C988 C 0.76704 0.57527 0.60382 0.0
C989 C 0.75618 0.60394 0.61922 0.0
C990 C 0.75583 0.5087 0.62346 0.0
C991 C 0.74488 0.58324 0.63651 0.0
C992 C 0.73055 0.43902 0.64118 0.0
C993 C 0.77959 0.38385 0.61654 0.0
N994 N 0.74474 0.53713 0.63811 0.0
N995 N 0.77917 0.42997 0.61444 0.0
H996 H 0.40514 0.72775 0.13338 0.0
H997 H 0.65946 0.80215 0.1086 0.0
H998 H 0.44064 0.82459 0.0903 0.0
H999 H 0.62986 0.68699 0.14386 0.0
H1000 H 0.57858 0.81044 0.10216 0.0
H1001 H 0.48614 0.70985 0.13717 0.0
C1002 C 0.42975 0.74433 0.12437 0.0
C1003 C 0.41599 0.7778 0.11152 0.0
C1004 C 0.58966 0.78322 0.11128 0.0
C1005 C 0.50867 0.75846 0.11614 0.0
C1006 C 0.63594 0.77864 0.11504 0.0
C1007 C 0.65158 0.74392 0.12683 0.0
C1008 C 0.5584 0.75309 0.11947 0.0
C1009 C 0.61935 0.71431 0.13469 0.0
C1010 C 0.47604 0.73449 0.12669 0.0
C1011 C 0.44957 0.79874 0.10046 0.0
N1012 N 0.57433 0.71969 0.13096 0.0
N1013 N 0.49411 0.78912 0.10316 0.0
H1014 H 0.3417 0.40837 0.65362 0.0
H1015 H 0.24858 0.63771 0.60956 0.0
H1016 H 0.24968 0.40766 0.60634 0.0
H1017 H 0.36986 0.62985 0.64334 0.0
H1018 H 0.24681 0.55429 0.60807 0.0
H1019 H 0.35319 0.48951 0.64933 0.0
C1020 C 0.32489 0.42514 0.64196 0.0
C1021 C 0.29491 0.40105 0.63028 0.0
C1022 C 0.27395 0.57094 0.61567 0.0
C1023 C 0.30615 0.49495 0.6258 0.0
C1024 C 0.27481 0.61854 0.61664 0.0
C1025 C 0.30926 0.64095 0.62669 0.0
C1026 C 0.30749 0.54558 0.62502 0.0
C1027 C 0.34251 0.61426 0.63548 0.0
C1028 C 0.33107 0.47167 0.63962 0.0
C1029 C 0.27333 0.42476 0.61561 0.0
N1030 N 0.34058 0.56826 0.63456 0.0
N1031 N 0.27867 0.47059 0.61401 0.0
H1032 H 0.10838 0.29495 0.9107 0.0
H1033 H 0.87844 0.18539 0.8706 0.0
H1034 H 0.10076 0.20638 0.86206 0.0
H1035 H 0.87718 0.30151 0.90799 0.0
H1036 H 0.96086 0.18477 0.87159 0.0
H1037 H 0.02548 0.2888 0.91452 0.0
C1038 C 0.08959 0.27311 0.90119 0.0
C1039 C 0.11167 0.25097 0.88605 0.0
C1040 C 0.94277 0.21045 0.87963 0.0
C1041 C 1.01685 0.24427 0.89019 0.0
C1042 C 0.89547 0.21087 0.87907 0.0
C1043 C 0.87052 0.24377 0.88912 0.0
C1044 C 0.96604 0.24298 0.89045 0.0
C1045 C 0.89492 0.27573 0.89988 0.0
C1046 C 0.04216 0.27012 0.90323 0.0
C1047 C 0.08529 0.22381 0.87399 0.0
N1048 N 0.9413 0.27457 0.90027 0.0
N1049 N 0.03958 0.22138 0.87627 0.0
H1050 H 0.74879 0.88577 0.41346 0.0
H1051 H 0.81688 0.13511 0.3803 0.0
H1052 H 0.8504 0.90873 0.37054 0.0
H1053 H 0.76261 0.10677 0.43585 0.0
H1054 H 0.82327 0.05327 0.37437 0.0
H1055 H 0.74542 0.96778 0.41942 0.0
C1056 C 0.77006 0.90806 0.40516 0.0
C1057 C 0.7999 0.89028 0.39148 0.0
C1058 C 0.81037 0.06508 0.38792 0.0
C1059 C 0.7962 0.98429 0.39821 0.0
C1060 C 0.80689 0.11184 0.39135 0.0
C1061 C 0.78947 0.12821 0.40867 0.0
C1062 C 0.79543 0.03427 0.40171 0.0
C1063 C 0.77663 0.09609 0.42235 0.0
C1064 C 0.76838 0.95485 0.40867 0.0
C1065 C 0.82694 0.92089 0.38126 0.0
N1066 N 0.77939 0.05088 0.4185 0.0
N1067 N 0.8243 0.9663 0.38475 0.0
H1068 H 0.91505 0.80728 0.87972 0.0
H1069 H 0.16897 0.73183 0.90582 0.0
H1070 H 0.94832 0.70555 0.92108 0.0
H1071 H 0.13885 0.84029 0.8671 0.0
H1072 H 0.0878 0.72321 0.91196 0.0
H1073 H 0.99633 0.82336 0.87596 0.0
C1074 C 0.9393 0.78914 0.88834 0.0
C1075 C 0.92483 0.75498 0.90072 0.0
C1076 C 0.09888 0.74894 0.90212 0.0
C1077 C 1.0178 0.77232 0.89617 0.0
C1078 C 0.14529 0.75367 0.89853 0.0
C1079 C 0.16082 0.78666 0.88586 0.0
C1080 C 0.06755 0.77734 0.89295 0.0
C1081 C 0.12845 0.81426 0.87693 0.0
C1082 C 0.98573 0.79793 0.88604 0.0
C1083 C 0.95788 0.73202 0.91129 0.0
N1084 N 0.08345 0.80894 0.88061 0.0
N1085 N 1.00261 0.7408 0.90867 0.0
H1086 H 0.29406 0.17078 0.41232 0.0
H1087 H 0.239 0.92946 0.36506 0.0
H1088 H 0.21701 0.15581 0.36086 0.0
H1089 H 0.26943 0.94436 0.42452 0.0
H1090 H 0.23849 1.01213 0.36206 0.0
H1091 H 0.29436 0.08771 0.41573 0.0
C1092 C 0.27768 0.15007 0.40164 0.0
C1093 C 0.25553 0.17037 0.38627 0.0
C1094 C 0.24494 0.99735 0.37581 0.0
C1095 C 0.25572 0.07536 0.39006 0.0
C1096 C 0.2451 0.95007 0.37754 0.0
C1097 C 0.25379 0.92969 0.39511 0.0
C1098 C 0.25442 0.02481 0.39166 0.0
C1099 C 0.26191 0.95841 0.41074 0.0
C1100 C 0.27753 0.1027 0.40367 0.0
C1101 C 0.23443 0.14176 0.37296 0.0
N1102 N 0.26242 1.00436 0.40862 0.0
N1103 N 0.23523 0.09594 0.37512 0.0
H1104 H 0.41567 0.73488 0.87928 0.0
H1105 H 0.66711 0.81173 0.90856 0.0
H1106 H 0.44529 0.84472 0.91787 0.0
H1107 H 0.64011 0.69765 0.87183 0.0
H1108 H 0.58547 0.8222 0.91295 0.0
H1109 H 0.49704 0.71713 0.87775 0.0
C1110 C 0.43909 0.75463 0.88773 0.0
C1111 C 0.42358 0.79143 0.89868 0.0
C1112 C 0.59734 0.79479 0.90395 0.0
C1113 C 0.51674 0.77196 0.89671 0.0
C1114 C 0.64403 0.78894 0.90138 0.0
C1115 C 0.66057 0.75392 0.88974 0.0
C1116 C 0.56674 0.76549 0.89477 0.0
C1117 C 0.62893 0.72523 0.88089 0.0
C1118 C 0.4856 0.74478 0.88672 0.0
C1119 C 0.45564 0.81621 0.90914 0.0
N1120 N 0.58363 0.73171 0.88354 0.0
N1121 N 0.50051 0.80628 0.90778 0.0
H1122 H 0.21093 0.45633 0.42233 0.0
H1123 H 0.35328 0.65477 0.3731 0.0
H1124 H 0.31479 0.43018 0.38054 0.0
H1125 H 0.23332 0.67782 0.40689 0.0
H1126 H 0.34584 0.5733 0.37839 0.0
H1127 H 0.22614 0.53723 0.42008 0.0
C1128 C 0.23765 0.46752 0.4129 0.0
C1129 C 0.26161 0.43611 0.4016 0.0
C1130 C 0.3212 0.5961 0.3847 0.0
C1131 C 0.27879 0.52972 0.39873 0.0
C1132 C 0.32538 0.64278 0.38171 0.0
C1133 C 0.29377 0.67348 0.38953 0.0
C1134 C 0.28528 0.57956 0.39573 0.0
C1135 C 0.25841 0.65562 0.40053 0.0
C1136 C 0.24606 0.51395 0.41153 0.0
C1137 C 0.29578 0.45294 0.38966 0.0
N1138 N 0.25517 0.60998 0.4033 0.0
N1139 N 0.30308 0.4986 0.38842 0.0
H1140 H 0.61919 0.31791 0.87832 0.0
H1141 H 0.37125 0.24681 0.91309 0.0
H1142 H 0.59247 0.26814 0.93463 0.0
H1143 H 0.39225 0.34522 0.86902 0.0
H1144 H 0.45333 0.2462 0.919 0.0
H1145 H 0.53718 0.3219 0.87274 0.0
C1146 C 0.59621 0.30846 0.88962 0.0
C1147 C 0.61312 0.29307 0.90705 0.0
C1148 C 0.43993 0.26787 0.90802 0.0
C1149 C 0.51891 0.29618 0.9005 0.0
C1150 C 0.39311 0.26798 0.90455 0.0
C1151 C 0.37473 0.2961 0.89053 0.0
C1152 C 0.46884 0.29548 0.89718 0.0
C1153 C 0.40482 0.32308 0.88 0.0
C1154 C 0.54934 0.31055 0.88638 0.0
C1155 C 0.58135 0.28074 0.92104 0.0
N1156 N 0.45025 0.32192 0.88345 0.0
N1157 N 0.53602 0.28207 0.91739 0.0
H1158 H 0.69 0.3961 0.3725 0.0
H1159 H 0.80878 0.6217 0.41254 0.0
H1160 H 0.80739 0.39111 0.4087 0.0
H1161 H 0.71573 0.61802 0.36566 0.0
H1162 H 0.80015 0.53904 0.41598 0.0
H1163 H 0.69166 0.47845 0.37402 0.0
C1164 C 0.71628 0.41231 0.38079 0.0
C1165 C 0.74882 0.38638 0.39037 0.0
C1166 C 0.78095 0.55655 0.4052 0.0
C1167 C 0.75065 0.48171 0.39233 0.0
C1168 C 0.78532 0.60383 0.40343 0.0
C1169 C 0.76251 0.62686 0.38891 0.0
C1170 C 0.75323 0.53238 0.39247 0.0
C1171 C 0.73351 0.60172 0.37718 0.0
C1172 C 0.71714 0.45955 0.38167 0.0
C1173 C 0.78187 0.40967 0.40094 0.0
N1174 N 0.72986 0.55608 0.37916 0.0
N1175 N 0.78196 0.45601 0.40164 0.0
H1176 H 0.9158 0.74097 0.10863 0.0
H1177 H 0.14341 0.85394 0.1488 0.0
H1178 H 0.92308 0.82812 0.15774 0.0
H1179 H 0.14702 0.74236 0.10903 0.0
H1180 H 0.06127 0.85238 0.14817 0.0
H1181 H 0.99833 0.74954 0.10423 0.0
C1182 C 0.93447 0.76297 0.11812 0.0
C1183 C 0.91257 0.78403 0.13356 0.0
C1184 C 0.07978 0.82813 0.13953 0.0
C1185 C 1.00666 0.79343 0.12878 0.0
C1186 C 0.12694 0.82893 0.1399 0.0
C1187 C 0.15243 0.79797 0.12906 0.0
C1188 C 0.05719 0.79617 0.1282 0.0
C1189 C 0.12877 0.76661 0.11774 0.0
C1190 C 0.98162 0.76735 0.11576 0.0
C1191 C 0.93855 0.81143 0.14563 0.0
N1192 N 0.08241 0.76644 0.11762 0.0
N1193 N 0.98399 0.81516 0.14303 0.0
H1194 H 0.17541 0.13074 0.64522 0.0
H1195 H 0.29897 0.90855 0.60367 0.0
H1196 H 0.2953 0.13812 0.61026 0.0
H1197 H 0.20827 0.90902 0.65163 0.0
H1198 H 0.28741 0.99087 0.60052 0.0
H1199 H 0.17757 0.04835 0.6427 0.0
C1200 C 0.20223 0.11508 0.63695 0.0
C1201 C 0.23547 0.14162 0.62808 0.0
C1202 C 0.26933 0.9727 0.61147 0.0
C1203 C 0.23787 0.04648 0.62497 0.0
C1204 C 0.27541 0.92559 0.6131 0.0
C1205 C 0.25432 0.9018 0.6279 0.0
C1206 C 0.2415 0.99592 0.62456 0.0
C1207 C 0.22487 0.92593 0.63994 0.0
C1208 C 0.20339 0.06787 0.6355 0.0
C1209 C 0.2692 0.11907 0.61748 0.0
N1210 N 0.21953 0.97145 0.63807 0.0
N1211 N 0.26959 0.07282 0.61623 0.0
H1212 H 0.89218 0.19236 0.1574 0.0
H1213 H 0.11194 0.32127 0.11662 0.0
H1214 H 0.88147 0.3155 0.12516 0.0
H1215 H 0.11619 0.19344 0.14583 0.0
H1216 H 0.02893 0.32123 0.11947 0.0
H1217 H 0.97429 0.19466 0.15382 0.0
C1218 C 0.90703 0.22028 0.14967 0.0
C1219 C 0.87925 0.25388 0.14165 0.0
C1220 C 0.04799 0.29305 0.12515 0.0
C1221 C 0.97491 0.25644 0.13725 0.0
C1222 C 0.09564 0.29289 0.12345 0.0
C1223 C 0.12183 0.2572 0.13093 0.0
C1224 C 0.02579 0.25732 0.13447 0.0
C1225 C 0.09803 0.22166 0.13971 0.0
C1226 C 0.95427 0.22142 0.14755 0.0
C1227 C 0.90119 0.28897 0.13175 0.0
N1228 N 0.05186 0.22277 0.14127 0.0
N1229 N 0.9475 0.28927 0.1298 0.0
H1230 H 0.81445 0.10401 0.64905 0.0
H1231 H 0.74837 0.8625 0.60423 0.0
H1232 H 0.77106 0.09044 0.591 0.0
H1233 H 0.84076 0.87791 0.65102 0.0
H1234 H 0.74718 0.94578 0.60073 0.0
H1235 H 0.8159 0.02117 0.65162 0.0
C1236 C 0.80562 0.0837 0.63678 0.0
C1237 C 0.79318 0.10458 0.61971 0.0
C1238 C 0.76768 0.93078 0.61175 0.0
C1239 C 0.79358 1.00908 0.62273 0.0
C1240 C 0.76816 0.88327 0.61381 0.0
C1241 C 0.7948 0.86296 0.6279 0.0
C1242 C 0.79325 0.95829 0.62413 0.0
C1243 C 0.81991 0.8918 0.63986 0.0
C1244 C 0.80635 0.03628 0.63827 0.0
C1245 C 0.78158 0.07608 0.60437 0.0
N1246 N 0.81829 0.93764 0.63779 0.0
N1247 N 0.78169 0.03001 0.60628 0.0
loop_
_geom_bond_atom_site_label_1
_geom_bond_atom_site_label_2
_geom_bond_distance
_geom_bond_site_symmetry_2
_ccdc_geom_bond_type
Co0 N4 2.148 . S
Co0 N10 2.128 . S
Co0 N20 2.194 . S
Co0 O25 2.351 . S
Co0 O26 2.155 . S
Co0 O27 2.096 . S
C1 N4 1.301 . S
C1 N5 1.328 . S
C1 H6 0.930 . S
C2 C3 1.333 . S
C2 N4 1.317 . S
C2 H7 0.930 . S
C3 C2 1.333 . S
C3 N5 1.350 . S
C3 H29 0.931 . S
N4 Co0 2.148 . S
N4 C1 1.301 . S
N4 C2 1.317 . S
N5 C1 1.328 . S
N5 C3 1.350 . S
H6 C1 0.930 . S
H7 C2 0.930 . S
C8 O9 1.224 1_455 S
C8 O27 1.247 . S
O9 C8 1.224 1_655 S
N10 Co0 2.128 . S
N10 C11 1.355 . S
N10 C13 1.311 . S
C11 N10 1.355 . S
C11 C12 1.363 . S
C11 H23 0.929 . S
C12 C11 1.363 . S
C12 N14 1.375 . S
C12 H30 0.931 . S
C13 N10 1.311 . S
C13 N14 1.347 . S
C13 H24 0.929 . S
N14 C12 1.375 . S
N14 C13 1.347 . S
C15 C18 1.365 . S
C15 N20 1.328 . S
C15 H21 0.929 . S
C16 C17 1.362 . S
C16 C19 1.378 . S
C16 H31 0.929 1_455 S
C17 C16 1.362 . S
C17 C18 1.366 . S
C18 C15 1.365 . S
C18 C17 1.366 . S
C18 H32 0.930 . S
C19 C16 1.378 . S
C19 N20 1.315 . S
C19 H22 0.930 . S
N20 Co0 2.194 . S
N20 C15 1.328 . S
N20 C19 1.315 . S
H21 C15 0.929 . S
H22 C19 0.930 . S
H23 C11 0.929 . S
H24 C13 0.929 . S
O25 Co0 2.351 . S
O25 C28 1.244 . S
O26 Co0 2.155 . S
O26 C28 1.240 . S
O27 Co0 2.096 . S
O27 C8 1.247 . S
C28 O25 1.244 . S
C28 O26 1.240 . S
H29 C3 0.931 . S
H30 C12 0.931 . S
H31 C16 0.929 1_655 S
H32 C18 0.930 . S
Co33 N37 2.148 . S
Co33 N43 2.128 . S
Co33 N53 2.194 . S
Co33 O58 2.351 . S
Co33 O59 2.155 . S
Co33 O60 2.096 . S
C34 N37 1.301 . S
C34 N38 1.328 . S
C34 H39 0.930 . S
C35 C36 1.333 . S
C35 N37 1.317 . S
C35 H40 0.930 . S
C36 C35 1.333 . S
C36 N38 1.350 . S
C36 H62 0.931 . S
N37 Co33 2.148 . S
N37 C34 1.301 . S
N37 C35 1.317 . S
N38 C34 1.328 . S
N38 C36 1.350 . S
H39 C34 0.930 . S
H40 C35 0.930 . S
C41 O42 1.224 1_545 S
C41 O60 1.247 . S
O42 C41 1.224 1_565 S
N43 Co33 2.128 . S
N43 C44 1.355 . S
N43 C46 1.311 . S
C44 N43 1.355 . S
C44 C45 1.363 . S
C44 H56 0.929 . S
C45 C44 1.363 . S
C45 N47 1.375 . S
C45 H63 0.931 . S
C46 N43 1.311 . S
C46 N47 1.347 . S
C46 H57 0.929 . S
N47 C45 1.375 . S
N47 C46 1.347 . S
C48 C51 1.365 . S
C48 N53 1.328 . S
C48 H54 0.929 . S
C49 C50 1.362 . S
C49 C52 1.378 . S
C49 H64 0.929 1_545 S
C50 C49 1.362 . S
C50 C51 1.366 . S
C51 C48 1.365 . S
C51 C50 1.366 . S
C51 H65 0.930 . S
C52 C49 1.378 . S
C52 N53 1.315 . S
C52 H55 0.930 . S
N53 Co33 2.194 . S
N53 C48 1.328 . S
N53 C52 1.315 . S
H54 C48 0.929 . S
H55 C52 0.930 . S
H56 C44 0.929 . S
H57 C46 0.929 . S
O58 Co33 2.351 . S
O58 C61 1.244 . S
O59 Co33 2.155 . S
O59 C61 1.240 . S
O60 Co33 2.096 . S
O60 C41 1.247 . S
C61 O58 1.244 . S
C61 O59 1.240 . S
H62 C36 0.931 . S
H63 C45 0.931 . S
H64 C49 0.929 1_565 S
H65 C51 0.930 . S
Co66 N70 2.148 . S
Co66 N76 2.128 . S
Co66 N86 2.194 . S
Co66 O91 2.351 . S
Co66 O92 2.155 . S
Co66 O93 2.096 . S
C67 N70 1.301 . S
C67 N71 1.328 . S
C67 H72 0.930 . S
C68 C69 1.333 . S
C68 N70 1.317 . S
C68 H73 0.930 . S
C69 C68 1.333 . S
C69 N71 1.350 . S
C69 H95 0.931 . S
N70 Co66 2.148 . S
N70 C67 1.301 . S
N70 C68 1.317 . S
N71 C67 1.328 . S
N71 C69 1.350 . S
H72 C67 0.930 . S
H73 C68 0.930 . S
C74 O75 1.224 1_655 S
C74 O93 1.247 . S
O75 C74 1.224 1_455 S
N76 Co66 2.128 . S
N76 C77 1.355 . S
N76 C79 1.311 . S
C77 N76 1.355 . S
C77 C78 1.363 . S
C77 H89 0.929 . S
C78 C77 1.363 . S
C78 N80 1.375 . S
C78 H96 0.931 . S
C79 N76 1.311 . S
C79 N80 1.347 . S
C79 H90 0.929 . S
N80 C78 1.375 . S
N80 C79 1.347 . S
C81 C84 1.365 . S
C81 N86 1.328 . S
C81 H87 0.929 . S
C82 C83 1.362 . S
C82 C85 1.378 . S
C82 H97 0.929 1_655 S
C83 C82 1.362 . S
C83 C84 1.366 . S
C84 C81 1.365 . S
C84 C83 1.366 . S
C84 H98 0.930 . S
C85 C82 1.378 . S
C85 N86 1.315 . S
C85 H88 0.930 . S
N86 Co66 2.194 . S
N86 C81 1.328 . S
N86 C85 1.315 . S
H87 C81 0.929 . S
H88 C85 0.930 . S
H89 C77 0.929 . S
H90 C79 0.929 . S
O91 Co66 2.351 . S
O91 C94 1.244 . S
O92 Co66 2.155 . S
O92 C94 1.240 . S
O93 Co66 2.096 . S
O93 C74 1.247 . S
C94 O91 1.244 . S
C94 O92 1.240 . S
H95 C69 0.931 . S
H96 C78 0.931 . S
H97 C82 0.929 1_455 S
H98 C84 0.930 . S
Co99 N103 2.148 . S
Co99 N109 2.128 . S
Co99 N119 2.194 . S
Co99 O124 2.351 . S
Co99 O125 2.155 . S
Co99 O126 2.096 . S
C100 N103 1.301 . S
C100 N104 1.328 . S
C100 H105 0.930 . S
C101 C102 1.333 . S
C101 N103 1.317 . S
C101 H106 0.930 . S
C102 C101 1.333 . S
C102 N104 1.350 . S
C102 H128 0.931 . S
N103 Co99 2.148 . S
N103 C100 1.301 . S
N103 C101 1.317 . S
N104 C100 1.328 . S
N104 C102 1.350 . S
H105 C100 0.930 . S
H106 C101 0.930 . S
C107 O108 1.224 1_565 S
C107 O126 1.247 . S
O108 C107 1.224 1_545 S
N109 Co99 2.128 . S
N109 C110 1.355 . S
N109 C112 1.311 . S
C110 N109 1.355 . S
C110 C111 1.363 . S
C110 H122 0.929 . S
C111 C110 1.363 . S
C111 N113 1.375 . S
C111 H129 0.931 . S
C112 N109 1.311 . S
C112 N113 1.347 . S
C112 H123 0.929 . S
N113 C111 1.375 . S
N113 C112 1.347 . S
C114 C117 1.365 . S
C114 N119 1.328 . S
C114 H120 0.929 . S
C115 C116 1.362 . S
C115 C118 1.378 . S
C115 H130 0.929 1_565 S
C116 C115 1.362 . S
C116 C117 1.366 . S
C117 C114 1.365 . S
C117 C116 1.366 . S
C117 H131 0.930 . S
C118 C115 1.378 . S
C118 N119 1.315 . S
C118 H121 0.930 . S
N119 Co99 2.194 . S
N119 C114 1.328 . S
N119 C118 1.315 . S
H120 C114 0.929 . S
H121 C118 0.930 . S
H122 C110 0.929 . S
H123 C112 0.929 . S
O124 Co99 2.351 . S
O124 C127 1.244 . S
O125 Co99 2.155 . S
O125 C127 1.240 . S
O126 Co99 2.096 . S
O126 C107 1.247 . S
C127 O124 1.244 . S
C127 O125 1.240 . S
H128 C102 0.931 . S
H129 C111 0.931 . S
H130 C115 0.929 1_545 S
H131 C117 0.930 . S
Co132 N136 2.148 . S
Co132 N142 2.128 . S
Co132 N152 2.194 . S
Co132 O157 2.351 . S
Co132 O158 2.155 . S
Co132 O159 2.096 . S
C133 N136 1.301 . S
C133 N137 1.328 . S
C133 H138 0.930 . S
C134 C135 1.333 . S
C134 N136 1.317 . S
C134 H139 0.930 . S
C135 C134 1.333 . S
C135 N137 1.350 . S
C135 H161 0.931 . S
N136 Co132 2.148 . S
N136 C133 1.301 . S
N136 C134 1.317 . S
N137 C133 1.328 . S
N137 C135 1.350 . S
H138 C133 0.930 . S
H139 C134 0.930 . S
C140 O141 1.224 . S
C140 O159 1.247 . S
O141 C140 1.224 . S
N142 Co132 2.128 . S
N142 C143 1.355 . S
N142 C145 1.311 . S
C143 N142 1.355 . S
C143 C144 1.363 . S
C143 H155 0.929 . S
C144 C143 1.363 . S
C144 N146 1.375 . S
C144 H162 0.931 . S
C145 N142 1.311 . S
C145 N146 1.347 . S
C145 H156 0.929 . S
N146 C144 1.375 . S
N146 C145 1.347 . S
C147 C150 1.365 . S
C147 N152 1.328 . S
C147 H153 0.929 . S
C148 C149 1.362 . S
C148 C151 1.378 . S
C148 H163 0.929 . S
C149 C148 1.362 . S
C149 C150 1.366 . S
C150 C147 1.365 . S
C150 C149 1.366 . S
C150 H164 0.930 . S
C151 C148 1.378 . S
C151 N152 1.315 . S
C151 H154 0.930 . S
N152 Co132 2.194 . S
N152 C147 1.328 . S
N152 C151 1.315 . S
H153 C147 0.929 . S
H154 C151 0.930 . S
H155 C143 0.929 . S
H156 C145 0.929 . S
O157 Co132 2.351 . S
O157 C160 1.244 . S
O158 Co132 2.155 . S
O158 C160 1.240 . S
O159 Co132 2.096 . S
O159 C140 1.247 . S
C160 O157 1.244 . S
C160 O158 1.240 . S
H161 C135 0.931 . S
H162 C144 0.931 . S
H163 C148 0.929 . S
H164 C150 0.930 . S
Co165 N169 2.148 . S
Co165 N175 2.128 . S
Co165 N185 2.194 . S
Co165 O190 2.351 . S
Co165 O191 2.155 . S
Co165 O192 2.096 . S
C166 N169 1.301 . S
C166 N170 1.328 . S
C166 H171 0.930 . S
C167 C168 1.333 . S
C167 N169 1.317 . S
C167 H172 0.930 . S
C168 C167 1.333 . S
C168 N170 1.350 . S
C168 H194 0.931 . S
N169 Co165 2.148 . S
N169 C166 1.301 . S
N169 C167 1.317 . S
N170 C166 1.328 . S
N170 C168 1.350 . S
H171 C166 0.930 . S
H172 C167 0.930 . S
C173 O174 1.224 . S
C173 O192 1.247 . S
O174 C173 1.224 . S
N175 Co165 2.128 . S
N175 C176 1.355 . S
N175 C178 1.311 . S
C176 N175 1.355 . S
C176 C177 1.363 . S
C176 H188 0.929 . S
C177 C176 1.363 . S
C177 N179 1.375 . S
C177 H195 0.931 . S
C178 N175 1.311 . S
C178 N179 1.347 . S
C178 H189 0.929 . S
N179 C177 1.375 . S
N179 C178 1.347 . S
C180 C183 1.365 . S
C180 N185 1.328 . S
C180 H186 0.929 . S
C181 C182 1.362 . S
C181 C184 1.378 . S
C181 H196 0.929 . S
C182 C181 1.362 . S
C182 C183 1.366 . S
C183 C180 1.365 . S
C183 C182 1.366 . S
C183 H197 0.930 . S
C184 C181 1.378 . S
C184 N185 1.315 . S
C184 H187 0.930 . S
N185 Co165 2.194 . S
N185 C180 1.328 . S
N185 C184 1.315 . S
H186 C180 0.929 . S
H187 C184 0.930 . S
H188 C176 0.929 . S
H189 C178 0.929 . S
O190 Co165 2.351 . S
O190 C193 1.244 . S
O191 Co165 2.155 . S
O191 C193 1.240 . S
O192 Co165 2.096 . S
O192 C173 1.247 . S
C193 O190 1.244 . S
C193 O191 1.240 . S
H194 C168 0.931 . S
H195 C177 0.931 . S
H196 C181 0.929 . S
H197 C183 0.930 . S
Co198 N202 2.148 . S
Co198 N208 2.128 . S
Co198 N218 2.194 . S
Co198 O223 2.351 . S
Co198 O224 2.155 . S
Co198 O225 2.096 . S
C199 N202 1.301 . S
C199 N203 1.328 . S
C199 H204 0.930 . S
C200 C201 1.333 . S
C200 N202 1.317 . S
C200 H205 0.930 . S
C201 C200 1.333 . S
C201 N203 1.350 . S
C201 H227 0.931 . S
N202 Co198 2.148 . S
N202 C199 1.301 . S
N202 C200 1.317 . S
N203 C199 1.328 . S
N203 C201 1.350 . S
H204 C199 0.930 . S
H205 C200 0.930 . S
C206 O207 1.224 . S
C206 O225 1.247 . S
O207 C206 1.224 . S
N208 Co198 2.128 . S
N208 C209 1.355 . S
N208 C211 1.311 . S
C209 N208 1.355 . S
C209 C210 1.363 . S
C209 H221 0.929 . S
C210 C209 1.363 . S
C210 N212 1.375 . S
C210 H228 0.931 . S
C211 N208 1.311 . S
C211 N212 1.347 . S
C211 H222 0.929 . S
N212 C210 1.375 . S
N212 C211 1.347 . S
C213 C216 1.365 . S
C213 N218 1.328 . S
C213 H219 0.929 . S
C214 C215 1.362 . S
C214 C217 1.378 . S
C214 H229 0.929 . S
C215 C214 1.362 . S
C215 C216 1.366 . S
C216 C213 1.365 . S
C216 C215 1.366 . S
C216 H230 0.930 . S
C217 C214 1.378 . S
C217 N218 1.315 . S
C217 H220 0.930 . S
N218 Co198 2.194 . S
N218 C213 1.328 . S
N218 C217 1.315 . S
H219 C213 0.929 . S
H220 C217 0.930 . S
H221 C209 0.929 . S
H222 C211 0.929 . S
O223 Co198 2.351 . S
O223 C226 1.244 . S
O224 Co198 2.155 . S
O224 C226 1.240 . S
O225 Co198 2.096 . S
O225 C206 1.247 . S
C226 O223 1.244 . S
C226 O224 1.240 . S
H227 C201 0.931 . S
H228 C210 0.931 . S
H229 C214 0.929 . S
H230 C216 0.930 . S
Co231 N235 2.148 . S
Co231 N241 2.128 . S
Co231 N251 2.194 . S
Co231 O256 2.351 . S
Co231 O257 2.155 . S
Co231 O258 2.096 . S
C232 N235 1.301 . S
C232 N236 1.328 . S
C232 H237 0.930 . S
C233 C234 1.333 . S
C233 N235 1.317 . S
C233 H238 0.930 . S
C234 C233 1.333 . S
C234 N236 1.350 . S
C234 H260 0.931 . S
N235 Co231 2.148 . S
N235 C232 1.301 . S
N235 C233 1.317 . S
N236 C232 1.328 . S
N236 C234 1.350 . S
H237 C232 0.930 . S
H238 C233 0.930 . S
C239 O240 1.224 . S
C239 O258 1.247 . S
O240 C239 1.224 . S
N241 Co231 2.128 . S
N241 C242 1.355 . S
N241 C244 1.311 . S
C242 N241 1.355 . S
C242 C243 1.363 . S
C242 H254 0.929 . S
C243 C242 1.363 . S
C243 N245 1.375 . S
C243 H261 0.931 . S
C244 N241 1.311 . S
C244 N245 1.347 . S
C244 H255 0.929 . S
N245 C243 1.375 . S
N245 C244 1.347 . S
C246 C249 1.365 . S
C246 N251 1.328 . S
C246 H252 0.929 . S
C247 C248 1.362 . S
C247 C250 1.378 . S
C247 H262 0.929 . S
C248 C247 1.362 . S
C248 C249 1.366 . S
C249 C246 1.365 . S
C249 C248 1.366 . S
C249 H263 0.930 . S
C250 C247 1.378 . S
C250 N251 1.315 . S
C250 H253 0.930 . S
N251 Co231 2.194 . S
N251 C246 1.328 . S
N251 C250 1.315 . S
H252 C246 0.929 . S
H253 C250 0.930 . S
H254 C242 0.929 . S
H255 C244 0.929 . S
O256 Co231 2.351 . S
O256 C259 1.244 . S
O257 Co231 2.155 . S
O257 C259 1.240 . S
O258 Co231 2.096 . S
O258 C239 1.247 . S
C259 O256 1.244 . S
C259 O257 1.240 . S
H260 C234 0.931 . S
H261 C243 0.931 . S
H262 C247 0.929 . S
H263 C249 0.930 . S
Co264 N268 2.148 . S
Co264 N274 2.128 . S
Co264 N284 2.194 . S
Co264 O289 2.351 . S
Co264 O290 2.155 . S
Co264 O291 2.096 . S
C265 N268 1.301 . S
C265 N269 1.328 . S
C265 H270 0.930 . S
C266 C267 1.333 . S
C266 N268 1.317 . S
C266 H271 0.930 . S
C267 C266 1.333 . S
C267 N269 1.350 . S
C267 H293 0.931 . S
N268 Co264 2.148 . S
N268 C265 1.301 . S
N268 C266 1.317 . S
N269 C265 1.328 . S
N269 C267 1.350 . S
H270 C265 0.930 . S
H271 C266 0.930 . S
C272 O273 1.224 1_655 S
C272 O291 1.247 . S
O273 C272 1.224 1_455 S
N274 Co264 2.128 . S
N274 C275 1.355 . S
N274 C277 1.311 . S
C275 N274 1.355 . S
C275 C276 1.363 . S
C275 H287 0.929 . S
C276 C275 1.363 . S
C276 N278 1.375 . S
C276 H294 0.931 . S
C277 N274 1.311 . S
C277 N278 1.347 . S
C277 H288 0.929 . S
N278 C276 1.375 . S
N278 C277 1.347 . S
C279 C282 1.365 . S
C279 N284 1.328 . S
C279 H285 0.929 . S
C280 C281 1.362 . S
C280 C283 1.378 . S
C280 H295 0.929 1_655 S
C281 C280 1.362 . S
C281 C282 1.366 . S
C282 C279 1.365 . S
C282 C281 1.366 . S
C282 H296 0.930 . S
C283 C280 1.378 . S
C283 N284 1.315 . S
C283 H286 0.930 . S
N284 Co264 2.194 . S
N284 C279 1.328 . S
N284 C283 1.315 . S
H285 C279 0.929 . S
H286 C283 0.930 . S
H287 C275 0.929 . S
H288 C277 0.929 . S
O289 Co264 2.351 . S
O289 C292 1.244 . S
O290 Co264 2.155 . S
O290 C292 1.240 . S
O291 Co264 2.096 . S
O291 C272 1.247 . S
C292 O289 1.244 . S
C292 O290 1.240 . S
H293 C267 0.931 . S
H294 C276 0.931 . S
H295 C280 0.929 1_455 S
H296 C282 0.930 . S
Co297 N301 2.148 . S
Co297 N307 2.128 . S
Co297 N317 2.194 . S
Co297 O322 2.351 . S
Co297 O323 2.155 . S
Co297 O324 2.096 . S
C298 N301 1.301 . S
C298 N302 1.328 . S
C298 H303 0.930 . S
C299 C300 1.333 . S
C299 N301 1.317 . S
C299 H304 0.930 . S
C300 C299 1.333 . S
C300 N302 1.350 . S
C300 H326 0.931 . S
N301 Co297 2.148 . S
N301 C298 1.301 . S
N301 C299 1.317 . S
N302 C298 1.328 . S
N302 C300 1.350 . S
H303 C298 0.930 . S
H304 C299 0.930 . S
C305 O306 1.224 1_565 S
C305 O324 1.247 . S
O306 C305 1.224 1_545 S
N307 Co297 2.128 . S
N307 C308 1.355 . S
N307 C310 1.311 . S
C308 N307 1.355 . S
C308 C309 1.363 . S
C308 H320 0.929 . S
C309 C308 1.363 . S
C309 N311 1.375 . S
C309 H327 0.931 . S
C310 N307 1.311 . S
C310 N311 1.347 . S
C310 H321 0.929 . S
N311 C309 1.375 . S
N311 C310 1.347 . S
C312 C315 1.365 . S
C312 N317 1.328 . S
C312 H318 0.929 . S
C313 C314 1.362 . S
C313 C316 1.378 . S
C313 H328 0.929 1_565 S
C314 C313 1.362 . S
C314 C315 1.366 . S
C315 C312 1.365 . S
C315 C314 1.366 . S
C315 H329 0.930 . S
C316 C313 1.378 . S
C316 N317 1.315 . S
C316 H319 0.930 . S
N317 Co297 2.194 . S
N317 C312 1.328 . S
N317 C316 1.315 . S
H318 C312 0.929 . S
H319 C316 0.930 . S
H320 C308 0.929 . S
H321 C310 0.929 . S
O322 Co297 2.351 . S
O322 C325 1.244 . S
O323 Co297 2.155 . S
O323 C325 1.240 . S
O324 Co297 2.096 . S
O324 C305 1.247 . S
C325 O322 1.244 . S
C325 O323 1.240 . S
H326 C300 0.931 . S
H327 C309 0.931 . S
H328 C313 0.929 1_545 S
H329 C315 0.930 . S
Co330 N334 2.148 . S
Co330 N340 2.128 . S
Co330 N350 2.194 . S
Co330 O355 2.351 . S
Co330 O356 2.155 . S
Co330 O357 2.096 . S
C331 N334 1.301 . S
C331 N335 1.328 . S
C331 H336 0.930 . S
C332 C333 1.333 . S
C332 N334 1.317 . S
C332 H337 0.930 . S
C333 C332 1.333 . S
C333 N335 1.350 . S
C333 H359 0.931 . S
N334 Co330 2.148 . S
N334 C331 1.301 . S
N334 C332 1.317 . S
N335 C331 1.328 . S
N335 C333 1.350 . S
H336 C331 0.930 . S
H337 C332 0.930 . S
C338 O339 1.224 1_455 S
C338 O357 1.247 . S
O339 C338 1.224 1_655 S
N340 Co330 2.128 . S
N340 C341 1.355 . S
N340 C343 1.311 . S
C341 N340 1.355 . S
C341 C342 1.363 . S
C341 H353 0.929 . S
C342 C341 1.363 . S
C342 N344 1.375 . S
C342 H360 0.931 . S
C343 N340 1.311 . S
C343 N344 1.347 . S
C343 H354 0.929 . S
N344 C342 1.375 . S
N344 C343 1.347 . S
C345 C348 1.365 . S
C345 N350 1.328 . S
C345 H351 0.929 . S
C346 C347 1.362 . S
C346 C349 1.378 . S
C346 H361 0.929 1_455 S
C347 C346 1.362 . S
C347 C348 1.366 . S
C348 C345 1.365 . S
C348 C347 1.366 . S
C348 H362 0.930 . S
C349 C346 1.378 . S
C349 N350 1.315 . S
C349 H352 0.930 . S
N350 Co330 2.194 . S
N350 C345 1.328 . S
N350 C349 1.315 . S
H351 C345 0.929 . S
H352 C349 0.930 . S
H353 C341 0.929 . S
H354 C343 0.929 . S
O355 Co330 2.351 . S
O355 C358 1.244 . S
O356 Co330 2.155 . S
O356 C358 1.240 . S
O357 Co330 2.096 . S
O357 C338 1.247 . S
C358 O355 1.244 . S
C358 O356 1.240 . S
H359 C333 0.931 . S
H360 C342 0.931 . S
H361 C346 0.929 1_655 S
H362 C348 0.930 . S
Co363 N367 2.148 . S
Co363 N373 2.128 . S
Co363 N383 2.194 . S
Co363 O388 2.351 . S
Co363 O389 2.155 . S
Co363 O390 2.096 . S
C364 N367 1.301 . S
C364 N368 1.328 . S
C364 H369 0.930 . S
C365 C366 1.333 . S
C365 N367 1.317 . S
C365 H370 0.930 . S
C366 C365 1.333 . S
C366 N368 1.350 . S
C366 H392 0.931 . S
N367 Co363 2.148 . S
N367 C364 1.301 . S
N367 C365 1.317 . S
N368 C364 1.328 . S
N368 C366 1.350 . S
H369 C364 0.930 . S
H370 C365 0.930 . S
C371 O372 1.224 1_545 S
C371 O390 1.247 . S
O372 C371 1.224 1_565 S
N373 Co363 2.128 . S
N373 C374 1.355 . S
N373 C376 1.311 . S
C374 N373 1.355 . S
C374 C375 1.363 . S
C374 H386 0.929 . S
C375 C374 1.363 . S
C375 N377 1.375 . S
C375 H393 0.931 . S
C376 N373 1.311 . S
C376 N377 1.347 . S
C376 H387 0.929 . S
N377 C375 1.375 . S
N377 C376 1.347 . S
C378 C381 1.365 . S
C378 N383 1.328 . S
C378 H384 0.929 . S
C379 C380 1.362 . S
C379 C382 1.378 . S
C379 H394 0.929 1_545 S
C380 C379 1.362 . S
C380 C381 1.366 . S
C381 C378 1.365 . S
C381 C380 1.366 . S
C381 H395 0.930 . S
C382 C379 1.378 . S
C382 N383 1.315 . S
C382 H385 0.930 . S
N383 Co363 2.194 . S
N383 C378 1.328 . S
N383 C382 1.315 . S
H384 C378 0.929 . S
H385 C382 0.930 . S
H386 C374 0.929 . S
H387 C376 0.929 . S
O388 Co363 2.351 . S
O388 C391 1.244 . S
O389 Co363 2.155 . S
O389 C391 1.240 . S
O390 Co363 2.096 . S
O390 C371 1.247 . S
C391 O388 1.244 . S
C391 O389 1.240 . S
H392 C366 0.931 . S
H393 C375 0.931 . S
H394 C379 0.929 1_565 S
H395 C381 0.930 . S
Co396 N400 2.148 . S
Co396 N406 2.128 . S
Co396 N416 2.194 . S
Co396 O421 2.351 . S
Co396 O422 2.155 . S
Co396 O423 2.096 . S
C397 N400 1.301 . S
C397 N401 1.328 . S
C397 H402 0.930 . S
C398 C399 1.333 . S
C398 N400 1.317 . S
C398 H403 0.930 . S
C399 C398 1.333 . S
C399 N401 1.350 . S
C399 H425 0.931 . S
N400 Co396 2.148 . S
N400 C397 1.301 . S
N400 C398 1.317 . S
N401 C397 1.328 . S
N401 C399 1.350 . S
H402 C397 0.930 . S
H403 C398 0.930 . S
C404 O405 1.224 . S
C404 O423 1.247 . S
O405 C404 1.224 . S
N406 Co396 2.128 . S
N406 C407 1.355 . S
N406 C409 1.311 . S
C407 N406 1.355 . S
C407 C408 1.363 . S
C407 H419 0.929 . S
C408 C407 1.363 . S
C408 N410 1.375 . S
C408 H426 0.931 . S
C409 N406 1.311 . S
C409 N410 1.347 . S
C409 H420 0.929 . S
N410 C408 1.375 . S
N410 C409 1.347 . S
C411 C414 1.365 . S
C411 N416 1.328 . S
C411 H417 0.929 . S
C412 C413 1.362 . S
C412 C415 1.378 . S
C412 H427 0.929 . S
C413 C412 1.362 . S
C413 C414 1.366 . S
C414 C411 1.365 . S
C414 C413 1.366 . S
C414 H428 0.930 . S
C415 C412 1.378 . S
C415 N416 1.315 . S
C415 H418 0.930 . S
N416 Co396 2.194 . S
N416 C411 1.328 . S
N416 C415 1.315 . S
H417 C411 0.929 . S
H418 C415 0.930 . S
H419 C407 0.929 . S
H420 C409 0.929 . S
O421 Co396 2.351 . S
O421 C424 1.244 . S
O422 Co396 2.155 . S
O422 C424 1.240 . S
O423 Co396 2.096 . S
O423 C404 1.247 . S
C424 O421 1.244 . S
C424 O422 1.240 . S
H425 C399 0.931 . S
H426 C408 0.931 . S
H427 C412 0.929 . S
H428 C414 0.930 . S
Co429 N433 2.148 . S
Co429 N439 2.128 . S
Co429 N449 2.194 . S
Co429 O454 2.351 . S
Co429 O455 2.155 . S
Co429 O456 2.096 . S
C430 N433 1.301 . S
C430 N434 1.328 . S
C430 H435 0.930 . S
C431 C432 1.333 . S
C431 N433 1.317 . S
C431 H436 0.930 . S
C432 C431 1.333 . S
C432 N434 1.350 . S
C432 H458 0.931 . S
N433 Co429 2.148 . S
N433 C430 1.301 . S
N433 C431 1.317 . S
N434 C430 1.328 . S
N434 C432 1.350 . S
H435 C430 0.930 . S
H436 C431 0.930 . S
C437 O438 1.224 . S
C437 O456 1.247 . S
O438 C437 1.224 . S
N439 Co429 2.128 . S
N439 C440 1.355 . S
N439 C442 1.311 . S
C440 N439 1.355 . S
C440 C441 1.363 . S
C440 H452 0.929 . S
C441 C440 1.363 . S
C441 N443 1.375 . S
C441 H459 0.931 . S
C442 N439 1.311 . S
C442 N443 1.347 . S
C442 H453 0.929 . S
N443 C441 1.375 . S
N443 C442 1.347 . S
C444 C447 1.365 . S
C444 N449 1.328 . S
C444 H450 0.929 . S
C445 C446 1.362 . S
C445 C448 1.378 . S
C445 H460 0.929 . S
C446 C445 1.362 . S
C446 C447 1.366 . S
C447 C444 1.365 . S
C447 C446 1.366 . S
C447 H461 0.930 . S
C448 C445 1.378 . S
C448 N449 1.315 . S
C448 H451 0.930 . S
N449 Co429 2.194 . S
N449 C444 1.328 . S
N449 C448 1.315 . S
H450 C444 0.929 . S
H451 C448 0.930 . S
H452 C440 0.929 . S
H453 C442 0.929 . S
O454 Co429 2.351 . S
O454 C457 1.244 . S
O455 Co429 2.155 . S
O455 C457 1.240 . S
O456 Co429 2.096 . S
O456 C437 1.247 . S
C457 O454 1.244 . S
C457 O455 1.240 . S
H458 C432 0.931 . S
H459 C441 0.931 . S
H460 C445 0.929 . S
H461 C447 0.930 . S
Co462 N466 2.148 . S
Co462 N472 2.128 . S
Co462 N482 2.194 . S
Co462 O487 2.351 . S
Co462 O488 2.155 . S
Co462 O489 2.096 . S
C463 N466 1.301 . S
C463 N467 1.328 . S
C463 H468 0.930 . S
C464 C465 1.333 . S
C464 N466 1.317 . S
C464 H469 0.930 . S
C465 C464 1.333 . S
C465 N467 1.350 . S
C465 H491 0.931 . S
N466 Co462 2.148 . S
N466 C463 1.301 . S
N466 C464 1.317 . S
N467 C463 1.328 . S
N467 C465 1.350 . S
H468 C463 0.930 . S
H469 C464 0.930 . S
C470 O471 1.224 . S
C470 O489 1.247 . S
O471 C470 1.224 . S
N472 Co462 2.128 . S
N472 C473 1.355 . S
N472 C475 1.311 . S
C473 N472 1.355 . S
C473 C474 1.363 . S
C473 H485 0.929 . S
C474 C473 1.363 . S
C474 N476 1.375 . S
C474 H492 0.931 . S
C475 N472 1.311 . S
C475 N476 1.347 . S
C475 H486 0.929 . S
N476 C474 1.375 . S
N476 C475 1.347 . S
C477 C480 1.365 . S
C477 N482 1.328 . S
C477 H483 0.929 . S
C478 C479 1.362 . S
C478 C481 1.378 . S
C478 H493 0.929 . S
C479 C478 1.362 . S
C479 C480 1.366 . S
C480 C477 1.365 . S
C480 C479 1.366 . S
C480 H494 0.930 . S
C481 C478 1.378 . S
C481 N482 1.315 . S
C481 H484 0.930 . S
N482 Co462 2.194 . S
N482 C477 1.328 . S
N482 C481 1.315 . S
H483 C477 0.929 . S
H484 C481 0.930 . S
H485 C473 0.929 . S
H486 C475 0.929 . S
O487 Co462 2.351 . S
O487 C490 1.244 . S
O488 Co462 2.155 . S
O488 C490 1.240 . S
O489 Co462 2.096 . S
O489 C470 1.247 . S
C490 O487 1.244 . S
C490 O488 1.240 . S
H491 C465 0.931 . S
H492 C474 0.931 . S
H493 C478 0.929 . S
H494 C480 0.930 . S
Co495 N499 2.148 . S
Co495 N505 2.128 . S
Co495 N515 2.194 . S
Co495 O520 2.351 . S
Co495 O521 2.155 . S
Co495 O522 2.096 . S
C496 N499 1.301 . S
C496 N500 1.328 . S
C496 H501 0.930 . S
C497 C498 1.333 . S
C497 N499 1.317 . S
C497 H502 0.930 . S
C498 C497 1.333 . S
C498 N500 1.350 . S
C498 H524 0.931 . S
N499 Co495 2.148 . S
N499 C496 1.301 . S
N499 C497 1.317 . S
N500 C496 1.328 . S
N500 C498 1.350 . S
H501 C496 0.930 . S
H502 C497 0.930 . S
C503 O504 1.224 . S
C503 O522 1.247 . S
O504 C503 1.224 . S
N505 Co495 2.128 . S
N505 C506 1.355 . S
N505 C508 1.311 . S
C506 N505 1.355 . S
C506 C507 1.363 . S
C506 H518 0.929 . S
C507 C506 1.363 . S
C507 N509 1.375 . S
C507 H525 0.931 . S
C508 N505 1.311 . S
C508 N509 1.347 . S
C508 H519 0.929 . S
N509 C507 1.375 . S
N509 C508 1.347 . S
C510 C513 1.365 . S
C510 N515 1.328 . S
C510 H516 0.929 . S
C511 C512 1.362 . S
C511 C514 1.378 . S
C511 H526 0.929 . S
C512 C511 1.362 . S
C512 C513 1.366 . S
C513 C510 1.365 . S
C513 C512 1.366 . S
C513 H527 0.930 . S
C514 C511 1.378 . S
C514 N515 1.315 . S
C514 H517 0.930 . S
N515 Co495 2.194 . S
N515 C510 1.328 . S
N515 C514 1.315 . S
H516 C510 0.929 . S
H517 C514 0.930 . S
H518 C506 0.929 . S
H519 C508 0.929 . S
O520 Co495 2.351 . S
O520 C523 1.244 . S
O521 Co495 2.155 . S
O521 C523 1.240 . S
O522 Co495 2.096 . S
O522 C503 1.247 . S
C523 O520 1.244 . S
C523 O521 1.240 . S
H524 C498 0.931 . S
H525 C507 0.931 . S
H526 C511 0.929 . S
H527 C513 0.930 . S
H528 C534 0.930 . S
H529 C538 0.930 . S
H530 C543 0.929 . S
H531 C541 0.929 . S
H532 C536 0.929 . S
H533 C542 0.929 . S
C534 H528 0.930 . S
C534 C535 1.367 . S
C534 C542 1.378 . S
C535 C534 1.367 . S
C535 C543 1.433 . S
C536 H532 0.929 . S
C536 C538 1.378 . S
C536 C540 1.350 . S
C537 C540 1.463 . S
C537 C542 1.350 . S
C537 N545 1.427 . S
C538 H529 0.930 . S
C538 C536 1.378 . S
C538 C539 1.367 . S
C539 C538 1.367 . S
C539 C541 1.433 . S
C540 C536 1.350 . S
C540 C537 1.463 . S
C540 N544 1.427 . S
C541 H531 0.929 . S
C541 C539 1.433 . S
C541 N544 1.384 . S
C542 H533 0.929 . S
C542 C534 1.378 . S
C542 C537 1.350 . S
C543 H530 0.929 . S
C543 C535 1.433 . S
C543 N545 1.384 . S
N544 C540 1.427 . S
N544 C541 1.384 . S
N545 C537 1.427 . S
N545 C543 1.384 . S
H546 C552 0.930 . S
H547 C556 0.930 . S
H548 C561 0.929 . S
H549 C559 0.929 . S
H550 C554 0.929 . S
H551 C560 0.929 . S
C552 H546 0.930 . S
C552 C553 1.367 . S
C552 C560 1.378 . S
C553 C552 1.367 . S
C553 C561 1.433 . S
C554 H550 0.929 . S
C554 C556 1.378 . S
C554 C558 1.350 . S
C555 C558 1.463 . S
C555 C560 1.350 . S
C555 N563 1.427 . S
C556 H547 0.930 . S
C556 C554 1.378 . S
C556 C557 1.367 . S
C557 C556 1.367 . S
C557 C559 1.433 . S
C558 C554 1.350 . S
C558 C555 1.463 . S
C558 N562 1.427 . S
C559 H549 0.929 . S
C559 C557 1.433 . S
C559 N562 1.384 . S
C560 H551 0.929 . S
C560 C552 1.378 . S
C560 C555 1.350 . S
C561 H548 0.929 . S
C561 C553 1.433 . S
C561 N563 1.384 . S
N562 C558 1.427 . S
N562 C559 1.384 . S
N563 C555 1.427 . S
N563 C561 1.384 . S
H564 C570 0.930 . S
H565 C574 0.930 . S
H566 C579 0.929 . S
H567 C577 0.929 . S
H568 C572 0.929 . S
H569 C578 0.929 . S
C570 H564 0.930 . S
C570 C571 1.367 . S
C570 C578 1.378 . S
C571 C570 1.367 . S
C571 C579 1.433 . S
C572 H568 0.929 . S
C572 C574 1.378 . S
C572 C576 1.350 . S
C573 C576 1.463 . S
C573 C578 1.350 . S
C573 N581 1.427 . S
C574 H565 0.930 . S
C574 C572 1.378 . S
C574 C575 1.367 . S
C575 C574 1.367 . S
C575 C577 1.433 . S
C576 C572 1.350 . S
C576 C573 1.463 . S
C576 N580 1.427 . S
C577 H567 0.929 . S
C577 C575 1.433 . S
C577 N580 1.384 . S
C578 H569 0.929 . S
C578 C570 1.378 . S
C578 C573 1.350 . S
C579 H566 0.929 . S
C579 C571 1.433 . S
C579 N581 1.384 . S
N580 C576 1.427 . S
N580 C577 1.384 . S
N581 C573 1.427 . S
N581 C579 1.384 . S
H582 C588 0.930 . S
H583 C592 0.930 . S
H584 C597 0.929 . S
H585 C595 0.929 . S
H586 C590 0.929 . S
H587 C596 0.929 . S
C588 H582 0.930 . S
C588 C589 1.367 . S
C588 C596 1.378 . S
C589 C588 1.367 . S
C589 C597 1.433 . S
C590 H586 0.929 . S
C590 C592 1.378 . S
C590 C594 1.350 . S
C591 C594 1.463 . S
C591 C596 1.350 . S
C591 N599 1.427 . S
C592 H583 0.930 . S
C592 C590 1.378 . S
C592 C593 1.367 . S
C593 C592 1.367 . S
C593 C595 1.433 . S
C594 C590 1.350 . S
C594 C591 1.463 . S
C594 N598 1.427 . S
C595 H585 0.929 . S
C595 C593 1.433 . S
C595 N598 1.384 . S
C596 H587 0.929 . S
C596 C588 1.378 . S
C596 C591 1.350 . S
C597 H584 0.929 . S
C597 C589 1.433 . S
C597 N599 1.384 . S
N598 C594 1.427 . S
N598 C595 1.384 . S
N599 C591 1.427 . S
N599 C597 1.384 . S
H600 C606 0.930 . S
H601 C610 0.930 . S
H602 C615 0.929 . S
H603 C613 0.929 . S
H604 C608 0.929 . S
H605 C614 0.929 . S
C606 H600 0.930 . S
C606 C607 1.367 . S
C606 C614 1.378 . S
C607 C606 1.367 . S
C607 C615 1.433 . S
C608 H604 0.929 . S
C608 C610 1.378 . S
C608 C612 1.350 . S
C609 C612 1.463 . S
C609 C614 1.350 . S
C609 N617 1.427 . S
C610 H601 0.930 . S
C610 C608 1.378 . S
C610 C611 1.367 . S
C611 C610 1.367 . S
C611 C613 1.433 . S
C612 C608 1.350 . S
C612 C609 1.463 . S
C612 N616 1.427 . S
C613 H603 0.929 . S
C613 C611 1.433 . S
C613 N616 1.384 . S
C614 H605 0.929 . S
C614 C606 1.378 . S
C614 C609 1.350 . S
C615 H602 0.929 . S
C615 C607 1.433 . S
C615 N617 1.384 . S
N616 C612 1.427 . S
N616 C613 1.384 . S
N617 C609 1.427 . S
N617 C615 1.384 . S
H618 C624 0.930 . S
H619 C628 0.930 . S
H620 C633 0.929 . S
H621 C631 0.929 . S
H622 C626 0.929 . S
H623 C632 0.929 . S
C624 H618 0.930 . S
C624 C625 1.367 . S
C624 C632 1.378 . S
C625 C624 1.367 . S
C625 C633 1.433 . S
C626 H622 0.929 . S
C626 C628 1.378 . S
C626 C630 1.350 . S
C627 C630 1.463 . S
C627 C632 1.350 . S
C627 N635 1.427 . S
C628 H619 0.930 . S
C628 C626 1.378 . S
C628 C629 1.367 . S
C629 C628 1.367 . S
C629 C631 1.433 . S
C630 C626 1.350 . S
C630 C627 1.463 . S
C630 N634 1.427 . S
C631 H621 0.929 . S
C631 C629 1.433 . S
C631 N634 1.384 . S
C632 H623 0.929 . S
C632 C624 1.378 . S
C632 C627 1.350 . S
C633 H620 0.929 . S
C633 C625 1.433 . S
C633 N635 1.384 . S
N634 C630 1.427 . S
N634 C631 1.384 . S
N635 C627 1.427 . S
N635 C633 1.384 . S
H636 C642 0.930 . S
H637 C646 0.930 . S
H638 C651 0.929 . S
H639 C649 0.929 . S
H640 C644 0.929 . S
H641 C650 0.929 . S
C642 H636 0.930 . S
C642 C643 1.367 . S
C642 C650 1.378 . S
C643 C642 1.367 . S
C643 C651 1.433 . S
C644 H640 0.929 . S
C644 C646 1.378 . S
C644 C648 1.350 . S
C645 C648 1.463 . S
C645 C650 1.350 . S
C645 N653 1.427 . S
C646 H637 0.930 . S
C646 C644 1.378 . S
C646 C647 1.367 . S
C647 C646 1.367 . S
C647 C649 1.433 . S
C648 C644 1.350 . S
C648 C645 1.463 . S
C648 N652 1.427 . S
C649 H639 0.929 . S
C649 C647 1.433 . S
C649 N652 1.384 . S
C650 H641 0.929 . S
C650 C642 1.378 . S
C650 C645 1.350 . S
C651 H638 0.929 . S
C651 C643 1.433 . S
C651 N653 1.384 . S
N652 C648 1.427 . S
N652 C649 1.384 . S
N653 C645 1.427 . S
N653 C651 1.384 . S
H654 C660 0.930 . S
H655 C664 0.930 . S
H656 C669 0.929 . S
H657 C667 0.929 . S
H658 C662 0.929 . S
H659 C668 0.929 . S
C660 H654 0.930 . S
C660 C661 1.367 . S
C660 C668 1.378 . S
C661 C660 1.367 . S
C661 C669 1.433 . S
C662 H658 0.929 . S
C662 C664 1.378 . S
C662 C666 1.350 . S
C663 C666 1.463 . S
C663 C668 1.350 . S
C663 N671 1.427 . S
C664 H655 0.930 . S
C664 C662 1.378 . S
C664 C665 1.367 . S
C665 C664 1.367 . S
C665 C667 1.433 . S
C666 C662 1.350 . S
C666 C663 1.463 . S
C666 N670 1.427 . S
C667 H657 0.929 . S
C667 C665 1.433 . S
C667 N670 1.384 . S
C668 H659 0.929 . S
C668 C660 1.378 . S
C668 C663 1.350 . S
C669 H656 0.929 . S
C669 C661 1.433 . S
C669 N671 1.384 . S
N670 C666 1.427 . S
N670 C667 1.384 . S
N671 C663 1.427 . S
N671 C669 1.384 . S
H672 C678 0.930 . S
H673 C682 0.930 . S
H674 C687 0.929 . S
H675 C685 0.929 . S
H676 C680 0.929 . S
H677 C686 0.929 . S
C678 H672 0.930 . S
C678 C679 1.367 . S
C678 C686 1.378 . S
C679 C678 1.367 . S
C679 C687 1.433 . S
C680 H676 0.929 . S
C680 C682 1.378 . S
C680 C684 1.350 . S
C681 C684 1.463 1_554 S
C681 C686 1.350 . S
C681 N689 1.427 . S
C682 H673 0.930 . S
C682 C680 1.378 . S
C682 C683 1.367 . S
C683 C682 1.367 . S
C683 C685 1.433 . S
C684 C680 1.350 . S
C684 C681 1.463 1_556 S
C684 N688 1.427 . S
C685 H675 0.929 . S
C685 C683 1.433 . S
C685 N688 1.384 . S
C686 H677 0.929 . S
C686 C678 1.378 . S
C686 C681 1.350 . S
C687 H674 0.929 . S
C687 C679 1.433 . S
C687 N689 1.384 . S
N688 C684 1.427 . S
N688 C685 1.384 . S
N689 C681 1.427 . S
N689 C687 1.384 . S
H690 C696 0.932 1_565 S
H691 C700 0.930 . S
H692 C705 0.929 . S
H693 C703 0.921 1_565 S
H694 C698 0.929 . S
H695 C704 0.927 . S
C696 H690 0.932 1_545 S
C696 C697 1.367 . S
C696 C704 1.378 . S
C697 C696 1.367 . S
C697 C705 1.433 . S
C698 H694 0.929 . S
C698 C700 1.378 . S
C698 C702 1.350 . S
C699 C702 1.463 . S
C699 C704 1.350 . S
C699 N707 1.427 . S
C700 H691 0.930 . S
C700 C698 1.378 . S
C700 C701 1.367 . S
C701 C700 1.367 . S
C701 C703 1.433 . S
C702 C698 1.350 . S
C702 C699 1.463 . S
C702 N706 1.427 . S
C703 H693 0.921 1_545 S
C703 C701 1.433 . S
C703 N706 1.384 . S
C704 H695 0.927 . S
C704 C696 1.378 . S
C704 C699 1.350 . S
C705 H692 0.929 . S
C705 C697 1.433 . S
C705 N707 1.384 . S
N706 C702 1.427 . S
N706 C703 1.384 . S
N707 C699 1.427 . S
N707 C705 1.384 . S
H708 C714 0.930 . S
H709 C718 0.930 . S
H710 C723 0.929 . S
H711 C721 0.929 . S
H712 C716 0.929 . S
H713 C722 0.929 . S
C714 H708 0.930 . S
C714 C715 1.367 . S
C714 C722 1.378 . S
C715 C714 1.367 . S
C715 C723 1.433 . S
C716 H712 0.929 . S
C716 C718 1.378 . S
C716 C720 1.350 . S
C717 C720 1.463 1_556 S
C717 C722 1.350 . S
C717 N725 1.427 . S
C718 H709 0.930 . S
C718 C716 1.378 . S
C718 C719 1.367 . S
C719 C718 1.367 . S
C719 C721 1.433 . S
C720 C716 1.350 . S
C720 C717 1.463 1_554 S
C720 N724 1.427 . S
C721 H711 0.929 . S
C721 C719 1.433 . S
C721 N724 1.384 . S
C722 H713 0.929 . S
C722 C714 1.378 . S
C722 C717 1.350 . S
C723 H710 0.929 . S
C723 C715 1.433 . S
C723 N725 1.384 . S
N724 C720 1.427 . S
N724 C721 1.384 . S
N725 C717 1.427 . S
N725 C723 1.384 . S
H726 C732 0.930 . S
H727 C736 0.913 1_545 S
H728 C741 0.929 1_545 S
H729 C739 0.929 . S
H730 C734 0.912 1_545 S
H731 C740 0.929 . S
C732 H726 0.930 . S
C732 C733 1.367 . S
C732 C740 1.378 . S
C733 C732 1.367 . S
C733 C741 1.433 . S
C734 H730 0.912 1_565 S
C734 C736 1.378 . S
C734 C738 1.350 . S
C735 C738 1.463 . S
C735 C740 1.350 . S
C735 N743 1.427 . S
C736 H727 0.913 1_565 S
C736 C734 1.378 . S
C736 C737 1.367 . S
C737 C736 1.367 . S
C737 C739 1.433 . S
C738 C734 1.350 . S
C738 C735 1.463 . S
C738 N742 1.427 . S
C739 H729 0.929 . S
C739 C737 1.433 . S
C739 N742 1.384 . S
C740 H731 0.929 . S
C740 C732 1.378 . S
C740 C735 1.350 . S
C741 H728 0.929 1_565 S
C741 C733 1.433 . S
C741 N743 1.384 . S
N742 C738 1.427 . S
N742 C739 1.384 . S
N743 C735 1.427 . S
N743 C741 1.384 . S
H744 C750 0.930 . S
H745 C754 0.930 . S
H746 C759 0.929 . S
H747 C757 0.929 . S
H748 C752 0.929 . S
H749 C758 0.929 . S
C750 H744 0.930 . S
C750 C751 1.367 . S
C750 C758 1.378 . S
C751 C750 1.367 . S
C751 C759 1.433 . S
C752 H748 0.929 . S
C752 C754 1.378 . S
C752 C756 1.350 . S
C753 C756 1.463 1_554 S
C753 C758 1.350 . S
C753 N761 1.427 . S
C754 H745 0.930 . S
C754 C752 1.378 . S
C754 C755 1.367 . S
C755 C754 1.367 . S
C755 C757 1.433 . S
C756 C752 1.350 . S
C756 C753 1.463 1_556 S
C756 N760 1.427 . S
C757 H747 0.929 . S
C757 C755 1.433 . S
C757 N760 1.384 . S
C758 H749 0.929 . S
C758 C750 1.378 . S
C758 C753 1.350 . S
C759 H746 0.929 . S
C759 C751 1.433 . S
C759 N761 1.384 . S
N760 C756 1.427 . S
N760 C757 1.384 . S
N761 C753 1.427 . S
N761 C759 1.384 . S
H762 C768 0.930 . S
H763 C772 0.930 . S
H764 C777 0.929 . S
H765 C775 0.929 . S
H766 C770 0.929 . S
H767 C776 0.929 . S
C768 H762 0.930 . S
C768 C769 1.367 . S
C768 C776 1.378 . S
C769 C768 1.367 . S
C769 C777 1.433 . S
C770 H766 0.929 . S
C770 C772 1.378 . S
C770 C774 1.350 . S
C771 C774 1.463 . S
C771 C776 1.350 . S
C771 N779 1.427 . S
C772 H763 0.930 . S
C772 C770 1.378 . S
C772 C773 1.367 . S
C773 C772 1.367 . S
C773 C775 1.433 . S
C774 C770 1.350 . S
C774 C771 1.463 . S
C774 N778 1.427 . S
C775 H765 0.929 . S
C775 C773 1.433 . S
C775 N778 1.384 . S
C776 H767 0.929 . S
C776 C768 1.378 . S
C776 C771 1.350 . S
C777 H764 0.929 . S
C777 C769 1.433 . S
C777 N779 1.384 . S
N778 C774 1.427 . S
N778 C775 1.384 . S
N779 C771 1.427 . S
N779 C777 1.384 . S
H780 C786 0.930 . S
H781 C790 0.930 . S
H782 C795 0.929 . S
H783 C793 0.929 . S
H784 C788 0.929 . S
H785 C794 0.929 . S
C786 H780 0.930 . S
C786 C787 1.367 . S
C786 C794 1.378 . S
C787 C786 1.367 . S
C787 C795 1.433 . S
C788 H784 0.929 . S
C788 C790 1.378 . S
C788 C792 1.350 . S
C789 C792 1.463 1_554 S
C789 C794 1.350 . S
C789 N797 1.427 . S
C790 H781 0.930 . S
C790 C788 1.378 . S
C790 C791 1.367 . S
C791 C790 1.367 . S
C791 C793 1.433 . S
C792 C788 1.350 . S
C792 C789 1.463 1_556 S
C792 N796 1.427 . S
C793 H783 0.929 . S
C793 C791 1.433 . S
C793 N796 1.384 . S
C794 H785 0.929 . S
C794 C786 1.378 . S
C794 C789 1.350 . S
C795 H782 0.929 . S
C795 C787 1.433 . S
C795 N797 1.384 . S
N796 C792 1.427 . S
N796 C793 1.384 . S
N797 C789 1.427 . S
N797 C795 1.384 . S
H798 C804 0.930 . S
H799 C808 0.930 . S
H800 C813 0.929 . S
H801 C811 0.929 . S
H802 C806 0.929 . S
H803 C812 0.929 . S
C804 H798 0.930 . S
C804 C805 1.367 . S
C804 C812 1.378 . S
C805 C804 1.367 . S
C805 C813 1.433 . S
C806 H802 0.929 . S
C806 C808 1.378 . S
C806 C810 1.350 . S
C807 C810 1.463 . S
C807 C812 1.350 . S
C807 N815 1.427 . S
C808 H799 0.930 . S
C808 C806 1.378 . S
C808 C809 1.367 . S
C809 C808 1.367 . S
C809 C811 1.433 . S
C810 C806 1.350 . S
C810 C807 1.463 . S
C810 N814 1.427 . S
C811 H801 0.929 . S
C811 C809 1.433 . S
C811 N814 1.384 . S
C812 H803 0.929 . S
C812 C804 1.378 . S
C812 C807 1.350 . S
C813 H800 0.929 . S
C813 C805 1.433 . S
C813 N815 1.384 . S
N814 C810 1.427 . S
N814 C811 1.384 . S
N815 C807 1.427 . S
N815 C813 1.384 . S
H816 C822 0.930 . S
H817 C826 0.930 . S
H818 C831 0.929 . S
H819 C829 0.929 . S
H820 C824 0.929 . S
H821 C830 0.929 . S
C822 H816 0.930 . S
C822 C823 1.367 . S
C822 C830 1.378 . S
C823 C822 1.367 . S
C823 C831 1.433 . S
C824 H820 0.929 . S
C824 C826 1.378 . S
C824 C828 1.350 . S
C825 C828 1.463 1_455 S
C825 C830 1.350 . S
C825 N833 1.427 . S
C826 H817 0.930 . S
C826 C824 1.378 . S
C826 C827 1.367 . S
C827 C826 1.367 . S
C827 C829 1.433 . S
C828 C824 1.350 . S
C828 C825 1.463 1_655 S
C828 N832 1.427 . S
C829 H819 0.929 . S
C829 C827 1.433 . S
C829 N832 1.384 . S
C830 H821 0.929 . S
C830 C822 1.378 . S
C830 C825 1.350 . S
C831 H818 0.929 . S
C831 C823 1.433 . S
C831 N833 1.384 . S
N832 C828 1.427 . S
N832 C829 1.384 . S
N833 C825 1.427 . S
N833 C831 1.384 . S
H834 C840 0.930 . S
H835 C844 0.930 . S
H836 C849 0.929 . S
H837 C847 0.929 . S
H838 C842 0.929 1_565 S
H839 C848 0.929 1_545 S
C840 H834 0.930 . S
C840 C841 1.367 . S
C840 C848 1.378 . S
C841 C840 1.367 . S
C841 C849 1.433 . S
C842 H838 0.929 1_545 S
C842 C844 1.378 . S
C842 C846 1.350 . S
C843 C846 1.463 1_565 S
C843 C848 1.350 . S
C843 N851 1.427 . S
C844 H835 0.930 . S
C844 C842 1.378 . S
C844 C845 1.367 . S
C845 C844 1.367 . S
C845 C847 1.433 . S
C846 C842 1.350 . S
C846 C843 1.463 1_545 S
C846 N850 1.427 . S
C847 H837 0.929 . S
C847 C845 1.433 . S
C847 N850 1.384 . S
C848 H839 0.929 1_565 S
C848 C840 1.378 . S
C848 C843 1.350 . S
C849 H836 0.929 . S
C849 C841 1.433 . S
C849 N851 1.384 . S
N850 C846 1.427 . S
N850 C847 1.384 . S
N851 C843 1.427 . S
N851 C849 1.384 . S
H852 C858 0.930 . S
H853 C862 0.930 . S
H854 C867 0.929 . S
H855 C865 0.929 . S
H856 C860 0.929 1_565 S
H857 C866 0.929 1_545 S
C858 H852 0.930 . S
C858 C859 1.367 . S
C858 C866 1.378 . S
C859 C858 1.367 . S
C859 C867 1.433 . S
C860 H856 0.929 1_545 S
C860 C862 1.378 . S
C860 C864 1.350 . S
C861 C864 1.463 1_565 S
C861 C866 1.350 . S
C861 N869 1.427 . S
C862 H853 0.930 . S
C862 C860 1.378 . S
C862 C863 1.367 . S
C863 C862 1.367 . S
C863 C865 1.433 . S
C864 C860 1.350 . S
C864 C861 1.463 1_545 S
C864 N868 1.427 . S
C865 H855 0.929 . S
C865 C863 1.433 . S
C865 N868 1.384 . S
C866 H857 0.929 1_565 S
C866 C858 1.378 . S
C866 C861 1.350 . S
C867 H854 0.929 . S
C867 C859 1.433 . S
C867 N869 1.384 . S
N868 C864 1.427 . S
N868 C865 1.384 . S
N869 C861 1.427 . S
N869 C867 1.384 . S
H870 C876 0.930 . S
H871 C880 0.930 . S
H872 C885 0.929 . S
H873 C883 0.929 . S
H874 C878 0.929 . S
H875 C884 0.929 . S
C876 H870 0.930 . S
C876 C877 1.367 . S
C876 C884 1.378 . S
C877 C876 1.367 . S
C877 C885 1.433 . S
C878 H874 0.929 . S
C878 C880 1.378 . S
C878 C882 1.350 . S
C879 C882 1.463 1_455 S
C879 C884 1.350 . S
C879 N887 1.427 . S
C880 H871 0.930 . S
C880 C878 1.378 . S
C880 C881 1.367 . S
C881 C880 1.367 . S
C881 C883 1.433 . S
C882 C878 1.350 . S
C882 C879 1.463 1_655 S
C882 N886 1.427 . S
C883 H873 0.929 . S
C883 C881 1.433 . S
C883 N886 1.384 . S
C884 H875 0.929 . S
C884 C876 1.378 . S
C884 C879 1.350 . S
C885 H872 0.929 . S
C885 C877 1.433 . S
C885 N887 1.384 . S
N886 C882 1.427 . S
N886 C883 1.384 . S
N887 C879 1.427 . S
N887 C885 1.384 . S
H888 C894 0.930 . S
H889 C898 0.930 . S
H890 C903 0.929 . S
H891 C901 0.929 . S
H892 C896 0.929 . S
H893 C902 0.929 . S
C894 H888 0.930 . S
C894 C895 1.367 . S
C894 C902 1.378 . S
C895 C894 1.367 . S
C895 C903 1.433 . S
C896 H892 0.929 . S
C896 C898 1.378 . S
C896 C900 1.350 . S
C897 C900 1.463 1_655 S
C897 C902 1.350 . S
C897 N905 1.427 . S
C898 H889 0.930 . S
C898 C896 1.378 . S
C898 C899 1.367 . S
C899 C898 1.367 . S
C899 C901 1.433 . S
C900 C896 1.350 . S
C900 C897 1.463 1_455 S
C900 N904 1.427 . S
C901 H891 0.929 . S
C901 C899 1.433 . S
C901 N904 1.384 . S
C902 H893 0.929 . S
C902 C894 1.378 . S
C902 C897 1.350 . S
C903 H890 0.929 . S
C903 C895 1.433 . S
C903 N905 1.384 . S
N904 C900 1.427 . S
N904 C901 1.384 . S
N905 C897 1.427 . S
N905 C903 1.384 . S
H906 C912 0.930 . S
H907 C916 0.930 . S
H908 C921 0.929 . S
H909 C919 0.929 . S
H910 C914 0.929 1_545 S
H911 C920 0.929 1_565 S
C912 H906 0.930 . S
C912 C913 1.367 . S
C912 C920 1.378 . S
C913 C912 1.367 . S
C913 C921 1.433 . S
C914 H910 0.929 1_565 S
C914 C916 1.378 . S
C914 C918 1.350 . S
C915 C918 1.463 1_545 S
C915 C920 1.350 . S
C915 N923 1.427 . S
C916 H907 0.930 . S
C916 C914 1.378 . S
C916 C917 1.367 . S
C917 C916 1.367 . S
C917 C919 1.433 . S
C918 C914 1.350 . S
C918 C915 1.463 1_565 S
C918 N922 1.427 . S
C919 H909 0.929 . S
C919 C917 1.433 . S
C919 N922 1.384 . S
C920 H911 0.929 1_545 S
C920 C912 1.378 . S
C920 C915 1.350 . S
C921 H908 0.929 . S
C921 C913 1.433 . S
C921 N923 1.384 . S
N922 C918 1.427 . S
N922 C919 1.384 . S
N923 C915 1.427 . S
N923 C921 1.384 . S
H924 C930 0.930 . S
H925 C934 0.930 . S
H926 C939 0.929 . S
H927 C937 0.929 . S
H928 C932 0.929 1_565 S
H929 C938 0.929 1_545 S
C930 H924 0.930 . S
C930 C931 1.367 . S
C930 C938 1.378 . S
C931 C930 1.367 . S
C931 C939 1.433 . S
C932 H928 0.929 1_545 S
C932 C934 1.378 . S
C932 C936 1.350 . S
C933 C936 1.463 1_565 S
C933 C938 1.350 . S
C933 N941 1.427 . S
C934 H925 0.930 . S
C934 C932 1.378 . S
C934 C935 1.367 . S
C935 C934 1.367 . S
C935 C937 1.433 . S
C936 C932 1.350 . S
C936 C933 1.463 1_545 S
C936 N940 1.427 . S
C937 H927 0.929 . S
C937 C935 1.433 . S
C937 N940 1.384 . S
C938 H929 0.929 1_565 S
C938 C930 1.378 . S
C938 C933 1.350 . S
C939 H926 0.929 . S
C939 C931 1.433 . S
C939 N941 1.384 . S
N940 C936 1.427 . S
N940 C937 1.384 . S
N941 C933 1.427 . S
N941 C939 1.384 . S
H942 C948 0.930 . S
H943 C952 0.930 . S
H944 C957 0.929 . S
H945 C955 0.929 . S
H946 C950 0.929 . S
H947 C956 0.929 . S
C948 H942 0.930 . S
C948 C949 1.367 . S
C948 C956 1.378 . S
C949 C948 1.367 . S
C949 C957 1.433 . S
C950 H946 0.929 . S
C950 C952 1.378 . S
C950 C954 1.350 . S
C951 C954 1.463 1_455 S
C951 C956 1.350 . S
C951 N959 1.427 . S
C952 H943 0.930 . S
C952 C950 1.378 . S
C952 C953 1.367 . S
C953 C952 1.367 . S
C953 C955 1.433 . S
C954 C950 1.350 . S
C954 C951 1.463 1_655 S
C954 N958 1.427 . S
C955 H945 0.929 . S
C955 C953 1.433 . S
C955 N958 1.384 . S
C956 H947 0.929 . S
C956 C948 1.378 . S
C956 C951 1.350 . S
C957 H944 0.929 . S
C957 C949 1.433 . S
C957 N959 1.384 . S
N958 C954 1.427 . S
N958 C955 1.384 . S
N959 C951 1.427 . S
N959 C957 1.384 . S
H960 C966 0.930 . S
H961 C970 0.930 . S
H962 C975 0.929 . S
H963 C973 0.929 . S
H964 C968 0.929 . S
H965 C974 0.929 . S
C966 H960 0.930 . S
C966 C967 1.367 . S
C966 C974 1.378 . S
C967 C966 1.367 . S
C967 C975 1.433 . S
C968 H964 0.929 . S
C968 C970 1.378 . S
C968 C972 1.350 . S
C969 C972 1.463 . S
C969 C974 1.350 . S
C969 N977 1.427 . S
C970 H961 0.930 . S
C970 C968 1.378 . S
C970 C971 1.367 . S
C971 C970 1.367 . S
C971 C973 1.433 . S
C972 C968 1.350 . S
C972 C969 1.463 . S
C972 N976 1.427 . S
C973 H963 0.929 . S
C973 C971 1.433 . S
C973 N976 1.384 . S
C974 H965 0.929 . S
C974 C966 1.378 . S
C974 C969 1.350 . S
C975 H962 0.929 . S
C975 C967 1.433 . S
C975 N977 1.384 . S
N976 C972 1.427 . S
N976 C973 1.384 . S
N977 C969 1.427 . S
N977 C975 1.384 . S
H978 C984 0.930 . S
H979 C988 0.930 . S
H980 C993 0.929 . S
H981 C991 0.929 . S
H982 C986 0.929 . S
H983 C992 0.929 . S
C984 H978 0.930 . S
C984 C985 1.367 . S
C984 C992 1.378 . S
C985 C984 1.367 . S
C985 C993 1.433 . S
C986 H982 0.929 . S
C986 C988 1.378 . S
C986 C990 1.350 . S
C987 C990 1.463 . S
C987 C992 1.350 . S
C987 N995 1.427 . S
C988 H979 0.930 . S
C988 C986 1.378 . S
C988 C989 1.367 . S
C989 C988 1.367 . S
C989 C991 1.433 . S
C990 C986 1.350 . S
C990 C987 1.463 . S
C990 N994 1.427 . S
C991 H981 0.929 . S
C991 C989 1.433 . S
C991 N994 1.384 . S
C992 H983 0.929 . S
C992 C984 1.378 . S
C992 C987 1.350 . S
C993 H980 0.929 . S
C993 C985 1.433 . S
C993 N995 1.384 . S
N994 C990 1.427 . S
N994 C991 1.384 . S
N995 C987 1.427 . S
N995 C993 1.384 . S
H996 C1002 0.930 . S
H997 C1006 0.930 . S
H998 C1011 0.929 . S
H999 C1009 0.929 . S
H1000 C1004 0.929 . S
H1001 C1010 0.929 . S
C1002 H996 0.930 . S
C1002 C1003 1.367 . S
C1002 C1010 1.378 . S
C1003 C1002 1.367 . S
C1003 C1011 1.433 . S
C1004 H1000 0.929 . S
C1004 C1006 1.378 . S
C1004 C1008 1.350 . S
C1005 C1008 1.463 . S
C1005 C1010 1.350 . S
C1005 N1013 1.427 . S
C1006 H997 0.930 . S
C1006 C1004 1.378 . S
C1006 C1007 1.367 . S
C1007 C1006 1.367 . S
C1007 C1009 1.433 . S
C1008 C1004 1.350 . S
C1008 C1005 1.463 . S
C1008 N1012 1.427 . S
C1009 H999 0.929 . S
C1009 C1007 1.433 . S
C1009 N1012 1.384 . S
C1010 H1001 0.929 . S
C1010 C1002 1.378 . S
C1010 C1005 1.350 . S
C1011 H998 0.929 . S
C1011 C1003 1.433 . S
C1011 N1013 1.384 . S
N1012 C1008 1.427 . S
N1012 C1009 1.384 . S
N1013 C1005 1.427 . S
N1013 C1011 1.384 . S
H1014 C1020 0.930 . S
H1015 C1024 0.930 . S
H1016 C1029 0.929 . S
H1017 C1027 0.929 . S
H1018 C1022 0.929 . S
H1019 C1028 0.929 . S
C1020 H1014 0.930 . S
C1020 C1021 1.367 . S
C1020 C1028 1.378 . S
C1021 C1020 1.367 . S
C1021 C1029 1.433 . S
C1022 H1018 0.929 . S
C1022 C1024 1.378 . S
C1022 C1026 1.350 . S
C1023 C1026 1.463 . S
C1023 C1028 1.350 . S
C1023 N1031 1.427 . S
C1024 H1015 0.930 . S
C1024 C1022 1.378 . S
C1024 C1025 1.367 . S
C1025 C1024 1.367 . S
C1025 C1027 1.433 . S
C1026 C1022 1.350 . S
C1026 C1023 1.463 . S
C1026 N1030 1.427 . S
C1027 H1017 0.929 . S
C1027 C1025 1.433 . S
C1027 N1030 1.384 . S
C1028 H1019 0.929 . S
C1028 C1020 1.378 . S
C1028 C1023 1.350 . S
C1029 H1016 0.929 . S
C1029 C1021 1.433 . S
C1029 N1031 1.384 . S
N1030 C1026 1.427 . S
N1030 C1027 1.384 . S
N1031 C1023 1.427 . S
N1031 C1029 1.384 . S
H1032 C1038 0.930 . S
H1033 C1042 0.930 . S
H1034 C1047 0.929 . S
H1035 C1045 0.929 . S
H1036 C1040 0.929 . S
H1037 C1046 0.929 . S
C1038 H1032 0.930 . S
C1038 C1039 1.367 . S
C1038 C1046 1.378 . S
C1039 C1038 1.367 . S
C1039 C1047 1.433 . S
C1040 H1036 0.929 . S
C1040 C1042 1.378 . S
C1040 C1044 1.350 . S
C1041 C1044 1.463 . S
C1041 C1046 1.350 . S
C1041 N1049 1.427 . S
C1042 H1033 0.930 . S
C1042 C1040 1.378 . S
C1042 C1043 1.367 . S
C1043 C1042 1.367 . S
C1043 C1045 1.433 . S
C1044 C1040 1.350 . S
C1044 C1041 1.463 . S
C1044 N1048 1.427 . S
C1045 H1035 0.929 . S
C1045 C1043 1.433 . S
C1045 N1048 1.384 . S
C1046 H1037 0.929 . S
C1046 C1038 1.378 . S
C1046 C1041 1.350 . S
C1047 H1034 0.929 . S
C1047 C1039 1.433 . S
C1047 N1049 1.384 . S
N1048 C1044 1.427 . S
N1048 C1045 1.384 . S
N1049 C1041 1.427 . S
N1049 C1047 1.384 . S
H1050 C1056 0.930 . S
H1051 C1060 0.930 . S
H1052 C1065 0.929 . S
H1053 C1063 0.929 . S
H1054 C1058 0.929 . S
H1055 C1064 0.929 . S
C1056 H1050 0.930 . S
C1056 C1057 1.367 . S
C1056 C1064 1.378 . S
C1057 C1056 1.367 . S
C1057 C1065 1.433 . S
C1058 H1054 0.929 . S
C1058 C1060 1.378 . S
C1058 C1062 1.350 . S
C1059 C1062 1.463 . S
C1059 C1064 1.350 . S
C1059 N1067 1.427 . S
C1060 H1051 0.930 . S
C1060 C1058 1.378 . S
C1060 C1061 1.367 . S
C1061 C1060 1.367 . S
C1061 C1063 1.433 . S
C1062 C1058 1.350 . S
C1062 C1059 1.463 . S
C1062 N1066 1.427 . S
C1063 H1053 0.929 . S
C1063 C1061 1.433 . S
C1063 N1066 1.384 . S
C1064 H1055 0.929 . S
C1064 C1056 1.378 . S
C1064 C1059 1.350 . S
C1065 H1052 0.929 . S
C1065 C1057 1.433 . S
C1065 N1067 1.384 . S
N1066 C1062 1.427 . S
N1066 C1063 1.384 . S
N1067 C1059 1.427 . S
N1067 C1065 1.384 . S
H1068 C1074 0.930 . S
H1069 C1078 0.930 . S
H1070 C1083 0.929 . S
H1071 C1081 0.929 . S
H1072 C1076 0.929 . S
H1073 C1082 0.929 . S
C1074 H1068 0.930 . S
C1074 C1075 1.367 . S
C1074 C1082 1.378 . S
C1075 C1074 1.367 . S
C1075 C1083 1.433 . S
C1076 H1072 0.929 . S
C1076 C1078 1.378 . S
C1076 C1080 1.350 . S
C1077 C1080 1.463 . S
C1077 C1082 1.350 . S
C1077 N1085 1.427 . S
C1078 H1069 0.930 . S
C1078 C1076 1.378 . S
C1078 C1079 1.367 . S
C1079 C1078 1.367 . S
C1079 C1081 1.433 . S
C1080 C1076 1.350 . S
C1080 C1077 1.463 . S
C1080 N1084 1.427 . S
C1081 H1071 0.929 . S
C1081 C1079 1.433 . S
C1081 N1084 1.384 . S
C1082 H1073 0.929 . S
C1082 C1074 1.378 . S
C1082 C1077 1.350 . S
C1083 H1070 0.929 . S
C1083 C1075 1.433 . S
C1083 N1085 1.384 . S
N1084 C1080 1.427 . S
N1084 C1081 1.384 . S
N1085 C1077 1.427 . S
N1085 C1083 1.384 . S
H1086 C1092 0.930 . S
H1087 C1096 0.930 . S
H1088 C1101 0.929 . S
H1089 C1099 0.929 . S
H1090 C1094 0.929 . S
H1091 C1100 0.929 . S
C1092 H1086 0.930 . S
C1092 C1093 1.367 . S
C1092 C1100 1.378 . S
C1093 C1092 1.367 . S
C1093 C1101 1.433 . S
C1094 H1090 0.929 . S
C1094 C1096 1.378 . S
C1094 C1098 1.350 . S
C1095 C1098 1.463 . S
C1095 C1100 1.350 . S
C1095 N1103 1.427 . S
C1096 H1087 0.930 . S
C1096 C1094 1.378 . S
C1096 C1097 1.367 . S
C1097 C1096 1.367 . S
C1097 C1099 1.433 . S
C1098 C1094 1.350 . S
C1098 C1095 1.463 . S
C1098 N1102 1.427 . S
C1099 H1089 0.929 . S
C1099 C1097 1.433 . S
C1099 N1102 1.384 . S
C1100 H1091 0.929 . S
C1100 C1092 1.378 . S
C1100 C1095 1.350 . S
C1101 H1088 0.929 . S
C1101 C1093 1.433 . S
C1101 N1103 1.384 . S
N1102 C1098 1.427 . S
N1102 C1099 1.384 . S
N1103 C1095 1.427 . S
N1103 C1101 1.384 . S
H1104 C1110 0.930 . S
H1105 C1114 0.930 . S
H1106 C1119 0.929 . S
H1107 C1117 0.929 . S
H1108 C1112 0.929 . S
H1109 C1118 0.929 . S
C1110 H1104 0.930 . S
C1110 C1111 1.367 . S
C1110 C1118 1.378 . S
C1111 C1110 1.367 . S
C1111 C1119 1.433 . S
C1112 H1108 0.929 . S
C1112 C1114 1.378 . S
C1112 C1116 1.350 . S
C1113 C1116 1.463 . S
C1113 C1118 1.350 . S
C1113 N1121 1.427 . S
C1114 H1105 0.930 . S
C1114 C1112 1.378 . S
C1114 C1115 1.367 . S
C1115 C1114 1.367 . S
C1115 C1117 1.433 . S
C1116 C1112 1.350 . S
C1116 C1113 1.463 . S
C1116 N1120 1.427 . S
C1117 H1107 0.929 . S
C1117 C1115 1.433 . S
C1117 N1120 1.384 . S
C1118 H1109 0.929 . S
C1118 C1110 1.378 . S
C1118 C1113 1.350 . S
C1119 H1106 0.929 . S
C1119 C1111 1.433 . S
C1119 N1121 1.384 . S
N1120 C1116 1.427 . S
N1120 C1117 1.384 . S
N1121 C1113 1.427 . S
N1121 C1119 1.384 . S
H1122 C1128 0.930 . S
H1123 C1132 0.930 . S
H1124 C1137 0.929 . S
H1125 C1135 0.929 . S
H1126 C1130 0.929 . S
H1127 C1136 0.929 . S
C1128 H1122 0.930 . S
C1128 C1129 1.367 . S
C1128 C1136 1.378 . S
C1129 C1128 1.367 . S
C1129 C1137 1.433 . S
C1130 H1126 0.929 . S
C1130 C1132 1.378 . S
C1130 C1134 1.350 . S
C1131 C1134 1.463 . S
C1131 C1136 1.350 . S
C1131 N1139 1.427 . S
C1132 H1123 0.930 . S
C1132 C1130 1.378 . S
C1132 C1133 1.367 . S
C1133 C1132 1.367 . S
C1133 C1135 1.433 . S
C1134 C1130 1.350 . S
C1134 C1131 1.463 . S
C1134 N1138 1.427 . S
C1135 H1125 0.929 . S
C1135 C1133 1.433 . S
C1135 N1138 1.384 . S
C1136 H1127 0.929 . S
C1136 C1128 1.378 . S
C1136 C1131 1.350 . S
C1137 H1124 0.929 . S
C1137 C1129 1.433 . S
C1137 N1139 1.384 . S
N1138 C1134 1.427 . S
N1138 C1135 1.384 . S
N1139 C1131 1.427 . S
N1139 C1137 1.384 . S
H1140 C1146 0.930 . S
H1141 C1150 0.930 . S
H1142 C1155 0.929 . S
H1143 C1153 0.929 . S
H1144 C1148 0.929 . S
H1145 C1154 0.929 . S
C1146 H1140 0.930 . S
C1146 C1147 1.367 . S
C1146 C1154 1.378 . S
C1147 C1146 1.367 . S
C1147 C1155 1.433 . S
C1148 H1144 0.929 . S
C1148 C1150 1.378 . S
C1148 C1152 1.350 . S
C1149 C1152 1.463 . S
C1149 C1154 1.350 . S
C1149 N1157 1.427 . S
C1150 H1141 0.930 . S
C1150 C1148 1.378 . S
C1150 C1151 1.367 . S
C1151 C1150 1.367 . S
C1151 C1153 1.433 . S
C1152 C1148 1.350 . S
C1152 C1149 1.463 . S
C1152 N1156 1.427 . S
C1153 H1143 0.929 . S
C1153 C1151 1.433 . S
C1153 N1156 1.384 . S
C1154 H1145 0.929 . S
C1154 C1146 1.378 . S
C1154 C1149 1.350 . S
C1155 H1142 0.929 . S
C1155 C1147 1.433 . S
C1155 N1157 1.384 . S
N1156 C1152 1.427 . S
N1156 C1153 1.384 . S
N1157 C1149 1.427 . S
N1157 C1155 1.384 . S
H1158 C1164 0.930 . S
H1159 C1168 0.930 . S
H1160 C1173 0.929 . S
H1161 C1171 0.929 . S
H1162 C1166 0.929 . S
H1163 C1172 0.929 . S
C1164 H1158 0.930 . S
C1164 C1165 1.367 . S
C1164 C1172 1.378 . S
C1165 C1164 1.367 . S
C1165 C1173 1.433 . S
C1166 H1162 0.929 . S
C1166 C1168 1.378 . S
C1166 C1170 1.350 . S
C1167 C1170 1.463 . S
C1167 C1172 1.350 . S
C1167 N1175 1.427 . S
C1168 H1159 0.930 . S
C1168 C1166 1.378 . S
C1168 C1169 1.367 . S
C1169 C1168 1.367 . S
C1169 C1171 1.433 . S
C1170 C1166 1.350 . S
C1170 C1167 1.463 . S
C1170 N1174 1.427 . S
C1171 H1161 0.929 . S
C1171 C1169 1.433 . S
C1171 N1174 1.384 . S
C1172 H1163 0.929 . S
C1172 C1164 1.378 . S
C1172 C1167 1.350 . S
C1173 H1160 0.929 . S
C1173 C1165 1.433 . S
C1173 N1175 1.384 . S
N1174 C1170 1.427 . S
N1174 C1171 1.384 . S
N1175 C1167 1.427 . S
N1175 C1173 1.384 . S
H1176 C1182 0.930 . S
H1177 C1186 0.930 . S
H1178 C1191 0.929 . S
H1179 C1189 0.929 . S
H1180 C1184 0.929 . S
H1181 C1190 0.929 . S
C1182 H1176 0.930 . S
C1182 C1183 1.367 . S
C1182 C1190 1.378 . S
C1183 C1182 1.367 . S
C1183 C1191 1.433 . S
C1184 H1180 0.929 . S
C1184 C1186 1.378 . S
C1184 C1188 1.350 . S
C1185 C1188 1.463 . S
C1185 C1190 1.350 . S
C1185 N1193 1.427 . S
C1186 H1177 0.930 . S
C1186 C1184 1.378 . S
C1186 C1187 1.367 . S
C1187 C1186 1.367 . S
C1187 C1189 1.433 . S
C1188 C1184 1.350 . S
C1188 C1185 1.463 . S
C1188 N1192 1.427 . S
C1189 H1179 0.929 . S
C1189 C1187 1.433 . S
C1189 N1192 1.384 . S
C1190 H1181 0.929 . S
C1190 C1182 1.378 . S
C1190 C1185 1.350 . S
C1191 H1178 0.929 . S
C1191 C1183 1.433 . S
C1191 N1193 1.384 . S
N1192 C1188 1.427 . S
N1192 C1189 1.384 . S
N1193 C1185 1.427 . S
N1193 C1191 1.384 . S
H1194 C1200 0.930 . S
H1195 C1204 0.930 . S
H1196 C1209 0.929 . S
H1197 C1207 0.929 . S
H1198 C1202 0.929 . S
H1199 C1208 0.929 . S
C1200 H1194 0.930 . S
C1200 C1201 1.367 . S
C1200 C1208 1.378 . S
C1201 C1200 1.367 . S
C1201 C1209 1.433 . S
C1202 H1198 0.929 . S
C1202 C1204 1.378 . S
C1202 C1206 1.350 . S
C1203 C1206 1.463 . S
C1203 C1208 1.350 . S
C1203 N1211 1.427 . S
C1204 H1195 0.930 . S
C1204 C1202 1.378 . S
C1204 C1205 1.367 . S
C1205 C1204 1.367 . S
C1205 C1207 1.433 . S
C1206 C1202 1.350 . S
C1206 C1203 1.463 . S
C1206 N1210 1.427 . S
C1207 H1197 0.929 . S
C1207 C1205 1.433 . S
C1207 N1210 1.384 . S
C1208 H1199 0.929 . S
C1208 C1200 1.378 . S
C1208 C1203 1.350 . S
C1209 H1196 0.929 . S
C1209 C1201 1.433 . S
C1209 N1211 1.384 . S
N1210 C1206 1.427 . S
N1210 C1207 1.384 . S
N1211 C1203 1.427 . S
N1211 C1209 1.384 . S
H1212 C1218 0.930 . S
H1213 C1222 0.930 . S
H1214 C1227 0.929 . S
H1215 C1225 0.929 . S
H1216 C1220 0.929 . S
H1217 C1226 0.929 . S
C1218 H1212 0.930 . S
C1218 C1219 1.367 . S
C1218 C1226 1.378 . S
C1219 C1218 1.367 . S
C1219 C1227 1.433 . S
C1220 H1216 0.929 . S
C1220 C1222 1.378 . S
C1220 C1224 1.350 . S
C1221 C1224 1.463 . S
C1221 C1226 1.350 . S
C1221 N1229 1.427 . S
C1222 H1213 0.930 . S
C1222 C1220 1.378 . S
C1222 C1223 1.367 . S
C1223 C1222 1.367 . S
C1223 C1225 1.433 . S
C1224 C1220 1.350 . S
C1224 C1221 1.463 . S
C1224 N1228 1.427 . S
C1225 H1215 0.929 . S
C1225 C1223 1.433 . S
C1225 N1228 1.384 . S
C1226 H1217 0.929 . S
C1226 C1218 1.378 . S
C1226 C1221 1.350 . S
C1227 H1214 0.929 . S
C1227 C1219 1.433 . S
C1227 N1229 1.384 . S
N1228 C1224 1.427 . S
N1228 C1225 1.384 . S
N1229 C1221 1.427 . S
N1229 C1227 1.384 . S
H1230 C1236 0.930 . S
H1231 C1240 0.930 . S
H1232 C1245 0.929 . S
H1233 C1243 0.929 . S
H1234 C1238 0.929 . S
H1235 C1244 0.929 . S
C1236 H1230 0.930 . S
C1236 C1237 1.367 . S
C1236 C1244 1.378 . S
C1237 C1236 1.367 . S
C1237 C1245 1.433 . S
C1238 H1234 0.929 . S
C1238 C1240 1.378 . S
C1238 C1242 1.350 . S
C1239 C1242 1.463 . S
C1239 C1244 1.350 . S
C1239 N1247 1.427 . S
C1240 H1231 0.930 . S
C1240 C1238 1.378 . S
C1240 C1241 1.367 . S
C1241 C1240 1.367 . S
C1241 C1243 1.433 . S
C1242 C1238 1.350 . S
C1242 C1239 1.463 . S
C1242 N1246 1.427 . S
C1243 H1233 0.929 . S
C1243 C1241 1.433 . S
C1243 N1246 1.384 . S
C1244 H1235 0.929 . S
C1244 C1236 1.378 . S
C1244 C1239 1.350 . S
C1245 H1232 0.929 . S
C1245 C1237 1.433 . S
C1245 N1247 1.384 . S
N1246 C1242 1.427 . S
N1246 C1243 1.384 . S
N1247 C1239 1.427 . S
N1247 C1245 1.384 . S
C535 N5 1.818 . S
C539 N236 1.815 . S
C553 N137 1.815 . S
C557 N38 1.818 . S
C571 N170 1.817 . S
C575 N71 1.817 . S
C589 N203 1.818 . S
C593 N104 1.816 . S
C607 N269 1.816 . S
C611 N500 1.818 . S
C625 N302 1.815 . S
C629 N401 1.818 . S
C643 N434 1.815 . S
C647 N335 1.818 . S
C661 N368 1.818 . S
C665 N467 1.816 . S
C679 N14 1.625 . S
C683 N344 1.613 . S
C697 N377 1.626 . S
C701 N47 1.611 . S
C715 N278 1.625 . S
C719 N80 1.612 . S
C733 N311 1.611 . S
C737 N113 1.626 . S
C751 N476 1.619 . S
C755 N146 1.619 . S
C769 N509 1.626 . S
C773 N179 1.611 . S
C787 N410 1.619 . S
C791 N212 1.618 . S
C805 N443 1.626 . S
C809 N245 1.612 . S
C823 C17 0.764 . S
C827 C83 0.757 . S
C841 C116 0.759 . S
C845 C50 0.753 . S
C859 C215 0.780 . S
C863 C149 0.775 . S
C877 C248 0.761 . S
C881 C182 0.769 . S
C895 C281 0.758 . S
C899 C347 0.765 . S
C913 C380 0.754 . S
C917 C314 0.750 . S
C931 C413 0.782 . S
C935 C479 0.781 . S
C949 C446 0.756 . S
C953 C512 0.763 . S
C967 C470 1.747 . S
C971 C28 1.868 . S
C985 C61 1.867 . S
C989 C503 1.745 . S
C1003 C404 1.737 . S
C1007 C94 1.860 . S
C1021 C437 1.746 . S
C1025 C127 1.865 . S
C1039 C338 1.735 1_655 S
C1043 C160 1.861 . S
C1057 C193 1.858 . S
C1061 C371 1.732 1_565 S
C1075 C272 1.742 1_455 S
C1079 C226 1.863 . S
C1093 C259 1.858 . S
C1097 C305 1.733 1_545 S
C1111 C206 1.734 . S
C1115 C292 1.859 . S
C1129 C239 1.741 . S
C1133 C325 1.865 . S
C1147 C140 1.741 . S
C1151 C358 1.862 . S
C1165 C391 1.862 . S
C1169 C173 1.736 . S
C1183 C74 1.734 1_455 S
C1187 C424 1.861 . S
C1201 C457 1.861 . S
C1205 C107 1.735 1_545 S
C1219 C490 1.858 . S
C1223 C8 1.730 1_655 S
C1237 C41 1.735 1_565 S
C1241 C523 1.859 . S
