# Generated by pormake.
# Topology zfx, (5)-cn, num edge types: 1
# Building blocks:
#     Node 0, Type 0, BuildingBlock: XOMCOT_clean_sbu_0, # of connection points: 5
#     Node 1, Type 0, BuildingBlock: XOMCOT_clean_sbu_0, # of connection points: 5
#     Node 2, Type 0, BuildingBlock: XOMCOT_clean_sbu_0, # of connection points: 5
#     Node 3, Type 0, BuildingBlock: XOMCOT_clean_sbu_0, # of connection points: 5
#     Node 4, Type 0, BuildingBlock: XOMCOT_clean_sbu_0, # of connection points: 5
#     Node 5, Type 0, BuildingBlock: XOMCOT_clean_sbu_0, # of connection points: 5
#     Node 6, Type 0, BuildingBlock: XOMCOT_clean_sbu_0, # of connection points: 5
#     Node 7, Type 0, BuildingBlock: XOMCOT_clean_sbu_0, # of connection points: 5
#     Node 8, Type 0, BuildingBlock: XOMCOT_clean_sbu_0, # of connection points: 5
#     Node 9, Type 0, BuildingBlock: XOMCOT_clean_sbu_0, # of connection points: 5
#     Node 10, Type 0, BuildingBlock: XOMCOT_clean_sbu_0, # of connection points: 5
#     Node 11, Type 0, BuildingBlock: XOMCOT_clean_sbu_0, # of connection points: 5
#     Node 12, Type 0, BuildingBlock: XOMCOT_clean_sbu_0, # of connection points: 5
#     Node 13, Type 0, BuildingBlock: XOMCOT_clean_sbu_0, # of connection points: 5
#     Node 14, Type 0, BuildingBlock: XOMCOT_clean_sbu_0, # of connection points: 5
#     Node 15, Type 0, BuildingBlock: XOMCOT_clean_sbu_0, # of connection points: 5
#     Edge 16, Type (0, 0), BuildingBlock: KIFKEQ_clean_linker_1, # of connection points: 2
#     Edge 17, Type (0, 0), BuildingBlock: KIFKEQ_clean_linker_1, # of connection points: 2
#     Edge 18, Type (0, 0), BuildingBlock: KIFKEQ_clean_linker_1, # of connection points: 2
#     Edge 19, Type (0, 0), BuildingBlock: KIFKEQ_clean_linker_1, # of connection points: 2
#     Edge 20, Type (0, 0), BuildingBlock: KIFKEQ_clean_linker_1, # of connection points: 2
#     Edge 21, Type (0, 0), BuildingBlock: KIFKEQ_clean_linker_1, # of connection points: 2
#     Edge 22, Type (0, 0), BuildingBlock: KIFKEQ_clean_linker_1, # of connection points: 2
#     Edge 23, Type (0, 0), BuildingBlock: KIFKEQ_clean_linker_1, # of connection points: 2
#     Edge 24, Type (0, 0), BuildingBlock: KIFKEQ_clean_linker_1, # of connection points: 2
#     Edge 25, Type (0, 0), BuildingBlock: KIFKEQ_clean_linker_1, # of connection points: 2
#     Edge 26, Type (0, 0), BuildingBlock: KIFKEQ_clean_linker_1, # of connection points: 2
#     Edge 27, Type (0, 0), BuildingBlock: KIFKEQ_clean_linker_1, # of connection points: 2
#     Edge 28, Type (0, 0), BuildingBlock: KIFKEQ_clean_linker_1, # of connection points: 2
#     Edge 29, Type (0, 0), BuildingBlock: KIFKEQ_clean_linker_1, # of connection points: 2
#     Edge 30, Type (0, 0), BuildingBlock: KIFKEQ_clean_linker_1, # of connection points: 2
#     Edge 31, Type (0, 0), BuildingBlock: KIFKEQ_clean_linker_1, # of connection points: 2
#     Edge 32, Type (0, 0), BuildingBlock: KIFKEQ_clean_linker_1, # of connection points: 2
#     Edge 33, Type (0, 0), BuildingBlock: KIFKEQ_clean_linker_1, # of connection points: 2
#     Edge 34, Type (0, 0), BuildingBlock: KIFKEQ_clean_linker_1, # of connection points: 2
#     Edge 35, Type (0, 0), BuildingBlock: KIFKEQ_clean_linker_1, # of connection points: 2
#     Edge 36, Type (0, 0), BuildingBlock: KIFKEQ_clean_linker_1, # of connection points: 2
#     Edge 37, Type (0, 0), BuildingBlock: KIFKEQ_clean_linker_1, # of connection points: 2
#     Edge 38, Type (0, 0), BuildingBlock: KIFKEQ_clean_linker_1, # of connection points: 2
#     Edge 39, Type (0, 0), BuildingBlock: KIFKEQ_clean_linker_1, # of connection points: 2
#     Edge 40, Type (0, 0), BuildingBlock: KIFKEQ_clean_linker_1, # of connection points: 2
#     Edge 41, Type (0, 0), BuildingBlock: KIFKEQ_clean_linker_1, # of connection points: 2
#     Edge 42, Type (0, 0), BuildingBlock: KIFKEQ_clean_linker_1, # of connection points: 2
#     Edge 43, Type (0, 0), BuildingBlock: KIFKEQ_clean_linker_1, # of connection points: 2
#     Edge 44, Type (0, 0), BuildingBlock: KIFKEQ_clean_linker_1, # of connection points: 2
#     Edge 45, Type (0, 0), BuildingBlock: KIFKEQ_clean_linker_1, # of connection points: 2
#     Edge 46, Type (0, 0), BuildingBlock: KIFKEQ_clean_linker_1, # of connection points: 2
#     Edge 47, Type (0, 0), BuildingBlock: KIFKEQ_clean_linker_1, # of connection points: 2
#     Edge 48, Type (0, 0), BuildingBlock: KIFKEQ_clean_linker_1, # of connection points: 2
#     Edge 49, Type (0, 0), BuildingBlock: KIFKEQ_clean_linker_1, # of connection points: 2
#     Edge 50, Type (0, 0), BuildingBlock: KIFKEQ_clean_linker_1, # of connection points: 2
#     Edge 51, Type (0, 0), BuildingBlock: KIFKEQ_clean_linker_1, # of connection points: 2
#     Edge 52, Type (0, 0), BuildingBlock: KIFKEQ_clean_linker_1, # of connection points: 2
#     Edge 53, Type (0, 0), BuildingBlock: KIFKEQ_clean_linker_1, # of connection points: 2
#     Edge 54, Type (0, 0), BuildingBlock: KIFKEQ_clean_linker_1, # of connection points: 2
#     Edge 55, Type (0, 0), BuildingBlock: KIFKEQ_clean_linker_1, # of connection points: 2
# Relax obj value: 0.358
# Max RMSD: 0.229
# Mean RMSD: 0.229
data_MOF--net-zfx--node1-XOMCOT_clean_sbu_0--edge1-KIFKEQ_clean_linker_1
_symmetry_space_group_name_H-M    P1
_symmetry_Int_Tables_number       1
_symmetry_cell_setting            triclinic
loop_
_symmetry_equiv_pos_as_xyz
'x, y, z'
_cell_length_a     64.297491
_cell_length_b     64.358598
_cell_length_c     24.100216
_cell_angle_alpha  89.906134
_cell_angle_beta   90.057434
_cell_angle_gamma 89.945029
loop_
_atom_site_label
_atom_site_type_symbol
_atom_site_fract_x
_atom_site_fract_y
_atom_site_fract_z
_atom_type_partial_charge
Co0 Co 0.5201 0.15772 0.40537 0.0
C1 C 0.54708 0.16506 0.50178 0.0
C2 C 0.56446 0.15408 0.43221 0.0
C3 C 0.57638 0.15155 0.479 0.0
N4 N 0.54571 0.16187 0.44667 0.0
N5 N 0.56505 0.15779 0.52276 0.0
H6 H 0.53423 0.16982 0.5275 0.0
H7 H 0.56841 0.14781 0.39231 0.0
C8 C 0.54803 0.15457 0.29896 0.0
O9 O 0.55159 0.13467 0.30606 0.0
N10 N 0.49494 0.15361 0.36329 0.0
C11 C 0.47802 0.14274 0.3789 0.0
C12 C 0.46369 0.14329 0.33633 0.0
C13 C 0.49079 0.16056 0.31172 0.0
N14 N 0.47186 0.15438 0.29415 0.0
C15 C 0.52899 0.11954 0.45978 0.0
C16 C 0.52167 0.09156 0.37584 0.0
C17 C 0.52722 0.0838 0.42874 0.0
C18 C 0.53077 0.09835 0.47057 0.0
C19 C 0.52044 0.11335 0.36635 0.0
N20 N 0.52482 0.12722 0.40792 0.0
H21 H 0.53002 0.12973 0.49487 0.0
H22 H 0.51549 0.11894 0.32611 0.0
H23 H 0.47632 0.13478 0.4182 0.0
H24 H 0.50124 0.17019 0.28773 0.0
O25 O 0.50344 0.15906 0.4731 0.0
O26 O 0.51153 0.18643 0.42297 0.0
O27 O 0.53629 0.16435 0.33332 0.0
C28 C 0.50217 0.17906 0.4668 0.0
H29 H 0.59101 0.14326 0.48129 0.0
H30 H 0.44859 0.13586 0.33606 0.0
H31 H 0.5182 0.08096 0.34227 0.0
H32 H 0.53398 0.09341 0.51272 0.0
Co33 Co 0.12987 0.25674 0.64735 0.0
C34 C 0.14541 0.28333 0.734 0.0
C35 C 0.1166 0.29536 0.70266 0.0
C36 C 0.12189 0.30615 0.74992 0.0
N37 N 0.13167 0.28133 0.69221 0.0
N38 N 0.13991 0.29833 0.76965 0.0
H39 H 0.15776 0.27229 0.74209 0.0
H40 H 0.102 0.29636 0.6805 0.0
C41 C 0.12394 0.29329 0.56399 0.0
O42 O 0.13186 0.30644 0.59972 0.0
N43 N 0.1282 0.23136 0.60388 0.0
C44 C 0.12667 0.21169 0.62308 0.0
C45 C 0.12512 0.19833 0.57882 0.0
C46 C 0.12764 0.22958 0.54806 0.0
N47 N 0.12564 0.2096 0.53168 0.0
C48 C 0.17053 0.23994 0.66158 0.0
C49 C 0.19258 0.27618 0.64529 0.0
C50 C 0.20255 0.25962 0.67293 0.0
C51 C 0.19141 0.241 0.67831 0.0
C52 C 0.17166 0.27434 0.62817 0.0
N53 N 0.16044 0.25676 0.63944 0.0
H54 H 0.16195 0.22606 0.67168 0.0
H55 H 0.16415 0.28776 0.61073 0.0
H56 H 0.12636 0.20718 0.66626 0.0
H57 H 0.12847 0.24257 0.51972 0.0
O58 O 0.12858 0.24102 0.71662 0.0
O59 O 0.10102 0.25271 0.67217 0.0
O60 O 0.12382 0.27369 0.57542 0.0
C61 C 0.10849 0.24304 0.71545 0.0
H62 H 0.11199 0.31702 0.7718 0.0
H63 H 0.12282 0.1817 0.58132 0.0
H64 H 0.20058 0.29079 0.639 0.0
H65 H 0.1982 0.22774 0.69931 0.0
Co66 Co 1.00135 0.86085 0.91054 0.0
C67 C 0.96764 0.87716 0.9806 0.0
C68 C 0.95954 0.84781 0.94441 0.0
C69 C 0.94336 0.85428 0.97743 0.0
N70 N 0.97442 0.86252 0.94506 0.0
N71 N 0.9485 0.87274 1.00003 0.0
H72 H 0.97694 0.89019 0.99428 0.0
H73 H 0.96061 0.83323 0.92235 0.0
C74 C 0.96957 0.85603 0.81327 0.0
O75 O 0.9553 0.86596 0.84163 0.0
N76 N 0.02861 0.85881 0.87612 0.0
C77 C 0.04704 0.85447 0.90044 0.0
C78 C 0.06202 0.85279 0.86013 0.0
C79 C 0.03282 0.86004 0.82139 0.0
N80 N 0.05306 0.85616 0.81028 0.0
C81 C 0.01883 0.9008 0.92609 0.0
C82 C 0.98515 0.92502 0.89721 0.0
C83 C 1.00151 0.93445 0.927 0.0
C84 C 0.0188 0.92197 0.93939 0.0
C85 C 0.98584 0.90359 0.88438 0.0
N86 N 1.00218 0.89142 0.90113 0.0
H87 H 0.03178 0.89159 0.94046 0.0
H88 H 0.97251 0.89681 0.86485 0.0
H89 H 0.04964 0.85228 0.94432 0.0
H90 H 0.02124 0.8635 0.79021 0.0
O91 O 0.01376 0.86058 0.98405 0.0
O92 O 1.00459 0.83224 0.93962 0.0
O93 O 0.98808 0.85406 0.83355 0.0
C94 C 0.01276 0.84047 0.98412 0.0
H95 H 0.92963 0.84533 0.98758 0.0
H96 H 0.07808 0.8485 0.86715 0.0
H97 H 0.97156 0.93392 0.88538 0.0
H98 H 0.03183 0.92806 0.96267 0.0
Co99 Co 0.41282 0.75042 0.15406 0.0
C100 C 0.39679 0.71968 0.23037 0.0
C101 C 0.42584 0.70951 0.19605 0.0
C102 C 0.41977 0.6956 0.23628 0.0
N103 N 0.41111 0.7243 0.19181 0.0
N104 N 0.40156 0.70218 0.25798 0.0
H105 H 0.38417 0.72998 0.24152 0.0
H106 H 0.44048 0.70958 0.17398 0.0
C107 C 0.41872 0.71709 0.06162 0.0
O108 O 0.4088 0.70319 0.0913 0.0
N109 N 0.41447 0.77694 0.11673 0.0
C110 C 0.41999 0.79566 0.13715 0.0
C111 C 0.41984 0.80989 0.09452 0.0
C112 C 0.41063 0.78015 0.06256 0.0
N113 N 0.41409 0.80004 0.04761 0.0
C114 C 0.3725 0.76797 0.16629 0.0
C115 C 0.34891 0.73318 0.14419 0.0
C116 C 0.33912 0.75022 0.1699 0.0
C117 C 0.35121 0.76803 0.17872 0.0
C118 C 0.37033 0.73393 0.13109 0.0
N119 N 0.3822 0.75086 0.14465 0.0
H120 H 0.38154 0.78133 0.17846 0.0
H121 H 0.37744 0.7202 0.11456 0.0
H122 H 0.4243 0.7989 0.17957 0.0
H123 H 0.40575 0.76806 0.03436 0.0
O124 O 0.41354 0.76389 0.22663 0.0
O125 O 0.44147 0.75393 0.18106 0.0
O126 O 0.41988 0.73603 0.07895 0.0
C127 C 0.43369 0.7624 0.2256 0.0
H128 H 0.42914 0.68298 0.25249 0.0
H129 H 0.42475 0.82593 0.09733 0.0
H130 H 0.34024 0.71912 0.13579 0.0
H131 H 0.34462 0.78159 0.19869 0.0
Co132 Co 0.52136 0.86134 0.60274 0.0
C133 C 0.55635 0.87768 0.5391 0.0
C134 C 0.56285 0.84704 0.56995 0.0
C135 C 0.57951 0.85365 0.53892 0.0
N136 N 0.54858 0.86234 0.57072 0.0
N137 N 0.57535 0.87293 0.51948 0.0
H138 H 0.54774 0.89146 0.52774 0.0
H139 H 0.561 0.832 0.58939 0.0
C140 C 0.553 0.85745 0.6998 0.0
O141 O 0.56686 0.86776 0.67091 0.0
N142 N 0.49367 0.86012 0.63412 0.0
C143 C 0.47525 0.86105 0.60705 0.0
C144 C 0.45942 0.85773 0.64432 0.0
C145 C 0.48872 0.85607 0.68728 0.0
N146 N 0.46801 0.85446 0.69448 0.0
C147 C 0.50594 0.90132 0.57416 0.0
C148 C 0.53633 0.92608 0.6198 0.0
C149 C 0.52213 0.93526 0.58233 0.0
C150 C 0.50644 0.92247 0.56117 0.0
C151 C 0.53505 0.9046 0.63266 0.0
N152 N 0.52051 0.89215 0.60772 0.0
H153 H 0.49437 0.89209 0.55351 0.0
H154 H 0.54643 0.89811 0.66024 0.0
H155 H 0.47328 0.86314 0.56287 0.0
H156 H 0.49993 0.8537 0.72009 0.0
O157 O 0.51002 0.85924 0.52779 0.0
O158 O 0.51824 0.83217 0.579 0.0
O159 O 0.53423 0.85567 0.68097 0.0
C160 C 0.51075 0.83919 0.53225 0.0
H161 H 0.59281 0.84425 0.5276 0.0
H162 H 0.44301 0.85656 0.63476 0.0
H163 H 0.54857 0.93531 0.6383 0.0
H164 H 0.49514 0.92843 0.53181 0.0
Co165 Co 0.41987 0.27168 0.86752 0.0
C166 C 0.42699 0.30977 0.79816 0.0
C167 C 0.4173 0.31667 0.88103 0.0
C168 C 0.41789 0.33489 0.85201 0.0
N169 N 0.42295 0.30079 0.84762 0.0
N170 N 0.42368 0.33053 0.79983 0.0
H171 H 0.43089 0.30123 0.76098 0.0
H172 H 0.41114 0.31523 0.92227 0.0
C173 C 0.42068 0.2863 0.99091 0.0
O174 O 0.40029 0.28697 0.99295 0.0
N175 N 0.4173 0.24297 0.8907 0.0
C176 C 0.40873 0.2268 0.86329 0.0
C177 C 0.41006 0.20928 0.89645 0.0
C178 C 0.42367 0.23511 0.93964 0.0
N179 N 0.41926 0.21478 0.94444 0.0
C180 C 0.3803 0.28698 0.83417 0.0
C181 C 0.35504 0.26281 0.89988 0.0
C182 C 0.34583 0.2741 0.85595 0.0
C183 C 0.35897 0.28662 0.82417 0.0
C184 C 0.37681 0.26398 0.90955 0.0
N185 N 0.38942 0.27592 0.87637 0.0
H186 H 0.38953 0.29483 0.80354 0.0
H187 H 0.38349 0.25438 0.94177 0.0
H188 H 0.40171 0.22769 0.82255 0.0
H189 H 0.43146 0.24391 0.97159 0.0
O190 O 0.41784 0.26298 0.79037 0.0
O191 O 0.44742 0.26497 0.83572 0.0
O192 O 0.42966 0.2802 0.94618 0.0
C193 C 0.43777 0.25993 0.78993 0.0
H194 H 0.4128 0.34991 0.86691 0.0
H195 H 0.40426 0.19392 0.88682 0.0
H196 H 0.34563 0.25274 0.92566 0.0
H197 H 0.3531 0.29502 0.78845 0.0
Co198 Co 0.01041 0.15627 0.09781 0.0
C199 C 0.96603 0.15285 0.05895 0.0
C200 C 0.97564 0.18403 0.07566 0.0
C201 C 0.95483 0.18424 0.06288 0.0
N202 N 0.98289 0.16438 0.0723 0.0
N203 N 0.94884 0.16461 0.05245 0.0
H204 H 0.9657 0.13618 0.05576 0.0
H205 H 0.98471 0.1974 0.08785 0.0
C206 C 0.98361 0.15588 0.20208 0.0
O207 O 0.97141 0.14221 0.17814 0.0
N208 N 0.03744 0.14968 0.12697 0.0
C209 C 0.05065 0.13377 0.11795 0.0
C210 C 0.06694 0.13542 0.15553 0.0
C211 C 0.04587 0.16079 0.16823 0.0
N212 N 0.06363 0.15236 0.18743 0.0
C213 C 0.99994 0.1186 0.04356 0.0
C214 C 1.00374 0.09105 0.13062 0.0
C215 C 0.99952 0.08312 0.07715 0.0
C216 C 0.99753 0.09741 0.0338 0.0
C217 C 1.00551 0.11281 0.13906 0.0
N218 N 1.00328 0.12641 0.09563 0.0
H219 H 0.99872 0.12893 1.00837 0.0
H220 H 0.00943 0.11862 0.17983 0.0
H221 H 0.04825 0.12151 0.08799 0.0
H222 H 0.03871 0.17471 0.18456 0.0
O223 O 0.02156 0.15754 0.02289 0.0
O224 O 0.02108 0.1843 0.07915 0.0
O225 O 1.00026 0.16177 0.17731 0.0
C226 C 0.02598 0.17691 0.03049 0.0
H227 H 0.94504 0.19788 0.05954 0.0
H228 H 0.07966 0.12454 0.16054 0.0
H229 H 1.00577 0.08057 0.16538 0.0
H230 H 0.99478 0.09221 0.99168 0.0
Co231 Co 0.11832 0.75613 0.35769 0.0
C232 C 0.13398 0.71946 0.29731 0.0
C233 C 0.10279 0.7152 0.32722 0.0
C234 C 0.10924 0.69707 0.30275 0.0
N235 N 0.11853 0.72897 0.32508 0.0
N236 N 0.1289 0.69975 0.28451 0.0
H237 H 0.14843 0.72683 0.28555 0.0
H238 H 0.08784 0.71802 0.34634 0.0
C239 C 0.11575 0.72421 0.45391 0.0
O240 O 0.12583 0.71053 0.42391 0.0
N241 N 0.11757 0.78368 0.39039 0.0
C242 C 0.11764 0.80216 0.36361 0.0
C243 C 0.1143 0.81778 0.40141 0.0
C244 C 0.11431 0.78844 0.44418 0.0
N245 N 0.11221 0.80909 0.45193 0.0
C246 C 0.15844 0.77097 0.32751 0.0
C247 C 0.18315 0.74068 0.37449 0.0
C248 C 0.19235 0.75461 0.33663 0.0
C249 C 0.17966 0.77031 0.31484 0.0
C250 C 0.1617 0.74223 0.38732 0.0
N251 N 0.14923 0.75659 0.36145 0.0
H252 H 0.14922 0.78268 0.30711 0.0
H253 H 0.15535 0.73133 0.41622 0.0
H254 H 0.11924 0.80429 0.31934 0.0
H255 H 0.11238 0.7771 0.47686 0.0
O256 O 0.11585 0.76794 0.28353 0.0
O257 O 0.08894 0.75953 0.33481 0.0
O258 O 0.11332 0.74295 0.43559 0.0
C259 C 0.09579 0.76725 0.2882 0.0
H260 H 0.09985 0.68332 0.29636 0.0
H261 H 0.11296 0.8342 0.39227 0.0
H262 H 0.19238 0.72855 0.39365 0.0
H263 H 0.18583 0.78152 0.28563 0.0
Co264 Co 0.91575 0.75825 0.35784 0.0
C265 C 0.91121 0.80106 0.30921 0.0
C266 C 0.94277 0.79261 0.32626 0.0
C267 C 0.94234 0.81314 0.31078 0.0
N268 N 0.92327 0.7848 0.32479 0.0
N269 N 0.92247 0.81838 0.30041 0.0
H270 H 0.89447 0.80103 0.30744 0.0
H271 H 0.95644 0.7843 0.33999 0.0
C272 C 0.91378 0.78932 0.45389 0.0
O273 O 0.90042 0.80039 0.42511 0.0
N274 N 0.90954 0.73236 0.39455 0.0
C275 C 0.89449 0.71821 0.38564 0.0
C276 C 0.89492 0.70394 0.42885 0.0
C277 C 0.91901 0.72644 0.44173 0.0
N278 N 0.91025 0.7094 0.46437 0.0
C279 C 0.87889 0.76556 0.29618 0.0
C280 C 0.84943 0.76356 0.37893 0.0
C281 C 0.84259 0.76564 0.32337 0.0
C282 C 0.85786 0.76675 0.28232 0.0
C283 C 0.87108 0.76295 0.39146 0.0
N284 N 0.88562 0.76418 0.35002 0.0
H285 H 0.88997 0.76612 0.2626 0.0
H286 H 0.87607 0.76075 0.43394 0.0
H287 H 0.88347 0.7187 0.35171 0.0
H288 H 0.93193 0.73484 0.45967 0.0
O289 O 0.91829 0.74398 0.287 0.0
O290 O 0.94451 0.74815 0.34402 0.0
O291 O 0.9199 0.77174 0.43467 0.0
C292 C 0.93784 0.74107 0.29649 0.0
H293 H 0.95562 0.82335 0.30677 0.0
H294 H 0.88425 0.69114 0.43479 0.0
H295 H 0.83821 0.76239 0.41224 0.0
H296 H 0.8536 0.76798 0.23892 0.0
Co297 Co 0.63122 0.24719 0.87589 0.0
C298 C 0.61076 0.20788 0.8425 0.0
C299 C 0.64079 0.20275 0.87782 0.0
C300 C 0.63119 0.18396 0.87297 0.0
N301 N 0.62816 0.21793 0.85829 0.0
N302 N 0.61225 0.18711 0.85086 0.0
H303 H 0.59721 0.2156 0.82568 0.0
H304 H 0.65579 0.20498 0.89693 0.0
C305 C 0.63262 0.2277 0.99366 0.0
O306 O 0.65219 0.22231 0.98804 0.0
N307 N 0.63393 0.27586 0.89787 0.0
C308 C 0.64388 0.29167 0.8724 0.0
C309 C 0.64285 0.30902 0.90628 0.0
C310 C 0.62694 0.2837 0.94599 0.0
N311 N 0.63236 0.3037 0.95257 0.0
C312 C 0.66982 0.2355 0.83158 0.0
C313 C 0.69664 0.25332 0.90688 0.0
C314 C 0.705 0.24431 0.85829 0.0
C315 C 0.69106 0.23525 0.82104 0.0
C316 C 0.67485 0.25288 0.91662 0.0
N317 N 0.66168 0.24376 0.87916 0.0
H318 H 0.65965 0.22937 0.7999 0.0
H319 H 0.66859 0.26049 0.95294 0.0
H320 H 0.65186 0.2905 0.83304 0.0
H321 H 0.61828 0.27495 0.97649 0.0
O322 O 0.631 0.2556 0.79835 0.0
O323 O 0.60274 0.25352 0.84895 0.0
O324 O 0.62377 0.23866 0.95584 0.0
C325 C 0.61109 0.25832 0.80122 0.0
H326 H 0.63766 0.16915 0.88549 0.0
H327 H 0.64999 0.32398 0.89873 0.0
H328 H 0.70677 0.26083 0.93662 0.0
H329 H 0.6964 0.22874 0.78213 0.0
Co330 Co 0.61969 0.76228 0.14536 0.0
C331 C 0.60875 0.80272 0.20319 0.0
C332 C 0.62746 0.80581 0.13009 0.0
C333 C 0.62453 0.82514 0.15128 0.0
N334 N 0.6177 0.79161 0.16221 0.0
N335 N 0.61294 0.82325 0.19724 0.0
H336 H 0.60031 0.79602 0.23767 0.0
H337 H 0.63725 0.80233 0.09508 0.0
C338 C 0.62175 0.77648 0.02048 0.0
O339 O 0.64204 0.77461 0.01782 0.0
N340 N 0.62162 0.73351 0.12265 0.0
C341 C 0.63134 0.71739 0.14749 0.0
C342 C 0.63117 0.70059 0.11149 0.0
C343 C 0.61554 0.72629 0.07279 0.0
N344 N 0.62145 0.7065 0.06442 0.0
C345 C 0.65851 0.77565 0.18805 0.0
C346 C 0.68566 0.75356 0.1225 0.0
C347 C 0.69383 0.76481 0.16788 0.0
C348 C 0.67973 0.77607 0.19999 0.0
C349 C 0.66395 0.75402 0.11073 0.0
N350 N 0.6505 0.76525 0.14321 0.0
H351 H 0.64833 0.78298 0.21771 0.0
H352 H 0.65803 0.74464 0.07711 0.0
H353 H 0.63892 0.71808 0.18754 0.0
H354 H 0.60732 0.73539 0.04213 0.0
O355 O 0.61887 0.75392 0.22357 0.0
O356 O 0.59101 0.75689 0.17173 0.0
O357 O 0.61221 0.77142 0.06534 0.0
C358 C 0.59886 0.75189 0.21997 0.0
H359 H 0.63101 0.83946 0.13524 0.0
H360 H 0.63852 0.68565 0.11816 0.0
H361 H 0.69587 0.7443 0.09676 0.0
H362 H 0.68492 0.7844 0.2365 0.0
Co363 Co 0.92194 0.25104 0.65705 0.0
C364 C 0.90434 0.21854 0.72892 0.0
C365 C 0.93312 0.20872 0.69224 0.0
C366 C 0.92562 0.19283 0.72483 0.0
N367 N 0.91936 0.22451 0.69339 0.0
N368 N 0.90749 0.19906 0.74751 0.0
H369 H 0.89172 0.22847 0.74229 0.0
H370 H 0.94761 0.20884 0.66949 0.0
C371 C 0.92472 0.21863 0.56068 0.0
O372 O 0.91459 0.20457 0.5893 0.0
N373 N 0.92485 0.27791 0.62049 0.0
C374 C 0.92813 0.29666 0.64388 0.0
C375 C 0.92983 0.31137 0.60264 0.0
C376 C 0.92453 0.2816 0.5653 0.0
N377 N 0.92768 0.30188 0.55306 0.0
C378 C 0.88244 0.26976 0.67344 0.0
C379 C 0.85774 0.23599 0.64945 0.0
C380 C 0.84901 0.25239 0.68023 0.0
C381 C 0.86151 0.26986 0.6895 0.0
C382 C 0.87881 0.23668 0.63316 0.0
N383 N 0.89137 0.25288 0.64836 0.0
H384 H 0.89193 0.28267 0.68637 0.0
H385 H 0.88513 0.22328 0.61317 0.0
H386 H 0.92922 0.29969 0.68787 0.0
H387 H 0.9225 0.26962 0.5345 0.0
O388 O 0.92291 0.26401 0.72967 0.0
O389 O 0.95076 0.25326 0.68525 0.0
O390 O 0.92784 0.23689 0.58111 0.0
C391 C 0.94297 0.26201 0.7295 0.0
H392 H 0.93348 0.17833 0.73386 0.0
H393 H 0.93252 0.32777 0.60907 0.0
H394 H 0.84864 0.22229 0.64004 0.0
H395 H 0.85569 0.28296 0.71296 0.0
Co396 Co 0.02657 0.65234 0.90001 0.0
C397 C 0.06468 0.65971 0.97014 0.0
C398 C 0.07133 0.64912 0.88785 0.0
C399 C 0.08962 0.64985 0.91645 0.0
N400 N 0.05558 0.65526 0.92111 0.0
N401 N 0.08545 0.6562 0.96828 0.0
H402 H 0.05622 0.66395 1.0072 0.0
H403 H 0.06967 0.64258 0.84702 0.0
C404 C 0.04074 0.65199 0.77589 0.0
O405 O 0.03942 0.63172 0.77221 0.0
N406 N 0.99817 0.65012 0.87413 0.0
C407 C 0.98269 0.63731 0.88993 0.0
C408 C 0.96639 0.63944 0.85261 0.0
C409 C 0.99089 0.66024 0.82928 0.0
N410 N 0.9718 0.65371 0.81404 0.0
C411 C 0.04093 0.61366 0.94008 0.0
C412 C 0.0202 0.5865 0.87167 0.0
C413 C 0.03114 0.57837 0.91774 0.0
C414 C 0.04171 0.59249 0.95125 0.0
C415 C 0.02024 0.60826 0.86087 0.0
N416 N 0.03075 0.62177 0.89492 0.0
H417 H 0.04732 0.62358 0.97153 0.0
H418 H 0.01092 0.61414 0.82698 0.0
H419 H 0.98363 0.6264 0.92403 0.0
H420 H 0.99966 0.67199 0.80748 0.0
O421 O 0.01697 0.65135 0.97643 0.0
O422 O 0.02013 0.68036 0.92901 0.0
O423 O 0.03602 0.66105 0.82157 0.0
C424 C 0.01463 0.67134 0.97535 0.0
H425 H 0.10454 0.64438 0.90166 0.0
H426 H 0.95219 0.63043 0.85239 0.0
H427 H 0.01144 0.57624 0.84488 0.0
H428 H 0.04962 0.58738 0.98859 0.0
Co429 Co 0.53037 0.3595 0.41113 0.0
C430 C 0.49406 0.3744 0.4748 0.0
C431 C 0.49028 0.343 0.44621 0.0
C432 C 0.47216 0.34917 0.47131 0.0
N433 N 0.5037 0.35908 0.44682 0.0
N434 N 0.47454 0.36895 0.48849 0.0
H435 H 0.50111 0.3891 0.48551 0.0
H436 H 0.49324 0.3281 0.42708 0.0
C437 C 0.49691 0.35534 0.31885 0.0
O438 O 0.48357 0.36543 0.34992 0.0
N439 N 0.55745 0.35948 0.37533 0.0
C440 C 0.57628 0.36007 0.40004 0.0
C441 C 0.59144 0.35959 0.35997 0.0
C442 C 0.56152 0.35856 0.32041 0.0
N443 N 0.58218 0.35853 0.30979 0.0
C444 C 0.54513 0.39987 0.4382 0.0
C445 C 0.51294 0.42391 0.39852 0.0
C446 C 0.52762 0.4333 0.43409 0.0
C447 C 0.54426 0.42096 0.45193 0.0
C448 C 0.5147 0.40259 0.38445 0.0
N449 N 0.53006 0.3904 0.40693 0.0
H450 H 0.55755 0.3909 0.4562 0.0
H451 H 0.50305 0.396 0.35806 0.0
H452 H 0.57905 0.36071 0.44423 0.0
H453 H 0.54967 0.35733 0.28883 0.0
O454 O 0.5433 0.3577 0.48421 0.0
O455 O 0.53481 0.33033 0.43506 0.0
O456 O 0.51613 0.35382 0.33443 0.0
C457 C 0.54283 0.33763 0.48084 0.0
H458 H 0.45851 0.33966 0.47812 0.0
H459 H 0.60801 0.35984 0.36761 0.0
H460 H 0.5 0.43287 0.38246 0.0
H461 H 0.55605 0.42722 0.47931 0.0
Co462 Co 0.03231 0.35803 0.11089 0.0
C463 C 0.07133 0.33634 0.08201 0.0
C464 C 0.07636 0.36906 0.08886 0.0
C465 C 0.09521 0.35962 0.08242 0.0
N466 N 0.06112 0.35458 0.0878 0.0
N467 N 0.09216 0.339 0.07851 0.0
H468 H 0.06376 0.32136 0.08223 0.0
H469 H 0.07452 0.38541 0.09719 0.0
C470 C 0.05696 0.36154 0.2197 0.0
O471 O 0.06584 0.37857 0.20139 0.0
N472 N 1.00419 0.36087 0.137 0.0
C473 C 0.98933 0.37459 0.12216 0.0
C474 C 0.97226 0.37159 0.15616 0.0
C475 C 0.99596 0.34951 0.17831 0.0
N476 N 0.97654 0.35573 0.19107 0.0
C477 C 0.03954 0.39577 0.05536 0.0
C478 C 0.02889 0.42427 0.13563 0.0
C479 C 0.03403 0.43157 0.08194 0.0
C480 C 0.03935 0.41678 0.04215 0.0
C481 C 0.02959 0.4026 0.14773 0.0
N482 N 0.03518 0.3886 0.10761 0.0
H483 H 0.04363 0.38507 0.02271 0.0
H484 H 0.02507 0.39712 0.18841 0.0
H485 H 0.99099 0.38628 0.09019 0.0
H486 H 1.00438 0.33744 0.2002 0.0
O487 O 0.02208 0.35554 0.03544 0.0
O488 O 0.02596 0.32876 0.09071 0.0
O489 O 0.04225 0.35325 0.19127 0.0
C490 C 0.0201 0.33574 0.04223 0.0
H491 H 0.11002 0.36753 0.08019 0.0
H492 H 0.95799 0.38052 0.15579 0.0
H493 H 0.02439 0.43512 0.16773 0.0
H494 H 0.043 0.42135 0.99997 0.0
Co495 Co 0.51775 0.65484 0.61852 0.0
C496 C 0.47638 0.66829 0.57001 0.0
C497 C 0.47488 0.64328 0.62853 0.0
C498 C 0.45508 0.64863 0.61509 0.0
N499 N 0.48841 0.65539 0.60044 0.0
N500 N 0.45586 0.66422 0.57801 0.0
H501 H 0.48241 0.68021 0.54276 0.0
H502 H 0.47906 0.63129 0.6578 0.0
C503 C 0.50156 0.6512 0.74112 0.0
O504 O 0.50276 0.63085 0.74177 0.0
N505 N 0.54644 0.65417 0.64258 0.0
C506 C 0.56309 0.64509 0.61869 0.0
C507 C 0.57965 0.64593 0.65554 0.0
C508 C 0.55307 0.66047 0.69283 0.0
N509 N 0.57305 0.65536 0.70226 0.0
C510 C 0.50762 0.61593 0.57236 0.0
C511 C 0.52767 0.58908 0.64359 0.0
C512 C 0.51791 0.58071 0.59592 0.0
C513 C 0.50788 0.59475 0.56055 0.0
C514 C 0.52686 0.61081 0.65443 0.0
N515 N 0.51642 0.62402 0.6194 0.0
H516 H 0.50076 0.62609 0.54167 0.0
H517 H 0.53517 0.61694 0.68981 0.0
H518 H 0.56294 0.6375 0.57867 0.0
H519 H 0.54341 0.66825 0.72298 0.0
O520 O 0.52647 0.65654 0.54075 0.0
O521 O 0.52186 0.68391 0.59315 0.0
O522 O 0.50779 0.66132 0.69824 0.0
C523 C 0.52743 0.67657 0.54488 0.0
H524 H 0.44118 0.64158 0.63191 0.0
H525 H 0.59492 0.6392 0.64966 0.0
H526 H 0.53603 0.57902 0.67192 0.0
H527 H 0.50091 0.58961 0.52202 0.0
H528 H 0.55659 0.06377 0.49181 0.0
H529 H 0.50012 0.05205 0.40047 0.0
H530 H 0.5558 0.0286 0.52894 0.0
H531 H 0.49961 0.01639 0.43635 0.0
H532 H 0.49058 0.96329 0.56161 0.0
H533 H 0.49274 0.99771 0.5201 0.0
H534 H 0.55964 0.99238 0.51431 0.0
H535 H 0.55742 0.95782 0.55618 0.0
C536 C 0.54409 0.05357 0.47893 0.0
C537 C 0.52832 0.06099 0.44325 0.0
C538 C 0.54372 0.03321 0.50011 0.0
C539 C 0.52752 0.0194 0.48651 0.0
C540 C 0.51217 0.02654 0.44891 0.0
C541 C 0.5126 0.04697 0.42749 0.0
C542 C 0.50581 0.96937 0.55148 0.0
C543 C 0.52382 0.95748 0.56238 0.0
C544 C 0.50704 0.98921 0.52716 0.0
C545 C 0.52635 0.99804 0.51279 0.0
C546 C 0.54444 0.98637 0.52493 0.0
C547 C 0.54319 0.96647 0.54934 0.0
H548 H 0.32105 0.23887 0.85177 0.0
H549 H 0.3194 0.30479 0.81946 0.0
H550 H 0.28641 0.23536 0.81059 0.0
H551 H 0.28564 0.30123 0.77576 0.0
H552 H 0.21757 0.29293 0.73199 0.0
H553 H 0.25032 0.29608 0.78199 0.0
H554 H 0.26826 0.23488 0.72613 0.0
H555 H 0.23514 0.2316 0.6775 0.0
C556 C 0.31325 0.25268 0.8366 0.0
C557 C 0.3233 0.2721 0.8389 0.0
C558 C 0.29342 0.25063 0.8119 0.0
C559 C 0.28297 0.26794 0.78865 0.0
C560 C 0.29277 0.28745 0.7932 0.0
C561 C 0.31242 0.28949 0.81804 0.0
C562 C 0.22859 0.28023 0.72971 0.0
C563 C 0.22358 0.26207 0.70007 0.0
C564 C 0.24753 0.282 0.75867 0.0
C565 C 0.26233 0.26576 0.75868 0.0
C566 C 0.25734 0.24765 0.72852 0.0
C567 C 0.23828 0.2458 0.70001 0.0
H568 H 0.02642 0.05133 0.10556 0.0
H569 H 0.96944 0.06334 0.01668 0.0
H570 H 0.02639 0.01548 0.07085 0.0
H571 H 0.96943 0.02779 0.98171 0.0
H572 H 0.96705 0.95643 0.96337 0.0
H573 H 0.96568 0.9911 1.0042 0.0
H574 H 0.03196 0.99736 0.98244 0.0
H575 H 0.03333 0.963 0.94053 0.0
C576 C 0.01367 0.04623 0.07954 0.0
C577 C 0.99794 0.06031 0.06406 0.0
C578 C 0.01377 0.02571 0.05893 0.0
C579 C 0.998 0.01859 0.02279 0.0
C580 C 0.9818 0.03248 1.0095 0.0
C581 C 0.98183 0.05297 0.02953 0.0
C582 C 0.98133 0.96525 0.96629 0.0
C583 C 1.00031 0.95654 0.94837 0.0
C584 C 0.98055 0.98521 0.99022 0.0
C585 C 0.99875 0.99715 0.99747 0.0
C586 C 0.01766 0.98858 0.97892 0.0
C587 C 0.01842 0.96874 0.95461 0.0
H588 H 0.31931 0.71847 0.22609 0.0
H589 H 0.30874 0.78023 0.16253 0.0
H590 H 0.28484 0.71874 0.26884 0.0
H591 H 0.27417 0.78037 0.20335 0.0
H592 H 0.22133 0.7856 0.32495 0.0
H593 H 0.25602 0.78366 0.28526 0.0
H594 H 0.24851 0.71753 0.26197 0.0
H595 H 0.21389 0.71955 0.3038 0.0
C596 C 0.30949 0.73198 0.22027 0.0
C597 C 0.31702 0.74936 0.19085 0.0
C598 C 0.28959 0.73217 0.24497 0.0
C599 C 0.27643 0.7497 0.24072 0.0
C600 C 0.2838 0.76676 0.20949 0.0
C601 C 0.30371 0.76664 0.18542 0.0
C602 C 0.2271 0.7706 0.31171 0.0
C603 C 0.21463 0.75276 0.31765 0.0
C604 C 0.24707 0.76947 0.28823 0.0
C605 C 0.25533 0.75048 0.26893 0.0
C606 C 0.24304 0.73248 0.27639 0.0
C607 C 0.22307 0.7336 0.30058 0.0
H608 H 0.82393 0.79351 0.25359 0.0
H609 H 0.81022 0.73901 0.35094 0.0
H610 H 0.78911 0.79262 0.2138 0.0
H611 H 0.77492 0.73815 0.31123 0.0
H612 H 0.72042 0.73123 0.1828 0.0
H613 H 0.75563 0.73137 0.22307 0.0
H614 H 0.75311 0.79821 0.23498 0.0
H615 H 0.71838 0.79801 0.19463 0.0
C616 C 0.81335 0.78143 0.26714 0.0
C617 C 0.82002 0.7664 0.3059 0.0
C618 C 0.79324 0.78093 0.24425 0.0
C619 C 0.77894 0.76525 0.25876 0.0
C620 C 0.78545 0.75035 0.29832 0.0
C621 C 0.80563 0.751 0.32182 0.0
C622 C 0.72758 0.74596 0.19307 0.0
C623 C 0.71646 0.76461 0.18495 0.0
C624 C 0.74769 0.74604 0.21703 0.0
C625 C 0.75743 0.76481 0.23287 0.0
C626 C 0.74644 0.78343 0.22318 0.0
C627 C 0.72637 0.78332 0.19996 0.0
H628 H 0.83141 0.21872 0.73236 0.0
H629 H 0.81876 0.28266 0.69032 0.0
H630 H 0.7985 0.21675 0.78197 0.0
H631 H 0.78553 0.28064 0.73879 0.0
H632 H 0.73285 0.27705 0.86466 0.0
H633 H 0.76785 0.27892 0.82464 0.0
H634 H 0.76271 0.21489 0.77284 0.0
H635 H 0.72854 0.21288 0.81489 0.0
C636 C 0.82143 0.23228 0.73273 0.0
C637 C 0.82785 0.2508 0.70671 0.0
C638 C 0.80244 0.2312 0.7615 0.0
C639 C 0.78903 0.24854 0.76494 0.0
C640 C 0.79541 0.26702 0.7384 0.0
C641 C 0.8145 0.26815 0.71002 0.0
C642 C 0.73946 0.26325 0.846 0.0
C643 C 0.7277 0.24485 0.84293 0.0
C644 C 0.75946 0.26439 0.82206 0.0
C645 C 0.76831 0.24714 0.79443 0.0
C646 C 0.75681 0.22853 0.79382 0.0
C647 C 0.73697 0.2274 0.81777 0.0
H648 H 0.06441 0.55512 0.9507 0.0
H649 H 0.99812 0.5507 0.92645 0.0
H650 H 0.06472 0.52132 0.99491 0.0
H651 H 0.99847 0.51591 0.96891 0.0
H652 H 1.0036 0.46179 0.09701 0.0
H653 H 1.00225 0.49665 0.0549 0.0
H654 H 0.06255 0.48604 0.98126 0.0
H655 H 0.06416 0.45217 0.0249 0.0
C656 C 0.04986 0.54671 0.95384 0.0
C657 C 0.03124 0.55581 0.93474 0.0
C658 C 0.05004 0.5271 0.97919 0.0
C659 C 0.03162 0.51553 0.98605 0.0
C660 C 0.01298 0.52432 0.96535 0.0
C661 C 0.01281 0.54416 0.93996 0.0
C662 C 0.01675 0.4672 0.07296 0.0
C663 C 0.03402 0.45409 0.06469 0.0
C664 C 0.01585 0.48708 0.04786 0.0
C665 C 0.03224 0.49444 0.01402 0.0
C666 C 0.04967 0.48139 1.00734 0.0
C667 C 0.05058 0.46174 0.03234 0.0
H668 H 0.55804 0.46313 0.44582 0.0
H669 H 0.49254 0.45326 0.47285 0.0
H670 H 0.55548 0.49737 0.48817 0.0
H671 H 0.48995 0.48725 0.51702 0.0
H672 H 0.48703 0.55719 0.5481 0.0
H673 H 0.48926 0.52277 0.50821 0.0
H674 H 0.55226 0.51699 0.5688 0.0
H675 H 0.55035 0.5523 0.60595 0.0
C676 C 0.54303 0.46825 0.46092 0.0
C677 C 0.52548 0.45527 0.45544 0.0
C678 C 0.54157 0.48796 0.48592 0.0
C679 C 0.52253 0.49545 0.50704 0.0
C680 C 0.50491 0.4825 0.50086 0.0
C681 C 0.50634 0.46285 0.47527 0.0
C682 C 0.50147 0.5487 0.55293 0.0
C683 C 0.51862 0.55797 0.57985 0.0
C684 C 0.50267 0.52861 0.53035 0.0
C685 C 0.52102 0.5167 0.53424 0.0
C686 C 0.53794 0.5256 0.56342 0.0
C687 C 0.53676 0.54586 0.58579 0.0
H688 H 0.49109 0.15803 0.19508 0.0
H689 H 0.43107 0.16144 0.27452 0.0
H690 H 0.4754 0.16899 0.10728 0.0
H691 H 0.41534 0.17244 0.18666 0.0
H692 H 0.41054 0.22521 0.04933 0.0
H693 H 0.42115 0.2067 0.13327 0.0
H694 H 0.44793 0.15806 0.03278 0.0
H695 H 0.43689 0.17668 0.94835 0.0
C696 C 0.47452 0.16097 0.19356 0.0
C697 C 0.46231 0.15911 0.24162 0.0
C698 C 0.46552 0.167 0.14326 0.0
C699 C 0.44418 0.17153 0.14031 0.0
C700 C 0.43184 0.16903 0.18794 0.0
C701 C 0.44081 0.1627 0.23805 0.0
C702 C 0.41835 0.21037 0.0454 0.0
C703 C 0.42301 0.20232 0.9928 0.0
C704 C 0.42431 0.19973 0.09326 0.0
C705 C 0.43538 0.18098 0.08941 0.0
C706 C 0.43944 0.17252 0.03672 0.0
C707 C 0.43306 0.18303 0.98865 0.0
H708 H 0.10482 0.14681 0.2108 0.0
H709 H 0.04799 0.17353 0.27468 0.0
H710 H 0.12383 0.16103 0.29104 0.0
H711 H 0.06686 0.18807 0.35208 0.0
H712 H 0.10729 0.23065 0.44745 0.0
H713 H 0.09548 0.21634 0.35954 0.0
H714 H 0.12217 0.1569 0.40243 0.0
H715 H 0.13441 0.17133 0.49064 0.0
C716 C 0.09641 0.15564 0.24169 0.0
C717 C 0.07498 0.15944 0.23547 0.0
C718 C 0.10728 0.16383 0.2873 0.0
C719 C 0.09685 0.17606 0.3268 0.0
C720 C 0.07539 0.17923 0.32134 0.0
C721 C 0.0646 0.17092 0.27665 0.0
C722 C 0.11119 0.21471 0.43772 0.0
C723 C 0.12156 0.20206 0.47645 0.0
C724 C 0.10431 0.20649 0.38747 0.0
C725 C 0.10774 0.18548 0.37464 0.0
C726 C 0.11937 0.17315 0.41138 0.0
C727 C 0.12616 0.18136 0.46201 0.0
H728 H 0.0865 0.84211 0.46198 0.0
H729 H 0.1238 0.79873 0.55591 0.0
H730 H 0.07336 0.85708 0.54833 0.0
H731 H 0.11063 0.81363 0.64232 0.0
H732 H 0.03356 0.84943 0.71148 0.0
H733 H 0.04978 0.84137 0.62325 0.0
H734 H 0.11048 0.84781 0.69768 0.0
H735 H 0.09439 0.85661 0.78604 0.0
C736 C 0.09217 0.83605 0.5011 0.0
C737 C 0.1061 0.81923 0.50242 0.0
C738 C 0.08455 0.8445 0.55039 0.0
C739 C 0.09097 0.83646 0.60182 0.0
C740 C 0.10556 0.82022 0.60317 0.0
C741 C 0.11296 0.81159 0.55388 0.0
C742 C 0.05035 0.84968 0.70919 0.0
C743 C 0.0626 0.8535 0.75653 0.0
C744 C 0.05963 0.84501 0.65841 0.0
C745 C 0.08136 0.84385 0.65388 0.0
C746 C 0.09367 0.84837 0.70037 0.0
C747 C 0.08441 0.85331 0.75104 0.0
H748 H 0.41033 0.84013 0.0141 0.0
H749 H 0.42214 0.77784 0.95474 0.0
H750 H 0.42031 0.85398 0.92326 0.0
H751 H 0.43144 0.79165 0.86459 0.0
H752 H 0.48244 0.82633 0.76748 0.0
H753 H 0.4648 0.81334 0.84959 0.0
H754 H 0.41214 0.85295 0.81435 0.0
H755 H 0.43006 0.86616 0.7313 0.0
C756 C 0.41461 0.8294 0.98149 0.0
C757 C 0.41579 0.80793 0.99199 0.0
C758 C 0.42009 0.83731 0.92953 0.0
C759 C 0.42687 0.82382 0.88763 0.0
C760 C 0.42644 0.80232 0.89667 0.0
C761 C 0.42094 0.79443 0.94831 0.0
C762 C 0.4672 0.83242 0.77744 0.0
C763 C 0.45761 0.84731 0.74343 0.0
C764 C 0.457 0.8248 0.82395 0.0
C765 C 0.43707 0.83202 0.8376 0.0
C766 C 0.42749 0.84715 0.80425 0.0
C767 C 0.43765 0.85461 0.75699 0.0
H768 H 0.59005 0.86266 0.75349 0.0
H769 H 0.53366 0.82662 0.76405 0.0
H770 H 0.60501 0.84291 0.82924 0.0
H771 H 0.54896 0.80638 0.84084 0.0
H772 H 0.57964 0.78604 0.01166 0.0
H773 H 0.56173 0.80525 0.93757 0.0
H774 H 0.61951 0.80974 0.84751 0.0
H775 H 0.63728 0.79093 0.92127 0.0
C776 C 0.58067 0.85053 0.77205 0.0
C777 C 0.56051 0.84637 0.75167 0.0
C778 C 0.58946 0.83895 0.81568 0.0
C779 C 0.57856 0.82255 0.84128 0.0
C780 C 0.55801 0.8188 0.82258 0.0
C781 C 0.54914 0.83048 0.77837 0.0
C782 C 0.58853 0.791 0.97587 0.0
C783 C 0.6101 0.78685 0.97321 0.0
C784 C 0.57817 0.80204 0.93304 0.0
C785 C 0.58903 0.80949 0.88613 0.0
C786 C 0.61048 0.80483 0.88308 0.0
C787 C 0.62076 0.79378 0.92558 0.0
H788 H 0.99213 0.83068 0.74011 0.0
H789 H 0.93161 0.85842 0.76273 0.0
H790 H 0.97964 0.8141 0.65422 0.0
H791 H 0.91922 0.84177 0.67936 0.0
H792 H 0.90582 0.82731 0.50044 0.0
H793 H 0.92059 0.84296 0.58294 0.0
H794 H 0.95707 0.78769 0.61235 0.0
H795 H 0.94247 0.77206 0.52784 0.0
C796 C 0.97624 0.83335 0.72696 0.0
C797 C 0.96306 0.84616 0.75893 0.0
C798 C 0.96896 0.82366 0.67772 0.0
C799 C 0.9483 0.82655 0.6587 0.0
C800 C 0.9353 0.83933 0.69104 0.0
C801 C 0.94249 0.84891 0.73971 0.0
C802 C 0.9169 0.8183 0.52434 0.0
C803 C 0.92267 0.79821 0.50697 0.0
C804 C 0.92541 0.82735 0.57236 0.0
C805 C 0.94004 0.8167 0.60565 0.0
C806 C 0.94602 0.7966 0.58812 0.0
C807 C 0.93746 0.7875 0.53966 0.0
H808 H 0.95763 0.13946 0.28046 0.0
H809 H 0.9941 0.19414 0.24661 0.0
H810 H 0.94456 0.15521 0.36479 0.0
H811 H 0.97998 0.21078 0.3297 0.0
H812 H 0.9612 0.23079 0.50806 0.0
H813 H 0.97661 0.21596 0.4239 0.0
H814 H 0.92198 0.17768 0.40228 0.0
H815 H 0.9076 0.19146 0.48743 0.0
C816 C 0.9628 0.15499 0.29089 0.0
C817 C 0.97696 0.16543 0.25626 0.0
C818 C 0.95502 0.1643 0.33938 0.0
C819 C 0.9606 0.18475 0.35476 0.0
C820 C 0.97519 0.19505 0.32046 0.0
C821 C 0.98335 0.18549 0.27234 0.0
C822 C 0.95248 0.21931 0.48489 0.0
C823 C 0.93317 0.21228 0.50502 0.0
C824 C 0.96133 0.21071 0.43625 0.0
C825 C 0.95097 0.19504 0.40561 0.0
C826 C 0.93113 0.18895 0.42482 0.0
C827 C 0.9226 0.19716 0.47374 0.0
H828 H 0.54427 0.19579 0.26573 0.0
H829 H 0.57809 0.1396 0.22851 0.0
H830 H 0.56417 0.2143 0.19426 0.0
H831 H 0.59774 0.15792 0.15746 0.0
H832 H 0.6452 0.20004 0.07414 0.0
H833 H 0.62466 0.18349 0.1466 0.0
H834 H 0.57059 0.21807 0.09403 0.0
H835 H 0.59131 0.23484 0.02127 0.0
C836 C 0.55585 0.18731 0.24231 0.0
C837 C 0.55946 0.16608 0.25355 0.0
C838 C 0.56728 0.19795 0.20095 0.0
C839 C 0.58287 0.18781 0.16981 0.0
C840 C 0.58624 0.16653 0.18082 0.0
C841 C 0.57475 0.15589 0.22164 0.0
C842 C 0.62898 0.20433 0.07803 0.0
C843 C 0.62008 0.21891 0.04125 0.0
C844 C 0.61705 0.19462 0.11962 0.0
C845 C 0.59573 0.19913 0.12647 0.0
C846 C 0.58692 0.21415 0.09068 0.0
C847 C 0.59886 0.22379 0.04863 0.0
H848 H 0.98888 0.66904 0.71957 0.0
H849 H 0.93014 0.65096 0.79231 0.0
H850 H 0.97092 0.68133 0.63749 0.0
H851 H 0.91216 0.66272 0.70759 0.0
H852 H 0.90447 0.66935 0.49854 0.0
H853 H 0.91685 0.65382 0.58603 0.0
H854 H 0.94066 0.71339 0.63709 0.0
H855 H 0.92787 0.72901 0.55194 0.0
C856 C 0.97212 0.66774 0.71847 0.0
C857 C 0.96095 0.65949 0.76365 0.0
C858 C 0.96188 0.67459 0.67091 0.0
C859 C 0.94022 0.67306 0.66654 0.0
C860 C 0.92893 0.66398 0.71015 0.0
C861 C 0.93923 0.65729 0.75852 0.0
C862 C 0.91199 0.67918 0.52892 0.0
C863 C 0.91562 0.70033 0.51742 0.0
C864 C 0.91902 0.6703 0.57888 0.0
C865 C 0.92981 0.68245 0.61777 0.0
C866 C 0.93254 0.70369 0.60742 0.0
C867 C 0.9254 0.71255 0.5582 0.0
H868 H 0.6101 0.66635 0.0498 0.0
H869 H 0.62837 0.72189 0.96244 0.0
H870 H 0.60203 0.64953 0.96072 0.0
H871 H 0.62043 0.70534 0.87402 0.0
H872 H 0.61289 0.66772 0.71809 0.0
H873 H 0.62913 0.67652 0.80747 0.0
H874 H 0.57329 0.65731 0.8927 0.0
H875 H 0.5573 0.64862 0.80398 0.0
C876 C 0.61279 0.67474 0.01149 0.0
C877 C 0.61957 0.69544 0.0128 0.0
C878 C 0.60812 0.66521 0.96065 0.0
C879 C 0.61054 0.67614 0.91034 0.0
C880 C 0.61857 0.69641 0.91184 0.0
C881 C 0.62292 0.70597 0.96247 0.0
C882 C 0.60437 0.66502 0.75616 0.0
C883 C 0.5838 0.65779 0.75428 0.0
C884 C 0.61357 0.67011 0.80718 0.0
C885 C 0.60245 0.66766 0.85714 0.0
C886 C 0.58235 0.6592 0.85516 0.0
C887 C 0.57311 0.65444 0.80433 0.0
H888 H 0.63839 0.29013 0.05621 0.0
H889 H 0.61914 0.34357 0.9611 0.0
H890 H 0.62866 0.30756 0.14162 0.0
H891 H 0.6094 0.36151 0.04758 0.0
H892 H 0.56579 0.36548 0.20699 0.0
H893 H 0.58118 0.35587 0.1183 0.0
H894 H 0.63722 0.33648 0.20262 0.0
H895 H 0.62167 0.34507 0.2911 0.0
C896 C 0.63233 0.30582 0.05392 0.0
C897 C 0.62932 0.3155 1.00237 0.0
C898 C 0.62692 0.3159 0.10281 0.0
C899 C 0.61827 0.33594 0.10139 0.0
C900 C 0.61595 0.34602 0.04983 0.0
C901 C 0.62163 0.3359 1.00057 0.0
C902 C 0.5814 0.35921 0.20677 0.0
C903 C 0.59223 0.35566 0.25672 0.0
C904 C 0.59034 0.35401 0.15573 0.0
C905 C 0.61032 0.3452 0.15357 0.0
C906 C 0.62166 0.34296 0.20305 0.0
C907 C 0.61273 0.34806 0.25394 0.0
H908 H 0.94546 0.33912 0.52741 0.0
H909 H 0.91558 0.28565 0.45356 0.0
H910 H 0.95265 0.35282 0.4356 0.0
H911 H 0.92338 0.29927 0.36169 0.0
H912 H 0.97356 0.31613 0.22599 0.0
H913 H 0.95753 0.30389 0.31177 0.0
H914 H 0.93632 0.36621 0.34663 0.0
H915 H 0.95252 0.37843 0.26044 0.0
C916 C 0.94007 0.33037 0.49196 0.0
C917 C 0.93015 0.31102 0.49854 0.0
C918 C 0.94421 0.33832 0.43912 0.0
C919 C 0.93868 0.32706 0.39149 0.0
C920 C 0.92805 0.30816 0.39775 0.0
C921 C 0.9237 0.3003 0.4506 0.0
C922 C 0.96519 0.32711 0.25163 0.0
C923 C 0.96437 0.34822 0.23691 0.0
C924 C 0.95588 0.32011 0.30047 0.0
C925 C 0.94576 0.33412 0.33601 0.0
C926 C 0.94415 0.3551 0.32013 0.0
C927 C 0.95324 0.36206 0.27072 0.0
H928 H 0.08994 0.37386 0.2838 0.0
H929 H 0.04437 0.32493 0.27185 0.0
H930 H 0.10589 0.35657 0.3624 0.0
H931 H 0.06007 0.30771 0.35273 0.0
H932 H 0.10522 0.27278 0.47433 0.0
H933 H 0.08866 0.28838 0.39211 0.0
H934 H 0.10263 0.34949 0.45561 0.0
H935 H 0.11951 0.33414 0.53524 0.0
C936 C 0.08305 0.3595 0.29833 0.0
C937 C 0.06561 0.35106 0.27104 0.0
C938 C 0.09224 0.3495 0.34416 0.0
C939 C 0.08436 0.33061 0.36533 0.0
C940 C 0.06687 0.32207 0.33799 0.0
C941 C 0.05767 0.33211 0.29167 0.0
C942 C 0.10492 0.28954 0.47039 0.0
C943 C 0.11407 0.30204 0.51183 0.0
C944 C 0.09521 0.29858 0.42323 0.0
C945 C 0.09429 0.32041 0.41597 0.0
C946 C 0.1033 0.33271 0.45795 0.0
C947 C 0.11301 0.32377 0.50445 0.0
H948 H 0.46329 0.28399 0.01185 0.0
H949 H 0.40663 0.30994 0.0775 0.0
H950 H 0.48289 0.29938 0.08901 0.0
H951 H 0.42594 0.32606 0.15196 0.0
H952 H 0.45845 0.33872 0.31079 0.0
H953 H 0.44183 0.32126 0.23432 0.0
H954 H 0.49769 0.32803 0.13647 0.0
H955 H 0.51493 0.34485 0.21607 0.0
C956 C 0.45497 0.29299 0.04258 0.0
C957 C 0.43318 0.29536 0.0383 0.0
C958 C 0.46629 0.30204 0.08693 0.0
C959 C 0.45627 0.31396 0.12835 0.0
C960 C 0.43451 0.31655 0.12289 0.0
C961 C 0.42325 0.30732 0.07936 0.0
C962 C 0.46735 0.33658 0.27307 0.0
C963 C 0.48807 0.34361 0.26995 0.0
C964 C 0.45762 0.3266 0.22835 0.0
C965 C 0.46791 0.3235 0.17738 0.0
C966 C 0.48898 0.32998 0.1745 0.0
C967 C 0.49896 0.33975 0.22025 0.0
H968 H 0.41512 0.67944 1.01011 0.0
H969 H 0.44853 0.7373 0.99636 0.0
H970 H 0.43515 0.6651 0.93423 0.0
H971 H 0.46919 0.72262 0.91996 0.0
H972 H 0.49108 0.69298 0.75099 0.0
H973 H 0.47128 0.71001 0.82508 0.0
H974 H 0.46813 0.65175 0.91358 0.0
H975 H 0.48737 0.63482 0.83954 0.0
C976 C 0.42676 0.68924 0.9909 0.0
C977 C 0.43009 0.70964 1.01032 0.0
C978 C 0.43853 0.68083 0.94722 0.0
C979 C 0.45433 0.69235 0.9208 0.0
C980 C 0.45725 0.71309 0.93876 0.0
C981 C 0.44535 0.72159 0.98283 0.0
C982 C 0.48628 0.68381 0.78644 0.0
C983 C 0.49089 0.66235 0.78854 0.0
C984 C 0.47489 0.69365 0.82929 0.0
C985 C 0.46763 0.68239 0.87578 0.0
C986 C 0.47281 0.66106 0.87832 0.0
C987 C 0.48413 0.65128 0.83567 0.0
H988 H 0.05505 0.63743 0.67587 0.0
H989 H 0.04842 0.69437 0.7685 0.0
H990 H 0.07258 0.65628 0.60197 0.0
H991 H 0.06632 0.71335 0.69416 0.0
H992 H 0.08437 0.74216 0.51845 0.0
H993 H 0.06548 0.72603 0.59631 0.0
H994 H 0.10551 0.67235 0.58571 0.0
H995 H 0.12397 0.68812 0.50895 0.0
C996 C 0.05725 0.65401 0.68062 0.0
C997 C 0.0503 0.6642 0.72886 0.0
C998 C 0.06752 0.6649 0.63808 0.0
C999 C 0.07128 0.68646 0.64185 0.0
C1000 C 0.06376 0.69683 0.68931 0.0
C1001 C 0.05351 0.68587 0.73221 0.0
C1002 C 0.0893 0.72705 0.53333 0.0
C1003 C 0.10571 0.71649 0.50661 0.0
C1004 C 0.07841 0.71773 0.57803 0.0
C1005 C 0.08356 0.69755 0.59706 0.0
C1006 C 0.10055 0.68756 0.5717 0.0
C1007 C 0.11134 0.6968 0.52757 0.0
H1008 H 0.41895 0.23861 0.7063 0.0
H1009 H 0.4798 0.2576 0.76199 0.0
H1010 H 0.43453 0.22035 0.62819 0.0
H1011 H 0.4955 0.23952 0.68208 0.0
H1012 H 0.51007 0.22024 0.49311 0.0
H1013 H 0.49571 0.24057 0.57078 0.0
H1014 H 0.45795 0.18818 0.61839 0.0
H1015 H 0.47259 0.16785 0.54225 0.0
C1016 C 0.4357 0.23909 0.70171 0.0
C1017 C 0.44804 0.24968 0.74092 0.0
C1018 C 0.44466 0.22848 0.65677 0.0
C1019 C 0.46632 0.22834 0.64849 0.0
C1020 C 0.47876 0.23934 0.68684 0.0
C1021 C 0.46976 0.24966 0.73283 0.0
C1022 C 0.49857 0.21314 0.5199 0.0
C1023 C 0.49238 0.1924 0.51085 0.0
C1024 C 0.49049 0.22474 0.56482 0.0
C1025 C 0.47561 0.21609 0.60114 0.0
C1026 C 0.46925 0.19547 0.59133 0.0
C1027 C 0.47766 0.18378 0.54746 0.0
H1028 H 0.02502 0.16915 0.91963 0.0
H1029 H 0.05051 0.21221 0.03849 0.0
H1030 H 0.04358 0.18678 0.84496 0.0
H1031 H 0.06958 0.22977 0.96325 0.0
H1032 H 0.1206 0.23358 0.8213 0.0
H1033 H 0.09959 0.22012 0.89787 0.0
H1034 H 0.04529 0.22104 0.79263 0.0
H1035 H 0.06632 0.23492 0.71605 0.0
C1036 C 0.03449 0.18252 0.92986 0.0
C1037 C 0.03623 0.18922 0.98531 0.0
C1038 C 0.04509 0.19271 0.8868 0.0
C1039 C 0.05816 0.20972 0.89776 0.0
C1040 C 0.05975 0.21665 0.9532 0.0
C1041 C 0.04872 0.20668 0.99634 0.0
C1042 C 0.10415 0.231 0.81442 0.0
C1043 C 0.09523 0.23522 0.76215 0.0
C1044 C 0.09205 0.22342 0.85861 0.0
C1045 C 0.07069 0.21943 0.85171 0.0
C1046 C 0.06171 0.2238 0.7995 0.0
C1047 C 0.07376 0.2318 0.75555 0.0
H1048 H 0.03768 0.85528 0.06608 0.0
H1049 H 0.01076 0.79799 1.00728 0.0
H1050 H 0.05608 0.83642 0.1385 0.0
H1051 H 0.02914 0.77894 0.08176 0.0
H1052 H 0.05327 0.76202 0.27055 0.0
H1053 H 0.03173 0.77796 0.19696 0.0
H1054 H 0.08597 0.80905 0.13258 0.0
H1055 H 0.10732 0.79301 0.20428 0.0
C1056 C 0.03546 0.83863 0.06882 0.0
C1057 C 0.02268 0.82824 0.0303 0.0
C1058 C 0.04613 0.82779 0.11052 0.0
C1059 C 0.04422 0.80613 0.11607 0.0
C1060 C 0.03092 0.79564 0.07884 0.0
C1061 C 0.02044 0.80654 0.03604 0.0
C1062 C 0.06057 0.77216 0.24044 0.0
C1063 C 0.08209 0.77621 0.24366 0.0
C1064 C 0.04825 0.78121 0.1981 0.0
C1065 C 0.05709 0.79488 0.15884 0.0
C1066 C 0.07858 0.79873 0.16214 0.0
C1067 C 0.09086 0.78944 0.2034 0.0
H1068 H 0.47431 0.77595 0.22141 0.0
H1069 H 0.42263 0.769 0.33376 0.0
H1070 H 0.49451 0.79285 0.29525 0.0
H1071 H 0.44295 0.78535 0.4078 0.0
H1072 H 0.49396 0.79983 0.5407 0.0
H1073 H 0.47653 0.77964 0.46753 0.0
H1074 H 0.4907 0.82776 0.34877 0.0
H1075 H 0.50752 0.84808 0.42184 0.0
C1076 C 0.46736 0.77774 0.26203 0.0
C1077 C 0.4468 0.77113 0.27145 0.0
C1078 C 0.4789 0.78753 0.30434 0.0
C1079 C 0.47041 0.79049 0.35769 0.0
C1080 C 0.45009 0.78323 0.36751 0.0
C1081 C 0.43839 0.77392 0.32489 0.0
C1082 C 0.49357 0.80596 0.49883 0.0
C1083 C 0.5022 0.82559 0.48727 0.0
C1084 C 0.48346 0.79446 0.45693 0.0
C1085 C 0.48218 0.80204 0.40204 0.0
C1086 C 0.49149 0.82133 0.39028 0.0
C1087 C 0.5011 0.83302 0.43233 0.0
H1088 H 0.55746 0.89668 0.43888 0.0
H1089 H 0.61621 0.8713 0.49398 0.0
H1090 H 0.56984 0.8968 0.34431 0.0
H1091 H 0.6285 0.8713 0.39871 0.0
H1092 H 0.63876 0.85451 0.22446 0.0
H1093 H 0.63258 0.88152 0.29363 0.0
H1094 H 0.57133 0.85627 0.32331 0.0
H1095 H 0.57761 0.82928 0.2543 0.0
C1096 C 0.57343 0.89222 0.43158 0.0
C1097 C 0.58547 0.88259 0.47315 0.0
C1098 C 0.58054 0.89246 0.37712 0.0
C1099 C 0.59959 0.88306 0.36442 0.0
C1100 C 0.61347 0.87817 0.40752 0.0
C1101 C 0.60635 0.87789 0.46202 0.0
C1102 C 0.62378 0.85514 0.24485 0.0
C1103 C 0.60864 0.83981 0.23488 0.0
C1104 C 0.62025 0.87065 0.28386 0.0
C1105 C 0.60142 0.87117 0.31279 0.0
C1106 C 0.58583 0.85652 0.30042 0.0
C1107 C 0.58949 0.84084 0.26202 0.0
H1108 H 0.89276 0.82283 0.22284 0.0
H1109 H 0.93602 0.85722 0.32367 0.0
H1110 H 0.89036 0.85142 0.15907 0.0
H1111 H 0.93277 0.88697 0.26141 0.0
H1112 H 0.90729 0.87845 0.01537 0.0
H1113 H 0.89064 0.8804 0.10613 0.0
H1114 H 0.95127 0.88795 0.18192 0.0
H1115 H 0.96717 0.88742 0.09195 0.0
C1116 C 0.901 0.83702 0.23272 0.0
C1117 C 0.91543 0.83751 0.2762 0.0
C1118 C 0.89956 0.85373 0.19614 0.0
C1119 C 0.91256 0.87122 0.20269 0.0
C1120 C 0.92356 0.87326 0.25298 0.0
C1121 C 0.92544 0.85627 0.28879 0.0
C1122 C 0.91677 0.8815 0.05163 0.0
C1123 C 0.93851 0.88178 0.04737 0.0
C1124 C 0.90732 0.8825 0.1037 0.0
C1125 C 0.91966 0.88258 0.15205 0.0
C1126 C 0.94103 0.88712 0.14638 0.0
C1127 C 0.95037 0.88672 0.09429 0.0
H1128 H 0.89189 0.2171 0.83906 0.0
H1129 H 0.89872 0.15817 0.75665 0.0
H1130 H 0.88633 0.19975 0.92592 0.0
H1131 H 0.89158 0.14015 0.84371 0.0
H1132 H 0.91032 0.18034 0.07093 0.0
H1133 H 0.88238 0.18009 1.0025 0.0
H1134 H 0.91716 0.13532 0.90578 0.0
H1135 H 0.94382 0.13483 0.97506 0.0
C1136 C 0.89117 0.2003 0.83922 0.0
C1137 C 0.89683 0.18891 0.79216 0.0
C1138 C 0.88778 0.19012 0.88941 0.0
C1139 C 0.89004 0.16833 0.89317 0.0
C1140 C 0.89118 0.15696 0.84331 0.0
C1141 C 0.8952 0.1672 0.79332 0.0
C1142 C 0.9114 0.16987 0.03592 0.0
C1143 C 0.92971 0.15855 0.02637 0.0
C1144 C 0.89546 0.16974 0.9965 0.0
C1145 C 0.89827 0.15918 0.94586 0.0
C1146 C 0.91452 0.14448 0.94268 0.0
C1147 C 0.93014 0.14421 0.9827 0.0
H1148 H 0.6019 0.15427 0.57458 0.0
H1149 H 0.53575 0.1465 0.59822 0.0
H1150 H 0.60749 0.1478 0.67269 0.0
H1151 H 0.54128 0.14069 0.69696 0.0
H1152 H 0.5711 0.19125 0.82748 0.0
H1153 H 0.55356 0.17084 0.75734 0.0
H1154 H 0.60341 0.12592 0.76119 0.0
H1155 H 0.62131 0.14649 0.82996 0.0
C1156 C 0.58864 0.15079 0.6006 0.0
C1157 C 0.56843 0.15184 0.57937 0.0
C1158 C 0.59178 0.14672 0.65664 0.0
C1159 C 0.57472 0.14378 0.69239 0.0
C1160 C 0.55462 0.14296 0.67021 0.0
C1161 C 0.5515 0.14684 0.614 0.0
C1162 C 0.57802 0.17669 0.81476 0.0
C1163 C 0.59832 0.17137 0.83084 0.0
C1164 C 0.56773 0.1647 0.7754 0.0
C1165 C 0.57782 0.14746 0.75197 0.0
C1166 C 0.59571 0.13957 0.77765 0.0
C1167 C 0.60606 0.15159 0.81682 0.0
H1168 H 0.01415 0.71367 1.00032 0.0
H1169 H 0.99354 0.65416 0.06177 0.0
H1170 H 0.99763 0.73075 0.08071 0.0
H1171 H 0.97688 0.6711 0.14031 0.0
H1172 H 0.92572 0.71185 0.22237 0.0
H1173 H 0.94544 0.69607 0.14702 0.0
H1174 H 0.99957 0.73138 0.19437 0.0
H1175 H 0.97972 0.74695 0.27167 0.0
C1176 C 1.00618 0.70422 0.03081 0.0
C1177 C 1.00521 0.68248 0.02413 0.0
C1178 C 0.9968 0.714 0.0771 0.0
C1179 C 0.98583 0.70233 0.11717 0.0
C1180 C 0.98506 0.68064 0.11039 0.0
C1181 C 0.99471 0.6709 0.06512 0.0
C1182 C 0.9419 0.71614 0.21734 0.0
C1183 C 0.95113 0.73054 0.25372 0.0
C1184 C 0.95323 0.70707 0.17391 0.0
C1185 C 0.97414 0.71242 0.16423 0.0
C1186 C 0.98348 0.72695 0.20035 0.0
C1187 C 0.97218 0.73571 0.24503 0.0
H1188 H 0.55968 0.73372 0.21931 0.0
H1189 H 0.60975 0.74988 0.33005 0.0
H1190 H 0.54118 0.71706 0.29674 0.0
H1191 H 0.5912 0.73363 0.40735 0.0
H1192 H 0.54396 0.7165 0.54632 0.0
H1193 H 0.55975 0.73592 0.4691 0.0
H1194 H 0.54507 0.68566 0.35774 0.0
H1195 H 0.52973 0.66623 0.43472 0.0
C1196 C 0.56665 0.73401 0.26022 0.0
C1197 C 0.58631 0.74327 0.26791 0.0
C1198 C 0.55608 0.72429 0.3048 0.0
C1199 C 0.56456 0.72385 0.35899 0.0
C1200 C 0.58394 0.73369 0.3668 0.0
C1201 C 0.59467 0.743 0.32211 0.0
C1202 C 0.54391 0.70967 0.50529 0.0
C1203 C 0.53545 0.68969 0.49726 0.0
C1204 C 0.55312 0.72078 0.46083 0.0
C1205 C 0.55382 0.7125 0.40649 0.0
C1206 C 0.54478 0.69278 0.39841 0.0
C1207 C 0.53599 0.68154 0.44293 0.0
H1208 H 0.53483 0.29625 0.50782 0.0
H1209 H 0.57102 0.3493 0.55883 0.0
H1210 H 0.54958 0.27597 0.58566 0.0
H1211 H 0.58593 0.32911 0.63471 0.0
H1212 H 0.62779 0.27896 0.71354 0.0
H1213 H 0.61043 0.29656 0.63701 0.0
H1214 H 0.55083 0.27771 0.70128 0.0
H1215 H 0.56838 0.26022 0.77987 0.0
C1216 C 0.54596 0.30356 0.53529 0.0
C1217 C 0.55174 0.32446 0.52668 0.0
C1218 C 0.5543 0.29199 0.58017 0.0
C1219 C 0.569 0.30087 0.61664 0.0
C1220 C 0.57475 0.32169 0.60756 0.0
C1221 C 0.56614 0.3333 0.56386 0.0
C1222 C 0.61097 0.27838 0.71165 0.0
C1223 C 0.59957 0.26811 0.75342 0.0
C1224 C 0.60099 0.28859 0.66754 0.0
C1225 C 0.5792 0.28864 0.66269 0.0
C1226 C 0.56765 0.27791 0.70348 0.0
C1227 C 0.5777 0.26797 0.74869 0.0
H1228 H 0.01944 0.29258 0.02822 0.0
H1229 H 0.99863 0.34988 0.9531 0.0
H1230 H 1.00246 0.27295 0.95247 0.0
H1231 H 0.98166 0.33053 0.87953 0.0
H1232 H 0.93007 0.28895 0.8089 0.0
H1233 H 0.94975 0.30457 0.88423 0.0
H1234 H 1.00441 0.2706 0.83434 0.0
H1235 H 0.98458 0.25499 0.75699 0.0
C1236 C 0.01132 0.30098 0.99581 0.0
C1237 C 0.01041 0.32287 0.99717 0.0
C1238 C 1.00171 0.28976 0.95224 0.0
C1239 C 0.99063 0.30017 0.90988 0.0
C1240 C 0.98994 0.32197 0.91141 0.0
C1241 C 0.99976 0.33309 0.95387 0.0
C1242 C 0.94626 0.28462 0.81373 0.0
C1243 C 0.95568 0.2707 0.77633 0.0
C1244 C 0.95757 0.29365 0.85715 0.0
C1245 C 0.97867 0.28887 0.86558 0.0
C1246 C 0.98813 0.27452 0.82927 0.0
C1247 C 0.97681 0.26569 0.78474 0.0
H1248 H 0.14693 0.33305 0.82783 0.0
H1249 H 0.14688 0.26618 0.83896 0.0
H1250 H 0.14724 0.33531 0.92871 0.0
H1251 H 0.14668 0.26831 0.94001 0.0
H1252 H 0.08597 0.30097 0.03236 0.0
H1253 H 0.11107 0.28358 0.97438 0.0
H1254 H 0.15908 0.32528 0.0311 0.0
H1255 H 0.13413 0.34212 0.09213 0.0
C1256 C 0.14795 0.3189 0.85209 0.0
C1257 C 0.14653 0.29955 0.8262 0.0
C1258 C 0.14839 0.32009 0.90975 0.0
C1259 C 0.14677 0.30191 0.94203 0.0
C1260 C 0.14804 0.28249 0.91599 0.0
C1261 C 0.14803 0.28132 0.85824 0.0
C1262 C 0.10204 0.3058 0.03512 0.0
C1263 C 0.10773 0.3239 0.06382 0.0
C1264 C 0.11658 0.29564 1.00206 0.0
C1265 C 0.13677 0.30373 0.99671 0.0
C1266 C 0.14344 0.3191 0.03373 0.0
C1267 C 0.12898 0.329 0.06771 0.0
H1268 H 0.4136 0.32191 0.69387 0.0
H1269 H 0.43163 0.37173 0.80347 0.0
H1270 H 0.41657 0.34496 0.61523 0.0
H1271 H 0.43392 0.39539 0.72444 0.0
H1272 H 0.43291 0.37142 0.47834 0.0
H1273 H 0.40971 0.37504 0.55776 0.0
H1274 H 0.46198 0.39385 0.65871 0.0
H1275 H 0.48463 0.39104 0.5792 0.0
C1276 C 0.41794 0.33792 0.70108 0.0
C1277 C 0.4232 0.34484 0.75426 0.0
C1278 C 0.41908 0.3514 0.65616 0.0
C1279 C 0.42564 0.37211 0.66345 0.0
C1280 C 0.42896 0.37952 0.71749 0.0
C1281 C 0.42781 0.36596 0.76256 0.0
C1282 C 0.43906 0.37746 0.51693 0.0
C1283 C 0.46056 0.37986 0.5241 0.0
C1284 C 0.42583 0.37965 0.56226 0.0
C1285 C 0.43433 0.38327 0.61509 0.0
C1286 C 0.45498 0.39037 0.61892 0.0
C1287 C 0.46812 0.3886 0.57331 0.0
H1288 H 0.41823 0.64592 0.56348 0.0
H1289 H 0.45312 0.7018 0.52772 0.0
H1290 H 0.39099 0.65712 0.50112 0.0
H1291 H 0.42597 0.71265 0.46366 0.0
H1292 H 0.38707 0.72821 0.3373 0.0
H1293 H 0.38829 0.72064 0.43581 0.0
H1294 H 0.40037 0.65607 0.39917 0.0
H1295 H 0.39909 0.66367 0.30047 0.0
C1296 C 0.41986 0.66095 0.54394 0.0
C1297 C 0.43821 0.67276 0.54941 0.0
C1298 C 0.40409 0.66735 0.50834 0.0
C1299 C 0.40646 0.68556 0.47733 0.0
C1300 C 0.42366 0.69854 0.48744 0.0
C1301 C 0.43947 0.69214 0.52315 0.0
C1302 C 0.3888 0.71218 0.35008 0.0
C1303 C 0.39383 0.69655 0.31157 0.0
C1304 C 0.38946 0.7079 0.40664 0.0
C1305 C 0.39511 0.688 0.42479 0.0
C1306 C 0.39617 0.67165 0.38624 0.0
C1307 C 0.39567 0.67597 0.32971 0.0
H1308 H 0.13037 0.65789 0.28845 0.0
H1309 H 0.15116 0.71104 0.19461 0.0
H1310 H 0.13164 0.63672 0.20477 0.0
H1311 H 0.15189 0.69033 0.11134 0.0
H1312 H 0.07694 0.64662 0.07472 0.0
H1313 H 0.10084 0.64757 0.15215 0.0
H1314 H 0.15121 0.66348 0.04102 0.0
H1315 H 0.1268 0.66324 0.96336 0.0
C1316 C 0.13624 0.66473 0.25048 0.0
C1317 C 0.13941 0.68625 0.24671 0.0
C1318 C 0.13708 0.65263 0.20269 0.0
C1319 C 0.14039 0.66229 0.15115 0.0
C1320 C 0.14857 0.68255 0.1502 0.0
C1321 C 0.14803 0.69456 0.19812 0.0
C1322 C 0.0931 0.65028 0.06685 0.0
C1323 C 0.09989 0.65553 0.01352 0.0
C1324 C 0.10702 0.65023 0.11097 0.0
C1325 C 0.12805 0.65553 0.10271 0.0
C1326 C 0.13514 0.65931 0.0486 0.0
C1327 C 0.12115 0.65935 1.00436 0.0
loop_
_geom_bond_atom_site_label_1
_geom_bond_atom_site_label_2
_geom_bond_distance
_geom_bond_site_symmetry_2
_ccdc_geom_bond_type
Co0 N4 2.148 . S
Co0 N10 2.128 . S
Co0 N20 2.194 . S
Co0 O25 2.351 . S
Co0 O26 2.155 . S
Co0 O27 2.096 . S
C1 N4 1.301 . S
C1 N5 1.328 . S
C1 H6 0.930 . S
C2 C3 1.333 . S
C2 N4 1.317 . S
C2 H7 0.930 . S
C3 C2 1.333 . S
C3 N5 1.350 . S
C3 H29 0.931 . S
N4 Co0 2.148 . S
N4 C1 1.301 . S
N4 C2 1.317 . S
N5 C1 1.328 . S
N5 C3 1.350 . S
H6 C1 0.930 . S
H7 C2 0.930 . S
C8 O9 1.224 . S
C8 O27 1.247 . S
O9 C8 1.224 . S
N10 Co0 2.128 . S
N10 C11 1.355 . S
N10 C13 1.311 . S
C11 N10 1.355 . S
C11 C12 1.363 . S
C11 H23 0.929 . S
C12 C11 1.363 . S
C12 N14 1.375 . S
C12 H30 0.931 . S
C13 N10 1.311 . S
C13 N14 1.347 . S
C13 H24 0.929 . S
N14 C12 1.375 . S
N14 C13 1.347 . S
C15 C18 1.365 . S
C15 N20 1.328 . S
C15 H21 0.929 . S
C16 C17 1.362 . S
C16 C19 1.378 . S
C16 H31 0.929 . S
C17 C16 1.362 . S
C17 C18 1.366 . S
C18 C15 1.365 . S
C18 C17 1.366 . S
C18 H32 0.930 . S
C19 C16 1.378 . S
C19 N20 1.315 . S
C19 H22 0.930 . S
N20 Co0 2.194 . S
N20 C15 1.328 . S
N20 C19 1.315 . S
H21 C15 0.929 . S
H22 C19 0.930 . S
H23 C11 0.929 . S
H24 C13 0.929 . S
O25 Co0 2.351 . S
O25 C28 1.244 . S
O26 Co0 2.155 . S
O26 C28 1.240 . S
O27 Co0 2.096 . S
O27 C8 1.247 . S
C28 O25 1.244 . S
C28 O26 1.240 . S
H29 C3 0.931 . S
H30 C12 0.931 . S
H31 C16 0.929 . S
H32 C18 0.930 . S
Co33 N37 2.148 . S
Co33 N43 2.128 . S
Co33 N53 2.194 . S
Co33 O58 2.351 . S
Co33 O59 2.155 . S
Co33 O60 2.096 . S
C34 N37 1.301 . S
C34 N38 1.328 . S
C34 H39 0.930 . S
C35 C36 1.333 . S
C35 N37 1.317 . S
C35 H40 0.930 . S
C36 C35 1.333 . S
C36 N38 1.350 . S
C36 H62 0.931 . S
N37 Co33 2.148 . S
N37 C34 1.301 . S
N37 C35 1.317 . S
N38 C34 1.328 . S
N38 C36 1.350 . S
H39 C34 0.930 . S
H40 C35 0.930 . S
C41 O42 1.224 . S
C41 O60 1.247 . S
O42 C41 1.224 . S
N43 Co33 2.128 . S
N43 C44 1.355 . S
N43 C46 1.311 . S
C44 N43 1.355 . S
C44 C45 1.363 . S
C44 H56 0.929 . S
C45 C44 1.363 . S
C45 N47 1.375 . S
C45 H63 0.931 . S
C46 N43 1.311 . S
C46 N47 1.347 . S
C46 H57 0.929 . S
N47 C45 1.375 . S
N47 C46 1.347 . S
C48 C51 1.365 . S
C48 N53 1.328 . S
C48 H54 0.929 . S
C49 C50 1.362 . S
C49 C52 1.378 . S
C49 H64 0.929 . S
C50 C49 1.362 . S
C50 C51 1.366 . S
C51 C48 1.365 . S
C51 C50 1.366 . S
C51 H65 0.930 . S
C52 C49 1.378 . S
C52 N53 1.315 . S
C52 H55 0.930 . S
N53 Co33 2.194 . S
N53 C48 1.328 . S
N53 C52 1.315 . S
H54 C48 0.929 . S
H55 C52 0.930 . S
H56 C44 0.929 . S
H57 C46 0.929 . S
O58 Co33 2.351 . S
O58 C61 1.244 . S
O59 Co33 2.155 . S
O59 C61 1.240 . S
O60 Co33 2.096 . S
O60 C41 1.247 . S
C61 O58 1.244 . S
C61 O59 1.240 . S
H62 C36 0.931 . S
H63 C45 0.931 . S
H64 C49 0.929 . S
H65 C51 0.930 . S
Co66 N70 2.148 1_455 S
Co66 N76 2.128 . S
Co66 N86 2.194 . S
Co66 O91 2.351 . S
Co66 O92 2.155 . S
Co66 O93 2.096 1_455 S
C67 N70 1.301 . S
C67 N71 1.328 1_556 S
C67 H72 0.930 1_556 S
C68 C69 1.333 . S
C68 N70 1.317 . S
C68 H73 0.930 . S
C69 C68 1.333 . S
C69 N71 1.350 1_556 S
C69 H95 0.931 . S
N70 Co66 2.148 1_655 S
N70 C67 1.301 . S
N70 C68 1.317 . S
N71 C67 1.328 1_554 S
N71 C69 1.350 1_554 S
H72 C67 0.930 1_554 S
H73 C68 0.930 . S
C74 O75 1.224 . S
C74 O93 1.247 . S
O75 C74 1.224 . S
N76 Co66 2.128 . S
N76 C77 1.355 . S
N76 C79 1.311 . S
C77 N76 1.355 . S
C77 C78 1.363 . S
C77 H89 0.929 . S
C78 C77 1.363 . S
C78 N80 1.375 . S
C78 H96 0.931 . S
C79 N76 1.311 . S
C79 N80 1.347 . S
C79 H90 0.929 . S
N80 C78 1.375 . S
N80 C79 1.347 . S
C81 C84 1.365 . S
C81 N86 1.328 . S
C81 H87 0.929 . S
C82 C83 1.362 1_655 S
C82 C85 1.378 . S
C82 H97 0.929 . S
C83 C82 1.362 1_455 S
C83 C84 1.366 . S
C84 C81 1.365 . S
C84 C83 1.366 . S
C84 H98 0.930 . S
C85 C82 1.378 . S
C85 N86 1.315 1_655 S
C85 H88 0.930 . S
N86 Co66 2.194 . S
N86 C81 1.328 . S
N86 C85 1.315 1_455 S
H87 C81 0.929 . S
H88 C85 0.930 . S
H89 C77 0.929 . S
H90 C79 0.929 . S
O91 Co66 2.351 . S
O91 C94 1.244 . S
O92 Co66 2.155 . S
O92 C94 1.240 . S
O93 Co66 2.096 1_655 S
O93 C74 1.247 . S
C94 O91 1.244 . S
C94 O92 1.240 . S
H95 C69 0.931 . S
H96 C78 0.931 . S
H97 C82 0.929 . S
H98 C84 0.930 . S
Co99 N103 2.148 . S
Co99 N109 2.128 . S
Co99 N119 2.194 . S
Co99 O124 2.351 . S
Co99 O125 2.155 . S
Co99 O126 2.096 . S
C100 N103 1.301 . S
C100 N104 1.328 . S
C100 H105 0.930 . S
C101 C102 1.333 . S
C101 N103 1.317 . S
C101 H106 0.930 . S
C102 C101 1.333 . S
C102 N104 1.350 . S
C102 H128 0.931 . S
N103 Co99 2.148 . S
N103 C100 1.301 . S
N103 C101 1.317 . S
N104 C100 1.328 . S
N104 C102 1.350 . S
H105 C100 0.930 . S
H106 C101 0.930 . S
C107 O108 1.224 . S
C107 O126 1.247 . S
O108 C107 1.224 . S
N109 Co99 2.128 . S
N109 C110 1.355 . S
N109 C112 1.311 . S
C110 N109 1.355 . S
C110 C111 1.363 . S
C110 H122 0.929 . S
C111 C110 1.363 . S
C111 N113 1.375 . S
C111 H129 0.931 . S
C112 N109 1.311 . S
C112 N113 1.347 . S
C112 H123 0.929 . S
N113 C111 1.375 . S
N113 C112 1.347 . S
C114 C117 1.365 . S
C114 N119 1.328 . S
C114 H120 0.929 . S
C115 C116 1.362 . S
C115 C118 1.378 . S
C115 H130 0.929 . S
C116 C115 1.362 . S
C116 C117 1.366 . S
C117 C114 1.365 . S
C117 C116 1.366 . S
C117 H131 0.930 . S
C118 C115 1.378 . S
C118 N119 1.315 . S
C118 H121 0.930 . S
N119 Co99 2.194 . S
N119 C114 1.328 . S
N119 C118 1.315 . S
H120 C114 0.929 . S
H121 C118 0.930 . S
H122 C110 0.929 . S
H123 C112 0.929 . S
O124 Co99 2.351 . S
O124 C127 1.244 . S
O125 Co99 2.155 . S
O125 C127 1.240 . S
O126 Co99 2.096 . S
O126 C107 1.247 . S
C127 O124 1.244 . S
C127 O125 1.240 . S
H128 C102 0.931 . S
H129 C111 0.931 . S
H130 C115 0.929 . S
H131 C117 0.930 . S
Co132 N136 2.148 . S
Co132 N142 2.128 . S
Co132 N152 2.194 . S
Co132 O157 2.351 . S
Co132 O158 2.155 . S
Co132 O159 2.096 . S
C133 N136 1.301 . S
C133 N137 1.328 . S
C133 H138 0.930 . S
C134 C135 1.333 . S
C134 N136 1.317 . S
C134 H139 0.930 . S
C135 C134 1.333 . S
C135 N137 1.350 . S
C135 H161 0.931 . S
N136 Co132 2.148 . S
N136 C133 1.301 . S
N136 C134 1.317 . S
N137 C133 1.328 . S
N137 C135 1.350 . S
H138 C133 0.930 . S
H139 C134 0.930 . S
C140 O141 1.224 . S
C140 O159 1.247 . S
O141 C140 1.224 . S
N142 Co132 2.128 . S
N142 C143 1.355 . S
N142 C145 1.311 . S
C143 N142 1.355 . S
C143 C144 1.363 . S
C143 H155 0.929 . S
C144 C143 1.363 . S
C144 N146 1.375 . S
C144 H162 0.931 . S
C145 N142 1.311 . S
C145 N146 1.347 . S
C145 H156 0.929 . S
N146 C144 1.375 . S
N146 C145 1.347 . S
C147 C150 1.365 . S
C147 N152 1.328 . S
C147 H153 0.929 . S
C148 C149 1.362 . S
C148 C151 1.378 . S
C148 H163 0.929 . S
C149 C148 1.362 . S
C149 C150 1.366 . S
C150 C147 1.365 . S
C150 C149 1.366 . S
C150 H164 0.930 . S
C151 C148 1.378 . S
C151 N152 1.315 . S
C151 H154 0.930 . S
N152 Co132 2.194 . S
N152 C147 1.328 . S
N152 C151 1.315 . S
H153 C147 0.929 . S
H154 C151 0.930 . S
H155 C143 0.929 . S
H156 C145 0.929 . S
O157 Co132 2.351 . S
O157 C160 1.244 . S
O158 Co132 2.155 . S
O158 C160 1.240 . S
O159 Co132 2.096 . S
O159 C140 1.247 . S
C160 O157 1.244 . S
C160 O158 1.240 . S
H161 C135 0.931 . S
H162 C144 0.931 . S
H163 C148 0.929 . S
H164 C150 0.930 . S
Co165 N169 2.148 . S
Co165 N175 2.128 . S
Co165 N185 2.194 . S
Co165 O190 2.351 . S
Co165 O191 2.155 . S
Co165 O192 2.096 . S
C166 N169 1.301 . S
C166 N170 1.328 . S
C166 H171 0.930 . S
C167 C168 1.333 . S
C167 N169 1.317 . S
C167 H172 0.930 . S
C168 C167 1.333 . S
C168 N170 1.350 . S
C168 H194 0.931 . S
N169 Co165 2.148 . S
N169 C166 1.301 . S
N169 C167 1.317 . S
N170 C166 1.328 . S
N170 C168 1.350 . S
H171 C166 0.930 . S
H172 C167 0.930 . S
C173 O174 1.224 . S
C173 O192 1.247 . S
O174 C173 1.224 . S
N175 Co165 2.128 . S
N175 C176 1.355 . S
N175 C178 1.311 . S
C176 N175 1.355 . S
C176 C177 1.363 . S
C176 H188 0.929 . S
C177 C176 1.363 . S
C177 N179 1.375 . S
C177 H195 0.931 . S
C178 N175 1.311 . S
C178 N179 1.347 . S
C178 H189 0.929 . S
N179 C177 1.375 . S
N179 C178 1.347 . S
C180 C183 1.365 . S
C180 N185 1.328 . S
C180 H186 0.929 . S
C181 C182 1.362 . S
C181 C184 1.378 . S
C181 H196 0.929 . S
C182 C181 1.362 . S
C182 C183 1.366 . S
C183 C180 1.365 . S
C183 C182 1.366 . S
C183 H197 0.930 . S
C184 C181 1.378 . S
C184 N185 1.315 . S
C184 H187 0.930 . S
N185 Co165 2.194 . S
N185 C180 1.328 . S
N185 C184 1.315 . S
H186 C180 0.929 . S
H187 C184 0.930 . S
H188 C176 0.929 . S
H189 C178 0.929 . S
O190 Co165 2.351 . S
O190 C193 1.244 . S
O191 Co165 2.155 . S
O191 C193 1.240 . S
O192 Co165 2.096 . S
O192 C173 1.247 . S
C193 O190 1.244 . S
C193 O191 1.240 . S
H194 C168 0.931 . S
H195 C177 0.931 . S
H196 C181 0.929 . S
H197 C183 0.930 . S
Co198 N202 2.148 1_455 S
Co198 N208 2.128 . S
Co198 N218 2.194 . S
Co198 O223 2.351 . S
Co198 O224 2.155 . S
Co198 O225 2.096 1_455 S
C199 N202 1.301 . S
C199 N203 1.328 1_554 S
C199 H204 0.930 1_554 S
C200 C201 1.333 . S
C200 N202 1.317 . S
C200 H205 0.930 . S
C201 C200 1.333 . S
C201 N203 1.350 1_554 S
C201 H227 0.931 . S
N202 Co198 2.148 1_655 S
N202 C199 1.301 . S
N202 C200 1.317 . S
N203 C199 1.328 1_556 S
N203 C201 1.350 1_556 S
H204 C199 0.930 1_556 S
H205 C200 0.930 . S
C206 O207 1.224 . S
C206 O225 1.247 . S
O207 C206 1.224 . S
N208 Co198 2.128 . S
N208 C209 1.355 . S
N208 C211 1.311 . S
C209 N208 1.355 . S
C209 C210 1.363 . S
C209 H221 0.929 . S
C210 C209 1.363 . S
C210 N212 1.375 . S
C210 H228 0.931 . S
C211 N208 1.311 . S
C211 N212 1.347 . S
C211 H222 0.929 . S
N212 C210 1.375 . S
N212 C211 1.347 . S
C213 C216 1.365 . S
C213 N218 1.328 . S
C213 H219 0.929 . S
C214 C215 1.362 1_655 S
C214 C217 1.378 . S
C214 H229 0.929 . S
C215 C214 1.362 1_455 S
C215 C216 1.366 . S
C216 C213 1.365 . S
C216 C215 1.366 . S
C216 H230 0.930 . S
C217 C214 1.378 . S
C217 N218 1.315 1_655 S
C217 H220 0.930 . S
N218 Co198 2.194 . S
N218 C213 1.328 . S
N218 C217 1.315 1_455 S
H219 C213 0.929 . S
H220 C217 0.930 . S
H221 C209 0.929 . S
H222 C211 0.929 . S
O223 Co198 2.351 . S
O223 C226 1.244 . S
O224 Co198 2.155 . S
O224 C226 1.240 . S
O225 Co198 2.096 1_655 S
O225 C206 1.247 . S
C226 O223 1.244 . S
C226 O224 1.240 . S
H227 C201 0.931 . S
H228 C210 0.931 . S
H229 C214 0.929 . S
H230 C216 0.930 . S
Co231 N235 2.148 . S
Co231 N241 2.128 . S
Co231 N251 2.194 . S
Co231 O256 2.351 . S
Co231 O257 2.155 . S
Co231 O258 2.096 . S
C232 N235 1.301 . S
C232 N236 1.328 . S
C232 H237 0.930 . S
C233 C234 1.333 . S
C233 N235 1.317 . S
C233 H238 0.930 . S
C234 C233 1.333 . S
C234 N236 1.350 . S
C234 H260 0.931 . S
N235 Co231 2.148 . S
N235 C232 1.301 . S
N235 C233 1.317 . S
N236 C232 1.328 . S
N236 C234 1.350 . S
H237 C232 0.930 . S
H238 C233 0.930 . S
C239 O240 1.224 . S
C239 O258 1.247 . S
O240 C239 1.224 . S
N241 Co231 2.128 . S
N241 C242 1.355 . S
N241 C244 1.311 . S
C242 N241 1.355 . S
C242 C243 1.363 . S
C242 H254 0.929 . S
C243 C242 1.363 . S
C243 N245 1.375 . S
C243 H261 0.931 . S
C244 N241 1.311 . S
C244 N245 1.347 . S
C244 H255 0.929 . S
N245 C243 1.375 . S
N245 C244 1.347 . S
C246 C249 1.365 . S
C246 N251 1.328 . S
C246 H252 0.929 . S
C247 C248 1.362 . S
C247 C250 1.378 . S
C247 H262 0.929 . S
C248 C247 1.362 . S
C248 C249 1.366 . S
C249 C246 1.365 . S
C249 C248 1.366 . S
C249 H263 0.930 . S
C250 C247 1.378 . S
C250 N251 1.315 . S
C250 H253 0.930 . S
N251 Co231 2.194 . S
N251 C246 1.328 . S
N251 C250 1.315 . S
H252 C246 0.929 . S
H253 C250 0.930 . S
H254 C242 0.929 . S
H255 C244 0.929 . S
O256 Co231 2.351 . S
O256 C259 1.244 . S
O257 Co231 2.155 . S
O257 C259 1.240 . S
O258 Co231 2.096 . S
O258 C239 1.247 . S
C259 O256 1.244 . S
C259 O257 1.240 . S
H260 C234 0.931 . S
H261 C243 0.931 . S
H262 C247 0.929 . S
H263 C249 0.930 . S
Co264 N268 2.148 . S
Co264 N274 2.128 . S
Co264 N284 2.194 . S
Co264 O289 2.351 . S
Co264 O290 2.155 . S
Co264 O291 2.096 . S
C265 N268 1.301 . S
C265 N269 1.328 . S
C265 H270 0.930 . S
C266 C267 1.333 . S
C266 N268 1.317 . S
C266 H271 0.930 . S
C267 C266 1.333 . S
C267 N269 1.350 . S
C267 H293 0.931 . S
N268 Co264 2.148 . S
N268 C265 1.301 . S
N268 C266 1.317 . S
N269 C265 1.328 . S
N269 C267 1.350 . S
H270 C265 0.930 . S
H271 C266 0.930 . S
C272 O273 1.224 . S
C272 O291 1.247 . S
O273 C272 1.224 . S
N274 Co264 2.128 . S
N274 C275 1.355 . S
N274 C277 1.311 . S
C275 N274 1.355 . S
C275 C276 1.363 . S
C275 H287 0.929 . S
C276 C275 1.363 . S
C276 N278 1.375 . S
C276 H294 0.931 . S
C277 N274 1.311 . S
C277 N278 1.347 . S
C277 H288 0.929 . S
N278 C276 1.375 . S
N278 C277 1.347 . S
C279 C282 1.365 . S
C279 N284 1.328 . S
C279 H285 0.929 . S
C280 C281 1.362 . S
C280 C283 1.378 . S
C280 H295 0.929 . S
C281 C280 1.362 . S
C281 C282 1.366 . S
C282 C279 1.365 . S
C282 C281 1.366 . S
C282 H296 0.930 . S
C283 C280 1.378 . S
C283 N284 1.315 . S
C283 H286 0.930 . S
N284 Co264 2.194 . S
N284 C279 1.328 . S
N284 C283 1.315 . S
H285 C279 0.929 . S
H286 C283 0.930 . S
H287 C275 0.929 . S
H288 C277 0.929 . S
O289 Co264 2.351 . S
O289 C292 1.244 . S
O290 Co264 2.155 . S
O290 C292 1.240 . S
O291 Co264 2.096 . S
O291 C272 1.247 . S
C292 O289 1.244 . S
C292 O290 1.240 . S
H293 C267 0.931 . S
H294 C276 0.931 . S
H295 C280 0.929 . S
H296 C282 0.930 . S
Co297 N301 2.148 . S
Co297 N307 2.128 . S
Co297 N317 2.194 . S
Co297 O322 2.351 . S
Co297 O323 2.155 . S
Co297 O324 2.096 . S
C298 N301 1.301 . S
C298 N302 1.328 . S
C298 H303 0.930 . S
C299 C300 1.333 . S
C299 N301 1.317 . S
C299 H304 0.930 . S
C300 C299 1.333 . S
C300 N302 1.350 . S
C300 H326 0.931 . S
N301 Co297 2.148 . S
N301 C298 1.301 . S
N301 C299 1.317 . S
N302 C298 1.328 . S
N302 C300 1.350 . S
H303 C298 0.930 . S
H304 C299 0.930 . S
C305 O306 1.224 . S
C305 O324 1.247 . S
O306 C305 1.224 . S
N307 Co297 2.128 . S
N307 C308 1.355 . S
N307 C310 1.311 . S
C308 N307 1.355 . S
C308 C309 1.363 . S
C308 H320 0.929 . S
C309 C308 1.363 . S
C309 N311 1.375 . S
C309 H327 0.931 . S
C310 N307 1.311 . S
C310 N311 1.347 . S
C310 H321 0.929 . S
N311 C309 1.375 . S
N311 C310 1.347 . S
C312 C315 1.365 . S
C312 N317 1.328 . S
C312 H318 0.929 . S
C313 C314 1.362 . S
C313 C316 1.378 . S
C313 H328 0.929 . S
C314 C313 1.362 . S
C314 C315 1.366 . S
C315 C312 1.365 . S
C315 C314 1.366 . S
C315 H329 0.930 . S
C316 C313 1.378 . S
C316 N317 1.315 . S
C316 H319 0.930 . S
N317 Co297 2.194 . S
N317 C312 1.328 . S
N317 C316 1.315 . S
H318 C312 0.929 . S
H319 C316 0.930 . S
H320 C308 0.929 . S
H321 C310 0.929 . S
O322 Co297 2.351 . S
O322 C325 1.244 . S
O323 Co297 2.155 . S
O323 C325 1.240 . S
O324 Co297 2.096 . S
O324 C305 1.247 . S
C325 O322 1.244 . S
C325 O323 1.240 . S
H326 C300 0.931 . S
H327 C309 0.931 . S
H328 C313 0.929 . S
H329 C315 0.930 . S
Co330 N334 2.148 . S
Co330 N340 2.128 . S
Co330 N350 2.194 . S
Co330 O355 2.351 . S
Co330 O356 2.155 . S
Co330 O357 2.096 . S
C331 N334 1.301 . S
C331 N335 1.328 . S
C331 H336 0.930 . S
C332 C333 1.333 . S
C332 N334 1.317 . S
C332 H337 0.930 . S
C333 C332 1.333 . S
C333 N335 1.350 . S
C333 H359 0.931 . S
N334 Co330 2.148 . S
N334 C331 1.301 . S
N334 C332 1.317 . S
N335 C331 1.328 . S
N335 C333 1.350 . S
H336 C331 0.930 . S
H337 C332 0.930 . S
C338 O339 1.224 . S
C338 O357 1.247 . S
O339 C338 1.224 . S
N340 Co330 2.128 . S
N340 C341 1.355 . S
N340 C343 1.311 . S
C341 N340 1.355 . S
C341 C342 1.363 . S
C341 H353 0.929 . S
C342 C341 1.363 . S
C342 N344 1.375 . S
C342 H360 0.931 . S
C343 N340 1.311 . S
C343 N344 1.347 . S
C343 H354 0.929 . S
N344 C342 1.375 . S
N344 C343 1.347 . S
C345 C348 1.365 . S
C345 N350 1.328 . S
C345 H351 0.929 . S
C346 C347 1.362 . S
C346 C349 1.378 . S
C346 H361 0.929 . S
C347 C346 1.362 . S
C347 C348 1.366 . S
C348 C345 1.365 . S
C348 C347 1.366 . S
C348 H362 0.930 . S
C349 C346 1.378 . S
C349 N350 1.315 . S
C349 H352 0.930 . S
N350 Co330 2.194 . S
N350 C345 1.328 . S
N350 C349 1.315 . S
H351 C345 0.929 . S
H352 C349 0.930 . S
H353 C341 0.929 . S
H354 C343 0.929 . S
O355 Co330 2.351 . S
O355 C358 1.244 . S
O356 Co330 2.155 . S
O356 C358 1.240 . S
O357 Co330 2.096 . S
O357 C338 1.247 . S
C358 O355 1.244 . S
C358 O356 1.240 . S
H359 C333 0.931 . S
H360 C342 0.931 . S
H361 C346 0.929 . S
H362 C348 0.930 . S
Co363 N367 2.148 . S
Co363 N373 2.128 . S
Co363 N383 2.194 . S
Co363 O388 2.351 . S
Co363 O389 2.155 . S
Co363 O390 2.096 . S
C364 N367 1.301 . S
C364 N368 1.328 . S
C364 H369 0.930 . S
C365 C366 1.333 . S
C365 N367 1.317 . S
C365 H370 0.930 . S
C366 C365 1.333 . S
C366 N368 1.350 . S
C366 H392 0.931 . S
N367 Co363 2.148 . S
N367 C364 1.301 . S
N367 C365 1.317 . S
N368 C364 1.328 . S
N368 C366 1.350 . S
H369 C364 0.930 . S
H370 C365 0.930 . S
C371 O372 1.224 . S
C371 O390 1.247 . S
O372 C371 1.224 . S
N373 Co363 2.128 . S
N373 C374 1.355 . S
N373 C376 1.311 . S
C374 N373 1.355 . S
C374 C375 1.363 . S
C374 H386 0.929 . S
C375 C374 1.363 . S
C375 N377 1.375 . S
C375 H393 0.931 . S
C376 N373 1.311 . S
C376 N377 1.347 . S
C376 H387 0.929 . S
N377 C375 1.375 . S
N377 C376 1.347 . S
C378 C381 1.365 . S
C378 N383 1.328 . S
C378 H384 0.929 . S
C379 C380 1.362 . S
C379 C382 1.378 . S
C379 H394 0.929 . S
C380 C379 1.362 . S
C380 C381 1.366 . S
C381 C378 1.365 . S
C381 C380 1.366 . S
C381 H395 0.930 . S
C382 C379 1.378 . S
C382 N383 1.315 . S
C382 H385 0.930 . S
N383 Co363 2.194 . S
N383 C378 1.328 . S
N383 C382 1.315 . S
H384 C378 0.929 . S
H385 C382 0.930 . S
H386 C374 0.929 . S
H387 C376 0.929 . S
O388 Co363 2.351 . S
O388 C391 1.244 . S
O389 Co363 2.155 . S
O389 C391 1.240 . S
O390 Co363 2.096 . S
O390 C371 1.247 . S
C391 O388 1.244 . S
C391 O389 1.240 . S
H392 C366 0.931 . S
H393 C375 0.931 . S
H394 C379 0.929 . S
H395 C381 0.930 . S
Co396 N400 2.148 . S
Co396 N406 2.128 1_455 S
Co396 N416 2.194 . S
Co396 O421 2.351 1_455 S
Co396 O422 2.155 1_455 S
Co396 O423 2.096 . S
C397 N400 1.301 . S
C397 N401 1.328 1_556 S
C397 H402 0.930 1_556 S
C398 C399 1.333 . S
C398 N400 1.317 . S
C398 H403 0.930 . S
C399 C398 1.333 . S
C399 N401 1.350 1_556 S
C399 H425 0.931 . S
N400 Co396 2.148 . S
N400 C397 1.301 . S
N400 C398 1.317 . S
N401 C397 1.328 1_554 S
N401 C399 1.350 1_554 S
H402 C397 0.930 1_554 S
H403 C398 0.930 . S
C404 O405 1.224 . S
C404 O423 1.247 . S
O405 C404 1.224 . S
N406 Co396 2.128 1_655 S
N406 C407 1.355 . S
N406 C409 1.311 . S
C407 N406 1.355 . S
C407 C408 1.363 . S
C407 H419 0.929 . S
C408 C407 1.363 . S
C408 N410 1.375 . S
C408 H426 0.931 . S
C409 N406 1.311 . S
C409 N410 1.347 . S
C409 H420 0.929 . S
N410 C408 1.375 . S
N410 C409 1.347 . S
C411 C414 1.365 . S
C411 N416 1.328 . S
C411 H417 0.935 . S
C412 C413 1.362 . S
C412 C415 1.378 . S
C412 H427 0.929 . S
C413 C412 1.362 . S
C413 C414 1.366 . S
C414 C411 1.365 . S
C414 C413 1.366 . S
C414 H428 0.913 1_455 S
C415 C412 1.378 . S
C415 N416 1.315 . S
C415 H418 0.930 . S
N416 Co396 2.194 . S
N416 C411 1.328 . S
N416 C415 1.315 . S
H417 C411 0.935 . S
H418 C415 0.930 . S
H419 C407 0.929 . S
H420 C409 0.929 . S
O421 Co396 2.351 1_655 S
O421 C424 1.244 . S
O422 Co396 2.155 1_655 S
O422 C424 1.240 . S
O423 Co396 2.096 . S
O423 C404 1.247 . S
C424 O421 1.244 . S
C424 O422 1.240 . S
H425 C399 0.931 . S
H426 C408 0.931 . S
H427 C412 0.929 . S
H428 C414 0.913 1_655 S
Co429 N433 2.148 . S
Co429 N439 2.128 . S
Co429 N449 2.194 . S
Co429 O454 2.351 . S
Co429 O455 2.155 . S
Co429 O456 2.096 . S
C430 N433 1.301 . S
C430 N434 1.328 . S
C430 H435 0.930 . S
C431 C432 1.333 . S
C431 N433 1.317 . S
C431 H436 0.930 . S
C432 C431 1.333 . S
C432 N434 1.350 . S
C432 H458 0.931 . S
N433 Co429 2.148 . S
N433 C430 1.301 . S
N433 C431 1.317 . S
N434 C430 1.328 . S
N434 C432 1.350 . S
H435 C430 0.930 . S
H436 C431 0.930 . S
C437 O438 1.224 . S
C437 O456 1.247 . S
O438 C437 1.224 . S
N439 Co429 2.128 . S
N439 C440 1.355 . S
N439 C442 1.311 . S
C440 N439 1.355 . S
C440 C441 1.363 . S
C440 H452 0.929 . S
C441 C440 1.363 . S
C441 N443 1.375 . S
C441 H459 0.931 . S
C442 N439 1.311 . S
C442 N443 1.347 . S
C442 H453 0.929 . S
N443 C441 1.375 . S
N443 C442 1.347 . S
C444 C447 1.365 . S
C444 N449 1.328 . S
C444 H450 0.929 . S
C445 C446 1.362 . S
C445 C448 1.378 . S
C445 H460 0.929 . S
C446 C445 1.362 . S
C446 C447 1.366 . S
C447 C444 1.365 . S
C447 C446 1.366 . S
C447 H461 0.930 . S
C448 C445 1.378 . S
C448 N449 1.315 . S
C448 H451 0.930 . S
N449 Co429 2.194 . S
N449 C444 1.328 . S
N449 C448 1.315 . S
H450 C444 0.929 . S
H451 C448 0.930 . S
H452 C440 0.929 . S
H453 C442 0.929 . S
O454 Co429 2.351 . S
O454 C457 1.244 . S
O455 Co429 2.155 . S
O455 C457 1.240 . S
O456 Co429 2.096 . S
O456 C437 1.247 . S
C457 O454 1.244 . S
C457 O455 1.240 . S
H458 C432 0.931 . S
H459 C441 0.931 . S
H460 C445 0.929 . S
H461 C447 0.930 . S
Co462 N466 2.148 . S
Co462 N472 2.128 1_455 S
Co462 N482 2.194 . S
Co462 O487 2.351 1_455 S
Co462 O488 2.155 1_455 S
Co462 O489 2.096 . S
C463 N466 1.301 . S
C463 N467 1.328 1_554 S
C463 H468 0.930 1_554 S
C464 C465 1.333 . S
C464 N466 1.317 . S
C464 H469 0.930 . S
C465 C464 1.333 . S
C465 N467 1.350 1_554 S
C465 H491 0.931 . S
N466 Co462 2.148 . S
N466 C463 1.301 . S
N466 C464 1.317 . S
N467 C463 1.328 1_556 S
N467 C465 1.350 1_556 S
H468 C463 0.930 1_556 S
H469 C464 0.930 . S
C470 O471 1.224 . S
C470 O489 1.247 . S
O471 C470 1.224 . S
N472 Co462 2.128 1_655 S
N472 C473 1.355 . S
N472 C475 1.311 . S
C473 N472 1.355 . S
C473 C474 1.363 . S
C473 H485 0.929 . S
C474 C473 1.363 . S
C474 N476 1.375 . S
C474 H492 0.931 . S
C475 N472 1.311 . S
C475 N476 1.347 . S
C475 H486 0.929 . S
N476 C474 1.375 . S
N476 C475 1.347 . S
C477 C480 1.365 . S
C477 N482 1.328 . S
C477 H483 0.935 . S
C478 C479 1.362 . S
C478 C481 1.378 . S
C478 H493 0.929 . S
C479 C478 1.362 . S
C479 C480 1.366 . S
C480 C477 1.365 . S
C480 C479 1.366 . S
C480 H494 0.913 1_455 S
C481 C478 1.378 . S
C481 N482 1.315 . S
C481 H484 0.930 . S
N482 Co462 2.194 . S
N482 C477 1.328 . S
N482 C481 1.315 . S
H483 C477 0.935 . S
H484 C481 0.930 . S
H485 C473 0.929 . S
H486 C475 0.929 . S
O487 Co462 2.351 1_655 S
O487 C490 1.244 . S
O488 Co462 2.155 1_655 S
O488 C490 1.240 . S
O489 Co462 2.096 . S
O489 C470 1.247 . S
C490 O487 1.244 . S
C490 O488 1.240 . S
H491 C465 0.931 . S
H492 C474 0.931 . S
H493 C478 0.929 . S
H494 C480 0.913 1_655 S
Co495 N499 2.148 . S
Co495 N505 2.128 . S
Co495 N515 2.194 . S
Co495 O520 2.351 . S
Co495 O521 2.155 . S
Co495 O522 2.096 . S
C496 N499 1.301 . S
C496 N500 1.328 . S
C496 H501 0.930 . S
C497 C498 1.333 . S
C497 N499 1.317 . S
C497 H502 0.930 . S
C498 C497 1.333 . S
C498 N500 1.350 . S
C498 H524 0.931 . S
N499 Co495 2.148 . S
N499 C496 1.301 . S
N499 C497 1.317 . S
N500 C496 1.328 . S
N500 C498 1.350 . S
H501 C496 0.930 . S
H502 C497 0.930 . S
C503 O504 1.224 . S
C503 O522 1.247 . S
O504 C503 1.224 . S
N505 Co495 2.128 . S
N505 C506 1.355 . S
N505 C508 1.311 . S
C506 N505 1.355 . S
C506 C507 1.363 . S
C506 H518 0.929 . S
C507 C506 1.363 . S
C507 N509 1.375 . S
C507 H525 0.931 . S
C508 N505 1.311 . S
C508 N509 1.347 . S
C508 H519 0.929 . S
N509 C507 1.375 . S
N509 C508 1.347 . S
C510 C513 1.365 . S
C510 N515 1.328 . S
C510 H516 0.929 . S
C511 C512 1.362 . S
C511 C514 1.378 . S
C511 H526 0.929 . S
C512 C511 1.362 . S
C512 C513 1.366 . S
C513 C510 1.365 . S
C513 C512 1.366 . S
C513 H527 0.930 . S
C514 C511 1.378 . S
C514 N515 1.315 . S
C514 H517 0.930 . S
N515 Co495 2.194 . S
N515 C510 1.328 . S
N515 C514 1.315 . S
H516 C510 0.929 . S
H517 C514 0.930 . S
H518 C506 0.929 . S
H519 C508 0.929 . S
O520 Co495 2.351 . S
O520 C523 1.244 . S
O521 Co495 2.155 . S
O521 C523 1.240 . S
O522 Co495 2.096 . S
O522 C503 1.247 . S
C523 O520 1.244 . S
C523 O521 1.240 . S
H524 C498 0.931 . S
H525 C507 0.931 . S
H526 C511 0.929 . S
H527 C513 0.930 . S
H528 C536 0.950 . S
H529 C541 0.950 . S
H530 C538 0.950 . S
H531 C540 0.950 . S
H532 C542 0.950 . S
H533 C544 0.950 . S
H534 C546 0.950 . S
H535 C547 0.950 . S
C536 H528 0.950 . S
C536 C537 1.386 . S
C536 C538 1.391 . S
C537 C536 1.386 . S
C537 C541 1.393 . S
C538 H530 0.950 . S
C538 C536 1.391 . S
C538 C539 1.400 . S
C539 C538 1.400 . S
C539 C540 1.398 . S
C539 C545 1.491 1_545 S
C540 H531 0.950 . S
C540 C539 1.398 . S
C540 C541 1.391 . S
C541 H529 0.950 . S
C541 C537 1.393 . S
C541 C540 1.391 . S
C542 H532 0.950 . S
C542 C543 1.386 . S
C542 C544 1.391 . S
C543 C542 1.386 . S
C543 C547 1.393 . S
C544 H533 0.950 . S
C544 C542 1.391 . S
C544 C545 1.400 . S
C545 C539 1.491 1_565 S
C545 C544 1.400 . S
C545 C546 1.398 . S
C546 H534 0.950 . S
C546 C545 1.398 . S
C546 C547 1.391 . S
C547 H535 0.950 . S
C547 C543 1.393 . S
C547 C546 1.391 . S
H548 C556 0.950 . S
H549 C561 0.950 . S
H550 C558 0.950 . S
H551 C560 0.950 . S
H552 C562 0.950 . S
H553 C564 0.950 . S
H554 C566 0.950 . S
H555 C567 0.950 . S
C556 H548 0.950 . S
C556 C557 1.386 . S
C556 C558 1.391 . S
C557 C556 1.386 . S
C557 C561 1.393 . S
C558 H550 0.950 . S
C558 C556 1.391 . S
C558 C559 1.400 . S
C559 C558 1.400 . S
C559 C560 1.398 . S
C559 C565 1.491 . S
C560 H551 0.950 . S
C560 C559 1.398 . S
C560 C561 1.391 . S
C561 H549 0.950 . S
C561 C557 1.393 . S
C561 C560 1.391 . S
C562 H552 0.950 . S
C562 C563 1.386 . S
C562 C564 1.391 . S
C563 C562 1.386 . S
C563 C567 1.393 . S
C564 H553 0.950 . S
C564 C562 1.391 . S
C564 C565 1.400 . S
C565 C559 1.491 . S
C565 C564 1.400 . S
C565 C566 1.398 . S
C566 H554 0.950 . S
C566 C565 1.398 . S
C566 C567 1.391 . S
C567 H555 0.950 . S
C567 C563 1.393 . S
C567 C566 1.391 . S
H568 C576 0.950 . S
H569 C581 0.947 . S
H570 C578 0.952 . S
H571 C580 0.948 1_665 S
H572 C582 0.950 . S
H573 C584 0.952 . S
H574 C586 0.950 1_545 S
H575 C587 0.950 . S
C576 H568 0.950 . S
C576 C577 1.386 . S
C576 C578 1.390 1_554 S
C577 C576 1.386 . S
C577 C581 1.395 1_455 S
C578 H570 0.952 . S
C578 C576 1.390 1_556 S
C578 C579 1.399 1_556 S
C579 C578 1.399 1_554 S
C579 C580 1.401 . S
C579 C585 1.491 1_544 S
C580 H571 0.948 1_445 S
C580 C579 1.401 . S
C580 C581 1.391 1_455 S
C581 H569 0.947 . S
C581 C577 1.395 1_655 S
C581 C580 1.391 1_655 S
C582 H572 0.950 . S
C582 C583 1.386 1_655 S
C582 C584 1.390 1_556 S
C583 C582 1.386 1_455 S
C583 C587 1.393 . S
C584 H573 0.952 . S
C584 C582 1.390 1_554 S
C584 C585 1.399 1_654 S
C585 C579 1.491 1_566 S
C585 C584 1.399 1_456 S
C585 C586 1.398 . S
C586 H574 0.950 1_565 S
C586 C585 1.398 . S
C586 C587 1.391 . S
C587 H575 0.950 . S
C587 C583 1.393 . S
C587 C586 1.391 . S
H588 C596 0.950 . S
H589 C601 0.950 . S
H590 C598 0.950 . S
H591 C600 0.950 . S
H592 C602 0.950 . S
H593 C604 0.950 . S
H594 C606 0.950 . S
H595 C607 0.950 . S
C596 H588 0.950 . S
C596 C597 1.386 . S
C596 C598 1.391 . S
C597 C596 1.386 . S
C597 C601 1.393 . S
C598 H590 0.950 . S
C598 C596 1.391 . S
C598 C599 1.400 . S
C599 C598 1.400 . S
C599 C600 1.398 . S
C599 C605 1.491 . S
C600 H591 0.950 . S
C600 C599 1.398 . S
C600 C601 1.391 . S
C601 H589 0.950 . S
C601 C597 1.393 . S
C601 C600 1.391 . S
C602 H592 0.950 . S
C602 C603 1.386 . S
C602 C604 1.391 . S
C603 C602 1.386 . S
C603 C607 1.393 . S
C604 H593 0.950 . S
C604 C602 1.391 . S
C604 C605 1.400 . S
C605 C599 1.491 . S
C605 C604 1.400 . S
C605 C606 1.398 . S
C606 H594 0.950 . S
C606 C605 1.398 . S
C606 C607 1.391 . S
C607 H595 0.950 . S
C607 C603 1.393 . S
C607 C606 1.391 . S
H608 C616 0.950 . S
H609 C621 0.950 . S
H610 C618 0.950 . S
H611 C620 0.950 . S
H612 C622 0.950 . S
H613 C624 0.950 . S
H614 C626 0.950 . S
H615 C627 0.950 . S
C616 H608 0.950 . S
C616 C617 1.386 . S
C616 C618 1.391 . S
C617 C616 1.386 . S
C617 C621 1.393 . S
C618 H610 0.950 . S
C618 C616 1.391 . S
C618 C619 1.400 . S
C619 C618 1.400 . S
C619 C620 1.398 . S
C619 C625 1.491 . S
C620 H611 0.950 . S
C620 C619 1.398 . S
C620 C621 1.391 . S
C621 H609 0.950 . S
C621 C617 1.393 . S
C621 C620 1.391 . S
C622 H612 0.950 . S
C622 C623 1.386 . S
C622 C624 1.391 . S
C623 C622 1.386 . S
C623 C627 1.393 . S
C624 H613 0.950 . S
C624 C622 1.391 . S
C624 C625 1.400 . S
C625 C619 1.491 . S
C625 C624 1.400 . S
C625 C626 1.398 . S
C626 H614 0.950 . S
C626 C625 1.398 . S
C626 C627 1.391 . S
C627 H615 0.950 . S
C627 C623 1.393 . S
C627 C626 1.391 . S
H628 C636 0.950 . S
H629 C641 0.950 . S
H630 C638 0.950 . S
H631 C640 0.950 . S
H632 C642 0.950 . S
H633 C644 0.950 . S
H634 C646 0.950 . S
H635 C647 0.950 . S
C636 H628 0.950 . S
C636 C637 1.386 . S
C636 C638 1.391 . S
C637 C636 1.386 . S
C637 C641 1.393 . S
C638 H630 0.950 . S
C638 C636 1.391 . S
C638 C639 1.400 . S
C639 C638 1.400 . S
C639 C640 1.398 . S
C639 C645 1.491 . S
C640 H631 0.950 . S
C640 C639 1.398 . S
C640 C641 1.391 . S
C641 H629 0.950 . S
C641 C637 1.393 . S
C641 C640 1.391 . S
C642 H632 0.950 . S
C642 C643 1.386 . S
C642 C644 1.391 . S
C643 C642 1.386 . S
C643 C647 1.393 . S
C644 H633 0.950 . S
C644 C642 1.391 . S
C644 C645 1.400 . S
C645 C639 1.491 . S
C645 C644 1.400 . S
C645 C646 1.398 . S
C646 H634 0.950 . S
C646 C645 1.398 . S
C646 C647 1.391 . S
C647 H635 0.950 . S
C647 C643 1.393 . S
C647 C646 1.391 . S
H648 C656 0.950 . S
H649 C661 0.949 1_655 S
H650 C658 0.950 1_554 S
H651 C660 0.949 1_655 S
H652 C662 0.950 1_655 S
H653 C664 0.950 1_656 S
H654 C666 0.950 . S
H655 C667 0.950 . S
C656 H648 0.950 . S
C656 C657 1.386 . S
C656 C658 1.391 . S
C657 C656 1.386 . S
C657 C661 1.394 . S
C658 H650 0.950 1_556 S
C658 C656 1.391 . S
C658 C659 1.400 . S
C659 C658 1.400 . S
C659 C660 1.400 . S
C659 C665 1.491 1_556 S
C660 H651 0.949 1_455 S
C660 C659 1.400 . S
C660 C661 1.391 . S
C661 H649 0.949 1_455 S
C661 C657 1.394 . S
C661 C660 1.391 . S
C662 H652 0.950 1_455 S
C662 C663 1.386 . S
C662 C664 1.391 . S
C663 C662 1.386 . S
C663 C667 1.393 . S
C664 H653 0.950 1_454 S
C664 C662 1.391 . S
C664 C665 1.400 . S
C665 C659 1.491 1_554 S
C665 C664 1.400 . S
C665 C666 1.398 . S
C666 H654 0.950 . S
C666 C665 1.398 . S
C666 C667 1.391 . S
C667 H655 0.950 . S
C667 C663 1.393 . S
C667 C666 1.391 . S
H668 C676 0.950 . S
H669 C681 0.950 . S
H670 C678 0.950 . S
H671 C680 0.950 . S
H672 C682 0.950 . S
H673 C684 0.950 . S
H674 C686 0.950 . S
H675 C687 0.950 . S
C676 H668 0.950 . S
C676 C677 1.386 . S
C676 C678 1.391 . S
C677 C676 1.386 . S
C677 C681 1.393 . S
C678 H670 0.950 . S
C678 C676 1.391 . S
C678 C679 1.400 . S
C679 C678 1.400 . S
C679 C680 1.398 . S
C679 C685 1.491 . S
C680 H671 0.950 . S
C680 C679 1.398 . S
C680 C681 1.391 . S
C681 H669 0.950 . S
C681 C677 1.393 . S
C681 C680 1.391 . S
C682 H672 0.950 . S
C682 C683 1.386 . S
C682 C684 1.391 . S
C683 C682 1.386 . S
C683 C687 1.393 . S
C684 H673 0.950 . S
C684 C682 1.391 . S
C684 C685 1.400 . S
C685 C679 1.491 . S
C685 C684 1.400 . S
C685 C686 1.398 . S
C686 H674 0.950 . S
C686 C685 1.398 . S
C686 C687 1.391 . S
C687 H675 0.950 . S
C687 C683 1.393 . S
C687 C686 1.391 . S
H688 C696 0.950 . S
H689 C701 0.950 . S
H690 C698 0.950 . S
H691 C700 0.950 . S
H692 C702 0.950 . S
H693 C704 0.950 . S
H694 C706 0.950 . S
H695 C707 0.950 1_556 S
C696 H688 0.950 . S
C696 C697 1.386 . S
C696 C698 1.391 . S
C697 C696 1.386 . S
C697 C701 1.393 . S
C698 H690 0.950 . S
C698 C696 1.391 . S
C698 C699 1.400 . S
C699 C698 1.400 . S
C699 C700 1.398 . S
C699 C705 1.491 . S
C700 H691 0.950 . S
C700 C699 1.398 . S
C700 C701 1.391 . S
C701 H689 0.950 . S
C701 C697 1.393 . S
C701 C700 1.391 . S
C702 H692 0.950 . S
C702 C703 1.386 . S
C702 C704 1.391 . S
C703 C702 1.386 . S
C703 C707 1.393 . S
C704 H693 0.950 . S
C704 C702 1.391 . S
C704 C705 1.400 . S
C705 C699 1.491 . S
C705 C704 1.400 . S
C705 C706 1.398 . S
C706 H694 0.950 . S
C706 C705 1.398 . S
C706 C707 1.391 . S
C707 H695 0.950 1_554 S
C707 C703 1.393 . S
C707 C706 1.391 . S
H708 C716 0.950 . S
H709 C721 0.950 . S
H710 C718 0.950 . S
H711 C720 0.950 . S
H712 C722 0.950 . S
H713 C724 0.950 . S
H714 C726 0.950 . S
H715 C727 0.950 . S
C716 H708 0.950 . S
C716 C717 1.386 . S
C716 C718 1.391 . S
C717 C716 1.386 . S
C717 C721 1.393 . S
C718 H710 0.950 . S
C718 C716 1.391 . S
C718 C719 1.400 . S
C719 C718 1.400 . S
C719 C720 1.398 . S
C719 C725 1.491 . S
C720 H711 0.950 . S
C720 C719 1.398 . S
C720 C721 1.391 . S
C721 H709 0.950 . S
C721 C717 1.393 . S
C721 C720 1.391 . S
C722 H712 0.950 . S
C722 C723 1.386 . S
C722 C724 1.391 . S
C723 C722 1.386 . S
C723 C727 1.393 . S
C724 H713 0.950 . S
C724 C722 1.391 . S
C724 C725 1.400 . S
C725 C719 1.491 . S
C725 C724 1.400 . S
C725 C726 1.398 . S
C726 H714 0.950 . S
C726 C725 1.398 . S
C726 C727 1.391 . S
C727 H715 0.950 . S
C727 C723 1.393 . S
C727 C726 1.391 . S
H728 C736 0.950 . S
H729 C741 0.950 . S
H730 C738 0.950 . S
H731 C740 0.950 . S
H732 C742 0.950 . S
H733 C744 0.950 . S
H734 C746 0.950 . S
H735 C747 0.950 . S
C736 H728 0.950 . S
C736 C737 1.386 . S
C736 C738 1.391 . S
C737 C736 1.386 . S
C737 C741 1.393 . S
C738 H730 0.950 . S
C738 C736 1.391 . S
C738 C739 1.400 . S
C739 C738 1.400 . S
C739 C740 1.398 . S
C739 C745 1.491 . S
C740 H731 0.950 . S
C740 C739 1.398 . S
C740 C741 1.391 . S
C741 H729 0.950 . S
C741 C737 1.393 . S
C741 C740 1.391 . S
C742 H732 0.950 . S
C742 C743 1.386 . S
C742 C744 1.391 . S
C743 C742 1.386 . S
C743 C747 1.393 . S
C744 H733 0.950 . S
C744 C742 1.391 . S
C744 C745 1.400 . S
C745 C739 1.491 . S
C745 C744 1.400 . S
C745 C746 1.398 . S
C746 H734 0.950 . S
C746 C745 1.398 . S
C746 C747 1.391 . S
C747 H735 0.950 . S
C747 C743 1.393 . S
C747 C746 1.391 . S
H748 C756 0.950 1_554 S
H749 C761 0.950 . S
H750 C758 0.950 . S
H751 C760 0.950 . S
H752 C762 0.950 . S
H753 C764 0.950 . S
H754 C766 0.950 . S
H755 C767 0.950 . S
C756 H748 0.950 1_556 S
C756 C757 1.386 . S
C756 C758 1.391 . S
C757 C756 1.386 . S
C757 C761 1.393 . S
C758 H750 0.950 . S
C758 C756 1.391 . S
C758 C759 1.400 . S
C759 C758 1.400 . S
C759 C760 1.398 . S
C759 C765 1.491 . S
C760 H751 0.950 . S
C760 C759 1.398 . S
C760 C761 1.391 . S
C761 H749 0.950 . S
C761 C757 1.393 . S
C761 C760 1.391 . S
C762 H752 0.950 . S
C762 C763 1.386 . S
C762 C764 1.391 . S
C763 C762 1.386 . S
C763 C767 1.393 . S
C764 H753 0.950 . S
C764 C762 1.391 . S
C764 C765 1.400 . S
C765 C759 1.491 . S
C765 C764 1.400 . S
C765 C766 1.398 . S
C766 H754 0.950 . S
C766 C765 1.398 . S
C766 C767 1.391 . S
C767 H755 0.950 . S
C767 C763 1.393 . S
C767 C766 1.391 . S
H768 C776 0.950 . S
H769 C781 0.950 . S
H770 C778 0.950 . S
H771 C780 0.950 . S
H772 C782 0.950 1_554 S
H773 C784 0.950 . S
H774 C786 0.950 . S
H775 C787 0.950 . S
C776 H768 0.950 . S
C776 C777 1.386 . S
C776 C778 1.391 . S
C777 C776 1.386 . S
C777 C781 1.393 . S
C778 H770 0.950 . S
C778 C776 1.391 . S
C778 C779 1.400 . S
C779 C778 1.400 . S
C779 C780 1.398 . S
C779 C785 1.491 . S
C780 H771 0.950 . S
C780 C779 1.398 . S
C780 C781 1.391 . S
C781 H769 0.950 . S
C781 C777 1.393 . S
C781 C780 1.391 . S
C782 H772 0.950 1_556 S
C782 C783 1.386 . S
C782 C784 1.391 . S
C783 C782 1.386 . S
C783 C787 1.393 . S
C784 H773 0.950 . S
C784 C782 1.391 . S
C784 C785 1.400 . S
C785 C779 1.491 . S
C785 C784 1.400 . S
C785 C786 1.398 . S
C786 H774 0.950 . S
C786 C785 1.398 . S
C786 C787 1.391 . S
C787 H775 0.950 . S
C787 C783 1.393 . S
C787 C786 1.391 . S
H788 C796 0.950 . S
H789 C801 0.950 . S
H790 C798 0.950 . S
H791 C800 0.950 . S
H792 C802 0.950 . S
H793 C804 0.950 . S
H794 C806 0.950 . S
H795 C807 0.950 . S
C796 H788 0.950 . S
C796 C797 1.386 . S
C796 C798 1.391 . S
C797 C796 1.386 . S
C797 C801 1.393 . S
C798 H790 0.950 . S
C798 C796 1.391 . S
C798 C799 1.400 . S
C799 C798 1.400 . S
C799 C800 1.398 . S
C799 C805 1.491 . S
C800 H791 0.950 . S
C800 C799 1.398 . S
C800 C801 1.391 . S
C801 H789 0.950 . S
C801 C797 1.393 . S
C801 C800 1.391 . S
C802 H792 0.950 . S
C802 C803 1.386 . S
C802 C804 1.391 . S
C803 C802 1.386 . S
C803 C807 1.393 . S
C804 H793 0.950 . S
C804 C802 1.391 . S
C804 C805 1.400 . S
C805 C799 1.491 . S
C805 C804 1.400 . S
C805 C806 1.398 . S
C806 H794 0.950 . S
C806 C805 1.398 . S
C806 C807 1.391 . S
C807 H795 0.950 . S
C807 C803 1.393 . S
C807 C806 1.391 . S
H808 C816 0.950 . S
H809 C821 0.950 . S
H810 C818 0.950 . S
H811 C820 0.950 . S
H812 C822 0.950 . S
H813 C824 0.950 . S
H814 C826 0.950 . S
H815 C827 0.950 . S
C816 H808 0.950 . S
C816 C817 1.386 . S
C816 C818 1.391 . S
C817 C816 1.386 . S
C817 C821 1.393 . S
C818 H810 0.950 . S
C818 C816 1.391 . S
C818 C819 1.400 . S
C819 C818 1.400 . S
C819 C820 1.398 . S
C819 C825 1.491 . S
C820 H811 0.950 . S
C820 C819 1.398 . S
C820 C821 1.391 . S
C821 H809 0.950 . S
C821 C817 1.393 . S
C821 C820 1.391 . S
C822 H812 0.950 . S
C822 C823 1.386 . S
C822 C824 1.391 . S
C823 C822 1.386 . S
C823 C827 1.393 . S
C824 H813 0.950 . S
C824 C822 1.391 . S
C824 C825 1.400 . S
C825 C819 1.491 . S
C825 C824 1.400 . S
C825 C826 1.398 . S
C826 H814 0.950 . S
C826 C825 1.398 . S
C826 C827 1.391 . S
C827 H815 0.950 . S
C827 C823 1.393 . S
C827 C826 1.391 . S
H828 C836 0.950 . S
H829 C841 0.950 . S
H830 C838 0.950 . S
H831 C840 0.950 . S
H832 C842 0.950 . S
H833 C844 0.950 . S
H834 C846 0.950 . S
H835 C847 0.950 . S
C836 H828 0.950 . S
C836 C837 1.386 . S
C836 C838 1.391 . S
C837 C836 1.386 . S
C837 C841 1.393 . S
C838 H830 0.950 . S
C838 C836 1.391 . S
C838 C839 1.400 . S
C839 C838 1.400 . S
C839 C840 1.398 . S
C839 C845 1.491 . S
C840 H831 0.950 . S
C840 C839 1.398 . S
C840 C841 1.391 . S
C841 H829 0.950 . S
C841 C837 1.393 . S
C841 C840 1.391 . S
C842 H832 0.950 . S
C842 C843 1.386 . S
C842 C844 1.391 . S
C843 C842 1.386 . S
C843 C847 1.393 . S
C844 H833 0.950 . S
C844 C842 1.391 . S
C844 C845 1.400 . S
C845 C839 1.491 . S
C845 C844 1.400 . S
C845 C846 1.398 . S
C846 H834 0.950 . S
C846 C845 1.398 . S
C846 C847 1.391 . S
C847 H835 0.950 . S
C847 C843 1.393 . S
C847 C846 1.391 . S
H848 C856 0.950 . S
H849 C861 0.950 . S
H850 C858 0.950 . S
H851 C860 0.950 . S
H852 C862 0.950 . S
H853 C864 0.950 . S
H854 C866 0.950 . S
H855 C867 0.950 . S
C856 H848 0.950 . S
C856 C857 1.386 . S
C856 C858 1.391 . S
C857 C856 1.386 . S
C857 C861 1.393 . S
C858 H850 0.950 . S
C858 C856 1.391 . S
C858 C859 1.400 . S
C859 C858 1.400 . S
C859 C860 1.398 . S
C859 C865 1.491 . S
C860 H851 0.950 . S
C860 C859 1.398 . S
C860 C861 1.391 . S
C861 H849 0.950 . S
C861 C857 1.393 . S
C861 C860 1.391 . S
C862 H852 0.950 . S
C862 C863 1.386 . S
C862 C864 1.391 . S
C863 C862 1.386 . S
C863 C867 1.393 . S
C864 H853 0.950 . S
C864 C862 1.391 . S
C864 C865 1.400 . S
C865 C859 1.491 . S
C865 C864 1.400 . S
C865 C866 1.398 . S
C866 H854 0.950 . S
C866 C865 1.398 . S
C866 C867 1.391 . S
C867 H855 0.950 . S
C867 C863 1.393 . S
C867 C866 1.391 . S
H868 C876 0.950 1_554 S
H869 C881 0.950 . S
H870 C878 0.950 . S
H871 C880 0.950 . S
H872 C882 0.950 . S
H873 C884 0.950 . S
H874 C886 0.950 . S
H875 C887 0.950 . S
C876 H868 0.950 1_556 S
C876 C877 1.386 . S
C876 C878 1.391 . S
C877 C876 1.386 . S
C877 C881 1.393 . S
C878 H870 0.950 . S
C878 C876 1.391 . S
C878 C879 1.400 . S
C879 C878 1.400 . S
C879 C880 1.398 . S
C879 C885 1.491 . S
C880 H871 0.950 . S
C880 C879 1.398 . S
C880 C881 1.391 . S
C881 H869 0.950 . S
C881 C877 1.393 . S
C881 C880 1.391 . S
C882 H872 0.950 . S
C882 C883 1.386 . S
C882 C884 1.391 . S
C883 C882 1.386 . S
C883 C887 1.393 . S
C884 H873 0.950 . S
C884 C882 1.391 . S
C884 C885 1.400 . S
C885 C879 1.491 . S
C885 C884 1.400 . S
C885 C886 1.398 . S
C886 H874 0.950 . S
C886 C885 1.398 . S
C886 C887 1.391 . S
C887 H875 0.950 . S
C887 C883 1.393 . S
C887 C886 1.391 . S
H888 C896 0.950 . S
H889 C901 0.950 1_556 S
H890 C898 0.950 . S
H891 C900 0.950 . S
H892 C902 0.950 . S
H893 C904 0.950 . S
H894 C906 0.950 . S
H895 C907 0.950 . S
C896 H888 0.950 . S
C896 C897 1.386 . S
C896 C898 1.391 . S
C897 C896 1.386 . S
C897 C901 1.393 . S
C898 H890 0.950 . S
C898 C896 1.391 . S
C898 C899 1.400 . S
C899 C898 1.400 . S
C899 C900 1.398 . S
C899 C905 1.491 . S
C900 H891 0.950 . S
C900 C899 1.398 . S
C900 C901 1.391 . S
C901 H889 0.950 1_554 S
C901 C897 1.393 . S
C901 C900 1.391 . S
C902 H892 0.950 . S
C902 C903 1.386 . S
C902 C904 1.391 . S
C903 C902 1.386 . S
C903 C907 1.393 . S
C904 H893 0.950 . S
C904 C902 1.391 . S
C904 C905 1.400 . S
C905 C899 1.491 . S
C905 C904 1.400 . S
C905 C906 1.398 . S
C906 H894 0.950 . S
C906 C905 1.398 . S
C906 C907 1.391 . S
C907 H895 0.950 . S
C907 C903 1.393 . S
C907 C906 1.391 . S
H908 C916 0.950 . S
H909 C921 0.950 . S
H910 C918 0.950 . S
H911 C920 0.950 . S
H912 C922 0.950 . S
H913 C924 0.950 . S
H914 C926 0.950 . S
H915 C927 0.950 . S
C916 H908 0.950 . S
C916 C917 1.386 . S
C916 C918 1.391 . S
C917 C916 1.386 . S
C917 C921 1.393 . S
C918 H910 0.950 . S
C918 C916 1.391 . S
C918 C919 1.400 . S
C919 C918 1.400 . S
C919 C920 1.398 . S
C919 C925 1.491 . S
C920 H911 0.950 . S
C920 C919 1.398 . S
C920 C921 1.391 . S
C921 H909 0.950 . S
C921 C917 1.393 . S
C921 C920 1.391 . S
C922 H912 0.950 . S
C922 C923 1.386 . S
C922 C924 1.391 . S
C923 C922 1.386 . S
C923 C927 1.393 . S
C924 H913 0.950 . S
C924 C922 1.391 . S
C924 C925 1.400 . S
C925 C919 1.491 . S
C925 C924 1.400 . S
C925 C926 1.398 . S
C926 H914 0.950 . S
C926 C925 1.398 . S
C926 C927 1.391 . S
C927 H915 0.950 . S
C927 C923 1.393 . S
C927 C926 1.391 . S
H928 C936 0.950 . S
H929 C941 0.950 . S
H930 C938 0.950 . S
H931 C940 0.950 . S
H932 C942 0.950 . S
H933 C944 0.950 . S
H934 C946 0.950 . S
H935 C947 0.950 . S
C936 H928 0.950 . S
C936 C937 1.386 . S
C936 C938 1.391 . S
C937 C936 1.386 . S
C937 C941 1.393 . S
C938 H930 0.950 . S
C938 C936 1.391 . S
C938 C939 1.400 . S
C939 C938 1.400 . S
C939 C940 1.398 . S
C939 C945 1.491 . S
C940 H931 0.950 . S
C940 C939 1.398 . S
C940 C941 1.391 . S
C941 H929 0.950 . S
C941 C937 1.393 . S
C941 C940 1.391 . S
C942 H932 0.950 . S
C942 C943 1.386 . S
C942 C944 1.391 . S
C943 C942 1.386 . S
C943 C947 1.393 . S
C944 H933 0.950 . S
C944 C942 1.391 . S
C944 C945 1.400 . S
C945 C939 1.491 . S
C945 C944 1.400 . S
C945 C946 1.398 . S
C946 H934 0.950 . S
C946 C945 1.398 . S
C946 C947 1.391 . S
C947 H935 0.950 . S
C947 C943 1.393 . S
C947 C946 1.391 . S
H948 C956 0.950 . S
H949 C961 0.950 . S
H950 C958 0.950 . S
H951 C960 0.950 . S
H952 C962 0.950 . S
H953 C964 0.950 . S
H954 C966 0.950 . S
H955 C967 0.950 . S
C956 H948 0.950 . S
C956 C957 1.386 . S
C956 C958 1.391 . S
C957 C956 1.386 . S
C957 C961 1.393 . S
C958 H950 0.950 . S
C958 C956 1.391 . S
C958 C959 1.400 . S
C959 C958 1.400 . S
C959 C960 1.398 . S
C959 C965 1.491 . S
C960 H951 0.950 . S
C960 C959 1.398 . S
C960 C961 1.391 . S
C961 H949 0.950 . S
C961 C957 1.393 . S
C961 C960 1.391 . S
C962 H952 0.950 . S
C962 C963 1.386 . S
C962 C964 1.391 . S
C963 C962 1.386 . S
C963 C967 1.393 . S
C964 H953 0.950 . S
C964 C962 1.391 . S
C964 C965 1.400 . S
C965 C959 1.491 . S
C965 C964 1.400 . S
C965 C966 1.398 . S
C966 H954 0.950 . S
C966 C965 1.398 . S
C966 C967 1.391 . S
C967 H955 0.950 . S
C967 C963 1.393 . S
C967 C966 1.391 . S
H968 C976 0.950 1_554 S
H969 C981 0.950 . S
H970 C978 0.950 . S
H971 C980 0.950 . S
H972 C982 0.950 . S
H973 C984 0.950 . S
H974 C986 0.950 . S
H975 C987 0.950 . S
C976 H968 0.950 1_556 S
C976 C977 1.386 . S
C976 C978 1.391 . S
C977 C976 1.386 . S
C977 C981 1.393 . S
C978 H970 0.950 . S
C978 C976 1.391 . S
C978 C979 1.400 . S
C979 C978 1.400 . S
C979 C980 1.398 . S
C979 C985 1.491 . S
C980 H971 0.950 . S
C980 C979 1.398 . S
C980 C981 1.391 . S
C981 H969 0.950 . S
C981 C977 1.393 . S
C981 C980 1.391 . S
C982 H972 0.950 . S
C982 C983 1.386 . S
C982 C984 1.391 . S
C983 C982 1.386 . S
C983 C987 1.393 . S
C984 H973 0.950 . S
C984 C982 1.391 . S
C984 C985 1.400 . S
C985 C979 1.491 . S
C985 C984 1.400 . S
C985 C986 1.398 . S
C986 H974 0.950 . S
C986 C985 1.398 . S
C986 C987 1.391 . S
C987 H975 0.950 . S
C987 C983 1.393 . S
C987 C986 1.391 . S
H988 C996 0.950 . S
H989 C1001 0.950 . S
H990 C998 0.950 . S
H991 C1000 0.950 . S
H992 C1002 0.950 . S
H993 C1004 0.950 . S
H994 C1006 0.950 . S
H995 C1007 0.950 . S
C996 H988 0.950 . S
C996 C997 1.386 . S
C996 C998 1.391 . S
C997 C996 1.386 . S
C997 C1001 1.393 . S
C998 H990 0.950 . S
C998 C996 1.391 . S
C998 C999 1.400 . S
C999 C998 1.400 . S
C999 C1000 1.398 . S
C999 C1005 1.491 . S
C1000 H991 0.950 . S
C1000 C999 1.398 . S
C1000 C1001 1.391 . S
C1001 H989 0.950 . S
C1001 C997 1.393 . S
C1001 C1000 1.391 . S
C1002 H992 0.950 . S
C1002 C1003 1.386 . S
C1002 C1004 1.391 . S
C1003 C1002 1.386 . S
C1003 C1007 1.393 . S
C1004 H993 0.950 . S
C1004 C1002 1.391 . S
C1004 C1005 1.400 . S
C1005 C999 1.491 . S
C1005 C1004 1.400 . S
C1005 C1006 1.398 . S
C1006 H994 0.950 . S
C1006 C1005 1.398 . S
C1006 C1007 1.391 . S
C1007 H995 0.950 . S
C1007 C1003 1.393 . S
C1007 C1006 1.391 . S
H1008 C1016 0.950 . S
H1009 C1021 0.950 . S
H1010 C1018 0.950 . S
H1011 C1020 0.950 . S
H1012 C1022 0.950 . S
H1013 C1024 0.950 . S
H1014 C1026 0.950 . S
H1015 C1027 0.950 . S
C1016 H1008 0.950 . S
C1016 C1017 1.386 . S
C1016 C1018 1.391 . S
C1017 C1016 1.386 . S
C1017 C1021 1.393 . S
C1018 H1010 0.950 . S
C1018 C1016 1.391 . S
C1018 C1019 1.400 . S
C1019 C1018 1.400 . S
C1019 C1020 1.398 . S
C1019 C1025 1.491 . S
C1020 H1011 0.950 . S
C1020 C1019 1.398 . S
C1020 C1021 1.391 . S
C1021 H1009 0.950 . S
C1021 C1017 1.393 . S
C1021 C1020 1.391 . S
C1022 H1012 0.950 . S
C1022 C1023 1.386 . S
C1022 C1024 1.391 . S
C1023 C1022 1.386 . S
C1023 C1027 1.393 . S
C1024 H1013 0.950 . S
C1024 C1022 1.391 . S
C1024 C1025 1.400 . S
C1025 C1019 1.491 . S
C1025 C1024 1.400 . S
C1025 C1026 1.398 . S
C1026 H1014 0.950 . S
C1026 C1025 1.398 . S
C1026 C1027 1.391 . S
C1027 H1015 0.950 . S
C1027 C1023 1.393 . S
C1027 C1026 1.391 . S
H1028 C1036 0.950 . S
H1029 C1041 0.950 1_554 S
H1030 C1038 0.950 . S
H1031 C1040 0.950 . S
H1032 C1042 0.950 . S
H1033 C1044 0.950 . S
H1034 C1046 0.950 . S
H1035 C1047 0.950 . S
C1036 H1028 0.950 . S
C1036 C1037 1.386 . S
C1036 C1038 1.391 . S
C1037 C1036 1.386 . S
C1037 C1041 1.393 . S
C1038 H1030 0.950 . S
C1038 C1036 1.391 . S
C1038 C1039 1.400 . S
C1039 C1038 1.400 . S
C1039 C1040 1.398 . S
C1039 C1045 1.491 . S
C1040 H1031 0.950 . S
C1040 C1039 1.398 . S
C1040 C1041 1.391 . S
C1041 H1029 0.950 1_556 S
C1041 C1037 1.393 . S
C1041 C1040 1.391 . S
C1042 H1032 0.950 . S
C1042 C1043 1.386 . S
C1042 C1044 1.391 . S
C1043 C1042 1.386 . S
C1043 C1047 1.393 . S
C1044 H1033 0.950 . S
C1044 C1042 1.391 . S
C1044 C1045 1.400 . S
C1045 C1039 1.491 . S
C1045 C1044 1.400 . S
C1045 C1046 1.398 . S
C1046 H1034 0.950 . S
C1046 C1045 1.398 . S
C1046 C1047 1.391 . S
C1047 H1035 0.950 . S
C1047 C1043 1.393 . S
C1047 C1046 1.391 . S
H1048 C1056 0.950 1_556 S
H1049 C1061 0.950 . S
H1050 C1058 0.950 . S
H1051 C1060 0.950 . S
H1052 C1062 0.950 . S
H1053 C1064 0.950 . S
H1054 C1066 0.950 . S
H1055 C1067 0.950 . S
C1056 H1048 0.950 1_554 S
C1056 C1057 1.386 . S
C1056 C1058 1.391 . S
C1057 C1056 1.386 . S
C1057 C1061 1.393 . S
C1058 H1050 0.950 . S
C1058 C1056 1.391 . S
C1058 C1059 1.400 . S
C1059 C1058 1.400 . S
C1059 C1060 1.398 . S
C1059 C1065 1.491 . S
C1060 H1051 0.950 . S
C1060 C1059 1.398 . S
C1060 C1061 1.391 . S
C1061 H1049 0.950 . S
C1061 C1057 1.393 . S
C1061 C1060 1.391 . S
C1062 H1052 0.950 . S
C1062 C1063 1.386 . S
C1062 C1064 1.391 . S
C1063 C1062 1.386 . S
C1063 C1067 1.393 . S
C1064 H1053 0.950 . S
C1064 C1062 1.391 . S
C1064 C1065 1.400 . S
C1065 C1059 1.491 . S
C1065 C1064 1.400 . S
C1065 C1066 1.398 . S
C1066 H1054 0.950 . S
C1066 C1065 1.398 . S
C1066 C1067 1.391 . S
C1067 H1055 0.950 . S
C1067 C1063 1.393 . S
C1067 C1066 1.391 . S
H1068 C1076 0.950 . S
H1069 C1081 0.950 . S
H1070 C1078 0.950 . S
H1071 C1080 0.950 . S
H1072 C1082 0.950 . S
H1073 C1084 0.950 . S
H1074 C1086 0.950 . S
H1075 C1087 0.950 . S
C1076 H1068 0.950 . S
C1076 C1077 1.386 . S
C1076 C1078 1.391 . S
C1077 C1076 1.386 . S
C1077 C1081 1.393 . S
C1078 H1070 0.950 . S
C1078 C1076 1.391 . S
C1078 C1079 1.400 . S
C1079 C1078 1.400 . S
C1079 C1080 1.398 . S
C1079 C1085 1.491 . S
C1080 H1071 0.950 . S
C1080 C1079 1.398 . S
C1080 C1081 1.391 . S
C1081 H1069 0.950 . S
C1081 C1077 1.393 . S
C1081 C1080 1.391 . S
C1082 H1072 0.950 . S
C1082 C1083 1.386 . S
C1082 C1084 1.391 . S
C1083 C1082 1.386 . S
C1083 C1087 1.393 . S
C1084 H1073 0.950 . S
C1084 C1082 1.391 . S
C1084 C1085 1.400 . S
C1085 C1079 1.491 . S
C1085 C1084 1.400 . S
C1085 C1086 1.398 . S
C1086 H1074 0.950 . S
C1086 C1085 1.398 . S
C1086 C1087 1.391 . S
C1087 H1075 0.950 . S
C1087 C1083 1.393 . S
C1087 C1086 1.391 . S
H1088 C1096 0.950 . S
H1089 C1101 0.950 . S
H1090 C1098 0.950 . S
H1091 C1100 0.950 . S
H1092 C1102 0.950 . S
H1093 C1104 0.950 . S
H1094 C1106 0.950 . S
H1095 C1107 0.950 . S
C1096 H1088 0.950 . S
C1096 C1097 1.386 . S
C1096 C1098 1.391 . S
C1097 C1096 1.386 . S
C1097 C1101 1.393 . S
C1098 H1090 0.950 . S
C1098 C1096 1.391 . S
C1098 C1099 1.400 . S
C1099 C1098 1.400 . S
C1099 C1100 1.398 . S
C1099 C1105 1.491 . S
C1100 H1091 0.950 . S
C1100 C1099 1.398 . S
C1100 C1101 1.391 . S
C1101 H1089 0.950 . S
C1101 C1097 1.393 . S
C1101 C1100 1.391 . S
C1102 H1092 0.950 . S
C1102 C1103 1.386 . S
C1102 C1104 1.391 . S
C1103 C1102 1.386 . S
C1103 C1107 1.393 . S
C1104 H1093 0.950 . S
C1104 C1102 1.391 . S
C1104 C1105 1.400 . S
C1105 C1099 1.491 . S
C1105 C1104 1.400 . S
C1105 C1106 1.398 . S
C1106 H1094 0.950 . S
C1106 C1105 1.398 . S
C1106 C1107 1.391 . S
C1107 H1095 0.950 . S
C1107 C1103 1.393 . S
C1107 C1106 1.391 . S
H1108 C1116 0.950 . S
H1109 C1121 0.950 . S
H1110 C1118 0.950 . S
H1111 C1120 0.950 . S
H1112 C1122 0.950 1_556 S
H1113 C1124 0.950 . S
H1114 C1126 0.950 . S
H1115 C1127 0.950 . S
C1116 H1108 0.950 . S
C1116 C1117 1.386 . S
C1116 C1118 1.391 . S
C1117 C1116 1.386 . S
C1117 C1121 1.393 . S
C1118 H1110 0.950 . S
C1118 C1116 1.391 . S
C1118 C1119 1.400 . S
C1119 C1118 1.400 . S
C1119 C1120 1.398 . S
C1119 C1125 1.491 . S
C1120 H1111 0.950 . S
C1120 C1119 1.398 . S
C1120 C1121 1.391 . S
C1121 H1109 0.950 . S
C1121 C1117 1.393 . S
C1121 C1120 1.391 . S
C1122 H1112 0.950 1_554 S
C1122 C1123 1.386 . S
C1122 C1124 1.391 . S
C1123 C1122 1.386 . S
C1123 C1127 1.393 . S
C1124 H1113 0.950 . S
C1124 C1122 1.391 . S
C1124 C1125 1.400 . S
C1125 C1119 1.491 . S
C1125 C1124 1.400 . S
C1125 C1126 1.398 . S
C1126 H1114 0.950 . S
C1126 C1125 1.398 . S
C1126 C1127 1.391 . S
C1127 H1115 0.950 . S
C1127 C1123 1.393 . S
C1127 C1126 1.391 . S
H1128 C1136 0.950 . S
H1129 C1141 0.950 . S
H1130 C1138 0.950 . S
H1131 C1140 0.950 . S
H1132 C1142 0.950 . S
H1133 C1144 0.950 . S
H1134 C1146 0.950 . S
H1135 C1147 0.950 . S
C1136 H1128 0.950 . S
C1136 C1137 1.386 . S
C1136 C1138 1.391 . S
C1137 C1136 1.386 . S
C1137 C1141 1.393 . S
C1138 H1130 0.950 . S
C1138 C1136 1.391 . S
C1138 C1139 1.400 . S
C1139 C1138 1.400 . S
C1139 C1140 1.398 . S
C1139 C1145 1.491 . S
C1140 H1131 0.950 . S
C1140 C1139 1.398 . S
C1140 C1141 1.391 . S
C1141 H1129 0.950 . S
C1141 C1137 1.393 . S
C1141 C1140 1.391 . S
C1142 H1132 0.950 . S
C1142 C1143 1.386 . S
C1142 C1144 1.391 . S
C1143 C1142 1.386 . S
C1143 C1147 1.393 . S
C1144 H1133 0.950 . S
C1144 C1142 1.391 . S
C1144 C1145 1.400 . S
C1145 C1139 1.491 . S
C1145 C1144 1.400 . S
C1145 C1146 1.398 . S
C1146 H1134 0.950 . S
C1146 C1145 1.398 . S
C1146 C1147 1.391 . S
C1147 H1135 0.950 . S
C1147 C1143 1.393 . S
C1147 C1146 1.391 . S
H1148 C1156 0.950 . S
H1149 C1161 0.950 . S
H1150 C1158 0.950 . S
H1151 C1160 0.950 . S
H1152 C1162 0.950 . S
H1153 C1164 0.950 . S
H1154 C1166 0.950 . S
H1155 C1167 0.950 . S
C1156 H1148 0.950 . S
C1156 C1157 1.386 . S
C1156 C1158 1.391 . S
C1157 C1156 1.386 . S
C1157 C1161 1.393 . S
C1158 H1150 0.950 . S
C1158 C1156 1.391 . S
C1158 C1159 1.400 . S
C1159 C1158 1.400 . S
C1159 C1160 1.398 . S
C1159 C1165 1.491 . S
C1160 H1151 0.950 . S
C1160 C1159 1.398 . S
C1160 C1161 1.391 . S
C1161 H1149 0.950 . S
C1161 C1157 1.393 . S
C1161 C1160 1.391 . S
C1162 H1152 0.950 . S
C1162 C1163 1.386 . S
C1162 C1164 1.391 . S
C1163 C1162 1.386 . S
C1163 C1167 1.393 . S
C1164 H1153 0.950 . S
C1164 C1162 1.391 . S
C1164 C1165 1.400 . S
C1165 C1159 1.491 . S
C1165 C1164 1.400 . S
C1165 C1166 1.398 . S
C1166 H1154 0.950 . S
C1166 C1165 1.398 . S
C1166 C1167 1.391 . S
C1167 H1155 0.950 . S
C1167 C1163 1.393 . S
C1167 C1166 1.391 . S
H1168 C1176 0.948 1_455 S
H1169 C1181 0.950 . S
H1170 C1178 0.950 . S
H1171 C1180 0.950 . S
H1172 C1182 0.950 . S
H1173 C1184 0.950 . S
H1174 C1186 0.950 . S
H1175 C1187 0.950 . S
C1176 H1168 0.948 1_655 S
C1176 C1177 1.386 . S
C1176 C1178 1.391 . S
C1177 C1176 1.386 . S
C1177 C1181 1.393 . S
C1178 H1170 0.950 . S
C1178 C1176 1.391 . S
C1178 C1179 1.400 . S
C1179 C1178 1.400 . S
C1179 C1180 1.398 . S
C1179 C1185 1.491 . S
C1180 H1171 0.950 . S
C1180 C1179 1.398 . S
C1180 C1181 1.391 . S
C1181 H1169 0.950 . S
C1181 C1177 1.393 . S
C1181 C1180 1.391 . S
C1182 H1172 0.950 . S
C1182 C1183 1.386 . S
C1182 C1184 1.391 . S
C1183 C1182 1.386 . S
C1183 C1187 1.393 . S
C1184 H1173 0.950 . S
C1184 C1182 1.391 . S
C1184 C1185 1.400 . S
C1185 C1179 1.491 . S
C1185 C1184 1.400 . S
C1185 C1186 1.398 . S
C1186 H1174 0.950 . S
C1186 C1185 1.398 . S
C1186 C1187 1.391 . S
C1187 H1175 0.950 . S
C1187 C1183 1.393 . S
C1187 C1186 1.391 . S
H1188 C1196 0.950 . S
H1189 C1201 0.950 . S
H1190 C1198 0.950 . S
H1191 C1200 0.950 . S
H1192 C1202 0.950 . S
H1193 C1204 0.950 . S
H1194 C1206 0.950 . S
H1195 C1207 0.950 . S
C1196 H1188 0.950 . S
C1196 C1197 1.386 . S
C1196 C1198 1.391 . S
C1197 C1196 1.386 . S
C1197 C1201 1.393 . S
C1198 H1190 0.950 . S
C1198 C1196 1.391 . S
C1198 C1199 1.400 . S
C1199 C1198 1.400 . S
C1199 C1200 1.398 . S
C1199 C1205 1.491 . S
C1200 H1191 0.950 . S
C1200 C1199 1.398 . S
C1200 C1201 1.391 . S
C1201 H1189 0.950 . S
C1201 C1197 1.393 . S
C1201 C1200 1.391 . S
C1202 H1192 0.950 . S
C1202 C1203 1.386 . S
C1202 C1204 1.391 . S
C1203 C1202 1.386 . S
C1203 C1207 1.393 . S
C1204 H1193 0.950 . S
C1204 C1202 1.391 . S
C1204 C1205 1.400 . S
C1205 C1199 1.491 . S
C1205 C1204 1.400 . S
C1205 C1206 1.398 . S
C1206 H1194 0.950 . S
C1206 C1205 1.398 . S
C1206 C1207 1.391 . S
C1207 H1195 0.950 . S
C1207 C1203 1.393 . S
C1207 C1206 1.391 . S
H1208 C1216 0.950 . S
H1209 C1221 0.950 . S
H1210 C1218 0.950 . S
H1211 C1220 0.950 . S
H1212 C1222 0.950 . S
H1213 C1224 0.950 . S
H1214 C1226 0.950 . S
H1215 C1227 0.950 . S
C1216 H1208 0.950 . S
C1216 C1217 1.386 . S
C1216 C1218 1.391 . S
C1217 C1216 1.386 . S
C1217 C1221 1.393 . S
C1218 H1210 0.950 . S
C1218 C1216 1.391 . S
C1218 C1219 1.400 . S
C1219 C1218 1.400 . S
C1219 C1220 1.398 . S
C1219 C1225 1.491 . S
C1220 H1211 0.950 . S
C1220 C1219 1.398 . S
C1220 C1221 1.391 . S
C1221 H1209 0.950 . S
C1221 C1217 1.393 . S
C1221 C1220 1.391 . S
C1222 H1212 0.950 . S
C1222 C1223 1.386 . S
C1222 C1224 1.391 . S
C1223 C1222 1.386 . S
C1223 C1227 1.393 . S
C1224 H1213 0.950 . S
C1224 C1222 1.391 . S
C1224 C1225 1.400 . S
C1225 C1219 1.491 . S
C1225 C1224 1.400 . S
C1225 C1226 1.398 . S
C1226 H1214 0.950 . S
C1226 C1225 1.398 . S
C1226 C1227 1.391 . S
C1227 H1215 0.950 . S
C1227 C1223 1.393 . S
C1227 C1226 1.391 . S
H1228 C1236 0.950 1_455 S
H1229 C1241 0.950 1_554 S
H1230 C1238 0.950 . S
H1231 C1240 0.950 . S
H1232 C1242 0.950 . S
H1233 C1244 0.950 . S
H1234 C1246 0.950 . S
H1235 C1247 0.950 . S
C1236 H1228 0.950 1_655 S
C1236 C1237 1.386 . S
C1236 C1238 1.391 . S
C1237 C1236 1.386 . S
C1237 C1241 1.393 . S
C1238 H1230 0.950 . S
C1238 C1236 1.391 . S
C1238 C1239 1.400 . S
C1239 C1238 1.400 . S
C1239 C1240 1.398 . S
C1239 C1245 1.491 . S
C1240 H1231 0.950 . S
C1240 C1239 1.398 . S
C1240 C1241 1.391 . S
C1241 H1229 0.950 1_556 S
C1241 C1237 1.393 . S
C1241 C1240 1.391 . S
C1242 H1232 0.950 . S
C1242 C1243 1.386 . S
C1242 C1244 1.391 . S
C1243 C1242 1.386 . S
C1243 C1247 1.393 . S
C1244 H1233 0.950 . S
C1244 C1242 1.391 . S
C1244 C1245 1.400 . S
C1245 C1239 1.491 . S
C1245 C1244 1.400 . S
C1245 C1246 1.398 . S
C1246 H1234 0.950 . S
C1246 C1245 1.398 . S
C1246 C1247 1.391 . S
C1247 H1235 0.950 . S
C1247 C1243 1.393 . S
C1247 C1246 1.391 . S
H1248 C1256 0.950 . S
H1249 C1261 0.950 . S
H1250 C1258 0.950 . S
H1251 C1260 0.950 . S
H1252 C1262 0.950 1_554 S
H1253 C1264 0.950 . S
H1254 C1266 0.950 . S
H1255 C1267 0.950 . S
C1256 H1248 0.950 . S
C1256 C1257 1.386 . S
C1256 C1258 1.391 . S
C1257 C1256 1.386 . S
C1257 C1261 1.393 . S
C1258 H1250 0.950 . S
C1258 C1256 1.391 . S
C1258 C1259 1.400 . S
C1259 C1258 1.400 . S
C1259 C1260 1.398 . S
C1259 C1265 1.491 . S
C1260 H1251 0.950 . S
C1260 C1259 1.398 . S
C1260 C1261 1.391 . S
C1261 H1249 0.950 . S
C1261 C1257 1.393 . S
C1261 C1260 1.391 . S
C1262 H1252 0.950 1_556 S
C1262 C1263 1.386 . S
C1262 C1264 1.391 . S
C1263 C1262 1.386 . S
C1263 C1267 1.393 . S
C1264 H1253 0.950 . S
C1264 C1262 1.391 . S
C1264 C1265 1.400 . S
C1265 C1259 1.491 . S
C1265 C1264 1.400 . S
C1265 C1266 1.398 . S
C1266 H1254 0.950 . S
C1266 C1265 1.398 . S
C1266 C1267 1.391 . S
C1267 H1255 0.950 . S
C1267 C1263 1.393 . S
C1267 C1266 1.391 . S
H1268 C1276 0.950 . S
H1269 C1281 0.950 . S
H1270 C1278 0.950 . S
H1271 C1280 0.950 . S
H1272 C1282 0.950 . S
H1273 C1284 0.950 . S
H1274 C1286 0.950 . S
H1275 C1287 0.950 . S
C1276 H1268 0.950 . S
C1276 C1277 1.386 . S
C1276 C1278 1.391 . S
C1277 C1276 1.386 . S
C1277 C1281 1.393 . S
C1278 H1270 0.950 . S
C1278 C1276 1.391 . S
C1278 C1279 1.400 . S
C1279 C1278 1.400 . S
C1279 C1280 1.398 . S
C1279 C1285 1.491 . S
C1280 H1271 0.950 . S
C1280 C1279 1.398 . S
C1280 C1281 1.391 . S
C1281 H1269 0.950 . S
C1281 C1277 1.393 . S
C1281 C1280 1.391 . S
C1282 H1272 0.950 . S
C1282 C1283 1.386 . S
C1282 C1284 1.391 . S
C1283 C1282 1.386 . S
C1283 C1287 1.393 . S
C1284 H1273 0.950 . S
C1284 C1282 1.391 . S
C1284 C1285 1.400 . S
C1285 C1279 1.491 . S
C1285 C1284 1.400 . S
C1285 C1286 1.398 . S
C1286 H1274 0.950 . S
C1286 C1285 1.398 . S
C1286 C1287 1.391 . S
C1287 H1275 0.950 . S
C1287 C1283 1.393 . S
C1287 C1286 1.391 . S
H1288 C1296 0.950 . S
H1289 C1301 0.950 . S
H1290 C1298 0.950 . S
H1291 C1300 0.950 . S
H1292 C1302 0.950 . S
H1293 C1304 0.950 . S
H1294 C1306 0.950 . S
H1295 C1307 0.950 . S
C1296 H1288 0.950 . S
C1296 C1297 1.386 . S
C1296 C1298 1.391 . S
C1297 C1296 1.386 . S
C1297 C1301 1.393 . S
C1298 H1290 0.950 . S
C1298 C1296 1.391 . S
C1298 C1299 1.400 . S
C1299 C1298 1.400 . S
C1299 C1300 1.398 . S
C1299 C1305 1.491 . S
C1300 H1291 0.950 . S
C1300 C1299 1.398 . S
C1300 C1301 1.391 . S
C1301 H1289 0.950 . S
C1301 C1297 1.393 . S
C1301 C1300 1.391 . S
C1302 H1292 0.950 . S
C1302 C1303 1.386 . S
C1302 C1304 1.391 . S
C1303 C1302 1.386 . S
C1303 C1307 1.393 . S
C1304 H1293 0.950 . S
C1304 C1302 1.391 . S
C1304 C1305 1.400 . S
C1305 C1299 1.491 . S
C1305 C1304 1.400 . S
C1305 C1306 1.398 . S
C1306 H1294 0.950 . S
C1306 C1305 1.398 . S
C1306 C1307 1.391 . S
C1307 H1295 0.950 . S
C1307 C1303 1.393 . S
C1307 C1306 1.391 . S
H1308 C1316 0.950 . S
H1309 C1321 0.950 . S
H1310 C1318 0.950 . S
H1311 C1320 0.950 . S
H1312 C1322 0.950 1_556 S
H1313 C1324 0.950 . S
H1314 C1326 0.950 . S
H1315 C1327 0.950 . S
C1316 H1308 0.950 . S
C1316 C1317 1.386 . S
C1316 C1318 1.391 . S
C1317 C1316 1.386 . S
C1317 C1321 1.393 . S
C1318 H1310 0.950 . S
C1318 C1316 1.391 . S
C1318 C1319 1.400 . S
C1319 C1318 1.400 . S
C1319 C1320 1.398 . S
C1319 C1325 1.491 . S
C1320 H1311 0.950 . S
C1320 C1319 1.398 . S
C1320 C1321 1.391 . S
C1321 H1309 0.950 . S
C1321 C1317 1.393 . S
C1321 C1320 1.391 . S
C1322 H1312 0.950 1_554 S
C1322 C1323 1.386 . S
C1322 C1324 1.391 . S
C1323 C1322 1.386 . S
C1323 C1327 1.393 . S
C1324 H1313 0.950 . S
C1324 C1322 1.391 . S
C1324 C1325 1.400 . S
C1325 C1319 1.491 . S
C1325 C1324 1.400 . S
C1325 C1326 1.398 . S
C1326 H1314 0.950 . S
C1326 C1325 1.398 . S
C1326 C1327 1.391 . S
C1327 H1315 0.950 . S
C1327 C1323 1.393 . S
C1327 C1326 1.391 . S
C537 C17 1.237 . S
C543 C149 1.238 . S
C557 C182 1.268 . S
C563 C50 1.268 . S
C577 C215 1.263 . S
C583 C83 1.261 . S
C597 C116 1.244 . S
C603 C248 1.242 . S
C617 C281 1.241 . S
C623 C347 1.239 . S
C637 C380 1.237 . S
C643 C314 1.236 . S
C657 C413 1.241 . S
C663 C479 1.239 . S
C677 C446 1.265 . S
C683 C512 1.264 . S
C697 N14 1.300 . S
C703 N179 1.295 1_554 S
C717 N212 1.290 . S
C723 N47 1.293 . S
C737 N245 1.291 . S
C743 N80 1.295 . S
C757 N113 1.293 1_556 S
C763 N146 1.297 . S
C777 C140 1.949 . S
C783 C338 1.949 1_556 S
C797 C74 1.954 . S
C803 C272 1.954 . S
C817 C206 1.951 . S
C823 C371 1.949 . S
C837 C8 1.954 . S
C843 C305 1.954 1_554 S
C857 N410 1.322 . S
C863 N278 1.322 . S
C877 N344 1.311 1_556 S
C883 N509 1.316 . S
C897 N311 1.296 1_554 S
C903 N443 1.292 . S
C917 N377 1.291 . S
C923 N476 1.294 . S
C937 C470 1.949 . S
C943 C41 1.949 . S
C957 C173 1.954 1_554 S
C963 C437 1.954 . S
C977 C107 1.949 1_556 S
C983 C503 1.949 . S
C997 C404 1.951 . S
C1003 C239 1.953 . S
C1017 C193 1.675 . S
C1023 C28 1.676 . S
C1037 C226 1.677 1_556 S
C1043 C61 1.678 . S
C1057 C94 1.674 1_554 S
C1063 C259 1.674 . S
C1077 C127 1.679 . S
C1083 C160 1.678 . S
C1097 N137 0.654 . S
C1103 N335 0.622 . S
C1117 N269 0.648 . S
C1123 N71 0.669 . S
C1137 N368 0.663 . S
C1143 N203 0.670 . S
C1157 N5 0.617 . S
C1163 N302 0.650 . S
C1177 C424 1.683 1_554 S
C1183 C292 1.683 . S
C1197 C358 1.677 . S
C1203 C523 1.677 . S
C1217 C457 1.683 . S
C1223 C325 1.683 . S
C1237 C490 1.681 1_556 S
C1243 C391 1.682 . S
C1257 N38 0.610 . S
C1263 N467 0.642 . S
C1277 N170 0.640 . S
C1283 N434 0.665 . S
C1297 N500 0.621 . S
C1303 N104 0.593 . S
C1317 N236 0.599 . S
C1323 N401 0.630 . S
