# Generated by pormake.
# Topology afw, (4)-cn, num edge types: 1
# Building blocks:
#     Node 0, Type 0, BuildingBlock: CEKHIL_clean_sbu_0, # of connection points: 4
#     Node 1, Type 0, BuildingBlock: CEKHIL_clean_sbu_0, # of connection points: 4
#     Node 2, Type 0, BuildingBlock: CEKHIL_clean_sbu_0, # of connection points: 4
#     Node 3, Type 0, BuildingBlock: CEKHIL_clean_sbu_0, # of connection points: 4
#     Node 4, Type 0, BuildingBlock: CEKHIL_clean_sbu_0, # of connection points: 4
#     Node 5, Type 0, BuildingBlock: CEKHIL_clean_sbu_0, # of connection points: 4
#     Node 6, Type 0, BuildingBlock: CEKHIL_clean_sbu_0, # of connection points: 4
#     Node 7, Type 0, BuildingBlock: CEKHIL_clean_sbu_0, # of connection points: 4
#     Node 8, Type 0, BuildingBlock: CEKHIL_clean_sbu_0, # of connection points: 4
#     Edge 9, Type (0, 0), BuildingBlock: FUNLAD_clean_linker_0, # of connection points: 2
#     Edge 10, Type (0, 0), BuildingBlock: FUNLAD_clean_linker_0, # of connection points: 2
#     Edge 11, Type (0, 0), BuildingBlock: FUNLAD_clean_linker_0, # of connection points: 2
#     Edge 12, Type (0, 0), BuildingBlock: FUNLAD_clean_linker_0, # of connection points: 2
#     Edge 13, Type (0, 0), BuildingBlock: FUNLAD_clean_linker_0, # of connection points: 2
#     Edge 14, Type (0, 0), BuildingBlock: FUNLAD_clean_linker_0, # of connection points: 2
#     Edge 15, Type (0, 0), BuildingBlock: FUNLAD_clean_linker_0, # of connection points: 2
#     Edge 16, Type (0, 0), BuildingBlock: FUNLAD_clean_linker_0, # of connection points: 2
#     Edge 17, Type (0, 0), BuildingBlock: FUNLAD_clean_linker_0, # of connection points: 2
#     Edge 18, Type (0, 0), BuildingBlock: FUNLAD_clean_linker_0, # of connection points: 2
#     Edge 19, Type (0, 0), BuildingBlock: FUNLAD_clean_linker_0, # of connection points: 2
#     Edge 20, Type (0, 0), BuildingBlock: FUNLAD_clean_linker_0, # of connection points: 2
#     Edge 21, Type (0, 0), BuildingBlock: FUNLAD_clean_linker_0, # of connection points: 2
#     Edge 22, Type (0, 0), BuildingBlock: FUNLAD_clean_linker_0, # of connection points: 2
#     Edge 23, Type (0, 0), BuildingBlock: FUNLAD_clean_linker_0, # of connection points: 2
#     Edge 24, Type (0, 0), BuildingBlock: FUNLAD_clean_linker_0, # of connection points: 2
#     Edge 25, Type (0, 0), BuildingBlock: FUNLAD_clean_linker_0, # of connection points: 2
#     Edge 26, Type (0, 0), BuildingBlock: FUNLAD_clean_linker_0, # of connection points: 2
# Relax obj value: 0.199
# Max RMSD: 0.208
# Mean RMSD: 0.200
data_MOF--net-afw--node1-CEKHIL_clean_sbu_0--edge1-FUNLAD_clean_linker_0
_symmetry_space_group_name_H-M    P1
_symmetry_Int_Tables_number       1
_symmetry_cell_setting            triclinic
loop_
_symmetry_equiv_pos_as_xyz
'x, y, z'
_cell_length_a     49.611035
_cell_length_b     50.089232
_cell_length_c     36.164824
_cell_angle_alpha  90.579144
_cell_angle_beta   90.856268
_cell_angle_gamma 120.05585
loop_
_atom_site_label
_atom_site_type_symbol
_atom_site_fract_x
_atom_site_fract_y
_atom_site_fract_z
_atom_type_partial_charge
Co0 Co 0.02953 0.22383 0.00937 0.0
O1 O 0.04743 0.26548 0.99227 0.0
O2 O 0.00179 0.22655 0.97338 0.0
C3 C 0.07282 0.22016 0.00452 0.0
O4 O 0.00405 0.17763 0.01909 0.0
Co5 Co 0.05414 0.20841 0.08092 0.0
O6 O 0.03066 0.16572 0.0602 0.0
C7 C 0.0145 0.23678 0.08652 0.0
C8 C 0.0228 0.25555 0.97102 0.0
C9 C 0.00868 0.15786 0.03634 0.0
O10 O 0.0093 0.23367 0.05128 0.0
O11 O 0.03327 0.23005 0.10305 0.0
O12 O 0.05518 0.2158 0.97553 0.0
O13 O 0.06534 0.22926 0.03415 0.0
Co14 Co 0.82217 0.81807 0.04602 0.0
O15 O 0.80953 0.78061 0.07186 0.0
O16 O 0.78905 0.81073 0.0796 0.0
C17 C 0.87358 0.83715 0.05336 0.0
O18 O 0.83153 0.85968 0.02547 0.0
Co19 Co 0.85951 0.82932 0.97372 0.0
O20 O 0.86713 0.87182 0.98121 0.0
C21 C 0.79237 0.78537 0.97244 0.0
C22 C 0.78994 0.7861 0.0888 0.0
C23 C 0.8514 0.8789 0.00269 0.0
O24 O 0.79057 0.79454 0.00522 0.0
O25 O 0.81821 0.79447 0.95624 0.0
O26 O 0.85788 0.84019 0.07991 0.0
O27 O 0.85723 0.81986 0.02568 0.0
Co28 Co 0.20772 0.0128 0.9977 0.0
O29 O 0.21461 0.9812 0.97779 0.0
O30 O 0.23672 0.02915 0.9577 0.0
C31 C 0.15571 0.98368 -0.00059 0.0
O32 O 0.20434 0.05079 0.00985 0.0
Co33 Co 0.17813 0.00521 0.07492 0.0
O34 O 0.17343 0.04042 0.05886 0.0
C35 C 0.24283 0.01864 0.06937 0.0
C36 C 0.23266 0.00147 0.95431 0.0
C37 C 0.18822 0.05737 0.03186 0.0
O38 O 0.24286 0.02506 0.03498 0.0
O39 O 0.21845 0.00755 0.08905 0.0
O40 O 0.16903 0.99639 0.96872 0.0
O41 O 0.1742 0.98658 0.02658 0.0
Co42 Co 0.63652 0.52612 0.33711 0.0
O43 O 0.6081 0.53674 0.35943 0.0
O44 O 0.65834 0.55799 0.37419 0.0
C45 C 0.606 0.47451 0.33902 0.0
O46 O 0.67269 0.5204 0.32263 0.0
Co47 Co 0.62194 0.49149 0.2617 0.0
O48 O 0.65809 0.48642 0.27516 0.0
C49 C 0.64035 0.55718 0.26359 0.0
C50 C 0.63174 0.55629 0.3799 0.0
C51 C 0.67746 0.50286 0.30078 0.0
O52 O 0.64678 0.55826 0.29835 0.0
O53 O 0.62794 0.53209 0.24429 0.0
O54 O 0.6217 0.49019 0.36828 0.0
O55 O 0.60659 0.49071 0.31105 0.0
Co56 Co 0.49278 0.131 0.3619 0.0
O57 O 0.47605 0.08935 0.37789 0.0
O58 O 0.45765 0.12003 0.3934 0.0
C59 C 0.54343 0.1472 0.37254 0.0
O60 O 0.50506 0.17565 0.35158 0.0
Co61 Co 0.53519 0.15265 0.29328 0.0
O62 O 0.54308 0.1939 0.30973 0.0
C63 C 0.46785 0.11185 0.28258 0.0
C64 C 0.45559 0.09315 0.39556 0.0
C65 C 0.52618 0.19789 0.33286 0.0
O66 O 0.46414 0.11557 0.31701 0.0
O67 O 0.49466 0.12261 0.2682 0.0
O68 O 0.52602 0.14617 0.39965 0.0
O69 O 0.52879 0.13466 0.34175 0.0
Co70 Co 0.87792 0.38029 0.32885 0.0
O71 O 0.92133 0.40128 0.34328 0.0
O72 O 0.88458 0.35783 0.36733 0.0
C73 C 0.87144 0.42165 0.32898 0.0
O74 O 0.83111 0.35245 0.32307 0.0
Co75 Co 0.85372 0.39383 0.2557 0.0
O76 O 0.81201 0.36858 0.27728 0.0
C77 C 0.88488 0.3567 0.25371 0.0
C78 C 0.91363 0.37944 0.36703 0.0
C79 C 0.80817 0.35123 0.30459 0.0
O80 O 0.88558 0.35629 0.28932 0.0
O81 O 0.87517 0.37212 0.23543 0.0
O82 O 0.87097 0.40831 0.3598 0.0
O83 O 0.87908 0.41174 0.30015 0.0
Co84 Co 0.36471 0.88245 0.67304 0.0
O85 O 0.38486 0.92279 0.65246 0.0
O86 O 0.33727 0.88542 0.63659 0.0
C87 C 0.40515 0.87415 0.66932 0.0
O88 O 0.33719 0.83746 0.6879 0.0
Co89 Co 0.39043 0.87244 0.74747 0.0
O90 O 0.36261 0.82831 0.7337 0.0
C91 C 0.35889 0.90878 0.74602 0.0
C92 C 0.35967 0.91373 0.63263 0.0
C93 C 0.34065 0.81893 0.70942 0.0
O94 O 0.3481 0.89801 0.71331 0.0
O95 O 0.37864 0.90371 0.76306 0.0
O96 O 0.38717 0.86921 0.64047 0.0
O97 O 0.40008 0.88694 0.69742 0.0
Co98 Co 0.13811 0.47193 0.68977 0.0
O99 O 0.11686 0.4309 0.70872 0.0
O100 O 0.10609 0.46749 0.72349 0.0
C101 C 0.18671 0.48027 0.69902 0.0
O102 O 0.15661 0.51756 0.67696 0.0
Co103 Co 0.17965 0.48621 0.62053 0.0
O104 O 0.19499 0.52943 0.63667 0.0
C105 C 0.11109 0.45202 0.61179 0.0
C106 C 0.10057 0.43944 0.72802 0.0
C107 C 0.18031 0.53737 0.65873 0.0
O108 O 0.10802 0.45777 0.64583 0.0
O109 O 0.13738 0.45917 0.59787 0.0
O110 O 0.17208 0.4842 0.72614 0.0
O111 O 0.17047 0.46858 0.66898 0.0
Co112 Co 0.52606 0.65337 0.69524 0.0
O113 O 0.53654 0.62306 0.67927 0.0
O114 O 0.55478 0.66934 0.65517 0.0
C115 C 0.47443 0.62126 0.69776 0.0
O116 O 0.51936 0.68992 0.70226 0.0
Co117 Co 0.49548 0.64926 0.77095 0.0
O118 O 0.48814 0.68171 0.75035 0.0
C119 C 0.56154 0.66645 0.768 0.0
C120 C 0.55353 0.64279 0.65462 0.0
C121 C 0.50242 0.69696 0.72209 0.0
O122 O 0.56137 0.67036 0.7329 0.0
O123 O 0.537 0.65542 0.78739 0.0
O124 O 0.48721 0.63248 0.6663 0.0
O125 O 0.49341 0.62746 0.72554 0.0
C126 C 0.17131 0.09472 0.0509 0.0
C127 C 0.18482 0.08458 0.02443 0.0
C128 C 0.16409 0.11756 0.04253 0.0
C129 C 0.17039 0.13106 0.00745 0.0
C130 C 0.18481 0.12166 0.98136 0.0
C131 C 0.1922 0.09882 0.98982 0.0
C132 C 0.15909 0.15233 0.99631 0.0
C133 C 0.15393 0.16948 0.02105 0.0
C134 C 0.13636 0.18571 0.01293 0.0
C135 C 0.13571 0.20526 0.04056 0.0
C136 C 0.11595 0.21742 0.03704 0.0
C137 C 0.09638 0.2104 0.00568 0.0
H138 H 0.11689 0.1644 0.95893 0.0
C139 C 0.09799 0.19211 0.97709 0.0
C140 C 0.11766 0.17971 0.98071 0.0
H141 H 0.08306 0.18623 0.95266 0.0
H142 H 0.16525 0.08425 0.07781 0.0
H143 H 0.15213 0.12332 0.06311 0.0
H144 H 0.18964 0.13145 0.95403 0.0
H145 H 0.20243 0.09142 0.9687 0.0
H146 H 0.15405 0.1529 0.96713 0.0
H147 H 0.16187 0.17075 0.04952 0.0
H148 H 0.14973 0.21027 0.0657 0.0
H149 H 0.11534 0.23161 0.05946 0.0
C150 C 0.85072 0.92424 0.0327 0.0
C151 C 0.85858 0.91144 0.00281 0.0
C152 C 0.86263 0.95621 0.03539 0.0
C153 C 0.88277 0.9758 0.00848 0.0
C154 C 0.88852 0.96272 0.97723 0.0
C155 C 0.87661 0.93097 0.97444 0.0
C156 C 0.8994 0.0098 0.01443 0.0
C157 C 0.92974 0.02718 0.0063 0.0
C158 C 0.94886 0.06069 0.01467 0.0
C159 C 0.98039 0.07281 0.02433 0.0
C160 C -0.00041 0.1043 0.03164 0.0
C161 C 0.98788 0.12456 0.02845 0.0
H162 H 0.91281 0.07216 0.00346 0.0
C163 C 0.95641 0.11261 0.01805 0.0
C164 C 0.93692 0.08082 0.01158 0.0
H165 H 0.94681 0.12775 0.01538 0.0
H166 H 0.83677 0.90985 0.05492 0.0
H167 H 0.85756 0.96577 0.05952 0.0
H168 H 0.90309 0.97714 0.95539 0.0
H169 H 0.88261 0.9219 0.9506 0.0
H170 H 0.88765 0.0201 0.0288 0.0
H171 H 0.94199 0.0159 0.99568 0.0
H172 H 0.99019 0.0578 0.02654 0.0
H173 H 0.0238 0.11288 0.03926 0.0
C174 C 0.92341 0.85121 0.02286 0.0
C175 C 0.90777 0.85526 0.05246 0.0
C176 C 0.95564 0.8693 0.02066 0.0
C177 C 0.97289 0.89206 0.04791 0.0
C178 C 0.95733 0.89551 0.07806 0.0
C179 C 0.92499 0.87736 0.08027 0.0
C180 C 0.00716 0.91169 0.04619 0.0
C181 C 0.02233 0.91874 0.01403 0.0
C182 C 0.0567 0.93662 0.01167 0.0
C183 C 0.06994 0.95069 0.97819 0.0
C184 C 0.1022 0.96633 0.97421 0.0
C185 C 0.12176 0.96798 0.00364 0.0
H186 H 0.06718 0.92701 0.06698 0.0
C187 C 0.1086 0.95403 0.03717 0.0
C188 C 0.0764 0.93837 0.04114 0.0
H189 H 0.12314 0.95476 0.06025 0.0
H190 H 0.91075 0.83408 0.00124 0.0
H191 H 0.96692 0.86506 0.99779 0.0
H192 H 0.97017 0.9126 0.09967 0.0
H193 H 0.91348 0.88089 0.10347 0.0
H194 H 0.01991 0.92131 0.07209 0.0
H195 H 0.00909 0.91165 0.98807 0.0
H196 H 0.05528 0.94944 0.95496 0.0
H197 H 0.11175 0.97687 0.94802 0.0
C198 C 0.84033 0.44413 0.3544 0.0
C199 C 0.85702 0.44109 0.32524 0.0
C200 C 0.8225 0.45831 0.34877 0.0
C201 C 0.82132 0.47001 0.31387 0.0
C202 C 0.8394 0.46836 0.28542 0.0
C203 C 0.85709 0.45411 0.29103 0.0
C204 C 0.79908 0.48079 0.30468 0.0
C205 C 0.78437 0.48842 0.33004 0.0
C206 C 0.75848 0.49404 0.32021 0.0
C207 C 0.75181 0.51206 0.34415 0.0
C208 C 0.72604 0.51569 0.33727 0.0
C209 C 0.7061 0.50098 0.30648 0.0
H210 H 0.74254 0.46478 0.27059 0.0
C211 C 0.71301 0.48321 0.28228 0.0
C212 C 0.73883 0.4797 0.28908 0.0
H213 H 0.69809 0.47139 0.25845 0.0
H214 H 0.83973 0.43418 0.38104 0.0
H215 H 0.80852 0.45846 0.37132 0.0
H216 H 0.83895 0.47711 0.25827 0.0
H217 H 0.86987 0.45225 0.26806 0.0
H218 H 0.7941 0.48171 0.27552 0.0
H219 H 0.79117 0.49052 0.35905 0.0
H220 H 0.76635 0.52307 0.36852 0.0
H221 H 0.72138 0.52945 0.35663 0.0
C222 C 0.55178 0.25318 0.31457 0.0
C223 C 0.53136 0.22958 0.33787 0.0
C224 C 0.5574 0.28322 0.31915 0.0
C225 C 0.54266 0.29055 0.34711 0.0
C226 C 0.52254 0.26716 0.37075 0.0
C227 C 0.51673 0.2369 0.36603 0.0
C228 C 0.54932 0.32272 0.35323 0.0
C229 C 0.55736 0.34299 0.32555 0.0
C230 C 0.56736 0.37618 0.33089 0.0
C231 C 0.56645 0.39278 0.30029 0.0
C232 C 0.57822 0.42459 0.30314 0.0
C233 C 0.59149 0.44057 0.33664 0.0
H234 H 0.58204 0.38041 0.38867 0.0
C235 C 0.592 0.42397 0.36748 0.0
C236 C 0.58011 0.39211 0.36468 0.0
H237 H 0.60222 0.43568 0.39365 0.0
H238 H 0.56372 0.24857 0.29276 0.0
H239 H 0.57394 0.30077 0.30122 0.0
H240 H 0.51122 0.27229 0.39285 0.0
H241 H 0.50107 0.21938 0.38467 0.0
H242 H 0.54706 0.32954 0.38108 0.0
H243 H 0.5565 0.33497 0.2973 0.0
H244 H 0.55701 0.38117 0.27385 0.0
H245 H 0.57753 0.43674 0.27886 0.0
C246 C 0.59493 0.16941 0.34276 0.0
C247 C 0.57754 0.16754 0.37389 0.0
C248 C 0.62624 0.19199 0.34116 0.0
C249 C 0.64081 0.21322 0.37066 0.0
C250 C 0.6241 0.20997 0.40288 0.0
C251 C 0.59259 0.18739 0.40443 0.0
C252 C 0.67303 0.23937 0.36767 0.0
C253 C 0.68344 0.25401 0.3355 0.0
C254 C 0.71534 0.28023 0.33026 0.0
C255 C 0.72051 0.29958 0.30018 0.0
C256 C 0.7505 0.32316 0.29241 0.0
C257 C 0.77611 0.32771 0.31439 0.0
H258 H 0.73791 0.27032 0.37577 0.0
C259 C 0.77087 0.30868 0.34497 0.0
C260 C 0.74082 0.28515 0.35282 0.0
H261 H 0.79007 0.31152 0.3625 0.0
H262 H 0.58409 0.15411 0.31903 0.0
H263 H 0.63887 0.19316 0.31649 0.0
H264 H 0.63501 0.2258 0.42617 0.0
H265 H 0.57977 0.18634 0.42888 0.0
H266 H 0.68742 0.24783 0.3927 0.0
H267 H 0.66745 0.24706 0.3118 0.0
H268 H 0.70129 0.2962 0.28228 0.0
H269 H 0.75362 0.33736 0.26867 0.0
C270 C 0.42426 0.8393 0.64665 0.0
C271 C 0.42596 0.86117 0.67257 0.0
C272 C 0.44085 0.82389 0.65289 0.0
C273 C 0.45969 0.83039 0.68506 0.0
C274 C 0.46248 0.85342 0.70986 0.0
C275 C 0.44582 0.86864 0.70371 0.0
C276 C 0.47377 0.8115 0.69618 0.0
C277 C 0.47708 0.79196 0.67342 0.0
C278 C 0.48592 0.76957 0.68741 0.0
C279 C 0.50097 0.75891 0.66402 0.0
C280 C 0.50737 0.73607 0.6757 0.0
C281 C 0.4983 0.72306 0.71083 0.0
H282 H 0.46475 0.76375 0.74116 0.0
C283 C 0.4835 0.73399 0.73433 0.0
C284 C 0.47733 0.75691 0.72277 0.0
H285 H 0.47604 0.7244 0.76147 0.0
H286 H 0.40899 0.83301 0.62248 0.0
H287 H 0.4375 0.80594 0.63336 0.0
H288 H 0.47673 0.85889 0.73486 0.0
H289 H 0.44773 0.88555 0.72407 0.0
H290 H 0.48091 0.81319 0.72507 0.0
H291 H 0.47297 0.79193 0.64387 0.0
H292 H 0.50749 0.76803 0.63651 0.0
H293 H 0.51861 0.72802 0.65677 0.0
C294 C 0.29046 0.77245 0.68635 0.0
C295 C 0.31943 0.78509 0.70522 0.0
C296 C 0.27152 0.74033 0.68165 0.0
C297 C 0.28153 0.72042 0.69528 0.0
C298 C 0.3103 0.73312 0.71422 0.0
C299 C 0.32884 0.76493 0.71946 0.0
C300 C 0.26436 0.68666 0.68758 0.0
C301 C 0.23315 0.66905 0.68388 0.0
C302 C 0.21821 0.63534 0.67579 0.0
C303 C 0.19027 0.61434 0.69263 0.0
C304 C 0.17744 0.5824 0.68692 0.0
C305 C 0.1921 0.571 0.66374 0.0
H306 H 0.25315 0.63948 0.63729 0.0
C307 C 0.21932 0.5923 0.64573 0.0
C308 C 0.23214 0.62393 0.65163 0.0
H309 H 0.23122 0.58462 0.62734 0.0
H310 H 0.28256 0.78735 0.675 0.0
H311 H 0.2497 0.73123 0.66626 0.0
H312 H 0.31869 0.71835 0.72471 0.0
H313 H 0.35107 0.77372 0.73386 0.0
H314 H 0.27833 0.6755 0.68643 0.0
H315 H 0.21845 0.67904 0.68869 0.0
H316 H 0.1789 0.6226 0.71107 0.0
H317 H 0.15635 0.56671 0.70103 0.0
C318 C 0.2395 0.51463 0.72753 0.0
C319 C 0.22073 0.49354 0.6996 0.0
C320 C 0.27195 0.52962 0.72558 0.0
C321 C 0.28616 0.52342 0.6958 0.0
C322 C 0.26721 0.50174 0.66847 0.0
C323 C 0.23487 0.48696 0.67033 0.0
C324 C 0.32039 0.54008 0.69085 0.0
C325 C 0.34145 0.55625 0.71789 0.0
C326 C 0.37548 0.57297 0.71178 0.0
C327 C 0.39576 0.57823 0.74192 0.0
C328 C 0.42792 0.5938 0.73727 0.0
C329 C 0.44045 0.60468 0.70238 0.0
H330 H 0.37329 0.5818 0.6533 0.0
C331 C 0.42027 0.59995 0.67229 0.0
C332 C 0.38808 0.58437 0.67693 0.0
H333 H 0.42933 0.60846 0.6452 0.0
H334 H 0.22916 0.52039 0.75018 0.0
H335 H 0.28553 0.5467 0.74679 0.0
H336 H 0.27744 0.49655 0.6452 0.0
H337 H 0.22094 0.47079 0.64838 0.0
H338 H 0.32848 0.53808 0.66378 0.0
H339 H 0.33391 0.55617 0.7459 0.0
H340 H 0.38669 0.57 0.7691 0.0
H341 H 0.44294 0.59728 0.76106 0.0
C342 C 0.04212 0.30763 0.94402 0.0
C343 C 0.02018 0.27593 0.94359 0.0
C344 C 0.04234 0.32641 0.91557 0.0
C345 C 0.02056 0.31387 0.88593 0.0
C346 C -0.00212 0.28241 0.88631 0.0
C347 C -0.00249 0.26365 0.91498 0.0
C348 C 0.02357 0.33183 0.85214 0.0
C349 C 0.03884 0.36294 0.85159 0.0
C350 C 0.04904 0.38082 0.8169 0.0
C351 C 0.05715 0.41205 0.81746 0.0
C352 C 0.07194 0.43088 0.78734 0.0
C353 C 0.07939 0.41888 0.75639 0.0
H354 H 0.04973 0.34482 0.78342 0.0
C355 C 0.06985 0.38733 0.75503 0.0
C356 C 0.05484 0.36849 0.78484 0.0
H357 H 0.0753 0.37742 0.73153 0.0
H358 H 0.05991 0.3178 0.96569 0.0
H359 H 0.06072 0.35031 0.916 0.0
H360 H 0.98099 0.27206 0.86372 0.0
H361 H 0.98033 0.23929 0.91382 0.0
H362 H 0.01404 0.31876 0.82646 0.0
H363 H 0.04567 0.37602 0.87752 0.0
H364 H 0.05319 0.42223 0.84187 0.0
H365 H 0.0792 0.45517 0.78926 0.0
C366 C 0.76421 0.75299 0.91635 0.0
C367 C 0.7632 0.76453 0.95161 0.0
C368 C 0.7369 0.73524 0.89543 0.0
C369 C 0.70797 0.72889 0.90922 0.0
C370 C 0.70682 0.73921 0.94508 0.0
C371 C 0.73412 0.7569 0.96606 0.0
C372 C 0.67857 0.71203 0.88706 0.0
C373 C 0.67743 0.71069 0.84977 0.0
C374 C 0.64773 0.69699 0.828 0.0
C375 C 0.64784 0.70727 0.79197 0.0
C376 C 0.61994 0.69675 0.77184 0.0
C377 C 0.59142 0.67578 0.78749 0.0
H378 H 0.61832 0.66495 0.8696 0.0
C379 C 0.5915 0.66435 0.82279 0.0
C380 C 0.61932 0.67459 0.84269 0.0
H381 H 0.56996 0.64756 0.83525 0.0
H382 H 0.78616 0.75794 0.9046 0.0
H383 H 0.7387 0.72667 0.86855 0.0
H384 H 0.68479 0.7343 0.95657 0.0
H385 H 0.73241 0.76516 0.99323 0.0
H386 H 0.65709 0.70282 0.90219 0.0
H387 H 0.69883 0.7224 0.83447 0.0
H388 H 0.66945 0.7242 0.77978 0.0
H389 H 0.62065 0.70579 0.74456 0.0
C390 C 0.32027 0.92674 0.75361 0.0
C391 C 0.34787 0.92762 0.76521 0.0
C392 C 0.30917 0.94331 0.77324 0.0
C393 C 0.32567 0.96128 0.8046 0.0
C394 C 0.35403 0.96345 0.81494 0.0
C395 C 0.3649 0.94656 0.7957 0.0
C396 C 0.31307 0.97652 0.82834 0.0
C397 C 0.28257 0.96281 0.8356 0.0
C398 C 0.2702 0.97388 0.86532 0.0
C399 C 0.24526 0.9519 0.88565 0.0
C400 C 0.23358 0.96104 0.91489 0.0
C401 C 0.24612 0.99246 0.92391 0.0
H402 H 0.30168 0.0229 0.85841 0.0
C403 C 0.27064 0.01463 0.90307 0.0
C404 C 0.28278 0.00541 0.8741 0.0
H405 H 0.28053 0.03901 0.90929 0.0
H406 H 0.30682 0.91266 0.72996 0.0
H407 H 0.28756 0.94181 0.76408 0.0
H408 H 0.36725 0.97733 0.83884 0.0
H409 H 0.38654 0.94818 0.80495 0.0
H410 H 0.32955 0.99705 0.84406 0.0
H411 H 0.26663 0.94053 0.82273 0.0
H412 H 0.23514 0.9275 0.87932 0.0
H413 H 0.21441 0.94341 0.93017 0.0
C414 C 0.4425 0.08992 0.22056 0.0
C415 C 0.43981 0.09529 0.25822 0.0
C416 C 0.41611 0.07554 0.19727 0.0
C417 C 0.38644 0.06645 0.21113 0.0
C418 C 0.38372 0.07102 0.24894 0.0
C419 C 0.41005 0.08529 0.27223 0.0
C420 C 0.35769 0.05228 0.18748 0.0
C421 C 0.35735 0.05393 0.15028 0.0
C422 C 0.32802 0.04229 0.12806 0.0
C423 C 0.32883 0.05554 0.09374 0.0
C424 C 0.30126 0.04715 0.07378 0.0
C425 C 0.27236 0.02536 0.08792 0.0
H426 H 0.29763 0.007 0.16619 0.0
C427 C 0.27173 0.01085 0.1212 0.0
C428 C 0.29922 0.01896 0.14086 0.0
H429 H 0.24988 0.99338 0.13236 0.0
H430 H 0.46503 0.09697 0.20893 0.0
H431 H 0.41925 0.07157 0.16863 0.0
H432 H 0.36115 0.06399 0.2605 0.0
H433 H 0.40701 0.08884 0.30111 0.0
H434 H 0.33581 0.04203 0.20191 0.0
H435 H 0.37904 0.06647 0.13574 0.0
H436 H 0.35075 0.07322 0.08294 0.0
H437 H 0.3025 0.05854 0.04804 0.0
C438 C 0.9785 0.25819 0.09289 0.0
C439 C -0.00184 0.24879 0.10934 0.0
C440 C 0.96381 0.27021 0.11458 0.0
C441 C 0.96831 0.27286 0.15331 0.0
C442 C 0.98788 0.26341 0.16964 0.0
C443 C 0.00254 0.25142 0.14802 0.0
C444 C 0.95453 0.28686 0.17748 0.0
C445 C 0.92935 0.28896 0.16784 0.0
C446 C 0.91738 0.3052 0.19104 0.0
C447 C 0.90154 0.31833 0.17349 0.0
C448 C 0.89096 0.33491 0.19387 0.0
C449 C 0.89561 0.33843 0.23249 0.0
H450 H 0.93254 0.29726 0.2445 0.0
C451 C 0.91061 0.32443 0.2503 0.0
C452 C 0.92138 0.30796 0.2298 0.0
H453 H 0.91428 0.32639 0.28004 0.0
H454 H 0.97478 0.25672 0.06317 0.0
H455 H 0.94973 0.27809 0.10063 0.0
H456 H 0.99196 0.26538 0.19933 0.0
H457 H 0.0175 0.24443 0.16175 0.0
H458 H 0.96606 0.29614 0.2041 0.0
H459 H 0.91776 0.27983 0.14123 0.0
H460 H 0.89786 0.31628 0.14374 0.0
H461 H 0.87919 0.34504 0.17921 0.0
C462 C 0.6657 0.61493 0.26413 0.0
C463 C 0.64925 0.58655 0.24471 0.0
C464 C 0.67675 0.64275 0.24568 0.0
C465 C 0.67165 0.64283 0.20733 0.0
C466 C 0.6536 0.61458 0.18835 0.0
C467 C 0.64266 0.58671 0.20675 0.0
C468 C 0.68654 0.67176 0.18598 0.0
C469 C 0.71518 0.69521 0.19504 0.0
C470 C 0.73385 0.72054 0.1695 0.0
C471 C 0.76571 0.73071 0.16726 0.0
C472 C 0.78385 0.75251 0.14139 0.0
C473 C 0.77074 0.76539 0.11803 0.0
H474 H 0.69626 0.72683 0.1484 0.0
C475 C 0.73922 0.75658 0.12145 0.0
C476 C 0.72072 0.73395 0.14677 0.0
H477 H 0.72867 0.76622 0.10359 0.0
H478 H 0.67082 0.61575 0.29348 0.0
H479 H 0.68974 0.66414 0.26141 0.0
H480 H 0.64909 0.61401 0.15886 0.0
H481 H 0.62975 0.56533 0.19096 0.0
H482 H 0.67581 0.67196 0.15963 0.0
H483 H 0.72729 0.69349 0.21938 0.0
H484 H 0.77638 0.72085 0.18458 0.0
H485 H 0.80817 0.75911 0.13938 0.0
C486 C 0.08779 0.43647 0.54825 0.0
C487 C 0.08346 0.43732 0.58647 0.0
C488 C 0.06252 0.42352 0.52354 0.0
C489 C 0.03191 0.41049 0.53628 0.0
C490 C 0.02744 0.41127 0.57452 0.0
C491 C 0.05297 0.42454 0.59945 0.0
C492 C 0.00462 0.39831 0.51019 0.0
C493 C 0.00576 0.39096 0.47449 0.0
C494 C 0.98129 0.38562 0.44677 0.0
C495 C 0.99045 0.39809 0.41155 0.0
C496 C 0.96837 0.39575 0.38541 0.0
C497 C 0.93663 0.38004 0.39368 0.0
H498 H 0.94175 0.35887 0.48158 0.0
C499 C 0.92725 0.36619 0.42829 0.0
C500 C 0.94946 0.36923 0.45485 0.0
H501 H 0.90285 0.35389 0.43527 0.0
H502 H 0.11092 0.44645 0.53705 0.0
H503 H 0.06754 0.42488 0.49444 0.0
H504 H 0.00417 0.40181 0.58513 0.0
H505 H 0.04881 0.42485 0.62872 0.0
H506 H 0.98352 0.39715 0.52021 0.0
H507 H 0.02649 0.39179 0.46393 0.0
H508 H 0.01488 0.41063 0.40469 0.0
H509 H 0.97614 0.4064 0.35881 0.0
C510 C 0.59821 0.56718 0.4207 0.0
C511 C 0.6281 0.5744 0.40978 0.0
C512 C 0.59449 0.58212 0.45126 0.0
C513 C 0.62063 0.60472 0.47136 0.0
C514 C 0.65054 0.6132 0.45927 0.0
C515 C 0.65428 0.59792 0.42892 0.0
C516 C 0.61685 0.61903 0.50542 0.0
C517 C 0.59488 0.60197 0.52983 0.0
C518 C 0.58861 0.61456 0.56376 0.0
C519 C 0.57305 0.59427 0.59247 0.0
C520 C 0.56311 0.60398 0.62298 0.0
C521 C 0.56819 0.63417 0.62519 0.0
H522 H 0.60646 0.66139 0.54479 0.0
C523 C 0.58488 0.65494 0.59721 0.0
C524 C 0.59503 0.64525 0.56671 0.0
H525 H 0.58906 0.67834 0.59813 0.0
H526 H 0.57761 0.54934 0.40631 0.0
H527 H 0.57113 0.57576 0.45937 0.0
H528 H 0.67098 0.63083 0.47412 0.0
H529 H 0.67762 0.60415 0.42086 0.0
H530 H 0.63329 0.64323 0.51129 0.0
H531 H 0.58086 0.57717 0.525 0.0
H532 H 0.56778 0.57051 0.59084 0.0
H533 H 0.55034 0.58743 0.6441 0.0
C534 C 0.3754 0.96704 0.61413 0.0
C535 C 0.35741 0.93518 0.60688 0.0
C536 C 0.37698 0.98806 0.58807 0.0
C537 C 0.36127 0.97771 0.55382 0.0
C538 C 0.34164 0.94577 0.54737 0.0
C539 C 0.33957 0.92463 0.57391 0.0
C540 C 0.36853 0.00087 0.52468 0.0
C541 C 0.37131 0.99492 0.48899 0.0
C542 C 0.38945 0.01978 0.46246 0.0
C543 C 0.40594 0.01413 0.43528 0.0
C544 C 0.42687 0.03788 0.4131 0.0
C545 C 0.43142 0.0678 0.41717 0.0
H546 H 0.37968 0.05431 0.48522 0.0
C547 C 0.41351 0.07315 0.44272 0.0
C548 C 0.39271 0.04934 0.46528 0.0
H549 H 0.41625 0.09589 0.44609 0.0
H550 H 0.389 0.97579 0.63962 0.0
H551 H 0.39202 0.01249 0.5939 0.0
H552 H 0.32859 0.93708 0.52155 0.0
H553 H 0.32533 0.90015 0.56786 0.0
H554 H 0.37744 0.02458 0.53393 0.0
H555 H 0.36499 0.97157 0.48059 0.0
H556 H 0.40372 0.99155 0.43228 0.0
H557 H 0.43996 0.03289 0.39324 0.0
loop_
_geom_bond_atom_site_label_1
_geom_bond_atom_site_label_2
_geom_bond_distance
_geom_bond_site_symmetry_2
_ccdc_geom_bond_type
Co0 O1 2.216 1_554 S
Co0 O2 2.091 1_554 S
Co0 O4 2.004 1_454 S
Co0 O10 2.021 1_455 S
Co0 O12 2.137 1_554 S
Co0 O13 2.244 . S
O1 Co0 2.216 1_556 S
O1 C8 1.247 . S
O2 Co0 2.091 1_556 S
O2 C8 1.261 . S
C3 O12 1.247 1_554 S
C3 O13 1.272 . S
O4 Co0 2.004 1_656 S
O4 C9 1.259 1_556 S
Co5 O6 2.061 1_455 S
Co5 O11 2.052 . S
Co5 O13 2.135 . S
O6 Co5 2.061 1_655 S
O6 C9 1.235 . S
C7 O10 1.238 . S
C7 O11 1.241 1_655 S
C8 O1 1.247 . S
C8 O2 1.261 . S
C9 O4 1.259 1_554 S
C9 O6 1.235 . S
O10 Co0 2.021 1_655 S
O10 C7 1.238 . S
O11 Co5 2.052 . S
O11 C7 1.241 1_455 S
O12 Co0 2.137 1_556 S
O12 C3 1.247 1_556 S
O13 Co0 2.244 . S
O13 C3 1.272 . S
O13 Co5 2.135 . S
Co14 O15 2.216 . S
Co14 O16 2.091 . S
Co14 O18 2.004 . S
Co14 O24 2.021 . S
Co14 O26 2.137 . S
Co14 O27 2.244 1_554 S
O15 Co14 2.216 . S
O15 C22 1.247 . S
O16 Co14 2.091 . S
O16 C22 1.261 . S
C17 O26 1.247 . S
C17 O27 1.272 1_554 S
O18 Co14 2.004 . S
O18 C23 1.259 . S
Co19 O20 2.061 . S
Co19 O25 2.052 . S
Co19 O27 2.135 . S
O20 Co19 2.061 . S
O20 C23 1.235 1_556 S
C21 O24 1.238 1_556 S
C21 O25 1.241 . S
C22 O15 1.247 . S
C22 O16 1.261 . S
C23 O18 1.259 . S
C23 O20 1.235 1_554 S
O24 Co14 2.021 . S
O24 C21 1.238 1_554 S
O25 Co19 2.052 . S
O25 C21 1.241 . S
O26 Co14 2.137 . S
O26 C17 1.247 . S
O27 Co14 2.244 1_556 S
O27 C17 1.272 1_556 S
O27 Co19 2.135 . S
Co28 O29 2.216 1_545 S
Co28 O30 2.089 . S
Co28 O32 2.004 . S
Co28 O38 2.022 1_556 S
Co28 O40 2.137 1_545 S
Co28 O41 2.245 1_546 S
O29 Co28 2.216 1_565 S
O29 C36 1.247 . S
O30 Co28 2.089 . S
O30 C36 1.261 1_545 S
C31 O40 1.247 1_554 S
C31 O41 1.272 . S
O32 Co28 2.004 . S
O32 C37 1.259 1_556 S
Co33 O34 2.061 . S
Co33 O39 2.052 . S
Co33 O41 2.135 1_545 S
O34 Co33 2.061 . S
O34 C37 1.235 . S
C35 O38 1.238 . S
C35 O39 1.241 . S
C36 O29 1.247 . S
C36 O30 1.261 1_565 S
C37 O32 1.259 1_554 S
C37 O34 1.235 . S
O38 Co28 2.022 1_554 S
O38 C35 1.238 . S
O39 Co33 2.052 . S
O39 C35 1.241 . S
O40 Co28 2.137 1_565 S
O40 C31 1.247 1_556 S
O41 Co28 2.245 1_564 S
O41 C31 1.272 . S
O41 Co33 2.135 1_565 S
Co42 O43 2.216 . S
Co42 O44 2.091 . S
Co42 O46 2.004 . S
Co42 O52 2.021 . S
Co42 O54 2.137 . S
Co42 O55 2.244 . S
O43 Co42 2.216 . S
O43 C50 1.247 . S
O44 Co42 2.091 . S
O44 C50 1.261 . S
C45 O54 1.247 . S
C45 O55 1.272 . S
O46 Co42 2.004 . S
O46 C51 1.259 . S
Co47 O48 2.061 . S
Co47 O53 2.052 . S
Co47 O55 2.135 . S
O48 Co47 2.061 . S
O48 C51 1.235 . S
C49 O52 1.238 . S
C49 O53 1.241 . S
C50 O43 1.247 . S
C50 O44 1.261 . S
C51 O46 1.259 . S
C51 O48 1.235 . S
O52 Co42 2.021 . S
O52 C49 1.238 . S
O53 Co47 2.052 . S
O53 C49 1.241 . S
O54 Co42 2.137 . S
O54 C45 1.247 . S
O55 Co42 2.244 . S
O55 C45 1.272 . S
O55 Co47 2.135 . S
Co56 O57 2.216 . S
Co56 O58 2.091 . S
Co56 O60 2.004 . S
Co56 O66 2.021 . S
Co56 O68 2.137 . S
Co56 O69 2.244 . S
O57 Co56 2.216 . S
O57 C64 1.247 . S
O58 Co56 2.091 . S
O58 C64 1.261 . S
C59 O68 1.247 . S
C59 O69 1.272 . S
O60 Co56 2.004 . S
O60 C65 1.259 . S
Co61 O62 2.061 . S
Co61 O67 2.052 . S
Co61 O69 2.135 . S
O62 Co61 2.061 . S
O62 C65 1.235 . S
C63 O66 1.238 . S
C63 O67 1.241 . S
C64 O57 1.247 . S
C64 O58 1.261 . S
C65 O60 1.259 . S
C65 O62 1.235 . S
O66 Co56 2.021 . S
O66 C63 1.238 . S
O67 Co61 2.052 . S
O67 C63 1.241 . S
O68 Co56 2.137 . S
O68 C59 1.247 . S
O69 Co56 2.244 . S
O69 C59 1.272 . S
O69 Co61 2.135 . S
Co70 O71 2.216 . S
Co70 O72 2.091 . S
Co70 O74 2.004 . S
Co70 O80 2.021 . S
Co70 O82 2.137 . S
Co70 O83 2.244 . S
O71 Co70 2.216 . S
O71 C78 1.247 . S
O72 Co70 2.091 . S
O72 C78 1.261 . S
C73 O82 1.247 . S
C73 O83 1.272 . S
O74 Co70 2.004 . S
O74 C79 1.259 . S
Co75 O76 2.061 . S
Co75 O81 2.052 . S
Co75 O83 2.135 . S
O76 Co75 2.061 . S
O76 C79 1.235 . S
C77 O80 1.238 . S
C77 O81 1.241 . S
C78 O71 1.247 . S
C78 O72 1.261 . S
C79 O74 1.259 . S
C79 O76 1.235 . S
O80 Co70 2.021 . S
O80 C77 1.238 . S
O81 Co75 2.052 . S
O81 C77 1.241 . S
O82 Co70 2.137 . S
O82 C73 1.247 . S
O83 Co70 2.244 . S
O83 C73 1.272 . S
O83 Co75 2.135 . S
Co84 O85 2.216 . S
Co84 O86 2.091 . S
Co84 O88 2.004 . S
Co84 O94 2.021 . S
Co84 O96 2.137 . S
Co84 O97 2.244 . S
O85 Co84 2.216 . S
O85 C92 1.247 . S
O86 Co84 2.091 . S
O86 C92 1.261 . S
C87 O96 1.247 . S
C87 O97 1.272 . S
O88 Co84 2.004 . S
O88 C93 1.259 . S
Co89 O90 2.061 . S
Co89 O95 2.052 . S
Co89 O97 2.135 . S
O90 Co89 2.061 . S
O90 C93 1.235 . S
C91 O94 1.238 . S
C91 O95 1.241 . S
C92 O85 1.247 . S
C92 O86 1.261 . S
C93 O88 1.259 . S
C93 O90 1.235 . S
O94 Co84 2.021 . S
O94 C91 1.238 . S
O95 Co89 2.052 . S
O95 C91 1.241 . S
O96 Co84 2.137 . S
O96 C87 1.247 . S
O97 Co84 2.244 . S
O97 C87 1.272 . S
O97 Co89 2.135 . S
Co98 O99 2.216 . S
Co98 O100 2.091 . S
Co98 O102 2.004 . S
Co98 O108 2.021 . S
Co98 O110 2.137 . S
Co98 O111 2.244 . S
O99 Co98 2.216 . S
O99 C106 1.247 . S
O100 Co98 2.091 . S
O100 C106 1.261 . S
C101 O110 1.247 . S
C101 O111 1.272 . S
O102 Co98 2.004 . S
O102 C107 1.259 . S
Co103 O104 2.061 . S
Co103 O109 2.052 . S
Co103 O111 2.135 . S
O104 Co103 2.061 . S
O104 C107 1.235 . S
C105 O108 1.238 . S
C105 O109 1.241 . S
C106 O99 1.247 . S
C106 O100 1.261 . S
C107 O102 1.259 . S
C107 O104 1.235 . S
O108 Co98 2.021 . S
O108 C105 1.238 . S
O109 Co103 2.052 . S
O109 C105 1.241 . S
O110 Co98 2.137 . S
O110 C101 1.247 . S
O111 Co98 2.244 . S
O111 C101 1.272 . S
O111 Co103 2.135 . S
Co112 O113 2.216 . S
Co112 O114 2.091 . S
Co112 O116 2.004 . S
Co112 O122 2.021 . S
Co112 O124 2.137 . S
Co112 O125 2.244 . S
O113 Co112 2.216 . S
O113 C120 1.247 . S
O114 Co112 2.091 . S
O114 C120 1.261 . S
C115 O124 1.247 . S
C115 O125 1.272 . S
O116 Co112 2.004 . S
O116 C121 1.259 . S
Co117 O118 2.061 . S
Co117 O123 2.052 . S
Co117 O125 2.135 . S
O118 Co117 2.061 . S
O118 C121 1.235 . S
C119 O122 1.238 . S
C119 O123 1.241 . S
C120 O113 1.247 . S
C120 O114 1.261 . S
C121 O116 1.259 . S
C121 O118 1.235 . S
O122 Co112 2.021 . S
O122 C119 1.238 . S
O123 Co117 2.052 . S
O123 C119 1.241 . S
O124 Co112 2.137 . S
O124 C115 1.247 . S
O125 Co112 2.244 . S
O125 C115 1.272 . S
O125 Co117 2.135 . S
C126 C127 1.386 . S
C126 C128 1.383 . S
C126 H142 0.951 . S
C127 C126 1.386 . S
C127 C131 1.383 1_554 S
C128 C126 1.383 . S
C128 C129 1.402 . S
C128 H143 0.951 . S
C129 C128 1.402 . S
C129 C130 1.375 1_554 S
C129 C132 1.481 . S
C130 C129 1.375 1_556 S
C130 C131 1.367 . S
C130 H144 0.951 . S
C131 C127 1.383 1_556 S
C131 C130 1.367 . S
C131 H145 0.950 . S
C132 C129 1.481 . S
C132 C133 1.297 . S
C132 H146 0.950 1_554 S
C133 C132 1.297 . S
C133 C134 1.479 . S
C133 H147 0.950 . S
C134 C133 1.479 . S
C134 C135 1.375 . S
C134 C140 1.404 . S
C135 C134 1.375 . S
C135 C136 1.369 . S
C135 H148 0.950 . S
C136 C135 1.369 . S
C136 C137 1.392 . S
C136 H149 0.951 . S
C137 C136 1.392 . S
C137 C139 1.384 . S
H138 C140 0.949 1_556 S
C139 C137 1.384 . S
C139 C140 1.385 . S
C139 H141 0.950 1_554 S
C140 C134 1.404 . S
C140 H138 0.949 1_554 S
C140 C139 1.385 . S
H141 C139 0.950 1_556 S
H142 C126 0.951 . S
H143 C128 0.951 . S
H144 C130 0.951 . S
H145 C131 0.950 . S
H146 C132 0.950 1_556 S
H147 C133 0.950 . S
H148 C135 0.950 . S
H149 C136 0.951 . S
C150 C151 1.386 . S
C150 C152 1.383 . S
C150 H166 0.951 . S
C151 C150 1.386 . S
C151 C155 1.383 1_554 S
C152 C150 1.383 . S
C152 C153 1.402 . S
C152 H167 0.951 . S
C153 C152 1.402 . S
C153 C154 1.375 1_554 S
C153 C156 1.481 1_565 S
C154 C153 1.375 1_556 S
C154 C155 1.367 . S
C154 H168 0.951 . S
C155 C151 1.383 1_556 S
C155 C154 1.367 . S
C155 H169 0.950 . S
C156 C153 1.481 1_545 S
C156 C157 1.297 . S
C156 H170 0.950 1_554 S
C157 C156 1.297 . S
C157 C158 1.479 . S
C157 H171 0.950 . S
C158 C157 1.479 . S
C158 C159 1.375 . S
C158 C164 1.404 1_554 S
C159 C158 1.375 . S
C159 C160 1.369 . S
C159 H172 0.950 . S
C160 C159 1.369 . S
C160 C161 1.392 . S
C160 H173 0.951 . S
C161 C160 1.392 . S
C161 C163 1.384 1_554 S
H162 C164 0.949 . S
C163 C161 1.384 1_556 S
C163 C164 1.385 . S
C163 H165 0.950 . S
C164 C158 1.404 1_556 S
C164 H162 0.949 . S
C164 C163 1.385 . S
H165 C163 0.950 . S
H166 C150 0.951 . S
H167 C152 0.951 . S
H168 C154 0.951 . S
H169 C155 0.950 . S
H170 C156 0.950 1_556 S
H171 C157 0.950 . S
H172 C159 0.950 . S
H173 C160 0.951 . S
C174 C175 1.386 . S
C174 C176 1.383 . S
C174 H190 0.951 1_554 S
C175 C174 1.386 . S
C175 C179 1.383 . S
C176 C174 1.383 . S
C176 C177 1.402 . S
C176 H191 0.951 1_554 S
C177 C176 1.402 . S
C177 C178 1.375 . S
C177 C180 1.481 1_655 S
C178 C177 1.375 . S
C178 C179 1.367 . S
C178 H192 0.951 . S
C179 C175 1.383 . S
C179 C178 1.367 . S
C179 H193 0.950 . S
C180 C177 1.481 1_455 S
C180 C181 1.297 1_554 S
C180 H194 0.950 . S
C181 C180 1.297 1_556 S
C181 C182 1.479 1_556 S
C181 H195 0.950 . S
C182 C181 1.479 1_554 S
C182 C183 1.375 1_554 S
C182 C188 1.404 . S
C183 C182 1.375 1_556 S
C183 C184 1.369 . S
C183 H196 0.950 . S
C184 C183 1.369 . S
C184 C185 1.392 1_556 S
C184 H197 0.951 . S
C185 C184 1.392 1_554 S
C185 C187 1.384 . S
H186 C188 0.949 . S
C187 C185 1.384 . S
C187 C188 1.385 . S
C187 H189 0.950 . S
C188 C182 1.404 . S
C188 H186 0.949 . S
C188 C187 1.385 . S
H189 C187 0.950 . S
H190 C174 0.951 1_556 S
H191 C176 0.951 1_556 S
H192 C178 0.951 . S
H193 C179 0.950 . S
H194 C180 0.950 . S
H195 C181 0.950 . S
H196 C183 0.950 . S
H197 C184 0.951 . S
C198 C199 1.386 . S
C198 C200 1.383 . S
C198 H214 0.951 . S
C199 C198 1.386 . S
C199 C203 1.383 . S
C200 C198 1.383 . S
C200 C201 1.402 . S
C200 H215 0.951 . S
C201 C200 1.402 . S
C201 C202 1.375 . S
C201 C204 1.481 . S
C202 C201 1.375 . S
C202 C203 1.367 . S
C202 H216 0.951 . S
C203 C199 1.383 . S
C203 C202 1.367 . S
C203 H217 0.950 . S
C204 C201 1.481 . S
C204 C205 1.297 . S
C204 H218 0.950 . S
C205 C204 1.297 . S
C205 C206 1.479 . S
C205 H219 0.950 . S
C206 C205 1.479 . S
C206 C207 1.375 . S
C206 C212 1.404 . S
C207 C206 1.375 . S
C207 C208 1.369 . S
C207 H220 0.950 . S
C208 C207 1.369 . S
C208 C209 1.392 . S
C208 H221 0.951 . S
C209 C208 1.392 . S
C209 C211 1.384 . S
H210 C212 0.949 . S
C211 C209 1.384 . S
C211 C212 1.385 . S
C211 H213 0.950 . S
C212 C206 1.404 . S
C212 H210 0.949 . S
C212 C211 1.385 . S
H213 C211 0.950 . S
H214 C198 0.951 . S
H215 C200 0.951 . S
H216 C202 0.951 . S
H217 C203 0.950 . S
H218 C204 0.950 . S
H219 C205 0.950 . S
H220 C207 0.950 . S
H221 C208 0.951 . S
C222 C223 1.386 . S
C222 C224 1.383 . S
C222 H238 0.951 . S
C223 C222 1.386 . S
C223 C227 1.383 . S
C224 C222 1.383 . S
C224 C225 1.402 . S
C224 H239 0.951 . S
C225 C224 1.402 . S
C225 C226 1.375 . S
C225 C228 1.481 . S
C226 C225 1.375 . S
C226 C227 1.367 . S
C226 H240 0.951 . S
C227 C223 1.383 . S
C227 C226 1.367 . S
C227 H241 0.950 . S
C228 C225 1.481 . S
C228 C229 1.297 . S
C228 H242 0.950 . S
C229 C228 1.297 . S
C229 C230 1.479 . S
C229 H243 0.950 . S
C230 C229 1.479 . S
C230 C231 1.375 . S
C230 C236 1.404 . S
C231 C230 1.375 . S
C231 C232 1.369 . S
C231 H244 0.950 . S
C232 C231 1.369 . S
C232 C233 1.392 . S
C232 H245 0.951 . S
C233 C232 1.392 . S
C233 C235 1.384 . S
H234 C236 0.949 . S
C235 C233 1.384 . S
C235 C236 1.385 . S
C235 H237 0.950 . S
C236 C230 1.404 . S
C236 H234 0.949 . S
C236 C235 1.385 . S
H237 C235 0.950 . S
H238 C222 0.951 . S
H239 C224 0.951 . S
H240 C226 0.951 . S
H241 C227 0.950 . S
H242 C228 0.950 . S
H243 C229 0.950 . S
H244 C231 0.950 . S
H245 C232 0.951 . S
C246 C247 1.386 . S
C246 C248 1.383 . S
C246 H262 0.951 . S
C247 C246 1.386 . S
C247 C251 1.383 . S
C248 C246 1.383 . S
C248 C249 1.402 . S
C248 H263 0.951 . S
C249 C248 1.402 . S
C249 C250 1.375 . S
C249 C252 1.481 . S
C250 C249 1.375 . S
C250 C251 1.367 . S
C250 H264 0.951 . S
C251 C247 1.383 . S
C251 C250 1.367 . S
C251 H265 0.950 . S
C252 C249 1.481 . S
C252 C253 1.297 . S
C252 H266 0.950 . S
C253 C252 1.297 . S
C253 C254 1.479 . S
C253 H267 0.950 . S
C254 C253 1.479 . S
C254 C255 1.375 . S
C254 C260 1.404 . S
C255 C254 1.375 . S
C255 C256 1.369 . S
C255 H268 0.950 . S
C256 C255 1.369 . S
C256 C257 1.392 . S
C256 H269 0.951 . S
C257 C256 1.392 . S
C257 C259 1.384 . S
H258 C260 0.949 . S
C259 C257 1.384 . S
C259 C260 1.385 . S
C259 H261 0.950 . S
C260 C254 1.404 . S
C260 H258 0.949 . S
C260 C259 1.385 . S
H261 C259 0.950 . S
H262 C246 0.951 . S
H263 C248 0.951 . S
H264 C250 0.951 . S
H265 C251 0.950 . S
H266 C252 0.950 . S
H267 C253 0.950 . S
H268 C255 0.950 . S
H269 C256 0.951 . S
C270 C271 1.386 . S
C270 C272 1.383 . S
C270 H286 0.951 . S
C271 C270 1.386 . S
C271 C275 1.383 . S
C272 C270 1.383 . S
C272 C273 1.402 . S
C272 H287 0.951 . S
C273 C272 1.402 . S
C273 C274 1.375 . S
C273 C276 1.481 . S
C274 C273 1.375 . S
C274 C275 1.367 . S
C274 H288 0.951 . S
C275 C271 1.383 . S
C275 C274 1.367 . S
C275 H289 0.950 . S
C276 C273 1.481 . S
C276 C277 1.297 . S
C276 H290 0.950 . S
C277 C276 1.297 . S
C277 C278 1.479 . S
C277 H291 0.950 . S
C278 C277 1.479 . S
C278 C279 1.375 . S
C278 C284 1.404 . S
C279 C278 1.375 . S
C279 C280 1.369 . S
C279 H292 0.950 . S
C280 C279 1.369 . S
C280 C281 1.392 . S
C280 H293 0.951 . S
C281 C280 1.392 . S
C281 C283 1.384 . S
H282 C284 0.949 . S
C283 C281 1.384 . S
C283 C284 1.385 . S
C283 H285 0.950 . S
C284 C278 1.404 . S
C284 H282 0.949 . S
C284 C283 1.385 . S
H285 C283 0.950 . S
H286 C270 0.951 . S
H287 C272 0.951 . S
H288 C274 0.951 . S
H289 C275 0.950 . S
H290 C276 0.950 . S
H291 C277 0.950 . S
H292 C279 0.950 . S
H293 C280 0.951 . S
C294 C295 1.386 . S
C294 C296 1.383 . S
C294 H310 0.951 . S
C295 C294 1.386 . S
C295 C299 1.383 . S
C296 C294 1.383 . S
C296 C297 1.402 . S
C296 H311 0.951 . S
C297 C296 1.402 . S
C297 C298 1.375 . S
C297 C300 1.481 . S
C298 C297 1.375 . S
C298 C299 1.367 . S
C298 H312 0.951 . S
C299 C295 1.383 . S
C299 C298 1.367 . S
C299 H313 0.950 . S
C300 C297 1.481 . S
C300 C301 1.297 . S
C300 H314 0.950 . S
C301 C300 1.297 . S
C301 C302 1.479 . S
C301 H315 0.950 . S
C302 C301 1.479 . S
C302 C303 1.375 . S
C302 C308 1.404 . S
C303 C302 1.375 . S
C303 C304 1.369 . S
C303 H316 0.950 . S
C304 C303 1.369 . S
C304 C305 1.392 . S
C304 H317 0.951 . S
C305 C304 1.392 . S
C305 C307 1.384 . S
H306 C308 0.949 . S
C307 C305 1.384 . S
C307 C308 1.385 . S
C307 H309 0.950 . S
C308 C302 1.404 . S
C308 H306 0.949 . S
C308 C307 1.385 . S
H309 C307 0.950 . S
H310 C294 0.951 . S
H311 C296 0.951 . S
H312 C298 0.951 . S
H313 C299 0.950 . S
H314 C300 0.950 . S
H315 C301 0.950 . S
H316 C303 0.950 . S
H317 C304 0.951 . S
C318 C319 1.386 . S
C318 C320 1.383 . S
C318 H334 0.951 . S
C319 C318 1.386 . S
C319 C323 1.383 . S
C320 C318 1.383 . S
C320 C321 1.402 . S
C320 H335 0.951 . S
C321 C320 1.402 . S
C321 C322 1.375 . S
C321 C324 1.481 . S
C322 C321 1.375 . S
C322 C323 1.367 . S
C322 H336 0.951 . S
C323 C319 1.383 . S
C323 C322 1.367 . S
C323 H337 0.950 . S
C324 C321 1.481 . S
C324 C325 1.297 . S
C324 H338 0.950 . S
C325 C324 1.297 . S
C325 C326 1.479 . S
C325 H339 0.950 . S
C326 C325 1.479 . S
C326 C327 1.375 . S
C326 C332 1.404 . S
C327 C326 1.375 . S
C327 C328 1.369 . S
C327 H340 0.950 . S
C328 C327 1.369 . S
C328 C329 1.392 . S
C328 H341 0.951 . S
C329 C328 1.392 . S
C329 C331 1.384 . S
H330 C332 0.949 . S
C331 C329 1.384 . S
C331 C332 1.385 . S
C331 H333 0.950 . S
C332 C326 1.404 . S
C332 H330 0.949 . S
C332 C331 1.385 . S
H333 C331 0.950 . S
H334 C318 0.951 . S
H335 C320 0.951 . S
H336 C322 0.951 . S
H337 C323 0.950 . S
H338 C324 0.950 . S
H339 C325 0.950 . S
H340 C327 0.950 . S
H341 C328 0.951 . S
C342 C343 1.386 . S
C342 C344 1.383 . S
C342 H358 0.951 . S
C343 C342 1.386 . S
C343 C347 1.383 . S
C344 C342 1.383 . S
C344 C345 1.402 . S
C344 H359 0.951 . S
C345 C344 1.402 . S
C345 C346 1.375 . S
C345 C348 1.481 . S
C346 C345 1.375 . S
C346 C347 1.367 . S
C346 H360 0.951 . S
C347 C343 1.383 . S
C347 C346 1.367 . S
C347 H361 0.950 . S
C348 C345 1.481 . S
C348 C349 1.297 . S
C348 H362 0.950 . S
C349 C348 1.297 . S
C349 C350 1.479 . S
C349 H363 0.950 . S
C350 C349 1.479 . S
C350 C351 1.375 . S
C350 C356 1.404 . S
C351 C350 1.375 . S
C351 C352 1.369 . S
C351 H364 0.950 . S
C352 C351 1.369 . S
C352 C353 1.392 . S
C352 H365 0.951 . S
C353 C352 1.392 . S
C353 C355 1.384 . S
H354 C356 0.949 . S
C355 C353 1.384 . S
C355 C356 1.385 . S
C355 H357 0.950 . S
C356 C350 1.404 . S
C356 H354 0.949 . S
C356 C355 1.385 . S
H357 C355 0.950 . S
H358 C342 0.951 . S
H359 C344 0.951 . S
H360 C346 0.951 . S
H361 C347 0.950 . S
H362 C348 0.950 . S
H363 C349 0.950 . S
H364 C351 0.950 . S
H365 C352 0.951 . S
C366 C367 1.386 . S
C366 C368 1.383 . S
C366 H382 0.951 . S
C367 C366 1.386 . S
C367 C371 1.383 . S
C368 C366 1.383 . S
C368 C369 1.402 . S
C368 H383 0.951 . S
C369 C368 1.402 . S
C369 C370 1.375 . S
C369 C372 1.481 . S
C370 C369 1.375 . S
C370 C371 1.367 . S
C370 H384 0.951 . S
C371 C367 1.383 . S
C371 C370 1.367 . S
C371 H385 0.950 . S
C372 C369 1.481 . S
C372 C373 1.297 . S
C372 H386 0.950 . S
C373 C372 1.297 . S
C373 C374 1.479 . S
C373 H387 0.950 . S
C374 C373 1.479 . S
C374 C375 1.375 . S
C374 C380 1.404 . S
C375 C374 1.375 . S
C375 C376 1.369 . S
C375 H388 0.950 . S
C376 C375 1.369 . S
C376 C377 1.392 . S
C376 H389 0.951 . S
C377 C376 1.392 . S
C377 C379 1.384 . S
H378 C380 0.949 . S
C379 C377 1.384 . S
C379 C380 1.385 . S
C379 H381 0.950 . S
C380 C374 1.404 . S
C380 H378 0.949 . S
C380 C379 1.385 . S
H381 C379 0.950 . S
H382 C366 0.951 . S
H383 C368 0.951 . S
H384 C370 0.951 . S
H385 C371 0.950 . S
H386 C372 0.950 . S
H387 C373 0.950 . S
H388 C375 0.950 . S
H389 C376 0.951 . S
C390 C391 1.386 . S
C390 C392 1.383 . S
C390 H406 0.951 . S
C391 C390 1.386 . S
C391 C395 1.383 . S
C392 C390 1.383 . S
C392 C393 1.402 . S
C392 H407 0.951 . S
C393 C392 1.402 . S
C393 C394 1.375 . S
C393 C396 1.481 . S
C394 C393 1.375 . S
C394 C395 1.367 . S
C394 H408 0.951 . S
C395 C391 1.383 . S
C395 C394 1.367 . S
C395 H409 0.950 . S
C396 C393 1.481 . S
C396 C397 1.297 . S
C396 H410 0.950 . S
C397 C396 1.297 . S
C397 C398 1.479 . S
C397 H411 0.950 . S
C398 C397 1.479 . S
C398 C399 1.375 . S
C398 C404 1.404 . S
C399 C398 1.375 . S
C399 C400 1.369 . S
C399 H412 0.950 . S
C400 C399 1.369 . S
C400 C401 1.392 . S
C400 H413 0.951 . S
C401 C400 1.392 . S
C401 C403 1.384 . S
H402 C404 0.949 . S
C403 C401 1.384 . S
C403 C404 1.385 . S
C403 H405 0.950 1_565 S
C404 C398 1.404 . S
C404 H402 0.949 . S
C404 C403 1.385 . S
H405 C403 0.950 1_545 S
H406 C390 0.951 . S
H407 C392 0.951 . S
H408 C394 0.951 . S
H409 C395 0.950 . S
H410 C396 0.950 . S
H411 C397 0.950 . S
H412 C399 0.950 . S
H413 C400 0.951 . S
C414 C415 1.386 . S
C414 C416 1.383 . S
C414 H430 0.951 . S
C415 C414 1.386 . S
C415 C419 1.383 . S
C416 C414 1.383 . S
C416 C417 1.402 . S
C416 H431 0.951 . S
C417 C416 1.402 . S
C417 C418 1.375 . S
C417 C420 1.481 . S
C418 C417 1.375 . S
C418 C419 1.367 . S
C418 H432 0.951 . S
C419 C415 1.383 . S
C419 C418 1.367 . S
C419 H433 0.950 . S
C420 C417 1.481 . S
C420 C421 1.297 . S
C420 H434 0.950 . S
C421 C420 1.297 . S
C421 C422 1.479 . S
C421 H435 0.950 . S
C422 C421 1.479 . S
C422 C423 1.375 . S
C422 C428 1.404 . S
C423 C422 1.375 . S
C423 C424 1.369 . S
C423 H436 0.950 . S
C424 C423 1.369 . S
C424 C425 1.392 . S
C424 H437 0.951 . S
C425 C424 1.392 . S
C425 C427 1.384 . S
H426 C428 0.949 . S
C427 C425 1.384 . S
C427 C428 1.385 . S
C427 H429 0.950 . S
C428 C422 1.404 . S
C428 H426 0.949 . S
C428 C427 1.385 . S
H429 C427 0.950 . S
H430 C414 0.951 . S
H431 C416 0.951 . S
H432 C418 0.951 . S
H433 C419 0.950 . S
H434 C420 0.950 . S
H435 C421 0.950 . S
H436 C423 0.950 . S
H437 C424 0.951 . S
C438 C439 1.386 . S
C438 C440 1.383 . S
C438 H454 0.951 . S
C439 C438 1.386 . S
C439 C443 1.383 . S
C440 C438 1.383 . S
C440 C441 1.402 . S
C440 H455 0.951 . S
C441 C440 1.402 . S
C441 C442 1.375 . S
C441 C444 1.481 . S
C442 C441 1.375 . S
C442 C443 1.367 . S
C442 H456 0.951 . S
C443 C439 1.383 . S
C443 C442 1.367 . S
C443 H457 0.950 . S
C444 C441 1.481 . S
C444 C445 1.297 . S
C444 H458 0.950 . S
C445 C444 1.297 . S
C445 C446 1.479 . S
C445 H459 0.950 . S
C446 C445 1.479 . S
C446 C447 1.375 . S
C446 C452 1.404 . S
C447 C446 1.375 . S
C447 C448 1.369 . S
C447 H460 0.950 . S
C448 C447 1.369 . S
C448 C449 1.392 . S
C448 H461 0.951 . S
C449 C448 1.392 . S
C449 C451 1.384 . S
H450 C452 0.949 . S
C451 C449 1.384 . S
C451 C452 1.385 . S
C451 H453 0.950 . S
C452 C446 1.404 . S
C452 H450 0.949 . S
C452 C451 1.385 . S
H453 C451 0.950 . S
H454 C438 0.951 . S
H455 C440 0.951 . S
H456 C442 0.951 . S
H457 C443 0.950 . S
H458 C444 0.950 . S
H459 C445 0.950 . S
H460 C447 0.950 . S
H461 C448 0.951 . S
C462 C463 1.386 . S
C462 C464 1.383 . S
C462 H478 0.951 . S
C463 C462 1.386 . S
C463 C467 1.383 . S
C464 C462 1.383 . S
C464 C465 1.402 . S
C464 H479 0.951 . S
C465 C464 1.402 . S
C465 C466 1.375 . S
C465 C468 1.481 . S
C466 C465 1.375 . S
C466 C467 1.367 . S
C466 H480 0.951 . S
C467 C463 1.383 . S
C467 C466 1.367 . S
C467 H481 0.950 . S
C468 C465 1.481 . S
C468 C469 1.297 . S
C468 H482 0.950 . S
C469 C468 1.297 . S
C469 C470 1.479 . S
C469 H483 0.950 . S
C470 C469 1.479 . S
C470 C471 1.375 . S
C470 C476 1.404 . S
C471 C470 1.375 . S
C471 C472 1.369 . S
C471 H484 0.950 . S
C472 C471 1.369 . S
C472 C473 1.392 . S
C472 H485 0.951 . S
C473 C472 1.392 . S
C473 C475 1.384 . S
H474 C476 0.949 . S
C475 C473 1.384 . S
C475 C476 1.385 . S
C475 H477 0.950 . S
C476 C470 1.404 . S
C476 H474 0.949 . S
C476 C475 1.385 . S
H477 C475 0.950 . S
H478 C462 0.951 . S
H479 C464 0.951 . S
H480 C466 0.951 . S
H481 C467 0.950 . S
H482 C468 0.950 . S
H483 C469 0.950 . S
H484 C471 0.950 . S
H485 C472 0.951 . S
C486 C487 1.386 . S
C486 C488 1.383 . S
C486 H502 0.951 . S
C487 C486 1.386 . S
C487 C491 1.383 . S
C488 C486 1.383 . S
C488 C489 1.402 . S
C488 H503 0.951 . S
C489 C488 1.402 . S
C489 C490 1.375 . S
C489 C492 1.481 . S
C490 C489 1.375 . S
C490 C491 1.367 . S
C490 H504 0.951 . S
C491 C487 1.383 . S
C491 C490 1.367 . S
C491 H505 0.950 . S
C492 C489 1.481 . S
C492 C493 1.297 . S
C492 H506 0.950 . S
C493 C492 1.297 . S
C493 C494 1.466 1_455 S
C493 H507 0.950 . S
C494 C493 1.466 1_655 S
C494 C495 1.385 . S
C494 C500 1.409 . S
C495 C494 1.385 . S
C495 C496 1.369 . S
C495 H508 0.950 1_655 S
C496 C495 1.369 . S
C496 C497 1.392 . S
C496 H509 0.951 . S
C497 C496 1.392 . S
C497 C499 1.384 . S
H498 C500 0.949 . S
C499 C497 1.384 . S
C499 C500 1.385 . S
C499 H501 0.950 . S
C500 C494 1.409 . S
C500 H498 0.949 . S
C500 C499 1.385 . S
H501 C499 0.950 . S
H502 C486 0.951 . S
H503 C488 0.951 . S
H504 C490 0.951 . S
H505 C491 0.950 . S
H506 C492 0.950 . S
H507 C493 0.950 . S
H508 C495 0.950 1_455 S
H509 C496 0.951 . S
C510 C511 1.386 . S
C510 C512 1.383 . S
C510 H526 0.951 . S
C511 C510 1.386 . S
C511 C515 1.383 . S
C512 C510 1.383 . S
C512 C513 1.402 . S
C512 H527 0.951 . S
C513 C512 1.402 . S
C513 C514 1.375 . S
C513 C516 1.481 . S
C514 C513 1.375 . S
C514 C515 1.367 . S
C514 H528 0.951 . S
C515 C511 1.383 . S
C515 C514 1.367 . S
C515 H529 0.950 . S
C516 C513 1.481 . S
C516 C517 1.297 . S
C516 H530 0.950 . S
C517 C516 1.297 . S
C517 C518 1.479 . S
C517 H531 0.950 . S
C518 C517 1.479 . S
C518 C519 1.375 . S
C518 C524 1.404 . S
C519 C518 1.375 . S
C519 C520 1.369 . S
C519 H532 0.950 . S
C520 C519 1.369 . S
C520 C521 1.392 . S
C520 H533 0.951 . S
C521 C520 1.392 . S
C521 C523 1.384 . S
H522 C524 0.949 . S
C523 C521 1.384 . S
C523 C524 1.385 . S
C523 H525 0.950 . S
C524 C518 1.404 . S
C524 H522 0.949 . S
C524 C523 1.385 . S
H525 C523 0.950 . S
H526 C510 0.951 . S
H527 C512 0.951 . S
H528 C514 0.951 . S
H529 C515 0.950 . S
H530 C516 0.950 . S
H531 C517 0.950 . S
H532 C519 0.950 . S
H533 C520 0.951 . S
C534 C535 1.386 . S
C534 C536 1.383 . S
C534 H550 0.951 . S
C535 C534 1.386 . S
C535 C539 1.383 . S
C536 C534 1.383 . S
C536 C537 1.402 . S
C536 H551 0.951 . S
C537 C536 1.402 . S
C537 C538 1.375 . S
C537 C540 1.481 . S
C538 C537 1.375 . S
C538 C539 1.367 . S
C538 H552 0.951 . S
C539 C535 1.383 . S
C539 C538 1.367 . S
C539 H553 0.950 . S
C540 C537 1.481 . S
C540 C541 1.297 1_565 S
C540 H554 0.950 . S
C541 C540 1.297 1_545 S
C541 C542 1.479 . S
C541 H555 0.950 . S
C542 C541 1.479 . S
C542 C543 1.375 . S
C542 C548 1.404 . S
C543 C542 1.375 . S
C543 C544 1.369 . S
C543 H556 0.950 . S
C544 C543 1.369 . S
C544 C545 1.392 . S
C544 H557 0.951 . S
C545 C544 1.392 . S
C545 C547 1.384 . S
H546 C548 0.949 . S
C547 C545 1.384 . S
C547 C548 1.385 . S
C547 H549 0.950 . S
C548 C542 1.404 . S
C548 H546 0.949 . S
C548 C547 1.385 . S
H549 C547 0.950 . S
H550 C534 0.951 . S
H551 C536 0.951 . S
H552 C538 0.951 . S
H553 C539 0.950 . S
H554 C540 0.950 . S
H555 C541 0.950 . S
H556 C543 0.950 . S
H557 C544 0.951 . S
C127 C37 0.964 . S
C137 C3 0.984 . S
C151 C23 0.922 . S
C161 C9 0.919 . S
C175 C17 0.947 . S
C185 C31 0.932 . S
C199 C73 0.959 . S
C209 C51 0.984 . S
C223 C65 0.944 . S
C233 C45 0.956 . S
C247 C59 0.939 . S
C257 C79 0.927 . S
C271 C87 0.957 . S
C281 C121 0.988 . S
C295 C93 0.851 . S
C305 C107 0.826 . S
C319 C101 0.936 . S
C329 C115 0.950 . S
C343 C8 1.359 . S
C353 C106 1.348 . S
C367 C21 1.383 . S
C377 C119 1.408 . S
C391 C91 1.350 . S
C401 C36 1.384 . S
C415 C63 1.358 . S
C425 C35 1.359 . S
C439 C7 1.335 . S
C449 C77 1.325 . S
C463 C49 1.363 . S
C473 C22 1.392 . S
C487 C105 1.360 . S
C497 C78 1.383 . S
C511 C50 1.387 . S
C521 C120 1.391 . S
C535 C92 1.398 . S
C545 C64 1.401 . S
