# Generated by pormake.
# Topology wmi, (6)-cn, num edge types: 1
# Building blocks:
#     Node 0, Type 0, BuildingBlock: MAKGUD_clean_sbu_1, # of connection points: 6
#     Node 1, Type 0, BuildingBlock: MAKGUD_clean_sbu_1, # of connection points: 6
#     Node 2, Type 0, BuildingBlock: MAKGUD_clean_sbu_1, # of connection points: 6
#     Node 3, Type 0, BuildingBlock: MAKGUD_clean_sbu_1, # of connection points: 6
#     Node 4, Type 0, BuildingBlock: MAKGUD_clean_sbu_1, # of connection points: 6
#     Node 5, Type 0, BuildingBlock: MAKGUD_clean_sbu_1, # of connection points: 6
#     Node 6, Type 0, BuildingBlock: MAKGUD_clean_sbu_1, # of connection points: 6
#     Node 7, Type 0, BuildingBlock: MAKGUD_clean_sbu_1, # of connection points: 6
#     Node 8, Type 0, BuildingBlock: MAKGUD_clean_sbu_1, # of connection points: 6
#     Node 9, Type 0, BuildingBlock: MAKGUD_clean_sbu_1, # of connection points: 6
#     Node 10, Type 0, BuildingBlock: MAKGUD_clean_sbu_1, # of connection points: 6
#     Node 11, Type 0, BuildingBlock: MAKGUD_clean_sbu_1, # of connection points: 6
#     Node 12, Type 0, BuildingBlock: MAKGUD_clean_sbu_1, # of connection points: 6
#     Node 13, Type 0, BuildingBlock: MAKGUD_clean_sbu_1, # of connection points: 6
#     Node 14, Type 0, BuildingBlock: MAKGUD_clean_sbu_1, # of connection points: 6
#     Node 15, Type 0, BuildingBlock: MAKGUD_clean_sbu_1, # of connection points: 6
#     Node 16, Type 0, BuildingBlock: MAKGUD_clean_sbu_1, # of connection points: 6
#     Node 17, Type 0, BuildingBlock: MAKGUD_clean_sbu_1, # of connection points: 6
#     Edge 18, Type (0, 0), BuildingBlock: OJICUG_clean_linker_0, # of connection points: 2
#     Edge 19, Type (0, 0), BuildingBlock: OJICUG_clean_linker_0, # of connection points: 2
#     Edge 20, Type (0, 0), BuildingBlock: OJICUG_clean_linker_0, # of connection points: 2
#     Edge 21, Type (0, 0), BuildingBlock: OJICUG_clean_linker_0, # of connection points: 2
#     Edge 22, Type (0, 0), BuildingBlock: OJICUG_clean_linker_0, # of connection points: 2
#     Edge 23, Type (0, 0), BuildingBlock: OJICUG_clean_linker_0, # of connection points: 2
#     Edge 24, Type (0, 0), BuildingBlock: OJICUG_clean_linker_0, # of connection points: 2
#     Edge 25, Type (0, 0), BuildingBlock: OJICUG_clean_linker_0, # of connection points: 2
#     Edge 26, Type (0, 0), BuildingBlock: OJICUG_clean_linker_0, # of connection points: 2
#     Edge 27, Type (0, 0), BuildingBlock: OJICUG_clean_linker_0, # of connection points: 2
#     Edge 28, Type (0, 0), BuildingBlock: OJICUG_clean_linker_0, # of connection points: 2
#     Edge 29, Type (0, 0), BuildingBlock: OJICUG_clean_linker_0, # of connection points: 2
#     Edge 30, Type (0, 0), BuildingBlock: OJICUG_clean_linker_0, # of connection points: 2
#     Edge 31, Type (0, 0), BuildingBlock: OJICUG_clean_linker_0, # of connection points: 2
#     Edge 32, Type (0, 0), BuildingBlock: OJICUG_clean_linker_0, # of connection points: 2
#     Edge 33, Type (0, 0), BuildingBlock: OJICUG_clean_linker_0, # of connection points: 2
#     Edge 34, Type (0, 0), BuildingBlock: OJICUG_clean_linker_0, # of connection points: 2
#     Edge 35, Type (0, 0), BuildingBlock: OJICUG_clean_linker_0, # of connection points: 2
#     Edge 36, Type (0, 0), BuildingBlock: OJICUG_clean_linker_0, # of connection points: 2
#     Edge 37, Type (0, 0), BuildingBlock: OJICUG_clean_linker_0, # of connection points: 2
#     Edge 38, Type (0, 0), BuildingBlock: OJICUG_clean_linker_0, # of connection points: 2
#     Edge 39, Type (0, 0), BuildingBlock: OJICUG_clean_linker_0, # of connection points: 2
#     Edge 40, Type (0, 0), BuildingBlock: OJICUG_clean_linker_0, # of connection points: 2
#     Edge 41, Type (0, 0), BuildingBlock: OJICUG_clean_linker_0, # of connection points: 2
#     Edge 42, Type (0, 0), BuildingBlock: OJICUG_clean_linker_0, # of connection points: 2
#     Edge 43, Type (0, 0), BuildingBlock: OJICUG_clean_linker_0, # of connection points: 2
#     Edge 44, Type (0, 0), BuildingBlock: OJICUG_clean_linker_0, # of connection points: 2
#     Edge 45, Type (0, 0), BuildingBlock: OJICUG_clean_linker_0, # of connection points: 2
#     Edge 46, Type (0, 0), BuildingBlock: OJICUG_clean_linker_0, # of connection points: 2
#     Edge 47, Type (0, 0), BuildingBlock: OJICUG_clean_linker_0, # of connection points: 2
#     Edge 48, Type (0, 0), BuildingBlock: OJICUG_clean_linker_0, # of connection points: 2
#     Edge 49, Type (0, 0), BuildingBlock: OJICUG_clean_linker_0, # of connection points: 2
#     Edge 50, Type (0, 0), BuildingBlock: OJICUG_clean_linker_0, # of connection points: 2
#     Edge 51, Type (0, 0), BuildingBlock: OJICUG_clean_linker_0, # of connection points: 2
#     Edge 52, Type (0, 0), BuildingBlock: OJICUG_clean_linker_0, # of connection points: 2
#     Edge 53, Type (0, 0), BuildingBlock: OJICUG_clean_linker_0, # of connection points: 2
#     Edge 54, Type (0, 0), BuildingBlock: OJICUG_clean_linker_0, # of connection points: 2
#     Edge 55, Type (0, 0), BuildingBlock: OJICUG_clean_linker_0, # of connection points: 2
#     Edge 56, Type (0, 0), BuildingBlock: OJICUG_clean_linker_0, # of connection points: 2
#     Edge 57, Type (0, 0), BuildingBlock: OJICUG_clean_linker_0, # of connection points: 2
#     Edge 58, Type (0, 0), BuildingBlock: OJICUG_clean_linker_0, # of connection points: 2
#     Edge 59, Type (0, 0), BuildingBlock: OJICUG_clean_linker_0, # of connection points: 2
#     Edge 60, Type (0, 0), BuildingBlock: OJICUG_clean_linker_0, # of connection points: 2
#     Edge 61, Type (0, 0), BuildingBlock: OJICUG_clean_linker_0, # of connection points: 2
#     Edge 62, Type (0, 0), BuildingBlock: OJICUG_clean_linker_0, # of connection points: 2
#     Edge 63, Type (0, 0), BuildingBlock: OJICUG_clean_linker_0, # of connection points: 2
#     Edge 64, Type (0, 0), BuildingBlock: OJICUG_clean_linker_0, # of connection points: 2
#     Edge 65, Type (0, 0), BuildingBlock: OJICUG_clean_linker_0, # of connection points: 2
#     Edge 66, Type (0, 0), BuildingBlock: OJICUG_clean_linker_0, # of connection points: 2
#     Edge 67, Type (0, 0), BuildingBlock: OJICUG_clean_linker_0, # of connection points: 2
#     Edge 68, Type (0, 0), BuildingBlock: OJICUG_clean_linker_0, # of connection points: 2
#     Edge 69, Type (0, 0), BuildingBlock: OJICUG_clean_linker_0, # of connection points: 2
#     Edge 70, Type (0, 0), BuildingBlock: OJICUG_clean_linker_0, # of connection points: 2
#     Edge 71, Type (0, 0), BuildingBlock: OJICUG_clean_linker_0, # of connection points: 2
# Relax obj value: 0.135
# Max RMSD: 0.275
# Mean RMSD: 0.275
data_MOF--net-wmi--node1-MAKGUD_clean_sbu_1--edge1-OJICUG_clean_linker_0
_symmetry_space_group_name_H-M    P1
_symmetry_Int_Tables_number       1
_symmetry_cell_setting            triclinic
loop_
_symmetry_equiv_pos_as_xyz
'x, y, z'
_cell_length_a     28.598979
_cell_length_b     28.420732
_cell_length_c     54.785657
_cell_angle_alpha  89.484663
_cell_angle_beta   89.925649
_cell_angle_gamma 119.63536
loop_
_atom_site_label
_atom_site_type_symbol
_atom_site_fract_x
_atom_site_fract_y
_atom_site_fract_z
_atom_type_partial_charge
O0 O 0.57162 0.23093 0.10615 0.0
Tb1 Tb 0.58669 0.16615 0.09462 0.0
C2 C 0.57419 0.07039 0.06093 0.0
O3 O 0.56242 0.06645 0.1169 0.0
Tb4 Tb 0.55861 0.99201 0.1064 0.0
C5 C 0.46356 0.90241 0.10737 0.0
O6 O 0.5427 0.12855 0.12803 0.0
O7 O 0.6252 0.99116 0.1255 0.0
C8 C 0.64819 0.96089 0.12325 0.0
O9 O 0.6912 0.97422 0.13646 0.0
O10 O 0.54814 0.09039 0.07335 0.0
O11 O 0.58004 1.02968 0.06988 0.0
O12 O 0.6721 0.19735 0.09949 0.0
C13 C 0.53565 0.08017 0.1319 0.0
C14 C 0.572 0.25029 0.08454 0.0
O15 O 0.48247 0.93822 0.12464 0.0
O16 O 0.49887 0.91655 0.08976 0.0
C17 C 0.70466 0.2141 0.08048 0.0
O18 O 0.68398 0.20479 0.05848 0.0
O19 O 0.57916 0.221 0.0683 0.0
O20 O 0.93038 0.42571 0.10844 0.0
Tb21 Tb 1.00885 0.48695 0.09459 0.0
C22 C 0.10152 0.53967 0.04828 0.0
O23 O 0.11728 0.55863 0.11541 0.0
Tb24 Tb 0.18826 0.5897 0.09357 0.0
C25 C 0.25719 0.55326 0.09989 0.0
O26 O 1.05098 0.4774 0.12536 0.0
O27 O 0.23828 0.67678 0.09022 0.0
C28 C 0.2578 0.70643 0.1098 0.0
O29 O 0.23925 0.68424 0.13134 0.0
O30 O 1.05422 0.51152 0.05979 0.0
O31 O 0.15006 0.56907 0.05801 0.0
O32 O 0.97729 0.54279 0.09611 0.0
C33 C 0.10004 0.51537 0.1291 0.0
C34 C 0.91964 0.39095 0.0912 0.0
O35 O 0.24458 0.57804 0.11632 0.0
O36 O 0.22902 0.54696 0.08032 0.0
C37 C 0.95523 0.54986 0.07628 0.0
O38 O 0.96129 0.53041 0.05559 0.0
O39 O 0.9593 0.4102 0.07558 0.0
O40 O 0.74003 0.57076 0.09682 0.0
Tb41 Tb 0.68147 0.58896 0.07979 0.0
C42 C 0.62652 0.61712 0.03291 0.0
O43 O 0.61121 0.63185 0.11368 0.0
Tb44 Tb 0.5838 0.65387 0.08098 0.0
C45 C 0.59777 0.75403 0.08607 0.0
O46 O 0.69755 0.65432 0.10453 0.0
O47 O 0.49751 0.59836 0.0808 0.0
C48 C 0.4703 0.58497 0.10149 0.0
O49 O 0.49708 0.60071 0.12205 0.0
O50 O 0.65508 0.59757 0.04354 0.0
O51 O 0.60135 0.64007 0.04369 0.0
O52 O 0.62366 0.50332 0.0858 0.0
C53 C 0.66253 0.65754 0.11883 0.0
C54 C 0.77503 0.58854 0.07913 0.0
O55 O 0.55292 0.70906 0.08941 0.0
O56 O 0.635 0.74255 0.07979 0.0
C57 C 0.6197 0.4704 0.06805 0.0
O58 O 0.64498 0.49216 0.04742 0.0
O59 O 0.75723 0.60653 0.06153 0.0
O60 O 0.26977 0.59042 0.8824 0.0
Tb61 Tb 0.19343 0.57693 0.89729 0.0
C62 C 0.09787 0.53556 0.94235 0.0
O63 O 0.08403 0.53201 0.87318 0.0
Tb64 Tb 1.01408 0.49538 0.89593 0.0
C65 C 0.94318 0.39028 0.89078 0.0
O66 O 0.1533 0.51826 0.86892 0.0
O67 O 0.96449 0.53338 0.89529 0.0
C68 C 0.92282 0.51276 0.91018 0.0
O69 O 0.91852 0.47635 0.92634 0.0
O70 O 0.14567 0.55433 0.93137 0.0
O71 O 1.04974 0.51651 0.93208 0.0
O72 O 0.22306 0.66374 0.89363 0.0
C73 C 0.1038 0.50372 0.86354 0.0
C74 C 0.28503 0.57444 0.90149 0.0
O75 O 0.9541 0.42812 0.87465 0.0
O76 O 0.97376 0.41146 0.90972 0.0
C77 C 0.24382 0.69382 0.91316 0.0
O78 O 0.23657 0.66925 0.9344 0.0
O79 O 0.24865 0.55989 0.91858 0.0
O80 O 0.62755 0.76067 0.87949 0.0
Tb81 Tb 0.61877 0.68338 0.89203 0.0
C82 C 0.62539 0.59895 0.92789 0.0
O83 O 0.64781 0.60953 0.87315 0.0
Tb84 Tb 0.64464 0.5355 0.88423 0.0
C85 C 0.73354 0.53056 0.89168 0.0
O86 O 0.66228 0.68753 0.85872 0.0
O87 O 0.58134 0.47237 0.86232 0.0
C88 C 0.55797 0.41895 0.86349 0.0
O89 O 0.51721 0.39144 0.84884 0.0
O90 O 0.65387 0.64531 0.91569 0.0
O91 O 0.6173 0.55174 0.91909 0.0
O92 O 0.53284 0.62942 0.88947 0.0
C93 C 0.67043 0.64659 0.85613 0.0
C94 C 0.63293 0.78219 0.90085 0.0
O95 O 0.72588 0.55533 0.87323 0.0
O96 O 0.69071 0.50788 0.90554 0.0
C97 C 0.50284 0.61784 0.90924 0.0
O98 O 0.52652 0.63397 0.93046 0.0
O99 O 0.63184 0.74835 0.91743 0.0
O100 O 0.45961 0.93 0.89176 0.0
Tb101 Tb 0.51743 1.00664 0.90858 0.0
C102 C 0.57071 0.08782 0.95561 0.0
O103 O 0.58548 0.1218 0.87474 0.0
Tb104 Tb 0.61311 0.16925 0.90771 0.0
C105 C 0.60127 0.25695 0.90221 0.0
O106 O 0.49982 0.05652 0.88433 0.0
O107 O 0.69932 0.19867 0.90904 0.0
C108 C 0.72769 0.21315 0.88867 0.0
O109 O 0.702 0.20327 0.86783 0.0
O110 O 0.54518 1.04007 0.9448 0.0
O111 O 0.59287 0.13629 0.94491 0.0
O112 O 0.57622 0.9805 0.90135 0.0
C113 C 0.53397 0.09535 0.86986 0.0
C114 C 0.42456 0.91211 0.90944 0.0
O115 O 0.6457 0.25572 0.89926 0.0
O116 O 0.56325 0.20851 0.90838 0.0
C117 C 0.58319 0.9523 0.91886 0.0
O118 O 0.56021 0.94847 0.94012 0.0
O119 O 0.442 0.9475 0.92692 0.0
O120 O 0.25356 0.56795 0.43767 0.0
Tb121 Tb 0.24941 0.49633 0.42065 0.0
C122 C 0.21875 0.41167 0.37759 0.0
O123 O 0.21776 0.39078 0.45674 0.0
Tb124 Tb 0.20165 0.33826 0.42566 0.0
C125 C 0.10503 0.24939 0.43102 0.0
O126 O 0.1889 0.45085 0.44803 0.0
O127 O 0.25573 0.30488 0.42393 0.0
C128 C 0.26638 0.28556 0.44378 0.0
O129 O 0.25141 0.29509 0.46499 0.0
O130 O 0.211 0.44863 0.38841 0.0
O131 O 0.22502 0.37396 0.38907 0.0
O132 O 0.33248 0.51509 0.42549 0.0
C133 C 0.18665 0.41144 0.46148 0.0
C134 C 0.25358 0.59255 0.41757 0.0
O135 O 0.14881 0.25941 0.44224 0.0
O136 O 0.11518 0.29001 0.41641 0.0
C137 C 0.36639 0.53694 0.40704 0.0
O138 O 0.34683 0.53676 0.38533 0.0
O139 O 0.25118 0.56283 0.39917 0.0
O140 O 0.60224 0.73586 0.43886 0.0
Tb141 Tb 0.68024 0.79722 0.42389 0.0
C142 C 0.77039 0.85845 0.3782 0.0
O143 O 0.78542 0.87587 0.44785 0.0
Tb144 Tb 0.85471 0.91842 0.42456 0.0
C145 C 0.93409 0.8955 0.4317 0.0
O146 O 0.72858 0.78692 0.45132 0.0
O147 O 0.89391 1.0069 0.42351 0.0
C148 C 0.92162 1.03455 0.44257 0.0
O149 O 0.91798 1.0078 0.46282 0.0
O150 O 0.72394 0.82367 0.38899 0.0
O151 O 0.81674 0.89357 0.38864 0.0
O152 O 0.6559 0.85789 0.42874 0.0
C153 C 0.77364 0.82903 0.4576 0.0
C154 C 0.58713 0.70362 0.4203 0.0
O155 O 0.91142 0.9096 0.44851 0.0
O156 O 0.91062 0.89248 0.41098 0.0
C157 C 0.63566 0.87054 0.40985 0.0
O158 O 0.63867 0.85237 0.38828 0.0
O159 O 0.62486 0.72393 0.40371 0.0
O160 O 0.43883 0.91466 0.43974 0.0
Tb161 Tb 0.37865 0.93215 0.42402 0.0
C162 C 0.32474 0.96934 0.3784 0.0
O163 O 0.30924 0.97064 0.45147 0.0
Tb164 Tb 0.26923 0.99577 0.42572 0.0
C165 C 0.28875 0.09663 0.43334 0.0
O166 O 0.39644 0.99548 0.44989 0.0
O167 O 0.18195 0.94515 0.42315 0.0
C168 C 0.15098 0.9347 0.44258 0.0
O169 O 0.17376 0.94955 0.46407 0.0
O170 O 0.3573 0.95444 0.38907 0.0
O171 O 0.29082 0.98235 0.3891 0.0
O172 O 0.31711 0.84759 0.42861 0.0
C173 C 0.35876 1.00452 0.45792 0.0
C174 C 0.46971 0.92774 0.42058 0.0
O175 O 0.25945 0.05478 0.44712 0.0
O176 O 0.30766 0.08189 0.4151 0.0
C177 C 0.30717 0.81634 0.40946 0.0
O178 O 0.32779 0.83965 0.38831 0.0
O179 O 0.44931 0.94345 0.40324 0.0
O180 O 0.93422 0.90785 0.21036 0.0
Tb181 Tb 0.85721 0.8916 0.22624 0.0
C182 C 0.76909 0.85938 0.27212 0.0
O183 O 0.75212 0.85784 0.19728 0.0
Tb184 Tb 0.68967 0.83441 0.22429 0.0
C185 C 0.60635 0.73514 0.21675 0.0
O186 O 0.81091 0.82782 0.20085 0.0
O187 O 0.65454 0.88715 0.22611 0.0
C188 C 0.63495 0.89777 0.20636 0.0
O189 O 0.6438 0.88258 0.18507 0.0
O190 O 0.81582 0.87197 0.26157 0.0
O191 O 0.72304 0.84781 0.26121 0.0
O192 O 0.87837 0.97563 0.22008 0.0
C193 C 0.76719 0.82295 0.19108 0.0
C194 C 0.9524 0.89536 0.22961 0.0
O195 O 0.61915 0.77799 0.20358 0.0
O196 O 0.64111 0.74782 0.23432 0.0
C197 C 0.89672 1.0088 0.23873 0.0
O198 O 0.89234 0.98797 0.26069 0.0
O199 O 0.9168 0.88056 0.24705 0.0
O200 O 0.27213 0.08443 0.21062 0.0
Tb201 Tb 0.29115 1.02463 0.22599 0.0
C202 C 0.32605 0.96819 0.27235 0.0
O203 O 0.32198 0.94936 0.20476 0.0
Tb204 Tb 0.35202 0.90794 0.22666 0.0
C205 C 0.45313 0.93061 0.21779 0.0
O206 O 0.34901 1.03592 0.19805 0.0
O207 O 0.30266 0.82022 0.22859 0.0
C208 C 0.29736 0.7922 0.2088 0.0
O209 O 0.31673 0.81867 0.18815 0.0
O210 O 0.31 0.99965 0.26113 0.0
O211 O 0.34078 0.93479 0.26238 0.0
O212 O 0.20708 0.96375 0.22156 0.0
C213 C 0.35446 0.99428 0.19323 0.0
C214 C 0.29007 0.11802 0.22865 0.0
O215 O 0.41458 0.91285 0.20186 0.0
O216 O 0.43497 0.93699 0.23858 0.0
C217 C 0.17445 0.95207 0.24043 0.0
O218 O 0.19541 0.97112 0.26189 0.0
O219 O 0.30883 0.09903 0.24535 0.0
O220 O 0.09795 0.24905 0.2101 0.0
Tb221 Tb 0.15728 0.32559 0.22651 0.0
C222 C 0.21725 0.41039 0.27205 0.0
O223 O 0.23521 0.42792 0.19791 0.0
Tb224 Tb 0.27726 0.49069 0.22424 0.0
C225 C 0.26117 0.57482 0.21731 0.0
O226 O 0.14559 0.37644 0.20071 0.0
O227 O 0.36468 0.52683 0.22592 0.0
C228 C 0.39387 0.55073 0.20633 0.0
O229 O 0.36897 0.54439 0.18548 0.0
O230 O 0.17885 0.36553 0.26191 0.0
O231 O 0.2555 0.45459 0.26089 0.0
O232 O 0.21976 0.30429 0.22089 0.0
C233 C 0.18737 0.41749 0.19074 0.0
C234 C 1.06507 0.23093 0.22861 0.0
O235 O 0.28329 0.5574 0.20181 0.0
O236 O 0.24651 0.54378 0.23667 0.0
C237 C 0.23491 0.28569 0.23959 0.0
O238 O 0.21837 0.28906 0.26154 0.0
O239 O 0.08414 0.26628 0.24602 0.0
O240 O 0.9155 0.90307 0.77217 0.0
Tb241 Tb 0.90288 0.82726 0.75629 0.0
C242 C 0.86656 0.73562 0.70977 0.0
O243 O 0.8708 0.71898 0.77629 0.0
Tb244 Tb 0.84046 0.6477 0.7548 0.0
C245 C 0.74001 0.57052 0.76531 0.0
O246 O 0.84466 0.77893 0.78387 0.0
O247 O 0.88945 0.60864 0.75257 0.0
C248 C 0.89811 0.5882 0.77258 0.0
O249 O 0.88276 0.59832 0.79357 0.0
O250 O 0.88426 0.78214 0.72177 0.0
O251 O 0.84939 0.68606 0.71895 0.0
O252 O 0.98697 0.85139 0.76211 0.0
C253 C 0.83856 0.73119 0.78808 0.0
C254 C 0.90185 0.92099 0.75318 0.0
O255 O 0.77966 0.59124 0.78066 0.0
O256 O 0.75677 0.59423 0.74413 0.0
C257 C 1.02101 0.87261 0.7437 0.0
O258 O 1.00176 0.87074 0.72175 0.0
O259 O 0.88845 0.88585 0.73574 0.0
O260 O 0.25556 0.07121 0.77584 0.0
Tb261 Tb 0.33478 0.13083 0.76162 0.0
C262 C 0.42493 0.18945 0.71603 0.0
O263 O 0.43978 0.20213 0.78982 0.0
Tb264 Tb 0.50473 0.23866 0.76393 0.0
C265 C 0.58583 0.21937 0.7729 0.0
O266 O 0.3797 0.11399 0.78866 0.0
O267 O 0.5408 0.32621 0.76072 0.0
C268 C 0.56017 0.35699 0.78008 0.0
O269 O 0.55149 0.33382 0.80174 0.0
O270 O 0.37694 0.15866 0.72643 0.0
O271 O 0.47219 0.21854 0.72698 0.0
O272 O 0.30959 0.19098 0.76681 0.0
C273 C 0.42409 0.15294 0.79763 0.0
C274 C 0.24111 1.03871 0.75741 0.0
O275 O 0.57405 0.25069 0.78541 0.0
O276 O 0.5513 0.19798 0.75526 0.0
C277 C 0.28659 0.20057 0.74803 0.0
O278 O 0.28765 0.17964 0.7269 0.0
O279 O 0.27966 0.05803 0.7412 0.0
O280 O 0.09306 0.25257 0.7776 0.0
Tb281 Tb 1.02672 0.25881 0.76075 0.0
C282 C 0.97079 0.28649 0.71801 0.0
O283 O 0.95034 0.28789 0.79634 0.0
Tb284 Tb 0.91293 0.3016 0.76461 0.0
C285 C 0.92463 0.40083 0.76625 0.0
O286 O 1.03919 0.31738 0.78845 0.0
O287 O 0.82561 0.24955 0.76387 0.0
C288 C 0.79684 0.24305 0.78369 0.0
O289 O 0.82219 0.26095 0.80444 0.0
O290 O 1.01627 0.30005 0.72938 0.0
O291 O 0.92514 0.27391 0.72933 0.0
O292 O 0.96326 0.17469 0.76373 0.0
C293 C 1.00158 0.31995 0.80108 0.0
C294 C 0.11876 0.25595 0.7575 0.0
O295 O 0.8913 0.35925 0.77919 0.0
O296 O 0.95235 0.38697 0.75199 0.0
C297 C 0.95281 0.14373 0.74444 0.0
O298 O 0.97351 0.16701 0.7233 0.0
O299 O 0.09263 0.26116 0.7392 0.0
O300 O 0.58565 0.24469 0.55044 0.0
Tb301 Tb 0.51205 0.23537 0.56757 0.0
C302 C 0.42654 0.20121 0.6103 0.0
O303 O 0.40924 0.21024 0.53131 0.0
Tb304 Tb 0.35663 0.19197 0.56281 0.0
C305 C 0.26901 0.0955 0.55624 0.0
O306 O 0.46848 0.17989 0.53853 0.0
O307 O 0.32234 0.24545 0.56532 0.0
C308 C 0.30387 0.25747 0.54561 0.0
O309 O 0.31541 0.24509 0.52422 0.0
O310 O 0.46076 0.19099 0.59851 0.0
O311 O 0.39112 0.21153 0.59948 0.0
O312 O 0.5323 0.32017 0.56718 0.0
C313 C 0.4294 0.179 0.5257 0.0
C314 C 0.60631 0.23675 0.57009 0.0
O315 O 0.27891 0.14088 0.54613 0.0
O316 O 0.3089 0.10389 0.57053 0.0
C317 C 0.55678 0.34939 0.58649 0.0
O318 O 0.5593 0.32403 0.60619 0.0
O319 O 0.57378 0.22804 0.58836 0.0
O320 O 0.92782 0.41906 0.55411 0.0
Tb321 Tb 0.94337 0.35595 0.56806 0.0
C322 C 0.97668 0.29629 0.6126 0.0
O323 O 0.98332 0.2902 0.53837 0.0
Tb324 Tb 1.01074 0.2519 0.564 0.0
C325 C 0.11167 0.27305 0.55611 0.0
O326 O 1.00805 0.37752 0.54222 0.0
O327 O 0.96032 0.1644 0.56594 0.0
C328 C 0.94784 0.13524 0.546 0.0
O329 O 0.96148 0.16018 0.5247 0.0
O330 O 0.95809 0.32671 0.60272 0.0
O331 O 0.99649 0.26872 0.60123 0.0
O332 O 0.85954 0.29673 0.56122 0.0
C333 C 1.01594 0.34061 0.53221 0.0
C334 C 0.94037 0.44755 0.57385 0.0
O335 O 0.07003 0.24127 0.54318 0.0
O336 O 0.09668 0.29362 0.57356 0.0
C337 C 0.82597 0.28362 0.57984 0.0
O338 O 0.84629 0.29982 0.60166 0.0
O339 O 0.95472 0.42443 0.59054 0.0
O340 O 0.73753 0.59857 0.55629 0.0
Tb341 Tb 0.81555 0.66239 0.56928 0.0
C342 C 0.88174 0.76193 0.60437 0.0
O343 O 0.89392 0.76403 0.54588 0.0
Tb344 Tb 0.94219 0.84377 0.56052 0.0
C345 C 0.91445 0.91961 0.55429 0.0
O346 O 0.81553 0.69716 0.53376 0.0
O347 O 1.02977 0.88224 0.55986 0.0
C348 C 1.05708 0.91431 0.5415 0.0
O349 O 1.03039 0.91646 0.52244 0.0
O350 O 0.83863 0.73673 0.59033 0.0
O351 O 0.92448 0.80756 0.59687 0.0
O352 O 0.87449 0.63569 0.56704 0.0
C353 C 0.85496 0.74638 0.52993 0.0
C354 C 0.7191 0.57462 0.57725 0.0
O355 O 0.92838 0.89801 0.53683 0.0
O356 O 0.91448 0.89701 0.57508 0.0
C357 C 0.88493 0.61461 0.58632 0.0
O358 O 0.8654 0.61739 0.60764 0.0
O359 O 0.75455 0.60138 0.59401 0.0
C360 C 0.66793 0.90565 0.0949 0.0
C361 C 0.62904 0.9125 0.1077 0.0
H362 H 0.68859 0.85053 0.07807 0.0
C363 C 0.57736 0.86761 0.1108 0.0
H364 H 0.70843 0.93934 0.09262 0.0
C365 C 0.56604 0.81626 0.10255 0.0
C366 C 0.60639 0.80902 0.09128 0.0
H367 H 0.54723 0.87121 0.12134 0.0
H368 H 0.52673 0.78175 0.10629 0.0
C369 C 0.65678 0.85464 0.08678 0.0
C370 C 0.37401 0.84306 0.12708 0.0
C371 C 0.40956 0.854 0.10739 0.0
H372 H 0.29678 0.78841 0.14272 0.0
C373 C 0.39296 0.81845 0.08759 0.0
H374 H 0.38556 0.87024 0.14244 0.0
C375 C 0.34235 0.77179 0.08782 0.0
C376 C 0.3075 0.75965 0.10794 0.0
H377 H 0.41944 0.82619 0.07208 0.0
H378 H 0.33144 0.74422 0.07264 0.0
C379 C 0.32338 0.79631 0.1273 0.0
C380 C 0.33032 0.54468 0.07917 0.0
C381 C 0.30565 0.5475 0.10089 0.0
H382 H 0.40223 0.55441 0.06223 0.0
C383 C 0.33225 0.5536 0.12309 0.0
H384 H 0.31061 0.53994 0.06177 0.0
C385 C 0.38438 0.5611 0.12337 0.0
C386 C 0.41134 0.56384 0.10147 0.0
H387 H 0.31392 0.5555 0.14012 0.0
H388 H 0.40477 0.56808 0.14062 0.0
C389 C 0.3829 0.55315 0.07943 0.0
C390 C 0.87458 0.55099 0.88573 0.0
C391 C 0.87694 0.52234 0.90634 0.0
H392 H 0.82686 0.57585 0.86478 0.0
C393 C 0.8325 0.49827 0.92232 0.0
H394 H 0.908 0.56968 0.87298 0.0
C395 C 0.78624 0.50144 0.91752 0.0
C396 C 0.78333 0.52884 0.89667 0.0
H397 H 0.83287 0.47586 0.93834 0.0
H398 H 0.75245 0.48177 0.93003 0.0
C399 C 0.82808 0.55421 0.88093 0.0
C400 C 0.63578 0.35204 0.88608 0.0
C401 C 0.59392 0.30422 0.89664 0.0
H402 H 0.65753 0.42724 0.86742 0.0
C403 C 0.54346 0.30022 0.89998 0.0
H404 H 0.67517 0.35627 0.88322 0.0
C405 C 0.53392 0.34125 0.89144 0.0
C406 C 0.57454 0.38746 0.87943 0.0
H407 H 0.51048 0.26411 0.90808 0.0
H408 H 0.49348 0.33517 0.8928 0.0
C409 C 0.62608 0.39322 0.87741 0.0
C410 C 0.81492 0.27393 0.8674 0.0
C411 C 0.78686 0.25005 0.88921 0.0
H412 H 0.88684 0.33701 0.85081 0.0
C413 C 0.81462 0.26707 0.91144 0.0
H414 H 0.79504 0.26153 0.85001 0.0
C415 C 0.86786 0.30997 0.91189 0.0
C416 C 0.89387 0.33683 0.89014 0.0
H417 H 0.79436 0.24938 0.92859 0.0
H418 H 0.88712 0.32459 0.92935 0.0
C419 C 0.86765 0.31712 0.86786 0.0
C420 C 0.28032 0.1632 0.45939 0.0
C421 C 0.29308 0.15014 0.43663 0.0
H422 H 0.26323 0.21669 0.47956 0.0
C423 C 0.30395 0.18582 0.4168 0.0
H424 H 0.272 0.13651 0.47502 0.0
C425 C 0.29824 0.23186 0.41933 0.0
C426 C 0.28243 0.24332 0.44184 0.0
H427 H 0.31378 0.17655 0.39903 0.0
H428 H 0.304 0.25714 0.40343 0.0
C429 C 0.27551 0.20944 0.462 0.0
C430 C 1.01453 0.176 0.41614 0.0
C431 C 1.05341 0.19832 0.43458 0.0
H432 H 0.94202 0.10613 0.40402 0.0
C433 C 1.04551 0.16862 0.45628 0.0
H434 H 1.01981 0.19798 0.39917 0.0
C435 C 1.00117 0.11685 0.45919 0.0
C436 C 0.9636 0.09278 0.44033 0.0
H437 H 0.07463 0.18486 0.47089 0.0
H438 H 0.99793 0.09478 0.4759 0.0
C439 C 0.97015 0.1234 0.41891 0.0
C440 C 1.06092 0.91075 0.46058 0.0
C441 C 0.09235 0.91512 0.43998 0.0
H442 H 0.98602 0.90071 0.47411 0.0
C443 C 0.06839 0.90591 0.41681 0.0
H444 H 0.07782 0.91702 0.47871 0.0
C445 C 1.01546 0.89599 0.41422 0.0
C446 C 0.98554 0.89537 0.43472 0.0
H447 H 0.09122 0.90869 0.40054 0.0
H448 H 0.99902 0.8916 0.39604 0.0
C449 C 1.00823 0.90125 0.45797 0.0
C450 C 0.53797 0.93753 0.23417 0.0
C451 C 0.50532 0.93251 0.21411 0.0
H452 H 0.60491 0.93082 0.24748 0.0
C453 C 0.51987 0.92299 0.19095 0.0
H454 H 0.52775 0.94495 0.25223 0.0
C455 C 0.56427 0.91523 0.18817 0.0
C456 C 0.59478 0.91634 0.20854 0.0
H457 H 0.49552 0.91914 0.17515 0.0
H458 H 0.57288 0.90555 0.17023 0.0
C459 C 0.58215 0.92934 0.23144 0.0
C460 C 0.26069 0.70438 0.23247 0.0
C461 C 0.27923 0.73345 0.21034 0.0
H462 H 0.23958 0.63053 0.25203 0.0
C463 C 0.28555 0.70716 0.19002 0.0
H464 H 0.25535 0.7234 0.24847 0.0
C465 C 0.27651 0.65433 0.19206 0.0
C466 C 0.26098 0.62644 0.21448 0.0
H467 H 0.30019 0.72824 0.17278 0.0
H468 H 0.28396 0.63616 0.17629 0.0
C469 C 0.2515 0.65119 0.23451 0.0
C470 C 0.52893 0.67297 0.1912 0.0
C471 C 0.5562 0.68296 0.21347 0.0
H472 H 0.45718 0.62369 0.1715 0.0
C473 C 0.53211 0.64577 0.23284 0.0
H474 H 0.54657 0.70086 0.17592 0.0
C475 C 0.48009 0.60107 0.23035 0.0
C476 C 0.45172 0.59255 0.20833 0.0
H477 H 0.55223 0.6527 0.25026 0.0
H478 H 0.46141 0.57439 0.2459 0.0
C479 C 0.47757 0.62831 0.18863 0.0
C480 C 0.93049 0.53332 0.74911 0.0
C481 C 0.91459 0.54617 0.7713 0.0
H482 H 0.94758 0.47738 0.73011 0.0
C483 C 0.90896 0.51443 0.79211 0.0
H484 H 0.93532 0.55704 0.73276 0.0
C485 C 0.91503 0.46878 0.79044 0.0
C486 C 0.9281 0.45429 0.76809 0.0
H487 H 0.89702 0.52305 0.80952 0.0
H488 H 0.90769 0.44365 0.80657 0.0
C489 C 0.93772 0.48793 0.74758 0.0
C490 C 0.67498 0.49756 0.7934 0.0
C491 C 0.68812 0.52072 0.7699 0.0
H492 H 0.62355 0.42785 0.81517 0.0
C493 C 0.65447 0.4925 0.75034 0.0
H494 H 0.70008 0.51861 0.80884 0.0
C495 C 0.61079 0.44031 0.75389 0.0
C496 C 0.59969 0.41551 0.77711 0.0
H497 H 0.66361 0.50949 0.73203 0.0
H498 H 0.58725 0.41852 0.73821 0.0
C499 C 0.63104 0.44554 0.79701 0.0
C500 C 0.66242 0.2319 0.79886 0.0
C501 C 0.63527 0.2158 0.77654 0.0
H502 H 0.73386 0.25203 0.81872 0.0
C503 C 0.65895 0.20244 0.75729 0.0
H504 H 0.64503 0.24227 0.81404 0.0
C505 C 0.7106 0.20863 0.75987 0.0
C506 C 0.73901 0.22748 0.78187 0.0
H507 H 0.6389 0.1901 0.73985 0.0
H508 H 0.72904 0.20066 0.74435 0.0
C509 C 0.71342 0.23728 0.80155 0.0
C510 C 0.20067 0.29023 0.57263 0.0
C511 C 0.16553 0.27869 0.55285 0.0
H512 H 0.27235 0.29236 0.58598 0.0
C513 C 0.17969 0.26669 0.53019 0.0
H514 H 0.1905 0.29941 0.59035 0.0
C515 C 0.2267 0.26365 0.52758 0.0
C516 C 0.26026 0.27143 0.54767 0.0
H517 H 0.15343 0.25783 0.5146 0.0
H518 H 0.23495 0.25209 0.51009 0.0
C519 C 0.24742 0.28609 0.57013 0.0
C520 C 0.91668 0.99397 0.5287 0.0
C521 C 0.91147 0.96982 0.55174 0.0
H522 H 0.93086 0.06501 0.50876 0.0
C523 C 0.91056 0.99764 0.57263 0.0
H524 H 0.91718 0.97321 0.5123 0.0
C525 C 0.91907 0.05041 0.57067 0.0
C526 C 0.92833 0.07626 0.54775 0.0
H527 H 0.90642 0.97988 0.59064 0.0
H528 H 0.92104 0.07183 0.58723 0.0
C529 C 0.92472 0.04661 0.52671 0.0
C530 C 0.19183 1.03893 0.52957 0.0
C531 C 0.21932 1.04389 0.55146 0.0
H532 H 0.12008 0.99387 0.50906 0.0
C533 C 0.19588 1.0022 0.56902 0.0
H534 H 0.20923 0.07024 0.51559 0.0
C535 C 0.14392 0.95814 0.56538 0.0
C536 C 0.11512 0.95492 0.54399 0.0
H537 H 0.21629 1.00517 0.58605 0.0
H538 H 0.1255 0.92793 0.57974 0.0
C539 C 0.14064 0.99491 0.5258 0.0
C540 C 0.57634 0.12203 0.02289 0.0
C541 C 0.5784 0.07825 0.03399 0.0
H542 H 0.57303 0.16 0.98933 0.0
C543 C 0.58068 1.03954 0.01897 0.0
H544 H 0.57466 0.15257 0.03389 0.0
C545 C 0.57858 1.04316 0.99361 0.0
C546 C 0.57527 0.08615 0.98251 0.0
H547 H 0.5823 1.0052 0.02673 0.0
H548 H 0.57937 1.012 0.98267 0.0
C549 C 0.57541 0.12629 -0.00262 0.0
C550 C 0.14761 0.56086 0.9821 0.0
C551 C 0.09855 0.53647 0.96947 0.0
H552 H 0.18718 0.58102 0.01648 0.0
C553 C 1.05027 0.51293 0.98306 0.0
H554 H 0.18571 0.57949 0.97239 0.0
C555 C 1.0511 0.51377 0.00857 0.0
C556 C 0.10022 0.53834 0.02117 0.0
H557 H 1.0116 0.49359 0.97407 0.0
H558 H 1.01309 0.49524 0.01834 0.0
C559 C 0.14844 0.56185 0.00755 0.0
C560 C 0.62405 0.64841 0.96559 0.0
C561 C 0.61999 0.60183 0.95473 0.0
H562 H 0.62823 0.68949 -0.00104 0.0
C563 C 0.61499 0.55943 0.96995 0.0
H564 H 0.62802 0.6818 0.95442 0.0
C565 C 0.61654 0.56449 -0.00471 0.0
C566 C 0.62181 0.61145 0.0061 0.0
H567 H 0.61188 0.52293 0.96238 0.0
H568 H 0.6139 0.53161 0.00646 0.0
C569 C 0.62419 0.65286 0.99106 0.0
C570 C 0.23576 0.45962 0.33728 0.0
C571 C 0.21819 0.41121 0.35061 0.0
H572 H 0.25004 0.49748 0.30197 0.0
C573 C 0.20036 0.36261 0.33794 0.0
H574 H 0.25003 0.49775 0.34659 0.0
C575 C 0.19944 0.36231 0.31243 0.0
C576 C 0.21757 0.41081 0.29906 0.0
H577 H 0.18641 0.32466 0.34774 0.0
H578 H 0.18517 0.32414 0.30318 0.0
C579 C 0.23605 0.45952 0.31175 0.0
C580 C 0.72106 0.83375 0.33819 0.0
C581 C 0.76998 0.85834 0.35104 0.0
H582 H 0.68221 0.81491 0.30342 0.0
C583 C 0.81839 0.88318 0.33764 0.0
H584 H 0.68286 0.81442 0.34781 0.0
C585 C 0.81794 0.88325 0.31214 0.0
C586 C 0.76906 0.85886 0.29927 0.0
H587 H 0.85685 0.9024 0.34682 0.0
H588 H 0.85617 0.90294 0.30254 0.0
C589 C 0.72061 0.83423 0.31264 0.0
C590 C 0.35265 0.94712 0.31294 0.0
C591 C 0.32682 0.96995 0.29948 0.0
H592 H 0.37246 0.92908 0.34801 0.0
C593 C 0.30097 0.99353 0.31227 0.0
H594 H 0.37325 0.92882 0.30384 0.0
C595 C 0.30039 0.9936 0.33782 0.0
C596 C 0.32597 0.97044 0.35125 0.0
H597 H 0.28046 1.0114 0.3026 0.0
H598 H 0.27981 1.01184 0.34698 0.0
C599 C 0.35236 0.94749 0.33842 0.0
C600 C 0.90588 0.79031 0.67185 0.0
C601 C 0.86877 0.74083 0.68274 0.0
H602 H 0.93936 0.83539 0.63919 0.0
C603 C 0.83523 0.69733 0.66755 0.0
H604 H 0.93265 0.82462 0.68283 0.0
C605 C 0.83858 0.70375 0.642 0.0
C606 C 0.87635 0.75331 0.63125 0.0
H607 H 0.80607 0.65864 0.67539 0.0
H608 H 0.81213 0.66994 0.63072 0.0
C609 C 0.90992 0.79632 0.64659 0.0
C610 C 0.4722 0.20664 0.65005 0.0
C611 C 0.42595 0.19793 0.63732 0.0
H612 H 0.50845 0.2114 0.68481 0.0
C613 C 0.37942 0.18631 0.65067 0.0
H614 H 0.50882 0.21602 0.64029 0.0
C615 C 0.37898 0.18288 0.67616 0.0
C616 C 0.42537 0.19208 0.68895 0.0
H617 H 0.34309 0.17923 0.64142 0.0
H618 H 0.34238 0.17373 0.68585 0.0
C619 C 0.47208 0.20426 0.67558 0.0
C620 C 1.0117 0.28335 0.65256 0.0
C621 C 0.97476 0.2928 0.63957 0.0
H622 H 1.03977 0.27458 0.68761 0.0
C623 C 0.93602 0.29939 0.65261 0.0
H624 H 1.04214 0.27831 0.64304 0.0
C625 C 0.93419 0.29651 0.67808 0.0
C626 C 0.97172 0.28804 0.69106 0.0
H627 H 0.90675 0.30637 0.64315 0.0
H628 H 0.90393 0.30184 0.68759 0.0
C629 C 1.01053 0.28152 0.67807 0.0
C630 C 0.45369 1.03783 0.18902 0.0
C631 C 0.40243 1.00259 0.17982 0.0
H632 H 0.53761 0.08794 0.18083 0.0
C633 C 0.39722 0.98547 0.15556 0.0
H634 H 0.45829 0.0524 0.20756 0.0
C635 C 0.44227 1.00698 0.14012 0.0
C636 C 0.49337 1.04389 0.14905 0.0
H637 H 0.35776 0.95956 0.14795 0.0
H638 H 0.43649 0.9981 0.12081 0.0
C639 C 0.49893 0.05788 0.1738 0.0
C640 C 0.13838 0.51132 0.16901 0.0
C641 C 0.13534 0.50251 0.14377 0.0
H642 H 0.15651 0.48983 0.20396 0.0
C643 C 0.15548 0.47055 0.134 0.0
H644 H 0.1211 0.53405 0.17702 0.0
C645 C 0.17826 0.44761 0.14929 0.0
C646 C 0.17877 0.45419 0.17466 0.0
H647 H 0.15131 0.46129 0.11472 0.0
H648 H 0.19151 0.42124 0.14149 0.0
C649 C 0.15893 0.48642 0.18439 0.0
C650 C 0.75262 0.73955 0.16996 0.0
C651 C 0.73547 0.77732 0.1744 0.0
H652 H 0.74279 0.67233 0.14889 0.0
C653 C 0.69064 0.77251 0.16165 0.0
H654 H 0.78695 0.74186 0.17939 0.0
C655 C 0.66408 0.7311 0.14459 0.0
C656 C 0.6833 0.69528 0.13946 0.0
H657 H 0.67723 0.80169 0.1642 0.0
H658 H 0.63052 0.72894 0.13453 0.0
C659 C 0.72726 0.6995 0.15253 0.0
C660 C 1.02699 0.44391 0.83622 0.0
C661 C 0.07096 0.45223 0.85061 0.0
H662 H 0.96779 0.39287 0.81037 0.0
C663 C 0.08747 0.41314 0.8505 0.0
H664 H 1.01436 0.4741 0.83544 0.0
C665 C 1.06221 0.36805 0.83549 0.0
C666 C 1.01916 0.36037 0.82065 0.0
H667 H 0.12143 0.41845 0.86128 0.0
H668 H 0.0777 0.34014 0.8348 0.0
C669 C 1.00043 0.39758 0.8218 0.0
C670 C 0.75837 0.65666 0.84326 0.0
C671 C 0.70729 0.64834 0.83694 0.0
H672 H 0.84032 0.68753 0.83182 0.0
C673 C 0.69806 0.65849 0.8128 0.0
H674 H 0.76764 0.65304 0.86208 0.0
C675 C 0.74019 0.68059 0.79579 0.0
C676 C 0.79198 0.69199 0.80255 0.0
H677 H 0.65947 0.654 0.80771 0.0
H678 H 0.73326 0.69254 0.77791 0.0
C679 C 0.80024 0.6774 0.82601 0.0
C680 C 0.44169 0.08526 0.81884 0.0
C681 C 0.45711 0.13978 0.81421 0.0
H682 H 0.4542 1.02892 0.84003 0.0
C683 C 0.50138 0.18025 0.82685 0.0
H684 H 0.40777 0.05294 0.80953 0.0
C685 C 0.52924 0.16628 0.84389 0.0
C686 C 0.5119 0.11159 0.84917 0.0
H687 H 0.51331 0.22252 0.82421 0.0
H688 H 0.56231 0.19803 0.85386 0.0
C689 C 0.46838 0.07139 0.83626 0.0
C690 C 0.07139 0.31924 0.50324 0.0
C691 C 1.06378 0.35721 0.51641 0.0
H692 H 0.11844 0.30674 0.47617 0.0
C693 C 0.10057 0.41261 0.51301 0.0
H694 H 1.04303 0.27638 0.50499 0.0
C695 C 0.14221 0.42979 0.49599 0.0
C696 C 0.14892 0.39206 0.48234 0.0
H697 H 0.0961 0.44309 0.52282 0.0
H698 H 0.16835 0.47285 0.49297 0.0
C699 C 0.11436 0.33656 0.48665 0.0
C700 C 0.83156 0.78974 0.46851 0.0
C701 C 0.80886 0.82183 0.47493 0.0
H702 H 0.86652 0.74252 0.48131 0.0
C703 C 0.80855 0.83519 0.49951 0.0
H704 H 0.83075 0.77769 0.44974 0.0
C705 C 0.82725 0.81355 0.51761 0.0
C706 C 0.84869 0.78032 0.51126 0.0
H707 H 0.78947 0.85828 0.50493 0.0
H708 H 0.82183 0.81995 0.53662 0.0
C709 C 0.85186 0.76962 0.48653 0.0
C710 C 0.42898 0.09357 0.47376 0.0
C711 C 0.37423 0.05418 0.47223 0.0
H712 H 0.489 0.16403 0.49183 0.0
C713 C 0.33672 0.06072 0.4863 0.0
H714 H 0.45914 0.09015 0.46316 0.0
C715 C 0.35403 0.10482 0.50213 0.0
C716 C 0.40917 0.14163 0.50485 0.0
H717 H 0.29448 1.03046 0.48602 0.0
H718 H 0.32472 0.10786 0.5134 0.0
C719 C 0.44623 0.13628 0.49006 0.0
C720 C 0.58555 0.3882 0.09565 0.0
C721 C 0.59726 0.41117 0.07207 0.0
H722 H 0.56796 0.31894 0.11803 0.0
C723 C 0.59393 0.37817 0.05233 0.0
H724 H 0.58782 0.41235 0.11126 0.0
C725 C 0.58277 0.32481 0.0562 0.0
C726 C 0.57449 0.30304 0.0799 0.0
H727 H 0.60236 0.39432 0.03386 0.0
H728 H 0.58302 0.30146 0.04073 0.0
C729 C 0.57431 0.33468 0.09952 0.0
C730 C 0.78134 0.27643 0.10678 0.0
C731 C 0.76262 0.25271 0.08388 0.0
H732 H 0.8458 0.33914 0.12687 0.0
C733 C 0.79837 0.27113 0.06385 0.0
H734 H 0.75499 0.26328 0.12261 0.0
C735 C 0.85087 0.31438 0.06642 0.0
C736 C 0.86801 0.34029 0.08897 0.0
H737 H 0.78518 0.25355 0.04598 0.0
H738 H 0.87699 0.32927 0.05054 0.0
C739 C 0.83334 0.32007 0.10923 0.0
C740 C 0.85355 0.59185 0.05696 0.0
C741 C 0.82528 0.58539 0.07883 0.0
H742 H 0.91715 0.58596 0.03903 0.0
C743 C 0.8438 0.5729 0.10036 0.0
H744 H 0.84028 0.60157 0.0401 0.0
C745 C 0.88843 0.56495 0.09989 0.0
C746 C 0.91496 0.56841 0.07777 0.0
H747 H 0.82294 0.56794 0.11753 0.0
H748 H 0.90037 0.55337 0.11664 0.0
C749 C 0.89764 0.58301 0.05639 0.0
C750 C 0.42168 0.59562 0.88423 0.0
C751 C 0.44435 0.59742 0.90717 0.0
H752 H 0.35338 0.58716 0.8646 0.0
C753 C 0.41194 0.58568 0.9282 0.0
H754 H 0.44541 0.60436 0.86767 0.0
C755 C 0.35884 0.57533 0.92639 0.0
C756 C 0.33766 0.57718 0.90355 0.0
H757 H 0.4282 0.58655 0.94614 0.0
H758 H 0.33533 0.56847 0.94289 0.0
C759 C 0.369 0.58598 0.88247 0.0
C760 C 0.61367 0.90373 0.89011 0.0
C761 C 0.60635 0.91644 0.91404 0.0
H762 H 0.62812 0.85129 0.86721 0.0
C763 C 0.61459 0.88883 0.93361 0.0
H764 H 0.60752 0.92398 0.87463 0.0
C765 C 0.62633 0.84721 0.92937 0.0
C766 C 0.63009 0.83214 0.90546 0.0
H767 H 0.60959 0.89771 0.9523 0.0
H768 H 0.62992 0.82518 0.94482 0.0
C769 C 0.62531 0.86192 0.88588 0.0
C770 C 0.34474 0.83752 0.93143 0.0
C771 C 0.3744 0.8587 0.90977 0.0
H772 H 0.27983 0.76894 0.94941 0.0
C773 C 0.3571 0.82722 0.88854 0.0
H774 H 0.35695 0.86083 0.94806 0.0
C775 C 0.3123 0.77485 0.88916 0.0
C776 C 0.28429 0.75248 0.91114 0.0
H777 H 0.379 0.84259 0.87152 0.0
H778 H 0.30136 0.75096 0.8727 0.0
C779 C 0.30044 0.78489 0.93215 0.0
C780 C 0.27905 0.7323 0.43508 0.0
C781 C 0.28441 0.75683 0.41206 0.0
H782 H 0.26517 0.66089 0.45488 0.0
C783 C 0.27452 0.72508 0.39107 0.0
H784 H 0.28661 0.75556 0.4516 0.0
C785 C 0.26254 0.67112 0.39295 0.0
C786 C 0.26012 0.64755 0.41586 0.0
H787 H 0.27808 0.74252 0.37303 0.0
H788 H 0.25699 0.64844 0.37639 0.0
C789 C 0.26708 0.67816 0.43695 0.0
C790 C 0.49759 0.63481 0.43762 0.0
C791 C 0.53309 0.65529 0.41757 0.0
H792 H 0.41739 0.58022 0.4502 0.0
C793 C 0.51493 0.63182 0.39461 0.0
H794 H 0.51053 0.65199 0.45557 0.0
C795 C 0.46139 0.59101 0.39146 0.0
C796 C 0.42504 0.57222 0.41129 0.0
H797 H 0.54138 0.64671 0.37883 0.0
H798 H 0.44795 0.57558 0.37329 0.0
C799 C 0.44426 0.59341 0.43456 0.0
C800 C 0.5785 0.8937 0.43642 0.0
C801 C 0.60003 0.89413 0.41329 0.0
H802 H 0.51994 0.90365 0.45679 0.0
C803 C 0.58176 0.91084 0.39292 0.0
H804 H 0.59145 0.8808 0.45247 0.0
C805 C 0.54102 0.92423 0.39544 0.0
C806 C 0.51735 0.9206 0.41833 0.0
H807 H 0.59758 0.91171 0.37484 0.0
H808 H 0.52652 0.93517 0.37931 0.0
C809 C 0.53731 0.90648 0.43889 0.0
C810 C 1.04084 0.91584 0.21133 0.0
C811 C 1.00701 0.90236 0.23189 0.0
H812 H 0.12018 0.9409 0.19776 0.0
C813 C 1.0271 0.89925 0.25485 0.0
H814 H 1.02628 0.91827 0.19338 0.0
C815 C 0.08094 0.91251 0.2574 0.0
C816 C 0.11564 0.92858 0.23701 0.0
H817 H 1.00186 0.8888 0.27099 0.0
H818 H 0.09588 0.91206 0.27551 0.0
C819 C 0.09456 0.92848 0.21383 0.0
C820 C 0.26779 0.18534 0.2104 0.0
C821 C 0.28433 0.16675 0.23066 0.0
H822 H 0.24053 0.23871 0.19713 0.0
C823 C 0.29115 0.19248 0.25317 0.0
H824 H 0.26251 0.16639 0.19278 0.0
C825 C 0.27816 0.23368 0.25573 0.0
C826 C 0.25876 0.25035 0.23575 0.0
H827 H 0.30401 0.17904 0.26906 0.0
H828 H 0.28124 0.25094 0.2736 0.0
C829 C 0.2555 0.22702 0.21286 0.0
C830 C 0.94853 0.10295 0.25506 0.0
C831 C 0.93267 0.06791 0.23497 0.0
H832 H 1.00247 0.18212 0.26872 0.0
C833 C 0.95731 0.08877 0.21219 0.0
H834 H 0.93033 0.08823 0.27286 0.0
C835 C 0.99915 0.14246 0.20993 0.0
C836 C 1.01675 0.17651 0.23032 0.0
H837 H 0.94634 0.06288 0.19639 0.0
H838 H 1.01894 0.15676 0.19238 0.0
C839 C 0.98994 0.15674 0.25273 0.0
C840 C 0.90478 0.99722 0.72847 0.0
C841 C 0.90664 0.97527 0.75125 0.0
H842 H 0.91743 0.06779 0.70845 0.0
C843 C 0.91724 1.00727 0.77215 0.0
H844 H 0.8966 0.97347 0.71206 0.0
C845 C 0.92842 0.06105 0.77018 0.0
C846 C 0.93001 0.08424 0.7472 0.0
H847 H 0.91865 0.99129 0.78999 0.0
H848 H 0.93872 0.08523 0.78653 0.0
C849 C 0.91665 0.05125 0.72644 0.0
C850 C 0.15133 0.97086 0.77445 0.0
C851 C 0.18717 0.99075 0.75453 0.0
H852 H 0.07094 0.91679 0.78683 0.0
C853 C 0.16954 0.96699 0.73159 0.0
H854 H 0.16398 0.98832 0.79238 0.0
C855 C 0.11606 0.92633 0.72834 0.0
C856 C 0.0794 0.90812 0.74804 0.0
H857 H 0.19636 0.9815 0.71593 0.0
H858 H 0.10293 0.91052 0.71019 0.0
C859 C 0.0981 0.92965 0.7713 0.0
C860 C 0.22944 0.23617 0.73033 0.0
C861 C 0.25058 0.22395 0.75109 0.0
H862 H 0.17151 0.25607 0.71611 0.0
C863 C 0.23142 0.2276 0.77425 0.0
H864 H 0.24339 0.23398 0.7122 0.0
C865 C 0.18982 0.24005 0.77644 0.0
C866 C 0.16686 0.24932 0.75554 0.0
H867 H 0.2466 0.21821 0.7906 0.0
H868 H 0.17433 0.24047 0.79444 0.0
C869 C 0.18813 0.24876 0.73253 0.0
C870 C 0.69362 0.25439 0.55109 0.0
C871 C 0.66019 0.24154 0.5718 0.0
H872 H 0.7723 0.27689 0.53721 0.0
C873 C 0.67989 0.23632 0.59451 0.0
H874 H 0.67936 0.25841 0.53331 0.0
C875 C 0.73286 0.24669 0.59673 0.0
C876 C 0.76743 0.26244 0.57629 0.0
H877 H 0.65496 0.2261 0.61075 0.0
H878 H 0.74737 0.2444 0.61471 0.0
C879 C 0.74675 0.26462 0.55329 0.0
C880 C 0.92523 0.5203 0.55672 0.0
C881 C 0.93408 0.49558 0.57712 0.0
H882 H 0.90418 0.57836 0.54358 0.0
C883 C 0.93284 0.51464 0.60052 0.0
H884 H 0.92633 0.50656 0.53846 0.0
C885 C 0.91958 0.55556 0.60353 0.0
C886 C 0.90805 0.5785 0.58315 0.0
H887 H 0.93964 0.49626 0.61654 0.0
H888 H 0.91644 0.56777 0.62185 0.0
C889 C 0.91277 0.56162 0.55968 0.0
C890 C 0.6193 0.43909 0.60541 0.0
C891 C 0.59083 0.40946 0.58481 0.0
H892 H 0.68181 0.51454 0.61923 0.0
C893 C 0.60066 0.43689 0.56226 0.0
H894 H 0.61272 0.41947 0.62311 0.0
C895 C 0.64038 0.49161 0.5601 0.0
C896 C 0.67107 0.5201 0.58042 0.0
H897 H 0.57962 0.41548 0.54602 0.0
H898 H 0.64872 0.51088 0.54225 0.0
C899 C 0.65897 0.49371 0.60323 0.0
loop_
_geom_bond_atom_site_label_1
_geom_bond_atom_site_label_2
_geom_bond_distance
_geom_bond_site_symmetry_2
_ccdc_geom_bond_type
O0 Tb1 2.506 . S
O0 C14 1.265 . S
Tb1 O0 2.506 . S
Tb1 O6 2.312 . S
Tb1 O10 2.271 . S
Tb1 O12 2.338 . S
Tb1 O19 2.441 . S
C2 O10 1.252 . S
C2 O11 1.253 1_545 S
O3 Tb4 2.271 . S
O3 C13 1.252 . S
Tb4 O3 2.271 . S
Tb4 O7 2.338 . S
Tb4 O11 2.312 . S
Tb4 O15 2.441 . S
Tb4 O16 2.506 . S
C5 O15 1.244 . S
C5 O16 1.265 . S
O6 Tb1 2.312 . S
O6 C13 1.253 1_545 S
O7 Tb4 2.338 . S
O7 C8 1.258 . S
C8 O7 1.258 . S
C8 O9 1.251 . S
O9 C8 1.251 . S
O10 Tb1 2.271 . S
O10 C2 1.252 . S
O11 C2 1.253 1_565 S
O11 Tb4 2.312 . S
O12 Tb1 2.338 . S
O12 C17 1.258 . S
C13 O3 1.252 . S
C13 O6 1.253 1_565 S
C14 O0 1.265 . S
C14 O19 1.244 . S
O15 Tb4 2.441 . S
O15 C5 1.244 . S
O16 Tb4 2.506 . S
O16 C5 1.265 . S
C17 O12 1.258 . S
C17 O18 1.251 . S
O18 C17 1.251 . S
O19 Tb1 2.441 . S
O19 C14 1.244 . S
O20 Tb21 2.506 . S
O20 C34 1.265 . S
Tb21 O20 2.506 . S
Tb21 O26 2.312 1_655 S
Tb21 O30 2.271 . S
Tb21 O32 2.338 . S
Tb21 O39 2.441 . S
C22 O30 1.252 1_455 S
C22 O31 1.253 . S
O23 Tb24 2.271 . S
O23 C33 1.252 . S
Tb24 O23 2.271 . S
Tb24 O27 2.338 . S
Tb24 O31 2.312 . S
Tb24 O35 2.441 . S
Tb24 O36 2.506 . S
C25 O35 1.244 . S
C25 O36 1.265 . S
O26 Tb21 2.312 1_455 S
O26 C33 1.253 . S
O27 Tb24 2.338 . S
O27 C28 1.258 . S
C28 O27 1.258 . S
C28 O29 1.251 . S
O29 C28 1.251 . S
O30 Tb21 2.271 . S
O30 C22 1.252 1_655 S
O31 C22 1.253 . S
O31 Tb24 2.312 . S
O32 Tb21 2.338 . S
O32 C37 1.258 . S
C33 O23 1.252 . S
C33 O26 1.253 . S
C34 O20 1.265 . S
C34 O39 1.244 . S
O35 Tb24 2.441 . S
O35 C25 1.244 . S
O36 Tb24 2.506 . S
O36 C25 1.265 . S
C37 O32 1.258 . S
C37 O38 1.251 . S
O38 C37 1.251 . S
O39 Tb21 2.441 . S
O39 C34 1.244 . S
O40 Tb41 2.506 . S
O40 C54 1.265 . S
Tb41 O40 2.506 . S
Tb41 O46 2.312 . S
Tb41 O50 2.271 . S
Tb41 O52 2.338 . S
Tb41 O59 2.441 . S
C42 O50 1.252 . S
C42 O51 1.253 . S
O43 Tb44 2.271 . S
O43 C53 1.252 . S
Tb44 O43 2.271 . S
Tb44 O47 2.338 . S
Tb44 O51 2.312 . S
Tb44 O55 2.441 . S
Tb44 O56 2.506 . S
C45 O55 1.244 . S
C45 O56 1.265 . S
O46 Tb41 2.312 . S
O46 C53 1.253 . S
O47 Tb44 2.338 . S
O47 C48 1.258 . S
C48 O47 1.258 . S
C48 O49 1.251 . S
O49 C48 1.251 . S
O50 Tb41 2.271 . S
O50 C42 1.252 . S
O51 C42 1.253 . S
O51 Tb44 2.312 . S
O52 Tb41 2.338 . S
O52 C57 1.258 . S
C53 O43 1.252 . S
C53 O46 1.253 . S
C54 O40 1.265 . S
C54 O59 1.244 . S
O55 Tb44 2.441 . S
O55 C45 1.244 . S
O56 Tb44 2.506 . S
O56 C45 1.265 . S
C57 O52 1.258 . S
C57 O58 1.251 . S
O58 C57 1.251 . S
O59 Tb41 2.441 . S
O59 C54 1.244 . S
O60 Tb61 2.506 . S
O60 C74 1.265 . S
Tb61 O60 2.506 . S
Tb61 O66 2.312 . S
Tb61 O70 2.271 . S
Tb61 O72 2.338 . S
Tb61 O79 2.441 . S
C62 O70 1.252 . S
C62 O71 1.253 1_455 S
O63 Tb64 2.271 . S
O63 C73 1.252 . S
Tb64 O63 2.271 . S
Tb64 O67 2.338 . S
Tb64 O71 2.312 . S
Tb64 O75 2.441 . S
Tb64 O76 2.506 . S
C65 O75 1.244 . S
C65 O76 1.265 . S
O66 Tb61 2.312 . S
O66 C73 1.253 1_455 S
O67 Tb64 2.338 . S
O67 C68 1.258 . S
C68 O67 1.258 . S
C68 O69 1.251 . S
O69 C68 1.251 . S
O70 Tb61 2.271 . S
O70 C62 1.252 . S
O71 C62 1.253 1_655 S
O71 Tb64 2.312 . S
O72 Tb61 2.338 . S
O72 C77 1.258 . S
C73 O63 1.252 . S
C73 O66 1.253 1_655 S
C74 O60 1.265 . S
C74 O79 1.244 . S
O75 Tb64 2.441 . S
O75 C65 1.244 . S
O76 Tb64 2.506 . S
O76 C65 1.265 . S
C77 O72 1.258 . S
C77 O78 1.251 . S
O78 C77 1.251 . S
O79 Tb61 2.441 . S
O79 C74 1.244 . S
O80 Tb81 2.506 . S
O80 C94 1.265 . S
Tb81 O80 2.506 . S
Tb81 O86 2.312 . S
Tb81 O90 2.271 . S
Tb81 O92 2.338 . S
Tb81 O99 2.441 . S
C82 O90 1.252 . S
C82 O91 1.253 . S
O83 Tb84 2.271 . S
O83 C93 1.252 . S
Tb84 O83 2.271 . S
Tb84 O87 2.338 . S
Tb84 O91 2.312 . S
Tb84 O95 2.441 . S
Tb84 O96 2.506 . S
C85 O95 1.244 . S
C85 O96 1.265 . S
O86 Tb81 2.312 . S
O86 C93 1.253 . S
O87 Tb84 2.338 . S
O87 C88 1.258 . S
C88 O87 1.258 . S
C88 O89 1.251 . S
O89 C88 1.251 . S
O90 Tb81 2.271 . S
O90 C82 1.252 . S
O91 C82 1.253 . S
O91 Tb84 2.312 . S
O92 Tb81 2.338 . S
O92 C97 1.258 . S
C93 O83 1.252 . S
C93 O86 1.253 . S
C94 O80 1.265 . S
C94 O99 1.244 . S
O95 Tb84 2.441 . S
O95 C85 1.244 . S
O96 Tb84 2.506 . S
O96 C85 1.265 . S
C97 O92 1.258 . S
C97 O98 1.251 . S
O98 C97 1.251 . S
O99 Tb81 2.441 . S
O99 C94 1.244 . S
O100 Tb101 2.506 . S
O100 C114 1.265 . S
Tb101 O100 2.506 . S
Tb101 O106 2.312 1_565 S
Tb101 O110 2.271 . S
Tb101 O112 2.338 . S
Tb101 O119 2.441 . S
C102 O110 1.252 1_545 S
C102 O111 1.253 . S
O103 Tb104 2.271 . S
O103 C113 1.252 . S
Tb104 O103 2.271 . S
Tb104 O107 2.338 . S
Tb104 O111 2.312 . S
Tb104 O115 2.441 . S
Tb104 O116 2.506 . S
C105 O115 1.244 . S
C105 O116 1.265 . S
O106 Tb101 2.312 1_545 S
O106 C113 1.253 . S
O107 Tb104 2.338 . S
O107 C108 1.258 . S
C108 O107 1.258 . S
C108 O109 1.251 . S
O109 C108 1.251 . S
O110 Tb101 2.271 . S
O110 C102 1.252 1_565 S
O111 C102 1.253 . S
O111 Tb104 2.312 . S
O112 Tb101 2.338 . S
O112 C117 1.258 . S
C113 O103 1.252 . S
C113 O106 1.253 . S
C114 O100 1.265 . S
C114 O119 1.244 . S
O115 Tb104 2.441 . S
O115 C105 1.244 . S
O116 Tb104 2.506 . S
O116 C105 1.265 . S
C117 O112 1.258 . S
C117 O118 1.251 . S
O118 C117 1.251 . S
O119 Tb101 2.441 . S
O119 C114 1.244 . S
O120 Tb121 2.506 . S
O120 C134 1.265 . S
Tb121 O120 2.506 . S
Tb121 O126 2.312 . S
Tb121 O130 2.271 . S
Tb121 O132 2.338 . S
Tb121 O139 2.441 . S
C122 O130 1.252 . S
C122 O131 1.253 . S
O123 Tb124 2.271 . S
O123 C133 1.252 . S
Tb124 O123 2.271 . S
Tb124 O127 2.338 . S
Tb124 O131 2.312 . S
Tb124 O135 2.441 . S
Tb124 O136 2.506 . S
C125 O135 1.244 . S
C125 O136 1.265 . S
O126 Tb121 2.312 . S
O126 C133 1.253 . S
O127 Tb124 2.338 . S
O127 C128 1.258 . S
C128 O127 1.258 . S
C128 O129 1.251 . S
O129 C128 1.251 . S
O130 Tb121 2.271 . S
O130 C122 1.252 . S
O131 C122 1.253 . S
O131 Tb124 2.312 . S
O132 Tb121 2.338 . S
O132 C137 1.258 . S
C133 O123 1.252 . S
C133 O126 1.253 . S
C134 O120 1.265 . S
C134 O139 1.244 . S
O135 Tb124 2.441 . S
O135 C125 1.244 . S
O136 Tb124 2.506 . S
O136 C125 1.265 . S
C137 O132 1.258 . S
C137 O138 1.251 . S
O138 C137 1.251 . S
O139 Tb121 2.441 . S
O139 C134 1.244 . S
O140 Tb141 2.506 . S
O140 C154 1.265 . S
Tb141 O140 2.506 . S
Tb141 O146 2.312 . S
Tb141 O150 2.271 . S
Tb141 O152 2.338 . S
Tb141 O159 2.441 . S
C142 O150 1.252 . S
C142 O151 1.253 . S
O143 Tb144 2.271 . S
O143 C153 1.252 . S
Tb144 O143 2.271 . S
Tb144 O147 2.338 . S
Tb144 O151 2.312 . S
Tb144 O155 2.441 . S
Tb144 O156 2.506 . S
C145 O155 1.244 . S
C145 O156 1.265 . S
O146 Tb141 2.312 . S
O146 C153 1.253 . S
O147 Tb144 2.338 . S
O147 C148 1.258 . S
C148 O147 1.258 . S
C148 O149 1.251 . S
O149 C148 1.251 . S
O150 Tb141 2.271 . S
O150 C142 1.252 . S
O151 C142 1.253 . S
O151 Tb144 2.312 . S
O152 Tb141 2.338 . S
O152 C157 1.258 . S
C153 O143 1.252 . S
C153 O146 1.253 . S
C154 O140 1.265 . S
C154 O159 1.244 . S
O155 Tb144 2.441 . S
O155 C145 1.244 . S
O156 Tb144 2.506 . S
O156 C145 1.265 . S
C157 O152 1.258 . S
C157 O158 1.251 . S
O158 C157 1.251 . S
O159 Tb141 2.441 . S
O159 C154 1.244 . S
O160 Tb161 2.506 . S
O160 C174 1.265 . S
Tb161 O160 2.506 . S
Tb161 O166 2.312 . S
Tb161 O170 2.271 . S
Tb161 O172 2.338 . S
Tb161 O179 2.441 . S
C162 O170 1.252 . S
C162 O171 1.253 . S
O163 Tb164 2.271 . S
O163 C173 1.252 . S
Tb164 O163 2.271 . S
Tb164 O167 2.338 . S
Tb164 O171 2.312 . S
Tb164 O175 2.441 1_565 S
Tb164 O176 2.506 1_565 S
C165 O175 1.244 . S
C165 O176 1.265 . S
O166 Tb161 2.312 . S
O166 C173 1.253 . S
O167 Tb164 2.338 . S
O167 C168 1.258 . S
C168 O167 1.258 . S
C168 O169 1.251 . S
O169 C168 1.251 . S
O170 Tb161 2.271 . S
O170 C162 1.252 . S
O171 C162 1.253 . S
O171 Tb164 2.312 . S
O172 Tb161 2.338 . S
O172 C177 1.258 . S
C173 O163 1.252 . S
C173 O166 1.253 . S
C174 O160 1.265 . S
C174 O179 1.244 . S
O175 Tb164 2.441 1_545 S
O175 C165 1.244 . S
O176 Tb164 2.506 1_545 S
O176 C165 1.265 . S
C177 O172 1.258 . S
C177 O178 1.251 . S
O178 C177 1.251 . S
O179 Tb161 2.441 . S
O179 C174 1.244 . S
O180 Tb181 2.506 . S
O180 C194 1.265 . S
Tb181 O180 2.506 . S
Tb181 O186 2.312 . S
Tb181 O190 2.271 . S
Tb181 O192 2.338 . S
Tb181 O199 2.441 . S
C182 O190 1.252 . S
C182 O191 1.253 . S
O183 Tb184 2.271 . S
O183 C193 1.252 . S
Tb184 O183 2.271 . S
Tb184 O187 2.338 . S
Tb184 O191 2.312 . S
Tb184 O195 2.441 . S
Tb184 O196 2.506 . S
C185 O195 1.244 . S
C185 O196 1.265 . S
O186 Tb181 2.312 . S
O186 C193 1.253 . S
O187 Tb184 2.338 . S
O187 C188 1.258 . S
C188 O187 1.258 . S
C188 O189 1.251 . S
O189 C188 1.251 . S
O190 Tb181 2.271 . S
O190 C182 1.252 . S
O191 C182 1.253 . S
O191 Tb184 2.312 . S
O192 Tb181 2.338 . S
O192 C197 1.258 . S
C193 O183 1.252 . S
C193 O186 1.253 . S
C194 O180 1.265 . S
C194 O199 1.244 . S
O195 Tb184 2.441 . S
O195 C185 1.244 . S
O196 Tb184 2.506 . S
O196 C185 1.265 . S
C197 O192 1.258 . S
C197 O198 1.251 . S
O198 C197 1.251 . S
O199 Tb181 2.441 . S
O199 C194 1.244 . S
O200 Tb201 2.506 1_545 S
O200 C214 1.265 . S
Tb201 O200 2.506 1_565 S
Tb201 O206 2.312 . S
Tb201 O210 2.271 . S
Tb201 O212 2.338 . S
Tb201 O219 2.441 . S
C202 O210 1.252 . S
C202 O211 1.253 . S
O203 Tb204 2.271 . S
O203 C213 1.252 . S
Tb204 O203 2.271 . S
Tb204 O207 2.338 . S
Tb204 O211 2.312 . S
Tb204 O215 2.441 . S
Tb204 O216 2.506 . S
C205 O215 1.244 . S
C205 O216 1.265 . S
O206 Tb201 2.312 . S
O206 C213 1.253 . S
O207 Tb204 2.338 . S
O207 C208 1.258 . S
C208 O207 1.258 . S
C208 O209 1.251 . S
O209 C208 1.251 . S
O210 Tb201 2.271 . S
O210 C202 1.252 . S
O211 C202 1.253 . S
O211 Tb204 2.312 . S
O212 Tb201 2.338 . S
O212 C217 1.258 . S
C213 O203 1.252 . S
C213 O206 1.253 . S
C214 O200 1.265 . S
C214 O219 1.244 1_545 S
O215 Tb204 2.441 . S
O215 C205 1.244 . S
O216 Tb204 2.506 . S
O216 C205 1.265 . S
C217 O212 1.258 . S
C217 O218 1.251 . S
O218 C217 1.251 . S
O219 Tb201 2.441 . S
O219 C214 1.244 1_565 S
O220 Tb221 2.506 . S
O220 C234 1.265 . S
Tb221 O220 2.506 . S
Tb221 O226 2.312 . S
Tb221 O230 2.271 . S
Tb221 O232 2.338 . S
Tb221 O239 2.441 . S
C222 O230 1.252 . S
C222 O231 1.253 . S
O223 Tb224 2.271 . S
O223 C233 1.252 . S
Tb224 O223 2.271 . S
Tb224 O227 2.338 . S
Tb224 O231 2.312 . S
Tb224 O235 2.441 . S
Tb224 O236 2.506 . S
C225 O235 1.244 . S
C225 O236 1.265 . S
O226 Tb221 2.312 . S
O226 C233 1.253 . S
O227 Tb224 2.338 . S
O227 C228 1.258 . S
C228 O227 1.258 . S
C228 O229 1.251 . S
O229 C228 1.251 . S
O230 Tb221 2.271 . S
O230 C222 1.252 . S
O231 C222 1.253 . S
O231 Tb224 2.312 . S
O232 Tb221 2.338 . S
O232 C237 1.258 . S
C233 O223 1.252 . S
C233 O226 1.253 . S
C234 O220 1.265 . S
C234 O239 1.244 . S
O235 Tb224 2.441 . S
O235 C225 1.244 . S
O236 Tb224 2.506 . S
O236 C225 1.265 . S
C237 O232 1.258 . S
C237 O238 1.251 . S
O238 C237 1.251 . S
O239 Tb221 2.441 . S
O239 C234 1.244 . S
O240 Tb241 2.506 . S
O240 C254 1.265 . S
Tb241 O240 2.506 . S
Tb241 O246 2.312 . S
Tb241 O250 2.271 . S
Tb241 O252 2.338 . S
Tb241 O259 2.441 . S
C242 O250 1.252 . S
C242 O251 1.253 . S
O243 Tb244 2.271 . S
O243 C253 1.252 . S
Tb244 O243 2.271 . S
Tb244 O247 2.338 . S
Tb244 O251 2.312 . S
Tb244 O255 2.441 . S
Tb244 O256 2.506 . S
C245 O255 1.244 . S
C245 O256 1.265 . S
O246 Tb241 2.312 . S
O246 C253 1.253 . S
O247 Tb244 2.338 . S
O247 C248 1.258 . S
C248 O247 1.258 . S
C248 O249 1.251 . S
O249 C248 1.251 . S
O250 Tb241 2.271 . S
O250 C242 1.252 . S
O251 C242 1.253 . S
O251 Tb244 2.312 . S
O252 Tb241 2.338 . S
O252 C257 1.258 . S
C253 O243 1.252 . S
C253 O246 1.253 . S
C254 O240 1.265 . S
C254 O259 1.244 . S
O255 Tb244 2.441 . S
O255 C245 1.244 . S
O256 Tb244 2.506 . S
O256 C245 1.265 . S
C257 O252 1.258 . S
C257 O258 1.251 . S
O258 C257 1.251 . S
O259 Tb241 2.441 . S
O259 C254 1.244 . S
O260 Tb261 2.506 . S
O260 C274 1.265 . S
Tb261 O260 2.506 . S
Tb261 O266 2.312 . S
Tb261 O270 2.271 . S
Tb261 O272 2.338 . S
Tb261 O279 2.441 . S
C262 O270 1.252 . S
C262 O271 1.253 . S
O263 Tb264 2.271 . S
O263 C273 1.252 . S
Tb264 O263 2.271 . S
Tb264 O267 2.338 . S
Tb264 O271 2.312 . S
Tb264 O275 2.441 . S
Tb264 O276 2.506 . S
C265 O275 1.244 . S
C265 O276 1.265 . S
O266 Tb261 2.312 . S
O266 C273 1.253 . S
O267 Tb264 2.338 . S
O267 C268 1.258 . S
C268 O267 1.258 . S
C268 O269 1.251 . S
O269 C268 1.251 . S
O270 Tb261 2.271 . S
O270 C262 1.252 . S
O271 C262 1.253 . S
O271 Tb264 2.312 . S
O272 Tb261 2.338 . S
O272 C277 1.258 . S
C273 O263 1.252 . S
C273 O266 1.253 . S
C274 O260 1.265 . S
C274 O279 1.244 . S
O275 Tb264 2.441 . S
O275 C265 1.244 . S
O276 Tb264 2.506 . S
O276 C265 1.265 . S
C277 O272 1.258 . S
C277 O278 1.251 . S
O278 C277 1.251 . S
O279 Tb261 2.441 . S
O279 C274 1.244 . S
O280 Tb281 2.506 1_455 S
O280 C294 1.265 . S
Tb281 O280 2.506 1_655 S
Tb281 O286 2.312 . S
Tb281 O290 2.271 . S
Tb281 O292 2.338 . S
Tb281 O299 2.441 . S
C282 O290 1.252 . S
C282 O291 1.253 . S
O283 Tb284 2.271 . S
O283 C293 1.252 . S
Tb284 O283 2.271 . S
Tb284 O287 2.338 . S
Tb284 O291 2.312 . S
Tb284 O295 2.441 . S
Tb284 O296 2.506 . S
C285 O295 1.244 . S
C285 O296 1.265 . S
O286 Tb281 2.312 . S
O286 C293 1.253 . S
O287 Tb284 2.338 . S
O287 C288 1.258 . S
C288 O287 1.258 . S
C288 O289 1.251 . S
O289 C288 1.251 . S
O290 Tb281 2.271 . S
O290 C282 1.252 . S
O291 C282 1.253 . S
O291 Tb284 2.312 . S
O292 Tb281 2.338 . S
O292 C297 1.258 . S
C293 O283 1.252 . S
C293 O286 1.253 . S
C294 O280 1.265 . S
C294 O299 1.244 1_455 S
O295 Tb284 2.441 . S
O295 C285 1.244 . S
O296 Tb284 2.506 . S
O296 C285 1.265 . S
C297 O292 1.258 . S
C297 O298 1.251 . S
O298 C297 1.251 . S
O299 Tb281 2.441 . S
O299 C294 1.244 1_655 S
O300 Tb301 2.506 . S
O300 C314 1.265 . S
Tb301 O300 2.506 . S
Tb301 O306 2.312 . S
Tb301 O310 2.271 . S
Tb301 O312 2.338 . S
Tb301 O319 2.441 . S
C302 O310 1.252 . S
C302 O311 1.253 . S
O303 Tb304 2.271 . S
O303 C313 1.252 . S
Tb304 O303 2.271 . S
Tb304 O307 2.338 . S
Tb304 O311 2.312 . S
Tb304 O315 2.441 . S
Tb304 O316 2.506 . S
C305 O315 1.244 . S
C305 O316 1.265 . S
O306 Tb301 2.312 . S
O306 C313 1.253 . S
O307 Tb304 2.338 . S
O307 C308 1.258 . S
C308 O307 1.258 . S
C308 O309 1.251 . S
O309 C308 1.251 . S
O310 Tb301 2.271 . S
O310 C302 1.252 . S
O311 C302 1.253 . S
O311 Tb304 2.312 . S
O312 Tb301 2.338 . S
O312 C317 1.258 . S
C313 O303 1.252 . S
C313 O306 1.253 . S
C314 O300 1.265 . S
C314 O319 1.244 . S
O315 Tb304 2.441 . S
O315 C305 1.244 . S
O316 Tb304 2.506 . S
O316 C305 1.265 . S
C317 O312 1.258 . S
C317 O318 1.251 . S
O318 C317 1.251 . S
O319 Tb301 2.441 . S
O319 C314 1.244 . S
O320 Tb321 2.506 . S
O320 C334 1.265 . S
Tb321 O320 2.506 . S
Tb321 O326 2.312 . S
Tb321 O330 2.271 . S
Tb321 O332 2.338 . S
Tb321 O339 2.441 . S
C322 O330 1.252 . S
C322 O331 1.253 . S
O323 Tb324 2.271 . S
O323 C333 1.252 . S
Tb324 O323 2.271 . S
Tb324 O327 2.338 . S
Tb324 O331 2.312 . S
Tb324 O335 2.441 1_655 S
Tb324 O336 2.506 1_655 S
C325 O335 1.244 . S
C325 O336 1.265 . S
O326 Tb321 2.312 . S
O326 C333 1.253 . S
O327 Tb324 2.338 . S
O327 C328 1.258 . S
C328 O327 1.258 . S
C328 O329 1.251 . S
O329 C328 1.251 . S
O330 Tb321 2.271 . S
O330 C322 1.252 . S
O331 C322 1.253 . S
O331 Tb324 2.312 . S
O332 Tb321 2.338 . S
O332 C337 1.258 . S
C333 O323 1.252 . S
C333 O326 1.253 . S
C334 O320 1.265 . S
C334 O339 1.244 . S
O335 Tb324 2.441 1_455 S
O335 C325 1.244 . S
O336 Tb324 2.506 1_455 S
O336 C325 1.265 . S
C337 O332 1.258 . S
C337 O338 1.251 . S
O338 C337 1.251 . S
O339 Tb321 2.441 . S
O339 C334 1.244 . S
O340 Tb341 2.506 . S
O340 C354 1.265 . S
Tb341 O340 2.506 . S
Tb341 O346 2.312 . S
Tb341 O350 2.271 . S
Tb341 O352 2.338 . S
Tb341 O359 2.441 . S
C342 O350 1.252 . S
C342 O351 1.253 . S
O343 Tb344 2.271 . S
O343 C353 1.252 . S
Tb344 O343 2.271 . S
Tb344 O347 2.338 . S
Tb344 O351 2.312 . S
Tb344 O355 2.441 . S
Tb344 O356 2.506 . S
C345 O355 1.244 . S
C345 O356 1.265 . S
O346 Tb341 2.312 . S
O346 C353 1.253 . S
O347 Tb344 2.338 . S
O347 C348 1.258 . S
C348 O347 1.258 . S
C348 O349 1.251 . S
O349 C348 1.251 . S
O350 Tb341 2.271 . S
O350 C342 1.252 . S
O351 C342 1.253 . S
O351 Tb344 2.312 . S
O352 Tb341 2.338 . S
O352 C357 1.258 . S
C353 O343 1.252 . S
C353 O346 1.253 . S
C354 O340 1.265 . S
C354 O359 1.244 . S
O355 Tb344 2.441 . S
O355 C345 1.244 . S
O356 Tb344 2.506 . S
O356 C345 1.265 . S
C357 O352 1.258 . S
C357 O358 1.251 . S
O358 C357 1.251 . S
O359 Tb341 2.441 . S
O359 C354 1.244 . S
C360 C361 1.387 . S
C360 H364 0.950 . S
C360 C369 1.390 . S
C361 C360 1.387 . S
C361 C363 1.387 . S
H362 C369 0.950 . S
C363 C361 1.387 . S
C363 C365 1.390 . S
C363 H367 0.950 . S
H364 C360 0.950 . S
C365 C363 1.390 . S
C365 C366 1.387 . S
C365 H368 0.950 . S
C366 C365 1.387 . S
C366 C369 1.387 . S
H367 C363 0.950 . S
H368 C365 0.950 . S
C369 C360 1.390 . S
C369 H362 0.950 . S
C369 C366 1.387 . S
C370 C371 1.387 . S
C370 H374 0.950 . S
C370 C379 1.390 . S
C371 C370 1.387 . S
C371 C373 1.387 . S
H372 C379 0.950 . S
C373 C371 1.387 . S
C373 C375 1.390 . S
C373 H377 0.950 . S
H374 C370 0.950 . S
C375 C373 1.390 . S
C375 C376 1.387 . S
C375 H378 0.950 . S
C376 C375 1.387 . S
C376 C379 1.387 . S
H377 C373 0.950 . S
H378 C375 0.950 . S
C379 C370 1.390 . S
C379 H372 0.950 . S
C379 C376 1.387 . S
C380 C381 1.387 . S
C380 H384 0.950 . S
C380 C389 1.390 . S
C381 C380 1.387 . S
C381 C383 1.387 . S
H382 C389 0.950 . S
C383 C381 1.387 . S
C383 C385 1.390 . S
C383 H387 0.950 . S
H384 C380 0.950 . S
C385 C383 1.390 . S
C385 C386 1.387 . S
C385 H388 0.950 . S
C386 C385 1.387 . S
C386 C389 1.387 . S
H387 C383 0.950 . S
H388 C385 0.950 . S
C389 C380 1.390 . S
C389 H382 0.950 . S
C389 C386 1.387 . S
C390 C391 1.387 . S
C390 H394 0.950 . S
C390 C399 1.390 . S
C391 C390 1.387 . S
C391 C393 1.387 . S
H392 C399 0.950 . S
C393 C391 1.387 . S
C393 C395 1.390 . S
C393 H397 0.950 . S
H394 C390 0.950 . S
C395 C393 1.390 . S
C395 C396 1.387 . S
C395 H398 0.950 . S
C396 C395 1.387 . S
C396 C399 1.387 . S
H397 C393 0.950 . S
H398 C395 0.950 . S
C399 C390 1.390 . S
C399 H392 0.950 . S
C399 C396 1.387 . S
C400 C401 1.387 . S
C400 H404 0.950 . S
C400 C409 1.390 . S
C401 C400 1.387 . S
C401 C403 1.387 . S
H402 C409 0.950 . S
C403 C401 1.387 . S
C403 C405 1.390 . S
C403 H407 0.950 . S
H404 C400 0.950 . S
C405 C403 1.390 . S
C405 C406 1.387 . S
C405 H408 0.950 . S
C406 C405 1.387 . S
C406 C409 1.387 . S
H407 C403 0.950 . S
H408 C405 0.950 . S
C409 C400 1.390 . S
C409 H402 0.950 . S
C409 C406 1.387 . S
C410 C411 1.387 . S
C410 H414 0.950 . S
C410 C419 1.390 . S
C411 C410 1.387 . S
C411 C413 1.387 . S
H412 C419 0.950 . S
C413 C411 1.387 . S
C413 C415 1.390 . S
C413 H417 0.950 . S
H414 C410 0.950 . S
C415 C413 1.390 . S
C415 C416 1.387 . S
C415 H418 0.950 . S
C416 C415 1.387 . S
C416 C419 1.387 . S
H417 C413 0.950 . S
H418 C415 0.950 . S
C419 C410 1.390 . S
C419 H412 0.950 . S
C419 C416 1.387 . S
C420 C421 1.387 . S
C420 H424 0.950 . S
C420 C429 1.390 . S
C421 C420 1.387 . S
C421 C423 1.387 . S
H422 C429 0.950 . S
C423 C421 1.387 . S
C423 C425 1.390 . S
C423 H427 0.950 . S
H424 C420 0.950 . S
C425 C423 1.390 . S
C425 C426 1.387 . S
C425 H428 0.950 . S
C426 C425 1.387 . S
C426 C429 1.387 . S
H427 C423 0.950 . S
H428 C425 0.950 . S
C429 C420 1.390 . S
C429 H422 0.950 . S
C429 C426 1.387 . S
C430 C431 1.387 . S
C430 H434 0.950 . S
C430 C439 1.390 . S
C431 C430 1.387 . S
C431 C433 1.387 . S
H432 C439 0.950 1_565 S
C433 C431 1.387 . S
C433 C435 1.390 . S
C433 H437 0.950 1_655 S
H434 C430 0.950 . S
C435 C433 1.390 . S
C435 C436 1.387 . S
C435 H438 0.950 . S
C436 C435 1.387 . S
C436 C439 1.387 . S
H437 C433 0.950 1_455 S
H438 C435 0.950 . S
C439 C430 1.390 . S
C439 H432 0.950 1_545 S
C439 C436 1.387 . S
C440 C441 1.387 . S
C440 H444 0.949 1_455 S
C440 C449 1.391 1_455 S
C441 C440 1.387 . S
C441 C443 1.387 . S
H442 C449 0.950 . S
C443 C441 1.387 . S
C443 C445 1.390 . S
C443 H447 0.950 . S
H444 C440 0.949 1_655 S
C445 C443 1.390 . S
C445 C446 1.387 1_455 S
C445 H448 0.950 . S
C446 C445 1.387 1_655 S
C446 C449 1.387 . S
H447 C443 0.950 . S
H448 C445 0.950 . S
C449 C440 1.391 1_655 S
C449 H442 0.950 . S
C449 C446 1.387 . S
C450 C451 1.387 . S
C450 H454 0.950 . S
C450 C459 1.390 . S
C451 C450 1.387 . S
C451 C453 1.387 . S
H452 C459 0.950 . S
C453 C451 1.387 . S
C453 C455 1.390 . S
C453 H457 0.950 . S
H454 C450 0.950 . S
C455 C453 1.390 . S
C455 C456 1.387 . S
C455 H458 0.950 . S
C456 C455 1.387 . S
C456 C459 1.387 . S
H457 C453 0.950 . S
H458 C455 0.950 . S
C459 C450 1.390 . S
C459 H452 0.950 . S
C459 C456 1.387 . S
C460 C461 1.387 . S
C460 H464 0.950 . S
C460 C469 1.390 . S
C461 C460 1.387 . S
C461 C463 1.387 . S
H462 C469 0.950 . S
C463 C461 1.387 . S
C463 C465 1.390 . S
C463 H467 0.950 . S
H464 C460 0.950 . S
C465 C463 1.390 . S
C465 C466 1.387 . S
C465 H468 0.950 . S
C466 C465 1.387 . S
C466 C469 1.387 . S
H467 C463 0.950 . S
H468 C465 0.950 . S
C469 C460 1.390 . S
C469 H462 0.950 . S
C469 C466 1.387 . S
C470 C471 1.387 . S
C470 H474 0.950 . S
C470 C479 1.390 . S
C471 C470 1.387 . S
C471 C473 1.387 . S
H472 C479 0.950 . S
C473 C471 1.387 . S
C473 C475 1.390 . S
C473 H477 0.950 . S
H474 C470 0.950 . S
C475 C473 1.390 . S
C475 C476 1.387 . S
C475 H478 0.950 . S
C476 C475 1.387 . S
C476 C479 1.387 . S
H477 C473 0.950 . S
H478 C475 0.950 . S
C479 C470 1.390 . S
C479 H472 0.950 . S
C479 C476 1.387 . S
C480 C481 1.387 . S
C480 H484 0.950 . S
C480 C489 1.390 . S
C481 C480 1.387 . S
C481 C483 1.387 . S
H482 C489 0.950 . S
C483 C481 1.387 . S
C483 C485 1.390 . S
C483 H487 0.950 . S
H484 C480 0.950 . S
C485 C483 1.390 . S
C485 C486 1.387 . S
C485 H488 0.950 . S
C486 C485 1.387 . S
C486 C489 1.387 . S
H487 C483 0.950 . S
H488 C485 0.950 . S
C489 C480 1.390 . S
C489 H482 0.950 . S
C489 C486 1.387 . S
C490 C491 1.387 . S
C490 H494 0.950 . S
C490 C499 1.390 . S
C491 C490 1.387 . S
C491 C493 1.387 . S
H492 C499 0.950 . S
C493 C491 1.387 . S
C493 C495 1.390 . S
C493 H497 0.950 . S
H494 C490 0.950 . S
C495 C493 1.390 . S
C495 C496 1.387 . S
C495 H498 0.950 . S
C496 C495 1.387 . S
C496 C499 1.387 . S
H497 C493 0.950 . S
H498 C495 0.950 . S
C499 C490 1.390 . S
C499 H492 0.950 . S
C499 C496 1.387 . S
C500 C501 1.387 . S
C500 H504 0.950 . S
C500 C509 1.390 . S
C501 C500 1.387 . S
C501 C503 1.387 . S
H502 C509 0.950 . S
C503 C501 1.387 . S
C503 C505 1.390 . S
C503 H507 0.950 . S
H504 C500 0.950 . S
C505 C503 1.390 . S
C505 C506 1.387 . S
C505 H508 0.950 . S
C506 C505 1.387 . S
C506 C509 1.387 . S
H507 C503 0.950 . S
H508 C505 0.950 . S
C509 C500 1.390 . S
C509 H502 0.950 . S
C509 C506 1.387 . S
C510 C511 1.387 . S
C510 H514 0.950 . S
C510 C519 1.390 . S
C511 C510 1.387 . S
C511 C513 1.387 . S
H512 C519 0.950 . S
C513 C511 1.387 . S
C513 C515 1.390 . S
C513 H517 0.950 . S
H514 C510 0.950 . S
C515 C513 1.390 . S
C515 C516 1.387 . S
C515 H518 0.950 . S
C516 C515 1.387 . S
C516 C519 1.387 . S
H517 C513 0.950 . S
H518 C515 0.950 . S
C519 C510 1.390 . S
C519 H512 0.950 . S
C519 C516 1.387 . S
C520 C521 1.387 . S
C520 H524 0.950 . S
C520 C529 1.390 1_565 S
C521 C520 1.387 . S
C521 C523 1.387 . S
H522 C529 0.950 . S
C523 C521 1.387 . S
C523 C525 1.391 1_565 S
C523 H527 0.950 . S
H524 C520 0.950 . S
C525 C523 1.391 1_545 S
C525 C526 1.387 . S
C525 H528 0.950 . S
C526 C525 1.387 . S
C526 C529 1.387 . S
H527 C523 0.950 . S
H528 C525 0.950 . S
C529 C520 1.390 1_545 S
C529 H522 0.950 . S
C529 C526 1.387 . S
C530 C531 1.387 . S
C530 H534 0.950 1_565 S
C530 C539 1.390 . S
C531 C530 1.387 . S
C531 C533 1.387 . S
H532 C539 0.950 . S
C533 C531 1.387 . S
C533 C535 1.390 . S
C533 H537 0.950 . S
H534 C530 0.950 1_545 S
C535 C533 1.390 . S
C535 C536 1.387 . S
C535 H538 0.950 . S
C536 C535 1.387 . S
C536 C539 1.387 . S
H537 C533 0.950 . S
H538 C535 0.950 . S
C539 C530 1.390 . S
C539 H532 0.950 . S
C539 C536 1.387 . S
C540 C541 1.387 . S
C540 H544 0.950 . S
C540 C549 1.390 1_554 S
C541 C540 1.387 . S
C541 C543 1.387 . S
H542 C549 0.950 . S
C543 C541 1.387 . S
C543 C545 1.390 1_554 S
C543 H547 0.950 . S
H544 C540 0.950 . S
C545 C543 1.390 1_556 S
C545 C546 1.387 . S
C545 H548 0.950 . S
C546 C545 1.387 . S
C546 C549 1.387 . S
H547 C543 0.950 . S
H548 C545 0.950 . S
C549 C540 1.390 1_556 S
C549 H542 0.950 . S
C549 C546 1.387 . S
C550 C551 1.387 . S
C550 H554 0.950 . S
C550 C559 1.390 1_556 S
C551 C550 1.387 . S
C551 C553 1.387 . S
H552 C559 0.950 . S
C553 C551 1.387 . S
C553 C555 1.390 1_556 S
C553 H557 0.950 . S
H554 C550 0.950 . S
C555 C553 1.390 1_554 S
C555 C556 1.387 . S
C555 H558 0.950 1_455 S
C556 C555 1.387 . S
C556 C559 1.387 . S
H557 C553 0.950 . S
H558 C555 0.950 1_655 S
C559 C550 1.390 1_554 S
C559 H552 0.950 . S
C559 C556 1.387 . S
C560 C561 1.387 . S
C560 H564 0.950 . S
C560 C569 1.390 1_556 S
C561 C560 1.387 . S
C561 C563 1.387 . S
H562 C569 0.950 . S
C563 C561 1.387 . S
C563 C565 1.390 1_556 S
C563 H567 0.950 . S
H564 C560 0.950 . S
C565 C563 1.390 1_554 S
C565 C566 1.387 . S
C565 H568 0.950 . S
C566 C565 1.387 . S
C566 C569 1.387 . S
H567 C563 0.950 . S
H568 C565 0.950 . S
C569 C560 1.390 1_554 S
C569 H562 0.950 . S
C569 C566 1.387 . S
C570 C571 1.387 . S
C570 H574 0.950 . S
C570 C579 1.390 . S
C571 C570 1.387 . S
C571 C573 1.387 . S
H572 C579 0.950 . S
C573 C571 1.387 . S
C573 C575 1.390 . S
C573 H577 0.950 . S
H574 C570 0.950 . S
C575 C573 1.390 . S
C575 C576 1.387 . S
C575 H578 0.950 . S
C576 C575 1.387 . S
C576 C579 1.387 . S
H577 C573 0.950 . S
H578 C575 0.950 . S
C579 C570 1.390 . S
C579 H572 0.950 . S
C579 C576 1.387 . S
C580 C581 1.387 . S
C580 H584 0.950 . S
C580 C589 1.390 . S
C581 C580 1.387 . S
C581 C583 1.387 . S
H582 C589 0.950 . S
C583 C581 1.387 . S
C583 C585 1.390 . S
C583 H587 0.950 . S
H584 C580 0.950 . S
C585 C583 1.390 . S
C585 C586 1.387 . S
C585 H588 0.950 . S
C586 C585 1.387 . S
C586 C589 1.387 . S
H587 C583 0.950 . S
H588 C585 0.950 . S
C589 C580 1.390 . S
C589 H582 0.950 . S
C589 C586 1.387 . S
C590 C591 1.387 . S
C590 H594 0.950 . S
C590 C599 1.390 . S
C591 C590 1.387 . S
C591 C593 1.387 . S
H592 C599 0.950 . S
C593 C591 1.387 . S
C593 C595 1.390 . S
C593 H597 0.950 . S
H594 C590 0.950 . S
C595 C593 1.390 . S
C595 C596 1.387 . S
C595 H598 0.950 . S
C596 C595 1.387 . S
C596 C599 1.387 . S
H597 C593 0.950 . S
H598 C595 0.950 . S
C599 C590 1.390 . S
C599 H592 0.950 . S
C599 C596 1.387 . S
C600 C601 1.387 . S
C600 H604 0.950 . S
C600 C609 1.390 . S
C601 C600 1.387 . S
C601 C603 1.387 . S
H602 C609 0.950 . S
C603 C601 1.387 . S
C603 C605 1.390 . S
C603 H607 0.950 . S
H604 C600 0.950 . S
C605 C603 1.390 . S
C605 C606 1.387 . S
C605 H608 0.950 . S
C606 C605 1.387 . S
C606 C609 1.387 . S
H607 C603 0.950 . S
H608 C605 0.950 . S
C609 C600 1.390 . S
C609 H602 0.950 . S
C609 C606 1.387 . S
C610 C611 1.387 . S
C610 H614 0.950 . S
C610 C619 1.390 . S
C611 C610 1.387 . S
C611 C613 1.387 . S
H612 C619 0.950 . S
C613 C611 1.387 . S
C613 C615 1.390 . S
C613 H617 0.950 . S
H614 C610 0.950 . S
C615 C613 1.390 . S
C615 C616 1.387 . S
C615 H618 0.950 . S
C616 C615 1.387 . S
C616 C619 1.387 . S
H617 C613 0.950 . S
H618 C615 0.950 . S
C619 C610 1.390 . S
C619 H612 0.950 . S
C619 C616 1.387 . S
C620 C621 1.387 . S
C620 H624 0.950 . S
C620 C629 1.390 . S
C621 C620 1.387 . S
C621 C623 1.387 . S
H622 C629 0.950 . S
C623 C621 1.387 . S
C623 C625 1.390 . S
C623 H627 0.950 . S
H624 C620 0.950 . S
C625 C623 1.390 . S
C625 C626 1.387 . S
C625 H628 0.950 . S
C626 C625 1.387 . S
C626 C629 1.387 . S
H627 C623 0.950 . S
H628 C625 0.950 . S
C629 C620 1.390 . S
C629 H622 0.950 . S
C629 C626 1.387 . S
C630 C631 1.387 . S
C630 H634 0.950 . S
C630 C639 1.390 . S
C631 C630 1.387 . S
C631 C633 1.387 . S
H632 C639 0.950 . S
C633 C631 1.387 . S
C633 C635 1.390 . S
C633 H637 0.950 . S
H634 C630 0.950 . S
C635 C633 1.390 . S
C635 C636 1.387 . S
C635 H638 0.950 . S
C636 C635 1.387 . S
C636 C639 1.387 . S
H637 C633 0.950 . S
H638 C635 0.950 . S
C639 C630 1.390 . S
C639 H632 0.950 . S
C639 C636 1.387 . S
C640 C641 1.387 . S
C640 H644 0.950 . S
C640 C649 1.390 . S
C641 C640 1.387 . S
C641 C643 1.387 . S
H642 C649 0.950 . S
C643 C641 1.387 . S
C643 C645 1.390 . S
C643 H647 0.950 . S
H644 C640 0.950 . S
C645 C643 1.390 . S
C645 C646 1.387 . S
C645 H648 0.950 . S
C646 C645 1.387 . S
C646 C649 1.387 . S
H647 C643 0.950 . S
H648 C645 0.950 . S
C649 C640 1.390 . S
C649 H642 0.950 . S
C649 C646 1.387 . S
C650 C651 1.387 . S
C650 H654 0.950 . S
C650 C659 1.390 . S
C651 C650 1.387 . S
C651 C653 1.387 . S
H652 C659 0.950 . S
C653 C651 1.387 . S
C653 C655 1.390 . S
C653 H657 0.950 . S
H654 C650 0.950 . S
C655 C653 1.390 . S
C655 C656 1.387 . S
C655 H658 0.950 . S
C656 C655 1.387 . S
C656 C659 1.387 . S
H657 C653 0.950 . S
H658 C655 0.950 . S
C659 C650 1.390 . S
C659 H652 0.950 . S
C659 C656 1.387 . S
C660 C661 1.387 . S
C660 H664 0.950 . S
C660 C669 1.390 . S
C661 C660 1.387 . S
C661 C663 1.387 . S
H662 C669 0.950 . S
C663 C661 1.387 . S
C663 C665 1.390 . S
C663 H667 0.950 1_655 S
H664 C660 0.950 . S
C665 C663 1.390 . S
C665 C666 1.387 . S
C665 H668 0.950 . S
C666 C665 1.387 . S
C666 C669 1.387 . S
H667 C663 0.950 1_455 S
H668 C665 0.950 . S
C669 C660 1.390 . S
C669 H662 0.950 . S
C669 C666 1.387 . S
C670 C671 1.387 . S
C670 H674 0.950 . S
C670 C679 1.390 . S
C671 C670 1.387 . S
C671 C673 1.387 . S
H672 C679 0.950 . S
C673 C671 1.387 . S
C673 C675 1.390 . S
C673 H677 0.950 . S
H674 C670 0.950 . S
C675 C673 1.390 . S
C675 C676 1.387 . S
C675 H678 0.950 . S
C676 C675 1.387 . S
C676 C679 1.387 . S
H677 C673 0.950 . S
H678 C675 0.950 . S
C679 C670 1.390 . S
C679 H672 0.950 . S
C679 C676 1.387 . S
C680 C681 1.387 . S
C680 H684 0.950 . S
C680 C689 1.390 . S
C681 C680 1.387 . S
C681 C683 1.387 . S
H682 C689 0.950 . S
C683 C681 1.387 . S
C683 C685 1.390 . S
C683 H687 0.950 . S
H684 C680 0.950 . S
C685 C683 1.390 . S
C685 C686 1.387 . S
C685 H688 0.950 . S
C686 C685 1.387 . S
C686 C689 1.387 . S
H687 C683 0.950 . S
H688 C685 0.950 . S
C689 C680 1.390 . S
C689 H682 0.950 . S
C689 C686 1.387 . S
C690 C691 1.387 1_455 S
C690 H694 0.950 1_455 S
C690 C699 1.390 . S
C691 C690 1.387 1_655 S
C691 C693 1.387 1_655 S
H692 C699 0.950 . S
C693 C691 1.387 1_455 S
C693 C695 1.390 . S
C693 H697 0.950 1_455 S
H694 C690 0.950 1_655 S
C695 C693 1.390 . S
C695 C696 1.387 . S
C695 H698 0.950 . S
C696 C695 1.387 . S
C696 C699 1.387 . S
H697 C693 0.950 1_655 S
H698 C695 0.950 . S
C699 C690 1.390 . S
C699 H692 0.950 . S
C699 C696 1.387 . S
C700 C701 1.387 . S
C700 H704 0.950 . S
C700 C709 1.390 . S
C701 C700 1.387 . S
C701 C703 1.387 . S
H702 C709 0.950 . S
C703 C701 1.387 . S
C703 C705 1.390 . S
C703 H707 0.950 . S
H704 C700 0.950 . S
C705 C703 1.390 . S
C705 C706 1.387 . S
C705 H708 0.950 . S
C706 C705 1.387 . S
C706 C709 1.387 . S
H707 C703 0.950 . S
H708 C705 0.950 . S
C709 C700 1.390 . S
C709 H702 0.950 . S
C709 C706 1.387 . S
C710 C711 1.387 1_545 S
C710 H714 0.950 1_545 S
C710 C719 1.390 . S
C711 C710 1.387 1_565 S
C711 C713 1.387 1_565 S
H712 C719 0.950 . S
C713 C711 1.387 1_545 S
C713 C715 1.390 . S
C713 H717 0.950 1_545 S
H714 C710 0.950 1_565 S
C715 C713 1.390 . S
C715 C716 1.387 . S
C715 H718 0.950 . S
C716 C715 1.387 . S
C716 C719 1.387 . S
H717 C713 0.950 1_565 S
H718 C715 0.950 . S
C719 C710 1.390 . S
C719 H712 0.950 . S
C719 C716 1.387 . S
C720 C721 1.387 . S
C720 H724 0.950 . S
C720 C729 1.390 . S
C721 C720 1.387 . S
C721 C723 1.387 . S
H722 C729 0.950 . S
C723 C721 1.387 . S
C723 C725 1.390 . S
C723 H727 0.950 . S
H724 C720 0.950 . S
C725 C723 1.390 . S
C725 C726 1.387 . S
C725 H728 0.950 . S
C726 C725 1.387 . S
C726 C729 1.387 . S
H727 C723 0.950 . S
H728 C725 0.950 . S
C729 C720 1.390 . S
C729 H722 0.950 . S
C729 C726 1.387 . S
C730 C731 1.387 . S
C730 H734 0.950 . S
C730 C739 1.390 . S
C731 C730 1.387 . S
C731 C733 1.387 . S
H732 C739 0.950 . S
C733 C731 1.387 . S
C733 C735 1.390 . S
C733 H737 0.950 . S
H734 C730 0.950 . S
C735 C733 1.390 . S
C735 C736 1.387 . S
C735 H738 0.950 . S
C736 C735 1.387 . S
C736 C739 1.387 . S
H737 C733 0.950 . S
H738 C735 0.950 . S
C739 C730 1.390 . S
C739 H732 0.950 . S
C739 C736 1.387 . S
C740 C741 1.387 . S
C740 H744 0.950 . S
C740 C749 1.390 . S
C741 C740 1.387 . S
C741 C743 1.387 . S
H742 C749 0.950 . S
C743 C741 1.387 . S
C743 C745 1.390 . S
C743 H747 0.950 . S
H744 C740 0.950 . S
C745 C743 1.390 . S
C745 C746 1.387 . S
C745 H748 0.950 . S
C746 C745 1.387 . S
C746 C749 1.387 . S
H747 C743 0.950 . S
H748 C745 0.950 . S
C749 C740 1.390 . S
C749 H742 0.950 . S
C749 C746 1.387 . S
C750 C751 1.387 . S
C750 H754 0.950 . S
C750 C759 1.390 . S
C751 C750 1.387 . S
C751 C753 1.387 . S
H752 C759 0.950 . S
C753 C751 1.387 . S
C753 C755 1.390 . S
C753 H757 0.950 . S
H754 C750 0.950 . S
C755 C753 1.390 . S
C755 C756 1.387 . S
C755 H758 0.950 . S
C756 C755 1.387 . S
C756 C759 1.387 . S
H757 C753 0.950 . S
H758 C755 0.950 . S
C759 C750 1.390 . S
C759 H752 0.950 . S
C759 C756 1.387 . S
C760 C761 1.387 . S
C760 H764 0.950 . S
C760 C769 1.390 . S
C761 C760 1.387 . S
C761 C763 1.387 . S
H762 C769 0.950 . S
C763 C761 1.387 . S
C763 C765 1.390 . S
C763 H767 0.950 . S
H764 C760 0.950 . S
C765 C763 1.390 . S
C765 C766 1.387 . S
C765 H768 0.950 . S
C766 C765 1.387 . S
C766 C769 1.387 . S
H767 C763 0.950 . S
H768 C765 0.950 . S
C769 C760 1.390 . S
C769 H762 0.950 . S
C769 C766 1.387 . S
C770 C771 1.387 . S
C770 H774 0.950 . S
C770 C779 1.390 . S
C771 C770 1.387 . S
C771 C773 1.387 . S
H772 C779 0.950 . S
C773 C771 1.387 . S
C773 C775 1.390 . S
C773 H777 0.950 . S
H774 C770 0.950 . S
C775 C773 1.390 . S
C775 C776 1.387 . S
C775 H778 0.950 . S
C776 C775 1.387 . S
C776 C779 1.387 . S
H777 C773 0.950 . S
H778 C775 0.950 . S
C779 C770 1.390 . S
C779 H772 0.950 . S
C779 C776 1.387 . S
C780 C781 1.387 . S
C780 H784 0.950 . S
C780 C789 1.390 . S
C781 C780 1.387 . S
C781 C783 1.387 . S
H782 C789 0.950 . S
C783 C781 1.387 . S
C783 C785 1.390 . S
C783 H787 0.950 . S
H784 C780 0.950 . S
C785 C783 1.390 . S
C785 C786 1.387 . S
C785 H788 0.950 . S
C786 C785 1.387 . S
C786 C789 1.387 . S
H787 C783 0.950 . S
H788 C785 0.950 . S
C789 C780 1.390 . S
C789 H782 0.950 . S
C789 C786 1.387 . S
C790 C791 1.387 . S
C790 H794 0.950 . S
C790 C799 1.390 . S
C791 C790 1.387 . S
C791 C793 1.387 . S
H792 C799 0.950 . S
C793 C791 1.387 . S
C793 C795 1.390 . S
C793 H797 0.950 . S
H794 C790 0.950 . S
C795 C793 1.390 . S
C795 C796 1.387 . S
C795 H798 0.950 . S
C796 C795 1.387 . S
C796 C799 1.387 . S
H797 C793 0.950 . S
H798 C795 0.950 . S
C799 C790 1.390 . S
C799 H792 0.950 . S
C799 C796 1.387 . S
C800 C801 1.387 . S
C800 H804 0.950 . S
C800 C809 1.390 . S
C801 C800 1.387 . S
C801 C803 1.387 . S
H802 C809 0.950 . S
C803 C801 1.387 . S
C803 C805 1.390 . S
C803 H807 0.950 . S
H804 C800 0.950 . S
C805 C803 1.390 . S
C805 C806 1.387 . S
C805 H808 0.950 . S
C806 C805 1.387 . S
C806 C809 1.387 . S
H807 C803 0.950 . S
H808 C805 0.950 . S
C809 C800 1.390 . S
C809 H802 0.950 . S
C809 C806 1.387 . S
C810 C811 1.387 . S
C810 H814 0.950 . S
C810 C819 1.390 . S
C811 C810 1.387 . S
C811 C813 1.387 . S
H812 C819 0.950 . S
C813 C811 1.387 . S
C813 C815 1.390 1_655 S
C813 H817 0.950 . S
H814 C810 0.950 . S
C815 C813 1.390 1_455 S
C815 C816 1.387 . S
C815 H818 0.950 . S
C816 C815 1.387 . S
C816 C819 1.387 1_455 S
H817 C813 0.950 . S
H818 C815 0.950 . S
C819 C810 1.390 . S
C819 H812 0.950 . S
C819 C816 1.387 1_655 S
C820 C821 1.387 . S
C820 H824 0.950 . S
C820 C829 1.390 . S
C821 C820 1.387 . S
C821 C823 1.387 . S
H822 C829 0.950 . S
C823 C821 1.387 . S
C823 C825 1.390 . S
C823 H827 0.950 . S
H824 C820 0.950 . S
C825 C823 1.390 . S
C825 C826 1.387 . S
C825 H828 0.950 . S
C826 C825 1.387 . S
C826 C829 1.387 . S
H827 C823 0.950 . S
H828 C825 0.950 . S
C829 C820 1.390 . S
C829 H822 0.950 . S
C829 C826 1.387 . S
C830 C831 1.387 . S
C830 H834 0.950 . S
C830 C839 1.390 . S
C831 C830 1.387 . S
C831 C833 1.387 . S
H832 C839 0.950 . S
C833 C831 1.387 . S
C833 C835 1.390 . S
C833 H837 0.950 . S
H834 C830 0.950 . S
C835 C833 1.390 . S
C835 C836 1.387 . S
C835 H838 0.950 . S
C836 C835 1.387 . S
C836 C839 1.387 . S
H837 C833 0.950 . S
H838 C835 0.950 . S
C839 C830 1.390 . S
C839 H832 0.950 . S
C839 C836 1.387 . S
C840 C841 1.387 . S
C840 H844 0.950 . S
C840 C849 1.390 . S
C841 C840 1.387 . S
C841 C843 1.387 . S
H842 C849 0.950 1_545 S
C843 C841 1.387 . S
C843 C845 1.390 1_565 S
C843 H847 0.950 . S
H844 C840 0.950 . S
C845 C843 1.390 1_545 S
C845 C846 1.387 . S
C845 H848 0.950 . S
C846 C845 1.387 . S
C846 C849 1.387 1_545 S
H847 C843 0.950 . S
H848 C845 0.950 . S
C849 C840 1.390 . S
C849 H842 0.950 1_565 S
C849 C846 1.387 1_565 S
C850 C851 1.387 . S
C850 H854 0.950 . S
C850 C859 1.390 . S
C851 C850 1.387 . S
C851 C853 1.387 . S
H852 C859 0.950 . S
C853 C851 1.387 . S
C853 C855 1.390 . S
C853 H857 0.950 . S
H854 C850 0.950 . S
C855 C853 1.390 . S
C855 C856 1.387 . S
C855 H858 0.950 . S
C856 C855 1.387 . S
C856 C859 1.387 . S
H857 C853 0.950 . S
H858 C855 0.950 . S
C859 C850 1.390 . S
C859 H852 0.950 . S
C859 C856 1.387 . S
C860 C861 1.387 . S
C860 H864 0.950 . S
C860 C869 1.390 . S
C861 C860 1.387 . S
C861 C863 1.387 . S
H862 C869 0.950 . S
C863 C861 1.387 . S
C863 C865 1.390 . S
C863 H867 0.950 . S
H864 C860 0.950 . S
C865 C863 1.390 . S
C865 C866 1.387 . S
C865 H868 0.950 . S
C866 C865 1.387 . S
C866 C869 1.387 . S
H867 C863 0.950 . S
H868 C865 0.950 . S
C869 C860 1.390 . S
C869 H862 0.950 . S
C869 C866 1.387 . S
C870 C871 1.387 . S
C870 H874 0.950 . S
C870 C879 1.390 . S
C871 C870 1.387 . S
C871 C873 1.387 . S
H872 C879 0.950 . S
C873 C871 1.387 . S
C873 C875 1.390 . S
C873 H877 0.950 . S
H874 C870 0.950 . S
C875 C873 1.390 . S
C875 C876 1.387 . S
C875 H878 0.950 . S
C876 C875 1.387 . S
C876 C879 1.387 . S
H877 C873 0.950 . S
H878 C875 0.950 . S
C879 C870 1.390 . S
C879 H872 0.950 . S
C879 C876 1.387 . S
C880 C881 1.387 . S
C880 H884 0.950 . S
C880 C889 1.390 . S
C881 C880 1.387 . S
C881 C883 1.387 . S
H882 C889 0.950 . S
C883 C881 1.387 . S
C883 C885 1.390 . S
C883 H887 0.950 . S
H884 C880 0.950 . S
C885 C883 1.390 . S
C885 C886 1.387 . S
C885 H888 0.950 . S
C886 C885 1.387 . S
C886 C889 1.387 . S
H887 C883 0.950 . S
H888 C885 0.950 . S
C889 C880 1.390 . S
C889 H882 0.950 . S
C889 C886 1.387 . S
C890 C891 1.387 . S
C890 H894 0.950 . S
C890 C899 1.390 . S
C891 C890 1.387 . S
C891 C893 1.387 . S
H892 C899 0.950 . S
C893 C891 1.387 . S
C893 C895 1.390 . S
C893 H897 0.950 . S
H894 C890 0.950 . S
C895 C893 1.390 . S
C895 C896 1.387 . S
C895 H898 0.950 . S
C896 C895 1.387 . S
C896 C899 1.387 . S
H897 C893 0.950 . S
H898 C895 0.950 . S
C899 C890 1.390 . S
C899 H892 0.950 . S
C899 C896 1.387 . S
C361 C8 1.448 . S
C366 C45 1.817 . S
C371 C5 1.818 . S
C376 C28 1.445 . S
C381 C25 1.818 . S
C386 C48 1.449 . S
C391 C68 1.444 . S
C396 C85 1.816 . S
C401 C105 1.818 . S
C406 C88 1.445 . S
C411 C108 1.446 . S
C416 C65 1.818 . S
C421 C165 1.818 . S
C426 C128 1.446 . S
C431 C125 1.817 1_655 S
C436 C148 1.448 1_545 S
C441 C168 1.443 . S
C446 C145 1.816 . S
C451 C205 1.818 . S
C456 C188 1.449 . S
C461 C208 1.447 . S
C466 C225 1.817 . S
C471 C185 1.817 . S
C476 C228 1.444 . S
C481 C248 1.449 . S
C486 C285 1.818 . S
C491 C245 1.818 . S
C496 C268 1.446 . S
C501 C265 1.816 . S
C506 C288 1.443 . S
C511 C325 1.818 . S
C516 C308 1.449 . S
C521 C345 1.818 . S
C526 C328 1.445 . S
C531 C305 1.818 1_565 S
C536 C348 1.445 1_455 S
C541 C2 1.780 . S
C546 C102 1.780 . S
C551 C62 1.783 . S
C556 C22 1.783 . S
C561 C82 1.780 . S
C566 C42 1.781 . S
C571 C122 1.783 . S
C576 C222 1.783 . S
C581 C142 1.780 . S
C586 C182 1.780 . S
C591 C202 1.783 . S
C596 C162 1.783 . S
C601 C242 1.783 . S
C606 C342 1.783 . S
C611 C302 1.782 . S
C616 C262 1.783 . S
C621 C322 1.783 . S
C626 C282 1.783 . S
C631 C213 1.836 . S
C636 C13 1.838 . S
C641 C33 1.837 . S
C646 C233 1.835 . S
C651 C193 1.838 . S
C656 C53 1.838 . S
C661 C73 1.835 . S
C666 C293 1.835 . S
C671 C93 1.835 . S
C676 C253 1.836 . S
C681 C273 1.836 . S
C686 C113 1.837 . S
C691 C333 1.835 . S
C696 C133 1.835 . S
C701 C153 1.837 . S
C706 C353 1.838 . S
C711 C173 1.838 . S
C716 C313 1.838 . S
C721 C57 2.064 . S
C726 C14 2.200 . S
C731 C17 2.063 . S
C736 C34 2.200 . S
C741 C54 2.201 . S
C746 C37 2.061 . S
C751 C97 2.064 . S
C756 C74 2.201 . S
C761 C117 2.063 . S
C766 C94 2.200 . S
C771 C114 2.202 . S
C776 C77 2.062 . S
C781 C177 2.063 . S
C786 C134 2.200 . S
C791 C154 2.200 . S
C796 C137 2.063 . S
C801 C157 2.064 . S
C806 C174 2.201 . S
C811 C194 2.201 . S
C816 C217 2.061 . S
C821 C214 2.200 . S
C826 C237 2.063 . S
C831 C197 2.062 1_545 S
C836 C234 2.202 1_655 S
C841 C254 2.202 . S
C846 C297 2.062 . S
C851 C274 2.200 1_565 S
C856 C257 2.063 1_455 S
C861 C277 2.061 . S
C866 C294 2.201 . S
C871 C314 2.201 . S
C876 C337 2.064 . S
C881 C334 2.200 . S
C886 C357 2.063 . S
C891 C317 2.062 . S
C896 C354 2.202 . S
