# Generated by pormake.
# Topology crb, (4)-cn, num edge types: 1
# Building blocks:
#     Node 0, Type 0, BuildingBlock: QUQFOY_clean_sbu_1, # of connection points: 4
#     Node 1, Type 0, BuildingBlock: QUQFOY_clean_sbu_1, # of connection points: 4
#     Node 2, Type 0, BuildingBlock: QUQFOY_clean_sbu_1, # of connection points: 4
#     Node 3, Type 0, BuildingBlock: QUQFOY_clean_sbu_1, # of connection points: 4
#     Node 4, Type 0, BuildingBlock: QUQFOY_clean_sbu_1, # of connection points: 4
#     Node 5, Type 0, BuildingBlock: QUQFOY_clean_sbu_1, # of connection points: 4
#     Node 6, Type 0, BuildingBlock: QUQFOY_clean_sbu_1, # of connection points: 4
#     Node 7, Type 0, BuildingBlock: QUQFOY_clean_sbu_1, # of connection points: 4
#     Edge 8, Type (0, 0), BuildingBlock: KIFKEQ_clean_linker_1, # of connection points: 2
#     Edge 9, Type (0, 0), BuildingBlock: KIFKEQ_clean_linker_1, # of connection points: 2
#     Edge 10, Type (0, 0), BuildingBlock: KIFKEQ_clean_linker_1, # of connection points: 2
#     Edge 11, Type (0, 0), BuildingBlock: KIFKEQ_clean_linker_1, # of connection points: 2
#     Edge 12, Type (0, 0), BuildingBlock: KIFKEQ_clean_linker_1, # of connection points: 2
#     Edge 13, Type (0, 0), BuildingBlock: KIFKEQ_clean_linker_1, # of connection points: 2
#     Edge 14, Type (0, 0), BuildingBlock: KIFKEQ_clean_linker_1, # of connection points: 2
#     Edge 15, Type (0, 0), BuildingBlock: KIFKEQ_clean_linker_1, # of connection points: 2
#     Edge 16, Type (0, 0), BuildingBlock: KIFKEQ_clean_linker_1, # of connection points: 2
#     Edge 17, Type (0, 0), BuildingBlock: KIFKEQ_clean_linker_1, # of connection points: 2
#     Edge 18, Type (0, 0), BuildingBlock: KIFKEQ_clean_linker_1, # of connection points: 2
#     Edge 19, Type (0, 0), BuildingBlock: KIFKEQ_clean_linker_1, # of connection points: 2
#     Edge 20, Type (0, 0), BuildingBlock: KIFKEQ_clean_linker_1, # of connection points: 2
#     Edge 21, Type (0, 0), BuildingBlock: KIFKEQ_clean_linker_1, # of connection points: 2
#     Edge 22, Type (0, 0), BuildingBlock: KIFKEQ_clean_linker_1, # of connection points: 2
#     Edge 23, Type (0, 0), BuildingBlock: KIFKEQ_clean_linker_1, # of connection points: 2
# Relax obj value: 0.153
# Max RMSD: 0.215
# Mean RMSD: 0.215
data_MOF--net-crb--node1-QUQFOY_clean_sbu_1--edge1-KIFKEQ_clean_linker_1
_symmetry_space_group_name_H-M    P1
_symmetry_Int_Tables_number       1
_symmetry_cell_setting            triclinic
loop_
_symmetry_equiv_pos_as_xyz
'x, y, z'
_cell_length_a     41.181816
_cell_length_b     51.902493
_cell_length_c     23.750061
_cell_angle_alpha  89.97577
_cell_angle_beta   89.885399
_cell_angle_gamma 89.985774
loop_
_atom_site_label
_atom_site_type_symbol
_atom_site_fract_x
_atom_site_fract_y
_atom_site_fract_z
_atom_type_partial_charge
O0 O 0.29899 0.30711 0.05293 0.0
Cd1 Cd 0.3162 0.3271 0.12226 0.0
Cd2 Cd 0.3073 0.36721 0.04394 0.0
O3 O 0.28189 0.33958 0.001 0.0
O4 O 0.3236 0.29804 0.17525 0.0
O5 O 0.28734 0.32848 0.1913 0.0
C6 C 0.30102 0.30725 0.20683 0.0
C7 C 0.28518 0.40788 0.05924 0.0
C8 C 0.28409 0.31552 0.00989 0.0
C9 C 0.37439 0.35691 0.08155 0.0
O10 O 0.35725 0.36554 0.0414 0.0
O11 O 0.36166 0.34388 0.12109 0.0
O12 O 0.29492 0.40085 0.00994 0.0
O13 O 0.28704 0.39138 0.09992 0.0
O14 O 0.6936 0.305 0.13162 0.0
Cd15 Cd 0.67718 0.32429 0.06072 0.0
Cd16 Cd 0.68414 0.36526 0.13924 0.0
O17 O 0.70777 0.33773 0.18544 0.0
O18 O 0.67149 0.29483 0.00834 0.0
O19 O 0.70719 0.32576 0.9932 0.0
C20 C 0.69429 0.30426 0.97758 0.0
C21 C 0.70635 0.40635 0.12964 0.0
C22 C 0.7067 0.31366 0.17617 0.0
C23 C 0.61787 0.35424 0.09575 0.0
O24 O 0.63423 0.36375 0.13588 0.0
O25 O 0.63132 0.34037 0.05841 0.0
O26 O 0.69343 0.3988 0.17629 0.0
O27 O 0.70774 0.39008 0.08851 0.0
O28 O 0.68804 0.69763 0.05353 0.0
Cd29 Cd 0.67313 0.68019 0.12707 0.0
Cd30 Cd 0.68429 0.6362 0.05802 0.0
O31 O 0.70789 0.66354 0.00986 0.0
O32 O 0.66762 0.71059 0.17681 0.0
O33 O 0.70375 0.68007 0.19329 0.0
C34 C 0.6908 0.70179 0.2075 0.0
C35 C 0.70735 0.59531 0.06752 0.0
C36 C 0.70392 0.68777 0.01308 0.0
C37 C 0.61621 0.64695 0.09824 0.0
O38 O 0.63406 0.63581 0.06196 0.0
O39 O 0.62809 0.66355 0.13151 0.0
O40 O 0.69431 0.60275 0.02101 0.0
O41 O 0.70857 0.61164 0.10852 0.0
O42 O 0.30291 0.69871 0.13501 0.0
Cd43 Cd 0.31816 0.68031 0.06279 0.0
Cd44 Cd 0.30531 0.63782 0.13203 0.0
O45 O 0.27983 0.66539 0.17649 0.0
O46 O 0.32526 0.71017 0.01198 0.0
O47 O 0.28826 0.68033 0.99557 0.0
C48 C 0.30203 0.70168 0.98099 0.0
C49 C 0.28241 0.59749 0.11555 0.0
C50 C 0.28512 0.68946 0.17372 0.0
C51 C 0.37399 0.64719 0.09756 0.0
O52 O 0.35557 0.63745 0.13491 0.0
O53 O 0.36263 0.66258 0.06105 0.0
O54 O 0.29185 0.60421 0.16511 0.0
O55 O 0.28472 0.61418 0.07532 0.0
O56 O 0.79453 0.80668 0.55451 0.0
Cd57 Cd 0.81401 0.82276 0.62616 0.0
Cd58 Cd 0.80866 0.86667 0.55119 0.0
O59 O 0.78537 0.84046 0.50043 0.0
O60 O 0.81721 0.79083 0.67189 0.0
O61 O 0.78679 0.82388 0.69726 0.0
C62 C 0.79682 0.80072 0.70674 0.0
C63 C 0.78723 0.90805 0.5615 0.0
C64 C 0.78358 0.81637 0.50929 0.0
C65 C 0.87501 0.85151 0.5934 0.0
O66 O 0.85846 0.8645 0.55835 0.0
O67 O 0.86141 0.83537 0.626 0.0
O68 O 0.80125 0.90085 0.51557 0.0
O69 O 0.78432 0.89129 0.60148 0.0
O70 O 0.20023 0.80834 0.63459 0.0
Cd71 Cd 0.17998 0.82468 0.56378 0.0
Cd72 Cd 0.18516 0.86813 0.64007 0.0
O73 O 0.20891 0.84177 0.68992 0.0
O74 O 0.17607 0.79285 0.51792 0.0
O75 O 0.20624 0.82584 0.49155 0.0
C76 C 0.19593 0.80276 0.48221 0.0
C77 C 0.2066 0.90942 0.62846 0.0
C78 C 0.21111 0.81777 0.68011 0.0
C79 C 0.11881 0.8529 0.59867 0.0
O80 O 0.13532 0.8658 0.63391 0.0
O81 O 0.13251 0.83709 0.56544 0.0
O82 O 0.19295 0.90243 0.6749 0.0
O83 O 0.20911 0.89252 0.58873 0.0
O84 O 0.19881 0.19946 0.55319 0.0
Cd85 Cd 0.18031 0.18054 0.62278 0.0
Cd86 Cd 0.18751 0.13897 0.54519 0.0
O87 O 0.21097 0.1666 0.49808 0.0
O88 O 0.17434 0.20992 0.67529 0.0
O89 O 0.20845 0.1781 0.69245 0.0
C90 C 0.19576 0.19975 0.7077 0.0
C91 C 0.20988 0.09803 0.55668 0.0
C92 C 0.21117 0.19066 0.50807 0.0
C93 C 0.12056 0.15108 0.58637 0.0
O94 O 0.13754 0.13981 0.54913 0.0
O95 O 0.13369 0.16626 0.62149 0.0
O96 O 0.19734 0.10519 0.5095 0.0
O97 O 0.21108 0.11469 0.59707 0.0
O98 O 0.79914 0.19829 0.63094 0.0
Cd99 Cd 0.8169 0.17964 0.56053 0.0
Cd100 Cd 0.81052 0.13767 0.63735 0.0
O101 O 0.78781 0.16516 0.68582 0.0
O102 O 0.82169 0.20916 0.50802 0.0
O103 O 0.78781 0.17707 0.49211 0.0
C104 C 0.79989 0.1989 0.47655 0.0
C105 C 0.78768 0.09681 0.62751 0.0
C106 C 0.78738 0.18926 0.67632 0.0
C107 C 0.8771 0.15009 0.59413 0.0
O108 O 0.86043 0.13841 0.63122 0.0
O109 O 0.86367 0.16563 0.56008 0.0
O110 O 0.80119 0.10398 0.67384 0.0
O111 O 0.78593 0.11338 0.58698 0.0
H112 H 0.26021 0.44168 0.98293 0.0
H113 H 0.28764 0.43483 0.15753 0.0
H114 H 0.25033 0.48756 0.99584 0.0
H115 H 0.27993 0.48087 0.17 0.0
H116 H 0.25656 0.56333 0.19032 0.0
H117 H 0.24822 0.5173 0.17675 0.0
H118 H 0.28043 0.52476 0.00393 0.0
H119 H 0.28659 0.57091 0.01697 0.0
C120 C 0.26393 0.45002 0.02422 0.0
C121 C 0.27487 0.43475 0.06916 0.0
C122 C 0.25856 0.47641 0.03158 0.0
C123 C 0.2648 0.48828 0.08375 0.0
C124 C 0.27435 0.4726 0.12934 0.0
C125 C 0.27899 0.44611 0.12222 0.0
C126 C 0.26111 0.55512 0.14912 0.0
C127 C 0.27239 0.57063 0.10477 0.0
C128 C 0.25667 0.52865 0.14141 0.0
C129 C 0.2642 0.51696 0.08951 0.0
C130 C 0.27391 0.53287 0.04436 0.0
C131 C 0.27763 0.55943 0.0518 0.0
H132 H 0.4162 0.34857 0.9953 0.0
H133 H 0.41156 0.37377 0.16798 0.0
H134 H 0.47517 0.34989 -0.00157 0.0
H135 H 0.47042 0.37774 0.17031 0.0
H136 H 0.57519 0.35192 0.18251 0.0
H137 H 0.51642 0.35473 0.178 0.0
H138 H 0.52285 0.37109 -0.00066 0.0
H139 H 0.5815 0.36567 0.00383 0.0
C140 C 0.428 0.3551 0.03347 0.0
C141 C 0.40965 0.36092 0.08148 0.0
C142 C 0.46188 0.35609 0.03535 0.0
C143 C 0.4781 0.36378 0.08485 0.0
C144 C 0.45923 0.3709 0.13195 0.0
C145 C 0.42542 0.36897 0.13059 0.0
C146 C 0.56384 0.3562 0.14245 0.0
C147 C 0.58261 0.35843 0.09349 0.0
C148 C 0.53006 0.35808 0.13973 0.0
C149 C 0.51434 0.36314 0.08817 0.0
C150 C 0.53363 0.36644 0.03958 0.0
C151 C 0.56733 0.36362 0.04207 0.0
H152 H 0.73487 0.42894 0.0375 0.0
H153 H 0.7007 0.44528 0.20584 0.0
H154 H 0.74471 0.47483 0.02239 0.0
H155 H 0.70925 0.49092 0.1902 0.0
H156 H 0.73483 0.5726 0.16032 0.0
H157 H 0.74404 0.52664 0.17566 0.0
H158 H 0.71063 0.51083 0.00671 0.0
H159 H 0.70272 0.55651 0.99088 0.0
C160 C 0.7298 0.44228 0.07147 0.0
C161 C 0.71666 0.43349 0.12261 0.0
C162 C 0.73525 0.4686 0.06274 0.0
C163 C 0.72743 0.48671 0.10481 0.0
C164 C 0.71597 0.47765 0.157 0.0
C165 C 0.71078 0.45139 0.16584 0.0
C166 C 0.73013 0.55931 0.12615 0.0
C167 C 0.71769 0.56818 0.07464 0.0
C168 C 0.7352 0.53294 0.13502 0.0
C169 C 0.7277 0.51489 0.0927 0.0
C170 C 0.71706 0.52404 0.04014 0.0
C171 C 0.71224 0.55034 0.03118 0.0
H172 H 0.41075 0.62656 0.18244 0.0
H173 H 0.4167 0.65516 0.01175 0.0
H174 H 0.46983 0.62135 0.1839 0.0
H175 H 0.4754 0.64993 0.01337 0.0
H176 H 0.57905 0.62186 0.02007 0.0
H177 H 0.52003 0.61668 0.02064 0.0
H178 H 0.51503 0.65449 0.18235 0.0
H179 H 0.5738 0.65969 0.18199 0.0
C180 C 0.42458 0.63139 0.14505 0.0
C181 C 0.40914 0.64152 0.0972 0.0
C182 C 0.45834 0.62848 0.14597 0.0
C183 C 0.47712 0.63528 0.09878 0.0
C184 C 0.4615 0.64428 0.05014 0.0
C185 C 0.4279 0.64749 0.04944 0.0
C186 C 0.56539 0.62875 0.05606 0.0
C187 C 0.58103 0.64144 0.10068 0.0
C188 C 0.53165 0.62584 0.0563 0.0
C189 C 0.51302 0.63525 0.10147 0.0
C190 C 0.52882 0.64683 0.14724 0.0
C191 C 0.56245 0.65 0.14675 0.0
H192 H 0.79382 0.94738 0.48646 0.0
H193 H 0.75864 0.93036 0.65388 0.0
H194 H 0.78572 0.993 0.50313 0.0
H195 H 0.74938 0.97626 0.67008 0.0
H196 H 0.75995 0.07458 0.53448 0.0
H197 H 0.75058 0.02872 0.51823 0.0
H198 H 0.78423 0.01201 0.68663 0.0
H199 H 0.79242 0.05762 0.70334 0.0
C200 C 0.78365 0.95334 0.52649 0.0
C201 C 0.77731 0.93525 0.56915 0.0
C202 C 0.77872 0.97959 0.53591 0.0
C203 C 0.76711 0.98844 0.58816 0.0
C204 C 0.75891 0.97017 0.62969 0.0
C205 C 0.76403 0.94385 0.62033 0.0
C206 C 0.76469 0.06112 0.56834 0.0
C207 C 0.77729 0.06972 0.61994 0.0
C208 C 0.75952 0.03481 0.55895 0.0
C209 C 0.76702 0.01656 0.60085 0.0
C210 C 0.77782 0.02541 0.65353 0.0
C211 C 0.78279 0.05166 0.66299 0.0
H212 H 0.07783 0.83882 0.51405 0.0
H213 H 0.07917 0.87321 0.67979 0.0
H214 H 0.01865 0.84128 0.51332 0.0
H215 H 0.01982 0.87539 0.67903 0.0
H216 H 0.91615 0.83682 0.67746 0.0
H217 H 0.9753 0.84001 0.67866 0.0
H218 H 0.97365 0.87616 0.51497 0.0
H219 H 0.9144 0.87324 0.51375 0.0
C220 C 0.06551 0.84701 0.55019 0.0
C221 C 0.08313 0.85573 0.59709 0.0
C222 C 0.03168 0.84856 0.54957 0.0
C223 C 0.0148 0.8585 0.59614 0.0
C224 C 0.03235 0.86753 0.64275 0.0
C225 C 0.06625 0.86637 0.64303 0.0
C226 C 0.92837 0.84561 0.64188 0.0
C227 C 0.91064 0.85468 0.59539 0.0
C228 C 0.96217 0.84757 0.64278 0.0
C229 C 0.97891 0.8583 0.59688 0.0
C230 C 0.96124 0.86769 0.55073 0.0
C231 C 0.92738 0.8661 0.55018 0.0
H232 H 0.23595 0.0759 0.65132 0.0
H233 H 0.20528 0.05851 0.48169 0.0
H234 H 0.24408 0.03001 0.66915 0.0
H235 H 0.21219 0.01288 0.49994 0.0
H236 H 0.19959 0.94932 0.70194 0.0
H237 H 0.20835 0.99478 0.68407 0.0
H238 H 0.24586 0.97675 0.51857 0.0
H239 H 0.23591 0.93103 0.53592 0.0
C240 C 0.23134 0.06233 0.61763 0.0
C241 C 0.21963 0.07084 0.56532 0.0
C242 C 0.23579 0.036 0.62793 0.0
C243 C 0.2284 0.01762 0.58625 0.0
C244 C 0.21849 0.02636 0.53293 0.0
C245 C 0.21427 0.05263 0.52256 0.0
C246 C 0.21014 0.95496 0.66197 0.0
C247 C 0.21665 0.93655 0.62006 0.0
C248 C 0.21544 0.98112 0.65186 0.0
C249 C 0.22762 0.98957 0.59967 0.0
C250 C 0.23589 0.97099 0.55888 0.0
C251 C 0.23037 0.94476 0.5689 0.0
H252 H 0.91647 0.12829 0.67364 0.0
H253 H 0.91809 0.16351 0.50865 0.0
H254 H 0.9757 0.12511 0.67169 0.0
H255 H 0.97715 0.1602 0.50685 0.0
H256 H 0.08164 0.13023 0.50498 0.0
H257 H 0.02244 0.12653 0.5063 0.0
H258 H 0.02016 0.15935 0.67328 0.0
H259 H 0.07915 0.16318 0.6721 0.0
C260 C 0.92941 0.13509 0.63676 0.0
C261 C 0.91264 0.14632 0.59147 0.0
C262 C 0.96326 0.13334 0.63578 0.0
C263 C 0.98091 0.14245 0.58917 0.0
C264 C 0.96409 0.15283 0.54309 0.0
C265 C 0.93031 0.15489 0.54435 0.0
C266 C 0.06853 0.13643 0.54215 0.0
C267 C 0.08503 0.14716 0.58828 0.0
C268 C 0.03468 0.13439 0.54278 0.0
C269 C 0.01682 0.14267 0.58987 0.0
C270 C 0.03339 0.1526 0.63666 0.0
C271 C 0.06713 0.15496 0.63576 0.0
H272 H 0.2405 0.17896 0.40788 0.0
H273 H 0.21429 0.2433 0.51427 0.0
H274 H 0.26322 0.20867 0.33903 0.0
H275 H 0.23756 0.273 0.44555 0.0
H276 H 0.24788 0.31647 0.27384 0.0
H277 H 0.22701 0.28904 0.3495 0.0
H278 H 0.30902 0.23798 0.32867 0.0
H279 H 0.32948 0.26497 0.25289 0.0
C280 C 0.23973 0.19942 0.41678 0.0
C281 C 0.22556 0.20871 0.46664 0.0
C282 C 0.25295 0.21646 0.37743 0.0
C283 C 0.25232 0.2432 0.38696 0.0
C284 C 0.23816 0.25253 0.43679 0.0
C285 C 0.22498 0.23547 0.47627 0.0
C286 C 0.26161 0.29956 0.28596 0.0
C287 C 0.29014 0.29276 0.25705 0.0
C288 C 0.24971 0.28387 0.32934 0.0
C289 C 0.26616 0.26114 0.34452 0.0
C290 C 0.29542 0.25504 0.31715 0.0
C291 C 0.30724 0.27063 0.27393 0.0
H292 H 0.73651 0.3254 0.27543 0.0
H293 H 0.70879 0.26088 0.17092 0.0
H294 H 0.75969 0.29587 0.34379 0.0
H295 H 0.73262 0.23126 0.23931 0.0
H296 H 0.74602 0.18869 0.41235 0.0
H297 H 0.72388 0.21542 0.33657 0.0
H298 H 0.80583 0.26691 0.35135 0.0
H299 H 0.82746 0.2407 0.42724 0.0
C300 C 0.73548 0.30492 0.26685 0.0
C301 C 0.72084 0.29554 0.21759 0.0
C302 C 0.74896 0.28798 0.30593 0.0
C303 C 0.74822 0.26123 0.29673 0.0
C304 C 0.73338 0.25177 0.24771 0.0
C305 C 0.71988 0.26876 0.20846 0.0
C306 C 0.75944 0.20555 0.39883 0.0
C307 C 0.78825 0.21278 0.42617 0.0
C308 C 0.74682 0.22081 0.35541 0.0
C309 C 0.76287 0.2435 0.33864 0.0
C310 C 0.79249 0.2499 0.36421 0.0
C311 C 0.80498 0.23478 0.40752 0.0
H312 H 0.77648 0.76408 0.51476 0.0
H313 H 0.75791 0.82962 0.407 0.0
H314 H 0.75306 0.73557 0.44432 0.0
H315 H 0.73499 0.80096 0.33621 0.0
H316 H 0.66578 0.74656 0.24826 0.0
H317 H 0.68739 0.77362 0.32278 0.0
H318 H 0.76513 0.71909 0.34954 0.0
H319 H 0.74312 0.69163 0.27522 0.0
C320 C 0.76745 0.77243 0.47603 0.0
C321 C 0.76904 0.79917 0.46655 0.0
C322 C 0.75421 0.75603 0.43555 0.0
C323 C 0.74218 0.766 0.38476 0.0
C324 C 0.74368 0.79273 0.3753 0.0
C325 C 0.75696 0.80914 0.41575 0.0
C326 C 0.68737 0.7402 0.27023 0.0
C327 C 0.70285 0.71699 0.25568 0.0
C328 C 0.69986 0.75583 0.3127 0.0
C329 C 0.72814 0.74864 0.34162 0.0
C330 C 0.74317 0.72507 0.3282 0.0
C331 C 0.73063 0.70938 0.28558 0.0
H332 H 0.22449 0.81956 0.38428 0.0
H333 H 0.1938 0.75087 0.47209 0.0
H334 H 0.24386 0.79308 0.30599 0.0
H335 H 0.21466 0.72445 0.39638 0.0
H336 H 0.23019 0.68186 0.23565 0.0
H337 H 0.20644 0.71056 0.30542 0.0
H338 H 0.28492 0.76467 0.27878 0.0
H339 H 0.30735 0.73658 0.20646 0.0
C340 C 0.22205 0.79882 0.38689 0.0
C341 C 0.20749 0.78729 0.43405 0.0
C342 C 0.23333 0.78358 0.34227 0.0
C343 C 0.23081 0.75651 0.3445 0.0
C344 C 0.21633 0.74517 0.39212 0.0
C345 C 0.20455 0.76036 0.43595 0.0
C346 C 0.24224 0.69995 0.24467 0.0
C347 C 0.27068 0.70693 0.21593 0.0
C348 C 0.22876 0.71639 0.28493 0.0
C349 C 0.24387 0.73994 0.29846 0.0
C350 C 0.27224 0.74696 0.26908 0.0
C351 C 0.2853 0.73075 0.2279 0.0
H352 H 0.21811 0.7655 0.67334 0.0
H353 H 0.23737 0.83044 0.78231 0.0
H354 H 0.24143 0.73654 0.74308 0.0
H355 H 0.26024 0.80133 0.85236 0.0
H356 H 0.24997 0.69213 0.9123 0.0
H357 H 0.22881 0.71992 0.83776 0.0
H358 H 0.30754 0.7734 0.86542 0.0
H359 H 0.32835 0.74599 0.94013 0.0
C360 C 0.22731 0.77363 0.71215 0.0
C361 C 0.22588 0.80033 0.72222 0.0
C362 C 0.24049 0.75698 0.75223 0.0
C363 C 0.25265 0.76664 0.80319 0.0
C364 C 0.25144 0.79334 0.81315 0.0
C365 C 0.23818 0.81 0.77312 0.0
C366 C 0.26289 0.7097 0.90205 0.0
C367 C 0.29069 0.71694 0.93232 0.0
C368 C 0.25083 0.72558 0.8593 0.0
C369 C 0.26636 0.74898 0.84613 0.0
C370 C 0.2947 0.75575 0.87531 0.0
C371 C 0.30673 0.73992 0.91788 0.0
H372 H 0.25183 0.32678 0.91269 0.0
H373 H 0.28395 0.26272 0.01485 0.0
H374 H 0.22941 0.29686 0.84448 0.0
H375 H 0.2608 0.23268 0.94672 0.0
H376 H 0.24962 0.19073 0.77272 0.0
H377 H 0.26993 0.21759 0.8497 0.0
H378 H 0.18537 0.26644 0.8353 0.0
H379 H 0.16562 0.24015 0.75804 0.0
C380 C 0.2539 0.30631 0.92087 0.0
C381 C 0.26969 0.29717 0.96929 0.0
C382 C 0.24084 0.28913 0.88188 0.0
C383 C 0.24313 0.26238 0.89036 0.0
C384 C 0.25886 0.25318 0.9388 0.0
C385 C 0.27197 0.2704 0.97794 0.0
C386 C 0.23524 0.20702 0.7866 0.0
C387 C 0.20628 0.21354 0.7589 0.0
C388 C 0.2468 0.22236 0.83074 0.0
C389 C 0.22949 0.24438 0.84797 0.0
C390 C 0.19967 0.24998 0.82212 0.0
C391 C 0.18827 0.23481 0.77801 0.0
H392 H 0.74779 0.31427 0.91195 0.0
H393 H 0.66761 0.26129 0.93156 0.0
H394 H 0.76996 0.28717 0.83681 0.0
H395 H 0.68935 0.23465 0.85635 0.0
H396 H 0.78357 0.2419 0.67104 0.0
H397 H 0.75996 0.27112 0.74038 0.0
H398 H 0.73612 0.2062 0.84654 0.0
H399 H 0.75917 0.17696 0.7771 0.0
C400 C 0.73468 0.29708 0.8997 0.0
C401 C 0.70614 0.2898 0.92802 0.0
C402 C 0.74731 0.2816 0.85663 0.0
C403 C 0.73161 0.25859 0.84121 0.0
C404 C 0.70239 0.25195 0.86808 0.0
C405 C 0.68983 0.26734 0.91098 0.0
C406 C 0.77324 0.23384 0.70913 0.0
C407 C 0.77318 0.20705 0.71843 0.0
C408 C 0.75988 0.25062 0.74896 0.0
C409 C 0.74606 0.24097 0.79879 0.0
C410 C 0.74611 0.21421 0.80813 0.0
C411 C 0.75951 0.19745 0.76844 0.0
H412 H 0.68291 0.73537 0.98112 0.0
H413 H 0.7573 0.67871 0.94825 0.0
H414 H 0.70573 0.76317 0.90856 0.0
H415 H 0.78155 0.70706 0.87836 0.0
H416 H 0.79646 0.74873 0.71425 0.0
H417 H 0.77406 0.72214 0.78841 0.0
H418 H 0.74764 0.79064 0.88177 0.0
H419 H 0.76845 0.81733 0.80491 0.0
C420 C 0.70441 0.72902 0.95871 0.0
C421 C 0.71817 0.70479 0.96985 0.0
C422 C 0.71772 0.74506 0.91742 0.0
C423 C 0.74552 0.73746 0.88713 0.0
C424 C 0.75967 0.71339 0.89955 0.0
C425 C 0.7459 0.69713 0.93988 0.0
C426 C 0.78597 0.75814 0.75072 0.0
C427 C 0.78426 0.78511 0.75391 0.0
C428 C 0.77329 0.74284 0.79366 0.0
C429 C 0.75918 0.75409 0.84169 0.0
C430 C 0.75783 0.7812 0.84514 0.0
C431 C 0.76996 0.79655 0.80136 0.0
loop_
_geom_bond_atom_site_label_1
_geom_bond_atom_site_label_2
_geom_bond_distance
_geom_bond_site_symmetry_2
_ccdc_geom_bond_type
O0 Cd1 2.223 . S
O0 C8 1.315 . S
Cd1 O0 2.223 . S
Cd1 O4 2.297 . S
Cd1 O5 2.439 . S
Cd1 O11 2.240 . S
Cd2 O3 2.240 . S
Cd2 O10 2.223 . S
Cd2 O12 2.297 . S
Cd2 O13 2.439 . S
O3 Cd2 2.240 . S
O3 C8 1.279 . S
O4 Cd1 2.297 . S
O4 C6 1.247 . S
O5 Cd1 2.439 . S
O5 C6 1.208 . S
C6 O4 1.247 . S
C6 O5 1.208 . S
C7 O12 1.247 . S
C7 O13 1.208 . S
C8 O0 1.315 . S
C8 O3 1.279 . S
C9 O10 1.315 . S
C9 O11 1.279 . S
O10 Cd2 2.223 . S
O10 C9 1.315 . S
O11 Cd1 2.240 . S
O11 C9 1.279 . S
O12 Cd2 2.297 . S
O12 C7 1.247 . S
O13 Cd2 2.439 . S
O13 C7 1.208 . S
O14 Cd15 2.223 . S
O14 C22 1.315 . S
Cd15 O14 2.223 . S
Cd15 O18 2.297 1_554 S
Cd15 O19 2.439 1_554 S
Cd15 O25 2.240 . S
Cd16 O17 2.240 . S
Cd16 O24 2.223 . S
Cd16 O26 2.297 . S
Cd16 O27 2.439 . S
O17 Cd16 2.240 . S
O17 C22 1.279 . S
O18 Cd15 2.297 1_556 S
O18 C20 1.247 . S
O19 Cd15 2.439 1_556 S
O19 C20 1.208 . S
C20 O18 1.247 . S
C20 O19 1.208 . S
C21 O26 1.247 . S
C21 O27 1.208 . S
C22 O14 1.315 . S
C22 O17 1.279 . S
C23 O24 1.315 . S
C23 O25 1.279 . S
O24 Cd16 2.223 . S
O24 C23 1.315 . S
O25 Cd15 2.240 . S
O25 C23 1.279 . S
O26 Cd16 2.297 . S
O26 C21 1.247 . S
O27 Cd16 2.439 . S
O27 C21 1.208 . S
O28 Cd29 2.223 . S
O28 C36 1.315 . S
Cd29 O28 2.223 . S
Cd29 O32 2.297 . S
Cd29 O33 2.439 . S
Cd29 O39 2.240 . S
Cd30 O31 2.240 . S
Cd30 O38 2.223 . S
Cd30 O40 2.297 . S
Cd30 O41 2.439 . S
O31 Cd30 2.240 . S
O31 C36 1.279 . S
O32 Cd29 2.297 . S
O32 C34 1.247 . S
O33 Cd29 2.439 . S
O33 C34 1.208 . S
C34 O32 1.247 . S
C34 O33 1.208 . S
C35 O40 1.247 . S
C35 O41 1.208 . S
C36 O28 1.315 . S
C36 O31 1.279 . S
C37 O38 1.315 . S
C37 O39 1.279 . S
O38 Cd30 2.223 . S
O38 C37 1.315 . S
O39 Cd29 2.240 . S
O39 C37 1.279 . S
O40 Cd30 2.297 . S
O40 C35 1.247 . S
O41 Cd30 2.439 . S
O41 C35 1.208 . S
O42 Cd43 2.223 . S
O42 C50 1.315 . S
Cd43 O42 2.223 . S
Cd43 O46 2.297 1_554 S
Cd43 O47 2.439 1_554 S
Cd43 O53 2.240 . S
Cd44 O45 2.240 . S
Cd44 O52 2.223 . S
Cd44 O54 2.297 . S
Cd44 O55 2.439 . S
O45 Cd44 2.240 . S
O45 C50 1.279 . S
O46 Cd43 2.297 1_556 S
O46 C48 1.247 . S
O47 Cd43 2.439 1_556 S
O47 C48 1.208 . S
C48 O46 1.247 . S
C48 O47 1.208 . S
C49 O54 1.247 . S
C49 O55 1.208 . S
C50 O42 1.315 . S
C50 O45 1.279 . S
C51 O52 1.315 . S
C51 O53 1.279 . S
O52 Cd44 2.223 . S
O52 C51 1.315 . S
O53 Cd43 2.240 . S
O53 C51 1.279 . S
O54 Cd44 2.297 . S
O54 C49 1.247 . S
O55 Cd44 2.439 . S
O55 C49 1.208 . S
O56 Cd57 2.223 . S
O56 C64 1.315 . S
Cd57 O56 2.223 . S
Cd57 O60 2.297 . S
Cd57 O61 2.439 . S
Cd57 O67 2.240 . S
Cd58 O59 2.240 . S
Cd58 O66 2.223 . S
Cd58 O68 2.297 . S
Cd58 O69 2.439 . S
O59 Cd58 2.240 . S
O59 C64 1.279 . S
O60 Cd57 2.297 . S
O60 C62 1.247 . S
O61 Cd57 2.439 . S
O61 C62 1.208 . S
C62 O60 1.247 . S
C62 O61 1.208 . S
C63 O68 1.247 . S
C63 O69 1.208 . S
C64 O56 1.315 . S
C64 O59 1.279 . S
C65 O66 1.315 . S
C65 O67 1.279 . S
O66 Cd58 2.223 . S
O66 C65 1.315 . S
O67 Cd57 2.240 . S
O67 C65 1.279 . S
O68 Cd58 2.297 . S
O68 C63 1.247 . S
O69 Cd58 2.439 . S
O69 C63 1.208 . S
O70 Cd71 2.223 . S
O70 C78 1.315 . S
Cd71 O70 2.223 . S
Cd71 O74 2.297 . S
Cd71 O75 2.439 . S
Cd71 O81 2.240 . S
Cd72 O73 2.240 . S
Cd72 O80 2.223 . S
Cd72 O82 2.297 . S
Cd72 O83 2.439 . S
O73 Cd72 2.240 . S
O73 C78 1.279 . S
O74 Cd71 2.297 . S
O74 C76 1.247 . S
O75 Cd71 2.439 . S
O75 C76 1.208 . S
C76 O74 1.247 . S
C76 O75 1.208 . S
C77 O82 1.247 . S
C77 O83 1.208 . S
C78 O70 1.315 . S
C78 O73 1.279 . S
C79 O80 1.315 . S
C79 O81 1.279 . S
O80 Cd72 2.223 . S
O80 C79 1.315 . S
O81 Cd71 2.240 . S
O81 C79 1.279 . S
O82 Cd72 2.297 . S
O82 C77 1.247 . S
O83 Cd72 2.439 . S
O83 C77 1.208 . S
O84 Cd85 2.223 . S
O84 C92 1.315 . S
Cd85 O84 2.223 . S
Cd85 O88 2.297 . S
Cd85 O89 2.439 . S
Cd85 O95 2.240 . S
Cd86 O87 2.240 . S
Cd86 O94 2.223 . S
Cd86 O96 2.297 . S
Cd86 O97 2.439 . S
O87 Cd86 2.240 . S
O87 C92 1.279 . S
O88 Cd85 2.297 . S
O88 C90 1.247 . S
O89 Cd85 2.439 . S
O89 C90 1.208 . S
C90 O88 1.247 . S
C90 O89 1.208 . S
C91 O96 1.247 . S
C91 O97 1.208 . S
C92 O84 1.315 . S
C92 O87 1.279 . S
C93 O94 1.315 . S
C93 O95 1.279 . S
O94 Cd86 2.223 . S
O94 C93 1.315 . S
O95 Cd85 2.240 . S
O95 C93 1.279 . S
O96 Cd86 2.297 . S
O96 C91 1.247 . S
O97 Cd86 2.439 . S
O97 C91 1.208 . S
O98 Cd99 2.223 . S
O98 C106 1.315 . S
Cd99 O98 2.223 . S
Cd99 O102 2.297 . S
Cd99 O103 2.439 . S
Cd99 O109 2.240 . S
Cd100 O101 2.240 . S
Cd100 O108 2.223 . S
Cd100 O110 2.297 . S
Cd100 O111 2.439 . S
O101 Cd100 2.240 . S
O101 C106 1.279 . S
O102 Cd99 2.297 . S
O102 C104 1.247 . S
O103 Cd99 2.439 . S
O103 C104 1.208 . S
C104 O102 1.247 . S
C104 O103 1.208 . S
C105 O110 1.247 . S
C105 O111 1.208 . S
C106 O98 1.315 . S
C106 O101 1.279 . S
C107 O108 1.315 . S
C107 O109 1.279 . S
O108 Cd100 2.223 . S
O108 C107 1.315 . S
O109 Cd99 2.240 . S
O109 C107 1.279 . S
O110 Cd100 2.297 . S
O110 C105 1.247 . S
O111 Cd100 2.439 . S
O111 C105 1.208 . S
H112 C120 0.950 . S
H113 C125 0.950 . S
H114 C122 0.950 . S
H115 C124 0.950 . S
H116 C126 0.950 . S
H117 C128 0.950 . S
H118 C130 0.950 . S
H119 C131 0.950 1_556 S
C120 H112 0.950 . S
C120 C121 1.386 . S
C120 C122 1.391 . S
C121 C120 1.386 . S
C121 C125 1.393 . S
C122 H114 0.950 . S
C122 C120 1.391 . S
C122 C123 1.400 . S
C123 C122 1.400 . S
C123 C124 1.398 . S
C123 C129 1.491 . S
C124 H115 0.950 . S
C124 C123 1.398 . S
C124 C125 1.391 . S
C125 H113 0.950 . S
C125 C121 1.393 . S
C125 C124 1.391 . S
C126 H116 0.950 . S
C126 C127 1.386 . S
C126 C128 1.391 . S
C127 C126 1.386 . S
C127 C131 1.393 . S
C128 H117 0.950 . S
C128 C126 1.391 . S
C128 C129 1.400 . S
C129 C123 1.491 . S
C129 C128 1.400 . S
C129 C130 1.398 . S
C130 H118 0.950 . S
C130 C129 1.398 . S
C130 C131 1.391 . S
C131 H119 0.950 1_554 S
C131 C127 1.393 . S
C131 C130 1.391 . S
H132 C140 0.950 . S
H133 C145 0.950 . S
H134 C142 0.950 . S
H135 C144 0.950 . S
H136 C146 0.950 . S
H137 C148 0.950 . S
H138 C150 0.950 . S
H139 C151 0.950 . S
C140 H132 0.950 . S
C140 C141 1.386 . S
C140 C142 1.391 . S
C141 C140 1.386 . S
C141 C145 1.393 . S
C142 H134 0.950 . S
C142 C140 1.391 . S
C142 C143 1.400 . S
C143 C142 1.400 . S
C143 C144 1.398 . S
C143 C149 1.491 . S
C144 H135 0.950 . S
C144 C143 1.398 . S
C144 C145 1.391 . S
C145 H133 0.950 . S
C145 C141 1.393 . S
C145 C144 1.391 . S
C146 H136 0.950 . S
C146 C147 1.386 . S
C146 C148 1.391 . S
C147 C146 1.386 . S
C147 C151 1.393 . S
C148 H137 0.950 . S
C148 C146 1.391 . S
C148 C149 1.400 . S
C149 C143 1.491 . S
C149 C148 1.400 . S
C149 C150 1.398 . S
C150 H138 0.950 . S
C150 C149 1.398 . S
C150 C151 1.391 . S
C151 H139 0.950 . S
C151 C147 1.393 . S
C151 C150 1.391 . S
H152 C160 0.950 1_556 S
H153 C165 0.950 . S
H154 C162 0.950 . S
H155 C164 0.950 . S
H156 C166 0.950 . S
H157 C168 0.950 . S
H158 C170 0.950 . S
H159 C171 0.950 . S
C160 H152 0.950 1_554 S
C160 C161 1.386 . S
C160 C162 1.391 . S
C161 C160 1.386 . S
C161 C165 1.393 . S
C162 H154 0.950 . S
C162 C160 1.391 . S
C162 C163 1.400 . S
C163 C162 1.400 . S
C163 C164 1.398 . S
C163 C169 1.491 . S
C164 H155 0.950 . S
C164 C163 1.398 . S
C164 C165 1.391 . S
C165 H153 0.950 . S
C165 C161 1.393 . S
C165 C164 1.391 . S
C166 H156 0.950 . S
C166 C167 1.386 . S
C166 C168 1.391 . S
C167 C166 1.386 . S
C167 C171 1.393 . S
C168 H157 0.950 . S
C168 C166 1.391 . S
C168 C169 1.400 . S
C169 C163 1.491 . S
C169 C168 1.400 . S
C169 C170 1.398 . S
C170 H158 0.950 . S
C170 C169 1.398 . S
C170 C171 1.391 . S
C171 H159 0.950 . S
C171 C167 1.393 . S
C171 C170 1.391 . S
H172 C180 0.950 . S
H173 C185 0.950 . S
H174 C182 0.950 . S
H175 C184 0.950 . S
H176 C186 0.950 . S
H177 C188 0.950 . S
H178 C190 0.950 . S
H179 C191 0.950 . S
C180 H172 0.950 . S
C180 C181 1.386 . S
C180 C182 1.391 . S
C181 C180 1.386 . S
C181 C185 1.393 . S
C182 H174 0.950 . S
C182 C180 1.391 . S
C182 C183 1.400 . S
C183 C182 1.400 . S
C183 C184 1.398 . S
C183 C189 1.491 . S
C184 H175 0.950 . S
C184 C183 1.398 . S
C184 C185 1.391 . S
C185 H173 0.950 . S
C185 C181 1.393 . S
C185 C184 1.391 . S
C186 H176 0.950 . S
C186 C187 1.386 . S
C186 C188 1.391 . S
C187 C186 1.386 . S
C187 C191 1.393 . S
C188 H177 0.950 . S
C188 C186 1.391 . S
C188 C189 1.400 . S
C189 C183 1.491 . S
C189 C188 1.400 . S
C189 C190 1.398 . S
C190 H178 0.950 . S
C190 C189 1.398 . S
C190 C191 1.391 . S
C191 H179 0.950 . S
C191 C187 1.393 . S
C191 C190 1.391 . S
H192 C200 0.950 . S
H193 C205 0.950 . S
H194 C202 0.950 . S
H195 C204 0.950 . S
H196 C206 0.950 . S
H197 C208 0.950 . S
H198 C210 0.950 . S
H199 C211 0.950 . S
C200 H192 0.950 . S
C200 C201 1.386 . S
C200 C202 1.391 . S
C201 C200 1.386 . S
C201 C205 1.393 . S
C202 H194 0.950 . S
C202 C200 1.391 . S
C202 C203 1.400 . S
C203 C202 1.400 . S
C203 C204 1.398 . S
C203 C209 1.491 1_565 S
C204 H195 0.950 . S
C204 C203 1.398 . S
C204 C205 1.391 . S
C205 H193 0.950 . S
C205 C201 1.393 . S
C205 C204 1.391 . S
C206 H196 0.950 . S
C206 C207 1.386 . S
C206 C208 1.391 . S
C207 C206 1.386 . S
C207 C211 1.393 . S
C208 H197 0.950 . S
C208 C206 1.391 . S
C208 C209 1.400 . S
C209 C203 1.491 1_545 S
C209 C208 1.400 . S
C209 C210 1.398 . S
C210 H198 0.950 . S
C210 C209 1.398 . S
C210 C211 1.391 . S
C211 H199 0.950 . S
C211 C207 1.393 . S
C211 C210 1.391 . S
H212 C220 0.950 . S
H213 C225 0.950 . S
H214 C222 0.950 . S
H215 C224 0.950 . S
H216 C226 0.950 . S
H217 C228 0.950 . S
H218 C230 0.950 . S
H219 C231 0.950 . S
C220 H212 0.950 . S
C220 C221 1.386 . S
C220 C222 1.391 . S
C221 C220 1.386 . S
C221 C225 1.393 . S
C222 H214 0.950 . S
C222 C220 1.391 . S
C222 C223 1.400 . S
C223 C222 1.400 . S
C223 C224 1.398 . S
C223 C229 1.491 1_455 S
C224 H215 0.950 . S
C224 C223 1.398 . S
C224 C225 1.391 . S
C225 H213 0.950 . S
C225 C221 1.393 . S
C225 C224 1.391 . S
C226 H216 0.950 . S
C226 C227 1.386 . S
C226 C228 1.391 . S
C227 C226 1.386 . S
C227 C231 1.393 . S
C228 H217 0.950 . S
C228 C226 1.391 . S
C228 C229 1.400 . S
C229 C223 1.491 1_655 S
C229 C228 1.400 . S
C229 C230 1.398 . S
C230 H218 0.950 . S
C230 C229 1.398 . S
C230 C231 1.391 . S
C231 H219 0.950 . S
C231 C227 1.393 . S
C231 C230 1.391 . S
H232 C240 0.950 . S
H233 C245 0.950 . S
H234 C242 0.950 . S
H235 C244 0.950 . S
H236 C246 0.950 . S
H237 C248 0.950 . S
H238 C250 0.950 . S
H239 C251 0.950 . S
C240 H232 0.950 . S
C240 C241 1.386 . S
C240 C242 1.391 . S
C241 C240 1.386 . S
C241 C245 1.393 . S
C242 H234 0.950 . S
C242 C240 1.391 . S
C242 C243 1.400 . S
C243 C242 1.400 . S
C243 C244 1.398 . S
C243 C249 1.491 1_545 S
C244 H235 0.950 . S
C244 C243 1.398 . S
C244 C245 1.391 . S
C245 H233 0.950 . S
C245 C241 1.393 . S
C245 C244 1.391 . S
C246 H236 0.950 . S
C246 C247 1.386 . S
C246 C248 1.391 . S
C247 C246 1.386 . S
C247 C251 1.393 . S
C248 H237 0.950 . S
C248 C246 1.391 . S
C248 C249 1.400 . S
C249 C243 1.491 1_565 S
C249 C248 1.400 . S
C249 C250 1.398 . S
C250 H238 0.950 . S
C250 C249 1.398 . S
C250 C251 1.391 . S
C251 H239 0.950 . S
C251 C247 1.393 . S
C251 C250 1.391 . S
H252 C260 0.950 . S
H253 C265 0.950 . S
H254 C262 0.950 . S
H255 C264 0.950 . S
H256 C266 0.950 . S
H257 C268 0.950 . S
H258 C270 0.950 . S
H259 C271 0.950 . S
C260 H252 0.950 . S
C260 C261 1.386 . S
C260 C262 1.391 . S
C261 C260 1.386 . S
C261 C265 1.393 . S
C262 H254 0.950 . S
C262 C260 1.391 . S
C262 C263 1.400 . S
C263 C262 1.400 . S
C263 C264 1.398 . S
C263 C269 1.491 1_655 S
C264 H255 0.950 . S
C264 C263 1.398 . S
C264 C265 1.391 . S
C265 H253 0.950 . S
C265 C261 1.393 . S
C265 C264 1.391 . S
C266 H256 0.950 . S
C266 C267 1.386 . S
C266 C268 1.391 . S
C267 C266 1.386 . S
C267 C271 1.393 . S
C268 H257 0.950 . S
C268 C266 1.391 . S
C268 C269 1.400 . S
C269 C263 1.491 1_455 S
C269 C268 1.400 . S
C269 C270 1.398 . S
C270 H258 0.950 . S
C270 C269 1.398 . S
C270 C271 1.391 . S
C271 H259 0.950 . S
C271 C267 1.393 . S
C271 C270 1.391 . S
H272 C280 0.950 . S
H273 C285 0.950 . S
H274 C282 0.950 . S
H275 C284 0.950 . S
H276 C286 0.950 . S
H277 C288 0.950 . S
H278 C290 0.950 . S
H279 C291 0.950 . S
C280 H272 0.950 . S
C280 C281 1.386 . S
C280 C282 1.391 . S
C281 C280 1.386 . S
C281 C285 1.393 . S
C282 H274 0.950 . S
C282 C280 1.391 . S
C282 C283 1.400 . S
C283 C282 1.400 . S
C283 C284 1.398 . S
C283 C289 1.491 . S
C284 H275 0.950 . S
C284 C283 1.398 . S
C284 C285 1.391 . S
C285 H273 0.950 . S
C285 C281 1.393 . S
C285 C284 1.391 . S
C286 H276 0.950 . S
C286 C287 1.386 . S
C286 C288 1.391 . S
C287 C286 1.386 . S
C287 C291 1.393 . S
C288 H277 0.950 . S
C288 C286 1.391 . S
C288 C289 1.400 . S
C289 C283 1.491 . S
C289 C288 1.400 . S
C289 C290 1.398 . S
C290 H278 0.950 . S
C290 C289 1.398 . S
C290 C291 1.391 . S
C291 H279 0.950 . S
C291 C287 1.393 . S
C291 C290 1.391 . S
H292 C300 0.950 . S
H293 C305 0.950 . S
H294 C302 0.950 . S
H295 C304 0.950 . S
H296 C306 0.950 . S
H297 C308 0.950 . S
H298 C310 0.950 . S
H299 C311 0.950 . S
C300 H292 0.950 . S
C300 C301 1.386 . S
C300 C302 1.391 . S
C301 C300 1.386 . S
C301 C305 1.393 . S
C302 H294 0.950 . S
C302 C300 1.391 . S
C302 C303 1.400 . S
C303 C302 1.400 . S
C303 C304 1.398 . S
C303 C309 1.491 . S
C304 H295 0.950 . S
C304 C303 1.398 . S
C304 C305 1.391 . S
C305 H293 0.950 . S
C305 C301 1.393 . S
C305 C304 1.391 . S
C306 H296 0.950 . S
C306 C307 1.386 . S
C306 C308 1.391 . S
C307 C306 1.386 . S
C307 C311 1.393 . S
C308 H297 0.950 . S
C308 C306 1.391 . S
C308 C309 1.400 . S
C309 C303 1.491 . S
C309 C308 1.400 . S
C309 C310 1.398 . S
C310 H298 0.950 . S
C310 C309 1.398 . S
C310 C311 1.391 . S
C311 H299 0.950 . S
C311 C307 1.393 . S
C311 C310 1.391 . S
H312 C320 0.950 . S
H313 C325 0.950 . S
H314 C322 0.950 . S
H315 C324 0.950 . S
H316 C326 0.950 . S
H317 C328 0.950 . S
H318 C330 0.950 . S
H319 C331 0.950 . S
C320 H312 0.950 . S
C320 C321 1.386 . S
C320 C322 1.391 . S
C321 C320 1.386 . S
C321 C325 1.393 . S
C322 H314 0.950 . S
C322 C320 1.391 . S
C322 C323 1.400 . S
C323 C322 1.400 . S
C323 C324 1.398 . S
C323 C329 1.491 . S
C324 H315 0.950 . S
C324 C323 1.398 . S
C324 C325 1.391 . S
C325 H313 0.950 . S
C325 C321 1.393 . S
C325 C324 1.391 . S
C326 H316 0.950 . S
C326 C327 1.386 . S
C326 C328 1.391 . S
C327 C326 1.386 . S
C327 C331 1.393 . S
C328 H317 0.950 . S
C328 C326 1.391 . S
C328 C329 1.400 . S
C329 C323 1.491 . S
C329 C328 1.400 . S
C329 C330 1.398 . S
C330 H318 0.950 . S
C330 C329 1.398 . S
C330 C331 1.391 . S
C331 H319 0.950 . S
C331 C327 1.393 . S
C331 C330 1.391 . S
H332 C340 0.950 . S
H333 C345 0.950 . S
H334 C342 0.950 . S
H335 C344 0.950 . S
H336 C346 0.950 . S
H337 C348 0.950 . S
H338 C350 0.950 . S
H339 C351 0.950 . S
C340 H332 0.950 . S
C340 C341 1.386 . S
C340 C342 1.391 . S
C341 C340 1.386 . S
C341 C345 1.393 . S
C342 H334 0.950 . S
C342 C340 1.391 . S
C342 C343 1.400 . S
C343 C342 1.400 . S
C343 C344 1.398 . S
C343 C349 1.491 . S
C344 H335 0.950 . S
C344 C343 1.398 . S
C344 C345 1.391 . S
C345 H333 0.950 . S
C345 C341 1.393 . S
C345 C344 1.391 . S
C346 H336 0.950 . S
C346 C347 1.386 . S
C346 C348 1.391 . S
C347 C346 1.386 . S
C347 C351 1.393 . S
C348 H337 0.950 . S
C348 C346 1.391 . S
C348 C349 1.400 . S
C349 C343 1.491 . S
C349 C348 1.400 . S
C349 C350 1.398 . S
C350 H338 0.950 . S
C350 C349 1.398 . S
C350 C351 1.391 . S
C351 H339 0.950 . S
C351 C347 1.393 . S
C351 C350 1.391 . S
H352 C360 0.950 . S
H353 C365 0.950 . S
H354 C362 0.950 . S
H355 C364 0.950 . S
H356 C366 0.950 . S
H357 C368 0.950 . S
H358 C370 0.950 . S
H359 C371 0.950 . S
C360 H352 0.950 . S
C360 C361 1.386 . S
C360 C362 1.391 . S
C361 C360 1.386 . S
C361 C365 1.393 . S
C362 H354 0.950 . S
C362 C360 1.391 . S
C362 C363 1.400 . S
C363 C362 1.400 . S
C363 C364 1.398 . S
C363 C369 1.491 . S
C364 H355 0.950 . S
C364 C363 1.398 . S
C364 C365 1.391 . S
C365 H353 0.950 . S
C365 C361 1.393 . S
C365 C364 1.391 . S
C366 H356 0.950 . S
C366 C367 1.386 . S
C366 C368 1.391 . S
C367 C366 1.386 . S
C367 C371 1.393 . S
C368 H357 0.950 . S
C368 C366 1.391 . S
C368 C369 1.400 . S
C369 C363 1.491 . S
C369 C368 1.400 . S
C369 C370 1.398 . S
C370 H358 0.950 . S
C370 C369 1.398 . S
C370 C371 1.391 . S
C371 H359 0.950 . S
C371 C367 1.393 . S
C371 C370 1.391 . S
H372 C380 0.950 . S
H373 C385 0.950 . S
H374 C382 0.950 . S
H375 C384 0.950 . S
H376 C386 0.950 . S
H377 C388 0.950 . S
H378 C390 0.950 . S
H379 C391 0.950 . S
C380 H372 0.950 . S
C380 C381 1.386 . S
C380 C382 1.391 1_554 S
C381 C380 1.386 . S
C381 C385 1.393 1_554 S
C382 H374 0.950 . S
C382 C380 1.391 1_556 S
C382 C383 1.400 . S
C383 C382 1.400 . S
C383 C384 1.398 . S
C383 C389 1.491 . S
C384 H375 0.950 . S
C384 C383 1.398 . S
C384 C385 1.391 . S
C385 H373 0.950 . S
C385 C381 1.393 1_556 S
C385 C384 1.391 . S
C386 H376 0.950 . S
C386 C387 1.386 . S
C386 C388 1.391 . S
C387 C386 1.386 . S
C387 C391 1.393 . S
C388 H377 0.950 . S
C388 C386 1.391 . S
C388 C389 1.400 . S
C389 C383 1.491 . S
C389 C388 1.400 . S
C389 C390 1.398 . S
C390 H378 0.950 . S
C390 C389 1.398 . S
C390 C391 1.391 . S
C391 H379 0.950 . S
C391 C387 1.393 . S
C391 C390 1.391 . S
H392 C400 0.950 . S
H393 C405 0.950 . S
H394 C402 0.950 . S
H395 C404 0.950 . S
H396 C406 0.950 . S
H397 C408 0.950 . S
H398 C410 0.950 . S
H399 C411 0.950 . S
C400 H392 0.950 . S
C400 C401 1.386 . S
C400 C402 1.391 . S
C401 C400 1.386 . S
C401 C405 1.393 . S
C402 H394 0.950 . S
C402 C400 1.391 . S
C402 C403 1.400 . S
C403 C402 1.400 . S
C403 C404 1.398 . S
C403 C409 1.491 . S
C404 H395 0.950 . S
C404 C403 1.398 . S
C404 C405 1.391 . S
C405 H393 0.950 . S
C405 C401 1.393 . S
C405 C404 1.391 . S
C406 H396 0.950 . S
C406 C407 1.386 . S
C406 C408 1.391 . S
C407 C406 1.386 . S
C407 C411 1.393 . S
C408 H397 0.950 . S
C408 C406 1.391 . S
C408 C409 1.400 . S
C409 C403 1.491 . S
C409 C408 1.400 . S
C409 C410 1.398 . S
C410 H398 0.950 . S
C410 C409 1.398 . S
C410 C411 1.391 . S
C411 H399 0.950 . S
C411 C407 1.393 . S
C411 C410 1.391 . S
H412 C420 0.950 . S
H413 C425 0.950 . S
H414 C422 0.950 . S
H415 C424 0.950 . S
H416 C426 0.950 . S
H417 C428 0.950 . S
H418 C430 0.950 . S
H419 C431 0.950 . S
C420 H412 0.950 . S
C420 C421 1.386 . S
C420 C422 1.391 1_554 S
C421 C420 1.386 . S
C421 C425 1.393 1_554 S
C422 H414 0.950 . S
C422 C420 1.391 1_556 S
C422 C423 1.400 . S
C423 C422 1.400 . S
C423 C424 1.398 . S
C423 C429 1.491 . S
C424 H415 0.950 . S
C424 C423 1.398 . S
C424 C425 1.391 . S
C425 H413 0.950 . S
C425 C421 1.393 1_556 S
C425 C424 1.391 . S
C426 H416 0.950 . S
C426 C427 1.386 . S
C426 C428 1.391 . S
C427 C426 1.386 . S
C427 C431 1.393 . S
C428 H417 0.950 . S
C428 C426 1.391 . S
C428 C429 1.400 . S
C429 C423 1.491 . S
C429 C428 1.400 . S
C429 C430 1.398 . S
C430 H418 0.950 . S
C430 C429 1.398 . S
C430 C431 1.391 . S
C431 H419 0.950 . S
C431 C427 1.393 . S
C431 C430 1.391 . S
C121 C7 1.517 . S
C127 C49 1.517 . S
C141 C9 1.589 . S
C147 C23 1.597 . S
C161 C21 1.495 . S
C167 C35 1.496 . S
C181 C51 1.590 . S
C187 C37 1.603 . S
C201 C63 1.488 . S
C207 C105 1.488 . S
C221 C79 1.602 . S
C227 C65 1.592 . S
C241 C91 1.519 . S
C247 C77 1.519 . S
C261 C107 1.588 . S
C267 C93 1.599 . S
C281 C92 1.553 . S
C287 C6 1.475 . S
C301 C22 1.555 . S
C307 C104 1.492 . S
C321 C64 1.543 . S
C327 C34 1.479 . S
C341 C76 1.492 . S
C347 C50 1.546 . S
C361 C78 1.553 . S
C367 C48 1.496 . S
C381 C8 1.554 . S
C387 C90 1.492 . S
C401 C20 1.468 . S
C407 C106 1.549 . S
C421 C36 1.551 . S
C427 C62 1.497 . S
