# Generated by pormake.
# Topology mdf, (4)-cn, num edge types: 1
# Building blocks:
#     Node 0, Type 0, BuildingBlock: KUFVIS_clean_sbu_0, # of connection points: 4
#     Node 1, Type 0, BuildingBlock: KUFVIS_clean_sbu_0, # of connection points: 4
#     Node 2, Type 0, BuildingBlock: KUFVIS_clean_sbu_0, # of connection points: 4
#     Node 3, Type 0, BuildingBlock: KUFVIS_clean_sbu_0, # of connection points: 4
#     Node 4, Type 0, BuildingBlock: KUFVIS_clean_sbu_0, # of connection points: 4
#     Node 5, Type 0, BuildingBlock: KUFVIS_clean_sbu_0, # of connection points: 4
#     Node 6, Type 0, BuildingBlock: KUFVIS_clean_sbu_0, # of connection points: 4
#     Node 7, Type 0, BuildingBlock: KUFVIS_clean_sbu_0, # of connection points: 4
#     Edge 8, Type (0, 0), BuildingBlock: XIVTED_clean_linker_0, # of connection points: 2
#     Edge 9, Type (0, 0), BuildingBlock: XIVTED_clean_linker_0, # of connection points: 2
#     Edge 10, Type (0, 0), BuildingBlock: XIVTED_clean_linker_0, # of connection points: 2
#     Edge 11, Type (0, 0), BuildingBlock: XIVTED_clean_linker_0, # of connection points: 2
#     Edge 12, Type (0, 0), BuildingBlock: XIVTED_clean_linker_0, # of connection points: 2
#     Edge 13, Type (0, 0), BuildingBlock: XIVTED_clean_linker_0, # of connection points: 2
#     Edge 14, Type (0, 0), BuildingBlock: XIVTED_clean_linker_0, # of connection points: 2
#     Edge 15, Type (0, 0), BuildingBlock: XIVTED_clean_linker_0, # of connection points: 2
#     Edge 16, Type (0, 0), BuildingBlock: XIVTED_clean_linker_0, # of connection points: 2
#     Edge 17, Type (0, 0), BuildingBlock: XIVTED_clean_linker_0, # of connection points: 2
#     Edge 18, Type (0, 0), BuildingBlock: XIVTED_clean_linker_0, # of connection points: 2
#     Edge 19, Type (0, 0), BuildingBlock: XIVTED_clean_linker_0, # of connection points: 2
#     Edge 20, Type (0, 0), BuildingBlock: XIVTED_clean_linker_0, # of connection points: 2
#     Edge 21, Type (0, 0), BuildingBlock: XIVTED_clean_linker_0, # of connection points: 2
#     Edge 22, Type (0, 0), BuildingBlock: XIVTED_clean_linker_0, # of connection points: 2
#     Edge 23, Type (0, 0), BuildingBlock: XIVTED_clean_linker_0, # of connection points: 2
# Relax obj value: 0.028
# Max RMSD: 0.051
# Mean RMSD: 0.051
data_MOF--net-mdf--node1-KUFVIS_clean_sbu_0--edge1-XIVTED_clean_linker_0
_symmetry_space_group_name_H-M    P1
_symmetry_Int_Tables_number       1
_symmetry_cell_setting            triclinic
loop_
_symmetry_equiv_pos_as_xyz
'x, y, z'
_cell_length_a     37.638207
_cell_length_b     37.676431
_cell_length_c     12.212217
_cell_angle_alpha  90.055788
_cell_angle_beta   89.96788
_cell_angle_gamma 92.744001
loop_
_atom_site_label
_atom_site_type_symbol
_atom_site_fract_x
_atom_site_fract_y
_atom_site_fract_z
_atom_type_partial_charge
Mn0 Mn 0.24553 0.52285 0.41013 0.0
Mn1 Mn 0.25609 0.48055 0.16856 0.0
C2 C 0.21115 0.472 0.3687 0.0
C3 C 0.21892 0.56649 0.51446 0.0
C4 C 0.3073 0.47532 0.36004 0.0
O5 O 0.27325 0.55998 0.31737 0.0
O6 O 0.27298 0.53073 0.1562 0.0
C7 C 0.20425 0.51917 0.03716 0.0
N8 N 0.21619 0.48802 0.07602 0.0
C9 C 0.17099 0.4541 0.9768 0.0
C10 C 0.15842 0.48578 0.93488 0.0
C11 C 0.17502 0.51847 0.96565 0.0
C12 C 0.2 0.45649 0.04857 0.0
H13 H 0.21691 0.54434 0.06061 0.0
C14 C 0.27937 0.55851 0.21447 0.0
O15 O 0.24886 0.55358 0.54356 0.0
O16 O 0.20497 0.55475 0.42347 0.0
N17 N 0.24034 0.4315 0.1669 0.0
C18 C 0.256 0.40333 0.2135 0.0
C19 C 0.24292 0.36866 0.18976 0.0
C20 C 0.21431 0.36324 0.11695 0.0
C21 C 0.19887 0.39259 0.06895 0.0
C22 C 0.21312 0.42652 0.09541 0.0
H23 H 0.27842 0.40722 0.26793 0.0
O24 O 0.21475 0.48235 0.4696 0.0
O25 O 0.22712 0.49188 0.29564 0.0
O26 O 0.28992 0.4938 0.42739 0.0
O27 O 0.2979 0.47039 0.26027 0.0
C28 C 0.1701 0.3895 0.9952 0.0
C29 C 0.15593 0.42024 0.95005 0.0
H30 H 0.13599 0.48534 0.87925 0.0
H31 H 0.1654 0.54306 0.93396 0.0
H32 H 0.25505 0.34614 0.22679 0.0
H33 H 0.20454 0.33642 0.09822 0.0
H34 H 0.15856 0.36362 0.97286 0.0
H35 H 0.13359 0.41752 0.8943 0.0
Mn36 Mn 0.47283 0.75835 0.6079 0.0
Mn37 Mn 0.51527 0.74744 0.84905 0.0
C38 C 0.52518 0.79079 0.64625 0.0
C39 C 0.43 0.78649 0.50434 0.0
C40 C 0.51891 0.69544 0.65902 0.0
O41 O 0.435 0.73242 0.70246 0.0
O42 O 0.46475 0.73168 0.8624 0.0
C43 C 0.47783 0.80091 0.97779 0.0
N44 N 0.5087 0.78795 0.93995 0.0
C45 C 0.54364 0.83276 0.03756 0.0
C46 C 0.51224 0.84642 0.07836 0.0
C47 C 0.47918 0.83053 0.04784 0.0
C48 C 0.5406 0.80348 0.96694 0.0
H49 H 0.45237 0.78877 0.95462 0.0
C50 C 0.43666 0.72606 0.80506 0.0
O51 O 0.44093 0.75557 0.47648 0.0
O52 O 0.44308 0.80043 0.59357 0.0
N53 N 0.56469 0.7619 0.85073 0.0
C54 C 0.5925 0.74497 0.80635 0.0
C55 C 0.62747 0.75697 0.83102 0.0
C56 C 0.63352 0.7858 0.90259 0.0
C57 C 0.60453 0.80257 0.94835 0.0
C58 C 0.57027 0.78931 0.9212 0.0
H59 H 0.58811 0.72231 0.75313 0.0
O60 O 0.51436 0.78715 0.54583 0.0
O61 O 0.50488 0.77608 0.7206 0.0
O62 O 0.50023 0.71271 0.59191 0.0
O63 O 0.52445 0.70518 0.75826 0.0
C64 C 0.60826 0.83164 0.02086 0.0
C65 C 0.57784 0.84697 0.06445 0.0
H66 H 0.51319 0.86911 0.133 0.0
H67 H 0.45481 0.84099 0.07866 0.0
H68 H 0.64971 0.74379 0.79583 0.0
H69 H 0.66056 0.79465 0.92235 0.0
H70 H 0.63441 0.84247 0.04351 0.0
H71 H 0.58106 0.8695 0.11932 0.0
Mn72 Mn 0.25814 0.97937 0.91039 0.0
Mn73 Mn 0.24967 0.0251 0.67413 0.0
C74 C 0.29228 0.03105 0.87906 0.0
C75 C 0.28538 0.9352 0.01078 0.0
C76 C 0.19653 0.02751 0.86159 0.0
O77 O 0.23225 0.94324 0.81001 0.0
O78 O 0.23204 0.97532 0.65428 0.0
C79 C 0.30176 0.98736 0.54084 0.0
N80 N 0.29016 0.01818 0.58336 0.0
C81 C 0.33697 0.05254 0.49276 0.0
C82 C 0.34928 0.0212 0.44741 0.0
C83 C 0.33168 0.98845 0.47197 0.0
C84 C 0.30721 0.04976 0.56159 0.0
H85 H 0.28828 0.96213 0.55929 0.0
C86 C 0.22586 0.94651 0.70777 0.0
O87 O 0.25438 0.94606 0.03853 0.0
O88 O 0.29968 0.9489 0.92303 0.0
N89 N 0.26624 0.07392 0.67984 0.0
C90 C 0.25094 0.10173 0.72983 0.0
C91 C 0.26534 0.13641 0.71342 0.0
C92 C 0.29488 0.14222 0.6443 0.0
C93 C 0.30974 0.11328 0.59199 0.0
C94 C 0.29428 0.07933 0.61155 0.0
H95 H 0.22792 0.09753 0.7818 0.0
O96 O 0.28744 0.01951 0.97827 0.0
O97 O 0.2773 0.01206 0.80207 0.0
O98 O 0.21276 0.00735 0.92711 0.0
O99 O 0.20743 0.03461 0.76441 0.0
C100 C 0.33924 0.1168 0.52111 0.0
C101 C 0.35306 0.08643 0.47235 0.0
H102 H 0.37226 0.02196 0.39386 0.0
H103 H 0.34107 0.96413 0.43753 0.0
H104 H 0.25361 0.15862 0.75366 0.0
H105 H 0.30597 0.16899 0.63209 0.0
H106 H 0.35163 0.14274 0.50387 0.0
H107 H 0.376 0.08946 0.41897 0.0
Mn108 Mn 0.02956 0.74293 0.10934 0.0
Mn109 Mn 0.98886 0.75622 0.35201 0.0
C110 C 0.97932 0.7086 0.15839 0.0
C111 C 0.0728 0.71561 1.00518 0.0
C112 C 0.98168 0.8047 0.15478 0.0
O113 O 0.06703 0.77249 0.19608 0.0
O114 O 0.03903 0.77364 0.3593 0.0
C115 C 0.02886 0.70623 0.4863 0.0
N116 N 0.99731 0.7177 0.44891 0.0
C117 C 0.96437 0.6739 0.55631 0.0
C118 C 0.99649 0.66195 0.59722 0.0
C119 C 0.02889 0.67806 0.56151 0.0
C120 C 0.96604 0.70189 0.48086 0.0
H121 H 0.0538 0.71841 0.45864 0.0
C122 C 0.06625 0.7798 0.29834 0.0
O123 O 0.05921 0.74493 0.97361 0.0
O124 O 0.06203 0.70272 0.0986 0.0
N125 N 0.93992 0.74014 0.35842 0.0
C126 C 0.91131 0.75466 0.31059 0.0
C127 C 0.87686 0.74171 0.33794 0.0
C128 C 0.87214 0.71439 0.41542 0.0
C129 C 0.90194 0.69999 0.4642 0.0
C130 C 0.93562 0.7141 0.43409 0.0
H131 H 0.91468 0.77613 0.25252 0.0
O132 O 0.98892 0.71089 0.05651 0.0
O133 O 0.99961 0.72573 0.22799 0.0
O134 O 0.99976 0.78655 0.08844 0.0
O135 O 0.97766 0.79669 0.256 0.0
C136 C 0.89957 0.67236 0.542 0.0
C137 C 0.93077 0.65909 0.58717 0.0
H138 H 0.99661 0.64032 0.65555 0.0
H139 H 0.05381 0.66883 0.59209 0.0
H140 H 0.85398 0.753 0.30019 0.0
H141 H 0.84547 0.70484 0.43718 0.0
H142 H 0.8739 0.66098 0.56726 0.0
H143 H 0.9286 0.63755 0.64584 0.0
Mn144 Mn 0.74713 0.02236 0.90331 0.0
Mn145 Mn 0.75819 0.97786 0.66566 0.0
C146 C 0.71288 0.97113 0.86526 0.0
C147 C 0.72026 0.06673 1.00416 0.0
C148 C 0.8089 0.97419 0.85883 0.0
O149 O 0.77491 0.05875 0.80788 0.0
O150 O 0.77533 0.02783 0.64979 0.0
C151 C 0.70692 0.01563 0.52966 0.0
N152 N 0.71859 0.98475 0.57134 0.0
C153 C 0.67357 0.95022 0.47327 0.0
C154 C 0.66126 0.98162 0.4285 0.0
C155 C 0.6779 0.01448 0.45728 0.0
C156 C 0.70235 0.95307 0.54584 0.0
H157 H 0.71963 0.04094 0.55149 0.0
C158 C 0.78143 0.05622 0.70541 0.0
O159 O 0.75022 0.05414 0.03443 0.0
O160 O 0.70646 0.05432 0.91375 0.0
N161 N 0.74222 0.92887 0.66736 0.0
C162 C 0.75765 0.90101 0.71649 0.0
C163 C 0.7445 0.8662 0.69499 0.0
C164 C 0.71608 0.86032 0.62174 0.0
C165 C 0.70091 0.88934 0.571 0.0
C166 C 0.7152 0.92343 0.5954 0.0
H167 H 0.77994 0.90525 0.77126 0.0
O168 O 0.71631 0.98231 0.96538 0.0
O169 O 0.72894 0.9904 0.79095 0.0
O170 O 0.79152 0.99349 0.92389 0.0
O171 O 0.79966 0.96827 0.75941 0.0
C172 C 0.67238 0.88578 0.49646 0.0
C173 C 0.65848 0.91621 0.44854 0.0
H174 H 0.63902 0.98081 0.37215 0.0
H175 H 0.66849 0.03885 0.42337 0.0
H176 H 0.75643 0.84393 0.73408 0.0
H177 H 0.70624 0.8334 0.60478 0.0
H178 H 0.66085 0.85977 0.47557 0.0
H179 H 0.63633 0.91314 0.39219 0.0
Mn180 Mn 0.97375 0.25759 0.09511 0.0
Mn181 Mn 0.01468 0.24732 0.33904 0.0
C182 C 0.02451 0.29194 0.13844 0.0
C183 C 0.93027 0.28392 0.98915 0.0
C184 C 0.0211 0.196 0.14809 0.0
O185 O 0.9363 0.22953 0.1861 0.0
O186 O 0.96432 0.23085 0.34924 0.0
C187 C 0.97572 0.29986 0.46701 0.0
N188 N 0.007 0.28748 0.43038 0.0
C189 C 0.04078 0.33238 0.53126 0.0
C190 C 0.00893 0.3454 0.57094 0.0
C191 C 0.97626 0.32917 0.53821 0.0
C192 C 0.03854 0.30333 0.45957 0.0
H193 H 0.95056 0.28749 0.44201 0.0
C194 C 0.93705 0.22392 0.28933 0.0
O195 O 0.94358 0.25413 0.96042 0.0
O196 O 0.94156 0.29792 0.08057 0.0
N197 N 0.06389 0.26252 0.34341 0.0
C198 C 0.0922 0.24615 0.30001 0.0
C199 C 0.12687 0.2585 0.327 0.0
C200 C 0.13212 0.28712 0.39979 0.0
C201 C 0.10262 0.30336 0.44435 0.0
C202 C 0.06869 0.28974 0.41499 0.0
H203 H 0.08844 0.22363 0.24589 0.0
O204 O 0.01445 0.2885 0.03726 0.0
O205 O 0.00427 0.27608 0.21082 0.0
O206 O 0.00327 0.21343 0.07924 0.0
O207 O 0.02503 0.20528 0.24839 0.0
C208 C 0.10554 0.33224 0.51777 0.0
C209 C 0.07464 0.34698 0.56028 0.0
H210 H 0.00926 0.36787 0.6264 0.0
H211 H 0.95156 0.33913 0.56819 0.0
H212 H 0.14951 0.24574 0.29269 0.0
H213 H 0.15892 0.2962 0.42147 0.0
H214 H 0.13142 0.34338 0.54194 0.0
H215 H 0.07724 0.36935 0.61594 0.0
Mn216 Mn 0.75533 0.47895 0.41279 0.0
Mn217 Mn 0.74806 0.52521 0.17687 0.0
C218 C 0.7915 0.5292 0.38081 0.0
C219 C 0.78022 0.4334 0.5135 0.0
C220 C 0.69557 0.52942 0.36551 0.0
O221 O 0.72766 0.44391 0.31291 0.0
O222 O 0.72881 0.47598 0.15708 0.0
C223 C 0.79823 0.48587 0.04096 0.0
N224 N 0.78795 0.51703 0.08479 0.0
C225 C 0.83553 0.54999 0.99318 0.0
C226 C 0.84652 0.51828 0.94663 0.0
C227 C 0.82785 0.48607 0.97096 0.0
C228 C 0.80598 0.5481 0.06298 0.0
H229 H 0.78391 0.46106 0.05913 0.0
C230 C 0.72156 0.44737 0.21051 0.0
O231 O 0.75028 0.44649 0.54201 0.0
O232 O 0.79501 0.4459 0.42473 0.0
N233 N 0.76625 0.57351 0.18271 0.0
C234 C 0.75205 0.6018 0.23342 0.0
C235 C 0.76756 0.63605 0.21714 0.0
C236 C 0.79708 0.64096 0.14742 0.0
C237 C 0.81078 0.61156 0.09434 0.0
C238 C 0.79423 0.57807 0.11374 0.0
H239 H 0.72907 0.59831 0.28591 0.0
O240 O 0.78649 0.51773 0.47999 0.0
O241 O 0.77564 0.51088 0.3038 0.0
O242 O 0.71145 0.50896 0.43081 0.0
O243 O 0.70635 0.53605 0.26796 0.0
C244 C 0.84018 0.61417 0.02282 0.0
C245 C 0.85273 0.58338 0.973 0.0
H246 H 0.86926 0.51835 0.89223 0.0
H247 H 0.83617 0.46147 0.93545 0.0
H248 H 0.75672 0.65863 0.25797 0.0
H249 H 0.80903 0.6674 0.13534 0.0
H250 H 0.85343 0.63973 1.00582 0.0
H251 H 0.87556 0.58571 0.91897 0.0
Mn252 Mn 0.52975 0.24371 0.59529 0.0
Mn253 Mn 0.4898 0.25707 0.83919 0.0
C254 C 0.4796 0.20941 0.64595 0.0
C255 C 0.57279 0.21626 0.49036 0.0
C256 C 0.4821 0.30553 0.64215 0.0
O257 O 0.56744 0.27341 0.68092 0.0
O258 O 0.54 0.27426 0.84507 0.0
C259 C 0.52992 0.20685 0.9722 0.0
N260 N 0.49833 0.21849 0.93574 0.0
C261 C 0.46548 0.1749 0.0442 0.0
C262 C 0.49766 0.16276 0.0841 0.0
C263 C 0.53003 0.17868 0.04741 0.0
C264 C 0.46708 0.20286 0.96864 0.0
H265 H 0.55484 0.2189 0.94384 0.0
C266 C 0.56699 0.28057 0.78334 0.0
O267 O 0.55907 0.24551 0.45871 0.0
O268 O 0.56223 0.2035 0.58416 0.0
N269 N 0.4408 0.24126 0.84703 0.0
C270 C 0.41212 0.25608 0.80051 0.0
C271 C 0.37769 0.24345 0.82928 0.0
C272 C 0.37306 0.21615 0.90686 0.0
C273 C 0.40293 0.20145 0.95432 0.0
C274 C 0.43659 0.21527 0.92287 0.0
H275 H 0.41543 0.27756 0.74246 0.0
O276 O 0.48895 0.21154 0.54382 0.0
O277 O 0.5001 0.2266 0.7148 0.0
O278 O 0.49981 0.2873 0.57498 0.0
O279 O 0.47854 0.29758 0.74356 0.0
C280 C 0.40065 0.17384 0.03215 0.0
C281 C 0.4319 0.16032 0.0762 0.0
H282 H 0.49783 0.14114 0.14246 0.0
H283 H 0.55498 0.16931 0.07724 0.0
H284 H 0.35476 0.25498 0.79259 0.0
H285 H 0.34643 0.20686 0.92977 0.0
H286 H 0.37499 0.16264 0.0583 0.0
H287 H 0.4298 0.1388 0.13495 0.0
H288 H 0.42217 0.73027 0.02283 0.0
H289 H 0.27585 0.57217 0.99612 0.0
H290 H 0.38016 0.68572 0.72106 0.0
H291 H 0.31715 0.61684 0.29877 0.0
H292 H 0.30626 0.62012 0.89557 0.0
H293 H 0.37656 0.69632 0.12438 0.0
C294 C 0.40305 0.71359 0.97765 0.0
C295 C 0.40541 0.71022 0.86327 0.0
C296 C 0.30846 0.61973 0.98398 0.0
C297 C 0.35322 0.67096 0.97975 0.0
C298 C 0.29118 0.59223 0.04178 0.0
C299 C 0.29456 0.59006 0.1562 0.0
C300 C 0.32973 0.64518 0.0405 0.0
C301 C 0.31415 0.61727 0.21063 0.0
C302 C 0.37696 0.69424 0.03593 0.0
C303 C 0.3795 0.68882 0.80917 0.0
N304 N 0.3315 0.64346 0.152 0.0
N305 N 0.3548 0.66949 0.86818 0.0
H306 H 0.37846 0.7601 0.36211 0.0
H307 H 0.35704 0.93282 0.03029 0.0
H308 H 0.42714 0.85815 0.48521 0.0
H309 H 0.25921 0.88278 0.15084 0.0
H310 H 0.39049 0.89525 0.15305 0.0
H311 H 0.34052 0.79489 0.24163 0.0
C312 C 0.38107 0.78885 0.36399 0.0
C313 C 0.4058 0.80634 0.43403 0.0
C314 C 0.36171 0.8924 0.15166 0.0
C315 C 0.36355 0.84575 0.29549 0.0
C316 C 0.34261 0.9136 0.08155 0.0
C317 C 0.30529 0.91087 0.08047 0.0
C318 C 0.34349 0.86753 0.21884 0.0
C319 C 0.28796 0.88573 0.14952 0.0
C320 C 0.35941 0.80854 0.29586 0.0
C321 C 0.40822 0.84364 0.43318 0.0
N322 N 0.30725 0.86467 0.21553 0.0
N323 N 0.38778 0.8621 0.36372 0.0
H324 H 0.08456 0.77433 0.51237 0.0
H325 H 0.22454 0.93799 0.48592 0.0
H326 H 0.11943 0.82371 0.20957 0.0
H327 H 0.19172 0.88541 0.78602 0.0
H328 H 0.19326 0.89122 0.38166 0.0
H329 H 0.13057 0.80871 0.60996 0.0
C330 C 0.10222 0.79218 0.46599 0.0
C331 C 0.09776 0.79662 0.35269 0.0
C332 C 0.19314 0.88967 0.47021 0.0
C333 C 0.15042 0.83662 0.46501 0.0
C334 C 0.21089 0.91648 0.53015 0.0
C335 C 0.21014 0.91603 0.6453 0.0
C336 C 0.17417 0.86227 0.52551 0.0
C337 C 0.19268 0.88705 0.69757 0.0
C338 C 0.12856 0.81183 0.52206 0.0
C339 C 0.1218 0.8197 0.29698 0.0
N340 N 0.17495 0.86157 0.6372 0.0
N341 N 0.14679 0.83937 0.35413 0.0
H342 H 0.11707 0.66344 0.06519 0.0
H343 H 0.1657 0.60963 0.45607 0.0
H344 H 0.08501 0.72394 0.78532 0.0
H345 H 0.22945 0.5807 0.7326 0.0
H346 H 0.1326 0.64853 0.57565 0.0
H347 H 0.15535 0.62956 0.94553 0.0
C348 C 0.11826 0.66974 0.9787 0.0
C349 C 0.09787 0.69659 0.9352 0.0
C350 C 0.15403 0.6339 0.60992 0.0
C351 C 0.14117 0.65759 0.7977 0.0
C352 C 0.17287 0.61163 0.54182 0.0
C353 C 0.2004 0.59193 0.5844 0.0
C354 C 0.16228 0.63598 0.72197 0.0
C355 C 0.20855 0.59555 0.69621 0.0
C356 C 0.14017 0.65046 0.91057 0.0
C357 C 0.10042 0.70361 0.82246 0.0
N358 N 0.18932 0.61684 0.76139 0.0
N359 N 0.12136 0.68398 0.75743 0.0
H360 H 0.77989 0.06661 0.48498 0.0
H361 H 0.91944 0.23087 0.5039 0.0
H362 H 0.81702 0.1166 0.78492 0.0
H363 H 0.88348 0.17972 0.20473 0.0
H364 H 0.87425 0.19637 0.60516 0.0
H365 H 0.8097 0.11404 0.38078 0.0
C366 C 0.79421 0.0877 0.52928 0.0
C367 C 0.79657 0.08721 0.64421 0.0
C368 C 0.87586 0.19293 0.51727 0.0
C369 C 0.83099 0.1418 0.52419 0.0
C370 C 0.9017 0.21263 0.45912 0.0
C371 C 0.90568 0.20762 0.34577 0.0
C372 C 0.85399 0.16766 0.46212 0.0
C373 C 0.88152 0.18416 0.29207 0.0
C374 C 0.81114 0.11491 0.46933 0.0
C375 C 0.81484 0.11571 0.69657 0.0
N376 N 0.85703 0.16455 0.35115 0.0
N377 N 0.83183 0.14163 0.63595 0.0
H378 H 0.91778 0.27415 0.76975 0.0
H379 H 0.76875 0.41832 0.73059 0.0
H380 H 0.88513 0.33555 0.04744 0.0
H381 H 0.83308 0.38975 0.45463 0.0
H382 H 0.80281 0.37929 0.8472 0.0
H383 H 0.87854 0.30774 0.65242 0.0
C384 C 0.90205 0.2944 0.80628 0.0
C385 C 0.90478 0.30213 0.91856 0.0
C386 C 0.80925 0.38138 0.76092 0.0
C387 C 0.85965 0.3404 0.78501 0.0
C388 C 0.7897 0.40347 0.6942 0.0
C389 C 0.79816 0.40735 0.58273 0.0
C390 C 0.83704 0.36255 0.71549 0.0
C391 C 0.82577 0.38765 0.54021 0.0
C392 C 0.87981 0.31366 0.73919 0.0
C393 C 0.88396 0.32884 0.96126 0.0
N394 N 0.84418 0.36607 0.60652 0.0
N395 N 0.86221 0.34693 0.89458 0.0
H396 H 0.69019 0.3846 0.28721 0.0
H397 H 0.61933 0.32533 0.69372 0.0
H398 H 0.7172 0.44095 0.98825 0.0
H399 H 0.58593 0.27502 0.99661 0.0
H400 H 0.66442 0.36106 0.79606 0.0
H401 H 0.66029 0.33759 0.17789 0.0
C402 C 0.69006 0.387 0.19884 0.0
C403 C 0.70556 0.41714 0.14726 0.0
C404 C 0.6475 0.34178 0.83963 0.0
C405 C 0.67158 0.36353 0.02164 0.0
C406 C 0.62195 0.32131 0.7811 0.0
C407 C 0.59846 0.29773 0.83702 0.0
C408 C 0.64945 0.33837 0.95432 0.0
C409 C 0.60303 0.29341 0.95038 0.0
C410 C 0.67304 0.36016 0.13635 0.0
C411 C 0.70493 0.41861 0.03208 0.0
N412 N 0.62767 0.31381 1.00533 0.0
N413 N 0.68794 0.39239 0.97337 0.0
H414 H 0.66624 0.10876 0.94395 0.0
H415 H 0.61787 0.16496 0.55134 0.0
H416 H 0.73095 0.08252 0.22115 0.0
H417 H 0.58421 0.22362 0.26963 0.0
H418 H 0.65635 0.13109 0.43236 0.0
H419 H 0.63266 0.1478 0.06194 0.0
C420 C 0.67353 0.11139 0.02947 0.0
C421 C 0.70147 0.09238 0.07272 0.0
C422 C 0.64077 0.15158 0.39678 0.0
C423 C 0.6628 0.13657 0.2085 0.0
C424 C 0.61873 0.17085 0.46455 0.0
C425 C 0.59786 0.1972 0.42039 0.0
C426 C 0.64142 0.15819 0.28359 0.0
C427 C 0.60002 0.2037 0.30727 0.0
C428 C 0.65441 0.13373 0.09666 0.0
C429 C 0.70974 0.09681 0.18421 0.0
N430 N 0.6211 0.18407 0.2426 0.0
N431 N 0.69024 0.11812 0.2485 0.0
H432 H 0.33206 0.47129 0.57151 0.0
H433 H 0.47473 0.3269 0.4282 0.0
H434 H 0.35314 0.43495 0.24335 0.0
H435 H 0.44337 0.35302 0.75772 0.0
H436 H 0.43647 0.37239 0.35865 0.0
H437 H 0.37876 0.43426 0.63978 0.0
C438 C 0.34672 0.4559 0.51345 0.0
C439 C 0.33832 0.45619 0.40131 0.0
C440 C 0.4382 0.36836 0.44623 0.0
C441 C 0.39191 0.41343 0.47955 0.0
C442 C 0.46018 0.34243 0.4862 0.0
C443 C 0.46223 0.3358 0.59923 0.0
C444 C 0.41806 0.38798 0.51958 0.0
C445 C 0.4426 0.35692 0.66996 0.0
C446 C 0.37335 0.43462 0.55271 0.0
C447 C 0.35841 0.43555 0.33047 0.0
N448 N 0.42125 0.38184 0.62898 0.0
N449 N 0.38405 0.41491 0.3708 0.0
H450 H 0.71099 0.90107 0.9215 0.0
H451 H 0.59558 0.78854 0.59543 0.0
H452 H 0.65324 0.97941 0.74774 0.0
H453 H 0.5191 0.85201 0.75761 0.0
H454 H 0.64331 0.83107 0.6564 0.0
H455 H 0.66665 0.85507 0.86054 0.0
C456 C 0.68871 0.90846 0.87172 0.0
C457 C 0.68585 0.94353 0.83692 0.0
C458 C 0.61601 0.83577 0.67701 0.0
C459 C 0.63474 0.89212 0.77318 0.0
C460 C 0.58898 0.81169 0.64258 0.0
C461 C 0.55388 0.8167 0.67422 0.0
C462 C 0.6073 0.86574 0.73775 0.0
C463 C 0.54617 0.84718 0.73379 0.0
C464 C 0.6636 0.88239 0.83728 0.0
C465 C 0.65642 0.9523 0.77403 0.0
N466 N 0.57275 0.87091 0.76302 0.0
N467 N 0.63164 0.9267 0.74475 0.0
H468 H 0.05944 0.14943 0.26842 0.0
H469 H 0.14967 0.06558 0.74251 0.0
H470 H 0.02893 0.17261 0.9362 0.0
H471 H 0.17181 0.03283 0.07326 0.0
H472 H 0.1027 0.10189 0.81202 0.0
H473 H 0.09772 0.10391 0.19922 0.0
C474 C 0.0604 0.14474 0.18098 0.0
C475 C 0.04094 0.16522 0.10818 0.0
C476 C 0.11756 0.0865 0.86943 0.0
C477 C 0.08525 0.11309 0.02817 0.0
C478 C 0.14447 0.06567 0.82975 0.0
C479 C 0.16504 0.04613 0.90203 0.0
C480 C 0.11118 0.08825 0.98259 0.0
C481 C 0.15676 0.04737 0.01423 0.0
C482 C 0.08237 0.11868 0.14151 0.0
C483 C 0.04339 0.15768 0.99571 0.0
N484 N 0.13078 0.06835 0.05106 0.0
N485 N 0.06537 0.13253 0.95928 0.0
H486 H 0.98923 0.65149 0.28583 0.0
H487 H 0.79635 0.59842 0.44587 0.0
H488 H 0.90862 0.70484 0.10768 0.0
H489 H 0.85129 0.51953 0.26475 0.0
H490 H 0.84265 0.64324 0.39074 0.0
H491 H 0.94366 0.60676 0.34707 0.0
C492 C 0.96186 0.65375 0.26027 0.0
C493 C 0.9522 0.68189 0.19344 0.0
C494 C 0.84473 0.616 0.36509 0.0
C495 C 0.90071 0.63193 0.26415 0.0
C496 C 0.81847 0.59061 0.396 0.0
C497 C 0.8199 0.55585 0.35691 0.0
C498 C 0.87319 0.60581 0.30013 0.0
C499 C 0.84917 0.54649 0.29406 0.0
C500 C 0.93615 0.62841 0.29498 0.0
C501 C 0.91674 0.6836 0.16034 0.0
N502 N 0.87496 0.57143 0.26765 0.0
N503 N 0.89192 0.65918 0.19789 0.0
H504 H 0.29629 0.10096 0.9384 0.0
H505 H 0.48994 0.15207 0.77178 0.0
H506 H 0.35266 0.02082 0.76741 0.0
H507 H 0.40855 0.20627 0.59985 0.0
H508 H 0.44444 0.10781 0.83633 0.0
H509 H 0.34241 0.14562 0.88039 0.0
C510 C 0.3187 0.09286 0.89027 0.0
C511 C 0.32061 0.05773 0.85482 0.0
C512 C 0.43674 0.12955 0.78488 0.0
C513 C 0.37365 0.10757 0.79482 0.0
C514 C 0.46243 0.15459 0.74821 0.0
C515 C 0.45254 0.18283 0.68215 0.0
C516 C 0.40111 0.13348 0.75699 0.0
C517 C 0.41686 0.18493 0.6518 0.0
C518 C 0.34484 0.11816 0.85767 0.0
C519 C 0.3502 0.04802 0.79403 0.0
N520 N 0.39208 0.16081 0.69139 0.0
N521 N 0.37585 0.07289 0.76606 0.0
H522 H 0.83209 0.97057 0.07213 0.0
H523 H 0.9763 0.82658 0.94079 0.0
H524 H 0.85563 0.93372 0.74627 0.0
H525 H 0.9414 0.85162 0.26765 0.0
H526 H 0.93856 0.87201 0.8685 0.0
H527 H 0.87823 0.93358 0.14448 0.0
C528 C 0.8472 0.9551 0.01544 0.0
C529 C 0.83965 0.95522 0.90271 0.0
C530 C 0.93938 0.86775 0.95613 0.0
C531 C 0.89257 0.91252 0.98562 0.0
C532 C 0.96107 0.84184 0.9977 0.0
C533 C 0.96199 0.83493 0.11074 0.0
C534 C 0.91841 0.8871 0.02784 0.0
C535 C 0.94152 0.85576 0.17996 0.0
C536 C 0.87349 0.93383 0.05704 0.0
C537 C 0.86025 0.93445 0.83373 0.0
N538 N 0.92048 0.88068 0.1374 0.0
N539 N 0.88555 0.91385 0.87629 0.0
H540 H 0.09504 0.29042 0.08998 0.0
H541 H 0.20967 0.40159 0.42005 0.0
H542 H 0.01763 0.3526 0.25276 0.0
H543 H 0.15118 0.48085 0.25301 0.0
H544 H 0.16536 0.35586 0.35729 0.0
H545 H 0.14229 0.33295 0.15381 0.0
C546 C 0.08814 0.31328 0.138 0.0
C547 C 0.0529 0.3179 0.16895 0.0
C548 C 0.16214 0.38331 0.33586 0.0
C549 C 0.10584 0.367 0.23582 0.0
C550 C 0.18724 0.40923 0.3713 0.0
C551 C 0.18418 0.44451 0.33886 0.0
C552 C 0.1331 0.39333 0.27307 0.0
C553 C 0.15454 0.45358 0.27737 0.0
C554 C 0.11491 0.33737 0.17405 0.0
C555 C 0.04481 0.34805 0.22953 0.0
N556 N 0.12979 0.42808 0.24698 0.0
N557 N 0.07117 0.37182 0.26042 0.0
H558 H 0.55674 0.64789 0.77684 0.0
H559 H 0.64999 0.56955 0.24795 0.0
H560 H 0.52663 0.67321 0.44588 0.0
H561 H 0.66999 0.53326 0.57649 0.0
H562 H 0.60254 0.60511 0.31845 0.0
H563 H 0.59557 0.60326 0.70521 0.0
C564 C 0.55786 0.6438 0.68913 0.0
C565 C 0.53839 0.66466 0.61746 0.0
C566 C 0.61705 0.58913 0.37508 0.0
C567 C 0.58342 0.61363 0.53461 0.0
C568 C 0.64427 0.56875 0.33486 0.0
C569 C 0.66433 0.54839 0.40628 0.0
C570 C 0.60987 0.58955 0.48794 0.0
C571 C 0.65539 0.5485 0.5181 0.0
C572 C 0.58016 0.61827 0.64825 0.0
C573 C 0.54106 0.65791 0.50455 0.0
N574 N 0.6291 0.56899 0.55549 0.0
N575 N 0.56342 0.63332 0.46672 0.0
loop_
_geom_bond_atom_site_label_1
_geom_bond_atom_site_label_2
_geom_bond_distance
_geom_bond_site_symmetry_2
_ccdc_geom_bond_type
Mn0 O5 2.095 . S
Mn0 O15 2.162 . S
Mn0 O16 2.297 . S
Mn0 O24 2.385 . S
Mn0 O25 2.209 . S
Mn0 O26 2.094 . S
Mn1 O6 2.121 . S
Mn1 N8 2.257 . S
Mn1 N17 2.282 . S
Mn1 O25 2.215 . S
Mn1 O27 2.117 . S
C2 O24 1.234 . S
C2 O25 1.283 . S
C3 O15 1.281 . S
C3 O16 1.236 . S
C4 O26 1.240 . S
C4 O27 1.264 . S
O5 Mn0 2.095 . S
O5 C14 1.250 . S
O6 Mn1 2.121 . S
O6 C14 1.258 . S
C7 N8 1.326 1_556 S
C7 C11 1.460 . S
C7 H13 0.929 . S
N8 Mn1 2.257 . S
N8 C7 1.326 1_554 S
N8 C12 1.362 . S
C9 C10 1.258 . S
C9 C12 1.431 1_556 S
C9 C29 1.449 . S
C10 C9 1.258 . S
C10 C11 1.477 . S
C10 H30 0.931 . S
C11 C7 1.460 . S
C11 C10 1.477 . S
C11 H31 0.930 . S
C12 N8 1.362 . S
C12 C9 1.431 1_554 S
C12 C22 1.476 . S
H13 C7 0.929 . S
C14 O5 1.250 . S
C14 O6 1.258 . S
O15 Mn0 2.162 . S
O15 C3 1.281 . S
O16 Mn0 2.297 . S
O16 C3 1.236 . S
N17 Mn1 2.282 . S
N17 C18 1.328 . S
N17 C22 1.318 . S
C18 N17 1.328 . S
C18 C19 1.457 . S
C18 H23 0.929 . S
C19 C18 1.457 . S
C19 C20 1.291 . S
C19 H32 0.931 . S
C20 C19 1.291 . S
C20 C21 1.373 . S
C20 H33 0.929 . S
C21 C20 1.373 . S
C21 C22 1.396 . S
C21 C28 1.403 1_554 S
C22 C12 1.476 . S
C22 N17 1.318 . S
C22 C21 1.396 . S
H23 C18 0.929 . S
O24 Mn0 2.385 . S
O24 C2 1.234 . S
O25 Mn0 2.209 . S
O25 Mn1 2.215 . S
O25 C2 1.283 . S
O26 Mn0 2.094 . S
O26 C4 1.240 . S
O27 Mn1 2.117 . S
O27 C4 1.264 . S
C28 C21 1.403 1_556 S
C28 C29 1.399 . S
C28 H34 0.929 . S
C29 C9 1.449 . S
C29 C28 1.399 . S
C29 H35 0.930 . S
H30 C10 0.931 . S
H31 C11 0.930 . S
H32 C19 0.931 . S
H33 C20 0.929 . S
H34 C28 0.929 . S
H35 C29 0.930 . S
Mn36 O41 2.095 . S
Mn36 O51 2.162 . S
Mn36 O52 2.297 . S
Mn36 O60 2.385 . S
Mn36 O61 2.209 . S
Mn36 O62 2.094 . S
Mn37 O42 2.121 . S
Mn37 N44 2.257 . S
Mn37 N53 2.282 . S
Mn37 O61 2.215 . S
Mn37 O63 2.117 . S
C38 O60 1.234 . S
C38 O61 1.283 . S
C39 O51 1.281 . S
C39 O52 1.236 . S
C40 O62 1.240 . S
C40 O63 1.264 . S
O41 Mn36 2.095 . S
O41 C50 1.250 . S
O42 Mn37 2.121 . S
O42 C50 1.258 . S
C43 N44 1.326 1_554 S
C43 C47 1.460 . S
C43 H49 0.929 . S
N44 Mn37 2.257 . S
N44 C43 1.326 1_556 S
N44 C48 1.362 . S
C45 C46 1.258 . S
C45 C48 1.431 1_554 S
C45 C65 1.449 . S
C46 C45 1.258 . S
C46 C47 1.477 . S
C46 H66 0.931 . S
C47 C43 1.460 . S
C47 C46 1.477 . S
C47 H67 0.930 . S
C48 N44 1.362 . S
C48 C45 1.431 1_556 S
C48 C58 1.476 . S
H49 C43 0.929 . S
C50 O41 1.250 . S
C50 O42 1.258 . S
O51 Mn36 2.162 . S
O51 C39 1.281 . S
O52 Mn36 2.297 . S
O52 C39 1.236 . S
N53 Mn37 2.282 . S
N53 C54 1.328 . S
N53 C58 1.318 . S
C54 N53 1.328 . S
C54 C55 1.457 . S
C54 H59 0.929 . S
C55 C54 1.457 . S
C55 C56 1.291 . S
C55 H68 0.931 . S
C56 C55 1.291 . S
C56 C57 1.373 . S
C56 H69 0.929 . S
C57 C56 1.373 . S
C57 C58 1.396 . S
C57 C64 1.403 1_556 S
C58 C48 1.476 . S
C58 N53 1.318 . S
C58 C57 1.396 . S
H59 C54 0.929 . S
O60 Mn36 2.385 . S
O60 C38 1.234 . S
O61 Mn36 2.209 . S
O61 Mn37 2.215 . S
O61 C38 1.283 . S
O62 Mn36 2.094 . S
O62 C40 1.240 . S
O63 Mn37 2.117 . S
O63 C40 1.264 . S
C64 C57 1.403 1_554 S
C64 C65 1.399 . S
C64 H70 0.929 . S
C65 C45 1.449 . S
C65 C64 1.399 . S
C65 H71 0.930 . S
H66 C46 0.931 . S
H67 C47 0.930 . S
H68 C55 0.931 . S
H69 C56 0.929 . S
H70 C64 0.929 . S
H71 C65 0.930 . S
Mn72 O77 2.095 . S
Mn72 O87 2.162 1_556 S
Mn72 O88 2.297 . S
Mn72 O96 2.385 1_565 S
Mn72 O97 2.209 . S
Mn72 O98 2.094 1_565 S
Mn73 O78 2.121 1_545 S
Mn73 N80 2.257 . S
Mn73 N89 2.282 . S
Mn73 O97 2.215 1_545 S
Mn73 O99 2.117 . S
C74 O96 1.234 . S
C74 O97 1.283 1_545 S
C75 O87 1.281 . S
C75 O88 1.236 1_554 S
C76 O98 1.240 . S
C76 O99 1.264 . S
O77 Mn72 2.095 . S
O77 C86 1.250 . S
O78 Mn73 2.121 1_565 S
O78 C86 1.258 . S
C79 N80 1.326 1_565 S
C79 C83 1.460 1_565 S
C79 H85 0.929 . S
N80 Mn73 2.257 . S
N80 C79 1.326 1_545 S
N80 C84 1.362 . S
C81 C82 1.258 . S
C81 C84 1.431 . S
C81 C101 1.449 . S
C82 C81 1.258 . S
C82 C83 1.477 . S
C82 H102 0.931 . S
C83 C79 1.460 1_545 S
C83 C82 1.477 . S
C83 H103 0.930 1_545 S
C84 N80 1.362 . S
C84 C81 1.431 . S
C84 C94 1.476 . S
H85 C79 0.929 . S
C86 O77 1.250 . S
C86 O78 1.258 . S
O87 Mn72 2.162 1_554 S
O87 C75 1.281 . S
O88 Mn72 2.297 . S
O88 C75 1.236 1_556 S
N89 Mn73 2.282 . S
N89 C90 1.328 . S
N89 C94 1.318 . S
C90 N89 1.328 . S
C90 C91 1.457 . S
C90 H95 0.929 . S
C91 C90 1.457 . S
C91 C92 1.291 . S
C91 H104 0.931 . S
C92 C91 1.291 . S
C92 C93 1.373 . S
C92 H105 0.929 . S
C93 C92 1.373 . S
C93 C94 1.396 . S
C93 C100 1.403 . S
C94 C84 1.476 . S
C94 N89 1.318 . S
C94 C93 1.396 . S
H95 C90 0.929 . S
O96 Mn72 2.385 1_545 S
O96 C74 1.234 . S
O97 Mn72 2.209 . S
O97 Mn73 2.215 1_565 S
O97 C74 1.283 1_565 S
O98 Mn72 2.094 1_545 S
O98 C76 1.240 . S
O99 Mn73 2.117 . S
O99 C76 1.264 . S
C100 C93 1.403 . S
C100 C101 1.399 . S
C100 H106 0.929 . S
C101 C81 1.449 . S
C101 C100 1.399 . S
C101 H107 0.930 . S
H102 C82 0.931 . S
H103 C83 0.930 1_565 S
H104 C91 0.931 . S
H105 C92 0.929 . S
H106 C100 0.929 . S
H107 C101 0.930 . S
Mn108 O113 2.095 . S
Mn108 O123 2.162 1_554 S
Mn108 O124 2.297 . S
Mn108 O132 2.385 1_455 S
Mn108 O133 2.209 . S
Mn108 O134 2.094 1_455 S
Mn109 O114 2.121 1_655 S
Mn109 N116 2.257 . S
Mn109 N125 2.282 . S
Mn109 O133 2.215 1_655 S
Mn109 O135 2.117 . S
C110 O132 1.234 . S
C110 O133 1.283 1_655 S
C111 O123 1.281 . S
C111 O124 1.236 1_556 S
C112 O134 1.240 . S
C112 O135 1.264 . S
O113 Mn108 2.095 . S
O113 C122 1.250 . S
O114 Mn109 2.121 1_455 S
O114 C122 1.258 . S
C115 N116 1.326 1_455 S
C115 C119 1.460 1_455 S
C115 H121 0.929 . S
N116 Mn109 2.257 . S
N116 C115 1.326 1_655 S
N116 C120 1.362 . S
C117 C118 1.258 . S
C117 C120 1.431 . S
C117 C137 1.449 . S
C118 C117 1.258 . S
C118 C119 1.477 . S
C118 H138 0.931 . S
C119 C115 1.460 1_655 S
C119 C118 1.477 . S
C119 H139 0.930 1_655 S
C120 N116 1.362 . S
C120 C117 1.431 . S
C120 C130 1.476 . S
H121 C115 0.929 . S
C122 O113 1.250 . S
C122 O114 1.258 . S
O123 Mn108 2.162 1_556 S
O123 C111 1.281 . S
O124 Mn108 2.297 . S
O124 C111 1.236 1_554 S
N125 Mn109 2.282 . S
N125 C126 1.328 . S
N125 C130 1.318 . S
C126 N125 1.328 . S
C126 C127 1.457 . S
C126 H131 0.929 . S
C127 C126 1.457 . S
C127 C128 1.291 . S
C127 H140 0.931 . S
C128 C127 1.291 . S
C128 C129 1.373 . S
C128 H141 0.929 . S
C129 C128 1.373 . S
C129 C130 1.396 . S
C129 C136 1.403 . S
C130 C120 1.476 . S
C130 N125 1.318 . S
C130 C129 1.396 . S
H131 C126 0.929 . S
O132 Mn108 2.385 1_655 S
O132 C110 1.234 . S
O133 Mn108 2.209 . S
O133 Mn109 2.215 1_455 S
O133 C110 1.283 1_455 S
O134 Mn108 2.094 1_655 S
O134 C112 1.240 . S
O135 Mn109 2.117 . S
O135 C112 1.264 . S
C136 C129 1.403 . S
C136 C137 1.399 . S
C136 H142 0.929 . S
C137 C117 1.449 . S
C137 C136 1.399 . S
C137 H143 0.930 . S
H138 C118 0.931 . S
H139 C119 0.930 1_455 S
H140 C127 0.931 . S
H141 C128 0.929 . S
H142 C136 0.929 . S
H143 C137 0.930 . S
Mn144 O149 2.095 . S
Mn144 O159 2.162 1_556 S
Mn144 O160 2.297 . S
Mn144 O168 2.385 1_545 S
Mn144 O169 2.209 . S
Mn144 O170 2.094 1_545 S
Mn145 O150 2.121 1_565 S
Mn145 N152 2.257 . S
Mn145 N161 2.282 . S
Mn145 O169 2.215 1_565 S
Mn145 O171 2.117 . S
C146 O168 1.234 . S
C146 O169 1.283 1_565 S
C147 O159 1.281 . S
C147 O160 1.236 1_554 S
C148 O170 1.240 . S
C148 O171 1.264 . S
O149 Mn144 2.095 . S
O149 C158 1.250 . S
O150 Mn145 2.121 1_545 S
O150 C158 1.258 . S
C151 N152 1.326 1_545 S
C151 C155 1.460 1_545 S
C151 H157 0.929 . S
N152 Mn145 2.257 . S
N152 C151 1.326 1_565 S
N152 C156 1.362 . S
C153 C154 1.258 . S
C153 C156 1.431 . S
C153 C173 1.449 . S
C154 C153 1.258 . S
C154 C155 1.477 . S
C154 H174 0.931 . S
C155 C151 1.460 1_565 S
C155 C154 1.477 . S
C155 H175 0.930 1_565 S
C156 N152 1.362 . S
C156 C153 1.431 . S
C156 C166 1.476 . S
H157 C151 0.929 . S
C158 O149 1.250 . S
C158 O150 1.258 . S
O159 Mn144 2.162 1_554 S
O159 C147 1.281 . S
O160 Mn144 2.297 . S
O160 C147 1.236 1_556 S
N161 Mn145 2.282 . S
N161 C162 1.328 . S
N161 C166 1.318 . S
C162 N161 1.328 . S
C162 C163 1.457 . S
C162 H167 0.929 . S
C163 C162 1.457 . S
C163 C164 1.291 . S
C163 H176 0.931 . S
C164 C163 1.291 . S
C164 C165 1.373 . S
C164 H177 0.929 . S
C165 C164 1.373 . S
C165 C166 1.396 . S
C165 C172 1.403 . S
C166 C156 1.476 . S
C166 N161 1.318 . S
C166 C165 1.396 . S
H167 C162 0.929 . S
O168 Mn144 2.385 1_565 S
O168 C146 1.234 . S
O169 Mn144 2.209 . S
O169 Mn145 2.215 1_545 S
O169 C146 1.283 1_545 S
O170 Mn144 2.094 1_565 S
O170 C148 1.240 . S
O171 Mn145 2.117 . S
O171 C148 1.264 . S
C172 C165 1.403 . S
C172 C173 1.399 . S
C172 H178 0.929 . S
C173 C153 1.449 . S
C173 C172 1.399 . S
C173 H179 0.930 . S
H174 C154 0.931 . S
H175 C155 0.930 1_545 S
H176 C163 0.931 . S
H177 C164 0.929 . S
H178 C172 0.929 . S
H179 C173 0.930 . S
Mn180 O185 2.095 . S
Mn180 O195 2.162 1_554 S
Mn180 O196 2.297 . S
Mn180 O204 2.385 1_655 S
Mn180 O205 2.209 . S
Mn180 O206 2.094 1_655 S
Mn181 O186 2.121 1_455 S
Mn181 N188 2.257 . S
Mn181 N197 2.282 . S
Mn181 O205 2.215 1_455 S
Mn181 O207 2.117 . S
C182 O204 1.234 . S
C182 O205 1.283 1_455 S
C183 O195 1.281 . S
C183 O196 1.236 1_556 S
C184 O206 1.240 . S
C184 O207 1.264 . S
O185 Mn180 2.095 . S
O185 C194 1.250 . S
O186 Mn181 2.121 1_655 S
O186 C194 1.258 . S
C187 N188 1.326 1_655 S
C187 C191 1.460 1_655 S
C187 H193 0.929 . S
N188 Mn181 2.257 . S
N188 C187 1.326 1_455 S
N188 C192 1.362 . S
C189 C190 1.258 . S
C189 C192 1.431 . S
C189 C209 1.449 . S
C190 C189 1.258 . S
C190 C191 1.477 . S
C190 H210 0.931 . S
C191 C187 1.460 1_455 S
C191 C190 1.477 . S
C191 H211 0.930 1_455 S
C192 N188 1.362 . S
C192 C189 1.431 . S
C192 C202 1.476 . S
H193 C187 0.929 . S
C194 O185 1.250 . S
C194 O186 1.258 . S
O195 Mn180 2.162 1_556 S
O195 C183 1.281 . S
O196 Mn180 2.297 . S
O196 C183 1.236 1_554 S
N197 Mn181 2.282 . S
N197 C198 1.328 . S
N197 C202 1.318 . S
C198 N197 1.328 . S
C198 C199 1.457 . S
C198 H203 0.929 . S
C199 C198 1.457 . S
C199 C200 1.291 . S
C199 H212 0.931 . S
C200 C199 1.291 . S
C200 C201 1.373 . S
C200 H213 0.929 . S
C201 C200 1.373 . S
C201 C202 1.396 . S
C201 C208 1.403 . S
C202 C192 1.476 . S
C202 N197 1.318 . S
C202 C201 1.396 . S
H203 C198 0.929 . S
O204 Mn180 2.385 1_455 S
O204 C182 1.234 . S
O205 Mn180 2.209 . S
O205 Mn181 2.215 1_655 S
O205 C182 1.283 1_655 S
O206 Mn180 2.094 1_455 S
O206 C184 1.240 . S
O207 Mn181 2.117 . S
O207 C184 1.264 . S
C208 C201 1.403 . S
C208 C209 1.399 . S
C208 H214 0.929 . S
C209 C189 1.449 . S
C209 C208 1.399 . S
C209 H215 0.930 . S
H210 C190 0.931 . S
H211 C191 0.930 1_655 S
H212 C199 0.931 . S
H213 C200 0.929 . S
H214 C208 0.929 . S
H215 C209 0.930 . S
Mn216 O221 2.095 . S
Mn216 O231 2.162 . S
Mn216 O232 2.297 . S
Mn216 O240 2.385 . S
Mn216 O241 2.209 . S
Mn216 O242 2.094 . S
Mn217 O222 2.121 . S
Mn217 N224 2.257 . S
Mn217 N233 2.282 . S
Mn217 O241 2.215 . S
Mn217 O243 2.117 . S
C218 O240 1.234 . S
C218 O241 1.283 . S
C219 O231 1.281 . S
C219 O232 1.236 . S
C220 O242 1.240 . S
C220 O243 1.264 . S
O221 Mn216 2.095 . S
O221 C230 1.250 . S
O222 Mn217 2.121 . S
O222 C230 1.258 . S
C223 N224 1.326 1_556 S
C223 C227 1.460 . S
C223 H229 0.929 . S
N224 Mn217 2.257 . S
N224 C223 1.326 1_554 S
N224 C228 1.362 . S
C225 C226 1.258 . S
C225 C228 1.431 1_556 S
C225 C245 1.449 . S
C226 C225 1.258 . S
C226 C227 1.477 . S
C226 H246 0.931 . S
C227 C223 1.460 . S
C227 C226 1.477 . S
C227 H247 0.930 . S
C228 N224 1.362 . S
C228 C225 1.431 1_554 S
C228 C238 1.476 . S
H229 C223 0.929 . S
C230 O221 1.250 . S
C230 O222 1.258 . S
O231 Mn216 2.162 . S
O231 C219 1.281 . S
O232 Mn216 2.297 . S
O232 C219 1.236 . S
N233 Mn217 2.282 . S
N233 C234 1.328 . S
N233 C238 1.318 . S
C234 N233 1.328 . S
C234 C235 1.457 . S
C234 H239 0.929 . S
C235 C234 1.457 . S
C235 C236 1.291 . S
C235 H248 0.931 . S
C236 C235 1.291 . S
C236 C237 1.373 . S
C236 H249 0.929 . S
C237 C236 1.373 . S
C237 C238 1.396 . S
C237 C244 1.403 1_554 S
C238 C228 1.476 . S
C238 N233 1.318 . S
C238 C237 1.396 . S
H239 C234 0.929 . S
O240 Mn216 2.385 . S
O240 C218 1.234 . S
O241 Mn216 2.209 . S
O241 Mn217 2.215 . S
O241 C218 1.283 . S
O242 Mn216 2.094 . S
O242 C220 1.240 . S
O243 Mn217 2.117 . S
O243 C220 1.264 . S
C244 C237 1.403 1_556 S
C244 C245 1.399 . S
C244 H250 0.929 . S
C245 C225 1.449 . S
C245 C244 1.399 . S
C245 H251 0.930 . S
H246 C226 0.931 . S
H247 C227 0.930 . S
H248 C235 0.931 . S
H249 C236 0.929 . S
H250 C244 0.929 . S
H251 C245 0.930 . S
Mn252 O257 2.095 . S
Mn252 O267 2.162 . S
Mn252 O268 2.297 . S
Mn252 O276 2.385 . S
Mn252 O277 2.209 . S
Mn252 O278 2.094 . S
Mn253 O258 2.121 . S
Mn253 N260 2.257 . S
Mn253 N269 2.282 . S
Mn253 O277 2.215 . S
Mn253 O279 2.117 . S
C254 O276 1.234 . S
C254 O277 1.283 . S
C255 O267 1.281 . S
C255 O268 1.236 . S
C256 O278 1.240 . S
C256 O279 1.264 . S
O257 Mn252 2.095 . S
O257 C266 1.250 . S
O258 Mn253 2.121 . S
O258 C266 1.258 . S
C259 N260 1.326 1_554 S
C259 C263 1.460 . S
C259 H265 0.929 . S
N260 Mn253 2.257 . S
N260 C259 1.326 1_556 S
N260 C264 1.362 . S
C261 C262 1.258 . S
C261 C264 1.431 1_554 S
C261 C281 1.449 . S
C262 C261 1.258 . S
C262 C263 1.477 . S
C262 H282 0.931 . S
C263 C259 1.460 . S
C263 C262 1.477 . S
C263 H283 0.930 . S
C264 N260 1.362 . S
C264 C261 1.431 1_556 S
C264 C274 1.476 . S
H265 C259 0.929 . S
C266 O257 1.250 . S
C266 O258 1.258 . S
O267 Mn252 2.162 . S
O267 C255 1.281 . S
O268 Mn252 2.297 . S
O268 C255 1.236 . S
N269 Mn253 2.282 . S
N269 C270 1.328 . S
N269 C274 1.318 . S
C270 N269 1.328 . S
C270 C271 1.457 . S
C270 H275 0.929 . S
C271 C270 1.457 . S
C271 C272 1.291 . S
C271 H284 0.931 . S
C272 C271 1.291 . S
C272 C273 1.373 . S
C272 H285 0.929 . S
C273 C272 1.373 . S
C273 C274 1.396 . S
C273 C280 1.403 1_556 S
C274 C264 1.476 . S
C274 N269 1.318 . S
C274 C273 1.396 . S
H275 C270 0.929 . S
O276 Mn252 2.385 . S
O276 C254 1.234 . S
O277 Mn252 2.209 . S
O277 Mn253 2.215 . S
O277 C254 1.283 . S
O278 Mn252 2.094 . S
O278 C256 1.240 . S
O279 Mn253 2.117 . S
O279 C256 1.264 . S
C280 C273 1.403 1_554 S
C280 C281 1.399 . S
C280 H286 0.929 . S
C281 C261 1.449 . S
C281 C280 1.399 . S
C281 H287 0.930 . S
H282 C262 0.931 . S
H283 C263 0.930 . S
H284 C271 0.931 . S
H285 C272 0.929 . S
H286 C280 0.929 . S
H287 C281 0.930 . S
H288 C294 0.930 . S
H289 C298 0.930 . S
H290 C303 0.929 . S
H291 C301 0.929 . S
H292 C296 0.929 1_556 S
H293 C302 0.929 1_554 S
C294 H288 0.930 . S
C294 C295 1.367 . S
C294 C302 1.378 . S
C295 C294 1.367 . S
C295 C303 1.433 . S
C296 H292 0.929 1_554 S
C296 C298 1.378 . S
C296 C300 1.350 . S
C297 C300 1.463 1_556 S
C297 C302 1.350 . S
C297 N305 1.427 . S
C298 H289 0.930 . S
C298 C296 1.378 . S
C298 C299 1.367 . S
C299 C298 1.367 . S
C299 C301 1.433 . S
C300 C296 1.350 . S
C300 C297 1.463 1_554 S
C300 N304 1.427 . S
C301 H291 0.929 . S
C301 C299 1.433 . S
C301 N304 1.384 . S
C302 H293 0.929 1_556 S
C302 C294 1.378 . S
C302 C297 1.350 . S
C303 H290 0.929 . S
C303 C295 1.433 . S
C303 N305 1.384 . S
N304 C300 1.427 . S
N304 C301 1.384 . S
N305 C297 1.427 . S
N305 C303 1.384 . S
H306 C312 0.930 . S
H307 C316 0.930 . S
H308 C321 0.929 . S
H309 C319 0.929 . S
H310 C314 0.929 . S
H311 C320 0.929 . S
C312 H306 0.930 . S
C312 C313 1.367 . S
C312 C320 1.378 . S
C313 C312 1.367 . S
C313 C321 1.433 . S
C314 H310 0.929 . S
C314 C316 1.378 . S
C314 C318 1.350 . S
C315 C318 1.463 . S
C315 C320 1.350 . S
C315 N323 1.427 . S
C316 H307 0.930 . S
C316 C314 1.378 . S
C316 C317 1.367 . S
C317 C316 1.367 . S
C317 C319 1.433 . S
C318 C314 1.350 . S
C318 C315 1.463 . S
C318 N322 1.427 . S
C319 H309 0.929 . S
C319 C317 1.433 . S
C319 N322 1.384 . S
C320 H311 0.929 . S
C320 C312 1.378 . S
C320 C315 1.350 . S
C321 H308 0.929 . S
C321 C313 1.433 . S
C321 N323 1.384 . S
N322 C318 1.427 . S
N322 C319 1.384 . S
N323 C315 1.427 . S
N323 C321 1.384 . S
H324 C330 0.930 . S
H325 C334 0.930 . S
H326 C339 0.929 . S
H327 C337 0.929 . S
H328 C332 0.929 . S
H329 C338 0.929 . S
C330 H324 0.930 . S
C330 C331 1.367 . S
C330 C338 1.378 . S
C331 C330 1.367 . S
C331 C339 1.433 . S
C332 H328 0.929 . S
C332 C334 1.378 . S
C332 C336 1.350 . S
C333 C336 1.463 . S
C333 C338 1.350 . S
C333 N341 1.427 . S
C334 H325 0.930 . S
C334 C332 1.378 . S
C334 C335 1.367 . S
C335 C334 1.367 . S
C335 C337 1.433 . S
C336 C332 1.350 . S
C336 C333 1.463 . S
C336 N340 1.427 . S
C337 H327 0.929 . S
C337 C335 1.433 . S
C337 N340 1.384 . S
C338 H329 0.929 . S
C338 C330 1.378 . S
C338 C333 1.350 . S
C339 H326 0.929 . S
C339 C331 1.433 . S
C339 N341 1.384 . S
N340 C336 1.427 . S
N340 C337 1.384 . S
N341 C333 1.427 . S
N341 C339 1.384 . S
H342 C348 0.930 . S
H343 C352 0.930 . S
H344 C357 0.929 . S
H345 C355 0.929 . S
H346 C350 0.929 . S
H347 C356 0.929 . S
C348 H342 0.930 . S
C348 C349 1.367 . S
C348 C356 1.378 . S
C349 C348 1.367 . S
C349 C357 1.433 . S
C350 H346 0.929 . S
C350 C352 1.378 . S
C350 C354 1.350 . S
C351 C354 1.463 . S
C351 C356 1.350 . S
C351 N359 1.427 . S
C352 H343 0.930 . S
C352 C350 1.378 . S
C352 C353 1.367 . S
C353 C352 1.367 . S
C353 C355 1.433 . S
C354 C350 1.350 . S
C354 C351 1.463 . S
C354 N358 1.427 . S
C355 H345 0.929 . S
C355 C353 1.433 . S
C355 N358 1.384 . S
C356 H347 0.929 . S
C356 C348 1.378 . S
C356 C351 1.350 . S
C357 H344 0.929 . S
C357 C349 1.433 . S
C357 N359 1.384 . S
N358 C354 1.427 . S
N358 C355 1.384 . S
N359 C351 1.427 . S
N359 C357 1.384 . S
H360 C366 0.930 . S
H361 C370 0.930 . S
H362 C375 0.929 . S
H363 C373 0.929 . S
H364 C368 0.929 . S
H365 C374 0.929 . S
C366 H360 0.930 . S
C366 C367 1.367 . S
C366 C374 1.378 . S
C367 C366 1.367 . S
C367 C375 1.433 . S
C368 H364 0.929 . S
C368 C370 1.378 . S
C368 C372 1.350 . S
C369 C372 1.463 . S
C369 C374 1.350 . S
C369 N377 1.427 . S
C370 H361 0.930 . S
C370 C368 1.378 . S
C370 C371 1.367 . S
C371 C370 1.367 . S
C371 C373 1.433 . S
C372 C368 1.350 . S
C372 C369 1.463 . S
C372 N376 1.427 . S
C373 H363 0.929 . S
C373 C371 1.433 . S
C373 N376 1.384 . S
C374 H365 0.929 . S
C374 C366 1.378 . S
C374 C369 1.350 . S
C375 H362 0.929 . S
C375 C367 1.433 . S
C375 N377 1.384 . S
N376 C372 1.427 . S
N376 C373 1.384 . S
N377 C369 1.427 . S
N377 C375 1.384 . S
H378 C384 0.930 . S
H379 C388 0.930 . S
H380 C393 0.929 . S
H381 C391 0.929 . S
H382 C386 0.929 . S
H383 C392 0.929 . S
C384 H378 0.930 . S
C384 C385 1.367 . S
C384 C392 1.378 . S
C385 C384 1.367 . S
C385 C393 1.433 . S
C386 H382 0.929 . S
C386 C388 1.378 . S
C386 C390 1.350 . S
C387 C390 1.463 . S
C387 C392 1.350 . S
C387 N395 1.427 . S
C388 H379 0.930 . S
C388 C386 1.378 . S
C388 C389 1.367 . S
C389 C388 1.367 . S
C389 C391 1.433 . S
C390 C386 1.350 . S
C390 C387 1.463 . S
C390 N394 1.427 . S
C391 H381 0.929 . S
C391 C389 1.433 . S
C391 N394 1.384 . S
C392 H383 0.929 . S
C392 C384 1.378 . S
C392 C387 1.350 . S
C393 H380 0.929 . S
C393 C385 1.433 . S
C393 N395 1.384 . S
N394 C390 1.427 . S
N394 C391 1.384 . S
N395 C387 1.427 . S
N395 C393 1.384 . S
H396 C402 0.930 . S
H397 C406 0.930 . S
H398 C411 0.929 . S
H399 C409 0.929 . S
H400 C404 0.929 . S
H401 C410 0.929 . S
C402 H396 0.930 . S
C402 C403 1.367 . S
C402 C410 1.378 . S
C403 C402 1.367 . S
C403 C411 1.433 . S
C404 H400 0.929 . S
C404 C406 1.378 . S
C404 C408 1.350 . S
C405 C408 1.463 1_554 S
C405 C410 1.350 . S
C405 N413 1.427 . S
C406 H397 0.930 . S
C406 C404 1.378 . S
C406 C407 1.367 . S
C407 C406 1.367 . S
C407 C409 1.433 . S
C408 C404 1.350 . S
C408 C405 1.463 1_556 S
C408 N412 1.427 . S
C409 H399 0.929 . S
C409 C407 1.433 . S
C409 N412 1.384 . S
C410 H401 0.929 . S
C410 C402 1.378 . S
C410 C405 1.350 . S
C411 H398 0.929 . S
C411 C403 1.433 . S
C411 N413 1.384 . S
N412 C408 1.427 . S
N412 C409 1.384 . S
N413 C405 1.427 . S
N413 C411 1.384 . S
H414 C420 0.930 1_556 S
H415 C424 0.930 . S
H416 C429 0.929 . S
H417 C427 0.929 . S
H418 C422 0.929 . S
H419 C428 0.929 . S
C420 H414 0.930 1_554 S
C420 C421 1.367 . S
C420 C428 1.378 . S
C421 C420 1.367 . S
C421 C429 1.433 . S
C422 H418 0.929 . S
C422 C424 1.378 . S
C422 C426 1.350 . S
C423 C426 1.463 . S
C423 C428 1.350 . S
C423 N431 1.427 . S
C424 H415 0.930 . S
C424 C422 1.378 . S
C424 C425 1.367 . S
C425 C424 1.367 . S
C425 C427 1.433 . S
C426 C422 1.350 . S
C426 C423 1.463 . S
C426 N430 1.427 . S
C427 H417 0.929 . S
C427 C425 1.433 . S
C427 N430 1.384 . S
C428 H419 0.929 . S
C428 C420 1.378 . S
C428 C423 1.350 . S
C429 H416 0.929 . S
C429 C421 1.433 . S
C429 N431 1.384 . S
N430 C426 1.427 . S
N430 C427 1.384 . S
N431 C423 1.427 . S
N431 C429 1.384 . S
H432 C438 0.930 . S
H433 C442 0.930 . S
H434 C447 0.929 . S
H435 C445 0.929 . S
H436 C440 0.929 . S
H437 C446 0.929 . S
C438 H432 0.930 . S
C438 C439 1.367 . S
C438 C446 1.378 . S
C439 C438 1.367 . S
C439 C447 1.433 . S
C440 H436 0.929 . S
C440 C442 1.378 . S
C440 C444 1.350 . S
C441 C444 1.463 . S
C441 C446 1.350 . S
C441 N449 1.427 . S
C442 H433 0.930 . S
C442 C440 1.378 . S
C442 C443 1.367 . S
C443 C442 1.367 . S
C443 C445 1.433 . S
C444 C440 1.350 . S
C444 C441 1.463 . S
C444 N448 1.427 . S
C445 H435 0.929 . S
C445 C443 1.433 . S
C445 N448 1.384 . S
C446 H437 0.929 . S
C446 C438 1.378 . S
C446 C441 1.350 . S
C447 H434 0.929 . S
C447 C439 1.433 . S
C447 N449 1.384 . S
N448 C444 1.427 . S
N448 C445 1.384 . S
N449 C441 1.427 . S
N449 C447 1.384 . S
H450 C456 0.930 . S
H451 C460 0.930 . S
H452 C465 0.929 . S
H453 C463 0.929 . S
H454 C458 0.929 . S
H455 C464 0.929 . S
C456 H450 0.930 . S
C456 C457 1.367 . S
C456 C464 1.378 . S
C457 C456 1.367 . S
C457 C465 1.433 . S
C458 H454 0.929 . S
C458 C460 1.378 . S
C458 C462 1.350 . S
C459 C462 1.463 . S
C459 C464 1.350 . S
C459 N467 1.427 . S
C460 H451 0.930 . S
C460 C458 1.378 . S
C460 C461 1.367 . S
C461 C460 1.367 . S
C461 C463 1.433 . S
C462 C458 1.350 . S
C462 C459 1.463 . S
C462 N466 1.427 . S
C463 H453 0.929 . S
C463 C461 1.433 . S
C463 N466 1.384 . S
C464 H455 0.929 . S
C464 C456 1.378 . S
C464 C459 1.350 . S
C465 H452 0.929 . S
C465 C457 1.433 . S
C465 N467 1.384 . S
N466 C462 1.427 . S
N466 C463 1.384 . S
N467 C459 1.427 . S
N467 C465 1.384 . S
H468 C474 0.930 . S
H469 C478 0.930 . S
H470 C483 0.929 . S
H471 C481 0.929 . S
H472 C476 0.929 . S
H473 C482 0.929 . S
C474 H468 0.930 . S
C474 C475 1.367 . S
C474 C482 1.378 . S
C475 C474 1.367 . S
C475 C483 1.433 1_554 S
C476 H472 0.929 . S
C476 C478 1.378 . S
C476 C480 1.350 . S
C477 C480 1.463 1_554 S
C477 C482 1.350 . S
C477 N485 1.427 1_554 S
C478 H469 0.930 . S
C478 C476 1.378 . S
C478 C479 1.367 . S
C479 C478 1.367 . S
C479 C481 1.433 1_556 S
C480 C476 1.350 . S
C480 C477 1.463 1_556 S
C480 N484 1.427 1_556 S
C481 H471 0.929 . S
C481 C479 1.433 1_554 S
C481 N484 1.384 . S
C482 H473 0.929 . S
C482 C474 1.378 . S
C482 C477 1.350 . S
C483 H470 0.929 . S
C483 C475 1.433 1_556 S
C483 N485 1.384 . S
N484 C480 1.427 1_554 S
N484 C481 1.384 . S
N485 C477 1.427 1_556 S
N485 C483 1.384 . S
H486 C492 0.930 . S
H487 C496 0.930 . S
H488 C501 0.929 . S
H489 C499 0.929 . S
H490 C494 0.929 . S
H491 C500 0.929 . S
C492 H486 0.930 . S
C492 C493 1.367 . S
C492 C500 1.378 . S
C493 C492 1.367 . S
C493 C501 1.433 . S
C494 H490 0.929 . S
C494 C496 1.378 . S
C494 C498 1.350 . S
C495 C498 1.463 . S
C495 C500 1.350 . S
C495 N503 1.427 . S
C496 H487 0.930 . S
C496 C494 1.378 . S
C496 C497 1.367 . S
C497 C496 1.367 . S
C497 C499 1.433 . S
C498 C494 1.350 . S
C498 C495 1.463 . S
C498 N502 1.427 . S
C499 H489 0.929 . S
C499 C497 1.433 . S
C499 N502 1.384 . S
C500 H491 0.929 . S
C500 C492 1.378 . S
C500 C495 1.350 . S
C501 H488 0.929 . S
C501 C493 1.433 . S
C501 N503 1.384 . S
N502 C498 1.427 . S
N502 C499 1.384 . S
N503 C495 1.427 . S
N503 C501 1.384 . S
H504 C510 0.930 . S
H505 C514 0.930 . S
H506 C519 0.929 . S
H507 C517 0.929 . S
H508 C512 0.929 . S
H509 C518 0.929 . S
C510 H504 0.930 . S
C510 C511 1.367 . S
C510 C518 1.378 . S
C511 C510 1.367 . S
C511 C519 1.433 . S
C512 H508 0.929 . S
C512 C514 1.378 . S
C512 C516 1.350 . S
C513 C516 1.463 . S
C513 C518 1.350 . S
C513 N521 1.427 . S
C514 H505 0.930 . S
C514 C512 1.378 . S
C514 C515 1.367 . S
C515 C514 1.367 . S
C515 C517 1.433 . S
C516 C512 1.350 . S
C516 C513 1.463 . S
C516 N520 1.427 . S
C517 H507 0.929 . S
C517 C515 1.433 . S
C517 N520 1.384 . S
C518 H509 0.929 . S
C518 C510 1.378 . S
C518 C513 1.350 . S
C519 H506 0.929 . S
C519 C511 1.433 . S
C519 N521 1.384 . S
N520 C516 1.427 . S
N520 C517 1.384 . S
N521 C513 1.427 . S
N521 C519 1.384 . S
H522 C528 0.930 . S
H523 C532 0.930 . S
H524 C537 0.929 . S
H525 C535 0.929 . S
H526 C530 0.929 . S
H527 C536 0.929 . S
C528 H522 0.930 . S
C528 C529 1.367 1_554 S
C528 C536 1.378 . S
C529 C528 1.367 1_556 S
C529 C537 1.433 . S
C530 H526 0.929 . S
C530 C532 1.378 . S
C530 C534 1.350 1_556 S
C531 C534 1.463 1_556 S
C531 C536 1.350 1_556 S
C531 N539 1.427 . S
C532 H523 0.930 . S
C532 C530 1.378 . S
C532 C533 1.367 1_556 S
C533 C532 1.367 1_554 S
C533 C535 1.433 . S
C534 C530 1.350 1_554 S
C534 C531 1.463 1_554 S
C534 N538 1.427 . S
C535 H525 0.929 . S
C535 C533 1.433 . S
C535 N538 1.384 . S
C536 H527 0.929 . S
C536 C528 1.378 . S
C536 C531 1.350 1_554 S
C537 H524 0.929 . S
C537 C529 1.433 . S
C537 N539 1.384 . S
N538 C534 1.427 . S
N538 C535 1.384 . S
N539 C531 1.427 . S
N539 C537 1.384 . S
H540 C546 0.930 . S
H541 C550 0.930 . S
H542 C555 0.929 . S
H543 C553 0.929 . S
H544 C548 0.929 . S
H545 C554 0.929 . S
C546 H540 0.930 . S
C546 C547 1.367 . S
C546 C554 1.378 . S
C547 C546 1.367 . S
C547 C555 1.433 . S
C548 H544 0.929 . S
C548 C550 1.378 . S
C548 C552 1.350 . S
C549 C552 1.463 . S
C549 C554 1.350 . S
C549 N557 1.427 . S
C550 H541 0.930 . S
C550 C548 1.378 . S
C550 C551 1.367 . S
C551 C550 1.367 . S
C551 C553 1.433 . S
C552 C548 1.350 . S
C552 C549 1.463 . S
C552 N556 1.427 . S
C553 H543 0.929 . S
C553 C551 1.433 . S
C553 N556 1.384 . S
C554 H545 0.929 . S
C554 C546 1.378 . S
C554 C549 1.350 . S
C555 H542 0.929 . S
C555 C547 1.433 . S
C555 N557 1.384 . S
N556 C552 1.427 . S
N556 C553 1.384 . S
N557 C549 1.427 . S
N557 C555 1.384 . S
H558 C564 0.930 . S
H559 C568 0.930 . S
H560 C573 0.929 . S
H561 C571 0.929 . S
H562 C566 0.929 . S
H563 C572 0.929 . S
C564 H558 0.930 . S
C564 C565 1.367 . S
C564 C572 1.378 . S
C565 C564 1.367 . S
C565 C573 1.433 . S
C566 H562 0.929 . S
C566 C568 1.378 . S
C566 C570 1.350 . S
C567 C570 1.463 . S
C567 C572 1.350 . S
C567 N575 1.427 . S
C568 H559 0.930 . S
C568 C566 1.378 . S
C568 C569 1.367 . S
C569 C568 1.367 . S
C569 C571 1.433 . S
C570 C566 1.350 . S
C570 C567 1.463 . S
C570 N574 1.427 . S
C571 H561 0.929 . S
C571 C569 1.433 . S
C571 N574 1.384 . S
C572 H563 0.929 . S
C572 C564 1.378 . S
C572 C567 1.350 . S
C573 H560 0.929 . S
C573 C565 1.433 . S
C573 N575 1.384 . S
N574 C570 1.427 . S
N574 C571 1.384 . S
N575 C567 1.427 . S
N575 C573 1.384 . S
C295 C50 1.354 . S
C299 C14 1.341 . S
C313 C39 1.435 . S
C317 C75 1.435 . S
C331 C122 1.353 . S
C335 C86 1.341 . S
C349 C111 1.435 . S
C353 C3 1.435 . S
C367 C158 1.341 . S
C371 C194 1.356 . S
C385 C183 1.434 . S
C389 C219 1.435 . S
C403 C230 1.357 . S
C407 C266 1.350 . S
C421 C147 1.436 . S
C425 C255 1.436 . S
C439 C4 1.454 . S
C443 C256 1.451 . S
C457 C146 1.426 . S
C461 C38 1.424 . S
C475 C184 1.448 . S
C479 C76 1.445 . S
C493 C110 1.433 . S
C497 C218 1.430 . S
C511 C74 1.426 . S
C515 C254 1.430 . S
C529 C148 1.453 . S
C533 C112 1.449 . S
C547 C182 1.427 . S
C551 C2 1.425 . S
C565 C40 1.446 . S
C569 C220 1.445 . S
