# Generated by pormake.
# Topology can, (4)-cn, num edge types: 1
# Building blocks:
#     Node 0, Type 0, BuildingBlock: TATPOV_clean_sbu_0, # of connection points: 4
#     Node 1, Type 0, BuildingBlock: TATPOV_clean_sbu_0, # of connection points: 4
#     Node 2, Type 0, BuildingBlock: TATPOV_clean_sbu_0, # of connection points: 4
#     Node 3, Type 0, BuildingBlock: TATPOV_clean_sbu_0, # of connection points: 4
#     Node 4, Type 0, BuildingBlock: TATPOV_clean_sbu_0, # of connection points: 4
#     Node 5, Type 0, BuildingBlock: TATPOV_clean_sbu_0, # of connection points: 4
#     Node 6, Type 0, BuildingBlock: TATPOV_clean_sbu_0, # of connection points: 4
#     Node 7, Type 0, BuildingBlock: TATPOV_clean_sbu_0, # of connection points: 4
#     Node 8, Type 0, BuildingBlock: TATPOV_clean_sbu_0, # of connection points: 4
#     Node 9, Type 0, BuildingBlock: TATPOV_clean_sbu_0, # of connection points: 4
#     Node 10, Type 0, BuildingBlock: TATPOV_clean_sbu_0, # of connection points: 4
#     Node 11, Type 0, BuildingBlock: TATPOV_clean_sbu_0, # of connection points: 4
#     Edge 12, Type (0, 0), BuildingBlock: MIFKUJ_clean_linker_0, # of connection points: 2
#     Edge 13, Type (0, 0), BuildingBlock: MIFKUJ_clean_linker_0, # of connection points: 2
#     Edge 14, Type (0, 0), BuildingBlock: MIFKUJ_clean_linker_0, # of connection points: 2
#     Edge 15, Type (0, 0), BuildingBlock: MIFKUJ_clean_linker_0, # of connection points: 2
#     Edge 16, Type (0, 0), BuildingBlock: MIFKUJ_clean_linker_0, # of connection points: 2
#     Edge 17, Type (0, 0), BuildingBlock: MIFKUJ_clean_linker_0, # of connection points: 2
#     Edge 18, Type (0, 0), BuildingBlock: MIFKUJ_clean_linker_0, # of connection points: 2
#     Edge 19, Type (0, 0), BuildingBlock: MIFKUJ_clean_linker_0, # of connection points: 2
#     Edge 20, Type (0, 0), BuildingBlock: MIFKUJ_clean_linker_0, # of connection points: 2
#     Edge 21, Type (0, 0), BuildingBlock: MIFKUJ_clean_linker_0, # of connection points: 2
#     Edge 22, Type (0, 0), BuildingBlock: MIFKUJ_clean_linker_0, # of connection points: 2
#     Edge 23, Type (0, 0), BuildingBlock: MIFKUJ_clean_linker_0, # of connection points: 2
#     Edge 24, Type (0, 0), BuildingBlock: MIFKUJ_clean_linker_0, # of connection points: 2
#     Edge 25, Type (0, 0), BuildingBlock: MIFKUJ_clean_linker_0, # of connection points: 2
#     Edge 26, Type (0, 0), BuildingBlock: MIFKUJ_clean_linker_0, # of connection points: 2
#     Edge 27, Type (0, 0), BuildingBlock: MIFKUJ_clean_linker_0, # of connection points: 2
#     Edge 28, Type (0, 0), BuildingBlock: MIFKUJ_clean_linker_0, # of connection points: 2
#     Edge 29, Type (0, 0), BuildingBlock: MIFKUJ_clean_linker_0, # of connection points: 2
#     Edge 30, Type (0, 0), BuildingBlock: MIFKUJ_clean_linker_0, # of connection points: 2
#     Edge 31, Type (0, 0), BuildingBlock: MIFKUJ_clean_linker_0, # of connection points: 2
#     Edge 32, Type (0, 0), BuildingBlock: MIFKUJ_clean_linker_0, # of connection points: 2
#     Edge 33, Type (0, 0), BuildingBlock: MIFKUJ_clean_linker_0, # of connection points: 2
#     Edge 34, Type (0, 0), BuildingBlock: MIFKUJ_clean_linker_0, # of connection points: 2
#     Edge 35, Type (0, 0), BuildingBlock: MIFKUJ_clean_linker_0, # of connection points: 2
# Relax obj value: 0.056
# Max RMSD: 0.071
# Mean RMSD: 0.071
data_MOF--net-can--node1-TATPOV_clean_sbu_0--edge1-MIFKUJ_clean_linker_0
_symmetry_space_group_name_H-M    P1
_symmetry_Int_Tables_number       1
_symmetry_cell_setting            triclinic
loop_
_symmetry_equiv_pos_as_xyz
'x, y, z'
_cell_length_a     75.10452
_cell_length_b     75.039806
_cell_length_c     34.101083
_cell_angle_alpha  89.969069
_cell_angle_beta   89.96578
_cell_angle_gamma 119.97933
loop_
_atom_site_label
_atom_site_type_symbol
_atom_site_fract_x
_atom_site_fract_y
_atom_site_fract_z
_atom_type_partial_charge
Zn0 Zn 0.03576 0.39966 0.24575 0.0
Zn1 Zn 0.07289 0.40398 0.24117 0.0
O2 O 0.0616 0.389 0.29413 0.0
O3 O 0.02951 0.38235 0.29376 0.0
O4 O 0.10063 0.40596 0.23757 0.0
O5 O 0.02768 0.38529 0.1943 0.0
O6 O 0.05777 0.38697 0.19186 0.0
C7 C 0.0438 0.38071 0.30977 0.0
C8 C 0.06804 0.44207 0.24657 0.0
O9 O 0.07957 0.4343 0.24133 0.0
O10 O 0.0488 0.43046 0.25022 0.0
C11 C 0.11481 0.41679 0.26182 0.0
O12 O 0.11131 0.42707 0.28899 0.0
C13 C 0.04 0.38093 0.17736 0.0
Zn14 Zn 0.62977 0.03683 0.74774 0.0
Zn15 Zn 0.66574 0.07099 0.74543 0.0
O16 O 0.66528 0.0597 0.80105 0.0
O17 O 0.63324 0.03433 0.80534 0.0
O18 O 0.69322 0.09753 0.74313 0.0
O19 O 0.63983 0.02344 0.70968 0.0
O20 O 0.66791 0.0534 0.7009 0.0
C21 C 0.65067 0.04549 0.82085 0.0
C22 C 0.62505 0.07089 0.72917 0.0
O23 O 0.64427 0.08038 0.73649 0.0
O24 O 0.61505 0.05143 0.72921 0.0
C25 C 0.69489 0.11489 0.75078 0.0
O26 O 0.67846 0.11571 0.76104 0.0
C27 C 0.65672 0.03443 0.69215 0.0
Zn28 Zn 0.59225 0.6288 0.22235 0.0
Zn29 Zn 0.59639 0.66551 0.22782 0.0
O30 O 0.60737 0.66255 0.28145 0.0
O31 O 0.60052 0.63041 0.27865 0.0
O32 O 0.59943 0.69381 0.22903 0.0
O33 O 0.61375 0.6378 0.18106 0.0
O34 O 0.61521 0.66781 0.18114 0.0
C35 C 0.60727 0.64712 0.29738 0.0
C36 C 0.55411 0.62715 0.21199 0.0
O37 O 0.56487 0.64609 0.22134 0.0
O38 O 0.56259 0.61635 0.20782 0.0
C39 C 0.58859 0.69814 0.25145 0.0
O40 O 0.57527 0.6839 0.27516 0.0
C41 C 0.62108 0.65578 0.16737 0.0
Zn42 Zn 0.96409 0.59309 0.75024 0.0
Zn43 Zn 0.92957 0.59338 0.73796 0.0
O44 O 0.93837 0.60652 0.79292 0.0
O45 O 0.96408 0.6012 0.80627 0.0
O46 O 0.90295 0.59312 0.72777 0.0
O47 O 0.97846 0.61493 0.70927 0.0
O48 O 0.9486 0.61179 0.69353 0.0
C49 C 0.95193 0.60743 0.81653 0.0
C50 C 0.93115 0.55316 0.73267 0.0
O51 O 0.92083 0.56242 0.73483 0.0
O52 O 0.95052 0.56323 0.73581 0.0
C53 C 0.88923 0.58724 0.75427 0.0
O54 O 0.89266 0.58141 0.78842 0.0
C55 C 0.96785 0.61968 0.68744 0.0
Zn56 Zn 0.36336 0.96496 0.21838 0.0
Zn57 Zn 0.33056 0.92941 0.23155 0.0
O58 O 0.3324 0.94554 0.28215 0.0
O59 O 0.36221 0.97372 0.27317 0.0
O60 O 0.30499 0.90167 0.23857 0.0
O61 O 0.34941 0.97207 0.17674 0.0
O62 O 0.3236 0.94025 0.18104 0.0
C63 C 0.34662 0.96295 0.29441 0.0
C64 C 0.3723 0.93251 0.21472 0.0
O65 O 0.35386 0.92227 0.22723 0.0
O66 O 0.37985 0.95126 0.20553 0.0
C67 C 0.30184 0.88729 0.2149 0.0
O68 O 0.31551 0.89088 0.18743 0.0
C69 C 0.33219 0.95793 0.1648 0.0
Zn70 Zn 0.40192 0.36529 0.72777 0.0
Zn71 Zn 0.40397 0.33198 0.73775 0.0
O72 O 0.39218 0.33476 0.79101 0.0
O73 O 0.39425 0.36487 0.78377 0.0
O74 O 0.40485 0.30561 0.74302 0.0
O75 O 0.37935 0.35194 0.68865 0.0
O76 O 0.38435 0.32542 0.69013 0.0
C77 C 0.38998 0.34935 0.8048 0.0
C78 C 0.4427 0.37306 0.71742 0.0
O79 O 0.43449 0.35444 0.72907 0.0
O80 O 0.4316 0.38111 0.71164 0.0
C81 C 0.41759 0.30376 0.76476 0.0
O82 O 0.43091 0.31964 0.7854 0.0
C83 C 0.37522 0.33446 0.67606 0.0
Zn84 Zn 0.59425 0.96284 0.273 0.0
Zn85 Zn 0.59345 0.92843 0.26084 0.0
O86 O 0.60723 0.94443 0.2097 0.0
O87 O 0.60279 0.9711 0.21734 0.0
O88 O 0.59183 0.9008 0.25558 0.0
O89 O 0.6157 0.97158 0.31437 0.0
O90 O 0.61134 0.94038 0.31094 0.0
C91 C 0.60864 0.96102 0.19656 0.0
C92 C 0.55378 0.92982 0.27811 0.0
O93 O 0.56263 0.92023 0.26532 0.0
O94 O 0.56439 0.9486 0.28733 0.0
C95 C 0.60452 0.89765 0.23636 0.0
O96 O 0.61967 0.91302 0.21749 0.0
C97 C 0.61967 0.9581 0.32698 0.0
Zn98 Zn 0.63491 0.59995 0.75665 0.0
Zn99 Zn 0.6671 0.59505 0.74398 0.0
O100 O 0.66617 0.60963 0.69293 0.0
O101 O 0.6391 0.61305 0.70405 0.0
O102 O 0.692 0.59155 0.73898 0.0
O103 O 0.64857 0.61867 0.80171 0.0
O104 O 0.67469 0.61335 0.79379 0.0
C105 C 0.6539 0.61584 0.6822 0.0
C106 C 0.624 0.55752 0.75768 0.0
O107 O 0.64299 0.56509 0.74926 0.0
O108 O 0.61678 0.56935 0.76357 0.0
C109 C 0.70137 0.59214 0.70751 0.0
O110 O 0.69464 0.59497 0.67385 0.0
C111 C 0.66608 0.62187 0.81199 0.0
Zn112 Zn 0.03476 0.63163 0.25696 0.0
Zn113 Zn 0.06987 0.66514 0.24598 0.0
O114 O 0.05364 0.66356 0.19545 0.0
O115 O 0.02583 0.63327 0.20279 0.0
O116 O 0.09683 0.6917 0.24047 0.0
O117 O 0.02703 0.6439 0.30106 0.0
O118 O 0.05838 0.67043 0.29725 0.0
C119 C 0.03645 0.64927 0.18247 0.0
C120 C 0.06819 0.62393 0.26087 0.0
O121 O 0.07841 0.64277 0.25043 0.0
O122 O 0.04912 0.61569 0.26758 0.0
C123 C 0.11146 0.6939 0.21843 0.0
O124 O 0.10908 0.67828 0.19711 0.0
C125 C 0.04089 0.66102 0.31412 0.0
Zn126 Zn 0.41186 0.03819 0.75028 0.0
Zn127 Zn 0.40913 0.07162 0.7462 0.0
O128 O 0.39673 0.05768 0.69307 0.0
O129 O 0.4029 0.0319 0.69427 0.0
O130 O 0.40791 0.09795 0.74506 0.0
O131 O 0.39073 0.0266 0.79257 0.0
O132 O 0.39052 0.0558 0.79356 0.0
C133 C 0.39618 0.04216 0.67655 0.0
C134 C 0.45082 0.0734 0.75987 0.0
O135 O 0.44052 0.08223 0.75161 0.0
O136 O 0.44174 0.05406 0.76356 0.0
C137 C 0.4183 0.11207 0.7698 0.0
O138 O 0.42952 0.10911 0.7957 0.0
C139 C 0.38417 0.03775 0.80708 0.0
Zn140 Zn 0.37419 0.4109 0.26622 0.0
Zn141 Zn 0.33807 0.40761 0.25586 0.0
O142 O 0.34157 0.39506 0.2047 0.0
O143 O 0.37369 0.40221 0.21027 0.0
O144 O 0.31066 0.40626 0.25009 0.0
O145 O 0.36299 0.38932 0.3078 0.0
O146 O 0.33373 0.38931 0.3046 0.0
C147 C 0.35723 0.39493 0.1906 0.0
C148 C 0.37682 0.44953 0.273 0.0
O149 O 0.35831 0.43905 0.26105 0.0
O150 O 0.38705 0.44074 0.28059 0.0
C151 C 0.30591 0.41588 0.27484 0.0
O152 O 0.31886 0.42604 0.30325 0.0
C153 C 0.3449 0.38284 0.32015 0.0
Zn154 Zn 0.96449 0.36916 0.76316 0.0
Zn155 Zn 0.92989 0.33415 0.74954 0.0
O156 O 0.94687 0.33772 0.69932 0.0
O157 O 0.97445 0.3679 0.70958 0.0
O158 O 0.90333 0.30719 0.74162 0.0
O159 O 0.97191 0.35623 0.80628 0.0
O160 O 0.9419 0.32793 0.79908 0.0
C161 C 0.96436 0.35226 0.6881 0.0
C162 C 0.9298 0.37471 0.76622 0.0
O163 O 0.92064 0.35586 0.75589 0.0
O164 O 0.9489 0.38402 0.77319 0.0
C165 C 0.88667 0.30603 0.73012 0.0
O166 O 0.8865 0.32299 0.72138 0.0
C167 C 0.95912 0.33805 0.81657 0.0
H168 H 1.001 0.3587 0.14995 0.0
H169 H 0.98963 0.34072 0.08786 0.0
H170 H 0.05197 0.35686 0.05997 0.0
H171 H 0.06364 0.3752 0.12271 0.0
H172 H 0.03465 0.36799 0.0033 0.0
H173 H 0.01586 0.30641 0.0716 0.0
H174 H 1.00109 0.28087 0.12487 0.0
H175 H 0.94098 0.2713 0.09905 0.0
H176 H 0.95541 0.29701 0.046 0.0
H177 H 0.99248 0.33362 0.82092 0.0
H178 H 0.00752 0.32894 0.88088 0.0
H179 H 0.95448 0.31997 0.94643 0.0
H180 H 0.939 0.32374 0.88591 0.0
H181 H 0.97275 0.29974 0.98075 0.0
H182 H 0.99355 0.3681 0.92914 0.0
H183 H 0.00746 0.39486 0.87779 0.0
H184 H 0.06339 0.39246 0.87528 0.0
H185 H 0.04966 0.36545 0.92628 0.0
C186 C 0.01234 0.35827 0.13092 0.0
C187 C 0.03328 0.3686 0.14102 0.0
C188 C 0.00574 0.34771 0.09559 0.0
C189 C 0.0199 0.34718 0.06952 0.0
C190 C 0.04078 0.35692 0.07993 0.0
C191 C 0.04742 0.36743 0.11564 0.0
C192 C 0.01299 0.33899 0.02951 0.0
C193 C 0.02156 0.35279 -0.00184 0.0
C194 C 0.99562 0.31932 0.023 0.0
C195 C 0.98676 0.30372 0.0548 0.0
C196 C 0.99951 0.29897 0.07741 0.0
C197 C 0.99119 0.28443 0.10757 0.0
C198 C 0.97011 0.27448 0.11535 0.0
C199 C 0.9573 0.27901 0.09296 0.0
C200 C 0.96554 0.29353 0.06277 0.0
C201 C 0.98368 0.32973 0.8479 0.0
C202 C 0.96473 0.32916 0.84922 0.0
C203 C 0.99227 0.3271 0.88208 0.0
C204 C 0.98235 0.32466 0.91819 0.0
C205 C 0.96241 0.32191 0.91884 0.0
C206 C 0.95358 0.32408 0.88437 0.0
C207 C 0.99409 0.329 0.9552 0.0
C208 C 0.98633 0.31459 0.9858 0.0
C209 C 0.01215 0.34822 0.96133 0.0
C210 C 0.0205 0.36462 0.9311 0.0
C211 C 0.00877 0.37321 0.91746 0.0
C212 C 0.01661 0.38842 0.88844 0.0
C213 C 0.03627 0.39531 0.8732 0.0
C214 C 0.04815 0.38707 0.88705 0.0
C215 C 0.04035 0.37181 0.91599 0.0
H216 H 0.04232 0.40708 0.85073 0.0
H217 H 0.9637 0.26324 0.13873 0.0
H218 H 0.62123 0.93112 0.37942 0.0
H219 H 0.63722 0.93975 0.44457 0.0
H220 H 0.6631 0.00434 0.41898 0.0
H221 H 0.64744 0.99591 0.35423 0.0
H222 H 0.68816 0.99738 0.46861 0.0
H223 H 0.61555 0.97805 0.45616 0.0
H224 H 0.57946 0.95389 0.43847 0.0
H225 H 0.57864 0.90867 0.51685 0.0
H226 H 0.61484 0.93252 0.53459 0.0
H227 H 0.67873 0.05313 0.62593 0.0
H228 H 0.68156 0.03596 0.56727 0.0
H229 H 0.65076 0.97759 0.62771 0.0
H230 H 0.64712 0.99459 0.68564 0.0
H231 H 0.63145 0.97466 0.56511 0.0
H232 H 0.70178 0.99945 0.59185 0.0
H233 H 0.73756 0.02449 0.60955 0.0
H234 H 0.74343 0.05983 0.50634 0.0
H235 H 0.70758 0.03518 0.48827 0.0
C236 C 0.63086 0.94715 0.3873 0.0
C237 C 0.63271 0.96284 0.36218 0.0
C238 C 0.64 0.95206 0.42446 0.0
C239 C 0.65106 0.97268 0.43676 0.0
C240 C 0.65461 0.98835 0.41013 0.0
C241 C 0.64545 0.98348 0.37325 0.0
C242 C 0.65569 0.97807 0.47872 0.0
C243 C 0.67587 0.99235 0.49 0.0
C244 C 0.63968 0.97115 0.50667 0.0
C245 C 0.61791 0.95692 0.4963 0.0
C246 C 0.60769 0.9629 0.46942 0.0
C247 C 0.58723 0.94928 0.4594 0.0
C248 C 0.57678 0.92973 0.47643 0.0
C249 C 0.58677 0.92379 0.50361 0.0
C250 C 0.60725 0.93735 0.51364 0.0
C251 C 0.67308 0.03673 0.62695 0.0
C252 C 0.66245 0.02512 0.66 0.0
C253 C 0.67482 0.02691 0.59349 0.0
C254 C 0.66639 0.00542 0.59299 0.0
C255 C 0.65728 0.99413 0.62726 0.0
C256 C 0.65518 0.00386 0.66032 0.0
C257 C 0.664 0.99447 0.55536 0.0
C258 C 0.64407 0.97922 0.54463 0.0
C259 C 0.68029 1.00057 0.52815 0.0
C260 C 0.70191 0.01548 0.5388 0.0
C261 C 0.71064 0.01263 0.57304 0.0
C262 C 0.73096 0.02676 0.58313 0.0
C263 C 0.74276 0.04375 0.55911 0.0
C264 C 0.73427 0.04665 0.52491 0.0
C265 C 0.71396 0.03258 0.51469 0.0
H266 H 0.75848 0.05467 0.56697 0.0
H267 H 0.56094 0.91921 0.46865 0.0
H268 H 0.63655 0.69082 0.1221 0.0
H269 H 0.65792 0.69856 0.0631 0.0
H270 H 0.66032 0.64281 0.08014 0.0
H271 H 0.63956 0.63525 0.13894 0.0
H272 H 0.69599 0.67253 0.04927 0.0
H273 H 0.6218 0.64312 0.02531 0.0
H274 H 0.58937 0.64391 0.02893 0.0
H275 H 0.61784 0.70204 0.96897 0.0
H276 H 0.6505 0.70165 0.96539 0.0
H277 H 0.67813 0.61279 0.88069 0.0
H278 H 0.68451 0.63202 0.94191 0.0
H279 H 0.68267 0.6811 0.87916 0.0
H280 H 0.67516 0.66128 0.81851 0.0
H281 H 0.65531 0.66781 0.93134 0.0
H282 H 0.72596 0.68927 0.93577 0.0
H283 H 0.75735 0.6867 0.93095 0.0
H284 H 0.73626 0.6432 0.02576 0.0
H285 H 0.7046 0.64524 0.03081 0.0
C286 C 0.64198 0.68045 0.11362 0.0
C287 C 0.63599 0.6622 0.13469 0.0
C288 C 0.65423 0.68492 0.08002 0.0
C289 C 0.66049 0.67112 0.067 0.0
C290 C 0.65572 0.65371 0.08963 0.0
C291 C 0.6436 0.64928 0.12306 0.0
C292 C 0.66923 0.67275 0.02735 0.0
C293 C 0.6873 0.67169 0.02327 0.0
C294 C 0.65819 0.6723 0.99346 0.0
C295 C 0.6386 0.67249 0.99555 0.0
C296 C 0.62114 0.65612 0.01313 0.0
C297 C 0.60274 0.65648 0.01515 0.0
C298 C 0.60157 0.67305 -0.00068 0.0
C299 C 0.61879 0.68925 0.98132 0.0
C300 C 0.63724 0.68897 0.9793 0.0
C301 C 0.67991 0.62803 0.87991 0.0
C302 C 0.67607 0.6356 0.84531 0.0
C303 C 0.68368 0.63912 0.91483 0.0
C304 C 0.68406 0.65808 0.91526 0.0
C305 C 0.68235 0.66651 0.87965 0.0
C306 C 0.67811 0.65523 0.84505 0.0
C307 C 0.68176 0.66667 0.95293 0.0
C308 C 0.66475 0.66956 0.95675 0.0
C309 C 0.69378 0.6687 0.98639 0.0
C310 C 0.71283 0.66739 0.98359 0.0
C311 C 0.72794 0.67905 0.95545 0.0
C312 C 0.7458 0.6777 0.9527 0.0
C313 C 0.7488 0.66479 0.97802 0.0
C314 C 0.73394 0.65322 0.00619 0.0
C315 C 0.71604 0.6545 0.00906 0.0
H316 H 0.76264 0.66377 0.97584 0.0
H317 H 0.58731 0.67331 0.00089 0.0
H318 H 0.06898 0.68642 0.3684 0.0
H319 H 0.06141 0.69209 0.43573 0.0
H320 H 0.99651 0.65853 0.41016 0.0
H321 H 0.00391 0.65277 0.34325 0.0
H322 H 0.00731 0.69045 0.46592 0.0
H323 H 0.0174 0.63199 0.43893 0.0
H324 H 0.0377 0.61668 0.4145 0.0
H325 H 0.08627 0.65379 0.49489 0.0
H326 H 0.06633 0.66954 0.51937 0.0
H327 H 0.94969 0.62504 0.62231 0.0
H328 H 0.96693 0.64407 0.56284 0.0
H329 H 0.02593 0.66506 0.61751 0.0
H330 H 0.00882 0.64563 0.67651 0.0
H331 H 0.02457 0.64774 0.55153 0.0
H332 H 0.00926 0.69912 0.59074 0.0
H333 H 0.98823 0.71362 0.61493 0.0
H334 H 0.94938 0.6903 0.5136 0.0
H335 H 0.96998 0.67538 0.48904 0.0
C336 C 0.05316 0.68087 0.37681 0.0
C337 C 0.037 0.6688 0.35095 0.0
C338 C 0.04886 0.68414 0.41521 0.0
C339 C 0.02839 0.6755 0.42794 0.0
C340 C 0.01239 0.66533 0.4009 0.0
C341 C 0.01665 0.66188 0.36278 0.0
C342 C 0.02332 0.67344 0.47019 0.0
C343 C 0.01114 0.68125 0.48491 0.0
C344 C 0.02865 0.66172 0.49495 0.0
C345 C 0.04053 0.65212 0.48058 0.0
C346 C 0.03248 0.63698 0.45117 0.0
C347 C 0.0439 0.62822 0.43735 0.0
C348 C 0.06329 0.63431 0.45304 0.0
C349 C 0.07127 0.64913 0.48269 0.0
C350 C 0.05992 0.65799 0.49654 0.0
C351 C 0.96632 0.63404 0.62191 0.0
C352 C 0.9779 0.63359 0.65383 0.0
C353 C 0.97618 0.64506 0.58799 0.0
C354 C 0.99776 0.65608 0.58573 0.0
C355 C 0.00928 0.65663 0.61853 0.0
C356 C 0.99946 0.64546 0.65219 0.0
C357 C 0.00818 0.6645 0.54766 0.0
C358 C 0.02125 0.65762 0.53341 0.0
C359 C 0.00361 0.67707 0.52358 0.0
C360 C 0.99113 0.68602 0.53815 0.0
C361 C 0.99614 0.69694 0.57374 0.0
C362 C 0.98431 0.70526 0.5875 0.0
C363 C 0.96746 0.70285 0.56585 0.0
C364 C 0.96244 0.69215 0.53034 0.0
C365 C 0.97421 0.68379 0.51645 0.0
H366 H 0.95832 0.70931 0.57655 0.0
H367 H 0.07211 0.62751 0.44231 0.0
H368 H 0.36984 0.05807 0.8531 0.0
H369 H 0.34834 0.04473 0.91204 0.0
H370 H 0.34417 0.98582 0.89449 0.0
H371 H 0.36508 0.99874 0.83578 0.0
H372 H 0.30856 0.98082 0.92399 0.0
H373 H 0.38253 0.02336 0.95097 0.0
H374 H 0.4157 0.05588 0.94875 0.0
H375 H 0.38856 0.08697 0.00808 0.0
H376 H 0.35516 0.05463 0.01024 0.0
H377 H 0.32013 0.93664 0.09635 0.0
H378 H 0.316 0.95018 0.03392 0.0
H379 H 0.31981 0.00262 0.09408 0.0
H380 H 0.32516 0.9896 0.15604 0.0
H381 H 0.34801 0.01541 0.04387 0.0
H382 H 0.27671 0.9685 0.03513 0.0
H383 H 0.24448 0.93519 0.03865 0.0
H384 H 0.26583 0.91136 0.94688 0.0
H385 H 0.29833 0.94441 0.94316 0.0
C386 C 0.36403 0.04219 0.8615 0.0
C387 C 0.36951 0.0296 0.8402 0.0
C388 C 0.35172 0.03458 0.89507 0.0
C389 C 0.34484 0.01434 0.90784 0.0
C390 C 0.34923 0.00145 0.88517 0.0
C391 C 0.36143 0.00898 0.85178 0.0
C392 C 0.33555 0.00714 0.94713 0.0
C393 C 0.31701 0.98837 0.9504 0.0
C394 C 0.3463 0.01733 0.98151 0.0
C395 C 0.36635 0.0367 0.98029 0.0
C396 C 0.38363 0.03717 0.9633 0.0
C397 C 0.40246 0.05555 0.96208 0.0
C398 C 0.40422 0.07349 0.97814 0.0
C399 C 0.38716 0.07307 0.99556 0.0
C400 C 0.36829 0.05474 -0.00322 0.0
C401 C 0.31924 0.95061 0.09628 0.0
C402 C 0.32307 0.9622 0.13062 0.0
C403 C 0.31677 0.95834 0.06062 0.0
C404 C 0.31763 0.97752 0.05914 0.0
C405 C 0.31922 0.9879 0.09436 0.0
C406 C 0.3222 0.98044 0.12974 0.0
C407 C 0.32122 0.98852 0.02114 0.0
C408 C 0.33887 0.00805 0.01799 0.0
C409 C 0.30962 0.97892 0.98705 0.0
C410 C 0.29003 0.95898 0.98896 0.0
C411 C 0.27461 0.95613 0.01584 0.0
C412 C 0.25627 0.93729 0.01785 0.0
C413 C 0.25312 0.92117 0.99302 0.0
C414 C 0.26829 0.92387 0.96607 0.0
C415 C 0.28666 0.94268 0.96394 0.0
H416 H 0.23891 0.90659 0.99464 0.0
H417 H 0.41881 0.08771 0.97718 0.0
H418 H 0.31071 0.37121 0.3663 0.0
H419 H 0.30154 0.35034 0.42633 0.0
H420 H 0.35302 0.34075 0.4084 0.0
H421 H 0.36201 0.36108 0.34874 0.0
H422 H 0.32083 0.30693 0.44135 0.0
H423 H 0.35851 0.38212 0.46109 0.0
H424 H 0.36199 0.41653 0.45584 0.0
H425 H 0.30529 0.39504 0.51867 0.0
H426 H 0.30141 0.36044 0.52389 0.0
H427 H 0.38035 0.31899 0.60758 0.0
H428 H 0.36101 0.31444 0.54722 0.0
H429 H 0.3177 0.32539 0.61108 0.0
H430 H 0.33782 0.33115 0.67081 0.0
H431 H 0.33271 0.35136 0.55722 0.0
H432 H 0.30282 0.27917 0.55659 0.0
H433 H 0.30072 0.24545 0.56275 0.0
H434 H 0.34232 0.26016 0.46588 0.0
H435 H 0.34495 0.29411 0.45945 0.0
C436 C 0.31978 0.36428 0.37481 0.0
C437 C 0.33734 0.36816 0.35329 0.0
C438 C 0.3145 0.35233 0.409 0.0
C439 C 0.32675 0.34419 0.42202 0.0
C440 C 0.34332 0.34682 0.39891 0.0
C441 C 0.34859 0.3587 0.36499 0.0
C442 C 0.32466 0.33573 0.46208 0.0
C443 C 0.32322 0.31645 0.46693 0.0
C444 C 0.32715 0.34792 0.49543 0.0
C445 C 0.32954 0.3687 0.49243 0.0
C446 C 0.34674 0.38474 0.47356 0.0
C447 C 0.34879 0.40426 0.47062 0.0
C448 C 0.33383 0.40795 0.48679 0.0
C449 C 0.31683 0.39214 0.50606 0.0
C450 C 0.3147 0.37258 0.50901 0.0
C451 C 0.36627 0.31964 0.60886 0.0
C452 C 0.3606 0.32559 0.64346 0.0
C453 C 0.3551 0.31692 0.5744 0.0
C454 C 0.33783 0.3196 0.57444 0.0
C455 C 0.33101 0.32337 0.61017 0.0
C456 C 0.34246 0.32662 0.64428 0.0
C457 C 0.32972 0.32273 0.53686 0.0
C458 C 0.32938 0.34117 0.53233 0.0
C459 C 0.32562 0.30971 0.50401 0.0
C460 C 0.32411 0.28926 0.50762 0.0
C461 C 0.31163 0.27529 0.53674 0.0
C462 C 0.31033 0.25611 0.54026 0.0
C463 C 0.32139 0.25067 0.51474 0.0
C464 C 0.33375 0.26439 0.4856 0.0
C465 C 0.33511 0.28359 0.48195 0.0
H466 H 0.32036 0.23582 0.51752 0.0
H467 H 0.33545 0.42308 0.48449 0.0
H468 H 0.96095 0.64626 0.83585 0.0
H469 H 0.97277 0.6627 0.90048 0.0
H470 H 0.96046 0.60457 0.94931 0.0
H471 H 0.94942 0.58844 0.88489 0.0
H472 H 0.94995 0.63025 -0.00032 0.0
H473 H 0.00545 0.63284 0.91555 0.0
H474 H 0.02629 0.64412 0.85508 0.0
H475 H 0.04384 0.70689 0.88003 0.0
H476 H 0.02285 0.69589 0.94043 0.0
H477 H 0.00662 0.61826 0.1402 0.0
H478 H 0.99051 0.62048 0.08029 0.0
H479 H 0.03062 0.68633 0.07796 0.0
H480 H 0.04736 0.68415 0.13848 0.0
H481 H 0.02619 0.66975 0.00571 0.0
H482 H 0.98047 0.66748 0.10206 0.0
H483 H 0.9598 0.65655 0.16267 0.0
H484 H 0.92312 0.59565 0.11608 0.0
H485 H 0.94374 0.60608 0.05542 0.0
C486 C 0.9602 0.63697 0.8608 0.0
C487 C 0.95425 0.61615 0.85587 0.0
C488 C 0.96698 0.64634 0.89749 0.0
C489 C 0.96744 0.63479 0.9295 0.0
C490 C 0.96005 0.61366 0.92499 0.0
C491 C 0.95378 0.60447 0.88831 0.0
C492 C 0.97801 0.64471 0.9664 0.0
C493 C 0.96659 0.63914 0.00121 0.0
C494 C 0.99966 0.65698 0.96806 0.0
C495 C 0.01243 0.66355 0.93213 0.0
C496 C 0.01365 0.64903 0.90796 0.0
C497 C 0.02549 0.65537 0.87374 0.0
C498 C 0.03633 0.67621 0.86365 0.0
C499 C 0.0354 0.69075 0.88783 0.0
C500 C 0.02353 0.68448 0.92204 0.0
C501 C 0.01209 0.63328 0.12712 0.0
C502 C 0.02813 0.65108 0.14434 0.0
C503 C 0.00273 0.63454 0.09294 0.0
C504 C 0.00889 0.65364 0.07534 0.0
C505 C 0.02542 0.67146 0.09148 0.0
C506 C 0.03501 0.67019 0.12586 0.0
C507 C 0.99815 0.65428 0.03934 0.0
C508 C 0.00953 0.66176 0.0046 0.0
C509 C 0.97639 0.64402 0.03782 0.0
C510 C 0.96369 0.6376 0.0741 0.0
C511 C 0.96805 0.65173 0.10477 0.0
C512 C 0.95634 0.64562 0.13916 0.0
C513 C 0.94015 0.62542 0.14321 0.0
C514 C 0.93563 0.6113 0.11286 0.0
C515 C 0.94731 0.61732 0.07841 0.0
H516 H 0.93112 0.62072 0.16987 0.0
H517 H 0.0455 0.68109 0.83715 0.0
H518 H 0.37533 0.99864 0.32803 0.0
H519 H 0.3752 0.01127 0.39329 0.0
H520 H 0.3152 0.95875 0.41493 0.0
H521 H 0.31543 0.94553 0.34916 0.0
H522 H 0.3532 0.02324 0.43271 0.0
H523 H 0.31365 0.94602 0.51228 0.0
H524 H 0.30579 0.91013 0.50363 0.0
H525 H 0.35986 0.9309 0.43259 0.0
H526 H 0.36811 0.96688 0.44119 0.0
H527 H 0.36734 0.04856 0.63952 0.0
H528 H 0.35067 0.03416 0.57625 0.0
H529 H 0.38877 0.00655 0.56176 0.0
H530 H 0.40474 0.02014 0.62492 0.0
H531 H 0.35139 0.97973 0.54382 0.0
H532 H 0.39774 0.05233 0.51369 0.0
H533 H 0.41064 0.08955 0.52067 0.0
H534 H 0.35113 0.08028 0.49011 0.0
H535 H 0.33785 0.04297 0.48334 0.0
C536 C 0.36198 0.98973 0.34641 0.0
C537 C 0.34548 0.9709 0.33349 0.0
C538 C 0.36187 0.99712 0.38372 0.0
C539 C 0.34524 0.98596 0.40912 0.0
C540 C 0.32829 0.96753 0.39591 0.0
C541 C 0.32845 0.95999 0.35839 0.0
C542 C 0.34696 0.99305 0.45025 0.0
C543 C 0.35247 0.01364 0.45716 0.0
C544 C 0.34604 0.98057 0.48216 0.0
C545 C 0.3413 0.95905 0.47691 0.0
C546 C 0.32384 0.94289 0.49483 0.0
C547 C 0.31933 0.92255 0.48995 0.0
C548 C 0.33227 0.91823 0.46742 0.0
C549 C 0.3498 0.93425 0.44988 0.0
C550 C 0.35439 0.95461 0.45472 0.0
C551 C 0.37219 0.03953 0.62256 0.0
C552 C 0.38728 0.03541 0.63711 0.0
C553 C 0.36265 0.03128 0.58653 0.0
C554 C 0.3684 0.01918 0.5643 0.0
C555 C 0.38382 0.01556 0.57858 0.0
C556 C 0.39306 0.02346 0.61461 0.0
C557 C 0.35881 0.01025 0.52591 0.0
C558 C 0.35152 0.98921 0.51966 0.0
C559 C 0.35877 0.0225 0.49442 0.0
C560 C 0.36675 0.04488 0.49853 0.0
C561 C 0.38738 0.05823 0.50876 0.0
C562 C 0.39476 0.07933 0.51262 0.0
C563 C 0.38169 0.08726 0.50598 0.0
C564 C 0.36123 0.07411 0.49534 0.0
C565 C 0.35376 0.053 0.49148 0.0
H566 H 0.38744 0.1036 0.50897 0.0
H567 H 0.32874 0.90248 0.46366 0.0
H568 H 0.38739 0.37973 0.84271 0.0
H569 H 0.37559 0.37957 0.90884 0.0
H570 H 0.36298 0.31728 0.92506 0.0
H571 H 0.37536 0.31745 0.85822 0.0
H572 H 0.34029 0.35815 0.94481 0.0
H573 H 0.37193 0.31263 0.02343 0.0
H574 H 0.39843 0.30263 0.01511 0.0
H575 H 0.4356 0.35757 0.94842 0.0
H576 H 0.40942 0.36798 0.95674 0.0
H577 H 0.32319 0.36733 0.14914 0.0
H578 H 0.32263 0.35154 0.08581 0.0
H579 H 0.3889 0.38696 0.08107 0.0
H580 H 0.38957 0.40204 0.1445 0.0
H581 H 0.37731 0.35009 0.05761 0.0
H582 H 0.35605 0.40059 0.03042 0.0
H583 H 0.33347 0.41554 0.03709 0.0
H584 H 0.28187 0.35874 -0.00175 0.0
H585 H 0.30414 0.3434 0.99175 0.0
C586 C 0.38208 0.3659 0.8601 0.0
C587 C 0.38241 0.34861 0.84517 0.0
C588 C 0.37517 0.3658 0.89794 0.0
C589 C 0.36835 0.34842 0.92192 0.0
C590 C 0.36829 0.33091 0.90708 0.0
C591 C 0.37538 0.33104 0.86897 0.0
C592 C 0.36246 0.34956 0.96294 0.0
C593 C 0.34814 0.35607 0.96958 0.0
C594 C 0.37271 0.3469 0.99522 0.0
C595 C 0.3886 0.3409 0.99025 0.0
C596 C 0.38577 0.32256 0.00703 0.0
C597 C 0.40073 0.31683 0.00232 0.0
C598 C 0.41864 0.32941 0.9811 0.0
C599 C 0.42168 0.3478 0.96469 0.0
C600 C 0.40678 0.3536 0.96936 0.0
C601 C 0.3376 0.37173 0.13444 0.0
C602 C 0.35642 0.38596 0.15168 0.0
C603 C 0.33727 0.36268 0.09834 0.0
C604 C 0.35573 0.36809 0.07859 0.0
C605 C 0.37447 0.38235 0.09587 0.0
C606 C 0.37482 0.39109 0.13206 0.0
C607 C 0.35594 0.35974 0.03927 0.0
C608 C 0.36899 0.35161 0.03303 0.0
C609 C 0.34504 0.36159 0.00715 0.0
C610 C 0.33168 0.37078 0.01111 0.0
C611 C 0.33986 0.39126 0.02359 0.0
C612 C 0.32712 0.3998 0.02728 0.0
C613 C 0.30623 0.38807 0.01824 0.0
C614 C 0.29804 0.36779 0.00535 0.0
C615 C 0.31071 0.35917 0.00165 0.0
H616 H 0.2964 0.39472 0.02111 0.0
H617 H 0.43019 0.32494 0.97747 0.0
H618 H 0.0041 0.37596 0.66556 0.0
H619 H 0.01965 0.37561 0.60333 0.0
H620 H 0.96159 0.32573 0.56312 0.0
H621 H 0.94578 0.32565 0.62636 0.0
H622 H 0.99463 0.32138 0.53935 0.0
H623 H 0.97512 0.37288 0.53532 0.0
H624 H 0.97265 0.40269 0.5585 0.0
H625 H 0.03838 0.4404 0.55457 0.0
H626 H 0.04127 0.41071 0.53191 0.0
H627 H 0.0085 0.34765 0.33462 0.0
H628 H 0.99861 0.33701 0.40261 0.0
H629 H 0.05967 0.3817 0.44065 0.0
H630 H 0.06982 0.39211 0.37228 0.0
H631 H 0.02668 0.38762 0.4669 0.0
H632 H 0.04468 0.33498 0.46281 0.0
H633 H 0.04506 0.30463 0.43629 0.0
H634 H 0.9796 0.26841 0.4505 0.0
H635 H 0.97877 0.29863 0.47657 0.0
C636 C 0.99456 0.36482 0.64364 0.0
C637 C 0.97359 0.35104 0.65064 0.0
C638 C 0.00353 0.36462 0.6081 0.0
C639 C 0.9917 0.35088 0.57846 0.0
C640 C 0.97094 0.33649 0.5857 0.0
C641 C 0.96193 0.33654 0.62166 0.0
C642 C 1.00089 0.3527 0.53926 0.0
C643 C 0.00147 0.33577 0.52322 0.0
C644 C 0.01007 0.3716 0.51864 0.0
C645 C 0.00842 0.38951 0.53234 0.0
C646 C 0.98906 0.38748 0.53974 0.0
C647 C 0.98758 0.40436 0.55272 0.0
C648 C 0.00535 0.42341 0.55811 0.0
C649 C 0.02464 0.42562 0.55045 0.0
C650 C 0.0262 0.40878 0.53751 0.0
C651 C 0.02002 0.35465 0.35738 0.0
C652 C 0.03984 0.37081 0.34847 0.0
C653 C 0.01439 0.34849 0.39613 0.0
C654 C 0.02841 0.35862 0.42651 0.0
C655 C 0.04871 0.37365 0.41743 0.0
C656 C 0.05449 0.37955 0.37848 0.0
C657 C 0.02067 0.3564 0.46703 0.0
C658 C 0.02014 0.37329 0.4832 0.0
C659 C 0.01124 0.33737 0.48714 0.0
C660 C 0.01165 0.31915 0.47135 0.0
C661 C 0.03033 0.32061 0.45993 0.0
C662 C 0.03064 0.3034 0.44506 0.0
C663 C 0.01237 0.28461 0.44163 0.0
C664 C 0.99375 0.28298 0.45315 0.0
C665 C 0.99335 0.30014 0.46802 0.0
H666 H 0.01264 0.27131 0.43013 0.0
H667 H 0.00417 0.43646 0.56814 0.0
H668 H 0.62285 0.03322 0.87946 0.0
H669 H 0.62582 0.02226 0.94539 0.0
H670 H 0.68765 0.03597 0.92007 0.0
H671 H 0.685 0.04769 0.85382 0.0
H672 H 0.65128 0.99095 0.9521 0.0
H673 H 0.69274 0.06319 0.97974 0.0
H674 H 0.70133 0.09946 0.97656 0.0
H675 H 0.64493 0.08414 0.03559 0.0
H676 H 0.63584 0.04771 0.03856 0.0
H677 H 0.63723 0.95602 0.15478 0.0
H678 H 0.6536 0.97297 0.09259 0.0
H679 H 0.61514 1.0006 0.08818 0.0
H680 H 0.59953 0.98452 0.15027 0.0
H681 H 0.65247 0.02844 0.07268 0.0
H682 H 0.60704 0.95744 0.03109 0.0
H683 H 0.59462 0.92016 0.0307 0.0
H684 H 0.65446 0.93191 0.99561 0.0
H685 H 0.66728 0.96929 -0.00378 0.0
C686 C 0.6372 0.03421 0.88811 0.0
C687 C 0.65371 0.0413 0.86172 0.0
C688 C 0.63886 0.02794 0.92567 0.0
C689 C 0.65691 0.02828 0.93731 0.0
C690 C 0.67363 0.03566 0.9114 0.0
C691 C 0.67215 0.04244 0.87386 0.0
C692 C 0.65735 0.01995 0.97624 0.0
C693 C 0.65219 0.99926 0.97876 0.0
C694 C 0.65811 0.03076 0.01058 0.0
C695 C 0.66357 0.05269 0.00919 0.0
C696 C 0.68209 0.06752 0.99176 0.0
C697 C 0.68706 0.08812 0.99005 0.0
C698 C 0.67367 0.0941 0.00582 0.0
C699 C 0.65529 0.07949 0.0234 0.0
C700 C 0.65024 0.05887 0.02516 0.0
C701 C 0.63223 0.96559 0.14019 0.0
C702 C 0.61722 0.96908 0.15737 0.0
C703 C 0.64159 0.97528 0.10477 0.0
C704 C 0.63569 0.98818 0.08578 0.0
C705 C 0.62021 0.99101 0.1025 0.0
C706 C 0.6112 0.9817 0.13793 0.0
C707 C 0.64536 0.99903 0.04858 0.0
C708 C 0.65235 0.02023 0.04641 0.0
C709 C 0.64588 0.98854 0.01448 0.0
C710 C 0.63818 0.96612 0.01425 0.0
C711 C 0.61758 0.95206 0.02362 0.0
C712 C 0.61046 0.93092 0.02329 0.0
C713 C 0.62376 0.92367 0.01329 0.0
C714 C 0.64419 0.93755 0.00346 0.0
C715 C 0.65139 0.9587 0.00379 0.0
H716 H 0.61822 0.9073 0.01304 0.0
H717 H 0.67755 0.11005 0.00446 0.0
H718 H 0.6015 0.61525 0.3438 0.0
H719 H 0.6144 0.6167 0.40986 0.0
H720 H 0.64396 0.6829 0.4084 0.0
H721 H 0.63088 0.68166 0.34173 0.0
H722 H 0.66867 0.66427 0.43933 0.0
H723 H 0.60457 0.66317 0.45694 0.0
H724 H 0.56783 0.65052 0.44454 0.0
H725 H 0.55276 0.59051 0.48584 0.0
H726 H 0.58947 0.60273 0.49793 0.0
H727 H 0.64218 0.64357 0.6646 0.0
H728 H 0.64036 0.65642 0.60006 0.0
H729 H 0.66821 0.62366 0.5487 0.0
H730 H 0.67053 0.61105 0.61394 0.0
H731 H 0.61681 0.63155 0.54509 0.0
H732 H 0.68977 0.64642 0.45942 0.0
H733 H 0.72664 0.65968 0.47175 0.0
H734 H 0.72475 0.69491 0.5692 0.0
H735 H 0.68795 0.68209 0.55714 0.0
C736 C 0.61078 0.63017 0.35733 0.0
C737 C 0.61511 0.64836 0.33759 0.0
C738 C 0.61817 0.63094 0.39506 0.0
C739 C 0.63011 0.64988 0.41378 0.0
C740 C 0.63481 0.66815 0.39415 0.0
C741 C 0.62721 0.6674 0.35632 0.0
C742 C 0.63664 0.65013 0.45467 0.0
C743 C 0.65745 0.65732 0.46271 0.0
C744 C 0.62192 0.6412 0.48491 0.0
C745 C 0.59979 0.63384 0.47807 0.0
C746 C 0.59344 0.64723 0.4631 0.0
C747 C 0.57261 0.64015 0.45617 0.0
C748 C 0.55797 0.61971 0.46433 0.0
C749 C 0.56412 0.60633 0.47952 0.0
C750 C 0.58493 0.61334 0.48646 0.0
C751 C 0.64829 0.6394 0.63968 0.0
C752 C 0.65621 0.62606 0.64409 0.0
C753 C 0.64727 0.6468 0.60283 0.0
C754 C 0.654 0.6409 0.56955 0.0
C755 C 0.6631 0.62857 0.57408 0.0
C756 C 0.66436 0.62132 0.61126 0.0
C757 C 0.64896 0.64547 0.53017 0.0
C758 C 0.62825 0.63891 0.52218 0.0
C759 C 0.66385 0.65515 0.50029 0.0
C760 C 0.68604 0.66313 0.50755 0.0
C761 C 0.69724 0.65706 0.48337 0.0
C762 C 0.71813 0.66449 0.49034 0.0
C763 C 0.72802 0.67808 0.52131 0.0
C764 C 0.71705 0.68432 0.54531 0.0
C765 C 0.69617 0.67695 0.53846 0.0
H766 H 0.74419 0.68381 0.52666 0.0
H767 H 0.54185 0.61425 0.45894 0.0
H768 H 0.10419 0.63009 0.22699 0.0
H769 H 0.11721 0.60578 0.22651 0.0
H770 H 0.06689 0.56454 0.30109 0.0
H771 H 0.05404 0.58849 0.30186 0.0
H772 H 0.102 0.56541 0.32191 0.0
H773 H 0.06407 0.55993 0.20051 0.0
H774 H 0.05919 0.57386 0.13842 0.0
H775 H 0.11893 0.58704 0.09925 0.0
H776 H 0.12422 0.57338 0.16137 0.0
H777 H 0.05056 0.46191 0.28174 0.0
H778 H 0.06373 0.49876 0.28604 0.0
H779 H 0.11822 0.51046 0.22262 0.0
H780 H 0.10516 0.47312 0.21872 0.0
H781 H 0.09639 0.53157 0.19393 0.0
H782 H 0.12722 0.52501 0.30979 0.0
H783 H 0.12937 0.50901 0.37142 0.0
H784 H 0.08151 0.51724 0.42153 0.0
H785 H 0.07882 0.533 0.36001 0.0
C786 C 0.09619 0.61599 0.24382 0.0
C787 C 0.07796 0.61107 0.26408 0.0
C788 C 0.10359 0.60212 0.24344 0.0
C789 C 0.09292 0.58327 0.26354 0.0
C790 C 0.07542 0.57898 0.28545 0.0
C791 C 0.06799 0.59266 0.28562 0.0
C792 C 0.0984 0.56689 0.25958 0.0
C793 C 0.10106 0.55814 0.29391 0.0
C794 C 0.09786 0.55778 0.22291 0.0
C795 C 0.09465 0.56592 0.18568 0.0
C796 C 0.07621 0.56595 0.17874 0.0
C797 C 0.07336 0.57376 0.14355 0.0
C798 C 0.08877 0.5814 0.11497 0.0
C799 C 0.10703 0.58118 0.12147 0.0
C800 C 0.10996 0.57341 0.15664 0.0
C801 C 0.0654 0.47225 0.2688 0.0
C802 C 0.07679 0.4646 0.24974 0.0
C803 C 0.07296 0.49333 0.27151 0.0
C804 C 0.092 0.50731 0.25494 0.0
C805 C 0.10353 0.49986 0.23579 0.0
C806 C 0.09608 0.4786 0.23365 0.0
C807 C 0.09882 0.52954 0.25649 0.0
C808 C 0.09838 0.53934 0.22178 0.0
C809 C 0.10122 0.53953 0.29286 0.0
C810 C 0.10282 0.53019 0.33018 0.0
C811 C 0.11707 0.52331 0.33386 0.0
C812 C 0.11839 0.51429 0.3688 0.0
C813 C 0.10559 0.51211 0.40037 0.0
C814 C 0.09144 0.51897 0.39707 0.0
C815 C 0.09005 0.52799 0.36218 0.0
H816 H 0.10663 0.50512 0.42739 0.0
H817 H 0.08654 0.58744 0.08774 0.0
H818 H 0.4752 0.06227 0.79869 0.0
H819 H 0.51222 0.07753 0.7933 0.0
H820 H 0.51517 0.12601 0.72055 0.0
H821 H 0.47765 0.11055 0.7258 0.0
H822 H 0.53366 0.108 0.6858 0.0
H823 H 0.54085 0.13873 0.80811 0.0
H824 H 0.53323 0.14243 0.87695 0.0
H825 H 0.5465 0.09527 0.91154 0.0
H826 H 0.55389 0.09102 0.84288 0.0
H827 H 0.63662 0.1103 0.75216 0.0
H828 H 0.61497 0.12629 0.75298 0.0
H829 H 0.56634 0.07267 0.69613 0.0
H830 H 0.58771 0.05681 0.69511 0.0
H831 H 0.58011 0.11182 0.79287 0.0
H832 H 0.53652 0.08289 0.64274 0.0
H833 H 0.54522 0.08129 0.57364 0.0
H834 H 0.60713 0.12977 0.59378 0.0
H835 H 0.59876 0.13192 0.66288 0.0
C836 C 0.48373 0.07645 0.78226 0.0
C837 C 0.4735 0.08512 0.76239 0.0
C838 C 0.50499 0.0853 0.77947 0.0
C839 C 0.51657 0.10304 0.75676 0.0
C840 C 0.50655 0.11239 0.73842 0.0
C841 C 0.48515 0.10359 0.74154 0.0
C842 C 0.53841 0.10964 0.74826 0.0
C843 C 0.54402 0.10925 0.70914 0.0
C844 C 0.55231 0.11212 0.77863 0.0
C845 C 0.54796 0.11458 0.8202 0.0
C846 C 0.54205 0.12906 0.83034 0.0
C847 C 0.53777 0.13127 0.86937 0.0
C848 C 0.53939 0.11911 0.8986 0.0
C849 C 0.5453 0.10472 0.88887 0.0
C850 C 0.54959 0.10245 0.84989 0.0
C851 C 0.62151 0.1022 0.73892 0.0
C852 C 0.6138 0.08223 0.72383 0.0
C853 C 0.60915 0.11133 0.73951 0.0
C854 C 0.58908 0.10077 0.72436 0.0
C855 C 0.58188 0.08132 0.70735 0.0
C856 C 0.59408 0.07216 0.70709 0.0
C857 C 0.57442 0.10835 0.73069 0.0
C858 C 0.57016 0.11138 0.76941 0.0
C859 C 0.56195 0.10866 0.6999 0.0
C860 C 0.56699 0.10755 0.65813 0.0
C861 C 0.55195 0.09334 0.63242 0.0
C862 C 0.55684 0.0923 0.59323 0.0
C863 C 0.57672 0.10541 0.57934 0.0
C864 C 0.59175 0.1196 0.6046 0.0
C865 C 0.58694 0.12071 0.6438 0.0
H866 H 0.58047 0.10457 0.54899 0.0
H867 H 0.53606 0.12083 0.9288 0.0
H868 H 0.52843 0.63538 0.25573 0.0
H869 H 0.4919 0.61106 0.26837 0.0
H870 H 0.49246 0.57068 0.17914 0.0
H871 H 0.52878 0.59459 0.16684 0.0
H872 H 0.45089 0.58276 0.22192 0.0
H873 H 0.48534 0.53008 0.23192 0.0
H874 H 0.519 0.53276 0.24414 0.0
H875 H 0.53658 0.58548 0.31749 0.0
H876 H 0.5029 0.58284 0.30628 0.0
H877 H 0.37745 0.47566 0.21696 0.0
H878 H 0.40257 0.51238 0.21179 0.0
H879 H 0.42501 0.511 0.3277 0.0
H880 H 0.40086 0.47406 0.33155 0.0
H881 H 0.45464 0.52452 0.28222 0.0
H882 H 0.40281 0.54223 0.30052 0.0
H883 H 0.36966 0.54089 0.29059 0.0
H884 H 0.38567 0.55957 0.17068 0.0
H885 H 0.41881 0.56074 0.17969 0.0
C886 C 0.52049 0.62175 0.23764 0.0
C887 C 0.53145 0.61664 0.2108 0.0
C888 C 0.49962 0.60792 0.24481 0.0
C889 C 0.48962 0.58902 0.22496 0.0
C890 C 0.49995 0.58518 0.19479 0.0
C891 C 0.52073 0.5988 0.18795 0.0
C892 C 0.47069 0.57147 0.24118 0.0
C893 C 0.45152 0.57001 0.23545 0.0
C894 C 0.47173 0.5552 0.25979 0.0
C895 C 0.4917 0.55636 0.26798 0.0
C896 C 0.49635 0.54214 0.25088 0.0
C897 C 0.51543 0.54367 0.25759 0.0
C898 C 0.52994 0.55932 0.28148 0.0
C899 C 0.52535 0.5734 0.29891 0.0
C900 C 0.50628 0.5719 0.29237 0.0
C901 C 0.38732 0.48342 0.24177 0.0
C902 C 0.38741 0.47213 0.27452 0.0
C903 C 0.40164 0.50446 0.23892 0.0
C904 C 0.41584 0.51459 0.26931 0.0
C905 C 0.41441 0.50357 0.30367 0.0
C906 C 0.40057 0.48249 0.30598 0.0
C907 C 0.43424 0.53524 0.2627 0.0
C908 C 0.45359 0.53728 0.26979 0.0
C909 C 0.43319 0.55209 0.24636 0.0
C910 C 0.41327 0.55145 0.24075 0.0
C911 C 0.39921 0.54591 0.27194 0.0
C912 C 0.38042 0.54521 0.26649 0.0
C913 C 0.37555 0.55011 0.23001 0.0
C914 C 0.38947 0.55578 0.19893 0.0
C915 C 0.40828 0.55649 0.20421 0.0
H916 H 0.36099 0.54956 0.22585 0.0
H917 H 0.54472 0.56051 0.28654 0.0
H918 H 0.94774 0.53105 0.70381 0.0
H919 H 0.93314 0.49394 0.70511 0.0
H920 H 0.87692 0.48663 0.75423 0.0
H921 H 0.8916 0.5242 0.75289 0.0
H922 H 0.89187 0.46661 0.797 0.0
H923 H 0.87457 0.46651 0.6651 0.0
H924 H 0.87849 0.47818 0.59643 0.0
H925 H 0.92842 0.46642 0.58085 0.0
H926 H 0.92505 0.45499 0.64957 0.0
H927 H 0.89383 0.36591 0.72921 0.0
H928 H 0.87927 0.38871 0.723 0.0
H929 H 0.92683 0.43292 0.79876 0.0
H930 H 0.94129 0.4104 0.80508 0.0
H931 H 0.8988 0.42585 0.68971 0.0
H932 H 0.91212 0.46077 0.84818 0.0
H933 H 0.90654 0.44824 0.91639 0.0
H934 H 0.86029 0.38824 0.87805 0.0
H935 H 0.86533 0.40045 0.80965 0.0
C936 C 0.93212 0.52157 0.71425 0.0
C937 C 0.92085 0.53054 0.72846 0.0
C938 C 0.92371 0.5003 0.71468 0.0
C939 C 0.90385 0.48746 0.72944 0.0
C940 C 0.89222 0.49627 0.74247 0.0
C941 C 0.90059 0.51768 0.74159 0.0
C942 C 0.89669 0.46527 0.73509 0.0
C943 C 0.89299 0.45749 0.77349 0.0
C944 C 0.89739 0.45308 0.70415 0.0
C945 C 0.89953 0.45987 0.66262 0.0
C946 C 0.88647 0.46651 0.64712 0.0
C947 C 0.88858 0.47308 0.60815 0.0
C948 C 0.90369 0.47303 0.5843 0.0
C949 C 0.9167 0.46641 0.59935 0.0
C950 C 0.91466 0.45983 0.6383 0.0
C951 C 0.90083 0.38027 0.74531 0.0
C952 C 0.9188 0.38645 0.7674 0.0
C953 C 0.89253 0.39328 0.74166 0.0
C954 C 0.90185 0.41246 0.76064 0.0
C955 C 0.91912 0.41806 0.78438 0.0
C956 C 0.9275 0.40523 0.7877 0.0
C957 C 0.89565 0.42799 0.75204 0.0
C958 C 0.89689 0.43456 0.71307 0.0
C959 C 0.89239 0.43891 0.78239 0.0
C960 C 0.88914 0.43155 0.82366 0.0
C961 C 0.90062 0.44495 0.85427 0.0
C962 C 0.89759 0.43788 0.893 0.0
C963 C 0.88308 0.41746 0.90155 0.0
C964 C 0.87155 0.40405 0.87138 0.0
C965 C 0.87452 0.41103 0.83261 0.0
H966 H 0.88077 0.41202 0.93154 0.0
H967 H 0.90531 0.47813 0.55414 0.0
H968 H 0.40325 0.94104 0.16367 0.0
H969 H 0.42988 0.93165 0.16996 0.0
H970 H 0.39958 0.89568 0.27297 0.0
H971 H 0.37229 0.90427 0.26542 0.0
H972 H 0.45532 0.9442 0.22535 0.0
H973 H 0.41704 0.86243 0.2946 0.0
H974 H 0.3847 0.82927 0.28938 0.0
H975 H 0.37617 0.8442 0.17187 0.0
H976 H 0.40859 0.87731 0.17617 0.0
H977 H 0.53045 0.93858 0.32631 0.0
H978 H 0.49496 0.93006 0.31537 0.0
H979 H 0.4907 0.89203 0.21702 0.0
H980 H 0.52625 0.90011 0.22854 0.0
H981 H 0.45218 0.87808 0.25653 0.0
H982 H 0.50662 0.93937 0.19749 0.0
H983 H 0.53963 0.97204 0.19749 0.0
H984 H 0.5158 0.99717 0.28201 0.0
H985 H 0.48274 0.9645 0.28299 0.0
C986 C 0.40197 0.93064 0.18696 0.0
C987 C 0.38582 0.92348 0.2142 0.0
C988 C 0.41722 0.92531 0.19063 0.0
C989 C 0.4169 0.91306 0.22211 0.0
C990 C 0.40009 0.90489 0.24808 0.0
C991 C 0.38451 0.90986 0.24385 0.0
C992 C 0.43544 0.91135 0.23052 0.0
C993 C 0.4545 0.92965 0.23183 0.0
C994 C 0.43459 0.89242 0.23891 0.0
C995 C 0.41517 0.87245 0.23588 0.0
C996 C 0.40831 0.8586 0.26759 0.0
C997 C 0.38995 0.83982 0.2648 0.0
C998 C 0.37835 0.83466 0.23036 0.0
C999 C 0.38512 0.84825 0.19859 0.0
C1000 C 0.40348 0.86704 0.20121 0.0
C1001 C 0.52175 0.92784 0.30317 0.0
C1002 C 0.53117 0.92026 0.27787 0.0
C1003 C 0.50146 0.92296 0.29699 0.0
C1004 C 0.49038 0.91078 0.26488 0.0
C1005 C 0.49902 0.90149 0.24192 0.0
C1006 C 0.51933 0.90614 0.24849 0.0
C1007 C 0.47163 0.9109 0.25165 0.0
C1008 C 0.45274 0.89247 0.24965 0.0
C1009 C 0.47256 0.92963 0.24158 0.0
C1010 C 0.49228 0.94944 0.24054 0.0
C1011 C 0.50847 0.95182 0.21624 0.0
C1012 C 0.52718 0.97034 0.21606 0.0
C1013 C 0.52982 0.98666 0.23979 0.0
C1014 C 0.51373 0.98451 0.26367 0.0
C1015 C 0.495 0.966 0.26404 0.0
H1016 H 0.54432 1.00098 0.23963 0.0
H1017 H 0.36414 0.82012 0.22827 0.0
H1018 H 0.63105 0.52681 0.73176 0.0
H1019 H 0.60577 0.48997 0.72637 0.0
H1020 H 0.55974 0.50073 0.77908 0.0
H1021 H 0.58472 0.53714 0.78499 0.0
H1022 H 0.55567 0.46534 0.80507 0.0
H1023 H 0.56502 0.49996 0.67884 0.0
H1024 H 0.58551 0.51967 0.62157 0.0
H1025 H 0.60067 0.47269 0.59689 0.0
H1026 H 0.58044 0.45282 0.65434 0.0
H1027 H 0.46378 0.40893 0.67715 0.0
H1028 H 0.50008 0.43437 0.68287 0.0
H1029 H 0.50936 0.39309 0.75692 0.0
H1030 H 0.47267 0.3674 0.75158 0.0
H1031 H 0.53726 0.43856 0.66933 0.0
H1032 H 0.54146 0.42322 0.83171 0.0
H1033 H 0.51854 0.40576 0.88798 0.0
H1034 H 0.47275 0.41746 0.83872 0.0
H1035 H 0.4955 0.43519 0.78248 0.0
C1036 C 0.61563 0.52122 0.74281 0.0
C1037 C 0.60984 0.53496 0.75842 0.0
C1038 C 0.6012 0.50019 0.73961 0.0
C1039 C 0.5808 0.49261 0.752 0.0
C1040 C 0.57537 0.50617 0.7694 0.0
C1041 C 0.58968 0.52707 0.77251 0.0
C1042 C 0.56442 0.47109 0.74419 0.0
C1043 C 0.55191 0.45929 0.77547 0.0
C1044 C 0.55939 0.46317 0.70559 0.0
C1045 C 0.57147 0.47506 0.67109 0.0
C1046 C 0.57285 0.49392 0.66134 0.0
C1047 C 0.58439 0.5051 0.62884 0.0
C1048 C 0.59445 0.49747 0.60568 0.0
C1049 C 0.59292 0.47861 0.61491 0.0
C1050 C 0.58143 0.46738 0.64743 0.0
C1051 C 0.47358 0.40503 0.69401 0.0
C1052 C 0.46529 0.38627 0.7144 0.0
C1053 C 0.49441 0.41958 0.69704 0.0
C1054 C 0.50741 0.41577 0.72073 0.0
C1055 C 0.49955 0.39641 0.73876 0.0
C1056 C 0.47861 0.38173 0.73556 0.0
C1057 C 0.52821 0.43313 0.73008 0.0
C1058 C 0.54152 0.44417 0.69911 0.0
C1059 C 0.53374 0.4406 0.76887 0.0
C1060 C 0.52005 0.43024 0.80273 0.0
C1061 C 0.52651 0.42208 0.83298 0.0
C1062 C 0.51356 0.41215 0.86485 0.0
C1063 C 0.49417 0.41042 0.86684 0.0
C1064 C 0.48773 0.41873 0.83707 0.0
C1065 C 0.50064 0.42871 0.8052 0.0
H1066 H 0.48415 0.4027 0.89149 0.0
H1067 H 0.60337 0.50615 0.58053 0.0
H1068 H 0.14865 0.43925 0.30775 0.0
H1069 H 0.1812 0.43931 0.30648 0.0
H1070 H 0.15887 0.39563 0.21135 0.0
H1071 H 0.12615 0.39533 0.21262 0.0
H1072 H 0.17698 0.38466 0.26745 0.0
H1073 H 0.19389 0.44544 0.19411 0.0
H1074 H 0.1964 0.47893 0.18095 0.0
H1075 H 0.23533 0.50488 0.28155 0.0
H1076 H 0.23281 0.47145 0.29564 0.0
H1077 H 0.27438 0.39445 0.22298 0.0
H1078 H 0.242 0.39474 0.21815 0.0
H1079 H 0.26058 0.43758 0.31446 0.0
H1080 H 0.29298 0.43748 0.31939 0.0
H1081 H 0.24434 0.4488 0.2544 0.0
H1082 H 0.22625 0.3877 0.3291 0.0
H1083 H 0.2237 0.3542 0.3424 0.0
H1084 H 0.18697 0.32892 0.23896 0.0
H1085 H 0.18954 0.36238 0.22474 0.0
C1086 C 0.15066 0.42971 0.28643 0.0
C1087 C 0.13479 0.4173 0.26025 0.0
C1088 C 0.16933 0.42983 0.28564 0.0
C1089 C 0.17254 0.41761 0.25858 0.0
C1090 C 0.15673 0.40519 0.23244 0.0
C1091 C 0.13806 0.4051 0.23314 0.0
C1092 C 0.19222 0.41743 0.25826 0.0
C1093 C 0.1917 0.39864 0.26395 0.0
C1094 C 0.21144 0.43573 0.25452 0.0
C1095 C 0.213 0.45587 0.24614 0.0
C1096 C 0.20285 0.45824 0.21362 0.0
C1097 C 0.2043 0.47722 0.20596 0.0
C1098 C 0.21597 0.49401 0.23046 0.0
C1099 C 0.22627 0.49186 0.26263 0.0
C1100 C 0.22485 0.4729 0.27044 0.0
C1101 C 0.27158 0.40393 0.24315 0.0
C1102 C 0.28625 0.4159 0.27166 0.0
C1103 C 0.25304 0.40403 0.24041 0.0
C1104 C 0.24882 0.41607 0.26614 0.0
C1105 C 0.26353 0.42818 0.29431 0.0
C1106 C 0.28201 0.42804 0.29717 0.0
C1107 C 0.22908 0.41606 0.26383 0.0
C1108 C 0.22961 0.43482 0.25768 0.0
C1109 C 0.20987 0.39774 0.26712 0.0
C1110 C 0.20828 0.37761 0.27562 0.0
C1111 C 0.21778 0.37505 0.309 0.0
C1112 C 0.2163 0.35606 0.31674 0.0
C1113 C 0.20523 0.33946 0.29148 0.0
C1114 C 0.19557 0.3418 0.25847 0.0
C1115 C 0.19702 0.36077 0.25057 0.0
H1116 H 0.20409 0.32476 0.29753 0.0
H1117 H 0.21708 0.5087 0.22447 0.0
H1118 H 0.88207 0.26757 0.73734 0.0
H1119 H 0.84989 0.23454 0.73893 0.0
H1120 H 0.81551 0.26593 0.72289 0.0
H1121 H 0.84754 0.29898 0.72101 0.0
H1122 H 0.80115 0.23758 0.78479 0.0
H1123 H 0.81983 0.24044 0.64861 0.0
H1124 H 0.84285 0.24394 0.5939 0.0
H1125 H 0.84513 0.19101 0.63493 0.0
H1126 H 0.82234 0.18736 0.69023 0.0
H1127 H 0.70214 0.15429 0.74948 0.0
H1128 H 0.73515 0.18601 0.7446 0.0
H1129 H 0.76632 0.15085 0.74145 0.0
H1130 H 0.73314 0.11891 0.7449 0.0
H1131 H 0.78331 0.1807 0.69068 0.0
H1132 H 0.76507 0.17692 0.82576 0.0
H1133 H 0.74299 0.17306 0.88242 0.0
H1134 H 0.74123 0.22708 0.84703 0.0
H1135 H 0.76308 0.23112 0.78983 0.0
C1136 C 0.86767 0.26744 0.73388 0.0
C1137 C 0.86737 0.28591 0.72907 0.0
C1138 C 0.84931 0.24855 0.73469 0.0
C1139 C 0.83034 0.24781 0.73092 0.0
C1140 C 0.83 0.26619 0.72587 0.0
C1141 C 0.84834 0.28505 0.72465 0.0
C1142 C 0.81079 0.22795 0.73348 0.0
C1143 C 0.7971 0.22522 0.76395 0.0
C1144 C 0.8059 0.21161 0.70708 0.0
C1145 C 0.81956 0.21376 0.67379 0.0
C1146 C 0.82539 0.22965 0.64617 0.0
C1147 C 0.83837 0.23164 0.61501 0.0
C1148 C 0.8455 0.21774 0.611 0.0
C1149 C 0.83962 0.20179 0.6381 0.0
C1150 C 0.82666 0.19974 0.66934 0.0
C1151 C 0.71601 0.15328 0.74782 0.0
C1152 C 0.71502 0.13408 0.74784 0.0
C1153 C 0.73491 0.17146 0.7452 0.0
C1154 C 0.75331 0.17089 0.74344 0.0
C1155 C 0.75236 0.15171 0.74292 0.0
C1156 C 0.73339 0.13346 0.745 0.0
C1157 C 0.77346 0.19033 0.74186 0.0
C1158 C 0.78732 0.193 0.71166 0.0
C1159 C 0.77866 0.20655 0.76887 0.0
C1160 C 0.76556 0.20421 0.80331 0.0
C1161 C 0.75985 0.1879 0.8299 0.0
C1162 C 0.7474 0.18569 0.86214 0.0
C1163 C 0.74068 0.19979 0.86827 0.0
C1164 C 0.74644 0.21616 0.84222 0.0
C1165 C 0.75887 0.21843 0.80991 0.0
H1166 H 0.73104 0.19805 0.89324 0.0
H1167 H 0.85554 0.21931 0.58686 0.0
H1168 H 0.61392 0.73072 0.20453 0.0
H1169 H 0.61662 0.76452 0.20141 0.0
H1170 H 0.57067 0.74632 0.29207 0.0
H1171 H 0.56765 0.71235 0.29502 0.0
H1172 H 0.56337 0.76558 0.23301 0.0
H1173 H 0.62163 0.77846 0.31196 0.0
H1174 H 0.65355 0.77817 0.32746 0.0
H1175 H 0.68286 0.81553 0.22621 0.0
H1176 H 0.65101 0.81581 0.20981 0.0
H1177 H 0.57815 0.86402 0.2798 0.0
H1178 H 0.57558 0.8303 0.28127 0.0
H1179 H 0.62356 0.85051 0.19422 0.0
H1180 H 0.62659 0.88452 0.19332 0.0
H1181 H 0.62991 0.83016 0.2503 0.0
H1182 H 0.57204 0.81769 0.17134 0.0
H1183 H 0.54015 0.8179 0.15512 0.0
H1184 H 0.51012 0.77972 0.25507 0.0
H1185 H 0.54193 0.7795 0.27219 0.0
C1186 C 0.60442 0.7339 0.22392 0.0
C1187 C 0.5906 0.71882 0.25011 0.0
C1188 C 0.60604 0.75328 0.22218 0.0
C1189 C 0.594 0.75805 0.24679 0.0
C1190 C 0.58013 0.743 0.27283 0.0
C1191 C 0.57847 0.7236 0.27456 0.0
C1192 C 0.59566 0.77861 0.24501 0.0
C1193 C 0.57787 0.7797 0.23731 0.0
C1194 C 0.61468 0.79706 0.24955 0.0
C1195 C 0.63387 0.79699 0.25946 0.0
C1196 C 0.63483 0.78648 0.29284 0.0
C1197 C 0.65292 0.78634 0.30182 0.0
C1198 C 0.67021 0.79678 0.27778 0.0
C1199 C 0.66945 0.80743 0.24477 0.0
C1200 C 0.65139 0.8076 0.23565 0.0
C1201 C 0.58811 0.86129 0.26081 0.0
C1202 C 0.60255 0.87697 0.23635 0.0
C1203 C 0.58656 0.84194 0.26157 0.0
C1204 C 0.59918 0.83773 0.23746 0.0
C1205 C 0.61363 0.85337 0.21305 0.0
C1206 C 0.61531 0.8728 0.21249 0.0
C1207 C 0.5976 0.81716 0.23837 0.0
C1208 C 0.61541 0.81606 0.24591 0.0
C1209 C 0.5786 0.7987 0.23355 0.0
C1210 C 0.55943 0.79874 0.22324 0.0
C1211 C 0.55869 0.80947 0.19002 0.0
C1212 C 0.54062 0.80956 0.18064 0.0
C1213 C 0.52314 0.79887 0.2041 0.0
C1214 C 0.52368 0.78801 0.23694 0.0
C1215 C 0.54172 0.78788 0.24648 0.0
H1216 H 0.50917 0.79897 0.19679 0.0
H1217 H 0.6842 0.79665 0.28478 0.0
H1218 H 0.87502 0.59355 0.68462 0.0
H1219 H 0.84265 0.59301 0.67279 0.0
H1220 H 0.82704 0.58027 0.79533 0.0
H1221 H 0.85908 0.58023 0.80715 0.0
H1222 H 0.79469 0.55695 0.75207 0.0
H1223 H 0.84545 0.62912 0.75438 0.0
H1224 H 0.87722 0.66035 0.73385 0.0
H1225 H 0.85431 0.65275 0.61609 0.0
H1226 H 0.8225 0.62131 0.63584 0.0
H1227 H 0.71858 0.58532 0.77222 0.0
H1228 H 0.74983 0.58309 0.77568 0.0
H1229 H 0.75788 0.59227 0.65063 0.0
H1230 H 0.72661 0.59476 0.64689 0.0
H1231 H 0.79349 0.61612 0.68988 0.0
H1232 H 0.74149 0.54505 0.68944 0.0
H1233 H 0.70965 0.51421 0.71102 0.0
H1234 H 0.73485 0.52008 0.82641 0.0
H1235 H 0.76674 0.55113 0.80568 0.0
C1236 C 0.8647 0.59064 0.70906 0.0
C1237 C 0.86967 0.587 0.74687 0.0
C1238 C 0.84622 0.59041 0.70227 0.0
C1239 C 0.8325 0.58686 0.73326 0.0
C1240 C 0.83737 0.58304 0.77094 0.0
C1241 C 0.85574 0.58309 0.77768 0.0
C1242 C 0.81303 0.58706 0.72663 0.0
C1243 C 0.79447 0.56999 0.73884 0.0
C1244 C 0.81262 0.60381 0.70836 0.0
C1245 C 0.8317 0.62275 0.69649 0.0
C1246 C 0.84726 0.63403 0.72404 0.0
C1247 C 0.86526 0.65178 0.71256 0.0
C1248 C 0.86781 0.6585 0.67367 0.0
C1249 C 0.85233 0.64751 0.6462 0.0
C1250 C 0.83431 0.62974 0.65752 0.0
C1251 C 0.72691 0.58678 0.74536 0.0
C1252 C 0.72005 0.59019 0.70924 0.0
C1253 C 0.74475 0.58541 0.74739 0.0
C1254 C 0.75608 0.58728 0.71335 0.0
C1255 C 0.74933 0.59073 0.67724 0.0
C1256 C 0.73143 0.59208 0.67515 0.0
C1257 C 0.77523 0.58616 0.71587 0.0
C1258 C 0.79371 0.60303 0.70284 0.0
C1259 C 0.77558 0.56926 0.73354 0.0
C1260 C 0.75645 0.55052 0.74607 0.0
C1261 C 0.74019 0.53985 0.7195 0.0
C1262 C 0.72214 0.52232 0.73157 0.0
C1263 C 0.72021 0.51522 0.77008 0.0
C1264 C 0.73635 0.52561 0.79659 0.0
C1265 C 0.75443 0.54316 0.78468 0.0
H1266 H 0.70623 0.50164 0.77937 0.0
H1267 H 0.88176 0.67224 0.66483 0.0
H1268 H 0.29215 0.85269 0.17269 0.0
H1269 H 0.26018 0.81969 0.17423 0.0
H1270 H 0.23605 0.84301 0.26266 0.0
H1271 H 0.26824 0.876 0.26193 0.0
H1272 H 0.22671 0.8047 0.27972 0.0
H1273 H 0.22159 0.83935 0.1657 0.0
H1274 H 0.23292 0.85786 0.10269 0.0
H1275 H 0.23317 0.80587 0.05074 0.0
H1276 H 0.2221 0.78715 0.11361 0.0
H1277 H 0.12156 0.72874 0.26045 0.0
H1278 H 0.15416 0.76117 0.26028 0.0
H1279 H 0.17861 0.73647 0.1753 0.0
H1280 H 0.14592 0.70398 0.17494 0.0
H1281 H 0.18787 0.77526 0.15652 0.0
H1282 H 0.19242 0.74049 0.27102 0.0
H1283 H 0.1808 0.72217 0.33414 0.0
H1284 H 0.18118 0.77464 0.3853 0.0
H1285 H 0.19254 0.79318 0.32229 0.0
C1286 C 0.28008 0.85082 0.19257 0.0
C1287 C 0.28271 0.86704 0.21702 0.0
C1288 C 0.26176 0.83194 0.19328 0.0
C1289 C 0.24556 0.82897 0.21807 0.0
C1290 C 0.24831 0.84497 0.24319 0.0
C1291 C 0.2667 0.86384 0.24269 0.0
C1292 C 0.22572 0.80922 0.21755 0.0
C1293 C 0.21808 0.7984 0.25286 0.0
C1294 C 0.21466 0.80075 0.18237 0.0
C1295 C 0.2212 0.81193 0.14447 0.0
C1296 C 0.2242 0.83193 0.14091 0.0
C1297 C 0.23056 0.84244 0.10521 0.0
C1298 C 0.23381 0.83306 0.07276 0.0
C1299 C 0.23067 0.81312 0.07591 0.0
C1300 C 0.22433 0.80255 0.11156 0.0
C1301 C 0.13385 0.73017 0.24166 0.0
C1302 C 0.13113 0.71371 0.21778 0.0
C1303 C 0.15252 0.74871 0.24175 0.0
C1304 C 0.16892 0.75116 0.21815 0.0
C1305 C 0.16617 0.73489 0.19382 0.0
C1306 C 0.14749 0.71631 0.19372 0.0
C1307 C 0.18887 0.77076 0.21867 0.0
C1308 C 0.19651 0.78155 0.18336 0.0
C1309 C 0.19989 0.77924 0.25386 0.0
C1310 C 0.19314 0.76815 0.29183 0.0
C1311 C 0.18987 0.74806 0.29564 0.0
C1312 C 0.18336 0.73765 0.33142 0.0
C1313 C 0.1802 0.74721 0.36368 0.0
C1314 C 0.18361 0.76724 0.36026 0.0
C1315 C 0.1901 0.77771 0.32454 0.0
H1316 H 0.17516 0.73912 0.39135 0.0
H1317 H 0.23873 0.84123 0.04515 0.0
H1318 H 0.39203 0.26809 0.72581 0.0
H1319 H 0.39213 0.23561 0.72773 0.0
H1320 H 0.44284 0.26192 0.80909 0.0
H1321 H 0.44303 0.29461 0.80696 0.0
H1322 H 0.44906 0.24067 0.75268 0.0
H1323 H 0.39438 0.22829 0.84044 0.0
H1324 H 0.36236 0.22704 0.86145 0.0
H1325 H 0.32908 0.18359 0.7702 0.0
H1326 H 0.36098 0.18481 0.74827 0.0
H1327 H 0.44208 0.14666 0.81291 0.0
H1328 H 0.44182 0.17908 0.81209 0.0
H1329 H 0.39367 0.15444 0.72527 0.0
H1330 H 0.39381 0.12186 0.72589 0.0
H1331 H 0.38619 0.17477 0.78511 0.0
H1332 H 0.44148 0.18751 0.69766 0.0
H1333 H 0.47367 0.18876 0.67796 0.0
H1334 H 0.50601 0.23157 0.77066 0.0
H1335 H 0.47392 0.23036 0.79128 0.0
C1336 C 0.40319 0.26699 0.7442 0.0
C1337 C 0.41749 0.28396 0.76633 0.0
C1338 C 0.40317 0.24836 0.74539 0.0
C1339 C 0.41734 0.24624 0.7689 0.0
C1340 C 0.43174 0.26319 0.79079 0.0
C1341 C 0.43178 0.28185 0.78963 0.0
C1342 C 0.41729 0.22641 0.77017 0.0
C1343 C 0.43539 0.22631 0.76033 0.0
C1344 C 0.39934 0.20759 0.77935 0.0
C1345 C 0.38012 0.2068 0.79247 0.0
C1346 C 0.38027 0.2186 0.82464 0.0
C1347 C 0.36213 0.21788 0.83675 0.0
C1348 C 0.34371 0.20529 0.8171 0.0
C1349 C 0.34337 0.19336 0.78535 0.0
C1350 C 0.36147 0.19405 0.77309 0.0
C1351 C 0.43142 0.1481 0.79362 0.0
C1352 C 0.418 0.13167 0.76937 0.0
C1353 C 0.43134 0.16668 0.7931 0.0
C1354 C 0.41785 0.16923 0.76838 0.0
C1355 C 0.40423 0.15279 0.74453 0.0
C1356 C 0.40438 0.13422 0.74483 0.0
C1357 C 0.41793 0.18906 0.76755 0.0
C1358 C 0.39985 0.18915 0.77749 0.0
C1359 C 0.43592 0.20788 0.75866 0.0
C1360 C 0.45525 0.20868 0.74626 0.0
C1361 C 0.45542 0.19706 0.71405 0.0
C1362 C 0.47365 0.19778 0.70268 0.0
C1363 C 0.49186 0.21019 0.72311 0.0
C1364 C 0.49188 0.22195 0.7549 0.0
C1365 C 0.47368 0.22126 0.76642 0.0
H1366 H 0.50597 0.21074 0.71425 0.0
H1367 H 0.32968 0.20474 0.82653 0.0
loop_
_geom_bond_atom_site_label_1
_geom_bond_atom_site_label_2
_geom_bond_distance
_geom_bond_site_symmetry_2
_ccdc_geom_bond_type
Zn0 O3 2.031 . S
Zn0 O5 2.049 . S
Zn0 O10 2.067 . S
Zn1 O2 1.962 . S
Zn1 O4 1.986 . S
Zn1 O6 1.996 . S
Zn1 O9 1.943 . S
O2 Zn1 1.962 . S
O2 C7 1.254 . S
O3 Zn0 2.031 . S
O3 C7 1.269 . S
O4 Zn1 1.986 . S
O4 C11 1.262 . S
O5 Zn0 2.049 . S
O5 C13 1.260 . S
O6 Zn1 1.996 . S
O6 C13 1.257 . S
C7 O2 1.254 . S
C7 O3 1.269 . S
C8 O9 1.249 . S
C8 O10 1.270 . S
O9 Zn1 1.943 . S
O9 C8 1.249 . S
O10 Zn0 2.067 . S
O10 C8 1.270 . S
C11 O4 1.262 . S
C11 O12 1.232 . S
O12 C11 1.232 . S
C13 O5 1.260 . S
C13 O6 1.257 . S
Zn14 O17 2.031 . S
Zn14 O19 2.049 . S
Zn14 O24 2.067 . S
Zn15 O16 1.962 . S
Zn15 O18 1.986 . S
Zn15 O20 1.996 . S
Zn15 O23 1.943 . S
O16 Zn15 1.962 . S
O16 C21 1.254 . S
O17 Zn14 2.031 . S
O17 C21 1.269 . S
O18 Zn15 1.986 . S
O18 C25 1.262 . S
O19 Zn14 2.049 . S
O19 C27 1.260 . S
O20 Zn15 1.996 . S
O20 C27 1.257 . S
C21 O16 1.254 . S
C21 O17 1.269 . S
C22 O23 1.249 . S
C22 O24 1.270 . S
O23 Zn15 1.943 . S
O23 C22 1.249 . S
O24 Zn14 2.067 . S
O24 C22 1.270 . S
C25 O18 1.262 . S
C25 O26 1.232 . S
O26 C25 1.232 . S
C27 O19 1.260 . S
C27 O20 1.257 . S
Zn28 O31 2.031 . S
Zn28 O33 2.049 . S
Zn28 O38 2.067 . S
Zn29 O30 1.962 . S
Zn29 O32 1.986 . S
Zn29 O34 1.996 . S
Zn29 O37 1.943 . S
O30 Zn29 1.962 . S
O30 C35 1.254 . S
O31 Zn28 2.031 . S
O31 C35 1.269 . S
O32 Zn29 1.986 . S
O32 C39 1.262 . S
O33 Zn28 2.049 . S
O33 C41 1.260 . S
O34 Zn29 1.996 . S
O34 C41 1.257 . S
C35 O30 1.254 . S
C35 O31 1.269 . S
C36 O37 1.249 . S
C36 O38 1.270 . S
O37 Zn29 1.943 . S
O37 C36 1.249 . S
O38 Zn28 2.067 . S
O38 C36 1.270 . S
C39 O32 1.262 . S
C39 O40 1.232 . S
O40 C39 1.232 . S
C41 O33 1.260 . S
C41 O34 1.257 . S
Zn42 O45 2.031 . S
Zn42 O47 2.049 . S
Zn42 O52 2.067 . S
Zn43 O44 1.962 . S
Zn43 O46 1.986 . S
Zn43 O48 1.996 . S
Zn43 O51 1.943 . S
O44 Zn43 1.962 . S
O44 C49 1.254 . S
O45 Zn42 2.031 . S
O45 C49 1.269 . S
O46 Zn43 1.986 . S
O46 C53 1.262 . S
O47 Zn42 2.049 . S
O47 C55 1.260 . S
O48 Zn43 1.996 . S
O48 C55 1.257 . S
C49 O44 1.254 . S
C49 O45 1.269 . S
C50 O51 1.249 . S
C50 O52 1.270 . S
O51 Zn43 1.943 . S
O51 C50 1.249 . S
O52 Zn42 2.067 . S
O52 C50 1.270 . S
C53 O46 1.262 . S
C53 O54 1.232 . S
O54 C53 1.232 . S
C55 O47 1.260 . S
C55 O48 1.257 . S
Zn56 O59 2.031 . S
Zn56 O61 2.049 . S
Zn56 O66 2.067 . S
Zn57 O58 1.962 . S
Zn57 O60 1.986 . S
Zn57 O62 1.996 . S
Zn57 O65 1.943 . S
O58 Zn57 1.962 . S
O58 C63 1.254 . S
O59 Zn56 2.031 . S
O59 C63 1.269 . S
O60 Zn57 1.986 . S
O60 C67 1.262 . S
O61 Zn56 2.049 . S
O61 C69 1.260 . S
O62 Zn57 1.996 . S
O62 C69 1.257 . S
C63 O58 1.254 . S
C63 O59 1.269 . S
C64 O65 1.249 . S
C64 O66 1.270 . S
O65 Zn57 1.943 . S
O65 C64 1.249 . S
O66 Zn56 2.067 . S
O66 C64 1.270 . S
C67 O60 1.262 . S
C67 O68 1.232 . S
O68 C67 1.232 . S
C69 O61 1.260 . S
C69 O62 1.257 . S
Zn70 O73 2.031 . S
Zn70 O75 2.049 . S
Zn70 O80 2.067 . S
Zn71 O72 1.962 . S
Zn71 O74 1.986 . S
Zn71 O76 1.996 . S
Zn71 O79 1.943 . S
O72 Zn71 1.962 . S
O72 C77 1.254 . S
O73 Zn70 2.031 . S
O73 C77 1.269 . S
O74 Zn71 1.986 . S
O74 C81 1.262 . S
O75 Zn70 2.049 . S
O75 C83 1.260 . S
O76 Zn71 1.996 . S
O76 C83 1.257 . S
C77 O72 1.254 . S
C77 O73 1.269 . S
C78 O79 1.249 . S
C78 O80 1.270 . S
O79 Zn71 1.943 . S
O79 C78 1.249 . S
O80 Zn70 2.067 . S
O80 C78 1.270 . S
C81 O74 1.262 . S
C81 O82 1.232 . S
O82 C81 1.232 . S
C83 O75 1.260 . S
C83 O76 1.257 . S
Zn84 O87 2.031 . S
Zn84 O89 2.049 . S
Zn84 O94 2.067 . S
Zn85 O86 1.962 . S
Zn85 O88 1.986 . S
Zn85 O90 1.996 . S
Zn85 O93 1.943 . S
O86 Zn85 1.962 . S
O86 C91 1.254 . S
O87 Zn84 2.031 . S
O87 C91 1.269 . S
O88 Zn85 1.986 . S
O88 C95 1.262 . S
O89 Zn84 2.049 . S
O89 C97 1.260 . S
O90 Zn85 1.996 . S
O90 C97 1.257 . S
C91 O86 1.254 . S
C91 O87 1.269 . S
C92 O93 1.249 . S
C92 O94 1.270 . S
O93 Zn85 1.943 . S
O93 C92 1.249 . S
O94 Zn84 2.067 . S
O94 C92 1.270 . S
C95 O88 1.262 . S
C95 O96 1.232 . S
O96 C95 1.232 . S
C97 O89 1.260 . S
C97 O90 1.257 . S
Zn98 O101 2.031 . S
Zn98 O103 2.049 . S
Zn98 O108 2.067 . S
Zn99 O100 1.962 . S
Zn99 O102 1.986 . S
Zn99 O104 1.996 . S
Zn99 O107 1.943 . S
O100 Zn99 1.962 . S
O100 C105 1.254 . S
O101 Zn98 2.031 . S
O101 C105 1.269 . S
O102 Zn99 1.986 . S
O102 C109 1.262 . S
O103 Zn98 2.049 . S
O103 C111 1.260 . S
O104 Zn99 1.996 . S
O104 C111 1.257 . S
C105 O100 1.254 . S
C105 O101 1.269 . S
C106 O107 1.249 . S
C106 O108 1.270 . S
O107 Zn99 1.943 . S
O107 C106 1.249 . S
O108 Zn98 2.067 . S
O108 C106 1.270 . S
C109 O102 1.262 . S
C109 O110 1.232 . S
O110 C109 1.232 . S
C111 O103 1.260 . S
C111 O104 1.257 . S
Zn112 O115 2.031 . S
Zn112 O117 2.049 . S
Zn112 O122 2.067 . S
Zn113 O114 1.962 . S
Zn113 O116 1.986 . S
Zn113 O118 1.996 . S
Zn113 O121 1.943 . S
O114 Zn113 1.962 . S
O114 C119 1.254 . S
O115 Zn112 2.031 . S
O115 C119 1.269 . S
O116 Zn113 1.986 . S
O116 C123 1.262 . S
O117 Zn112 2.049 . S
O117 C125 1.260 . S
O118 Zn113 1.996 . S
O118 C125 1.257 . S
C119 O114 1.254 . S
C119 O115 1.269 . S
C120 O121 1.249 . S
C120 O122 1.270 . S
O121 Zn113 1.943 . S
O121 C120 1.249 . S
O122 Zn112 2.067 . S
O122 C120 1.270 . S
C123 O116 1.262 . S
C123 O124 1.232 . S
O124 C123 1.232 . S
C125 O117 1.260 . S
C125 O118 1.257 . S
Zn126 O129 2.031 . S
Zn126 O131 2.049 . S
Zn126 O136 2.067 . S
Zn127 O128 1.962 . S
Zn127 O130 1.986 . S
Zn127 O132 1.996 . S
Zn127 O135 1.943 . S
O128 Zn127 1.962 . S
O128 C133 1.254 . S
O129 Zn126 2.031 . S
O129 C133 1.269 . S
O130 Zn127 1.986 . S
O130 C137 1.262 . S
O131 Zn126 2.049 . S
O131 C139 1.260 . S
O132 Zn127 1.996 . S
O132 C139 1.257 . S
C133 O128 1.254 . S
C133 O129 1.269 . S
C134 O135 1.249 . S
C134 O136 1.270 . S
O135 Zn127 1.943 . S
O135 C134 1.249 . S
O136 Zn126 2.067 . S
O136 C134 1.270 . S
C137 O130 1.262 . S
C137 O138 1.232 . S
O138 C137 1.232 . S
C139 O131 1.260 . S
C139 O132 1.257 . S
Zn140 O143 2.031 . S
Zn140 O145 2.049 . S
Zn140 O150 2.067 . S
Zn141 O142 1.962 . S
Zn141 O144 1.986 . S
Zn141 O146 1.996 . S
Zn141 O149 1.943 . S
O142 Zn141 1.962 . S
O142 C147 1.254 . S
O143 Zn140 2.031 . S
O143 C147 1.269 . S
O144 Zn141 1.986 . S
O144 C151 1.262 . S
O145 Zn140 2.049 . S
O145 C153 1.260 . S
O146 Zn141 1.996 . S
O146 C153 1.257 . S
C147 O142 1.254 . S
C147 O143 1.269 . S
C148 O149 1.249 . S
C148 O150 1.270 . S
O149 Zn141 1.943 . S
O149 C148 1.249 . S
O150 Zn140 2.067 . S
O150 C148 1.270 . S
C151 O144 1.262 . S
C151 O152 1.232 . S
O152 C151 1.232 . S
C153 O145 1.260 . S
C153 O146 1.257 . S
Zn154 O157 2.031 . S
Zn154 O159 2.049 . S
Zn154 O164 2.067 . S
Zn155 O156 1.962 . S
Zn155 O158 1.986 . S
Zn155 O160 1.996 . S
Zn155 O163 1.943 . S
O156 Zn155 1.962 . S
O156 C161 1.254 . S
O157 Zn154 2.031 . S
O157 C161 1.269 . S
O158 Zn155 1.986 . S
O158 C165 1.262 . S
O159 Zn154 2.049 . S
O159 C167 1.260 . S
O160 Zn155 1.996 . S
O160 C167 1.257 . S
C161 O156 1.254 . S
C161 O157 1.269 . S
C162 O163 1.249 . S
C162 O164 1.270 . S
O163 Zn155 1.943 . S
O163 C162 1.249 . S
O164 Zn154 2.067 . S
O164 C162 1.270 . S
C165 O158 1.262 . S
C165 O166 1.232 . S
O166 C165 1.232 . S
C167 O159 1.260 . S
C167 O160 1.257 . S
H168 C186 0.951 . S
H169 C188 0.902 1_655 S
H170 C190 0.950 . S
H171 C191 0.950 . S
H172 C193 0.950 . S
H173 C196 0.937 1_455 S
H174 C197 0.950 . S
H175 C199 0.950 . S
H176 C200 0.950 . S
H177 C201 0.951 . S
H178 C203 0.902 1_455 S
H179 C205 0.950 . S
H180 C206 0.950 . S
H181 C208 0.950 . S
H182 C211 0.936 1_655 S
H183 C212 0.950 . S
H184 C214 0.950 . S
H185 C215 0.950 . S
C186 H168 0.951 . S
C186 C187 1.366 . S
C186 C188 1.388 . S
C187 C186 1.366 . S
C187 C191 1.385 . S
C188 H169 0.902 1_455 S
C188 C186 1.388 . S
C188 C189 1.366 . S
C189 C188 1.366 . S
C189 C190 1.414 . S
C189 C192 1.499 . S
C190 H170 0.950 . S
C190 C189 1.414 . S
C190 C191 1.374 . S
C191 H171 0.950 . S
C191 C187 1.385 . S
C191 C190 1.374 . S
C192 C189 1.499 . S
C192 C193 1.373 . S
C192 C194 1.389 1_455 S
C193 H172 0.950 . S
C193 C192 1.373 . S
C193 C209 1.377 1_554 S
C194 C192 1.389 1_655 S
C194 C195 1.524 . S
C194 C208 1.377 1_554 S
C195 C194 1.524 . S
C195 C196 1.397 . S
C195 C200 1.363 . S
C196 H173 0.937 1_655 S
C196 C195 1.397 . S
C196 C197 1.334 . S
C197 H174 0.950 . S
C197 C196 1.334 . S
C197 C198 1.287 . S
C198 C197 1.287 . S
C198 C199 1.524 . S
C198 H217 0.913 . S
C199 H175 0.950 . S
C199 C198 1.524 . S
C199 C200 1.415 . S
C200 H176 0.950 . S
C200 C195 1.363 . S
C200 C199 1.415 . S
C201 H177 0.951 . S
C201 C202 1.366 . S
C201 C203 1.388 . S
C202 C201 1.366 . S
C202 C206 1.385 . S
C203 H178 0.902 1_655 S
C203 C201 1.388 . S
C203 C204 1.366 . S
C204 C203 1.366 . S
C204 C205 1.414 . S
C204 C207 1.499 . S
C205 H179 0.950 . S
C205 C204 1.414 . S
C205 C206 1.374 . S
C206 H180 0.950 . S
C206 C202 1.385 . S
C206 C205 1.374 . S
C207 C204 1.499 . S
C207 C208 1.373 . S
C207 C209 1.389 1_655 S
C208 H181 0.950 . S
C208 C194 1.377 1_556 S
C208 C207 1.373 . S
C209 C193 1.377 1_556 S
C209 C207 1.389 1_455 S
C209 C210 1.524 . S
C210 C209 1.524 . S
C210 C211 1.397 . S
C210 C215 1.363 . S
C211 H182 0.936 1_455 S
C211 C210 1.397 . S
C211 C212 1.334 . S
C212 H183 0.950 . S
C212 C211 1.334 . S
C212 C213 1.287 . S
C213 C212 1.287 . S
C213 C214 1.524 . S
C213 H216 0.999 . S
C214 H184 0.950 . S
C214 C213 1.524 . S
C214 C215 1.415 . S
C215 H185 0.950 . S
C215 C210 1.363 . S
C215 C214 1.415 . S
H216 C213 0.999 . S
H217 C198 0.913 . S
H218 C236 0.951 . S
H219 C238 0.951 . S
H220 C240 0.917 1_545 S
H221 C241 0.950 . S
H222 C243 0.950 . S
H223 C246 0.950 1_545 S
H224 C247 0.950 . S
H225 C249 0.950 . S
H226 C250 0.950 . S
H227 C251 0.951 . S
H228 C253 0.951 . S
H229 C255 0.918 1_565 S
H230 C256 0.950 . S
H231 C258 0.950 . S
H232 C261 0.950 1_565 S
H233 C262 0.950 . S
H234 C264 0.950 . S
H235 C265 0.950 . S
C236 H218 0.951 . S
C236 C237 1.366 . S
C236 C238 1.388 . S
C237 C236 1.366 . S
C237 C241 1.385 . S
C238 H219 0.951 . S
C238 C236 1.388 . S
C238 C239 1.366 . S
C239 C238 1.366 . S
C239 C240 1.414 . S
C239 C242 1.499 . S
C240 H220 0.917 1_565 S
C240 C239 1.414 . S
C240 C241 1.374 . S
C241 H221 0.950 . S
C241 C237 1.385 . S
C241 C240 1.374 . S
C242 C239 1.499 . S
C242 C243 1.373 . S
C242 C244 1.389 . S
C243 H222 0.950 . S
C243 C242 1.373 . S
C243 C259 1.377 1_565 S
C244 C242 1.389 . S
C244 C245 1.524 . S
C244 C258 1.377 1_565 S
C245 C244 1.524 . S
C245 C246 1.397 . S
C245 C250 1.363 . S
C246 H223 0.950 1_565 S
C246 C245 1.397 . S
C246 C247 1.334 . S
C247 H224 0.950 . S
C247 C246 1.334 . S
C247 C248 1.287 . S
C248 C247 1.287 . S
C248 C249 1.524 . S
C248 H267 0.913 . S
C249 H225 0.950 . S
C249 C248 1.524 . S
C249 C250 1.415 . S
C250 H226 0.950 . S
C250 C245 1.363 . S
C250 C249 1.415 . S
C251 H227 0.951 . S
C251 C252 1.366 . S
C251 C253 1.388 . S
C252 C251 1.366 . S
C252 C256 1.385 . S
C253 H228 0.951 . S
C253 C251 1.388 . S
C253 C254 1.366 . S
C254 C253 1.366 . S
C254 C255 1.414 . S
C254 C257 1.499 . S
C255 H229 0.918 1_545 S
C255 C254 1.414 . S
C255 C256 1.374 . S
C256 H230 0.950 . S
C256 C252 1.385 . S
C256 C255 1.374 . S
C257 C254 1.499 . S
C257 C258 1.373 . S
C257 C259 1.389 . S
C258 H231 0.950 . S
C258 C244 1.377 1_545 S
C258 C257 1.373 . S
C259 C243 1.377 1_545 S
C259 C257 1.389 . S
C259 C260 1.524 . S
C260 C259 1.524 . S
C260 C261 1.397 . S
C260 C265 1.363 . S
C261 H232 0.950 1_545 S
C261 C260 1.397 . S
C261 C262 1.334 . S
C262 H233 0.950 . S
C262 C261 1.334 . S
C262 C263 1.287 . S
C263 C262 1.287 . S
C263 C264 1.524 . S
C263 H266 0.999 . S
C264 H234 0.950 . S
C264 C263 1.524 . S
C264 C265 1.415 . S
C265 H235 0.950 . S
C265 C260 1.363 . S
C265 C264 1.415 . S
H266 C263 0.999 . S
H267 C248 0.913 . S
H268 C286 0.951 . S
H269 C288 0.951 . S
H270 C290 0.950 . S
H271 C291 0.950 . S
H272 C293 0.950 . S
H273 C296 0.950 . S
H274 C297 0.950 . S
H275 C299 0.950 . S
H276 C300 0.950 . S
H277 C301 0.951 . S
H278 C303 0.951 . S
H279 C305 0.950 . S
H280 C306 0.950 . S
H281 C308 0.950 . S
H282 C311 0.950 . S
H283 C312 0.950 . S
H284 C314 0.950 . S
H285 C315 0.950 . S
C286 H268 0.951 . S
C286 C287 1.366 . S
C286 C288 1.388 . S
C287 C286 1.366 . S
C287 C291 1.385 . S
C288 H269 0.951 . S
C288 C286 1.388 . S
C288 C289 1.366 . S
C289 C288 1.366 . S
C289 C290 1.414 . S
C289 C292 1.499 . S
C290 H270 0.950 . S
C290 C289 1.414 . S
C290 C291 1.374 . S
C291 H271 0.950 . S
C291 C287 1.385 . S
C291 C290 1.374 . S
C292 C289 1.499 . S
C292 C293 1.373 . S
C292 C294 1.390 . S
C293 H272 0.950 . S
C293 C292 1.373 . S
C293 C309 1.375 1_554 S
C294 C292 1.390 . S
C294 C295 1.524 1_554 S
C294 C308 1.375 1_554 S
C295 C294 1.524 1_556 S
C295 C296 1.397 1_556 S
C295 C300 1.363 . S
C296 H273 0.950 . S
C296 C295 1.397 1_554 S
C296 C297 1.334 . S
C297 H274 0.950 . S
C297 C296 1.334 . S
C297 C298 1.287 1_554 S
C298 C297 1.287 1_556 S
C298 C299 1.524 . S
C298 H317 0.913 . S
C299 H275 0.950 . S
C299 C298 1.524 . S
C299 C300 1.415 . S
C300 H276 0.950 . S
C300 C295 1.363 . S
C300 C299 1.415 . S
C301 H277 0.951 . S
C301 C302 1.366 . S
C301 C303 1.388 . S
C302 C301 1.366 . S
C302 C306 1.385 . S
C303 H278 0.951 . S
C303 C301 1.388 . S
C303 C304 1.366 . S
C304 C303 1.366 . S
C304 C305 1.414 . S
C304 C307 1.499 . S
C305 H279 0.950 . S
C305 C304 1.414 . S
C305 C306 1.374 . S
C306 H280 0.950 . S
C306 C302 1.385 . S
C306 C305 1.374 . S
C307 C304 1.499 . S
C307 C308 1.373 . S
C307 C309 1.390 . S
C308 H281 0.950 . S
C308 C294 1.375 1_556 S
C308 C307 1.373 . S
C309 C293 1.375 1_556 S
C309 C307 1.390 . S
C309 C310 1.524 1_556 S
C310 C309 1.524 1_554 S
C310 C311 1.397 1_554 S
C310 C315 1.363 . S
C311 H282 0.950 . S
C311 C310 1.397 1_556 S
C311 C312 1.334 . S
C312 H283 0.950 . S
C312 C311 1.334 . S
C312 C313 1.287 1_556 S
C313 C312 1.287 1_554 S
C313 C314 1.524 . S
C313 H316 0.999 . S
C314 H284 0.950 . S
C314 C313 1.524 . S
C314 C315 1.415 . S
C315 H285 0.950 . S
C315 C310 1.363 . S
C315 C314 1.415 . S
H316 C313 0.999 . S
H317 C298 0.913 . S
H318 C336 0.951 . S
H319 C338 0.951 . S
H320 C340 0.950 . S
H321 C341 0.950 . S
H322 C343 0.950 . S
H323 C346 0.950 . S
H324 C347 0.950 . S
H325 C349 0.950 . S
H326 C350 0.950 . S
H327 C351 0.951 . S
H328 C353 0.951 . S
H329 C355 0.950 . S
H330 C356 0.950 . S
H331 C358 0.950 . S
H332 C361 0.950 . S
H333 C362 0.950 . S
H334 C364 0.950 . S
H335 C365 0.950 . S
C336 H318 0.951 . S
C336 C337 1.366 . S
C336 C338 1.388 . S
C337 C336 1.366 . S
C337 C341 1.385 . S
C338 H319 0.951 . S
C338 C336 1.388 . S
C338 C339 1.366 . S
C339 C338 1.366 . S
C339 C340 1.414 . S
C339 C342 1.499 . S
C340 H320 0.950 . S
C340 C339 1.414 . S
C340 C341 1.374 . S
C341 H321 0.950 . S
C341 C337 1.385 . S
C341 C340 1.374 . S
C342 C339 1.499 . S
C342 C343 1.373 . S
C342 C344 1.389 . S
C343 H322 0.950 . S
C343 C342 1.373 . S
C343 C359 1.377 1_455 S
C344 C342 1.389 . S
C344 C345 1.510 . S
C344 C358 1.377 1_455 S
C345 C344 1.510 . S
C345 C346 1.384 1_455 S
C345 C350 1.387 . S
C346 H323 0.950 . S
C346 C345 1.384 1_655 S
C346 C347 1.334 . S
C347 H324 0.950 . S
C347 C346 1.334 . S
C347 C348 1.287 . S
C348 C347 1.287 . S
C348 C349 1.524 1_655 S
C348 H367 0.913 . S
C349 H325 0.950 . S
C349 C348 1.524 1_455 S
C349 C350 1.415 . S
C350 H326 0.950 . S
C350 C345 1.387 . S
C350 C349 1.415 . S
C351 H327 0.951 . S
C351 C352 1.366 . S
C351 C353 1.388 . S
C352 C351 1.366 . S
C352 C356 1.385 . S
C353 H328 0.951 . S
C353 C351 1.388 . S
C353 C354 1.366 . S
C354 C353 1.366 . S
C354 C355 1.414 . S
C354 C357 1.499 . S
C355 H329 0.950 . S
C355 C354 1.414 . S
C355 C356 1.374 . S
C356 H330 0.950 . S
C356 C352 1.385 . S
C356 C355 1.374 . S
C357 C354 1.499 . S
C357 C358 1.373 . S
C357 C359 1.389 . S
C358 H331 0.950 . S
C358 C344 1.377 1_655 S
C358 C357 1.373 . S
C359 C343 1.377 1_655 S
C359 C357 1.389 . S
C359 C360 1.510 . S
C360 C359 1.510 . S
C360 C361 1.384 1_655 S
C360 C365 1.387 . S
C361 H332 0.950 . S
C361 C360 1.384 1_455 S
C361 C362 1.334 . S
C362 H333 0.950 . S
C362 C361 1.334 . S
C362 C363 1.287 . S
C363 C362 1.287 . S
C363 C364 1.524 1_455 S
C363 H366 0.999 . S
C364 H334 0.950 . S
C364 C363 1.524 1_655 S
C364 C365 1.415 . S
C365 H335 0.950 . S
C365 C360 1.387 . S
C365 C364 1.415 . S
H366 C363 0.999 . S
H367 C348 0.913 . S
H368 C386 0.951 . S
H369 C388 0.951 . S
H370 C390 0.950 . S
H371 C391 0.950 . S
H372 C393 0.950 . S
H373 C396 0.950 . S
H374 C397 0.950 . S
H375 C399 0.950 . S
H376 C400 0.950 . S
H377 C401 0.951 . S
H378 C403 0.951 . S
H379 C405 0.950 . S
H380 C406 0.950 . S
H381 C408 0.950 . S
H382 C411 0.950 . S
H383 C412 0.950 . S
H384 C414 0.950 . S
H385 C415 0.950 . S
C386 H368 0.951 . S
C386 C387 1.366 . S
C386 C388 1.388 . S
C387 C386 1.366 . S
C387 C391 1.385 . S
C388 H369 0.951 . S
C388 C386 1.388 . S
C388 C389 1.366 . S
C389 C388 1.366 . S
C389 C390 1.414 . S
C389 C392 1.499 . S
C390 H370 0.950 . S
C390 C389 1.414 . S
C390 C391 1.374 . S
C391 H371 0.950 . S
C391 C387 1.385 . S
C391 C390 1.374 . S
C392 C389 1.499 . S
C392 C393 1.373 1_545 S
C392 C394 1.399 . S
C393 H372 0.950 . S
C393 C392 1.373 1_565 S
C393 C409 1.367 1_556 S
C394 C392 1.399 . S
C394 C395 1.524 1_556 S
C394 C408 1.367 1_556 S
C395 C394 1.524 1_554 S
C395 C396 1.397 1_554 S
C395 C400 1.363 . S
C396 H373 0.950 . S
C396 C395 1.397 1_556 S
C396 C397 1.334 . S
C397 H374 0.950 . S
C397 C396 1.334 . S
C397 C398 1.287 1_556 S
C398 C397 1.287 1_554 S
C398 C399 1.524 . S
C398 H417 0.913 . S
C399 H375 0.950 . S
C399 C398 1.524 . S
C399 C400 1.415 . S
C400 H376 0.950 . S
C400 C395 1.363 . S
C400 C399 1.415 . S
C401 H377 0.951 . S
C401 C402 1.366 . S
C401 C403 1.388 . S
C402 C401 1.366 . S
C402 C406 1.385 . S
C403 H378 0.951 . S
C403 C401 1.388 . S
C403 C404 1.366 . S
C404 C403 1.366 . S
C404 C405 1.414 . S
C404 C407 1.499 . S
C405 H379 0.950 . S
C405 C404 1.414 . S
C405 C406 1.374 . S
C406 H380 0.950 . S
C406 C402 1.385 . S
C406 C405 1.374 . S
C407 C404 1.499 . S
C407 C408 1.373 1_565 S
C407 C409 1.399 . S
C408 H381 0.950 . S
C408 C394 1.367 1_554 S
C408 C407 1.373 1_545 S
C409 C393 1.367 1_554 S
C409 C407 1.399 . S
C409 C410 1.524 1_554 S
C410 C409 1.524 1_556 S
C410 C411 1.397 1_556 S
C410 C415 1.363 . S
C411 H382 0.950 . S
C411 C410 1.397 1_554 S
C411 C412 1.334 . S
C412 H383 0.950 . S
C412 C411 1.334 . S
C412 C413 1.287 1_554 S
C413 C412 1.287 1_556 S
C413 C414 1.524 . S
C413 H416 0.999 . S
C414 H384 0.950 . S
C414 C413 1.524 . S
C414 C415 1.415 . S
C415 H385 0.950 . S
C415 C410 1.363 . S
C415 C414 1.415 . S
H416 C413 0.999 . S
H417 C398 0.913 . S
H418 C436 0.951 . S
H419 C438 0.951 . S
H420 C440 0.950 . S
H421 C441 0.950 . S
H422 C443 0.950 . S
H423 C446 0.950 . S
H424 C447 0.950 . S
H425 C449 0.950 . S
H426 C450 0.950 . S
H427 C451 0.951 . S
H428 C453 0.951 . S
H429 C455 0.950 . S
H430 C456 0.950 . S
H431 C458 0.950 . S
H432 C461 0.950 . S
H433 C462 0.950 . S
H434 C464 0.950 . S
H435 C465 0.950 . S
C436 H418 0.951 . S
C436 C437 1.366 . S
C436 C438 1.388 . S
C437 C436 1.366 . S
C437 C441 1.385 . S
C438 H419 0.951 . S
C438 C436 1.388 . S
C438 C439 1.366 . S
C439 C438 1.366 . S
C439 C440 1.414 . S
C439 C442 1.499 . S
C440 H420 0.950 . S
C440 C439 1.414 . S
C440 C441 1.374 . S
C441 H421 0.950 . S
C441 C437 1.385 . S
C441 C440 1.374 . S
C442 C439 1.499 . S
C442 C443 1.373 . S
C442 C444 1.389 . S
C443 H422 0.950 . S
C443 C442 1.373 . S
C443 C459 1.377 . S
C444 C442 1.389 . S
C444 C445 1.524 . S
C444 C458 1.377 . S
C445 C444 1.524 . S
C445 C446 1.397 . S
C445 C450 1.363 . S
C446 H423 0.950 . S
C446 C445 1.397 . S
C446 C447 1.334 . S
C447 H424 0.950 . S
C447 C446 1.334 . S
C447 C448 1.287 . S
C448 C447 1.287 . S
C448 C449 1.524 . S
C448 H467 0.913 . S
C449 H425 0.950 . S
C449 C448 1.524 . S
C449 C450 1.415 . S
C450 H426 0.950 . S
C450 C445 1.363 . S
C450 C449 1.415 . S
C451 H427 0.951 . S
C451 C452 1.366 . S
C451 C453 1.388 . S
C452 C451 1.366 . S
C452 C456 1.385 . S
C453 H428 0.951 . S
C453 C451 1.388 . S
C453 C454 1.366 . S
C454 C453 1.366 . S
C454 C455 1.414 . S
C454 C457 1.499 . S
C455 H429 0.950 . S
C455 C454 1.414 . S
C455 C456 1.374 . S
C456 H430 0.950 . S
C456 C452 1.385 . S
C456 C455 1.374 . S
C457 C454 1.499 . S
C457 C458 1.373 . S
C457 C459 1.389 . S
C458 H431 0.950 . S
C458 C444 1.377 . S
C458 C457 1.373 . S
C459 C443 1.377 . S
C459 C457 1.389 . S
C459 C460 1.524 . S
C460 C459 1.524 . S
C460 C461 1.397 . S
C460 C465 1.363 . S
C461 H432 0.950 . S
C461 C460 1.397 . S
C461 C462 1.334 . S
C462 H433 0.950 . S
C462 C461 1.334 . S
C462 C463 1.287 . S
C463 C462 1.287 . S
C463 C464 1.524 . S
C463 H466 0.999 . S
C464 H434 0.950 . S
C464 C463 1.524 . S
C464 C465 1.415 . S
C465 H435 0.950 . S
C465 C460 1.363 . S
C465 C464 1.415 . S
H466 C463 0.999 . S
H467 C448 0.913 . S
H468 C486 0.951 . S
H469 C488 0.951 . S
H470 C490 0.950 . S
H471 C491 0.950 . S
H472 C493 0.950 . S
H473 C496 0.950 . S
H474 C497 0.950 . S
H475 C499 0.950 . S
H476 C500 0.950 . S
H477 C501 0.951 . S
H478 C503 0.951 . S
H479 C505 0.950 . S
H480 C506 0.950 . S
H481 C508 0.950 . S
H482 C511 0.950 . S
H483 C512 0.950 . S
H484 C514 0.950 . S
H485 C515 0.950 . S
C486 H468 0.951 . S
C486 C487 1.366 . S
C486 C488 1.388 . S
C487 C486 1.366 . S
C487 C491 1.385 . S
C488 H469 0.951 . S
C488 C486 1.388 . S
C488 C489 1.366 . S
C489 C488 1.366 . S
C489 C490 1.414 . S
C489 C492 1.499 . S
C490 H470 0.950 . S
C490 C489 1.414 . S
C490 C491 1.374 . S
C491 H471 0.950 . S
C491 C487 1.385 . S
C491 C490 1.374 . S
C492 C489 1.499 . S
C492 C493 1.373 . S
C492 C494 1.389 1_655 S
C493 H472 0.950 . S
C493 C492 1.373 . S
C493 C509 1.377 1_556 S
C494 C492 1.389 1_455 S
C494 C495 1.524 . S
C494 C508 1.377 1_556 S
C495 C494 1.524 . S
C495 C496 1.397 . S
C495 C500 1.363 . S
C496 H473 0.950 . S
C496 C495 1.397 . S
C496 C497 1.334 . S
C497 H474 0.950 . S
C497 C496 1.334 . S
C497 C498 1.287 . S
C498 C497 1.287 . S
C498 C499 1.524 . S
C498 H517 0.913 . S
C499 H475 0.950 . S
C499 C498 1.524 . S
C499 C500 1.415 . S
C500 H476 0.950 . S
C500 C495 1.363 . S
C500 C499 1.415 . S
C501 H477 0.951 . S
C501 C502 1.366 . S
C501 C503 1.388 . S
C502 C501 1.366 . S
C502 C506 1.385 . S
C503 H478 0.951 . S
C503 C501 1.388 . S
C503 C504 1.366 . S
C504 C503 1.366 . S
C504 C505 1.414 . S
C504 C507 1.499 . S
C505 H479 0.950 . S
C505 C504 1.414 . S
C505 C506 1.374 . S
C506 H480 0.950 . S
C506 C502 1.385 . S
C506 C505 1.374 . S
C507 C504 1.499 . S
C507 C508 1.373 . S
C507 C509 1.389 1_455 S
C508 H481 0.950 . S
C508 C494 1.377 1_554 S
C508 C507 1.373 . S
C509 C493 1.377 1_554 S
C509 C507 1.389 1_655 S
C509 C510 1.524 . S
C510 C509 1.524 . S
C510 C511 1.397 . S
C510 C515 1.363 . S
C511 H482 0.950 . S
C511 C510 1.397 . S
C511 C512 1.334 . S
C512 H483 0.950 . S
C512 C511 1.334 . S
C512 C513 1.287 . S
C513 C512 1.287 . S
C513 C514 1.524 . S
C513 H516 0.999 . S
C514 H484 0.950 . S
C514 C513 1.524 . S
C514 C515 1.415 . S
C515 H485 0.950 . S
C515 C510 1.363 . S
C515 C514 1.415 . S
H516 C513 0.999 . S
H517 C498 0.913 . S
H518 C536 0.951 . S
H519 C538 0.951 . S
H520 C540 0.950 . S
H521 C541 0.950 . S
H522 C543 0.950 . S
H523 C546 0.950 . S
H524 C547 0.950 . S
H525 C549 0.950 . S
H526 C550 0.950 . S
H527 C551 0.951 . S
H528 C553 0.951 . S
H529 C555 0.950 . S
H530 C556 0.950 . S
H531 C558 0.950 . S
H532 C561 0.950 . S
H533 C562 0.950 . S
H534 C564 0.950 . S
H535 C565 0.950 . S
C536 H518 0.951 . S
C536 C537 1.366 . S
C536 C538 1.388 . S
C537 C536 1.366 . S
C537 C541 1.385 . S
C538 H519 0.951 . S
C538 C536 1.388 . S
C538 C539 1.366 . S
C539 C538 1.366 . S
C539 C540 1.414 . S
C539 C542 1.499 . S
C540 H520 0.950 . S
C540 C539 1.414 . S
C540 C541 1.374 . S
C541 H521 0.950 . S
C541 C537 1.385 . S
C541 C540 1.374 . S
C542 C539 1.499 . S
C542 C543 1.373 1_565 S
C542 C544 1.389 . S
C543 H522 0.950 . S
C543 C542 1.373 1_545 S
C543 C559 1.377 . S
C544 C542 1.389 . S
C544 C545 1.524 . S
C544 C558 1.377 . S
C545 C544 1.524 . S
C545 C546 1.397 . S
C545 C550 1.363 . S
C546 H523 0.950 . S
C546 C545 1.397 . S
C546 C547 1.334 . S
C547 H524 0.950 . S
C547 C546 1.334 . S
C547 C548 1.287 . S
C548 C547 1.287 . S
C548 C549 1.524 . S
C548 H567 0.913 . S
C549 H525 0.950 . S
C549 C548 1.524 . S
C549 C550 1.415 . S
C550 H526 0.950 . S
C550 C545 1.363 . S
C550 C549 1.415 . S
C551 H527 0.951 . S
C551 C552 1.366 . S
C551 C553 1.388 . S
C552 C551 1.366 . S
C552 C556 1.385 . S
C553 H528 0.951 . S
C553 C551 1.388 . S
C553 C554 1.366 . S
C554 C553 1.366 . S
C554 C555 1.414 . S
C554 C557 1.499 . S
C555 H529 0.950 . S
C555 C554 1.414 . S
C555 C556 1.374 . S
C556 H530 0.950 . S
C556 C552 1.385 . S
C556 C555 1.374 . S
C557 C554 1.499 . S
C557 C558 1.373 1_545 S
C557 C559 1.389 . S
C558 H531 0.950 . S
C558 C544 1.377 . S
C558 C557 1.373 1_565 S
C559 C543 1.377 . S
C559 C557 1.389 . S
C559 C560 1.524 . S
C560 C559 1.524 . S
C560 C561 1.397 . S
C560 C565 1.363 . S
C561 H532 0.950 . S
C561 C560 1.397 . S
C561 C562 1.334 . S
C562 H533 0.950 . S
C562 C561 1.334 . S
C562 C563 1.287 . S
C563 C562 1.287 . S
C563 C564 1.524 . S
C563 H566 0.999 . S
C564 H534 0.950 . S
C564 C563 1.524 . S
C564 C565 1.415 . S
C565 H535 0.950 . S
C565 C560 1.363 . S
C565 C564 1.415 . S
H566 C563 0.999 . S
H567 C548 0.913 . S
H568 C586 0.951 . S
H569 C588 0.951 . S
H570 C590 0.950 . S
H571 C591 0.950 . S
H572 C593 0.950 . S
H573 C596 0.950 . S
H574 C597 0.950 . S
H575 C599 0.950 . S
H576 C600 0.950 . S
H577 C601 0.951 . S
H578 C603 0.951 . S
H579 C605 0.950 . S
H580 C606 0.950 . S
H581 C608 0.950 . S
H582 C611 0.950 . S
H583 C612 0.950 . S
H584 C614 0.950 . S
H585 C615 0.950 . S
C586 H568 0.951 . S
C586 C587 1.366 . S
C586 C588 1.388 . S
C587 C586 1.366 . S
C587 C591 1.385 . S
C588 H569 0.951 . S
C588 C586 1.388 . S
C588 C589 1.366 . S
C589 C588 1.366 . S
C589 C590 1.414 . S
C589 C592 1.499 . S
C590 H570 0.950 . S
C590 C589 1.414 . S
C590 C591 1.374 . S
C591 H571 0.950 . S
C591 C587 1.385 . S
C591 C590 1.374 . S
C592 C589 1.499 . S
C592 C593 1.373 . S
C592 C594 1.389 . S
C593 H572 0.950 . S
C593 C592 1.373 . S
C593 C609 1.377 1_556 S
C594 C592 1.389 . S
C594 C595 1.524 1_556 S
C594 C608 1.377 1_556 S
C595 C594 1.524 1_554 S
C595 C596 1.397 1_554 S
C595 C600 1.363 . S
C596 H573 0.950 . S
C596 C595 1.397 1_556 S
C596 C597 1.334 . S
C597 H574 0.950 . S
C597 C596 1.334 . S
C597 C598 1.287 1_556 S
C598 C597 1.287 1_554 S
C598 C599 1.524 . S
C598 H617 0.913 . S
C599 H575 0.950 . S
C599 C598 1.524 . S
C599 C600 1.415 . S
C600 H576 0.950 . S
C600 C595 1.363 . S
C600 C599 1.415 . S
C601 H577 0.951 . S
C601 C602 1.366 . S
C601 C603 1.388 . S
C602 C601 1.366 . S
C602 C606 1.385 . S
C603 H578 0.951 . S
C603 C601 1.388 . S
C603 C604 1.366 . S
C604 C603 1.366 . S
C604 C605 1.414 . S
C604 C607 1.499 . S
C605 H579 0.950 . S
C605 C604 1.414 . S
C605 C606 1.374 . S
C606 H580 0.950 . S
C606 C602 1.385 . S
C606 C605 1.374 . S
C607 C604 1.499 . S
C607 C608 1.373 . S
C607 C609 1.389 . S
C608 H581 0.950 . S
C608 C594 1.377 1_554 S
C608 C607 1.373 . S
C609 C593 1.377 1_554 S
C609 C607 1.389 . S
C609 C610 1.524 1_554 S
C610 C609 1.524 1_556 S
C610 C611 1.397 1_556 S
C610 C615 1.363 . S
C611 H582 0.950 . S
C611 C610 1.397 1_554 S
C611 C612 1.334 . S
C612 H583 0.950 . S
C612 C611 1.334 . S
C612 C613 1.287 1_554 S
C613 C612 1.287 1_556 S
C613 C614 1.524 . S
C613 H616 0.999 . S
C614 H584 0.950 . S
C614 C613 1.524 . S
C614 C615 1.415 . S
C615 H585 0.950 . S
C615 C610 1.363 . S
C615 C614 1.415 . S
H616 C613 0.999 . S
H617 C598 0.913 . S
H618 C636 0.951 . S
H619 C638 0.951 . S
H620 C640 0.950 . S
H621 C641 0.950 . S
H622 C643 0.945 . S
H623 C646 0.950 . S
H624 C647 0.950 . S
H625 C649 0.950 . S
H626 C650 0.950 . S
H627 C651 0.951 . S
H628 C653 0.951 . S
H629 C655 0.950 . S
H630 C656 0.950 . S
H631 C658 0.945 . S
H632 C661 0.950 . S
H633 C662 0.950 . S
H634 C664 0.950 . S
H635 C665 0.950 . S
C636 H618 0.951 . S
C636 C637 1.366 . S
C636 C638 1.388 . S
C637 C636 1.366 . S
C637 C641 1.385 . S
C638 H619 0.951 . S
C638 C636 1.388 . S
C638 C639 1.366 . S
C639 C638 1.366 . S
C639 C640 1.414 . S
C639 C642 1.499 . S
C640 H620 0.950 . S
C640 C639 1.414 . S
C640 C641 1.374 . S
C641 H621 0.950 . S
C641 C637 1.385 . S
C641 C640 1.374 . S
C642 C639 1.499 . S
C642 C643 1.372 1_655 S
C642 C644 1.389 . S
C643 H622 0.945 . S
C643 C642 1.372 1_455 S
C643 C659 1.377 . S
C644 C642 1.389 . S
C644 C645 1.524 . S
C644 C658 1.377 . S
C645 C644 1.524 . S
C645 C646 1.397 . S
C645 C650 1.363 . S
C646 H623 0.950 . S
C646 C645 1.397 . S
C646 C647 1.334 . S
C647 H624 0.950 . S
C647 C646 1.334 . S
C647 C648 1.287 . S
C648 C647 1.287 . S
C648 C649 1.524 . S
C648 H667 0.913 . S
C649 H625 0.950 . S
C649 C648 1.524 . S
C649 C650 1.415 . S
C650 H626 0.950 . S
C650 C645 1.363 . S
C650 C649 1.415 . S
C651 H627 0.951 . S
C651 C652 1.366 . S
C651 C653 1.388 . S
C652 C651 1.366 . S
C652 C656 1.385 . S
C653 H628 0.951 . S
C653 C651 1.388 . S
C653 C654 1.366 . S
C654 C653 1.366 . S
C654 C655 1.414 . S
C654 C657 1.499 . S
C655 H629 0.950 . S
C655 C654 1.414 . S
C655 C656 1.374 . S
C656 H630 0.950 . S
C656 C652 1.385 . S
C656 C655 1.374 . S
C657 C654 1.499 . S
C657 C658 1.372 1_455 S
C657 C659 1.389 . S
C658 H631 0.945 . S
C658 C644 1.377 . S
C658 C657 1.372 1_655 S
C659 C643 1.377 . S
C659 C657 1.389 . S
C659 C660 1.524 . S
C660 C659 1.524 . S
C660 C661 1.397 . S
C660 C665 1.363 . S
C661 H632 0.950 . S
C661 C660 1.397 . S
C661 C662 1.334 . S
C662 H633 0.950 . S
C662 C661 1.334 . S
C662 C663 1.287 . S
C663 C662 1.287 . S
C663 C664 1.524 . S
C663 H666 0.999 . S
C664 H634 0.950 . S
C664 C663 1.524 . S
C664 C665 1.415 . S
C665 H635 0.950 . S
C665 C660 1.363 . S
C665 C664 1.415 . S
H666 C663 0.999 . S
H667 C648 0.913 . S
H668 C686 0.951 . S
H669 C688 0.951 . S
H670 C690 0.950 . S
H671 C691 0.950 . S
H672 C693 0.950 . S
H673 C696 0.950 . S
H674 C697 0.950 . S
H675 C699 0.953 . S
H676 C700 0.950 1_554 S
H677 C701 0.951 . S
H678 C703 0.951 . S
H679 C705 0.950 . S
H680 C706 0.950 . S
H681 C708 0.950 . S
H682 C711 0.950 . S
H683 C712 0.950 . S
H684 C714 0.953 . S
H685 C715 0.950 1_556 S
C686 H668 0.951 . S
C686 C687 1.366 . S
C686 C688 1.388 . S
C687 C686 1.366 . S
C687 C691 1.385 . S
C688 H669 0.951 . S
C688 C686 1.388 . S
C688 C689 1.366 . S
C689 C688 1.366 . S
C689 C690 1.414 . S
C689 C692 1.499 . S
C690 H670 0.950 . S
C690 C689 1.414 . S
C690 C691 1.374 . S
C691 H671 0.950 . S
C691 C687 1.385 . S
C691 C690 1.374 . S
C692 C689 1.499 . S
C692 C693 1.373 1_545 S
C692 C694 1.389 . S
C693 H672 0.950 . S
C693 C692 1.373 1_565 S
C693 C709 1.377 1_556 S
C694 C692 1.389 . S
C694 C695 1.524 . S
C694 C708 1.377 1_556 S
C695 C694 1.524 . S
C695 C696 1.397 . S
C695 C700 1.363 . S
C696 H673 0.950 . S
C696 C695 1.397 . S
C696 C697 1.334 . S
C697 H674 0.950 . S
C697 C696 1.334 . S
C697 C698 1.287 . S
C698 C697 1.287 . S
C698 C699 1.524 . S
C698 H717 0.913 . S
C699 H675 0.953 . S
C699 C698 1.524 . S
C699 C700 1.415 . S
C700 H676 0.950 1_556 S
C700 C695 1.363 . S
C700 C699 1.415 . S
C701 H677 0.951 . S
C701 C702 1.366 . S
C701 C703 1.388 . S
C702 C701 1.366 . S
C702 C706 1.385 . S
C703 H678 0.951 . S
C703 C701 1.388 . S
C703 C704 1.366 . S
C704 C703 1.366 . S
C704 C705 1.414 . S
C704 C707 1.499 . S
C705 H679 0.950 . S
C705 C704 1.414 . S
C705 C706 1.374 . S
C706 H680 0.950 . S
C706 C702 1.385 . S
C706 C705 1.374 . S
C707 C704 1.499 . S
C707 C708 1.373 1_565 S
C707 C709 1.389 . S
C708 H681 0.950 . S
C708 C694 1.377 1_554 S
C708 C707 1.373 1_545 S
C709 C693 1.377 1_554 S
C709 C707 1.389 . S
C709 C710 1.524 . S
C710 C709 1.524 . S
C710 C711 1.397 . S
C710 C715 1.363 . S
C711 H682 0.950 . S
C711 C710 1.397 . S
C711 C712 1.334 . S
C712 H683 0.950 . S
C712 C711 1.334 . S
C712 C713 1.287 . S
C713 C712 1.287 . S
C713 C714 1.524 . S
C713 H716 0.999 . S
C714 H684 0.953 . S
C714 C713 1.524 . S
C714 C715 1.415 . S
C715 H685 0.950 1_554 S
C715 C710 1.363 . S
C715 C714 1.415 . S
H716 C713 0.999 . S
H717 C698 0.913 . S
H718 C736 0.951 . S
H719 C738 0.951 . S
H720 C740 0.950 . S
H721 C741 0.950 . S
H722 C743 0.950 . S
H723 C746 0.950 . S
H724 C747 0.950 . S
H725 C749 0.950 . S
H726 C750 0.950 . S
H727 C751 0.951 . S
H728 C753 0.951 . S
H729 C755 0.950 . S
H730 C756 0.950 . S
H731 C758 0.950 . S
H732 C761 0.950 . S
H733 C762 0.950 . S
H734 C764 0.950 . S
H735 C765 0.950 . S
C736 H718 0.951 . S
C736 C737 1.366 . S
C736 C738 1.388 . S
C737 C736 1.366 . S
C737 C741 1.385 . S
C738 H719 0.951 . S
C738 C736 1.388 . S
C738 C739 1.366 . S
C739 C738 1.366 . S
C739 C740 1.414 . S
C739 C742 1.499 . S
C740 H720 0.950 . S
C740 C739 1.414 . S
C740 C741 1.374 . S
C741 H721 0.950 . S
C741 C737 1.385 . S
C741 C740 1.374 . S
C742 C739 1.499 . S
C742 C743 1.373 . S
C742 C744 1.389 . S
C743 H722 0.950 . S
C743 C742 1.373 . S
C743 C759 1.377 . S
C744 C742 1.389 . S
C744 C745 1.524 . S
C744 C758 1.377 . S
C745 C744 1.524 . S
C745 C746 1.397 . S
C745 C750 1.363 . S
C746 H723 0.950 . S
C746 C745 1.397 . S
C746 C747 1.334 . S
C747 H724 0.950 . S
C747 C746 1.334 . S
C747 C748 1.287 . S
C748 C747 1.287 . S
C748 C749 1.524 . S
C748 H767 0.913 . S
C749 H725 0.950 . S
C749 C748 1.524 . S
C749 C750 1.415 . S
C750 H726 0.950 . S
C750 C745 1.363 . S
C750 C749 1.415 . S
C751 H727 0.951 . S
C751 C752 1.366 . S
C751 C753 1.388 . S
C752 C751 1.366 . S
C752 C756 1.385 . S
C753 H728 0.951 . S
C753 C751 1.388 . S
C753 C754 1.366 . S
C754 C753 1.366 . S
C754 C755 1.414 . S
C754 C757 1.499 . S
C755 H729 0.950 . S
C755 C754 1.414 . S
C755 C756 1.374 . S
C756 H730 0.950 . S
C756 C752 1.385 . S
C756 C755 1.374 . S
C757 C754 1.499 . S
C757 C758 1.373 . S
C757 C759 1.389 . S
C758 H731 0.950 . S
C758 C744 1.377 . S
C758 C757 1.373 . S
C759 C743 1.377 . S
C759 C757 1.389 . S
C759 C760 1.524 . S
C760 C759 1.524 . S
C760 C761 1.397 . S
C760 C765 1.363 . S
C761 H732 0.950 . S
C761 C760 1.397 . S
C761 C762 1.334 . S
C762 H733 0.950 . S
C762 C761 1.334 . S
C762 C763 1.287 . S
C763 C762 1.287 . S
C763 C764 1.524 . S
C763 H766 0.999 . S
C764 H734 0.950 . S
C764 C763 1.524 . S
C764 C765 1.415 . S
C765 H735 0.950 . S
C765 C760 1.363 . S
C765 C764 1.415 . S
H766 C763 0.999 . S
H767 C748 0.913 . S
H768 C786 0.951 . S
H769 C788 0.951 . S
H770 C790 0.950 . S
H771 C791 0.950 . S
H772 C793 0.950 . S
H773 C796 0.950 . S
H774 C797 0.950 . S
H775 C799 0.950 . S
H776 C800 0.950 . S
H777 C801 0.951 . S
H778 C803 0.951 . S
H779 C805 0.950 . S
H780 C806 0.950 . S
H781 C808 0.950 . S
H782 C811 0.950 . S
H783 C812 0.950 . S
H784 C814 0.950 . S
H785 C815 0.950 . S
C786 H768 0.951 . S
C786 C787 1.366 . S
C786 C788 1.388 . S
C787 C786 1.366 . S
C787 C791 1.385 . S
C788 H769 0.951 . S
C788 C786 1.388 . S
C788 C789 1.366 . S
C789 C788 1.366 . S
C789 C790 1.414 . S
C789 C792 1.499 . S
C790 H770 0.950 . S
C790 C789 1.414 . S
C790 C791 1.374 . S
C791 H771 0.950 . S
C791 C787 1.385 . S
C791 C790 1.374 . S
C792 C789 1.499 . S
C792 C793 1.373 . S
C792 C794 1.389 . S
C793 H772 0.950 . S
C793 C792 1.373 . S
C793 C809 1.377 . S
C794 C792 1.389 . S
C794 C795 1.524 . S
C794 C808 1.377 . S
C795 C794 1.524 . S
C795 C796 1.397 . S
C795 C800 1.363 . S
C796 H773 0.950 . S
C796 C795 1.397 . S
C796 C797 1.334 . S
C797 H774 0.950 . S
C797 C796 1.334 . S
C797 C798 1.287 . S
C798 C797 1.287 . S
C798 C799 1.524 . S
C798 H817 0.913 . S
C799 H775 0.950 . S
C799 C798 1.524 . S
C799 C800 1.415 . S
C800 H776 0.950 . S
C800 C795 1.363 . S
C800 C799 1.415 . S
C801 H777 0.951 . S
C801 C802 1.366 . S
C801 C803 1.388 . S
C802 C801 1.366 . S
C802 C806 1.385 . S
C803 H778 0.951 . S
C803 C801 1.388 . S
C803 C804 1.366 . S
C804 C803 1.366 . S
C804 C805 1.414 . S
C804 C807 1.499 . S
C805 H779 0.950 . S
C805 C804 1.414 . S
C805 C806 1.374 . S
C806 H780 0.950 . S
C806 C802 1.385 . S
C806 C805 1.374 . S
C807 C804 1.499 . S
C807 C808 1.373 . S
C807 C809 1.389 . S
C808 H781 0.950 . S
C808 C794 1.377 . S
C808 C807 1.373 . S
C809 C793 1.377 . S
C809 C807 1.389 . S
C809 C810 1.524 . S
C810 C809 1.524 . S
C810 C811 1.397 . S
C810 C815 1.363 . S
C811 H782 0.950 . S
C811 C810 1.397 . S
C811 C812 1.334 . S
C812 H783 0.950 . S
C812 C811 1.334 . S
C812 C813 1.287 . S
C813 C812 1.287 . S
C813 C814 1.524 . S
C813 H816 0.999 . S
C814 H784 0.950 . S
C814 C813 1.524 . S
C814 C815 1.415 . S
C815 H785 0.950 . S
C815 C810 1.363 . S
C815 C814 1.415 . S
H816 C813 0.999 . S
H817 C798 0.913 . S
H818 C836 0.951 . S
H819 C838 0.951 . S
H820 C840 0.950 . S
H821 C841 0.950 . S
H822 C843 0.950 . S
H823 C846 0.950 . S
H824 C847 0.950 . S
H825 C849 0.950 . S
H826 C850 0.950 . S
H827 C851 0.951 . S
H828 C853 0.951 . S
H829 C855 0.950 . S
H830 C856 0.950 . S
H831 C858 0.950 . S
H832 C861 0.950 . S
H833 C862 0.950 . S
H834 C864 0.950 . S
H835 C865 0.950 . S
C836 H818 0.951 . S
C836 C837 1.366 . S
C836 C838 1.388 . S
C837 C836 1.366 . S
C837 C841 1.385 . S
C838 H819 0.951 . S
C838 C836 1.388 . S
C838 C839 1.366 . S
C839 C838 1.366 . S
C839 C840 1.414 . S
C839 C842 1.499 . S
C840 H820 0.950 . S
C840 C839 1.414 . S
C840 C841 1.374 . S
C841 H821 0.950 . S
C841 C837 1.385 . S
C841 C840 1.374 . S
C842 C839 1.499 . S
C842 C843 1.373 . S
C842 C844 1.389 . S
C843 H822 0.950 . S
C843 C842 1.373 . S
C843 C859 1.377 . S
C844 C842 1.389 . S
C844 C845 1.524 . S
C844 C858 1.377 . S
C845 C844 1.524 . S
C845 C846 1.397 . S
C845 C850 1.363 . S
C846 H823 0.950 . S
C846 C845 1.397 . S
C846 C847 1.334 . S
C847 H824 0.950 . S
C847 C846 1.334 . S
C847 C848 1.287 . S
C848 C847 1.287 . S
C848 C849 1.524 . S
C848 H867 0.913 . S
C849 H825 0.950 . S
C849 C848 1.524 . S
C849 C850 1.415 . S
C850 H826 0.950 . S
C850 C845 1.363 . S
C850 C849 1.415 . S
C851 H827 0.951 . S
C851 C852 1.366 . S
C851 C853 1.388 . S
C852 C851 1.366 . S
C852 C856 1.385 . S
C853 H828 0.951 . S
C853 C851 1.388 . S
C853 C854 1.366 . S
C854 C853 1.366 . S
C854 C855 1.414 . S
C854 C857 1.499 . S
C855 H829 0.950 . S
C855 C854 1.414 . S
C855 C856 1.374 . S
C856 H830 0.950 . S
C856 C852 1.385 . S
C856 C855 1.374 . S
C857 C854 1.499 . S
C857 C858 1.373 . S
C857 C859 1.389 . S
C858 H831 0.950 . S
C858 C844 1.377 . S
C858 C857 1.373 . S
C859 C843 1.377 . S
C859 C857 1.389 . S
C859 C860 1.524 . S
C860 C859 1.524 . S
C860 C861 1.397 . S
C860 C865 1.363 . S
C861 H832 0.950 . S
C861 C860 1.397 . S
C861 C862 1.334 . S
C862 H833 0.950 . S
C862 C861 1.334 . S
C862 C863 1.287 . S
C863 C862 1.287 . S
C863 C864 1.524 . S
C863 H866 0.999 . S
C864 H834 0.950 . S
C864 C863 1.524 . S
C864 C865 1.415 . S
C865 H835 0.950 . S
C865 C860 1.363 . S
C865 C864 1.415 . S
H866 C863 0.999 . S
H867 C848 0.913 . S
H868 C886 0.951 . S
H869 C888 0.951 . S
H870 C890 0.950 . S
H871 C891 0.950 . S
H872 C893 0.950 . S
H873 C896 0.950 . S
H874 C897 0.950 . S
H875 C899 0.950 . S
H876 C900 0.950 . S
H877 C901 0.951 . S
H878 C903 0.951 . S
H879 C905 0.950 . S
H880 C906 0.950 . S
H881 C908 0.950 . S
H882 C911 0.950 . S
H883 C912 0.950 . S
H884 C914 0.950 . S
H885 C915 0.950 . S
C886 H868 0.951 . S
C886 C887 1.366 . S
C886 C888 1.388 . S
C887 C886 1.366 . S
C887 C891 1.385 . S
C888 H869 0.951 . S
C888 C886 1.388 . S
C888 C889 1.366 . S
C889 C888 1.366 . S
C889 C890 1.414 . S
C889 C892 1.499 . S
C890 H870 0.950 . S
C890 C889 1.414 . S
C890 C891 1.374 . S
C891 H871 0.950 . S
C891 C887 1.385 . S
C891 C890 1.374 . S
C892 C889 1.499 . S
C892 C893 1.373 . S
C892 C894 1.389 . S
C893 H872 0.950 . S
C893 C892 1.373 . S
C893 C909 1.377 . S
C894 C892 1.389 . S
C894 C895 1.524 . S
C894 C908 1.377 . S
C895 C894 1.524 . S
C895 C896 1.397 . S
C895 C900 1.363 . S
C896 H873 0.950 . S
C896 C895 1.397 . S
C896 C897 1.334 . S
C897 H874 0.950 . S
C897 C896 1.334 . S
C897 C898 1.287 . S
C898 C897 1.287 . S
C898 C899 1.524 . S
C898 H917 0.913 . S
C899 H875 0.950 . S
C899 C898 1.524 . S
C899 C900 1.415 . S
C900 H876 0.950 . S
C900 C895 1.363 . S
C900 C899 1.415 . S
C901 H877 0.951 . S
C901 C902 1.366 . S
C901 C903 1.388 . S
C902 C901 1.366 . S
C902 C906 1.385 . S
C903 H878 0.951 . S
C903 C901 1.388 . S
C903 C904 1.366 . S
C904 C903 1.366 . S
C904 C905 1.414 . S
C904 C907 1.499 . S
C905 H879 0.950 . S
C905 C904 1.414 . S
C905 C906 1.374 . S
C906 H880 0.950 . S
C906 C902 1.385 . S
C906 C905 1.374 . S
C907 C904 1.499 . S
C907 C908 1.373 . S
C907 C909 1.389 . S
C908 H881 0.950 . S
C908 C894 1.377 . S
C908 C907 1.373 . S
C909 C893 1.377 . S
C909 C907 1.389 . S
C909 C910 1.524 . S
C910 C909 1.524 . S
C910 C911 1.397 . S
C910 C915 1.363 . S
C911 H882 0.950 . S
C911 C910 1.397 . S
C911 C912 1.334 . S
C912 H883 0.950 . S
C912 C911 1.334 . S
C912 C913 1.287 . S
C913 C912 1.287 . S
C913 C914 1.524 . S
C913 H916 0.999 . S
C914 H884 0.950 . S
C914 C913 1.524 . S
C914 C915 1.415 . S
C915 H885 0.950 . S
C915 C910 1.363 . S
C915 C914 1.415 . S
H916 C913 0.999 . S
H917 C898 0.913 . S
H918 C936 0.951 . S
H919 C938 0.951 . S
H920 C940 0.950 . S
H921 C941 0.950 . S
H922 C943 0.950 . S
H923 C946 0.950 . S
H924 C947 0.950 . S
H925 C949 0.950 . S
H926 C950 0.950 . S
H927 C951 0.951 . S
H928 C953 0.951 . S
H929 C955 0.950 . S
H930 C956 0.950 . S
H931 C958 0.950 . S
H932 C961 0.950 . S
H933 C962 0.950 . S
H934 C964 0.950 . S
H935 C965 0.950 . S
C936 H918 0.951 . S
C936 C937 1.366 . S
C936 C938 1.388 . S
C937 C936 1.366 . S
C937 C941 1.385 . S
C938 H919 0.951 . S
C938 C936 1.388 . S
C938 C939 1.366 . S
C939 C938 1.366 . S
C939 C940 1.414 . S
C939 C942 1.499 . S
C940 H920 0.950 . S
C940 C939 1.414 . S
C940 C941 1.374 . S
C941 H921 0.950 . S
C941 C937 1.385 . S
C941 C940 1.374 . S
C942 C939 1.499 . S
C942 C943 1.373 . S
C942 C944 1.389 . S
C943 H922 0.950 . S
C943 C942 1.373 . S
C943 C959 1.377 . S
C944 C942 1.389 . S
C944 C945 1.524 . S
C944 C958 1.377 . S
C945 C944 1.524 . S
C945 C946 1.397 . S
C945 C950 1.363 . S
C946 H923 0.950 . S
C946 C945 1.397 . S
C946 C947 1.334 . S
C947 H924 0.950 . S
C947 C946 1.334 . S
C947 C948 1.287 . S
C948 C947 1.287 . S
C948 C949 1.524 . S
C948 H967 0.913 . S
C949 H925 0.950 . S
C949 C948 1.524 . S
C949 C950 1.415 . S
C950 H926 0.950 . S
C950 C945 1.363 . S
C950 C949 1.415 . S
C951 H927 0.951 . S
C951 C952 1.366 . S
C951 C953 1.388 . S
C952 C951 1.366 . S
C952 C956 1.385 . S
C953 H928 0.951 . S
C953 C951 1.388 . S
C953 C954 1.366 . S
C954 C953 1.366 . S
C954 C955 1.414 . S
C954 C957 1.499 . S
C955 H929 0.950 . S
C955 C954 1.414 . S
C955 C956 1.374 . S
C956 H930 0.950 . S
C956 C952 1.385 . S
C956 C955 1.374 . S
C957 C954 1.499 . S
C957 C958 1.373 . S
C957 C959 1.389 . S
C958 H931 0.950 . S
C958 C944 1.377 . S
C958 C957 1.373 . S
C959 C943 1.377 . S
C959 C957 1.389 . S
C959 C960 1.524 . S
C960 C959 1.524 . S
C960 C961 1.397 . S
C960 C965 1.363 . S
C961 H932 0.950 . S
C961 C960 1.397 . S
C961 C962 1.334 . S
C962 H933 0.950 . S
C962 C961 1.334 . S
C962 C963 1.287 . S
C963 C962 1.287 . S
C963 C964 1.524 . S
C963 H966 0.999 . S
C964 H934 0.950 . S
C964 C963 1.524 . S
C964 C965 1.415 . S
C965 H935 0.950 . S
C965 C960 1.363 . S
C965 C964 1.415 . S
H966 C963 0.999 . S
H967 C948 0.913 . S
H968 C986 0.951 . S
H969 C988 0.951 . S
H970 C990 0.950 . S
H971 C991 0.950 . S
H972 C993 0.950 . S
H973 C996 0.950 . S
H974 C997 0.950 . S
H975 C999 0.950 . S
H976 C1000 0.950 . S
H977 C1001 0.951 . S
H978 C1003 0.951 . S
H979 C1005 0.950 . S
H980 C1006 0.950 . S
H981 C1008 0.950 . S
H982 C1011 0.950 . S
H983 C1012 0.950 . S
H984 C1014 0.950 1_545 S
H985 C1015 0.950 . S
C986 H968 0.951 . S
C986 C987 1.366 . S
C986 C988 1.388 . S
C987 C986 1.366 . S
C987 C991 1.385 . S
C988 H969 0.951 . S
C988 C986 1.388 . S
C988 C989 1.366 . S
C989 C988 1.366 . S
C989 C990 1.414 . S
C989 C992 1.499 . S
C990 H970 0.950 . S
C990 C989 1.414 . S
C990 C991 1.374 . S
C991 H971 0.950 . S
C991 C987 1.385 . S
C991 C990 1.374 . S
C992 C989 1.499 . S
C992 C993 1.373 . S
C992 C994 1.389 . S
C993 H972 0.950 . S
C993 C992 1.373 . S
C993 C1009 1.377 . S
C994 C992 1.389 . S
C994 C995 1.524 . S
C994 C1008 1.377 . S
C995 C994 1.524 . S
C995 C996 1.397 . S
C995 C1000 1.363 . S
C996 H973 0.950 . S
C996 C995 1.397 . S
C996 C997 1.334 . S
C997 H974 0.950 . S
C997 C996 1.334 . S
C997 C998 1.287 . S
C998 C997 1.287 . S
C998 C999 1.524 . S
C998 H1017 0.913 . S
C999 H975 0.950 . S
C999 C998 1.524 . S
C999 C1000 1.415 . S
C1000 H976 0.950 . S
C1000 C995 1.363 . S
C1000 C999 1.415 . S
C1001 H977 0.951 . S
C1001 C1002 1.366 . S
C1001 C1003 1.388 . S
C1002 C1001 1.366 . S
C1002 C1006 1.385 . S
C1003 H978 0.951 . S
C1003 C1001 1.388 . S
C1003 C1004 1.366 . S
C1004 C1003 1.366 . S
C1004 C1005 1.414 . S
C1004 C1007 1.499 . S
C1005 H979 0.950 . S
C1005 C1004 1.414 . S
C1005 C1006 1.374 . S
C1006 H980 0.950 . S
C1006 C1002 1.385 . S
C1006 C1005 1.374 . S
C1007 C1004 1.499 . S
C1007 C1008 1.373 . S
C1007 C1009 1.389 . S
C1008 H981 0.950 . S
C1008 C994 1.377 . S
C1008 C1007 1.373 . S
C1009 C993 1.377 . S
C1009 C1007 1.389 . S
C1009 C1010 1.524 . S
C1010 C1009 1.524 . S
C1010 C1011 1.397 . S
C1010 C1015 1.363 . S
C1011 H982 0.950 . S
C1011 C1010 1.397 . S
C1011 C1012 1.334 . S
C1012 H983 0.950 . S
C1012 C1011 1.334 . S
C1012 C1013 1.287 . S
C1013 C1012 1.287 . S
C1013 C1014 1.524 . S
C1013 H1016 0.999 1_565 S
C1014 H984 0.950 1_565 S
C1014 C1013 1.524 . S
C1014 C1015 1.415 . S
C1015 H985 0.950 . S
C1015 C1010 1.363 . S
C1015 C1014 1.415 . S
H1016 C1013 0.999 1_545 S
H1017 C998 0.913 . S
H1018 C1036 0.951 . S
H1019 C1038 0.951 . S
H1020 C1040 0.950 . S
H1021 C1041 0.950 . S
H1022 C1043 0.950 . S
H1023 C1046 0.950 . S
H1024 C1047 0.950 . S
H1025 C1049 0.950 . S
H1026 C1050 0.950 . S
H1027 C1051 0.951 . S
H1028 C1053 0.951 . S
H1029 C1055 0.950 . S
H1030 C1056 0.950 . S
H1031 C1058 0.950 . S
H1032 C1061 0.950 . S
H1033 C1062 0.950 . S
H1034 C1064 0.950 . S
H1035 C1065 0.950 . S
C1036 H1018 0.951 . S
C1036 C1037 1.366 . S
C1036 C1038 1.388 . S
C1037 C1036 1.366 . S
C1037 C1041 1.385 . S
C1038 H1019 0.951 . S
C1038 C1036 1.388 . S
C1038 C1039 1.366 . S
C1039 C1038 1.366 . S
C1039 C1040 1.414 . S
C1039 C1042 1.499 . S
C1040 H1020 0.950 . S
C1040 C1039 1.414 . S
C1040 C1041 1.374 . S
C1041 H1021 0.950 . S
C1041 C1037 1.385 . S
C1041 C1040 1.374 . S
C1042 C1039 1.499 . S
C1042 C1043 1.373 . S
C1042 C1044 1.389 . S
C1043 H1022 0.950 . S
C1043 C1042 1.373 . S
C1043 C1059 1.377 . S
C1044 C1042 1.389 . S
C1044 C1045 1.524 . S
C1044 C1058 1.377 . S
C1045 C1044 1.524 . S
C1045 C1046 1.397 . S
C1045 C1050 1.363 . S
C1046 H1023 0.950 . S
C1046 C1045 1.397 . S
C1046 C1047 1.334 . S
C1047 H1024 0.950 . S
C1047 C1046 1.334 . S
C1047 C1048 1.287 . S
C1048 C1047 1.287 . S
C1048 C1049 1.524 . S
C1048 H1067 0.913 . S
C1049 H1025 0.950 . S
C1049 C1048 1.524 . S
C1049 C1050 1.415 . S
C1050 H1026 0.950 . S
C1050 C1045 1.363 . S
C1050 C1049 1.415 . S
C1051 H1027 0.951 . S
C1051 C1052 1.366 . S
C1051 C1053 1.388 . S
C1052 C1051 1.366 . S
C1052 C1056 1.385 . S
C1053 H1028 0.951 . S
C1053 C1051 1.388 . S
C1053 C1054 1.366 . S
C1054 C1053 1.366 . S
C1054 C1055 1.414 . S
C1054 C1057 1.499 . S
C1055 H1029 0.950 . S
C1055 C1054 1.414 . S
C1055 C1056 1.374 . S
C1056 H1030 0.950 . S
C1056 C1052 1.385 . S
C1056 C1055 1.374 . S
C1057 C1054 1.499 . S
C1057 C1058 1.373 . S
C1057 C1059 1.389 . S
C1058 H1031 0.950 . S
C1058 C1044 1.377 . S
C1058 C1057 1.373 . S
C1059 C1043 1.377 . S
C1059 C1057 1.389 . S
C1059 C1060 1.524 . S
C1060 C1059 1.524 . S
C1060 C1061 1.397 . S
C1060 C1065 1.363 . S
C1061 H1032 0.950 . S
C1061 C1060 1.397 . S
C1061 C1062 1.334 . S
C1062 H1033 0.950 . S
C1062 C1061 1.334 . S
C1062 C1063 1.287 . S
C1063 C1062 1.287 . S
C1063 C1064 1.524 . S
C1063 H1066 0.999 . S
C1064 H1034 0.950 . S
C1064 C1063 1.524 . S
C1064 C1065 1.415 . S
C1065 H1035 0.950 . S
C1065 C1060 1.363 . S
C1065 C1064 1.415 . S
H1066 C1063 0.999 . S
H1067 C1048 0.913 . S
H1068 C1086 0.951 . S
H1069 C1088 0.951 . S
H1070 C1090 0.950 . S
H1071 C1091 0.950 . S
H1072 C1093 0.950 . S
H1073 C1096 0.950 . S
H1074 C1097 0.950 . S
H1075 C1099 0.950 . S
H1076 C1100 0.950 . S
H1077 C1101 0.951 . S
H1078 C1103 0.951 . S
H1079 C1105 0.950 . S
H1080 C1106 0.950 . S
H1081 C1108 0.950 . S
H1082 C1111 0.950 . S
H1083 C1112 0.950 . S
H1084 C1114 0.950 . S
H1085 C1115 0.950 . S
C1086 H1068 0.951 . S
C1086 C1087 1.366 . S
C1086 C1088 1.388 . S
C1087 C1086 1.366 . S
C1087 C1091 1.385 . S
C1088 H1069 0.951 . S
C1088 C1086 1.388 . S
C1088 C1089 1.366 . S
C1089 C1088 1.366 . S
C1089 C1090 1.414 . S
C1089 C1092 1.499 . S
C1090 H1070 0.950 . S
C1090 C1089 1.414 . S
C1090 C1091 1.374 . S
C1091 H1071 0.950 . S
C1091 C1087 1.385 . S
C1091 C1090 1.374 . S
C1092 C1089 1.499 . S
C1092 C1093 1.373 . S
C1092 C1094 1.389 . S
C1093 H1072 0.950 . S
C1093 C1092 1.373 . S
C1093 C1109 1.377 . S
C1094 C1092 1.389 . S
C1094 C1095 1.524 . S
C1094 C1108 1.377 . S
C1095 C1094 1.524 . S
C1095 C1096 1.397 . S
C1095 C1100 1.363 . S
C1096 H1073 0.950 . S
C1096 C1095 1.397 . S
C1096 C1097 1.334 . S
C1097 H1074 0.950 . S
C1097 C1096 1.334 . S
C1097 C1098 1.287 . S
C1098 C1097 1.287 . S
C1098 C1099 1.524 . S
C1098 H1117 0.913 . S
C1099 H1075 0.950 . S
C1099 C1098 1.524 . S
C1099 C1100 1.415 . S
C1100 H1076 0.950 . S
C1100 C1095 1.363 . S
C1100 C1099 1.415 . S
C1101 H1077 0.951 . S
C1101 C1102 1.366 . S
C1101 C1103 1.388 . S
C1102 C1101 1.366 . S
C1102 C1106 1.385 . S
C1103 H1078 0.951 . S
C1103 C1101 1.388 . S
C1103 C1104 1.366 . S
C1104 C1103 1.366 . S
C1104 C1105 1.414 . S
C1104 C1107 1.499 . S
C1105 H1079 0.950 . S
C1105 C1104 1.414 . S
C1105 C1106 1.374 . S
C1106 H1080 0.950 . S
C1106 C1102 1.385 . S
C1106 C1105 1.374 . S
C1107 C1104 1.499 . S
C1107 C1108 1.373 . S
C1107 C1109 1.389 . S
C1108 H1081 0.950 . S
C1108 C1094 1.377 . S
C1108 C1107 1.373 . S
C1109 C1093 1.377 . S
C1109 C1107 1.389 . S
C1109 C1110 1.524 . S
C1110 C1109 1.524 . S
C1110 C1111 1.397 . S
C1110 C1115 1.363 . S
C1111 H1082 0.950 . S
C1111 C1110 1.397 . S
C1111 C1112 1.334 . S
C1112 H1083 0.950 . S
C1112 C1111 1.334 . S
C1112 C1113 1.287 . S
C1113 C1112 1.287 . S
C1113 C1114 1.524 . S
C1113 H1116 0.999 . S
C1114 H1084 0.950 . S
C1114 C1113 1.524 . S
C1114 C1115 1.415 . S
C1115 H1085 0.950 . S
C1115 C1110 1.363 . S
C1115 C1114 1.415 . S
H1116 C1113 0.999 . S
H1117 C1098 0.913 . S
H1118 C1136 0.951 . S
H1119 C1138 0.951 . S
H1120 C1140 0.950 . S
H1121 C1141 0.950 . S
H1122 C1143 0.950 . S
H1123 C1146 0.950 . S
H1124 C1147 0.950 . S
H1125 C1149 0.950 . S
H1126 C1150 0.950 . S
H1127 C1151 0.951 . S
H1128 C1153 0.951 . S
H1129 C1155 0.950 . S
H1130 C1156 0.950 . S
H1131 C1158 0.950 . S
H1132 C1161 0.950 . S
H1133 C1162 0.950 . S
H1134 C1164 0.950 . S
H1135 C1165 0.950 . S
C1136 H1118 0.951 . S
C1136 C1137 1.366 . S
C1136 C1138 1.388 . S
C1137 C1136 1.366 . S
C1137 C1141 1.385 . S
C1138 H1119 0.951 . S
C1138 C1136 1.388 . S
C1138 C1139 1.366 . S
C1139 C1138 1.366 . S
C1139 C1140 1.414 . S
C1139 C1142 1.499 . S
C1140 H1120 0.950 . S
C1140 C1139 1.414 . S
C1140 C1141 1.374 . S
C1141 H1121 0.950 . S
C1141 C1137 1.385 . S
C1141 C1140 1.374 . S
C1142 C1139 1.499 . S
C1142 C1143 1.373 . S
C1142 C1144 1.389 . S
C1143 H1122 0.950 . S
C1143 C1142 1.373 . S
C1143 C1159 1.377 . S
C1144 C1142 1.389 . S
C1144 C1145 1.524 . S
C1144 C1158 1.377 . S
C1145 C1144 1.524 . S
C1145 C1146 1.397 . S
C1145 C1150 1.363 . S
C1146 H1123 0.950 . S
C1146 C1145 1.397 . S
C1146 C1147 1.334 . S
C1147 H1124 0.950 . S
C1147 C1146 1.334 . S
C1147 C1148 1.287 . S
C1148 C1147 1.287 . S
C1148 C1149 1.524 . S
C1148 H1167 0.913 . S
C1149 H1125 0.950 . S
C1149 C1148 1.524 . S
C1149 C1150 1.415 . S
C1150 H1126 0.950 . S
C1150 C1145 1.363 . S
C1150 C1149 1.415 . S
C1151 H1127 0.951 . S
C1151 C1152 1.366 . S
C1151 C1153 1.388 . S
C1152 C1151 1.366 . S
C1152 C1156 1.385 . S
C1153 H1128 0.951 . S
C1153 C1151 1.388 . S
C1153 C1154 1.366 . S
C1154 C1153 1.366 . S
C1154 C1155 1.414 . S
C1154 C1157 1.499 . S
C1155 H1129 0.950 . S
C1155 C1154 1.414 . S
C1155 C1156 1.374 . S
C1156 H1130 0.950 . S
C1156 C1152 1.385 . S
C1156 C1155 1.374 . S
C1157 C1154 1.499 . S
C1157 C1158 1.373 . S
C1157 C1159 1.389 . S
C1158 H1131 0.950 . S
C1158 C1144 1.377 . S
C1158 C1157 1.373 . S
C1159 C1143 1.377 . S
C1159 C1157 1.389 . S
C1159 C1160 1.524 . S
C1160 C1159 1.524 . S
C1160 C1161 1.397 . S
C1160 C1165 1.363 . S
C1161 H1132 0.950 . S
C1161 C1160 1.397 . S
C1161 C1162 1.334 . S
C1162 H1133 0.950 . S
C1162 C1161 1.334 . S
C1162 C1163 1.287 . S
C1163 C1162 1.287 . S
C1163 C1164 1.524 . S
C1163 H1166 0.999 . S
C1164 H1134 0.950 . S
C1164 C1163 1.524 . S
C1164 C1165 1.415 . S
C1165 H1135 0.950 . S
C1165 C1160 1.363 . S
C1165 C1164 1.415 . S
H1166 C1163 0.999 . S
H1167 C1148 0.913 . S
H1168 C1186 0.951 . S
H1169 C1188 0.951 . S
H1170 C1190 0.950 . S
H1171 C1191 0.950 . S
H1172 C1193 0.950 . S
H1173 C1196 0.950 . S
H1174 C1197 0.950 . S
H1175 C1199 0.950 . S
H1176 C1200 0.950 . S
H1177 C1201 0.951 . S
H1178 C1203 0.951 . S
H1179 C1205 0.950 . S
H1180 C1206 0.950 . S
H1181 C1208 0.950 . S
H1182 C1211 0.950 . S
H1183 C1212 0.950 . S
H1184 C1214 0.950 . S
H1185 C1215 0.950 . S
C1186 H1168 0.951 . S
C1186 C1187 1.366 . S
C1186 C1188 1.388 . S
C1187 C1186 1.366 . S
C1187 C1191 1.385 . S
C1188 H1169 0.951 . S
C1188 C1186 1.388 . S
C1188 C1189 1.366 . S
C1189 C1188 1.366 . S
C1189 C1190 1.414 . S
C1189 C1192 1.499 . S
C1190 H1170 0.950 . S
C1190 C1189 1.414 . S
C1190 C1191 1.374 . S
C1191 H1171 0.950 . S
C1191 C1187 1.385 . S
C1191 C1190 1.374 . S
C1192 C1189 1.499 . S
C1192 C1193 1.373 . S
C1192 C1194 1.389 . S
C1193 H1172 0.950 . S
C1193 C1192 1.373 . S
C1193 C1209 1.377 . S
C1194 C1192 1.389 . S
C1194 C1195 1.524 . S
C1194 C1208 1.377 . S
C1195 C1194 1.524 . S
C1195 C1196 1.397 . S
C1195 C1200 1.363 . S
C1196 H1173 0.950 . S
C1196 C1195 1.397 . S
C1196 C1197 1.334 . S
C1197 H1174 0.950 . S
C1197 C1196 1.334 . S
C1197 C1198 1.287 . S
C1198 C1197 1.287 . S
C1198 C1199 1.524 . S
C1198 H1217 0.913 . S
C1199 H1175 0.950 . S
C1199 C1198 1.524 . S
C1199 C1200 1.415 . S
C1200 H1176 0.950 . S
C1200 C1195 1.363 . S
C1200 C1199 1.415 . S
C1201 H1177 0.951 . S
C1201 C1202 1.366 . S
C1201 C1203 1.388 . S
C1202 C1201 1.366 . S
C1202 C1206 1.385 . S
C1203 H1178 0.951 . S
C1203 C1201 1.388 . S
C1203 C1204 1.366 . S
C1204 C1203 1.366 . S
C1204 C1205 1.414 . S
C1204 C1207 1.499 . S
C1205 H1179 0.950 . S
C1205 C1204 1.414 . S
C1205 C1206 1.374 . S
C1206 H1180 0.950 . S
C1206 C1202 1.385 . S
C1206 C1205 1.374 . S
C1207 C1204 1.499 . S
C1207 C1208 1.373 . S
C1207 C1209 1.389 . S
C1208 H1181 0.950 . S
C1208 C1194 1.377 . S
C1208 C1207 1.373 . S
C1209 C1193 1.377 . S
C1209 C1207 1.389 . S
C1209 C1210 1.524 . S
C1210 C1209 1.524 . S
C1210 C1211 1.397 . S
C1210 C1215 1.363 . S
C1211 H1182 0.950 . S
C1211 C1210 1.397 . S
C1211 C1212 1.334 . S
C1212 H1183 0.950 . S
C1212 C1211 1.334 . S
C1212 C1213 1.287 . S
C1213 C1212 1.287 . S
C1213 C1214 1.524 . S
C1213 H1216 0.999 . S
C1214 H1184 0.950 . S
C1214 C1213 1.524 . S
C1214 C1215 1.415 . S
C1215 H1185 0.950 . S
C1215 C1210 1.363 . S
C1215 C1214 1.415 . S
H1216 C1213 0.999 . S
H1217 C1198 0.913 . S
H1218 C1236 0.951 . S
H1219 C1238 0.951 . S
H1220 C1240 0.950 . S
H1221 C1241 0.950 . S
H1222 C1243 0.950 . S
H1223 C1246 0.950 . S
H1224 C1247 0.950 . S
H1225 C1249 0.950 . S
H1226 C1250 0.950 . S
H1227 C1251 0.951 . S
H1228 C1253 0.951 . S
H1229 C1255 0.950 . S
H1230 C1256 0.950 . S
H1231 C1258 0.950 . S
H1232 C1261 0.950 . S
H1233 C1262 0.950 . S
H1234 C1264 0.950 . S
H1235 C1265 0.950 . S
C1236 H1218 0.951 . S
C1236 C1237 1.366 . S
C1236 C1238 1.388 . S
C1237 C1236 1.366 . S
C1237 C1241 1.385 . S
C1238 H1219 0.951 . S
C1238 C1236 1.388 . S
C1238 C1239 1.366 . S
C1239 C1238 1.366 . S
C1239 C1240 1.414 . S
C1239 C1242 1.499 . S
C1240 H1220 0.950 . S
C1240 C1239 1.414 . S
C1240 C1241 1.374 . S
C1241 H1221 0.950 . S
C1241 C1237 1.385 . S
C1241 C1240 1.374 . S
C1242 C1239 1.499 . S
C1242 C1243 1.373 . S
C1242 C1244 1.389 . S
C1243 H1222 0.950 . S
C1243 C1242 1.373 . S
C1243 C1259 1.377 . S
C1244 C1242 1.389 . S
C1244 C1245 1.524 . S
C1244 C1258 1.377 . S
C1245 C1244 1.524 . S
C1245 C1246 1.397 . S
C1245 C1250 1.363 . S
C1246 H1223 0.950 . S
C1246 C1245 1.397 . S
C1246 C1247 1.334 . S
C1247 H1224 0.950 . S
C1247 C1246 1.334 . S
C1247 C1248 1.287 . S
C1248 C1247 1.287 . S
C1248 C1249 1.524 . S
C1248 H1267 0.913 . S
C1249 H1225 0.950 . S
C1249 C1248 1.524 . S
C1249 C1250 1.415 . S
C1250 H1226 0.950 . S
C1250 C1245 1.363 . S
C1250 C1249 1.415 . S
C1251 H1227 0.951 . S
C1251 C1252 1.366 . S
C1251 C1253 1.388 . S
C1252 C1251 1.366 . S
C1252 C1256 1.385 . S
C1253 H1228 0.951 . S
C1253 C1251 1.388 . S
C1253 C1254 1.366 . S
C1254 C1253 1.366 . S
C1254 C1255 1.414 . S
C1254 C1257 1.499 . S
C1255 H1229 0.950 . S
C1255 C1254 1.414 . S
C1255 C1256 1.374 . S
C1256 H1230 0.950 . S
C1256 C1252 1.385 . S
C1256 C1255 1.374 . S
C1257 C1254 1.499 . S
C1257 C1258 1.373 . S
C1257 C1259 1.389 . S
C1258 H1231 0.950 . S
C1258 C1244 1.377 . S
C1258 C1257 1.373 . S
C1259 C1243 1.377 . S
C1259 C1257 1.389 . S
C1259 C1260 1.524 . S
C1260 C1259 1.524 . S
C1260 C1261 1.397 . S
C1260 C1265 1.363 . S
C1261 H1232 0.950 . S
C1261 C1260 1.397 . S
C1261 C1262 1.334 . S
C1262 H1233 0.950 . S
C1262 C1261 1.334 . S
C1262 C1263 1.287 . S
C1263 C1262 1.287 . S
C1263 C1264 1.524 . S
C1263 H1266 0.999 . S
C1264 H1234 0.950 . S
C1264 C1263 1.524 . S
C1264 C1265 1.415 . S
C1265 H1235 0.950 . S
C1265 C1260 1.363 . S
C1265 C1264 1.415 . S
H1266 C1263 0.999 . S
H1267 C1248 0.913 . S
H1268 C1286 0.951 . S
H1269 C1288 0.951 . S
H1270 C1290 0.950 . S
H1271 C1291 0.950 . S
H1272 C1293 0.950 . S
H1273 C1296 0.950 . S
H1274 C1297 0.950 . S
H1275 C1299 0.950 . S
H1276 C1300 0.950 . S
H1277 C1301 0.951 . S
H1278 C1303 0.951 . S
H1279 C1305 0.950 . S
H1280 C1306 0.950 . S
H1281 C1308 0.950 . S
H1282 C1311 0.950 . S
H1283 C1312 0.950 . S
H1284 C1314 0.950 . S
H1285 C1315 0.950 . S
C1286 H1268 0.951 . S
C1286 C1287 1.366 . S
C1286 C1288 1.388 . S
C1287 C1286 1.366 . S
C1287 C1291 1.385 . S
C1288 H1269 0.951 . S
C1288 C1286 1.388 . S
C1288 C1289 1.366 . S
C1289 C1288 1.366 . S
C1289 C1290 1.414 . S
C1289 C1292 1.499 . S
C1290 H1270 0.950 . S
C1290 C1289 1.414 . S
C1290 C1291 1.374 . S
C1291 H1271 0.950 . S
C1291 C1287 1.385 . S
C1291 C1290 1.374 . S
C1292 C1289 1.499 . S
C1292 C1293 1.373 . S
C1292 C1294 1.389 . S
C1293 H1272 0.950 . S
C1293 C1292 1.373 . S
C1293 C1309 1.377 . S
C1294 C1292 1.389 . S
C1294 C1295 1.524 . S
C1294 C1308 1.377 . S
C1295 C1294 1.524 . S
C1295 C1296 1.397 . S
C1295 C1300 1.363 . S
C1296 H1273 0.950 . S
C1296 C1295 1.397 . S
C1296 C1297 1.334 . S
C1297 H1274 0.950 . S
C1297 C1296 1.334 . S
C1297 C1298 1.287 . S
C1298 C1297 1.287 . S
C1298 C1299 1.524 . S
C1298 H1317 0.913 . S
C1299 H1275 0.950 . S
C1299 C1298 1.524 . S
C1299 C1300 1.415 . S
C1300 H1276 0.950 . S
C1300 C1295 1.363 . S
C1300 C1299 1.415 . S
C1301 H1277 0.951 . S
C1301 C1302 1.366 . S
C1301 C1303 1.388 . S
C1302 C1301 1.366 . S
C1302 C1306 1.385 . S
C1303 H1278 0.951 . S
C1303 C1301 1.388 . S
C1303 C1304 1.366 . S
C1304 C1303 1.366 . S
C1304 C1305 1.414 . S
C1304 C1307 1.499 . S
C1305 H1279 0.950 . S
C1305 C1304 1.414 . S
C1305 C1306 1.374 . S
C1306 H1280 0.950 . S
C1306 C1302 1.385 . S
C1306 C1305 1.374 . S
C1307 C1304 1.499 . S
C1307 C1308 1.373 . S
C1307 C1309 1.389 . S
C1308 H1281 0.950 . S
C1308 C1294 1.377 . S
C1308 C1307 1.373 . S
C1309 C1293 1.377 . S
C1309 C1307 1.389 . S
C1309 C1310 1.524 . S
C1310 C1309 1.524 . S
C1310 C1311 1.397 . S
C1310 C1315 1.363 . S
C1311 H1282 0.950 . S
C1311 C1310 1.397 . S
C1311 C1312 1.334 . S
C1312 H1283 0.950 . S
C1312 C1311 1.334 . S
C1312 C1313 1.287 . S
C1313 C1312 1.287 . S
C1313 C1314 1.524 . S
C1313 H1316 0.999 . S
C1314 H1284 0.950 . S
C1314 C1313 1.524 . S
C1314 C1315 1.415 . S
C1315 H1285 0.950 . S
C1315 C1310 1.363 . S
C1315 C1314 1.415 . S
H1316 C1313 0.999 . S
H1317 C1298 0.913 . S
H1318 C1336 0.951 . S
H1319 C1338 0.951 . S
H1320 C1340 0.950 . S
H1321 C1341 0.950 . S
H1322 C1343 0.950 . S
H1323 C1346 0.950 . S
H1324 C1347 0.950 . S
H1325 C1349 0.950 . S
H1326 C1350 0.950 . S
H1327 C1351 0.951 . S
H1328 C1353 0.951 . S
H1329 C1355 0.950 . S
H1330 C1356 0.950 . S
H1331 C1358 0.950 . S
H1332 C1361 0.950 . S
H1333 C1362 0.950 . S
H1334 C1364 0.950 . S
H1335 C1365 0.950 . S
C1336 H1318 0.951 . S
C1336 C1337 1.366 . S
C1336 C1338 1.388 . S
C1337 C1336 1.366 . S
C1337 C1341 1.385 . S
C1338 H1319 0.951 . S
C1338 C1336 1.388 . S
C1338 C1339 1.366 . S
C1339 C1338 1.366 . S
C1339 C1340 1.414 . S
C1339 C1342 1.499 . S
C1340 H1320 0.950 . S
C1340 C1339 1.414 . S
C1340 C1341 1.374 . S
C1341 H1321 0.950 . S
C1341 C1337 1.385 . S
C1341 C1340 1.374 . S
C1342 C1339 1.499 . S
C1342 C1343 1.373 . S
C1342 C1344 1.389 . S
C1343 H1322 0.950 . S
C1343 C1342 1.373 . S
C1343 C1359 1.377 . S
C1344 C1342 1.389 . S
C1344 C1345 1.524 . S
C1344 C1358 1.377 . S
C1345 C1344 1.524 . S
C1345 C1346 1.397 . S
C1345 C1350 1.363 . S
C1346 H1323 0.950 . S
C1346 C1345 1.397 . S
C1346 C1347 1.334 . S
C1347 H1324 0.950 . S
C1347 C1346 1.334 . S
C1347 C1348 1.287 . S
C1348 C1347 1.287 . S
C1348 C1349 1.524 . S
C1348 H1367 0.913 . S
C1349 H1325 0.950 . S
C1349 C1348 1.524 . S
C1349 C1350 1.415 . S
C1350 H1326 0.950 . S
C1350 C1345 1.363 . S
C1350 C1349 1.415 . S
C1351 H1327 0.951 . S
C1351 C1352 1.366 . S
C1351 C1353 1.388 . S
C1352 C1351 1.366 . S
C1352 C1356 1.385 . S
C1353 H1328 0.951 . S
C1353 C1351 1.388 . S
C1353 C1354 1.366 . S
C1354 C1353 1.366 . S
C1354 C1355 1.414 . S
C1354 C1357 1.499 . S
C1355 H1329 0.950 . S
C1355 C1354 1.414 . S
C1355 C1356 1.374 . S
C1356 H1330 0.950 . S
C1356 C1352 1.385 . S
C1356 C1355 1.374 . S
C1357 C1354 1.499 . S
C1357 C1358 1.373 . S
C1357 C1359 1.389 . S
C1358 H1331 0.950 . S
C1358 C1344 1.377 . S
C1358 C1357 1.373 . S
C1359 C1343 1.377 . S
C1359 C1357 1.389 . S
C1359 C1360 1.524 . S
C1360 C1359 1.524 . S
C1360 C1361 1.397 . S
C1360 C1365 1.363 . S
C1361 H1332 0.950 . S
C1361 C1360 1.397 . S
C1361 C1362 1.334 . S
C1362 H1333 0.950 . S
C1362 C1361 1.334 . S
C1362 C1363 1.287 . S
C1363 C1362 1.287 . S
C1363 C1364 1.524 . S
C1363 H1366 0.999 . S
C1364 H1334 0.950 . S
C1364 C1363 1.524 . S
C1364 C1365 1.415 . S
C1365 H1335 0.950 . S
C1365 C1360 1.363 . S
C1365 C1364 1.415 . S
H1366 C1363 0.999 . S
H1367 C1348 0.913 . S
C187 C13 1.236 . S
C202 C167 1.237 . S
C237 C97 1.236 . S
C252 C27 1.235 . S
C287 C41 1.235 . S
C302 C111 1.235 . S
C337 C125 1.237 . S
C352 C55 1.236 . S
C387 C139 1.235 . S
C402 C69 1.235 . S
C437 C153 1.235 . S
C452 C83 1.235 . S
C487 C49 1.439 . S
C502 C119 1.439 . S
C537 C63 1.439 . S
C552 C133 1.438 . S
C587 C77 1.439 . S
C602 C147 1.439 . S
C637 C161 1.439 . S
C652 C7 1.438 . S
C687 C21 1.439 . S
C702 C91 1.438 . S
C737 C35 1.439 . S
C752 C105 1.439 . S
C787 C120 1.396 . S
C802 C8 1.395 . S
C837 C134 1.396 . S
C852 C22 1.396 . S
C887 C36 1.396 . S
C902 C148 1.395 . S
C937 C50 1.396 . S
C952 C162 1.396 . S
C987 C64 1.395 . S
C1002 C92 1.396 . S
C1037 C106 1.396 . S
C1052 C78 1.395 . S
C1087 C11 1.304 . S
C1102 C151 1.304 . S
C1137 C165 1.304 . S
C1152 C25 1.304 . S
C1187 C39 1.304 . S
C1202 C95 1.304 . S
C1237 C53 1.304 . S
C1252 C109 1.304 . S
C1287 C67 1.303 . S
C1302 C123 1.303 . S
C1337 C81 1.304 . S
C1352 C137 1.304 . S
