# Generated by pormake.
# Topology svb, (7)-cn, num edge types: 1
# Building blocks:
#     Node 0, Type 0, BuildingBlock: HICVOG_clean_sbu_0, # of connection points: 7
#     Node 1, Type 0, BuildingBlock: HICVOG_clean_sbu_0, # of connection points: 7
#     Node 2, Type 0, BuildingBlock: HICVOG_clean_sbu_0, # of connection points: 7
#     Node 3, Type 0, BuildingBlock: HICVOG_clean_sbu_0, # of connection points: 7
#     Node 4, Type 0, BuildingBlock: HICVOG_clean_sbu_0, # of connection points: 7
#     Node 5, Type 0, BuildingBlock: HICVOG_clean_sbu_0, # of connection points: 7
#     Node 6, Type 0, BuildingBlock: HICVOG_clean_sbu_0, # of connection points: 7
#     Node 7, Type 0, BuildingBlock: HICVOG_clean_sbu_0, # of connection points: 7
#     Node 8, Type 0, BuildingBlock: HICVOG_clean_sbu_0, # of connection points: 7
#     Node 9, Type 0, BuildingBlock: HICVOG_clean_sbu_0, # of connection points: 7
#     Node 10, Type 0, BuildingBlock: HICVOG_clean_sbu_0, # of connection points: 7
#     Node 11, Type 0, BuildingBlock: HICVOG_clean_sbu_0, # of connection points: 7
#     Node 12, Type 0, BuildingBlock: HICVOG_clean_sbu_0, # of connection points: 7
#     Node 13, Type 0, BuildingBlock: HICVOG_clean_sbu_0, # of connection points: 7
#     Node 14, Type 0, BuildingBlock: HICVOG_clean_sbu_0, # of connection points: 7
#     Node 15, Type 0, BuildingBlock: HICVOG_clean_sbu_0, # of connection points: 7
#     Edge 16, Type (0, 0), BuildingBlock: EZIPEK_clean_linker_0, # of connection points: 2
#     Edge 17, Type (0, 0), BuildingBlock: EZIPEK_clean_linker_0, # of connection points: 2
#     Edge 18, Type (0, 0), BuildingBlock: EZIPEK_clean_linker_0, # of connection points: 2
#     Edge 19, Type (0, 0), BuildingBlock: EZIPEK_clean_linker_0, # of connection points: 2
#     Edge 20, Type (0, 0), BuildingBlock: EZIPEK_clean_linker_0, # of connection points: 2
#     Edge 21, Type (0, 0), BuildingBlock: EZIPEK_clean_linker_0, # of connection points: 2
#     Edge 22, Type (0, 0), BuildingBlock: EZIPEK_clean_linker_0, # of connection points: 2
#     Edge 23, Type (0, 0), BuildingBlock: EZIPEK_clean_linker_0, # of connection points: 2
#     Edge 24, Type (0, 0), BuildingBlock: EZIPEK_clean_linker_0, # of connection points: 2
#     Edge 25, Type (0, 0), BuildingBlock: EZIPEK_clean_linker_0, # of connection points: 2
#     Edge 26, Type (0, 0), BuildingBlock: EZIPEK_clean_linker_0, # of connection points: 2
#     Edge 27, Type (0, 0), BuildingBlock: EZIPEK_clean_linker_0, # of connection points: 2
#     Edge 28, Type (0, 0), BuildingBlock: EZIPEK_clean_linker_0, # of connection points: 2
#     Edge 29, Type (0, 0), BuildingBlock: EZIPEK_clean_linker_0, # of connection points: 2
#     Edge 30, Type (0, 0), BuildingBlock: EZIPEK_clean_linker_0, # of connection points: 2
#     Edge 31, Type (0, 0), BuildingBlock: EZIPEK_clean_linker_0, # of connection points: 2
#     Edge 32, Type (0, 0), BuildingBlock: EZIPEK_clean_linker_0, # of connection points: 2
#     Edge 33, Type (0, 0), BuildingBlock: EZIPEK_clean_linker_0, # of connection points: 2
#     Edge 34, Type (0, 0), BuildingBlock: EZIPEK_clean_linker_0, # of connection points: 2
#     Edge 35, Type (0, 0), BuildingBlock: EZIPEK_clean_linker_0, # of connection points: 2
#     Edge 36, Type (0, 0), BuildingBlock: EZIPEK_clean_linker_0, # of connection points: 2
#     Edge 37, Type (0, 0), BuildingBlock: EZIPEK_clean_linker_0, # of connection points: 2
#     Edge 38, Type (0, 0), BuildingBlock: EZIPEK_clean_linker_0, # of connection points: 2
#     Edge 39, Type (0, 0), BuildingBlock: EZIPEK_clean_linker_0, # of connection points: 2
#     Edge 40, Type (0, 0), BuildingBlock: EZIPEK_clean_linker_0, # of connection points: 2
#     Edge 41, Type (0, 0), BuildingBlock: EZIPEK_clean_linker_0, # of connection points: 2
#     Edge 42, Type (0, 0), BuildingBlock: EZIPEK_clean_linker_0, # of connection points: 2
#     Edge 43, Type (0, 0), BuildingBlock: EZIPEK_clean_linker_0, # of connection points: 2
#     Edge 44, Type (0, 0), BuildingBlock: EZIPEK_clean_linker_0, # of connection points: 2
#     Edge 45, Type (0, 0), BuildingBlock: EZIPEK_clean_linker_0, # of connection points: 2
#     Edge 46, Type (0, 0), BuildingBlock: EZIPEK_clean_linker_0, # of connection points: 2
#     Edge 47, Type (0, 0), BuildingBlock: EZIPEK_clean_linker_0, # of connection points: 2
#     Edge 48, Type (0, 0), BuildingBlock: EZIPEK_clean_linker_0, # of connection points: 2
#     Edge 49, Type (0, 0), BuildingBlock: EZIPEK_clean_linker_0, # of connection points: 2
#     Edge 50, Type (0, 0), BuildingBlock: EZIPEK_clean_linker_0, # of connection points: 2
#     Edge 51, Type (0, 0), BuildingBlock: EZIPEK_clean_linker_0, # of connection points: 2
#     Edge 52, Type (0, 0), BuildingBlock: EZIPEK_clean_linker_0, # of connection points: 2
#     Edge 53, Type (0, 0), BuildingBlock: EZIPEK_clean_linker_0, # of connection points: 2
#     Edge 54, Type (0, 0), BuildingBlock: EZIPEK_clean_linker_0, # of connection points: 2
#     Edge 55, Type (0, 0), BuildingBlock: EZIPEK_clean_linker_0, # of connection points: 2
#     Edge 56, Type (0, 0), BuildingBlock: EZIPEK_clean_linker_0, # of connection points: 2
#     Edge 57, Type (0, 0), BuildingBlock: EZIPEK_clean_linker_0, # of connection points: 2
#     Edge 58, Type (0, 0), BuildingBlock: EZIPEK_clean_linker_0, # of connection points: 2
#     Edge 59, Type (0, 0), BuildingBlock: EZIPEK_clean_linker_0, # of connection points: 2
#     Edge 60, Type (0, 0), BuildingBlock: EZIPEK_clean_linker_0, # of connection points: 2
#     Edge 61, Type (0, 0), BuildingBlock: EZIPEK_clean_linker_0, # of connection points: 2
#     Edge 62, Type (0, 0), BuildingBlock: EZIPEK_clean_linker_0, # of connection points: 2
#     Edge 63, Type (0, 0), BuildingBlock: EZIPEK_clean_linker_0, # of connection points: 2
#     Edge 64, Type (0, 0), BuildingBlock: EZIPEK_clean_linker_0, # of connection points: 2
#     Edge 65, Type (0, 0), BuildingBlock: EZIPEK_clean_linker_0, # of connection points: 2
#     Edge 66, Type (0, 0), BuildingBlock: EZIPEK_clean_linker_0, # of connection points: 2
#     Edge 67, Type (0, 0), BuildingBlock: EZIPEK_clean_linker_0, # of connection points: 2
#     Edge 68, Type (0, 0), BuildingBlock: EZIPEK_clean_linker_0, # of connection points: 2
#     Edge 69, Type (0, 0), BuildingBlock: EZIPEK_clean_linker_0, # of connection points: 2
#     Edge 70, Type (0, 0), BuildingBlock: EZIPEK_clean_linker_0, # of connection points: 2
#     Edge 71, Type (0, 0), BuildingBlock: EZIPEK_clean_linker_0, # of connection points: 2
# Relax obj value: 0.384
# Max RMSD: 0.274
# Mean RMSD: 0.255
data_MOF--net-svb--node1-HICVOG_clean_sbu_0--edge1-EZIPEK_clean_linker_0
_symmetry_space_group_name_H-M    P1
_symmetry_Int_Tables_number       1
_symmetry_cell_setting            triclinic
loop_
_symmetry_equiv_pos_as_xyz
'x, y, z'
_cell_length_a     37.305401
_cell_length_b     39.806926
_cell_length_c     20.079066
_cell_angle_alpha  96.519495
_cell_angle_beta   98.005967
_cell_angle_gamma 89.765342
loop_
_atom_site_label
_atom_site_type_symbol
_atom_site_fract_x
_atom_site_fract_y
_atom_site_fract_z
_atom_type_partial_charge
Zn0 Zn 0.11564 0.33643 0.30362 0.0
C1 C 0.12177 0.43861 0.29752 0.0
N2 N 0.11004 0.43969 0.35811 0.0
C3 C 0.10182 0.40734 0.3627 0.0
N4 N 0.11021 0.38676 0.30827 0.0
N5 N 0.12035 0.40668 0.26479 0.0
C6 C 0.17881 0.41088 0.118 0.0
O7 O 0.18984 0.3922 0.1666 0.0
O8 O 0.07145 0.30977 0.31338 0.0
Zn9 Zn 0.11235 0.39365 0.16388 0.0
N10 N 0.15417 0.32541 0.37342 0.0
C11 C 0.21653 0.32989 0.41956 0.0
C12 C 0.1872 0.34005 0.37559 0.0
C13 C 0.14917 0.30116 0.41418 0.0
N14 N 0.21184 0.305 0.45866 0.0
C15 C 0.17892 0.29008 0.45726 0.0
O16 O 0.12787 0.34654 0.13765 0.0
C17 C 0.13338 0.31736 0.15615 0.0
O18 O 0.1293 0.31158 0.21566 0.0
H19 H 0.1908 0.35898 0.34238 0.0
H20 H 0.12268 0.28967 0.41121 0.0
C21 C 0.04016 0.39104 0.06715 0.0
C22 C 1.00186 0.38619 0.05672 0.0
C23 C 1.00259 0.38557 0.17437 0.0
C24 C 0.03993 0.38925 0.18412 0.0
N25 N 0.05858 0.3922 0.13153 0.0
N26 N 0.98459 0.38367 0.11115 0.0
H27 H 0.05486 0.39286 0.02485 0.0
C28 C 0.03879 0.31891 0.3049 0.0
O29 O 0.03127 0.35041 0.29849 0.0
O30 O 0.14532 0.41896 0.109 0.0
H31 H 0.05397 0.39056 0.23414 0.0
H32 H 0.24304 0.34122 0.42161 0.0
H33 H 0.9879 0.38389 0.21666 0.0
Zn34 Zn 0.85877 0.89092 0.4121 0.0
C35 C 0.88237 0.89652 0.22186 0.0
N36 N 0.86883 0.92766 0.22837 0.0
C37 C 0.85336 0.92866 0.28525 0.0
N38 N 0.85812 0.89954 0.31468 0.0
N39 N 0.87452 0.87887 0.2718 0.0
C40 C 0.94775 0.8137 0.28082 0.0
O41 O 0.95565 0.84403 0.31166 0.0
O42 O 0.82037 0.91508 0.46396 0.0
Zn43 Zn 0.86926 0.82969 0.25593 0.0
N44 N 0.908 0.89954 0.46291 0.0
C45 C 0.9703 0.89899 0.44831 0.0
C46 C 0.93388 0.89656 0.42169 0.0
C47 C 0.91742 0.90453 0.53174 0.0
N48 N 0.97978 0.90287 0.51625 0.0
C49 C 0.9546 0.90525 0.55937 0.0
O50 O 0.8473 0.80696 0.32649 0.0
C51 C 0.84425 0.81258 0.38912 0.0
O52 O 0.84933 0.8419 0.42157 0.0
H53 H 0.92599 0.89127 0.36843 0.0
H54 H 0.89655 0.90626 0.56435 0.0
C55 C 0.85205 0.79405 0.11963 0.0
C56 C 0.82923 0.78466 0.05804 0.0
C57 C 0.78463 0.82192 0.09655 0.0
C58 C 0.8069 0.83046 0.15775 0.0
N59 N 0.84016 0.81653 0.16827 0.0
N60 N 0.79603 0.79907 0.04859 0.0
H61 H 0.8787 0.78326 0.12897 0.0
C62 C 0.7885 0.92285 0.43925 0.0
O63 O 0.77975 0.92055 0.37328 0.0
O64 O 0.91579 0.80581 0.25372 0.0
H65 H 0.79797 0.84839 0.19654 0.0
H66 H 0.99096 0.89671 0.41528 0.0
H67 H 0.7585 0.83352 0.08732 0.0
Zn68 Zn 0.45777 0.64625 0.61059 0.0
C69 C 0.35096 0.62214 0.55861 0.0
N70 N 0.35601 0.63769 0.5044 0.0
C71 C 0.38991 0.6499 0.52017 0.0
N72 N 0.40555 0.64151 0.5807 0.0
N73 N 0.38062 0.62556 0.60719 0.0
C74 C 0.34683 0.57669 0.77894 0.0
O75 O 0.34385 0.60249 0.82473 0.0
O76 O 0.47273 0.6948 0.63308 0.0
Zn77 Zn 0.38306 0.62473 0.70623 0.0
N78 N 0.48417 0.6232 0.54177 0.0
C79 C 0.48963 0.57167 0.47128 0.0
C80 C 0.47159 0.59158 0.51738 0.0
C81 C 0.51477 0.63565 0.52258 0.0
N82 N 0.51989 0.584 0.45177 0.0
C83 C 0.53315 0.61547 0.47601 0.0
O84 O 0.43306 0.62019 0.7577 0.0
C85 C 0.4664 0.61982 0.75087 0.0
O86 O 0.4773 0.62671 0.69683 0.0
H87 H 0.44773 0.58186 0.53412 0.0
H88 H 0.52481 0.66065 0.5435 0.0
C89 C 0.37412 0.68141 0.81218 0.0
C90 C 0.36275 0.7142 0.83465 0.0
C91 C 0.33107 0.71846 0.72536 0.0
C92 C 0.34323 0.68669 0.70274 0.0
N93 N 0.36394 0.6682 0.74628 0.0
N94 N 0.34125 0.73154 0.79042 0.0
H95 H 0.39184 0.66726 0.84587 0.0
C96 C 0.45977 0.70817 0.6849 0.0
O97 O 0.43451 0.69184 0.70789 0.0
O98 O 0.3592 0.58135 0.72477 0.0
H99 H 0.33642 0.67712 0.65011 0.0
H100 H 0.47978 0.54649 0.4514 0.0
H101 H 0.31435 0.73301 0.69094 0.0
Zn102 Zn 0.62241 0.13318 0.92723 0.0
C103 C 0.58126 0.11249 0.73421 0.0
N104 N 0.58275 0.08029 0.7458 0.0
C105 C 0.606 0.08064 0.80315 0.0
N106 N 0.61673 0.1131 0.82885 0.0
N107 N 0.60283 0.13263 0.78203 0.0
C108 C 0.53364 0.19325 0.77224 0.0
O109 O 0.53641 0.17096 0.81561 0.0
O110 O 0.65871 0.11006 0.9946 0.0
Zn111 Zn 0.60974 0.18175 0.77765 0.0
N112 N 0.5735 0.14227 0.95747 0.0
C113 C 0.53335 0.18868 0.9738 0.0
C114 C 0.56468 0.17521 0.95245 0.0
C115 C 0.55045 0.12176 0.98278 0.0
N116 N 0.5111 0.16873 0.99985 0.0
C117 C 0.51835 0.13564 1.00536 0.0
O118 O 0.63219 0.2108 0.8621 0.0
C119 C 0.64549 0.20855 0.92307 0.0
O120 O 0.64527 0.18055 0.94786 0.0
H121 H 0.58095 0.19102 0.92903 0.0
H122 H 0.55709 0.09553 0.98692 0.0
C123 C 0.62786 0.21884 0.67347 0.0
C124 C 0.65234 0.23335 0.63737 0.0
C125 C 0.69612 0.1928 0.67171 0.0
C126 C 0.67233 0.17962 0.71007 0.0
N127 N 0.63871 0.19278 0.71011 0.0
N128 N 0.68578 0.21943 0.6371 0.0
H129 H 0.60125 0.22945 0.6754 0.0
C130 C 0.69182 0.11388 0.98736 0.0
O131 O 0.69929 0.12679 0.93347 0.0
O132 O 0.56214 0.20177 0.75068 0.0
H133 H 0.68087 0.15981 0.74128 0.0
H134 H 0.52652 0.21483 0.96903 0.0
H135 H 0.72301 0.18262 0.67101 0.0
Zn136 Zn 0.13706 0.60845 0.40414 0.0
C137 C 0.10085 0.61472 0.20557 0.0
N138 N 0.10993 0.58215 0.19843 0.0
C139 C 0.12634 0.57725 0.2603 0.0
N140 N 0.12696 0.60575 0.30452 0.0
N141 N 0.11201 0.62969 0.26896 0.0
C142 C 0.03872 0.69957 0.30882 0.0
O143 O 0.04866 0.69042 0.36941 0.0
O144 O 0.18401 0.58505 0.43746 0.0
Zn145 Zn 0.10978 0.67819 0.29504 0.0
N146 N 0.09702 0.58765 0.43969 0.0
C147 C 0.07165 0.53606 0.4624 0.0
C148 C 0.09797 0.55339 0.43659 0.0
C149 C 0.07098 0.60554 0.46989 0.0
N150 N 0.04632 0.55375 0.49354 0.0
C151 C 0.04513 0.5881 0.49868 0.0
O152 O 0.12369 0.696 0.39447 0.0
C153 C 0.13799 0.68626 0.45021 0.0
O154 O 0.1448 0.65529 0.45435 0.0
H155 H 0.11934 0.53964 0.4147 0.0
H156 H 0.07105 0.63286 0.47354 0.0
C157 C 0.1287 0.72489 0.20484 0.0
C158 C 0.15325 0.74342 0.1757 0.0
C159 C 0.2018 0.71307 0.22961 0.0
C160 C 0.17745 0.69515 0.25927 0.0
N161 N 0.1415 0.7014 0.24649 0.0
N162 N 0.1892 0.73667 0.18869 0.0
H163 H 0.09993 0.72947 0.19524 0.0
C164 C 0.2132 0.60167 0.43853 0.0
O165 O 0.2117 0.63008 0.41087 0.0
O166 O 0.06095 0.69509 0.26659 0.0
H167 H 0.18705 0.67669 0.293 0.0
H168 H 0.07198 0.50875 0.4595 0.0
H169 H 0.23054 0.70841 0.23929 0.0
Zn170 Zn 0.62923 0.89803 0.68509 0.0
C171 C 0.6018 0.90352 0.87423 0.0
N172 N 0.60901 0.93653 0.88024 0.0
C173 C 0.62464 0.94105 0.82564 0.0
N174 N 0.62622 0.91108 0.7847 0.0
N175 N 0.61363 0.88753 0.81819 0.0
C176 C 0.5478 0.81708 0.81123 0.0
O177 O 0.53868 0.84538 0.78653 0.0
O178 O 0.65493 0.93017 0.63285 0.0
Zn179 Zn 0.62364 0.83799 0.80738 0.0
N180 N 0.58038 0.8822 0.6369 0.0
C181 C 0.54136 0.83468 0.63598 0.0
C182 C 0.57049 0.8552 0.66599 0.0
C183 C 0.56047 0.89037 0.57815 0.0
N184 N 0.52194 0.84238 0.57803 0.0
C185 C 0.53007 0.86968 0.54784 0.0
O186 O 0.63983 0.81567 0.71815 0.0
C187 C 0.65591 0.82531 0.67151 0.0
O188 O 0.65938 0.85649 0.66535 0.0
H189 H 0.58615 0.84891 0.71142 0.0
H190 H 0.56856 0.91166 0.55439 0.0
C191 C 0.66181 0.80352 0.91602 0.0
C192 C 0.69274 0.79591 0.96016 0.0
C193 C 0.72521 0.83949 0.92218 0.0
C194 C 0.69458 0.84689 0.87833 0.0
N195 N 0.66355 0.82878 0.87584 0.0
N196 N 0.72363 0.81416 0.96164 0.0
H197 H 0.63699 0.7891 0.91274 0.0
C198 C 0.68915 0.92662 0.63604 0.0
O199 O 0.70625 0.9106 0.68447 0.0
O200 O 0.58119 0.8102 0.82265 0.0
H201 H 0.69559 0.86652 0.8455 0.0
H202 H 0.53425 0.81259 0.65837 0.0
H203 H 0.7502 0.85353 0.92441 0.0
Zn204 Zn 0.36396 0.40105 0.9084 0.0
C205 C 0.39341 0.40535 0.72639 0.0
N206 N 0.38333 0.43777 0.73362 0.0
C207 C 0.3637 0.43931 0.78554 0.0
N208 N 0.36252 0.40893 0.81076 0.0
N209 N 0.3795 0.38749 0.77011 0.0
C210 C 0.44202 0.30551 0.78896 0.0
O211 O 0.43786 0.31734 0.85118 0.0
O212 O 0.32128 0.42062 0.95844 0.0
Zn213 Zn 0.3757 0.33833 0.75373 0.0
N214 N 0.41345 0.41591 0.957 0.0
C215 C 0.46908 0.44316 0.94614 0.0
C216 C 0.434 0.43259 0.91988 0.0
C217 C 0.42764 0.40934 0.02095 0.0
N218 N 0.48312 0.4364 1.00888 0.0
C219 C 0.46373 0.41968 0.04751 0.0
O220 O 0.36069 0.31458 0.82975 0.0
C221 C 0.35701 0.32143 0.89186 0.0
O222 O 0.3588 0.35171 0.92022 0.0
H223 H 0.42347 0.43789 0.8697 0.0
H224 H 0.41149 0.3959 0.05034 0.0
C225 C 0.3569 0.30277 0.61892 0.0
C226 C 0.33334 0.28998 0.5602 0.0
C227 C 0.28648 0.32378 0.60062 0.0
C228 C 0.30956 0.33523 0.65963 0.0
N229 N 0.3442 0.32426 0.66824 0.0
N230 N 0.29859 0.30111 0.55312 0.0
H231 H 0.38475 0.2947 0.62612 0.0
C232 C 0.28851 0.41171 0.93615 0.0
O233 O 0.28149 0.3949 0.87549 0.0
O234 O 0.42217 0.31637 0.7397 0.0
H235 H 0.29994 0.35259 0.69856 0.0
H236 H 0.48521 0.45646 0.91651 0.0
H237 H 0.25902 0.3327 0.59289 0.0
Zn238 Zn 0.93811 0.14726 0.09848 0.0
C239 C 0.82845 0.13807 0.09471 0.0
N240 N 0.82816 0.15456 0.04003 0.0
C241 C 0.86314 0.16109 0.03912 0.0
N242 N 0.88452 0.14843 0.0907 0.0
N243 N 0.8625 0.1353 0.12843 0.0
C244 C 0.85681 0.0514 0.23281 0.0
O245 O 0.88565 0.0453 0.20297 0.0
O246 O 0.95782 0.19326 0.12742 0.0
Zn247 Zn 0.87721 0.11926 0.22013 0.0
N248 N 0.95525 0.12606 0.01606 0.0
C249 C 0.95221 0.0739 0.94478 0.0
C250 C 0.93916 0.09543 0.99508 0.0
C251 C 0.98465 0.13606 0.98875 0.0
N252 N 0.98154 0.08343 0.91831 0.0
C253 C 0.99868 0.11376 0.93874 0.0
O254 O 0.92929 0.102 0.23611 0.0
C255 C 0.96051 0.10547 0.21922 0.0
O256 O 0.96485 0.12145 0.16985 0.0
H257 H 0.91681 0.0875 0.01888 0.0
H258 H 0.99761 0.16025 1.00719 0.0
C259 C 0.85845 0.18143 0.31532 0.0
C260 C 0.86364 0.19914 0.38154 0.0
C261 C 0.90561 0.15798 0.4177 0.0
C262 C 0.90036 0.14057 0.35327 0.0
N263 N 0.8776 0.15253 0.30227 0.0
N264 N 0.88724 0.18671 0.43026 0.0
H265 H 0.83963 0.19049 0.27578 0.0
C266 C 0.94621 0.20864 0.17904 0.0
O267 O 0.91906 0.19554 0.2029 0.0
O268 O 0.84509 0.08141 0.23969 0.0
H269 H 0.91417 0.11703 0.345 0.0
H270 H 0.93957 0.04945 0.92769 0.0
H271 H 0.92391 0.14851 0.45783 0.0
Zn272 Zn 0.8944 0.60962 0.83798 0.0
C273 C 0.93201 0.60095 0.65658 0.0
N274 N 0.9265 0.56779 0.65414 0.0
C275 C 0.90715 0.56451 0.70458 0.0
N276 N 0.90213 0.59526 0.74043 0.0
N277 N 0.91625 0.61815 0.70725 0.0
C278 C 0.97737 0.69109 0.72056 0.0
O279 O 0.98531 0.66147 0.74031 0.0
O280 O 0.86432 0.57955 0.88887 0.0
Zn281 Zn 0.90383 0.66735 0.71352 0.0
N282 N 0.94262 0.62434 0.89063 0.0
C283 C 0.98236 0.67154 0.89443 0.0
C284 C 0.95342 0.65135 0.86271 0.0
C285 C 0.96232 0.61504 0.94859 0.0
N286 N 1.00151 0.66288 0.95171 0.0
C287 C 0.99314 0.63496 0.97969 0.0
O288 O 0.88852 0.69178 0.80195 0.0
C289 C 0.87105 0.68331 0.8477 0.0
O290 O 0.86475 0.65239 0.85202 0.0
H291 H 0.93892 0.65757 0.81629 0.0
H292 H 0.95408 0.59323 0.97058 0.0
C293 C 0.86404 0.69924 0.60493 0.0
C294 C 0.83308 0.70578 0.56006 0.0
C295 C 0.80163 0.66188 0.59896 0.0
C296 C 0.83245 0.65544 0.64348 0.0
N297 N 0.86302 0.67418 0.64554 0.0
N298 N 0.80263 0.68683 0.55833 0.0
H299 H 0.88853 0.71413 0.60792 0.0
C300 C 0.83046 0.58578 0.88458 0.0
O301 O 0.81588 0.60319 0.83611 0.0
O302 O 0.94477 0.69655 0.69786 0.0
H303 H 0.83192 0.63605 0.67698 0.0
H304 H 0.98986 0.69382 0.87354 0.0
H305 H 0.77704 0.64727 0.59691 0.0
Zn306 Zn 0.15205 0.10129 0.6057 0.0
C307 C 0.12037 0.09995 0.79109 0.0
N308 N 0.12787 0.06694 0.78271 0.0
C309 C 0.14565 0.06396 0.72838 0.0
N310 N 0.14823 0.09378 0.70229 0.0
N311 N 0.13391 0.11652 0.74466 0.0
C312 C 0.07436 0.19374 0.6951 0.0
O313 O 0.08759 0.18357 0.63921 0.0
O314 O 0.1918 0.07599 0.559 0.0
Zn315 Zn 0.13795 0.16557 0.7536 0.0
N316 N 0.1032 0.09554 0.55192 0.0
C317 C 0.04135 0.10798 0.5608 0.0
C318 C 0.07733 0.10722 0.58971 0.0
C319 C 0.09433 0.08612 0.48374 0.0
N320 N 0.03258 0.0992 0.49349 0.0
C321 C 0.05786 0.08886 0.45321 0.0
O322 O 0.15845 0.18733 0.68063 0.0
C323 C 0.16619 0.17969 0.62124 0.0
O324 O 0.1644 0.1493 0.59374 0.0
H325 H 0.08485 0.11705 0.64184 0.0
H326 H 0.11534 0.07819 0.45348 0.0
C327 C 0.15316 0.20228 0.88911 0.0
C328 C 0.17654 0.21733 0.94608 0.0
C329 C 0.22614 0.18965 0.90185 0.0
C330 C 0.20307 0.17561 0.84495 0.0
N331 N 0.16713 0.18236 0.83925 0.0
N332 N 0.21251 0.21041 0.95041 0.0
H333 H 0.12441 0.20725 0.8835 0.0
C334 C 0.22453 0.0847 0.58162 0.0
O335 O 0.23129 0.10226 0.64157 0.0
O336 O 0.08969 0.18604 0.75171 0.0
H337 H 0.21373 0.1599 0.80485 0.0
H338 H 0.02065 0.11678 0.59109 0.0
H339 H 0.25479 0.1845 0.90692 0.0
Zn340 Zn 0.57649 0.36377 0.4246 0.0
C341 C 0.68488 0.38296 0.45191 0.0
N342 N 0.68441 0.36596 0.50593 0.0
C343 C 0.65078 0.3528 0.49697 0.0
N344 N 0.63072 0.36259 0.4407 0.0
N345 N 0.65282 0.3799 0.4098 0.0
C346 C 0.66306 0.45027 0.29842 0.0
O347 O 0.63618 0.45384 0.33432 0.0
O348 O 0.55103 0.31897 0.40533 0.0
Zn349 Zn 0.64497 0.38258 0.30946 0.0
N350 N 0.55712 0.38997 0.49993 0.0
C351 C 0.55991 0.44203 0.57177 0.0
C352 C 0.57335 0.42049 0.52161 0.0
C353 C 0.52725 0.38026 0.52595 0.0
N354 N 0.53034 0.43246 0.59772 0.0
C355 C 0.51321 0.40228 0.57603 0.0
O356 O 0.59325 0.39288 0.27058 0.0
C357 C 0.56119 0.39356 0.28548 0.0
O358 O 0.55408 0.38472 0.34111 0.0
H359 H 0.59655 0.42804 0.49969 0.0
H360 H 0.51436 0.35604 0.5075 0.0
C361 C 0.6592 0.33097 0.19401 0.0
C362 C 0.66093 0.29673 0.1657 0.0
C363 C 0.65757 0.2791 0.27341 0.0
C364 C 0.65383 0.31249 0.29987 0.0
N365 N 0.65513 0.33799 0.26092 0.0
N366 N 0.66062 0.27201 0.20703 0.0
H367 H 0.65934 0.35136 0.16269 0.0
C368 C 0.56366 0.29095 0.38354 0.0
O369 O 0.59864 0.28737 0.38534 0.0
O370 O 0.67458 0.42067 0.28265 0.0
H371 H 0.6488 0.31819 0.35086 0.0
H372 H 0.57277 0.4663 0.58974 0.0
H373 H 0.65673 0.25884 0.3048 0.0
Zn374 Zn 0.42249 0.82167 0.2295 0.0
C375 C 0.3995 0.92169 0.25404 0.0
N376 N 0.41483 0.91803 0.31733 0.0
C377 C 0.42608 0.88613 0.31258 0.0
N378 N 0.41723 0.87025 0.24927 0.0
N379 N 0.40131 0.89283 0.21099 0.0
C380 C 0.31825 0.88507 0.04864 0.0
O381 O 0.32118 0.85505 0.06987 0.0
O382 O 0.47335 0.80614 0.24799 0.0
Zn383 Zn 0.39368 0.88744 0.10949 0.0
N384 N 0.39486 0.79922 0.28574 0.0
C385 C 0.33757 0.79094 0.32063 0.0
C386 C 0.35951 0.80776 0.28414 0.0
C387 C 0.40938 0.77435 0.32219 0.0
N388 N 0.35189 0.76611 0.35684 0.0
C389 C 0.38719 0.75702 0.35826 0.0
O390 O 0.39358 0.83908 0.06271 0.0
C391 C 0.39665 0.80847 0.07493 0.0
O392 O 0.40544 0.80063 0.13442 0.0
H393 H 0.3485 0.82733 0.25424 0.0
H394 H 0.43763 0.76796 0.32265 0.0
C395 C 0.45931 0.89593 0.04872 0.0
C396 C 0.48568 0.91543 0.02625 0.0
C397 C 0.45716 0.96548 0.06723 0.0
C398 C 0.43045 0.94614 0.0873 0.0
N399 N 0.43235 0.91187 0.07918 0.0
N400 N 0.4838 0.94973 0.03651 0.0
H401 H 0.45951 0.86863 0.03993 0.0
C402 C 0.49191 0.80702 0.19992 0.0
O403 O 0.48122 0.82605 0.15188 0.0
O404 O 0.34506 0.90564 0.06457 0.0
H405 H 0.40801 0.95836 0.10832 0.0
H406 H 0.30937 0.79747 0.32012 0.0
H407 H 0.45614 0.99281 0.07414 0.0
Zn408 Zn 0.89073 0.31791 0.71248 0.0
C409 C 0.8998 0.42272 0.73904 0.0
N410 N 0.91304 0.41814 0.80229 0.0
C411 C 0.9136 0.38472 0.80385 0.0
N412 N 0.9014 0.36806 0.74088 0.0
N413 N 0.89382 0.3923 0.69961 0.0
C414 C 0.82239 0.41503 0.55546 0.0
O415 O 0.81572 0.40186 0.60961 0.0
O416 O 0.93649 0.29053 0.7053 0.0
Zn417 Zn 0.88741 0.38337 0.59808 0.0
N418 N 0.86204 0.30039 0.77728 0.0
C419 C 0.81333 0.30999 0.84186 0.0
C420 C 0.8332 0.31915 0.79267 0.0
C421 C 0.87131 0.27222 0.80868 0.0
N422 N 0.8237 0.28295 0.87524 0.0
C423 C 0.8524 0.26367 0.86041 0.0
O424 O 0.85532 0.34409 0.55621 0.0
C425 C 0.85213 0.31311 0.56204 0.0
O426 O 0.86403 0.30164 0.61744 0.0
H427 H 0.82609 0.34137 0.76751 0.0
H428 H 0.89379 0.25728 0.79541 0.0
C429 C 0.9595 0.38586 0.5368 0.0
C430 C 0.98992 0.3681 0.51559 0.0
C431 C 0.96938 0.31875 0.55478 0.0
C432 C 0.94063 0.33653 0.5779 0.0
N433 N 0.93505 0.36933 0.56714 0.0
N434 N 0.99343 0.33493 0.52489 0.0
H435 H 0.9553 0.41196 0.52795 0.0
C436 C 0.96964 0.29948 0.71676 0.0
O437 O 0.97813 0.33126 0.73805 0.0
O438 O 0.85526 0.41641 0.54446 0.0
H439 H 0.92242 0.32397 0.60377 0.0
H440 H 0.7904 0.32482 0.85476 0.0
H441 H 0.97302 0.29234 0.56178 0.0
Zn442 Zn 0.40194 0.16295 0.21685 0.0
C443 C 0.38855 0.06077 0.21793 0.0
N444 N 0.40044 0.06055 0.15762 0.0
C445 C 0.40768 0.09318 0.15405 0.0
N446 N 0.39895 0.11297 0.20879 0.0
N447 N 0.38918 0.09262 0.25149 0.0
C448 C 0.33105 0.08508 0.39556 0.0
O449 O 0.31791 0.10208 0.34548 0.0
O450 O 0.4523 0.17395 0.1976 0.0
Zn451 Zn 0.39454 0.10787 0.35033 0.0
N452 N 0.36642 0.17707 0.14519 0.0
C453 C 0.30418 0.17558 0.09796 0.0
C454 C 0.33244 0.16441 0.14277 0.0
C455 C 0.37344 0.20041 0.10379 0.0
N456 N 0.31086 0.19952 0.05811 0.0
C457 C 0.3447 0.21252 0.05963 0.0
O458 O 0.37588 0.15497 0.37419 0.0
C459 C 0.37635 0.18482 0.35751 0.0
O460 O 0.38768 0.19067 0.30284 0.0
H461 H 0.3273 0.14617 0.17648 0.0
H462 H 0.40066 0.21037 0.10702 0.0
C463 C 0.46268 0.11015 0.45002 0.0
C464 C 0.49897 0.12153 0.47101 0.0
C465 C 0.50237 0.13425 0.35944 0.0
C466 C 0.46658 0.1241 0.33992 0.0
N467 N 0.44682 0.11321 0.38544 0.0
N468 N 0.51726 0.13367 0.42454 0.0
H469 H 0.447 0.10009 0.48482 0.0
C470 C 0.48251 0.18935 0.20227 0.0
O471 O 0.5057 0.17696 0.16266 0.0
O472 O 0.36518 0.08032 0.4056 0.0
H473 H 0.45425 0.12657 0.28923 0.0
H474 H 0.27698 0.1658 0.09576 0.0
H475 H 0.51784 0.14373 0.32365 0.0
Zn476 Zn 0.66067 0.61427 0.12478 0.0
C477 C 0.6461 0.61949 0.3213 0.0
N478 N 0.65373 0.5864 0.31492 0.0
C479 C 0.66546 0.58065 0.25454 0.0
N480 N 0.66456 0.60924 0.22303 0.0
N481 N 0.65379 0.63395 0.26609 0.0
C482 C 0.59995 0.705 0.1793 0.0
O483 O 0.59906 0.6756 0.14224 0.0
O484 O 0.6978 0.58573 0.07511 0.0
Zn485 Zn 0.66745 0.6814 0.25879 0.0
N486 N 0.61006 0.60298 0.08569 0.0
C487 C 0.55121 0.58687 0.10534 0.0
C488 C 0.58763 0.59363 0.12864 0.0
C489 C 0.59687 0.60664 0.02002 0.0
N490 N 0.53808 0.59076 0.04037 0.0
C491 C 0.55977 0.60058 0.99692 0.0
O492 O 0.70251 0.68604 0.19067 0.0
C493 C 0.68855 0.68662 0.12944 0.0
O494 O 0.66795 0.6623 0.10051 0.0
H495 H 0.59776 0.5914 0.18088 0.0
H496 H 0.61467 0.6152 0.98701 0.0
C497 C 0.68042 0.71911 0.39696 0.0
C498 C 0.70354 0.73097 0.45691 0.0
C499 C 0.75208 0.70121 0.41347 0.0
C500 C 0.7293 0.68988 0.35438 0.0
N501 N 0.69407 0.69924 0.3466 0.0
N502 N 0.73885 0.72161 0.46297 0.0
H503 H 0.65231 0.7264 0.3901 0.0
C504 C 0.73014 0.59706 0.07968 0.0
O505 O 0.74013 0.62306 0.12478 0.0
O506 O 0.62575 0.71234 0.22712 0.0
H507 H 0.73966 0.67375 0.3145 0.0
H508 H 0.53332 0.5792 0.13903 0.0
H509 H 0.78017 0.69392 0.41959 0.0
Zn510 Zn 0.07051 0.85837 0.93536 0.0
C511 C 0.17849 0.87565 0.9511 0.0
N512 N 0.17868 0.86127 1.00848 0.0
C513 C 0.14456 0.85028 1.00501 0.0
N514 N 0.12387 0.85855 0.94828 0.0
N515 N 0.14554 0.87289 0.9119 0.0
C516 C 0.15607 0.93862 0.7864 0.0
O517 O 0.13383 0.94631 0.83091 0.0
O518 O 0.04929 0.81217 0.92528 0.0
Zn519 Zn 0.13207 0.87626 0.81275 0.0
N520 N 0.05221 0.8845 1.00978 0.0
C521 C 0.04904 0.93896 0.07059 0.0
C522 C 0.06473 0.91685 0.02452 0.0
C523 C 0.02416 0.87325 0.03866 0.0
N524 N 0.02072 0.92807 0.09843 0.0
C525 C 1.00735 0.8959 0.0833 0.0
O526 O 0.08165 0.89517 0.78567 0.0
C527 C 0.0501 0.89277 0.8021 0.0
O528 O 0.04499 0.87957 0.85475 0.0
H529 H 0.08636 0.92542 0.99963 0.0
H530 H 0.01422 0.84754 0.02507 0.0
C531 C 0.14476 0.81455 0.71313 0.0
C532 C 0.1293 0.78488 0.67382 0.0
C533 C 0.07788 0.79058 0.73107 0.0
C534 C 0.09346 0.81887 0.77077 0.0
N535 N 0.12592 0.83107 0.76072 0.0
N536 N 0.09617 0.7742 0.6841 0.0
H537 H 0.17058 0.82445 0.70509 0.0
C538 C 0.06449 0.78547 0.90354 0.0
O539 O 0.09843 0.78774 0.89451 0.0
O540 O 0.16402 0.90772 0.77241 0.0
H541 H 0.07945 0.83154 0.80926 0.0
H542 H 0.05878 0.96477 0.08318 0.0
H543 H 0.0514 0.78167 0.73733 0.0
C544 C 0.97473 0.24427 0.28564 0.0
C545 C 0.96499 0.23974 0.21378 0.0
C546 C 1.00412 0.28716 0.20311 0.0
C547 C 0.01166 0.29316 0.27458 0.0
N548 N 0.99851 0.28273 0.3843 0.0
N549 N 0.96213 0.26348 0.10745 0.0
C550 C 0.99485 0.27358 0.31602 0.0
C551 C 0.97698 0.26337 0.1736 0.0
N552 N 0.96762 0.21972 0.32461 0.0
N553 N 0.02416 0.30277 0.16317 0.0
H554 H 0.94145 0.24691 0.08413 0.0
H555 H 0.96755 0.28237 0.07816 0.0
H556 H 0.04549 0.31946 0.18264 0.0
H557 H 0.02202 0.29656 0.11092 0.0
H558 H 0.9776 0.22067 0.3759 0.0
H559 H 0.95514 0.19666 0.30556 0.0
H560 H 0.9836 0.27155 0.41626 0.0
H561 H 0.01416 0.30354 0.40787 0.0
C562 C 0.99103 0.73779 0.35123 0.0
C563 C 1.00828 0.72355 0.29629 0.0
C564 C 0.98614 0.76971 0.2309 0.0
C565 C 0.97314 0.78585 0.28903 0.0
N566 N 0.9669 0.788 0.40761 0.0
N567 N 1.00744 0.71796 0.17519 0.0
C568 C 0.97681 0.77077 0.35026 0.0
C569 C 1.00166 0.73724 0.23332 0.0
N570 N 0.98522 0.71857 0.40102 0.0
N571 N 0.98463 0.78606 0.17421 0.0
H572 H 0.01459 0.6927 0.17477 0.0
H573 H 1.00057 0.72521 0.12689 0.0
H574 H 0.97364 0.81011 0.1715 0.0
H575 H 0.99706 0.77733 0.13234 0.0
H576 H 0.97082 0.72685 0.44053 0.0
H577 H 0.98994 0.69262 0.39702 0.0
H578 H 0.97267 0.77963 0.45522 0.0
H579 H 0.95542 0.81193 0.40882 0.0
C580 C 0.48389 0.79526 0.77894 0.0
C581 C 0.52031 0.78954 0.80519 0.0
C582 C 0.51362 0.72958 0.76693 0.0
C583 C 0.47948 0.73604 0.72959 0.0
N584 N 0.42851 0.77287 0.7106 0.0
N585 N 0.55927 0.75 0.86051 0.0
C586 C 0.46328 0.76826 0.73931 0.0
C587 C 0.53198 0.75618 0.81082 0.0
N588 N 0.46875 0.82566 0.7966 0.0
N589 N 0.52905 0.69846 0.7593 0.0
H590 H 0.5704 0.76921 0.89723 0.0
H591 H 0.56713 0.72576 0.87083 0.0
H592 H 0.51638 0.67787 0.72882 0.0
H593 H 0.55553 0.6937 0.7799 0.0
H594 H 0.44194 0.83183 0.78184 0.0
H595 H 0.4826 0.84362 0.83276 0.0
H596 H 0.41611 0.79627 0.70914 0.0
H597 H 0.41179 0.75276 0.6879 0.0
C598 C 0.45197 0.24472 0.80785 0.0
C599 C 0.46079 0.27318 0.77583 0.0
C600 C 0.50042 0.23756 0.71198 0.0
C601 C 0.50048 0.2137 0.75895 0.0
N602 N 0.46741 0.18838 0.83596 0.0
N603 N 0.49262 0.29603 0.69361 0.0
C604 C 0.47336 0.21522 0.80208 0.0
C605 C 0.4843 0.26927 0.72577 0.0
N606 N 0.42177 0.24504 0.83948 0.0
N607 N 0.51513 0.22944 0.65375 0.0
H608 H 0.48167 0.31987 0.70282 0.0
H609 H 0.51259 0.29516 0.66197 0.0
H610 H 0.5249 0.20527 0.64107 0.0
H611 H 0.51347 0.24499 0.61503 0.0
H612 H 0.41225 0.2243 0.85933 0.0
H613 H 0.40373 0.26499 0.83969 0.0
H614 H 0.45314 0.18998 0.87722 0.0
H615 H 0.47582 0.16406 0.82089 0.0
C616 C 0.98616 0.74814 0.78512 0.0
C617 C 1.00167 0.71967 0.75168 0.0
C618 C 0.05802 0.7297 0.83016 0.0
C619 C 0.04149 0.75724 0.86512 0.0
N620 N 0.98469 0.77981 0.89395 0.0
N621 N 0.05508 0.68925 0.72917 0.0
C622 C 1.00396 0.76274 0.84812 0.0
C623 C 0.03865 0.71231 0.7703 0.0
N624 N 0.95519 0.76203 0.75607 0.0
N625 N 0.09095 0.71868 0.85739 0.0
H626 H 0.04121 0.67749 0.68377 0.0
H627 H 0.0827 0.68439 0.73615 0.0
H628 H 0.10333 0.72858 0.90536 0.0
H629 H 0.10371 0.69741 0.83703 0.0
H630 H 0.9441 0.78396 0.77803 0.0
H631 H 0.94417 0.755 0.7058 0.0
H632 H 0.95665 0.78236 0.88484 0.0
H633 H 0.99587 0.78659 0.94426 0.0
C634 C 0.01265 0.21294 0.70755 0.0
C635 C 0.04755 0.22044 0.6948 0.0
C636 C 0.0317 0.27983 0.69032 0.0
C637 C 0.99794 0.2731 0.71229 0.0
N638 N 0.96363 0.23393 0.76411 0.0
N639 N 0.09335 0.26161 0.68518 0.0
C640 C 0.99024 0.23977 0.72663 0.0
C641 C 0.05805 0.25405 0.68937 0.0
N642 N 1.00091 0.18018 0.70214 0.0
N643 N 0.03846 0.30992 0.66763 0.0
H644 H 0.11342 0.24337 0.6829 0.0
H645 H 0.10334 0.28629 0.68955 0.0
H646 H 0.0205 0.32986 0.66617 0.0
H647 H 0.06085 0.31392 0.64365 0.0
H648 H 0.97399 0.1738 0.70377 0.0
H649 H 0.01716 0.15974 0.68917 0.0
H650 H 0.95903 0.21046 0.77997 0.0
H651 H 0.95027 0.25342 0.78838 0.0
C652 C 0.49074 0.22415 0.31891 0.0
C653 C 0.49324 0.22087 0.24833 0.0
C654 C 0.53924 0.26572 0.26661 0.0
C655 C 0.53872 0.26737 0.33751 0.0
N656 N 0.50851 0.25493 0.43048 0.0
N657 N 0.50769 0.24812 0.15443 0.0
C658 C 0.51242 0.24893 0.3634 0.0
C659 C 0.51374 0.24478 0.22213 0.0
N660 N 0.46885 0.20294 0.3438 0.0
N661 N 0.56404 0.28416 0.24148 0.0
H662 H 0.48756 0.23421 0.12142 0.0
H663 H 0.51952 0.267 0.13252 0.0
H664 H 0.58014 0.30312 0.27088 0.0
H665 H 0.56912 0.28015 0.19148 0.0
H666 H 0.46869 0.20108 0.39501 0.0
H667 H 0.45148 0.186 0.31245 0.0
H668 H 0.48737 0.24525 0.45158 0.0
H669 H 0.52534 0.27149 0.46503 0.0
C670 C 0.5347 0.72021 0.18379 0.0
C671 C 0.56963 0.72887 0.17058 0.0
C672 C 0.55346 0.78855 0.17521 0.0
C673 C 0.51846 0.78013 0.18809 0.0
N674 N 0.47214 0.73687 0.181 0.0
N675 N 0.60614 0.76803 0.12626 0.0
C676 C 0.50788 0.74559 0.18526 0.0
C677 C 0.57721 0.76216 0.15804 0.0
N678 N 0.52733 0.68823 0.19706 0.0
N679 N 0.56456 0.82155 0.18155 0.0
H680 H 0.62127 0.74807 0.10705 0.0
H681 H 0.61171 0.7914 0.11101 0.0
H682 H 0.54807 0.84165 0.19529 0.0
H683 H 0.59114 0.82866 0.17899 0.0
H684 H 0.50349 0.68164 0.21415 0.0
H685 H 0.54592 0.66866 0.19559 0.0
H686 H 0.46268 0.71196 0.17203 0.0
H687 H 0.45136 0.75442 0.17883 0.0
C688 C 0.24274 0.38235 0.99171 0.0
C689 C 0.25997 0.413 0.98266 0.0
C690 C 0.22222 0.44395 0.06107 0.0
C691 C 0.20314 0.41355 0.06497 0.0
N692 N 0.18959 0.35561 0.02006 0.0
N693 N 0.26266 0.47384 1.00175 0.0
C694 C 0.21168 0.38338 0.0258 0.0
C695 C 0.24875 0.44412 0.0155 0.0
N696 N 0.25727 0.35192 0.97136 0.0
N697 N 0.21574 0.47238 0.10227 0.0
H698 H 0.28204 0.47479 0.96921 0.0
H699 H 0.25313 0.49749 0.0185 0.0
H700 H 0.1958 0.4732 0.13408 0.0
H701 H 0.23135 0.49441 0.10776 0.0
H702 H 0.24803 0.32891 0.98297 0.0
H703 H 0.28116 0.34974 0.94981 0.0
H704 H 0.1924 0.33387 0.98714 0.0
H705 H 0.166 0.35581 0.04242 0.0
C706 C 0.86209 0.9838 0.35088 0.0
C707 C 0.83742 0.96072 0.3108 0.0
C708 C 0.81242 0.00635 0.24655 0.0
C709 C 0.8444 0.02531 0.27178 0.0
N710 N 0.89718 0.03536 0.35597 0.0
N711 N 0.78315 0.95088 0.23234 0.0
C712 C 0.86808 0.01541 0.32772 0.0
C713 C 0.80955 0.97295 0.26463 0.0
N714 N 0.8808 0.97437 0.40872 0.0
N715 N 0.78607 0.01969 0.20338 0.0
H716 H 0.78184 0.92618 0.2448 0.0
H717 H 0.76369 0.95641 0.19287 0.0
H718 H 0.78818 0.0441 0.18999 0.0
H719 H 0.76125 0.00788 0.1852 0.0
H720 H 0.89848 0.99026 0.44285 0.0
H721 H 0.87509 0.95131 0.42496 0.0
H722 H 0.91766 0.02788 0.39181 0.0
H723 H 0.9013 0.05922 0.3415 0.0
C724 C 0.27296 0.57282 0.46453 0.0
C725 C 0.24613 0.59515 0.48595 0.0
C726 C 0.28816 0.61529 0.58712 0.0
C727 C 0.31725 0.60135 0.55562 0.0
N728 N 0.33731 0.56007 0.47291 0.0
N729 N 0.22643 0.63504 0.57273 0.0
C730 C 0.30933 0.57709 0.49789 0.0
C731 C 0.25304 0.61523 0.54941 0.0
N732 N 0.26361 0.54819 0.41206 0.0
N733 N 0.29376 0.62656 0.65405 0.0
H734 H 0.19981 0.63411 0.54832 0.0
H735 H 0.23123 0.65325 0.61465 0.0
H736 H 0.31876 0.6236 0.68231 0.0
H737 H 0.27316 0.63459 0.68202 0.0
H738 H 0.28127 0.52983 0.39537 0.0
H739 H 0.23685 0.54453 0.38927 0.0
H740 H 0.33473 0.54459 0.42709 0.0
H741 H 0.36367 0.5623 0.49877 0.0
C742 C 0.62537 0.99074 0.7542 0.0
C743 C 0.63357 0.97686 0.81614 0.0
C744 C 0.63032 0.03419 0.87567 0.0
C745 C 0.62557 0.04809 0.81359 0.0
N746 N 0.63665 0.03874 0.69675 0.0
N747 N 0.65889 0.98933 0.93451 0.0
C748 C 0.63012 0.02603 0.75414 0.0
C749 C 0.64184 1.00009 0.87631 0.0
N750 N 0.60847 0.97211 0.6977 0.0
N751 N 0.62029 0.05159 0.9322 0.0
H752 H 0.66909 0.9649 0.93576 0.0
H753 H 0.66609 0.00583 0.97855 0.0
H754 H 0.60803 0.07508 0.93094 0.0
H755 H 0.62078 0.04097 0.9775 0.0
H756 H 0.59992 0.98276 0.65307 0.0
H757 H 0.59917 0.94759 0.69818 0.0
H758 H 0.64078 0.02309 0.65318 0.0
H759 H 0.64191 0.06444 0.69635 0.0
C760 C 0.77042 0.56978 0.91514 0.0
C761 C 0.80743 0.57831 0.93722 0.0
C762 C 0.79343 0.58442 0.05427 0.0
C763 C 0.75569 0.58467 0.0305 0.0
N764 N 0.70889 0.58206 0.93271 0.0
N765 N 0.85332 0.59785 0.03178 0.0
C766 C 0.74415 0.57797 0.95947 0.0
C767 C 0.81899 0.58621 1.00801 0.0
N768 N 0.76025 0.55416 0.85119 0.0
N769 N 0.80499 0.58231 0.12123 0.0
H770 H 0.87326 0.60046 1.00137 0.0
H771 H 0.86114 0.60774 0.08203 0.0
H772 H 0.78706 0.57953 0.15582 0.0
H773 H 0.83211 0.57925 0.14034 0.0
H774 H 0.73407 0.54492 0.83418 0.0
H775 H 0.77903 0.54704 0.81836 0.0
H776 H 0.7005 0.58088 0.88075 0.0
H777 H 0.68858 0.59012 0.96112 0.0
C778 C 0.13514 0.97236 0.69166 0.0
C779 C 0.16332 0.96475 0.74261 0.0
C780 C 0.19143 0.01998 0.74016 0.0
C781 C 0.15886 0.03035 0.70365 0.0
N782 N 0.10281 0.01619 0.633 0.0
N783 N 0.22134 0.97816 0.80798 0.0
C784 C 0.13226 0.00598 0.67365 0.0
C785 C 0.19305 0.9873 0.76311 0.0
N786 N 0.11047 0.94773 0.66331 0.0
N787 N 0.21954 0.04256 0.75641 0.0
H788 H 0.22308 0.95396 0.82349 0.0
H789 H 0.24255 0.99431 0.83043 0.0
H790 H 0.21761 0.06674 0.74089 0.0
H791 H 0.24497 0.03683 0.78056 0.0
H792 H 0.08973 0.95084 0.62423 0.0
H793 H 0.11245 0.92306 0.67625 0.0
H794 H 0.08012 1.00116 0.61407 0.0
H795 H 0.10133 0.04068 0.61914 0.0
C796 C 0.72619 0.43246 0.48433 0.0
C797 C 0.71869 0.40115 0.44375 0.0
C798 C 0.7842 0.39217 0.4468 0.0
C799 C 0.79086 0.41829 0.50151 0.0
N800 N 0.7697 0.46716 0.5651 0.0
N801 N 0.74017 0.35293 0.37895 0.0
C802 C 0.7623 0.44017 0.51676 0.0
C803 C 0.74773 0.38206 0.42119 0.0
N804 N 0.69822 0.45386 0.49378 0.0
N805 N 0.81266 0.37655 0.42077 0.0
H806 H 0.71375 0.34644 0.35757 0.0
H807 H 0.75942 0.33509 0.36696 0.0
H808 H 0.83936 0.3843 0.43718 0.0
H809 H 0.80982 0.35853 0.37851 0.0
H810 H 0.70141 0.47807 0.51964 0.0
H811 H 0.67186 0.44795 0.47035 0.0
H812 H 0.75001 0.48247 0.58434 0.0
H813 H 0.7962 0.47373 0.5868 0.0
C814 C 0.42492 0.97823 0.25241 0.0
C815 C 0.39419 0.9566 0.23609 0.0
C816 C 0.35583 0.00656 0.22421 0.0
C817 C 0.38666 0.02793 0.24607 0.0
N818 N 0.44733 0.03289 0.30401 0.0
N819 N 0.32936 0.95024 0.21795 0.0
C820 C 0.42014 0.01326 0.26763 0.0
C821 C 0.35918 0.97076 0.22534 0.0
N822 N 0.45889 0.96522 0.25277 0.0
N823 N 0.3237 0.02051 0.20099 0.0
H824 H 0.33128 0.92397 0.21561 0.0
H825 H 0.30313 0.9594 0.21726 0.0
H826 H 0.32037 0.04666 0.20333 0.0
H827 H 0.30114 0.00623 0.17761 0.0
H828 H 0.48214 0.98033 0.25897 0.0
H829 H 0.46329 0.93961 0.23906 0.0
H830 H 0.47164 0.02331 0.326 0.0
H831 H 0.4432 0.05828 0.31813 0.0
C832 C 0.76437 0.95329 0.54123 0.0
C833 C 0.75979 0.92813 0.4845 0.0
C834 C 0.70144 0.91155 0.51617 0.0
C835 C 0.70896 0.93269 0.57857 0.0
N836 N 0.74767 0.97379 0.6514 0.0
N837 N 0.72639 0.87933 0.42439 0.0
C838 C 0.7404 0.95377 0.59108 0.0
C839 C 0.7287 0.90655 0.47302 0.0
N840 N 0.79113 0.97719 0.54659 0.0
N841 N 0.66858 0.89558 0.49822 0.0
H842 H 0.74616 0.87325 0.39336 0.0
H843 H 0.70663 0.86051 0.41934 0.0
H844 H 0.64802 0.89735 0.52844 0.0
H845 H 0.66026 0.88324 0.44998 0.0
H846 H 0.79398 0.99808 0.58319 0.0
H847 H 0.8087 0.97774 0.51057 0.0
H848 H 0.77217 0.98656 0.6677 0.0
H849 H 0.72944 0.97651 0.68662 0.0
C850 C 0.36015 0.4942 0.85834 0.0
C851 C 0.34414 0.47114 0.80399 0.0
C852 C 0.31748 0.51921 0.74822 0.0
C853 C 0.34148 0.54144 0.79383 0.0
N854 N 0.388 0.54916 0.89165 0.0
N855 N 0.30242 0.461 0.70151 0.0
C856 C 0.36296 0.52889 0.84962 0.0
C857 C 0.32041 0.4836 0.75104 0.0
N858 N 0.37164 0.48305 0.91896 0.0
N859 N 0.29226 0.53221 0.70229 0.0
H860 H 0.30298 0.43502 0.7051 0.0
H861 H 0.288 0.46769 0.65684 0.0
H862 H 0.28956 0.55817 0.69986 0.0
H863 H 0.27224 0.51774 0.67059 0.0
H864 H 0.38134 0.49897 0.96256 0.0
H865 H 0.36621 0.45839 0.92652 0.0
H866 H 0.40689 0.53986 0.92817 0.0
H867 H 0.39227 0.57451 0.8865 0.0
C868 C 0.72975 0.14042 0.09241 0.0
C869 C 0.72189 0.11168 0.04403 0.0
C870 C 0.78374 0.09142 0.07388 0.0
C871 C 0.79371 0.12385 0.10793 0.0
N872 N 0.77643 0.17833 0.15603 0.0
N873 N 0.73868 0.05701 0.9958 0.0
C874 C 0.76638 0.14751 0.12157 0.0
C875 C 0.74791 0.08584 0.03838 0.0
N876 N 0.70246 0.16168 0.10751 0.0
N877 N 0.80955 0.06709 0.07167 0.0
H878 H 0.71229 0.05242 0.97133 0.0
H879 H 0.7568 0.03808 0.98393 0.0
H880 H 0.83597 0.07171 0.09589 0.0
H881 H 0.80444 0.04218 0.05063 0.0
H882 H 0.70573 0.18206 0.14526 0.0
H883 H 0.67561 0.15714 0.08587 0.0
H884 H 0.75903 0.19864 0.16154 0.0
H885 H 0.80328 0.18386 0.17639 0.0
C886 C 0.16107 0.52378 0.27825 0.0
C887 C 0.12845 0.54229 0.27799 0.0
C888 C 0.09424 0.48957 0.25473 0.0
C889 C 0.12604 0.47084 0.26851 0.0
N890 N 0.19084 0.47038 0.29606 0.0
N891 N 0.06387 0.54195 0.27911 0.0
C892 C 0.15997 0.48804 0.28078 0.0
C893 C 0.09505 0.52482 0.27101 0.0
N894 N 0.19261 0.54002 0.27388 0.0
N895 N 0.06349 0.4737 0.2227 0.0
H896 H 0.06375 0.56793 0.29363 0.0
H897 H 0.0392 0.52976 0.27926 0.0
H898 H 0.06405 0.44836 0.20495 0.0
H899 H 0.0399 0.48633 0.20646 0.0
H900 H 0.21633 0.52724 0.26578 0.0
H901 H 0.1943 0.56626 0.27496 0.0
H902 H 0.21604 0.48198 0.31217 0.0
H903 H 0.1906 0.44408 0.29478 0.0
C904 C 0.3021 0.11174 0.49295 0.0
C905 C 0.30814 0.08208 0.4501 0.0
C906 C 0.26215 0.05214 0.49919 0.0
C907 C 0.25295 0.08315 0.53523 0.0
N908 N 0.25863 0.14424 0.55067 0.0
N909 N 0.29209 0.02442 0.40763 0.0
C910 C 0.27155 0.11343 0.52813 0.0
C911 C 0.28769 0.05228 0.45197 0.0
N912 N 0.32575 0.13846 0.5004 0.0
N913 N 0.24734 0.02252 0.51145 0.0
H914 H 0.3115 0.02348 0.37471 0.0
H915 H 0.27533 0.0031 0.40095 0.0
H916 H 0.22889 0.02156 0.54576 0.0
H917 H 0.25547 0.99881 0.49184 0.0
H918 H 0.32452 0.15959 0.53574 0.0
H919 H 0.34897 0.13775 0.47686 0.0
H920 H 0.26911 0.16707 0.54057 0.0
H921 H 0.23478 0.14719 0.57204 0.0
C922 C 0.70442 0.49983 0.29636 0.0
C923 C 0.67391 0.47972 0.26614 0.0
C924 C 0.65577 0.52316 0.19136 0.0
C925 C 0.67954 0.54641 0.23368 0.0
N926 N 0.73278 0.55594 0.31496 0.0
N927 N 0.62207 0.47042 0.17966 0.0
C928 C 0.70666 0.53395 0.2812 0.0
C929 C 0.65035 0.49063 0.21119 0.0
N930 N 0.73018 0.48659 0.34092 0.0
N931 N 0.63968 0.53198 0.13111 0.0
H932 H 0.61841 0.44577 0.19069 0.0
H933 H 0.6015 0.47866 0.14483 0.0
H934 H 0.64747 0.55422 0.11443 0.0
H935 H 0.62336 0.51576 0.09511 0.0
H936 H 0.75391 0.49919 0.36352 0.0
H937 H 0.72867 0.4617 0.35208 0.0
H938 H 0.7519 0.55029 0.35484 0.0
H939 H 0.73477 0.58054 0.30221 0.0
C940 C 0.2266 0.91856 0.97545 0.0
C941 C 0.21323 0.88855 0.9355 0.0
C942 C 0.27491 0.86649 0.94371 0.0
C943 C 0.28576 0.89176 0.99888 0.0
N944 N 0.27404 0.9456 0.05962 0.0
N945 N 0.22474 0.83701 0.86936 0.0
C946 C 0.26261 0.91958 0.01112 0.0
C947 C 0.23785 0.86403 0.91394 0.0
N948 N 0.20365 0.94512 0.98182 0.0
N949 N 0.30014 0.84484 0.92067 0.0
H950 H 0.1978 0.83595 0.8464 0.0
H951 H 0.23981 0.81579 0.85659 0.0
H952 H 0.32752 0.84692 0.9407 0.0
H953 H 0.29474 0.82696 0.87845 0.0
H954 H 0.2114 0.96887 1.00679 0.0
H955 H 0.17713 0.9436 0.95665 0.0
H956 H 0.25729 0.96475 0.07642 0.0
H957 H 0.30051 0.94774 0.08426 0.0
C958 C 0.89005 0.50516 0.65485 0.0
C959 C 0.8952 0.52952 0.71357 0.0
C960 C 0.88584 0.48317 0.77827 0.0
C961 C 0.89197 0.45847 0.7235 0.0
N962 N 0.91394 0.4517 0.61567 0.0
N963 N 0.91129 0.53579 0.83505 0.0
C964 C 0.89732 0.47073 0.66242 0.0
C965 C 0.89632 0.51724 0.77695 0.0
N966 N 0.87967 0.51466 0.59198 0.0
N967 N 0.87045 0.47445 0.83157 0.0
H968 H 0.92411 0.55895 0.83497 0.0
H969 H 0.91451 0.52597 0.88155 0.0
H970 H 0.85858 0.4507 0.8305 0.0
H971 H 0.86535 0.49234 0.87126 0.0
H972 H 0.87512 0.49696 0.54906 0.0
H973 H 0.87166 0.53929 0.58469 0.0
H974 H 0.92027 0.46112 0.57222 0.0
H975 H 0.92547 0.42875 0.6259 0.0
C976 C 0.14138 0.26911 0.98394 0.0
C977 C 0.1634 0.24129 1.00054 0.0
C978 C 0.16844 0.26425 0.12086 0.0
C979 C 0.14248 0.2894 0.10443 0.0
N980 N 0.09535 0.30662 0.02002 0.0
N981 N 0.19008 0.20816 0.08805 0.0
C982 C 0.1262 0.28901 0.0359 0.0
C983 C 0.17454 0.23753 0.07007 0.0
N984 N 0.1364 0.27804 0.91961 0.0
N985 N 0.18879 0.26655 0.18328 0.0
H986 H 0.19336 0.1874 0.05285 0.0
H987 H 0.19581 0.20313 0.13824 0.0
H988 H 0.18708 0.28659 0.22078 0.0
H989 H 0.21029 0.25045 0.19505 0.0
H990 H 0.12299 0.30001 0.90727 0.0
H991 H 0.14938 0.26613 0.88081 0.0
H992 H 0.08145 0.30491 0.97095 0.0
H993 H 0.08124 0.31897 0.05677 0.0
C994 C 0.94106 0.87931 0.07964 0.0
C995 C 0.97616 0.88638 0.11672 0.0
C996 C 0.94932 0.90053 0.21987 0.0
C997 C 0.91452 0.89014 0.18571 0.0
N998 N 0.87714 0.86853 0.08244 0.0
N999 N 0.01372 0.8927 0.22506 0.0
C1000 C 0.91047 0.87856 0.11548 0.0
C1001 C 0.98017 0.8928 0.18791 0.0
N1002 N 0.93647 0.87594 1.01049 0.0
N1003 N 0.95305 0.92105 0.27975 0.0
H1004 H 0.03697 0.88675 0.20279 0.0
H1005 H 0.01757 0.89489 0.27785 0.0
H1006 H 0.93111 0.93115 0.3017 0.0
H1007 H 0.97787 0.93153 0.30298 0.0
H1008 H 0.91126 0.87453 0.98062 0.0
H1009 H 0.95787 0.87673 0.98249 0.0
H1010 H 0.87292 0.85622 0.0334 0.0
H1011 H 0.85384 0.87115 0.10569 0.0
C1012 C 0.40989 0.67075 0.41754 0.0
C1013 C 0.40227 0.67781 0.48499 0.0
C1014 C 0.40096 0.73839 0.47228 0.0
C1015 C 0.40114 0.73081 0.40205 0.0
N1016 N 0.40693 0.69 0.30609 0.0
N1017 N 0.38511 0.71872 0.57291 0.0
C1018 C 0.40681 0.69709 0.37423 0.0
C1019 C 0.39725 0.71179 0.51199 0.0
N1020 N 0.41906 0.63869 0.39471 0.0
N1021 N 0.40368 0.77125 0.50097 0.0
H1022 H 0.38359 0.70066 0.60585 0.0
H1023 H 0.37396 0.74195 0.58788 0.0
H1024 H 0.40663 0.79132 0.47281 0.0
H1025 H 0.40676 0.77803 0.55319 0.0
H1026 H 0.42822 0.63223 0.34835 0.0
H1027 H 0.42007 0.61898 0.42496 0.0
H1028 H 0.40691 0.66558 0.28128 0.0
H1029 H 0.40544 0.70875 0.27358 0.0
C1030 C 0.50306 0.12903 0.60034 0.0
C1031 C 0.51911 0.12 0.54067 0.0
C1032 C 0.57803 0.11771 0.61183 0.0
C1033 C 0.56086 0.12169 0.67064 0.0
N1034 N 0.50438 0.11831 0.71622 0.0
N1035 N 0.57079 0.09434 0.49464 0.0
C1036 C 0.52257 0.12355 0.66376 0.0
C1037 C 0.55646 0.11134 0.54764 0.0
N1038 N 0.47016 0.14409 0.59785 0.0
N1039 N 0.61489 0.11811 0.61717 0.0
H1040 H 0.55505 0.08518 0.4492 0.0
H1041 H 0.59716 0.08524 0.49912 0.0
H1042 H 0.63146 0.12124 0.66375 0.0
H1043 H 0.62861 0.11829 0.57537 0.0
H1044 H 0.45925 0.15333 0.64138 0.0
H1045 H 0.45615 0.15101 0.55329 0.0
H1046 H 0.4762 0.11668 0.71077 0.0
H1047 H 0.51739 0.11259 0.76294 0.0
C1048 C 0.15026 0.72846 0.63476 0.0
C1049 C 0.14714 0.76279 0.62366 0.0
C1050 C 0.15361 0.74606 0.50478 0.0
C1051 C 0.1457 0.71171 0.51221 0.0
N1052 N 0.13148 0.67195 0.58957 0.0
N1053 N 0.14488 0.80476 0.54572 0.0
C1054 C 0.14346 0.70304 0.57885 0.0
C1055 C 0.14909 0.77189 0.55814 0.0
N1056 N 0.15746 0.72028 0.69947 0.0
N1057 N 0.16638 0.75401 0.44794 0.0
H1058 H 0.14234 0.82435 0.58379 0.0
H1059 H 0.14188 0.81205 0.49701 0.0
H1060 H 0.17313 0.73564 0.41056 0.0
H1061 H 0.17469 0.77839 0.44242 0.0
H1062 H 0.16279 0.69565 0.71069 0.0
H1063 H 0.16188 0.73881 0.74107 0.0
H1064 H 0.12623 0.66641 0.63682 0.0
H1065 H 0.12241 0.65281 0.55169 0.0
C1066 C 0.50562 0.90525 0.91315 0.0
C1067 C 0.51204 0.90046 0.9824 0.0
C1068 C 0.57424 0.88271 0.9695 0.0
C1069 C 0.5696 0.89335 0.90384 0.0
N1070 N 0.53096 0.91676 0.81375 0.0
N1071 N 0.55147 0.88362 0.0777 0.0
C1072 C 0.53511 0.90473 0.87553 0.0
C1073 C 0.54587 0.88811 1.01065 0.0
N1074 N 0.47108 0.91044 0.88343 0.0
N1075 N 0.60621 0.86851 0.99289 0.0
H1076 H 0.53088 0.88649 0.10807 0.0
H1077 H 0.57659 0.87846 0.10386 0.0
H1078 H 0.62747 0.86571 0.96414 0.0
H1079 H 0.61078 0.8575 0.03787 0.0
H1080 H 0.46394 0.91082 0.83149 0.0
H1081 H 0.44887 0.91077 0.90986 0.0
H1082 H 0.50833 0.93002 0.79512 0.0
H1083 H 0.55076 0.91455 0.78173 0.0
C1084 C 0.33339 0.26348 0.90839 0.0
C1085 C 0.35422 0.29312 0.93431 0.0
C1086 C 0.36604 0.27121 0.04471 0.0
C1087 C 0.34978 0.23975 0.01616 0.0
N1088 N 0.32635 0.20359 0.91471 0.0
N1089 N 0.40041 0.31863 0.02232 0.0
C1090 C 0.33596 0.23514 0.94607 0.0
C1091 C 0.37348 0.29516 1.00113 0.0
N1092 N 0.30986 0.26266 0.84968 0.0
N1093 N 0.37312 0.27911 0.11329 0.0
H1094 H 0.40979 0.33426 0.99012 0.0
H1095 H 0.41661 0.31919 0.06914 0.0
H1096 H 0.36606 0.26334 0.14754 0.0
H1097 H 0.38212 0.30306 0.13577 0.0
H1098 H 0.29193 0.24253 0.83224 0.0
H1099 H 0.30512 0.28352 0.8228 0.0
H1100 H 0.3192 0.19859 0.86245 0.0
H1101 H 0.3293 0.18198 0.93983 0.0
C1102 C 0.9938 0.0643 0.29246 0.0
C1103 C 0.993 0.09608 0.26637 0.0
C1104 C 0.04988 0.11159 0.34155 0.0
C1105 C 0.0451 0.08427 0.37873 0.0
N1106 N 0.01365 0.03281 0.38765 0.0
N1107 N 0.0196 0.15246 0.27468 0.0
C1108 C 0.01767 0.05975 0.35281 0.0
C1109 C 0.0213 0.12019 0.29199 0.0
N1110 N 0.9721 0.03846 0.25906 0.0
N1111 N 0.08126 0.13008 0.35494 0.0
H1112 H 0.99857 0.16153 0.24231 0.0
H1113 H 0.03741 0.17165 0.29851 0.0
H1114 H 0.10275 0.12416 0.39042 0.0
H1115 H 0.08747 0.14852 0.32525 0.0
H1116 H 0.97304 0.01398 0.27281 0.0
H1117 H 0.95595 0.04079 0.21308 0.0
H1118 H 0.99162 0.01614 0.37656 0.0
H1119 H 0.03206 0.02812 0.42965 0.0
C1120 C 0.83871 0.7667 0.93605 0.0
C1121 C 0.84009 0.75896 1.00391 0.0
C1122 C 0.86565 0.70372 0.97062 0.0
C1123 C 0.86022 0.70961 0.90111 0.0
N1124 N 0.83325 0.74469 0.81736 0.0
N1125 N 0.84481 0.71554 0.07941 0.0
C1126 C 0.84446 0.7406 0.88367 0.0
C1127 C 0.85059 0.72614 0.01934 0.0
N1128 N 0.83298 0.79916 0.92155 0.0
N1129 N 0.88678 0.67777 0.99155 0.0
H1130 H 0.83216 0.73039 0.1153 0.0
H1131 H 0.84873 0.69063 0.08992 0.0
H1132 H 0.90056 0.66193 0.95937 0.0
H1133 H 0.89415 0.67462 0.04247 0.0
H1134 H 0.83546 0.80682 0.87445 0.0
H1135 H 0.82924 0.81911 0.95816 0.0
H1136 H 0.8184 0.76543 0.80238 0.0
H1137 H 0.83516 0.72574 0.77771 0.0
C1138 C 0.0962 0.12255 0.89946 0.0
C1139 C 0.08986 0.1121 0.82872 0.0
C1140 C 0.0244 0.11711 0.83203 0.0
C1141 C 0.03025 0.12161 0.90369 0.0
N1142 N 0.07258 0.12607 1.00694 0.0
N1143 N 0.04665 0.09063 0.73217 0.0
C1144 C 0.06643 0.12438 0.93799 0.0
C1145 C 0.05359 0.10743 0.79588 0.0
N1146 N 0.13079 0.12948 0.93013 0.0
N1147 N 0.99033 0.12064 0.79864 0.0
H1148 H 0.06685 0.07981 0.70621 0.0
H1149 H 0.0207 0.08363 0.70849 0.0
H1150 H 0.96864 0.12866 0.82398 0.0
H1151 H 0.98438 0.11871 0.74612 0.0
H1152 H 0.1371 0.14054 0.97994 0.0
H1153 H 0.15303 0.12655 0.90379 0.0
H1154 H 0.09817 0.1242 0.03443 0.0
H1155 H 0.05182 0.12714 0.03678 0.0
C1156 C 0.63384 0.29521 0.63006 0.0
C1157 C 0.64332 0.26305 0.59852 0.0
C1158 C 0.65763 0.29007 0.50229 0.0
C1159 C 0.64405 0.32155 0.52876 0.0
N1160 N 0.61605 0.35324 0.61646 0.0
N1161 N 0.65224 0.22938 0.49475 0.0
C1162 C 0.63049 0.32366 0.59175 0.0
C1163 C 0.65081 0.26038 0.53111 0.0
N1164 N 0.63102 0.29946 0.69759 0.0
N1165 N 0.67999 0.28849 0.45373 0.0
H1166 H 0.64653 0.20699 0.51392 0.0
H1167 H 0.65504 0.2265 0.44343 0.0
H1168 H 0.68966 0.3098 0.43622 0.0
H1169 H 0.69272 0.26628 0.43751 0.0
H1170 H 0.6279 0.32295 0.72464 0.0
H1171 H 0.63508 0.28006 0.72838 0.0
H1172 H 0.60258 0.35554 0.65877 0.0
H1173 H 0.61566 0.37492 0.59181 0.0
C1174 C 0.49055 0.8757 0.36232 0.0
C1175 C 0.45287 0.87494 0.36752 0.0
C1176 C 0.46732 0.87842 0.49104 0.0
C1177 C 0.50493 0.87616 0.48588 0.0
N1178 N 0.55177 0.8662 0.41455 0.0
N1179 N 0.40569 0.86848 0.43516 0.0
C1180 C 0.51643 0.87296 0.4209 0.0
C1181 C 0.44146 0.87392 0.4315 0.0
N1182 N 0.50183 0.88076 0.30231 0.0
N1183 N 0.45632 0.88619 0.55308 0.0
H1184 H 0.3863 0.8649 0.39209 0.0
H1185 H 0.39597 0.86412 0.47964 0.0
H1186 H 0.47451 0.8911 0.59758 0.0
H1187 H 0.42955 0.89125 0.55966 0.0
H1188 H 0.52867 0.88592 0.29772 0.0
H1189 H 0.48411 0.88182 0.25769 0.0
H1190 H 0.56079 0.85943 0.36808 0.0
H1191 H 0.57168 0.86504 0.45599 0.0
C1192 C 0.82312 0.23068 0.45497 0.0
C1193 C 0.84525 0.23099 0.403 0.0
C1194 C 0.86197 0.29007 0.44149 0.0
C1195 C 0.84304 0.28874 0.49889 0.0
N1196 N 0.79616 0.26234 0.54619 0.0
N1197 N 0.87397 0.26355 0.33173 0.0
C1198 C 0.82028 0.26049 0.50063 0.0
C1199 C 0.86031 0.26173 0.39096 0.0
N1200 N 0.80658 0.2011 0.46259 0.0
N1201 N 0.88408 0.3168 0.43702 0.0
H1202 H 0.87358 0.24299 0.29459 0.0
H1203 H 0.88209 0.28609 0.31625 0.0
H1204 H 0.88444 0.33997 0.46623 0.0
H1205 H 0.90358 0.31571 0.40443 0.0
H1206 H 0.79354 0.1975 0.50386 0.0
H1207 H 0.80699 0.17965 0.42751 0.0
H1208 H 0.77684 0.24371 0.54735 0.0
H1209 H 0.7934 0.2842 0.579 0.0
C1210 C 0.50111 0.10601 0.10124 0.0
C1211 C 0.49159 0.11682 0.03633 0.0
C1212 C 0.4268 0.11329 0.04902 0.0
C1213 C 0.43634 0.10218 0.1136 0.0
N1214 N 0.48245 0.07942 0.19285 0.0
N1215 N 0.44584 0.12258 0.94149 0.0
C1216 C 0.47341 0.09573 0.1368 0.0
C1217 C 0.45445 0.11785 1.00815 0.0
N1218 N 0.53626 0.10824 0.13197 0.0
N1219 N 0.39141 0.11984 0.02709 0.0
H1220 H 0.46562 0.12472 0.91015 0.0
H1221 H 0.41958 0.1211 0.91572 0.0
H1222 H 0.37054 0.1154 0.0547 0.0
H1223 H 0.38299 0.13169 0.98406 0.0
H1224 H 0.5439 0.10545 0.18295 0.0
H1225 H 0.55767 0.11581 0.10883 0.0
H1226 H 0.50814 0.06991 0.20666 0.0
H1227 H 0.46368 0.07319 0.22295 0.0
C1228 C 0.69301 0.7501 0.11829 0.0
C1229 C 0.6954 0.71558 0.09021 0.0
C1230 C 0.69556 0.7342 0.97699 0.0
C1231 C 0.69282 0.76831 1.0047 0.0
N1232 N 0.69321 0.80976 0.10181 0.0
N1233 N 0.71074 0.6768 0.99737 0.0
C1234 C 0.69321 0.7765 0.0755 0.0
C1235 C 0.69995 0.70827 0.02075 0.0
N1236 N 0.68781 0.75787 0.18442 0.0
N1237 N 0.69381 0.72641 0.90848 0.0
H1238 H 0.71649 0.65784 0.02866 0.0
H1239 H 0.71818 0.67058 0.94945 0.0
H1240 H 0.69296 0.74464 0.8749 0.0
H1241 H 0.69072 0.70183 0.88427 0.0
H1242 H 0.68059 0.78169 0.20494 0.0
H1243 H 0.68823 0.74049 0.21922 0.0
H1244 H 0.69881 0.81809 0.15322 0.0
H1245 H 0.68978 0.82957 0.07177 0.0
C1246 C 0.99158 0.93424 0.66392 0.0
C1247 C 0.9685 0.90678 0.63315 0.0
C1248 C 0.99406 0.87219 0.72156 0.0
C1249 C 0.01826 0.89924 0.75116 0.0
N1250 N 0.03438 0.95816 0.76027 0.0
N1251 N 0.94092 0.85317 0.64287 0.0
C1252 C 0.01506 0.93104 0.72542 0.0
C1253 C 0.96723 0.87716 0.66586 0.0
N1254 N 0.99186 0.96294 0.63252 0.0
N1255 N 0.99849 0.84065 0.74216 0.0
H1256 H 0.92186 0.85472 0.60035 0.0
H1257 H 0.93584 0.83316 0.66959 0.0
H1258 H 0.01624 0.83507 0.7839 0.0
H1259 H 0.98627 0.819 0.71445 0.0
H1260 H 0.01101 0.9823 0.64656 0.0
H1261 H 0.97323 0.96681 0.59029 0.0
H1262 H 0.03154 0.98276 0.74764 0.0
H1263 H 0.05133 0.95647 0.80571 0.0
C1264 C 0.67304 0.7847 0.49728 0.0
C1265 C 0.6908 0.75441 0.5124 0.0
C1266 C 0.68921 0.7719 0.63391 0.0
C1267 C 0.66736 0.79994 0.6175 0.0
N1268 N 0.62979 0.82606 0.52994 0.0
N1269 N 0.70948 0.71598 0.59531 0.0
C1270 C 0.65677 0.80432 0.54814 0.0
C1271 C 0.69716 0.74707 0.58088 0.0
N1272 N 0.67292 0.79577 0.43526 0.0
N1273 N 0.70355 0.76951 0.6996 0.0
H1274 H 0.71417 0.69666 0.55802 0.0
H1275 H 0.71143 0.70822 0.64351 0.0
H1276 H 0.69905 0.78745 0.73952 0.0
H1277 H 0.72267 0.75151 0.71353 0.0
H1278 H 0.66206 0.81885 0.4234 0.0
H1279 H 0.68716 0.7839 0.39822 0.0
H1280 H 0.61864 0.82724 0.47975 0.0
H1281 H 0.6156 0.83964 0.56477 0.0
C1282 C 0.44541 0.39666 0.57604 0.0
C1283 C 0.48137 0.39346 0.60887 0.0
C1284 C 0.45814 0.38878 0.71638 0.0
C1285 C 0.42227 0.3936 0.68436 0.0
N1286 N 0.3807 0.39308 0.58175 0.0
N1287 N 0.52146 0.3785 0.70506 0.0
C1288 C 0.41564 0.3945 0.61333 0.0
C1289 C 0.48746 0.38694 0.67747 0.0
N1290 N 0.43985 0.40373 0.5104 0.0
N1291 N 0.46451 0.38746 0.78466 0.0
H1292 H 0.54327 0.37671 0.67757 0.0
H1293 H 0.52753 0.37022 0.75262 0.0
H1294 H 0.44391 0.38512 0.81377 0.0
H1295 H 0.49013 0.38931 0.81301 0.0
H1296 H 0.41484 0.41024 0.48566 0.0
H1297 H 0.46085 0.40484 0.48141 0.0
H1298 H 0.37359 0.39055 0.52942 0.0
H1299 H 0.35873 0.39124 0.60824 0.0
C1300 C 0.8715 0.17698 0.925 0.0
C1301 C 0.87329 0.18655 0.99573 0.0
C1302 C 0.87354 0.24627 0.97526 0.0
C1303 C 0.86499 0.23676 0.90461 0.0
N1304 N 0.85375 0.19244 0.81151 0.0
N1305 N 0.86907 0.23097 0.08678 0.0
C1306 C 0.86419 0.20191 0.87897 0.0
C1307 C 0.87302 0.22141 0.02068 0.0
N1308 N 0.87539 0.14377 0.90189 0.0
N1309 N 0.88189 0.27925 0.99905 0.0
H1310 H 0.86713 0.21373 0.12145 0.0
H1311 H 0.86458 0.25587 0.10573 0.0
H1312 H 0.88347 0.29791 0.96696 0.0
H1313 H 0.89089 0.2873 0.04981 0.0
H1314 H 0.87817 0.13529 0.85189 0.0
H1315 H 0.87869 0.12498 0.93435 0.0
H1316 H 0.84875 0.16746 0.79072 0.0
H1317 H 0.84742 0.20974 0.77654 0.0
C1318 C 0.0358 0.62586 0.16177 0.0
C1319 C 0.07314 0.62731 0.154 0.0
C1320 C 0.05636 0.62509 0.03135 0.0
C1321 C 0.01904 0.62678 0.03913 0.0
N1322 N 0.97357 0.6349 0.11376 0.0
N1323 N 0.11852 0.63566 0.08371 0.0
C1324 C 1.00874 0.62865 0.10489 0.0
C1325 C 0.08316 0.62939 0.08937 0.0
N1326 N 0.02607 0.62114 0.22317 0.0
N1327 N 0.06616 0.61822 0.96812 0.0
H1328 H 0.13847 0.63939 0.12593 0.0
H1329 H 0.12723 0.64064 0.03868 0.0
H1330 H 0.04723 0.61343 0.92462 0.0
H1331 H 0.09275 0.61373 0.95952 0.0
H1332 H 0.99972 0.61533 0.22995 0.0
H1333 H 0.04467 0.62182 0.2671 0.0
H1334 H 0.96527 0.64052 0.16116 0.0
H1335 H 0.95303 0.63715 0.07373 0.0
C1336 C 0.69176 0.26625 0.07421 0.0
C1337 C 0.66168 0.28534 0.09243 0.0
C1338 C 0.62521 0.26281 0.98511 0.0
C1339 C 0.65373 0.23995 0.97158 0.0
N1340 N 0.71509 0.22193 0.99829 0.0
N1341 N 0.60287 0.30826 0.05959 0.0
C1342 C 0.68757 0.2428 0.01421 0.0
C1343 C 0.62954 0.28594 0.04562 0.0
N1344 N 0.72429 0.27084 0.11507 0.0
N1345 N 0.59277 0.2605 0.94344 0.0
H1346 H 0.60397 0.32408 0.10475 0.0
H1347 H 0.58058 0.31317 0.02499 0.0
H1348 H 0.58849 0.24636 0.89625 0.0
H1349 H 0.56906 0.27184 0.95584 0.0
H1350 H 0.74823 0.25929 0.1046 0.0
H1351 H 0.72782 0.28849 0.15816 0.0
H1352 H 0.73936 0.21963 0.02977 0.0
H1353 H 0.7133 0.20612 0.95273 0.0
C1354 C 1.00903 0.39693 0.41988 0.0
C1355 C 0.01831 0.38331 0.48192 0.0
C1356 C 0.08284 0.38441 0.46583 0.0
C1357 C 0.07349 0.39947 0.40527 0.0
N1358 N 0.02797 0.43063 0.33905 0.0
N1359 N 0.06486 0.37289 0.57279 0.0
C1360 C 0.03684 0.40958 0.38766 0.0
C1361 C 0.05556 0.37956 0.50745 0.0
N1362 N 0.97407 0.39538 0.38817 0.0
N1363 N 0.11781 0.37528 0.48425 0.0
H1364 H 0.04565 0.37167 0.60555 0.0
H1365 H 0.09147 0.37235 0.59653 0.0
H1366 H 0.1387 0.38091 0.45764 0.0
H1367 H 0.12567 0.36063 0.52348 0.0
H1368 H 0.96683 0.40146 0.33897 0.0
H1369 H 0.95288 0.38456 0.40733 0.0
H1370 H 1.00248 0.44142 0.33022 0.0
H1371 H 0.04653 0.43948 0.31133 0.0
C1372 C 0.85457 0.72697 0.45938 0.0
C1373 C 0.83362 0.73212 0.5132 0.0
C1374 C 0.81271 0.78603 0.47404 0.0
C1375 C 0.83845 0.78354 0.42773 0.0
N1376 N 0.88854 0.75302 0.38499 0.0
N1377 N 0.79456 0.76784 0.57589 0.0
C1378 C 0.86047 0.75426 0.42225 0.0
C1379 C 0.81308 0.76201 0.52164 0.0
N1380 N 0.86808 0.69567 0.4425 0.0
N1381 N 0.78701 0.81057 0.4708 0.0
H1382 H 0.79391 0.75071 0.61136 0.0
H1383 H 0.78206 0.79068 0.58845 0.0
H1384 H 0.78519 0.82775 0.43499 0.0
H1385 H 0.76531 0.81162 0.49847 0.0
H1386 H 0.8804 0.68949 0.3993 0.0
H1387 H 0.86342 0.67487 0.4675 0.0
H1388 H 0.90724 0.73354 0.38478 0.0
H1389 H 0.8957 0.77282 0.35975 0.0
C1390 C 0.52625 0.639 0.92124 0.0
C1391 C 0.54251 0.6072 0.9286 0.0
C1392 C 0.5138 0.58541 0.81417 0.0
C1393 C 0.49368 0.61568 0.81081 0.0
N1394 N 0.47873 0.6707 0.86302 0.0
N1395 N 0.55151 0.54948 0.88469 0.0
C1396 C 0.49953 0.6424 0.86473 0.0
C1397 C 0.53653 0.58028 0.87541 0.0
N1398 N 0.5366 0.66604 0.96832 0.0
N1399 N 0.51098 0.56155 0.75902 0.0
H1400 H 0.56952 0.54545 0.92763 0.0
H1401 H 0.54493 0.5276 0.8517 0.0
H1402 H 0.49349 0.56389 0.71454 0.0
H1403 H 0.52755 0.54051 0.75552 0.0
H1404 H 0.52883 0.69079 0.96238 0.0
H1405 H 0.55577 0.66427 1.01082 0.0
H1406 H 0.47843 0.68909 0.90415 0.0
H1407 H 0.4598 0.67484 0.82174 0.0
C1408 C 0.36421 0.23486 0.52637 0.0
C1409 C 0.34518 0.26396 0.50714 0.0
C1410 C 0.3436 0.24018 0.38739 0.0
C1411 C 0.36672 0.21351 0.40738 0.0
N1412 N 0.40901 0.19439 0.49725 0.0
N1413 N 0.32436 0.29762 0.41663 0.0
C1414 C 0.37998 0.2135 0.4772 0.0
C1415 C 0.33702 0.26762 0.43675 0.0
N1416 N 0.36578 0.22617 0.59061 0.0
N1417 N 0.32674 0.23893 0.32227 0.0
H1418 H 0.32111 0.31885 0.45068 0.0
H1419 H 0.32102 0.30254 0.36627 0.0
H1420 H 0.32983 0.21897 0.28526 0.0
H1421 H 0.30691 0.25604 0.30689 0.0
H1422 H 0.37721 0.20362 0.60471 0.0
H1423 H 0.35183 0.23906 0.62698 0.0
H1424 H 0.42175 0.19715 0.54721 0.0
H1425 H 0.42305 0.17979 0.46318 0.0
C1426 C 0.60064 0.61378 0.47505 0.0
C1427 C 0.56639 0.62717 0.45156 0.0
C1428 C 0.59379 0.65264 0.36515 0.0
C1429 C 0.62525 0.63323 0.37804 0.0
N1430 N 0.66451 0.60731 0.46163 0.0
N1431 N 0.53041 0.66097 0.37572 0.0
C1432 C 0.63053 0.61771 0.43884 0.0
C1433 C 0.56313 0.64761 0.3978 0.0
N1434 N 0.6039 0.59604 0.52996 0.0
N1435 N 0.59483 0.67821 0.32682 0.0
H1436 H 0.50746 0.65856 0.39919 0.0
H1437 H 0.52561 0.673 0.332 0.0
H1438 H 0.61976 0.6847 0.31548 0.0
H1439 H 0.57449 0.69597 0.3197 0.0
H1440 H 0.62683 0.58274 0.5466 0.0
H1441 H 0.58287 0.59414 0.55867 0.0
H1442 H 0.67158 0.59708 0.50699 0.0
H1443 H 0.68655 0.61169 0.43671 0.0
C1444 C 0.12907 0.80118 0.15123 0.0
C1445 C 0.14147 0.7687 0.12783 0.0
C1446 C 0.15087 0.78885 0.02078 0.0
C1447 C 0.13746 0.82126 0.04256 0.0
N1448 N 0.11159 0.85792 0.12632 0.0
N1449 N 0.15454 0.72921 0.03484 0.0
C1450 C 0.12525 0.82708 0.10677 0.0
C1451 C 0.14905 0.76183 0.06063 0.0
N1452 N 0.12345 0.80794 0.21724 0.0
N1453 N 0.16757 0.78425 0.96396 0.0
H1454 H 0.15263 0.70875 0.06246 0.0
H1455 H 0.15749 0.72208 0.98439 0.0
H1456 H 0.16823 0.80251 0.93084 0.0
H1457 H 0.1824 0.76282 0.9513 0.0
H1458 H 0.11813 0.83188 0.24003 0.0
H1459 H 0.12594 0.78972 0.25095 0.0
H1460 H 0.0984 0.86309 0.16864 0.0
H1461 H 0.11203 0.87816 0.09784 0.0
C1462 C 0.94731 0.40422 0.98292 0.0
C1463 C 0.97836 0.38338 0.98984 0.0
C1464 C 0.95339 0.3493 0.88397 0.0
C1465 C 0.92567 0.37291 0.8724 0.0
N1466 N 0.88565 0.40966 0.9283 0.0
N1467 N 0.00921 0.3335 0.9485 0.0
C1468 C 0.91919 0.39596 0.92825 0.0
C1469 C 0.98098 0.35524 0.94071 0.0
N1470 N 0.9455 0.43295 0.02653 0.0
N1471 N 0.94866 0.31812 0.85022 0.0
H1472 H 0.02736 0.33426 0.99283 0.0
H1473 H 0.01518 0.31555 0.90973 0.0
H1474 H 0.92607 0.31309 0.81473 0.0
H1475 H 0.96383 0.2974 0.86411 0.0
H1476 H 0.92496 0.45058 0.02006 0.0
H1477 H 0.9665 0.44091 0.06502 0.0
H1478 H 0.8779 0.42489 0.96946 0.0
H1479 H 0.86466 0.40227 0.88927 0.0
C1480 C 0.34975 0.73701 0.95016 0.0
C1481 C 0.37499 0.73196 0.90342 0.0
C1482 C 0.41705 0.77261 0.976 0.0
C1483 C 0.38988 0.78087 0.01792 0.0
N1484 N 0.33037 0.7714 0.04641 0.0
N1485 N 0.43259 0.74447 0.87042 0.0
C1486 C 0.35635 0.76287 1.0059 0.0
C1487 C 0.40891 0.74922 0.91661 0.0
N1488 N 0.31967 0.7166 0.94129 0.0
N1489 N 0.45066 0.78723 0.99316 0.0
H1490 H 0.42751 0.72763 0.82654 0.0
H1491 H 0.45673 0.75785 0.87394 0.0
H1492 H 0.45679 0.80582 0.03386 0.0
H1493 H 0.47317 0.77974 0.97018 0.0
H1494 H 0.30144 0.71664 0.97606 0.0
H1495 H 0.31454 0.69736 0.90117 0.0
H1496 H 0.30386 0.76228 0.0362 0.0
H1497 H 0.33478 0.78919 0.08912 0.0
C1498 C 0.9986 0.6038 0.65221 0.0
C1499 C 0.96293 0.61228 0.62406 0.0
C1500 C 0.98451 0.615 0.51398 0.0
C1501 C 0.01951 0.60529 0.5423 0.0
N1502 N 0.06262 0.60227 0.64188 0.0
N1503 N 0.92336 0.63199 0.53247 0.0
C1504 C 0.02739 0.60393 0.61281 0.0
C1505 C 0.95657 0.62039 0.55641 0.0
N1506 N 1.00458 0.59347 0.71549 0.0
N1507 N 0.97769 0.61729 0.44605 0.0
H1508 H 0.90272 0.63526 0.56266 0.0
H1509 H 0.91707 0.64042 0.48515 0.0
H1510 H 0.99802 0.61457 0.41506 0.0
H1511 H 0.95212 0.62096 0.42002 0.0
H1512 H 0.02868 0.58261 0.73497 0.0
H1513 H 0.98483 0.59448 0.74767 0.0
H1514 H 0.0705 0.60442 0.69406 0.0
H1515 H 0.08416 0.60238 0.61383 0.0
C1516 C 0.18908 0.26581 0.56961 0.0
C1517 C 0.17557 0.26183 0.49934 0.0
C1518 C 0.15184 0.20606 0.51178 0.0
C1519 C 0.17073 0.20753 0.5788 0.0
N1520 N 0.21379 0.23757 0.66618 0.0
N1521 N 0.15308 0.22304 0.40073 0.0
C1522 C 0.19134 0.23706 0.60624 0.0
C1523 C 0.15969 0.23042 0.46945 0.0
N1524 N 0.19797 0.29722 0.60239 0.0
N1525 N 0.12446 0.18315 0.48932 0.0
H1526 H 0.16061 0.23909 0.36737 0.0
H1527 H 0.144 0.19923 0.37749 0.0
H1528 H 0.11515 0.16636 0.51937 0.0
H1529 H 0.10769 0.18434 0.44357 0.0
H1530 H 0.205 0.30174 0.65474 0.0
H1531 H 0.19435 0.31911 0.57833 0.0
H1532 H 0.23163 0.25758 0.68513 0.0
H1533 H 0.21745 0.21657 0.693 0.0
C1534 C 0.49049 0.37941 0.12976 0.0
C1535 C 0.48235 0.41292 0.11555 0.0
C1536 C 0.52438 0.43464 0.21712 0.0
C1537 C 0.53078 0.4011 0.23276 0.0
N1538 N 0.5103 0.34296 0.21569 0.0
N1539 N 0.48532 0.47257 0.15415 0.0
C1540 C 0.51052 0.37398 0.19311 0.0
C1541 C 0.49735 0.44061 0.16211 0.0
N1542 N 0.48197 0.35277 0.08099 0.0
N1543 N 0.54443 0.46071 0.25415 0.0
H1544 H 0.465 0.47759 0.11541 0.0
H1545 H 0.49286 0.49349 0.18933 0.0
H1546 H 0.56281 0.45735 0.29696 0.0
H1547 H 0.54425 0.48516 0.24037 0.0
H1548 H 0.49078 0.32825 0.08676 0.0
H1549 H 0.46944 0.35568 0.03233 0.0
H1550 H 0.49337 0.32322 0.19132 0.0
H1551 H 0.52373 0.33833 0.26272 0.0
loop_
_geom_bond_atom_site_label_1
_geom_bond_atom_site_label_2
_geom_bond_distance
_geom_bond_site_symmetry_2
_ccdc_geom_bond_type
Zn0 N4 2.020 . S
Zn0 O8 2.019 . S
Zn0 N10 2.119 . S
Zn0 O18 1.975 . S
C1 N2 1.334 . S
C1 N5 1.336 . S
N2 C1 1.334 . S
N2 C3 1.334 . S
C3 N2 1.334 . S
C3 N4 1.336 . S
N4 Zn0 2.020 . S
N4 C3 1.336 . S
N4 N5 1.354 . S
N5 C1 1.336 . S
N5 N4 1.354 . S
N5 Zn9 2.020 . S
C6 O7 1.244 . S
C6 O30 1.257 . S
O7 C6 1.244 . S
O8 Zn0 2.019 . S
O8 C28 1.257 . S
Zn9 N5 2.020 . S
Zn9 O16 1.975 . S
Zn9 N25 2.119 . S
Zn9 O30 2.019 . S
N10 Zn0 2.119 . S
N10 C12 1.334 . S
N10 C13 1.328 . S
C11 C12 1.391 . S
C11 N14 1.329 . S
C11 H32 0.930 . S
C12 N10 1.334 . S
C12 C11 1.391 . S
C12 H19 0.930 . S
C13 N10 1.328 . S
C13 C15 1.392 . S
C13 H20 0.930 . S
N14 C11 1.329 . S
N14 C15 1.331 . S
C15 C13 1.392 . S
C15 N14 1.331 . S
O16 Zn9 1.975 . S
O16 C17 1.252 . S
C17 O16 1.252 . S
C17 O18 1.252 . S
O18 Zn0 1.975 . S
O18 C17 1.252 . S
H19 C12 0.930 . S
H20 C13 0.930 . S
C21 C22 1.392 . S
C21 N25 1.328 1_556 S
C21 H27 0.930 . S
C22 C21 1.392 . S
C22 N26 1.331 . S
C23 C24 1.391 1_556 S
C23 N26 1.329 . S
C23 H33 0.930 1_455 S
C24 C23 1.391 1_554 S
C24 N25 1.334 . S
C24 H31 0.930 . S
N25 Zn9 2.119 . S
N25 C21 1.328 1_554 S
N25 C24 1.334 . S
N26 C22 1.331 . S
N26 C23 1.329 . S
H27 C21 0.930 . S
C28 O8 1.257 . S
C28 O29 1.244 . S
O29 C28 1.244 . S
O30 C6 1.257 . S
O30 Zn9 2.019 . S
H31 C24 0.930 . S
H32 C11 0.930 . S
H33 C23 0.930 1_655 S
Zn34 N38 2.020 . S
Zn34 O42 2.019 . S
Zn34 N44 2.119 . S
Zn34 O52 1.975 . S
C35 N36 1.334 . S
C35 N39 1.336 . S
N36 C35 1.334 . S
N36 C37 1.334 . S
C37 N36 1.334 . S
C37 N38 1.336 . S
N38 Zn34 2.020 . S
N38 C37 1.336 . S
N38 N39 1.354 . S
N39 C35 1.336 . S
N39 N38 1.354 . S
N39 Zn43 2.020 . S
C40 O41 1.244 . S
C40 O64 1.257 . S
O41 C40 1.244 . S
O42 Zn34 2.019 . S
O42 C62 1.257 . S
Zn43 N39 2.020 . S
Zn43 O50 1.975 . S
Zn43 N59 2.119 . S
Zn43 O64 2.019 . S
N44 Zn34 2.119 . S
N44 C46 1.334 . S
N44 C47 1.328 . S
C45 C46 1.391 . S
C45 N48 1.329 . S
C45 H66 0.930 . S
C46 N44 1.334 . S
C46 C45 1.391 . S
C46 H53 0.930 . S
C47 N44 1.328 . S
C47 C49 1.392 . S
C47 H54 0.930 . S
N48 C45 1.329 . S
N48 C49 1.331 . S
C49 C47 1.392 . S
C49 N48 1.331 . S
O50 Zn43 1.975 . S
O50 C51 1.252 . S
C51 O50 1.252 . S
C51 O52 1.252 . S
O52 Zn34 1.975 . S
O52 C51 1.252 . S
H53 C46 0.930 . S
H54 C47 0.930 . S
C55 C56 1.392 . S
C55 N59 1.328 . S
C55 H61 0.930 . S
C56 C55 1.392 . S
C56 N60 1.331 . S
C57 C58 1.391 . S
C57 N60 1.329 . S
C57 H67 0.930 . S
C58 C57 1.391 . S
C58 N59 1.334 . S
C58 H65 0.930 . S
N59 Zn43 2.119 . S
N59 C55 1.328 . S
N59 C58 1.334 . S
N60 C56 1.331 . S
N60 C57 1.329 . S
H61 C55 0.930 . S
C62 O42 1.257 . S
C62 O63 1.244 . S
O63 C62 1.244 . S
O64 C40 1.257 . S
O64 Zn43 2.019 . S
H65 C58 0.930 . S
H66 C45 0.930 . S
H67 C57 0.930 . S
Zn68 N72 2.020 . S
Zn68 O76 2.019 . S
Zn68 N78 2.119 . S
Zn68 O86 1.975 . S
C69 N70 1.334 . S
C69 N73 1.336 . S
N70 C69 1.334 . S
N70 C71 1.334 . S
C71 N70 1.334 . S
C71 N72 1.336 . S
N72 Zn68 2.020 . S
N72 C71 1.336 . S
N72 N73 1.354 . S
N73 C69 1.336 . S
N73 N72 1.354 . S
N73 Zn77 2.020 . S
C74 O75 1.244 . S
C74 O98 1.257 . S
O75 C74 1.244 . S
O76 Zn68 2.019 . S
O76 C96 1.257 . S
Zn77 N73 2.020 . S
Zn77 O84 1.975 . S
Zn77 N93 2.119 . S
Zn77 O98 2.019 . S
N78 Zn68 2.119 . S
N78 C80 1.334 . S
N78 C81 1.328 . S
C79 C80 1.391 . S
C79 N82 1.329 . S
C79 H100 0.930 . S
C80 N78 1.334 . S
C80 C79 1.391 . S
C80 H87 0.930 . S
C81 N78 1.328 . S
C81 C83 1.392 . S
C81 H88 0.930 . S
N82 C79 1.329 . S
N82 C83 1.331 . S
C83 C81 1.392 . S
C83 N82 1.331 . S
O84 Zn77 1.975 . S
O84 C85 1.252 . S
C85 O84 1.252 . S
C85 O86 1.252 . S
O86 Zn68 1.975 . S
O86 C85 1.252 . S
H87 C80 0.930 . S
H88 C81 0.930 . S
C89 C90 1.392 . S
C89 N93 1.328 . S
C89 H95 0.930 . S
C90 C89 1.392 . S
C90 N94 1.331 . S
C91 C92 1.391 . S
C91 N94 1.329 . S
C91 H101 0.930 . S
C92 C91 1.391 . S
C92 N93 1.334 . S
C92 H99 0.930 . S
N93 Zn77 2.119 . S
N93 C89 1.328 . S
N93 C92 1.334 . S
N94 C90 1.331 . S
N94 C91 1.329 . S
H95 C89 0.930 . S
C96 O76 1.257 . S
C96 O97 1.244 . S
O97 C96 1.244 . S
O98 C74 1.257 . S
O98 Zn77 2.019 . S
H99 C92 0.930 . S
H100 C79 0.930 . S
H101 C91 0.930 . S
Zn102 N106 2.020 . S
Zn102 O110 2.019 . S
Zn102 N112 2.119 . S
Zn102 O120 1.975 . S
C103 N104 1.334 . S
C103 N107 1.336 . S
N104 C103 1.334 . S
N104 C105 1.334 . S
C105 N104 1.334 . S
C105 N106 1.336 . S
N106 Zn102 2.020 . S
N106 C105 1.336 . S
N106 N107 1.354 . S
N107 C103 1.336 . S
N107 N106 1.354 . S
N107 Zn111 2.020 . S
C108 O109 1.244 . S
C108 O132 1.257 . S
O109 C108 1.244 . S
O110 Zn102 2.019 . S
O110 C130 1.257 . S
Zn111 N107 2.020 . S
Zn111 O118 1.975 . S
Zn111 N127 2.119 . S
Zn111 O132 2.019 . S
N112 Zn102 2.119 . S
N112 C114 1.334 . S
N112 C115 1.328 1_556 S
C113 C114 1.381 1_554 S
C113 N116 1.339 . S
C113 H134 0.930 1_554 S
C114 N112 1.334 . S
C114 C113 1.381 1_556 S
C114 H121 0.930 . S
C115 N112 1.328 1_554 S
C115 C117 1.392 . S
C115 H122 0.930 . S
N116 C113 1.339 . S
N116 C117 1.331 . S
C117 C115 1.392 . S
C117 N116 1.331 . S
O118 Zn111 1.975 . S
O118 C119 1.252 . S
C119 O118 1.252 . S
C119 O120 1.252 . S
O120 Zn102 1.975 . S
O120 C119 1.252 . S
H121 C114 0.930 . S
H122 C115 0.930 . S
C123 C124 1.392 . S
C123 N127 1.328 . S
C123 H129 0.930 . S
C124 C123 1.392 . S
C124 N128 1.331 . S
C125 C126 1.391 . S
C125 N128 1.329 . S
C125 H135 0.930 . S
C126 C125 1.391 . S
C126 N127 1.334 . S
C126 H133 0.930 . S
N127 Zn111 2.119 . S
N127 C123 1.328 . S
N127 C126 1.334 . S
N128 C124 1.331 . S
N128 C125 1.329 . S
H129 C123 0.930 . S
C130 O110 1.257 . S
C130 O131 1.244 . S
O131 C130 1.244 . S
O132 C108 1.257 . S
O132 Zn111 2.019 . S
H133 C126 0.930 . S
H134 C113 0.930 1_556 S
H135 C125 0.930 . S
Zn136 N140 2.020 . S
Zn136 O144 2.019 . S
Zn136 N146 2.119 . S
Zn136 O154 1.975 . S
C137 N138 1.334 . S
C137 N141 1.336 . S
N138 C137 1.334 . S
N138 C139 1.334 . S
C139 N138 1.334 . S
C139 N140 1.336 . S
N140 Zn136 2.020 . S
N140 C139 1.336 . S
N140 N141 1.354 . S
N141 C137 1.336 . S
N141 N140 1.354 . S
N141 Zn145 2.020 . S
C142 O143 1.244 . S
C142 O166 1.257 . S
O143 C142 1.244 . S
O144 Zn136 2.019 . S
O144 C164 1.257 . S
Zn145 N141 2.020 . S
Zn145 O152 1.975 . S
Zn145 N161 2.119 . S
Zn145 O166 2.019 . S
N146 Zn136 2.119 . S
N146 C148 1.334 . S
N146 C149 1.328 . S
C147 C148 1.391 . S
C147 N150 1.329 . S
C147 H168 0.930 . S
C148 N146 1.334 . S
C148 C147 1.391 . S
C148 H155 0.930 . S
C149 N146 1.328 . S
C149 C151 1.392 . S
C149 H156 0.930 . S
N150 C147 1.329 . S
N150 C151 1.331 . S
C151 C149 1.392 . S
C151 N150 1.331 . S
O152 Zn145 1.975 . S
O152 C153 1.252 . S
C153 O152 1.252 . S
C153 O154 1.252 . S
O154 Zn136 1.975 . S
O154 C153 1.252 . S
H155 C148 0.930 . S
H156 C149 0.930 . S
C157 C158 1.392 . S
C157 N161 1.328 . S
C157 H163 0.930 . S
C158 C157 1.392 . S
C158 N162 1.331 . S
C159 C160 1.391 . S
C159 N162 1.329 . S
C159 H169 0.930 . S
C160 C159 1.391 . S
C160 N161 1.334 . S
C160 H167 0.930 . S
N161 Zn145 2.119 . S
N161 C157 1.328 . S
N161 C160 1.334 . S
N162 C158 1.331 . S
N162 C159 1.329 . S
H163 C157 0.930 . S
C164 O144 1.257 . S
C164 O165 1.244 . S
O165 C164 1.244 . S
O166 C142 1.257 . S
O166 Zn145 2.019 . S
H167 C160 0.930 . S
H168 C147 0.930 . S
H169 C159 0.930 . S
Zn170 N174 2.020 . S
Zn170 O178 2.019 . S
Zn170 N180 2.119 . S
Zn170 O188 1.975 . S
C171 N172 1.334 . S
C171 N175 1.336 . S
N172 C171 1.334 . S
N172 C173 1.334 . S
C173 N172 1.334 . S
C173 N174 1.336 . S
N174 Zn170 2.020 . S
N174 C173 1.336 . S
N174 N175 1.354 . S
N175 C171 1.336 . S
N175 N174 1.354 . S
N175 Zn179 2.020 . S
C176 O177 1.244 . S
C176 O200 1.257 . S
O177 C176 1.244 . S
O178 Zn170 2.019 . S
O178 C198 1.257 . S
Zn179 N175 2.020 . S
Zn179 O186 1.975 . S
Zn179 N195 2.119 . S
Zn179 O200 2.019 . S
N180 Zn170 2.119 . S
N180 C182 1.334 . S
N180 C183 1.328 . S
C181 C182 1.391 . S
C181 N184 1.329 . S
C181 H202 0.930 . S
C182 N180 1.334 . S
C182 C181 1.391 . S
C182 H189 0.930 . S
C183 N180 1.328 . S
C183 C185 1.392 . S
C183 H190 0.930 . S
N184 C181 1.329 . S
N184 C185 1.331 . S
C185 C183 1.392 . S
C185 N184 1.331 . S
O186 Zn179 1.975 . S
O186 C187 1.252 . S
C187 O186 1.252 . S
C187 O188 1.252 . S
O188 Zn170 1.975 . S
O188 C187 1.252 . S
H189 C182 0.930 . S
H190 C183 0.930 . S
C191 C192 1.392 . S
C191 N195 1.328 . S
C191 H197 0.930 . S
C192 C191 1.392 . S
C192 N196 1.331 . S
C193 C194 1.391 . S
C193 N196 1.329 . S
C193 H203 0.930 . S
C194 C193 1.391 . S
C194 N195 1.334 . S
C194 H201 0.930 . S
N195 Zn179 2.119 . S
N195 C191 1.328 . S
N195 C194 1.334 . S
N196 C192 1.331 . S
N196 C193 1.329 . S
H197 C191 0.930 . S
C198 O178 1.257 . S
C198 O199 1.244 . S
O199 C198 1.244 . S
O200 C176 1.257 . S
O200 Zn179 2.019 . S
H201 C194 0.930 . S
H202 C181 0.930 . S
H203 C193 0.930 . S
Zn204 N208 2.020 . S
Zn204 O212 2.019 . S
Zn204 N214 2.119 . S
Zn204 O222 1.975 . S
C205 N206 1.334 . S
C205 N209 1.336 . S
N206 C205 1.334 . S
N206 C207 1.334 . S
C207 N206 1.334 . S
C207 N208 1.336 . S
N208 Zn204 2.020 . S
N208 C207 1.336 . S
N208 N209 1.354 . S
N209 C205 1.336 . S
N209 N208 1.354 . S
N209 Zn213 2.020 . S
C210 O211 1.244 . S
C210 O234 1.257 . S
O211 C210 1.244 . S
O212 Zn204 2.019 . S
O212 C232 1.257 . S
Zn213 N209 2.020 . S
Zn213 O220 1.975 . S
Zn213 N229 2.119 . S
Zn213 O234 2.019 . S
N214 Zn204 2.119 . S
N214 C216 1.334 . S
N214 C217 1.328 1_556 S
C215 C216 1.391 1_554 S
C215 N218 1.329 . S
C215 H236 0.930 . S
C216 N214 1.334 . S
C216 C215 1.391 1_556 S
C216 H223 0.930 . S
C217 N214 1.328 1_554 S
C217 C219 1.392 . S
C217 H224 0.930 . S
N218 C215 1.329 . S
N218 C219 1.331 . S
C219 C217 1.392 . S
C219 N218 1.331 . S
O220 Zn213 1.975 . S
O220 C221 1.252 . S
C221 O220 1.252 . S
C221 O222 1.252 . S
O222 Zn204 1.975 . S
O222 C221 1.252 . S
H223 C216 0.930 . S
H224 C217 0.930 . S
C225 C226 1.392 . S
C225 N229 1.328 . S
C225 H231 0.930 . S
C226 C225 1.392 . S
C226 N230 1.331 . S
C227 C228 1.391 . S
C227 N230 1.329 . S
C227 H237 0.930 . S
C228 C227 1.391 . S
C228 N229 1.334 . S
C228 H235 0.930 . S
N229 Zn213 2.119 . S
N229 C225 1.328 . S
N229 C228 1.334 . S
N230 C226 1.331 . S
N230 C227 1.329 . S
H231 C225 0.930 . S
C232 O212 1.257 . S
C232 O233 1.244 . S
O233 C232 1.244 . S
O234 C210 1.257 . S
O234 Zn213 2.019 . S
H235 C228 0.930 . S
H236 C215 0.930 . S
H237 C227 0.930 . S
Zn238 N242 2.020 . S
Zn238 O246 2.019 1_655 S
Zn238 N248 2.119 . S
Zn238 O256 1.975 . S
C239 N240 1.334 . S
C239 N243 1.336 . S
N240 C239 1.334 . S
N240 C241 1.334 . S
C241 N240 1.334 . S
C241 N242 1.336 . S
N242 Zn238 2.020 . S
N242 C241 1.336 . S
N242 N243 1.354 . S
N243 C239 1.336 . S
N243 N242 1.354 . S
N243 Zn247 2.020 . S
C244 O245 1.244 . S
C244 O268 1.257 . S
O245 C244 1.244 . S
O246 Zn238 2.019 1_455 S
O246 C266 1.257 1_455 S
Zn247 N243 2.020 . S
Zn247 O254 1.975 . S
Zn247 N263 2.119 . S
Zn247 O268 2.019 . S
N248 Zn238 2.119 . S
N248 C250 1.334 . S
N248 C251 1.328 1_655 S
C249 C250 1.391 . S
C249 N252 1.329 1_655 S
C249 H270 0.930 . S
C250 N248 1.334 . S
C250 C249 1.391 . S
C250 H257 0.930 . S
C251 N248 1.328 1_455 S
C251 C253 1.392 . S
C251 H258 0.930 . S
N252 C249 1.329 1_455 S
N252 C253 1.331 . S
C253 C251 1.392 . S
C253 N252 1.331 . S
O254 Zn247 1.975 . S
O254 C255 1.252 . S
C255 O254 1.252 . S
C255 O256 1.252 . S
O256 Zn238 1.975 . S
O256 C255 1.252 . S
H257 C250 0.930 . S
H258 C251 0.930 . S
C259 C260 1.392 . S
C259 N263 1.328 . S
C259 H265 0.930 . S
C260 C259 1.392 . S
C260 N264 1.331 . S
C261 C262 1.391 . S
C261 N264 1.329 . S
C261 H271 0.930 . S
C262 C261 1.391 . S
C262 N263 1.334 . S
C262 H269 0.930 . S
N263 Zn247 2.119 . S
N263 C259 1.328 . S
N263 C262 1.334 . S
N264 C260 1.331 . S
N264 C261 1.329 . S
H265 C259 0.930 . S
C266 O246 1.257 1_655 S
C266 O267 1.244 . S
O267 C266 1.244 . S
O268 C244 1.257 . S
O268 Zn247 2.019 . S
H269 C262 0.930 . S
H270 C249 0.930 . S
H271 C261 0.930 . S
Zn272 N276 2.020 . S
Zn272 O280 2.019 . S
Zn272 N282 2.119 . S
Zn272 O290 1.975 . S
C273 N274 1.334 . S
C273 N277 1.336 . S
N274 C273 1.334 . S
N274 C275 1.334 . S
C275 N274 1.334 . S
C275 N276 1.336 . S
N276 Zn272 2.020 . S
N276 C275 1.336 . S
N276 N277 1.354 . S
N277 C273 1.336 . S
N277 N276 1.354 . S
N277 Zn281 2.020 . S
C278 O279 1.244 . S
C278 O302 1.257 . S
O279 C278 1.244 . S
O280 Zn272 2.019 . S
O280 C300 1.257 . S
Zn281 N277 2.020 . S
Zn281 O288 1.975 . S
Zn281 N297 2.119 . S
Zn281 O302 2.019 . S
N282 Zn272 2.119 . S
N282 C284 1.334 . S
N282 C285 1.328 1_556 S
C283 C284 1.391 1_554 S
C283 N286 1.329 . S
C283 H304 0.930 1_655 S
C284 N282 1.334 . S
C284 C283 1.391 1_556 S
C284 H291 0.930 . S
C285 N282 1.328 1_554 S
C285 C287 1.392 . S
C285 H292 0.930 . S
N286 C283 1.329 . S
N286 C287 1.331 . S
C287 C285 1.392 . S
C287 N286 1.331 . S
O288 Zn281 1.975 . S
O288 C289 1.252 . S
C289 O288 1.252 . S
C289 O290 1.252 . S
O290 Zn272 1.975 . S
O290 C289 1.252 . S
H291 C284 0.930 . S
H292 C285 0.930 . S
C293 C294 1.392 . S
C293 N297 1.328 . S
C293 H299 0.930 . S
C294 C293 1.392 . S
C294 N298 1.331 . S
C295 C296 1.391 . S
C295 N298 1.329 . S
C295 H305 0.930 . S
C296 C295 1.391 . S
C296 N297 1.334 . S
C296 H303 0.930 . S
N297 Zn281 2.119 . S
N297 C293 1.328 . S
N297 C296 1.334 . S
N298 C294 1.331 . S
N298 C295 1.329 . S
H299 C293 0.930 . S
C300 O280 1.257 . S
C300 O301 1.244 . S
O301 C300 1.244 . S
O302 C278 1.257 . S
O302 Zn281 2.019 . S
H303 C296 0.930 . S
H304 C283 0.930 1_455 S
H305 C295 0.930 . S
Zn306 N310 2.020 . S
Zn306 O314 2.019 . S
Zn306 N316 2.119 . S
Zn306 O324 1.975 . S
C307 N308 1.334 . S
C307 N311 1.336 . S
N308 C307 1.334 . S
N308 C309 1.334 . S
C309 N308 1.334 . S
C309 N310 1.336 . S
N310 Zn306 2.020 . S
N310 C309 1.336 . S
N310 N311 1.354 . S
N311 C307 1.336 . S
N311 N310 1.354 . S
N311 Zn315 2.020 . S
C312 O313 1.244 . S
C312 O336 1.257 . S
O313 C312 1.244 . S
O314 Zn306 2.019 . S
O314 C334 1.257 . S
Zn315 N311 2.020 . S
Zn315 O322 1.975 . S
Zn315 N331 2.119 . S
Zn315 O336 2.019 . S
N316 Zn306 2.119 . S
N316 C318 1.334 . S
N316 C319 1.328 . S
C317 C318 1.391 . S
C317 N320 1.329 . S
C317 H338 0.930 . S
C318 N316 1.334 . S
C318 C317 1.391 . S
C318 H325 0.930 . S
C319 N316 1.328 . S
C319 C321 1.392 . S
C319 H326 0.930 . S
N320 C317 1.329 . S
N320 C321 1.331 . S
C321 C319 1.392 . S
C321 N320 1.331 . S
O322 Zn315 1.975 . S
O322 C323 1.252 . S
C323 O322 1.252 . S
C323 O324 1.252 . S
O324 Zn306 1.975 . S
O324 C323 1.252 . S
H325 C318 0.930 . S
H326 C319 0.930 . S
C327 C328 1.392 . S
C327 N331 1.328 . S
C327 H333 0.930 . S
C328 C327 1.392 . S
C328 N332 1.331 . S
C329 C330 1.391 . S
C329 N332 1.329 . S
C329 H339 0.930 . S
C330 C329 1.391 . S
C330 N331 1.334 . S
C330 H337 0.930 . S
N331 Zn315 2.119 . S
N331 C327 1.328 . S
N331 C330 1.334 . S
N332 C328 1.331 . S
N332 C329 1.329 . S
H333 C327 0.930 . S
C334 O314 1.257 . S
C334 O335 1.244 . S
O335 C334 1.244 . S
O336 C312 1.257 . S
O336 Zn315 2.019 . S
H337 C330 0.930 . S
H338 C317 0.930 . S
H339 C329 0.930 . S
Zn340 N344 2.020 . S
Zn340 O348 2.019 . S
Zn340 N350 2.119 . S
Zn340 O358 1.975 . S
C341 N342 1.334 . S
C341 N345 1.336 . S
N342 C341 1.334 . S
N342 C343 1.334 . S
C343 N342 1.334 . S
C343 N344 1.336 . S
N344 Zn340 2.020 . S
N344 C343 1.336 . S
N344 N345 1.354 . S
N345 C341 1.336 . S
N345 N344 1.354 . S
N345 Zn349 2.020 . S
C346 O347 1.244 . S
C346 O370 1.257 . S
O347 C346 1.244 . S
O348 Zn340 2.019 . S
O348 C368 1.257 . S
Zn349 N345 2.020 . S
Zn349 O356 1.975 . S
Zn349 N365 2.119 . S
Zn349 O370 2.019 . S
N350 Zn340 2.119 . S
N350 C352 1.334 . S
N350 C353 1.328 . S
C351 C352 1.391 . S
C351 N354 1.329 . S
C351 H372 0.930 . S
C352 N350 1.334 . S
C352 C351 1.391 . S
C352 H359 0.930 . S
C353 N350 1.328 . S
C353 C355 1.392 . S
C353 H360 0.930 . S
N354 C351 1.329 . S
N354 C355 1.331 . S
C355 C353 1.392 . S
C355 N354 1.331 . S
O356 Zn349 1.975 . S
O356 C357 1.252 . S
C357 O356 1.252 . S
C357 O358 1.252 . S
O358 Zn340 1.975 . S
O358 C357 1.252 . S
H359 C352 0.930 . S
H360 C353 0.930 . S
C361 C362 1.392 . S
C361 N365 1.328 . S
C361 H367 0.930 . S
C362 C361 1.392 . S
C362 N366 1.331 . S
C363 C364 1.391 . S
C363 N366 1.329 . S
C363 H373 0.930 . S
C364 C363 1.391 . S
C364 N365 1.334 . S
C364 H371 0.930 . S
N365 Zn349 2.119 . S
N365 C361 1.328 . S
N365 C364 1.334 . S
N366 C362 1.331 . S
N366 C363 1.329 . S
H367 C361 0.930 . S
C368 O348 1.257 . S
C368 O369 1.244 . S
O369 C368 1.244 . S
O370 C346 1.257 . S
O370 Zn349 2.019 . S
H371 C364 0.930 . S
H372 C351 0.930 . S
H373 C363 0.930 . S
Zn374 N378 2.020 . S
Zn374 O382 2.019 . S
Zn374 N384 2.119 . S
Zn374 O392 1.975 . S
C375 N376 1.334 . S
C375 N379 1.336 . S
N376 C375 1.334 . S
N376 C377 1.334 . S
C377 N376 1.334 . S
C377 N378 1.336 . S
N378 Zn374 2.020 . S
N378 C377 1.336 . S
N378 N379 1.354 . S
N379 C375 1.336 . S
N379 N378 1.354 . S
N379 Zn383 2.020 . S
C380 O381 1.244 . S
C380 O404 1.257 . S
O381 C380 1.244 . S
O382 Zn374 2.019 . S
O382 C402 1.257 . S
Zn383 N379 2.020 . S
Zn383 O390 1.975 . S
Zn383 N399 2.119 . S
Zn383 O404 2.019 . S
N384 Zn374 2.119 . S
N384 C386 1.334 . S
N384 C387 1.328 . S
C385 C386 1.391 . S
C385 N388 1.329 . S
C385 H406 0.930 . S
C386 N384 1.334 . S
C386 C385 1.391 . S
C386 H393 0.930 . S
C387 N384 1.328 . S
C387 C389 1.392 . S
C387 H394 0.930 . S
N388 C385 1.329 . S
N388 C389 1.331 . S
C389 C387 1.392 . S
C389 N388 1.331 . S
O390 Zn383 1.975 . S
O390 C391 1.252 . S
C391 O390 1.252 . S
C391 O392 1.252 . S
O392 Zn374 1.975 . S
O392 C391 1.252 . S
H393 C386 0.930 . S
H394 C387 0.930 . S
C395 C396 1.392 . S
C395 N399 1.328 1_556 S
C395 H401 0.930 . S
C396 C395 1.392 . S
C396 N400 1.331 . S
C397 C398 1.381 1_556 S
C397 N400 1.339 . S
C397 H407 0.930 1_556 S
C398 C397 1.381 1_554 S
C398 N399 1.334 . S
C398 H405 0.930 . S
N399 Zn383 2.119 . S
N399 C395 1.328 1_554 S
N399 C398 1.334 . S
N400 C396 1.331 . S
N400 C397 1.339 . S
H401 C395 0.930 . S
C402 O382 1.257 . S
C402 O403 1.244 . S
O403 C402 1.244 . S
O404 C380 1.257 . S
O404 Zn383 2.019 . S
H405 C398 0.930 . S
H406 C385 0.930 . S
H407 C397 0.930 1_554 S
Zn408 N412 2.020 . S
Zn408 O416 2.019 . S
Zn408 N418 2.119 . S
Zn408 O426 1.975 . S
C409 N410 1.334 . S
C409 N413 1.336 . S
N410 C409 1.334 . S
N410 C411 1.334 . S
C411 N410 1.334 . S
C411 N412 1.336 . S
N412 Zn408 2.020 . S
N412 C411 1.336 . S
N412 N413 1.354 . S
N413 C409 1.336 . S
N413 N412 1.354 . S
N413 Zn417 2.020 . S
C414 O415 1.244 . S
C414 O438 1.257 . S
O415 C414 1.244 . S
O416 Zn408 2.019 . S
O416 C436 1.257 . S
Zn417 N413 2.020 . S
Zn417 O424 1.975 . S
Zn417 N433 2.119 . S
Zn417 O438 2.019 . S
N418 Zn408 2.119 . S
N418 C420 1.334 . S
N418 C421 1.328 . S
C419 C420 1.391 . S
C419 N422 1.329 . S
C419 H440 0.930 . S
C420 N418 1.334 . S
C420 C419 1.391 . S
C420 H427 0.930 . S
C421 N418 1.328 . S
C421 C423 1.392 . S
C421 H428 0.930 . S
N422 C419 1.329 . S
N422 C423 1.331 . S
C423 C421 1.392 . S
C423 N422 1.331 . S
O424 Zn417 1.975 . S
O424 C425 1.252 . S
C425 O424 1.252 . S
C425 O426 1.252 . S
O426 Zn408 1.975 . S
O426 C425 1.252 . S
H427 C420 0.930 . S
H428 C421 0.930 . S
C429 C430 1.392 . S
C429 N433 1.328 . S
C429 H435 0.930 . S
C430 C429 1.392 . S
C430 N434 1.331 . S
C431 C432 1.391 . S
C431 N434 1.329 . S
C431 H441 0.930 . S
C432 C431 1.391 . S
C432 N433 1.334 . S
C432 H439 0.930 . S
N433 Zn417 2.119 . S
N433 C429 1.328 . S
N433 C432 1.334 . S
N434 C430 1.331 . S
N434 C431 1.329 . S
H435 C429 0.930 . S
C436 O416 1.257 . S
C436 O437 1.244 . S
O437 C436 1.244 . S
O438 C414 1.257 . S
O438 Zn417 2.019 . S
H439 C432 0.930 . S
H440 C419 0.930 . S
H441 C431 0.930 . S
Zn442 N446 2.020 . S
Zn442 O450 2.019 . S
Zn442 N452 2.119 . S
Zn442 O460 1.975 . S
C443 N444 1.334 . S
C443 N447 1.336 . S
N444 C443 1.334 . S
N444 C445 1.334 . S
C445 N444 1.334 . S
C445 N446 1.336 . S
N446 Zn442 2.020 . S
N446 C445 1.336 . S
N446 N447 1.354 . S
N447 C443 1.336 . S
N447 N446 1.354 . S
N447 Zn451 2.020 . S
C448 O449 1.244 . S
C448 O472 1.257 . S
O449 C448 1.244 . S
O450 Zn442 2.019 . S
O450 C470 1.257 . S
Zn451 N447 2.020 . S
Zn451 O458 1.975 . S
Zn451 N467 2.119 . S
Zn451 O472 2.019 . S
N452 Zn442 2.119 . S
N452 C454 1.334 . S
N452 C455 1.328 . S
C453 C454 1.391 . S
C453 N456 1.329 . S
C453 H474 0.930 . S
C454 N452 1.334 . S
C454 C453 1.391 . S
C454 H461 0.930 . S
C455 N452 1.328 . S
C455 C457 1.392 . S
C455 H462 0.930 . S
N456 C453 1.329 . S
N456 C457 1.331 . S
C457 C455 1.392 . S
C457 N456 1.331 . S
O458 Zn451 1.975 . S
O458 C459 1.252 . S
C459 O458 1.252 . S
C459 O460 1.252 . S
O460 Zn442 1.975 . S
O460 C459 1.252 . S
H461 C454 0.930 . S
H462 C455 0.930 . S
C463 C464 1.392 . S
C463 N467 1.328 . S
C463 H469 0.930 . S
C464 C463 1.392 . S
C464 N468 1.331 . S
C465 C466 1.391 . S
C465 N468 1.329 . S
C465 H475 0.930 . S
C466 C465 1.391 . S
C466 N467 1.334 . S
C466 H473 0.930 . S
N467 Zn451 2.119 . S
N467 C463 1.328 . S
N467 C466 1.334 . S
N468 C464 1.331 . S
N468 C465 1.329 . S
H469 C463 0.930 . S
C470 O450 1.257 . S
C470 O471 1.244 . S
O471 C470 1.244 . S
O472 C448 1.257 . S
O472 Zn451 2.019 . S
H473 C466 0.930 . S
H474 C453 0.930 . S
H475 C465 0.930 . S
Zn476 N480 2.020 . S
Zn476 O484 2.019 . S
Zn476 N486 2.119 . S
Zn476 O494 1.975 . S
C477 N478 1.334 . S
C477 N481 1.336 . S
N478 C477 1.334 . S
N478 C479 1.334 . S
C479 N478 1.334 . S
C479 N480 1.336 . S
N480 Zn476 2.020 . S
N480 C479 1.336 . S
N480 N481 1.354 . S
N481 C477 1.336 . S
N481 N480 1.354 . S
N481 Zn485 2.020 . S
C482 O483 1.244 . S
C482 O506 1.257 . S
O483 C482 1.244 . S
O484 Zn476 2.019 . S
O484 C504 1.257 . S
Zn485 N481 2.020 . S
Zn485 O492 1.975 . S
Zn485 N501 2.119 . S
Zn485 O506 2.019 . S
N486 Zn476 2.119 . S
N486 C488 1.334 . S
N486 C489 1.328 1_554 S
C487 C488 1.391 1_556 S
C487 N490 1.329 . S
C487 H508 0.930 . S
C488 N486 1.334 . S
C488 C487 1.391 1_554 S
C488 H495 0.930 . S
C489 N486 1.328 1_556 S
C489 C491 1.392 . S
C489 H496 0.930 . S
N490 C487 1.329 . S
N490 C491 1.331 . S
C491 C489 1.392 . S
C491 N490 1.331 . S
O492 Zn485 1.975 . S
O492 C493 1.252 . S
C493 O492 1.252 . S
C493 O494 1.252 . S
O494 Zn476 1.975 . S
O494 C493 1.252 . S
H495 C488 0.930 . S
H496 C489 0.930 . S
C497 C498 1.392 . S
C497 N501 1.328 . S
C497 H503 0.930 . S
C498 C497 1.392 . S
C498 N502 1.331 . S
C499 C500 1.391 . S
C499 N502 1.329 . S
C499 H509 0.930 . S
C500 C499 1.391 . S
C500 N501 1.334 . S
C500 H507 0.930 . S
N501 Zn485 2.119 . S
N501 C497 1.328 . S
N501 C500 1.334 . S
N502 C498 1.331 . S
N502 C499 1.329 . S
H503 C497 0.930 . S
C504 O484 1.257 . S
C504 O505 1.244 . S
O505 C504 1.244 . S
O506 C482 1.257 . S
O506 Zn485 2.019 . S
H507 C500 0.930 . S
H508 C487 0.930 . S
H509 C499 0.930 . S
Zn510 N514 2.020 . S
Zn510 O518 2.019 1_455 S
Zn510 N520 2.119 . S
Zn510 O528 1.975 . S
C511 N512 1.334 . S
C511 N515 1.336 . S
N512 C511 1.334 . S
N512 C513 1.334 . S
C513 N512 1.334 . S
C513 N514 1.336 . S
N514 Zn510 2.020 . S
N514 C513 1.336 . S
N514 N515 1.354 . S
N515 C511 1.336 . S
N515 N514 1.354 . S
N515 Zn519 2.020 . S
C516 O517 1.244 . S
C516 O540 1.257 . S
O517 C516 1.244 . S
O518 Zn510 2.019 1_655 S
O518 C538 1.257 1_655 S
Zn519 N515 2.020 . S
Zn519 O526 1.975 . S
Zn519 N535 2.119 . S
Zn519 O540 2.019 . S
N520 Zn510 2.119 . S
N520 C522 1.334 . S
N520 C523 1.328 1_455 S
C521 C522 1.391 . S
C521 N524 1.329 1_455 S
C521 H542 0.930 . S
C522 N520 1.334 . S
C522 C521 1.391 . S
C522 H529 0.930 . S
C523 N520 1.328 1_655 S
C523 C525 1.392 . S
C523 H530 0.930 . S
N524 C521 1.329 1_655 S
N524 C525 1.331 . S
C525 C523 1.392 . S
C525 N524 1.331 . S
O526 Zn519 1.975 . S
O526 C527 1.252 . S
C527 O526 1.252 . S
C527 O528 1.252 . S
O528 Zn510 1.975 . S
O528 C527 1.252 . S
H529 C522 0.930 . S
H530 C523 0.930 . S
C531 C532 1.392 . S
C531 N535 1.328 . S
C531 H537 0.930 . S
C532 C531 1.392 . S
C532 N536 1.331 . S
C533 C534 1.391 . S
C533 N536 1.329 . S
C533 H543 0.930 . S
C534 C533 1.391 . S
C534 N535 1.334 . S
C534 H541 0.930 . S
N535 Zn519 2.119 . S
N535 C531 1.328 . S
N535 C534 1.334 . S
N536 C532 1.331 . S
N536 C533 1.329 . S
H537 C531 0.930 . S
C538 O518 1.257 1_455 S
C538 O539 1.244 . S
O539 C538 1.244 . S
O540 C516 1.257 . S
O540 Zn519 2.019 . S
H541 C534 0.930 . S
H542 C521 0.930 . S
H543 C533 0.930 . S
C544 C545 1.363 1_655 S
C544 C550 1.379 . S
C544 N552 1.356 . S
C545 C544 1.363 1_455 S
C545 C551 1.363 . S
C546 C547 1.363 . S
C546 C551 1.379 . S
C546 N553 1.356 . S
C547 C546 1.363 . S
C547 C550 1.363 1_455 S
N548 C550 1.356 . S
N548 H560 0.984 . S
N548 H561 0.985 . S
N549 C551 1.356 . S
N549 H554 0.984 . S
N549 H555 0.985 . S
C550 C544 1.379 . S
C550 C547 1.363 1_655 S
C550 N548 1.356 . S
C551 C545 1.363 . S
C551 C546 1.379 . S
C551 N549 1.356 . S
N552 C544 1.356 . S
N552 H558 0.984 . S
N552 H559 0.984 . S
N553 C546 1.356 . S
N553 H556 0.984 . S
N553 H557 0.985 . S
H554 N549 0.984 . S
H555 N549 0.985 . S
H556 N553 0.984 . S
H557 N553 0.985 . S
H558 N552 0.984 . S
H559 N552 0.984 . S
H560 N548 0.984 . S
H561 N548 0.985 . S
C562 C563 1.383 . S
C562 C568 1.379 . S
C562 N570 1.356 . S
C563 C562 1.383 . S
C563 C569 1.361 . S
C564 C565 1.363 . S
C564 C569 1.387 . S
C564 N571 1.356 . S
C565 C564 1.363 . S
C565 C568 1.363 . S
N566 C568 1.356 . S
N566 H578 0.984 . S
N566 H579 0.985 . S
N567 C569 1.345 1_455 S
N567 H572 0.984 . S
N567 H573 0.985 . S
C568 C562 1.379 . S
C568 C565 1.363 . S
C568 N566 1.356 . S
C569 C563 1.361 . S
C569 C564 1.387 . S
C569 N567 1.345 1_655 S
N570 C562 1.356 . S
N570 H576 0.984 . S
N570 H577 0.976 1_655 S
N571 C564 1.356 . S
N571 H574 0.984 . S
N571 H575 0.985 . S
H572 N567 0.984 . S
H573 N567 0.985 . S
H574 N571 0.984 . S
H575 N571 0.985 . S
H576 N570 0.984 . S
H577 N570 0.976 1_455 S
H578 N566 0.984 . S
H579 N566 0.985 . S
C580 C581 1.363 . S
C580 C586 1.379 . S
C580 N588 1.356 . S
C581 C580 1.363 . S
C581 C587 1.363 . S
C582 C583 1.363 . S
C582 C587 1.379 . S
C582 N589 1.356 . S
C583 C582 1.363 . S
C583 C586 1.363 . S
N584 C586 1.356 . S
N584 H596 0.984 . S
N584 H597 0.985 . S
N585 C587 1.356 . S
N585 H590 0.984 . S
N585 H591 0.985 . S
C586 C580 1.379 . S
C586 C583 1.363 . S
C586 N584 1.356 . S
C587 C581 1.363 . S
C587 C582 1.379 . S
C587 N585 1.356 . S
N588 C580 1.356 . S
N588 H594 0.984 . S
N588 H595 0.984 . S
N589 C582 1.356 . S
N589 H592 0.984 . S
N589 H593 0.985 . S
H590 N585 0.984 . S
H591 N585 0.985 . S
H592 N589 0.984 . S
H593 N589 0.985 . S
H594 N588 0.984 . S
H595 N588 0.984 . S
H596 N584 0.984 . S
H597 N584 0.985 . S
C598 C599 1.363 . S
C598 C604 1.379 . S
C598 N606 1.356 . S
C599 C598 1.363 . S
C599 C605 1.363 . S
C600 C601 1.363 . S
C600 C605 1.379 . S
C600 N607 1.356 . S
C601 C600 1.363 . S
C601 C604 1.363 . S
N602 C604 1.356 . S
N602 H614 0.984 . S
N602 H615 0.985 . S
N603 C605 1.356 . S
N603 H608 0.984 . S
N603 H609 0.985 . S
C604 C598 1.379 . S
C604 C601 1.363 . S
C604 N602 1.356 . S
C605 C599 1.363 . S
C605 C600 1.379 . S
C605 N603 1.356 . S
N606 C598 1.356 . S
N606 H612 0.984 . S
N606 H613 0.984 . S
N607 C600 1.356 . S
N607 H610 0.984 . S
N607 H611 0.985 . S
H608 N603 0.984 . S
H609 N603 0.985 . S
H610 N607 0.984 . S
H611 N607 0.985 . S
H612 N606 0.984 . S
H613 N606 0.984 . S
H614 N602 0.984 . S
H615 N602 0.985 . S
C616 C617 1.363 . S
C616 C622 1.379 . S
C616 N624 1.356 . S
C617 C616 1.363 . S
C617 C623 1.363 . S
C618 C619 1.363 . S
C618 C623 1.379 . S
C618 N625 1.357 1_655 S
C619 C618 1.363 . S
C619 C622 1.363 . S
N620 C622 1.356 . S
N620 H632 0.984 . S
N620 H633 0.985 . S
N621 C623 1.356 . S
N621 H626 0.984 . S
N621 H627 0.985 1_655 S
C622 C616 1.379 . S
C622 C619 1.363 . S
C622 N620 1.356 . S
C623 C617 1.363 . S
C623 C618 1.379 . S
C623 N621 1.356 . S
N624 C616 1.356 . S
N624 H630 0.984 . S
N624 H631 0.984 . S
N625 C618 1.357 1_455 S
N625 H628 0.984 . S
N625 H629 0.985 . S
H626 N621 0.984 . S
H627 N621 0.985 1_455 S
H628 N625 0.984 . S
H629 N625 0.985 . S
H630 N624 0.984 . S
H631 N624 0.984 . S
H632 N620 0.984 . S
H633 N620 0.985 . S
C634 C635 1.363 . S
C634 C640 1.379 1_455 S
C634 N642 1.356 . S
C635 C634 1.363 . S
C635 C641 1.363 . S
C636 C637 1.385 . S
C636 C641 1.379 . S
C636 N643 1.356 . S
C637 C636 1.385 . S
C637 C640 1.358 1_455 S
N638 C640 1.356 . S
N638 H650 0.984 . S
N638 H651 0.985 . S
N639 C641 1.356 . S
N639 H644 0.984 . S
N639 H645 0.985 . S
C640 C634 1.379 1_655 S
C640 C637 1.358 1_655 S
C640 N638 1.356 . S
C641 C635 1.363 . S
C641 C636 1.379 . S
C641 N639 1.356 . S
N642 C634 1.356 . S
N642 H648 0.984 . S
N642 H649 0.984 . S
N643 C636 1.356 . S
N643 H646 0.984 . S
N643 H647 0.985 . S
H644 N639 0.984 . S
H645 N639 0.985 . S
H646 N643 0.984 . S
H647 N643 0.985 . S
H648 N642 0.984 . S
H649 N642 0.984 . S
H650 N638 0.984 . S
H651 N638 0.985 . S
C652 C653 1.363 . S
C652 C658 1.379 . S
C652 N660 1.356 . S
C653 C652 1.363 . S
C653 C659 1.363 . S
C654 C655 1.363 . S
C654 C659 1.379 . S
C654 N661 1.356 . S
C655 C654 1.363 . S
C655 C658 1.363 . S
N656 C658 1.356 . S
N656 H668 0.984 . S
N656 H669 0.985 . S
N657 C659 1.356 . S
N657 H662 0.984 . S
N657 H663 0.985 . S
C658 C652 1.379 . S
C658 C655 1.363 . S
C658 N656 1.356 . S
C659 C653 1.363 . S
C659 C654 1.379 . S
C659 N657 1.356 . S
N660 C652 1.356 . S
N660 H666 0.984 . S
N660 H667 0.984 . S
N661 C654 1.356 . S
N661 H664 0.984 . S
N661 H665 0.985 . S
H662 N657 0.984 . S
H663 N657 0.985 . S
H664 N661 0.984 . S
H665 N661 0.985 . S
H666 N660 0.984 . S
H667 N660 0.984 . S
H668 N656 0.984 . S
H669 N656 0.985 . S
C670 C671 1.363 . S
C670 C676 1.379 . S
C670 N678 1.356 . S
C671 C670 1.363 . S
C671 C677 1.363 . S
C672 C673 1.363 . S
C672 C677 1.379 . S
C672 N679 1.356 . S
C673 C672 1.363 . S
C673 C676 1.363 . S
N674 C676 1.356 . S
N674 H686 0.984 . S
N674 H687 0.985 . S
N675 C677 1.356 . S
N675 H680 0.984 . S
N675 H681 0.985 . S
C676 C670 1.379 . S
C676 C673 1.363 . S
C676 N674 1.356 . S
C677 C671 1.363 . S
C677 C672 1.379 . S
C677 N675 1.356 . S
N678 C670 1.356 . S
N678 H684 0.984 . S
N678 H685 0.984 . S
N679 C672 1.356 . S
N679 H682 0.984 . S
N679 H683 0.985 . S
H680 N675 0.984 . S
H681 N675 0.985 . S
H682 N679 0.984 . S
H683 N679 0.985 . S
H684 N678 0.984 . S
H685 N678 0.984 . S
H686 N674 0.984 . S
H687 N674 0.985 . S
C688 C689 1.363 . S
C688 C694 1.379 1_556 S
C688 N696 1.356 . S
C689 C688 1.363 . S
C689 C695 1.363 . S
C690 C691 1.363 . S
C690 C695 1.379 1_554 S
C690 N697 1.356 . S
C691 C690 1.363 . S
C691 C694 1.363 . S
N692 C694 1.356 . S
N692 H704 0.984 1_554 S
N692 H705 0.985 . S
N693 C695 1.356 . S
N693 H698 0.984 . S
N693 H699 0.985 . S
C694 C688 1.379 1_554 S
C694 C691 1.363 . S
C694 N692 1.356 . S
C695 C689 1.363 . S
C695 C690 1.379 1_556 S
C695 N693 1.356 . S
N696 C688 1.356 . S
N696 H702 0.984 . S
N696 H703 0.984 . S
N697 C690 1.356 . S
N697 H700 0.984 . S
N697 H701 0.985 . S
H698 N693 0.984 . S
H699 N693 0.985 . S
H700 N697 0.984 . S
H701 N697 0.985 . S
H702 N696 0.984 . S
H703 N696 0.984 . S
H704 N692 0.984 1_556 S
H705 N692 0.985 . S
C706 C707 1.363 . S
C706 C712 1.379 1_565 S
C706 N714 1.356 . S
C707 C706 1.363 . S
C707 C713 1.363 . S
C708 C709 1.363 1_565 S
C708 C713 1.379 . S
C708 N715 1.356 . S
C709 C708 1.363 1_545 S
C709 C712 1.363 . S
N710 C712 1.356 . S
N710 H722 0.984 . S
N710 H723 0.985 . S
N711 C713 1.356 . S
N711 H716 0.984 . S
N711 H717 0.985 . S
C712 C706 1.379 1_545 S
C712 C709 1.363 . S
C712 N710 1.356 . S
C713 C707 1.363 . S
C713 C708 1.379 . S
C713 N711 1.356 . S
N714 C706 1.356 . S
N714 H720 0.984 . S
N714 H721 0.984 . S
N715 C708 1.356 . S
N715 H718 0.984 1_565 S
N715 H719 0.985 . S
H716 N711 0.984 . S
H717 N711 0.985 . S
H718 N715 0.984 1_545 S
H719 N715 0.985 . S
H720 N714 0.984 . S
H721 N714 0.984 . S
H722 N710 0.984 . S
H723 N710 0.985 . S
C724 C725 1.363 . S
C724 C730 1.379 . S
C724 N732 1.356 . S
C725 C724 1.363 . S
C725 C731 1.363 . S
C726 C727 1.363 . S
C726 C731 1.379 . S
C726 N733 1.356 . S
C727 C726 1.363 . S
C727 C730 1.363 . S
N728 C730 1.356 . S
N728 H740 0.984 . S
N728 H741 0.985 . S
N729 C731 1.356 . S
N729 H734 0.984 . S
N729 H735 0.985 . S
C730 C724 1.379 . S
C730 C727 1.363 . S
C730 N728 1.356 . S
C731 C725 1.363 . S
C731 C726 1.379 . S
C731 N729 1.356 . S
N732 C724 1.356 . S
N732 H738 0.984 . S
N732 H739 0.984 . S
N733 C726 1.356 . S
N733 H736 0.984 . S
N733 H737 0.985 . S
H734 N729 0.984 . S
H735 N729 0.985 . S
H736 N733 0.984 . S
H737 N733 0.985 . S
H738 N732 0.984 . S
H739 N732 0.984 . S
H740 N728 0.984 . S
H741 N728 0.985 . S
C742 C743 1.363 1_545 S
C742 C748 1.379 . S
C742 N750 1.356 1_545 S
C743 C742 1.363 1_565 S
C743 C749 1.363 . S
C744 C745 1.363 . S
C744 C749 1.379 1_545 S
C744 N751 1.356 . S
C745 C744 1.363 . S
C745 C748 1.363 . S
N746 C748 1.356 . S
N746 H758 0.984 . S
N746 H759 0.985 . S
N747 C749 1.356 . S
N747 H752 0.984 . S
N747 H753 0.985 . S
C748 C742 1.379 . S
C748 C745 1.363 . S
C748 N746 1.356 . S
C749 C743 1.363 . S
C749 C744 1.379 1_565 S
C749 N747 1.356 . S
N750 C742 1.356 1_565 S
N750 H756 0.998 . S
N750 H757 0.984 . S
N751 C744 1.356 . S
N751 H754 0.984 . S
N751 H755 0.985 . S
H752 N747 0.984 . S
H753 N747 0.985 . S
H754 N751 0.984 . S
H755 N751 0.985 . S
H756 N750 0.998 . S
H757 N750 0.984 . S
H758 N746 0.984 . S
H759 N746 0.985 . S
C760 C761 1.363 . S
C760 C766 1.379 . S
C760 N768 1.356 . S
C761 C760 1.363 . S
C761 C767 1.363 1_556 S
C762 C763 1.363 . S
C762 C767 1.379 . S
C762 N769 1.356 . S
C763 C762 1.363 . S
C763 C766 1.363 1_554 S
N764 C766 1.356 1_554 S
N764 H776 0.984 1_554 S
N764 H777 0.985 . S
N765 C767 1.356 . S
N765 H770 0.984 1_554 S
N765 H771 0.985 . S
C766 C760 1.379 . S
C766 C763 1.363 1_556 S
C766 N764 1.356 1_556 S
C767 C761 1.363 1_554 S
C767 C762 1.379 . S
C767 N765 1.356 . S
N768 C760 1.356 . S
N768 H774 0.984 . S
N768 H775 0.984 . S
N769 C762 1.356 . S
N769 H772 0.984 . S
N769 H773 0.985 . S
H770 N765 0.984 1_556 S
H771 N765 0.985 . S
H772 N769 0.984 . S
H773 N769 0.985 . S
H774 N768 0.984 . S
H775 N768 0.984 . S
H776 N764 0.984 1_556 S
H777 N764 0.985 . S
C778 C779 1.363 . S
C778 C784 1.379 1_565 S
C778 N786 1.356 . S
C779 C778 1.363 . S
C779 C785 1.363 1_565 S
C780 C781 1.363 . S
C780 C785 1.379 . S
C780 N787 1.356 . S
C781 C780 1.363 . S
C781 C784 1.363 . S
N782 C784 1.356 . S
N782 H794 0.984 . S
N782 H795 0.985 . S
N783 C785 1.356 1_565 S
N783 H788 0.984 . S
N783 H789 0.985 1_565 S
C784 C778 1.379 1_545 S
C784 C781 1.363 . S
C784 N782 1.356 . S
C785 C779 1.363 1_545 S
C785 C780 1.379 . S
C785 N783 1.356 1_545 S
N786 C778 1.356 . S
N786 H792 0.984 . S
N786 H793 0.984 . S
N787 C780 1.356 . S
N787 H790 0.984 . S
N787 H791 0.985 . S
H788 N783 0.984 . S
H789 N783 0.985 1_545 S
H790 N787 0.984 . S
H791 N787 0.985 . S
H792 N786 0.984 . S
H793 N786 0.984 . S
H794 N782 0.984 . S
H795 N782 0.985 . S
C796 C797 1.363 . S
C796 C802 1.379 . S
C796 N804 1.356 . S
C797 C796 1.363 . S
C797 C803 1.363 . S
C798 C799 1.363 . S
C798 C803 1.379 . S
C798 N805 1.356 . S
C799 C798 1.363 . S
C799 C802 1.363 . S
N800 C802 1.356 . S
N800 H812 0.984 . S
N800 H813 0.985 . S
N801 C803 1.356 . S
N801 H806 0.984 . S
N801 H807 0.985 . S
C802 C796 1.379 . S
C802 C799 1.363 . S
C802 N800 1.356 . S
C803 C797 1.363 . S
C803 C798 1.379 . S
C803 N801 1.356 . S
N804 C796 1.356 . S
N804 H810 0.984 . S
N804 H811 0.984 . S
N805 C798 1.356 . S
N805 H808 0.984 . S
N805 H809 0.985 . S
H806 N801 0.984 . S
H807 N801 0.985 . S
H808 N805 0.984 . S
H809 N805 0.985 . S
H810 N804 0.984 . S
H811 N804 0.984 . S
H812 N800 0.984 . S
H813 N800 0.985 . S
C814 C815 1.363 . S
C814 C820 1.377 . S
C814 N822 1.356 . S
C815 C814 1.363 . S
C815 C821 1.363 . S
C816 C817 1.363 1_565 S
C816 C821 1.379 . S
C816 N823 1.356 1_565 S
C817 C816 1.363 1_545 S
C817 C820 1.364 1_545 S
N818 C820 1.358 1_545 S
N818 H830 0.984 . S
N818 H831 0.985 . S
N819 C821 1.356 . S
N819 H824 0.984 . S
N819 H825 0.985 . S
C820 C814 1.377 . S
C820 C817 1.364 1_565 S
C820 N818 1.358 1_565 S
C821 C815 1.363 . S
C821 C816 1.379 . S
C821 N819 1.356 . S
N822 C814 1.356 . S
N822 H828 0.984 . S
N822 H829 0.984 . S
N823 C816 1.356 1_545 S
N823 H826 0.984 . S
N823 H827 0.985 . S
H824 N819 0.984 . S
H825 N819 0.985 . S
H826 N823 0.984 . S
H827 N823 0.985 . S
H828 N822 0.984 . S
H829 N822 0.984 . S
H830 N818 0.984 . S
H831 N818 0.985 . S
C832 C833 1.363 . S
C832 C838 1.379 . S
C832 N840 1.356 . S
C833 C832 1.363 . S
C833 C839 1.363 . S
C834 C835 1.363 . S
C834 C839 1.379 . S
C834 N841 1.356 . S
C835 C834 1.363 . S
C835 C838 1.363 . S
N836 C838 1.356 . S
N836 H848 0.984 . S
N836 H849 0.985 . S
N837 C839 1.356 . S
N837 H842 0.984 . S
N837 H843 0.985 . S
C838 C832 1.379 . S
C838 C835 1.363 . S
C838 N836 1.356 . S
C839 C833 1.363 . S
C839 C834 1.379 . S
C839 N837 1.356 . S
N840 C832 1.356 . S
N840 H846 0.984 . S
N840 H847 0.984 . S
N841 C834 1.356 . S
N841 H844 0.984 . S
N841 H845 0.985 . S
H842 N837 0.984 . S
H843 N837 0.985 . S
H844 N841 0.984 . S
H845 N841 0.985 . S
H846 N840 0.984 . S
H847 N840 0.984 . S
H848 N836 0.984 . S
H849 N836 0.985 . S
C850 C851 1.363 . S
C850 C856 1.379 . S
C850 N858 1.356 . S
C851 C850 1.363 . S
C851 C857 1.363 . S
C852 C853 1.363 . S
C852 C857 1.379 . S
C852 N859 1.356 . S
C853 C852 1.363 . S
C853 C856 1.363 . S
N854 C856 1.356 . S
N854 H866 0.984 . S
N854 H867 0.985 . S
N855 C857 1.356 . S
N855 H860 0.984 . S
N855 H861 0.985 . S
C856 C850 1.379 . S
C856 C853 1.363 . S
C856 N854 1.356 . S
C857 C851 1.363 . S
C857 C852 1.379 . S
C857 N855 1.356 . S
N858 C850 1.356 . S
N858 H864 0.984 . S
N858 H865 0.984 . S
N859 C852 1.356 . S
N859 H862 0.984 . S
N859 H863 0.985 . S
H860 N855 0.984 . S
H861 N855 0.985 . S
H862 N859 0.984 . S
H863 N859 0.985 . S
H864 N858 0.984 . S
H865 N858 0.984 . S
H866 N854 0.984 . S
H867 N854 0.985 . S
C868 C869 1.363 . S
C868 C874 1.379 1_556 S
C868 N876 1.356 . S
C869 C868 1.363 . S
C869 C875 1.363 1_556 S
C870 C871 1.363 . S
C870 C875 1.379 . S
C870 N877 1.356 . S
C871 C870 1.363 . S
C871 C874 1.363 . S
N872 C874 1.356 . S
N872 H884 0.984 1_554 S
N872 H885 0.985 . S
N873 C875 1.356 . S
N873 H878 0.984 . S
N873 H879 0.985 . S
C874 C868 1.379 1_554 S
C874 C871 1.363 . S
C874 N872 1.356 . S
C875 C869 1.363 1_554 S
C875 C870 1.379 . S
C875 N873 1.356 . S
N876 C868 1.356 . S
N876 H882 0.984 . S
N876 H883 0.984 . S
N877 C870 1.356 . S
N877 H880 0.984 . S
N877 H881 0.985 . S
H878 N873 0.984 . S
H879 N873 0.985 . S
H880 N877 0.984 . S
H881 N877 0.985 . S
H882 N876 0.984 . S
H883 N876 0.984 . S
H884 N872 0.984 1_556 S
H885 N872 0.985 . S
C886 C887 1.363 . S
C886 C892 1.379 . S
C886 N894 1.356 . S
C887 C886 1.363 . S
C887 C893 1.363 . S
C888 C889 1.363 . S
C888 C893 1.379 . S
C888 N895 1.356 . S
C889 C888 1.363 . S
C889 C892 1.363 . S
N890 C892 1.356 . S
N890 H902 0.984 . S
N890 H903 0.985 . S
N891 C893 1.356 . S
N891 H896 0.984 . S
N891 H897 0.985 . S
C892 C886 1.379 . S
C892 C889 1.363 . S
C892 N890 1.356 . S
C893 C887 1.363 . S
C893 C888 1.379 . S
C893 N891 1.356 . S
N894 C886 1.356 . S
N894 H900 0.984 . S
N894 H901 0.984 . S
N895 C888 1.356 . S
N895 H898 0.984 . S
N895 H899 0.985 . S
H896 N891 0.984 . S
H897 N891 0.985 . S
H898 N895 0.984 . S
H899 N895 0.985 . S
H900 N894 0.984 . S
H901 N894 0.984 . S
H902 N890 0.984 . S
H903 N890 0.985 . S
C904 C905 1.363 . S
C904 C910 1.379 . S
C904 N912 1.356 . S
C905 C904 1.363 . S
C905 C911 1.363 . S
C906 C907 1.363 . S
C906 C911 1.379 . S
C906 N913 1.356 . S
C907 C906 1.363 . S
C907 C910 1.363 . S
N908 C910 1.356 . S
N908 H920 0.984 . S
N908 H921 0.985 . S
N909 C911 1.356 . S
N909 H914 0.984 . S
N909 H915 0.961 1_545 S
C910 C904 1.379 . S
C910 C907 1.363 . S
C910 N908 1.356 . S
C911 C905 1.363 . S
C911 C906 1.379 . S
C911 N909 1.356 . S
N912 C904 1.356 . S
N912 H918 0.984 . S
N912 H919 0.984 . S
N913 C906 1.356 . S
N913 H916 0.984 . S
N913 H917 0.985 . S
H914 N909 0.984 . S
H915 N909 0.961 1_565 S
H916 N913 0.984 . S
H917 N913 0.985 . S
H918 N912 0.984 . S
H919 N912 0.984 . S
H920 N908 0.984 . S
H921 N908 0.985 . S
C922 C923 1.363 . S
C922 C928 1.379 . S
C922 N930 1.356 . S
C923 C922 1.363 . S
C923 C929 1.363 . S
C924 C925 1.363 . S
C924 C929 1.379 . S
C924 N931 1.356 . S
C925 C924 1.363 . S
C925 C928 1.363 . S
N926 C928 1.356 . S
N926 H938 0.984 . S
N926 H939 0.985 . S
N927 C929 1.356 . S
N927 H932 0.984 . S
N927 H933 0.985 . S
C928 C922 1.379 . S
C928 C925 1.363 . S
C928 N926 1.356 . S
C929 C923 1.363 . S
C929 C924 1.379 . S
C929 N927 1.356 . S
N930 C922 1.356 . S
N930 H936 0.984 . S
N930 H937 0.984 . S
N931 C924 1.356 . S
N931 H934 0.984 . S
N931 H935 0.985 . S
H932 N927 0.984 . S
H933 N927 0.985 . S
H934 N931 0.984 . S
H935 N931 0.985 . S
H936 N930 0.984 . S
H937 N930 0.984 . S
H938 N926 0.984 . S
H939 N926 0.985 . S
C940 C941 1.363 . S
C940 C946 1.379 . S
C940 N948 1.356 . S
C941 C940 1.363 . S
C941 C947 1.363 . S
C942 C943 1.363 . S
C942 C947 1.379 1_554 S
C942 N949 1.356 . S
C943 C942 1.363 . S
C943 C946 1.363 1_554 S
N944 C946 1.356 . S
N944 H956 0.984 . S
N944 H957 0.985 . S
N945 C947 1.356 . S
N945 H950 0.984 . S
N945 H951 0.985 1_556 S
C946 C940 1.379 . S
C946 C943 1.363 1_556 S
C946 N944 1.356 . S
C947 C941 1.363 . S
C947 C942 1.379 1_556 S
C947 N945 1.356 . S
N948 C940 1.356 . S
N948 H954 0.984 . S
N948 H955 0.984 . S
N949 C942 1.356 . S
N949 H952 0.984 . S
N949 H953 0.985 . S
H950 N945 0.984 . S
H951 N945 0.985 1_554 S
H952 N949 0.984 . S
H953 N949 0.985 . S
H954 N948 0.984 . S
H955 N948 0.984 . S
H956 N944 0.984 . S
H957 N944 0.985 . S
C958 C959 1.363 . S
C958 C964 1.379 . S
C958 N966 1.356 . S
C959 C958 1.363 . S
C959 C965 1.363 . S
C960 C961 1.363 . S
C960 C965 1.379 . S
C960 N967 1.356 . S
C961 C960 1.363 . S
C961 C964 1.363 . S
N962 C964 1.356 . S
N962 H974 0.984 . S
N962 H975 0.985 . S
N963 C965 1.356 . S
N963 H968 0.984 . S
N963 H969 0.985 . S
C964 C958 1.379 . S
C964 C961 1.363 . S
C964 N962 1.356 . S
C965 C959 1.363 . S
C965 C960 1.379 . S
C965 N963 1.356 . S
N966 C958 1.356 . S
N966 H972 0.984 . S
N966 H973 0.984 . S
N967 C960 1.356 . S
N967 H970 0.984 . S
N967 H971 0.985 . S
H968 N963 0.984 . S
H969 N963 0.985 . S
H970 N967 0.984 . S
H971 N967 0.985 . S
H972 N966 0.984 . S
H973 N966 0.984 . S
H974 N962 0.984 . S
H975 N962 0.985 . S
C976 C977 1.363 . S
C976 C982 1.379 . S
C976 N984 1.356 . S
C977 C976 1.363 . S
C977 C983 1.363 1_556 S
C978 C979 1.363 . S
C978 C983 1.379 . S
C978 N985 1.356 . S
C979 C978 1.363 . S
C979 C982 1.363 1_554 S
N980 C982 1.356 . S
N980 H992 0.984 . S
N980 H993 0.985 1_556 S
N981 C983 1.356 . S
N981 H986 0.984 1_554 S
N981 H987 0.985 . S
C982 C976 1.379 . S
C982 C979 1.363 1_556 S
C982 N980 1.356 . S
C983 C977 1.363 1_554 S
C983 C978 1.379 . S
C983 N981 1.356 . S
N984 C976 1.356 . S
N984 H990 0.984 . S
N984 H991 0.984 . S
N985 C978 1.356 . S
N985 H988 0.984 . S
N985 H989 0.985 . S
H986 N981 0.984 1_556 S
H987 N981 0.985 . S
H988 N985 0.984 . S
H989 N985 0.985 . S
H990 N984 0.984 . S
H991 N984 0.984 . S
H992 N980 0.984 . S
H993 N980 0.985 1_554 S
C994 C995 1.363 . S
C994 C1000 1.379 . S
C994 N1002 1.356 1_554 S
C995 C994 1.363 . S
C995 C1001 1.363 . S
C996 C997 1.363 . S
C996 C1001 1.379 . S
C996 N1003 1.356 . S
C997 C996 1.363 . S
C997 C1000 1.363 . S
N998 C1000 1.356 . S
N998 H1010 0.984 . S
N998 H1011 0.985 . S
N999 C1001 1.356 . S
N999 H1004 0.984 . S
N999 H1005 0.985 . S
C1000 C994 1.379 . S
C1000 C997 1.363 . S
C1000 N998 1.356 . S
C1001 C995 1.363 . S
C1001 C996 1.379 . S
C1001 N999 1.356 . S
N1002 C994 1.356 1_556 S
N1002 H1008 0.984 . S
N1002 H1009 0.984 . S
N1003 C996 1.356 . S
N1003 H1006 0.984 . S
N1003 H1007 0.985 . S
H1004 N999 0.984 . S
H1005 N999 0.985 . S
H1006 N1003 0.984 . S
H1007 N1003 0.985 . S
H1008 N1002 0.984 . S
H1009 N1002 0.984 . S
H1010 N998 0.984 . S
H1011 N998 0.985 . S
C1012 C1013 1.363 . S
C1012 C1018 1.379 . S
C1012 N1020 1.356 . S
C1013 C1012 1.363 . S
C1013 C1019 1.363 . S
C1014 C1015 1.363 . S
C1014 C1019 1.379 . S
C1014 N1021 1.356 . S
C1015 C1014 1.363 . S
C1015 C1018 1.363 . S
N1016 C1018 1.356 . S
N1016 H1028 0.984 . S
N1016 H1029 0.985 . S
N1017 C1019 1.356 . S
N1017 H1022 0.984 . S
N1017 H1023 0.985 . S
C1018 C1012 1.379 . S
C1018 C1015 1.363 . S
C1018 N1016 1.356 . S
C1019 C1013 1.363 . S
C1019 C1014 1.379 . S
C1019 N1017 1.356 . S
N1020 C1012 1.356 . S
N1020 H1026 0.984 . S
N1020 H1027 0.984 . S
N1021 C1014 1.356 . S
N1021 H1024 0.984 . S
N1021 H1025 0.985 . S
H1022 N1017 0.984 . S
H1023 N1017 0.985 . S
H1024 N1021 0.984 . S
H1025 N1021 0.985 . S
H1026 N1020 0.984 . S
H1027 N1020 0.984 . S
H1028 N1016 0.984 . S
H1029 N1016 0.985 . S
C1030 C1031 1.363 . S
C1030 C1036 1.379 . S
C1030 N1038 1.356 . S
C1031 C1030 1.363 . S
C1031 C1037 1.363 . S
C1032 C1033 1.363 . S
C1032 C1037 1.379 . S
C1032 N1039 1.356 . S
C1033 C1032 1.363 . S
C1033 C1036 1.363 . S
N1034 C1036 1.356 . S
N1034 H1046 0.984 . S
N1034 H1047 0.985 . S
N1035 C1037 1.356 . S
N1035 H1040 0.984 . S
N1035 H1041 0.985 . S
C1036 C1030 1.379 . S
C1036 C1033 1.363 . S
C1036 N1034 1.356 . S
C1037 C1031 1.363 . S
C1037 C1032 1.379 . S
C1037 N1035 1.356 . S
N1038 C1030 1.356 . S
N1038 H1044 0.984 . S
N1038 H1045 0.984 . S
N1039 C1032 1.356 . S
N1039 H1042 0.984 . S
N1039 H1043 0.985 . S
H1040 N1035 0.984 . S
H1041 N1035 0.985 . S
H1042 N1039 0.984 . S
H1043 N1039 0.985 . S
H1044 N1038 0.984 . S
H1045 N1038 0.984 . S
H1046 N1034 0.984 . S
H1047 N1034 0.985 . S
C1048 C1049 1.363 . S
C1048 C1054 1.379 . S
C1048 N1056 1.356 . S
C1049 C1048 1.363 . S
C1049 C1055 1.363 . S
C1050 C1051 1.363 . S
C1050 C1055 1.379 . S
C1050 N1057 1.356 . S
C1051 C1050 1.363 . S
C1051 C1054 1.363 . S
N1052 C1054 1.356 . S
N1052 H1064 0.984 . S
N1052 H1065 0.985 . S
N1053 C1055 1.356 . S
N1053 H1058 0.984 . S
N1053 H1059 0.985 . S
C1054 C1048 1.379 . S
C1054 C1051 1.363 . S
C1054 N1052 1.356 . S
C1055 C1049 1.363 . S
C1055 C1050 1.379 . S
C1055 N1053 1.356 . S
N1056 C1048 1.356 . S
N1056 H1062 0.984 . S
N1056 H1063 0.984 . S
N1057 C1050 1.356 . S
N1057 H1060 0.984 . S
N1057 H1061 0.985 . S
H1058 N1053 0.984 . S
H1059 N1053 0.985 . S
H1060 N1057 0.984 . S
H1061 N1057 0.985 . S
H1062 N1056 0.984 . S
H1063 N1056 0.984 . S
H1064 N1052 0.984 . S
H1065 N1052 0.985 . S
C1066 C1067 1.363 . S
C1066 C1072 1.379 . S
C1066 N1074 1.356 . S
C1067 C1066 1.363 . S
C1067 C1073 1.363 . S
C1068 C1069 1.363 . S
C1068 C1073 1.379 . S
C1068 N1075 1.356 . S
C1069 C1068 1.363 . S
C1069 C1072 1.363 . S
N1070 C1072 1.356 . S
N1070 H1082 0.984 . S
N1070 H1083 0.985 . S
N1071 C1073 1.356 . S
N1071 H1076 0.984 . S
N1071 H1077 0.985 . S
C1072 C1066 1.379 . S
C1072 C1069 1.363 . S
C1072 N1070 1.356 . S
C1073 C1067 1.363 . S
C1073 C1068 1.379 . S
C1073 N1071 1.356 . S
N1074 C1066 1.356 . S
N1074 H1080 0.984 . S
N1074 H1081 0.984 . S
N1075 C1068 1.356 . S
N1075 H1078 0.984 . S
N1075 H1079 0.985 . S
H1076 N1071 0.984 . S
H1077 N1071 0.985 . S
H1078 N1075 0.984 . S
H1079 N1075 0.985 . S
H1080 N1074 0.984 . S
H1081 N1074 0.984 . S
H1082 N1070 0.984 . S
H1083 N1070 0.985 . S
C1084 C1085 1.363 . S
C1084 C1090 1.379 1_556 S
C1084 N1092 1.356 . S
C1085 C1084 1.363 . S
C1085 C1091 1.363 1_556 S
C1086 C1087 1.363 . S
C1086 C1091 1.379 . S
C1086 N1093 1.356 . S
C1087 C1086 1.363 . S
C1087 C1090 1.363 . S
N1088 C1090 1.356 . S
N1088 H1100 0.984 1_554 S
N1088 H1101 0.985 . S
N1089 C1091 1.356 1_556 S
N1089 H1094 0.984 . S
N1089 H1095 0.985 1_556 S
C1090 C1084 1.379 1_554 S
C1090 C1087 1.363 . S
C1090 N1088 1.356 . S
C1091 C1085 1.363 1_554 S
C1091 C1086 1.379 . S
C1091 N1089 1.356 1_554 S
N1092 C1084 1.356 . S
N1092 H1098 0.984 . S
N1092 H1099 0.984 . S
N1093 C1086 1.356 . S
N1093 H1096 0.984 . S
N1093 H1097 0.985 . S
H1094 N1089 0.984 . S
H1095 N1089 0.985 1_554 S
H1096 N1093 0.984 . S
H1097 N1093 0.985 . S
H1098 N1092 0.984 . S
H1099 N1092 0.984 . S
H1100 N1088 0.984 1_556 S
H1101 N1088 0.985 . S
C1102 C1103 1.363 . S
C1102 C1108 1.379 . S
C1102 N1110 1.356 1_455 S
C1103 C1102 1.363 . S
C1103 C1109 1.363 . S
C1104 C1105 1.363 . S
C1104 C1109 1.379 . S
C1104 N1111 1.356 . S
C1105 C1104 1.363 . S
C1105 C1108 1.363 . S
N1106 C1108 1.356 . S
N1106 H1118 0.984 . S
N1106 H1119 0.985 . S
N1107 C1109 1.356 . S
N1107 H1112 0.984 . S
N1107 H1113 0.985 . S
C1108 C1102 1.379 . S
C1108 C1105 1.363 . S
C1108 N1106 1.356 . S
C1109 C1103 1.363 . S
C1109 C1104 1.379 . S
C1109 N1107 1.356 . S
N1110 C1102 1.356 1_655 S
N1110 H1116 0.984 . S
N1110 H1117 0.984 . S
N1111 C1104 1.356 . S
N1111 H1114 0.984 . S
N1111 H1115 0.985 . S
H1112 N1107 0.984 . S
H1113 N1107 0.985 . S
H1114 N1111 0.984 . S
H1115 N1111 0.985 . S
H1116 N1110 0.984 . S
H1117 N1110 0.984 . S
H1118 N1106 0.984 . S
H1119 N1106 0.985 . S
C1120 C1121 1.363 1_556 S
C1120 C1126 1.379 . S
C1120 N1128 1.356 . S
C1121 C1120 1.363 1_554 S
C1121 C1127 1.363 . S
C1122 C1123 1.363 1_554 S
C1122 C1127 1.379 . S
C1122 N1129 1.356 . S
C1123 C1122 1.363 1_556 S
C1123 C1126 1.363 . S
N1124 C1126 1.356 . S
N1124 H1136 0.984 . S
N1124 H1137 0.985 . S
N1125 C1127 1.356 . S
N1125 H1130 0.984 . S
N1125 H1131 0.985 . S
C1126 C1120 1.379 . S
C1126 C1123 1.363 . S
C1126 N1124 1.356 . S
C1127 C1121 1.363 . S
C1127 C1122 1.379 . S
C1127 N1125 1.356 . S
N1128 C1120 1.356 . S
N1128 H1134 0.984 . S
N1128 H1135 0.984 1_556 S
N1129 C1122 1.356 . S
N1129 H1132 0.984 1_554 S
N1129 H1133 0.985 . S
H1130 N1125 0.984 . S
H1131 N1125 0.985 . S
H1132 N1129 0.984 1_556 S
H1133 N1129 0.985 . S
H1134 N1128 0.984 . S
H1135 N1128 0.984 1_554 S
H1136 N1124 0.984 . S
H1137 N1124 0.985 . S
C1138 C1139 1.363 . S
C1138 C1144 1.379 . S
C1138 N1146 1.356 . S
C1139 C1138 1.363 . S
C1139 C1145 1.363 . S
C1140 C1141 1.363 . S
C1140 C1145 1.379 . S
C1140 N1147 1.356 . S
C1141 C1140 1.363 . S
C1141 C1144 1.363 . S
N1142 C1144 1.356 1_554 S
N1142 H1154 0.984 . S
N1142 H1155 0.985 . S
N1143 C1145 1.356 . S
N1143 H1148 0.984 . S
N1143 H1149 0.985 . S
C1144 C1138 1.379 . S
C1144 C1141 1.363 . S
C1144 N1142 1.356 1_556 S
C1145 C1139 1.363 . S
C1145 C1140 1.379 . S
C1145 N1143 1.356 . S
N1146 C1138 1.356 . S
N1146 H1152 0.984 . S
N1146 H1153 0.984 . S
N1147 C1140 1.356 . S
N1147 H1150 0.984 . S
N1147 H1151 0.985 . S
H1148 N1143 0.984 . S
H1149 N1143 0.985 . S
H1150 N1147 0.984 . S
H1151 N1147 0.985 . S
H1152 N1146 0.984 . S
H1153 N1146 0.984 . S
H1154 N1142 0.984 . S
H1155 N1142 0.985 . S
C1156 C1157 1.363 . S
C1156 C1162 1.379 . S
C1156 N1164 1.356 . S
C1157 C1156 1.363 . S
C1157 C1163 1.363 . S
C1158 C1159 1.363 . S
C1158 C1163 1.379 . S
C1158 N1165 1.356 . S
C1159 C1158 1.363 . S
C1159 C1162 1.363 . S
N1160 C1162 1.356 . S
N1160 H1172 0.984 . S
N1160 H1173 0.985 . S
N1161 C1163 1.356 . S
N1161 H1166 0.984 . S
N1161 H1167 0.985 . S
C1162 C1156 1.379 . S
C1162 C1159 1.363 . S
C1162 N1160 1.356 . S
C1163 C1157 1.363 . S
C1163 C1158 1.379 . S
C1163 N1161 1.356 . S
N1164 C1156 1.356 . S
N1164 H1170 0.984 . S
N1164 H1171 0.984 . S
N1165 C1158 1.356 . S
N1165 H1168 0.984 . S
N1165 H1169 0.985 . S
H1166 N1161 0.984 . S
H1167 N1161 0.985 . S
H1168 N1165 0.984 . S
H1169 N1165 0.985 . S
H1170 N1164 0.984 . S
H1171 N1164 0.984 . S
H1172 N1160 0.984 . S
H1173 N1160 0.985 . S
C1174 C1175 1.363 . S
C1174 C1180 1.379 . S
C1174 N1182 1.356 . S
C1175 C1174 1.363 . S
C1175 C1181 1.363 . S
C1176 C1177 1.363 . S
C1176 C1181 1.379 . S
C1176 N1183 1.356 . S
C1177 C1176 1.363 . S
C1177 C1180 1.363 . S
N1178 C1180 1.356 . S
N1178 H1190 0.984 . S
N1178 H1191 0.985 . S
N1179 C1181 1.356 . S
N1179 H1184 0.984 . S
N1179 H1185 0.985 . S
C1180 C1174 1.379 . S
C1180 C1177 1.363 . S
C1180 N1178 1.356 . S
C1181 C1175 1.363 . S
C1181 C1176 1.379 . S
C1181 N1179 1.356 . S
N1182 C1174 1.356 . S
N1182 H1188 0.984 . S
N1182 H1189 0.984 . S
N1183 C1176 1.356 . S
N1183 H1186 0.984 . S
N1183 H1187 0.985 . S
H1184 N1179 0.984 . S
H1185 N1179 0.985 . S
H1186 N1183 0.984 . S
H1187 N1183 0.985 . S
H1188 N1182 0.984 . S
H1189 N1182 0.984 . S
H1190 N1178 0.984 . S
H1191 N1178 0.985 . S
C1192 C1193 1.363 . S
C1192 C1198 1.379 . S
C1192 N1200 1.356 . S
C1193 C1192 1.363 . S
C1193 C1199 1.363 . S
C1194 C1195 1.363 . S
C1194 C1199 1.379 . S
C1194 N1201 1.356 . S
C1195 C1194 1.363 . S
C1195 C1198 1.363 . S
N1196 C1198 1.356 . S
N1196 H1208 0.984 . S
N1196 H1209 0.985 . S
N1197 C1199 1.356 . S
N1197 H1202 0.984 . S
N1197 H1203 0.985 . S
C1198 C1192 1.379 . S
C1198 C1195 1.363 . S
C1198 N1196 1.356 . S
C1199 C1193 1.363 . S
C1199 C1194 1.379 . S
C1199 N1197 1.356 . S
N1200 C1192 1.356 . S
N1200 H1206 0.984 . S
N1200 H1207 0.984 . S
N1201 C1194 1.356 . S
N1201 H1204 0.984 . S
N1201 H1205 0.985 . S
H1202 N1197 0.984 . S
H1203 N1197 0.985 . S
H1204 N1201 0.984 . S
H1205 N1201 0.985 . S
H1206 N1200 0.984 . S
H1207 N1200 0.984 . S
H1208 N1196 0.984 . S
H1209 N1196 0.985 . S
C1210 C1211 1.363 . S
C1210 C1216 1.379 . S
C1210 N1218 1.356 . S
C1211 C1210 1.363 . S
C1211 C1217 1.363 . S
C1212 C1213 1.363 . S
C1212 C1217 1.379 . S
C1212 N1219 1.356 . S
C1213 C1212 1.363 . S
C1213 C1216 1.363 . S
N1214 C1216 1.356 . S
N1214 H1226 0.984 . S
N1214 H1227 0.985 . S
N1215 C1217 1.356 . S
N1215 H1220 0.984 . S
N1215 H1221 0.985 1_554 S
C1216 C1210 1.379 . S
C1216 C1213 1.363 . S
C1216 N1214 1.356 . S
C1217 C1211 1.363 . S
C1217 C1212 1.379 . S
C1217 N1215 1.356 . S
N1218 C1210 1.356 . S
N1218 H1224 0.984 . S
N1218 H1225 0.984 . S
N1219 C1212 1.356 . S
N1219 H1222 0.984 . S
N1219 H1223 0.985 . S
H1220 N1215 0.984 . S
H1221 N1215 0.985 1_556 S
H1222 N1219 0.984 . S
H1223 N1219 0.985 . S
H1224 N1218 0.984 . S
H1225 N1218 0.984 . S
H1226 N1214 0.984 . S
H1227 N1214 0.985 . S
C1228 C1229 1.363 . S
C1228 C1234 1.379 1_554 S
C1228 N1236 1.356 . S
C1229 C1228 1.363 . S
C1229 C1235 1.363 . S
C1230 C1231 1.363 . S
C1230 C1235 1.379 1_556 S
C1230 N1237 1.356 . S
C1231 C1230 1.363 . S
C1231 C1234 1.363 . S
N1232 C1234 1.356 . S
N1232 H1244 0.984 . S
N1232 H1245 0.985 . S
N1233 C1235 1.356 . S
N1233 H1238 0.984 . S
N1233 H1239 0.985 . S
C1234 C1228 1.379 1_556 S
C1234 C1231 1.363 . S
C1234 N1232 1.356 . S
C1235 C1229 1.363 . S
C1235 C1230 1.379 1_554 S
C1235 N1233 1.356 . S
N1236 C1228 1.356 . S
N1236 H1242 0.984 . S
N1236 H1243 0.984 . S
N1237 C1230 1.356 . S
N1237 H1240 0.984 . S
N1237 H1241 0.985 . S
H1238 N1233 0.984 . S
H1239 N1233 0.985 . S
H1240 N1237 0.984 . S
H1241 N1237 0.985 . S
H1242 N1236 0.984 . S
H1243 N1236 0.984 . S
H1244 N1232 0.984 . S
H1245 N1232 0.985 . S
C1246 C1247 1.363 . S
C1246 C1252 1.379 . S
C1246 N1254 1.356 . S
C1247 C1246 1.363 . S
C1247 C1253 1.363 . S
C1248 C1249 1.363 . S
C1248 C1253 1.379 . S
C1248 N1255 1.356 . S
C1249 C1248 1.363 . S
C1249 C1252 1.363 . S
N1250 C1252 1.356 1_455 S
N1250 H1262 0.984 . S
N1250 H1263 0.985 . S
N1251 C1253 1.356 . S
N1251 H1256 0.984 . S
N1251 H1257 0.985 . S
C1252 C1246 1.379 . S
C1252 C1249 1.363 . S
C1252 N1250 1.356 1_655 S
C1253 C1247 1.363 . S
C1253 C1248 1.379 . S
C1253 N1251 1.356 . S
N1254 C1246 1.356 . S
N1254 H1260 0.984 . S
N1254 H1261 0.984 . S
N1255 C1248 1.356 . S
N1255 H1258 0.984 . S
N1255 H1259 0.985 . S
H1256 N1251 0.984 . S
H1257 N1251 0.985 . S
H1258 N1255 0.984 . S
H1259 N1255 0.985 . S
H1260 N1254 0.984 . S
H1261 N1254 0.984 . S
H1262 N1250 0.984 . S
H1263 N1250 0.985 . S
C1264 C1265 1.363 . S
C1264 C1270 1.379 . S
C1264 N1272 1.356 . S
C1265 C1264 1.363 . S
C1265 C1271 1.363 . S
C1266 C1267 1.363 . S
C1266 C1271 1.379 . S
C1266 N1273 1.356 . S
C1267 C1266 1.363 . S
C1267 C1270 1.363 . S
N1268 C1270 1.356 . S
N1268 H1280 0.984 . S
N1268 H1281 0.985 . S
N1269 C1271 1.356 . S
N1269 H1274 0.984 . S
N1269 H1275 0.985 . S
C1270 C1264 1.379 . S
C1270 C1267 1.363 . S
C1270 N1268 1.356 . S
C1271 C1265 1.363 . S
C1271 C1266 1.379 . S
C1271 N1269 1.356 . S
N1272 C1264 1.356 . S
N1272 H1278 0.984 . S
N1272 H1279 0.984 . S
N1273 C1266 1.356 . S
N1273 H1276 0.984 . S
N1273 H1277 0.985 . S
H1274 N1269 0.984 . S
H1275 N1269 0.985 . S
H1276 N1273 0.984 . S
H1277 N1273 0.985 . S
H1278 N1272 0.984 . S
H1279 N1272 0.984 . S
H1280 N1268 0.984 . S
H1281 N1268 0.985 . S
C1282 C1283 1.363 . S
C1282 C1288 1.379 . S
C1282 N1290 1.356 . S
C1283 C1282 1.363 . S
C1283 C1289 1.363 . S
C1284 C1285 1.363 . S
C1284 C1289 1.379 . S
C1284 N1291 1.356 . S
C1285 C1284 1.363 . S
C1285 C1288 1.363 . S
N1286 C1288 1.356 . S
N1286 H1298 0.984 . S
N1286 H1299 0.985 . S
N1287 C1289 1.356 . S
N1287 H1292 0.984 . S
N1287 H1293 0.985 . S
C1288 C1282 1.379 . S
C1288 C1285 1.363 . S
C1288 N1286 1.356 . S
C1289 C1283 1.363 . S
C1289 C1284 1.379 . S
C1289 N1287 1.356 . S
N1290 C1282 1.356 . S
N1290 H1296 0.984 . S
N1290 H1297 0.984 . S
N1291 C1284 1.356 . S
N1291 H1294 0.984 . S
N1291 H1295 0.985 . S
H1292 N1287 0.984 . S
H1293 N1287 0.985 . S
H1294 N1291 0.984 . S
H1295 N1291 0.985 . S
H1296 N1290 0.984 . S
H1297 N1290 0.984 . S
H1298 N1286 0.984 . S
H1299 N1286 0.985 . S
C1300 C1301 1.363 . S
C1300 C1306 1.379 . S
C1300 N1308 1.356 . S
C1301 C1300 1.363 . S
C1301 C1307 1.363 . S
C1302 C1303 1.363 . S
C1302 C1307 1.379 . S
C1302 N1309 1.356 . S
C1303 C1302 1.363 . S
C1303 C1306 1.363 . S
N1304 C1306 1.356 . S
N1304 H1316 0.984 . S
N1304 H1317 0.985 . S
N1305 C1307 1.356 1_554 S
N1305 H1310 0.984 . S
N1305 H1311 0.985 . S
C1306 C1300 1.379 . S
C1306 C1303 1.363 . S
C1306 N1304 1.356 . S
C1307 C1301 1.363 . S
C1307 C1302 1.379 . S
C1307 N1305 1.356 1_556 S
N1308 C1300 1.356 . S
N1308 H1314 0.984 . S
N1308 H1315 0.984 . S
N1309 C1302 1.356 . S
N1309 H1312 0.984 . S
N1309 H1313 0.985 . S
H1310 N1305 0.984 . S
H1311 N1305 0.985 . S
H1312 N1309 0.984 . S
H1313 N1309 0.985 . S
H1314 N1308 0.984 . S
H1315 N1308 0.984 . S
H1316 N1304 0.984 . S
H1317 N1304 0.985 . S
C1318 C1319 1.363 . S
C1318 C1324 1.379 1_455 S
C1318 N1326 1.356 . S
C1319 C1318 1.363 . S
C1319 C1325 1.363 . S
C1320 C1321 1.363 1_455 S
C1320 C1325 1.379 . S
C1320 N1327 1.356 1_455 S
C1321 C1320 1.363 1_655 S
C1321 C1324 1.363 . S
N1322 C1324 1.356 . S
N1322 H1334 0.984 . S
N1322 H1335 0.985 . S
N1323 C1325 1.356 . S
N1323 H1328 0.984 . S
N1323 H1329 0.985 . S
C1324 C1318 1.379 1_655 S
C1324 C1321 1.363 . S
C1324 N1322 1.356 . S
C1325 C1319 1.363 . S
C1325 C1320 1.379 . S
C1325 N1323 1.356 . S
N1326 C1318 1.356 . S
N1326 H1332 0.984 . S
N1326 H1333 0.984 . S
N1327 C1320 1.356 1_655 S
N1327 H1330 0.985 1_554 S
N1327 H1331 0.985 1_654 S
H1328 N1323 0.984 . S
H1329 N1323 0.985 . S
H1330 N1327 0.985 1_556 S
H1331 N1327 0.985 1_456 S
H1332 N1326 0.984 . S
H1333 N1326 0.984 . S
H1334 N1322 0.984 . S
H1335 N1322 0.985 . S
C1336 C1337 1.363 . S
C1336 C1342 1.379 . S
C1336 N1344 1.356 . S
C1337 C1336 1.363 . S
C1337 C1343 1.363 . S
C1338 C1339 1.363 . S
C1338 C1343 1.379 1_556 S
C1338 N1345 1.356 . S
C1339 C1338 1.363 . S
C1339 C1342 1.363 1_556 S
N1340 C1342 1.356 . S
N1340 H1352 0.984 . S
N1340 H1353 0.985 . S
N1341 C1343 1.356 . S
N1341 H1346 0.984 . S
N1341 H1347 0.985 1_554 S
C1342 C1336 1.379 . S
C1342 C1339 1.363 1_554 S
C1342 N1340 1.356 . S
C1343 C1337 1.363 . S
C1343 C1338 1.379 1_554 S
C1343 N1341 1.356 . S
N1344 C1336 1.356 . S
N1344 H1350 0.984 . S
N1344 H1351 0.984 . S
N1345 C1338 1.356 . S
N1345 H1348 0.984 . S
N1345 H1349 0.985 . S
H1346 N1341 0.984 . S
H1347 N1341 0.985 1_556 S
H1348 N1345 0.984 . S
H1349 N1345 0.985 . S
H1350 N1344 0.984 . S
H1351 N1344 0.984 . S
H1352 N1340 0.984 . S
H1353 N1340 0.985 . S
C1354 C1355 1.363 . S
C1354 C1360 1.379 . S
C1354 N1362 1.356 . S
C1355 C1354 1.363 . S
C1355 C1361 1.363 . S
C1356 C1357 1.363 . S
C1356 C1361 1.379 1_455 S
C1356 N1363 1.356 . S
C1357 C1356 1.363 . S
C1357 C1360 1.363 1_455 S
N1358 C1360 1.356 1_455 S
N1358 H1370 0.984 1_455 S
N1358 H1371 0.985 . S
N1359 C1361 1.356 . S
N1359 H1364 0.984 . S
N1359 H1365 0.985 . S
C1360 C1354 1.379 . S
C1360 C1357 1.363 1_655 S
C1360 N1358 1.356 1_655 S
C1361 C1355 1.363 . S
C1361 C1356 1.379 1_655 S
C1361 N1359 1.356 . S
N1362 C1354 1.356 . S
N1362 H1368 0.984 . S
N1362 H1369 0.984 . S
N1363 C1356 1.356 . S
N1363 H1366 0.984 . S
N1363 H1367 0.985 . S
H1364 N1359 0.984 . S
H1365 N1359 0.985 . S
H1366 N1363 0.984 . S
H1367 N1363 0.985 . S
H1368 N1362 0.984 . S
H1369 N1362 0.984 . S
H1370 N1358 0.984 1_655 S
H1371 N1358 0.985 . S
C1372 C1373 1.363 . S
C1372 C1378 1.379 . S
C1372 N1380 1.356 . S
C1373 C1372 1.363 . S
C1373 C1379 1.363 . S
C1374 C1375 1.363 . S
C1374 C1379 1.379 . S
C1374 N1381 1.356 . S
C1375 C1374 1.363 . S
C1375 C1378 1.363 . S
N1376 C1378 1.356 . S
N1376 H1388 0.984 . S
N1376 H1389 0.985 . S
N1377 C1379 1.356 . S
N1377 H1382 0.984 . S
N1377 H1383 0.985 . S
C1378 C1372 1.379 . S
C1378 C1375 1.363 . S
C1378 N1376 1.356 . S
C1379 C1373 1.363 . S
C1379 C1374 1.379 . S
C1379 N1377 1.356 . S
N1380 C1372 1.356 . S
N1380 H1386 0.984 . S
N1380 H1387 0.984 . S
N1381 C1374 1.356 . S
N1381 H1384 0.984 . S
N1381 H1385 0.985 . S
H1382 N1377 0.984 . S
H1383 N1377 0.985 . S
H1384 N1381 0.984 . S
H1385 N1381 0.985 . S
H1386 N1380 0.984 . S
H1387 N1380 0.984 . S
H1388 N1376 0.984 . S
H1389 N1376 0.985 . S
C1390 C1391 1.363 . S
C1390 C1396 1.379 . S
C1390 N1398 1.356 . S
C1391 C1390 1.363 . S
C1391 C1397 1.363 . S
C1392 C1393 1.363 . S
C1392 C1397 1.379 . S
C1392 N1399 1.356 . S
C1393 C1392 1.363 . S
C1393 C1396 1.363 . S
N1394 C1396 1.356 . S
N1394 H1406 0.984 . S
N1394 H1407 0.985 . S
N1395 C1397 1.356 . S
N1395 H1400 0.984 . S
N1395 H1401 0.985 . S
C1396 C1390 1.379 . S
C1396 C1393 1.363 . S
C1396 N1394 1.356 . S
C1397 C1391 1.363 . S
C1397 C1392 1.379 . S
C1397 N1395 1.356 . S
N1398 C1390 1.356 . S
N1398 H1404 0.984 . S
N1398 H1405 0.984 . S
N1399 C1392 1.356 . S
N1399 H1402 0.984 . S
N1399 H1403 0.985 . S
H1400 N1395 0.984 . S
H1401 N1395 0.985 . S
H1402 N1399 0.984 . S
H1403 N1399 0.985 . S
H1404 N1398 0.984 . S
H1405 N1398 0.984 . S
H1406 N1394 0.984 . S
H1407 N1394 0.985 . S
C1408 C1409 1.363 . S
C1408 C1414 1.379 . S
C1408 N1416 1.356 . S
C1409 C1408 1.363 . S
C1409 C1415 1.363 . S
C1410 C1411 1.363 . S
C1410 C1415 1.379 . S
C1410 N1417 1.356 . S
C1411 C1410 1.363 . S
C1411 C1414 1.363 . S
N1412 C1414 1.356 . S
N1412 H1424 0.984 . S
N1412 H1425 0.985 . S
N1413 C1415 1.356 . S
N1413 H1418 0.984 . S
N1413 H1419 0.985 . S
C1414 C1408 1.379 . S
C1414 C1411 1.363 . S
C1414 N1412 1.356 . S
C1415 C1409 1.363 . S
C1415 C1410 1.379 . S
C1415 N1413 1.356 . S
N1416 C1408 1.356 . S
N1416 H1422 0.984 . S
N1416 H1423 0.984 . S
N1417 C1410 1.356 . S
N1417 H1420 0.984 . S
N1417 H1421 0.985 . S
H1418 N1413 0.984 . S
H1419 N1413 0.985 . S
H1420 N1417 0.984 . S
H1421 N1417 0.985 . S
H1422 N1416 0.984 . S
H1423 N1416 0.984 . S
H1424 N1412 0.984 . S
H1425 N1412 0.985 . S
C1426 C1427 1.363 . S
C1426 C1432 1.379 . S
C1426 N1434 1.356 . S
C1427 C1426 1.363 . S
C1427 C1433 1.363 . S
C1428 C1429 1.363 . S
C1428 C1433 1.379 . S
C1428 N1435 1.356 . S
C1429 C1428 1.363 . S
C1429 C1432 1.363 . S
N1430 C1432 1.356 . S
N1430 H1442 0.984 . S
N1430 H1443 0.985 . S
N1431 C1433 1.356 . S
N1431 H1436 0.984 . S
N1431 H1437 0.985 . S
C1432 C1426 1.379 . S
C1432 C1429 1.363 . S
C1432 N1430 1.356 . S
C1433 C1427 1.363 . S
C1433 C1428 1.379 . S
C1433 N1431 1.356 . S
N1434 C1426 1.356 . S
N1434 H1440 0.984 . S
N1434 H1441 0.984 . S
N1435 C1428 1.356 . S
N1435 H1438 0.984 . S
N1435 H1439 0.985 . S
H1436 N1431 0.984 . S
H1437 N1431 0.985 . S
H1438 N1435 0.984 . S
H1439 N1435 0.985 . S
H1440 N1434 0.984 . S
H1441 N1434 0.984 . S
H1442 N1430 0.984 . S
H1443 N1430 0.985 . S
C1444 C1445 1.363 . S
C1444 C1450 1.379 . S
C1444 N1452 1.356 . S
C1445 C1444 1.363 . S
C1445 C1451 1.363 . S
C1446 C1447 1.363 . S
C1446 C1451 1.379 . S
C1446 N1453 1.356 1_554 S
C1447 C1446 1.363 . S
C1447 C1450 1.363 . S
N1448 C1450 1.356 . S
N1448 H1460 0.984 . S
N1448 H1461 0.985 . S
N1449 C1451 1.356 . S
N1449 H1454 0.984 . S
N1449 H1455 0.985 . S
C1450 C1444 1.379 . S
C1450 C1447 1.363 . S
C1450 N1448 1.356 . S
C1451 C1445 1.363 . S
C1451 C1446 1.379 . S
C1451 N1449 1.356 . S
N1452 C1444 1.356 . S
N1452 H1458 0.984 . S
N1452 H1459 0.984 . S
N1453 C1446 1.356 1_556 S
N1453 H1456 0.984 . S
N1453 H1457 0.985 . S
H1454 N1449 0.984 . S
H1455 N1449 0.985 . S
H1456 N1453 0.984 . S
H1457 N1453 0.985 . S
H1458 N1452 0.984 . S
H1459 N1452 0.984 . S
H1460 N1448 0.984 . S
H1461 N1448 0.985 . S
C1462 C1463 1.363 1_655 S
C1462 C1468 1.379 . S
C1462 N1470 1.357 1_655 S
C1463 C1462 1.363 1_455 S
C1463 C1469 1.363 . S
C1464 C1465 1.363 . S
C1464 C1469 1.379 1_655 S
C1464 N1471 1.356 . S
C1465 C1464 1.363 . S
C1465 C1468 1.363 . S
N1466 C1468 1.356 . S
N1466 H1478 0.984 . S
N1466 H1479 0.985 . S
N1467 C1469 1.356 . S
N1467 H1472 0.984 . S
N1467 H1473 0.985 . S
C1468 C1462 1.379 . S
C1468 C1465 1.363 . S
C1468 N1466 1.356 . S
C1469 C1463 1.363 . S
C1469 C1464 1.379 1_455 S
C1469 N1467 1.356 . S
N1470 C1462 1.357 1_455 S
N1470 H1476 0.987 1_455 S
N1470 H1477 0.981 . S
N1471 C1464 1.356 . S
N1471 H1474 0.984 . S
N1471 H1475 0.985 1_655 S
H1472 N1467 0.984 . S
H1473 N1467 0.985 . S
H1474 N1471 0.984 . S
H1475 N1471 0.985 1_455 S
H1476 N1470 0.987 1_655 S
H1477 N1470 0.981 . S
H1478 N1466 0.984 . S
H1479 N1466 0.985 . S
C1480 C1481 1.363 . S
C1480 C1486 1.379 1_556 S
C1480 N1488 1.356 . S
C1481 C1480 1.363 . S
C1481 C1487 1.363 . S
C1482 C1483 1.363 1_556 S
C1482 C1487 1.379 . S
C1482 N1489 1.356 . S
C1483 C1482 1.363 1_554 S
C1483 C1486 1.363 . S
N1484 C1486 1.356 . S
N1484 H1496 0.984 . S
N1484 H1497 0.985 . S
N1485 C1487 1.356 . S
N1485 H1490 0.984 . S
N1485 H1491 0.985 . S
C1486 C1480 1.379 1_554 S
C1486 C1483 1.363 . S
C1486 N1484 1.356 . S
C1487 C1481 1.363 . S
C1487 C1482 1.379 . S
C1487 N1485 1.356 . S
N1488 C1480 1.356 . S
N1488 H1494 0.984 1_556 S
N1488 H1495 0.984 . S
N1489 C1482 1.356 . S
N1489 H1492 0.984 . S
N1489 H1493 0.985 . S
H1490 N1485 0.984 . S
H1491 N1485 0.985 . S
H1492 N1489 0.984 . S
H1493 N1489 0.985 . S
H1494 N1488 0.984 1_554 S
H1495 N1488 0.984 . S
H1496 N1484 0.984 . S
H1497 N1484 0.985 . S
C1498 C1499 1.363 1_455 S
C1498 C1504 1.379 . S
C1498 N1506 1.356 1_455 S
C1499 C1498 1.363 1_655 S
C1499 C1505 1.363 . S
C1500 C1501 1.363 . S
C1500 C1505 1.379 1_455 S
C1500 N1507 1.356 . S
C1501 C1500 1.363 . S
C1501 C1504 1.363 . S
N1502 C1504 1.356 . S
N1502 H1514 0.984 . S
N1502 H1515 0.985 . S
N1503 C1505 1.356 . S
N1503 H1508 0.984 . S
N1503 H1509 0.985 . S
C1504 C1498 1.379 . S
C1504 C1501 1.363 . S
C1504 N1502 1.356 . S
C1505 C1499 1.363 . S
C1505 C1500 1.379 1_655 S
C1505 N1503 1.356 . S
N1506 C1498 1.356 1_655 S
N1506 H1512 0.984 . S
N1506 H1513 0.984 . S
N1507 C1500 1.356 . S
N1507 H1510 0.984 . S
N1507 H1511 0.985 . S
H1508 N1503 0.984 . S
H1509 N1503 0.985 . S
H1510 N1507 0.984 . S
H1511 N1507 0.985 . S
H1512 N1506 0.984 . S
H1513 N1506 0.984 . S
H1514 N1502 0.984 . S
H1515 N1502 0.985 . S
C1516 C1517 1.363 . S
C1516 C1522 1.379 . S
C1516 N1524 1.356 . S
C1517 C1516 1.363 . S
C1517 C1523 1.363 . S
C1518 C1519 1.363 . S
C1518 C1523 1.379 . S
C1518 N1525 1.356 . S
C1519 C1518 1.363 . S
C1519 C1522 1.363 . S
N1520 C1522 1.356 . S
N1520 H1532 0.984 . S
N1520 H1533 0.985 . S
N1521 C1523 1.356 . S
N1521 H1526 0.984 . S
N1521 H1527 0.985 . S
C1522 C1516 1.379 . S
C1522 C1519 1.363 . S
C1522 N1520 1.356 . S
C1523 C1517 1.363 . S
C1523 C1518 1.379 . S
C1523 N1521 1.356 . S
N1524 C1516 1.356 . S
N1524 H1530 0.984 . S
N1524 H1531 0.984 . S
N1525 C1518 1.356 . S
N1525 H1528 0.984 . S
N1525 H1529 0.985 . S
H1526 N1521 0.984 . S
H1527 N1521 0.985 . S
H1528 N1525 0.984 . S
H1529 N1525 0.985 . S
H1530 N1524 0.984 . S
H1531 N1524 0.984 . S
H1532 N1520 0.984 . S
H1533 N1520 0.985 . S
C1534 C1535 1.363 . S
C1534 C1540 1.379 . S
C1534 N1542 1.356 . S
C1535 C1534 1.363 . S
C1535 C1541 1.363 . S
C1536 C1537 1.363 . S
C1536 C1541 1.379 . S
C1536 N1543 1.356 . S
C1537 C1536 1.363 . S
C1537 C1540 1.363 . S
N1538 C1540 1.356 . S
N1538 H1550 0.984 . S
N1538 H1551 0.985 . S
N1539 C1541 1.356 . S
N1539 H1544 0.984 . S
N1539 H1545 0.985 . S
C1540 C1534 1.379 . S
C1540 C1537 1.363 . S
C1540 N1538 1.356 . S
C1541 C1535 1.363 . S
C1541 C1536 1.379 . S
C1541 N1539 1.356 . S
N1542 C1534 1.356 . S
N1542 H1548 0.984 . S
N1542 H1549 0.984 . S
N1543 C1536 1.356 . S
N1543 H1546 0.984 . S
N1543 H1547 0.985 . S
H1544 N1539 0.984 . S
H1545 N1539 0.985 . S
H1546 N1543 0.984 . S
H1547 N1543 0.985 . S
H1548 N1542 0.984 . S
H1549 N1542 0.984 . S
H1550 N1538 0.984 . S
H1551 N1538 0.985 . S
C545 C266 0.855 1_455 S
C547 C28 0.825 . S
C563 C142 0.524 1_655 S
C565 C40 0.561 . S
C581 C176 0.825 . S
C583 C96 0.855 . S
C599 C210 0.561 . S
C601 C108 0.549 . S
C617 C278 0.825 . S
C619 C538 0.855 1_655 S
C635 C312 0.561 . S
C637 C436 0.524 1_455 S
C653 C470 0.825 . S
C655 C368 0.855 . S
C671 C482 0.561 . S
C673 C402 0.549 . S
C689 C232 1.773 . S
C691 C6 1.681 . S
C707 C37 1.214 . S
C709 C244 1.343 . S
C725 C164 1.934 . S
C727 C69 1.794 . S
C743 C173 1.603 . S
C745 C105 1.552 . S
C761 C300 1.681 . S
C763 C504 1.773 . S
C779 C516 1.343 . S
C781 C309 1.214 . S
C797 C341 1.794 . S
C799 C414 1.934 . S
C815 C375 1.552 . S
C817 C443 1.603 . S
C833 C62 1.773 . S
C835 C198 1.681 . S
C851 C207 1.214 . S
C853 C74 1.343 . S
C869 C130 1.934 . S
C871 C239 1.794 . S
C887 C139 1.552 . S
C889 C1 1.603 . S
C905 C448 1.681 . S
C907 C334 1.773 . S
C923 C346 1.343 . S
C925 C479 1.214 . S
C941 C511 1.794 . S
C943 C380 1.934 . S
C959 C275 1.603 . S
C961 C409 1.552 . S
C977 C328 1.713 . S
C979 C17 1.720 . S
C995 C525 1.688 1_554 S
C997 C35 1.594 . S
C1013 C71 1.749 . S
C1015 C389 1.838 . S
C1031 C464 1.189 . S
C1033 C103 1.541 . S
C1049 C532 1.567 . S
C1051 C153 2.161 . S
C1067 C396 1.771 . S
C1069 C171 2.146 . S
C1085 C221 2.164 . S
C1087 C457 2.181 . S
C1103 C255 1.941 1_455 S
C1105 C321 1.402 . S
C1121 C56 1.713 . S
C1123 C289 1.720 . S
C1139 C307 1.594 . S
C1141 C253 1.688 1_556 S
C1157 C124 1.838 . S
C1159 C343 1.749 . S
C1175 C377 1.541 . S
C1177 C185 1.189 . S
C1193 C260 1.567 . S
C1195 C425 2.161 . S
C1211 C117 1.771 . S
C1213 C445 2.146 . S
C1229 C493 2.164 . S
C1231 C192 2.181 . S
C1247 C49 1.402 . S
C1249 C527 1.941 1_655 S
C1265 C498 1.713 . S
C1267 C187 1.720 . S
C1283 C355 1.688 . S
C1285 C205 1.594 . S
C1301 C241 1.749 1_556 S
C1303 C423 1.838 . S
C1319 C137 1.541 . S
C1321 C287 1.189 . S
C1337 C362 1.567 . S
C1339 C119 2.161 . S
C1355 C430 1.771 . S
C1357 C3 2.146 . S
C1373 C294 2.181 . S
C1375 C51 2.164 . S
C1391 C491 1.402 . S
C1393 C85 1.941 . S
C1409 C226 1.713 . S
C1411 C459 1.720 . S
C1427 C83 1.688 . S
C1429 C477 1.594 . S
C1445 C158 1.838 . S
C1447 C513 1.749 1_554 S
C1463 C22 1.189 . S
C1465 C411 1.541 . S
C1481 C90 1.567 . S
C1483 C391 2.161 . S
C1499 C273 2.146 . S
C1501 C151 1.771 . S
C1517 C15 2.181 . S
C1519 C323 2.164 . S
C1535 C219 1.402 . S
C1537 C357 1.941 . S
