# Generated by pormake.
# Topology uot, (4)-cn, num edge types: 1
# Building blocks:
#     Node 0, Type 0, BuildingBlock: ICAMEG_clean_sbu_1, # of connection points: 4
#     Node 1, Type 0, BuildingBlock: ICAMEG_clean_sbu_1, # of connection points: 4
#     Node 2, Type 0, BuildingBlock: ICAMEG_clean_sbu_1, # of connection points: 4
#     Node 3, Type 0, BuildingBlock: ICAMEG_clean_sbu_1, # of connection points: 4
#     Node 4, Type 0, BuildingBlock: ICAMEG_clean_sbu_1, # of connection points: 4
#     Node 5, Type 0, BuildingBlock: ICAMEG_clean_sbu_1, # of connection points: 4
#     Node 6, Type 0, BuildingBlock: ICAMEG_clean_sbu_1, # of connection points: 4
#     Node 7, Type 0, BuildingBlock: ICAMEG_clean_sbu_1, # of connection points: 4
#     Node 8, Type 0, BuildingBlock: ICAMEG_clean_sbu_1, # of connection points: 4
#     Node 9, Type 0, BuildingBlock: ICAMEG_clean_sbu_1, # of connection points: 4
#     Node 10, Type 0, BuildingBlock: ICAMEG_clean_sbu_1, # of connection points: 4
#     Node 11, Type 0, BuildingBlock: ICAMEG_clean_sbu_1, # of connection points: 4
#     Node 12, Type 0, BuildingBlock: ICAMEG_clean_sbu_1, # of connection points: 4
#     Node 13, Type 0, BuildingBlock: ICAMEG_clean_sbu_1, # of connection points: 4
#     Node 14, Type 0, BuildingBlock: ICAMEG_clean_sbu_1, # of connection points: 4
#     Node 15, Type 0, BuildingBlock: ICAMEG_clean_sbu_1, # of connection points: 4
#     Edge 16, Type (0, 0), BuildingBlock: CIFDUS_clean_linker_0, # of connection points: 2
#     Edge 17, Type (0, 0), BuildingBlock: CIFDUS_clean_linker_0, # of connection points: 2
#     Edge 18, Type (0, 0), BuildingBlock: CIFDUS_clean_linker_0, # of connection points: 2
#     Edge 19, Type (0, 0), BuildingBlock: CIFDUS_clean_linker_0, # of connection points: 2
#     Edge 20, Type (0, 0), BuildingBlock: CIFDUS_clean_linker_0, # of connection points: 2
#     Edge 21, Type (0, 0), BuildingBlock: CIFDUS_clean_linker_0, # of connection points: 2
#     Edge 22, Type (0, 0), BuildingBlock: CIFDUS_clean_linker_0, # of connection points: 2
#     Edge 23, Type (0, 0), BuildingBlock: CIFDUS_clean_linker_0, # of connection points: 2
#     Edge 24, Type (0, 0), BuildingBlock: CIFDUS_clean_linker_0, # of connection points: 2
#     Edge 25, Type (0, 0), BuildingBlock: CIFDUS_clean_linker_0, # of connection points: 2
#     Edge 26, Type (0, 0), BuildingBlock: CIFDUS_clean_linker_0, # of connection points: 2
#     Edge 27, Type (0, 0), BuildingBlock: CIFDUS_clean_linker_0, # of connection points: 2
#     Edge 28, Type (0, 0), BuildingBlock: CIFDUS_clean_linker_0, # of connection points: 2
#     Edge 29, Type (0, 0), BuildingBlock: CIFDUS_clean_linker_0, # of connection points: 2
#     Edge 30, Type (0, 0), BuildingBlock: CIFDUS_clean_linker_0, # of connection points: 2
#     Edge 31, Type (0, 0), BuildingBlock: CIFDUS_clean_linker_0, # of connection points: 2
#     Edge 32, Type (0, 0), BuildingBlock: CIFDUS_clean_linker_0, # of connection points: 2
#     Edge 33, Type (0, 0), BuildingBlock: CIFDUS_clean_linker_0, # of connection points: 2
#     Edge 34, Type (0, 0), BuildingBlock: CIFDUS_clean_linker_0, # of connection points: 2
#     Edge 35, Type (0, 0), BuildingBlock: CIFDUS_clean_linker_0, # of connection points: 2
#     Edge 36, Type (0, 0), BuildingBlock: CIFDUS_clean_linker_0, # of connection points: 2
#     Edge 37, Type (0, 0), BuildingBlock: CIFDUS_clean_linker_0, # of connection points: 2
#     Edge 38, Type (0, 0), BuildingBlock: CIFDUS_clean_linker_0, # of connection points: 2
#     Edge 39, Type (0, 0), BuildingBlock: CIFDUS_clean_linker_0, # of connection points: 2
#     Edge 40, Type (0, 0), BuildingBlock: CIFDUS_clean_linker_0, # of connection points: 2
#     Edge 41, Type (0, 0), BuildingBlock: CIFDUS_clean_linker_0, # of connection points: 2
#     Edge 42, Type (0, 0), BuildingBlock: CIFDUS_clean_linker_0, # of connection points: 2
#     Edge 43, Type (0, 0), BuildingBlock: CIFDUS_clean_linker_0, # of connection points: 2
#     Edge 44, Type (0, 0), BuildingBlock: CIFDUS_clean_linker_0, # of connection points: 2
#     Edge 45, Type (0, 0), BuildingBlock: CIFDUS_clean_linker_0, # of connection points: 2
#     Edge 46, Type (0, 0), BuildingBlock: CIFDUS_clean_linker_0, # of connection points: 2
#     Edge 47, Type (0, 0), BuildingBlock: CIFDUS_clean_linker_0, # of connection points: 2
# Relax obj value: 0.031
# Max RMSD: 0.053
# Mean RMSD: 0.053
data_MOF--net-uot--node1-ICAMEG_clean_sbu_1--edge1-CIFDUS_clean_linker_0
_symmetry_space_group_name_H-M    P1
_symmetry_Int_Tables_number       1
_symmetry_cell_setting            triclinic
loop_
_symmetry_equiv_pos_as_xyz
'x, y, z'
_cell_length_a     41.411712
_cell_length_b     41.446323
_cell_length_c     40.996023
_cell_angle_alpha  89.914982
_cell_angle_beta   89.99539
_cell_angle_gamma 90.068126
loop_
_atom_site_label
_atom_site_type_symbol
_atom_site_fract_x
_atom_site_fract_y
_atom_site_fract_z
_atom_type_partial_charge
Co0 Co 0.16441 0.43956 0.3533 0.0
Co1 Co 0.22077 0.42725 0.29388 0.0
O2 O 0.20706 0.42513 0.33935 0.0
C3 C 0.18266 0.48084 0.40976 0.0
O4 O 0.1705 0.50576 0.39423 0.0
C5 C 0.23957 0.35981 0.31269 0.0
O6 O 0.21018 0.35394 0.32319 0.0
O7 O 0.18215 0.4018 0.28017 0.0
O8 O 0.14429 0.42495 0.31148 0.0
H9 H 0.20483 0.44399 0.17353 0.0
H10 H 0.2027 0.39529 0.39501 0.0
O11 O 0.18386 0.45337 0.39591 0.0
H12 H 0.10069 0.33775 0.37325 0.0
H13 H 0.07403 0.45429 0.43434 0.0
H14 H 0.1109 0.47558 0.32198 0.0
H15 H 0.1099 0.39227 0.35104 0.0
H16 H 0.12732 0.43518 0.41579 0.0
O17 O 0.2466 0.38701 0.30008 0.0
H18 H 0.1882 0.44229 0.23125 0.0
H19 H 0.283 0.41479 0.25935 0.0
H20 H 0.05737 0.49496 0.33946 0.0
H21 H 0.19433 0.34094 0.41805 0.0
H22 H 0.0386 0.48436 0.39602 0.0
H23 H 0.14305 0.31174 0.40713 0.0
O24 O 0.17227 0.48297 0.33332 0.0
H25 H 0.31654 0.45268 0.36465 0.0
H26 H 0.25197 0.4879 0.27008 0.0
H27 H 0.29873 0.52047 0.28746 0.0
H28 H 0.33147 0.50283 0.335 0.0
H29 H 0.26935 0.42101 0.34664 0.0
H30 H 0.30059 0.41596 0.20188 0.0
H31 H 0.2614 0.43076 0.15852 0.0
O32 O 0.19615 0.46801 0.2867 0.0
C33 C 0.15267 0.40771 0.28712 0.0
C34 C 0.22216 0.43758 0.1922 0.0
C35 C 0.27588 0.4218 0.20812 0.0
N36 N 0.23464 0.42863 0.24868 0.0
C37 C 0.2129 0.43664 0.22495 0.0
C38 C 0.26576 0.4211 0.24061 0.0
C39 C 0.25389 0.43013 0.1838 0.0
C40 C 0.1802 0.38287 0.39037 0.0
N41 N 0.15677 0.39704 0.37176 0.0
C42 C 0.17565 0.35204 0.40339 0.0
C43 C 0.1469 0.33566 0.39722 0.0
C44 C 0.12313 0.35022 0.37818 0.0
C45 C 0.12854 0.38107 0.36556 0.0
C46 C 0.08192 0.45906 0.40964 0.0
C47 C 0.10291 0.47081 0.34662 0.0
C48 C 0.11211 0.44836 0.39901 0.0
N49 N 0.12224 0.45425 0.36782 0.0
C50 C 0.07257 0.48187 0.35638 0.0
C51 C 0.06206 0.47592 0.38812 0.0
C52 C 0.18163 0.48887 0.30423 0.0
C53 C 0.30249 0.46059 0.34387 0.0
C54 C 0.26594 0.48017 0.29091 0.0
C55 C 0.29247 0.49866 0.30058 0.0
C56 C 0.31084 0.48874 0.32724 0.0
N57 N 0.25796 0.45252 0.30727 0.0
C58 C 0.27579 0.44271 0.33351 0.0
Co59 Co 0.44678 0.86832 0.64974 0.0
Co60 Co 0.42732 0.80565 0.70051 0.0
O61 O 0.42954 0.82497 0.65716 0.0
C62 C 0.48181 0.82855 0.60089 0.0
O63 O 0.48894 0.80825 0.62443 0.0
C64 C 0.3602 0.78271 0.70489 0.0
O65 O 0.35899 0.79898 0.73234 0.0
O66 O 0.40218 0.84343 0.71646 0.0
O67 O 0.42851 0.88428 0.6921 0.0
H68 H 0.43257 0.80649 0.823 0.0
H69 H 0.40665 0.8371 0.59886 0.0
O70 O 0.46533 0.85377 0.60703 0.0
H71 H 0.34898 0.93713 0.62763 0.0
H72 H 0.47062 0.96647 0.58138 0.0
H73 H 0.47976 0.91742 0.69066 0.0
H74 H 0.40045 0.9233 0.65442 0.0
H75 H 0.45094 0.91116 0.59142 0.0
O76 O 0.38587 0.78334 0.68758 0.0
H77 H 0.43545 0.83022 0.76787 0.0
H78 H 0.41348 0.73926 0.72573 0.0
H79 H 0.49948 0.97292 0.68174 0.0
H80 H 0.3554 0.85019 0.57121 0.0
H81 H 0.49428 0.99797 0.62694 0.0
H82 H 0.32619 0.9005 0.58559 0.0
O83 O 0.48776 0.85698 0.67254 0.0
H84 H 0.45407 0.71785 0.62063 0.0
H85 H 0.48631 0.77075 0.72328 0.0
H86 H 0.51897 0.72581 0.70189 0.0
H87 H 0.50286 0.69897 0.65025 0.0
H88 H 0.42229 0.76314 0.64269 0.0
H89 H 0.41025 0.71456 0.78041 0.0
H90 H 0.41987 0.74825 0.82953 0.0
O91 O 0.46823 0.82774 0.71425 0.0
C92 C 0.40904 0.87327 0.71351 0.0
C93 C 0.42843 0.79154 0.80178 0.0
C94 C 0.41591 0.73994 0.77789 0.0
N95 N 0.42493 0.78612 0.7436 0.0
C96 C 0.43011 0.80483 0.7705 0.0
C97 C 0.41784 0.75404 0.74699 0.0
C98 C 0.42129 0.75886 0.80543 0.0
C99 C 0.39419 0.85915 0.60508 0.0
N100 N 0.40664 0.87949 0.62808 0.0
C101 C 0.36513 0.86638 0.58942 0.0
C102 C 0.34873 0.8946 0.59753 0.0
C103 C 0.3615 0.91516 0.62112 0.0
C104 C 0.39062 0.90714 0.63627 0.0
C105 C 0.47277 0.95586 0.60542 0.0
C106 C 0.47768 0.92808 0.66668 0.0
C107 C 0.4618 0.9245 0.61123 0.0
N108 N 0.46393 0.91117 0.64167 0.0
C109 C 0.48893 0.9595 0.66177 0.0
C110 C 0.48618 0.9735 0.63097 0.0
C111 C 0.49059 0.84434 0.70079 0.0
C112 C 0.46126 0.72926 0.64322 0.0
C113 C 0.47919 0.75929 0.70072 0.0
C114 C 0.49774 0.73379 0.68878 0.0
C115 C 0.48867 0.71872 0.65982 0.0
N116 N 0.45228 0.76943 0.68435 0.0
C117 C 0.44327 0.75481 0.65592 0.0
Co118 Co 0.85092 0.56103 0.36684 0.0
Co119 Co 0.79317 0.57975 0.30971 0.0
O120 O 0.80727 0.57446 0.35494 0.0
C121 C 0.83832 0.50656 0.41174 0.0
O122 O 0.85563 0.489 0.39164 0.0
C123 C 0.77179 0.64524 0.3333 0.0
O124 O 0.80192 0.65382 0.33828 0.0
O125 O 0.83015 0.60917 0.30041 0.0
O126 O 0.86998 0.58621 0.32979 0.0
H127 H 0.80764 0.58604 0.1881 0.0
H128 H 0.80852 0.59112 0.41646 0.0
O129 O 0.83247 0.53601 0.40477 0.0
H130 H 0.90405 0.66194 0.40942 0.0
H131 H 0.9419 0.5382 0.4453 0.0
H132 H 0.90767 0.53715 0.33009 0.0
H133 H 0.90031 0.61288 0.3757 0.0
H134 H 0.88711 0.55579 0.42981 0.0
O135 O 0.76504 0.61694 0.32316 0.0
H136 H 0.82531 0.57846 0.24501 0.0
H137 H 0.72966 0.59421 0.27861 0.0
H138 H 0.96271 0.51943 0.34451 0.0
H139 H 0.81145 0.63976 0.45093 0.0
H140 H 0.98013 0.51987 0.40248 0.0
H141 H 0.85945 0.67559 0.44748 0.0
O142 O 0.84728 0.52233 0.33786 0.0
H143 H 0.69955 0.53681 0.37465 0.0
H144 H 0.7661 0.52194 0.27607 0.0
H145 H 0.72162 0.48395 0.28748 0.0
H146 H 0.6879 0.49135 0.33702 0.0
H147 H 0.74448 0.57407 0.36246 0.0
H148 H 0.71095 0.60226 0.22209 0.0
H149 H 0.75005 0.59805 0.17634 0.0
O150 O 0.82031 0.54261 0.29502 0.0
C151 C 0.85984 0.60576 0.30803 0.0
C152 C 0.79035 0.58784 0.20781 0.0
C153 C 0.7361 0.59698 0.22689 0.0
N154 N 0.77856 0.58563 0.26511 0.0
C155 C 0.80022 0.58347 0.24009 0.0
C156 C 0.74686 0.59247 0.25886 0.0
C157 C 0.75804 0.59461 0.20123 0.0
C158 C 0.82961 0.60644 0.41503 0.0
N159 N 0.8543 0.59902 0.39426 0.0
C160 C 0.83108 0.63401 0.43452 0.0
C161 C 0.85801 0.65413 0.43254 0.0
C162 C 0.88303 0.64649 0.41119 0.0
C163 C 0.88073 0.61871 0.39209 0.0
C164 C 0.93461 0.53792 0.41995 0.0
C165 C 0.9151 0.53747 0.35537 0.0
C166 C 0.90362 0.54785 0.41103 0.0
N167 N 0.89421 0.54754 0.37906 0.0
C168 C 0.94628 0.52739 0.36338 0.0
C169 C 0.95604 0.52764 0.39592 0.0
C170 C 0.83762 0.52083 0.30836 0.0
C171 C 0.71401 0.53339 0.35295 0.0
C172 C 0.75164 0.52523 0.29776 0.0
C173 C 0.72643 0.50369 0.30405 0.0
C174 C 0.70751 0.50786 0.33184 0.0
N175 N 0.75777 0.5503 0.3185 0.0
C176 C 0.73942 0.55446 0.34587 0.0
Co177 Co 0.56586 0.15048 0.64323 0.0
Co178 Co 0.56608 0.21244 0.69978 0.0
O179 O 0.57332 0.19528 0.65594 0.0
C180 C 0.52641 0.18742 0.5951 0.0
O181 O 0.51563 0.20556 0.61896 0.0
C182 C 0.63508 0.22679 0.68693 0.0
O183 O 0.63802 0.19681 0.67707 0.0
O184 O 0.58914 0.17551 0.72082 0.0
O185 O 0.58553 0.13487 0.68468 0.0
H186 H 0.53254 0.20743 0.81749 0.0
H187 H 0.60079 0.19538 0.59927 0.0
O188 O 0.54643 0.16485 0.60094 0.0
H189 H 0.6767 0.10612 0.62011 0.0
H190 H 0.56552 0.05727 0.56461 0.0
H191 H 0.54256 0.09173 0.67735 0.0
H192 H 0.62199 0.10538 0.64389 0.0
H193 H 0.5734 0.11391 0.58107 0.0
O194 O 0.60782 0.23708 0.69695 0.0
H195 H 0.54187 0.18566 0.76234 0.0
H196 H 0.57535 0.27718 0.72999 0.0
H197 H 0.53478 0.03468 0.66204 0.0
H198 H 0.65513 0.19696 0.57464 0.0
H199 H 0.54667 0.01711 0.60534 0.0
H200 H 0.69356 0.15217 0.58516 0.0
O201 O 0.52212 0.15042 0.66405 0.0
H202 H 0.5516 0.30218 0.61855 0.0
H203 H 0.50267 0.24442 0.71151 0.0
H204 H 0.47294 0.28912 0.68552 0.0
H205 H 0.49744 0.31837 0.63872 0.0
H206 H 0.58038 0.25716 0.64509 0.0
H207 H 0.56669 0.29987 0.78489 0.0
H208 H 0.54501 0.26493 0.82906 0.0
O209 O 0.5246 0.1882 0.70331 0.0
C210 C 0.59378 0.14631 0.71229 0.0
C211 C 0.54194 0.22292 0.79844 0.0
C212 C 0.56115 0.27479 0.78015 0.0
N213 N 0.55899 0.23017 0.74294 0.0
C214 C 0.54721 0.21074 0.76714 0.0
C215 C 0.56609 0.26178 0.74914 0.0
C216 C 0.54896 0.25517 0.80492 0.0
C217 C 0.61731 0.1757 0.60377 0.0
N218 N 0.6083 0.15039 0.62314 0.0
C219 C 0.64807 0.17677 0.58983 0.0
C220 C 0.66964 0.15165 0.59578 0.0
C221 C 0.66021 0.12583 0.61541 0.0
C222 C 0.62927 0.12561 0.62896 0.0
C223 C 0.5604 0.06461 0.5894 0.0
C224 C 0.5477 0.08424 0.65264 0.0
C225 C 0.56466 0.09669 0.59883 0.0
N226 N 0.55865 0.10607 0.63021 0.0
C227 C 0.5432 0.05193 0.6441 0.0
C228 C 0.54977 0.0421 0.61228 0.0
C229 C 0.50992 0.1656 0.68823 0.0
C230 C 0.54071 0.28968 0.63898 0.0
C231 C 0.51345 0.25697 0.6911 0.0
C232 C 0.49653 0.28231 0.67653 0.0
C233 C 0.51031 0.29872 0.65028 0.0
N234 N 0.5433 0.24829 0.67991 0.0
C235 C 0.55695 0.26426 0.65418 0.0
Co236 Co 0.15549 0.5702 0.64799 0.0
Co237 Co 0.20108 0.57972 0.71788 0.0
O238 O 0.19575 0.5815 0.67036 0.0
C239 C 0.17787 0.52343 0.59806 0.0
O240 O 0.15906 0.5017 0.61164 0.0
C241 C 0.22592 0.64487 0.699 0.0
O242 O 0.20377 0.64671 0.67624 0.0
O243 O 0.16145 0.60605 0.7247 0.0
O244 O 0.12907 0.59022 0.6836 0.0
H245 H 0.16421 0.56247 0.83347 0.0
H246 H 0.20653 0.60625 0.61242 0.0
O247 O 0.18139 0.55096 0.61145 0.0
H248 H 0.10987 0.67539 0.60694 0.0
H249 H 0.08221 0.55864 0.55032 0.0
H250 H 0.09307 0.54208 0.66895 0.0
H251 H 0.10785 0.62263 0.63469 0.0
H252 H 0.13238 0.57393 0.57875 0.0
O253 O 0.22801 0.62002 0.71719 0.0
H254 H 0.15806 0.56407 0.77371 0.0
H255 H 0.25629 0.59176 0.76308 0.0
H256 H 0.04239 0.52662 0.6415 0.0
H257 H 0.20949 0.65845 0.58366 0.0
H258 H 0.03674 0.53481 0.58175 0.0
H259 H 0.16097 0.69354 0.58098 0.0
O260 O 0.1537 0.5277 0.67129 0.0
H261 H 0.30772 0.55248 0.66646 0.0
H262 H 0.2253 0.51794 0.74606 0.0
H263 H 0.27364 0.48429 0.73753 0.0
H264 H 0.31533 0.50158 0.69756 0.0
H265 H 0.25885 0.58526 0.67556 0.0
H266 H 0.26346 0.59063 0.82277 0.0
H267 H 0.21722 0.57585 0.85841 0.0
O268 O 0.17424 0.5399 0.72046 0.0
C269 C 0.13398 0.60479 0.71062 0.0
C270 C 0.18455 0.56894 0.81821 0.0
C271 C 0.24023 0.58478 0.8122 0.0
N272 N 0.20674 0.57806 0.76487 0.0
C273 C 0.18122 0.56986 0.78432 0.0
C274 C 0.23599 0.58549 0.77841 0.0
C275 C 0.21429 0.57647 0.83218 0.0
C276 C 0.18522 0.62124 0.61114 0.0
N277 N 0.1571 0.61154 0.62561 0.0
C278 C 0.18709 0.65085 0.59492 0.0
C279 C 0.15989 0.67055 0.59348 0.0
C280 C 0.13124 0.66042 0.60812 0.0
C281 C 0.1303 0.63068 0.62413 0.0
C282 C 0.08437 0.55494 0.57637 0.0
C283 C 0.09079 0.54581 0.64295 0.0
C284 C 0.11276 0.5635 0.5926 0.0
N285 N 0.11572 0.55885 0.62551 0.0
C286 C 0.06203 0.53698 0.62754 0.0
C287 C 0.05888 0.54158 0.59401 0.0
C288 C 0.15916 0.52114 0.70119 0.0
C289 C 0.28978 0.54475 0.68401 0.0
C290 C 0.24327 0.52556 0.72853 0.0
C291 C 0.27063 0.50644 0.72386 0.0
C292 C 0.29401 0.51617 0.70145 0.0
N293 N 0.23939 0.55364 0.71146 0.0
C294 C 0.26212 0.56326 0.68933 0.0
Co295 Co 0.5518 0.86379 0.35005 0.0
Co296 Co 0.57741 0.79988 0.30499 0.0
O297 O 0.57368 0.82185 0.34728 0.0
C298 C 0.53322 0.82848 0.41254 0.0
O299 O 0.54484 0.80097 0.40204 0.0
C300 C 0.64575 0.79111 0.3287 0.0
O301 O 0.64957 0.82249 0.33104 0.0
O302 O 0.60122 0.83789 0.28721 0.0
O303 O 0.56793 0.87649 0.30548 0.0
H304 H 0.57323 0.79324 0.18268 0.0
H305 H 0.59805 0.84347 0.40149 0.0
O306 O 0.53464 0.85376 0.39486 0.0
H307 H 0.63922 0.94763 0.3607 0.0
H308 H 0.50815 0.96223 0.40683 0.0
H309 H 0.51248 0.90176 0.30348 0.0
H310 H 0.58925 0.92418 0.33819 0.0
H311 H 0.54207 0.91357 0.40198 0.0
O312 O 0.61885 0.77935 0.31946 0.0
H313 H 0.56729 0.81965 0.23619 0.0
H314 H 0.59808 0.73406 0.28404 0.0
H315 H 0.47854 0.95035 0.30722 0.0
H316 H 0.64793 0.86618 0.42491 0.0
H317 H 0.47536 0.98031 0.35944 0.0
H318 H 0.66888 0.91863 0.40447 0.0
O319 O 0.51243 0.84439 0.33078 0.0
H320 H 0.5538 0.7137 0.38803 0.0
H321 H 0.5213 0.76036 0.28233 0.0
H322 H 0.4911 0.71406 0.30465 0.0
H323 H 0.50735 0.69034 0.35784 0.0
H324 H 0.5831 0.7603 0.36501 0.0
H325 H 0.60462 0.70684 0.23103 0.0
H326 H 0.59202 0.73642 0.17986 0.0
O327 O 0.53544 0.81873 0.28902 0.0
C328 C 0.59054 0.86673 0.28679 0.0
C329 C 0.57871 0.78006 0.20481 0.0
C330 C 0.59636 0.73159 0.23194 0.0
N331 N 0.58211 0.77838 0.26324 0.0
C332 C 0.57532 0.79487 0.23519 0.0
C333 C 0.59268 0.74717 0.26189 0.0
C334 C 0.58928 0.74819 0.20324 0.0
C335 C 0.60675 0.86646 0.39275 0.0
N336 N 0.59047 0.88265 0.36883 0.0
C337 C 0.63512 0.87914 0.40599 0.0
C338 C 0.64689 0.90854 0.39447 0.0
C339 C 0.63026 0.92483 0.36992 0.0
C340 C 0.60196 0.91142 0.35728 0.0
C341 C 0.5091 0.94915 0.38402 0.0
C342 C 0.51193 0.91511 0.32609 0.0
C343 C 0.52829 0.92161 0.38111 0.0
N344 N 0.52918 0.90471 0.35251 0.0
C345 C 0.49252 0.94254 0.32809 0.0
C346 C 0.49083 0.95939 0.35739 0.0
C347 C 0.5108 0.83124 0.30282 0.0
C348 C 0.54646 0.72384 0.36485 0.0
C349 C 0.52833 0.75044 0.30566 0.0
C350 C 0.51123 0.72409 0.31809 0.0
C351 C 0.52039 0.71076 0.34791 0.0
N352 N 0.55383 0.7632 0.32247 0.0
C353 C 0.563 0.75019 0.35166 0.0
Co354 Co 0.85314 0.42862 0.65088 0.0
Co355 Co 0.79306 0.43389 0.70921 0.0
O356 O 0.80818 0.42466 0.66495 0.0
C357 C 0.82092 0.47155 0.60206 0.0
O358 O 0.80809 0.48823 0.62598 0.0
C359 C 0.7678 0.36738 0.69714 0.0
O360 O 0.79635 0.35886 0.68621 0.0
O361 O 0.82774 0.40644 0.729 0.0
O362 O 0.86848 0.40927 0.6927 0.0
H363 H 0.80547 0.46644 0.8266 0.0
H364 H 0.80466 0.39531 0.60971 0.0
O365 O 0.83883 0.44734 0.60818 0.0
H366 H 0.89009 0.31485 0.62957 0.0
H367 H 0.94403 0.4233 0.56935 0.0
H368 H 0.91408 0.44886 0.68282 0.0
H369 H 0.89483 0.36997 0.65168 0.0
H370 H 0.88768 0.4174 0.58791 0.0
O371 O 0.76303 0.39601 0.70728 0.0
H372 H 0.82431 0.45467 0.77083 0.0
H373 H 0.72842 0.4328 0.74144 0.0
H374 H 0.97077 0.45481 0.66535 0.0
H375 H 0.79905 0.3406 0.58676 0.0
H376 H 0.98605 0.44202 0.60823 0.0
H377 H 0.84191 0.29989 0.59678 0.0
O378 O 0.85687 0.47286 0.67023 0.0
H379 H 0.70446 0.45981 0.62968 0.0
H380 H 0.76849 0.50032 0.72239 0.0
H381 H 0.72716 0.53533 0.69751 0.0
H382 H 0.69474 0.51508 0.65084 0.0
H383 H 0.74626 0.42571 0.65513 0.0
H384 H 0.70857 0.44403 0.79698 0.0
H385 H 0.7472 0.46111 0.83999 0.0
O386 O 0.822 0.47204 0.71214 0.0
C387 C 0.85681 0.4008 0.72023 0.0
C388 C 0.7884 0.45901 0.80808 0.0
C389 C 0.73402 0.44639 0.79146 0.0
N390 N 0.77752 0.44301 0.7529 0.0
C391 C 0.79893 0.45233 0.77644 0.0
C392 C 0.74543 0.43992 0.76009 0.0
C393 C 0.7557 0.456 0.81558 0.0
C394 C 0.82347 0.37776 0.61406 0.0
N395 N 0.84993 0.38572 0.63227 0.0
C396 C 0.82014 0.3468 0.60105 0.0
C397 C 0.84417 0.32397 0.60671 0.0
C398 C 0.87118 0.33233 0.62514 0.0
C399 C 0.87366 0.3635 0.63779 0.0
C400 C 0.93768 0.4289 0.59431 0.0
C401 C 0.92058 0.44303 0.65799 0.0
C402 C 0.90579 0.4257 0.60495 0.0
N403 N 0.89763 0.43259 0.63649 0.0
C404 C 0.9527 0.44654 0.64821 0.0
C405 C 0.96125 0.43939 0.61614 0.0
C406 C 0.84435 0.48551 0.69566 0.0
C407 C 0.71838 0.46888 0.65004 0.0
C408 C 0.75461 0.49139 0.70201 0.0
C409 C 0.73116 0.51129 0.68807 0.0
C410 C 0.71297 0.4999 0.6619 0.0
N411 N 0.75974 0.46096 0.69029 0.0
C412 C 0.74202 0.44965 0.66462 0.0
Co413 Co 0.45275 0.13756 0.34948 0.0
Co414 Co 0.4298 0.19821 0.29842 0.0
O415 O 0.43347 0.18023 0.3425 0.0
C416 C 0.47335 0.17822 0.40786 0.0
O417 O 0.4595 0.20429 0.39636 0.0
C418 C 0.36303 0.21191 0.32325 0.0
O419 O 0.35886 0.18125 0.33026 0.0
O420 O 0.40366 0.16025 0.28527 0.0
O421 O 0.43402 0.12097 0.30719 0.0
H422 H 0.43071 0.19295 0.17597 0.0
H423 H 0.40869 0.16674 0.39894 0.0
O424 O 0.47236 0.15172 0.39208 0.0
H425 H 0.36163 0.06056 0.37315 0.0
H426 H 0.493 0.04471 0.41736 0.0
H427 H 0.48811 0.09183 0.30697 0.0
H428 H 0.41188 0.07852 0.3465 0.0
H429 H 0.46127 0.09398 0.40696 0.0
O430 O 0.38975 0.22182 0.31153 0.0
H431 H 0.43674 0.17143 0.23175 0.0
H432 H 0.41222 0.26279 0.27142 0.0
H433 H 0.51995 0.04246 0.31628 0.0
H434 H 0.35868 0.14962 0.42637 0.0
H435 H 0.52363 0.01942 0.37207 0.0
H436 H 0.33473 0.09617 0.41353 0.0
O437 O 0.49257 0.15189 0.32677 0.0
H438 H 0.45981 0.29051 0.3718 0.0
H439 H 0.48743 0.23217 0.27086 0.0
H440 H 0.52063 0.27858 0.28788 0.0
H441 H 0.50686 0.30816 0.33865 0.0
H442 H 0.42745 0.24373 0.35406 0.0
H443 H 0.40564 0.28521 0.21608 0.0
H444 H 0.41505 0.25024 0.16787 0.0
O445 O 0.47014 0.17571 0.28352 0.0
C446 C 0.41185 0.13074 0.28786 0.0
C447 C 0.42664 0.20846 0.19678 0.0
C448 C 0.41253 0.26023 0.2193 0.0
N449 N 0.4251 0.21588 0.25483 0.0
C450 C 0.4301 0.19643 0.22843 0.0
C451 C 0.41623 0.24737 0.25058 0.0
C452 C 0.41783 0.24059 0.19225 0.0
C453 C 0.39884 0.14328 0.39354 0.0
N454 N 0.41368 0.12345 0.37159 0.0
C455 C 0.37031 0.13378 0.40902 0.0
C456 C 0.35685 0.10381 0.40176 0.0
C457 C 0.37193 0.08383 0.37912 0.0
C458 C 0.40042 0.09414 0.36413 0.0
C459 C 0.49189 0.0548 0.39302 0.0
C460 C 0.48874 0.08136 0.33111 0.0
C461 C 0.47391 0.08265 0.38696 0.0
N462 N 0.47291 0.09586 0.35639 0.0
C463 C 0.50699 0.05351 0.33627 0.0
C464 C 0.50892 0.0405 0.36756 0.0
C465 C 0.49419 0.16256 0.29772 0.0
C466 C 0.46609 0.2778 0.34965 0.0
C467 C 0.48146 0.24467 0.29318 0.0
C468 C 0.50026 0.27106 0.30259 0.0
C469 C 0.49249 0.28767 0.33105 0.0
N470 N 0.45565 0.23506 0.31161 0.0
C471 C 0.44783 0.25131 0.33946 0.0
Co472 Co 0.65915 0.94687 0.85187 0.0
Co473 Co 0.71746 0.93487 0.79326 0.0
O474 O 0.70284 0.93491 0.83858 0.0
C475 C 0.67355 0.99701 0.90157 0.0
O476 O 0.65821 0.01782 0.88304 0.0
C477 C 0.73707 0.86877 0.8153 0.0
O478 O 0.70759 0.86312 0.82565 0.0
O479 O 0.67997 0.90765 0.77976 0.0
O480 O 0.64016 0.92503 0.81273 0.0
H481 H 0.70433 0.9456 0.67184 0.0
H482 H 0.70296 0.91209 0.89701 0.0
O483 O 0.67764 0.96807 0.89185 0.0
H484 H 0.60632 0.84311 0.88774 0.0
H485 H 0.56916 0.96341 0.93303 0.0
H486 H 0.60182 0.97306 0.81775 0.0
H487 H 0.60933 0.8951 0.8586 0.0
H488 H 0.62369 0.94699 0.91551 0.0
O489 O 0.74414 0.89565 0.80203 0.0
H490 H 0.68624 0.9463 0.72913 0.0
H491 H 0.78082 0.92229 0.76097 0.0
H492 H 0.54699 0.98959 0.83418 0.0
H493 H 0.70084 0.86051 0.92699 0.0
H494 H 0.53037 0.98488 0.89221 0.0
H495 H 0.65231 0.82555 0.92235 0.0
O496 O 0.66202 0.98821 0.82664 0.0
H497 H 0.8111 0.96642 0.8644 0.0
H498 H 0.747 0.99546 0.76737 0.0
H499 H 0.7924 0.03026 0.78404 0.0
H500 H 0.82489 0.01574 0.83282 0.0
H501 H 0.76528 0.93246 0.84704 0.0
H502 H 0.79988 0.92109 0.704 0.0
H503 H 0.76154 0.9329 0.65897 0.0
O504 O 0.69193 0.97425 0.78338 0.0
C505 C 0.65025 0.90921 0.788 0.0
C506 C 0.72128 0.94044 0.69125 0.0
C507 C 0.7749 0.92664 0.7093 0.0
N508 N 0.73244 0.9344 0.7484 0.0
C509 C 0.71119 0.94084 0.72375 0.0
C510 C 0.76393 0.92725 0.74151 0.0
C511 C 0.75337 0.93329 0.68404 0.0
C512 C 0.68169 0.89709 0.89497 0.0
N513 N 0.65634 0.90652 0.87587 0.0
C514 C 0.68066 0.86787 0.91196 0.0
C515 C 0.65344 0.84826 0.90932 0.0
C516 C 0.62765 0.85807 0.88987 0.0
C517 C 0.62956 0.88743 0.87322 0.0
C518 C 0.57611 0.96557 0.90767 0.0
C519 C 0.59472 0.97078 0.84302 0.0
C520 C 0.60697 0.95634 0.89761 0.0
N521 N 0.61592 0.95899 0.86561 0.0
C522 C 0.56366 0.98024 0.85219 0.0
C523 C 0.55435 0.9776 0.88476 0.0
C524 C 0.67359 0.99392 0.79836 0.0
C525 C 0.79717 0.97296 0.84306 0.0
C526 C 0.7609 0.98906 0.78872 0.0
C527 C 0.78665 0.00882 0.79799 0.0
C528 C 0.80488 1.00065 0.82535 0.0
N529 N 0.75357 0.96187 0.80614 0.0
C530 C 0.77125 0.95378 0.83307 0.0
Co531 Co 0.94188 0.36183 0.14798 0.0
Co532 Co 0.9349 0.30249 0.20614 0.0
O533 O 0.93292 0.31695 0.16043 0.0
C534 C 0.9707 0.32179 0.09256 0.0
O535 O 0.96282 0.29417 0.10606 0.0
C536 C 0.87058 0.27491 0.18676 0.0
O537 O 0.86083 0.30363 0.17744 0.0
O538 O 0.90348 0.33642 0.21965 0.0
O539 O 0.92053 0.37778 0.18877 0.0
H540 H 0.94402 0.31726 0.3275 0.0
H541 H 0.90531 0.31728 0.10427 0.0
O542 O 0.9639 0.34847 0.10639 0.0
H543 H 0.83484 0.41181 0.11891 0.0
H544 H 0.95207 0.45601 0.07063 0.0
H545 H 0.9653 0.41911 0.18424 0.0
H546 H 0.88822 0.40966 0.14526 0.0
H547 H 0.9389 0.39997 0.08601 0.0
O548 O 0.89901 0.27101 0.19794 0.0
H549 H 0.94227 0.33513 0.27016 0.0
H550 H 0.93074 0.23818 0.23875 0.0
H551 H 0.9785 0.47542 0.16994 0.0
H552 H 0.85238 0.31857 0.07715 0.0
H553 H 0.97198 0.49418 0.11277 0.0
H554 H 0.81662 0.36608 0.0844 0.0
O555 O 0.98449 0.36007 0.1706 0.0
H556 H 0.97643 0.21165 0.13679 0.0
H557 H 0.99949 0.2819 0.23094 0.0
H558 H 0.0395 0.24111 0.21437 0.0
H559 H 0.02805 0.20555 0.16703 0.0
H560 H 0.93724 0.25304 0.15396 0.0
H561 H 0.93213 0.21929 0.29578 0.0
H562 H 0.93891 0.25895 0.34063 0.0
O563 O 0.97095 0.33302 0.21598 0.0
C564 C 0.90449 0.36647 0.21283 0.0
C565 C 0.9411 0.29974 0.30817 0.0
C566 C 0.93438 0.24476 0.29037 0.0
N567 N 0.93648 0.28774 0.25108 0.0
C568 C 0.94015 0.30971 0.27563 0.0
C569 C 0.93351 0.25562 0.25812 0.0
C570 C 0.93821 0.26702 0.31552 0.0
C571 C 0.89027 0.33826 0.10722 0.0
N572 N 0.90027 0.36359 0.12599 0.0
C573 C 0.86013 0.33876 0.09194 0.0
C574 C 0.84005 0.36538 0.09607 0.0
C575 C 0.85025 0.39102 0.11543 0.0
C576 C 0.88053 0.38965 0.13036 0.0
C577 C 0.95498 0.44813 0.09564 0.0
C578 C 0.96215 0.42714 0.15935 0.0
C579 C 0.94763 0.4164 0.10449 0.0
N580 N 0.95114 0.40629 0.13605 0.0
C581 C 0.96976 0.45904 0.15139 0.0
C582 C 0.96612 0.46954 0.1193 0.0
C583 C 0.99005 0.351 0.19975 0.0
C584 C 0.9817 0.22698 0.15747 0.0
C585 C 0.99442 0.26673 0.21014 0.0
C586 C 0.01712 0.24356 0.20096 0.0
C587 C 0.01067 0.2236 0.17442 0.0
N588 N 0.96607 0.26993 0.19336 0.0
C589 C 0.95956 0.25041 0.16736 0.0
Co590 Co 0.36335 0.07965 0.86777 0.0
Co591 Co 0.30238 0.07368 0.80965 0.0
O592 O 0.3178 0.08139 0.85439 0.0
C593 C 0.32717 0.04109 0.91938 0.0
O594 O 0.29943 0.04489 0.90446 0.0
C595 C 0.27712 0.14008 0.82383 0.0
O596 O 0.30541 0.14841 0.8356 0.0
O597 O 0.33697 0.10175 0.79041 0.0
O598 O 0.37575 0.10515 0.82868 0.0
H599 H 0.31466 0.04579 0.69105 0.0
H600 H 0.31271 0.10509 0.91292 0.0
O601 O 0.35302 0.05338 0.90786 0.0
H602 H 0.39219 0.19286 0.90112 0.0
H603 H 0.45574 0.08291 0.94771 0.0
H604 H 0.42492 0.06942 0.83236 0.0
H605 H 0.4 0.14122 0.87253 0.0
H606 H 0.39862 0.08628 0.93102 0.0
O607 O 0.27262 0.11173 0.8127 0.0
H608 H 0.33357 0.05547 0.74724 0.0
H609 H 0.23765 0.07569 0.7776 0.0
H610 H 0.48233 0.06608 0.84796 0.0
H611 H 0.30415 0.15611 0.94218 0.0
H612 H 0.49806 0.07278 0.90603 0.0
H613 H 0.34403 0.20055 0.93637 0.0
O614 O 0.37039 0.03861 0.84327 0.0
H615 H 0.21091 0.04705 0.88573 0.0
H616 H 0.27814 0.00745 0.79502 0.0
H617 H 0.23575 0.97226 0.81791 0.0
H618 H 0.20168 0.99208 0.86353 0.0
H619 H 0.254 0.08118 0.86252 0.0
H620 H 0.21775 0.06652 0.72169 0.0
H621 H 0.25636 0.05133 0.67797 0.0
O622 O 0.3311 0.03539 0.80554 0.0
C623 C 0.36433 0.11166 0.80063 0.0
C624 C 0.29759 0.05234 0.7099 0.0
C625 C 0.24321 0.06402 0.72708 0.0
N626 N 0.28674 0.06603 0.76571 0.0
C627 C 0.30815 0.05779 0.74178 0.0
C628 C 0.25464 0.06929 0.75868 0.0
C629 C 0.26488 0.05548 0.70257 0.0
C630 C 0.33049 0.12394 0.91063 0.0
N631 N 0.35717 0.11976 0.8915 0.0
C632 C 0.32537 0.15296 0.9271 0.0
C633 C 0.34771 0.17791 0.92378 0.0
C634 C 0.37473 0.17362 0.90402 0.0
C635 C 0.37902 0.14428 0.88789 0.0
C636 C 0.4492 0.07996 0.92234 0.0
C637 C 0.43158 0.07255 0.85764 0.0
C638 C 0.41688 0.08175 0.91274 0.0
N639 N 0.40843 0.07812 0.88071 0.0
C640 C 0.46413 0.07056 0.86634 0.0
C641 C 0.47293 0.0743 0.89893 0.0
C642 C 0.35629 0.0245 0.81956 0.0
C643 C 0.2256 0.03813 0.86587 0.0
C644 C 0.26376 0.01606 0.81518 0.0
C645 C 0.23962 0.99611 0.82788 0.0
C646 C 0.22047 0.00727 0.85343 0.0
N647 N 0.26873 0.04625 0.82758 0.0
C648 C 0.24995 0.05741 0.85253 0.0
Co649 Co 0.06601 0.64149 0.1554 0.0
Co650 Co 0.06769 0.70572 0.20984 0.0
O651 O 0.07328 0.68709 0.16599 0.0
C652 C 0.0336 0.67855 0.10023 0.0
O653 O 0.03974 0.70666 0.11351 0.0
C654 C 0.13577 0.72128 0.19309 0.0
O655 O 0.13902 0.69119 0.18365 0.0
O656 O 0.09241 0.66992 0.23097 0.0
O657 O 0.08863 0.62828 0.19609 0.0
H658 H 0.03997 0.70386 0.32917 0.0
H659 H 0.09925 0.68554 0.10854 0.0
O660 O 0.04268 0.65244 0.11385 0.0
H661 H 0.17511 0.59592 0.12729 0.0
H662 H 0.05863 0.54444 0.08176 0.0
H663 H 0.04541 0.58466 0.19411 0.0
H664 H 0.12195 0.59644 0.15428 0.0
H665 H 0.06994 0.6014 0.0949 0.0
O666 O 0.10879 0.73103 0.20435 0.0
H667 H 0.04712 0.68051 0.27435 0.0
H668 H 0.07697 0.77161 0.23747 0.0
H669 H 0.03405 0.52745 0.18206 0.0
H670 H 0.15191 0.68579 0.08075 0.0
H671 H 0.04054 0.50703 0.12553 0.0
H672 H 0.19038 0.6408 0.09011 0.0
O673 O 0.02374 0.6419 0.1785 0.0
H674 H 0.04935 0.79503 0.12885 0.0
H675 H 0.00378 0.73627 0.22289 0.0
H676 H 0.97263 0.78043 0.19776 0.0
H677 H 0.99545 0.81024 0.15045 0.0
H678 H 0.07947 0.75036 0.15438 0.0
H679 H 0.07044 0.79588 0.29196 0.0
H680 H 0.05169 0.76196 0.33825 0.0
O681 O 0.02667 0.68101 0.21627 0.0
C682 C 0.09774 0.64071 0.22295 0.0
C683 C 0.04809 0.71892 0.30919 0.0
C684 C 0.06523 0.77055 0.28831 0.0
N685 N 0.06228 0.72471 0.2527 0.0
C686 C 0.05211 0.70584 0.27807 0.0
C687 C 0.06897 0.75665 0.25753 0.0
C688 C 0.05469 0.7515 0.31427 0.0
C689 C 0.11552 0.66562 0.1124 0.0
N690 N 0.10722 0.64081 0.13273 0.0
C691 C 0.14547 0.666 0.09673 0.0
C692 C 0.16707 0.64079 0.10205 0.0
C693 C 0.15852 0.61561 0.1229 0.0
C694 C 0.12838 0.61607 0.13816 0.0
C695 C 0.05576 0.55303 0.10651 0.0
C696 C 0.04861 0.57588 0.16951 0.0
C697 C 0.06208 0.58528 0.11409 0.0
N698 N 0.05858 0.5963 0.14531 0.0
C699 C 0.04202 0.54349 0.16281 0.0
C700 C 0.04564 0.53205 0.13107 0.0
C701 C 0.012 0.65767 0.20242 0.0
C702 C 0.03917 0.78226 0.14948 0.0
C703 C 0.01376 0.74888 0.2021 0.0
C704 C 0.99606 0.77399 0.18808 0.0
C705 C 0.0089 0.79074 0.16157 0.0
N706 N 0.04342 0.74067 0.19007 0.0
C707 C 0.05618 0.75703 0.16413 0.0
Co708 Co 0.65989 0.06365 0.1442 0.0
Co709 Co 0.72043 0.07073 0.20212 0.0
O710 O 0.704 0.0738 0.15752 0.0
C711 C 0.67225 0.01314 0.09437 0.0
O712 O 0.65595 0.99292 0.11277 0.0
C713 C 0.73214 0.13947 0.18446 0.0
O714 O 0.70208 0.141 0.1744 0.0
O715 O 0.68163 0.09323 0.2202 0.0
O716 O 0.64208 0.08586 0.18328 0.0
H717 H 0.71387 0.04626 0.32203 0.0
H718 H 0.7049 0.09673 0.0988 0.0
O719 O 0.67748 0.04188 0.10415 0.0
H720 H 0.6119 0.17007 0.10997 0.0
H721 H 0.56936 0.0515 0.06289 0.0
H722 H 0.60119 0.0404 0.17826 0.0
H723 H 0.61265 0.1177 0.13858 0.0
H724 H 0.62466 0.06512 0.08051 0.0
O725 O 0.74311 0.11328 0.19647 0.0
H726 H 0.69329 0.04979 0.26568 0.0
H727 H 0.78373 0.08609 0.23321 0.0
H728 H 0.54559 0.02665 0.16173 0.0
H729 H 0.70501 0.14868 0.06939 0.0
H730 H 0.52938 0.03214 0.10366 0.0
H731 H 0.65832 0.18582 0.075 0.0
O732 O 0.66081 0.02218 0.1693 0.0
H733 H 0.81308 0.05529 0.12453 0.0
H734 H 0.75629 0.01101 0.22039 0.0
H735 H 0.80371 0.98237 0.19843 0.0
H736 H 0.83252 0.00459 0.15022 0.0
H737 H 0.76534 0.08294 0.14709 0.0
H738 H 0.80521 0.08321 0.28925 0.0
H739 H 0.77021 0.06306 0.33411 0.0
O740 O 0.69847 0.02818 0.20839 0.0
C741 C 0.65246 0.09632 0.21057 0.0
C742 C 0.72938 0.05501 0.30268 0.0
C743 C 0.78063 0.0758 0.2843 0.0
N744 N 0.73733 0.06799 0.24617 0.0
C745 C 0.71789 0.057 0.27072 0.0
C746 C 0.7683 0.07747 0.25263 0.0
C747 C 0.76098 0.06447 0.30945 0.0
C748 C 0.68439 0.11266 0.10119 0.0
N749 N 0.65881 0.10421 0.12047 0.0
C750 C 0.68463 0.14208 0.08455 0.0
C751 C 0.65845 0.16293 0.08773 0.0
C752 C 0.63242 0.15413 0.10738 0.0
C753 C 0.63304 0.12452 0.12367 0.0
C754 C 0.57614 0.04899 0.08826 0.0
C755 C 0.5943 0.0429 0.15296 0.0
C756 C 0.60743 0.0566 0.09837 0.0
N757 N 0.61617 0.0535 0.13039 0.0
C758 C 0.56279 0.03507 0.14374 0.0
C759 C 0.55371 0.03814 0.11115 0.0
C760 C 0.6763 0.012 0.19423 0.0
C761 C 0.80075 0.04538 0.14556 0.0
C762 C 0.76853 0.02067 0.19925 0.0
C763 C 0.79546 0.00443 0.18701 0.0
C764 C 0.81163 0.01692 0.15997 0.0
N765 N 0.75806 0.04861 0.18505 0.0
C766 C 0.77374 0.06097 0.15849 0.0
Co767 Co 0.06051 0.35494 0.85628 0.0
Co768 Co 0.0778 0.29415 0.80255 0.0
O769 O 0.07717 0.31179 0.8468 0.0
C770 C 0.02715 0.31412 0.90605 0.0
O771 O 0.01978 0.29345 0.88297 0.0
C772 C 0.14564 0.28208 0.82432 0.0
O773 O 0.14793 0.31249 0.83299 0.0
O774 O 0.10203 0.33259 0.7861 0.0
O775 O 0.07758 0.37206 0.81401 0.0
H776 H 0.06541 0.29873 0.6807 0.0
H777 H 0.10212 0.32177 0.90458 0.0
O778 O 0.04325 0.33946 0.89924 0.0
H779 H 0.15968 0.42239 0.87695 0.0
H780 H 0.03869 0.45099 0.92809 0.0
H781 H 0.026 0.40495 0.81798 0.0
H782 H 0.10702 0.40995 0.85187 0.0
H783 H 0.059 0.39644 0.91572 0.0
O784 O 0.11943 0.27134 0.81218 0.0
H785 H 0.06398 0.32039 0.73668 0.0
H786 H 0.09439 0.2299 0.77443 0.0
H787 H 0.00561 0.4597 0.82922 0.0
H788 H 0.15462 0.33341 0.93048 0.0
H789 H 0.01225 0.48317 0.88451 0.0
H790 H 0.18379 0.384 0.91663 0.0
O791 O 0.01859 0.34447 0.83468 0.0
H792 H 0.055 0.20329 0.8805 0.0
H793 H 0.01905 0.25858 0.7803 0.0
H794 H 0.98802 0.21207 0.80105 0.0
H795 H 0.006 0.18404 0.85146 0.0
H796 H 0.08514 0.25012 0.85907 0.0
H797 H 0.09642 0.20734 0.71883 0.0
H798 H 0.08173 0.24181 0.6715 0.0
O799 O 0.03597 0.31594 0.79171 0.0
C800 C 0.09567 0.36234 0.79084 0.0
C801 C 0.07178 0.28344 0.70113 0.0
C802 C 0.08922 0.23216 0.72253 0.0
N803 N 0.07888 0.27638 0.75881 0.0
C804 C 0.07094 0.29555 0.7329 0.0
C805 C 0.0881 0.2451 0.75395 0.0
C806 C 0.08097 0.25151 0.69599 0.0
C807 C 0.11455 0.34396 0.89865 0.0
N808 N 0.10144 0.3652 0.87686 0.0
C809 C 0.14432 0.35037 0.9133 0.0
C810 C 0.1607 0.37874 0.90548 0.0
C811 C 0.14719 0.40027 0.8832 0.0
C812 C 0.1174 0.39305 0.86901 0.0
C813 C 0.0358 0.44106 0.90386 0.0
C814 C 0.02891 0.41497 0.84213 0.0
C815 C 0.04715 0.41014 0.89674 0.0
N816 N 0.04391 0.3976 0.86609 0.0
C817 C 0.01727 0.44597 0.84836 0.0
C818 C 0.0209 0.45909 0.87941 0.0
C819 C 0.01411 0.33184 0.80665 0.0
C820 C 0.04697 0.21525 0.85846 0.0
C821 C 0.02695 0.24661 0.80234 0.0
C822 C 0.00933 0.22022 0.81392 0.0
C823 C 0.01945 0.20449 0.84219 0.0
N824 N 0.05394 0.25699 0.81841 0.0
C825 C 0.064 0.2417 0.84615 0.0
Co826 Co 0.34997 0.92089 0.14371 0.0
Co827 Co 0.29186 0.93145 0.20369 0.0
O828 O 0.30522 0.92134 0.15904 0.0
C829 C 0.31726 0.96752 0.09939 0.0
O830 O 0.30078 0.97822 0.12449 0.0
C831 C 0.26511 0.86549 0.19294 0.0
O832 O 0.29314 0.85702 0.1807 0.0
O833 O 0.32618 0.90315 0.22284 0.0
O834 O 0.36372 0.89744 0.18365 0.0
H835 H 0.30917 0.9643 0.32034 0.0
H836 H 0.2974 0.89702 0.10103 0.0
O837 O 0.33747 0.94465 0.10295 0.0
H838 H 0.37072 0.80448 0.11578 0.0
H839 H 0.43736 0.90941 0.05907 0.0
H840 H 0.41386 0.93049 0.175 0.0
H841 H 0.38296 0.85699 0.1412 0.0
H842 H 0.3812 0.90975 0.07908 0.0
O843 O 0.26081 0.89417 0.20323 0.0
H844 H 0.32579 0.95165 0.26403 0.0
H845 H 0.22834 0.93255 0.23805 0.0
H846 H 0.47038 0.93006 0.1561 0.0
H847 H 0.28433 0.84502 0.07494 0.0
H848 H 0.48243 0.91951 0.09772 0.0
H849 H 0.32108 0.79826 0.08235 0.0
O850 O 0.35968 0.96284 0.16571 0.0
H851 H 0.20088 0.95896 0.1275 0.0
H852 H 0.27012 0.99879 0.21665 0.0
H853 H 0.229 0.03481 0.19284 0.0
H854 H 0.19399 0.01491 0.14796 0.0
H855 H 0.24254 0.92387 0.15179 0.0
H856 H 0.2107 0.94473 0.29415 0.0
H857 H 0.25125 0.96085 0.33572 0.0
O858 O 0.32223 0.96884 0.20505 0.0
C859 C 0.35322 0.89248 0.21244 0.0
C860 C 0.29126 0.95736 0.30243 0.0
C861 C 0.23601 0.94633 0.28775 0.0
N862 N 0.27806 0.94147 0.24775 0.0
C863 C 0.30052 0.95023 0.27049 0.0
C864 C 0.24615 0.93935 0.25604 0.0
C865 C 0.25877 0.95539 0.31105 0.0
C866 C 0.31364 0.87685 0.10413 0.0
N867 N 0.34096 0.88005 0.12254 0.0
C868 C 0.30606 0.84744 0.0894 0.0
C869 C 0.32667 0.82121 0.0936 0.0
C870 C 0.35451 0.82467 0.11238 0.0
C871 C 0.36128 0.85443 0.12678 0.0
C872 C 0.43242 0.91405 0.08456 0.0
C873 C 0.4189 0.92576 0.1496 0.0
C874 C 0.40066 0.91439 0.09601 0.0
N875 N 0.39424 0.92012 0.1282 0.0
C876 C 0.45096 0.9256 0.13902 0.0
C877 C 0.4577 0.9197 0.10626 0.0
C878 C 0.34727 0.97822 0.1896 0.0
C879 C 0.21594 0.96789 0.14708 0.0
C880 C 0.2551 0.99002 0.19701 0.0
C881 C 0.23178 0.01049 0.1837 0.0
C882 C 0.21213 0.99929 0.15854 0.0
N883 N 0.2587 0.95926 0.18564 0.0
C884 C 0.23949 0.94809 0.16102 0.0
Co885 Co 0.93282 0.64134 0.86931 0.0
Co886 Co 0.92561 0.70135 0.81166 0.0
O887 O 0.92203 0.68548 0.85647 0.0
C888 C 0.9703 0.68137 0.91617 0.0
O889 O 0.97942 0.69968 0.89168 0.0
C890 C 0.85819 0.71903 0.82929 0.0
O891 O 0.85349 0.68918 0.83901 0.0
O892 O 0.89933 0.66465 0.79501 0.0
O893 O 0.91405 0.62377 0.828 0.0
H894 H 0.94471 0.69149 0.69104 0.0
H895 H 0.89525 0.68289 0.91415 0.0
O896 O 0.95158 0.65746 0.91128 0.0
H897 H 0.82547 0.58885 0.89244 0.0
H898 H 0.94182 0.54913 0.94884 0.0
H899 H 0.96082 0.58459 0.83555 0.0
H900 H 0.87972 0.59256 0.86792 0.0
H901 H 0.92836 0.60455 0.9317 0.0
O902 O 0.88553 0.7276 0.81793 0.0
H903 H 0.94071 0.6717 0.74766 0.0
H904 H 0.91633 0.76573 0.78044 0.0
H905 H 0.97439 0.52879 0.8516 0.0
H906 H 0.84126 0.68001 0.93945 0.0
H907 H 0.96465 0.51074 0.90861 0.0
H908 H 0.80593 0.63277 0.92855 0.0
O909 O 0.97608 0.64489 0.84818 0.0
H910 H 0.95124 0.7931 0.88738 0.0
H911 H 0.98861 0.73071 0.79227 0.0
H912 H 0.02227 0.77518 0.81331 0.0
H913 H 0.00359 0.80676 0.86116 0.0
H914 H 0.9185 0.74822 0.86575 0.0
H915 H 0.91972 0.78648 0.72412 0.0
H916 H 0.93416 0.74928 0.67897 0.0
O917 O 0.96578 0.67573 0.80429 0.0
C918 C 0.90015 0.63485 0.8026 0.0
C919 C 0.93853 0.70797 0.71051 0.0
C920 C 0.92446 0.76127 0.72907 0.0
N921 N 0.92865 0.71759 0.76736 0.0
C922 C 0.93634 0.69692 0.74264 0.0
C923 C 0.92252 0.74937 0.7609 0.0
C924 C 0.93257 0.74039 0.70376 0.0
C925 C 0.88012 0.66212 0.90954 0.0
N926 N 0.89067 0.63788 0.88969 0.0
C927 C 0.84953 0.66068 0.92383 0.0
C928 C 0.82971 0.63418 0.91767 0.0
C929 C 0.84065 0.60954 0.8974 0.0
C930 C 0.87136 0.61182 0.88353 0.0
C931 C 0.94606 0.55669 0.92392 0.0
C932 C 0.95651 0.57686 0.86037 0.0
C933 C 0.93858 0.58808 0.91409 0.0
N934 N 0.94361 0.59772 0.8826 0.0
C935 C 0.96429 0.54527 0.86933 0.0
C936 C 0.95891 0.53517 0.90132 0.0
C937 C 0.98406 0.65699 0.82069 0.0
C938 C 0.9596 0.77958 0.86645 0.0
C939 C 0.98038 0.74425 0.81319 0.0
C940 C 0.9995 0.76946 0.82493 0.0
C941 C 0.98899 0.7872 0.85176 0.0
N942 N 0.95155 0.73696 0.8277 0.0
C943 C 0.94109 0.75423 0.85402 0.0
H944 H 0.23493 0.29566 0.33023 0.0
H945 H 0.30347 0.36945 0.30227 0.0
H946 H 0.34714 0.33074 0.30504 0.0
H947 H 0.36617 0.27623 0.31329 0.0
H948 H 0.29938 0.20065 0.33989 0.0
H949 H 0.25499 0.23985 0.34023 0.0
C950 C 0.25943 0.30322 0.32488 0.0
C951 C 0.26567 0.33546 0.31576 0.0
C952 C 0.28486 0.28058 0.32631 0.0
C953 C 0.29768 0.34483 0.309 0.0
C954 C 0.32285 0.3227 0.31066 0.0
C955 C 0.34196 0.26813 0.31928 0.0
C956 C 0.33616 0.23542 0.32633 0.0
C957 C 0.31669 0.29054 0.31895 0.0
C958 C 0.30458 0.22567 0.33433 0.0
C959 C 0.27916 0.24808 0.3344 0.0
H960 H 0.32269 0.7513 0.74816 0.0
H961 H 0.34021 0.76113 0.64498 0.0
H962 H 0.2981 0.72088 0.63361 0.0
H963 H 0.25742 0.68135 0.65359 0.0
H964 H 0.24517 0.66823 0.75722 0.0
H965 H 0.28388 0.71144 0.76794 0.0
C966 C 0.31704 0.74492 0.72314 0.0
C967 C 0.33415 0.75943 0.6974 0.0
C968 C 0.29377 0.72109 0.71696 0.0
C969 C 0.32718 0.75034 0.66516 0.0
C970 C 0.30315 0.72736 0.65869 0.0
C971 C 0.26312 0.68827 0.67844 0.0
C972 C 0.24836 0.67195 0.70462 0.0
C973 C 0.28641 0.71238 0.68444 0.0
C974 C 0.25627 0.68056 0.73674 0.0
C975 C 0.27837 0.70523 0.74287 0.0
H976 H 0.64304 0.7259 0.33216 0.0
H977 H 0.7101 0.80545 0.33801 0.0
H978 H 0.75517 0.76736 0.34228 0.0
H979 H 0.77571 0.71111 0.34056 0.0
H980 H 0.7074 0.63256 0.33353 0.0
H981 H 0.66282 0.67066 0.33359 0.0
C982 C 0.66748 0.73507 0.33453 0.0
C983 C 0.67311 0.76858 0.33444 0.0
C984 C 0.69317 0.71312 0.33663 0.0
C985 C 0.70499 0.77982 0.33793 0.0
C986 C 0.7308 0.75802 0.34027 0.0
C987 C 0.75106 0.70234 0.33944 0.0
C988 C 0.74507 0.66892 0.3368 0.0
C989 C 0.72524 0.72455 0.33911 0.0
C990 C 0.71289 0.65806 0.33531 0.0
C991 C 0.68728 0.67986 0.33534 0.0
H992 H 0.63753 0.28884 0.708 0.0
H993 H 0.69632 0.21445 0.66463 0.0
H994 H 0.74271 0.25106 0.66398 0.0
H995 H 0.76664 0.30458 0.67575 0.0
H996 H 0.70678 0.37826 0.71915 0.0
H997 H 0.66103 0.34155 0.7197 0.0
C998 C 0.66046 0.28053 0.69838 0.0
C999 C 0.66335 0.24887 0.68644 0.0
C1000 C 0.687 0.30165 0.69809 0.0
C1001 C 0.69335 0.23866 0.67408 0.0
C1002 C 0.71993 0.25961 0.67367 0.0
C1003 C 0.74362 0.31257 0.68538 0.0
C1004 C 0.74036 0.34423 0.69744 0.0
C1005 C 0.71707 0.29121 0.68565 0.0
C1006 C 0.71021 0.35411 0.70973 0.0
C1007 C 0.68389 0.33311 0.71007 0.0
H1008 H 0.73199 0.80556 0.83556 0.0
H1009 H 0.80077 0.87676 0.80198 0.0
H1010 H 0.84372 0.83714 0.80425 0.0
H1011 H 0.86201 0.78243 0.81409 0.0
H1012 H 0.79478 0.7099 0.84742 0.0
H1013 H 0.7512 0.7499 0.84709 0.0
C1014 C 0.75639 0.81239 0.82888 0.0
C1015 C 0.76291 0.84414 0.81837 0.0
C1016 C 0.78135 0.78926 0.83012 0.0
C1017 C 0.79478 0.85254 0.80989 0.0
C1018 C 0.81952 0.82987 0.81121 0.0
C1019 C 0.83787 0.77522 0.82135 0.0
C1020 C 0.8317 0.7431 0.83056 0.0
C1021 C 0.81306 0.79817 0.82099 0.0
C1022 C 0.80023 0.73444 0.84012 0.0
C1023 C 0.77528 0.75731 0.8399 0.0
H1024 H 0.79634 0.14223 0.1975 0.0
H1025 H 0.71655 0.20108 0.16529 0.0
H1026 H 0.75224 0.24813 0.16219 0.0
H1027 H 0.80625 0.2729 0.16992 0.0
H1028 H 0.88536 0.21271 0.20177 0.0
H1029 H 0.84981 0.16612 0.20356 0.0
C1030 C 0.78664 0.16532 0.1898 0.0
C1031 C 0.7537 0.16807 0.18187 0.0
C1032 C 0.80726 0.19219 0.18798 0.0
C1033 C 0.74177 0.19821 0.17166 0.0
C1034 C 0.76219 0.22517 0.16988 0.0
C1035 C 0.81573 0.24957 0.17709 0.0
C1036 C 0.84851 0.24657 0.18588 0.0
C1037 C 0.795 0.22251 0.17814 0.0
C1038 C 0.86029 0.21601 0.19505 0.0
C1039 C 0.83995 0.1892 0.1961 0.0
H1040 H 0.1474 0.2184 0.80947 0.0
H1041 H 0.20691 0.29552 0.84675 0.0
H1042 H 0.25292 0.25853 0.85047 0.0
H1043 H 0.27649 0.20406 0.84205 0.0
H1044 H 0.21552 0.12805 0.80439 0.0
H1045 H 0.1701 0.16488 0.80196 0.0
C1046 C 0.17038 0.22728 0.81847 0.0
C1047 C 0.17361 0.25982 0.82769 0.0
C1048 C 0.19664 0.206 0.82042 0.0
C1049 C 0.20366 0.27064 0.83941 0.0
C1050 C 0.23002 0.24947 0.84152 0.0
C1051 C 0.25326 0.19557 0.83336 0.0
C1052 C 0.24969 0.16323 0.82327 0.0
C1053 C 0.22686 0.21707 0.83192 0.0
C1054 C 0.21927 0.15273 0.81216 0.0
C1055 C 0.19311 0.17381 0.81077 0.0
H1056 H 0.26436 0.80224 0.17336 0.0
H1057 H 0.20459 0.87589 0.21687 0.0
H1058 H 0.15978 0.83804 0.22058 0.0
H1059 H 0.13726 0.7842 0.21182 0.0
H1060 H 0.1963 0.70999 0.16846 0.0
H1061 H 0.24148 0.74785 0.16441 0.0
C1062 C 0.24155 0.81001 0.18367 0.0
C1063 C 0.23804 0.84196 0.19487 0.0
C1064 C 0.21564 0.788 0.18581 0.0
C1065 C 0.20818 0.85153 0.20809 0.0
C1066 C 0.18242 0.82987 0.21024 0.0
C1067 C 0.15999 0.7762 0.20147 0.0
C1068 C 0.1633 0.74419 0.19054 0.0
C1069 C 0.18587 0.79806 0.19923 0.0
C1070 C 0.19301 0.73442 0.17717 0.0
C1071 C 0.2189 0.75609 0.17482 0.0
H1072 H 0.14236 0.53787 0.32678 0.0
H1073 H 0.20208 0.51004 0.24497 0.0
H1074 H 0.18378 0.55643 0.21435 0.0
H1075 H 0.14709 0.60177 0.20808 0.0
H1076 H 0.0869 0.63129 0.28822 0.0
H1077 H 0.10948 0.58795 0.32232 0.0
C1078 C 0.15175 0.54225 0.30248 0.0
C1079 C 0.1733 0.52001 0.28824 0.0
C1080 C 0.14093 0.56927 0.28454 0.0
C1081 C 0.18527 0.52632 0.25668 0.0
C1082 C 0.1748 0.55295 0.23895 0.0
C1083 C 0.13923 0.59892 0.23315 0.0
C1084 C 0.11523 0.61928 0.24559 0.0
C1085 C 0.15206 0.57403 0.25226 0.0
C1086 C 0.10553 0.61585 0.27824 0.0
C1087 C 0.11824 0.59094 0.29759 0.0
H1088 H 0.5524 0.8585 0.68079 0.0
H1089 H 0.49243 0.84929 0.76648 0.0
H1090 H 0.53671 0.86723 0.80077 0.0
H1091 H 0.59109 0.88837 0.80643 0.0
H1092 H 0.65361 0.89479 0.72259 0.0
H1093 H 0.6099 0.8749 0.68765 0.0
C1094 C 0.54923 0.86018 0.70699 0.0
C1095 C 0.51907 0.85261 0.72098 0.0
C1096 C 0.57518 0.87008 0.72691 0.0
C1097 C 0.51536 0.85468 0.75501 0.0
C1098 C 0.54066 0.86511 0.77472 0.0
C1099 C 0.59543 0.8851 0.78062 0.0
C1100 C 0.62555 0.89338 0.76722 0.0
C1101 C 0.57049 0.87323 0.76091 0.0
C1102 C 0.63065 0.88867 0.73363 0.0
C1103 C 0.6056 0.87742 0.71359 0.0
H1104 H 0.8905 0.42877 0.19914 0.0
H1105 H 0.88308 0.35802 0.27606 0.0
H1106 H 0.86241 0.39955 0.31314 0.0
H1107 H 0.84802 0.45704 0.32398 0.0
H1108 H 0.85344 0.52559 0.24479 0.0
H1109 H 0.8733 0.48383 0.20842 0.0
C1110 C 0.88404 0.42213 0.22385 0.0
C1111 C 0.88847 0.39021 0.23467 0.0
C1112 C 0.87196 0.44592 0.24479 0.0
C1113 C 0.87988 0.38234 0.26694 0.0
C1114 C 0.8682 0.40615 0.28823 0.0
C1115 C 0.85356 0.46268 0.29876 0.0
C1116 C 0.84925 0.49441 0.28713 0.0
C1117 C 0.86447 0.43818 0.27752 0.0
C1118 C 0.85623 0.50136 0.25431 0.0
C1119 C 0.8677 0.4775 0.23346 0.0
H1120 H 0.47725 0.19124 0.73955 0.0
H1121 H 0.47057 0.11646 0.66657 0.0
H1122 H 0.42141 0.09595 0.69242 0.0
H1123 H 0.38375 0.09566 0.73948 0.0
H1124 H 0.39396 0.1681 0.81408 0.0
H1125 H 0.438 0.19338 0.78366 0.0
C1126 C 0.46496 0.17066 0.72892 0.0
C1127 C 0.47795 0.15531 0.70122 0.0
C1128 C 0.43721 0.15855 0.7443 0.0
C1129 C 0.46134 0.12875 0.68791 0.0
C1130 C 0.4332 0.11694 0.70274 0.0
C1131 C 0.39507 0.11752 0.74845 0.0
C1132 C 0.38554 0.1303 0.77873 0.0
C1133 C 0.42133 0.13117 0.73141 0.0
C1134 C 0.40085 0.15809 0.79068 0.0
C1135 C 0.42613 0.17239 0.77341 0.0
H1136 H 0.16734 0.45601 0.69099 0.0
H1137 H 0.11367 0.52592 0.74674 0.0
H1138 H 0.08856 0.48294 0.7785 0.0
H1139 H 0.08394 0.42651 0.79248 0.0
H1140 H 0.13785 0.35485 0.73905 0.0
H1141 H 0.16078 0.39739 0.70433 0.0
C1142 C 0.14976 0.46154 0.70977 0.0
C1143 C 0.14215 0.49392 0.71659 0.0
C1144 C 0.13579 0.43653 0.72854 0.0
C1145 C 0.11975 0.50108 0.74119 0.0
C1146 C 0.10549 0.47657 0.75939 0.0
C1147 C 0.10065 0.41991 0.77326 0.0
C1148 C 0.1093 0.38739 0.76869 0.0
C1149 C 0.11373 0.44432 0.75366 0.0
C1150 C 0.13086 0.37965 0.74334 0.0
C1151 C 0.14396 0.404 0.72343 0.0
H1152 H 0.40261 0.85229 0.19753 0.0
H1153 H 0.35472 0.89712 0.27917 0.0
H1154 H 0.39835 0.8797 0.31535 0.0
H1155 H 0.45309 0.85719 0.32227 0.0
H1156 H 0.50034 0.81259 0.23987 0.0
H1157 H 0.45386 0.82443 0.20567 0.0
C1158 C 0.40138 0.85784 0.22333 0.0
C1159 C 0.37559 0.87635 0.23549 0.0
C1160 C 0.42667 0.84811 0.24384 0.0
C1161 C 0.37424 0.88291 0.26911 0.0
C1162 C 0.39935 0.87317 0.28978 0.0
C1163 C 0.45307 0.84963 0.29696 0.0
C1164 C 0.48053 0.83444 0.28366 0.0
C1165 C 0.42617 0.85661 0.2772 0.0
C1166 C 0.47981 0.82458 0.25083 0.0
C1167 C 0.4532 0.83137 0.23114 0.0
H1168 H 0.81901 0.52179 0.7443 0.0
H1169 H 0.89821 0.51948 0.6758 0.0
H1170 H 0.92115 0.56791 0.70107 0.0
H1171 H 0.92082 0.60831 0.74591 0.0
H1172 H 0.84216 0.60831 0.81468 0.0
H1173 H 0.81664 0.56337 0.78585 0.0
C1174 C 0.84111 0.53192 0.73448 0.0
C1175 C 0.8569 0.51675 0.7082 0.0
C1176 C 0.85426 0.55937 0.7493 0.0
C1177 C 0.88549 0.53056 0.69597 0.0
C1178 C 0.89869 0.55821 0.7105 0.0
C1179 C 0.89776 0.59876 0.75398 0.0
C1180 C 0.88304 0.61149 0.78205 0.0
C1181 C 0.88358 0.57248 0.73757 0.0
C1182 C 0.85358 0.59884 0.79293 0.0
C1183 C 0.83913 0.57314 0.77655 0.0
H1184 H 0.60042 0.13135 0.1928 0.0
H1185 H 0.65075 0.09551 0.27741 0.0
H1186 H 0.60678 0.11442 0.31256 0.0
H1187 H 0.55189 0.13724 0.31837 0.0
H1188 H 0.50304 0.17391 0.23283 0.0
H1189 H 0.54867 0.1586 0.19902 0.0
C1190 C 0.60193 0.12787 0.21894 0.0
C1191 C 0.62858 0.1117 0.23241 0.0
C1192 C 0.57671 0.13878 0.23884 0.0
C1193 C 0.63047 0.10793 0.26643 0.0
C1194 C 0.60524 0.11856 0.2865 0.0
C1195 C 0.55136 0.1422 0.29239 0.0
C1196 C 0.52376 0.15638 0.27823 0.0
C1197 C 0.5779 0.13342 0.27287 0.0
C1198 C 0.52372 0.16286 0.24452 0.0
C1199 C 0.54984 0.15407 0.22504 0.0
H1200 H 0.63373 0.04345 0.81847 0.0
H1201 H 0.69326 0.01213 0.73779 0.0
H1202 H 0.67569 0.05776 0.70562 0.0
H1203 H 0.64093 0.10436 0.69832 0.0
H1204 H 0.5815 0.13776 0.77747 0.0
H1205 H 0.60202 0.09412 0.81247 0.0
C1206 C 0.64309 0.0468 0.794 0.0
C1207 C 0.66453 0.02391 0.78065 0.0
C1208 C 0.63294 0.07352 0.77525 0.0
C1209 C 0.67654 0.02893 0.74887 0.0
C1210 C 0.66654 0.05515 0.73026 0.0
C1211 C 0.63261 0.10218 0.72328 0.0
C1212 C 0.60951 0.12382 0.73521 0.0
C1213 C 0.64434 0.07717 0.74294 0.0
C1214 C 0.59941 0.12131 0.76783 0.0
C1215 C 0.61095 0.09624 0.78771 0.0
H1216 H 0.0885 0.4099 0.299 0.0
H1217 H 0.15749 0.37813 0.22696 0.0
H1218 H 0.11312 0.35949 0.19206 0.0
H1219 H 0.05406 0.35144 0.18269 0.0
H1220 H 0.98704 0.381 0.25739 0.0
H1221 H 0.03138 0.40152 0.29053 0.0
C1222 C 0.09411 0.39876 0.27578 0.0
C1223 C 0.12644 0.39529 0.26581 0.0
C1224 C 0.0687 0.38787 0.25619 0.0
C1225 C 0.13288 0.38092 0.23542 0.0
C1226 C 0.1075 0.37037 0.21539 0.0
C1227 C 0.04938 0.36269 0.20608 0.0
C1228 C 0.01748 0.36494 0.21766 0.0
C1229 C 0.07524 0.37369 0.22555 0.0
C1230 C 0.01149 0.37905 0.24814 0.0
C1231 C 0.03678 0.39072 0.26709 0.0
H1232 H 0.32567 0.97311 0.7924 0.0
H1233 H 0.42035 0.01034 0.81496 0.0
H1234 H 0.44521 0.96603 0.78475 0.0
H1235 H 0.4398 0.91906 0.74827 0.0
H1236 H 0.34548 0.87957 0.72881 0.0
H1237 H 0.32052 0.9224 0.76147 0.0
C1238 C 0.35174 0.97131 0.79098 0.0
C1239 C 0.37114 0.99517 0.80557 0.0
C1240 C 0.36584 0.94553 0.77393 0.0
C1241 C 0.4049 0.99227 0.80399 0.0
C1242 C 0.41912 0.96705 0.78654 0.0
C1243 C 0.4138 0.91975 0.75155 0.0
C1244 C 0.39434 0.8966 0.73606 0.0
C1245 C 0.39981 0.94395 0.77087 0.0
C1246 C 0.36079 0.89724 0.74065 0.0
C1247 C 0.34658 0.92175 0.75917 0.0
H1248 H 0.88285 0.59033 0.2488 0.0
H1249 H 0.89332 0.65863 0.3271 0.0
H1250 H 0.94051 0.68251 0.30002 0.0
H1251 H 0.9809 0.68103 0.2562 0.0
H1252 H 0.97159 0.61071 0.17902 0.0
H1253 H 0.92167 0.59078 0.20331 0.0
C1254 C 0.89502 0.61102 0.25935 0.0
C1255 C 0.88449 0.62331 0.28939 0.0
C1256 C 0.9225 0.62396 0.24404 0.0
C1257 C 0.9009 0.64931 0.30364 0.0
C1258 C 0.92792 0.66275 0.28828 0.0
C1259 C 0.96785 0.66156 0.24444 0.0
C1260 C 0.98026 0.64736 0.21583 0.0
C1261 C 0.93931 0.64985 0.25878 0.0
C1262 C 0.96284 0.6221 0.20108 0.0
C1263 C 0.93422 0.61062 0.21496 0.0
H1264 H 0.61785 0.98195 0.19072 0.0
H1265 H 0.71312 0.972 0.23204 0.0
H1266 H 0.69602 0.9236 0.26138 0.0
H1267 H 0.65256 0.88657 0.27918 0.0
H1268 H 0.55621 0.90017 0.24218 0.0
H1269 H 0.57501 0.94427 0.20716 0.0
C1270 C 0.63502 0.96894 0.20574 0.0
C1271 C 0.66676 0.98067 0.20909 0.0
C1272 C 0.6247 0.94171 0.22349 0.0
C1273 C 0.68853 0.96364 0.22904 0.0
C1274 C 0.67876 0.93592 0.24589 0.0
C1275 C 0.63598 0.89883 0.26287 0.0
C1276 C 0.60322 0.89002 0.26277 0.0
C1277 C 0.64674 0.92506 0.24383 0.0
C1278 C 0.58161 0.90651 0.24231 0.0
C1279 C 0.59232 0.93176 0.22243 0.0
H1280 H 0.90188 0.35617 0.70617 0.0
H1281 H 0.86289 0.41101 0.78607 0.0
H1282 H 0.9074 0.39304 0.82119 0.0
H1283 H 0.96062 0.36596 0.82706 0.0
H1284 H 0.99789 0.31076 0.74594 0.0
H1285 H 0.95098 0.32473 0.71359 0.0
C1286 C 0.90292 0.36393 0.73135 0.0
C1287 C 0.87942 0.38521 0.74334 0.0
C1288 C 0.92855 0.35369 0.75114 0.0
C1289 C 0.88068 0.39455 0.77626 0.0
C1290 C 0.9063 0.38449 0.79625 0.0
C1291 C 0.9583 0.35665 0.80247 0.0
C1292 C 0.98324 0.33768 0.78899 0.0
C1293 C 0.9309 0.36472 0.78367 0.0
C1294 C 0.97949 0.32567 0.75708 0.0
C1295 C 0.95256 0.33363 0.73839 0.0
H1296 H 0.43895 0.08122 0.25467 0.0
H1297 H 0.34756 0.1263 0.27565 0.0
H1298 H 0.31923 0.08364 0.24576 0.0
H1299 H 0.32047 0.03186 0.21631 0.0
H1300 H 0.41213 0.98905 0.19171 0.0
H1301 H 0.44044 0.03269 0.21984 0.0
C1302 C 0.41284 0.08173 0.25242 0.0
C1303 C 0.39523 0.10655 0.26751 0.0
C1304 C 0.39685 0.05761 0.23451 0.0
C1305 C 0.36152 0.10737 0.26415 0.0
C1306 C 0.34536 0.08297 0.24717 0.0
C1307 C 0.34664 0.03232 0.2168 0.0
C1308 C 0.36417 0.00712 0.20218 0.0
C1309 C 0.36275 0.05775 0.23261 0.0
C1310 C 0.39809 0.00821 0.20265 0.0
C1311 C 0.41429 0.03305 0.21893 0.0
H1312 H 0.12286 0.61074 0.77607 0.0
H1313 H 0.08068 0.63056 0.68194 0.0
H1314 H 0.03174 0.65005 0.7079 0.0
H1315 H 0.99972 0.65878 0.75679 0.0
H1316 H 0.03872 0.63458 0.85128 0.0
H1317 H 0.08999 0.6191 0.82576 0.0
C1318 C 0.10309 0.61959 0.76128 0.0
C1319 C 0.10562 0.6193 0.727 0.0
C1320 C 0.07429 0.62963 0.77645 0.0
C1321 C 0.07956 0.63054 0.70824 0.0
C1322 C 0.05143 0.64163 0.72311 0.0
C1323 C 0.01946 0.65037 0.77194 0.0
C1324 C 0.01543 0.648 0.80592 0.0
C1325 C 0.04838 0.64085 0.75711 0.0
C1326 C 0.04118 0.63657 0.82505 0.0
C1327 C 0.0705 0.6278 0.81047 0.0
H1328 H 0.18109 0.46787 0.56264 0.0
H1329 H 0.19596 0.57074 0.55534 0.0
H1330 H 0.2012 0.56645 0.49636 0.0
H1331 H 0.1953 0.5344 0.44615 0.0
H1332 H 0.18257 0.43128 0.45353 0.0
H1333 H 0.1831 0.4348 0.51285 0.0
C1334 C 0.18608 0.48925 0.5482 0.0
C1335 C 0.18767 0.51957 0.56347 0.0
C1336 C 0.18915 0.48668 0.51413 0.0
C1337 C 0.19453 0.54702 0.54437 0.0
C1338 C 0.19733 0.54467 0.5105 0.0
C1339 C 0.19315 0.51267 0.46077 0.0
C1340 C 0.18849 0.48274 0.44537 0.0
C1341 C 0.19369 0.51477 0.49502 0.0
C1342 C 0.18614 0.4547 0.46467 0.0
C1343 C 0.18628 0.45667 0.49868 0.0
H1344 H 0.53962 0.78651 0.46405 0.0
H1345 H 0.49667 0.87744 0.43637 0.0
H1346 H 0.47676 0.88496 0.49162 0.0
H1347 H 0.47257 0.86691 0.54804 0.0
H1348 H 0.51589 0.77672 0.57726 0.0
H1349 H 0.53452 0.76781 0.5213 0.0
C1350 C 0.52569 0.80783 0.47008 0.0
C1351 C 0.51978 0.83139 0.44599 0.0
C1352 C 0.51448 0.81228 0.50226 0.0
C1353 C 0.50182 0.85897 0.45434 0.0
C1354 C 0.49036 0.86334 0.486 0.0
C1355 C 0.48604 0.84522 0.54228 0.0
C1356 C 0.49288 0.82259 0.56696 0.0
C1357 C 0.49678 0.84034 0.5102 0.0
C1358 C 0.51035 0.79464 0.55884 0.0
C1359 C 0.52099 0.7895 0.5268 0.0
H1360 H 0.81301 0.53912 0.46397 0.0
H1361 H 0.84758 0.44539 0.43419 0.0
H1362 H 0.84308 0.4259 0.49006 0.0
H1363 H 0.83376 0.43646 0.54791 0.0
H1364 H 0.79941 0.52983 0.57867 0.0
H1365 H 0.79907 0.54828 0.52187 0.0
C1366 C 0.81908 0.51429 0.46959 0.0
C1367 C 0.83091 0.49387 0.44482 0.0
C1368 C 0.81673 0.5032 0.50202 0.0
C1369 C 0.83862 0.46175 0.45267 0.0
C1370 C 0.83613 0.45055 0.48469 0.0
C1371 C 0.82595 0.46081 0.54224 0.0
C1372 C 0.817 0.48185 0.5676 0.0
C1373 C 0.82596 0.47125 0.50965 0.0
C1374 C 0.80651 0.51315 0.55968 0.0
C1375 C 0.80642 0.52375 0.52719 0.0
H1376 H 0.46312 0.22051 0.45818 0.0
H1377 H 0.51669 0.13516 0.43158 0.0
H1378 H 0.53849 0.13145 0.48658 0.0
H1379 H 0.54077 0.15066 0.54251 0.0
H1380 H 0.48623 0.23468 0.57107 0.0
H1381 H 0.46646 0.24068 0.51503 0.0
C1382 C 0.47985 0.20134 0.46437 0.0
C1383 C 0.48823 0.17814 0.44074 0.0
C1384 C 0.49195 0.19894 0.49643 0.0
C1385 C 0.5097 0.15326 0.44926 0.0
C1386 C 0.5222 0.15108 0.48075 0.0
C1387 C 0.52465 0.17043 0.53661 0.0
C1388 C 0.51493 0.19212 0.5611 0.0
C1389 C 0.51318 0.1735 0.50459 0.0
C1390 C 0.49402 0.21754 0.55278 0.0
C1391 C 0.48273 0.22099 0.52071 0.0
H1392 H 0.68184 0.05419 0.0435 0.0
H1393 H 0.67698 0.95297 0.06785 0.0
H1394 H 0.68098 0.93897 0.01006 0.0
H1395 H 0.68044 0.95561 0.95257 0.0
H1396 H 0.68066 0.05692 0.92817 0.0
H1397 H 0.68423 0.07076 0.98603 0.0
C1398 C 0.68226 0.02903 0.03624 0.0
C1399 C 0.67911 0.00463 0.05998 0.0
C1400 C 0.68348 0.0212 1.00291 0.0
C1401 C 0.67928 0.97219 0.05007 0.0
C1402 C 0.6815 0.96418 0.01702 0.0
C1403 C 0.68189 0.98072 0.95985 0.0
C1404 C 0.6803 0.00523 0.93606 0.0
C1405 C 0.68283 0.9885 0.99319 0.0
C1406 C 0.68177 0.03763 0.94598 0.0
C1407 C 0.68374 0.04555 0.97907 0.0
H1408 H 0.0338 0.35523 0.95697 0.0
H1409 H 0.99583 0.26143 0.93211 0.0
H1410 H 0.97676 0.25432 0.98827 0.0
H1411 H 0.96908 0.27597 0.04423 0.0
H1412 H 0.00577 0.37087 0.06696 0.0
H1413 H 0.02727 0.37612 0.01197 0.0
C1414 C 0.02147 0.3331 0.96371 0.0
C1415 C 0.0162 0.30895 0.9402 0.0
C1416 C 0.01033 0.32935 0.99582 0.0
C1417 C 1.00013 0.2805 0.94961 0.0
C1418 C 0.98924 0.27641 0.98177 0.0
C1419 C 0.98212 0.29759 0.0372 0.0
C1420 C 0.98579 0.32297 0.05976 0.0
C1421 C 0.99399 0.3008 0.00508 0.0
C1422 C 1.00245 0.35101 0.05013 0.0
C1423 C 0.01477 0.35408 0.01864 0.0
H1424 H 0.2813 0.03825 0.96714 0.0
H1425 H 0.37728 0.00601 0.94263 0.0
H1426 H 0.38207 0.9794 0.99557 0.0
H1427 H 0.35984 0.96657 0.04932 0.0
H1428 H 0.26567 1.002 0.07629 0.0
H1429 H 0.25933 0.02621 0.02207 0.0
C1430 C 0.30309 0.02512 0.97336 0.0
C1431 C 0.32881 0.02385 0.95094 0.0
C1432 C 0.3061 0.01068 0.00436 0.0
C1433 C 0.35716 0.00728 0.95948 0.0
C1434 C 0.35993 0.99208 0.98975 0.0
C1435 C 0.33783 0.97945 0.04331 0.0
C1436 C 0.31319 0.98235 0.06674 0.0
C1437 C 0.33468 0.99383 0.01245 0.0
C1438 C 0.28503 0.99951 0.0587 0.0
C1439 C 0.28137 0.01327 0.02768 0.0
H1440 H 0.96577 0.64143 0.96825 0.0
H1441 H 1.00251 0.73465 0.93935 0.0
H1442 H 0.02353 0.74325 0.99456 0.0
H1443 H 0.03314 0.72311 0.05079 0.0
H1444 H 0.99835 0.62845 0.07741 0.0
H1445 H 0.97468 0.62177 0.02346 0.0
C1446 C 0.97819 0.66376 0.97396 0.0
C1447 C 0.98253 0.68735 0.94964 0.0
C1448 C 0.99058 0.6683 0.00545 0.0
C1449 C 0.99893 0.71602 0.95755 0.0
C1450 C 0.01091 0.72097 0.98915 0.0
C1451 C 0.02005 0.70123 0.04481 0.0
C1452 C 0.01745 0.67635 0.0681 0.0
C1453 C 0.00708 0.69715 0.01328 0.0
C1454 C 1.00079 0.64792 0.05991 0.0
C1455 C 0.98724 0.64405 0.02905 0.0
loop_
_geom_bond_atom_site_label_1
_geom_bond_atom_site_label_2
_geom_bond_distance
_geom_bond_site_symmetry_2
_ccdc_geom_bond_type
Co0 O2 2.143 . S
Co0 O8 2.074 . S
Co0 O11 2.093 . S
Co0 O24 2.097 . S
Co0 N41 2.151 . S
Co0 N49 2.214 . S
Co1 O2 2.160 . S
Co1 O7 2.058 . S
Co1 O17 2.057 . S
Co1 O32 2.037 . S
Co1 N36 2.145 . S
Co1 N57 2.257 . S
O2 Co0 2.143 . S
O2 Co1 2.160 . S
C3 O4 1.278 . S
C3 O11 1.224 . S
O4 C3 1.278 . S
C5 O6 1.245 . S
C5 O17 1.232 . S
O6 C5 1.245 . S
O7 Co1 2.058 . S
O7 C33 1.269 . S
O8 Co0 2.074 . S
O8 C33 1.257 . S
H9 C34 0.930 . S
H10 C40 0.930 . S
O11 Co0 2.093 . S
O11 C3 1.224 . S
H12 C44 0.929 . S
H13 C46 0.930 . S
H14 C47 0.930 . S
H15 C45 0.929 . S
H16 C48 0.928 . S
O17 Co1 2.057 . S
O17 C5 1.232 . S
H18 C37 0.929 . S
H19 C38 0.929 . S
H20 C50 0.931 . S
H21 C42 0.929 . S
H22 C51 0.930 . S
H23 C43 0.931 . S
O24 Co0 2.097 . S
O24 C52 1.214 . S
H25 C53 0.929 . S
H26 C54 0.929 . S
H27 C55 0.930 . S
H28 C56 0.929 . S
H29 C58 0.930 . S
H30 C35 0.930 . S
H31 C39 0.930 . S
O32 Co1 2.037 . S
O32 C52 1.234 . S
C33 O7 1.269 . S
C33 O8 1.257 . S
C34 H9 0.930 . S
C34 C37 1.388 . S
C34 C39 1.418 . S
C35 H30 0.930 . S
C35 C38 1.404 . S
C35 C39 1.353 . S
N36 Co1 2.145 . S
N36 C37 1.397 . S
N36 C38 1.334 . S
C37 H18 0.929 . S
C37 C34 1.388 . S
C37 N36 1.397 . S
C38 H19 0.929 . S
C38 C35 1.404 . S
C38 N36 1.334 . S
C39 H31 0.930 . S
C39 C34 1.418 . S
C39 C35 1.353 . S
C40 H10 0.930 . S
C40 N41 1.330 . S
C40 C42 1.446 . S
N41 Co0 2.151 . S
N41 C40 1.330 . S
N41 C45 1.418 . S
C42 H21 0.929 . S
C42 C40 1.446 . S
C42 C43 1.332 . S
C43 H23 0.931 . S
C43 C42 1.332 . S
C43 C44 1.267 . S
C44 H12 0.929 . S
C44 C43 1.267 . S
C44 C45 1.251 . S
C45 H15 0.929 . S
C45 N41 1.418 . S
C45 C44 1.251 . S
C46 H13 0.930 . S
C46 C48 1.406 . S
C46 C51 1.261 . S
C47 H14 0.930 . S
C47 N49 1.325 . S
C47 C50 1.357 . S
C48 H16 0.928 . S
C48 C46 1.406 . S
C48 N49 1.261 . S
N49 Co0 2.214 . S
N49 C47 1.325 . S
N49 C48 1.261 . S
C50 H20 0.931 . S
C50 C47 1.357 . S
C50 C51 1.312 . S
C51 H22 0.930 . S
C51 C46 1.261 . S
C51 C50 1.312 . S
C52 O24 1.214 . S
C52 O32 1.234 . S
C53 H25 0.929 . S
C53 C56 1.391 . S
C53 C58 1.391 . S
C54 H26 0.929 . S
C54 C55 1.390 . S
C54 N57 1.391 . S
C55 H27 0.930 . S
C55 C54 1.390 . S
C55 C56 1.392 . S
C56 H28 0.929 . S
C56 C53 1.391 . S
C56 C55 1.392 . S
N57 Co1 2.257 . S
N57 C54 1.391 . S
N57 C58 1.388 . S
C58 H29 0.930 . S
C58 C53 1.391 . S
C58 N57 1.388 . S
Co59 O61 2.143 . S
Co59 O67 2.074 . S
Co59 O70 2.093 . S
Co59 O83 2.097 . S
Co59 N100 2.151 . S
Co59 N108 2.214 . S
Co60 O61 2.160 . S
Co60 O66 2.058 . S
Co60 O76 2.057 . S
Co60 O91 2.037 . S
Co60 N95 2.145 . S
Co60 N116 2.257 . S
O61 Co59 2.143 . S
O61 Co60 2.160 . S
C62 O63 1.278 . S
C62 O70 1.224 . S
O63 C62 1.278 . S
C64 O65 1.245 . S
C64 O76 1.232 . S
O65 C64 1.245 . S
O66 Co60 2.058 . S
O66 C92 1.269 . S
O67 Co59 2.074 . S
O67 C92 1.257 . S
H68 C93 0.930 . S
H69 C99 0.930 . S
O70 Co59 2.093 . S
O70 C62 1.224 . S
H71 C103 0.929 . S
H72 C105 0.930 . S
H73 C106 0.930 . S
H74 C104 0.929 . S
H75 C107 0.928 . S
O76 Co60 2.057 . S
O76 C64 1.232 . S
H77 C96 0.929 . S
H78 C97 0.929 . S
H79 C109 0.931 . S
H80 C101 0.929 . S
H81 C110 0.930 . S
H82 C102 0.931 . S
O83 Co59 2.097 . S
O83 C111 1.214 . S
H84 C112 0.929 . S
H85 C113 0.929 . S
H86 C114 0.930 . S
H87 C115 0.929 . S
H88 C117 0.930 . S
H89 C94 0.930 . S
H90 C98 0.930 . S
O91 Co60 2.037 . S
O91 C111 1.234 . S
C92 O66 1.269 . S
C92 O67 1.257 . S
C93 H68 0.930 . S
C93 C96 1.388 . S
C93 C98 1.418 . S
C94 H89 0.930 . S
C94 C97 1.404 . S
C94 C98 1.353 . S
N95 Co60 2.145 . S
N95 C96 1.397 . S
N95 C97 1.334 . S
C96 H77 0.929 . S
C96 C93 1.388 . S
C96 N95 1.397 . S
C97 H78 0.929 . S
C97 C94 1.404 . S
C97 N95 1.334 . S
C98 H90 0.930 . S
C98 C93 1.418 . S
C98 C94 1.353 . S
C99 H69 0.930 . S
C99 N100 1.330 . S
C99 C101 1.446 . S
N100 Co59 2.151 . S
N100 C99 1.330 . S
N100 C104 1.418 . S
C101 H80 0.929 . S
C101 C99 1.446 . S
C101 C102 1.332 . S
C102 H82 0.931 . S
C102 C101 1.332 . S
C102 C103 1.267 . S
C103 H71 0.929 . S
C103 C102 1.267 . S
C103 C104 1.251 . S
C104 H74 0.929 . S
C104 N100 1.418 . S
C104 C103 1.251 . S
C105 H72 0.930 . S
C105 C107 1.406 . S
C105 C110 1.261 . S
C106 H73 0.930 . S
C106 N108 1.325 . S
C106 C109 1.357 . S
C107 H75 0.928 . S
C107 C105 1.406 . S
C107 N108 1.261 . S
N108 Co59 2.214 . S
N108 C106 1.325 . S
N108 C107 1.261 . S
C109 H79 0.931 . S
C109 C106 1.357 . S
C109 C110 1.312 . S
C110 H81 0.930 . S
C110 C105 1.261 . S
C110 C109 1.312 . S
C111 O83 1.214 . S
C111 O91 1.234 . S
C112 H84 0.929 . S
C112 C115 1.391 . S
C112 C117 1.391 . S
C113 H85 0.929 . S
C113 C114 1.390 . S
C113 N116 1.391 . S
C114 H86 0.930 . S
C114 C113 1.390 . S
C114 C115 1.392 . S
C115 H87 0.929 . S
C115 C112 1.391 . S
C115 C114 1.392 . S
N116 Co60 2.257 . S
N116 C113 1.391 . S
N116 C117 1.388 . S
C117 H88 0.930 . S
C117 C112 1.391 . S
C117 N116 1.388 . S
Co118 O120 2.143 . S
Co118 O126 2.074 . S
Co118 O129 2.093 . S
Co118 O142 2.097 . S
Co118 N159 2.151 . S
Co118 N167 2.214 . S
Co119 O120 2.160 . S
Co119 O125 2.058 . S
Co119 O135 2.057 . S
Co119 O150 2.037 . S
Co119 N154 2.145 . S
Co119 N175 2.257 . S
O120 Co118 2.143 . S
O120 Co119 2.160 . S
C121 O122 1.278 . S
C121 O129 1.224 . S
O122 C121 1.278 . S
C123 O124 1.245 . S
C123 O135 1.232 . S
O124 C123 1.245 . S
O125 Co119 2.058 . S
O125 C151 1.269 . S
O126 Co118 2.074 . S
O126 C151 1.257 . S
H127 C152 0.930 . S
H128 C158 0.930 . S
O129 Co118 2.093 . S
O129 C121 1.224 . S
H130 C162 0.929 . S
H131 C164 0.930 . S
H132 C165 0.930 . S
H133 C163 0.929 . S
H134 C166 0.928 . S
O135 Co119 2.057 . S
O135 C123 1.232 . S
H136 C155 0.929 . S
H137 C156 0.929 . S
H138 C168 0.931 . S
H139 C160 0.929 . S
H140 C169 0.930 . S
H141 C161 0.931 . S
O142 Co118 2.097 . S
O142 C170 1.214 . S
H143 C171 0.929 . S
H144 C172 0.929 . S
H145 C173 0.930 . S
H146 C174 0.929 . S
H147 C176 0.930 . S
H148 C153 0.930 . S
H149 C157 0.930 . S
O150 Co119 2.037 . S
O150 C170 1.234 . S
C151 O125 1.269 . S
C151 O126 1.257 . S
C152 H127 0.930 . S
C152 C155 1.388 . S
C152 C157 1.418 . S
C153 H148 0.930 . S
C153 C156 1.404 . S
C153 C157 1.353 . S
N154 Co119 2.145 . S
N154 C155 1.397 . S
N154 C156 1.334 . S
C155 H136 0.929 . S
C155 C152 1.388 . S
C155 N154 1.397 . S
C156 H137 0.929 . S
C156 C153 1.404 . S
C156 N154 1.334 . S
C157 H149 0.930 . S
C157 C152 1.418 . S
C157 C153 1.353 . S
C158 H128 0.930 . S
C158 N159 1.330 . S
C158 C160 1.446 . S
N159 Co118 2.151 . S
N159 C158 1.330 . S
N159 C163 1.418 . S
C160 H139 0.929 . S
C160 C158 1.446 . S
C160 C161 1.332 . S
C161 H141 0.931 . S
C161 C160 1.332 . S
C161 C162 1.267 . S
C162 H130 0.929 . S
C162 C161 1.267 . S
C162 C163 1.251 . S
C163 H133 0.929 . S
C163 N159 1.418 . S
C163 C162 1.251 . S
C164 H131 0.930 . S
C164 C166 1.406 . S
C164 C169 1.261 . S
C165 H132 0.930 . S
C165 N167 1.325 . S
C165 C168 1.357 . S
C166 H134 0.928 . S
C166 C164 1.406 . S
C166 N167 1.261 . S
N167 Co118 2.214 . S
N167 C165 1.325 . S
N167 C166 1.261 . S
C168 H138 0.931 . S
C168 C165 1.357 . S
C168 C169 1.312 . S
C169 H140 0.930 . S
C169 C164 1.261 . S
C169 C168 1.312 . S
C170 O142 1.214 . S
C170 O150 1.234 . S
C171 H143 0.929 . S
C171 C174 1.391 . S
C171 C176 1.391 . S
C172 H144 0.929 . S
C172 C173 1.390 . S
C172 N175 1.391 . S
C173 H145 0.930 . S
C173 C172 1.390 . S
C173 C174 1.392 . S
C174 H146 0.929 . S
C174 C171 1.391 . S
C174 C173 1.392 . S
N175 Co119 2.257 . S
N175 C172 1.391 . S
N175 C176 1.388 . S
C176 H147 0.930 . S
C176 C171 1.391 . S
C176 N175 1.388 . S
Co177 O179 2.143 . S
Co177 O185 2.074 . S
Co177 O188 2.093 . S
Co177 O201 2.097 . S
Co177 N218 2.151 . S
Co177 N226 2.214 . S
Co178 O179 2.160 . S
Co178 O184 2.058 . S
Co178 O194 2.057 . S
Co178 O209 2.037 . S
Co178 N213 2.145 . S
Co178 N234 2.257 . S
O179 Co177 2.143 . S
O179 Co178 2.160 . S
C180 O181 1.278 . S
C180 O188 1.224 . S
O181 C180 1.278 . S
C182 O183 1.245 . S
C182 O194 1.232 . S
O183 C182 1.245 . S
O184 Co178 2.058 . S
O184 C210 1.269 . S
O185 Co177 2.074 . S
O185 C210 1.257 . S
H186 C211 0.930 . S
H187 C217 0.930 . S
O188 Co177 2.093 . S
O188 C180 1.224 . S
H189 C221 0.929 . S
H190 C223 0.930 . S
H191 C224 0.930 . S
H192 C222 0.929 . S
H193 C225 0.928 . S
O194 Co178 2.057 . S
O194 C182 1.232 . S
H195 C214 0.929 . S
H196 C215 0.929 . S
H197 C227 0.931 . S
H198 C219 0.929 . S
H199 C228 0.930 . S
H200 C220 0.931 . S
O201 Co177 2.097 . S
O201 C229 1.214 . S
H202 C230 0.929 . S
H203 C231 0.929 . S
H204 C232 0.930 . S
H205 C233 0.929 . S
H206 C235 0.930 . S
H207 C212 0.930 . S
H208 C216 0.930 . S
O209 Co178 2.037 . S
O209 C229 1.234 . S
C210 O184 1.269 . S
C210 O185 1.257 . S
C211 H186 0.930 . S
C211 C214 1.388 . S
C211 C216 1.418 . S
C212 H207 0.930 . S
C212 C215 1.404 . S
C212 C216 1.353 . S
N213 Co178 2.145 . S
N213 C214 1.397 . S
N213 C215 1.334 . S
C214 H195 0.929 . S
C214 C211 1.388 . S
C214 N213 1.397 . S
C215 H196 0.929 . S
C215 C212 1.404 . S
C215 N213 1.334 . S
C216 H208 0.930 . S
C216 C211 1.418 . S
C216 C212 1.353 . S
C217 H187 0.930 . S
C217 N218 1.330 . S
C217 C219 1.446 . S
N218 Co177 2.151 . S
N218 C217 1.330 . S
N218 C222 1.418 . S
C219 H198 0.929 . S
C219 C217 1.446 . S
C219 C220 1.332 . S
C220 H200 0.931 . S
C220 C219 1.332 . S
C220 C221 1.267 . S
C221 H189 0.929 . S
C221 C220 1.267 . S
C221 C222 1.251 . S
C222 H192 0.929 . S
C222 N218 1.418 . S
C222 C221 1.251 . S
C223 H190 0.930 . S
C223 C225 1.406 . S
C223 C228 1.261 . S
C224 H191 0.930 . S
C224 N226 1.325 . S
C224 C227 1.357 . S
C225 H193 0.928 . S
C225 C223 1.406 . S
C225 N226 1.261 . S
N226 Co177 2.214 . S
N226 C224 1.325 . S
N226 C225 1.261 . S
C227 H197 0.931 . S
C227 C224 1.357 . S
C227 C228 1.312 . S
C228 H199 0.930 . S
C228 C223 1.261 . S
C228 C227 1.312 . S
C229 O201 1.214 . S
C229 O209 1.234 . S
C230 H202 0.929 . S
C230 C233 1.391 . S
C230 C235 1.391 . S
C231 H203 0.929 . S
C231 C232 1.390 . S
C231 N234 1.391 . S
C232 H204 0.930 . S
C232 C231 1.390 . S
C232 C233 1.392 . S
C233 H205 0.929 . S
C233 C230 1.391 . S
C233 C232 1.392 . S
N234 Co178 2.257 . S
N234 C231 1.391 . S
N234 C235 1.388 . S
C235 H206 0.930 . S
C235 C230 1.391 . S
C235 N234 1.388 . S
Co236 O238 2.143 . S
Co236 O244 2.074 . S
Co236 O247 2.093 . S
Co236 O260 2.097 . S
Co236 N277 2.151 . S
Co236 N285 2.214 . S
Co237 O238 2.160 . S
Co237 O243 2.058 . S
Co237 O253 2.057 . S
Co237 O268 2.037 . S
Co237 N272 2.145 . S
Co237 N293 2.257 . S
O238 Co236 2.143 . S
O238 Co237 2.160 . S
C239 O240 1.278 . S
C239 O247 1.224 . S
O240 C239 1.278 . S
C241 O242 1.245 . S
C241 O253 1.232 . S
O242 C241 1.245 . S
O243 Co237 2.058 . S
O243 C269 1.269 . S
O244 Co236 2.074 . S
O244 C269 1.257 . S
H245 C270 0.930 . S
H246 C276 0.930 . S
O247 Co236 2.093 . S
O247 C239 1.224 . S
H248 C280 0.929 . S
H249 C282 0.930 . S
H250 C283 0.930 . S
H251 C281 0.929 . S
H252 C284 0.928 . S
O253 Co237 2.057 . S
O253 C241 1.232 . S
H254 C273 0.929 . S
H255 C274 0.929 . S
H256 C286 0.931 . S
H257 C278 0.929 . S
H258 C287 0.930 . S
H259 C279 0.931 . S
O260 Co236 2.097 . S
O260 C288 1.214 . S
H261 C289 0.929 . S
H262 C290 0.929 . S
H263 C291 0.930 . S
H264 C292 0.929 . S
H265 C294 0.930 . S
H266 C271 0.930 . S
H267 C275 0.930 . S
O268 Co237 2.037 . S
O268 C288 1.234 . S
C269 O243 1.269 . S
C269 O244 1.257 . S
C270 H245 0.930 . S
C270 C273 1.388 . S
C270 C275 1.418 . S
C271 H266 0.930 . S
C271 C274 1.404 . S
C271 C275 1.353 . S
N272 Co237 2.145 . S
N272 C273 1.397 . S
N272 C274 1.334 . S
C273 H254 0.929 . S
C273 C270 1.388 . S
C273 N272 1.397 . S
C274 H255 0.929 . S
C274 C271 1.404 . S
C274 N272 1.334 . S
C275 H267 0.930 . S
C275 C270 1.418 . S
C275 C271 1.353 . S
C276 H246 0.930 . S
C276 N277 1.330 . S
C276 C278 1.446 . S
N277 Co236 2.151 . S
N277 C276 1.330 . S
N277 C281 1.418 . S
C278 H257 0.929 . S
C278 C276 1.446 . S
C278 C279 1.332 . S
C279 H259 0.931 . S
C279 C278 1.332 . S
C279 C280 1.267 . S
C280 H248 0.929 . S
C280 C279 1.267 . S
C280 C281 1.251 . S
C281 H251 0.929 . S
C281 N277 1.418 . S
C281 C280 1.251 . S
C282 H249 0.930 . S
C282 C284 1.406 . S
C282 C287 1.261 . S
C283 H250 0.930 . S
C283 N285 1.325 . S
C283 C286 1.357 . S
C284 H252 0.928 . S
C284 C282 1.406 . S
C284 N285 1.261 . S
N285 Co236 2.214 . S
N285 C283 1.325 . S
N285 C284 1.261 . S
C286 H256 0.931 . S
C286 C283 1.357 . S
C286 C287 1.312 . S
C287 H258 0.930 . S
C287 C282 1.261 . S
C287 C286 1.312 . S
C288 O260 1.214 . S
C288 O268 1.234 . S
C289 H261 0.929 . S
C289 C292 1.391 . S
C289 C294 1.391 . S
C290 H262 0.929 . S
C290 C291 1.390 . S
C290 N293 1.391 . S
C291 H263 0.930 . S
C291 C290 1.390 . S
C291 C292 1.392 . S
C292 H264 0.929 . S
C292 C289 1.391 . S
C292 C291 1.392 . S
N293 Co237 2.257 . S
N293 C290 1.391 . S
N293 C294 1.388 . S
C294 H265 0.930 . S
C294 C289 1.391 . S
C294 N293 1.388 . S
Co295 O297 2.143 . S
Co295 O303 2.074 . S
Co295 O306 2.093 . S
Co295 O319 2.097 . S
Co295 N336 2.151 . S
Co295 N344 2.214 . S
Co296 O297 2.160 . S
Co296 O302 2.058 . S
Co296 O312 2.057 . S
Co296 O327 2.037 . S
Co296 N331 2.145 . S
Co296 N352 2.257 . S
O297 Co295 2.143 . S
O297 Co296 2.160 . S
C298 O299 1.278 . S
C298 O306 1.224 . S
O299 C298 1.278 . S
C300 O301 1.245 . S
C300 O312 1.232 . S
O301 C300 1.245 . S
O302 Co296 2.058 . S
O302 C328 1.269 . S
O303 Co295 2.074 . S
O303 C328 1.257 . S
H304 C329 0.930 . S
H305 C335 0.930 . S
O306 Co295 2.093 . S
O306 C298 1.224 . S
H307 C339 0.929 . S
H308 C341 0.930 . S
H309 C342 0.930 . S
H310 C340 0.929 . S
H311 C343 0.928 . S
O312 Co296 2.057 . S
O312 C300 1.232 . S
H313 C332 0.929 . S
H314 C333 0.929 . S
H315 C345 0.931 . S
H316 C337 0.929 . S
H317 C346 0.930 . S
H318 C338 0.931 . S
O319 Co295 2.097 . S
O319 C347 1.214 . S
H320 C348 0.929 . S
H321 C349 0.929 . S
H322 C350 0.930 . S
H323 C351 0.929 . S
H324 C353 0.930 . S
H325 C330 0.930 . S
H326 C334 0.930 . S
O327 Co296 2.037 . S
O327 C347 1.234 . S
C328 O302 1.269 . S
C328 O303 1.257 . S
C329 H304 0.930 . S
C329 C332 1.388 . S
C329 C334 1.418 . S
C330 H325 0.930 . S
C330 C333 1.404 . S
C330 C334 1.353 . S
N331 Co296 2.145 . S
N331 C332 1.397 . S
N331 C333 1.334 . S
C332 H313 0.929 . S
C332 C329 1.388 . S
C332 N331 1.397 . S
C333 H314 0.929 . S
C333 C330 1.404 . S
C333 N331 1.334 . S
C334 H326 0.930 . S
C334 C329 1.418 . S
C334 C330 1.353 . S
C335 H305 0.930 . S
C335 N336 1.330 . S
C335 C337 1.446 . S
N336 Co295 2.151 . S
N336 C335 1.330 . S
N336 C340 1.418 . S
C337 H316 0.929 . S
C337 C335 1.446 . S
C337 C338 1.332 . S
C338 H318 0.931 . S
C338 C337 1.332 . S
C338 C339 1.267 . S
C339 H307 0.929 . S
C339 C338 1.267 . S
C339 C340 1.251 . S
C340 H310 0.929 . S
C340 N336 1.418 . S
C340 C339 1.251 . S
C341 H308 0.930 . S
C341 C343 1.406 . S
C341 C346 1.261 . S
C342 H309 0.930 . S
C342 N344 1.325 . S
C342 C345 1.357 . S
C343 H311 0.928 . S
C343 C341 1.406 . S
C343 N344 1.261 . S
N344 Co295 2.214 . S
N344 C342 1.325 . S
N344 C343 1.261 . S
C345 H315 0.931 . S
C345 C342 1.357 . S
C345 C346 1.312 . S
C346 H317 0.930 . S
C346 C341 1.261 . S
C346 C345 1.312 . S
C347 O319 1.214 . S
C347 O327 1.234 . S
C348 H320 0.929 . S
C348 C351 1.391 . S
C348 C353 1.391 . S
C349 H321 0.929 . S
C349 C350 1.390 . S
C349 N352 1.391 . S
C350 H322 0.930 . S
C350 C349 1.390 . S
C350 C351 1.392 . S
C351 H323 0.929 . S
C351 C348 1.391 . S
C351 C350 1.392 . S
N352 Co296 2.257 . S
N352 C349 1.391 . S
N352 C353 1.388 . S
C353 H324 0.930 . S
C353 C348 1.391 . S
C353 N352 1.388 . S
Co354 O356 2.143 . S
Co354 O362 2.074 . S
Co354 O365 2.093 . S
Co354 O378 2.097 . S
Co354 N395 2.151 . S
Co354 N403 2.214 . S
Co355 O356 2.160 . S
Co355 O361 2.058 . S
Co355 O371 2.057 . S
Co355 O386 2.037 . S
Co355 N390 2.145 . S
Co355 N411 2.257 . S
O356 Co354 2.143 . S
O356 Co355 2.160 . S
C357 O358 1.278 . S
C357 O365 1.224 . S
O358 C357 1.278 . S
C359 O360 1.245 . S
C359 O371 1.232 . S
O360 C359 1.245 . S
O361 Co355 2.058 . S
O361 C387 1.269 . S
O362 Co354 2.074 . S
O362 C387 1.257 . S
H363 C388 0.930 . S
H364 C394 0.930 . S
O365 Co354 2.093 . S
O365 C357 1.224 . S
H366 C398 0.929 . S
H367 C400 0.930 . S
H368 C401 0.930 . S
H369 C399 0.929 . S
H370 C402 0.928 . S
O371 Co355 2.057 . S
O371 C359 1.232 . S
H372 C391 0.929 . S
H373 C392 0.929 . S
H374 C404 0.931 . S
H375 C396 0.929 . S
H376 C405 0.930 . S
H377 C397 0.931 . S
O378 Co354 2.097 . S
O378 C406 1.214 . S
H379 C407 0.929 . S
H380 C408 0.929 . S
H381 C409 0.930 . S
H382 C410 0.929 . S
H383 C412 0.930 . S
H384 C389 0.930 . S
H385 C393 0.930 . S
O386 Co355 2.037 . S
O386 C406 1.234 . S
C387 O361 1.269 . S
C387 O362 1.257 . S
C388 H363 0.930 . S
C388 C391 1.388 . S
C388 C393 1.418 . S
C389 H384 0.930 . S
C389 C392 1.404 . S
C389 C393 1.353 . S
N390 Co355 2.145 . S
N390 C391 1.397 . S
N390 C392 1.334 . S
C391 H372 0.929 . S
C391 C388 1.388 . S
C391 N390 1.397 . S
C392 H373 0.929 . S
C392 C389 1.404 . S
C392 N390 1.334 . S
C393 H385 0.930 . S
C393 C388 1.418 . S
C393 C389 1.353 . S
C394 H364 0.930 . S
C394 N395 1.330 . S
C394 C396 1.446 . S
N395 Co354 2.151 . S
N395 C394 1.330 . S
N395 C399 1.418 . S
C396 H375 0.929 . S
C396 C394 1.446 . S
C396 C397 1.332 . S
C397 H377 0.931 . S
C397 C396 1.332 . S
C397 C398 1.267 . S
C398 H366 0.929 . S
C398 C397 1.267 . S
C398 C399 1.251 . S
C399 H369 0.929 . S
C399 N395 1.418 . S
C399 C398 1.251 . S
C400 H367 0.930 . S
C400 C402 1.406 . S
C400 C405 1.261 . S
C401 H368 0.930 . S
C401 N403 1.325 . S
C401 C404 1.357 . S
C402 H370 0.928 . S
C402 C400 1.406 . S
C402 N403 1.261 . S
N403 Co354 2.214 . S
N403 C401 1.325 . S
N403 C402 1.261 . S
C404 H374 0.931 . S
C404 C401 1.357 . S
C404 C405 1.312 . S
C405 H376 0.930 . S
C405 C400 1.261 . S
C405 C404 1.312 . S
C406 O378 1.214 . S
C406 O386 1.234 . S
C407 H379 0.929 . S
C407 C410 1.391 . S
C407 C412 1.391 . S
C408 H380 0.929 . S
C408 C409 1.390 . S
C408 N411 1.391 . S
C409 H381 0.930 . S
C409 C408 1.390 . S
C409 C410 1.392 . S
C410 H382 0.929 . S
C410 C407 1.391 . S
C410 C409 1.392 . S
N411 Co355 2.257 . S
N411 C408 1.391 . S
N411 C412 1.388 . S
C412 H383 0.930 . S
C412 C407 1.391 . S
C412 N411 1.388 . S
Co413 O415 2.143 . S
Co413 O421 2.074 . S
Co413 O424 2.093 . S
Co413 O437 2.097 . S
Co413 N454 2.151 . S
Co413 N462 2.214 . S
Co414 O415 2.160 . S
Co414 O420 2.058 . S
Co414 O430 2.057 . S
Co414 O445 2.037 . S
Co414 N449 2.145 . S
Co414 N470 2.257 . S
O415 Co413 2.143 . S
O415 Co414 2.160 . S
C416 O417 1.278 . S
C416 O424 1.224 . S
O417 C416 1.278 . S
C418 O419 1.245 . S
C418 O430 1.232 . S
O419 C418 1.245 . S
O420 Co414 2.058 . S
O420 C446 1.269 . S
O421 Co413 2.074 . S
O421 C446 1.257 . S
H422 C447 0.930 . S
H423 C453 0.930 . S
O424 Co413 2.093 . S
O424 C416 1.224 . S
H425 C457 0.929 . S
H426 C459 0.930 . S
H427 C460 0.930 . S
H428 C458 0.929 . S
H429 C461 0.928 . S
O430 Co414 2.057 . S
O430 C418 1.232 . S
H431 C450 0.929 . S
H432 C451 0.929 . S
H433 C463 0.931 . S
H434 C455 0.929 . S
H435 C464 0.930 . S
H436 C456 0.931 . S
O437 Co413 2.097 . S
O437 C465 1.214 . S
H438 C466 0.929 . S
H439 C467 0.929 . S
H440 C468 0.930 . S
H441 C469 0.929 . S
H442 C471 0.930 . S
H443 C448 0.930 . S
H444 C452 0.930 . S
O445 Co414 2.037 . S
O445 C465 1.234 . S
C446 O420 1.269 . S
C446 O421 1.257 . S
C447 H422 0.930 . S
C447 C450 1.388 . S
C447 C452 1.418 . S
C448 H443 0.930 . S
C448 C451 1.404 . S
C448 C452 1.353 . S
N449 Co414 2.145 . S
N449 C450 1.397 . S
N449 C451 1.334 . S
C450 H431 0.929 . S
C450 C447 1.388 . S
C450 N449 1.397 . S
C451 H432 0.929 . S
C451 C448 1.404 . S
C451 N449 1.334 . S
C452 H444 0.930 . S
C452 C447 1.418 . S
C452 C448 1.353 . S
C453 H423 0.930 . S
C453 N454 1.330 . S
C453 C455 1.446 . S
N454 Co413 2.151 . S
N454 C453 1.330 . S
N454 C458 1.418 . S
C455 H434 0.929 . S
C455 C453 1.446 . S
C455 C456 1.332 . S
C456 H436 0.931 . S
C456 C455 1.332 . S
C456 C457 1.267 . S
C457 H425 0.929 . S
C457 C456 1.267 . S
C457 C458 1.251 . S
C458 H428 0.929 . S
C458 N454 1.418 . S
C458 C457 1.251 . S
C459 H426 0.930 . S
C459 C461 1.406 . S
C459 C464 1.261 . S
C460 H427 0.930 . S
C460 N462 1.325 . S
C460 C463 1.357 . S
C461 H429 0.928 . S
C461 C459 1.406 . S
C461 N462 1.261 . S
N462 Co413 2.214 . S
N462 C460 1.325 . S
N462 C461 1.261 . S
C463 H433 0.931 . S
C463 C460 1.357 . S
C463 C464 1.312 . S
C464 H435 0.930 . S
C464 C459 1.261 . S
C464 C463 1.312 . S
C465 O437 1.214 . S
C465 O445 1.234 . S
C466 H438 0.929 . S
C466 C469 1.391 . S
C466 C471 1.391 . S
C467 H439 0.929 . S
C467 C468 1.390 . S
C467 N470 1.391 . S
C468 H440 0.930 . S
C468 C467 1.390 . S
C468 C469 1.392 . S
C469 H441 0.929 . S
C469 C466 1.391 . S
C469 C468 1.392 . S
N470 Co414 2.257 . S
N470 C467 1.391 . S
N470 C471 1.388 . S
C471 H442 0.930 . S
C471 C466 1.391 . S
C471 N470 1.388 . S
Co472 O474 2.143 . S
Co472 O480 2.074 . S
Co472 O483 2.093 . S
Co472 O496 2.097 . S
Co472 N513 2.151 . S
Co472 N521 2.214 . S
Co473 O474 2.160 . S
Co473 O479 2.058 . S
Co473 O489 2.057 . S
Co473 O504 2.037 . S
Co473 N508 2.145 . S
Co473 N529 2.257 . S
O474 Co472 2.143 . S
O474 Co473 2.160 . S
C475 O476 1.278 . S
C475 O483 1.224 . S
O476 C475 1.278 . S
C477 O478 1.245 . S
C477 O489 1.232 . S
O478 C477 1.245 . S
O479 Co473 2.058 . S
O479 C505 1.269 . S
O480 Co472 2.074 . S
O480 C505 1.257 . S
H481 C506 0.930 . S
H482 C512 0.930 . S
O483 Co472 2.093 . S
O483 C475 1.224 . S
H484 C516 0.929 . S
H485 C518 0.930 . S
H486 C519 0.930 . S
H487 C517 0.929 . S
H488 C520 0.928 . S
O489 Co473 2.057 . S
O489 C477 1.232 . S
H490 C509 0.929 . S
H491 C510 0.929 . S
H492 C522 0.931 . S
H493 C514 0.929 . S
H494 C523 0.930 . S
H495 C515 0.931 . S
O496 Co472 2.097 . S
O496 C524 1.214 . S
H497 C525 0.929 . S
H498 C526 0.924 1_545 S
H499 C527 0.930 . S
H500 C528 0.929 . S
H501 C530 0.930 . S
H502 C507 0.930 . S
H503 C511 0.930 . S
O504 Co473 2.037 . S
O504 C524 1.234 . S
C505 O479 1.269 . S
C505 O480 1.257 . S
C506 H481 0.930 . S
C506 C509 1.388 . S
C506 C511 1.418 . S
C507 H502 0.930 . S
C507 C510 1.404 . S
C507 C511 1.353 . S
N508 Co473 2.145 . S
N508 C509 1.397 . S
N508 C510 1.334 . S
C509 H490 0.929 . S
C509 C506 1.388 . S
C509 N508 1.397 . S
C510 H491 0.929 . S
C510 C507 1.404 . S
C510 N508 1.334 . S
C511 H503 0.930 . S
C511 C506 1.418 . S
C511 C507 1.353 . S
C512 H482 0.930 . S
C512 N513 1.330 . S
C512 C514 1.446 . S
N513 Co472 2.151 . S
N513 C512 1.330 . S
N513 C517 1.418 . S
C514 H493 0.929 . S
C514 C512 1.446 . S
C514 C515 1.332 . S
C515 H495 0.931 . S
C515 C514 1.332 . S
C515 C516 1.267 . S
C516 H484 0.929 . S
C516 C515 1.267 . S
C516 C517 1.251 . S
C517 H487 0.929 . S
C517 N513 1.418 . S
C517 C516 1.251 . S
C518 H485 0.930 . S
C518 C520 1.406 . S
C518 C523 1.261 . S
C519 H486 0.930 . S
C519 N521 1.325 . S
C519 C522 1.357 . S
C520 H488 0.928 . S
C520 C518 1.406 . S
C520 N521 1.261 . S
N521 Co472 2.214 . S
N521 C519 1.325 . S
N521 C520 1.261 . S
C522 H492 0.931 . S
C522 C519 1.357 . S
C522 C523 1.312 . S
C523 H494 0.930 . S
C523 C518 1.261 . S
C523 C522 1.312 . S
C524 O496 1.214 . S
C524 O504 1.234 . S
C525 H497 0.929 . S
C525 C528 1.391 1_565 S
C525 C530 1.391 . S
C526 H498 0.924 1_565 S
C526 C527 1.368 1_565 S
C526 N529 1.420 . S
C527 H499 0.930 . S
C527 C526 1.368 1_545 S
C527 C528 1.392 . S
C528 H500 0.929 . S
C528 C525 1.391 1_545 S
C528 C527 1.392 . S
N529 Co473 2.257 . S
N529 C526 1.420 . S
N529 C530 1.388 . S
C530 H501 0.930 . S
C530 C525 1.391 . S
C530 N529 1.388 . S
Co531 O533 2.143 . S
Co531 O539 2.074 . S
Co531 O542 2.093 . S
Co531 O555 2.097 . S
Co531 N572 2.151 . S
Co531 N580 2.214 . S
Co532 O533 2.160 . S
Co532 O538 2.058 . S
Co532 O548 2.057 . S
Co532 O563 2.037 . S
Co532 N567 2.145 . S
Co532 N588 2.257 . S
O533 Co531 2.143 . S
O533 Co532 2.160 . S
C534 O535 1.278 . S
C534 O542 1.224 . S
O535 C534 1.278 . S
C536 O537 1.245 . S
C536 O548 1.232 . S
O537 C536 1.245 . S
O538 Co532 2.058 . S
O538 C564 1.269 . S
O539 Co531 2.074 . S
O539 C564 1.257 . S
H540 C565 0.930 . S
H541 C571 0.930 . S
O542 Co531 2.093 . S
O542 C534 1.224 . S
H543 C575 0.929 . S
H544 C577 0.930 . S
H545 C578 0.930 . S
H546 C576 0.929 . S
H547 C579 0.928 . S
O548 Co532 2.057 . S
O548 C536 1.232 . S
H549 C568 0.929 . S
H550 C569 0.929 . S
H551 C581 0.931 . S
H552 C573 0.929 . S
H553 C582 0.930 . S
H554 C574 0.931 . S
O555 Co531 2.097 . S
O555 C583 1.214 . S
H556 C584 0.929 . S
H557 C585 0.924 1_455 S
H558 C586 0.930 . S
H559 C587 0.929 . S
H560 C589 0.930 . S
H561 C566 0.930 . S
H562 C570 0.930 . S
O563 Co532 2.037 . S
O563 C583 1.234 . S
C564 O538 1.269 . S
C564 O539 1.257 . S
C565 H540 0.930 . S
C565 C568 1.388 . S
C565 C570 1.418 . S
C566 H561 0.930 . S
C566 C569 1.404 . S
C566 C570 1.353 . S
N567 Co532 2.145 . S
N567 C568 1.397 . S
N567 C569 1.334 . S
C568 H549 0.929 . S
C568 C565 1.388 . S
C568 N567 1.397 . S
C569 H550 0.929 . S
C569 C566 1.404 . S
C569 N567 1.334 . S
C570 H562 0.930 . S
C570 C565 1.418 . S
C570 C566 1.353 . S
C571 H541 0.930 . S
C571 N572 1.330 . S
C571 C573 1.446 . S
N572 Co531 2.151 . S
N572 C571 1.330 . S
N572 C576 1.418 . S
C573 H552 0.929 . S
C573 C571 1.446 . S
C573 C574 1.332 . S
C574 H554 0.931 . S
C574 C573 1.332 . S
C574 C575 1.267 . S
C575 H543 0.929 . S
C575 C574 1.267 . S
C575 C576 1.251 . S
C576 H546 0.929 . S
C576 N572 1.418 . S
C576 C575 1.251 . S
C577 H544 0.930 . S
C577 C579 1.406 . S
C577 C582 1.261 . S
C578 H545 0.930 . S
C578 N580 1.325 . S
C578 C581 1.357 . S
C579 H547 0.928 . S
C579 C577 1.406 . S
C579 N580 1.261 . S
N580 Co531 2.214 . S
N580 C578 1.325 . S
N580 C579 1.261 . S
C581 H551 0.931 . S
C581 C578 1.357 . S
C581 C582 1.312 . S
C582 H553 0.930 . S
C582 C577 1.261 . S
C582 C581 1.312 . S
C583 O555 1.214 . S
C583 O563 1.234 . S
C584 H556 0.929 . S
C584 C587 1.391 1_655 S
C584 C589 1.391 . S
C585 H557 0.924 1_655 S
C585 C586 1.368 1_655 S
C585 N588 1.420 . S
C586 H558 0.930 . S
C586 C585 1.368 1_455 S
C586 C587 1.392 . S
C587 H559 0.929 . S
C587 C584 1.391 1_455 S
C587 C586 1.392 . S
N588 Co532 2.257 . S
N588 C585 1.420 . S
N588 C589 1.388 . S
C589 H560 0.930 . S
C589 C584 1.391 . S
C589 N588 1.388 . S
Co590 O592 2.143 . S
Co590 O598 2.074 . S
Co590 O601 2.093 . S
Co590 O614 2.097 . S
Co590 N631 2.151 . S
Co590 N639 2.214 . S
Co591 O592 2.160 . S
Co591 O597 2.058 . S
Co591 O607 2.057 . S
Co591 O622 2.037 . S
Co591 N626 2.145 . S
Co591 N647 2.257 . S
O592 Co590 2.143 . S
O592 Co591 2.160 . S
C593 O594 1.278 . S
C593 O601 1.224 . S
O594 C593 1.278 . S
C595 O596 1.245 . S
C595 O607 1.232 . S
O596 C595 1.245 . S
O597 Co591 2.058 . S
O597 C623 1.269 . S
O598 Co590 2.074 . S
O598 C623 1.257 . S
H599 C624 0.930 . S
H600 C630 0.930 . S
O601 Co590 2.093 . S
O601 C593 1.224 . S
H602 C634 0.929 . S
H603 C636 0.930 . S
H604 C637 0.930 . S
H605 C635 0.929 . S
H606 C638 0.928 . S
O607 Co591 2.057 . S
O607 C595 1.232 . S
H608 C627 0.929 . S
H609 C628 0.929 . S
H610 C640 0.931 . S
H611 C632 0.929 . S
H612 C641 0.930 . S
H613 C633 0.931 . S
O614 Co590 2.097 . S
O614 C642 1.214 . S
H615 C643 0.929 . S
H616 C644 0.924 1_565 S
H617 C645 0.930 . S
H618 C646 0.929 . S
H619 C648 0.930 . S
H620 C625 0.930 . S
H621 C629 0.930 . S
O622 Co591 2.037 . S
O622 C642 1.234 . S
C623 O597 1.269 . S
C623 O598 1.257 . S
C624 H599 0.930 . S
C624 C627 1.388 . S
C624 C629 1.418 . S
C625 H620 0.930 . S
C625 C628 1.404 . S
C625 C629 1.353 . S
N626 Co591 2.145 . S
N626 C627 1.397 . S
N626 C628 1.334 . S
C627 H608 0.929 . S
C627 C624 1.388 . S
C627 N626 1.397 . S
C628 H609 0.929 . S
C628 C625 1.404 . S
C628 N626 1.334 . S
C629 H621 0.930 . S
C629 C624 1.418 . S
C629 C625 1.353 . S
C630 H600 0.930 . S
C630 N631 1.330 . S
C630 C632 1.446 . S
N631 Co590 2.151 . S
N631 C630 1.330 . S
N631 C635 1.418 . S
C632 H611 0.929 . S
C632 C630 1.446 . S
C632 C633 1.332 . S
C633 H613 0.931 . S
C633 C632 1.332 . S
C633 C634 1.267 . S
C634 H602 0.929 . S
C634 C633 1.267 . S
C634 C635 1.251 . S
C635 H605 0.929 . S
C635 N631 1.418 . S
C635 C634 1.251 . S
C636 H603 0.930 . S
C636 C638 1.406 . S
C636 C641 1.261 . S
C637 H604 0.930 . S
C637 N639 1.325 . S
C637 C640 1.357 . S
C638 H606 0.928 . S
C638 C636 1.406 . S
C638 N639 1.261 . S
N639 Co590 2.214 . S
N639 C637 1.325 . S
N639 C638 1.261 . S
C640 H610 0.931 . S
C640 C637 1.357 . S
C640 C641 1.312 . S
C641 H612 0.930 . S
C641 C636 1.261 . S
C641 C640 1.312 . S
C642 O614 1.214 . S
C642 O622 1.234 . S
C643 H615 0.929 . S
C643 C646 1.391 1_545 S
C643 C648 1.391 . S
C644 H616 0.924 1_545 S
C644 C645 1.368 1_545 S
C644 N647 1.420 . S
C645 H617 0.930 . S
C645 C644 1.368 1_565 S
C645 C646 1.392 . S
C646 H618 0.929 . S
C646 C643 1.391 1_565 S
C646 C645 1.392 . S
N647 Co591 2.257 . S
N647 C644 1.420 . S
N647 C648 1.388 . S
C648 H619 0.930 . S
C648 C643 1.391 . S
C648 N647 1.388 . S
Co649 O651 2.143 . S
Co649 O657 2.074 . S
Co649 O660 2.093 . S
Co649 O673 2.097 . S
Co649 N690 2.151 . S
Co649 N698 2.214 . S
Co650 O651 2.160 . S
Co650 O656 2.058 . S
Co650 O666 2.057 . S
Co650 O681 2.037 . S
Co650 N685 2.145 . S
Co650 N706 2.257 . S
O651 Co649 2.143 . S
O651 Co650 2.160 . S
C652 O653 1.278 . S
C652 O660 1.224 . S
O653 C652 1.278 . S
C654 O655 1.245 . S
C654 O666 1.232 . S
O655 C654 1.245 . S
O656 Co650 2.058 . S
O656 C682 1.269 . S
O657 Co649 2.074 . S
O657 C682 1.257 . S
H658 C683 0.930 . S
H659 C689 0.930 . S
O660 Co649 2.093 . S
O660 C652 1.224 . S
H661 C693 0.929 . S
H662 C695 0.930 . S
H663 C696 0.930 . S
H664 C694 0.929 . S
H665 C697 0.928 . S
O666 Co650 2.057 . S
O666 C654 1.232 . S
H667 C686 0.929 . S
H668 C687 0.929 . S
H669 C699 0.931 . S
H670 C691 0.929 . S
H671 C700 0.930 . S
H672 C692 0.931 . S
O673 Co649 2.097 . S
O673 C701 1.214 . S
H674 C702 0.929 . S
H675 C703 0.924 1_655 S
H676 C704 0.930 . S
H677 C705 0.929 . S
H678 C707 0.930 . S
H679 C684 0.930 . S
H680 C688 0.930 . S
O681 Co650 2.037 . S
O681 C701 1.234 . S
C682 O656 1.269 . S
C682 O657 1.257 . S
C683 H658 0.930 . S
C683 C686 1.388 . S
C683 C688 1.418 . S
C684 H679 0.930 . S
C684 C687 1.404 . S
C684 C688 1.353 . S
N685 Co650 2.145 . S
N685 C686 1.397 . S
N685 C687 1.334 . S
C686 H667 0.929 . S
C686 C683 1.388 . S
C686 N685 1.397 . S
C687 H668 0.929 . S
C687 C684 1.404 . S
C687 N685 1.334 . S
C688 H680 0.930 . S
C688 C683 1.418 . S
C688 C684 1.353 . S
C689 H659 0.930 . S
C689 N690 1.330 . S
C689 C691 1.446 . S
N690 Co649 2.151 . S
N690 C689 1.330 . S
N690 C694 1.418 . S
C691 H670 0.929 . S
C691 C689 1.446 . S
C691 C692 1.332 . S
C692 H672 0.931 . S
C692 C691 1.332 . S
C692 C693 1.267 . S
C693 H661 0.929 . S
C693 C692 1.267 . S
C693 C694 1.251 . S
C694 H664 0.929 . S
C694 N690 1.418 . S
C694 C693 1.251 . S
C695 H662 0.930 . S
C695 C697 1.406 . S
C695 C700 1.261 . S
C696 H663 0.930 . S
C696 N698 1.325 . S
C696 C699 1.357 . S
C697 H665 0.928 . S
C697 C695 1.406 . S
C697 N698 1.261 . S
N698 Co649 2.214 . S
N698 C696 1.325 . S
N698 C697 1.261 . S
C699 H669 0.931 . S
C699 C696 1.357 . S
C699 C700 1.312 . S
C700 H671 0.930 . S
C700 C695 1.261 . S
C700 C699 1.312 . S
C701 O673 1.214 . S
C701 O681 1.234 . S
C702 H674 0.929 . S
C702 C705 1.391 1_455 S
C702 C707 1.391 . S
C703 H675 0.924 1_455 S
C703 C704 1.368 1_455 S
C703 N706 1.420 . S
C704 H676 0.930 . S
C704 C703 1.368 1_655 S
C704 C705 1.392 . S
C705 H677 0.929 . S
C705 C702 1.391 1_655 S
C705 C704 1.392 . S
N706 Co650 2.257 . S
N706 C703 1.420 . S
N706 C707 1.388 . S
C707 H678 0.930 . S
C707 C702 1.391 . S
C707 N706 1.388 . S
Co708 O710 2.143 . S
Co708 O716 2.074 . S
Co708 O719 2.093 . S
Co708 O732 2.097 . S
Co708 N749 2.151 . S
Co708 N757 2.214 . S
Co709 O710 2.160 . S
Co709 O715 2.058 . S
Co709 O725 2.057 . S
Co709 O740 2.037 . S
Co709 N744 2.145 . S
Co709 N765 2.257 . S
O710 Co708 2.143 . S
O710 Co709 2.160 . S
C711 O712 1.278 . S
C711 O719 1.224 . S
O712 C711 1.278 . S
C713 O714 1.245 . S
C713 O725 1.232 . S
O714 C713 1.245 . S
O715 Co709 2.058 . S
O715 C741 1.269 . S
O716 Co708 2.074 . S
O716 C741 1.257 . S
H717 C742 0.930 . S
H718 C748 0.930 . S
O719 Co708 2.093 . S
O719 C711 1.224 . S
H720 C752 0.929 . S
H721 C754 0.930 . S
H722 C755 0.930 . S
H723 C753 0.929 . S
H724 C756 0.928 . S
O725 Co709 2.057 . S
O725 C713 1.232 . S
H726 C745 0.929 . S
H727 C746 0.929 . S
H728 C758 0.931 . S
H729 C750 0.929 . S
H730 C759 0.930 . S
H731 C751 0.931 . S
O732 Co708 2.097 . S
O732 C760 1.214 . S
H733 C761 0.929 . S
H734 C762 0.924 1_565 S
H735 C763 0.930 . S
H736 C764 0.929 . S
H737 C766 0.930 . S
H738 C743 0.930 . S
H739 C747 0.930 . S
O740 Co709 2.037 . S
O740 C760 1.234 . S
C741 O715 1.269 . S
C741 O716 1.257 . S
C742 H717 0.930 . S
C742 C745 1.388 . S
C742 C747 1.418 . S
C743 H738 0.930 . S
C743 C746 1.404 . S
C743 C747 1.353 . S
N744 Co709 2.145 . S
N744 C745 1.397 . S
N744 C746 1.334 . S
C745 H726 0.929 . S
C745 C742 1.388 . S
C745 N744 1.397 . S
C746 H727 0.929 . S
C746 C743 1.404 . S
C746 N744 1.334 . S
C747 H739 0.930 . S
C747 C742 1.418 . S
C747 C743 1.353 . S
C748 H718 0.930 . S
C748 N749 1.330 . S
C748 C750 1.446 . S
N749 Co708 2.151 . S
N749 C748 1.330 . S
N749 C753 1.418 . S
C750 H729 0.929 . S
C750 C748 1.446 . S
C750 C751 1.332 . S
C751 H731 0.931 . S
C751 C750 1.332 . S
C751 C752 1.267 . S
C752 H720 0.929 . S
C752 C751 1.267 . S
C752 C753 1.251 . S
C753 H723 0.929 . S
C753 N749 1.418 . S
C753 C752 1.251 . S
C754 H721 0.930 . S
C754 C756 1.406 . S
C754 C759 1.261 . S
C755 H722 0.930 . S
C755 N757 1.325 . S
C755 C758 1.357 . S
C756 H724 0.928 . S
C756 C754 1.406 . S
C756 N757 1.261 . S
N757 Co708 2.214 . S
N757 C755 1.325 . S
N757 C756 1.261 . S
C758 H728 0.931 . S
C758 C755 1.357 . S
C758 C759 1.312 . S
C759 H730 0.930 . S
C759 C754 1.261 . S
C759 C758 1.312 . S
C760 O732 1.214 . S
C760 O740 1.234 . S
C761 H733 0.929 . S
C761 C764 1.391 1_545 S
C761 C766 1.391 . S
C762 H734 0.924 1_545 S
C762 C763 1.368 1_545 S
C762 N765 1.420 . S
C763 H735 0.930 . S
C763 C762 1.368 1_565 S
C763 C764 1.392 . S
C764 H736 0.929 . S
C764 C761 1.391 1_565 S
C764 C763 1.392 . S
N765 Co709 2.257 . S
N765 C762 1.420 . S
N765 C766 1.388 . S
C766 H737 0.930 . S
C766 C761 1.391 . S
C766 N765 1.388 . S
Co767 O769 2.143 . S
Co767 O775 2.074 . S
Co767 O778 2.093 . S
Co767 O791 2.097 . S
Co767 N808 2.151 . S
Co767 N816 2.214 . S
Co768 O769 2.160 . S
Co768 O774 2.058 . S
Co768 O784 2.057 . S
Co768 O799 2.037 . S
Co768 N803 2.145 . S
Co768 N824 2.257 . S
O769 Co767 2.143 . S
O769 Co768 2.160 . S
C770 O771 1.278 . S
C770 O778 1.224 . S
O771 C770 1.278 . S
C772 O773 1.245 . S
C772 O784 1.232 . S
O773 C772 1.245 . S
O774 Co768 2.058 . S
O774 C800 1.269 . S
O775 Co767 2.074 . S
O775 C800 1.257 . S
H776 C801 0.930 . S
H777 C807 0.930 . S
O778 Co767 2.093 . S
O778 C770 1.224 . S
H779 C811 0.929 . S
H780 C813 0.930 . S
H781 C814 0.930 . S
H782 C812 0.929 . S
H783 C815 0.928 . S
O784 Co768 2.057 . S
O784 C772 1.232 . S
H785 C804 0.929 . S
H786 C805 0.929 . S
H787 C817 0.931 . S
H788 C809 0.929 . S
H789 C818 0.930 . S
H790 C810 0.931 . S
O791 Co767 2.097 . S
O791 C819 1.214 . S
H792 C820 0.929 . S
H793 C821 0.924 1_655 S
H794 C822 0.930 . S
H795 C823 0.929 . S
H796 C825 0.930 . S
H797 C802 0.930 . S
H798 C806 0.930 . S
O799 Co768 2.037 . S
O799 C819 1.234 . S
C800 O774 1.269 . S
C800 O775 1.257 . S
C801 H776 0.930 . S
C801 C804 1.388 . S
C801 C806 1.418 . S
C802 H797 0.930 . S
C802 C805 1.404 . S
C802 C806 1.353 . S
N803 Co768 2.145 . S
N803 C804 1.397 . S
N803 C805 1.334 . S
C804 H785 0.929 . S
C804 C801 1.388 . S
C804 N803 1.397 . S
C805 H786 0.929 . S
C805 C802 1.404 . S
C805 N803 1.334 . S
C806 H798 0.930 . S
C806 C801 1.418 . S
C806 C802 1.353 . S
C807 H777 0.930 . S
C807 N808 1.330 . S
C807 C809 1.446 . S
N808 Co767 2.151 . S
N808 C807 1.330 . S
N808 C812 1.418 . S
C809 H788 0.929 . S
C809 C807 1.446 . S
C809 C810 1.332 . S
C810 H790 0.931 . S
C810 C809 1.332 . S
C810 C811 1.267 . S
C811 H779 0.929 . S
C811 C810 1.267 . S
C811 C812 1.251 . S
C812 H782 0.929 . S
C812 N808 1.418 . S
C812 C811 1.251 . S
C813 H780 0.930 . S
C813 C815 1.406 . S
C813 C818 1.261 . S
C814 H781 0.930 . S
C814 N816 1.325 . S
C814 C817 1.357 . S
C815 H783 0.928 . S
C815 C813 1.406 . S
C815 N816 1.261 . S
N816 Co767 2.214 . S
N816 C814 1.325 . S
N816 C815 1.261 . S
C817 H787 0.931 . S
C817 C814 1.357 . S
C817 C818 1.312 . S
C818 H789 0.930 . S
C818 C813 1.261 . S
C818 C817 1.312 . S
C819 O791 1.214 . S
C819 O799 1.234 . S
C820 H792 0.929 . S
C820 C823 1.391 1_455 S
C820 C825 1.391 . S
C821 H793 0.924 1_455 S
C821 C822 1.368 1_455 S
C821 N824 1.420 . S
C822 H794 0.930 . S
C822 C821 1.368 1_655 S
C822 C823 1.392 . S
C823 H795 0.929 . S
C823 C820 1.391 1_655 S
C823 C822 1.392 . S
N824 Co768 2.257 . S
N824 C821 1.420 . S
N824 C825 1.388 . S
C825 H796 0.930 . S
C825 C820 1.391 . S
C825 N824 1.388 . S
Co826 O828 2.143 . S
Co826 O834 2.074 . S
Co826 O837 2.093 . S
Co826 O850 2.097 . S
Co826 N867 2.151 . S
Co826 N875 2.214 . S
Co827 O828 2.160 . S
Co827 O833 2.058 . S
Co827 O843 2.057 . S
Co827 O858 2.037 . S
Co827 N862 2.145 . S
Co827 N883 2.257 . S
O828 Co826 2.143 . S
O828 Co827 2.160 . S
C829 O830 1.278 . S
C829 O837 1.224 . S
O830 C829 1.278 . S
C831 O832 1.245 . S
C831 O843 1.232 . S
O832 C831 1.245 . S
O833 Co827 2.058 . S
O833 C859 1.269 . S
O834 Co826 2.074 . S
O834 C859 1.257 . S
H835 C860 0.930 . S
H836 C866 0.930 . S
O837 Co826 2.093 . S
O837 C829 1.224 . S
H838 C870 0.929 . S
H839 C872 0.930 . S
H840 C873 0.930 . S
H841 C871 0.929 . S
H842 C874 0.928 . S
O843 Co827 2.057 . S
O843 C831 1.232 . S
H844 C863 0.929 . S
H845 C864 0.929 . S
H846 C876 0.931 . S
H847 C868 0.929 . S
H848 C877 0.930 . S
H849 C869 0.931 . S
O850 Co826 2.097 . S
O850 C878 1.214 . S
H851 C879 0.929 . S
H852 C880 0.924 1_545 S
H853 C881 0.930 . S
H854 C882 0.929 . S
H855 C884 0.930 . S
H856 C861 0.930 . S
H857 C865 0.930 . S
O858 Co827 2.037 . S
O858 C878 1.234 . S
C859 O833 1.269 . S
C859 O834 1.257 . S
C860 H835 0.930 . S
C860 C863 1.388 . S
C860 C865 1.418 . S
C861 H856 0.930 . S
C861 C864 1.404 . S
C861 C865 1.353 . S
N862 Co827 2.145 . S
N862 C863 1.397 . S
N862 C864 1.334 . S
C863 H844 0.929 . S
C863 C860 1.388 . S
C863 N862 1.397 . S
C864 H845 0.929 . S
C864 C861 1.404 . S
C864 N862 1.334 . S
C865 H857 0.930 . S
C865 C860 1.418 . S
C865 C861 1.353 . S
C866 H836 0.930 . S
C866 N867 1.330 . S
C866 C868 1.446 . S
N867 Co826 2.151 . S
N867 C866 1.330 . S
N867 C871 1.418 . S
C868 H847 0.929 . S
C868 C866 1.446 . S
C868 C869 1.332 . S
C869 H849 0.931 . S
C869 C868 1.332 . S
C869 C870 1.267 . S
C870 H838 0.929 . S
C870 C869 1.267 . S
C870 C871 1.251 . S
C871 H841 0.929 . S
C871 N867 1.418 . S
C871 C870 1.251 . S
C872 H839 0.930 . S
C872 C874 1.406 . S
C872 C877 1.261 . S
C873 H840 0.930 . S
C873 N875 1.325 . S
C873 C876 1.357 . S
C874 H842 0.928 . S
C874 C872 1.406 . S
C874 N875 1.261 . S
N875 Co826 2.214 . S
N875 C873 1.325 . S
N875 C874 1.261 . S
C876 H846 0.931 . S
C876 C873 1.357 . S
C876 C877 1.312 . S
C877 H848 0.930 . S
C877 C872 1.261 . S
C877 C876 1.312 . S
C878 O850 1.214 . S
C878 O858 1.234 . S
C879 H851 0.929 . S
C879 C882 1.391 1_565 S
C879 C884 1.391 . S
C880 H852 0.924 1_565 S
C880 C881 1.368 1_565 S
C880 N883 1.420 . S
C881 H853 0.930 . S
C881 C880 1.368 1_545 S
C881 C882 1.392 . S
C882 H854 0.929 . S
C882 C879 1.391 1_545 S
C882 C881 1.392 . S
N883 Co827 2.257 . S
N883 C880 1.420 . S
N883 C884 1.388 . S
C884 H855 0.930 . S
C884 C879 1.391 . S
C884 N883 1.388 . S
Co885 O887 2.143 . S
Co885 O893 2.074 . S
Co885 O896 2.093 . S
Co885 O909 2.097 . S
Co885 N926 2.151 . S
Co885 N934 2.214 . S
Co886 O887 2.160 . S
Co886 O892 2.058 . S
Co886 O902 2.057 . S
Co886 O917 2.037 . S
Co886 N921 2.145 . S
Co886 N942 2.257 . S
O887 Co885 2.143 . S
O887 Co886 2.160 . S
C888 O889 1.278 . S
C888 O896 1.224 . S
O889 C888 1.278 . S
C890 O891 1.245 . S
C890 O902 1.232 . S
O891 C890 1.245 . S
O892 Co886 2.058 . S
O892 C918 1.269 . S
O893 Co885 2.074 . S
O893 C918 1.257 . S
H894 C919 0.930 . S
H895 C925 0.930 . S
O896 Co885 2.093 . S
O896 C888 1.224 . S
H897 C929 0.929 . S
H898 C931 0.930 . S
H899 C932 0.930 . S
H900 C930 0.929 . S
H901 C933 0.928 . S
O902 Co886 2.057 . S
O902 C890 1.232 . S
H903 C922 0.929 . S
H904 C923 0.929 . S
H905 C935 0.931 . S
H906 C927 0.929 . S
H907 C936 0.930 . S
H908 C928 0.931 . S
O909 Co885 2.097 . S
O909 C937 1.214 . S
H910 C938 0.929 . S
H911 C939 0.924 1_455 S
H912 C940 0.930 . S
H913 C941 0.929 . S
H914 C943 0.930 . S
H915 C920 0.930 . S
H916 C924 0.930 . S
O917 Co886 2.037 . S
O917 C937 1.234 . S
C918 O892 1.269 . S
C918 O893 1.257 . S
C919 H894 0.930 . S
C919 C922 1.388 . S
C919 C924 1.418 . S
C920 H915 0.930 . S
C920 C923 1.404 . S
C920 C924 1.353 . S
N921 Co886 2.145 . S
N921 C922 1.397 . S
N921 C923 1.334 . S
C922 H903 0.929 . S
C922 C919 1.388 . S
C922 N921 1.397 . S
C923 H904 0.929 . S
C923 C920 1.404 . S
C923 N921 1.334 . S
C924 H916 0.930 . S
C924 C919 1.418 . S
C924 C920 1.353 . S
C925 H895 0.930 . S
C925 N926 1.330 . S
C925 C927 1.446 . S
N926 Co885 2.151 . S
N926 C925 1.330 . S
N926 C930 1.418 . S
C927 H906 0.929 . S
C927 C925 1.446 . S
C927 C928 1.332 . S
C928 H908 0.931 . S
C928 C927 1.332 . S
C928 C929 1.267 . S
C929 H897 0.929 . S
C929 C928 1.267 . S
C929 C930 1.251 . S
C930 H900 0.929 . S
C930 N926 1.418 . S
C930 C929 1.251 . S
C931 H898 0.930 . S
C931 C933 1.406 . S
C931 C936 1.261 . S
C932 H899 0.930 . S
C932 N934 1.325 . S
C932 C935 1.357 . S
C933 H901 0.928 . S
C933 C931 1.406 . S
C933 N934 1.261 . S
N934 Co885 2.214 . S
N934 C932 1.325 . S
N934 C933 1.261 . S
C935 H905 0.931 . S
C935 C932 1.357 . S
C935 C936 1.312 . S
C936 H907 0.930 . S
C936 C931 1.261 . S
C936 C935 1.312 . S
C937 O909 1.214 . S
C937 O917 1.234 . S
C938 H910 0.929 . S
C938 C941 1.391 1_655 S
C938 C943 1.391 . S
C939 H911 0.924 1_655 S
C939 C940 1.368 1_655 S
C939 N942 1.420 . S
C940 H912 0.930 . S
C940 C939 1.368 1_455 S
C940 C941 1.392 . S
C941 H913 0.929 . S
C941 C938 1.391 1_455 S
C941 C940 1.392 . S
N942 Co886 2.257 . S
N942 C939 1.420 . S
N942 C943 1.388 . S
C943 H914 0.930 . S
C943 C938 1.391 . S
C943 N942 1.388 . S
H944 C950 0.930 . S
H945 C953 0.930 . S
H946 C954 0.930 . S
H947 C955 0.930 . S
H948 C958 0.930 . S
H949 C959 0.930 . S
C950 H944 0.930 . S
C950 C951 1.355 . S
C950 C952 1.415 . S
C951 C950 1.355 . S
C951 C953 1.419 . S
C952 C950 1.415 . S
C952 C957 1.425 . S
C952 C959 1.409 . S
C953 H945 0.930 . S
C953 C951 1.419 . S
C953 C954 1.362 . S
C954 H946 0.930 . S
C954 C953 1.362 . S
C954 C957 1.409 . S
C955 H947 0.930 . S
C955 C956 1.355 . S
C955 C957 1.415 . S
C956 C955 1.355 . S
C956 C958 1.419 . S
C957 C952 1.425 . S
C957 C954 1.409 . S
C957 C955 1.415 . S
C958 H948 0.930 . S
C958 C956 1.419 . S
C958 C959 1.362 . S
C959 H949 0.930 . S
C959 C952 1.409 . S
C959 C958 1.362 . S
H960 C966 0.930 . S
H961 C969 0.930 . S
H962 C970 0.930 . S
H963 C971 0.930 . S
H964 C974 0.930 . S
H965 C975 0.930 . S
C966 H960 0.930 . S
C966 C967 1.355 . S
C966 C968 1.415 . S
C967 C966 1.355 . S
C967 C969 1.419 . S
C968 C966 1.415 . S
C968 C973 1.425 . S
C968 C975 1.409 . S
C969 H961 0.930 . S
C969 C967 1.419 . S
C969 C970 1.362 . S
C970 H962 0.930 . S
C970 C969 1.362 . S
C970 C973 1.409 . S
C971 H963 0.930 . S
C971 C972 1.355 . S
C971 C973 1.415 . S
C972 C971 1.355 . S
C972 C974 1.419 . S
C973 C968 1.425 . S
C973 C970 1.409 . S
C973 C971 1.415 . S
C974 H964 0.930 . S
C974 C972 1.419 . S
C974 C975 1.362 . S
C975 H965 0.930 . S
C975 C968 1.409 . S
C975 C974 1.362 . S
H976 C982 0.930 . S
H977 C985 0.930 . S
H978 C986 0.930 . S
H979 C987 0.930 . S
H980 C990 0.930 . S
H981 C991 0.930 . S
C982 H976 0.930 . S
C982 C983 1.355 . S
C982 C984 1.415 . S
C983 C982 1.355 . S
C983 C985 1.419 . S
C984 C982 1.415 . S
C984 C989 1.425 . S
C984 C991 1.409 . S
C985 H977 0.930 . S
C985 C983 1.419 . S
C985 C986 1.362 . S
C986 H978 0.930 . S
C986 C985 1.362 . S
C986 C989 1.409 . S
C987 H979 0.930 . S
C987 C988 1.355 . S
C987 C989 1.415 . S
C988 C987 1.355 . S
C988 C990 1.419 . S
C989 C984 1.425 . S
C989 C986 1.409 . S
C989 C987 1.415 . S
C990 H980 0.930 . S
C990 C988 1.419 . S
C990 C991 1.362 . S
C991 H981 0.930 . S
C991 C984 1.409 . S
C991 C990 1.362 . S
H992 C998 0.930 . S
H993 C1001 0.930 . S
H994 C1002 0.930 . S
H995 C1003 0.930 . S
H996 C1006 0.930 . S
H997 C1007 0.930 . S
C998 H992 0.930 . S
C998 C999 1.355 . S
C998 C1000 1.415 . S
C999 C998 1.355 . S
C999 C1001 1.419 . S
C1000 C998 1.415 . S
C1000 C1005 1.425 . S
C1000 C1007 1.409 . S
C1001 H993 0.930 . S
C1001 C999 1.419 . S
C1001 C1002 1.362 . S
C1002 H994 0.930 . S
C1002 C1001 1.362 . S
C1002 C1005 1.409 . S
C1003 H995 0.930 . S
C1003 C1004 1.355 . S
C1003 C1005 1.415 . S
C1004 C1003 1.355 . S
C1004 C1006 1.419 . S
C1005 C1000 1.425 . S
C1005 C1002 1.409 . S
C1005 C1003 1.415 . S
C1006 H996 0.930 . S
C1006 C1004 1.419 . S
C1006 C1007 1.362 . S
C1007 H997 0.930 . S
C1007 C1000 1.409 . S
C1007 C1006 1.362 . S
H1008 C1014 0.930 . S
H1009 C1017 0.930 . S
H1010 C1018 0.930 . S
H1011 C1019 0.930 . S
H1012 C1022 0.930 . S
H1013 C1023 0.930 . S
C1014 H1008 0.930 . S
C1014 C1015 1.355 . S
C1014 C1016 1.415 . S
C1015 C1014 1.355 . S
C1015 C1017 1.419 . S
C1016 C1014 1.415 . S
C1016 C1021 1.425 . S
C1016 C1023 1.409 . S
C1017 H1009 0.930 . S
C1017 C1015 1.419 . S
C1017 C1018 1.362 . S
C1018 H1010 0.930 . S
C1018 C1017 1.362 . S
C1018 C1021 1.409 . S
C1019 H1011 0.930 . S
C1019 C1020 1.355 . S
C1019 C1021 1.415 . S
C1020 C1019 1.355 . S
C1020 C1022 1.419 . S
C1021 C1016 1.425 . S
C1021 C1018 1.409 . S
C1021 C1019 1.415 . S
C1022 H1012 0.930 . S
C1022 C1020 1.419 . S
C1022 C1023 1.362 . S
C1023 H1013 0.930 . S
C1023 C1016 1.409 . S
C1023 C1022 1.362 . S
H1024 C1030 0.930 . S
H1025 C1033 0.930 . S
H1026 C1034 0.930 . S
H1027 C1035 0.930 . S
H1028 C1038 0.930 . S
H1029 C1039 0.930 . S
C1030 H1024 0.930 . S
C1030 C1031 1.355 . S
C1030 C1032 1.415 . S
C1031 C1030 1.355 . S
C1031 C1033 1.419 . S
C1032 C1030 1.415 . S
C1032 C1037 1.425 . S
C1032 C1039 1.409 . S
C1033 H1025 0.930 . S
C1033 C1031 1.419 . S
C1033 C1034 1.362 . S
C1034 H1026 0.930 . S
C1034 C1033 1.362 . S
C1034 C1037 1.409 . S
C1035 H1027 0.930 . S
C1035 C1036 1.355 . S
C1035 C1037 1.415 . S
C1036 C1035 1.355 . S
C1036 C1038 1.419 . S
C1037 C1032 1.425 . S
C1037 C1034 1.409 . S
C1037 C1035 1.415 . S
C1038 H1028 0.930 . S
C1038 C1036 1.419 . S
C1038 C1039 1.362 . S
C1039 H1029 0.930 . S
C1039 C1032 1.409 . S
C1039 C1038 1.362 . S
H1040 C1046 0.930 . S
H1041 C1049 0.930 . S
H1042 C1050 0.930 . S
H1043 C1051 0.930 . S
H1044 C1054 0.930 . S
H1045 C1055 0.930 . S
C1046 H1040 0.930 . S
C1046 C1047 1.355 . S
C1046 C1048 1.415 . S
C1047 C1046 1.355 . S
C1047 C1049 1.419 . S
C1048 C1046 1.415 . S
C1048 C1053 1.425 . S
C1048 C1055 1.409 . S
C1049 H1041 0.930 . S
C1049 C1047 1.419 . S
C1049 C1050 1.362 . S
C1050 H1042 0.930 . S
C1050 C1049 1.362 . S
C1050 C1053 1.409 . S
C1051 H1043 0.930 . S
C1051 C1052 1.355 . S
C1051 C1053 1.415 . S
C1052 C1051 1.355 . S
C1052 C1054 1.419 . S
C1053 C1048 1.425 . S
C1053 C1050 1.409 . S
C1053 C1051 1.415 . S
C1054 H1044 0.930 . S
C1054 C1052 1.419 . S
C1054 C1055 1.362 . S
C1055 H1045 0.930 . S
C1055 C1048 1.409 . S
C1055 C1054 1.362 . S
H1056 C1062 0.930 . S
H1057 C1065 0.930 . S
H1058 C1066 0.930 . S
H1059 C1067 0.930 . S
H1060 C1070 0.930 . S
H1061 C1071 0.930 . S
C1062 H1056 0.930 . S
C1062 C1063 1.355 . S
C1062 C1064 1.415 . S
C1063 C1062 1.355 . S
C1063 C1065 1.419 . S
C1064 C1062 1.415 . S
C1064 C1069 1.425 . S
C1064 C1071 1.409 . S
C1065 H1057 0.930 . S
C1065 C1063 1.419 . S
C1065 C1066 1.362 . S
C1066 H1058 0.930 . S
C1066 C1065 1.362 . S
C1066 C1069 1.409 . S
C1067 H1059 0.930 . S
C1067 C1068 1.355 . S
C1067 C1069 1.415 . S
C1068 C1067 1.355 . S
C1068 C1070 1.419 . S
C1069 C1064 1.425 . S
C1069 C1066 1.409 . S
C1069 C1067 1.415 . S
C1070 H1060 0.930 . S
C1070 C1068 1.419 . S
C1070 C1071 1.362 . S
C1071 H1061 0.930 . S
C1071 C1064 1.409 . S
C1071 C1070 1.362 . S
H1072 C1078 0.930 . S
H1073 C1081 0.930 . S
H1074 C1082 0.930 . S
H1075 C1083 0.930 . S
H1076 C1086 0.930 . S
H1077 C1087 0.930 . S
C1078 H1072 0.930 . S
C1078 C1079 1.355 . S
C1078 C1080 1.415 . S
C1079 C1078 1.355 . S
C1079 C1081 1.419 . S
C1080 C1078 1.415 . S
C1080 C1085 1.425 . S
C1080 C1087 1.409 . S
C1081 H1073 0.930 . S
C1081 C1079 1.419 . S
C1081 C1082 1.362 . S
C1082 H1074 0.930 . S
C1082 C1081 1.362 . S
C1082 C1085 1.409 . S
C1083 H1075 0.930 . S
C1083 C1084 1.355 . S
C1083 C1085 1.415 . S
C1084 C1083 1.355 . S
C1084 C1086 1.419 . S
C1085 C1080 1.425 . S
C1085 C1082 1.409 . S
C1085 C1083 1.415 . S
C1086 H1076 0.930 . S
C1086 C1084 1.419 . S
C1086 C1087 1.362 . S
C1087 H1077 0.930 . S
C1087 C1080 1.409 . S
C1087 C1086 1.362 . S
H1088 C1094 0.930 . S
H1089 C1097 0.930 . S
H1090 C1098 0.930 . S
H1091 C1099 0.930 . S
H1092 C1102 0.930 . S
H1093 C1103 0.930 . S
C1094 H1088 0.930 . S
C1094 C1095 1.355 . S
C1094 C1096 1.415 . S
C1095 C1094 1.355 . S
C1095 C1097 1.419 . S
C1096 C1094 1.415 . S
C1096 C1101 1.425 . S
C1096 C1103 1.409 . S
C1097 H1089 0.930 . S
C1097 C1095 1.419 . S
C1097 C1098 1.362 . S
C1098 H1090 0.930 . S
C1098 C1097 1.362 . S
C1098 C1101 1.409 . S
C1099 H1091 0.930 . S
C1099 C1100 1.355 . S
C1099 C1101 1.415 . S
C1100 C1099 1.355 . S
C1100 C1102 1.419 . S
C1101 C1096 1.425 . S
C1101 C1098 1.409 . S
C1101 C1099 1.415 . S
C1102 H1092 0.930 . S
C1102 C1100 1.419 . S
C1102 C1103 1.362 . S
C1103 H1093 0.930 . S
C1103 C1096 1.409 . S
C1103 C1102 1.362 . S
H1104 C1110 0.930 . S
H1105 C1113 0.930 . S
H1106 C1114 0.930 . S
H1107 C1115 0.930 . S
H1108 C1118 0.930 . S
H1109 C1119 0.930 . S
C1110 H1104 0.930 . S
C1110 C1111 1.355 . S
C1110 C1112 1.415 . S
C1111 C1110 1.355 . S
C1111 C1113 1.419 . S
C1112 C1110 1.415 . S
C1112 C1117 1.425 . S
C1112 C1119 1.409 . S
C1113 H1105 0.930 . S
C1113 C1111 1.419 . S
C1113 C1114 1.362 . S
C1114 H1106 0.930 . S
C1114 C1113 1.362 . S
C1114 C1117 1.409 . S
C1115 H1107 0.930 . S
C1115 C1116 1.355 . S
C1115 C1117 1.415 . S
C1116 C1115 1.355 . S
C1116 C1118 1.419 . S
C1117 C1112 1.425 . S
C1117 C1114 1.409 . S
C1117 C1115 1.415 . S
C1118 H1108 0.930 . S
C1118 C1116 1.419 . S
C1118 C1119 1.362 . S
C1119 H1109 0.930 . S
C1119 C1112 1.409 . S
C1119 C1118 1.362 . S
H1120 C1126 0.930 . S
H1121 C1129 0.930 . S
H1122 C1130 0.930 . S
H1123 C1131 0.930 . S
H1124 C1134 0.930 . S
H1125 C1135 0.930 . S
C1126 H1120 0.930 . S
C1126 C1127 1.355 . S
C1126 C1128 1.415 . S
C1127 C1126 1.355 . S
C1127 C1129 1.419 . S
C1128 C1126 1.415 . S
C1128 C1133 1.425 . S
C1128 C1135 1.409 . S
C1129 H1121 0.930 . S
C1129 C1127 1.419 . S
C1129 C1130 1.362 . S
C1130 H1122 0.930 . S
C1130 C1129 1.362 . S
C1130 C1133 1.409 . S
C1131 H1123 0.930 . S
C1131 C1132 1.355 . S
C1131 C1133 1.415 . S
C1132 C1131 1.355 . S
C1132 C1134 1.419 . S
C1133 C1128 1.425 . S
C1133 C1130 1.409 . S
C1133 C1131 1.415 . S
C1134 H1124 0.930 . S
C1134 C1132 1.419 . S
C1134 C1135 1.362 . S
C1135 H1125 0.930 . S
C1135 C1128 1.409 . S
C1135 C1134 1.362 . S
H1136 C1142 0.930 . S
H1137 C1145 0.930 . S
H1138 C1146 0.930 . S
H1139 C1147 0.930 . S
H1140 C1150 0.930 . S
H1141 C1151 0.930 . S
C1142 H1136 0.930 . S
C1142 C1143 1.355 . S
C1142 C1144 1.415 . S
C1143 C1142 1.355 . S
C1143 C1145 1.419 . S
C1144 C1142 1.415 . S
C1144 C1149 1.425 . S
C1144 C1151 1.409 . S
C1145 H1137 0.930 . S
C1145 C1143 1.419 . S
C1145 C1146 1.362 . S
C1146 H1138 0.930 . S
C1146 C1145 1.362 . S
C1146 C1149 1.409 . S
C1147 H1139 0.930 . S
C1147 C1148 1.355 . S
C1147 C1149 1.415 . S
C1148 C1147 1.355 . S
C1148 C1150 1.419 . S
C1149 C1144 1.425 . S
C1149 C1146 1.409 . S
C1149 C1147 1.415 . S
C1150 H1140 0.930 . S
C1150 C1148 1.419 . S
C1150 C1151 1.362 . S
C1151 H1141 0.930 . S
C1151 C1144 1.409 . S
C1151 C1150 1.362 . S
H1152 C1158 0.930 . S
H1153 C1161 0.930 . S
H1154 C1162 0.930 . S
H1155 C1163 0.930 . S
H1156 C1166 0.930 . S
H1157 C1167 0.930 . S
C1158 H1152 0.930 . S
C1158 C1159 1.355 . S
C1158 C1160 1.415 . S
C1159 C1158 1.355 . S
C1159 C1161 1.419 . S
C1160 C1158 1.415 . S
C1160 C1165 1.425 . S
C1160 C1167 1.409 . S
C1161 H1153 0.930 . S
C1161 C1159 1.419 . S
C1161 C1162 1.362 . S
C1162 H1154 0.930 . S
C1162 C1161 1.362 . S
C1162 C1165 1.409 . S
C1163 H1155 0.930 . S
C1163 C1164 1.355 . S
C1163 C1165 1.415 . S
C1164 C1163 1.355 . S
C1164 C1166 1.419 . S
C1165 C1160 1.425 . S
C1165 C1162 1.409 . S
C1165 C1163 1.415 . S
C1166 H1156 0.930 . S
C1166 C1164 1.419 . S
C1166 C1167 1.362 . S
C1167 H1157 0.930 . S
C1167 C1160 1.409 . S
C1167 C1166 1.362 . S
H1168 C1174 0.930 . S
H1169 C1177 0.930 . S
H1170 C1178 0.930 . S
H1171 C1179 0.930 . S
H1172 C1182 0.930 . S
H1173 C1183 0.930 . S
C1174 H1168 0.930 . S
C1174 C1175 1.355 . S
C1174 C1176 1.415 . S
C1175 C1174 1.355 . S
C1175 C1177 1.419 . S
C1176 C1174 1.415 . S
C1176 C1181 1.425 . S
C1176 C1183 1.409 . S
C1177 H1169 0.930 . S
C1177 C1175 1.419 . S
C1177 C1178 1.362 . S
C1178 H1170 0.930 . S
C1178 C1177 1.362 . S
C1178 C1181 1.409 . S
C1179 H1171 0.930 . S
C1179 C1180 1.355 . S
C1179 C1181 1.415 . S
C1180 C1179 1.355 . S
C1180 C1182 1.419 . S
C1181 C1176 1.425 . S
C1181 C1178 1.409 . S
C1181 C1179 1.415 . S
C1182 H1172 0.930 . S
C1182 C1180 1.419 . S
C1182 C1183 1.362 . S
C1183 H1173 0.930 . S
C1183 C1176 1.409 . S
C1183 C1182 1.362 . S
H1184 C1190 0.930 . S
H1185 C1193 0.930 . S
H1186 C1194 0.930 . S
H1187 C1195 0.930 . S
H1188 C1198 0.930 . S
H1189 C1199 0.930 . S
C1190 H1184 0.930 . S
C1190 C1191 1.355 . S
C1190 C1192 1.415 . S
C1191 C1190 1.355 . S
C1191 C1193 1.419 . S
C1192 C1190 1.415 . S
C1192 C1197 1.425 . S
C1192 C1199 1.409 . S
C1193 H1185 0.930 . S
C1193 C1191 1.419 . S
C1193 C1194 1.362 . S
C1194 H1186 0.930 . S
C1194 C1193 1.362 . S
C1194 C1197 1.409 . S
C1195 H1187 0.930 . S
C1195 C1196 1.355 . S
C1195 C1197 1.415 . S
C1196 C1195 1.355 . S
C1196 C1198 1.419 . S
C1197 C1192 1.425 . S
C1197 C1194 1.409 . S
C1197 C1195 1.415 . S
C1198 H1188 0.930 . S
C1198 C1196 1.419 . S
C1198 C1199 1.362 . S
C1199 H1189 0.930 . S
C1199 C1192 1.409 . S
C1199 C1198 1.362 . S
H1200 C1206 0.930 . S
H1201 C1209 0.930 . S
H1202 C1210 0.930 . S
H1203 C1211 0.930 . S
H1204 C1214 0.930 . S
H1205 C1215 0.930 . S
C1206 H1200 0.930 . S
C1206 C1207 1.355 . S
C1206 C1208 1.415 . S
C1207 C1206 1.355 . S
C1207 C1209 1.419 . S
C1208 C1206 1.415 . S
C1208 C1213 1.425 . S
C1208 C1215 1.409 . S
C1209 H1201 0.930 . S
C1209 C1207 1.419 . S
C1209 C1210 1.362 . S
C1210 H1202 0.930 . S
C1210 C1209 1.362 . S
C1210 C1213 1.409 . S
C1211 H1203 0.930 . S
C1211 C1212 1.355 . S
C1211 C1213 1.415 . S
C1212 C1211 1.355 . S
C1212 C1214 1.419 . S
C1213 C1208 1.425 . S
C1213 C1210 1.409 . S
C1213 C1211 1.415 . S
C1214 H1204 0.930 . S
C1214 C1212 1.419 . S
C1214 C1215 1.362 . S
C1215 H1205 0.930 . S
C1215 C1208 1.409 . S
C1215 C1214 1.362 . S
H1216 C1222 0.930 . S
H1217 C1225 0.930 . S
H1218 C1226 0.930 . S
H1219 C1227 0.930 . S
H1220 C1230 0.930 1_655 S
H1221 C1231 0.930 . S
C1222 H1216 0.930 . S
C1222 C1223 1.355 . S
C1222 C1224 1.415 . S
C1223 C1222 1.355 . S
C1223 C1225 1.419 . S
C1224 C1222 1.415 . S
C1224 C1229 1.425 . S
C1224 C1231 1.409 . S
C1225 H1217 0.930 . S
C1225 C1223 1.419 . S
C1225 C1226 1.362 . S
C1226 H1218 0.930 . S
C1226 C1225 1.362 . S
C1226 C1229 1.409 . S
C1227 H1219 0.930 . S
C1227 C1228 1.355 . S
C1227 C1229 1.415 . S
C1228 C1227 1.355 . S
C1228 C1230 1.419 . S
C1229 C1224 1.425 . S
C1229 C1226 1.409 . S
C1229 C1227 1.415 . S
C1230 H1220 0.930 1_455 S
C1230 C1228 1.419 . S
C1230 C1231 1.362 . S
C1231 H1221 0.930 . S
C1231 C1224 1.409 . S
C1231 C1230 1.362 . S
H1232 C1238 0.930 . S
H1233 C1241 0.930 . S
H1234 C1242 0.930 . S
H1235 C1243 0.930 . S
H1236 C1246 0.930 . S
H1237 C1247 0.930 . S
C1238 H1232 0.930 . S
C1238 C1239 1.355 . S
C1238 C1240 1.415 . S
C1239 C1238 1.355 . S
C1239 C1241 1.419 . S
C1240 C1238 1.415 . S
C1240 C1245 1.425 . S
C1240 C1247 1.409 . S
C1241 H1233 0.930 . S
C1241 C1239 1.419 . S
C1241 C1242 1.362 . S
C1242 H1234 0.930 . S
C1242 C1241 1.362 . S
C1242 C1245 1.409 . S
C1243 H1235 0.930 . S
C1243 C1244 1.355 . S
C1243 C1245 1.415 . S
C1244 C1243 1.355 . S
C1244 C1246 1.419 . S
C1245 C1240 1.425 . S
C1245 C1242 1.409 . S
C1245 C1243 1.415 . S
C1246 H1236 0.930 . S
C1246 C1244 1.419 . S
C1246 C1247 1.362 . S
C1247 H1237 0.930 . S
C1247 C1240 1.409 . S
C1247 C1246 1.362 . S
H1248 C1254 0.930 . S
H1249 C1257 0.930 . S
H1250 C1258 0.930 . S
H1251 C1259 0.930 . S
H1252 C1262 0.930 . S
H1253 C1263 0.930 . S
C1254 H1248 0.930 . S
C1254 C1255 1.355 . S
C1254 C1256 1.415 . S
C1255 C1254 1.355 . S
C1255 C1257 1.419 . S
C1256 C1254 1.415 . S
C1256 C1261 1.425 . S
C1256 C1263 1.409 . S
C1257 H1249 0.930 . S
C1257 C1255 1.419 . S
C1257 C1258 1.362 . S
C1258 H1250 0.930 . S
C1258 C1257 1.362 . S
C1258 C1261 1.409 . S
C1259 H1251 0.930 . S
C1259 C1260 1.355 . S
C1259 C1261 1.415 . S
C1260 C1259 1.355 . S
C1260 C1262 1.419 . S
C1261 C1256 1.425 . S
C1261 C1258 1.409 . S
C1261 C1259 1.415 . S
C1262 H1252 0.930 . S
C1262 C1260 1.419 . S
C1262 C1263 1.362 . S
C1263 H1253 0.930 . S
C1263 C1256 1.409 . S
C1263 C1262 1.362 . S
H1264 C1270 0.930 . S
H1265 C1273 0.930 . S
H1266 C1274 0.930 . S
H1267 C1275 0.930 . S
H1268 C1278 0.930 . S
H1269 C1279 0.930 . S
C1270 H1264 0.930 . S
C1270 C1271 1.355 . S
C1270 C1272 1.415 . S
C1271 C1270 1.355 . S
C1271 C1273 1.419 . S
C1272 C1270 1.415 . S
C1272 C1277 1.425 . S
C1272 C1279 1.409 . S
C1273 H1265 0.930 . S
C1273 C1271 1.419 . S
C1273 C1274 1.362 . S
C1274 H1266 0.930 . S
C1274 C1273 1.362 . S
C1274 C1277 1.409 . S
C1275 H1267 0.930 . S
C1275 C1276 1.355 . S
C1275 C1277 1.415 . S
C1276 C1275 1.355 . S
C1276 C1278 1.419 . S
C1277 C1272 1.425 . S
C1277 C1274 1.409 . S
C1277 C1275 1.415 . S
C1278 H1268 0.930 . S
C1278 C1276 1.419 . S
C1278 C1279 1.362 . S
C1279 H1269 0.930 . S
C1279 C1272 1.409 . S
C1279 C1278 1.362 . S
H1280 C1286 0.930 . S
H1281 C1289 0.930 . S
H1282 C1290 0.930 . S
H1283 C1291 0.930 . S
H1284 C1294 0.930 1_455 S
H1285 C1295 0.930 . S
C1286 H1280 0.930 . S
C1286 C1287 1.355 . S
C1286 C1288 1.415 . S
C1287 C1286 1.355 . S
C1287 C1289 1.419 . S
C1288 C1286 1.415 . S
C1288 C1293 1.425 . S
C1288 C1295 1.409 . S
C1289 H1281 0.930 . S
C1289 C1287 1.419 . S
C1289 C1290 1.362 . S
C1290 H1282 0.930 . S
C1290 C1289 1.362 . S
C1290 C1293 1.409 . S
C1291 H1283 0.930 . S
C1291 C1292 1.355 . S
C1291 C1293 1.415 . S
C1292 C1291 1.355 . S
C1292 C1294 1.419 . S
C1293 C1288 1.425 . S
C1293 C1290 1.409 . S
C1293 C1291 1.415 . S
C1294 H1284 0.930 1_655 S
C1294 C1292 1.419 . S
C1294 C1295 1.362 . S
C1295 H1285 0.930 . S
C1295 C1288 1.409 . S
C1295 C1294 1.362 . S
H1296 C1302 0.930 . S
H1297 C1305 0.930 . S
H1298 C1306 0.930 . S
H1299 C1307 0.930 . S
H1300 C1310 0.930 1_565 S
H1301 C1311 0.930 . S
C1302 H1296 0.930 . S
C1302 C1303 1.355 . S
C1302 C1304 1.415 . S
C1303 C1302 1.355 . S
C1303 C1305 1.419 . S
C1304 C1302 1.415 . S
C1304 C1309 1.425 . S
C1304 C1311 1.409 . S
C1305 H1297 0.930 . S
C1305 C1303 1.419 . S
C1305 C1306 1.362 . S
C1306 H1298 0.930 . S
C1306 C1305 1.362 . S
C1306 C1309 1.409 . S
C1307 H1299 0.930 . S
C1307 C1308 1.355 . S
C1307 C1309 1.415 . S
C1308 C1307 1.355 . S
C1308 C1310 1.419 . S
C1309 C1304 1.425 . S
C1309 C1306 1.409 . S
C1309 C1307 1.415 . S
C1310 H1300 0.930 1_545 S
C1310 C1308 1.419 . S
C1310 C1311 1.362 . S
C1311 H1301 0.930 . S
C1311 C1304 1.409 . S
C1311 C1310 1.362 . S
H1312 C1318 0.930 . S
H1313 C1321 0.930 . S
H1314 C1322 0.930 . S
H1315 C1323 0.930 . S
H1316 C1326 0.930 . S
H1317 C1327 0.930 . S
C1318 H1312 0.930 . S
C1318 C1319 1.355 . S
C1318 C1320 1.415 . S
C1319 C1318 1.355 . S
C1319 C1321 1.419 . S
C1320 C1318 1.415 . S
C1320 C1325 1.425 . S
C1320 C1327 1.409 . S
C1321 H1313 0.930 . S
C1321 C1319 1.419 . S
C1321 C1322 1.362 . S
C1322 H1314 0.930 . S
C1322 C1321 1.362 . S
C1322 C1325 1.409 . S
C1323 H1315 0.930 . S
C1323 C1324 1.355 . S
C1323 C1325 1.415 . S
C1324 C1323 1.355 . S
C1324 C1326 1.419 . S
C1325 C1320 1.425 . S
C1325 C1322 1.409 . S
C1325 C1323 1.415 . S
C1326 H1316 0.930 . S
C1326 C1324 1.419 . S
C1326 C1327 1.362 . S
C1327 H1317 0.930 . S
C1327 C1320 1.409 . S
C1327 C1326 1.362 . S
H1328 C1334 0.930 . S
H1329 C1337 0.930 . S
H1330 C1338 0.930 . S
H1331 C1339 0.930 . S
H1332 C1342 0.930 . S
H1333 C1343 0.930 . S
C1334 H1328 0.930 . S
C1334 C1335 1.355 . S
C1334 C1336 1.415 . S
C1335 C1334 1.355 . S
C1335 C1337 1.419 . S
C1336 C1334 1.415 . S
C1336 C1341 1.425 . S
C1336 C1343 1.409 . S
C1337 H1329 0.930 . S
C1337 C1335 1.419 . S
C1337 C1338 1.362 . S
C1338 H1330 0.930 . S
C1338 C1337 1.362 . S
C1338 C1341 1.409 . S
C1339 H1331 0.930 . S
C1339 C1340 1.355 . S
C1339 C1341 1.415 . S
C1340 C1339 1.355 . S
C1340 C1342 1.419 . S
C1341 C1336 1.425 . S
C1341 C1338 1.409 . S
C1341 C1339 1.415 . S
C1342 H1332 0.930 . S
C1342 C1340 1.419 . S
C1342 C1343 1.362 . S
C1343 H1333 0.930 . S
C1343 C1336 1.409 . S
C1343 C1342 1.362 . S
H1344 C1350 0.930 . S
H1345 C1353 0.930 . S
H1346 C1354 0.930 . S
H1347 C1355 0.930 . S
H1348 C1358 0.930 . S
H1349 C1359 0.930 . S
C1350 H1344 0.930 . S
C1350 C1351 1.355 . S
C1350 C1352 1.415 . S
C1351 C1350 1.355 . S
C1351 C1353 1.419 . S
C1352 C1350 1.415 . S
C1352 C1357 1.425 . S
C1352 C1359 1.409 . S
C1353 H1345 0.930 . S
C1353 C1351 1.419 . S
C1353 C1354 1.362 . S
C1354 H1346 0.930 . S
C1354 C1353 1.362 . S
C1354 C1357 1.409 . S
C1355 H1347 0.930 . S
C1355 C1356 1.355 . S
C1355 C1357 1.415 . S
C1356 C1355 1.355 . S
C1356 C1358 1.419 . S
C1357 C1352 1.425 . S
C1357 C1354 1.409 . S
C1357 C1355 1.415 . S
C1358 H1348 0.930 . S
C1358 C1356 1.419 . S
C1358 C1359 1.362 . S
C1359 H1349 0.930 . S
C1359 C1352 1.409 . S
C1359 C1358 1.362 . S
H1360 C1366 0.930 . S
H1361 C1369 0.930 . S
H1362 C1370 0.930 . S
H1363 C1371 0.930 . S
H1364 C1374 0.930 . S
H1365 C1375 0.930 . S
C1366 H1360 0.930 . S
C1366 C1367 1.355 . S
C1366 C1368 1.415 . S
C1367 C1366 1.355 . S
C1367 C1369 1.419 . S
C1368 C1366 1.415 . S
C1368 C1373 1.425 . S
C1368 C1375 1.409 . S
C1369 H1361 0.930 . S
C1369 C1367 1.419 . S
C1369 C1370 1.362 . S
C1370 H1362 0.930 . S
C1370 C1369 1.362 . S
C1370 C1373 1.409 . S
C1371 H1363 0.930 . S
C1371 C1372 1.355 . S
C1371 C1373 1.415 . S
C1372 C1371 1.355 . S
C1372 C1374 1.419 . S
C1373 C1368 1.425 . S
C1373 C1370 1.409 . S
C1373 C1371 1.415 . S
C1374 H1364 0.930 . S
C1374 C1372 1.419 . S
C1374 C1375 1.362 . S
C1375 H1365 0.930 . S
C1375 C1368 1.409 . S
C1375 C1374 1.362 . S
H1376 C1382 0.930 . S
H1377 C1385 0.930 . S
H1378 C1386 0.930 . S
H1379 C1387 0.930 . S
H1380 C1390 0.930 . S
H1381 C1391 0.930 . S
C1382 H1376 0.930 . S
C1382 C1383 1.355 . S
C1382 C1384 1.415 . S
C1383 C1382 1.355 . S
C1383 C1385 1.419 . S
C1384 C1382 1.415 . S
C1384 C1389 1.425 . S
C1384 C1391 1.409 . S
C1385 H1377 0.930 . S
C1385 C1383 1.419 . S
C1385 C1386 1.362 . S
C1386 H1378 0.930 . S
C1386 C1385 1.362 . S
C1386 C1389 1.409 . S
C1387 H1379 0.930 . S
C1387 C1388 1.355 . S
C1387 C1389 1.415 . S
C1388 C1387 1.355 . S
C1388 C1390 1.419 . S
C1389 C1384 1.425 . S
C1389 C1386 1.409 . S
C1389 C1387 1.415 . S
C1390 H1380 0.930 . S
C1390 C1388 1.419 . S
C1390 C1391 1.362 . S
C1391 H1381 0.930 . S
C1391 C1384 1.409 . S
C1391 C1390 1.362 . S
H1392 C1398 0.930 . S
H1393 C1401 0.930 . S
H1394 C1402 0.930 . S
H1395 C1403 0.930 . S
H1396 C1406 0.930 . S
H1397 C1407 0.930 . S
C1398 H1392 0.930 . S
C1398 C1399 1.355 . S
C1398 C1400 1.415 . S
C1399 C1398 1.355 . S
C1399 C1401 1.419 1_545 S
C1400 C1398 1.415 . S
C1400 C1405 1.425 1_544 S
C1400 C1407 1.409 1_554 S
C1401 H1393 0.930 . S
C1401 C1399 1.419 1_565 S
C1401 C1402 1.362 . S
C1402 H1394 0.930 . S
C1402 C1401 1.362 . S
C1402 C1405 1.409 1_554 S
C1403 H1395 0.930 . S
C1403 C1404 1.355 . S
C1403 C1405 1.415 . S
C1404 C1403 1.355 . S
C1404 C1406 1.419 1_565 S
C1405 C1400 1.425 1_566 S
C1405 C1402 1.409 1_556 S
C1405 C1403 1.415 . S
C1406 H1396 0.930 . S
C1406 C1404 1.419 1_545 S
C1406 C1407 1.362 . S
C1407 H1397 0.930 . S
C1407 C1400 1.409 1_556 S
C1407 C1406 1.362 . S
H1408 C1414 0.930 . S
H1409 C1417 0.930 . S
H1410 C1418 0.930 1_554 S
H1411 C1419 0.930 . S
H1412 C1422 0.930 . S
H1413 C1423 0.930 1_556 S
C1414 H1408 0.930 . S
C1414 C1415 1.355 1_655 S
C1414 C1416 1.415 . S
C1415 C1414 1.355 1_455 S
C1415 C1417 1.419 . S
C1416 C1414 1.415 . S
C1416 C1421 1.425 1_656 S
C1416 C1423 1.409 1_556 S
C1417 H1409 0.930 . S
C1417 C1415 1.419 . S
C1417 C1418 1.362 . S
C1418 H1410 0.930 1_556 S
C1418 C1417 1.362 . S
C1418 C1421 1.409 1_556 S
C1419 H1411 0.930 . S
C1419 C1420 1.355 1_455 S
C1419 C1421 1.415 . S
C1420 C1419 1.355 1_655 S
C1420 C1422 1.419 . S
C1421 C1416 1.425 1_454 S
C1421 C1418 1.409 1_554 S
C1421 C1419 1.415 . S
C1422 H1412 0.930 . S
C1422 C1420 1.419 . S
C1422 C1423 1.362 . S
C1423 H1413 0.930 1_554 S
C1423 C1416 1.409 1_554 S
C1423 C1422 1.362 . S
H1424 C1430 0.930 . S
H1425 C1433 0.930 . S
H1426 C1434 0.930 . S
H1427 C1435 0.930 . S
H1428 C1438 0.930 . S
H1429 C1439 0.930 . S
C1430 H1424 0.930 . S
C1430 C1431 1.355 . S
C1430 C1432 1.415 . S
C1431 C1430 1.355 . S
C1431 C1433 1.419 1_545 S
C1432 C1430 1.415 . S
C1432 C1437 1.425 1_546 S
C1432 C1439 1.409 1_556 S
C1433 H1425 0.930 . S
C1433 C1431 1.419 1_565 S
C1433 C1434 1.362 . S
C1434 H1426 0.930 . S
C1434 C1433 1.362 . S
C1434 C1437 1.409 1_556 S
C1435 H1427 0.930 . S
C1435 C1436 1.355 . S
C1435 C1437 1.415 . S
C1436 C1435 1.355 . S
C1436 C1438 1.419 1_565 S
C1437 C1432 1.425 1_564 S
C1437 C1434 1.409 1_554 S
C1437 C1435 1.415 . S
C1438 H1428 0.930 . S
C1438 C1436 1.419 1_545 S
C1438 C1439 1.362 . S
C1439 H1429 0.930 . S
C1439 C1432 1.409 1_554 S
C1439 C1438 1.362 . S
H1440 C1446 0.930 . S
H1441 C1449 0.932 . S
H1442 C1450 0.930 . S
H1443 C1451 0.930 . S
H1444 C1454 0.932 . S
H1445 C1455 0.930 . S
C1446 H1440 0.930 . S
C1446 C1447 1.355 . S
C1446 C1448 1.415 . S
C1447 C1446 1.355 . S
C1447 C1449 1.419 . S
C1448 C1446 1.415 . S
C1448 C1453 1.425 1_656 S
C1448 C1455 1.409 1_556 S
C1449 H1441 0.932 . S
C1449 C1447 1.419 . S
C1449 C1450 1.362 1_655 S
C1450 H1442 0.930 . S
C1450 C1449 1.362 1_455 S
C1450 C1453 1.409 1_556 S
C1451 H1443 0.930 . S
C1451 C1452 1.355 . S
C1451 C1453 1.415 . S
C1452 C1451 1.355 . S
C1452 C1454 1.419 . S
C1453 C1448 1.425 1_454 S
C1453 C1450 1.409 1_554 S
C1453 C1451 1.415 . S
C1454 H1444 0.932 . S
C1454 C1452 1.419 . S
C1454 C1455 1.362 1_455 S
C1455 H1445 0.930 . S
C1455 C1448 1.409 1_554 S
C1455 C1454 1.362 1_655 S
C951 C5 1.390 . S
C956 C418 1.375 . S
C967 C64 1.391 . S
C972 C241 1.374 . S
C983 C300 1.374 . S
C988 C123 1.391 . S
C999 C182 1.374 . S
C1004 C359 1.391 . S
C1015 C477 1.388 . S
C1020 C890 1.377 . S
C1031 C713 1.374 . S
C1036 C536 1.390 . S
C1047 C772 1.374 . S
C1052 C595 1.391 . S
C1063 C831 1.391 . S
C1068 C654 1.374 . S
C1079 C52 1.527 . S
C1084 C682 1.527 . S
C1095 C111 1.530 . S
C1100 C505 1.520 . S
C1111 C564 1.511 . S
C1116 C170 1.526 . S
C1127 C229 1.515 . S
C1132 C623 1.516 . S
C1143 C288 1.516 . S
C1148 C800 1.529 . S
C1159 C859 1.526 . S
C1164 C347 1.513 . S
C1175 C406 1.516 . S
C1180 C918 1.514 . S
C1191 C741 1.530 . S
C1196 C465 1.522 . S
C1207 C524 1.530 1_545 S
C1212 C210 1.518 . S
C1223 C33 1.528 . S
C1228 C583 1.515 1_455 S
C1239 C642 1.516 1_565 S
C1244 C92 1.515 . S
C1255 C151 1.518 . S
C1260 C701 1.513 1_655 S
C1271 C760 1.530 1_565 S
C1276 C328 1.515 . S
C1287 C387 1.529 . S
C1292 C819 1.515 1_655 S
C1303 C446 1.526 . S
C1308 C878 1.528 1_545 S
C1319 C269 1.512 . S
C1324 C937 1.527 1_455 S
C1335 C239 1.621 . S
C1340 C3 1.618 . S
C1351 C298 1.613 . S
C1356 C62 1.609 . S
C1367 C121 1.608 . S
C1372 C357 1.614 . S
C1383 C416 1.602 . S
C1388 C180 1.627 . S
C1399 C711 1.607 . S
C1404 C475 1.615 . S
C1415 C770 1.621 . S
C1420 C534 1.618 . S
C1431 C593 1.604 . S
C1436 C829 1.619 . S
C1447 C888 1.628 . S
C1452 C652 1.602 . S
