# Generated by pormake.
# Topology gme, (4)-cn, num edge types: 1
# Building blocks:
#     Node 0, Type 0, BuildingBlock: GALJAG_clean_sbu_0, # of connection points: 4
#     Node 1, Type 0, BuildingBlock: GALJAG_clean_sbu_0, # of connection points: 4
#     Node 2, Type 0, BuildingBlock: GALJAG_clean_sbu_0, # of connection points: 4
#     Node 3, Type 0, BuildingBlock: GALJAG_clean_sbu_0, # of connection points: 4
#     Node 4, Type 0, BuildingBlock: GALJAG_clean_sbu_0, # of connection points: 4
#     Node 5, Type 0, BuildingBlock: GALJAG_clean_sbu_0, # of connection points: 4
#     Node 6, Type 0, BuildingBlock: GALJAG_clean_sbu_0, # of connection points: 4
#     Node 7, Type 0, BuildingBlock: GALJAG_clean_sbu_0, # of connection points: 4
#     Node 8, Type 0, BuildingBlock: GALJAG_clean_sbu_0, # of connection points: 4
#     Node 9, Type 0, BuildingBlock: GALJAG_clean_sbu_0, # of connection points: 4
#     Node 10, Type 0, BuildingBlock: GALJAG_clean_sbu_0, # of connection points: 4
#     Node 11, Type 0, BuildingBlock: GALJAG_clean_sbu_0, # of connection points: 4
#     Node 12, Type 0, BuildingBlock: GALJAG_clean_sbu_0, # of connection points: 4
#     Node 13, Type 0, BuildingBlock: GALJAG_clean_sbu_0, # of connection points: 4
#     Node 14, Type 0, BuildingBlock: GALJAG_clean_sbu_0, # of connection points: 4
#     Node 15, Type 0, BuildingBlock: GALJAG_clean_sbu_0, # of connection points: 4
#     Node 16, Type 0, BuildingBlock: GALJAG_clean_sbu_0, # of connection points: 4
#     Node 17, Type 0, BuildingBlock: GALJAG_clean_sbu_0, # of connection points: 4
#     Node 18, Type 0, BuildingBlock: GALJAG_clean_sbu_0, # of connection points: 4
#     Node 19, Type 0, BuildingBlock: GALJAG_clean_sbu_0, # of connection points: 4
#     Node 20, Type 0, BuildingBlock: GALJAG_clean_sbu_0, # of connection points: 4
#     Node 21, Type 0, BuildingBlock: GALJAG_clean_sbu_0, # of connection points: 4
#     Node 22, Type 0, BuildingBlock: GALJAG_clean_sbu_0, # of connection points: 4
#     Node 23, Type 0, BuildingBlock: GALJAG_clean_sbu_0, # of connection points: 4
#     Edge 24, Type (0, 0), BuildingBlock: CIFDUS_clean_linker_0, # of connection points: 2
#     Edge 25, Type (0, 0), BuildingBlock: CIFDUS_clean_linker_0, # of connection points: 2
#     Edge 26, Type (0, 0), BuildingBlock: CIFDUS_clean_linker_0, # of connection points: 2
#     Edge 27, Type (0, 0), BuildingBlock: CIFDUS_clean_linker_0, # of connection points: 2
#     Edge 28, Type (0, 0), BuildingBlock: CIFDUS_clean_linker_0, # of connection points: 2
#     Edge 29, Type (0, 0), BuildingBlock: CIFDUS_clean_linker_0, # of connection points: 2
#     Edge 30, Type (0, 0), BuildingBlock: CIFDUS_clean_linker_0, # of connection points: 2
#     Edge 31, Type (0, 0), BuildingBlock: CIFDUS_clean_linker_0, # of connection points: 2
#     Edge 32, Type (0, 0), BuildingBlock: CIFDUS_clean_linker_0, # of connection points: 2
#     Edge 33, Type (0, 0), BuildingBlock: CIFDUS_clean_linker_0, # of connection points: 2
#     Edge 34, Type (0, 0), BuildingBlock: CIFDUS_clean_linker_0, # of connection points: 2
#     Edge 35, Type (0, 0), BuildingBlock: CIFDUS_clean_linker_0, # of connection points: 2
#     Edge 36, Type (0, 0), BuildingBlock: CIFDUS_clean_linker_0, # of connection points: 2
#     Edge 37, Type (0, 0), BuildingBlock: CIFDUS_clean_linker_0, # of connection points: 2
#     Edge 38, Type (0, 0), BuildingBlock: CIFDUS_clean_linker_0, # of connection points: 2
#     Edge 39, Type (0, 0), BuildingBlock: CIFDUS_clean_linker_0, # of connection points: 2
#     Edge 40, Type (0, 0), BuildingBlock: CIFDUS_clean_linker_0, # of connection points: 2
#     Edge 41, Type (0, 0), BuildingBlock: CIFDUS_clean_linker_0, # of connection points: 2
#     Edge 42, Type (0, 0), BuildingBlock: CIFDUS_clean_linker_0, # of connection points: 2
#     Edge 43, Type (0, 0), BuildingBlock: CIFDUS_clean_linker_0, # of connection points: 2
#     Edge 44, Type (0, 0), BuildingBlock: CIFDUS_clean_linker_0, # of connection points: 2
#     Edge 45, Type (0, 0), BuildingBlock: CIFDUS_clean_linker_0, # of connection points: 2
#     Edge 46, Type (0, 0), BuildingBlock: CIFDUS_clean_linker_0, # of connection points: 2
#     Edge 47, Type (0, 0), BuildingBlock: CIFDUS_clean_linker_0, # of connection points: 2
#     Edge 48, Type (0, 0), BuildingBlock: CIFDUS_clean_linker_0, # of connection points: 2
#     Edge 49, Type (0, 0), BuildingBlock: CIFDUS_clean_linker_0, # of connection points: 2
#     Edge 50, Type (0, 0), BuildingBlock: CIFDUS_clean_linker_0, # of connection points: 2
#     Edge 51, Type (0, 0), BuildingBlock: CIFDUS_clean_linker_0, # of connection points: 2
#     Edge 52, Type (0, 0), BuildingBlock: CIFDUS_clean_linker_0, # of connection points: 2
#     Edge 53, Type (0, 0), BuildingBlock: CIFDUS_clean_linker_0, # of connection points: 2
#     Edge 54, Type (0, 0), BuildingBlock: CIFDUS_clean_linker_0, # of connection points: 2
#     Edge 55, Type (0, 0), BuildingBlock: CIFDUS_clean_linker_0, # of connection points: 2
#     Edge 56, Type (0, 0), BuildingBlock: CIFDUS_clean_linker_0, # of connection points: 2
#     Edge 57, Type (0, 0), BuildingBlock: CIFDUS_clean_linker_0, # of connection points: 2
#     Edge 58, Type (0, 0), BuildingBlock: CIFDUS_clean_linker_0, # of connection points: 2
#     Edge 59, Type (0, 0), BuildingBlock: CIFDUS_clean_linker_0, # of connection points: 2
#     Edge 60, Type (0, 0), BuildingBlock: CIFDUS_clean_linker_0, # of connection points: 2
#     Edge 61, Type (0, 0), BuildingBlock: CIFDUS_clean_linker_0, # of connection points: 2
#     Edge 62, Type (0, 0), BuildingBlock: CIFDUS_clean_linker_0, # of connection points: 2
#     Edge 63, Type (0, 0), BuildingBlock: CIFDUS_clean_linker_0, # of connection points: 2
#     Edge 64, Type (0, 0), BuildingBlock: CIFDUS_clean_linker_0, # of connection points: 2
#     Edge 65, Type (0, 0), BuildingBlock: CIFDUS_clean_linker_0, # of connection points: 2
#     Edge 66, Type (0, 0), BuildingBlock: CIFDUS_clean_linker_0, # of connection points: 2
#     Edge 67, Type (0, 0), BuildingBlock: CIFDUS_clean_linker_0, # of connection points: 2
#     Edge 68, Type (0, 0), BuildingBlock: CIFDUS_clean_linker_0, # of connection points: 2
#     Edge 69, Type (0, 0), BuildingBlock: CIFDUS_clean_linker_0, # of connection points: 2
#     Edge 70, Type (0, 0), BuildingBlock: CIFDUS_clean_linker_0, # of connection points: 2
#     Edge 71, Type (0, 0), BuildingBlock: CIFDUS_clean_linker_0, # of connection points: 2
# Relax obj value: 0.080
# Max RMSD: 0.062
# Mean RMSD: 0.062
data_MOF--net-gme--node1-GALJAG_clean_sbu_0--edge1-CIFDUS_clean_linker_0
_symmetry_space_group_name_H-M    P1
_symmetry_Int_Tables_number       1
_symmetry_cell_setting            triclinic
loop_
_symmetry_equiv_pos_as_xyz
'x, y, z'
_cell_length_a     50.908184
_cell_length_b     50.912186
_cell_length_c     48.781354
_cell_angle_alpha  89.957822
_cell_angle_beta   90.028599
_cell_angle_gamma 120.00839
loop_
_atom_site_label
_atom_site_type_symbol
_atom_site_fract_x
_atom_site_fract_y
_atom_site_fract_z
_atom_type_partial_charge
In0 In 0.42066 0.08051 0.11566 0.0
O1 O 0.38929 0.05734 0.15317 0.0
O2 O 0.43686 0.07708 0.15786 0.0
C3 C 0.38834 0.05175 0.07035 0.0
C4 C 0.42069 0.13335 0.11788 0.0
C5 C 0.47245 0.08063 0.10425 0.0
O6 O 0.38545 0.03778 0.09258 0.0
O7 O 0.40674 0.07981 0.0714 0.0
O8 O 0.47107 0.10467 0.10583 0.0
O9 O 0.44749 0.05642 0.10787 0.0
C10 C 0.41119 0.06314 0.16902 0.0
O11 O 0.44426 0.13181 0.11324 0.0
O12 O 0.39695 0.10812 0.1218 0.0
In13 In 0.328 0.39884 0.61549 0.0
O14 O 0.29834 0.4193 0.60689 0.0
O15 O 0.2763 0.37314 0.6196 0.0
C16 C 0.37962 0.45165 0.60639 0.0
C17 C 0.33008 0.3917 0.67021 0.0
C18 C 0.33049 0.36559 0.57346 0.0
O19 O 0.35363 0.4484 0.6027 0.0
O20 O 0.37964 0.42801 0.61423 0.0
O21 O 0.33954 0.36425 0.59727 0.0
O22 O 0.31949 0.38281 0.5713 0.0
C23 C 0.27372 0.39567 0.61269 0.0
O24 O 0.32112 0.36947 0.65399 0.0
O25 O 0.33799 0.41669 0.6587 0.0
In26 In 0.92496 0.32681 0.12119 0.0
O27 O 0.93389 0.30938 0.16181 0.0
O28 O 0.95295 0.35671 0.15693 0.0
C29 C 0.95682 0.32624 0.07686 0.0
C30 C 0.87138 0.27461 0.11988 0.0
C31 C 0.91469 0.37351 0.11484 0.0
O32 O 0.96853 0.33371 0.10041 0.0
O33 O 0.92916 0.3184 0.07596 0.0
O34 O 0.89763 0.35033 0.12892 0.0
O35 O 0.93702 0.37318 0.10395 0.0
C36 C 0.94895 0.33529 0.17249 0.0
O37 O 0.87382 0.30031 0.11668 0.0
O38 O 0.89615 0.27508 0.12381 0.0
In39 In 0.57549 0.91012 0.61154 0.0
O40 O 0.55071 0.85947 0.60353 0.0
O41 O 0.59844 0.88178 0.61097 0.0
C42 C 0.52992 0.9225 0.60977 0.0
C43 C 0.58737 0.91552 0.66567 0.0
C44 C 0.60492 0.93694 0.56488 0.0
O45 O 0.52584 0.89624 0.60559 0.0
O46 O 0.55701 0.94249 0.61473 0.0
O47 O 0.61522 0.94885 0.58809 0.0
O48 O 0.58047 0.91193 0.56563 0.0
C49 C 0.57422 0.85718 0.60613 0.0
O50 O 0.60588 0.93513 0.64897 0.0
O51 O 0.56364 0.89448 0.65495 0.0
In52 In 0.65847 0.58952 0.11929 0.0
O53 O 0.66048 0.61432 0.15969 0.0
O54 O 0.6453 0.56705 0.16055 0.0
C55 C 0.66224 0.62544 0.07708 0.0
C56 C 0.71316 0.59343 0.11905 0.0
C57 C 0.60372 0.54179 0.10738 0.0
O58 O 0.65606 0.62989 0.10117 0.0
O59 O 0.66719 0.60364 0.07476 0.0
O60 O 0.62782 0.5404 0.10603 0.0
O61 O 0.60746 0.56736 0.11422 0.0
C62 C 0.65072 0.59039 0.17391 0.0
O63 O 0.68938 0.57008 0.1109 0.0
O64 O 0.7093 0.61481 0.12714 0.0
In65 In 0.06964 0.67846 0.61849 0.0
O66 O 0.04315 0.68284 0.65508 0.0
O67 O 0.06871 0.66078 0.66102 0.0
C68 C 0.03751 0.67598 0.57369 0.0
C69 C 0.11814 0.73471 0.62186 0.0
C70 C 0.07583 0.63024 0.60653 0.0
O71 O 0.02518 0.66684 0.59688 0.0
O72 O 0.06585 0.68696 0.57348 0.0
O73 O 0.09787 0.65712 0.60584 0.0
O74 O 0.05064 0.6278 0.61283 0.0
C75 C 0.05183 0.66951 0.6715 0.0
O76 O 0.12031 0.7111 0.62145 0.0
O77 O 0.09139 0.73003 0.62044 0.0
In78 In 0.93942 0.59907 0.38004 0.0
O79 O 0.95518 0.63225 0.34334 0.0
O80 O 0.94645 0.58746 0.33693 0.0
C81 C 0.96978 0.63306 0.42394 0.0
C82 C 0.88331 0.59179 0.38155 0.0
C83 C 0.94357 0.54898 0.38813 0.0
O84 O 0.98228 0.6366 0.40082 0.0
O85 O 0.94218 0.61297 0.42456 0.0
O86 O 0.91857 0.54829 0.38532 0.0
O87 O 0.96674 0.57518 0.38717 0.0
C88 C 0.95397 0.61286 0.32653 0.0
O89 O 0.88858 0.57061 0.38681 0.0
O90 O 0.90643 0.6168 0.37554 0.0
In91 In 0.3283 0.92478 0.88673 0.0
O92 O 0.30495 0.87339 0.88398 0.0
O93 O 0.27701 0.89322 0.88834 0.0
C94 C 0.37977 0.92205 0.88616 0.0
C95 C 0.32622 0.94854 0.83727 0.0
C96 C 0.33043 0.95008 0.93623 0.0
O97 O 0.35399 0.89928 0.88154 0.0
O98 O 0.37964 0.94636 0.89104 0.0
O99 O 0.33506 0.9646 0.91409 0.0
O100 O 0.32423 0.92306 0.93321 0.0
C101 C 0.27844 0.86926 0.88606 0.0
O102 O 0.30406 0.93722 0.85356 0.0
O103 O 0.34953 0.94896 0.84637 0.0
In104 In 0.40879 0.33264 0.3852 0.0
O105 O 0.42583 0.29946 0.39221 0.0
O106 O 0.38065 0.28185 0.37772 0.0
C107 C 0.45881 0.38565 0.39717 0.0
C108 C 0.40679 0.34143 0.3309 0.0
C109 C 0.37429 0.33079 0.42781 0.0
O110 O 0.45878 0.36079 0.39693 0.0
O111 O 0.43352 0.38352 0.39192 0.0
O112 O 0.37012 0.33748 0.40382 0.0
O113 O 0.39522 0.32448 0.4299 0.0
C114 C 0.40136 0.27647 0.38475 0.0
O115 O 0.38349 0.33251 0.3458 0.0
O116 O 0.43018 0.34557 0.34343 0.0
In117 In 0.0623 0.39774 0.88532 0.0
O118 O 0.11259 0.41796 0.89409 0.0
O119 O 0.08788 0.37188 0.88108 0.0
C120 C 0.05683 0.44704 0.89428 0.0
C121 C 0.05458 0.39251 0.83036 0.0
C122 C 0.02968 0.36403 0.9285 0.0
O123 O 0.08173 0.44749 0.89704 0.0
O124 O 0.03477 0.4217 0.88728 0.0
O125 O 0.01861 0.35947 0.90458 0.0
O126 O 0.05701 0.38475 0.93018 0.0
C127 C 0.11313 0.39407 0.88819 0.0
O128 O 0.03861 0.37037 0.84612 0.0
O129 O 0.0736 0.41638 0.84246 0.0
In130 In 0.66262 0.07413 0.38988 0.0
O131 O 0.69545 0.12476 0.39229 0.0
O132 O 0.71359 0.09606 0.38321 0.0
C133 C 0.61198 0.07605 0.40163 0.0
C134 C 0.65343 0.05956 0.33612 0.0
C135 C 0.66388 0.04382 0.43476 0.0
O136 O 0.63804 0.09943 0.4019 0.0
O137 O 0.61161 0.05165 0.39601 0.0
O138 O 0.65382 0.03067 0.412 0.0
O139 O 0.67377 0.07197 0.43445 0.0
C140 C 0.71865 0.12272 0.38702 0.0
O141 O 0.66372 0.04718 0.35202 0.0
O142 O 0.64802 0.07855 0.34745 0.0
In143 In 0.59341 0.67263 0.89063 0.0
O144 O 0.61574 0.67087 0.8497 0.0
O145 O 0.57189 0.66629 0.84923 0.0
C146 C 0.62736 0.66991 0.93183 0.0
C147 C 0.60411 0.72984 0.89321 0.0
C148 C 0.54013 0.62247 0.90211 0.0
O149 O 0.62902 0.66172 0.9077 0.0
O150 O 0.60948 0.68006 0.93461 0.0
O151 O 0.54425 0.64891 0.90495 0.0
O152 O 0.56309 0.62136 0.89395 0.0
C153 C 0.59326 0.66713 0.83554 0.0
O154 O 0.57966 0.70725 0.90122 0.0
O155 O 0.62364 0.72367 0.88411 0.0
In156 In 0.59391 0.9326 0.88142 0.0
O157 O 0.62239 0.95954 0.84366 0.0
O158 O 0.58399 0.91574 0.83801 0.0
C159 C 0.62665 0.96332 0.92565 0.0
C160 C 0.59377 0.88062 0.89083 0.0
C161 C 0.54387 0.93821 0.88392 0.0
O162 O 0.6341 0.97413 0.90171 0.0
O163 O 0.60314 0.93759 0.92689 0.0
O164 O 0.54293 0.91304 0.88465 0.0
O165 O 0.57021 0.96089 0.88203 0.0
C166 C 0.60578 0.93868 0.82706 0.0
O167 O 0.57108 0.88379 0.89529 0.0
O168 O 0.61694 0.90396 0.88165 0.0
In169 In 0.67252 0.58729 0.38831 0.0
O170 O 0.67471 0.61984 0.35409 0.0
O171 O 0.65714 0.57329 0.3447 0.0
C172 C 0.67353 0.61463 0.43599 0.0
C173 C 0.7287 0.59532 0.38375 0.0
C174 C 0.6226 0.53311 0.3973 0.0
O175 O 0.66325 0.61943 0.41412 0.0
O176 O 0.68376 0.59679 0.43348 0.0
O177 O 0.64867 0.53614 0.39467 0.0
O178 O 0.62181 0.55748 0.39559 0.0
C179 C 0.66374 0.5992 0.33612 0.0
O180 O 0.70577 0.56989 0.389 0.0
O181 O 0.72328 0.61679 0.38076 0.0
In182 In 0.06906 0.66049 0.88687 0.0
O183 O 0.11977 0.69317 0.89126 0.0
O184 O 0.09151 0.71194 0.88306 0.0
C185 C 0.07112 0.60995 0.89918 0.0
C186 C 0.05711 0.6532 0.83258 0.0
C187 C 0.03293 0.65855 0.92814 0.0
O188 O 0.09409 0.63618 0.90108 0.0
O189 O 0.04709 0.60937 0.89171 0.0
O190 O 0.02311 0.65033 0.90407 0.0
O191 O 0.06088 0.66816 0.93111 0.0
C192 C 0.11802 0.71671 0.88715 0.0
O193 O 0.04541 0.66453 0.84797 0.0
O194 O 0.0744 0.6459 0.84459 0.0
In195 In 0.40021 0.06674 0.38468 0.0
O196 O 0.42823 0.11775 0.39052 0.0
O197 O 0.38162 0.0991 0.38036 0.0
C198 C 0.44886 0.06069 0.39513 0.0
C199 C 0.38928 0.05349 0.33055 0.0
C200 C 0.36569 0.03596 0.42839 0.0
O201 O 0.44997 0.08603 0.39539 0.0
O202 O 0.42306 0.03828 0.38977 0.0
O203 O 0.3627 0.02354 0.40531 0.0
O204 O 0.38511 0.06377 0.42895 0.0
C205 C 0.40663 0.12255 0.38577 0.0
O206 O 0.36817 0.04851 0.34706 0.0
O207 O 0.41506 0.06449 0.34145 0.0
In208 In 0.33202 0.41547 0.88762 0.0
O209 O 0.30446 0.43798 0.89826 0.0
O210 O 0.28058 0.39244 0.88381 0.0
C211 C 0.38793 0.46263 0.89743 0.0
C212 C 0.33487 0.41219 0.83259 0.0
C213 C 0.32941 0.37873 0.92864 0.0
O214 O 0.3642 0.4643 0.90075 0.0
O215 O 0.38336 0.43706 0.88957 0.0
O216 O 0.33499 0.3748 0.9042 0.0
O217 O 0.32446 0.40042 0.93192 0.0
C218 C 0.27921 0.41523 0.89212 0.0
O219 O 0.32667 0.38903 0.84753 0.0
O220 O 0.34115 0.43605 0.84547 0.0
In221 In 0.92691 0.33223 0.38527 0.0
O222 O 0.94068 0.30949 0.35178 0.0
O223 O 0.94605 0.35257 0.34317 0.0
C224 C 0.95314 0.33263 0.4338 0.0
C225 C 0.87131 0.28269 0.3845 0.0
C226 C 0.92508 0.38405 0.3882 0.0
O227 O 0.96787 0.34027 0.4116 0.0
O228 O 0.92548 0.32427 0.43126 0.0
O229 O 0.90185 0.35855 0.38382 0.0
O230 O 0.9495 0.38351 0.39101 0.0
C231 C 0.94799 0.33037 0.33444 0.0
O232 O 0.87552 0.30931 0.38415 0.0
O233 O 0.89523 0.28102 0.38513 0.0
In234 In 0.08117 0.42492 0.61349 0.0
O235 O 0.13176 0.44711 0.60595 0.0
O236 O 0.108 0.40041 0.6175 0.0
C237 C 0.07201 0.47206 0.60566 0.0
C238 C 0.07316 0.41878 0.6683 0.0
C239 C 0.05393 0.39295 0.56792 0.0
O240 O 0.09793 0.47458 0.60376 0.0
O241 O 0.05071 0.44566 0.61113 0.0
O242 O 0.04066 0.38576 0.59098 0.0
O243 O 0.08037 0.41553 0.56837 0.0
C244 C 0.133 0.4234 0.61105 0.0
O245 O 0.05692 0.39688 0.65236 0.0
O246 O 0.09251 0.44266 0.6564 0.0
In247 In 0.66887 0.05985 0.12067 0.0
O248 O 0.6735 0.03462 0.15821 0.0
O249 O 0.65585 0.06425 0.16379 0.0
C250 C 0.6693 0.02907 0.0759 0.0
C251 C 0.72384 0.11026 0.12102 0.0
C252 C 0.6159 0.05778 0.11037 0.0
O253 O 0.66122 0.01655 0.09916 0.0
O254 O 0.67802 0.05699 0.07568 0.0
O255 O 0.64104 0.08229 0.11004 0.0
O256 O 0.6176 0.0344 0.1157 0.0
C257 C 0.66316 0.0464 0.1747 0.0
O258 O 0.69971 0.11072 0.11614 0.0
O259 O 0.72026 0.08426 0.12563 0.0
In260 In 0.59034 0.65746 0.61814 0.0
O261 O 0.62094 0.66171 0.655 0.0
O262 O 0.57653 0.6544 0.66217 0.0
C263 C 0.61907 0.65958 0.57117 0.0
C264 C 0.59346 0.71154 0.6152 0.0
C265 C 0.54152 0.60174 0.61268 0.0
O266 O 0.62742 0.65412 0.59392 0.0
O267 O 0.59695 0.6641 0.57259 0.0
O268 O 0.54014 0.6257 0.60999 0.0
O269 O 0.5676 0.60591 0.61805 0.0
C270 C 0.60099 0.65838 0.67239 0.0
O271 O 0.56888 0.6868 0.61214 0.0
O272 O 0.61648 0.70893 0.61987 0.0
In273 In 0.9164 0.58183 0.11299 0.0
O274 O 0.86604 0.5582 0.10265 0.0
O275 O 0.88529 0.6011 0.12222 0.0
C276 C 0.91784 0.53076 0.10192 0.0
C277 C 0.93568 0.59154 0.16572 0.0
C278 C 0.9497 0.61826 0.07138 0.0
O279 O 0.89469 0.53043 0.1117 0.0
O280 O 0.94006 0.55688 0.09725 0.0
O281 O 0.96034 0.62054 0.0952 0.0
O282 O 0.92213 0.59836 0.06892 0.0
C283 C 0.8619 0.57883 0.1122 0.0
O284 O 0.9369 0.61259 0.15109 0.0
O285 O 0.92483 0.56636 0.15381 0.0
In286 In 0.33064 0.9393 0.62469 0.0
O287 O 0.31275 0.9503 0.66393 0.0
O288 O 0.35931 0.96387 0.6621 0.0
C289 C 0.3297 0.96934 0.57905 0.0
C290 C 0.27911 0.88575 0.62969 0.0
C291 C 0.37722 0.92962 0.61471 0.0
O292 O 0.33606 0.98167 0.60239 0.0
O293 O 0.32324 0.94206 0.57903 0.0
O294 O 0.34995 0.90853 0.61519 0.0
O295 O 0.38105 0.95577 0.61897 0.0
C296 C 0.33789 0.96225 0.67622 0.0
O297 O 0.30494 0.88929 0.63503 0.0
O298 O 0.27911 0.90953 0.62218 0.0
In299 In 0.39939 0.33059 0.11459 0.0
O300 O 0.36871 0.32303 0.1521 0.0
O301 O 0.41636 0.34553 0.1578 0.0
C302 C 0.3662 0.33288 0.07234 0.0
C303 C 0.39607 0.27608 0.11492 0.0
C304 C 0.45277 0.38085 0.10347 0.0
O305 O 0.36498 0.342 0.0961 0.0
O306 O 0.38347 0.32191 0.07016 0.0
O307 O 0.44892 0.35444 0.10144 0.0
O308 O 0.4295 0.38191 0.11073 0.0
C309 C 0.39067 0.3355 0.16865 0.0
O310 O 0.42037 0.30064 0.11072 0.0
O311 O 0.37302 0.27884 0.11857 0.0
H312 H 0.42937 0.05329 0.29489 0.0
H313 H 0.34046 0.04384 0.29887 0.0
H314 H 0.33777 0.04305 0.24857 0.0
H315 H 0.36326 0.04994 0.20335 0.0
H316 H 0.45289 0.06065 0.20121 0.0
H317 H 0.4526 0.05579 0.25078 0.0
C318 C 0.40923 0.05075 0.2848 0.0
C319 C 0.3853 0.04895 0.30054 0.0
C320 C 0.40806 0.05069 0.25611 0.0
C321 C 0.35923 0.04532 0.28716 0.0
C322 C 0.35776 0.04501 0.25841 0.0
C323 C 0.38244 0.05069 0.21378 0.0
C324 C 0.40818 0.05593 0.19863 0.0
C325 C 0.38238 0.04837 0.24263 0.0
C326 C 0.43293 0.05695 0.21239 0.0
C327 C 0.43283 0.05419 0.24077 0.0
H328 H 0.35088 0.43773 0.70605 0.0
H329 H 0.30996 0.34044 0.70217 0.0
H330 H 0.30852 0.33783 0.75251 0.0
H331 H 0.31745 0.36371 0.79776 0.0
H332 H 0.35771 0.46119 0.79953 0.0
H333 H 0.36079 0.46313 0.74989 0.0
C334 C 0.34172 0.41588 0.71613 0.0
C335 C 0.33045 0.38932 0.70042 0.0
C336 C 0.34074 0.4146 0.74476 0.0
C337 C 0.31879 0.36124 0.71385 0.0
C338 C 0.3179 0.35976 0.7426 0.0
C339 C 0.32698 0.3853 0.7872 0.0
C340 C 0.33719 0.41223 0.80237 0.0
C341 C 0.32857 0.38634 0.75831 0.0
C342 C 0.34952 0.44009 0.78843 0.0
C343 C 0.35135 0.44128 0.75999 0.0
H344 H 0.94118 0.29284 0.2108 0.0
H345 H 0.97543 0.38874 0.20022 0.0
H346 H 0.98144 0.39624 0.24967 0.0
H347 H 0.97117 0.37474 0.29604 0.0
H348 H 0.937 0.279 0.30716 0.0
H349 H 0.93722 0.27233 0.2575 0.0
C350 C 0.95048 0.31544 0.21931 0.0
C351 C 0.95747 0.34012 0.20186 0.0
C352 C 0.95369 0.3196 0.2479 0.0
C353 C 0.96968 0.36931 0.21318 0.0
C354 C 0.97304 0.37363 0.2415 0.0
C355 C 0.96431 0.35251 0.28761 0.0
C356 C 0.95377 0.32736 0.30521 0.0
C357 C 0.96423 0.34882 0.25908 0.0
C358 C 0.94519 0.29874 0.29404 0.0
C359 C 0.94512 0.29488 0.26562 0.0
H360 H 0.62369 0.96396 0.69923 0.0
H361 H 0.5618 0.86725 0.69911 0.0
H362 H 0.56423 0.86594 0.74872 0.0
H363 H 0.58035 0.89207 0.79211 0.0
H364 H 0.641 0.98874 0.79465 0.0
H365 H 0.64294 0.99031 0.74423 0.0
C366 C 0.61111 0.94265 0.71015 0.0
C367 C 0.59232 0.91579 0.69554 0.0
C368 C 0.61219 0.94206 0.73908 0.0
C369 C 0.57609 0.8883 0.70989 0.0
C370 C 0.57747 0.88747 0.73828 0.0
C371 C 0.59418 0.91354 0.7817 0.0
C372 C 0.61022 0.94029 0.79701 0.0
C373 C 0.59484 0.91423 0.75306 0.0
C374 C 0.62837 0.96783 0.78324 0.0
C375 C 0.62937 0.96871 0.75444 0.0
H376 H 0.63082 0.55681 0.29865 0.0
H377 H 0.68946 0.65329 0.30787 0.0
H378 H 0.68869 0.65992 0.25803 0.0
H379 H 0.67483 0.6371 0.21132 0.0
H380 H 0.61709 0.54008 0.20392 0.0
H381 H 0.61387 0.53492 0.25348 0.0
C382 C 0.64322 0.57938 0.28982 0.0
C383 C 0.66042 0.60447 0.30683 0.0
C384 C 0.64296 0.58287 0.26139 0.0
C385 C 0.67606 0.63359 0.29514 0.0
C386 C 0.67574 0.63734 0.26665 0.0
C387 C 0.66124 0.61496 0.22066 0.0
C388 C 0.64651 0.58897 0.20396 0.0
C389 C 0.6598 0.61201 0.24947 0.0
C390 C 0.62895 0.5604 0.21628 0.0
C391 C 0.62706 0.55738 0.24465 0.0
H392 H 0.06083 0.63396 0.70625 0.0
H393 H 0.02798 0.69725 0.7032 0.0
H394 H 0.0239 0.69581 0.75342 0.0
H395 H 0.03459 0.68001 0.7984 0.0
H396 H 0.06931 0.61807 0.79973 0.0
H397 H 0.06759 0.61543 0.74997 0.0
C398 C 0.05248 0.64725 0.71651 0.0
C399 C 0.04504 0.66593 0.70114 0.0
C400 C 0.05074 0.64668 0.74512 0.0
C401 C 0.0339 0.68272 0.71467 0.0
C402 C 0.03173 0.68201 0.74336 0.0
C403 C 0.04134 0.66566 0.78772 0.0
C404 C 0.05236 0.64951 0.80268 0.0
C405 C 0.0408 0.66461 0.75885 0.0
C406 C 0.06107 0.63098 0.78867 0.0
C407 C 0.06009 0.62942 0.7602 0.0
H408 H 0.94647 0.63781 0.20097 0.0
H409 H 0.94528 0.55256 0.19567 0.0
H410 H 0.95456 0.55378 0.24466 0.0
H411 H 0.95793 0.57605 0.28943 0.0
H412 H 0.95719 0.66008 0.2965 0.0
H413 H 0.95434 0.6627 0.24643 0.0
C414 C 0.9487 0.61979 0.21056 0.0
C415 C 0.94486 0.59497 0.1948 0.0
C416 C 0.95356 0.62034 0.23905 0.0
C417 C 0.9478 0.57175 0.20741 0.0
C418 C 0.95314 0.57241 0.23544 0.0
C419 C 0.95756 0.59519 0.28003 0.0
C420 C 0.95746 0.61767 0.29659 0.0
C421 C 0.95526 0.59614 0.25152 0.0
C422 C 0.95726 0.64246 0.28413 0.0
C423 C 0.95543 0.64385 0.25553 0.0
H424 H 0.37207 0.97693 0.80081 0.0
H425 H 0.27521 0.9374 0.80909 0.0
H426 H 0.27055 0.94184 0.7596 0.0
H427 H 0.29337 0.95071 0.71344 0.0
H428 H 0.3902 0.98908 0.70567 0.0
H429 H 0.39552 0.99175 0.75541 0.0
C430 C 0.35 0.9698 0.79185 0.0
C431 C 0.32399 0.95652 0.80852 0.0
C432 C 0.34745 0.97199 0.76339 0.0
C433 C 0.29558 0.94762 0.79667 0.0
C434 C 0.29288 0.95 0.76834 0.0
C435 C 0.31569 0.96027 0.72265 0.0
C436 C 0.3413 0.96935 0.70588 0.0
C437 C 0.31856 0.96123 0.75139 0.0
C438 C 0.37008 0.98172 0.71811 0.0
C439 C 0.37315 0.98315 0.74658 0.0
H440 H 0.3588 0.31987 0.29512 0.0
H441 H 0.45644 0.37372 0.29964 0.0
H442 H 0.4596 0.37847 0.25002 0.0
H443 H 0.43544 0.36454 0.20537 0.0
H444 H 0.33817 0.30936 0.19913 0.0
H445 H 0.33397 0.30814 0.24931 0.0
C446 C 0.38066 0.33292 0.28517 0.0
C447 C 0.40735 0.34623 0.301 0.0
C448 C 0.38241 0.33518 0.25635 0.0
C449 C 0.43557 0.36302 0.28791 0.0
C450 C 0.43744 0.36578 0.25951 0.0
C451 C 0.41325 0.35241 0.21493 0.0
C452 C 0.38718 0.33688 0.19861 0.0
C453 C 0.41111 0.35147 0.24354 0.0
C454 C 0.3586 0.32146 0.21131 0.0
C455 C 0.35621 0.32069 0.23997 0.0
H456 H 0.03723 0.3699 0.70181 0.0
H457 H 0.10428 0.46535 0.70304 0.0
H458 H 0.10357 0.46535 0.75266 0.0
H459 H 0.08542 0.43887 0.79569 0.0
H460 H 0.01879 0.34359 0.79694 0.0
H461 H 0.01769 0.34293 0.74651 0.0
C462 C 0.05152 0.39064 0.71302 0.0
C463 C 0.07084 0.41755 0.69861 0.0
C464 C 0.05115 0.39057 0.742 0.0
C465 C 0.08925 0.44426 0.71345 0.0
C466 C 0.0889 0.44436 0.74193 0.0
C467 C 0.07053 0.41787 0.78504 0.0
C468 C 0.05229 0.39131 0.80005 0.0
C469 C 0.07016 0.4177 0.75637 0.0
C470 C 0.03309 0.36438 0.78583 0.0
C471 C 0.03251 0.36401 0.75701 0.0
H472 H 0.67665 0.03299 0.30215 0.0
H473 H 0.61985 0.07369 0.30319 0.0
H474 H 0.61599 0.07071 0.25355 0.0
H475 H 0.63183 0.06073 0.20983 0.0
H476 H 0.6894 0.02115 0.20679 0.0
H477 H 0.6896 0.01913 0.25714 0.0
C478 C 0.66312 0.04076 0.29145 0.0
C479 C 0.6488 0.05381 0.30633 0.0
C480 C 0.66128 0.03939 0.26257 0.0
C481 C 0.63135 0.06384 0.29223 0.0
C482 C 0.6291 0.06216 0.26381 0.0
C483 C 0.64426 0.05141 0.22013 0.0
C484 C 0.66083 0.04142 0.20468 0.0
C485 C 0.64451 0.05067 0.24879 0.0
C486 C 0.6765 0.02905 0.2183 0.0
C487 C 0.67671 0.02802 0.24706 0.0
H488 H 0.56048 0.65275 0.71036 0.0
H489 H 0.65114 0.66735 0.70207 0.0
H490 H 0.6571 0.67092 0.75223 0.0
H491 H 0.63616 0.67074 0.79866 0.0
H492 H 0.54523 0.65653 0.80442 0.0
H493 H 0.53991 0.65204 0.75506 0.0
C494 C 0.58161 0.65664 0.7194 0.0
C495 C 0.60533 0.65979 0.7025 0.0
C496 C 0.58484 0.65882 0.7479 0.0
C497 C 0.63251 0.66483 0.71467 0.0
C498 C 0.6359 0.6669 0.74332 0.0
C499 C 0.61522 0.66658 0.78902 0.0
C500 C 0.59116 0.66402 0.80531 0.0
C501 C 0.6122 0.66407 0.7602 0.0
C502 C 0.56416 0.65866 0.79252 0.0
C503 C 0.56102 0.65606 0.76421 0.0
H504 H 0.37252 0.14224 0.12367 0.0
H505 H 0.46947 0.1897 0.11123 0.0
H506 H 0.47021 0.23791 0.10905 0.0
H507 H 0.44347 0.26653 0.11017 0.0
H508 H 0.34659 0.21975 0.12258 0.0
H509 H 0.34563 0.17125 0.12517 0.0
C510 C 0.3938 0.16317 0.12059 0.0
C511 C 0.4209 0.16243 0.11762 0.0
C512 C 0.39406 0.19086 0.11923 0.0
C513 C 0.4483 0.18968 0.11358 0.0
C514 C 0.44875 0.21725 0.11229 0.0
C515 C 0.42212 0.24572 0.1134 0.0
C516 C 0.39514 0.24667 0.1161 0.0
C517 C 0.42178 0.21808 0.11496 0.0
C518 C 0.36766 0.21956 0.12037 0.0
C519 C 0.36712 0.19185 0.1219 0.0
H520 H 0.14119 0.37546 0.62108 0.0
H521 H 0.18885 0.46979 0.5973 0.0
H522 H 0.23637 0.46911 0.59493 0.0
H523 H 0.26449 0.44214 0.60037 0.0
H524 H 0.21745 0.34799 0.6246 0.0
H525 H 0.16944 0.34811 0.6259 0.0
C526 C 0.16199 0.39584 0.61536 0.0
C527 C 0.16155 0.42266 0.60945 0.0
C528 C 0.18926 0.39531 0.61408 0.0
C529 C 0.18862 0.44888 0.602 0.0
C530 C 0.21579 0.44852 0.60062 0.0
C531 C 0.24372 0.42159 0.60583 0.0
C532 C 0.24447 0.3951 0.6124 0.0
C533 C 0.21638 0.42191 0.60671 0.0
C534 C 0.21741 0.36867 0.61945 0.0
C535 C 0.19 0.36874 0.62024 0.0
H536 H 0.85982 0.21677 0.12731 0.0
H537 H 0.81632 0.26929 0.11062 0.0
H538 H 0.76695 0.22307 0.10931 0.0
H539 H 0.73605 0.16788 0.11307 0.0
H540 H 0.77898 0.11493 0.13002 0.0
H541 H 0.82865 0.16116 0.13104 0.0
C542 C 0.83952 0.21805 0.12337 0.0
C543 C 0.84171 0.24638 0.11907 0.0
C544 C 0.81112 0.19134 0.12269 0.0
C545 C 0.81524 0.24774 0.11401 0.0
C546 C 0.78698 0.22133 0.11325 0.0
C547 C 0.75628 0.16644 0.11696 0.0
C548 C 0.75388 0.13808 0.12145 0.0
C549 C 0.78466 0.19304 0.11758 0.0
C550 C 0.78026 0.13655 0.12649 0.0
C551 C 0.80866 0.16296 0.12709 0.0
H552 H 0.54754 0.7223 0.60404 0.0
H553 H 0.64328 0.76741 0.62229 0.0
H554 H 0.64599 0.81664 0.62005 0.0
H555 H 0.6209 0.84671 0.61402 0.0
H556 H 0.52506 0.80158 0.59613 0.0
H557 H 0.52269 0.75246 0.59694 0.0
C558 C 0.569 0.74292 0.60748 0.0
C559 C 0.59514 0.74125 0.61342 0.0
C560 C 0.57038 0.7711 0.60619 0.0
C561 C 0.62282 0.76812 0.61775 0.0
C562 C 0.62439 0.79627 0.61646 0.0
C563 C 0.59953 0.82614 0.61013 0.0
C564 C 0.57319 0.82773 0.60506 0.0
C565 C 0.59829 0.798 0.61083 0.0
C566 C 0.54566 0.80091 0.6001 0.0
C567 C 0.54427 0.77283 0.60061 0.0
H568 H 0.7269 0.5511 0.10169 0.0
H569 H 0.76669 0.64053 0.13724 0.0
H570 H 0.81627 0.64392 0.13835 0.0
H571 H 0.8483 0.62138 0.12937 0.0
H572 H 0.8085 0.53208 0.09354 0.0
H573 H 0.75896 0.52874 0.09241 0.0
C574 C 0.74644 0.57133 0.10966 0.0
C575 C 0.74315 0.59551 0.11937 0.0
C576 C 0.77486 0.57315 0.11021 0.0
C577 C 0.76865 0.6216 0.12962 0.0
C578 C 0.797 0.62356 0.13028 0.0
C579 C 0.82877 0.6012 0.12133 0.0
C580 C 0.83203 0.57701 0.11159 0.0
C581 C 0.80037 0.59946 0.12066 0.0
C582 C 0.80656 0.55102 0.10117 0.0
C583 C 0.77823 0.54908 0.10051 0.0
H584 H 0.22078 0.87245 0.62183 0.0
H585 H 0.27545 0.83163 0.6401 0.0
H586 H 0.23036 0.78138 0.63961 0.0
H587 H 0.17578 0.74891 0.63266 0.0
H588 H 0.12047 0.78912 0.61518 0.0
H589 H 0.16543 0.83978 0.61674 0.0
C590 C 0.22275 0.85254 0.62583 0.0
C591 C 0.25138 0.85572 0.63088 0.0
C592 C 0.19668 0.82365 0.62556 0.0
C593 C 0.25364 0.82978 0.63615 0.0
C594 C 0.22789 0.80102 0.63582 0.0
C595 C 0.17356 0.76876 0.62922 0.0
C596 C 0.14496 0.76534 0.62363 0.0
C597 C 0.19937 0.79768 0.63031 0.0
C598 C 0.14232 0.79123 0.61947 0.0
C599 C 0.168 0.82017 0.62033 0.0
H600 H 0.86682 0.63417 0.37243 0.0
H601 H 0.83072 0.53979 0.39296 0.0
H602 H 0.7796 0.53252 0.39508 0.0
H603 H 0.74528 0.553 0.39153 0.0
H604 H 0.78115 0.64743 0.37142 0.0
H605 H 0.83231 0.65466 0.36866 0.0
C606 C 0.84775 0.61202 0.37734 0.0
C607 C 0.8525 0.58757 0.38255 0.0
C608 C 0.81843 0.60801 0.3786 0.0
C609 C 0.82762 0.55898 0.38888 0.0
C610 C 0.79839 0.55479 0.3901 0.0
C611 C 0.76429 0.57515 0.3865 0.0
C612 C 0.7595 0.59964 0.3817 0.0
C613 C 0.79356 0.57915 0.38505 0.0
C614 C 0.78431 0.62822 0.37522 0.0
C615 C 0.81354 0.63238 0.37365 0.0
H616 H 0.17698 0.73133 0.88845 0.0
H617 H 0.11931 0.77088 0.88511 0.0
H618 H 0.16392 0.82173 0.88461 0.0
H619 H 0.21937 0.85491 0.88513 0.0
H620 H 0.27684 0.81506 0.88729 0.0
H621 H 0.23224 0.76435 0.88819 0.0
C622 C 0.17418 0.75109 0.88766 0.0
C623 C 0.14494 0.7474 0.88691 0.0
C624 C 0.19988 0.78017 0.88713 0.0
C625 C 0.14163 0.77317 0.88571 0.0
C626 C 0.16711 0.80223 0.88543 0.0
C627 C 0.22209 0.83511 0.8858 0.0
C628 C 0.25132 0.8387 0.8862 0.0
C629 C 0.19635 0.806 0.88613 0.0
C630 C 0.25456 0.81287 0.88694 0.0
C631 C 0.22908 0.78387 0.88749 0.0
H632 H 0.36411 0.13855 0.37519 0.0
H633 H 0.4578 0.17537 0.39864 0.0
H634 H 0.46436 0.22622 0.40068 0.0
H635 H 0.44356 0.26026 0.39575 0.0
H636 H 0.35003 0.22365 0.37187 0.0
H637 H 0.34332 0.17269 0.37009 0.0
C638 C 0.38594 0.15772 0.38074 0.0
C639 C 0.41041 0.15323 0.38676 0.0
C640 C 0.38959 0.18691 0.38183 0.0
C641 C 0.4386 0.17825 0.3939 0.0
C642 C 0.44238 0.20734 0.39509 0.0
C643 C 0.4217 0.24111 0.39021 0.0
C644 C 0.39733 0.24568 0.38399 0.0
C645 C 0.41804 0.21193 0.3891 0.0
C646 C 0.36916 0.2207 0.37675 0.0
C647 C 0.36529 0.19156 0.37572 0.0
H648 H 0.22252 0.36922 0.88037 0.0
H649 H 0.27144 0.46212 0.9081 0.0
H650 H 0.22422 0.46349 0.90999 0.0
H651 H 0.16928 0.43875 0.90273 0.0
H652 H 0.1202 0.34593 0.87486 0.0
H653 H 0.16723 0.34403 0.87416 0.0
C654 C 0.22281 0.38972 0.8869 0.0
C655 C 0.25042 0.41555 0.89401 0.0
C656 C 0.19558 0.39037 0.8879 0.0
C657 C 0.25047 0.44194 0.90249 0.0
C658 C 0.22349 0.44275 0.90357 0.0
C659 C 0.16886 0.41807 0.8966 0.0
C660 C 0.14134 0.39255 0.8888 0.0
C661 C 0.19595 0.41718 0.89616 0.0
C662 C 0.14113 0.3659 0.88094 0.0
C663 C 0.168 0.3648 0.88051 0.0
H664 H 0.7335 0.18164 0.38938 0.0
H665 H 0.7725 0.12379 0.38142 0.0
H666 H 0.82337 0.16832 0.3798 0.0
H667 H 0.85671 0.2237 0.38113 0.0
H668 H 0.81734 0.28132 0.38833 0.0
H669 H 0.7666 0.23681 0.38971 0.0
C670 C 0.75313 0.17878 0.38729 0.0
C671 C 0.74931 0.14953 0.38561 0.0
C672 C 0.78221 0.20441 0.38623 0.0
C673 C 0.77491 0.14613 0.38276 0.0
C674 C 0.80398 0.17155 0.38185 0.0
C675 C 0.837 0.22647 0.38297 0.0
C676 C 0.84073 0.2557 0.3847 0.0
C677 C 0.80789 0.2008 0.38364 0.0
C678 C 0.81503 0.25902 0.38696 0.0
C679 C 0.78602 0.23361 0.38779 0.0
H680 H 0.56467 0.7468 0.91111 0.0
H681 H 0.65348 0.78219 0.87517 0.0
H682 H 0.6589 0.8327 0.87245 0.0
H683 H 0.63709 0.8661 0.87824 0.0
H684 H 0.54769 0.8296 0.91333 0.0
H685 H 0.54387 0.7802 0.9185 0.0
C686 C 0.58532 0.76559 0.90284 0.0
C687 C 0.60858 0.76079 0.89324 0.0
C688 C 0.5881 0.79433 0.90109 0.0
C689 C 0.63522 0.78536 0.88265 0.0
C690 C 0.6383 0.8142 0.88104 0.0
C691 C 0.61689 0.84736 0.88718 0.0
C692 C 0.59266 0.85143 0.89527 0.0
C693 C 0.6147 0.81885 0.88988 0.0
C694 C 0.56661 0.827 0.90683 0.0
C695 C 0.56438 0.79874 0.9098 0.0
H696 H 0.35055 0.00932 0.94839 0.0
H697 H 0.31998 0.92189 0.98572 0.0
H698 H 0.33249 0.94522 0.03106 0.0
H699 H 0.35644 0.99108 0.05979 0.0
H700 H 0.38837 0.07862 0.02219 0.0
H701 H 0.37076 0.05468 0.97752 0.0
C702 C 0.34625 0.99535 0.96649 0.0
C703 C 0.33459 0.96399 0.96366 0.0
C704 C 0.35392 0.00897 0.99252 0.0
C705 C 0.32911 0.94615 0.98731 0.0
C706 C 0.3363 0.95947 0.01328 0.0
C707 C 0.3591 0.00484 0.04188 0.0
C708 C 0.37388 0.03657 0.04428 0.0
C709 C 0.34937 0.99095 0.01609 0.0
C710 C 0.37722 0.05413 0.02088 0.0
C711 C 0.36721 0.04047 0.99528 0.0
H712 H 0.37958 0.3165 0.48025 0.0
H713 H 0.33359 0.35084 0.43002 0.0
H714 H 0.31312 0.36162 0.47111 0.0
H715 H 0.31283 0.36623 0.52119 0.0
H716 H 0.36007 0.33327 0.5714 0.0
H717 H 0.37524 0.31663 0.53036 0.0
C718 C 0.36474 0.32597 0.47827 0.0
C719 C 0.35836 0.33318 0.45216 0.0
C720 C 0.35345 0.3325 0.50196 0.0
C721 C 0.33893 0.34521 0.4499 0.0
C722 C 0.32732 0.35148 0.47339 0.0
C723 C 0.32607 0.355 0.52319 0.0
C724 C 0.33559 0.35126 0.54927 0.0
C725 C 0.33511 0.34597 0.49951 0.0
C726 C 0.35256 0.3365 0.55155 0.0
C727 C 0.36134 0.32711 0.52809 0.0
H728 H 0.05064 0.36729 0.98011 0.0
H729 H 0.96814 0.32751 0.93254 0.0
H730 H 0.93811 0.30955 0.97463 0.0
H731 H 0.93545 0.31 0.02499 0.0
H732 H 0.01811 0.35062 0.0724 0.0
H733 H 0.04797 0.36316 0.03026 0.0
C734 C 0.02608 0.35432 0.97891 0.0
C735 C 0.0116 0.34901 0.95327 0.0
C736 C 0.00903 0.34443 0.00317 0.0
C737 C 0.97981 0.33195 0.95203 0.0
C738 C 0.96264 0.32181 0.9761 0.0
C739 C 0.95999 0.32122 0.02611 0.0
C740 C 0.97458 0.32967 0.05177 0.0
C741 C 0.97701 0.32866 0.00179 0.0
C742 C 0.00635 0.34398 0.05291 0.0
C743 C 0.02344 0.35126 0.02882 0.0
H744 H 0.63346 0.98291 0.44318 0.0
H745 H 0.68808 0.06834 0.48442 0.0
H746 H 0.67751 0.04234 0.52854 0.0
H747 H 0.64806 0.99591 0.55591 0.0
H748 H 0.59166 0.91095 0.51453 0.0
H749 H 0.60781 0.93602 0.47015 0.0
C750 C 0.64347 0.99575 0.46177 0.0
C751 C 0.66128 0.02748 0.46057 0.0
C752 C 0.63675 0.98073 0.48716 0.0
C753 C 0.67409 0.04386 0.48483 0.0
C754 C 0.66801 0.02903 0.5101 0.0
C755 C 0.63977 0.98286 0.53716 0.0
C756 C 0.61851 0.95173 0.53849 0.0
C757 C 0.64865 0.99756 0.51161 0.0
C758 C 0.60787 0.93504 0.51404 0.0
C759 C 0.61705 0.94935 0.48863 0.0
H760 H 0.67618 0.61991 0.02458 0.0
H761 H 0.64389 0.6675 0.07503 0.0
H762 H 0.63345 0.6884 0.034 0.0
H763 H 0.6282 0.68839 0.98399 0.0
H764 H 0.65903 0.63957 0.93351 0.0
H765 H 0.67576 0.62419 0.97443 0.0
C766 C 0.66727 0.63522 0.02663 0.0
C767 C 0.66048 0.64189 0.0528 0.0
C768 C 0.6609 0.64673 0.00296 0.0
C769 C 0.64919 0.66193 0.05513 0.0
C770 C 0.6431 0.67377 0.03167 0.0
C771 C 0.63899 0.67475 0.9819 0.0
C772 C 0.64207 0.66483 0.95579 0.0
C773 C 0.64806 0.66561 0.0055 0.0
C774 C 0.65632 0.6474 0.95338 0.0
C775 C 0.66575 0.63849 0.97678 0.0
H776 H 0.05994 0.69297 0.52238 0.0
H777 H 0.97598 0.64764 0.56774 0.0
H778 H 0.94732 0.63298 0.52483 0.0
H779 H 0.94653 0.62852 0.47473 0.0
H780 H 0.03057 0.67241 0.42941 0.0
H781 H 0.05886 0.69248 0.47209 0.0
C782 C 0.03535 0.68025 0.52289 0.0
C783 C 0.02008 0.67112 0.54816 0.0
C784 C 0.01909 0.67148 0.49818 0.0
C785 C 0.98824 0.65482 0.54853 0.0
C786 C 0.97186 0.64634 0.52401 0.0
C787 C 0.97101 0.64281 0.47415 0.0
C788 C 0.9865 0.64872 0.44902 0.0
C789 C 0.9871 0.65383 0.49875 0.0
C790 C 0.01817 0.66744 0.44854 0.0
C791 C 0.03435 0.67883 0.47293 0.0
H792 H 0.62132 0.93958 0.97617 0.0
H793 H 0.66741 0.02387 0.93141 0.0
H794 H 0.68773 0.05161 0.9744 0.0
H795 H 0.6876 0.05214 0.02485 0.0
H796 H 0.64087 0.96767 0.06936 0.0
H797 H 0.62592 0.93961 0.02618 0.0
C798 C 0.63612 0.964 0.97579 0.0
C799 C 0.64255 0.97976 0.95075 0.0
C800 C 0.64747 0.9797 1.0005 0.0
C801 C 0.66207 0.0113 0.95047 0.0
C802 C 0.67357 0.02714 0.97504 0.0
C803 C 0.67456 0.02756 0.0251 0.0
C804 C 0.66504 0.01199 0.05025 0.0
C805 C 0.66572 0.01163 1.0002 0.0
C806 C 0.64839 0.98016 0.05028 0.0
C807 C 0.63971 0.96412 0.0256 0.0
H808 H 0.64686 0.64802 0.44774 0.0
H809 H 0.69436 0.60685 0.48504 0.0
H810 H 0.6844 0.61986 0.53053 0.0
H811 H 0.65773 0.63845 0.55991 0.0
H812 H 0.60902 0.67815 0.52221 0.0
H813 H 0.62414 0.67051 0.4769 0.0
C814 C 0.65542 0.64231 0.46581 0.0
C815 C 0.67106 0.62628 0.46303 0.0
C816 C 0.64919 0.64941 0.49194 0.0
C817 C 0.68207 0.61906 0.48663 0.0
C818 C 0.67633 0.62642 0.51269 0.0
C819 C 0.65088 0.64585 0.54178 0.0
C820 C 0.63207 0.65855 0.5444 0.0
C821 C 0.65924 0.64092 0.51563 0.0
C822 C 0.62331 0.66804 0.52074 0.0
C823 C 0.6319 0.66366 0.49478 0.0
H824 H 0.93178 0.61412 0.01846 0.0
H825 H 0.01068 0.65781 0.07065 0.0
H826 H 0.04346 0.67704 0.03038 0.0
H827 H 0.04993 0.67629 0.98061 0.0
H828 H 0.97115 0.6313 0.92842 0.0
H829 H 0.93802 0.61795 0.96846 0.0
C830 C 0.95611 0.62829 0.02103 0.0
C831 C 0.96883 0.63426 0.04747 0.0
C832 C 0.97483 0.63876 0.9978 0.0
C833 C 0.00036 0.65278 0.0505 0.0
C834 C 0.01912 0.66366 0.02748 0.0
C835 C 0.0255 0.66393 0.97796 0.0
C836 C 0.01298 0.65445 0.95166 0.0
C837 C 0.00665 0.65598 1.00106 0.0
C838 C 0.98132 0.6387 0.94849 0.0
C839 C 0.96237 0.63098 0.97137 0.0
H840 H 0.31384 0.94581 0.52791 0.0
H841 H 0.35247 0.03024 0.57244 0.0
H842 H 0.3641 0.0583 0.52924 0.0
H843 H 0.36816 0.05899 0.47903 0.0
H844 H 0.33043 0.97458 0.43453 0.0
H845 H 0.31318 0.9463 0.47755 0.0
C846 C 0.32443 0.97034 0.52817 0.0
C847 C 0.33261 0.98598 0.55332 0.0
C848 C 0.33134 0.9863 0.50328 0.0
C849 C 0.34607 0.01771 0.55335 0.0
C850 C 0.35282 0.03375 0.52866 0.0
C851 C 0.35574 0.03439 0.4787 0.0
C852 C 0.35085 0.01889 0.45366 0.0
C853 C 0.3463 0.01832 0.50352 0.0
C854 C 0.33455 0.98704 0.45354 0.0
C855 C 0.32482 0.97086 0.47814 0.0
H856 H 0.36768 0.31689 0.01949 0.0
H857 H 0.33208 0.36043 0.07136 0.0
H858 H 0.31438 0.37555 0.03105 0.0
H859 H 0.31411 0.38122 0.98122 0.0
H860 H 0.3508 0.33898 0.92907 0.0
H861 H 0.36261 0.31811 0.96938 0.0
C862 C 0.35563 0.32929 0.02198 0.0
C863 C 0.35149 0.33784 0.04835 0.0
C864 C 0.3459 0.33828 0.99868 0.0
C865 C 0.3357 0.35373 0.05128 0.0
C866 C 0.32565 0.36246 0.02823 0.0
C867 C 0.32429 0.36707 0.97863 0.0
C868 C 0.3319 0.36192 0.95225 0.0
C869 C 0.33141 0.35561 0.00185 0.0
C870 C 0.34481 0.34333 0.94919 0.0
C871 C 0.3517 0.33154 0.97223 0.0
H872 H 0.99375 0.35484 0.55759 0.0
H873 H 0.08195 0.39865 0.51928 0.0
H874 H 0.05866 0.38109 0.47441 0.0
H875 H 0.01318 0.35789 0.44548 0.0
H876 H 0.92478 0.31564 0.48331 0.0
H877 H 0.94809 0.32762 0.52872 0.0
C878 C 0.00782 0.36004 0.53946 0.0
C879 C 0.03947 0.37822 0.54173 0.0
C880 C 0.99423 0.35037 0.51352 0.0
C881 C 0.05747 0.38489 0.51805 0.0
C882 C 0.0442 0.3749 0.49234 0.0
C883 C -0.00097 0.35089 0.46367 0.0
C884 C 0.96735 0.33615 0.46102 0.0
C885 C 0.01258 0.35834 0.48973 0.0
C886 C 0.94929 0.3272 0.48479 0.0
C887 C 0.96258 0.3341 0.5108 0.0
H888 H 0.48153 0.03246 0.10541 0.0
H889 H 0.52858 0.12979 0.09622 0.0
H890 H 0.57723 0.13115 0.09565 0.0
H891 H 0.60653 0.10505 0.10087 0.0
H892 H 0.55944 0.00783 0.11109 0.0
H893 H 0.51071 0.00606 0.10804 0.0
C894 C 0.50241 0.05392 0.10298 0.0
C895 C 0.50148 0.08099 0.101 0.0
C896 C 0.53031 0.05459 0.10304 0.0
C897 C 0.52871 0.10864 0.09786 0.0
C898 C 0.55654 0.10945 0.0976 0.0
C899 C 0.5856 0.08346 0.1022 0.0
C900 C 0.58659 0.05665 0.10638 0.0
C901 C 0.55764 0.08263 0.10068 0.0
C902 C 0.55929 0.02882 0.10799 0.0
C903 C 0.5314 0.02778 0.10627 0.0
H904 H 0.48452 0.58772 0.59838 0.0
H905 H 0.538 0.54728 0.62234 0.0
H906 H 0.49277 0.49692 0.62118 0.0
H907 H 0.43761 0.46464 0.61533 0.0
H908 H 0.3843 0.50535 0.59152 0.0
H909 H 0.42992 0.5553 0.59045 0.0
C910 C 0.48629 0.56787 0.60323 0.0
C911 C 0.51449 0.57121 0.61059 0.0
C912 C 0.46023 0.53904 0.60256 0.0
C913 C 0.5165 0.54529 0.61667 0.0
C914 C 0.49066 0.51649 0.61603 0.0
C915 C 0.43604 0.48442 0.60969 0.0
C916 C 0.40763 0.48134 0.60363 0.0
C917 C 0.46235 0.51313 0.60929 0.0
C918 C 0.40592 0.50714 0.59632 0.0
C919 C 0.43197 0.53573 0.59576 0.0
H920 H 0.95135 0.42778 0.09049 0.0
H921 H 0.86617 0.37719 0.13328 0.0
H922 H 0.85848 0.42081 0.13109 0.0
H923 H 0.8773 0.47413 0.11933 0.0
H924 H 0.96338 0.52542 0.07813 0.0
H925 H 0.96926 0.48063 0.07714 0.0
C926 C 0.93101 0.42626 0.09916 0.0
C927 C 0.90943 0.39939 0.11214 0.0
C928 C 0.92692 0.45154 0.09813 0.0
C929 C 0.88319 0.39771 0.1233 0.0
C930 C 0.87877 0.42262 0.12204 0.0
C931 C 0.89717 0.4754 0.10984 0.0
C932 C 0.91989 0.50301 0.09886 0.0
C933 C 0.90066 0.44976 0.10983 0.0
C934 C 0.94559 0.50439 0.08676 0.0
C935 C 0.94901 0.47883 0.08625 0.0
H936 H 0.43745 0.97042 0.61779 0.0
H937 H 0.37387 0.87569 0.60328 0.0
H938 H 0.41565 0.86531 0.5995 0.0
H939 H 0.47007 0.88277 0.60201 0.0
H940 H 0.53366 0.97729 0.61741 0.0
H941 H 0.49205 0.98814 0.61908 0.0
C942 C 0.43278 0.94755 0.61361 0.0
C943 C 0.40265 0.92386 0.61087 0.0
C944 C 0.45688 0.94169 0.61173 0.0
C945 C 0.39689 0.89432 0.60552 0.0
C946 C 0.42075 0.88835 0.60339 0.0
C947 C 0.47482 0.90577 0.6056 0.0
C948 C 0.50485 0.92917 0.60966 0.0
C949 C 0.4508 0.9118 0.60673 0.0
C950 C 0.5107 0.95886 0.61429 0.0
C951 C 0.48693 0.96509 0.61526 0.0
H952 H 0.58969 0.48404 0.09547 0.0
H953 H 0.54931 0.53959 0.11105 0.0
H954 H 0.49878 0.49481 0.10945 0.0
H955 H 0.46625 0.4395 0.10683 0.0
H956 H 0.50653 0.38377 0.09181 0.0
H957 H 0.55684 0.42896 0.0898 0.0
C958 C 0.56981 0.48636 0.09822 0.0
C959 C 0.57325 0.51504 0.10355 0.0
C960 C 0.5408 0.46046 0.09753 0.0
C961 C 0.54728 0.51773 0.10701 0.0
C962 C 0.51836 0.49213 0.10617 0.0
C963 C 0.48602 0.43728 0.10286 0.0
C964 C 0.48271 0.40835 0.09967 0.0
C965 C 0.51488 0.46332 0.10194 0.0
C966 C 0.50849 0.40581 0.09442 0.0
C967 C 0.53728 0.43163 0.09333 0.0
H968 H 0.11443 0.5308 0.59582 0.0
H969 H 0.01874 0.4721 0.61071 0.0
H970 H 0.01119 0.51584 0.61064 0.0
H971 H 0.03222 0.57094 0.609 0.0
H972 H 0.12802 0.62981 0.59486 0.0
H973 H 0.13504 0.5858 0.59178 0.0
C974 C 0.09189 0.52757 0.59881 0.0
C975 C 0.06722 0.4983 0.6034 0.0
C976 C 0.08775 0.55284 0.59897 0.0
C977 C 0.03813 0.49443 0.6072 0.0
C978 C 0.03379 0.51943 0.60721 0.0
C979 C 0.05459 0.57412 0.605 0.0
C980 C 0.07958 0.60357 0.6023 0.0
C981 C 0.0585 0.54876 0.60351 0.0
C982 C 0.10842 0.60735 0.59708 0.0
C983 C 0.11246 0.58221 0.59537 0.0
H984 H 0.89696 0.49121 0.38697 0.0
H985 H 0.99433 0.54415 0.39474 0.0
H986 H 0.99724 0.49761 0.39632 0.0
H987 H 0.97207 0.44183 0.39385 0.0
H988 H 0.87472 0.38948 0.38511 0.0
H989 H 0.87186 0.43588 0.38557 0.0
C990 C 0.91882 0.49259 0.38918 0.0
C991 C 0.94539 0.52104 0.3907 0.0
C992 C 0.92032 0.46585 0.38978 0.0
C993 C 0.97354 0.52247 0.39351 0.0
C994 C 0.97522 0.49589 0.39437 0.0
C995 C 0.95025 0.44062 0.39216 0.0
C996 C 0.92366 0.41229 0.38936 0.0
C997 C 0.94877 0.46745 0.39226 0.0
C998 C 0.89553 0.41102 0.38719 0.0
C999 C 0.89386 0.43754 0.38747 0.0
H1000 H 0.48581 0.89225 0.88191 0.0
H1001 H 0.5399 0.98967 0.88802 0.0
H1002 H 0.49377 0.99334 0.88966 0.0
H1003 H 0.43798 0.96868 0.88918 0.0
H1004 H 0.38437 0.87127 0.88189 0.0
H1005 H 0.43045 0.86778 0.8809 0.0
C1006 C 0.48752 0.9143 0.88365 0.0
C1007 C 0.51618 0.94065 0.88492 0.0
C1008 C 0.461 0.91622 0.88435 0.0
C1009 C 0.51806 0.96906 0.88701 0.0
C1010 C 0.49171 0.97116 0.88796 0.0
C1011 C 0.43643 0.94671 0.88743 0.0
C1012 C 0.40783 0.92027 0.88567 0.0
C1013 C 0.46305 0.94487 0.88664 0.0
C1014 C 0.40612 0.89196 0.88325 0.0
C1015 C 0.43245 0.88993 0.8827 0.0
H1016 H 0.51682 0.39691 0.4011 0.0
H1017 H 0.46314 0.44095 0.40138 0.0
H1018 H 0.5092 0.49053 0.40311 0.0
H1019 H 0.56465 0.52143 0.40155 0.0
H1020 H 0.61856 0.47767 0.40008 0.0
H1021 H 0.57252 0.42795 0.40194 0.0
C1022 C 0.51523 0.41736 0.40186 0.0
C1023 C 0.48665 0.41528 0.401 0.0
C1024 C 0.54183 0.44584 0.40246 0.0
C1025 C 0.4849 0.44195 0.40193 0.0
C1026 C 0.51122 0.47032 0.40287 0.0
C1027 C 0.56633 0.50102 0.40186 0.0
C1028 C 0.59493 0.50321 0.40052 0.0
C1029 C 0.5398 0.47254 0.40265 0.0
C1030 C 0.59677 0.47657 0.401 0.0
C1031 C 0.57046 0.44813 0.40204 0.0
H1032 H 0.10121 0.50417 0.9074 0.0
H1033 H 0.00587 0.45115 0.88808 0.0
H1034 H 0.00147 0.4967 0.8898 0.0
H1035 H 0.02528 0.55192 0.89399 0.0
H1036 H 0.12076 0.60533 0.91251 0.0
H1037 H 0.12448 0.55929 0.91418 0.0
C1038 C 0.07943 0.50258 0.90379 0.0
C1039 C 0.05395 0.47436 0.89745 0.0
C1040 C 0.0771 0.52893 0.90461 0.0
C1041 C 0.02586 0.47262 0.8929 0.0
C1042 C 0.02332 0.49866 0.89385 0.0
C1043 C 0.04684 0.55346 0.89867 0.0
C1044 C 0.07273 0.58198 0.90298 0.0
C1045 C 0.04888 0.52698 0.89928 0.0
C1046 C 0.1005 0.58362 0.90907 0.0
C1047 C 0.10266 0.55732 0.90994 0.0
H1048 H 0.55397 0.02952 0.39835 0.0
H1049 H 0.60714 0.126 0.41234 0.0
H1050 H 0.56097 0.12942 0.41326 0.0
H1051 H 0.50591 0.10559 0.40689 0.0
H1052 H 0.45279 0.00928 0.39204 0.0
H1053 H 0.49854 0.00517 0.39478 0.0
C1054 C 0.55542 0.05124 0.4019 0.0
C1055 C 0.58392 0.0775 0.40512 0.0
C1056 C 0.52883 0.05309 0.40206 0.0
C1057 C 0.58546 0.10547 0.40974 0.0
C1058 C 0.55908 0.10746 0.41019 0.0
C1059 C 0.50432 0.08366 0.40448 0.0
C1060 C 0.47607 0.05782 0.39908 0.0
C1061 C 0.53071 0.08152 0.40586 0.0
C1062 C 0.47431 0.02953 0.39613 0.0
C1063 C 0.50045 0.02717 0.39765 0.0
H1064 H 0.52579 0.5639 0.89529 0.0
H1065 H 0.48722 0.6196 0.91727 0.0
H1066 H 0.43675 0.57465 0.91945 0.0
H1067 H 0.4032 0.51996 0.91218 0.0
H1068 H 0.44178 0.46447 0.88947 0.0
H1069 H 0.49263 0.50886 0.89068 0.0
C1070 C 0.50638 0.56616 0.90082 0.0
C1071 C 0.51019 0.59502 0.90596 0.0
C1072 C 0.47741 0.54028 0.90177 0.0
C1073 C 0.48485 0.59761 0.91315 0.0
C1074 C 0.45598 0.57194 0.91434 0.0
C1075 C 0.42277 0.51756 0.90775 0.0
C1076 C 0.41873 0.48903 0.90059 0.0
C1077 C 0.45193 0.54322 0.90824 0.0
C1078 C 0.44428 0.48622 0.89496 0.0
C1079 C 0.47337 0.5116 0.89559 0.0
loop_
_geom_bond_atom_site_label_1
_geom_bond_atom_site_label_2
_geom_bond_distance
_geom_bond_site_symmetry_2
_ccdc_geom_bond_type
In0 O1 2.294 . S
In0 O2 2.326 . S
In0 O6 2.266 . S
In0 O7 2.326 . S
In0 O8 2.266 . S
In0 O9 2.326 . S
In0 O11 2.294 . S
In0 O12 2.326 . S
O1 In0 2.294 . S
O1 C10 1.240 . S
O2 In0 2.326 . S
O2 C10 1.252 . S
C3 O6 1.252 . S
C3 O7 1.260 . S
C4 O11 1.240 . S
C4 O12 1.252 . S
C5 O8 1.252 . S
C5 O9 1.260 . S
O6 In0 2.266 . S
O6 C3 1.252 . S
O7 In0 2.326 . S
O7 C3 1.260 . S
O8 In0 2.266 . S
O8 C5 1.252 . S
O9 In0 2.326 . S
O9 C5 1.260 . S
C10 O1 1.240 . S
C10 O2 1.252 . S
O11 In0 2.294 . S
O11 C4 1.240 . S
O12 In0 2.326 . S
O12 C4 1.252 . S
In13 O14 2.294 . S
In13 O15 2.326 . S
In13 O19 2.266 . S
In13 O20 2.326 . S
In13 O21 2.266 . S
In13 O22 2.326 . S
In13 O24 2.294 . S
In13 O25 2.326 . S
O14 In13 2.294 . S
O14 C23 1.240 . S
O15 In13 2.326 . S
O15 C23 1.252 . S
C16 O19 1.252 . S
C16 O20 1.260 . S
C17 O24 1.240 . S
C17 O25 1.252 . S
C18 O21 1.252 . S
C18 O22 1.260 . S
O19 In13 2.266 . S
O19 C16 1.252 . S
O20 In13 2.326 . S
O20 C16 1.260 . S
O21 In13 2.266 . S
O21 C18 1.252 . S
O22 In13 2.326 . S
O22 C18 1.260 . S
C23 O14 1.240 . S
C23 O15 1.252 . S
O24 In13 2.294 . S
O24 C17 1.240 . S
O25 In13 2.326 . S
O25 C17 1.252 . S
In26 O27 2.294 . S
In26 O28 2.326 . S
In26 O32 2.266 . S
In26 O33 2.326 . S
In26 O34 2.266 . S
In26 O35 2.326 . S
In26 O37 2.294 . S
In26 O38 2.326 . S
O27 In26 2.294 . S
O27 C36 1.240 . S
O28 In26 2.326 . S
O28 C36 1.252 . S
C29 O32 1.252 . S
C29 O33 1.260 . S
C30 O37 1.240 . S
C30 O38 1.252 . S
C31 O34 1.252 . S
C31 O35 1.260 . S
O32 In26 2.266 . S
O32 C29 1.252 . S
O33 In26 2.326 . S
O33 C29 1.260 . S
O34 In26 2.266 . S
O34 C31 1.252 . S
O35 In26 2.326 . S
O35 C31 1.260 . S
C36 O27 1.240 . S
C36 O28 1.252 . S
O37 In26 2.294 . S
O37 C30 1.240 . S
O38 In26 2.326 . S
O38 C30 1.252 . S
In39 O40 2.294 . S
In39 O41 2.326 . S
In39 O45 2.266 . S
In39 O46 2.326 . S
In39 O47 2.266 . S
In39 O48 2.326 . S
In39 O50 2.294 . S
In39 O51 2.326 . S
O40 In39 2.294 . S
O40 C49 1.240 . S
O41 In39 2.326 . S
O41 C49 1.252 . S
C42 O45 1.252 . S
C42 O46 1.260 . S
C43 O50 1.240 . S
C43 O51 1.252 . S
C44 O47 1.252 . S
C44 O48 1.260 . S
O45 In39 2.266 . S
O45 C42 1.252 . S
O46 In39 2.326 . S
O46 C42 1.260 . S
O47 In39 2.266 . S
O47 C44 1.252 . S
O48 In39 2.326 . S
O48 C44 1.260 . S
C49 O40 1.240 . S
C49 O41 1.252 . S
O50 In39 2.294 . S
O50 C43 1.240 . S
O51 In39 2.326 . S
O51 C43 1.252 . S
In52 O53 2.294 . S
In52 O54 2.326 . S
In52 O58 2.266 . S
In52 O59 2.326 . S
In52 O60 2.266 . S
In52 O61 2.326 . S
In52 O63 2.294 . S
In52 O64 2.326 . S
O53 In52 2.294 . S
O53 C62 1.240 . S
O54 In52 2.326 . S
O54 C62 1.252 . S
C55 O58 1.252 . S
C55 O59 1.260 . S
C56 O63 1.240 . S
C56 O64 1.252 . S
C57 O60 1.252 . S
C57 O61 1.260 . S
O58 In52 2.266 . S
O58 C55 1.252 . S
O59 In52 2.326 . S
O59 C55 1.260 . S
O60 In52 2.266 . S
O60 C57 1.252 . S
O61 In52 2.326 . S
O61 C57 1.260 . S
C62 O53 1.240 . S
C62 O54 1.252 . S
O63 In52 2.294 . S
O63 C56 1.240 . S
O64 In52 2.326 . S
O64 C56 1.252 . S
In65 O66 2.294 . S
In65 O67 2.326 . S
In65 O71 2.266 . S
In65 O72 2.326 . S
In65 O73 2.266 . S
In65 O74 2.326 . S
In65 O76 2.294 . S
In65 O77 2.326 . S
O66 In65 2.294 . S
O66 C75 1.240 . S
O67 In65 2.326 . S
O67 C75 1.252 . S
C68 O71 1.252 . S
C68 O72 1.260 . S
C69 O76 1.240 . S
C69 O77 1.252 . S
C70 O73 1.252 . S
C70 O74 1.260 . S
O71 In65 2.266 . S
O71 C68 1.252 . S
O72 In65 2.326 . S
O72 C68 1.260 . S
O73 In65 2.266 . S
O73 C70 1.252 . S
O74 In65 2.326 . S
O74 C70 1.260 . S
C75 O66 1.240 . S
C75 O67 1.252 . S
O76 In65 2.294 . S
O76 C69 1.240 . S
O77 In65 2.326 . S
O77 C69 1.252 . S
In78 O79 2.294 . S
In78 O80 2.326 . S
In78 O84 2.266 . S
In78 O85 2.326 . S
In78 O86 2.266 . S
In78 O87 2.326 . S
In78 O89 2.294 . S
In78 O90 2.326 . S
O79 In78 2.294 . S
O79 C88 1.240 . S
O80 In78 2.326 . S
O80 C88 1.252 . S
C81 O84 1.252 . S
C81 O85 1.260 . S
C82 O89 1.240 . S
C82 O90 1.252 . S
C83 O86 1.252 . S
C83 O87 1.260 . S
O84 In78 2.266 . S
O84 C81 1.252 . S
O85 In78 2.326 . S
O85 C81 1.260 . S
O86 In78 2.266 . S
O86 C83 1.252 . S
O87 In78 2.326 . S
O87 C83 1.260 . S
C88 O79 1.240 . S
C88 O80 1.252 . S
O89 In78 2.294 . S
O89 C82 1.240 . S
O90 In78 2.326 . S
O90 C82 1.252 . S
In91 O92 2.294 . S
In91 O93 2.326 . S
In91 O97 2.266 . S
In91 O98 2.326 . S
In91 O99 2.266 . S
In91 O100 2.326 . S
In91 O102 2.294 . S
In91 O103 2.326 . S
O92 In91 2.294 . S
O92 C101 1.240 . S
O93 In91 2.326 . S
O93 C101 1.252 . S
C94 O97 1.252 . S
C94 O98 1.260 . S
C95 O102 1.240 . S
C95 O103 1.252 . S
C96 O99 1.252 . S
C96 O100 1.260 . S
O97 In91 2.266 . S
O97 C94 1.252 . S
O98 In91 2.326 . S
O98 C94 1.260 . S
O99 In91 2.266 . S
O99 C96 1.252 . S
O100 In91 2.326 . S
O100 C96 1.260 . S
C101 O92 1.240 . S
C101 O93 1.252 . S
O102 In91 2.294 . S
O102 C95 1.240 . S
O103 In91 2.326 . S
O103 C95 1.252 . S
In104 O105 2.294 . S
In104 O106 2.326 . S
In104 O110 2.266 . S
In104 O111 2.326 . S
In104 O112 2.266 . S
In104 O113 2.326 . S
In104 O115 2.294 . S
In104 O116 2.326 . S
O105 In104 2.294 . S
O105 C114 1.240 . S
O106 In104 2.326 . S
O106 C114 1.252 . S
C107 O110 1.252 . S
C107 O111 1.260 . S
C108 O115 1.240 . S
C108 O116 1.252 . S
C109 O112 1.252 . S
C109 O113 1.260 . S
O110 In104 2.266 . S
O110 C107 1.252 . S
O111 In104 2.326 . S
O111 C107 1.260 . S
O112 In104 2.266 . S
O112 C109 1.252 . S
O113 In104 2.326 . S
O113 C109 1.260 . S
C114 O105 1.240 . S
C114 O106 1.252 . S
O115 In104 2.294 . S
O115 C108 1.240 . S
O116 In104 2.326 . S
O116 C108 1.252 . S
In117 O118 2.294 . S
In117 O119 2.326 . S
In117 O123 2.266 . S
In117 O124 2.326 . S
In117 O125 2.266 . S
In117 O126 2.326 . S
In117 O128 2.294 . S
In117 O129 2.326 . S
O118 In117 2.294 . S
O118 C127 1.240 . S
O119 In117 2.326 . S
O119 C127 1.252 . S
C120 O123 1.252 . S
C120 O124 1.260 . S
C121 O128 1.240 . S
C121 O129 1.252 . S
C122 O125 1.252 . S
C122 O126 1.260 . S
O123 In117 2.266 . S
O123 C120 1.252 . S
O124 In117 2.326 . S
O124 C120 1.260 . S
O125 In117 2.266 . S
O125 C122 1.252 . S
O126 In117 2.326 . S
O126 C122 1.260 . S
C127 O118 1.240 . S
C127 O119 1.252 . S
O128 In117 2.294 . S
O128 C121 1.240 . S
O129 In117 2.326 . S
O129 C121 1.252 . S
In130 O131 2.294 . S
In130 O132 2.326 . S
In130 O136 2.266 . S
In130 O137 2.326 . S
In130 O138 2.266 . S
In130 O139 2.326 . S
In130 O141 2.294 . S
In130 O142 2.326 . S
O131 In130 2.294 . S
O131 C140 1.240 . S
O132 In130 2.326 . S
O132 C140 1.252 . S
C133 O136 1.252 . S
C133 O137 1.260 . S
C134 O141 1.240 . S
C134 O142 1.252 . S
C135 O138 1.252 . S
C135 O139 1.260 . S
O136 In130 2.266 . S
O136 C133 1.252 . S
O137 In130 2.326 . S
O137 C133 1.260 . S
O138 In130 2.266 . S
O138 C135 1.252 . S
O139 In130 2.326 . S
O139 C135 1.260 . S
C140 O131 1.240 . S
C140 O132 1.252 . S
O141 In130 2.294 . S
O141 C134 1.240 . S
O142 In130 2.326 . S
O142 C134 1.252 . S
In143 O144 2.294 . S
In143 O145 2.326 . S
In143 O149 2.266 . S
In143 O150 2.326 . S
In143 O151 2.266 . S
In143 O152 2.326 . S
In143 O154 2.294 . S
In143 O155 2.326 . S
O144 In143 2.294 . S
O144 C153 1.240 . S
O145 In143 2.326 . S
O145 C153 1.252 . S
C146 O149 1.252 . S
C146 O150 1.260 . S
C147 O154 1.240 . S
C147 O155 1.252 . S
C148 O151 1.252 . S
C148 O152 1.260 . S
O149 In143 2.266 . S
O149 C146 1.252 . S
O150 In143 2.326 . S
O150 C146 1.260 . S
O151 In143 2.266 . S
O151 C148 1.252 . S
O152 In143 2.326 . S
O152 C148 1.260 . S
C153 O144 1.240 . S
C153 O145 1.252 . S
O154 In143 2.294 . S
O154 C147 1.240 . S
O155 In143 2.326 . S
O155 C147 1.252 . S
In156 O157 2.294 . S
In156 O158 2.326 . S
In156 O162 2.266 . S
In156 O163 2.326 . S
In156 O164 2.266 . S
In156 O165 2.326 . S
In156 O167 2.294 . S
In156 O168 2.326 . S
O157 In156 2.294 . S
O157 C166 1.240 . S
O158 In156 2.326 . S
O158 C166 1.252 . S
C159 O162 1.252 . S
C159 O163 1.260 . S
C160 O167 1.240 . S
C160 O168 1.252 . S
C161 O164 1.252 . S
C161 O165 1.260 . S
O162 In156 2.266 . S
O162 C159 1.252 . S
O163 In156 2.326 . S
O163 C159 1.260 . S
O164 In156 2.266 . S
O164 C161 1.252 . S
O165 In156 2.326 . S
O165 C161 1.260 . S
C166 O157 1.240 . S
C166 O158 1.252 . S
O167 In156 2.294 . S
O167 C160 1.240 . S
O168 In156 2.326 . S
O168 C160 1.252 . S
In169 O170 2.294 . S
In169 O171 2.326 . S
In169 O175 2.266 . S
In169 O176 2.326 . S
In169 O177 2.266 . S
In169 O178 2.326 . S
In169 O180 2.294 . S
In169 O181 2.326 . S
O170 In169 2.294 . S
O170 C179 1.240 . S
O171 In169 2.326 . S
O171 C179 1.252 . S
C172 O175 1.252 . S
C172 O176 1.260 . S
C173 O180 1.240 . S
C173 O181 1.252 . S
C174 O177 1.252 . S
C174 O178 1.260 . S
O175 In169 2.266 . S
O175 C172 1.252 . S
O176 In169 2.326 . S
O176 C172 1.260 . S
O177 In169 2.266 . S
O177 C174 1.252 . S
O178 In169 2.326 . S
O178 C174 1.260 . S
C179 O170 1.240 . S
C179 O171 1.252 . S
O180 In169 2.294 . S
O180 C173 1.240 . S
O181 In169 2.326 . S
O181 C173 1.252 . S
In182 O183 2.294 . S
In182 O184 2.326 . S
In182 O188 2.266 . S
In182 O189 2.326 . S
In182 O190 2.266 . S
In182 O191 2.326 . S
In182 O193 2.294 . S
In182 O194 2.326 . S
O183 In182 2.294 . S
O183 C192 1.240 . S
O184 In182 2.326 . S
O184 C192 1.252 . S
C185 O188 1.252 . S
C185 O189 1.260 . S
C186 O193 1.240 . S
C186 O194 1.252 . S
C187 O190 1.252 . S
C187 O191 1.260 . S
O188 In182 2.266 . S
O188 C185 1.252 . S
O189 In182 2.326 . S
O189 C185 1.260 . S
O190 In182 2.266 . S
O190 C187 1.252 . S
O191 In182 2.326 . S
O191 C187 1.260 . S
C192 O183 1.240 . S
C192 O184 1.252 . S
O193 In182 2.294 . S
O193 C186 1.240 . S
O194 In182 2.326 . S
O194 C186 1.252 . S
In195 O196 2.294 . S
In195 O197 2.326 . S
In195 O201 2.266 . S
In195 O202 2.326 . S
In195 O203 2.266 . S
In195 O204 2.326 . S
In195 O206 2.294 . S
In195 O207 2.326 . S
O196 In195 2.294 . S
O196 C205 1.240 . S
O197 In195 2.326 . S
O197 C205 1.252 . S
C198 O201 1.252 . S
C198 O202 1.260 . S
C199 O206 1.240 . S
C199 O207 1.252 . S
C200 O203 1.252 . S
C200 O204 1.260 . S
O201 In195 2.266 . S
O201 C198 1.252 . S
O202 In195 2.326 . S
O202 C198 1.260 . S
O203 In195 2.266 . S
O203 C200 1.252 . S
O204 In195 2.326 . S
O204 C200 1.260 . S
C205 O196 1.240 . S
C205 O197 1.252 . S
O206 In195 2.294 . S
O206 C199 1.240 . S
O207 In195 2.326 . S
O207 C199 1.252 . S
In208 O209 2.294 . S
In208 O210 2.326 . S
In208 O214 2.266 . S
In208 O215 2.326 . S
In208 O216 2.266 . S
In208 O217 2.326 . S
In208 O219 2.294 . S
In208 O220 2.326 . S
O209 In208 2.294 . S
O209 C218 1.240 . S
O210 In208 2.326 . S
O210 C218 1.252 . S
C211 O214 1.252 . S
C211 O215 1.260 . S
C212 O219 1.240 . S
C212 O220 1.252 . S
C213 O216 1.252 . S
C213 O217 1.260 . S
O214 In208 2.266 . S
O214 C211 1.252 . S
O215 In208 2.326 . S
O215 C211 1.260 . S
O216 In208 2.266 . S
O216 C213 1.252 . S
O217 In208 2.326 . S
O217 C213 1.260 . S
C218 O209 1.240 . S
C218 O210 1.252 . S
O219 In208 2.294 . S
O219 C212 1.240 . S
O220 In208 2.326 . S
O220 C212 1.252 . S
In221 O222 2.294 . S
In221 O223 2.326 . S
In221 O227 2.266 . S
In221 O228 2.326 . S
In221 O229 2.266 . S
In221 O230 2.326 . S
In221 O232 2.294 . S
In221 O233 2.326 . S
O222 In221 2.294 . S
O222 C231 1.240 . S
O223 In221 2.326 . S
O223 C231 1.252 . S
C224 O227 1.252 . S
C224 O228 1.260 . S
C225 O232 1.240 . S
C225 O233 1.252 . S
C226 O229 1.252 . S
C226 O230 1.260 . S
O227 In221 2.266 . S
O227 C224 1.252 . S
O228 In221 2.326 . S
O228 C224 1.260 . S
O229 In221 2.266 . S
O229 C226 1.252 . S
O230 In221 2.326 . S
O230 C226 1.260 . S
C231 O222 1.240 . S
C231 O223 1.252 . S
O232 In221 2.294 . S
O232 C225 1.240 . S
O233 In221 2.326 . S
O233 C225 1.252 . S
In234 O235 2.294 . S
In234 O236 2.326 . S
In234 O240 2.266 . S
In234 O241 2.326 . S
In234 O242 2.266 . S
In234 O243 2.326 . S
In234 O245 2.294 . S
In234 O246 2.326 . S
O235 In234 2.294 . S
O235 C244 1.240 . S
O236 In234 2.326 . S
O236 C244 1.252 . S
C237 O240 1.252 . S
C237 O241 1.260 . S
C238 O245 1.240 . S
C238 O246 1.252 . S
C239 O242 1.252 . S
C239 O243 1.260 . S
O240 In234 2.266 . S
O240 C237 1.252 . S
O241 In234 2.326 . S
O241 C237 1.260 . S
O242 In234 2.266 . S
O242 C239 1.252 . S
O243 In234 2.326 . S
O243 C239 1.260 . S
C244 O235 1.240 . S
C244 O236 1.252 . S
O245 In234 2.294 . S
O245 C238 1.240 . S
O246 In234 2.326 . S
O246 C238 1.252 . S
In247 O248 2.294 . S
In247 O249 2.326 . S
In247 O253 2.266 . S
In247 O254 2.326 . S
In247 O255 2.266 . S
In247 O256 2.326 . S
In247 O258 2.294 . S
In247 O259 2.326 . S
O248 In247 2.294 . S
O248 C257 1.240 . S
O249 In247 2.326 . S
O249 C257 1.252 . S
C250 O253 1.252 . S
C250 O254 1.260 . S
C251 O258 1.240 . S
C251 O259 1.252 . S
C252 O255 1.252 . S
C252 O256 1.260 . S
O253 In247 2.266 . S
O253 C250 1.252 . S
O254 In247 2.326 . S
O254 C250 1.260 . S
O255 In247 2.266 . S
O255 C252 1.252 . S
O256 In247 2.326 . S
O256 C252 1.260 . S
C257 O248 1.240 . S
C257 O249 1.252 . S
O258 In247 2.294 . S
O258 C251 1.240 . S
O259 In247 2.326 . S
O259 C251 1.252 . S
In260 O261 2.294 . S
In260 O262 2.326 . S
In260 O266 2.266 . S
In260 O267 2.326 . S
In260 O268 2.266 . S
In260 O269 2.326 . S
In260 O271 2.294 . S
In260 O272 2.326 . S
O261 In260 2.294 . S
O261 C270 1.240 . S
O262 In260 2.326 . S
O262 C270 1.252 . S
C263 O266 1.252 . S
C263 O267 1.260 . S
C264 O271 1.240 . S
C264 O272 1.252 . S
C265 O268 1.252 . S
C265 O269 1.260 . S
O266 In260 2.266 . S
O266 C263 1.252 . S
O267 In260 2.326 . S
O267 C263 1.260 . S
O268 In260 2.266 . S
O268 C265 1.252 . S
O269 In260 2.326 . S
O269 C265 1.260 . S
C270 O261 1.240 . S
C270 O262 1.252 . S
O271 In260 2.294 . S
O271 C264 1.240 . S
O272 In260 2.326 . S
O272 C264 1.252 . S
In273 O274 2.294 . S
In273 O275 2.326 . S
In273 O279 2.266 . S
In273 O280 2.326 . S
In273 O281 2.266 . S
In273 O282 2.326 . S
In273 O284 2.294 . S
In273 O285 2.326 . S
O274 In273 2.294 . S
O274 C283 1.240 . S
O275 In273 2.326 . S
O275 C283 1.252 . S
C276 O279 1.252 . S
C276 O280 1.260 . S
C277 O284 1.240 . S
C277 O285 1.252 . S
C278 O281 1.252 . S
C278 O282 1.260 . S
O279 In273 2.266 . S
O279 C276 1.252 . S
O280 In273 2.326 . S
O280 C276 1.260 . S
O281 In273 2.266 . S
O281 C278 1.252 . S
O282 In273 2.326 . S
O282 C278 1.260 . S
C283 O274 1.240 . S
C283 O275 1.252 . S
O284 In273 2.294 . S
O284 C277 1.240 . S
O285 In273 2.326 . S
O285 C277 1.252 . S
In286 O287 2.294 . S
In286 O288 2.326 . S
In286 O292 2.266 . S
In286 O293 2.326 . S
In286 O294 2.266 . S
In286 O295 2.326 . S
In286 O297 2.294 . S
In286 O298 2.326 . S
O287 In286 2.294 . S
O287 C296 1.240 . S
O288 In286 2.326 . S
O288 C296 1.252 . S
C289 O292 1.252 . S
C289 O293 1.260 . S
C290 O297 1.240 . S
C290 O298 1.252 . S
C291 O294 1.252 . S
C291 O295 1.260 . S
O292 In286 2.266 . S
O292 C289 1.252 . S
O293 In286 2.326 . S
O293 C289 1.260 . S
O294 In286 2.266 . S
O294 C291 1.252 . S
O295 In286 2.326 . S
O295 C291 1.260 . S
C296 O287 1.240 . S
C296 O288 1.252 . S
O297 In286 2.294 . S
O297 C290 1.240 . S
O298 In286 2.326 . S
O298 C290 1.252 . S
In299 O300 2.294 . S
In299 O301 2.326 . S
In299 O305 2.266 . S
In299 O306 2.326 . S
In299 O307 2.266 . S
In299 O308 2.326 . S
In299 O310 2.294 . S
In299 O311 2.326 . S
O300 In299 2.294 . S
O300 C309 1.240 . S
O301 In299 2.326 . S
O301 C309 1.252 . S
C302 O305 1.252 . S
C302 O306 1.260 . S
C303 O310 1.240 . S
C303 O311 1.252 . S
C304 O307 1.252 . S
C304 O308 1.260 . S
O305 In299 2.266 . S
O305 C302 1.252 . S
O306 In299 2.326 . S
O306 C302 1.260 . S
O307 In299 2.266 . S
O307 C304 1.252 . S
O308 In299 2.326 . S
O308 C304 1.260 . S
C309 O300 1.240 . S
C309 O301 1.252 . S
O310 In299 2.294 . S
O310 C303 1.240 . S
O311 In299 2.326 . S
O311 C303 1.252 . S
H312 C318 0.930 . S
H313 C321 0.930 . S
H314 C322 0.930 . S
H315 C323 0.930 . S
H316 C326 0.930 . S
H317 C327 0.930 . S
C318 H312 0.930 . S
C318 C319 1.355 . S
C318 C320 1.415 . S
C319 C318 1.355 . S
C319 C321 1.419 . S
C320 C318 1.415 . S
C320 C325 1.425 . S
C320 C327 1.409 . S
C321 H313 0.930 . S
C321 C319 1.419 . S
C321 C322 1.362 . S
C322 H314 0.930 . S
C322 C321 1.362 . S
C322 C325 1.409 . S
C323 H315 0.930 . S
C323 C324 1.355 . S
C323 C325 1.415 . S
C324 C323 1.355 . S
C324 C326 1.419 . S
C325 C320 1.425 . S
C325 C322 1.409 . S
C325 C323 1.415 . S
C326 H316 0.930 . S
C326 C324 1.419 . S
C326 C327 1.362 . S
C327 H317 0.930 . S
C327 C320 1.409 . S
C327 C326 1.362 . S
H328 C334 0.930 . S
H329 C337 0.930 . S
H330 C338 0.930 . S
H331 C339 0.930 . S
H332 C342 0.930 . S
H333 C343 0.930 . S
C334 H328 0.930 . S
C334 C335 1.355 . S
C334 C336 1.415 . S
C335 C334 1.355 . S
C335 C337 1.419 . S
C336 C334 1.415 . S
C336 C341 1.425 . S
C336 C343 1.409 . S
C337 H329 0.930 . S
C337 C335 1.419 . S
C337 C338 1.362 . S
C338 H330 0.930 . S
C338 C337 1.362 . S
C338 C341 1.409 . S
C339 H331 0.930 . S
C339 C340 1.355 . S
C339 C341 1.415 . S
C340 C339 1.355 . S
C340 C342 1.419 . S
C341 C336 1.425 . S
C341 C338 1.409 . S
C341 C339 1.415 . S
C342 H332 0.930 . S
C342 C340 1.419 . S
C342 C343 1.362 . S
C343 H333 0.930 . S
C343 C336 1.409 . S
C343 C342 1.362 . S
H344 C350 0.930 . S
H345 C353 0.930 . S
H346 C354 0.930 . S
H347 C355 0.930 . S
H348 C358 0.930 . S
H349 C359 0.930 . S
C350 H344 0.930 . S
C350 C351 1.355 . S
C350 C352 1.415 . S
C351 C350 1.355 . S
C351 C353 1.419 . S
C352 C350 1.415 . S
C352 C357 1.425 . S
C352 C359 1.409 . S
C353 H345 0.930 . S
C353 C351 1.419 . S
C353 C354 1.362 . S
C354 H346 0.930 . S
C354 C353 1.362 . S
C354 C357 1.409 . S
C355 H347 0.930 . S
C355 C356 1.355 . S
C355 C357 1.415 . S
C356 C355 1.355 . S
C356 C358 1.419 . S
C357 C352 1.425 . S
C357 C354 1.409 . S
C357 C355 1.415 . S
C358 H348 0.930 . S
C358 C356 1.419 . S
C358 C359 1.362 . S
C359 H349 0.930 . S
C359 C352 1.409 . S
C359 C358 1.362 . S
H360 C366 0.930 . S
H361 C369 0.930 . S
H362 C370 0.930 . S
H363 C371 0.930 . S
H364 C374 0.930 . S
H365 C375 0.930 . S
C366 H360 0.930 . S
C366 C367 1.355 . S
C366 C368 1.415 . S
C367 C366 1.355 . S
C367 C369 1.419 . S
C368 C366 1.415 . S
C368 C373 1.425 . S
C368 C375 1.409 . S
C369 H361 0.930 . S
C369 C367 1.419 . S
C369 C370 1.362 . S
C370 H362 0.930 . S
C370 C369 1.362 . S
C370 C373 1.409 . S
C371 H363 0.930 . S
C371 C372 1.355 . S
C371 C373 1.415 . S
C372 C371 1.355 . S
C372 C374 1.419 . S
C373 C368 1.425 . S
C373 C370 1.409 . S
C373 C371 1.415 . S
C374 H364 0.930 . S
C374 C372 1.419 . S
C374 C375 1.362 . S
C375 H365 0.930 . S
C375 C368 1.409 . S
C375 C374 1.362 . S
H376 C382 0.930 . S
H377 C385 0.930 . S
H378 C386 0.930 . S
H379 C387 0.930 . S
H380 C390 0.930 . S
H381 C391 0.930 . S
C382 H376 0.930 . S
C382 C383 1.355 . S
C382 C384 1.415 . S
C383 C382 1.355 . S
C383 C385 1.419 . S
C384 C382 1.415 . S
C384 C389 1.425 . S
C384 C391 1.409 . S
C385 H377 0.930 . S
C385 C383 1.419 . S
C385 C386 1.362 . S
C386 H378 0.930 . S
C386 C385 1.362 . S
C386 C389 1.409 . S
C387 H379 0.930 . S
C387 C388 1.355 . S
C387 C389 1.415 . S
C388 C387 1.355 . S
C388 C390 1.419 . S
C389 C384 1.425 . S
C389 C386 1.409 . S
C389 C387 1.415 . S
C390 H380 0.930 . S
C390 C388 1.419 . S
C390 C391 1.362 . S
C391 H381 0.930 . S
C391 C384 1.409 . S
C391 C390 1.362 . S
H392 C398 0.930 . S
H393 C401 0.930 . S
H394 C402 0.930 . S
H395 C403 0.930 . S
H396 C406 0.930 . S
H397 C407 0.930 . S
C398 H392 0.930 . S
C398 C399 1.355 . S
C398 C400 1.415 . S
C399 C398 1.355 . S
C399 C401 1.419 . S
C400 C398 1.415 . S
C400 C405 1.425 . S
C400 C407 1.409 . S
C401 H393 0.930 . S
C401 C399 1.419 . S
C401 C402 1.362 . S
C402 H394 0.930 . S
C402 C401 1.362 . S
C402 C405 1.409 . S
C403 H395 0.930 . S
C403 C404 1.355 . S
C403 C405 1.415 . S
C404 C403 1.355 . S
C404 C406 1.419 . S
C405 C400 1.425 . S
C405 C402 1.409 . S
C405 C403 1.415 . S
C406 H396 0.930 . S
C406 C404 1.419 . S
C406 C407 1.362 . S
C407 H397 0.930 . S
C407 C400 1.409 . S
C407 C406 1.362 . S
H408 C414 0.930 . S
H409 C417 0.930 . S
H410 C418 0.930 . S
H411 C419 0.930 . S
H412 C422 0.930 . S
H413 C423 0.930 . S
C414 H408 0.930 . S
C414 C415 1.355 . S
C414 C416 1.415 . S
C415 C414 1.355 . S
C415 C417 1.419 . S
C416 C414 1.415 . S
C416 C421 1.425 . S
C416 C423 1.409 . S
C417 H409 0.930 . S
C417 C415 1.419 . S
C417 C418 1.362 . S
C418 H410 0.930 . S
C418 C417 1.362 . S
C418 C421 1.409 . S
C419 H411 0.930 . S
C419 C420 1.355 . S
C419 C421 1.415 . S
C420 C419 1.355 . S
C420 C422 1.419 . S
C421 C416 1.425 . S
C421 C418 1.409 . S
C421 C419 1.415 . S
C422 H412 0.930 . S
C422 C420 1.419 . S
C422 C423 1.362 . S
C423 H413 0.930 . S
C423 C416 1.409 . S
C423 C422 1.362 . S
H424 C430 0.930 . S
H425 C433 0.930 . S
H426 C434 0.930 . S
H427 C435 0.930 . S
H428 C438 0.930 . S
H429 C439 0.930 . S
C430 H424 0.930 . S
C430 C431 1.355 . S
C430 C432 1.415 . S
C431 C430 1.355 . S
C431 C433 1.419 . S
C432 C430 1.415 . S
C432 C437 1.425 . S
C432 C439 1.409 . S
C433 H425 0.930 . S
C433 C431 1.419 . S
C433 C434 1.362 . S
C434 H426 0.930 . S
C434 C433 1.362 . S
C434 C437 1.409 . S
C435 H427 0.930 . S
C435 C436 1.355 . S
C435 C437 1.415 . S
C436 C435 1.355 . S
C436 C438 1.419 . S
C437 C432 1.425 . S
C437 C434 1.409 . S
C437 C435 1.415 . S
C438 H428 0.930 . S
C438 C436 1.419 . S
C438 C439 1.362 . S
C439 H429 0.930 . S
C439 C432 1.409 . S
C439 C438 1.362 . S
H440 C446 0.930 . S
H441 C449 0.930 . S
H442 C450 0.930 . S
H443 C451 0.930 . S
H444 C454 0.930 . S
H445 C455 0.930 . S
C446 H440 0.930 . S
C446 C447 1.355 . S
C446 C448 1.415 . S
C447 C446 1.355 . S
C447 C449 1.419 . S
C448 C446 1.415 . S
C448 C453 1.425 . S
C448 C455 1.409 . S
C449 H441 0.930 . S
C449 C447 1.419 . S
C449 C450 1.362 . S
C450 H442 0.930 . S
C450 C449 1.362 . S
C450 C453 1.409 . S
C451 H443 0.930 . S
C451 C452 1.355 . S
C451 C453 1.415 . S
C452 C451 1.355 . S
C452 C454 1.419 . S
C453 C448 1.425 . S
C453 C450 1.409 . S
C453 C451 1.415 . S
C454 H444 0.930 . S
C454 C452 1.419 . S
C454 C455 1.362 . S
C455 H445 0.930 . S
C455 C448 1.409 . S
C455 C454 1.362 . S
H456 C462 0.930 . S
H457 C465 0.930 . S
H458 C466 0.930 . S
H459 C467 0.930 . S
H460 C470 0.930 . S
H461 C471 0.930 . S
C462 H456 0.930 . S
C462 C463 1.355 . S
C462 C464 1.415 . S
C463 C462 1.355 . S
C463 C465 1.419 . S
C464 C462 1.415 . S
C464 C469 1.425 . S
C464 C471 1.409 . S
C465 H457 0.930 . S
C465 C463 1.419 . S
C465 C466 1.362 . S
C466 H458 0.930 . S
C466 C465 1.362 . S
C466 C469 1.409 . S
C467 H459 0.930 . S
C467 C468 1.355 . S
C467 C469 1.415 . S
C468 C467 1.355 . S
C468 C470 1.419 . S
C469 C464 1.425 . S
C469 C466 1.409 . S
C469 C467 1.415 . S
C470 H460 0.930 . S
C470 C468 1.419 . S
C470 C471 1.362 . S
C471 H461 0.930 . S
C471 C464 1.409 . S
C471 C470 1.362 . S
H472 C478 0.930 . S
H473 C481 0.930 . S
H474 C482 0.930 . S
H475 C483 0.930 . S
H476 C486 0.930 . S
H477 C487 0.930 . S
C478 H472 0.930 . S
C478 C479 1.355 . S
C478 C480 1.415 . S
C479 C478 1.355 . S
C479 C481 1.419 . S
C480 C478 1.415 . S
C480 C485 1.425 . S
C480 C487 1.409 . S
C481 H473 0.930 . S
C481 C479 1.419 . S
C481 C482 1.362 . S
C482 H474 0.930 . S
C482 C481 1.362 . S
C482 C485 1.409 . S
C483 H475 0.930 . S
C483 C484 1.355 . S
C483 C485 1.415 . S
C484 C483 1.355 . S
C484 C486 1.419 . S
C485 C480 1.425 . S
C485 C482 1.409 . S
C485 C483 1.415 . S
C486 H476 0.930 . S
C486 C484 1.419 . S
C486 C487 1.362 . S
C487 H477 0.930 . S
C487 C480 1.409 . S
C487 C486 1.362 . S
H488 C494 0.930 . S
H489 C497 0.930 . S
H490 C498 0.930 . S
H491 C499 0.930 . S
H492 C502 0.930 . S
H493 C503 0.930 . S
C494 H488 0.930 . S
C494 C495 1.355 . S
C494 C496 1.415 . S
C495 C494 1.355 . S
C495 C497 1.419 . S
C496 C494 1.415 . S
C496 C501 1.425 . S
C496 C503 1.409 . S
C497 H489 0.930 . S
C497 C495 1.419 . S
C497 C498 1.362 . S
C498 H490 0.930 . S
C498 C497 1.362 . S
C498 C501 1.409 . S
C499 H491 0.930 . S
C499 C500 1.355 . S
C499 C501 1.415 . S
C500 C499 1.355 . S
C500 C502 1.419 . S
C501 C496 1.425 . S
C501 C498 1.409 . S
C501 C499 1.415 . S
C502 H492 0.930 . S
C502 C500 1.419 . S
C502 C503 1.362 . S
C503 H493 0.930 . S
C503 C496 1.409 . S
C503 C502 1.362 . S
H504 C510 0.930 . S
H505 C513 0.930 . S
H506 C514 0.930 . S
H507 C515 0.930 . S
H508 C518 0.930 . S
H509 C519 0.930 . S
C510 H504 0.930 . S
C510 C511 1.355 . S
C510 C512 1.415 . S
C511 C510 1.355 . S
C511 C513 1.419 . S
C512 C510 1.415 . S
C512 C517 1.425 . S
C512 C519 1.409 . S
C513 H505 0.930 . S
C513 C511 1.419 . S
C513 C514 1.362 . S
C514 H506 0.930 . S
C514 C513 1.362 . S
C514 C517 1.409 . S
C515 H507 0.930 . S
C515 C516 1.355 . S
C515 C517 1.415 . S
C516 C515 1.355 . S
C516 C518 1.419 . S
C517 C512 1.425 . S
C517 C514 1.409 . S
C517 C515 1.415 . S
C518 H508 0.930 . S
C518 C516 1.419 . S
C518 C519 1.362 . S
C519 H509 0.930 . S
C519 C512 1.409 . S
C519 C518 1.362 . S
H520 C526 0.930 . S
H521 C529 0.930 . S
H522 C530 0.930 . S
H523 C531 0.930 . S
H524 C534 0.930 . S
H525 C535 0.930 . S
C526 H520 0.930 . S
C526 C527 1.355 . S
C526 C528 1.415 . S
C527 C526 1.355 . S
C527 C529 1.419 . S
C528 C526 1.415 . S
C528 C533 1.425 . S
C528 C535 1.409 . S
C529 H521 0.930 . S
C529 C527 1.419 . S
C529 C530 1.362 . S
C530 H522 0.930 . S
C530 C529 1.362 . S
C530 C533 1.409 . S
C531 H523 0.930 . S
C531 C532 1.355 . S
C531 C533 1.415 . S
C532 C531 1.355 . S
C532 C534 1.419 . S
C533 C528 1.425 . S
C533 C530 1.409 . S
C533 C531 1.415 . S
C534 H524 0.930 . S
C534 C532 1.419 . S
C534 C535 1.362 . S
C535 H525 0.930 . S
C535 C528 1.409 . S
C535 C534 1.362 . S
H536 C542 0.930 . S
H537 C545 0.930 . S
H538 C546 0.930 . S
H539 C547 0.930 . S
H540 C550 0.930 . S
H541 C551 0.930 . S
C542 H536 0.930 . S
C542 C543 1.355 . S
C542 C544 1.415 . S
C543 C542 1.355 . S
C543 C545 1.419 . S
C544 C542 1.415 . S
C544 C549 1.425 . S
C544 C551 1.409 . S
C545 H537 0.930 . S
C545 C543 1.419 . S
C545 C546 1.362 . S
C546 H538 0.930 . S
C546 C545 1.362 . S
C546 C549 1.409 . S
C547 H539 0.930 . S
C547 C548 1.355 . S
C547 C549 1.415 . S
C548 C547 1.355 . S
C548 C550 1.419 . S
C549 C544 1.425 . S
C549 C546 1.409 . S
C549 C547 1.415 . S
C550 H540 0.930 . S
C550 C548 1.419 . S
C550 C551 1.362 . S
C551 H541 0.930 . S
C551 C544 1.409 . S
C551 C550 1.362 . S
H552 C558 0.930 . S
H553 C561 0.930 . S
H554 C562 0.930 . S
H555 C563 0.930 . S
H556 C566 0.930 . S
H557 C567 0.930 . S
C558 H552 0.930 . S
C558 C559 1.355 . S
C558 C560 1.415 . S
C559 C558 1.355 . S
C559 C561 1.419 . S
C560 C558 1.415 . S
C560 C565 1.425 . S
C560 C567 1.409 . S
C561 H553 0.930 . S
C561 C559 1.419 . S
C561 C562 1.362 . S
C562 H554 0.930 . S
C562 C561 1.362 . S
C562 C565 1.409 . S
C563 H555 0.930 . S
C563 C564 1.355 . S
C563 C565 1.415 . S
C564 C563 1.355 . S
C564 C566 1.419 . S
C565 C560 1.425 . S
C565 C562 1.409 . S
C565 C563 1.415 . S
C566 H556 0.930 . S
C566 C564 1.419 . S
C566 C567 1.362 . S
C567 H557 0.930 . S
C567 C560 1.409 . S
C567 C566 1.362 . S
H568 C574 0.930 . S
H569 C577 0.930 . S
H570 C578 0.930 . S
H571 C579 0.930 . S
H572 C582 0.930 . S
H573 C583 0.930 . S
C574 H568 0.930 . S
C574 C575 1.355 . S
C574 C576 1.415 . S
C575 C574 1.355 . S
C575 C577 1.419 . S
C576 C574 1.415 . S
C576 C581 1.425 . S
C576 C583 1.409 . S
C577 H569 0.930 . S
C577 C575 1.419 . S
C577 C578 1.362 . S
C578 H570 0.930 . S
C578 C577 1.362 . S
C578 C581 1.409 . S
C579 H571 0.930 . S
C579 C580 1.355 . S
C579 C581 1.415 . S
C580 C579 1.355 . S
C580 C582 1.419 . S
C581 C576 1.425 . S
C581 C578 1.409 . S
C581 C579 1.415 . S
C582 H572 0.930 . S
C582 C580 1.419 . S
C582 C583 1.362 . S
C583 H573 0.930 . S
C583 C576 1.409 . S
C583 C582 1.362 . S
H584 C590 0.930 . S
H585 C593 0.930 . S
H586 C594 0.930 . S
H587 C595 0.930 . S
H588 C598 0.930 . S
H589 C599 0.930 . S
C590 H584 0.930 . S
C590 C591 1.355 . S
C590 C592 1.415 . S
C591 C590 1.355 . S
C591 C593 1.419 . S
C592 C590 1.415 . S
C592 C597 1.425 . S
C592 C599 1.409 . S
C593 H585 0.930 . S
C593 C591 1.419 . S
C593 C594 1.362 . S
C594 H586 0.930 . S
C594 C593 1.362 . S
C594 C597 1.409 . S
C595 H587 0.930 . S
C595 C596 1.355 . S
C595 C597 1.415 . S
C596 C595 1.355 . S
C596 C598 1.419 . S
C597 C592 1.425 . S
C597 C594 1.409 . S
C597 C595 1.415 . S
C598 H588 0.930 . S
C598 C596 1.419 . S
C598 C599 1.362 . S
C599 H589 0.930 . S
C599 C592 1.409 . S
C599 C598 1.362 . S
H600 C606 0.930 . S
H601 C609 0.930 . S
H602 C610 0.930 . S
H603 C611 0.930 . S
H604 C614 0.930 . S
H605 C615 0.930 . S
C606 H600 0.930 . S
C606 C607 1.355 . S
C606 C608 1.415 . S
C607 C606 1.355 . S
C607 C609 1.419 . S
C608 C606 1.415 . S
C608 C613 1.425 . S
C608 C615 1.409 . S
C609 H601 0.930 . S
C609 C607 1.419 . S
C609 C610 1.362 . S
C610 H602 0.930 . S
C610 C609 1.362 . S
C610 C613 1.409 . S
C611 H603 0.930 . S
C611 C612 1.355 . S
C611 C613 1.415 . S
C612 C611 1.355 . S
C612 C614 1.419 . S
C613 C608 1.425 . S
C613 C610 1.409 . S
C613 C611 1.415 . S
C614 H604 0.930 . S
C614 C612 1.419 . S
C614 C615 1.362 . S
C615 H605 0.930 . S
C615 C608 1.409 . S
C615 C614 1.362 . S
H616 C622 0.930 . S
H617 C625 0.930 . S
H618 C626 0.930 . S
H619 C627 0.930 . S
H620 C630 0.930 . S
H621 C631 0.930 . S
C622 H616 0.930 . S
C622 C623 1.355 . S
C622 C624 1.415 . S
C623 C622 1.355 . S
C623 C625 1.419 . S
C624 C622 1.415 . S
C624 C629 1.425 . S
C624 C631 1.409 . S
C625 H617 0.930 . S
C625 C623 1.419 . S
C625 C626 1.362 . S
C626 H618 0.930 . S
C626 C625 1.362 . S
C626 C629 1.409 . S
C627 H619 0.930 . S
C627 C628 1.355 . S
C627 C629 1.415 . S
C628 C627 1.355 . S
C628 C630 1.419 . S
C629 C624 1.425 . S
C629 C626 1.409 . S
C629 C627 1.415 . S
C630 H620 0.930 . S
C630 C628 1.419 . S
C630 C631 1.362 . S
C631 H621 0.930 . S
C631 C624 1.409 . S
C631 C630 1.362 . S
H632 C638 0.930 . S
H633 C641 0.930 . S
H634 C642 0.930 . S
H635 C643 0.930 . S
H636 C646 0.930 . S
H637 C647 0.930 . S
C638 H632 0.930 . S
C638 C639 1.355 . S
C638 C640 1.415 . S
C639 C638 1.355 . S
C639 C641 1.419 . S
C640 C638 1.415 . S
C640 C645 1.425 . S
C640 C647 1.409 . S
C641 H633 0.930 . S
C641 C639 1.419 . S
C641 C642 1.362 . S
C642 H634 0.930 . S
C642 C641 1.362 . S
C642 C645 1.409 . S
C643 H635 0.930 . S
C643 C644 1.355 . S
C643 C645 1.415 . S
C644 C643 1.355 . S
C644 C646 1.419 . S
C645 C640 1.425 . S
C645 C642 1.409 . S
C645 C643 1.415 . S
C646 H636 0.930 . S
C646 C644 1.419 . S
C646 C647 1.362 . S
C647 H637 0.930 . S
C647 C640 1.409 . S
C647 C646 1.362 . S
H648 C654 0.930 . S
H649 C657 0.930 . S
H650 C658 0.930 . S
H651 C659 0.930 . S
H652 C662 0.930 . S
H653 C663 0.930 . S
C654 H648 0.930 . S
C654 C655 1.355 . S
C654 C656 1.415 . S
C655 C654 1.355 . S
C655 C657 1.419 . S
C656 C654 1.415 . S
C656 C661 1.425 . S
C656 C663 1.409 . S
C657 H649 0.930 . S
C657 C655 1.419 . S
C657 C658 1.362 . S
C658 H650 0.930 . S
C658 C657 1.362 . S
C658 C661 1.409 . S
C659 H651 0.930 . S
C659 C660 1.355 . S
C659 C661 1.415 . S
C660 C659 1.355 . S
C660 C662 1.419 . S
C661 C656 1.425 . S
C661 C658 1.409 . S
C661 C659 1.415 . S
C662 H652 0.930 . S
C662 C660 1.419 . S
C662 C663 1.362 . S
C663 H653 0.930 . S
C663 C656 1.409 . S
C663 C662 1.362 . S
H664 C670 0.930 . S
H665 C673 0.930 . S
H666 C674 0.930 . S
H667 C675 0.930 . S
H668 C678 0.930 . S
H669 C679 0.930 . S
C670 H664 0.930 . S
C670 C671 1.355 . S
C670 C672 1.415 . S
C671 C670 1.355 . S
C671 C673 1.419 . S
C672 C670 1.415 . S
C672 C677 1.425 . S
C672 C679 1.409 . S
C673 H665 0.930 . S
C673 C671 1.419 . S
C673 C674 1.362 . S
C674 H666 0.930 . S
C674 C673 1.362 . S
C674 C677 1.409 . S
C675 H667 0.930 . S
C675 C676 1.355 . S
C675 C677 1.415 . S
C676 C675 1.355 . S
C676 C678 1.419 . S
C677 C672 1.425 . S
C677 C674 1.409 . S
C677 C675 1.415 . S
C678 H668 0.930 . S
C678 C676 1.419 . S
C678 C679 1.362 . S
C679 H669 0.930 . S
C679 C672 1.409 . S
C679 C678 1.362 . S
H680 C686 0.930 . S
H681 C689 0.930 . S
H682 C690 0.930 . S
H683 C691 0.930 . S
H684 C694 0.930 . S
H685 C695 0.930 . S
C686 H680 0.930 . S
C686 C687 1.355 . S
C686 C688 1.415 . S
C687 C686 1.355 . S
C687 C689 1.419 . S
C688 C686 1.415 . S
C688 C693 1.425 . S
C688 C695 1.409 . S
C689 H681 0.930 . S
C689 C687 1.419 . S
C689 C690 1.362 . S
C690 H682 0.930 . S
C690 C689 1.362 . S
C690 C693 1.409 . S
C691 H683 0.930 . S
C691 C692 1.355 . S
C691 C693 1.415 . S
C692 C691 1.355 . S
C692 C694 1.419 . S
C693 C688 1.425 . S
C693 C690 1.409 . S
C693 C691 1.415 . S
C694 H684 0.930 . S
C694 C692 1.419 . S
C694 C695 1.362 . S
C695 H685 0.930 . S
C695 C688 1.409 . S
C695 C694 1.362 . S
H696 C702 0.930 . S
H697 C705 0.930 . S
H698 C706 0.930 1_554 S
H699 C707 0.930 . S
H700 C710 0.930 . S
H701 C711 0.930 1_556 S
C702 H696 0.930 . S
C702 C703 1.355 1_545 S
C702 C704 1.415 . S
C703 C702 1.355 1_565 S
C703 C705 1.419 . S
C704 C702 1.415 . S
C704 C709 1.425 1_546 S
C704 C711 1.409 1_556 S
C705 H697 0.930 . S
C705 C703 1.419 . S
C705 C706 1.362 . S
C706 H698 0.930 1_556 S
C706 C705 1.362 . S
C706 C709 1.409 1_556 S
C707 H699 0.930 . S
C707 C708 1.355 1_565 S
C707 C709 1.415 . S
C708 C707 1.355 1_545 S
C708 C710 1.419 . S
C709 C704 1.425 1_564 S
C709 C706 1.409 1_554 S
C709 C707 1.415 . S
C710 H700 0.930 . S
C710 C708 1.419 . S
C710 C711 1.362 . S
C711 H701 0.930 1_554 S
C711 C704 1.409 1_554 S
C711 C710 1.362 . S
H712 C718 0.930 . S
H713 C721 0.930 . S
H714 C722 0.930 . S
H715 C723 0.930 . S
H716 C726 0.930 . S
H717 C727 0.930 . S
C718 H712 0.930 . S
C718 C719 1.355 . S
C718 C720 1.415 . S
C719 C718 1.355 . S
C719 C721 1.419 . S
C720 C718 1.415 . S
C720 C725 1.425 . S
C720 C727 1.409 . S
C721 H713 0.930 . S
C721 C719 1.419 . S
C721 C722 1.362 . S
C722 H714 0.930 . S
C722 C721 1.362 . S
C722 C725 1.409 . S
C723 H715 0.930 . S
C723 C724 1.355 . S
C723 C725 1.415 . S
C724 C723 1.355 . S
C724 C726 1.419 . S
C725 C720 1.425 . S
C725 C722 1.409 . S
C725 C723 1.415 . S
C726 H716 0.930 . S
C726 C724 1.419 . S
C726 C727 1.362 . S
C727 H717 0.930 . S
C727 C720 1.409 . S
C727 C726 1.362 . S
H728 C734 0.930 . S
H729 C737 0.930 . S
H730 C738 0.930 . S
H731 C739 0.930 . S
H732 C742 0.930 . S
H733 C743 0.930 . S
C734 H728 0.930 . S
C734 C735 1.355 . S
C734 C736 1.415 . S
C735 C734 1.355 . S
C735 C737 1.419 . S
C736 C734 1.415 . S
C736 C741 1.425 1_456 S
C736 C743 1.409 1_556 S
C737 H729 0.930 . S
C737 C735 1.419 . S
C737 C738 1.362 1_455 S
C738 H730 0.930 . S
C738 C737 1.362 1_655 S
C738 C741 1.409 1_556 S
C739 H731 0.930 . S
C739 C740 1.355 . S
C739 C741 1.415 . S
C740 C739 1.355 . S
C740 C742 1.419 . S
C741 C736 1.425 1_654 S
C741 C738 1.409 1_554 S
C741 C739 1.415 . S
C742 H732 0.930 . S
C742 C740 1.419 . S
C742 C743 1.362 1_655 S
C743 H733 0.930 . S
C743 C736 1.409 1_554 S
C743 C742 1.362 1_455 S
H744 C750 0.930 . S
H745 C753 0.930 . S
H746 C754 0.930 . S
H747 C755 0.930 . S
H748 C758 0.930 . S
H749 C759 0.930 . S
C750 H744 0.930 . S
C750 C751 1.355 1_565 S
C750 C752 1.415 . S
C751 C750 1.355 1_545 S
C751 C753 1.419 . S
C752 C750 1.415 . S
C752 C757 1.425 1_565 S
C752 C759 1.409 . S
C753 H745 0.930 . S
C753 C751 1.419 . S
C753 C754 1.362 . S
C754 H746 0.930 . S
C754 C753 1.362 . S
C754 C757 1.409 . S
C755 H747 0.930 . S
C755 C756 1.355 1_545 S
C755 C757 1.415 . S
C756 C755 1.355 1_565 S
C756 C758 1.419 . S
C757 C752 1.425 1_545 S
C757 C754 1.409 . S
C757 C755 1.415 . S
C758 H748 0.930 . S
C758 C756 1.419 . S
C758 C759 1.362 . S
C759 H749 0.930 . S
C759 C752 1.409 . S
C759 C758 1.362 . S
H760 C766 0.930 . S
H761 C769 0.930 . S
H762 C770 0.930 . S
H763 C771 0.930 . S
H764 C774 0.930 . S
H765 C775 0.930 . S
C766 H760 0.930 . S
C766 C767 1.355 . S
C766 C768 1.415 . S
C767 C766 1.355 . S
C767 C769 1.419 . S
C768 C766 1.415 . S
C768 C773 1.425 1_554 S
C768 C775 1.409 1_554 S
C769 H761 0.930 . S
C769 C767 1.419 . S
C769 C770 1.362 . S
C770 H762 0.930 . S
C770 C769 1.362 . S
C770 C773 1.409 1_554 S
C771 H763 0.930 . S
C771 C772 1.355 . S
C771 C773 1.415 . S
C772 C771 1.355 . S
C772 C774 1.419 . S
C773 C768 1.425 1_556 S
C773 C770 1.409 1_556 S
C773 C771 1.415 . S
C774 H764 0.930 . S
C774 C772 1.419 . S
C774 C775 1.362 . S
C775 H765 0.930 . S
C775 C768 1.409 1_556 S
C775 C774 1.362 . S
H776 C782 0.930 . S
H777 C785 0.930 . S
H778 C786 0.930 . S
H779 C787 0.930 . S
H780 C790 0.930 . S
H781 C791 0.930 . S
C782 H776 0.930 . S
C782 C783 1.355 . S
C782 C784 1.415 . S
C783 C782 1.355 . S
C783 C785 1.419 . S
C784 C782 1.415 . S
C784 C789 1.425 1_455 S
C784 C791 1.409 . S
C785 H777 0.930 . S
C785 C783 1.419 . S
C785 C786 1.362 1_455 S
C786 H778 0.930 . S
C786 C785 1.362 1_655 S
C786 C789 1.409 . S
C787 H779 0.930 . S
C787 C788 1.355 . S
C787 C789 1.415 . S
C788 C787 1.355 . S
C788 C790 1.419 . S
C789 C784 1.425 1_655 S
C789 C786 1.409 . S
C789 C787 1.415 . S
C790 H780 0.930 . S
C790 C788 1.419 . S
C790 C791 1.362 1_655 S
C791 H781 0.930 . S
C791 C784 1.409 . S
C791 C790 1.362 1_455 S
H792 C798 0.930 . S
H793 C801 0.930 . S
H794 C802 0.930 . S
H795 C803 0.930 . S
H796 C806 0.930 . S
H797 C807 0.930 . S
C798 H792 0.930 . S
C798 C799 1.355 . S
C798 C800 1.429 . S
C799 C798 1.355 . S
C799 C801 1.419 1_565 S
C800 C798 1.429 . S
C800 C805 1.425 1_566 S
C800 C807 1.395 1_556 S
C801 H793 0.930 . S
C801 C799 1.419 1_545 S
C801 C802 1.362 . S
C802 H794 0.930 . S
C802 C801 1.362 . S
C802 C805 1.395 1_556 S
C803 H795 0.930 . S
C803 C804 1.355 . S
C803 C805 1.429 . S
C804 C803 1.355 . S
C804 C806 1.419 1_545 S
C805 C800 1.425 1_544 S
C805 C802 1.395 1_554 S
C805 C803 1.429 . S
C806 H796 0.930 . S
C806 C804 1.419 1_565 S
C806 C807 1.362 . S
C807 H797 0.930 . S
C807 C800 1.395 1_554 S
C807 C806 1.362 . S
H808 C814 0.930 . S
H809 C817 0.930 . S
H810 C818 0.930 . S
H811 C819 0.930 . S
H812 C822 0.930 . S
H813 C823 0.930 . S
C814 H808 0.930 . S
C814 C815 1.355 . S
C814 C816 1.415 . S
C815 C814 1.355 . S
C815 C817 1.419 . S
C816 C814 1.415 . S
C816 C821 1.425 . S
C816 C823 1.409 . S
C817 H809 0.930 . S
C817 C815 1.419 . S
C817 C818 1.362 . S
C818 H810 0.930 . S
C818 C817 1.362 . S
C818 C821 1.409 . S
C819 H811 0.930 . S
C819 C820 1.355 . S
C819 C821 1.415 . S
C820 C819 1.355 . S
C820 C822 1.419 . S
C821 C816 1.425 . S
C821 C818 1.409 . S
C821 C819 1.415 . S
C822 H812 0.930 . S
C822 C820 1.419 . S
C822 C823 1.362 . S
C823 H813 0.930 . S
C823 C816 1.409 . S
C823 C822 1.362 . S
H824 C830 0.930 . S
H825 C833 0.930 . S
H826 C834 0.930 . S
H827 C835 0.930 . S
H828 C838 0.930 . S
H829 C839 0.930 . S
C830 H824 0.930 . S
C830 C831 1.355 . S
C830 C832 1.415 . S
C831 C830 1.355 . S
C831 C833 1.419 . S
C832 C830 1.415 . S
C832 C837 1.425 1_654 S
C832 C839 1.409 1_654 S
C833 H825 0.930 . S
C833 C831 1.419 . S
C833 C834 1.362 . S
C834 H826 0.930 . S
C834 C833 1.362 . S
C834 C837 1.409 1_654 S
C835 H827 0.930 . S
C835 C836 1.355 . S
C835 C837 1.415 . S
C836 C835 1.355 . S
C836 C838 1.419 . S
C837 C832 1.425 1_456 S
C837 C834 1.409 1_456 S
C837 C835 1.415 . S
C838 H828 0.930 . S
C838 C836 1.419 . S
C838 C839 1.362 . S
C839 H829 0.930 . S
C839 C832 1.409 1_456 S
C839 C838 1.362 . S
H840 C846 0.930 . S
H841 C849 0.930 . S
H842 C850 0.930 . S
H843 C851 0.930 . S
H844 C854 0.930 . S
H845 C855 0.930 . S
C846 H840 0.930 . S
C846 C847 1.355 . S
C846 C848 1.415 . S
C847 C846 1.355 . S
C847 C849 1.419 . S
C848 C846 1.415 . S
C848 C853 1.425 1_565 S
C848 C855 1.409 . S
C849 H841 0.930 . S
C849 C847 1.419 . S
C849 C850 1.362 1_565 S
C850 H842 0.930 . S
C850 C849 1.362 1_545 S
C850 C853 1.409 . S
C851 H843 0.930 . S
C851 C852 1.355 . S
C851 C853 1.415 . S
C852 C851 1.355 . S
C852 C854 1.419 . S
C853 C848 1.425 1_545 S
C853 C850 1.409 . S
C853 C851 1.415 . S
C854 H844 0.930 . S
C854 C852 1.419 . S
C854 C855 1.362 1_545 S
C855 H845 0.930 . S
C855 C848 1.409 . S
C855 C854 1.362 1_565 S
H856 C862 0.930 . S
H857 C865 0.930 . S
H858 C866 0.930 . S
H859 C867 0.930 . S
H860 C870 0.930 . S
H861 C871 0.930 . S
C862 H856 0.930 . S
C862 C863 1.355 . S
C862 C864 1.415 . S
C863 C862 1.355 . S
C863 C865 1.419 . S
C864 C862 1.415 . S
C864 C869 1.425 1_554 S
C864 C871 1.409 1_554 S
C865 H857 0.930 . S
C865 C863 1.419 . S
C865 C866 1.362 . S
C866 H858 0.930 . S
C866 C865 1.362 . S
C866 C869 1.409 1_554 S
C867 H859 0.930 . S
C867 C868 1.355 . S
C867 C869 1.415 . S
C868 C867 1.355 . S
C868 C870 1.419 . S
C869 C864 1.425 1_556 S
C869 C866 1.409 1_556 S
C869 C867 1.415 . S
C870 H860 0.930 . S
C870 C868 1.419 . S
C870 C871 1.362 . S
C871 H861 0.930 . S
C871 C864 1.409 1_556 S
C871 C870 1.362 . S
H872 C878 0.930 . S
H873 C881 0.930 . S
H874 C882 0.930 . S
H875 C883 0.930 . S
H876 C886 0.930 . S
H877 C887 0.930 . S
C878 H872 0.930 . S
C878 C879 1.355 1_655 S
C878 C880 1.415 . S
C879 C878 1.355 1_455 S
C879 C881 1.419 . S
C880 C878 1.415 . S
C880 C885 1.425 1_655 S
C880 C887 1.409 . S
C881 H873 0.930 . S
C881 C879 1.419 . S
C881 C882 1.362 . S
C882 H874 0.930 . S
C882 C881 1.362 . S
C882 C885 1.409 . S
C883 H875 0.930 . S
C883 C884 1.355 1_455 S
C883 C885 1.415 . S
C884 C883 1.355 1_655 S
C884 C886 1.419 . S
C885 C880 1.425 1_455 S
C885 C882 1.409 . S
C885 C883 1.415 . S
C886 H876 0.930 . S
C886 C884 1.419 . S
C886 C887 1.362 . S
C887 H877 0.930 . S
C887 C880 1.409 . S
C887 C886 1.362 . S
H888 C894 0.930 . S
H889 C897 0.930 . S
H890 C898 0.930 . S
H891 C899 0.930 . S
H892 C902 0.930 . S
H893 C903 0.930 . S
C894 H888 0.930 . S
C894 C895 1.355 . S
C894 C896 1.415 . S
C895 C894 1.355 . S
C895 C897 1.419 . S
C896 C894 1.415 . S
C896 C901 1.425 . S
C896 C903 1.409 . S
C897 H889 0.930 . S
C897 C895 1.419 . S
C897 C898 1.362 . S
C898 H890 0.930 . S
C898 C897 1.362 . S
C898 C901 1.409 . S
C899 H891 0.930 . S
C899 C900 1.355 . S
C899 C901 1.415 . S
C900 C899 1.355 . S
C900 C902 1.419 . S
C901 C896 1.425 . S
C901 C898 1.409 . S
C901 C899 1.415 . S
C902 H892 0.930 . S
C902 C900 1.419 . S
C902 C903 1.362 . S
C903 H893 0.930 . S
C903 C896 1.409 . S
C903 C902 1.362 . S
H904 C910 0.930 . S
H905 C913 0.930 . S
H906 C914 0.930 . S
H907 C915 0.930 . S
H908 C918 0.930 . S
H909 C919 0.930 . S
C910 H904 0.930 . S
C910 C911 1.355 . S
C910 C912 1.415 . S
C911 C910 1.355 . S
C911 C913 1.419 . S
C912 C910 1.415 . S
C912 C917 1.425 . S
C912 C919 1.409 . S
C913 H905 0.930 . S
C913 C911 1.419 . S
C913 C914 1.362 . S
C914 H906 0.930 . S
C914 C913 1.362 . S
C914 C917 1.409 . S
C915 H907 0.930 . S
C915 C916 1.355 . S
C915 C917 1.415 . S
C916 C915 1.355 . S
C916 C918 1.419 . S
C917 C912 1.425 . S
C917 C914 1.409 . S
C917 C915 1.415 . S
C918 H908 0.930 . S
C918 C916 1.419 . S
C918 C919 1.362 . S
C919 H909 0.930 . S
C919 C912 1.409 . S
C919 C918 1.362 . S
H920 C926 0.930 . S
H921 C929 0.930 . S
H922 C930 0.930 . S
H923 C931 0.930 . S
H924 C934 0.930 . S
H925 C935 0.902 1_455 S
C926 H920 0.930 . S
C926 C927 1.355 . S
C926 C928 1.415 . S
C927 C926 1.355 . S
C927 C929 1.419 . S
C928 C926 1.415 . S
C928 C933 1.425 . S
C928 C935 1.409 . S
C929 H921 0.930 . S
C929 C927 1.419 . S
C929 C930 1.362 . S
C930 H922 0.930 . S
C930 C929 1.362 . S
C930 C933 1.409 . S
C931 H923 0.930 . S
C931 C932 1.355 . S
C931 C933 1.415 . S
C932 C931 1.355 . S
C932 C934 1.419 . S
C933 C928 1.425 . S
C933 C930 1.409 . S
C933 C931 1.415 . S
C934 H924 0.930 . S
C934 C932 1.419 . S
C934 C935 1.362 . S
C935 H925 0.902 1_655 S
C935 C928 1.409 . S
C935 C934 1.362 . S
H936 C942 0.930 . S
H937 C945 0.930 . S
H938 C946 0.930 . S
H939 C947 0.930 . S
H940 C950 0.930 . S
H941 C951 0.930 . S
C942 H936 0.930 . S
C942 C943 1.355 . S
C942 C944 1.415 . S
C943 C942 1.355 . S
C943 C945 1.419 . S
C944 C942 1.415 . S
C944 C949 1.425 . S
C944 C951 1.409 . S
C945 H937 0.930 . S
C945 C943 1.419 . S
C945 C946 1.362 . S
C946 H938 0.930 . S
C946 C945 1.362 . S
C946 C949 1.409 . S
C947 H939 0.930 . S
C947 C948 1.355 . S
C947 C949 1.415 . S
C948 C947 1.355 . S
C948 C950 1.419 . S
C949 C944 1.425 . S
C949 C946 1.409 . S
C949 C947 1.415 . S
C950 H940 0.930 . S
C950 C948 1.419 . S
C950 C951 1.362 . S
C951 H941 0.930 . S
C951 C944 1.409 . S
C951 C950 1.362 . S
H952 C958 0.930 . S
H953 C961 0.930 . S
H954 C962 0.930 . S
H955 C963 0.930 . S
H956 C966 0.930 . S
H957 C967 0.930 . S
C958 H952 0.930 . S
C958 C959 1.355 . S
C958 C960 1.415 . S
C959 C958 1.355 . S
C959 C961 1.419 . S
C960 C958 1.415 . S
C960 C965 1.425 . S
C960 C967 1.409 . S
C961 H953 0.930 . S
C961 C959 1.419 . S
C961 C962 1.362 . S
C962 H954 0.930 . S
C962 C961 1.362 . S
C962 C965 1.409 . S
C963 H955 0.930 . S
C963 C964 1.355 . S
C963 C965 1.415 . S
C964 C963 1.355 . S
C964 C966 1.419 . S
C965 C960 1.425 . S
C965 C962 1.409 . S
C965 C963 1.415 . S
C966 H956 0.930 . S
C966 C964 1.419 . S
C966 C967 1.362 . S
C967 H957 0.930 . S
C967 C960 1.409 . S
C967 C966 1.362 . S
H968 C974 0.930 . S
H969 C977 0.930 . S
H970 C978 0.930 1_655 S
H971 C979 0.930 . S
H972 C982 0.930 . S
H973 C983 0.930 . S
C974 H968 0.930 . S
C974 C975 1.355 . S
C974 C976 1.415 . S
C975 C974 1.355 . S
C975 C977 1.419 . S
C976 C974 1.415 . S
C976 C981 1.425 . S
C976 C983 1.409 . S
C977 H969 0.930 . S
C977 C975 1.419 . S
C977 C978 1.362 . S
C978 H970 0.930 1_455 S
C978 C977 1.362 . S
C978 C981 1.409 . S
C979 H971 0.930 . S
C979 C980 1.355 . S
C979 C981 1.415 . S
C980 C979 1.355 . S
C980 C982 1.419 . S
C981 C976 1.425 . S
C981 C978 1.409 . S
C981 C979 1.415 . S
C982 H972 0.930 . S
C982 C980 1.419 . S
C982 C983 1.362 . S
C983 H973 0.930 . S
C983 C976 1.409 . S
C983 C982 1.362 . S
H984 C990 0.930 . S
H985 C993 0.930 . S
H986 C994 0.930 1_455 S
H987 C995 0.930 . S
H988 C998 0.930 . S
H989 C999 0.930 . S
C990 H984 0.930 . S
C990 C991 1.355 . S
C990 C992 1.415 . S
C991 C990 1.355 . S
C991 C993 1.419 . S
C992 C990 1.415 . S
C992 C997 1.425 . S
C992 C999 1.409 . S
C993 H985 0.930 . S
C993 C991 1.419 . S
C993 C994 1.362 . S
C994 H986 0.930 1_655 S
C994 C993 1.362 . S
C994 C997 1.409 . S
C995 H987 0.930 . S
C995 C996 1.355 . S
C995 C997 1.415 . S
C996 C995 1.355 . S
C996 C998 1.419 . S
C997 C992 1.425 . S
C997 C994 1.409 . S
C997 C995 1.415 . S
C998 H988 0.930 . S
C998 C996 1.419 . S
C998 C999 1.362 . S
C999 H989 0.930 . S
C999 C992 1.409 . S
C999 C998 1.362 . S
H1000 C1006 0.930 . S
H1001 C1009 0.930 . S
H1002 C1010 0.894 1_545 S
H1003 C1011 0.930 . S
H1004 C1014 0.930 . S
H1005 C1015 0.930 . S
C1006 H1000 0.930 . S
C1006 C1007 1.355 . S
C1006 C1008 1.415 . S
C1007 C1006 1.355 . S
C1007 C1009 1.419 . S
C1008 C1006 1.415 . S
C1008 C1013 1.425 . S
C1008 C1015 1.409 . S
C1009 H1001 0.930 . S
C1009 C1007 1.419 . S
C1009 C1010 1.362 . S
C1010 H1002 0.894 1_565 S
C1010 C1009 1.362 . S
C1010 C1013 1.409 . S
C1011 H1003 0.930 . S
C1011 C1012 1.355 . S
C1011 C1013 1.415 . S
C1012 C1011 1.355 . S
C1012 C1014 1.419 . S
C1013 C1008 1.425 . S
C1013 C1010 1.409 . S
C1013 C1011 1.415 . S
C1014 H1004 0.930 . S
C1014 C1012 1.419 . S
C1014 C1015 1.362 . S
C1015 H1005 0.930 . S
C1015 C1008 1.409 . S
C1015 C1014 1.362 . S
H1016 C1022 0.930 . S
H1017 C1025 0.930 . S
H1018 C1026 0.930 . S
H1019 C1027 0.930 . S
H1020 C1030 0.930 . S
H1021 C1031 0.930 . S
C1022 H1016 0.930 . S
C1022 C1023 1.355 . S
C1022 C1024 1.415 . S
C1023 C1022 1.355 . S
C1023 C1025 1.419 . S
C1024 C1022 1.415 . S
C1024 C1029 1.425 . S
C1024 C1031 1.409 . S
C1025 H1017 0.930 . S
C1025 C1023 1.419 . S
C1025 C1026 1.362 . S
C1026 H1018 0.930 . S
C1026 C1025 1.362 . S
C1026 C1029 1.409 . S
C1027 H1019 0.930 . S
C1027 C1028 1.355 . S
C1027 C1029 1.415 . S
C1028 C1027 1.355 . S
C1028 C1030 1.419 . S
C1029 C1024 1.425 . S
C1029 C1026 1.409 . S
C1029 C1027 1.415 . S
C1030 H1020 0.930 . S
C1030 C1028 1.419 . S
C1030 C1031 1.362 . S
C1031 H1021 0.930 . S
C1031 C1024 1.409 . S
C1031 C1030 1.362 . S
H1032 C1038 0.930 . S
H1033 C1041 0.930 . S
H1034 C1042 0.930 1_655 S
H1035 C1043 0.930 . S
H1036 C1046 0.930 . S
H1037 C1047 0.930 . S
C1038 H1032 0.930 . S
C1038 C1039 1.355 . S
C1038 C1040 1.415 . S
C1039 C1038 1.355 . S
C1039 C1041 1.419 . S
C1040 C1038 1.415 . S
C1040 C1045 1.425 . S
C1040 C1047 1.409 . S
C1041 H1033 0.930 . S
C1041 C1039 1.419 . S
C1041 C1042 1.362 . S
C1042 H1034 0.930 1_455 S
C1042 C1041 1.362 . S
C1042 C1045 1.409 . S
C1043 H1035 0.930 . S
C1043 C1044 1.355 . S
C1043 C1045 1.415 . S
C1044 C1043 1.355 . S
C1044 C1046 1.419 . S
C1045 C1040 1.425 . S
C1045 C1042 1.409 . S
C1045 C1043 1.415 . S
C1046 H1036 0.930 . S
C1046 C1044 1.419 . S
C1046 C1047 1.362 . S
C1047 H1037 0.930 . S
C1047 C1040 1.409 . S
C1047 C1046 1.362 . S
H1048 C1054 0.930 . S
H1049 C1057 0.930 . S
H1050 C1058 0.930 . S
H1051 C1059 0.930 . S
H1052 C1062 0.930 . S
H1053 C1063 0.930 1_565 S
C1054 H1048 0.930 . S
C1054 C1055 1.355 . S
C1054 C1056 1.415 . S
C1055 C1054 1.355 . S
C1055 C1057 1.419 . S
C1056 C1054 1.415 . S
C1056 C1061 1.425 . S
C1056 C1063 1.409 . S
C1057 H1049 0.930 . S
C1057 C1055 1.419 . S
C1057 C1058 1.362 . S
C1058 H1050 0.930 . S
C1058 C1057 1.362 . S
C1058 C1061 1.409 . S
C1059 H1051 0.930 . S
C1059 C1060 1.355 . S
C1059 C1061 1.415 . S
C1060 C1059 1.355 . S
C1060 C1062 1.419 . S
C1061 C1056 1.425 . S
C1061 C1058 1.409 . S
C1061 C1059 1.415 . S
C1062 H1052 0.930 . S
C1062 C1060 1.419 . S
C1062 C1063 1.362 . S
C1063 H1053 0.930 1_545 S
C1063 C1056 1.409 . S
C1063 C1062 1.362 . S
H1064 C1070 0.930 . S
H1065 C1073 0.930 . S
H1066 C1074 0.930 . S
H1067 C1075 0.930 . S
H1068 C1078 0.930 . S
H1069 C1079 0.930 . S
C1070 H1064 0.930 . S
C1070 C1071 1.355 . S
C1070 C1072 1.415 . S
C1071 C1070 1.355 . S
C1071 C1073 1.419 . S
C1072 C1070 1.415 . S
C1072 C1077 1.425 . S
C1072 C1079 1.409 . S
C1073 H1065 0.930 . S
C1073 C1071 1.419 . S
C1073 C1074 1.362 . S
C1074 H1066 0.930 . S
C1074 C1073 1.362 . S
C1074 C1077 1.409 . S
C1075 H1067 0.930 . S
C1075 C1076 1.355 . S
C1075 C1077 1.415 . S
C1076 C1075 1.355 . S
C1076 C1078 1.419 . S
C1077 C1072 1.425 . S
C1077 C1074 1.409 . S
C1077 C1075 1.415 . S
C1078 H1068 0.930 . S
C1078 C1076 1.419 . S
C1078 C1079 1.362 . S
C1079 H1069 0.930 . S
C1079 C1072 1.409 . S
C1079 C1078 1.362 . S
C319 C199 1.431 . S
C324 C10 1.398 . S
C335 C17 1.432 . S
C340 C212 1.397 . S
C351 C36 1.407 . S
C356 C231 1.422 . S
C367 C43 1.422 . S
C372 C166 1.407 . S
C383 C179 1.423 . S
C388 C62 1.406 . S
C399 C75 1.432 . S
C404 C186 1.397 . S
C415 C277 1.411 . S
C420 C88 1.418 . S
C431 C95 1.430 . S
C436 C296 1.399 . S
C447 C108 1.398 . S
C452 C309 1.431 . S
C463 C238 1.409 . S
C468 C121 1.420 . S
C479 C134 1.421 . S
C484 C257 1.408 . S
C495 C270 1.414 . S
C500 C153 1.415 . S
C511 C4 1.651 . S
C516 C303 1.672 . S
C527 C244 1.651 . S
C532 C23 1.672 . S
C543 C30 1.657 . S
C548 C251 1.666 . S
C559 C264 1.664 . S
C564 C49 1.660 . S
C575 C56 1.660 . S
C580 C283 1.663 . S
C591 C290 1.651 . S
C596 C69 1.672 . S
C607 C82 1.668 . S
C612 C173 1.655 . S
C623 C192 1.667 . S
C628 C101 1.655 . S
C639 C205 1.659 . S
C644 C114 1.664 . S
C655 C218 1.651 . S
C660 C127 1.672 . S
C671 C140 1.667 . S
C676 C225 1.656 . S
C687 C147 1.663 . S
C692 C160 1.660 . S
C703 C96 1.294 . S
C708 C3 1.313 . S
C719 C109 1.336 . S
C724 C18 1.322 . S
C735 C122 1.328 . S
C740 C29 1.304 . S
C751 C135 1.292 . S
C756 C44 1.304 . S
C767 C55 1.314 . S
C772 C146 1.334 . S
C783 C68 1.316 . S
C788 C81 1.335 . S
C799 C159 1.335 . S
C804 C250 1.331 . S
C815 C172 1.312 . S
C820 C263 1.293 . S
C831 C278 1.296 . S
C836 C187 1.318 . S
C847 C289 1.301 . S
C852 C200 1.325 . S
C863 C302 1.334 . S
C868 C213 1.315 . S
C879 C239 1.296 . S
C884 C224 1.295 . S
C895 C5 1.702 . S
C900 C252 1.698 . S
C911 C265 1.693 . S
C916 C16 1.708 . S
C927 C31 1.696 . S
C932 C276 1.705 . S
C943 C291 1.704 . S
C948 C42 1.696 . S
C959 C57 1.702 . S
C964 C304 1.699 . S
C975 C237 1.702 . S
C980 C70 1.698 . S
C991 C83 1.707 . S
C996 C226 1.693 . S
C1007 C161 1.705 . S
C1012 C94 1.696 . S
C1023 C107 1.706 . S
C1028 C174 1.695 . S
C1039 C120 1.707 . S
C1044 C185 1.694 . S
C1055 C133 1.694 . S
C1060 C198 1.707 . S
C1071 C148 1.695 . S
C1076 C211 1.706 . S
