# Generated by pormake.
# Topology fnu, (5)-cn, num edge types: 1
# Building blocks:
#     Node 0, Type 0, BuildingBlock: XOMCOT_clean_sbu_1, # of connection points: 5
#     Node 1, Type 0, BuildingBlock: XOMCOT_clean_sbu_1, # of connection points: 5
#     Node 2, Type 0, BuildingBlock: XOMCOT_clean_sbu_1, # of connection points: 5
#     Node 3, Type 0, BuildingBlock: XOMCOT_clean_sbu_1, # of connection points: 5
#     Node 4, Type 0, BuildingBlock: XOMCOT_clean_sbu_1, # of connection points: 5
#     Node 5, Type 0, BuildingBlock: XOMCOT_clean_sbu_1, # of connection points: 5
#     Edge 6, Type (0, 0), BuildingBlock: EZIPEK_clean_linker_0, # of connection points: 2
#     Edge 7, Type (0, 0), BuildingBlock: EZIPEK_clean_linker_0, # of connection points: 2
#     Edge 8, Type (0, 0), BuildingBlock: EZIPEK_clean_linker_0, # of connection points: 2
#     Edge 9, Type (0, 0), BuildingBlock: EZIPEK_clean_linker_0, # of connection points: 2
#     Edge 10, Type (0, 0), BuildingBlock: EZIPEK_clean_linker_0, # of connection points: 2
#     Edge 11, Type (0, 0), BuildingBlock: EZIPEK_clean_linker_0, # of connection points: 2
#     Edge 12, Type (0, 0), BuildingBlock: EZIPEK_clean_linker_0, # of connection points: 2
#     Edge 13, Type (0, 0), BuildingBlock: EZIPEK_clean_linker_0, # of connection points: 2
#     Edge 14, Type (0, 0), BuildingBlock: EZIPEK_clean_linker_0, # of connection points: 2
#     Edge 15, Type (0, 0), BuildingBlock: EZIPEK_clean_linker_0, # of connection points: 2
#     Edge 16, Type (0, 0), BuildingBlock: EZIPEK_clean_linker_0, # of connection points: 2
#     Edge 17, Type (0, 0), BuildingBlock: EZIPEK_clean_linker_0, # of connection points: 2
#     Edge 18, Type (0, 0), BuildingBlock: EZIPEK_clean_linker_0, # of connection points: 2
#     Edge 19, Type (0, 0), BuildingBlock: EZIPEK_clean_linker_0, # of connection points: 2
#     Edge 20, Type (0, 0), BuildingBlock: EZIPEK_clean_linker_0, # of connection points: 2
# Relax obj value: 0.208
# Max RMSD: 0.145
# Mean RMSD: 0.145
data_MOF--net-fnu--node1-XOMCOT_clean_sbu_1--edge1-EZIPEK_clean_linker_0
_symmetry_space_group_name_H-M    P1
_symmetry_Int_Tables_number       1
_symmetry_cell_setting            triclinic
loop_
_symmetry_equiv_pos_as_xyz
'x, y, z'
_cell_length_a     20.422279
_cell_length_b     20.916487
_cell_length_c     25.882202
_cell_angle_alpha  89.537141
_cell_angle_beta   95.819971
_cell_angle_gamma 121.61262
loop_
_atom_site_label
_atom_site_type_symbol
_atom_site_fract_x
_atom_site_fract_y
_atom_site_fract_z
_atom_type_partial_charge
C0 C 0.13778 0.11762 0.33372 0.0
C1 C 0.12818 0.12945 0.38394 0.0
N2 N 0.08753 0.06249 0.405 0.0
N3 N 0.10372 0.04323 0.32209 0.0
C4 C 0.07322 1.01094 0.36672 0.0
H5 H 0.16815 0.16127 0.3073 0.0
Co6 Co 0.11197 1.00435 0.25725 0.0
C7 C 1.00092 0.058 0.22584 0.0
O8 O 0.9636 1.02597 0.26605 0.0
N9 N 0.12281 0.96676 0.19717 0.0
C10 C 0.1427 0.89933 0.14191 0.0
C11 C 0.14242 0.91458 0.19352 0.0
C12 C 0.11284 0.98349 0.14814 0.0
N13 N 0.12333 0.94262 0.11418 0.0
O14 O 0.21248 0.09832 0.24896 0.0
H15 H 0.15442 0.88845 0.22631 0.0
H16 H 0.09745 1.02423 0.13701 0.0
O17 O 0.05812 0.05141 0.21723 0.0
C18 C 0.27205 0.09279 0.24806 0.0
O19 O 0.26739 1.03159 0.26568 0.0
N20 N 1.0181 0.90786 0.2607 0.0
C21 C 0.92949 0.75205 0.23184 0.0
C22 C 0.91505 0.80301 0.20545 0.0
C23 C 0.95942 0.8802 0.2205 0.0
C24 C 1.02879 0.85812 0.28939 0.0
C25 C 0.9849 0.78021 0.27591 0.0
H26 H 0.95243 0.91769 0.19524 0.0
H27 H 0.07789 0.87941 0.31891 0.0
H28 H 1.04164 0.95105 0.37153 0.0
H29 H 0.14904 0.18337 0.40353 0.0
H30 H 0.15358 0.85854 0.12594 0.0
H31 H 0.87357 0.78411 0.17093 0.0
H32 H 0.99872 0.74317 0.29715 0.0
C33 C 0.91638 0.99301 0.67211 0.0
C34 C 0.92295 0.99206 0.61984 0.0
N35 N 0.99819 0.03343 0.61284 0.0
N36 N 0.98701 0.03538 0.69943 0.0
C37 C 1.03615 0.05899 0.66168 0.0
H38 H 0.86255 0.96177 0.68891 0.0
Co39 Co 0.99931 0.03838 0.77493 0.0
C40 C 0.11114 0.20894 0.7672 0.0
O41 O 0.15251 0.19502 0.73892 0.0
N42 N 1.00809 0.03812 0.84627 0.0
C43 C 1.0122 0.06272 0.93008 0.0
C44 C 0.99931 0.08057 0.88056 0.0
C45 C 1.02319 0.99294 0.87534 0.0
N46 N 1.02753 1.00802 0.92623 0.0
O47 O 0.89244 1.01942 0.77836 0.0
H48 H 0.98435 0.12154 0.87038 0.0
H49 H 1.03224 0.95092 0.85943 0.0
O50 O 0.04935 0.1521 0.78167 0.0
C51 C 0.84575 0.95403 0.79509 0.0
O52 O 0.87051 0.90739 0.80062 0.0
N53 N 0.09741 0.04529 0.77669 0.0
C54 C 0.20818 1.0084 0.81198 0.0
C55 C 0.21569 0.07543 0.82958 0.0
C56 C 0.15957 0.09258 0.81187 0.0
C57 C 0.09283 0.9829 0.75608 0.0
C58 C 0.14766 0.96359 0.77303 0.0
H59 H 0.16136 0.13888 0.83156 0.0
H60 H 1.04205 0.94341 0.73043 0.0
H61 H 0.09849 0.09141 0.66963 0.0
H62 H 0.87583 0.96214 0.58908 0.0
H63 H 1.01297 0.08922 0.96606 0.0
H64 H 0.26075 0.11088 0.86027 0.0
H65 H 0.13925 0.91093 0.75884 0.0
C66 C 0.8473 0.52525 0.68978 0.0
C67 C 0.84062 0.51445 0.74203 0.0
N68 N 0.77066 0.45403 0.74745 0.0
N69 N 0.78188 0.47204 0.66098 0.0
C70 C 0.73576 0.42952 0.69786 0.0
H71 H 0.89849 0.56881 0.6743 0.0
Co72 Co 0.77075 0.46014 0.58528 0.0
C73 C 0.65534 0.5125 0.59062 0.0
O74 O 0.61039 0.4561 0.61811 0.0
N75 N 0.76121 0.4489 0.51407 0.0
C76 C 0.74331 0.45826 0.42901 0.0
C77 C 0.74501 0.48631 0.47717 0.0
C78 C 0.76901 0.3986 0.48781 0.0
N79 N 0.75834 0.40344 0.43631 0.0
O80 O 0.87036 0.55629 0.57996 0.0
H81 H 0.73524 0.53121 0.48436 0.0
H82 H 0.78108 0.35854 0.50602 0.0
O83 O 0.71525 0.51521 0.5771 0.0
C84 C 0.92511 0.5487 0.56671 0.0
O85 O 0.91489 0.48127 0.56658 0.0
N86 N 0.67928 0.36186 0.58472 0.0
C87 C 0.58366 0.20963 0.5487 0.0
C88 C 0.5651 0.26326 0.53294 0.0
C89 C 0.61382 0.3391 0.55101 0.0
C90 C 0.69502 0.30928 0.60315 0.0
C91 C 0.64764 0.23303 0.58622 0.0
H92 H 0.60343 0.38024 0.53308 0.0
H93 H 0.74884 0.32747 0.62732 0.0
H94 H 0.67837 0.38041 0.6888 0.0
H95 H 0.88459 0.54777 0.77381 0.0
H96 H 0.73098 0.47565 0.39164 0.0
H97 H 0.51635 0.24767 0.50394 0.0
H98 H 0.66404 0.1936 0.59955 0.0
C99 C 0.60035 0.28329 1.0086 0.0
C100 C 0.60539 0.30518 0.95805 0.0
N101 N 0.68021 0.34349 0.94967 0.0
N102 N 0.67172 0.30788 0.03325 0.0
C103 C 0.71952 0.34452 0.99585 0.0
H104 H 0.54702 0.24929 0.02554 0.0
Co105 Co 0.69028 0.28227 0.10285 0.0
C106 C 0.8076 0.44071 0.15983 0.0
O107 O 0.84668 0.41794 0.18944 0.0
N108 N 0.7061 0.25297 0.16937 0.0
C109 C 0.72316 0.18859 0.23313 0.0
C110 C 0.70768 0.19027 0.18038 0.0
C111 C 0.71529 0.28538 0.21644 0.0
N112 N 0.72786 0.24866 0.25532 0.0
O113 O 0.59574 0.2763 0.12495 0.0
H114 H 0.69598 0.1467 0.15239 0.0
H115 H 0.71253 0.33482 0.22261 0.0
O116 O 0.75168 0.39432 0.12582 0.0
C117 C 0.5339 0.21178 0.12859 0.0
O118 O 0.53023 0.15185 0.10946 0.0
N119 N 0.77756 0.27822 0.08436 0.0
C120 C 0.87445 0.22163 0.11024 0.0
C121 C 0.90317 0.29925 0.11577 0.0
C122 C 0.85367 0.32648 0.1024 0.0
C123 C 0.75429 0.20656 0.06831 0.0
C124 C 0.80102 0.17652 0.08206 0.0
H125 H 0.87561 0.38503 0.10988 0.0
H126 H 0.69444 0.16849 0.05305 0.0
H127 H 0.78166 0.36993 1.00188 0.0
H128 H 0.55742 0.29243 0.92912 0.0
H129 H 0.72991 0.14666 0.25354 0.0
H130 H 0.96102 0.33733 0.1347 0.0
H131 H 0.77679 0.11683 0.07528 0.0
C132 C 0.50189 0.84359 1.00944 0.0
C133 C 0.50328 0.84978 0.06261 0.0
N134 N 0.43724 0.79136 0.07662 0.0
N135 N 0.43581 0.78076 0.98959 0.0
C136 C 0.39712 0.75052 0.03169 0.0
H137 H 0.54418 0.88523 0.98656 0.0
Co138 Co 0.39551 0.75426 0.91852 0.0
C139 C 0.34915 0.85494 0.91406 0.0
O140 O 0.29193 0.79714 0.93415 0.0
N141 N 0.35349 0.72773 0.84992 0.0
C142 C 0.28693 0.70445 0.772 0.0
C143 C 0.29552 0.73077 0.82226 0.0
C144 C 0.37632 0.69634 0.81662 0.0
N145 N 0.33824 0.68313 0.76904 0.0
O146 O 0.50136 0.79591 0.89341 0.0
H147 H 0.26147 0.75066 0.83707 0.0
H148 H 0.42183 0.68507 0.82639 0.0
O149 O 0.40958 0.8529 0.90932 0.0
C150 C 0.57147 0.81239 0.90504 0.0
O151 O 0.59214 0.79681 0.95077 0.0
N152 N 0.3709 0.65286 0.92533 0.0
C153 C 0.29085 0.50235 0.88528 0.0
C154 C 0.25125 0.53514 0.90202 0.0
C155 C 0.29218 0.60924 0.9231 0.0
C156 C 0.41179 0.62036 0.91518 0.0
C157 C 0.37257 0.54454 0.89551 0.0
H158 H 0.26014 0.63538 0.93085 0.0
H159 H 0.47399 0.65425 0.91705 0.0
H160 H 0.33877 0.702 0.0291 0.0
H161 H 0.54741 0.89586 0.08866 0.0
H162 H 0.24671 0.70153 0.74005 0.0
H163 H 0.18866 0.50534 0.89568 0.0
H164 H 0.40584 0.5213 0.88422 0.0
C165 C 0.26175 0.71716 0.34164 0.0
C166 C 0.26754 0.72258 0.28904 0.0
N167 N 0.34284 0.75897 0.28194 0.0
N168 N 0.33308 0.75056 0.36827 0.0
C169 C 0.38164 0.77562 0.33053 0.0
H170 H 0.20835 0.68741 0.35909 0.0
Co171 Co 0.35186 0.7457 0.44128 0.0
C172 C 0.40313 0.90849 0.44243 0.0
O173 O 0.33783 0.89127 0.41482 0.0
N174 N 0.36999 0.73963 0.51069 0.0
C175 C 0.41298 0.7641 0.59395 0.0
C176 C 0.40522 0.79463 0.54875 0.0
C177 C 0.35721 0.67662 0.53327 0.0
N178 N 0.38322 0.69006 0.58404 0.0
O179 O 0.25786 0.74778 0.45525 0.0
H180 H 0.42357 0.85291 0.54457 0.0
H181 H 0.33102 0.62284 0.51233 0.0
O182 O 0.4185 0.85703 0.45097 0.0
C183 C 0.20085 0.68572 0.46923 0.0
O184 O 0.20401 0.62484 0.46584 0.0
N185 N 0.43746 0.73386 0.43333 0.0
C186 C 0.52214 0.66872 0.47254 0.0
C187 C 0.5493 0.74484 0.48406 0.0
C188 C 0.50699 0.77684 0.46334 0.0
C189 C 0.41503 0.66262 0.41672 0.0
C190 C 0.45707 0.62935 0.43529 0.0
H191 H 0.52479 0.83268 0.47761 0.0
H192 H 0.35916 0.62787 0.39429 0.0
H193 H 0.44386 0.80268 0.33832 0.0
H194 H 0.21996 0.69915 0.25816 0.0
H195 H 0.43697 0.79374 0.63168 0.0
H196 H 0.5998 0.77782 0.51199 0.0
H197 H 0.43455 0.57089 0.42464 0.0
C198 C 0.3427 0.17641 0.17278 0.0
C199 C 0.34421 0.14741 0.22296 0.0
C200 C 0.47219 0.16853 0.21244 0.0
C201 C 0.47342 0.19997 0.1634 0.0
N202 N 0.41506 0.247 0.10151 0.0
N203 N 0.42537 0.1467 0.29673 0.0
C204 C 0.41057 0.20887 0.14536 0.0
C205 C 0.41421 0.15439 0.2447 0.0
N206 N 0.27609 0.16978 0.14984 0.0
N207 N 0.52276 0.14627 0.22732 0.0
H208 H 0.3853 0.13927 0.32188 0.0
H209 H 0.47779 0.15631 0.31518 0.0
H210 H 0.56644 0.15468 0.20566 0.0
H211 H 0.51422 0.11106 0.25795 0.0
H212 H 0.26823 0.18033 0.11104 0.0
H213 H 0.22714 0.15101 0.16879 0.0
H214 H 0.37486 0.26151 0.08842 0.0
H215 H 0.46296 0.2697 0.08068 0.0
C216 C 0.97117 0.16133 0.22021 0.0
C217 C 0.97889 0.1066 0.19391 0.0
C218 C 0.93533 0.14083 0.11102 0.0
C219 C 0.91587 0.18621 0.13856 0.0
N220 N 0.90327 0.22699 0.2222 0.0
N221 N 0.95828 0.03795 0.11331 0.0
C222 C 0.93105 0.19337 0.1939 0.0
C223 C 0.95894 0.09511 0.13889 0.0
N224 N 1.00413 0.18469 0.27041 0.0
N225 N 0.93282 0.14251 0.05813 0.0
H226 H 0.97297 1.00236 0.13214 0.0
H227 H 0.93661 1.02162 0.07437 0.0
H228 H 0.91744 0.17617 0.03683 0.0
H229 H 0.95325 0.11659 0.0361 0.0
H230 H 1.00728 0.22986 0.2898 0.0
H231 H 1.0361 0.16479 0.29064 0.0
H232 H 0.9045 0.22566 0.26254 0.0
H233 H 0.8718 0.24942 0.20538 0.0
C234 C 0.90265 0.57984 0.156 0.0
C235 C 0.82958 0.52124 0.16865 0.0
C236 C 0.81668 0.6154 0.21689 0.0
C237 C 0.89393 0.67221 0.20956 0.0
N238 N 1.01233 0.70727 0.17399 0.0
N239 N 0.71584 0.48232 0.21103 0.0
C240 C 0.93718 0.65396 0.17939 0.0
C241 C 0.78587 0.53904 0.19858 0.0
N242 N 0.93802 0.56479 0.12002 0.0
N243 N 0.77258 0.63464 0.24122 0.0
H244 H 0.68913 0.42768 0.1949 0.0
H245 H 0.68512 0.48846 0.23826 0.0
H246 H 0.79422 0.6887 0.25701 0.0
H247 H 0.7136 0.59866 0.24326 0.0
H248 H 0.98768 0.60571 0.10476 0.0
H249 H 0.91283 0.51188 0.10122 0.0
H250 H 0.05032 0.69599 0.15817 0.0
H251 H 1.03863 0.76246 0.18859 0.0
C252 C 0.12624 0.30195 0.83888 0.0
C253 C 0.14746 0.28893 0.79132 0.0
C254 C 0.25808 0.42204 0.80084 0.0
C255 C 0.24558 0.42753 0.85355 0.0
N256 N 0.17198 0.36407 0.92459 0.0
N257 N 0.22612 0.34527 0.72134 0.0
C258 C 0.18102 0.36476 0.87303 0.0
C259 C 0.21182 0.35158 0.77086 0.0
N260 N 0.05144 0.25947 0.84932 0.0
N261 N 0.31058 0.48518 0.77812 0.0
H262 H 0.18452 0.30342 0.69429 0.0
H263 H 0.27824 0.3818 0.70676 0.0
H264 H 0.34209 0.5382 0.79708 0.0
H265 H 0.31903 0.48711 0.73906 0.0
H266 H 1.03201 0.26997 0.88209 0.0
H267 H 1.00718 0.22268 0.82115 0.0
H268 H 0.12911 0.31689 0.94118 0.0
H269 H 0.21212 0.40731 0.95139 0.0
C270 C 0.68202 0.9324 0.87209 0.0
C271 C 0.63225 0.85263 0.86784 0.0
C272 C 0.70709 0.84973 0.79953 0.0
C273 C 0.76565 0.92682 0.8112 0.0
N274 N 0.80635 0.04282 0.85884 0.0
N275 N 0.59959 0.73463 0.82779 0.0
C276 C 0.75179 0.96886 0.84694 0.0
C277 C 0.64512 0.81126 0.83125 0.0
N278 N 0.66176 0.97365 0.89953 0.0
N279 N 0.71016 0.81355 0.75698 0.0
H280 H 0.55219 0.70491 0.84865 0.0
H281 H 0.61137 0.70041 0.80662 0.0
H282 H 0.75233 0.84117 0.7317 0.0
H283 H 0.66688 0.75922 0.74364 0.0
H284 H 0.69082 1.03209 0.9004 0.0
H285 H 0.6109 0.9489 0.91725 0.0
H286 H 0.80576 0.07346 0.8901 0.0
H287 H 0.85372 0.07336 0.83825 0.0
C288 C 0.31174 0.97454 0.81482 0.0
C289 C 0.25567 0.97972 0.83968 0.0
C290 C 0.2906 0.93282 0.91852 0.0
C291 C 0.33468 0.91339 0.891 0.0
N292 N 0.38625 0.91534 0.81009 0.0
N293 N 0.18138 0.94783 0.91267 0.0
C294 C 0.34621 0.93515 0.83852 0.0
C295 C 0.24295 0.95533 0.89106 0.0
N296 N 0.33262 1.00786 0.76878 0.0
N297 N 0.29403 0.92944 0.97139 0.0
H298 H 0.14377 0.96201 0.89376 0.0
H299 H 0.16322 0.9197 0.94666 0.0
H300 H 0.33056 0.91553 0.99284 0.0
H301 H 0.26748 0.94849 0.99392 0.0
H302 H 0.37875 1.01309 0.7512 0.0
H303 H 0.30796 0.0362 0.75049 0.0
H304 H 0.38629 0.91973 0.76998 0.0
H305 H 0.41688 0.89138 0.82562 0.0
C306 C 0.07089 0.63135 0.57635 0.0
C307 C 0.99883 0.61129 0.54815 0.0
C308 C 0.06563 0.66394 0.46978 0.0
C309 C 0.13689 0.68043 0.49746 0.0
N310 N 0.21098 0.70413 0.58068 0.0
N311 N 0.93264 0.63074 0.47339 0.0
C312 C 0.14043 0.67199 0.55204 0.0
C313 C 0.99803 0.63531 0.49659 0.0
N314 N 0.07251 0.60928 0.62605 0.0
N315 N 0.06192 0.67282 0.4175 0.0
H316 H 0.88509 0.61445 0.49353 0.0
H317 H 0.92877 0.65099 0.43706 0.0
H318 H 0.11117 0.69754 0.39797 0.0
H319 H 1.01034 0.65343 0.39347 0.0
H320 H 0.12114 0.61318 0.6466 0.0
H321 H 1.02356 0.58387 0.64594 0.0
H322 H 0.21914 0.70464 0.62108 0.0
H323 H 0.26128 0.73857 0.56373 0.0
C324 C 0.55621 0.55312 0.57698 0.0
C325 C 0.62847 0.56367 0.56705 0.0
C326 C 0.63429 0.64859 0.49754 0.0
C327 C 0.55766 0.62976 0.50323 0.0
N328 N 0.44166 0.55462 0.54515 0.0
N329 N 0.75009 0.65275 0.53574 0.0
C330 C 0.51745 0.5789 0.54173 0.0
C331 C 0.67161 0.62004 0.53204 0.0
N332 N 0.52887 0.52714 0.62355 0.0
N333 N 0.67055 0.69149 0.45758 0.0
H334 H 0.78108 0.64276 0.56578 0.0
H335 H 0.78585 0.69797 0.51437 0.0
H336 H 0.64517 0.71293 0.43165 0.0
H337 H 0.72231 0.69988 0.44711 0.0
H338 H 0.48004 0.52431 0.63508 0.0
H339 H 0.56202 0.52113 0.65429 0.0
H340 H 0.40695 0.51046 0.56773 0.0
H341 H 0.41167 0.57472 0.52289 0.0
C342 C 0.41795 1.00642 0.50792 0.0
C343 C 0.4516 0.98422 0.47168 0.0
C344 C 0.57333 0.10832 0.48782 0.0
C345 C 0.5392 0.13073 0.52354 0.0
N346 N 0.43467 0.09709 0.57455 0.0
N347 N 0.56358 1.00991 0.43146 0.0
C348 C 0.46283 0.07865 0.53522 0.0
C349 C 0.53026 0.03391 0.46329 0.0
N350 N 0.3428 0.95779 0.51673 0.0
N351 N 0.64628 0.15936 0.47604 0.0
H352 H 0.53282 0.9582 0.4105 0.0
H353 H 0.62227 0.03899 0.4272 0.0
H354 H 0.67935 0.21388 0.49276 0.0
H355 H 0.67333 0.15028 0.44755 0.0
H356 H 0.31056 0.97315 0.53618 0.0
H357 H 0.31106 0.90154 0.5033 0.0
H358 H 0.38304 0.05993 0.58937 0.0
H359 H 0.46594 0.14881 0.59554 0.0
C360 C 0.06992 1.01361 0.54763 0.0
C361 C 1.0276 0.04581 0.56221 0.0
C362 C 1.01546 0.07761 0.47104 0.0
C363 C 0.0634 0.05154 0.45726 0.0
N364 N 0.1473 1.00634 0.48489 0.0
N365 N 0.97324 0.12133 0.53973 0.0
C366 C 0.09365 1.0226 0.49631 0.0
C367 C 1.00434 0.08161 0.52429 0.0
N368 N 0.08474 0.97183 0.58211 0.0
N369 N 0.97809 0.09599 0.43266 0.0
H370 H 0.9666 0.12688 0.57859 0.0
H371 H 0.96145 0.15467 0.51523 0.0
H372 H 0.98285 0.09095 0.39334 0.0
H373 H 0.93666 0.10879 0.43927 0.0
H374 H 0.10816 0.94032 0.57234 0.0
H375 H 0.06798 0.96409 0.61951 0.0
H376 H 0.17762 0.99233 0.51273 0.0
H377 H 0.16604 1.01288 0.44813 0.0
C378 C 0.71462 0.44144 0.88457 0.0
C379 C 0.70841 0.37335 0.89999 0.0
C380 C 0.74191 0.35724 0.81367 0.0
C381 C 0.74335 0.42294 0.79714 0.0
N382 N 0.72225 0.5228 0.81437 0.0
N383 N 0.70618 0.26118 0.87747 0.0
C384 C 0.72736 0.46374 0.83214 0.0
C385 C 0.71943 0.32986 0.86394 0.0
N386 N 0.70943 0.48526 0.92075 0.0
N387 N 0.76501 0.32272 0.78195 0.0
H388 H 0.6918 0.24105 0.91423 0.0
H389 H 0.70474 0.22247 0.85163 0.0
H390 H 0.78115 0.34116 0.74518 0.0
H391 H 0.7732 0.27929 0.79322 0.0
H392 H 0.71999 0.53887 0.91434 0.0
H393 H 0.69993 0.46973 0.95898 0.0
H394 H 0.70457 0.55188 0.83573 0.0
H395 H 0.7301 0.53908 0.77615 0.0
C396 C 0.39308 0.72106 0.21203 0.0
C397 C 0.37242 0.77049 0.23175 0.0
C398 C 0.38683 0.8281 0.14686 0.0
C399 C 0.41195 0.78175 0.12816 0.0
N400 N 0.44852 0.69094 0.14412 0.0
N401 N 0.35814 0.87665 0.221 0.0
C402 C 0.41766 0.73004 0.16119 0.0
C403 C 0.37181 0.82569 0.19986 0.0
N404 N 0.38627 0.66374 0.24135 0.0
N405 N 0.37524 0.87275 0.11316 0.0
H406 H 0.34727 0.87574 0.25963 0.0
H407 H 0.36322 0.92279 0.20195 0.0
H408 H 0.38522 0.87483 0.07427 0.0
H409 H 0.35047 0.90321 0.12233 0.0
H410 H 0.39255 0.62081 0.22769 0.0
H411 H 0.36922 0.65644 0.27868 0.0
H412 H 0.46192 0.65781 0.16761 0.0
H413 H 0.46548 0.69572 0.10687 0.0
C414 C 1.03097 0.89368 0.03613 0.0
C415 C 0.10758 0.94257 0.05944 0.0
C416 C 0.13506 1.02789 0.98932 0.0
C417 C 0.05686 0.9817 0.96783 0.0
N418 N 0.93474 0.86481 0.96224 0.0
N419 N 0.23731 0.04413 0.05507 0.0
C420 C 1.00642 0.91194 0.98822 0.0
C421 C 0.16152 1.00547 0.03431 0.0
N422 N 0.98067 0.83357 0.06224 0.0
N423 N 0.18277 0.09346 0.96693 0.0
H424 H 0.25628 1.02722 0.08842 0.0
H425 H 0.28177 0.08886 0.0379 0.0
H426 H 0.16525 0.10914 0.93241 0.0
H427 H 0.23881 0.13317 0.98275 0.0
H428 H 0.92151 0.80018 0.0507 0.0
H429 H 0.9982 0.81851 0.09706 0.0
H430 H 0.897 0.81026 0.9726 0.0
H431 H 0.91478 0.87899 0.92801 0.0
C432 C 0.8166 0.34145 0.32462 0.0
C433 C 0.74619 0.27344 0.30902 0.0
C434 C 0.6886 0.28598 0.3827 0.0
C435 C 0.75718 0.35591 0.39678 0.0
N436 N 0.89151 0.44436 0.39 0.0
N437 N 0.62932 0.16729 0.33341 0.0
C438 C 0.8234 0.38144 0.37076 0.0
C439 C 0.68683 0.24089 0.34172 0.0
N440 N 0.87514 0.36822 0.29389 0.0
N441 N 0.62407 0.26519 0.40642 0.0
H442 H 0.62925 0.13282 0.30457 0.0
H443 H 0.58714 0.13883 0.35844 0.0
H444 H 0.62375 0.29836 0.4361 0.0
H445 H 0.57006 0.21776 0.39455 0.0
H446 H 0.92567 0.42096 0.29963 0.0
H447 H 0.87161 0.337 0.26139 0.0
H448 H 0.94375 0.46414 0.37485 0.0
H449 H 0.89648 0.47454 0.42362 0.0
C450 C 0.29979 0.5922 0.63811 0.0
C451 C 0.3746 0.63812 0.62296 0.0
C452 C 0.42919 0.68899 0.70968 0.0
C453 C 0.35271 0.65588 0.72372 0.0
N454 N 0.22049 0.55244 0.7096 0.0
N455 N 0.50885 0.68807 0.64687 0.0
C456 C 0.28933 0.59874 0.69064 0.0
C457 C 0.43808 0.66617 0.66122 0.0
N458 N 0.23905 0.54931 0.60144 0.0
N459 N 0.49082 0.74984 0.73722 0.0
H460 H 0.51565 0.68147 0.60824 0.0
H461 H 0.55783 0.70722 0.67369 0.0
H462 H 0.48599 0.77793 0.76814 0.0
H463 H 0.54587 0.77875 0.72502 0.0
H464 H 0.18136 0.52227 0.60846 0.0
H465 H 0.24762 0.54106 0.56367 0.0
H466 H 0.17315 0.50707 0.68805 0.0
H467 H 0.21383 0.55561 0.74879 0.0
loop_
_geom_bond_atom_site_label_1
_geom_bond_atom_site_label_2
_geom_bond_distance
_geom_bond_site_symmetry_2
_ccdc_geom_bond_type
C0 C1 1.351 . S
C0 N3 1.368 . S
C0 H5 0.931 . S
C1 C0 1.351 . S
C1 N2 1.373 . S
C1 H29 0.930 . S
N2 C1 1.373 . S
N2 C4 1.340 . S
N3 C0 1.368 . S
N3 C4 1.321 . S
N3 Co6 2.135 . S
C4 N2 1.340 . S
C4 N3 1.321 . S
C4 H28 0.930 1_455 S
H5 C0 0.931 . S
Co6 N3 2.135 . S
Co6 N9 2.121 . S
Co6 O14 2.055 . S
Co6 O17 2.039 . S
Co6 N20 2.140 1_445 S
C7 O8 1.227 . S
C7 O17 1.265 1_655 S
O8 C7 1.227 . S
N9 Co6 2.121 . S
N9 C11 1.375 1_455 S
N9 C12 1.313 . S
C10 C11 1.338 . S
C10 N13 1.377 1_655 S
C10 H30 0.930 . S
C11 N9 1.375 1_655 S
C11 C10 1.338 . S
C11 H15 0.931 . S
C12 N9 1.313 . S
C12 N13 1.344 . S
C12 H16 0.930 . S
N13 C10 1.377 1_455 S
N13 C12 1.344 . S
O14 Co6 2.055 . S
O14 C18 1.253 . S
H15 C11 0.931 . S
H16 C12 0.930 . S
O17 Co6 2.039 . S
O17 C7 1.265 1_455 S
C18 O14 1.253 . S
C18 O19 1.227 . S
O19 C18 1.227 . S
N20 Co6 2.140 1_665 S
N20 C23 1.346 . S
N20 C24 1.345 . S
C21 C22 1.387 . S
C21 C25 1.391 . S
C22 C21 1.387 . S
C22 C23 1.369 . S
C22 H31 0.929 . S
C23 N20 1.346 . S
C23 C22 1.369 . S
C23 H26 0.928 . S
C24 N20 1.345 . S
C24 C25 1.371 . S
C24 H27 0.931 1_655 S
C25 C21 1.391 . S
C25 C24 1.371 . S
C25 H32 0.930 . S
H26 C23 0.928 . S
H27 C24 0.931 1_455 S
H28 C4 0.930 1_655 S
H29 C1 0.930 . S
H30 C10 0.930 . S
H31 C22 0.929 . S
H32 C25 0.930 . S
C33 C34 1.351 . S
C33 N36 1.380 . S
C33 H38 0.931 . S
C34 C33 1.351 . S
C34 N35 1.373 1_565 S
C34 H62 0.930 . S
N35 C34 1.373 1_545 S
N35 C37 1.340 . S
N36 C33 1.380 . S
N36 C37 1.314 1_565 S
N36 Co39 2.134 1_565 S
C37 N35 1.340 . S
C37 N36 1.314 1_545 S
C37 H61 0.930 1_655 S
H38 C33 0.931 . S
Co39 N36 2.134 1_545 S
Co39 N42 2.121 1_655 S
Co39 O47 2.055 1_545 S
Co39 O50 2.039 1_655 S
Co39 N53 2.140 1_645 S
C40 O41 1.227 . S
C40 O50 1.265 . S
O41 C40 1.227 . S
N42 Co39 2.121 1_455 S
N42 C44 1.375 . S
N42 C45 1.313 1_455 S
C43 C44 1.338 . S
C43 N46 1.377 1_455 S
C43 H63 0.930 . S
C44 N42 1.375 . S
C44 C43 1.338 . S
C44 H48 0.931 . S
C45 N42 1.313 1_655 S
C45 N46 1.344 . S
C45 H49 0.930 1_545 S
N46 C43 1.377 1_655 S
N46 C45 1.344 . S
O47 Co39 2.055 1_565 S
O47 C51 1.253 . S
H48 C44 0.931 . S
H49 C45 0.930 1_565 S
O50 Co39 2.039 1_455 S
O50 C40 1.265 . S
C51 O47 1.253 . S
C51 O52 1.227 . S
O52 C51 1.227 . S
N53 Co39 2.140 1_465 S
N53 C56 1.346 . S
N53 C57 1.345 . S
C54 C55 1.387 . S
C54 C58 1.391 . S
C55 C54 1.387 . S
C55 C56 1.369 . S
C55 H64 0.929 . S
C56 N53 1.346 . S
C56 C55 1.369 . S
C56 H59 0.928 1_565 S
C57 N53 1.345 . S
C57 C58 1.371 . S
C57 H60 0.931 . S
C58 C54 1.391 . S
C58 C57 1.371 . S
C58 H65 0.930 . S
H59 C56 0.928 1_545 S
H60 C57 0.931 . S
H61 C37 0.930 1_455 S
H62 C34 0.930 . S
H63 C43 0.930 . S
H64 C55 0.929 . S
H65 C58 0.930 . S
C66 C67 1.351 . S
C66 N69 1.368 . S
C66 H71 0.931 . S
C67 C66 1.351 . S
C67 N68 1.373 . S
C67 H95 0.930 . S
N68 C67 1.373 . S
N68 C70 1.340 . S
N69 C66 1.368 . S
N69 C70 1.321 . S
N69 Co72 2.135 . S
C70 N68 1.340 . S
C70 N69 1.321 . S
C70 H94 0.930 . S
H71 C66 0.931 . S
Co72 N69 2.135 . S
Co72 N75 2.121 . S
Co72 O80 2.055 . S
Co72 O83 2.039 . S
Co72 N86 2.140 . S
C73 O74 1.227 . S
C73 O83 1.265 . S
O74 C73 1.227 . S
N75 Co72 2.121 . S
N75 C77 1.375 . S
N75 C78 1.313 . S
C76 C77 1.338 . S
C76 N79 1.377 . S
C76 H96 0.930 . S
C77 N75 1.375 . S
C77 C76 1.338 . S
C77 H81 0.931 . S
C78 N75 1.313 . S
C78 N79 1.344 . S
C78 H82 0.930 . S
N79 C76 1.377 . S
N79 C78 1.344 . S
O80 Co72 2.055 . S
O80 C84 1.253 . S
H81 C77 0.931 . S
H82 C78 0.930 . S
O83 Co72 2.039 . S
O83 C73 1.265 . S
C84 O80 1.253 . S
C84 O85 1.227 . S
O85 C84 1.227 . S
N86 Co72 2.140 . S
N86 C89 1.346 . S
N86 C90 1.345 . S
C87 C88 1.387 . S
C87 C91 1.391 . S
C88 C87 1.387 . S
C88 C89 1.369 . S
C88 H97 0.929 . S
C89 N86 1.346 . S
C89 C88 1.369 . S
C89 H92 0.928 . S
C90 N86 1.345 . S
C90 C91 1.371 . S
C90 H93 0.931 . S
C91 C87 1.391 . S
C91 C90 1.371 . S
C91 H98 0.930 . S
H92 C89 0.928 . S
H93 C90 0.931 . S
H94 C70 0.930 . S
H95 C67 0.930 . S
H96 C76 0.930 . S
H97 C88 0.929 . S
H98 C91 0.930 . S
C99 C100 1.351 1_554 S
C99 N102 1.368 . S
C99 H104 0.931 . S
C100 C99 1.351 1_556 S
C100 N101 1.373 . S
C100 H128 0.930 . S
N101 C100 1.373 . S
N101 C103 1.340 1_556 S
N102 C99 1.368 . S
N102 C103 1.321 . S
N102 Co105 2.135 . S
C103 N101 1.340 1_554 S
C103 N102 1.321 . S
C103 H127 0.930 . S
H104 C99 0.931 . S
Co105 N102 2.135 . S
Co105 N108 2.121 . S
Co105 O113 2.055 . S
Co105 O116 2.039 . S
Co105 N119 2.140 . S
C106 O107 1.227 . S
C106 O116 1.265 . S
O107 C106 1.227 . S
N108 Co105 2.121 . S
N108 C110 1.375 . S
N108 C111 1.313 . S
C109 C110 1.338 . S
C109 N112 1.377 . S
C109 H129 0.930 . S
C110 N108 1.375 . S
C110 C109 1.338 . S
C110 H114 0.931 . S
C111 N108 1.313 . S
C111 N112 1.344 . S
C111 H115 0.930 . S
N112 C109 1.377 . S
N112 C111 1.344 . S
O113 Co105 2.055 . S
O113 C117 1.253 . S
H114 C110 0.931 . S
H115 C111 0.930 . S
O116 Co105 2.039 . S
O116 C106 1.265 . S
C117 O113 1.253 . S
C117 O118 1.227 . S
O118 C117 1.227 . S
N119 Co105 2.140 . S
N119 C122 1.346 . S
N119 C123 1.345 . S
C120 C121 1.387 . S
C120 C124 1.391 . S
C121 C120 1.387 . S
C121 C122 1.369 . S
C121 H130 0.929 . S
C122 N119 1.346 . S
C122 C121 1.369 . S
C122 H125 0.928 . S
C123 N119 1.345 . S
C123 C124 1.371 . S
C123 H126 0.931 . S
C124 C120 1.391 . S
C124 C123 1.371 . S
C124 H131 0.930 . S
H125 C122 0.928 . S
H126 C123 0.931 . S
H127 C103 0.930 . S
H128 C100 0.930 . S
H129 C109 0.930 . S
H130 C121 0.929 . S
H131 C124 0.930 . S
C132 C133 1.351 1_556 S
C132 N135 1.368 . S
C132 H137 0.931 . S
C133 C132 1.351 1_554 S
C133 N134 1.373 . S
C133 H161 0.930 . S
N134 C133 1.373 . S
N134 C136 1.340 1_554 S
N135 C132 1.368 . S
N135 C136 1.321 . S
N135 Co138 2.135 . S
C136 N134 1.340 1_556 S
C136 N135 1.321 . S
C136 H160 0.930 . S
H137 C132 0.931 . S
Co138 N135 2.135 . S
Co138 N141 2.121 . S
Co138 O146 2.055 . S
Co138 O149 2.039 . S
Co138 N152 2.140 . S
C139 O140 1.227 . S
C139 O149 1.265 . S
O140 C139 1.227 . S
N141 Co138 2.121 . S
N141 C143 1.375 . S
N141 C144 1.313 . S
C142 C143 1.338 . S
C142 N145 1.377 . S
C142 H162 0.930 . S
C143 N141 1.375 . S
C143 C142 1.338 . S
C143 H147 0.931 . S
C144 N141 1.313 . S
C144 N145 1.344 . S
C144 H148 0.930 . S
N145 C142 1.377 . S
N145 C144 1.344 . S
O146 Co138 2.055 . S
O146 C150 1.253 . S
H147 C143 0.931 . S
H148 C144 0.930 . S
O149 Co138 2.039 . S
O149 C139 1.265 . S
C150 O146 1.253 . S
C150 O151 1.227 . S
O151 C150 1.227 . S
N152 Co138 2.140 . S
N152 C155 1.346 . S
N152 C156 1.345 . S
C153 C154 1.387 . S
C153 C157 1.391 . S
C154 C153 1.387 . S
C154 C155 1.369 . S
C154 H163 0.929 . S
C155 N152 1.346 . S
C155 C154 1.369 . S
C155 H158 0.928 . S
C156 N152 1.345 . S
C156 C157 1.371 . S
C156 H159 0.931 . S
C157 C153 1.391 . S
C157 C156 1.371 . S
C157 H164 0.930 . S
H158 C155 0.928 . S
H159 C156 0.931 . S
H160 C136 0.930 . S
H161 C133 0.930 . S
H162 C142 0.930 . S
H163 C154 0.929 . S
H164 C157 0.930 . S
C165 C166 1.351 . S
C165 N168 1.368 . S
C165 H170 0.931 . S
C166 C165 1.351 . S
C166 N167 1.373 . S
C166 H194 0.930 . S
N167 C166 1.373 . S
N167 C169 1.340 . S
N168 C165 1.368 . S
N168 C169 1.321 . S
N168 Co171 2.135 . S
C169 N167 1.340 . S
C169 N168 1.321 . S
C169 H193 0.930 . S
H170 C165 0.931 . S
Co171 N168 2.135 . S
Co171 N174 2.121 . S
Co171 O179 2.055 . S
Co171 O182 2.039 . S
Co171 N185 2.140 . S
C172 O173 1.227 . S
C172 O182 1.265 . S
O173 C172 1.227 . S
N174 Co171 2.121 . S
N174 C176 1.375 . S
N174 C177 1.313 . S
C175 C176 1.338 . S
C175 N178 1.377 . S
C175 H195 0.930 . S
C176 N174 1.375 . S
C176 C175 1.338 . S
C176 H180 0.931 . S
C177 N174 1.313 . S
C177 N178 1.344 . S
C177 H181 0.930 . S
N178 C175 1.377 . S
N178 C177 1.344 . S
O179 Co171 2.055 . S
O179 C183 1.253 . S
H180 C176 0.931 . S
H181 C177 0.930 . S
O182 Co171 2.039 . S
O182 C172 1.265 . S
C183 O179 1.253 . S
C183 O184 1.227 . S
O184 C183 1.227 . S
N185 Co171 2.140 . S
N185 C188 1.346 . S
N185 C189 1.345 . S
C186 C187 1.387 . S
C186 C190 1.391 . S
C187 C186 1.387 . S
C187 C188 1.369 . S
C187 H196 0.929 . S
C188 N185 1.346 . S
C188 C187 1.369 . S
C188 H191 0.928 . S
C189 N185 1.345 . S
C189 C190 1.371 . S
C189 H192 0.931 . S
C190 C186 1.391 . S
C190 C189 1.371 . S
C190 H197 0.930 . S
H191 C188 0.928 . S
H192 C189 0.931 . S
H193 C169 0.930 . S
H194 C166 0.930 . S
H195 C175 0.930 . S
H196 C187 0.929 . S
H197 C190 0.930 . S
C198 C199 1.363 . S
C198 C204 1.379 . S
C198 N206 1.356 . S
C199 C198 1.363 . S
C199 C205 1.363 . S
C200 C201 1.363 . S
C200 C205 1.379 . S
C200 N207 1.356 . S
C201 C200 1.363 . S
C201 C204 1.363 . S
N202 C204 1.356 . S
N202 H214 0.984 . S
N202 H215 0.985 . S
N203 C205 1.356 . S
N203 H208 0.984 . S
N203 H209 0.985 . S
C204 C198 1.379 . S
C204 C201 1.363 . S
C204 N202 1.356 . S
C205 C199 1.363 . S
C205 C200 1.379 . S
C205 N203 1.356 . S
N206 C198 1.356 . S
N206 H212 0.984 . S
N206 H213 0.984 . S
N207 C200 1.356 . S
N207 H210 0.984 . S
N207 H211 0.985 . S
H208 N203 0.984 . S
H209 N203 0.985 . S
H210 N207 0.984 . S
H211 N207 0.985 . S
H212 N206 0.984 . S
H213 N206 0.984 . S
H214 N202 0.984 . S
H215 N202 0.985 . S
C216 C217 1.363 . S
C216 C222 1.379 . S
C216 N224 1.356 . S
C217 C216 1.363 . S
C217 C223 1.363 . S
C218 C219 1.363 . S
C218 C223 1.379 . S
C218 N225 1.356 . S
C219 C218 1.363 . S
C219 C222 1.363 . S
N220 C222 1.356 . S
N220 H232 0.984 . S
N220 H233 0.985 . S
N221 C223 1.356 . S
N221 H226 0.984 . S
N221 H227 0.985 1_545 S
C222 C216 1.379 . S
C222 C219 1.363 . S
C222 N220 1.356 . S
C223 C217 1.363 . S
C223 C218 1.379 . S
C223 N221 1.356 . S
N224 C216 1.356 . S
N224 H230 0.984 1_655 S
N224 H231 0.984 . S
N225 C218 1.356 . S
N225 H228 0.984 . S
N225 H229 0.985 . S
H226 N221 0.984 . S
H227 N221 0.985 1_565 S
H228 N225 0.984 . S
H229 N225 0.985 . S
H230 N224 0.984 1_455 S
H231 N224 0.984 . S
H232 N220 0.984 . S
H233 N220 0.985 . S
C234 C235 1.363 . S
C234 C240 1.379 . S
C234 N242 1.356 . S
C235 C234 1.363 . S
C235 C241 1.363 . S
C236 C237 1.363 . S
C236 C241 1.379 . S
C236 N243 1.356 . S
C237 C236 1.363 . S
C237 C240 1.363 . S
N238 C240 1.356 . S
N238 H250 0.984 . S
N238 H251 0.985 . S
N239 C241 1.356 . S
N239 H244 0.984 . S
N239 H245 0.985 . S
C240 C234 1.379 . S
C240 C237 1.363 . S
C240 N238 1.356 . S
C241 C235 1.363 . S
C241 C236 1.379 . S
C241 N239 1.356 . S
N242 C234 1.356 . S
N242 H248 0.984 . S
N242 H249 0.984 . S
N243 C236 1.356 . S
N243 H246 0.984 . S
N243 H247 0.985 . S
H244 N239 0.984 . S
H245 N239 0.985 . S
H246 N243 0.984 . S
H247 N243 0.985 . S
H248 N242 0.984 . S
H249 N242 0.984 . S
H250 N238 0.984 . S
H251 N238 0.985 . S
C252 C253 1.363 . S
C252 C258 1.379 . S
C252 N260 1.356 . S
C253 C252 1.363 . S
C253 C259 1.363 . S
C254 C255 1.363 . S
C254 C259 1.379 . S
C254 N261 1.356 . S
C255 C254 1.363 . S
C255 C258 1.363 . S
N256 C258 1.356 . S
N256 H268 0.984 . S
N256 H269 0.985 . S
N257 C259 1.356 . S
N257 H262 0.984 . S
N257 H263 0.985 . S
C258 C252 1.379 . S
C258 C255 1.363 . S
C258 N256 1.356 . S
C259 C253 1.363 . S
C259 C254 1.379 . S
C259 N257 1.356 . S
N260 C252 1.356 . S
N260 H266 0.984 . S
N260 H267 0.984 . S
N261 C254 1.356 . S
N261 H264 0.984 . S
N261 H265 0.985 . S
H262 N257 0.984 . S
H263 N257 0.985 . S
H264 N261 0.984 . S
H265 N261 0.985 . S
H266 N260 0.984 . S
H267 N260 0.984 . S
H268 N256 0.984 . S
H269 N256 0.985 . S
C270 C271 1.363 . S
C270 C276 1.379 . S
C270 N278 1.356 . S
C271 C270 1.363 . S
C271 C277 1.363 . S
C272 C273 1.363 . S
C272 C277 1.379 . S
C272 N279 1.356 . S
C273 C272 1.363 . S
C273 C276 1.363 . S
N274 C276 1.356 . S
N274 H286 0.984 1_565 S
N274 H287 0.985 . S
N275 C277 1.356 . S
N275 H280 0.984 . S
N275 H281 0.985 . S
C276 C270 1.379 . S
C276 C273 1.363 . S
C276 N274 1.356 . S
C277 C271 1.363 . S
C277 C272 1.379 . S
C277 N275 1.356 . S
N278 C270 1.356 . S
N278 H284 0.984 . S
N278 H285 0.984 . S
N279 C272 1.356 . S
N279 H282 0.984 . S
N279 H283 0.985 . S
H280 N275 0.984 . S
H281 N275 0.985 . S
H282 N279 0.984 . S
H283 N279 0.985 . S
H284 N278 0.984 . S
H285 N278 0.984 . S
H286 N274 0.984 1_545 S
H287 N274 0.985 . S
C288 C289 1.363 . S
C288 C294 1.379 . S
C288 N296 1.356 . S
C289 C288 1.363 . S
C289 C295 1.363 . S
C290 C291 1.363 . S
C290 C295 1.379 . S
C290 N297 1.356 . S
C291 C290 1.363 . S
C291 C294 1.363 . S
N292 C294 1.356 . S
N292 H304 0.984 . S
N292 H305 0.985 . S
N293 C295 1.356 . S
N293 H298 0.984 . S
N293 H299 0.985 . S
C294 C288 1.379 . S
C294 C291 1.363 . S
C294 N292 1.356 . S
C295 C289 1.363 . S
C295 C290 1.379 . S
C295 N293 1.356 . S
N296 C288 1.356 . S
N296 H302 0.984 . S
N296 H303 0.984 . S
N297 C290 1.356 . S
N297 H300 0.984 . S
N297 H301 0.985 . S
H298 N293 0.984 . S
H299 N293 0.985 . S
H300 N297 0.984 . S
H301 N297 0.985 . S
H302 N296 0.984 . S
H303 N296 0.984 . S
H304 N292 0.984 . S
H305 N292 0.985 . S
C306 C307 1.363 1_455 S
C306 C312 1.379 . S
C306 N314 1.356 1_455 S
C307 C306 1.363 1_655 S
C307 C313 1.363 . S
C308 C309 1.363 . S
C308 C313 1.379 1_455 S
C308 N315 1.356 . S
C309 C308 1.363 . S
C309 C312 1.363 . S
N310 C312 1.356 . S
N310 H322 0.984 . S
N310 H323 0.985 . S
N311 C313 1.356 . S
N311 H316 0.984 . S
N311 H317 0.985 . S
C312 C306 1.379 . S
C312 C309 1.363 . S
C312 N310 1.356 . S
C313 C307 1.363 . S
C313 C308 1.379 1_655 S
C313 N311 1.356 . S
N314 C306 1.356 1_655 S
N314 H320 0.983 1_655 S
N314 H321 0.984 . S
N315 C308 1.356 . S
N315 H318 0.984 . S
N315 H319 0.985 . S
H316 N311 0.984 . S
H317 N311 0.985 . S
H318 N315 0.984 . S
H319 N315 0.985 . S
H320 N314 0.983 1_455 S
H321 N314 0.984 . S
H322 N310 0.984 . S
H323 N310 0.985 . S
C324 C325 1.363 . S
C324 C330 1.379 . S
C324 N332 1.356 . S
C325 C324 1.363 . S
C325 C331 1.363 . S
C326 C327 1.363 . S
C326 C331 1.379 . S
C326 N333 1.356 . S
C327 C326 1.363 . S
C327 C330 1.363 . S
N328 C330 1.356 . S
N328 H340 0.984 . S
N328 H341 0.985 . S
N329 C331 1.356 . S
N329 H334 0.984 . S
N329 H335 0.985 . S
C330 C324 1.379 . S
C330 C327 1.363 . S
C330 N328 1.356 . S
C331 C325 1.363 . S
C331 C326 1.379 . S
C331 N329 1.356 . S
N332 C324 1.356 . S
N332 H338 0.984 . S
N332 H339 0.984 . S
N333 C326 1.356 . S
N333 H336 0.984 . S
N333 H337 0.985 . S
H334 N329 0.984 . S
H335 N329 0.985 . S
H336 N333 0.984 . S
H337 N333 0.985 . S
H338 N332 0.984 . S
H339 N332 0.984 . S
H340 N328 0.984 . S
H341 N328 0.985 . S
C342 C343 1.363 . S
C342 C348 1.379 . S
C342 N350 1.356 . S
C343 C342 1.363 . S
C343 C349 1.363 . S
C344 C345 1.363 . S
C344 C349 1.379 1_545 S
C344 N351 1.356 . S
C345 C344 1.363 . S
C345 C348 1.363 1_545 S
N346 C348 1.351 1_545 S
N346 H358 0.982 1_545 S
N346 H359 0.992 . S
N347 C349 1.356 . S
N347 H352 0.984 . S
N347 H353 0.985 . S
C348 C342 1.379 . S
C348 C345 1.363 1_565 S
C348 N346 1.351 1_565 S
C349 C343 1.363 . S
C349 C344 1.379 1_565 S
C349 N347 1.356 . S
N350 C342 1.356 . S
N350 H356 0.984 . S
N350 H357 0.984 . S
N351 C344 1.356 . S
N351 H354 0.984 . S
N351 H355 0.985 . S
H352 N347 0.984 . S
H353 N347 0.985 . S
H354 N351 0.984 . S
H355 N351 0.985 . S
H356 N350 0.984 . S
H357 N350 0.984 . S
H358 N346 0.982 1_565 S
H359 N346 0.992 . S
C360 C361 1.363 1_565 S
C360 C366 1.379 . S
C360 N368 1.356 . S
C361 C360 1.363 1_545 S
C361 C367 1.363 . S
C362 C363 1.363 . S
C362 C367 1.379 . S
C362 N369 1.356 . S
C363 C362 1.363 . S
C363 C366 1.363 1_545 S
N364 C366 1.356 . S
N364 H376 0.984 . S
N364 H377 0.985 . S
N365 C367 1.356 1_655 S
N365 H370 0.984 . S
N365 H371 0.985 . S
C366 C360 1.379 . S
C366 C363 1.363 1_565 S
C366 N364 1.356 . S
C367 C361 1.363 . S
C367 C362 1.379 . S
C367 N365 1.356 1_455 S
N368 C360 1.356 . S
N368 H374 0.984 . S
N368 H375 0.984 1_455 S
N369 C362 1.356 . S
N369 H372 0.984 . S
N369 H373 0.985 . S
H370 N365 0.984 . S
H371 N365 0.985 . S
H372 N369 0.984 . S
H373 N369 0.985 . S
H374 N368 0.984 . S
H375 N368 0.984 1_655 S
H376 N364 0.984 . S
H377 N364 0.985 . S
C378 C379 1.363 . S
C378 C384 1.379 . S
C378 N386 1.356 . S
C379 C378 1.363 . S
C379 C385 1.363 . S
C380 C381 1.363 . S
C380 C385 1.379 . S
C380 N387 1.356 . S
C381 C380 1.363 . S
C381 C384 1.363 . S
N382 C384 1.356 . S
N382 H394 0.984 . S
N382 H395 0.985 . S
N383 C385 1.356 . S
N383 H388 0.984 . S
N383 H389 0.985 . S
C384 C378 1.379 . S
C384 C381 1.363 . S
C384 N382 1.356 . S
C385 C379 1.363 . S
C385 C380 1.379 . S
C385 N383 1.356 . S
N386 C378 1.356 . S
N386 H392 0.984 . S
N386 H393 0.984 . S
N387 C380 1.356 . S
N387 H390 0.984 . S
N387 H391 0.985 . S
H388 N383 0.984 . S
H389 N383 0.985 . S
H390 N387 0.984 . S
H391 N387 0.985 . S
H392 N386 0.984 . S
H393 N386 0.984 . S
H394 N382 0.984 . S
H395 N382 0.985 . S
C396 C397 1.363 . S
C396 C402 1.379 . S
C396 N404 1.356 . S
C397 C396 1.363 . S
C397 C403 1.363 . S
C398 C399 1.363 . S
C398 C403 1.379 . S
C398 N405 1.356 . S
C399 C398 1.363 . S
C399 C402 1.363 . S
N400 C402 1.356 . S
N400 H412 0.984 . S
N400 H413 0.985 . S
N401 C403 1.356 . S
N401 H406 0.984 . S
N401 H407 0.985 . S
C402 C396 1.379 . S
C402 C399 1.363 . S
C402 N400 1.356 . S
C403 C397 1.363 . S
C403 C398 1.379 . S
C403 N401 1.356 . S
N404 C396 1.356 . S
N404 H410 0.984 . S
N404 H411 0.984 . S
N405 C398 1.356 . S
N405 H408 0.984 . S
N405 H409 0.985 . S
H406 N401 0.984 . S
H407 N401 0.985 . S
H408 N405 0.984 . S
H409 N405 0.985 . S
H410 N404 0.984 . S
H411 N404 0.984 . S
H412 N400 0.984 . S
H413 N400 0.985 . S
C414 C415 1.363 . S
C414 C420 1.379 1_454 S
C414 N422 1.356 . S
C415 C414 1.363 . S
C415 C421 1.363 . S
C416 C417 1.363 1_455 S
C416 C421 1.379 1_566 S
C416 N423 1.356 . S
C417 C416 1.363 1_655 S
C417 C420 1.363 1_565 S
N418 C420 1.356 . S
N418 H430 0.999 . S
N418 H431 0.985 . S
N419 C421 1.356 . S
N419 H424 0.984 . S
N419 H425 0.999 . S
C420 C414 1.379 1_656 S
C420 C417 1.363 1_545 S
C420 N418 1.356 . S
C421 C415 1.363 . S
C421 C416 1.379 1_544 S
C421 N419 1.356 . S
N422 C414 1.356 . S
N422 H428 0.984 1_455 S
N422 H429 0.984 . S
N423 C416 1.356 . S
N423 H426 0.984 1_455 S
N423 H427 0.985 . S
H424 N419 0.984 . S
H425 N419 0.999 . S
H426 N423 0.984 1_655 S
H427 N423 0.985 . S
H428 N422 0.984 1_655 S
H429 N422 0.984 . S
H430 N418 0.999 . S
H431 N418 0.985 . S
C432 C433 1.363 . S
C432 C438 1.379 . S
C432 N440 1.356 . S
C433 C432 1.363 . S
C433 C439 1.363 . S
C434 C435 1.363 . S
C434 C439 1.379 . S
C434 N441 1.356 . S
C435 C434 1.363 . S
C435 C438 1.363 . S
N436 C438 1.356 . S
N436 H448 0.984 . S
N436 H449 0.985 . S
N437 C439 1.356 . S
N437 H442 0.984 . S
N437 H443 0.985 . S
C438 C432 1.379 . S
C438 C435 1.363 . S
C438 N436 1.356 . S
C439 C433 1.363 . S
C439 C434 1.379 . S
C439 N437 1.356 . S
N440 C432 1.356 . S
N440 H446 0.984 . S
N440 H447 0.984 . S
N441 C434 1.356 . S
N441 H444 0.984 . S
N441 H445 0.985 . S
H442 N437 0.984 . S
H443 N437 0.985 . S
H444 N441 0.984 . S
H445 N441 0.985 . S
H446 N440 0.984 . S
H447 N440 0.984 . S
H448 N436 0.984 . S
H449 N436 0.985 . S
C450 C451 1.363 . S
C450 C456 1.379 . S
C450 N458 1.356 . S
C451 C450 1.363 . S
C451 C457 1.363 . S
C452 C453 1.363 . S
C452 C457 1.379 . S
C452 N459 1.356 . S
C453 C452 1.363 . S
C453 C456 1.363 . S
N454 C456 1.356 . S
N454 H466 0.984 . S
N454 H467 0.985 . S
N455 C457 1.356 . S
N455 H460 0.984 . S
N455 H461 0.985 . S
C456 C450 1.379 . S
C456 C453 1.363 . S
C456 N454 1.356 . S
C457 C451 1.363 . S
C457 C452 1.379 . S
C457 N455 1.356 . S
N458 C450 1.356 . S
N458 H464 0.984 . S
N458 H465 0.984 . S
N459 C452 1.356 . S
N459 H462 0.984 . S
N459 H463 0.985 . S
H460 N455 0.984 . S
H461 N455 0.985 . S
H462 N459 0.984 . S
H463 N459 0.985 . S
H464 N458 0.984 . S
H465 N458 0.984 . S
H466 N454 0.984 . S
H467 N454 0.985 . S
C199 C18 1.940 . S
C201 C117 1.940 . S
C217 C7 1.645 . S
C219 C120 1.623 . S
C235 C106 1.645 . S
C237 C21 1.623 . S
C253 C40 1.645 . S
C255 C153 1.623 . S
C271 C150 1.940 . S
C273 C51 1.940 . S
C289 C54 1.623 . S
C291 C139 1.645 . S
C307 C84 1.940 . S
C309 C183 1.940 . S
C325 C73 1.645 . S
C327 C186 1.623 . S
C343 C172 1.645 . S
C345 C87 1.623 . S
C361 N35 2.090 1_455 S
C363 N2 2.090 . S
C379 N101 2.090 . S
C381 N68 2.090 . S
C397 N167 2.090 . S
C399 N134 2.090 . S
C415 N13 0.700 . S
C417 N46 0.700 1_565 S
C433 N112 0.700 . S
C435 N79 0.700 . S
C451 N178 0.700 . S
C453 N145 0.700 . S
