# Generated by pormake.
# Topology wlj, (5)-cn, num edge types: 1
# Building blocks:
#     Node 0, Type 0, BuildingBlock: BEQFEK_clean_sbu_0, # of connection points: 5
#     Node 1, Type 0, BuildingBlock: BEQFEK_clean_sbu_0, # of connection points: 5
#     Node 2, Type 0, BuildingBlock: BEQFEK_clean_sbu_0, # of connection points: 5
#     Node 3, Type 0, BuildingBlock: BEQFEK_clean_sbu_0, # of connection points: 5
#     Node 4, Type 0, BuildingBlock: BEQFEK_clean_sbu_0, # of connection points: 5
#     Node 5, Type 0, BuildingBlock: BEQFEK_clean_sbu_0, # of connection points: 5
#     Edge 6, Type (0, 0), BuildingBlock: FUNLAD_clean_linker_0, # of connection points: 2
#     Edge 7, Type (0, 0), BuildingBlock: FUNLAD_clean_linker_0, # of connection points: 2
#     Edge 8, Type (0, 0), BuildingBlock: FUNLAD_clean_linker_0, # of connection points: 2
#     Edge 9, Type (0, 0), BuildingBlock: FUNLAD_clean_linker_0, # of connection points: 2
#     Edge 10, Type (0, 0), BuildingBlock: FUNLAD_clean_linker_0, # of connection points: 2
#     Edge 11, Type (0, 0), BuildingBlock: FUNLAD_clean_linker_0, # of connection points: 2
#     Edge 12, Type (0, 0), BuildingBlock: FUNLAD_clean_linker_0, # of connection points: 2
#     Edge 13, Type (0, 0), BuildingBlock: FUNLAD_clean_linker_0, # of connection points: 2
#     Edge 14, Type (0, 0), BuildingBlock: FUNLAD_clean_linker_0, # of connection points: 2
#     Edge 15, Type (0, 0), BuildingBlock: FUNLAD_clean_linker_0, # of connection points: 2
#     Edge 16, Type (0, 0), BuildingBlock: FUNLAD_clean_linker_0, # of connection points: 2
#     Edge 17, Type (0, 0), BuildingBlock: FUNLAD_clean_linker_0, # of connection points: 2
#     Edge 18, Type (0, 0), BuildingBlock: FUNLAD_clean_linker_0, # of connection points: 2
#     Edge 19, Type (0, 0), BuildingBlock: FUNLAD_clean_linker_0, # of connection points: 2
#     Edge 20, Type (0, 0), BuildingBlock: FUNLAD_clean_linker_0, # of connection points: 2
# Relax obj value: 0.041
# Max RMSD: 0.094
# Mean RMSD: 0.094
data_MOF--net-wlj--node1-BEQFEK_clean_sbu_0--edge1-FUNLAD_clean_linker_0
_symmetry_space_group_name_H-M    P1
_symmetry_Int_Tables_number       1
_symmetry_cell_setting            triclinic
loop_
_symmetry_equiv_pos_as_xyz
'x, y, z'
_cell_length_a     27.29951
_cell_length_b     27.296225
_cell_length_c     78.413298
_cell_angle_alpha  89.780024
_cell_angle_beta   90.20599
_cell_angle_gamma 119.91781
loop_
_atom_site_label
_atom_site_type_symbol
_atom_site_fract_x
_atom_site_fract_y
_atom_site_fract_z
_atom_type_partial_charge
Co0 Co 0.48064 0.33682 0.22153 0.0
Co1 Co 0.5324 0.2829 0.24607 0.0
C2 C 0.45074 0.21519 0.21832 0.0
O3 O 0.44583 0.25729 0.21357 0.0
O4 O 0.48234 0.21895 0.23087 0.0
C5 C 0.39759 0.35386 0.20277 0.0
O6 O 0.36366 0.2991 0.20437 0.0
C7 C 0.54028 0.21068 0.27305 0.0
C8 C 0.62791 0.266 0.28196 0.0
C9 C 0.5798 0.21443 0.28504 0.0
N10 N 0.56411 0.25813 0.26354 0.0
N11 N 0.61667 0.29058 0.26881 0.0
C12 C 0.47953 0.16581 0.27157 0.0
H13 H 0.45501 0.18256 0.26489 0.0
H14 H 0.4612 0.14979 0.28438 0.0
H15 H 0.4765 0.13009 0.26403 0.0
C16 C 0.45216 0.36813 0.25468 0.0
N17 N 0.4725 0.34073 0.24542 0.0
N18 N 0.49407 0.31829 0.25577 0.0
C19 C 0.48826 0.33094 0.27199 0.0
C20 C 0.46155 0.36292 0.27184 0.0
C21 C 0.42978 0.40344 0.24705 0.0
H22 H 0.46051 0.4332 0.23762 0.0
H23 H 0.38979 0.37554 0.24019 0.0
H24 H 0.4219 0.42786 0.25685 0.0
O25 O 0.56173 0.37753 0.21534 0.0
O26 O 0.59762 0.33896 0.23262 0.0
H27 H 0.55547 0.33289 0.28663 0.0
H28 H 0.49747 0.32657 0.29938 0.0
C29 C 0.5089 0.31369 0.28732 0.0
H30 H 0.48984 0.26716 0.28743 0.0
H31 H 0.64444 0.33031 0.26372 0.0
O32 O 0.44694 0.3765 0.20917 0.0
C33 C 0.60362 0.37378 0.22087 0.0
Co34 Co 0.67612 0.13919 0.89045 0.0
Co35 Co 0.7254 0.25109 0.9115 0.0
C36 C 0.79643 0.2285 0.8867 0.0
O37 O 0.75552 0.17976 0.88308 0.0
O38 O 0.79053 0.2604 0.89734 0.0
C39 C 0.64335 0.05742 0.86441 0.0
O40 O 0.671 0.10294 0.85494 0.0
C41 C 0.8 0.33011 0.93737 0.0
C42 C 0.76026 0.38187 0.9426 0.0
C43 C 0.80531 0.37463 0.94729 0.0
N44 N 0.75428 0.31228 0.92732 0.0
N45 N 0.73086 0.34357 0.93042 0.0
C46 C 0.83466 0.30161 0.93821 0.0
H47 H 0.8099 0.25759 0.93342 0.0
H48 H 0.84891 0.30144 0.95147 0.0
H49 H 0.87242 0.32486 0.92997 0.0
C50 C 0.64249 0.08889 0.92466 0.0
N51 N 0.67041 0.13411 0.91442 0.0
N52 N 0.68894 0.18057 0.92344 0.0
C53 C 0.67207 0.1662 0.93977 0.0
C54 C 0.64189 0.10747 0.94108 0.0
C55 C 0.61614 0.02905 0.91861 0.0
H56 H 0.64572 0.02459 0.90996 0.0
H57 H 0.60555 0.99907 0.92941 0.0
H58 H 0.57712 0.01821 0.91132 0.0
O59 O 0.6355 0.17723 0.88145 0.0
O60 O 0.66952 0.2565 0.89645 0.0
H61 H 0.66955 0.23988 0.94778 0.0
H62 H 0.64968 0.18673 0.96416 0.0
C63 C 0.67851 0.20768 0.95326 0.0
H64 H 0.72273 0.22951 0.95798 0.0
H65 H 0.69437 0.33826 0.9244 0.0
O66 O 0.64001 0.06289 0.88037 0.0
C67 C 0.6366 0.22332 0.88497 0.0
Co68 Co 0.85501 0.51524 0.55567 0.0
Co69 Co 0.74267 0.46605 0.57681 0.0
C70 C 0.77118 0.55402 0.54965 0.0
O71 O 0.81757 0.55559 0.54643 0.0
O72 O 0.73829 0.52196 0.56131 0.0
C73 C 0.96156 0.60325 0.54383 0.0
O74 O 0.94333 0.63581 0.55011 0.0
C75 C 0.66317 0.46629 0.60227 0.0
C76 C 0.61438 0.37578 0.60917 0.0
C77 C 0.62104 0.42819 0.61312 0.0
N78 N 0.68141 0.43774 0.5927 0.0
N79 N 0.65152 0.38359 0.59675 0.0
C80 C 0.685 0.52851 0.6007 0.0
H81 H 0.69898 0.54301 0.58749 0.0
H82 H 0.72199 0.55177 0.60923 0.0
H83 H 0.65199 0.53892 0.60434 0.0
C84 C 0.90386 0.53162 0.59038 0.0
N85 N 0.8599 0.51799 0.5798 0.0
N86 N 0.81299 0.49686 0.58877 0.0
C87 C 0.82574 0.49603 0.60539 0.0
C88 C 0.88372 0.51824 0.60695 0.0
C89 C 0.96274 0.55049 0.58447 0.0
H90 H 0.96148 0.52412 0.57357 0.0
H91 H 0.98254 0.59498 0.58006 0.0
H92 H 0.98911 0.54758 0.59478 0.0
O93 O 0.81221 0.43594 0.54801 0.0
O94 O 0.7323 0.40099 0.56275 0.0
H95 H 0.75175 0.4275 0.61659 0.0
H96 H 0.80275 0.4748 0.63201 0.0
C97 C 0.78303 0.47222 0.61942 0.0
H98 H 0.76046 0.49633 0.6202 0.0
H99 H 0.65741 0.35207 0.59131 0.0
O100 O 0.93079 0.54993 0.54515 0.0
C101 C 0.76347 0.39513 0.55182 0.0
Co102 Co 0.33668 0.47908 0.78848 0.0
Co103 Co 0.28023 0.52912 0.76427 0.0
C104 C 0.21465 0.44798 0.79229 0.0
O105 O 0.25737 0.4438 0.79681 0.0
O106 O 0.21726 0.47903 0.77972 0.0
C107 C 0.35544 0.39627 0.80669 0.0
O108 O 0.30097 0.36145 0.80481 0.0
C109 C 0.207 0.5371 0.73758 0.0
C110 C 0.26289 0.62434 0.72843 0.0
C111 C 0.21096 0.57652 0.72551 0.0
N112 N 0.25474 0.56069 0.74695 0.0
N113 N 0.28749 0.61304 0.74155 0.0
C114 C 0.16165 0.47658 0.73923 0.0
H115 H 0.1779 0.45195 0.74611 0.0
H116 H 0.14567 0.45784 0.72647 0.0
H117 H 0.12601 0.47426 0.74664 0.0
C118 C 0.36762 0.45145 0.7551 0.0
N119 N 0.33974 0.47081 0.76455 0.0
N120 N 0.31558 0.49102 0.75436 0.0
C121 C 0.32713 0.48483 0.73807 0.0
C122 C 0.36067 0.45979 0.73797 0.0
C123 C 0.40503 0.43119 0.76249 0.0
H124 H 0.43352 0.46185 0.77215 0.0
H125 H 0.3785 0.39015 0.76902 0.0
H126 H 0.43092 0.4259 0.75259 0.0
O127 O 0.37704 0.56017 0.79455 0.0
O128 O 0.33661 0.59477 0.77753 0.0
H129 H 0.3262 0.5497 0.72291 0.0
H130 H 0.31717 0.48957 0.71072 0.0
C131 C 0.30684 0.50304 0.72286 0.0
H132 H 0.26041 0.48403 0.72357 0.0
H133 H 0.32749 0.64058 0.7465 0.0
O134 O 0.37732 0.44605 0.80065 0.0
C135 C 0.3723 0.60155 0.78908 0.0
Co136 Co 0.51617 0.85449 0.45396 0.0
Co137 Co 0.46589 0.74229 0.43283 0.0
C138 C 0.55348 0.76862 0.45959 0.0
O139 O 0.55448 0.81463 0.46303 0.0
O140 O 0.52207 0.73626 0.44773 0.0
C141 C 0.60536 0.95745 0.46769 0.0
O142 O 0.63659 0.93512 0.46354 0.0
C143 C 0.46124 0.6598 0.40785 0.0
C144 C 0.3715 0.6175 0.40003 0.0
C145 C 0.42226 0.61934 0.39677 0.0
N146 N 0.43464 0.68099 0.41705 0.0
N147 N 0.38086 0.65492 0.4125 0.0
C148 C 0.52371 0.6826 0.40852 0.0
H149 H 0.5454 0.72552 0.41421 0.0
H150 H 0.54063 0.68412 0.39556 0.0
H151 H 0.53256 0.65447 0.41662 0.0
C152 C 0.53374 0.90377 0.41937 0.0
N153 N 0.51909 0.85949 0.42989 0.0
N154 N 0.49788 0.8127 0.42087 0.0
C155 C 0.49835 0.82592 0.40424 0.0
C156 C 0.52108 0.88403 0.40273 0.0
C157 C 0.55315 0.96262 0.42542 0.0
H158 H 0.5254 0.96142 0.43591 0.0
H159 H 0.59671 0.981 0.43056 0.0
H160 H 0.55276 0.99013 0.41504 0.0
O161 O 0.43688 0.81392 0.46159 0.0
O162 O 0.40208 0.73331 0.44728 0.0
H163 H 0.43057 0.75363 0.39214 0.0
H164 H 0.48214 0.80399 0.37741 0.0
C165 C 0.47616 0.78361 0.39008 0.0
H166 H 0.49883 0.75948 0.39011 0.0
H167 H 0.35095 0.66404 0.4175 0.0
O168 O 0.55275 0.9305 0.46442 0.0
C169 C 0.39611 0.76501 0.45796 0.0
Co170 Co 0.14107 0.67536 0.11945 0.0
Co171 Co 0.25426 0.72629 0.09893 0.0
C172 C 0.23214 0.79541 0.1243 0.0
O173 O 0.18309 0.75425 0.12752 0.0
O174 O 0.26444 0.79057 0.11357 0.0
C175 C 0.0585 0.64433 0.14506 0.0
O176 O 0.10389 0.67147 0.1546 0.0
C177 C 0.3409 0.80301 0.07482 0.0
C178 C 0.38075 0.75326 0.06711 0.0
C179 C 0.38226 0.80416 0.06426 0.0
N180 N 0.31631 0.75381 0.08344 0.0
N181 N 0.34071 0.72451 0.0789 0.0
C182 C 0.32094 0.84501 0.07561 0.0
H183 H 0.27653 0.82435 0.08011 0.0
H184 H 0.32423 0.86453 0.06291 0.0
H185 H 0.34772 0.87885 0.08477 0.0
C186 C 0.0928 0.647 0.08482 0.0
N187 N 0.13738 0.67223 0.09544 0.0
N188 N 0.18447 0.69291 0.08659 0.0
C189 C 0.17112 0.68091 0.06995 0.0
C190 C 0.11257 0.65164 0.06827 0.0
C191 C 0.03278 0.61414 0.09075 0.0
H192 H 0.02882 0.58246 0.10037 0.0
H193 H 0.0212 0.6433 0.09704 0.0
H194 H 0.00297 0.59203 0.08013 0.0
O195 O 0.17677 0.63234 0.12819 0.0
O196 O 0.25696 0.668 0.1136 0.0
H197 H 0.24033 0.67701 0.05869 0.0
H198 H 0.19311 0.68172 0.04334 0.0
C199 C 0.21356 0.69613 0.05599 0.0
H200 H 0.24127 0.74263 0.05558 0.0
H201 H 0.32913 0.68432 0.08357 0.0
O202 O 0.06423 0.64062 0.12913 0.0
C203 C 0.22298 0.63371 0.12469 0.0
C204 C 0.38574 0.15607 0.19475 0.0
C205 C 0.42276 0.16232 0.20818 0.0
C206 C 0.36357 0.10863 0.18415 0.0
C207 C 0.37797 0.06631 0.18674 0.0
C208 C 0.41417 0.07212 0.2003 0.0
C209 C 0.43597 0.1193 0.21099 0.0
C210 C 0.35867 0.01729 0.17503 0.0
C211 C 0.31048 0.9957 0.16589 0.0
C212 C 0.29145 0.9459 0.15457 0.0
C213 C 0.23341 0.9078 0.15284 0.0
C214 C 0.21417 0.85942 0.1428 0.0
C215 C 0.25258 0.84874 0.13394 0.0
H216 H 0.37493 0.96555 0.14606 0.0
C217 C 0.31064 0.88815 0.13509 0.0
C218 C 0.32994 0.93611 0.14538 0.0
H219 H 0.34131 0.88129 0.12838 0.0
H220 H 0.37483 0.18848 0.19216 0.0
H221 H 0.33686 0.10639 0.1736 0.0
H222 H 0.42612 0.04028 0.20255 0.0
H223 H 0.4645 0.12274 0.22115 0.0
H224 H 0.38397 0.99671 0.17454 0.0
H225 H 0.28202 0.0123 0.16759 0.0
H226 H 0.20289 0.91474 0.15962 0.0
H227 H 0.16912 0.83016 0.14208 0.0
C228 C 0.15754 0.38392 0.81632 0.0
C229 C 0.16242 0.41988 0.80272 0.0
C230 C 0.11066 0.36175 0.82717 0.0
C231 C 0.06756 0.37509 0.82465 0.0
C232 C 0.07202 0.41021 0.81091 0.0
C233 C 0.11862 0.43202 0.8 0.0
C234 C 0.01899 0.35571 0.83654 0.0
C235 C 0.99854 0.30817 0.84596 0.0
C236 C 0.94866 0.28878 0.85726 0.0
C237 C 0.91115 0.23065 0.85911 0.0
C238 C 0.86232 0.21108 0.86896 0.0
C239 C 0.85061 0.24928 0.87752 0.0
H240 H 0.96696 0.37214 0.86546 0.0
C241 C 0.88956 0.30745 0.87633 0.0
C242 C 0.93798 0.32706 0.86623 0.0
H243 H 0.88189 0.33795 0.88281 0.0
H244 H 0.19058 0.37388 0.81886 0.0
H245 H 0.10944 0.33587 0.83782 0.0
H246 H 0.03955 0.42131 0.8087 0.0
H247 H 0.12098 0.4597 0.7897 0.0
H248 H 0.99757 0.38024 0.83689 0.0
H249 H 0.01593 0.2803 0.84443 0.0
H250 H 0.91879 0.20029 0.85251 0.0
H251 H 0.8334 0.16595 0.86972 0.0
C252 C 0.5909 0.7032 0.46653 0.0
C253 C 0.58583 0.75056 0.47065 0.0
C254 C 0.61727 0.68369 0.47784 0.0
C255 C 0.63871 0.711 0.49355 0.0
C256 C 0.63429 0.75864 0.49754 0.0
C257 C 0.60873 0.77859 0.48617 0.0
C258 C 0.66253 0.68882 0.50652 0.0
C259 C 0.69039 0.66145 0.50245 0.0
C260 C 0.71287 0.63805 0.51545 0.0
C261 C 0.76097 0.63429 0.51157 0.0
C262 C 0.78123 0.60922 0.52303 0.0
C263 C 0.75307 0.58617 0.53852 0.0
H264 H 0.6475 0.61753 0.5344 0.0
C265 C 0.70527 0.5906 0.54254 0.0
C266 C 0.68545 0.61645 0.53115 0.0
H267 H 0.68245 0.57307 0.55431 0.0
H268 H 0.57353 0.68051 0.45472 0.0
H269 H 0.6189 0.64608 0.47451 0.0
H270 H 0.65021 0.78026 0.50958 0.0
H271 H 0.6054 0.81504 0.48983 0.0
H272 H 0.65884 0.69739 0.51983 0.0
H273 H 0.69906 0.65786 0.48914 0.0
H274 H 0.78268 0.65034 0.49955 0.0
H275 H 0.81798 0.60631 0.51945 0.0
C276 C 0.28899 0.59652 0.13065 0.0
C277 C 0.2375 0.59485 0.13379 0.0
C278 C 0.30292 0.56039 0.13941 0.0
C279 C 0.26573 0.52188 0.1516 0.0
C280 C 0.21383 0.51942 0.15446 0.0
C281 C 0.19995 0.55564 0.14574 0.0
C282 C 0.27909 0.48298 0.16129 0.0
C283 C 0.33236 0.49485 0.16465 0.0
C284 C 0.3467 0.45739 0.17474 0.0
C285 C 0.40034 0.48121 0.18234 0.0
C286 C 0.41645 0.44771 0.19158 0.0
C287 C 0.37942 0.38927 0.19334 0.0
H288 H 0.26833 0.37845 0.17044 0.0
C289 C 0.32568 0.3652 0.18572 0.0
C290 C 0.30947 0.39883 0.17648 0.0
H291 H 0.29629 0.32025 0.18673 0.0
H292 H 0.31867 0.62574 0.12141 0.0
H293 H 0.34249 0.56232 0.13639 0.0
H294 H 0.18413 0.48982 0.16363 0.0
H295 H 0.15975 0.55288 0.14842 0.0
H296 H 0.24379 0.44516 0.16665 0.0
H297 H 0.36742 0.53525 0.16061 0.0
H298 H 0.43003 0.52606 0.18114 0.0
H299 H 0.45822 0.46772 0.19725 0.0
C300 C 0.44627 0.66706 0.80974 0.0
C301 C 0.40844 0.65857 0.79636 0.0
C302 C 0.47945 0.72073 0.81682 0.0
C303 C 0.47528 0.76706 0.81069 0.0
C304 C 0.43847 0.75877 0.79708 0.0
C305 C 0.40521 0.70515 0.79003 0.0
C306 C 0.50912 0.82472 0.81793 0.0
C307 C 0.52892 0.83475 0.83405 0.0
C308 C 0.55981 0.89234 0.84152 0.0
C309 C 0.55836 0.89841 0.85924 0.0
C310 C 0.58569 0.95196 0.86671 0.0
C311 C 0.61556 0.00063 0.85658 0.0
H312 H 0.59474 0.938 0.81779 0.0
C313 C 0.6183 0.99453 0.83889 0.0
C314 C 0.5909 0.94098 0.83142 0.0
H315 H 0.64152 0.03114 0.83076 0.0
H316 H 0.45024 0.63222 0.81481 0.0
H317 H 0.50867 0.7257 0.82692 0.0
H318 H 0.43483 0.7938 0.792 0.0
H319 H 0.37684 0.70028 0.77966 0.0
H320 H 0.51441 0.85972 0.81 0.0
H321 H 0.51892 0.79946 0.84254 0.0
H322 H 0.53523 0.86164 0.86733 0.0
H323 H 0.58307 0.95515 0.8804 0.0
C324 C 0.03355 0.59312 0.52691 0.0
C325 C 0.01666 0.62812 0.53501 0.0
C326 C 0.08471 0.6165 0.51809 0.0
C327 C 0.12009 0.67549 0.51717 0.0
C328 C 0.10392 0.71037 0.52565 0.0
C329 C 0.05255 0.687 0.53439 0.0
C330 C 0.17475 0.70186 0.50791 0.0
C331 C 0.18384 0.67793 0.49416 0.0
C332 C 0.23836 0.70248 0.48475 0.0
C333 C 0.24645 0.66778 0.47326 0.0
C334 C 0.29724 0.68819 0.46437 0.0
C335 C 0.34126 0.744 0.46676 0.0
H336 H 0.27739 0.78793 0.49504 0.0
C337 C 0.33282 0.77922 0.47795 0.0
C338 C 0.28196 0.75888 0.48679 0.0
H339 H 0.36562 0.82266 0.47995 0.0
H340 H 0.00714 0.54755 0.52729 0.0
H341 H 0.09665 0.58813 0.51225 0.0
H342 H 0.13076 0.75592 0.52532 0.0
H343 H 0.04096 0.71513 0.5406 0.0
H344 H 0.20749 0.74252 0.51254 0.0
H345 H 0.14983 0.63773 0.48958 0.0
H346 H 0.21356 0.62434 0.47129 0.0
H347 H 0.30217 0.65991 0.45581 0.0
C348 C 0.59948 0.28932 0.87883 0.0
C349 C 0.59861 0.23828 0.87555 0.0
C350 C 0.56366 0.30331 0.8699 0.0
C351 C 0.52628 0.26662 0.85741 0.0
C352 C 0.52481 0.21528 0.85436 0.0
C353 C 0.5607 0.20135 0.86324 0.0
C354 C 0.48734 0.27973 0.84765 0.0
C355 C 0.49809 0.33286 0.84468 0.0
C356 C 0.46031 0.34678 0.83459 0.0
C357 C 0.48336 0.40091 0.82737 0.0
C358 C 0.44945 0.41659 0.81816 0.0
C359 C 0.39135 0.37861 0.81607 0.0
H360 H 0.38225 0.26702 0.83827 0.0
C361 C 0.36805 0.32437 0.82331 0.0
C362 C 0.40209 0.3086 0.83252 0.0
H363 H 0.32338 0.29424 0.82205 0.0
H364 H 0.62771 0.31851 0.88834 0.0
H365 H 0.56484 0.34242 0.87306 0.0
H366 H 0.49611 0.18598 0.84494 0.0
H367 H 0.55858 0.16152 0.86043 0.0
H368 H 0.45034 0.2444 0.84195 0.0
H369 H 0.53776 0.3682 0.84906 0.0
H370 H 0.52792 0.43131 0.82883 0.0
H371 H 0.46887 0.45876 0.81278 0.0
C372 C 0.77302 0.33513 0.52946 0.0
C373 C 0.74192 0.34049 0.54285 0.0
C374 C 0.75172 0.2846 0.5204 0.0
C375 C 0.69894 0.23786 0.52466 0.0
C376 C 0.66804 0.24318 0.5381 0.0
C377 C 0.68926 0.29382 0.54713 0.0
C378 C 0.67348 0.18393 0.51495 0.0
C379 C 0.70339 0.16807 0.50504 0.0
C380 C 0.67727 0.1144 0.49523 0.0
C381 C 0.71087 0.09095 0.49063 0.0
C382 C 0.68777 0.04031 0.48152 0.0
C383 C 0.63055 0.01224 0.4767 0.0
H384 H 0.59351 0.10477 0.49269 0.0
C385 C 0.59724 0.03644 0.4809 0.0
C386 C 0.62034 0.08706 0.49 0.0
H387 H 0.55317 0.01626 0.47719 0.0
H388 H 0.8135 0.37039 0.5257 0.0
H389 H 0.77627 0.2832 0.50982 0.0
H390 H 0.62711 0.20806 0.54159 0.0
H391 H 0.6641 0.29648 0.55735 0.0
H392 H 0.62845 0.15548 0.51657 0.0
H393 H 0.7491 0.19374 0.50462 0.0
H394 H 0.75502 0.11148 0.4943 0.0
H395 H 0.71468 0.02295 0.47842 0.0
C396 C 0.99535 0.62069 0.17046 0.0
C397 C 0.0016 0.61716 0.15281 0.0
C398 C 0.94177 0.59352 0.1779 0.0
C399 C 0.89323 0.56183 0.16783 0.0
C400 C 0.89941 0.55973 0.15013 0.0
C401 C 0.95301 0.58687 0.14269 0.0
C402 C 0.83566 0.5308 0.17532 0.0
C403 C 0.82588 0.51136 0.19149 0.0
C404 C 0.76838 0.47726 0.19882 0.0
C405 C 0.76081 0.44135 0.21263 0.0
C406 C 0.70744 0.40793 0.21981 0.0
C407 C 0.66035 0.41007 0.21342 0.0
H408 H 0.7259 0.5088 0.18234 0.0
C409 C 0.66808 0.44695 0.19982 0.0
C410 C 0.72153 0.48031 0.19261 0.0
H411 H 0.63283 0.45006 0.19469 0.0
H412 H 0.03188 0.64428 0.17859 0.0
H413 H 0.93869 0.59793 0.1915 0.0
H414 H 0.8627 0.53616 0.14206 0.0
H415 H 0.95633 0.58366 0.12902 0.0
H416 H 0.80028 0.52031 0.16683 0.0
H417 H 0.86107 0.51722 0.19942 0.0
H418 H 0.79625 0.43856 0.21778 0.0
H419 H 0.70316 0.3803 0.23035 0.0
C420 C 0.57486 0.96402 0.38246 0.0
C421 C 0.52376 0.91663 0.38732 0.0
C422 C 0.57711 0.99587 0.36817 0.0
C423 C 0.52791 0.98121 0.35857 0.0
C424 C 0.47708 0.93307 0.36334 0.0
C425 C 0.47493 0.90127 0.37762 0.0
C426 C 0.52802 0.01453 0.34346 0.0
C427 C 0.56623 0.06971 0.34131 0.0
C428 C 0.56661 0.10479 0.32665 0.0
C429 C 0.59924 0.16378 0.3281 0.0
C430 C 0.60265 0.19888 0.31464 0.0
C431 C 0.57336 0.17596 0.29932 0.0
H432 H 0.51327 0.03645 0.3093 0.0
C433 C 0.54079 0.11695 0.29773 0.0
C434 C 0.53748 0.08162 0.31124 0.0
H435 H 0.5193 0.09789 0.28591 0.0
H436 H 0.61311 0.97624 0.3897 0.0
H437 H 0.61758 0.03138 0.36462 0.0
H438 H 0.43865 0.92053 0.35615 0.0
H439 H 0.43491 0.86508 0.38124 0.0
H440 H 0.49349 0.99343 0.33445 0.0
H441 H 0.59768 0.0915 0.35117 0.0
H442 H 0.62245 0.18297 0.33972 0.0
H443 H 0.62829 0.24421 0.31626 0.0
C444 C 0.83126 0.42575 0.97512 0.0
C445 C 0.84757 0.40717 0.96067 0.0
C446 C 0.87056 0.45692 0.98782 0.0
C447 C 0.92755 0.47118 0.9862 0.0
C448 C 0.94373 0.45251 0.97173 0.0
C449 C 0.90432 0.42117 0.95906 0.0
C450 C 0.97072 0.50356 0.99954 0.0
C451 C 0.96551 0.53755 0.01096 0.0
C452 C 0.00688 0.56866 0.02487 0.0
C453 C 0.00123 0.60985 0.03398 0.0
C454 C 0.03655 0.63784 0.0478 0.0
C455 C 0.07842 0.62533 0.05282 0.0
H456 H 0.05487 0.52446 0.02361 0.0
C457 C 0.08501 0.58496 0.04367 0.0
C458 C 0.0495 0.55665 0.02987 0.0
H459 H 0.11653 0.57405 0.04753 0.0
H460 H 0.78772 0.41535 0.97676 0.0
H461 H 0.8556 0.46864 0.99897 0.0
H462 H 0.98722 0.46268 0.97014 0.0
H463 H 0.91872 0.40899 0.94787 0.0
H464 H 0.00866 0.50023 0.99945 0.0
H465 H 0.9295 0.54408 0.01001 0.0
H466 H 0.96877 0.61992 0.03054 0.0
H467 H 0.03067 0.66875 0.05475 0.0
C468 C 0.42075 0.49622 0.71192 0.0
C469 C 0.38881 0.45126 0.72312 0.0
C470 C 0.44653 0.48833 0.69767 0.0
C471 C 0.44154 0.43528 0.69445 0.0
C472 C 0.40945 0.39036 0.70572 0.0
C473 C 0.38351 0.39831 0.71997 0.0
C474 C 0.46753 0.42473 0.67926 0.0
C475 C 0.51165 0.466 0.67067 0.0
C476 C 0.53815 0.45558 0.6556 0.0
C477 C 0.59417 0.49561 0.65148 0.0
C478 C 0.621 0.48736 0.63755 0.0
C479 C 0.59199 0.43928 0.62723 0.0
H480 H 0.46515 0.37659 0.64754 0.0
C481 C 0.53574 0.39945 0.6312 0.0
C482 C 0.50887 0.40764 0.64515 0.0
H483 H 0.51239 0.36194 0.62346 0.0
H484 H 0.4256 0.53755 0.71417 0.0
H485 H 0.4693 0.52372 0.68911 0.0
H486 H 0.40447 0.34895 0.70351 0.0
H487 H 0.35878 0.36297 0.72841 0.0
H488 H 0.45108 0.38098 0.67557 0.0
H489 H 0.53151 0.50914 0.6753 0.0
H490 H 0.61776 0.53292 0.65929 0.0
H491 H 0.66496 0.51784 0.63526 0.0
C492 C 0.11369 0.53752 0.71262 0.0
C493 C 0.17275 0.57001 0.71114 0.0
C494 C 0.07871 0.53408 0.69899 0.0
C495 C 0.10229 0.56305 0.68359 0.0
C496 C 0.1613 0.59561 0.68224 0.0
C497 C 0.19604 0.5991 0.69581 0.0
C498 C 0.06761 0.56264 0.66882 0.0
C499 C 0.01269 0.524 0.66646 0.0
C500 C 0.97984 0.52403 0.65125 0.0
C501 C 0.93249 0.47304 0.64617 0.0
C502 C 0.90109 0.47114 0.63181 0.0
C503 C 0.91604 0.52039 0.62237 0.0
H504 H 0.0291 0.61412 0.64565 0.0
C505 C 0.96275 0.57157 0.62751 0.0
C506 C 0.99418 0.57357 0.64188 0.0
H507 H 0.9747 0.61011 0.62045 0.0
H508 H 0.09433 0.51617 0.72443 0.0
H509 H 0.03348 0.50993 0.70082 0.0
H510 H 0.18078 0.61868 0.67062 0.0
H511 H 0.2414 0.62464 0.69426 0.0
H512 H 0.08954 0.59443 0.65905 0.0
H513 H 0.99157 0.48913 0.67537 0.0
H514 H 0.92023 0.43434 0.65317 0.0
H515 H 0.86548 0.43104 0.62795 0.0
C516 C 0.49775 0.42812 0.29679 0.0
C517 C 0.45223 0.39133 0.28643 0.0
C518 C 0.48933 0.45552 0.31053 0.0
C519 C 0.43487 0.44619 0.31428 0.0
C520 C 0.38955 0.40971 0.30371 0.0
C521 C 0.39812 0.38252 0.28992 0.0
C522 C 0.42375 0.47518 0.32855 0.0
C523 C 0.45923 0.49988 0.34183 0.0
C524 C 0.44831 0.52989 0.35585 0.0
C525 C 0.47789 0.53933 0.37131 0.0
C526 C 0.46964 0.56823 0.38469 0.0
C527 C 0.43188 0.58872 0.38281 0.0
H528 H 0.38841 0.54641 0.34217 0.0
C529 C 0.40228 0.57936 0.36738 0.0
C530 C 0.41071 0.5508 0.35399 0.0
H531 H 0.37325 0.59514 0.36552 0.0
H532 H 0.54008 0.43629 0.29409 0.0
H533 H 0.52589 0.48467 0.31788 0.0
H534 H 0.34727 0.40211 0.30614 0.0
H535 H 0.36247 0.35442 0.28203 0.0
H536 H 0.38356 0.47422 0.32826 0.0
H537 H 0.49712 0.49663 0.34294 0.0
H538 H 0.50726 0.52393 0.37311 0.0
H539 H 0.49213 0.57364 0.39655 0.0
C540 C 0.63321 0.07925 0.97195 0.0
C541 C 0.60857 0.07245 0.95575 0.0
C542 C 0.60185 0.044 0.9855 0.0
C543 C 0.54524 0.00137 0.98302 0.0
C544 C 0.5207 0.99541 0.96686 0.0
C545 C 0.55179 0.03084 0.95343 0.0
C546 C 0.51134 0.96005 0.99654 0.0
C547 C 0.52002 0.97037 0.01339 0.0
C548 C 0.48499 0.9274 0.02642 0.0
C549 C 0.47478 0.94495 0.04217 0.0
C550 C 0.44122 0.90516 0.05451 0.0
C551 C 0.41782 0.84705 0.05139 0.0
H552 H 0.47122 0.85417 0.01176 0.0
C553 C 0.42962 0.82961 0.03587 0.0
C554 C 0.46266 0.86925 0.0235 0.0
H555 H 0.41275 0.78513 0.0332 0.0
H556 H 0.67707 0.11088 0.974 0.0
H557 H 0.62261 0.04908 0.99768 0.0
H558 H 0.47725 0.96299 0.96458 0.0
H559 H 0.53144 0.02539 0.94114 0.0
H560 H 0.47605 0.92004 0.99233 0.0
H561 H 0.55145 0.0121 0.01781 0.0
H562 H 0.49229 0.98951 0.04485 0.0
H563 H 0.43443 0.91999 0.06656 0.0
loop_
_geom_bond_atom_site_label_1
_geom_bond_atom_site_label_2
_geom_bond_distance
_geom_bond_site_symmetry_2
_ccdc_geom_bond_type
Co0 O3 1.970 . S
Co0 N17 1.989 . S
Co0 O25 1.967 . S
Co0 O32 1.920 . S
Co1 O4 1.966 . S
Co1 N10 2.022 . S
Co1 N18 1.993 . S
Co1 O26 1.941 . S
C2 O3 1.258 . S
C2 O4 1.263 . S
O3 Co0 1.970 . S
O3 C2 1.258 . S
O4 Co1 1.966 . S
O4 C2 1.263 . S
C5 O6 1.235 . S
C5 O32 1.289 . S
O6 C5 1.235 . S
C7 C9 1.400 . S
C7 N10 1.351 . S
C7 C12 1.501 . S
C8 C9 1.387 . S
C8 N11 1.341 . S
C9 C7 1.400 . S
C9 C8 1.387 . S
N10 Co1 2.022 . S
N10 C7 1.351 . S
N10 N11 1.365 . S
N11 C8 1.341 . S
N11 N10 1.365 . S
N11 H31 0.862 . S
C12 C7 1.501 . S
C12 H13 0.961 . S
C12 H14 0.961 . S
C12 H15 0.960 . S
H13 C12 0.961 . S
H14 C12 0.961 . S
H15 C12 0.960 . S
C16 N17 1.342 . S
C16 C20 1.401 . S
C16 C21 1.499 . S
N17 Co0 1.989 . S
N17 C16 1.342 . S
N17 N18 1.388 . S
N18 Co1 1.993 . S
N18 N17 1.388 . S
N18 C19 1.346 . S
C19 N18 1.346 . S
C19 C20 1.396 . S
C19 C29 1.510 . S
C20 C16 1.401 . S
C20 C19 1.396 . S
C21 C16 1.499 . S
C21 H22 0.959 . S
C21 H23 0.960 . S
C21 H24 0.961 . S
H22 C21 0.959 . S
H23 C21 0.960 . S
H24 C21 0.961 . S
O25 Co0 1.967 . S
O25 C33 1.258 . S
O26 Co1 1.941 . S
O26 C33 1.266 . S
H27 C29 0.959 . S
H28 C29 0.961 . S
C29 C19 1.510 . S
C29 H27 0.959 . S
C29 H28 0.961 . S
C29 H30 0.960 . S
H30 C29 0.960 . S
H31 N11 0.862 . S
O32 Co0 1.920 . S
O32 C5 1.289 . S
C33 O25 1.258 . S
C33 O26 1.266 . S
Co34 O37 1.970 . S
Co34 N51 1.989 . S
Co34 O59 1.967 . S
Co34 O66 1.920 . S
Co35 O38 1.966 . S
Co35 N44 2.022 . S
Co35 N52 1.993 . S
Co35 O60 1.941 . S
C36 O37 1.258 . S
C36 O38 1.263 . S
O37 Co34 1.970 . S
O37 C36 1.258 . S
O38 Co35 1.966 . S
O38 C36 1.263 . S
C39 O40 1.235 . S
C39 O66 1.289 . S
O40 C39 1.235 . S
C41 C43 1.400 . S
C41 N44 1.351 . S
C41 C46 1.501 . S
C42 C43 1.387 . S
C42 N45 1.341 . S
C43 C41 1.400 . S
C43 C42 1.387 . S
N44 Co35 2.022 . S
N44 C41 1.351 . S
N44 N45 1.365 . S
N45 C42 1.341 . S
N45 N44 1.365 . S
N45 H65 0.862 . S
C46 C41 1.501 . S
C46 H47 0.961 . S
C46 H48 0.961 . S
C46 H49 0.960 . S
H47 C46 0.961 . S
H48 C46 0.961 . S
H49 C46 0.960 . S
C50 N51 1.342 . S
C50 C54 1.401 . S
C50 C55 1.499 . S
N51 Co34 1.989 . S
N51 C50 1.342 . S
N51 N52 1.388 . S
N52 Co35 1.993 . S
N52 N51 1.388 . S
N52 C53 1.346 . S
C53 N52 1.346 . S
C53 C54 1.396 . S
C53 C63 1.510 . S
C54 C50 1.401 . S
C54 C53 1.396 . S
C55 C50 1.499 . S
C55 H56 0.959 . S
C55 H57 0.960 1_545 S
C55 H58 0.962 1_545 S
H56 C55 0.959 . S
H57 C55 0.960 1_565 S
H58 C55 0.962 1_565 S
O59 Co34 1.967 . S
O59 C67 1.258 . S
O60 Co35 1.941 . S
O60 C67 1.266 . S
H61 C63 0.959 . S
H62 C63 0.961 . S
C63 C53 1.510 . S
C63 H61 0.959 . S
C63 H62 0.961 . S
C63 H64 0.960 . S
H64 C63 0.960 . S
H65 N45 0.862 . S
O66 Co34 1.920 . S
O66 C39 1.289 . S
C67 O59 1.258 . S
C67 O60 1.266 . S
Co68 O71 1.970 . S
Co68 N85 1.989 . S
Co68 O93 1.967 . S
Co68 O100 1.920 . S
Co69 O72 1.966 . S
Co69 N78 2.022 . S
Co69 N86 1.993 . S
Co69 O94 1.941 . S
C70 O71 1.258 . S
C70 O72 1.263 . S
O71 Co68 1.970 . S
O71 C70 1.258 . S
O72 Co69 1.966 . S
O72 C70 1.263 . S
C73 O74 1.235 . S
C73 O100 1.289 . S
O74 C73 1.235 . S
C75 C77 1.400 . S
C75 N78 1.351 . S
C75 C80 1.501 . S
C76 C77 1.387 . S
C76 N79 1.341 . S
C77 C75 1.400 . S
C77 C76 1.387 . S
N78 Co69 2.022 . S
N78 C75 1.351 . S
N78 N79 1.365 . S
N79 C76 1.341 . S
N79 N78 1.365 . S
N79 H99 0.862 . S
C80 C75 1.501 . S
C80 H81 0.961 . S
C80 H82 0.961 . S
C80 H83 0.960 . S
H81 C80 0.961 . S
H82 C80 0.961 . S
H83 C80 0.960 . S
C84 N85 1.342 . S
C84 C88 1.401 . S
C84 C89 1.499 . S
N85 Co68 1.989 . S
N85 C84 1.342 . S
N85 N86 1.388 . S
N86 Co69 1.993 . S
N86 N85 1.388 . S
N86 C87 1.346 . S
C87 N86 1.346 . S
C87 C88 1.396 . S
C87 C97 1.510 . S
C88 C84 1.401 . S
C88 C87 1.396 . S
C89 C84 1.499 . S
C89 H90 0.959 . S
C89 H91 0.960 1_655 S
C89 H92 0.959 1_655 S
H90 C89 0.959 . S
H91 C89 0.960 1_455 S
H92 C89 0.959 1_455 S
O93 Co68 1.967 . S
O93 C101 1.258 . S
O94 Co69 1.941 . S
O94 C101 1.266 . S
H95 C97 0.959 . S
H96 C97 0.961 . S
C97 C87 1.510 . S
C97 H95 0.959 . S
C97 H96 0.961 . S
C97 H98 0.960 . S
H98 C97 0.960 . S
H99 N79 0.862 . S
O100 Co68 1.920 . S
O100 C73 1.289 . S
C101 O93 1.258 . S
C101 O94 1.266 . S
Co102 O105 1.970 . S
Co102 N119 1.989 . S
Co102 O127 1.967 . S
Co102 O134 1.920 . S
Co103 O106 1.966 . S
Co103 N112 2.022 . S
Co103 N120 1.993 . S
Co103 O128 1.941 . S
C104 O105 1.258 . S
C104 O106 1.263 . S
O105 Co102 1.970 . S
O105 C104 1.258 . S
O106 Co103 1.966 . S
O106 C104 1.263 . S
C107 O108 1.235 . S
C107 O134 1.289 . S
O108 C107 1.235 . S
C109 C111 1.400 . S
C109 N112 1.351 . S
C109 C114 1.501 . S
C110 C111 1.387 . S
C110 N113 1.341 . S
C111 C109 1.400 . S
C111 C110 1.387 . S
N112 Co103 2.022 . S
N112 C109 1.351 . S
N112 N113 1.365 . S
N113 C110 1.341 . S
N113 N112 1.365 . S
N113 H133 0.862 . S
C114 C109 1.501 . S
C114 H115 0.961 . S
C114 H116 0.961 . S
C114 H117 0.960 . S
H115 C114 0.961 . S
H116 C114 0.961 . S
H117 C114 0.960 . S
C118 N119 1.342 . S
C118 C122 1.401 . S
C118 C123 1.499 . S
N119 Co102 1.989 . S
N119 C118 1.342 . S
N119 N120 1.388 . S
N120 Co103 1.993 . S
N120 N119 1.388 . S
N120 C121 1.346 . S
C121 N120 1.346 . S
C121 C122 1.396 . S
C121 C131 1.510 . S
C122 C118 1.401 . S
C122 C121 1.396 . S
C123 C118 1.499 . S
C123 H124 0.959 . S
C123 H125 0.960 . S
C123 H126 0.961 . S
H124 C123 0.959 . S
H125 C123 0.960 . S
H126 C123 0.961 . S
O127 Co102 1.967 . S
O127 C135 1.258 . S
O128 Co103 1.941 . S
O128 C135 1.266 . S
H129 C131 0.959 . S
H130 C131 0.961 . S
C131 C121 1.510 . S
C131 H129 0.959 . S
C131 H130 0.961 . S
C131 H132 0.960 . S
H132 C131 0.960 . S
H133 N113 0.862 . S
O134 Co102 1.920 . S
O134 C107 1.289 . S
C135 O127 1.258 . S
C135 O128 1.266 . S
Co136 O139 1.970 . S
Co136 N153 1.989 . S
Co136 O161 1.967 . S
Co136 O168 1.920 . S
Co137 O140 1.966 . S
Co137 N146 2.022 . S
Co137 N154 1.993 . S
Co137 O162 1.941 . S
C138 O139 1.258 . S
C138 O140 1.263 . S
O139 Co136 1.970 . S
O139 C138 1.258 . S
O140 Co137 1.966 . S
O140 C138 1.263 . S
C141 O142 1.235 . S
C141 O168 1.289 . S
O142 C141 1.235 . S
C143 C145 1.400 . S
C143 N146 1.351 . S
C143 C148 1.501 . S
C144 C145 1.387 . S
C144 N147 1.341 . S
C145 C143 1.400 . S
C145 C144 1.387 . S
N146 Co137 2.022 . S
N146 C143 1.351 . S
N146 N147 1.365 . S
N147 C144 1.341 . S
N147 N146 1.365 . S
N147 H167 0.862 . S
C148 C143 1.501 . S
C148 H149 0.961 . S
C148 H150 0.961 . S
C148 H151 0.960 . S
H149 C148 0.961 . S
H150 C148 0.961 . S
H151 C148 0.960 . S
C152 N153 1.342 . S
C152 C156 1.401 . S
C152 C157 1.499 . S
N153 Co136 1.989 . S
N153 C152 1.342 . S
N153 N154 1.388 . S
N154 Co137 1.993 . S
N154 N153 1.388 . S
N154 C155 1.346 . S
C155 N154 1.346 . S
C155 C156 1.396 . S
C155 C165 1.510 . S
C156 C152 1.401 . S
C156 C155 1.396 . S
C157 C152 1.499 . S
C157 H158 0.959 . S
C157 H159 0.960 1_565 S
C157 H160 0.959 1_565 S
H158 C157 0.959 . S
H159 C157 0.960 1_545 S
H160 C157 0.959 1_545 S
O161 Co136 1.967 . S
O161 C169 1.258 . S
O162 Co137 1.941 . S
O162 C169 1.266 . S
H163 C165 0.959 . S
H164 C165 0.961 . S
C165 C155 1.510 . S
C165 H163 0.959 . S
C165 H164 0.961 . S
C165 H166 0.960 . S
H166 C165 0.960 . S
H167 N147 0.862 . S
O168 Co136 1.920 . S
O168 C141 1.289 . S
C169 O161 1.258 . S
C169 O162 1.266 . S
Co170 O173 1.970 . S
Co170 N187 1.989 . S
Co170 O195 1.967 . S
Co170 O202 1.920 . S
Co171 O174 1.966 . S
Co171 N180 2.022 . S
Co171 N188 1.993 . S
Co171 O196 1.941 . S
C172 O173 1.258 . S
C172 O174 1.263 . S
O173 Co170 1.970 . S
O173 C172 1.258 . S
O174 Co171 1.966 . S
O174 C172 1.263 . S
C175 O176 1.235 . S
C175 O202 1.289 . S
O176 C175 1.235 . S
C177 C179 1.400 . S
C177 N180 1.351 . S
C177 C182 1.501 . S
C178 C179 1.387 . S
C178 N181 1.341 . S
C179 C177 1.400 . S
C179 C178 1.387 . S
N180 Co171 2.022 . S
N180 C177 1.351 . S
N180 N181 1.365 . S
N181 C178 1.341 . S
N181 N180 1.365 . S
N181 H201 0.862 . S
C182 C177 1.501 . S
C182 H183 0.961 . S
C182 H184 0.961 . S
C182 H185 0.960 . S
H183 C182 0.961 . S
H184 C182 0.961 . S
H185 C182 0.960 . S
C186 N187 1.342 . S
C186 C190 1.401 . S
C186 C191 1.499 . S
N187 Co170 1.989 . S
N187 C186 1.342 . S
N187 N188 1.388 . S
N188 Co171 1.993 . S
N188 N187 1.388 . S
N188 C189 1.346 . S
C189 N188 1.346 . S
C189 C190 1.396 . S
C189 C199 1.510 . S
C190 C186 1.401 . S
C190 C189 1.396 . S
C191 C186 1.499 . S
C191 H192 0.959 . S
C191 H193 0.960 1_455 S
C191 H194 0.962 1_455 S
H192 C191 0.959 . S
H193 C191 0.960 1_655 S
H194 C191 0.962 1_655 S
O195 Co170 1.967 . S
O195 C203 1.258 . S
O196 Co171 1.941 . S
O196 C203 1.266 . S
H197 C199 0.959 . S
H198 C199 0.961 . S
C199 C189 1.510 . S
C199 H197 0.959 . S
C199 H198 0.961 . S
C199 H200 0.960 . S
H200 C199 0.960 . S
H201 N181 0.862 . S
O202 Co170 1.920 . S
O202 C175 1.289 . S
C203 O195 1.258 . S
C203 O196 1.266 . S
C204 C205 1.386 . S
C204 C206 1.383 . S
C204 H220 0.951 . S
C205 C204 1.386 . S
C205 C209 1.383 . S
C206 C204 1.383 . S
C206 C207 1.402 . S
C206 H221 0.951 . S
C207 C206 1.402 . S
C207 C208 1.375 . S
C207 C210 1.481 . S
C208 C207 1.375 . S
C208 C209 1.367 . S
C208 H222 0.951 . S
C209 C205 1.383 . S
C209 C208 1.367 . S
C209 H223 0.950 . S
C210 C207 1.481 . S
C210 C211 1.297 . S
C210 H224 0.950 . S
C211 C210 1.297 . S
C211 C212 1.471 1_545 S
C211 H225 0.959 . S
C212 C211 1.471 1_565 S
C212 C213 1.375 . S
C212 C218 1.404 . S
C213 C212 1.375 . S
C213 C214 1.369 . S
C213 H226 0.950 . S
C214 C213 1.369 . S
C214 C215 1.392 . S
C214 H227 0.951 . S
C215 C214 1.392 . S
C215 C217 1.384 . S
H216 C218 0.949 . S
C217 C215 1.384 . S
C217 C218 1.385 . S
C217 H219 0.950 . S
C218 C212 1.404 . S
C218 H216 0.949 . S
C218 C217 1.385 . S
H219 C217 0.950 . S
H220 C204 0.951 . S
H221 C206 0.951 . S
H222 C208 0.951 . S
H223 C209 0.950 . S
H224 C210 0.950 . S
H225 C211 0.959 . S
H226 C213 0.950 . S
H227 C214 0.951 . S
C228 C229 1.386 . S
C228 C230 1.383 . S
C228 H244 0.951 . S
C229 C228 1.386 . S
C229 C233 1.383 . S
C230 C228 1.383 . S
C230 C231 1.402 . S
C230 H245 0.951 . S
C231 C230 1.402 . S
C231 C232 1.375 . S
C231 C234 1.481 . S
C232 C231 1.375 . S
C232 C233 1.367 . S
C232 H246 0.951 . S
C233 C229 1.383 . S
C233 C232 1.367 . S
C233 H247 0.950 . S
C234 C231 1.481 . S
C234 C235 1.297 1_455 S
C234 H248 0.950 . S
C235 C234 1.297 1_655 S
C235 C236 1.479 . S
C235 H249 0.951 1_655 S
C236 C235 1.479 . S
C236 C237 1.375 . S
C236 C242 1.404 . S
C237 C236 1.375 . S
C237 C238 1.369 . S
C237 H250 0.950 . S
C238 C237 1.369 . S
C238 C239 1.392 . S
C238 H251 0.951 . S
C239 C238 1.392 . S
C239 C241 1.384 . S
H240 C242 0.949 . S
C241 C239 1.384 . S
C241 C242 1.385 . S
C241 H243 0.950 . S
C242 C236 1.404 . S
C242 H240 0.949 . S
C242 C241 1.385 . S
H243 C241 0.950 . S
H244 C228 0.951 . S
H245 C230 0.951 . S
H246 C232 0.951 . S
H247 C233 0.950 . S
H248 C234 0.950 . S
H249 C235 0.951 1_455 S
H250 C237 0.950 . S
H251 C238 0.951 . S
C252 C253 1.386 . S
C252 C254 1.383 . S
C252 H268 0.951 . S
C253 C252 1.386 . S
C253 C257 1.383 . S
C254 C252 1.383 . S
C254 C255 1.402 . S
C254 H269 0.951 . S
C255 C254 1.402 . S
C255 C256 1.375 . S
C255 C258 1.481 . S
C256 C255 1.375 . S
C256 C257 1.367 . S
C256 H270 0.951 . S
C257 C253 1.383 . S
C257 C256 1.367 . S
C257 H271 0.950 . S
C258 C255 1.481 . S
C258 C259 1.297 . S
C258 H272 0.950 . S
C259 C258 1.297 . S
C259 C260 1.479 . S
C259 H273 0.950 . S
C260 C259 1.479 . S
C260 C261 1.375 . S
C260 C266 1.404 . S
C261 C260 1.375 . S
C261 C262 1.369 . S
C261 H274 0.950 . S
C262 C261 1.369 . S
C262 C263 1.392 . S
C262 H275 0.951 . S
C263 C262 1.392 . S
C263 C265 1.384 . S
H264 C266 0.949 . S
C265 C263 1.384 . S
C265 C266 1.385 . S
C265 H267 0.950 . S
C266 C260 1.404 . S
C266 H264 0.949 . S
C266 C265 1.385 . S
H267 C265 0.950 . S
H268 C252 0.951 . S
H269 C254 0.951 . S
H270 C256 0.951 . S
H271 C257 0.950 . S
H272 C258 0.950 . S
H273 C259 0.950 . S
H274 C261 0.950 . S
H275 C262 0.951 . S
C276 C277 1.386 . S
C276 C278 1.383 . S
C276 H292 0.951 . S
C277 C276 1.386 . S
C277 C281 1.383 . S
C278 C276 1.383 . S
C278 C279 1.402 . S
C278 H293 0.951 . S
C279 C278 1.402 . S
C279 C280 1.375 . S
C279 C282 1.481 . S
C280 C279 1.375 . S
C280 C281 1.367 . S
C280 H294 0.951 . S
C281 C277 1.383 . S
C281 C280 1.367 . S
C281 H295 0.950 . S
C282 C279 1.481 . S
C282 C283 1.297 . S
C282 H296 0.950 . S
C283 C282 1.297 . S
C283 C284 1.479 . S
C283 H297 0.950 . S
C284 C283 1.479 . S
C284 C285 1.375 . S
C284 C290 1.404 . S
C285 C284 1.375 . S
C285 C286 1.369 . S
C285 H298 0.950 . S
C286 C285 1.369 . S
C286 C287 1.392 . S
C286 H299 0.951 . S
C287 C286 1.392 . S
C287 C289 1.384 . S
H288 C290 0.949 . S
C289 C287 1.384 . S
C289 C290 1.385 . S
C289 H291 0.950 . S
C290 C284 1.404 . S
C290 H288 0.949 . S
C290 C289 1.385 . S
H291 C289 0.950 . S
H292 C276 0.951 . S
H293 C278 0.951 . S
H294 C280 0.951 . S
H295 C281 0.950 . S
H296 C282 0.950 . S
H297 C283 0.950 . S
H298 C285 0.950 . S
H299 C286 0.951 . S
C300 C301 1.386 . S
C300 C302 1.383 . S
C300 H316 0.951 . S
C301 C300 1.386 . S
C301 C305 1.383 . S
C302 C300 1.383 . S
C302 C303 1.402 . S
C302 H317 0.951 . S
C303 C302 1.402 . S
C303 C304 1.375 . S
C303 C306 1.481 . S
C304 C303 1.375 . S
C304 C305 1.367 . S
C304 H318 0.951 . S
C305 C301 1.383 . S
C305 C304 1.367 . S
C305 H319 0.950 . S
C306 C303 1.481 . S
C306 C307 1.297 . S
C306 H320 0.950 . S
C307 C306 1.297 . S
C307 C308 1.479 . S
C307 H321 0.950 . S
C308 C307 1.479 . S
C308 C309 1.375 . S
C308 C314 1.404 . S
C309 C308 1.375 . S
C309 C310 1.369 . S
C309 H322 0.950 . S
C310 C309 1.369 . S
C310 C311 1.392 . S
C310 H323 0.951 . S
C311 C310 1.392 . S
C311 C313 1.384 . S
H312 C314 0.949 . S
C313 C311 1.384 . S
C313 C314 1.385 . S
C313 H315 0.950 . S
C314 C308 1.404 . S
C314 H312 0.949 . S
C314 C313 1.385 . S
H315 C313 0.950 . S
H316 C300 0.951 . S
H317 C302 0.951 . S
H318 C304 0.951 . S
H319 C305 0.950 . S
H320 C306 0.950 . S
H321 C307 0.950 . S
H322 C309 0.950 . S
H323 C310 0.951 . S
C324 C325 1.386 . S
C324 C326 1.383 . S
C324 H340 0.951 . S
C325 C324 1.386 . S
C325 C329 1.383 . S
C326 C324 1.383 . S
C326 C327 1.402 . S
C326 H341 0.951 . S
C327 C326 1.402 . S
C327 C328 1.375 . S
C327 C330 1.481 . S
C328 C327 1.375 . S
C328 C329 1.367 . S
C328 H342 0.951 . S
C329 C325 1.383 . S
C329 C328 1.367 . S
C329 H343 0.950 . S
C330 C327 1.481 . S
C330 C331 1.297 . S
C330 H344 0.950 . S
C331 C330 1.297 . S
C331 C332 1.479 . S
C331 H345 0.950 . S
C332 C331 1.479 . S
C332 C333 1.375 . S
C332 C338 1.404 . S
C333 C332 1.375 . S
C333 C334 1.369 . S
C333 H346 0.950 . S
C334 C333 1.369 . S
C334 C335 1.392 . S
C334 H347 0.951 . S
C335 C334 1.392 . S
C335 C337 1.384 . S
H336 C338 0.949 . S
C337 C335 1.384 . S
C337 C338 1.385 . S
C337 H339 0.950 . S
C338 C332 1.404 . S
C338 H336 0.949 . S
C338 C337 1.385 . S
H339 C337 0.950 . S
H340 C324 0.951 . S
H341 C326 0.951 . S
H342 C328 0.951 . S
H343 C329 0.950 . S
H344 C330 0.950 . S
H345 C331 0.950 . S
H346 C333 0.950 . S
H347 C334 0.951 . S
C348 C349 1.386 . S
C348 C350 1.383 . S
C348 H364 0.951 . S
C349 C348 1.386 . S
C349 C353 1.383 . S
C350 C348 1.383 . S
C350 C351 1.402 . S
C350 H365 0.951 . S
C351 C350 1.402 . S
C351 C352 1.375 . S
C351 C354 1.481 . S
C352 C351 1.375 . S
C352 C353 1.367 . S
C352 H366 0.951 . S
C353 C349 1.383 . S
C353 C352 1.367 . S
C353 H367 0.950 . S
C354 C351 1.481 . S
C354 C355 1.297 . S
C354 H368 0.950 . S
C355 C354 1.297 . S
C355 C356 1.479 . S
C355 H369 0.950 . S
C356 C355 1.479 . S
C356 C357 1.375 . S
C356 C362 1.404 . S
C357 C356 1.375 . S
C357 C358 1.369 . S
C357 H370 0.950 . S
C358 C357 1.369 . S
C358 C359 1.392 . S
C358 H371 0.951 . S
C359 C358 1.392 . S
C359 C361 1.384 . S
H360 C362 0.949 . S
C361 C359 1.384 . S
C361 C362 1.385 . S
C361 H363 0.950 . S
C362 C356 1.404 . S
C362 H360 0.949 . S
C362 C361 1.385 . S
H363 C361 0.950 . S
H364 C348 0.951 . S
H365 C350 0.951 . S
H366 C352 0.951 . S
H367 C353 0.950 . S
H368 C354 0.950 . S
H369 C355 0.950 . S
H370 C357 0.950 . S
H371 C358 0.951 . S
C372 C373 1.386 . S
C372 C374 1.383 . S
C372 H388 0.951 . S
C373 C372 1.386 . S
C373 C377 1.383 . S
C374 C372 1.383 . S
C374 C375 1.402 . S
C374 H389 0.951 . S
C375 C374 1.402 . S
C375 C376 1.375 . S
C375 C378 1.481 . S
C376 C375 1.375 . S
C376 C377 1.367 . S
C376 H390 0.951 . S
C377 C373 1.383 . S
C377 C376 1.367 . S
C377 H391 0.950 . S
C378 C375 1.481 . S
C378 C379 1.297 . S
C378 H392 0.950 . S
C379 C378 1.297 . S
C379 C380 1.479 . S
C379 H393 0.950 . S
C380 C379 1.479 . S
C380 C381 1.375 . S
C380 C386 1.404 . S
C381 C380 1.375 . S
C381 C382 1.369 . S
C381 H394 0.950 . S
C382 C381 1.369 . S
C382 C383 1.392 . S
C382 H395 0.951 . S
C383 C382 1.392 . S
C383 C385 1.384 . S
H384 C386 0.949 . S
C385 C383 1.384 . S
C385 C386 1.385 . S
C385 H387 0.950 1_545 S
C386 C380 1.404 . S
C386 H384 0.949 . S
C386 C385 1.385 . S
H387 C385 0.950 1_565 S
H388 C372 0.951 . S
H389 C374 0.951 . S
H390 C376 0.951 . S
H391 C377 0.950 . S
H392 C378 0.950 . S
H393 C379 0.950 . S
H394 C381 0.950 . S
H395 C382 0.951 . S
C396 C397 1.386 . S
C396 C398 1.383 . S
C396 H412 0.951 . S
C397 C396 1.386 . S
C397 C401 1.383 . S
C398 C396 1.383 . S
C398 C399 1.402 . S
C398 H413 0.951 . S
C399 C398 1.402 . S
C399 C400 1.375 . S
C399 C402 1.481 . S
C400 C399 1.375 . S
C400 C401 1.367 . S
C400 H414 0.951 . S
C401 C397 1.383 . S
C401 C400 1.367 . S
C401 H415 0.950 . S
C402 C399 1.481 . S
C402 C403 1.297 . S
C402 H416 0.950 . S
C403 C402 1.297 . S
C403 C404 1.479 . S
C403 H417 0.950 . S
C404 C403 1.479 . S
C404 C405 1.375 . S
C404 C410 1.404 . S
C405 C404 1.375 . S
C405 C406 1.369 . S
C405 H418 0.950 . S
C406 C405 1.369 . S
C406 C407 1.392 . S
C406 H419 0.951 . S
C407 C406 1.392 . S
C407 C409 1.384 . S
H408 C410 0.949 . S
C409 C407 1.384 . S
C409 C410 1.385 . S
C409 H411 0.950 . S
C410 C404 1.404 . S
C410 H408 0.949 . S
C410 C409 1.385 . S
H411 C409 0.950 . S
H412 C396 0.951 . S
H413 C398 0.951 . S
H414 C400 0.951 . S
H415 C401 0.950 . S
H416 C402 0.950 . S
H417 C403 0.950 . S
H418 C405 0.950 . S
H419 C406 0.951 . S
C420 C421 1.386 . S
C420 C422 1.383 1_565 S
C420 H436 0.951 1_565 S
C421 C420 1.386 . S
C421 C425 1.383 . S
C422 C420 1.383 1_545 S
C422 C423 1.402 1_545 S
C422 H437 0.951 . S
C423 C422 1.402 1_565 S
C423 C424 1.375 . S
C423 C426 1.481 1_565 S
C424 C423 1.375 . S
C424 C425 1.367 . S
C424 H438 0.951 . S
C425 C421 1.383 . S
C425 C424 1.367 . S
C425 H439 0.950 . S
C426 C423 1.481 1_545 S
C426 C427 1.297 . S
C426 H440 0.950 1_545 S
C427 C426 1.297 . S
C427 C428 1.479 . S
C427 H441 0.950 . S
C428 C427 1.479 . S
C428 C429 1.375 . S
C428 C434 1.404 . S
C429 C428 1.375 . S
C429 C430 1.369 . S
C429 H442 0.950 . S
C430 C429 1.369 . S
C430 C431 1.392 . S
C430 H443 0.951 . S
C431 C430 1.392 . S
C431 C433 1.384 . S
H432 C434 0.949 . S
C433 C431 1.384 . S
C433 C434 1.385 . S
C433 H435 0.950 . S
C434 C428 1.404 . S
C434 H432 0.949 . S
C434 C433 1.385 . S
H435 C433 0.950 . S
H436 C420 0.951 1_545 S
H437 C422 0.951 . S
H438 C424 0.951 . S
H439 C425 0.950 . S
H440 C426 0.950 1_565 S
H441 C427 0.950 . S
H442 C429 0.950 . S
H443 C430 0.951 . S
C444 C445 1.386 . S
C444 C446 1.383 . S
C444 H460 0.951 . S
C445 C444 1.386 . S
C445 C449 1.383 . S
C446 C444 1.383 . S
C446 C447 1.402 . S
C446 H461 0.917 1_556 S
C447 C446 1.402 . S
C447 C448 1.375 . S
C447 C450 1.518 . S
C448 C447 1.375 . S
C448 C449 1.367 . S
C448 H462 0.951 . S
C449 C445 1.383 . S
C449 C448 1.367 . S
C449 H463 0.950 . S
C450 C447 1.518 . S
C450 C451 1.246 1_556 S
C450 H464 0.967 . S
C451 C450 1.246 1_554 S
C451 C452 1.479 . S
C451 H465 0.950 . S
C452 C451 1.479 . S
C452 C453 1.375 . S
C452 C458 1.404 1_655 S
C453 C452 1.375 . S
C453 C454 1.369 . S
C453 H466 0.950 . S
C454 C453 1.369 . S
C454 C455 1.392 1_655 S
C454 H467 0.951 . S
C455 C454 1.392 1_455 S
C455 C457 1.384 . S
H456 C458 0.949 . S
C457 C455 1.384 . S
C457 C458 1.385 . S
C457 H459 0.950 . S
C458 C452 1.404 1_455 S
C458 H456 0.949 . S
C458 C457 1.385 . S
H459 C457 0.950 . S
H460 C444 0.951 . S
H461 C446 0.917 1_554 S
H462 C448 0.951 . S
H463 C449 0.950 . S
H464 C450 0.967 . S
H465 C451 0.950 . S
H466 C453 0.950 . S
H467 C454 0.951 . S
C468 C469 1.386 . S
C468 C470 1.383 . S
C468 H484 0.951 . S
C469 C468 1.386 . S
C469 C473 1.383 . S
C470 C468 1.383 . S
C470 C471 1.402 . S
C470 H485 0.951 . S
C471 C470 1.402 . S
C471 C472 1.375 . S
C471 C474 1.481 . S
C472 C471 1.375 . S
C472 C473 1.367 . S
C472 H486 0.951 . S
C473 C469 1.383 . S
C473 C472 1.367 . S
C473 H487 0.950 . S
C474 C471 1.481 . S
C474 C475 1.297 . S
C474 H488 0.950 . S
C475 C474 1.297 . S
C475 C476 1.479 . S
C475 H489 0.950 . S
C476 C475 1.479 . S
C476 C477 1.375 . S
C476 C482 1.404 . S
C477 C476 1.375 . S
C477 C478 1.369 . S
C477 H490 0.950 . S
C478 C477 1.369 . S
C478 C479 1.392 . S
C478 H491 0.951 . S
C479 C478 1.392 . S
C479 C481 1.384 . S
H480 C482 0.949 . S
C481 C479 1.384 . S
C481 C482 1.385 . S
C481 H483 0.950 . S
C482 C476 1.404 . S
C482 H480 0.949 . S
C482 C481 1.385 . S
H483 C481 0.950 . S
H484 C468 0.951 . S
H485 C470 0.951 . S
H486 C472 0.951 . S
H487 C473 0.950 . S
H488 C474 0.950 . S
H489 C475 0.950 . S
H490 C477 0.950 . S
H491 C478 0.951 . S
C492 C493 1.386 . S
C492 C494 1.383 . S
C492 H508 0.951 . S
C493 C492 1.386 . S
C493 C497 1.383 . S
C494 C492 1.383 . S
C494 C495 1.402 . S
C494 H509 0.951 . S
C495 C494 1.402 . S
C495 C496 1.375 . S
C495 C498 1.481 . S
C496 C495 1.375 . S
C496 C497 1.367 . S
C496 H510 0.951 . S
C497 C493 1.383 . S
C497 C496 1.367 . S
C497 H511 0.950 . S
C498 C495 1.481 . S
C498 C499 1.297 . S
C498 H512 0.950 . S
C499 C498 1.297 . S
C499 C500 1.485 . S
C499 H513 0.950 . S
C500 C499 1.485 . S
C500 C501 1.368 1_455 S
C500 C506 1.405 . S
C501 C500 1.368 1_655 S
C501 C502 1.369 . S
C501 H514 0.950 . S
C502 C501 1.369 . S
C502 C503 1.392 . S
C502 H515 0.951 . S
C503 C502 1.392 . S
C503 C505 1.384 1_655 S
H504 C506 0.949 . S
C505 C503 1.384 1_455 S
C505 C506 1.385 . S
C505 H507 0.950 . S
C506 C500 1.405 . S
C506 H504 0.949 . S
C506 C505 1.385 . S
H507 C505 0.950 . S
H508 C492 0.951 . S
H509 C494 0.951 . S
H510 C496 0.951 . S
H511 C497 0.950 . S
H512 C498 0.950 . S
H513 C499 0.950 . S
H514 C501 0.950 . S
H515 C502 0.951 . S
C516 C517 1.386 . S
C516 C518 1.383 . S
C516 H532 0.951 . S
C517 C516 1.386 . S
C517 C521 1.383 . S
C518 C516 1.383 . S
C518 C519 1.402 . S
C518 H533 0.951 . S
C519 C518 1.402 . S
C519 C520 1.375 . S
C519 C522 1.481 . S
C520 C519 1.375 . S
C520 C521 1.367 . S
C520 H534 0.951 . S
C521 C517 1.383 . S
C521 C520 1.367 . S
C521 H535 0.950 . S
C522 C519 1.481 . S
C522 C523 1.297 . S
C522 H536 0.950 . S
C523 C522 1.297 . S
C523 C524 1.479 . S
C523 H537 0.950 . S
C524 C523 1.479 . S
C524 C525 1.375 . S
C524 C530 1.404 . S
C525 C524 1.375 . S
C525 C526 1.369 . S
C525 H538 0.950 . S
C526 C525 1.369 . S
C526 C527 1.392 . S
C526 H539 0.951 . S
C527 C526 1.392 . S
C527 C529 1.384 . S
H528 C530 0.949 . S
C529 C527 1.384 . S
C529 C530 1.385 . S
C529 H531 0.950 . S
C530 C524 1.404 . S
C530 H528 0.949 . S
C530 C529 1.385 . S
H531 C529 0.950 . S
H532 C516 0.951 . S
H533 C518 0.951 . S
H534 C520 0.951 . S
H535 C521 0.950 . S
H536 C522 0.950 . S
H537 C523 0.950 . S
H538 C525 0.950 . S
H539 C526 0.951 . S
C540 C541 1.386 . S
C540 C542 1.383 . S
C540 H556 0.951 . S
C541 C540 1.386 . S
C541 C545 1.383 . S
C542 C540 1.383 . S
C542 C543 1.402 1_545 S
C542 H557 0.951 . S
C543 C542 1.402 1_565 S
C543 C544 1.375 . S
C543 C546 1.481 . S
C544 C543 1.375 . S
C544 C545 1.367 1_565 S
C544 H558 0.951 . S
C545 C541 1.383 . S
C545 C544 1.367 1_545 S
C545 H559 0.950 . S
C546 C543 1.481 . S
C546 C547 1.297 1_556 S
C546 H560 0.950 . S
C547 C546 1.297 1_554 S
C547 C548 1.479 . S
C547 H561 0.950 . S
C548 C547 1.479 . S
C548 C549 1.375 . S
C548 C554 1.404 . S
C549 C548 1.375 . S
C549 C550 1.369 . S
C549 H562 0.950 . S
C550 C549 1.369 . S
C550 C551 1.392 . S
C550 H563 0.951 . S
C551 C550 1.392 . S
C551 C553 1.384 . S
H552 C554 0.949 . S
C553 C551 1.384 . S
C553 C554 1.385 . S
C553 H555 0.950 . S
C554 C548 1.404 . S
C554 H552 0.949 . S
C554 C553 1.385 . S
H555 C553 0.950 . S
H556 C540 0.951 . S
H557 C542 0.951 . S
H558 C544 0.951 . S
H559 C545 0.950 . S
H560 C546 0.950 . S
H561 C547 0.950 . S
H562 C549 0.950 . S
H563 C550 0.951 . S
C205 C2 1.945 . S
C215 C172 1.950 . S
C229 C104 1.945 . S
C239 C36 1.950 . S
C253 C138 1.953 . S
C263 C70 1.938 . S
C277 C203 1.494 . S
C287 C5 1.461 . S
C301 C135 1.493 . S
C311 C39 1.450 1_565 S
C325 C73 1.469 1_455 S
C335 C169 1.484 . S
C349 C67 1.494 . S
C359 C107 1.461 . S
C373 C101 1.495 . S
C383 C141 1.468 1_545 S
C397 C175 1.473 1_655 S
C407 C33 1.485 . S
C421 C156 1.287 . S
C431 C9 1.236 . S
C445 C43 1.282 . S
C455 C190 1.279 . S
C469 C122 1.289 . S
C479 C77 1.220 . S
C493 C111 1.223 . S
C503 C88 1.283 . S
C517 C20 1.289 . S
C527 C145 1.247 . S
C541 C54 1.287 . S
C551 C179 1.297 . S
