# Generated by pormake.
# Topology wiv, (6)-cn, num edge types: 1
# Building blocks:
#     Node 0, Type 0, BuildingBlock: BETDIP_clean_sbu_0, # of connection points: 6
#     Node 1, Type 0, BuildingBlock: BETDIP_clean_sbu_0, # of connection points: 6
#     Node 2, Type 0, BuildingBlock: BETDIP_clean_sbu_0, # of connection points: 6
#     Node 3, Type 0, BuildingBlock: BETDIP_clean_sbu_0, # of connection points: 6
#     Node 4, Type 0, BuildingBlock: BETDIP_clean_sbu_0, # of connection points: 6
#     Node 5, Type 0, BuildingBlock: BETDIP_clean_sbu_0, # of connection points: 6
#     Node 6, Type 0, BuildingBlock: BETDIP_clean_sbu_0, # of connection points: 6
#     Node 7, Type 0, BuildingBlock: BETDIP_clean_sbu_0, # of connection points: 6
#     Node 8, Type 0, BuildingBlock: BETDIP_clean_sbu_0, # of connection points: 6
#     Node 9, Type 0, BuildingBlock: BETDIP_clean_sbu_0, # of connection points: 6
#     Node 10, Type 0, BuildingBlock: BETDIP_clean_sbu_0, # of connection points: 6
#     Node 11, Type 0, BuildingBlock: BETDIP_clean_sbu_0, # of connection points: 6
#     Node 12, Type 0, BuildingBlock: BETDIP_clean_sbu_0, # of connection points: 6
#     Node 13, Type 0, BuildingBlock: BETDIP_clean_sbu_0, # of connection points: 6
#     Node 14, Type 0, BuildingBlock: BETDIP_clean_sbu_0, # of connection points: 6
#     Node 15, Type 0, BuildingBlock: BETDIP_clean_sbu_0, # of connection points: 6
#     Edge 16, Type (0, 0), BuildingBlock: TEMPAE_clean_linker_10, # of connection points: 2
#     Edge 17, Type (0, 0), BuildingBlock: TEMPAE_clean_linker_10, # of connection points: 2
#     Edge 18, Type (0, 0), BuildingBlock: TEMPAE_clean_linker_10, # of connection points: 2
#     Edge 19, Type (0, 0), BuildingBlock: TEMPAE_clean_linker_10, # of connection points: 2
#     Edge 20, Type (0, 0), BuildingBlock: TEMPAE_clean_linker_10, # of connection points: 2
#     Edge 21, Type (0, 0), BuildingBlock: TEMPAE_clean_linker_10, # of connection points: 2
#     Edge 22, Type (0, 0), BuildingBlock: TEMPAE_clean_linker_10, # of connection points: 2
#     Edge 23, Type (0, 0), BuildingBlock: TEMPAE_clean_linker_10, # of connection points: 2
#     Edge 24, Type (0, 0), BuildingBlock: TEMPAE_clean_linker_10, # of connection points: 2
#     Edge 25, Type (0, 0), BuildingBlock: TEMPAE_clean_linker_10, # of connection points: 2
#     Edge 26, Type (0, 0), BuildingBlock: TEMPAE_clean_linker_10, # of connection points: 2
#     Edge 27, Type (0, 0), BuildingBlock: TEMPAE_clean_linker_10, # of connection points: 2
#     Edge 28, Type (0, 0), BuildingBlock: TEMPAE_clean_linker_10, # of connection points: 2
#     Edge 29, Type (0, 0), BuildingBlock: TEMPAE_clean_linker_10, # of connection points: 2
#     Edge 30, Type (0, 0), BuildingBlock: TEMPAE_clean_linker_10, # of connection points: 2
#     Edge 31, Type (0, 0), BuildingBlock: TEMPAE_clean_linker_10, # of connection points: 2
#     Edge 32, Type (0, 0), BuildingBlock: TEMPAE_clean_linker_10, # of connection points: 2
#     Edge 33, Type (0, 0), BuildingBlock: TEMPAE_clean_linker_10, # of connection points: 2
#     Edge 34, Type (0, 0), BuildingBlock: TEMPAE_clean_linker_10, # of connection points: 2
#     Edge 35, Type (0, 0), BuildingBlock: TEMPAE_clean_linker_10, # of connection points: 2
#     Edge 36, Type (0, 0), BuildingBlock: TEMPAE_clean_linker_10, # of connection points: 2
#     Edge 37, Type (0, 0), BuildingBlock: TEMPAE_clean_linker_10, # of connection points: 2
#     Edge 38, Type (0, 0), BuildingBlock: TEMPAE_clean_linker_10, # of connection points: 2
#     Edge 39, Type (0, 0), BuildingBlock: TEMPAE_clean_linker_10, # of connection points: 2
#     Edge 40, Type (0, 0), BuildingBlock: TEMPAE_clean_linker_10, # of connection points: 2
#     Edge 41, Type (0, 0), BuildingBlock: TEMPAE_clean_linker_10, # of connection points: 2
#     Edge 42, Type (0, 0), BuildingBlock: TEMPAE_clean_linker_10, # of connection points: 2
#     Edge 43, Type (0, 0), BuildingBlock: TEMPAE_clean_linker_10, # of connection points: 2
#     Edge 44, Type (0, 0), BuildingBlock: TEMPAE_clean_linker_10, # of connection points: 2
#     Edge 45, Type (0, 0), BuildingBlock: TEMPAE_clean_linker_10, # of connection points: 2
#     Edge 46, Type (0, 0), BuildingBlock: TEMPAE_clean_linker_10, # of connection points: 2
#     Edge 47, Type (0, 0), BuildingBlock: TEMPAE_clean_linker_10, # of connection points: 2
#     Edge 48, Type (0, 0), BuildingBlock: TEMPAE_clean_linker_10, # of connection points: 2
#     Edge 49, Type (0, 0), BuildingBlock: TEMPAE_clean_linker_10, # of connection points: 2
#     Edge 50, Type (0, 0), BuildingBlock: TEMPAE_clean_linker_10, # of connection points: 2
#     Edge 51, Type (0, 0), BuildingBlock: TEMPAE_clean_linker_10, # of connection points: 2
#     Edge 52, Type (0, 0), BuildingBlock: TEMPAE_clean_linker_10, # of connection points: 2
#     Edge 53, Type (0, 0), BuildingBlock: TEMPAE_clean_linker_10, # of connection points: 2
#     Edge 54, Type (0, 0), BuildingBlock: TEMPAE_clean_linker_10, # of connection points: 2
#     Edge 55, Type (0, 0), BuildingBlock: TEMPAE_clean_linker_10, # of connection points: 2
#     Edge 56, Type (0, 0), BuildingBlock: TEMPAE_clean_linker_10, # of connection points: 2
#     Edge 57, Type (0, 0), BuildingBlock: TEMPAE_clean_linker_10, # of connection points: 2
#     Edge 58, Type (0, 0), BuildingBlock: TEMPAE_clean_linker_10, # of connection points: 2
#     Edge 59, Type (0, 0), BuildingBlock: TEMPAE_clean_linker_10, # of connection points: 2
#     Edge 60, Type (0, 0), BuildingBlock: TEMPAE_clean_linker_10, # of connection points: 2
#     Edge 61, Type (0, 0), BuildingBlock: TEMPAE_clean_linker_10, # of connection points: 2
#     Edge 62, Type (0, 0), BuildingBlock: TEMPAE_clean_linker_10, # of connection points: 2
#     Edge 63, Type (0, 0), BuildingBlock: TEMPAE_clean_linker_10, # of connection points: 2
# Relax obj value: 0.127
# Max RMSD: 0.183
# Mean RMSD: 0.183
data_MOF--net-wiv--node1-BETDIP_clean_sbu_0--edge1-TEMPAE_clean_linker_10
_symmetry_space_group_name_H-M    P1
_symmetry_Int_Tables_number       1
_symmetry_cell_setting            triclinic
loop_
_symmetry_equiv_pos_as_xyz
'x, y, z'
_cell_length_a     51.314201
_cell_length_b     51.367239
_cell_length_c     25.011933
_cell_angle_alpha  89.891011
_cell_angle_beta   90.05761
_cell_angle_gamma 90.03005
loop_
_atom_site_label
_atom_site_type_symbol
_atom_site_fract_x
_atom_site_fract_y
_atom_site_fract_z
_atom_type_partial_charge
Tb0 Tb 0.34771 0.11204 0.15178 0.0
Tb1 Tb 0.38526 0.11219 0.06235 0.0
C2 C 0.32566 0.10299 0.24025 0.0
C3 C 0.33283 0.103 0.29772 0.0
C4 C 0.35697 0.09352 0.316 0.0
C5 C 0.36312 0.09395 0.37074 0.0
C6 C 0.34522 0.10375 0.40842 0.0
C7 C 0.32112 0.11322 0.38971 0.0
C8 C 0.31504 0.11284 0.33512 0.0
C9 C 0.35439 0.15862 0.10767 0.0
C10 C 0.40964 0.12079 0.17381 0.0
C11 C 0.40687 0.12032 0.97335 0.0
C12 C 0.39923 0.11782 0.91624 0.0
C13 C 0.37524 0.12727 0.89696 0.0
C14 C 0.36876 0.12503 0.84261 0.0
C15 C 0.38602 0.11313 0.80637 0.0
C16 C 0.40981 0.10337 0.826 0.0
C17 C 0.41634 0.10577 0.88021 0.0
C18 C 0.38155 0.06741 0.11388 0.0
C19 C 0.32404 0.10503 0.03705 0.0
O20 O 0.33594 0.08495 0.21005 0.0
O21 O 0.32536 0.12563 0.21645 0.0
O22 O 0.37175 0.14169 0.11652 0.0
O23 O 0.33229 0.14919 0.12369 0.0
O24 O 0.38632 0.11393 0.19255 0.0
O25 O 0.41326 0.12476 0.12207 0.0
O26 O 0.39533 0.13849 1.00141 0.0
O27 O 0.40924 0.09857 1.00021 0.0
O28 O 0.36285 0.08241 0.1017 0.0
O29 O 0.40289 0.0766 0.09359 0.0
O30 O 0.34793 0.10962 1.0199 0.0
O31 O 0.31892 0.10299 0.08894 0.0
H32 H 0.37107 0.08574 0.28807 0.0
H33 H 0.38175 0.08628 0.38359 0.0
H34 H 0.30701 0.12129 0.41724 0.0
H35 H 0.29636 0.12035 0.32202 0.0
H36 H 0.36148 0.13646 0.92376 0.0
H37 H 0.35013 0.13244 0.82901 0.0
H38 H 0.42365 0.0943 0.79921 0.0
H39 H 0.43492 0.0983 0.89399 0.0
Tb40 Tb 0.1094 0.62061 0.98202 0.0
Tb41 Tb 0.10801 0.65842 0.89319 0.0
C42 C 0.11714 0.59808 0.07047 0.0
C43 C 0.11593 0.60514 0.12815 0.0
C44 C 0.13106 0.6254 0.14985 0.0
C45 C 0.12949 0.63151 0.20447 0.0
C46 C 0.11286 0.61748 0.23882 0.0
C47 C 0.09781 0.59719 0.21692 0.0
C48 C 0.09935 0.59112 0.16239 0.0
C49 C 0.06377 0.62488 0.93328 0.0
C50 C 0.10342 0.68167 1.00819 0.0
C51 C 0.0986 0.67994 0.80425 0.0
C52 C 0.0999 0.67232 0.74683 0.0
C53 C 0.0832 0.65332 0.72497 0.0
C54 C 0.08447 0.64699 0.67042 0.0
C55 C 0.10251 0.65939 0.63638 0.0
C56 C 0.1192 0.67829 0.65846 0.0
C57 C 0.11784 0.68472 0.71282 0.0
C58 C 0.15516 0.65167 0.93509 0.0
C59 C 0.11638 0.59659 0.87013 0.0
O60 O 0.13574 0.60839 0.04146 0.0
O61 O 0.09492 0.59759 0.04491 0.0
O62 O 0.07907 0.64336 0.94495 0.0
O63 O 0.0733 0.60339 0.95202 0.0
O64 O 0.11061 0.65814 1.02376 0.0
O65 O 0.09787 0.68632 0.95712 0.0
O66 O 0.08082 0.66883 0.83397 0.0
O67 O 0.12078 0.68208 0.82956 0.0
O68 O 0.13824 0.63429 0.92632 0.0
O69 O 0.14551 0.67378 0.91978 0.0
O70 O 0.10911 0.61992 0.85218 0.0
O71 O 0.12133 0.59286 0.92149 0.0
H72 H 0.14422 0.63648 0.12477 0.0
H73 H 0.1417 0.64694 0.22002 0.0
H74 H 0.08456 0.58613 0.24185 0.0
H75 H 0.08749 0.57539 0.14688 0.0
H76 H 0.0691 0.64334 0.74988 0.0
H77 H 0.07147 0.63217 0.655 0.0
H78 H 0.13308 0.68851 0.63345 0.0
H79 H 0.13079 0.69958 0.72828 0.0
Tb80 Tb 0.66198 0.90398 0.17372 0.0
Tb81 Tb 0.62488 0.89568 0.07593 0.0
C82 C 0.68077 0.92459 0.25638 0.0
C83 C 0.6778 0.91896 0.31411 0.0
C84 C 0.69172 0.93344 0.35211 0.0
C85 C 0.6878 0.92918 0.40698 0.0
C86 C 0.66966 0.91051 0.42498 0.0
C87 C 0.65592 0.8959 0.38657 0.0
C88 C 0.66003 0.90001 0.33178 0.0
C89 C 0.65379 0.85336 0.15844 0.0
C90 C 0.60055 0.88971 0.18873 0.0
C91 C 0.60623 0.88333 0.98621 0.0
C92 C 0.61599 0.88412 0.9304 0.0
C93 C 0.60542 0.86735 0.89184 0.0
C94 C 0.61323 0.86906 0.83819 0.0
C95 C 0.63178 0.88767 0.82182 0.0
C96 C 0.64283 0.90401 0.86093 0.0
C97 C 0.63502 0.90227 0.91453 0.0
C98 C 0.62643 0.94276 0.11918 0.0
C99 C 0.68666 0.90391 0.0567 0.0
O100 O 0.65956 0.93281 0.2325 0.0
O101 O 0.69324 0.90714 0.22785 0.0
O102 O 0.6454 0.87232 0.13143 0.0
O103 O 0.6683 0.86304 0.1958 0.0
O104 O 0.62213 0.90087 0.20791 0.0
O105 O 0.59848 0.88239 0.13802 0.0
O106 O 0.61724 0.86654 1.0187 0.0
O107 O 0.6026 0.90596 1.00899 0.0
O108 O 0.64542 0.92747 0.11245 0.0
O109 O 0.60571 0.93216 0.09885 0.0
O110 O 0.66322 0.89782 0.03844 0.0
O111 O 0.69089 0.90917 0.10832 0.0
H112 H 0.70536 0.9483 0.33936 0.0
H113 H 0.69851 0.94098 0.43533 0.0
H114 H 0.64203 0.88118 0.39885 0.0
H115 H 0.64911 0.88855 0.30316 0.0
H116 H 0.59069 0.85324 0.90304 0.0
H117 H 0.60413 0.8563 0.80922 0.0
H118 H 0.65746 0.91826 0.85004 0.0
H119 H 0.64358 0.91542 0.94343 0.0
Tb120 Tb 0.89634 0.38546 0.97857 0.0
Tb121 Tb 0.89848 0.34848 0.88879 0.0
C122 C 0.88843 0.40769 0.06702 0.0
C123 C 0.88918 0.40033 0.12441 0.0
C124 C 0.878 0.37708 0.14336 0.0
C125 C 0.87948 0.37046 0.19777 0.0
C126 C 0.89199 0.38706 0.23455 0.0
C127 C 0.90313 0.41031 0.21526 0.0
C128 C 0.90174 0.41682 0.16093 0.0
C129 C 0.94224 0.38165 0.93097 0.0
C130 C 0.9025 0.32438 1.00303 0.0
C131 C 0.90893 0.32715 0.80043 0.0
C132 C 0.90701 0.33408 0.74282 0.0
C133 C 0.91969 0.35606 0.72136 0.0
C134 C 0.91802 0.36171 0.66654 0.0
C135 C 0.90358 0.3456 0.6319 0.0
C136 C 0.89083 0.32375 0.65362 0.0
C137 C 0.8926 0.31804 0.70829 0.0
C138 C 0.85115 0.35433 0.92995 0.0
C139 C 0.88904 0.41035 0.86713 0.0
O140 O 0.86986 0.39772 0.03747 0.0
O141 O 0.91085 0.4078 0.0423 0.0
O142 O 0.92698 0.36308 0.94203 0.0
O143 O 0.9324 0.40306 0.94915 0.0
O144 O 0.89442 0.3475 1.01907 0.0
O145 O 0.90907 0.32051 0.95231 0.0
O146 O 0.926 0.33978 0.82936 0.0
O147 O 0.88698 0.32378 0.82595 0.0
O148 O 0.86787 0.37197 0.92201 0.0
O149 O 0.86097 0.33249 0.91376 0.0
O150 O 0.89642 0.38723 0.84838 0.0
O151 O 0.88432 0.41361 0.91866 0.0
H152 H 0.86804 0.36407 0.1162 0.0
H153 H 0.87045 0.35254 0.21114 0.0
H154 H 0.91326 0.42339 0.2421 0.0
H155 H 0.91062 0.4348 0.14733 0.0
H156 H 0.93092 0.36891 0.74682 0.0
H157 H 0.92785 0.37886 0.65134 0.0
H158 H 0.87981 0.31074 0.62813 0.0
H159 H 0.88279 0.3009 0.72363 0.0
Tb160 Tb 0.34875 0.39846 0.14432 0.0
Tb161 Tb 0.38639 0.3969 0.23327 0.0
C162 C 0.3274 0.40834 0.05546 0.0
C163 C 0.33493 0.40683 0.99802 0.0
C164 C 0.35363 0.42373 0.97561 0.0
C165 C 0.35985 0.42236 0.92103 0.0
C166 C 0.34762 0.40403 0.88748 0.0
C167 C 0.32903 0.38713 0.91008 0.0
C168 C 0.32271 0.3886 0.96449 0.0
C169 C 0.35521 0.35121 0.18554 0.0
C170 C 0.41064 0.38938 0.12168 0.0
C171 C 0.40893 0.38938 0.32176 0.0
C172 C 0.4018 0.39053 0.37938 0.0
C173 C 0.38158 0.3753 0.40104 0.0
C174 C 0.37541 0.37682 0.45563 0.0
C175 C 0.38933 0.39353 0.48997 0.0
C176 C 0.40954 0.4087 0.46808 0.0
C177 C 0.41569 0.40719 0.41359 0.0
C178 C 0.38239 0.44246 0.18405 0.0
C179 C 0.3253 0.40285 0.25925 0.0
O180 O 0.33902 0.42582 0.08502 0.0
O181 O 0.3247 0.38626 0.0809 0.0
O182 O 0.37272 0.3681 0.17755 0.0
O183 O 0.33316 0.36099 0.17014 0.0
O184 O 0.38734 0.39664 0.10338 0.0
O185 O 0.41427 0.38474 0.17317 0.0
O186 O 0.39881 0.3707 0.29277 0.0
O187 O 0.40922 0.41159 0.29619 0.0
O188 O 0.36384 0.42731 0.1961 0.0
O189 O 0.40386 0.43279 0.20262 0.0
O190 O 0.34879 0.39552 0.27487 0.0
O191 O 0.32077 0.40857 0.20821 0.0
H192 H 0.36345 0.43808 1.00012 0.0
H193 H 0.37443 0.43553 0.9052 0.0
H194 H 0.31895 0.37303 0.88544 0.0
H195 H 0.30806 0.3755 0.98034 0.0
H196 H 0.37059 0.3621 0.37594 0.0
H197 H 0.36002 0.36453 0.47116 0.0
H198 H 0.4205 0.42202 0.49299 0.0
H199 H 0.43138 0.41914 0.39809 0.0
Tb200 Tb 0.39423 0.62204 0.81719 0.0
Tb201 Tb 0.39624 0.65939 0.90635 0.0
C202 C 0.38587 0.5997 0.72896 0.0
C203 C 0.38687 0.60684 0.67134 0.0
C204 C 0.37374 0.62874 0.65086 0.0
C205 C 0.37532 0.63508 0.59632 0.0
C206 C 0.38987 0.61955 0.56085 0.0
C207 C 0.40289 0.59761 0.58156 0.0
C208 C 0.40141 0.59137 0.63604 0.0
C209 C 0.44015 0.62597 0.86481 0.0
C210 C 0.40063 0.68319 0.79159 0.0
C211 C 0.4063 0.68073 0.99498 0.0
C212 C 0.40455 0.67343 0.05251 0.0
C213 C 0.41891 0.65254 0.07415 0.0
C214 C 0.41732 0.64652 0.12884 0.0
C215 C 0.40126 0.66114 0.1632 0.0
C216 C 0.38686 0.6819 0.14133 0.0
C217 C 0.38856 0.688 0.0868 0.0
C218 C 0.34881 0.65284 0.86558 0.0
C219 C 0.38758 0.59751 0.92919 0.0
O220 O 0.3675 0.61017 0.75826 0.0
O221 O 0.40822 0.59906 0.75399 0.0
O222 O 0.42488 0.64455 0.85371 0.0
O223 O 0.4304 0.60458 0.84618 0.0
O224 O 0.39297 0.65985 0.77578 0.0
O225 O 0.4066 0.6874 0.84258 0.0
O226 O 0.42365 0.66871 0.96579 0.0
O227 O 0.38428 0.6837 0.96942 0.0
O228 O 0.36576 0.63544 0.87372 0.0
O229 O 0.35855 0.67488 0.88098 0.0
O230 O 0.39487 0.62079 0.94729 0.0
O231 O 0.3826 0.59397 0.8778 0.0
H232 H 0.36214 0.6409 0.67689 0.0
H233 H 0.36477 0.65191 0.58175 0.0
H234 H 0.41453 0.58537 0.55572 0.0
H235 H 0.41173 0.5744 0.6507 0.0
H236 H 0.43143 0.64084 0.04896 0.0
H237 H 0.42848 0.63023 0.14412 0.0
H238 H 0.37457 0.6938 0.16659 0.0
H239 H 0.37743 0.7043 0.07142 0.0
Tb240 Tb 0.66048 0.61032 0.13077 0.0
Tb241 Tb 0.62405 0.61348 0.22217 0.0
C242 C 0.68128 0.59838 0.04259 0.0
C243 C 0.67374 0.59923 0.98553 0.0
C244 C 0.68578 0.58233 0.9492 0.0
C245 C 0.67972 0.58351 0.89461 0.0
C246 C 0.66139 0.6016 0.87513 0.0
C247 C 0.64894 0.61816 0.91197 0.0
C248 C 0.6551 0.61703 0.96657 0.0
C249 C 0.65568 0.65787 0.17001 0.0
C250 C 0.59856 0.62007 0.11071 0.0
C251 C 0.60319 0.62487 0.31032 0.0
C252 C 0.61042 0.62235 0.36741 0.0
C253 C 0.60026 0.63996 0.40474 0.0
C254 C 0.60657 0.63774 0.45908 0.0
C255 C 0.6232 0.61781 0.47736 0.0
C256 C 0.63354 0.6003 0.43964 0.0
C257 C 0.62723 0.60257 0.38525 0.0
C258 C 0.62687 0.56726 0.1763 0.0
C259 C 0.68532 0.6047 0.24524 0.0
O260 O 0.66869 0.58183 0.07276 0.0
O261 O 0.68441 0.62082 0.06628 0.0
O262 O 0.63758 0.64137 0.16433 0.0
O263 O 0.67716 0.64774 0.15255 0.0
O264 O 0.62153 0.61249 0.09146 0.0
O265 O 0.59569 0.62522 0.16218 0.0
O266 O 0.61698 0.64133 0.28199 0.0
O267 O 0.59875 0.60318 0.2845 0.0
O268 O 0.6457 0.58252 0.18554 0.0
O269 O 0.60583 0.57708 0.19655 0.0
O270 O 0.66179 0.61028 0.26342 0.0
O271 O 0.6896 0.60149 0.19327 0.0
H272 H 0.70009 0.56834 0.96301 0.0
H273 H 0.68938 0.57017 0.86763 0.0
H274 H 0.63489 0.63246 0.89846 0.0
H275 H 0.64558 0.63032 0.99385 0.0
H276 H 0.58726 0.65536 0.39188 0.0
H277 H 0.59801 0.65139 0.48694 0.0
H278 H 0.64668 0.58494 0.45211 0.0
H279 H 0.63539 0.58879 0.35717 0.0
Tb280 Tb 0.61138 0.38424 0.82021 0.0
Tb281 Tb 0.61041 0.34734 0.91109 0.0
C282 C 0.62037 0.40601 0.73168 0.0
C283 C 0.61858 0.39869 0.6745 0.0
C284 C 0.62537 0.37367 0.65645 0.0
C285 C 0.62344 0.36733 0.60205 0.0
C286 C 0.61469 0.38586 0.56446 0.0
C287 C 0.60772 0.41078 0.58297 0.0
C288 C 0.60967 0.41709 0.63727 0.0
C289 C 0.56612 0.3809 0.86985 0.0
C290 C 0.60404 0.32303 0.79724 0.0
C291 C 0.60111 0.32541 0.99953 0.0
C292 C 0.60184 0.33236 0.057 0.0
C293 C 0.59139 0.35585 0.07627 0.0
C294 C 0.59245 0.36175 0.131 0.0
C295 C 0.60406 0.34434 0.16757 0.0
C296 C 0.61442 0.32087 0.14794 0.0
C297 C 0.61329 0.31497 0.09339 0.0
C298 C 0.65715 0.35354 0.86722 0.0
C299 C 0.61904 0.40919 0.93167 0.0
O300 O 0.63827 0.39438 0.76048 0.0
O301 O 0.59824 0.40802 0.75723 0.0
O302 O 0.58124 0.36213 0.85923 0.0
O303 O 0.57549 0.40205 0.84913 0.0
O304 O 0.60973 0.34649 0.77899 0.0
O305 O 0.60065 0.31864 0.84905 0.0
O306 O 0.58326 0.33649 0.96985 0.0
O307 O 0.62359 0.32427 0.97519 0.0
O308 O 0.64036 0.37098 0.87585 0.0
O309 O 0.64767 0.33162 0.88403 0.0
O310 O 0.61202 0.38604 0.95095 0.0
O311 O 0.62348 0.41244 0.87997 0.0
H312 H 0.63231 0.35904 0.68423 0.0
H313 H 0.62922 0.34803 0.58937 0.0
H314 H 0.60046 0.42542 0.55554 0.0
H315 H 0.60415 0.43643 0.65025 0.0
H316 H 0.58248 0.36969 0.04912 0.0
H317 H 0.58451 0.38011 0.14457 0.0
H318 H 0.62316 0.30684 0.17491 0.0
H319 H 0.62137 0.2967 0.07955 0.0
Tb320 Tb 0.84603 0.612 0.65868 0.0
Tb321 Tb 0.88321 0.61258 0.56861 0.0
C322 C 0.824 0.60283 0.74706 0.0
C323 C 0.83099 0.60325 0.8046 0.0
C324 C 0.85437 0.59243 0.82394 0.0
C325 C 0.86035 0.59333 0.87871 0.0
C326 C 0.84314 0.60514 0.91526 0.0
C327 C 0.81976 0.61583 0.89557 0.0
C328 C 0.81379 0.61487 0.84099 0.0
C329 C 0.85256 0.65868 0.61497 0.0
C330 C 0.90797 0.62027 0.6804 0.0
C331 C 0.9048 0.62183 0.48008 0.0
C332 C 0.89746 0.61961 0.42288 0.0
C333 C 0.87239 0.62619 0.40447 0.0
C334 C 0.86609 0.62409 0.35005 0.0
C335 C 0.88469 0.61536 0.31272 0.0
C336 C 0.90965 0.60852 0.33161 0.0
C337 C 0.91593 0.61066 0.38594 0.0
C338 C 0.87977 0.56754 0.61901 0.0
C339 C 0.82189 0.60512 0.54431 0.0
O340 O 0.83466 0.58487 0.71721 0.0
O341 O 0.82331 0.62538 0.72292 0.0
O342 O 0.86997 0.64179 0.62359 0.0
O343 O 0.83053 0.64926 0.6313 0.0
O344 O 0.88466 0.61352 0.69925 0.0
O345 O 0.91146 0.62451 0.62868 0.0
O346 O 0.89265 0.63949 0.50842 0.0
O347 O 0.90753 0.59992 0.50623 0.0
O348 O 0.86099 0.5826 0.60773 0.0
O349 O 0.90097 0.57678 0.59819 0.0
O350 O 0.84569 0.60956 0.52641 0.0
O351 O 0.81706 0.60307 0.59627 0.0
H352 H 0.86806 0.58337 0.79679 0.0
H353 H 0.87863 0.58512 0.8923 0.0
H354 H 0.80587 0.62472 0.92249 0.0
H355 H 0.79561 0.62324 0.82713 0.0
H356 H 0.8577 0.63315 0.43198 0.0
H357 H 0.84675 0.62977 0.33713 0.0
H358 H 0.92436 0.60127 0.30444 0.0
H359 H 0.93532 0.6053 0.39917 0.0
Tb360 Tb 0.61051 0.12542 0.47537 0.0
Tb361 Tb 0.60997 0.16276 0.38496 0.0
C362 C 0.61929 0.10401 0.5644 0.0
C363 C 0.61681 0.11148 0.62151 0.0
C364 C 0.62478 0.13605 0.64025 0.0
C365 C 0.62231 0.14249 0.69453 0.0
C366 C 0.61173 0.12456 0.73129 0.0
C367 C 0.6036 0.1001 0.71221 0.0
C368 C 0.60615 0.09365 0.65805 0.0
C369 C 0.56541 0.1291 0.42527 0.0
C370 C 0.60335 0.18677 0.4993 0.0
C371 C 0.60082 0.18492 0.29654 0.0
C372 C 0.60038 0.17787 0.23911 0.0
C373 C 0.59192 0.15331 0.2214 0.0
C374 C 0.59221 0.14715 0.16671 0.0
C375 C 0.60074 0.1655 0.12857 0.0
C376 C 0.60899 0.19011 0.14664 0.0
C377 C 0.60885 0.19616 0.20121 0.0
C378 C 0.65655 0.15612 0.42935 0.0
C379 C 0.61813 0.10081 0.36386 0.0
O380 O 0.63717 0.11595 0.5361 0.0
O381 O 0.59748 0.10127 0.53789 0.0
O382 O 0.58063 0.14779 0.43618 0.0
O383 O 0.57453 0.10787 0.44615 0.0
O384 O 0.60822 0.16297 0.51683 0.0
O385 O 0.60092 0.19164 0.44737 0.0
O386 O 0.58278 0.17483 0.32714 0.0
O387 O 0.62363 0.18478 0.31974 0.0
O388 O 0.63964 0.13882 0.42028 0.0
O389 O 0.64728 0.17817 0.41271 0.0
O390 O 0.61118 0.12405 0.34492 0.0
O391 O 0.62262 0.09736 0.41551 0.0
H392 H 0.63293 0.15031 0.61306 0.0
H393 H 0.62845 0.16163 0.70763 0.0
H394 H 0.59564 0.08571 0.73937 0.0
H395 H 0.59988 0.0746 0.64467 0.0
H396 H 0.58508 0.13889 0.24975 0.0
H397 H 0.58546 0.12812 0.15423 0.0
H398 H 0.61598 0.2046 0.11861 0.0
H399 H 0.6155 0.2152 0.21388 0.0
Tb400 Tb 0.16276 0.40238 0.67357 0.0
Tb401 Tb 0.12555 0.3934 0.5765 0.0
C402 C 0.18045 0.42346 0.75677 0.0
C403 C 0.17711 0.41909 0.81543 0.0
C404 C 0.15576 0.42997 0.84278 0.0
C405 C 0.15259 0.42619 0.89786 0.0
C406 C 0.17068 0.41144 0.92745 0.0
C407 C 0.19208 0.40058 0.90019 0.0
C408 C 0.19532 0.40446 0.84497 0.0
C409 C 0.15662 0.35155 0.65716 0.0
C410 C 0.10174 0.38655 0.68947 0.0
C411 C 0.10561 0.38181 0.48747 0.0
C412 C 0.11386 0.38224 0.43055 0.0
C413 C 0.1379 0.37204 0.41362 0.0
C414 C 0.14554 0.37393 0.3598 0.0
C415 C 0.12919 0.38585 0.32163 0.0
C416 C 0.10506 0.39581 0.33885 0.0
C417 C 0.09754 0.39403 0.39253 0.0
C418 C 0.12615 0.44039 0.62047 0.0
C419 C 0.18713 0.40249 0.55659 0.0
O420 O 0.15984 0.43175 0.73093 0.0
O421 O 0.19339 0.40588 0.7294 0.0
O422 O 0.14664 0.37026 0.63162 0.0
O423 O 0.17166 0.36167 0.69314 0.0
O424 O 0.12324 0.39784 0.70864 0.0
O425 O 0.09963 0.37941 0.6387 0.0
O426 O 0.11642 0.36466 0.51953 0.0
O427 O 0.10326 0.40463 0.51004 0.0
O428 O 0.14548 0.42564 0.61282 0.0
O429 O 0.10556 0.42917 0.6012 0.0
O430 O 0.16397 0.39513 0.5386 0.0
O431 O 0.19111 0.40878 0.60778 0.0
H432 H 0.14132 0.44141 0.82163 0.0
H433 H 0.13569 0.43459 0.91717 0.0
H434 H 0.20657 0.38936 0.9217 0.0
H435 H 0.21213 0.39601 0.82542 0.0
H436 H 0.15078 0.36265 0.44193 0.0
H437 H 0.16412 0.3658 0.34799 0.0
H438 H 0.0921 0.40546 0.31096 0.0
H439 H 0.07896 0.40216 0.40452 0.0
Tb440 Tb 0.3936 0.88422 0.4726 0.0
Tb441 Tb 0.39922 0.84801 0.38241 0.0
C442 C 0.38314 0.90571 0.56073 0.0
C443 C 0.38463 0.89861 0.61827 0.0
C444 C 0.37339 0.87563 0.63848 0.0
C445 C 0.37553 0.86931 0.69294 0.0
C446 C 0.38875 0.88594 0.72858 0.0
C447 C 0.39989 0.90895 0.70811 0.0
C448 C 0.39785 0.91517 0.65372 0.0
C449 C 0.44091 0.88172 0.4302 0.0
C450 C 0.40153 0.82337 0.49693 0.0
C451 C 0.41267 0.82796 0.29448 0.0
C452 C 0.41005 0.83465 0.23677 0.0
C453 C 0.42278 0.85635 0.21423 0.0
C454 C 0.42045 0.86186 0.15945 0.0
C455 C 0.4053 0.84587 0.12587 0.0
C456 C 0.39256 0.82425 0.14859 0.0
C457 C 0.395 0.81868 0.20322 0.0
C458 C 0.35057 0.85179 0.41709 0.0
C459 C 0.38807 0.90963 0.36125 0.0
O460 O 0.3658 0.89377 0.53111 0.0
O461 O 0.40543 0.90824 0.53607 0.0
O462 O 0.42579 0.86281 0.43923 0.0
O463 O 0.43004 0.90278 0.44753 0.0
O464 O 0.39235 0.84614 0.51254 0.0
O465 O 0.40934 0.82004 0.44671 0.0
O466 O 0.42792 0.8426 0.32363 0.0
O467 O 0.39125 0.82185 0.3198 0.0
O468 O 0.36678 0.87027 0.41292 0.0
O469 O 0.36167 0.83064 0.40059 0.0
O470 O 0.39664 0.88689 0.34273 0.0
O471 O 0.3819 0.91233 0.41226 0.0
H472 H 0.36286 0.86259 0.6123 0.0
H473 H 0.36645 0.85159 0.70729 0.0
H474 H 0.41052 0.92206 0.73405 0.0
H475 H 0.40673 0.93297 0.63924 0.0
H476 H 0.43459 0.8691 0.23878 0.0
H477 H 0.43032 0.87881 0.14348 0.0
H478 H 0.38103 0.81132 0.12391 0.0
H479 H 0.38517 0.80171 0.21927 0.0
Tb480 Tb 0.84779 0.89974 0.64393 0.0
Tb481 Tb 0.88543 0.89684 0.73309 0.0
C482 C 0.8264 0.91046 0.55545 0.0
C483 C 0.83339 0.90862 0.49776 0.0
C484 C 0.85438 0.9227 0.47576 0.0
C485 C 0.86009 0.92107 0.42095 0.0
C486 C 0.84504 0.90528 0.38676 0.0
C487 C 0.82414 0.89119 0.409 0.0
C488 C 0.81837 0.89291 0.46366 0.0
C489 C 0.85381 0.85211 0.68359 0.0
C490 C 0.90958 0.89054 0.62093 0.0
C491 C 0.9076 0.88835 0.82163 0.0
C492 C 0.90016 0.88947 0.87905 0.0
C493 C 0.87722 0.87781 0.89848 0.0
C494 C 0.87058 0.87958 0.95284 0.0
C495 C 0.88681 0.89291 0.98918 0.0
C496 C 0.90972 0.90455 0.9694 0.0
C497 C 0.91628 0.90284 0.91513 0.0
C498 C 0.88174 0.94295 0.68614 0.0
C499 C 0.82447 0.90349 0.75883 0.0
O500 O 0.83902 0.92741 0.58459 0.0
O501 O 0.82291 0.88852 0.58099 0.0
O502 O 0.87149 0.86885 0.67605 0.0
O503 O 0.83188 0.86212 0.66818 0.0
O504 O 0.88635 0.89822 0.6031 0.0
O505 O 0.91319 0.88512 0.67217 0.0
O506 O 0.89713 0.87005 0.79214 0.0
O507 O 0.90846 0.91067 0.79652 0.0
O508 O 0.8631 0.92777 0.69729 0.0
O509 O 0.90312 0.93298 0.70444 0.0
O510 O 0.84765 0.89513 0.77411 0.0
O511 O 0.82024 0.91028 0.70825 0.0
H512 H 0.86642 0.93502 0.50077 0.0
H513 H 0.8765 0.932 0.40545 0.0
H514 H 0.81189 0.87912 0.38394 0.0
H515 H 0.80196 0.88202 0.47928 0.0
H516 H 0.86447 0.86723 0.87177 0.0
H517 H 0.85293 0.87013 0.96652 0.0
H518 H 0.92252 0.91532 0.99577 0.0
H519 H 0.934 0.91211 0.90124 0.0
Tb520 Tb 0.89563 0.12252 0.32051 0.0
Tb521 Tb 0.89799 0.15984 0.40977 0.0
C522 C 0.88714 0.10028 0.23224 0.0
C523 C 0.88828 0.10738 0.17462 0.0
C524 C 0.87474 0.12894 0.15373 0.0
C525 C 0.87634 0.13516 0.09915 0.0
C526 C 0.89138 0.11988 0.06405 0.0
C527 C 0.90485 0.09832 0.0852 0.0
C528 C 0.9033 0.09218 0.13971 0.0
C529 C 0.94159 0.12622 0.36791 0.0
C530 C 0.90238 0.18364 0.29528 0.0
C531 C 0.90831 0.18101 0.4984 0.0
C532 C 0.90651 0.17362 0.55587 0.0
C533 C 0.92148 0.15323 0.57775 0.0
C534 C 0.91981 0.1471 0.63237 0.0
C535 C 0.90307 0.16111 0.66641 0.0
C536 C 0.88806 0.18138 0.64431 0.0
C537 C 0.88984 0.18759 0.58987 0.0
C538 C 0.85064 0.15394 0.36852 0.0
C539 C 0.88863 0.09808 0.4324 0.0
O540 O 0.86885 0.11092 0.26146 0.0
O541 O 0.90946 0.09941 0.25737 0.0
O542 O 0.92642 0.14487 0.35684 0.0
O543 O 0.93169 0.10485 0.34958 0.0
O544 O 0.89461 0.16036 0.27934 0.0
O545 O 0.90847 0.18779 0.3462 0.0
O546 O 0.92556 0.16892 0.46907 0.0
O547 O 0.88629 0.1842 0.47291 0.0
O548 O 0.86729 0.13629 0.37687 0.0
O549 O 0.86056 0.17583 0.38432 0.0
O550 O 0.89618 0.12125 0.45057 0.0
O551 O 0.88364 0.09461 0.38101 0.0
H552 H 0.8628 0.14093 0.17945 0.0
H553 H 0.86543 0.15169 0.08425 0.0
H554 H 0.91689 0.0863 0.0597 0.0
H555 H 0.91395 0.07547 0.15468 0.0
H556 H 0.93454 0.142 0.55281 0.0
H557 H 0.93146 0.1312 0.64785 0.0
H558 H 0.87523 0.1928 0.66935 0.0
H559 H 0.87823 0.20351 0.57432 0.0
Tb560 Tb 0.16401 0.10489 0.6183 0.0
Tb561 Tb 0.12812 0.11322 0.71685 0.0
C562 C 0.18226 0.08304 0.53657 0.0
C563 C 0.17938 0.08768 0.47857 0.0
C564 C 0.19035 0.07027 0.44185 0.0
C565 C 0.18653 0.07376 0.38677 0.0
C566 C 0.17157 0.09475 0.36726 0.0
C567 C 0.1607 0.11221 0.40445 0.0
C568 C 0.16454 0.1087 0.45948 0.0
C569 C 0.15673 0.15562 0.6327 0.0
C570 C 0.10291 0.11974 0.60462 0.0
C571 C 0.10967 0.12678 0.80593 0.0
C572 C 0.11798 0.12432 0.8624 0.0
C573 C 0.1063 0.13992 0.90154 0.0
C574 C 0.11319 0.1372 0.9555 0.0
C575 C 0.13201 0.1188 0.97158 0.0
C576 C 0.14403 0.10349 0.93196 0.0
C577 C 0.13703 0.10616 0.87801 0.0
C578 C 0.12882 0.06619 0.67373 0.0
C579 C 0.18958 0.10343 0.73473 0.0
O580 O 0.16099 0.07542 0.56091 0.0
O581 O 0.19491 0.10085 0.56384 0.0
O582 O 0.14781 0.137 0.66033 0.0
O583 O 0.17111 0.14545 0.59571 0.0
O584 O 0.12419 0.10855 0.58448 0.0
O585 O 0.10145 0.12692 0.65546 0.0
O586 O 0.12366 0.14218 0.77553 0.0
O587 O 0.1036 0.10504 0.7817 0.0
O588 O 0.148 0.08132 0.67991 0.0
O589 O 0.10833 0.07692 0.69462 0.0
O590 O 0.16613 0.10756 0.75498 0.0
O591 O 0.19368 0.10091 0.68233 0.0
H592 H 0.2017 0.05382 0.45579 0.0
H593 H 0.19542 0.06008 0.35944 0.0
H594 H 0.14872 0.12832 0.3911 0.0
H595 H 0.15562 0.12219 0.48722 0.0
H596 H 0.09163 0.1541 0.89041 0.0
H597 H 0.10382 0.14962 0.98465 0.0
H598 H 0.15842 0.08897 0.94274 0.0
H599 H 0.14622 0.09374 0.84864 0.0
Tb600 Tb 0.11231 0.88071 0.3256 0.0
Tb601 Tb 0.10299 0.84397 0.42281 0.0
C602 C 0.12406 0.90054 0.23646 0.0
C603 C 0.12347 0.89232 0.17953 0.0
C604 C 0.13343 0.86822 0.16252 0.0
C605 C 0.13142 0.86063 0.10872 0.0
C606 C 0.11963 0.87711 0.0706 0.0
C607 C 0.10991 0.9013 0.08788 0.0
C608 C 0.1118 0.90876 0.14157 0.0
C609 C 0.06505 0.88025 0.36868 0.0
C610 C 0.10346 0.81921 0.30616 0.0
C611 C 0.08162 0.8263 0.50579 0.0
C612 C 0.08596 0.8296 0.56446 0.0
C613 C 0.07553 0.85121 0.59164 0.0
C614 C 0.0793 0.85434 0.64672 0.0
C615 C 0.09363 0.83598 0.67646 0.0
C616 C 0.10407 0.81435 0.64937 0.0
C617 C 0.10017 0.81113 0.59416 0.0
C618 C 0.15398 0.8505 0.40875 0.0
C619 C 0.11857 0.90496 0.4381 0.0
O620 O 0.1411 0.8895 0.2684 0.0
O621 O 0.10129 0.90317 0.25921 0.0
O622 O 0.07983 0.86089 0.36157 0.0
O623 O 0.07645 0.90076 0.34954 0.0
O624 O 0.11069 0.84234 0.28793 0.0
O625 O 0.09716 0.81534 0.35739 0.0
O626 O 0.07345 0.84694 0.4799 0.0
O627 O 0.0992 0.81331 0.47848 0.0
O628 O 0.13556 0.85999 0.38142 0.0
O629 O 0.14346 0.8358 0.44483 0.0
O630 O 0.10697 0.88363 0.45728 0.0
O631 O 0.12616 0.90676 0.38755 0.0
H632 H 0.14273 0.85525 0.19077 0.0
H633 H 0.13937 0.842 0.09685 0.0
H634 H 0.10037 0.91436 0.06003 0.0
H635 H 0.10386 0.9274 0.1536 0.0
H636 H 0.06445 0.86588 0.57035 0.0
H637 H 0.07125 0.87142 0.66591 0.0
H638 H 0.11497 0.79966 0.67101 0.0
H639 H 0.10827 0.79414 0.57474 0.0
C640 C 0.38785 0.92945 0.26856 0.0
C641 C 0.38503 0.93238 0.32411 0.0
C642 C 0.38566 0.95093 0.2335 0.0
C643 C 0.38085 0.97619 0.25424 0.0
C644 C 0.37778 0.97922 0.31022 0.0
C645 C 0.37975 0.95737 0.34426 0.0
C646 C 0.38887 0.94662 0.1742 0.0
C647 C 0.37308 0.00573 0.33442 0.0
C648 C 0.40389 0.03475 0.17227 0.0
C649 C 0.38063 0.04424 0.14996 0.0
C650 C 0.40415 0.01287 0.20624 0.0
C651 C 0.38058 0.99964 0.21791 0.0
C652 C 0.35697 0.00909 0.19537 0.0
C653 C 0.35724 0.03136 0.16197 0.0
C654 C 0.42974 1.00399 0.22992 0.0
C655 C 0.33142 0.99556 0.20627 0.0
H656 H 0.39185 0.91032 0.25231 0.0
H657 H 0.37763 0.96003 0.387 0.0
H658 H 0.37179 0.95456 0.15236 0.0
H659 H 0.40633 0.95722 0.15967 0.0
H660 H 0.39104 0.92568 0.16404 0.0
H661 H 0.37018 0.00477 0.37839 0.0
H662 H 0.38994 0.01864 0.32602 0.0
H663 H 0.35568 0.0149 0.31603 0.0
H664 H 0.42206 0.04466 0.16353 0.0
H665 H 0.33922 0.03848 0.1447 0.0
H666 H 0.43394 0.98372 0.21737 0.0
H667 H 0.42853 1.00403 0.27421 0.0
H668 H 0.4463 0.01658 0.2176 0.0
H669 H 0.33262 0.97492 0.19344 0.0
H670 H 0.31485 0.00499 0.18522 0.0
H671 H 0.32736 0.99555 0.24982 0.0
C672 C 0.92702 0.62117 0.77365 0.0
C673 C 0.93053 0.62324 0.71808 0.0
C674 C 0.94824 0.62304 0.80939 0.0
C675 C 0.97384 0.6269 0.78941 0.0
C676 C 0.97748 0.62936 0.73341 0.0
C677 C 0.95587 0.6276 0.69862 0.0
C678 C 0.94329 0.62041 0.86863 0.0
C679 C 1.00434 0.63325 0.71007 0.0
C680 C 0.0285 0.64963 0.88373 0.0
C681 C 0.04077 0.62605 0.89674 0.0
C682 C 0.00667 0.65027 0.84913 0.0
C683 C 0.99694 0.6268 0.82666 0.0
C684 C 0.00944 0.60301 0.83962 0.0
C685 C 0.03098 0.60293 0.87454 0.0
C686 C 0.99397 0.67606 0.83674 0.0
C687 C 1.00013 0.57754 0.81633 0.0
H688 H 0.90762 0.61792 0.78941 0.0
H689 H 0.95898 0.6292 0.65589 0.0
H690 H 0.95306 0.60265 0.88407 0.0
H691 H 0.95171 0.63728 0.89024 0.0
H692 H 0.92218 0.61912 0.87811 0.0
H693 H 1.00388 0.63577 0.66596 0.0
H694 H 0.01375 0.6506 0.72807 0.0
H695 H 0.0168 0.61622 0.71974 0.0
H696 H 0.03584 0.66755 0.9009 0.0
H697 H 0.04038 0.5846 0.88409 0.0
H698 H 0.97314 0.67549 0.84857 0.0
H699 H 0.9946 0.67982 0.79307 0.0
H700 H 1.0036 0.6925 0.8577 0.0
H701 H 0.97956 0.574 0.82787 0.0
H702 H 0.01208 0.56074 0.82992 0.0
H703 H 1.00081 0.57843 0.77203 0.0
C704 C 0.6495 0.97985 0.16545 0.0
C705 C 0.62632 0.96674 0.15269 0.0
C706 C 0.64934 1.00217 0.19835 0.0
C707 C 0.62543 0.01169 0.21913 0.0
C708 C 0.60197 0.99863 0.20572 0.0
C709 C 0.6027 0.97649 0.17257 0.0
C710 C 0.6748 0.01544 0.21132 0.0
C711 C 0.57605 0.0078 0.22711 0.0
C712 C 0.62514 0.05295 0.34643 0.0
C713 C 0.62105 0.07823 0.32648 0.0
C714 C 0.62701 0.03131 0.31203 0.0
C715 C 0.62487 0.03483 0.25595 0.0
C716 C 0.62122 0.06035 0.23545 0.0
C717 C 0.61928 0.08164 0.27083 0.0
C718 C 0.63077 0.00453 0.33587 0.0
C719 C 0.619 0.06517 0.17607 0.0
H720 H 0.6678 0.97253 0.14996 0.0
H721 H 0.5847 0.96648 0.16296 0.0
H722 H 0.67384 0.0363 0.19988 0.0
H723 H 0.6784 0.01461 0.25503 0.0
H724 H 0.69157 0.00632 0.19048 0.0
H725 H 0.55954 0.99576 0.21244 0.0
H726 H 0.57622 0.0071 0.27145 0.0
H727 H 0.57262 0.02833 0.21525 0.0
H728 H 0.62652 0.04993 0.38923 0.0
H729 H 0.61633 0.101 0.25473 0.0
H730 H 0.64834 0.99518 0.31864 0.0
H731 H 0.61385 0.992 0.32574 0.0
H732 H 0.63289 0.00508 0.38006 0.0
H733 H 0.63603 0.05671 0.15504 0.0
H734 H 0.61781 0.08624 0.16624 0.0
H735 H 0.60133 0.05538 0.16029 0.0
C736 C 0.97867 0.35699 0.88568 0.0
C737 C 0.96569 0.38048 0.8959 0.0
C738 C 1.00111 0.35629 0.85294 0.0
C739 C 0.01062 0.37957 0.82917 0.0
C740 C 0.99729 0.40325 0.83902 0.0
C741 C 0.97525 0.40343 0.87248 0.0
C742 C 0.01478 0.33067 0.8441 0.0
C743 C 0.00626 0.42848 0.81394 0.0
C744 C 0.08118 0.3866 0.78121 0.0
C745 C 0.07877 0.38302 0.72572 0.0
C746 C 0.0594 0.38466 0.81542 0.0
C747 C 0.03436 0.37939 0.79386 0.0
C748 C 0.03186 0.37542 0.73799 0.0
C749 C 0.05402 0.3771 0.70481 0.0
C750 C 0.06316 0.38874 0.87468 0.0
C751 C 0.00557 0.37021 0.71295 0.0
H752 H 0.97146 0.3392 0.90377 0.0
H753 H 0.96524 0.42166 0.87984 0.0
H754 H 0.01507 0.32598 0.80084 0.0
H755 H 0.03535 0.33212 0.85753 0.0
H756 H 0.00524 0.31439 0.86588 0.0
H757 H 0.99347 0.44513 0.82459 0.0
H758 H 0.02641 0.43301 0.82703 0.0
H759 H 0.0066 0.42656 0.76976 0.0
H760 H 0.10012 0.3911 0.79806 0.0
H761 H 0.05176 0.37443 0.66209 0.0
H762 H 0.05493 0.37204 0.89727 0.0
H763 H 0.05251 0.40643 0.88756 0.0
H764 H 0.08402 0.39099 0.88567 0.0
H765 H 0.9962 0.35317 0.73229 0.0
H766 H 0.00696 0.3665 0.66931 0.0
H767 H 0.99257 0.38717 0.71939 0.0
C768 C 0.40448 0.47475 0.12432 0.0
C769 C 0.38134 0.4654 0.14732 0.0
C770 C 0.40453 0.49623 0.08924 0.0
C771 C 0.38085 0.50914 0.07699 0.0
C772 C 0.35736 0.49986 0.1003 0.0
C773 C 0.35786 0.47806 0.13498 0.0
C774 C 0.43001 0.50501 0.06499 0.0
C775 C 0.3317 0.51302 0.08872 0.0
C776 C 0.38739 0.57876 1.02277 0.0
C777 C 0.38469 0.57513 0.96734 0.0
C778 C 0.38543 0.55768 0.05889 0.0
C779 C 0.38089 0.53213 0.03943 0.0
C780 C 0.37786 0.52839 0.98359 0.0
C781 C 0.37968 0.54984 0.94844 0.0
C782 C 0.38866 0.56275 0.11795 0.0
C783 C 0.37328 0.50156 0.96077 0.0
H784 H 0.42272 0.46504 0.13333 0.0
H785 H 0.33992 0.47105 0.15276 0.0
H786 H 0.42875 0.50428 1.02073 0.0
H787 H 0.43403 0.52551 0.07621 0.0
H788 H 0.4467 0.49279 0.07811 0.0
H789 H 0.31524 0.50378 0.11046 0.0
H790 H 0.33277 0.53385 0.10023 0.0
H791 H 0.32754 0.51234 0.04522 0.0
H792 H 0.39118 0.59811 0.0381 0.0
H793 H 0.3776 0.54666 0.90583 0.0
H794 H 0.40625 0.55253 0.13299 0.0
H795 H 0.37169 0.55489 0.14022 0.0
H796 H 0.39062 0.58382 0.12705 0.0
H797 H 0.39011 0.48879 0.97021 0.0
H798 H 0.37052 0.50193 0.91672 0.0
H799 H 0.35582 0.4926 0.97936 0.0
C800 C 0.57861 0.62074 1.01816 0.0
C801 C 0.5757 0.62314 0.07381 0.0
C802 C 0.55707 0.62288 0.98326 0.0
C803 C 0.53174 0.62719 1.00422 0.0
C804 C 0.5287 0.62986 0.06031 0.0
C805 C 0.55063 0.62796 0.09421 0.0
C806 C 0.5614 0.62011 0.92385 0.0
C807 C 0.50213 0.63408 0.08472 0.0
C808 C 0.4762 0.65041 0.91248 0.0
C809 C 0.46356 0.62694 0.90025 0.0
C810 C 0.49849 0.65085 0.94583 0.0
C811 C 0.50825 0.62729 0.968 0.0
C812 C 0.49534 0.60362 0.95593 0.0
C813 C 0.47339 0.60373 0.9221 0.0
C814 C 0.51166 0.6765 0.95719 0.0
C815 C 0.50461 0.57807 0.97908 0.0
H816 H 0.59775 0.61702 1.0017 0.0
H817 H 0.54797 0.62977 0.13701 0.0
H818 H 0.55124 0.60247 0.90904 0.0
H819 H 0.553 0.63707 0.90237 0.0
H820 H 0.58239 0.61855 0.91353 0.0
H821 H 0.50308 0.63682 0.12873 0.0
H822 H 0.49267 0.65141 0.06664 0.0
H823 H 0.48944 0.6171 0.07612 0.0
H824 H 0.46881 0.66841 0.8956 0.0
H825 H 0.46369 0.5855 0.91318 0.0
H826 H 0.53236 0.67566 0.94446 0.0
H827 H 0.51154 0.68037 1.00081 0.0
H828 H 0.50203 0.69302 0.93636 0.0
H829 H 0.52498 0.57427 0.96649 0.0
H830 H 0.49228 0.5614 0.96639 0.0
H831 H 0.50452 0.57904 1.02339 0.0
C832 C 0.60383 0.53361 0.12163 0.0
C833 C 0.62732 0.54357 0.1419 0.0
C834 C 0.60334 0.51157 0.08826 0.0
C835 C 0.62692 0.49874 0.07509 0.0
C836 C 0.65073 0.50855 0.09595 0.0
C837 C 0.65066 0.53089 0.12889 0.0
C838 C 0.57752 0.5022 0.06655 0.0
C839 C 0.6763 0.49546 0.08336 0.0
C840 C 0.62044 0.42863 0.02442 0.0
C841 C 0.62221 0.43185 0.96873 0.0
C842 C 0.62264 0.45002 0.05949 0.0
C843 C 0.6265 0.47546 0.03864 0.0
C844 C 0.6286 0.47878 0.98251 0.0
C845 C 0.62654 0.45703 0.94843 0.0
C846 C 0.62047 0.44542 0.11893 0.0
C847 C 0.63242 0.50546 0.95826 0.0
H848 H 0.58569 0.54333 0.13127 0.0
H849 H 0.66886 0.53836 0.14467 0.0
H850 H 0.57786 0.50257 1.0222 0.0
H851 H 0.57405 0.48174 0.07895 0.0
H852 H 0.56093 0.51428 0.08051 0.0
H853 H 0.69301 0.50493 0.10387 0.0
H854 H 0.67554 0.47469 0.09553 0.0
H855 H 0.67984 0.49595 0.03962 0.0
H856 H 0.61722 0.40935 0.04077 0.0
H857 H 0.6279 0.4599 0.90559 0.0
H858 H 0.60298 0.45551 0.13467 0.0
H859 H 0.63767 0.45372 0.13974 0.0
H860 H 0.61897 0.4244 0.12905 0.0
H861 H 0.61547 0.518 0.96796 0.0
H862 H 0.63461 0.50474 0.91411 0.0
H863 H 0.64995 0.5149 0.97553 0.0
C864 C 0.45831 0.3816 0.10318 0.0
C865 C 0.43296 0.38607 0.08378 0.0
C866 C 0.47976 0.37932 0.06832 0.0
C867 C 0.47595 0.38131 1.0123 0.0
C868 C 0.45035 0.38529 0.99236 0.0
C869 C 0.42926 0.38776 0.02821 0.0
C870 C 0.50666 0.37545 0.0916 0.0
C871 C 0.44525 0.38736 0.93306 0.0
C872 C 0.53335 0.40381 0.92666 0.0
C873 C 0.54302 0.38034 0.90596 0.0
C874 C 0.5117 0.40433 0.96112 0.0
C875 C 0.49894 0.3808 0.97501 0.0
C876 C 0.50852 0.35698 0.95395 0.0
C877 C 0.53051 0.35702 0.9199 0.0
C878 C 0.5026 0.43015 0.98306 0.0
C879 C 0.49549 0.33146 0.96734 0.0
H880 H 0.46154 0.38031 0.14592 0.0
H881 H 0.40984 0.39112 1.01256 0.0
H882 H 0.51591 0.35792 0.07411 0.0
H883 H 0.5192 0.39235 0.08133 0.0
H884 H 0.5063 0.37328 0.1358 0.0
H885 H 0.42413 0.389 0.92372 0.0
H886 H 0.45538 0.40469 0.91663 0.0
H887 H 0.4532 0.37004 0.91225 0.0
H888 H 0.54297 0.42194 0.91637 0.0
H889 H 0.53776 0.33883 0.90383 0.0
H890 H 0.50329 0.42978 0.0274 0.0
H891 H 0.48206 0.4337 0.9713 0.0
H892 H 0.51468 0.44669 0.96867 0.0
H893 H 0.49616 0.32808 1.01113 0.0
H894 H 0.50488 0.31471 0.94697 0.0
H895 H 0.47465 0.33217 0.95556 0.0
C896 C 0.88731 0.4297 0.7741 0.0
C897 C 0.88558 0.43293 0.82976 0.0
C898 C 0.88466 0.45104 0.73883 0.0
C899 C 0.88043 0.47643 0.75944 0.0
C900 C 0.87841 0.47975 0.81555 0.0
C901 C 0.88087 0.45805 0.84982 0.0
C902 C 0.88679 0.44646 0.67941 0.0
C903 C 0.87431 0.50639 0.83958 0.0
C904 C 0.90269 0.53461 0.67564 0.0
C905 C 0.87918 0.5443 0.65488 0.0
C906 C 0.9033 0.51272 0.70954 0.0
C907 C 0.8798 0.49972 0.72281 0.0
C908 C 0.85593 0.50935 0.70178 0.0
C909 C 0.85588 0.5316 0.66832 0.0
C910 C 0.92917 0.50362 0.73152 0.0
C911 C 0.83045 0.49608 0.7145 0.0
H912 H 0.89083 0.41046 0.75794 0.0
H913 H 0.87955 0.46093 0.89264 0.0
H914 H 0.86942 0.45445 0.65868 0.0
H915 H 0.90408 0.45683 0.66343 0.0
H916 H 0.8886 0.42546 0.66949 0.0
H917 H 0.87208 0.50564 0.88373 0.0
H918 H 0.89113 0.51912 0.82986 0.0
H919 H 0.85671 0.51565 0.82217 0.0
H920 H 0.92081 0.54437 0.66578 0.0
H921 H 0.83766 0.53887 0.65223 0.0
H922 H 0.93289 0.48323 0.71912 0.0
H923 H 0.92873 0.50389 0.77587 0.0
H924 H 0.94566 0.51593 0.71774 0.0
H925 H 0.83128 0.47538 0.702 0.0
H926 H 0.81365 0.50557 0.69432 0.0
H927 H 0.82704 0.4963 0.75829 0.0
C928 C 0.53235 0.10639 0.36873 0.0
C929 C 0.5423 0.12982 0.38912 0.0
C930 C 0.51065 0.10599 0.3343 0.0
C931 C 0.49819 0.12962 0.32005 0.0
C932 C 0.50806 0.1534 0.34077 0.0
C933 C 0.53005 0.15323 0.37489 0.0
C934 C 0.50119 0.08019 0.31282 0.0
C935 C 0.49535 0.17901 0.32694 0.0
C936 C 0.4574 0.12843 0.19196 0.0
C937 C 0.43204 0.12433 0.21153 0.0
C938 C 0.47891 0.13079 0.22675 0.0
C939 C 0.47515 0.12921 0.28281 0.0
C940 C 0.44953 0.12566 0.3029 0.0
C941 C 0.42838 0.12317 0.26715 0.0
C942 C 0.50581 0.13429 0.20335 0.0
C943 C 0.44448 0.12398 0.36226 0.0
H944 H 0.54175 0.08819 0.37927 0.0
H945 H 0.53751 0.17138 0.39078 0.0
H946 H 0.48061 0.07696 0.32463 0.0
H947 H 0.50185 0.08036 0.26849 0.0
H948 H 0.51305 0.06357 0.32754 0.0
H949 H 0.50501 0.19574 0.3469 0.0
H950 H 0.49594 0.18217 0.28307 0.0
H951 H 0.47453 0.17863 0.33888 0.0
H952 H 0.46059 0.12934 0.14918 0.0
H953 H 0.40895 0.12019 0.28293 0.0
H954 H 0.51814 0.11727 0.21376 0.0
H955 H 0.51533 0.15175 0.22063 0.0
H956 H 0.5054 0.13636 0.15913 0.0
H957 H 0.45405 0.10637 0.37888 0.0
H958 H 0.42334 0.12302 0.37166 0.0
H959 H 0.45302 0.14109 0.38285 0.0
C960 C 0.12526 0.54923 0.85067 0.0
C961 C 0.11919 0.57433 0.83193 0.0
C962 C 0.12721 0.52787 0.81558 0.0
C963 C 0.12314 0.53149 0.75997 0.0
C964 C 0.11736 0.55684 0.74065 0.0
C965 C 0.11538 0.57786 0.77672 0.0
C966 C 0.13323 0.50126 0.83822 0.0
C967 C 0.11299 0.56176 0.6818 0.0
C968 C 0.1483 0.47853 0.66506 0.0
C969 C 0.12562 0.46413 0.65473 0.0
C970 C 0.14777 0.50064 0.69856 0.0
C971 C 0.124 0.50858 0.72253 0.0
C972 C 0.10102 0.49416 0.7117 0.0
C973 C 0.10209 0.47231 0.6778 0.0
C974 C 0.17272 0.51539 0.70869 0.0
C975 C 0.07529 0.50158 0.73663 0.0
H976 H 0.12823 0.54613 0.89311 0.0
H977 H 0.11071 0.59708 0.76155 0.0
H978 H 0.11691 0.48774 0.82955 0.0
H979 H 0.1509 0.49317 0.81887 0.0
H980 H 0.13645 0.50169 0.88214 0.0
H981 H 0.10968 0.58269 0.6728 0.0
H982 H 0.13008 0.55494 0.65856 0.0
H983 H 0.09584 0.55051 0.66781 0.0
H984 H 0.16652 0.4724 0.64715 0.0
H985 H 0.08447 0.46127 0.67013 0.0
H986 H 0.17763 0.51464 0.75186 0.0
H987 H 0.17016 0.53619 0.69784 0.0
H988 H 0.18937 0.50738 0.68562 0.0
H989 H 0.07686 0.50069 0.78084 0.0
H990 H 0.05914 0.4886 0.72376 0.0
H991 H 0.07023 0.52191 0.72581 0.0
C992 C 0.58012 0.88949 0.28063 0.0
C993 C 0.57759 0.88625 0.22508 0.0
C994 C 0.55847 0.88724 0.31509 0.0
C995 C 0.53338 0.88201 0.29373 0.0
C996 C 0.53072 0.87846 0.23775 0.0
C997 C 0.55278 0.88043 0.20431 0.0
C998 C 0.56242 0.89087 0.37443 0.0
C999 C 0.50438 0.87325 0.21293 0.0
C1000 C 0.47815 0.85814 0.38518 0.0
C1001 C 0.46473 0.88133 0.396 0.0
C1002 C 0.5006 0.85804 0.35246 0.0
C1003 C 0.50975 0.88163 0.32942 0.0
C1004 C 0.49611 0.90504 0.34018 0.0
C1005 C 0.474 0.90462 0.3735 0.0
C1006 C 0.51458 0.83268 0.34259 0.0
C1007 C 0.50473 0.9306 0.31604 0.0
H1008 H 0.5991 0.89388 0.29739 0.0
H1009 H 0.55041 0.878 0.16156 0.0
H1010 H 0.55179 0.90846 0.388 0.0
H1011 H 0.55429 0.874 0.39662 0.0
H1012 H 0.58332 0.89307 0.3852 0.0
H1013 H 0.50563 0.87001 0.1691 0.0
H1014 H 0.49527 0.8559 0.23166 0.0
H1015 H 0.49122 0.88999 0.22036 0.0
H1016 H 0.47116 0.8401 0.40254 0.0
H1017 H 0.46368 0.92262 0.38135 0.0
H1018 H 0.53523 0.83434 0.35539 0.0
H1019 H 0.5146 0.82824 0.29921 0.0
H1020 H 0.50544 0.81613 0.36426 0.0
H1021 H 0.52492 0.93514 0.32884 0.0
H1022 H 0.49187 0.94702 0.32772 0.0
H1023 H 0.50483 0.92914 0.27178 0.0
C1024 C 0.90418 0.97522 0.62704 0.0
C1025 C 0.88093 0.966 0.64979 0.0
C1026 C 0.90444 0.99675 0.59215 0.0
C1027 C 0.88086 0.00983 0.57988 0.0
C1028 C 0.85727 1.00071 0.60299 0.0
C1029 C 0.85756 0.97886 0.63748 0.0
C1030 C 0.93001 0.00537 0.56809 0.0
C1031 C 0.83172 0.01408 0.59133 0.0
C1032 C 0.88805 0.07936 0.52591 0.0
C1033 C 0.88544 0.07575 0.47047 0.0
C1034 C 0.88583 0.05831 0.56197 0.0
C1035 C 0.88111 0.03281 0.54242 0.0
C1036 C 0.87816 0.02909 0.48657 0.0
C1037 C 0.88024 0.05052 0.45147 0.0
C1038 C 0.88899 0.06332 0.62107 0.0
C1039 C 0.87342 1.0023 0.46368 0.0
H1040 H 0.92233 0.96534 0.63605 0.0
H1041 H 0.83955 0.97193 0.65508 0.0
H1042 H 0.92883 0.00465 0.52382 0.0
H1043 H 0.93414 0.02584 0.57935 0.0
H1044 H 0.94661 0.99305 0.58131 0.0
H1045 H 0.81517 0.00496 0.613 0.0
H1046 H 0.83295 0.0349 0.60283 0.0
H1047 H 0.82759 0.01342 0.54781 0.0
H1048 H 0.89198 0.09868 0.54129 0.0
H1049 H 0.87823 0.04736 0.40884 0.0
H1050 H 0.90647 0.05296 0.63623 0.0
H1051 H 0.87191 0.05559 0.6432 0.0
H1052 H 0.8911 0.08438 0.63022 0.0
H1053 H 0.89027 0.98949 0.47275 0.0
H1054 H 0.87049 1.00274 0.41968 0.0
H1055 H 0.85603 0.99333 0.48251 0.0
C1056 C 0.08156 0.12064 0.51361 0.0
C1057 C 0.0796 0.12345 0.56933 0.0
C1058 C 0.05951 0.12294 0.48018 0.0
C1059 C 0.03463 0.12778 0.50279 0.0
C1060 C 0.03257 0.13099 0.55893 0.0
C1061 C 0.05501 0.12898 0.59134 0.0
C1062 C 0.0628 0.11967 0.42061 0.0
C1063 C 0.00648 0.13576 0.58504 0.0
C1064 C 0.97814 0.15075 0.41347 0.0
C1065 C 0.96524 0.12727 0.40255 0.0
C1066 C 1.00078 0.15127 0.44574 0.0
C1067 C 0.0106 0.12782 0.46822 0.0
C1068 C 0.99735 0.10416 0.45768 0.0
C1069 C 0.97507 0.10416 0.4248 0.0
C1070 C 0.01433 0.1769 0.45545 0.0
C1071 C 0.00666 0.07873 0.48133 0.0
H1072 H 0.10039 0.11652 0.49594 0.0
H1073 H 0.0531 0.13108 0.63426 0.0
H1074 H 0.05233 0.10195 0.40718 0.0
H1075 H 0.05409 0.13648 0.39916 0.0
H1076 H 0.0836 0.11793 0.40883 0.0
H1077 H 0.00823 0.13902 0.62879 0.0
H1078 H 0.99684 0.15294 0.56677 0.0
H1079 H 0.99352 0.11878 0.57826 0.0
H1080 H 0.97071 0.16866 0.39629 0.0
H1081 H 0.96514 0.08594 0.4169 0.0
H1082 H 0.03478 0.1758 0.44125 0.0
H1083 H 0.01499 0.18106 0.49893 0.0
H1084 H 1.00447 0.19335 0.43484 0.0
H1085 H 0.02674 0.0745 0.46741 0.0
H1086 H 0.99389 0.06211 0.47031 0.0
H1087 H 0.00737 0.08017 0.52557 0.0
C1088 C 0.11797 0.92599 0.52937 0.0
C1089 C 0.12204 0.92804 0.47396 0.0
C1090 C 0.12019 0.94785 0.56319 0.0
C1091 C 0.12623 0.97263 0.54127 0.0
C1092 C 0.13055 0.9748 0.48544 0.0
C1093 C 0.12858 0.95255 0.45268 0.0
C1094 C 0.1158 0.94445 0.62245 0.0
C1095 C 0.13663 1.00079 0.46001 0.0
C1096 C 0.10489 0.03325 0.61846 0.0
C1097 C 0.12841 0.04207 0.64069 0.0
C1098 C 0.10396 0.01086 0.58603 0.0
C1099 C 0.12704 0.99645 0.57625 0.0
C1100 C 0.15081 0.00509 0.5993 0.0
C1101 C 0.15124 0.02786 0.63088 0.0
C1102 C 0.07827 1.00283 0.56162 0.0
C1103 C 0.17582 0.99026 0.59061 0.0
H1104 H 0.11299 0.90723 0.54649 0.0
H1105 H 0.13163 0.95454 0.41 0.0
H1106 H 0.13285 0.95194 0.64503 0.0
H1107 H 0.09859 0.95595 0.63511 0.0
H1108 H 0.11256 0.92376 0.63369 0.0
H1109 H 0.14004 0.9992 0.41629 0.0
H1110 H 0.12022 0.01445 0.4668 0.0
H1111 H 0.15417 0.0095 0.4788 0.0
H1112 H 0.08718 0.0442 0.62563 0.0
H1113 H 0.16945 0.03451 0.64811 0.0
H1114 H 0.07305 0.98289 0.57493 0.0
H1115 H 0.07998 1.00236 0.5174 0.0
H1116 H 0.06216 0.01624 0.57253 0.0
H1117 H 0.17335 0.96973 0.6035 0.0
H1118 H 0.19245 0.99889 0.61286 0.0
H1119 H 0.1807 0.99003 0.54742 0.0
C1120 C 0.02684 0.85839 0.41374 0.0
C1121 C 0.04142 0.88095 0.40336 0.0
C1122 C 0.0049 0.85902 0.4478 0.0
C1123 C 0.99732 0.88276 0.47231 0.0
C1124 C 0.01193 0.9056 0.46144 0.0
C1125 C 0.03361 0.90445 0.42696 0.0
C1126 C 0.98993 0.83421 0.45793 0.0
C1127 C 0.0049 0.93128 0.4869 0.0
C1128 C 0.92821 0.89179 0.52746 0.0
C1129 C 0.93181 0.88771 0.58257 0.0
C1130 C 0.94915 0.88979 0.49113 0.0
C1131 C 0.97451 0.88372 0.51009 0.0
C1132 C 0.97821 0.87938 0.5656 0.0
C1133 C 0.95691 0.88135 0.60097 0.0
C1134 C 0.94414 0.89445 0.43241 0.0
C1135 C 0.00484 0.87305 0.58786 0.0
H1136 H 0.0327 0.8402 0.39546 0.0
H1137 H 0.0448 0.92196 0.41928 0.0
H1138 H 0.99079 0.82918 0.50105 0.0
H1139 H 0.9691 0.837 0.44747 0.0
H1140 H 0.9977 0.81757 0.43456 0.0
H1141 H 0.01804 0.94732 0.47407 0.0
H1142 H 0.98457 0.93662 0.4765 0.0
H1143 H 0.00593 0.92952 0.53107 0.0
H1144 H 0.90899 0.89668 0.51253 0.0
H1145 H 0.96007 0.87819 0.64333 0.0
H1146 H 0.95075 0.87742 0.40881 0.0
H1147 H 0.95552 0.91154 0.41857 0.0
H1148 H 0.9232 0.89799 0.4237 0.0
H1149 H 0.01282 0.8555 0.56795 0.0
H1150 H 1.00446 0.86954 0.63169 0.0
H1151 H 0.01845 0.88936 0.57952 0.0
C1152 C 0.34285 0.20499 0.08802 0.0
C1153 C 0.35931 0.18699 0.11319 0.0
C1154 C 0.34474 0.23183 0.09897 0.0
C1155 C 0.36281 0.24087 0.13776 0.0
C1156 C 0.37979 0.22272 0.16262 0.0
C1157 C 0.3781 0.1961 0.14945 0.0
C1158 C 0.32684 0.25046 0.07006 0.0
C1159 C 0.39878 0.2312 0.20531 0.0
C1160 C 0.37839 0.31374 0.14265 0.0
C1161 C 0.35984 0.32284 0.17935 0.0
C1162 C 0.37984 0.28713 0.12917 0.0
C1163 C 0.36288 0.26901 0.15416 0.0
C1164 C 0.34504 0.27805 0.19329 0.0
C1165 C 0.34338 0.30487 0.20455 0.0
C1166 C 0.39858 0.27866 0.08612 0.0
C1167 C 0.32718 0.25945 0.22234 0.0
H1168 H 0.32818 0.19798 0.06033 0.0
H1169 H 0.39053 0.1822 0.16986 0.0
H1170 H 0.31254 0.25871 0.09859 0.0
H1171 H 0.33817 0.26695 0.05321 0.0
H1172 H 0.31598 0.24083 0.03713 0.0
H1173 H 0.41156 0.21501 0.21881 0.0
H1174 H 0.4112 0.24732 0.19046 0.0
H1175 H 0.38785 0.23867 0.24034 0.0
H1176 H 0.39082 0.32763 0.12223 0.0
H1177 H 0.3289 0.31189 0.23258 0.0
H1178 H 0.38745 0.27122 0.05127 0.0
H1179 H 0.41104 0.2625 0.10071 0.0
H1180 H 0.41134 0.29484 0.07243 0.0
H1181 H 0.31277 0.25122 0.19393 0.0
H1182 H 0.31644 0.26909 0.25538 0.0
H1183 H 0.33853 0.24294 0.23908 0.0
C1184 C 0.31092 0.62909 0.90603 0.0
C1185 C 0.32036 0.6481 0.87061 0.0
C1186 C 0.28413 0.62731 0.91812 0.0
C1187 C 0.26619 0.64441 0.89293 0.0
C1188 C 0.27561 0.66274 0.85504 0.0
C1189 C 0.30259 0.66471 0.84522 0.0
C1190 C 0.27524 0.60805 0.95994 0.0
C1191 C 0.25725 0.68078 0.8258 0.0
C1192 C 0.19321 0.62874 0.89367 0.0
C1193 C 0.18362 0.64704 0.93028 0.0
C1194 C 0.22003 0.62736 0.88161 0.0
C1195 C 0.23783 0.64414 0.90798 0.0
C1196 C 0.22826 0.66171 0.94706 0.0
C1197 C 0.20127 0.66331 0.95687 0.0
C1198 C 0.22908 0.60892 0.83855 0.0
C1199 C 0.24648 0.67937 0.97754 0.0
H1200 H 0.32465 0.61651 0.92655 0.0
H1201 H 0.30986 0.67952 0.8181 0.0
H1202 H 0.26726 0.61871 0.99482 0.0
H1203 H 0.25935 0.59565 0.94398 0.0
H1204 H 0.29134 0.59529 0.97395 0.0
H1205 H 0.26723 0.69193 0.79369 0.0
H1206 H 0.241 0.66953 0.8078 0.0
H1207 H 0.24858 0.6948 0.85437 0.0
H1208 H 0.17957 0.61646 0.8722 0.0
H1209 H 0.19387 0.6776 0.98487 0.0
H1210 H 0.24511 0.59644 0.85363 0.0
H1211 H 0.23691 0.62027 0.80434 0.0
H1212 H 0.21309 0.59622 0.82379 0.0
H1213 H 0.26284 0.66795 0.99472 0.0
H1214 H 0.23641 0.68981 1.01043 0.0
H1215 H 0.25501 0.694 0.94998 0.0
C1216 C 0.64531 0.81175 0.20507 0.0
C1217 C 0.64635 0.82547 0.15657 0.0
C1218 C 0.64305 0.78455 0.20647 0.0
C1219 C 0.64227 0.7704 0.15802 0.0
C1220 C 0.64183 0.78426 0.10871 0.0
C1221 C 0.6437 0.81175 0.10855 0.0
C1222 C 0.6432 0.77089 0.26001 0.0
C1223 C 0.64107 0.76999 0.05612 0.0
C1224 C 0.67336 0.70315 0.16643 0.0
C1225 C 0.65168 0.68658 0.1697 0.0
C1226 C 0.67045 0.73024 0.16127 0.0
C1227 C 0.64517 0.74133 0.15956 0.0
C1228 C 0.62313 0.72473 0.16325 0.0
C1229 C 0.62663 0.69755 0.1683 0.0
C1230 C 0.69456 0.74705 0.15794 0.0
C1231 C 0.59586 0.73569 0.16202 0.0
H1232 H 0.64717 0.82234 0.24237 0.0
H1233 H 0.64471 0.82228 0.07101 0.0
H1234 H 0.62745 0.75612 0.26191 0.0
H1235 H 0.66199 0.76052 0.26541 0.0
H1236 H 0.6407 0.78468 0.29378 0.0
H1237 H 0.63737 0.78334 1.02195 0.0
H1238 H 0.66002 0.76009 0.04955 0.0
H1239 H 0.62576 0.75473 0.0567 0.0
H1240 H 0.69278 0.69486 0.16737 0.0
H1241 H 0.60976 0.68488 0.1704 0.0
H1242 H 0.69531 0.76042 0.1927 0.0
H1243 H 0.69391 0.75925 0.12131 0.0
H1244 H 0.71277 0.73537 0.1574 0.0
H1245 H 0.59295 0.74891 0.19653 0.0
H1246 H 0.58076 0.7202 0.16343 0.0
H1247 H 0.59299 0.74742 0.12521 0.0
C1248 C 0.81282 0.37752 0.89018 0.0
C1249 C 0.82268 0.35881 0.92578 0.0
C1250 C 0.78594 0.37898 0.87886 0.0
C1251 C 0.76838 0.36186 0.90503 0.0
C1252 C 0.77823 0.34383 0.94308 0.0
C1253 C 0.80528 0.34217 0.95212 0.0
C1254 C 0.77654 0.3979 0.83684 0.0
C1255 C 0.76026 0.32581 0.97334 0.0
C1256 C 0.6954 0.37695 0.90657 0.0
C1257 C 0.6856 0.35832 0.87085 0.0
C1258 C 0.72229 0.37863 0.91757 0.0
C1259 C 0.73993 0.36181 0.89096 0.0
C1260 C 0.73013 0.34391 0.85273 0.0
C1261 C 0.70306 0.34201 0.84401 0.0
C1262 C 0.73163 0.3974 0.9598 0.0
C1263 C 0.74818 0.32623 0.82201 0.0
H1264 H 0.82629 0.39009 0.86894 0.0
H1265 H 0.81291 0.32759 0.97936 0.0
H1266 H 0.76838 0.38695 0.80246 0.0
H1267 H 0.76068 0.41025 0.85294 0.0
H1268 H 0.79242 0.41073 0.82203 0.0
H1269 H 0.7706 0.31493 1.00538 0.0
H1270 H 0.74408 0.33703 0.9916 0.0
H1271 H 0.75145 0.31156 0.9454 0.0
H1272 H 0.68189 0.38927 0.92819 0.0
H1273 H 0.69548 0.32749 0.81669 0.0
H1274 H 0.74742 0.40992 0.94381 0.0
H1275 H 0.73988 0.38633 0.994 0.0
H1276 H 0.7157 0.41006 0.97483 0.0
H1277 H 0.76429 0.33768 0.80398 0.0
H1278 H 0.73787 0.31552 0.78974 0.0
H1279 H 0.75707 0.31182 0.8496 0.0
C1280 C 0.84103 0.70478 0.59314 0.0
C1281 C 0.85744 0.68709 0.61929 0.0
C1282 C 0.84295 0.73175 0.60266 0.0
C1283 C 0.861 0.74123 0.64103 0.0
C1284 C 0.87792 0.72338 0.66694 0.0
C1285 C 0.87621 0.6966 0.65514 0.0
C1286 C 0.82513 0.75004 0.57267 0.0
C1287 C 0.89687 0.73235 0.70928 0.0
C1288 C 0.87677 0.81409 0.64229 0.0
C1289 C 0.8582 0.82367 0.67839 0.0
C1290 C 0.87816 0.78733 0.63013 0.0
C1291 C 0.86111 0.76956 0.65593 0.0
C1292 C 0.84321 0.77911 0.69444 0.0
C1293 C 0.84161 0.80607 0.70432 0.0
C1294 C 0.89693 0.77829 0.58765 0.0
C1295 C 0.82527 0.76092 0.72433 0.0
H1296 H 0.82639 0.69745 0.56573 0.0
H1297 H 0.88861 0.68292 0.67628 0.0
H1298 H 0.8108 0.75867 0.60066 0.0
H1299 H 0.83652 0.76629 0.55502 0.0
H1300 H 0.8143 0.74002 0.54019 0.0
H1301 H 0.90958 0.7163 0.72375 0.0
H1302 H 0.90936 0.74824 0.69363 0.0
H1303 H 0.8859 0.74031 0.7438 0.0
H1304 H 0.88931 0.82771 0.62136 0.0
H1305 H 0.82713 0.81346 0.73194 0.0
H1306 H 0.88584 0.77038 0.55319 0.0
H1307 H 0.90937 0.76233 0.6032 0.0
H1308 H 0.9097 0.79427 0.57311 0.0
H1309 H 0.8109 0.75235 0.69627 0.0
H1310 H 0.81449 0.77098 0.75676 0.0
H1311 H 0.83655 0.74461 0.74203 0.0
C1312 C 0.80488 0.16613 0.34549 0.0
C1313 C 0.82214 0.14959 0.37248 0.0
C1314 C 0.7778 0.16464 0.35425 0.0
C1315 C 0.76778 0.1469 0.39267 0.0
C1316 C 0.78521 0.12987 0.41948 0.0
C1317 C 0.81212 0.13114 0.40844 0.0
C1318 C 0.75998 0.18255 0.32333 0.0
C1319 C 0.77564 0.11125 0.46189 0.0
C1320 C 0.70254 0.16751 0.4526 0.0
C1321 C 0.68498 0.15114 0.42605 0.0
C1322 C 0.7296 0.16539 0.44416 0.0
C1323 C 0.73931 0.14719 0.40649 0.0
C1324 C 0.72158 0.13032 0.38018 0.0
C1325 C 0.69469 0.13223 0.3909 0.0
C1326 C 0.74775 0.18317 0.47455 0.0
C1327 C 0.73084 0.11123 0.33853 0.0
H1328 H 0.81263 0.18051 0.31796 0.0
H1329 H 0.82549 0.11865 0.43016 0.0
H1330 H 0.74375 0.1713 0.30523 0.0
H1331 H 0.75123 0.19704 0.35078 0.0
H1332 H 0.77042 0.19317 0.29108 0.0
H1333 H 0.79141 0.09842 0.47717 0.0
H1334 H 0.76751 0.12246 0.49591 0.0
H1335 H 0.75971 0.0989 0.44596 0.0
H1336 H 0.69504 0.18224 0.47949 0.0
H1337 H 0.68112 0.11986 0.36949 0.0
H1338 H 0.75676 0.19734 0.44665 0.0
H1339 H 0.76376 0.17174 0.49302 0.0
H1340 H 0.73748 0.19414 0.50644 0.0
H1341 H 0.73918 0.12203 0.3041 0.0
H1342 H 0.71483 0.09856 0.32371 0.0
H1343 H 0.74653 0.09872 0.35498 0.0
C1344 C 0.16969 0.30635 0.67897 0.0
C1345 C 0.15276 0.32301 0.65112 0.0
C1346 C 0.16687 0.27921 0.6772 0.0
C1347 C 0.14636 0.26808 0.64709 0.0
C1348 C 0.12878 0.28478 0.61946 0.0
C1349 C 0.13226 0.31212 0.62156 0.0
C1350 C 0.18643 0.26243 0.7065 0.0
C1351 C 0.10651 0.27374 0.58732 0.0
C1352 C 0.1631 0.20035 0.59767 0.0
C1353 C 0.15164 0.1841 0.6363 0.0
C1354 C 0.16024 0.22748 0.59916 0.0
C1355 C 0.14546 0.23905 0.64045 0.0
C1356 C 0.13291 0.22275 0.67859 0.0
C1357 C 0.13614 0.19539 0.6761 0.0
C1358 C 0.17423 0.24382 0.55784 0.0
C1359 C 0.1168 0.23426 0.72303 0.0
H1360 H 0.18555 0.31457 0.70214 0.0
H1361 H 0.11887 0.32489 0.60066 0.0
H1362 H 0.17627 0.24877 0.73383 0.0
H1363 H 0.19754 0.25054 0.67736 0.0
H1364 H 0.2005 0.27412 0.73023 0.0
H1365 H 0.09335 0.28918 0.57184 0.0
H1366 H 0.11425 0.26254 0.55295 0.0
H1367 H 0.09501 0.26002 0.61221 0.0
H1368 H 0.17492 0.19186 0.56632 0.0
H1369 H 0.12696 0.18299 0.70564 0.0
H1370 H 0.18992 0.25521 0.57746 0.0
H1371 H 0.1606 0.25791 0.53918 0.0
H1372 H 0.1831 0.2318 0.52577 0.0
H1373 H 0.12975 0.24456 0.75156 0.0
H1374 H 0.10572 0.21914 0.74528 0.0
H1375 H 0.10291 0.24882 0.70676 0.0
C1376 C 0.30945 0.87814 0.42998 0.0
C1377 C 0.32178 0.85516 0.41341 0.0
C1378 C 0.28212 0.881 0.4259 0.0
C1379 C 0.26683 0.86062 0.40377 0.0
C1380 C 0.27942 0.83782 0.38532 0.0
C1381 C 0.30655 0.83526 0.39094 0.0
C1382 C 0.26951 0.90543 0.44693 0.0
C1383 C 0.26414 0.81565 0.36102 0.0
C1384 C 0.19769 0.8474 0.45024 0.0
C1385 C 0.18249 0.85578 0.40677 0.0
C1386 C 0.22487 0.8501 0.45061 0.0
C1387 C 0.2376 0.86131 0.40604 0.0
C1388 C 0.22236 0.87065 0.36249 0.0
C1389 C 0.19488 0.86788 0.36344 0.0
C1390 C 0.24002 0.83994 0.49811 0.0
C1391 C 0.23515 0.88266 0.31413 0.0
H1392 H 0.32111 0.89365 0.44703 0.0
H1393 H 0.31585 0.81754 0.37735 0.0
H1394 H 0.25612 0.91377 0.41656 0.0
H1395 H 0.25765 0.90064 0.4827 0.0
H1396 H 0.28411 0.92043 0.45821 0.0
H1397 H 0.277 0.8005 0.34353 0.0
H1398 H 0.25181 0.80639 0.39213 0.0
H1399 H 0.25094 0.82302 0.32926 0.0
H1400 H 0.18832 0.83826 0.48427 0.0
H1401 H 0.18329 0.87446 0.32984 0.0
H1402 H 0.25363 0.85505 0.51311 0.0
H1403 H 0.25191 0.82294 0.48584 0.0
H1404 H 0.22711 0.83382 0.53147 0.0
H1405 H 0.24916 0.89797 0.3265 0.0
H1406 H 0.22069 0.89134 0.28623 0.0
H1407 H 0.24635 0.86755 0.29242 0.0
C1408 C 0.23124 0.11974 0.77721 0.0
C1409 C 0.21139 0.10098 0.77433 0.0
C1410 C 0.24909 0.12021 0.82055 0.0
C1411 C 0.24767 0.10103 0.86159 0.0
C1412 C 0.22808 0.08157 0.85768 0.0
C1413 C 0.20996 0.08216 0.81505 0.0
C1414 C 0.26888 0.14191 0.82349 0.0
C1415 C 0.22603 0.0602 0.89895 0.0
C1416 C 0.30948 0.09028 0.94596 0.0
C1417 C 0.30325 0.10207 0.99506 0.0
C1418 C 0.2915 0.08922 0.90321 0.0
C1419 C 0.26668 0.10114 0.90819 0.0
C1420 C 0.26022 0.1131 0.95776 0.0
C1421 C 0.27835 0.11307 1.00072 0.0
C1422 C 0.29923 0.07538 0.85245 0.0
C1423 C 0.23454 0.12697 0.96471 0.0
H1424 H 0.23203 0.13482 0.74689 0.0
H1425 H 0.19438 0.0679 0.81375 0.0
H1426 H 0.26638 0.1528 0.86142 0.0
H1427 H 0.28889 0.13379 0.82361 0.0
H1428 H 0.26709 0.15575 0.78951 0.0
H1429 H 0.21143 0.0452 0.88769 0.0
H1430 H 0.24524 0.05061 0.90439 0.0
H1431 H 0.22035 0.06857 0.93807 0.0
H1432 H 0.32865 0.08178 0.94088 0.0
H1433 H 0.27346 0.12269 0.03791 0.0
H1434 H 0.30095 0.0896 0.81924 0.0
H1435 H 0.284 0.06107 0.84104 0.0
H1436 H 0.31814 0.06503 0.85657 0.0
H1437 H 0.23372 0.1439 0.93711 0.0
H1438 H 0.23168 0.13403 1.00624 0.0
H1439 H 0.21813 0.11395 0.95405 0.0
C1440 C 0.11493 0.69828 0.10008 0.0
C1441 C 0.10235 0.70256 0.05069 0.0
C1442 C 0.11425 0.71667 0.14189 0.0
C1443 C 0.1002 0.74022 0.13555 0.0
C1444 C 0.08734 0.74479 0.08589 0.0
C1445 C 0.08873 0.7261 0.04407 0.0
C1446 C 0.12896 0.71091 0.19291 0.0
C1447 C 0.07198 0.76945 0.077 0.0
C1448 C 0.08384 0.77792 0.26531 0.0
C1449 C 0.10289 0.79758 0.26548 0.0
C1450 C 0.08229 0.75955 0.22292 0.0
C1451 C 0.10043 0.76044 0.17984 0.0
C1452 C 0.11998 0.77995 0.18076 0.0
C1453 C 0.12085 0.79811 0.22299 0.0
C1454 C 0.06098 0.73934 0.22385 0.0
C1455 C 0.14028 0.78158 0.13721 0.0
H1456 H 0.12577 0.68045 0.10613 0.0
H1457 H 0.07882 0.72977 1.00653 0.0
H1458 H 0.14203 0.72739 0.20314 0.0
H1459 H 0.11502 0.70851 0.22642 0.0
H1460 H 0.14091 0.69297 0.18987 0.0
H1461 H 0.06201 0.76968 0.03756 0.0
H1462 H 0.05717 0.77167 0.10897 0.0
H1463 H 0.08512 0.78656 0.07929 0.0
H1464 H 0.06968 0.77736 0.29741 0.0
H1465 H 0.13597 0.8128 0.22294 0.0
H1466 H 0.06965 0.71961 0.22669 0.0
H1467 H 0.04967 0.74015 0.18603 0.0
H1468 H 0.04742 0.74206 0.25798 0.0
H1469 H 0.15078 0.76276 0.13389 0.0
H1470 H 0.15477 0.79724 0.14461 0.0
H1471 H 0.13075 0.78534 0.09814 0.0
C1472 C 0.70434 0.89159 0.96633 0.0
C1473 C 0.70812 0.90461 1.01534 0.0
C1474 C 0.72289 0.89238 0.92482 0.0
C1475 C 0.74622 0.90682 0.93121 0.0
C1476 C 0.75035 0.92005 0.98056 0.0
C1477 C 0.73143 0.91863 1.02205 0.0
C1478 C 0.71755 0.87734 0.87412 0.0
C1479 C 0.77469 0.93595 0.98935 0.0
C1480 C 0.80467 0.88698 0.84441 0.0
C1481 C 0.80347 0.90439 0.80093 0.0
C1482 C 0.78657 0.8878 0.88684 0.0
C1483 C 0.76656 0.90683 0.88709 0.0
C1484 C 0.7652 0.92459 0.84336 0.0
C1485 C 0.78341 0.923 0.80067 0.0
C1486 C 0.78873 0.86791 0.93117 0.0
C1487 C 0.7446 0.94551 0.84195 0.0
H1488 H 0.68669 0.88038 0.96026 0.0
H1489 H 0.73468 0.92893 0.05924 0.0
H1490 H 0.7175 0.89069 0.83924 0.0
H1491 H 0.73326 0.86285 0.86748 0.0
H1492 H 0.69856 0.86696 0.8753 0.0
H1493 H 0.77443 0.94636 0.02823 0.0
H1494 H 0.79207 0.92313 0.98832 0.0
H1495 H 0.77692 0.95042 0.95665 0.0
H1496 H 0.81977 0.87226 0.845 0.0
H1497 H 0.78233 0.93674 0.76782 0.0
H1498 H 0.77026 0.85678 0.9345 0.0
H1499 H 0.79194 0.87783 0.96997 0.0
H1500 H 0.80496 0.85398 0.92459 0.0
H1501 H 0.72497 0.93652 0.83994 0.0
H1502 H 0.74695 0.9588 0.80719 0.0
H1503 H 0.74541 0.95715 0.87927 0.0
C1504 C 0.88655 0.30404 0.08857 0.0
C1505 C 0.90336 0.30293 0.0442 0.0
C1506 C 0.88726 0.28524 0.12977 0.0
C1507 C 0.90556 0.26459 0.12775 0.0
C1508 C 0.92269 0.26329 0.08306 0.0
C1509 C 0.9212 0.28223 0.04168 0.0
C1510 C 0.86801 0.28733 0.1752 0.0
C1511 C 0.94279 0.24198 0.0792 0.0
C1512 C 0.91836 0.22773 0.26031 0.0
C1513 C 0.90349 0.20496 0.25369 0.0
C1514 C 0.91978 0.24694 0.21943 0.0
C1515 C 0.90561 0.24374 0.17089 0.0
C1516 C 0.89032 0.22096 0.16456 0.0
C1517 C 0.88968 0.20197 0.20539 0.0
C1518 C 0.93659 0.27066 0.22812 0.0
C1519 C 0.87428 0.21665 0.11467 0.0
H1520 H 0.87235 0.31957 0.09081 0.0
H1521 H 0.93444 0.28117 1.00801 0.0
H1522 H 0.85623 0.26924 0.1778 0.0
H1523 H 0.87853 0.28947 0.21369 0.0
H1524 H 0.85461 0.30415 0.1704 0.0
H1525 H 0.95598 0.24468 0.04443 0.0
H1526 H 0.95468 0.24136 0.11629 0.0
H1527 H 0.93298 0.22283 0.07536 0.0
H1528 H 0.92924 0.23036 0.29706 0.0
H1529 H 0.87786 0.18476 0.19956 0.0
H1530 H 0.92422 0.28835 0.22954 0.0
H1531 H 0.9503 0.27308 0.19418 0.0
H1532 H 0.94796 0.26945 0.26587 0.0
H1533 H 0.86164 0.23377 0.10687 0.0
H1534 H 0.86176 0.19906 0.11764 0.0
H1535 H 0.88733 0.21437 0.07968 0.0
C1536 C 0.30848 0.39128 0.35101 0.0
C1537 C 0.30431 0.40389 0.30161 0.0
C1538 C 0.28996 0.39191 0.39267 0.0
C1539 C 0.2664 0.40594 0.38616 0.0
C1540 C 0.26194 0.41885 0.3365 0.0
C1541 C 0.28076 0.4175 0.29483 0.0
C1542 C 0.2956 0.37715 0.44369 0.0
C1543 C 0.23729 0.4342 0.32744 0.0
C1544 C 0.2082 0.38534 0.47311 0.0
C1545 C 0.20873 0.40319 0.51574 0.0
C1546 C 0.22647 0.38622 0.43101 0.0
C1547 C 0.24606 0.4057 0.43031 0.0
C1548 C 0.24691 0.42376 0.47346 0.0
C1549 C 0.22846 0.42217 0.51576 0.0
C1550 C 0.22489 0.36599 0.38738 0.0
C1551 C 0.26717 0.44502 0.47457 0.0
H1552 H 0.32632 0.38044 0.35718 0.0
H1553 H 0.27717 0.42743 0.25728 0.0
H1554 H 0.29774 0.39101 0.47735 0.0
H1555 H 0.27915 0.36396 0.45351 0.0
H1556 H 0.31367 0.36536 0.4409 0.0
H1557 H 0.23717 0.44423 0.28805 0.0
H1558 H 0.22015 0.42108 0.3295 0.0
H1559 H 0.23498 0.44895 0.35947 0.0
H1560 H 0.19344 0.37028 0.47288 0.0
H1561 H 0.22903 0.43623 0.54798 0.0
H1562 H 0.24375 0.35558 0.38393 0.0
H1563 H 0.22106 0.37556 0.34837 0.0
H1564 H 0.20926 0.35146 0.39479 0.0
H1565 H 0.2869 0.43634 0.47759 0.0
H1566 H 0.26437 0.45855 0.50868 0.0
H1567 H 0.26646 0.45633 0.43674 0.0
C1568 C 0.38766 0.70159 0.70178 0.0
C1569 C 0.40184 0.70444 0.74969 0.0
C1570 C 0.38852 0.72036 0.66047 0.0
C1571 C 0.40439 0.74282 0.66584 0.0
C1572 C 0.41891 0.74588 0.71401 0.0
C1573 C 0.41728 0.72689 0.75538 0.0
C1574 C 0.37206 0.71619 0.61112 0.0
C1575 C 0.43632 0.76923 0.7218 0.0
C1576 C 0.41987 0.78084 0.53556 0.0
C1577 C 0.40241 0.80188 0.53829 0.0
C1578 C 0.42124 0.7619 0.57708 0.0
C1579 C 0.40445 0.76357 0.62231 0.0
C1580 C 0.38656 0.78456 0.62457 0.0
C1581 C 0.3859 0.80328 0.58317 0.0
C1582 C 0.44084 0.74015 0.57274 0.0
C1583 C 0.3677 0.78716 0.67058 0.0
H1584 H 0.37537 0.68465 0.69665 0.0
H1585 H 0.42847 0.72943 0.79177 0.0
H1586 H 0.35986 0.7336 0.60313 0.0
H1587 H 0.38484 0.71332 0.57589 0.0
H1588 H 0.35907 0.69898 0.61489 0.0
H1589 H 0.448 0.76786 0.75912 0.0
H1590 H 0.44977 0.77128 0.68732 0.0
H1591 H 0.42436 0.78719 0.72352 0.0
H1592 H 0.43286 0.77945 0.50155 0.0
H1593 H 0.37199 0.81905 0.58577 0.0
H1594 H 0.43057 0.72123 0.56908 0.0
H1595 H 0.4529 0.73925 0.60957 0.0
H1596 H 0.45389 0.74257 0.53768 0.0
H1597 H 0.35584 0.76918 0.67433 0.0
H1598 H 0.35434 0.80401 0.66562 0.0
H1599 H 0.37857 0.7896 0.70858 0.0
C1600 C 0.70154 0.58936 0.33496 0.0
C1601 C 0.70673 0.6018 0.28598 0.0
C1602 C 0.72014 0.58848 0.37668 0.0
C1603 C 0.74452 0.60125 0.37076 0.0
C1604 C 0.74998 0.61375 0.32112 0.0
C1605 C 0.73126 0.61351 0.27921 0.0
C1606 C 0.7135 0.57393 0.42737 0.0
C1607 C 0.77523 0.62828 0.31294 0.0
C1608 C 0.77998 0.62051 0.50123 0.0
C1609 C 0.8006 0.60259 0.50345 0.0
C1610 C 0.76201 0.62061 0.45809 0.0
C1611 C 0.76397 0.60173 0.41668 0.0
C1612 C 0.78439 0.58311 0.41984 0.0
C1613 C 0.8027 0.5842 0.46215 0.0
C1614 C 0.74138 0.6415 0.45595 0.0
C1615 C 0.78697 0.56194 0.37844 0.0
H1616 H 0.68274 0.58018 0.34073 0.0
H1617 H 0.73538 0.62354 0.242 0.0
H1618 H 0.72956 0.56044 0.43825 0.0
H1619 H 0.71117 0.58787 0.46082 0.0
H1620 H 0.69518 0.56256 0.42351 0.0
H1621 H 0.77639 0.63751 0.27281 0.0
H1622 H 0.77727 0.64362 0.34387 0.0
H1623 H 0.79201 0.61488 0.31762 0.0
H1624 H 0.77859 0.63523 0.5321 0.0
H1625 H 0.81878 0.57052 0.46305 0.0
H1626 H 0.72173 0.63258 0.45765 0.0
H1627 H 0.74276 0.65227 0.41753 0.0
H1628 H 0.74323 0.65561 0.48936 0.0
H1629 H 0.76799 0.55193 0.37269 0.0
H1630 H 0.80186 0.54723 0.38975 0.0
H1631 H 0.79259 0.57056 0.33946 0.0
C1632 C 0.59315 0.20112 0.59318 0.0
C1633 C 0.60076 0.20781 0.54084 0.0
C1634 C 0.59254 0.2196 0.63486 0.0
C1635 C 0.60024 0.24569 0.62503 0.0
C1636 C 0.6077 0.25273 0.5721 0.0
C1637 C 0.60759 0.23385 0.53066 0.0
C1638 C 0.58384 0.211 0.6898 0.0
C1639 C 0.61659 0.28008 0.55956 0.0
C1640 C 0.58004 0.29951 0.72392 0.0
C1641 C 0.60199 0.30153 0.7572 0.0
C1642 C 0.57908 0.28139 0.68137 0.0
C1643 C 0.60092 0.26526 0.67041 0.0
C1644 C 0.62323 0.26744 0.7039 0.0
C1645 C 0.62342 0.28537 0.74684 0.0
C1646 C 0.55466 0.27958 0.64795 0.0
C1647 C 0.64719 0.25119 0.69365 0.0
H1648 H 0.58766 0.18117 0.60179 0.0
H1649 H 0.61378 0.23929 0.49076 0.0
H1650 H 0.60026 0.21272 0.71846 0.0
H1651 H 0.56796 0.22381 0.70433 0.0
H1652 H 0.57683 0.19053 0.69026 0.0
H1653 H 0.62176 0.28261 0.51674 0.0
H1654 H 0.60106 0.29421 0.56981 0.0
H1655 H 0.63385 0.28499 0.58434 0.0
H1656 H 0.56364 0.31235 0.73093 0.0
H1657 H 0.64072 0.28733 0.77146 0.0
H1658 H 0.54733 0.25925 0.64787 0.0
H1659 H 0.55907 0.28489 0.60592 0.0
H1660 H 0.53898 0.29259 0.66281 0.0
H1661 H 0.64232 0.2302 0.6969 0.0
H1662 H 0.6632 0.2556 0.72215 0.0
H1663 H 0.65429 0.25466 0.65235 0.0
C1664 C 0.37642 0.11137 0.48502 0.0
C1665 C 0.3515 0.10422 0.46695 0.0
C1666 C 0.38226 0.11263 0.54002 0.0
C1667 C 0.36278 0.10652 0.57822 0.0
C1668 C 0.33768 0.09901 0.56025 0.0
C1669 C 0.33237 0.09798 0.50506 0.0
C1670 C 0.40923 0.12084 0.55728 0.0
C1671 C 0.31637 0.09212 0.59939 0.0
C1672 C 0.38408 0.08812 0.71982 0.0
C1673 C 0.37953 0.11125 0.74817 0.0
C1674 C 0.37859 0.08626 0.66476 0.0
C1675 C 0.36855 0.10813 0.63694 0.0
C1676 C 0.36389 0.13153 0.66536 0.0
C1677 C 0.36927 0.13275 0.72054 0.0
C1678 C 0.3835 0.06082 0.63637 0.0
C1679 C 0.35342 0.15539 0.63734 0.0
H1680 H 0.39128 0.11653 0.45611 0.0
H1681 H 0.31317 0.09203 0.49171 0.0
H1682 H 0.40802 0.13875 0.58186 0.0
H1683 H 0.41814 0.10548 0.58262 0.0
H1684 H 0.42229 0.12465 0.52273 0.0
H1685 H 0.29799 0.08636 0.57907 0.0
H1686 H 0.3228 0.07584 0.62547 0.0
H1687 H 0.31226 0.10898 0.62572 0.0
H1688 H 0.39171 0.07131 0.7409 0.0
H1689 H 0.36596 0.15078 0.74191 0.0
H1690 H 0.39774 0.06379 0.60358 0.0
H1691 H 0.36517 0.05368 0.61793 0.0
H1692 H 0.3911 0.04555 0.66373 0.0
H1693 H 0.36681 0.16122 0.60461 0.0
H1694 H 0.35102 0.17213 0.66494 0.0
H1695 H 0.33427 0.15096 0.61886 0.0
C1696 C 0.12803 0.65033 0.55227 0.0
C1697 C 0.10385 0.65291 0.57804 0.0
C1698 C 0.12965 0.64472 0.49726 0.0
C1699 C 0.10655 0.64172 0.46678 0.0
C1700 C 0.08207 0.64428 0.49251 0.0
C1701 C 0.08102 0.64973 0.5477 0.0
C1702 C 0.15616 0.64191 0.47178 0.0
C1703 C 0.05695 0.64142 0.46164 0.0
C1704 C 0.1109 0.64974 0.31487 0.0
C1705 C 0.11128 0.62378 0.29724 0.0
C1706 C 0.10922 0.65586 0.36968 0.0
C1707 C 0.10802 0.63558 0.40818 0.0
C1708 C 0.10847 0.60936 0.39065 0.0
C1709 C 0.11004 0.60381 0.33562 0.0
C1710 C 0.10863 0.68408 0.38636 0.0
C1711 C 0.10743 0.58711 0.43012 0.0
H1712 H 0.14579 0.65239 0.57535 0.0
H1713 H 0.06224 0.65198 0.56694 0.0
H1714 H 0.15812 0.62224 0.45397 0.0
H1715 H 0.15835 0.65625 0.43887 0.0
H1716 H 0.17226 0.64484 0.50087 0.0
H1717 H 0.03951 0.64415 0.48731 0.0
H1718 H 0.05629 0.65589 0.42868 0.0
H1719 H 0.05595 0.62183 0.44317 0.0
H1720 H 0.11151 0.66534 0.28567 0.0
H1721 H 0.11069 0.5837 0.32267 0.0
H1722 H 0.12538 0.68832 0.41306 0.0
H1723 H 0.09061 0.68811 0.40936 0.0
H1724 H 0.10943 0.69756 0.35159 0.0
H1725 H 0.1242 0.58834 0.45804 0.0
H1726 H 0.10784 0.56781 0.41016 0.0
H1727 H 0.08943 0.58844 0.45449 0.0
C1728 C 0.63924 0.90376 0.50287 0.0
C1729 C 0.66477 0.9066 0.48347 0.0
C1730 C 0.63425 0.90045 0.55782 0.0
C1731 C 0.65527 0.89974 0.59463 0.0
C1732 C 0.68111 0.90237 0.57528 0.0
C1733 C 0.68552 0.90588 0.52013 0.0
C1734 C 0.6064 0.898 0.57656 0.0
C1735 C 0.70412 0.90147 0.61289 0.0
C1736 C 0.64103 0.91553 0.74095 0.0
C1737 C 0.63881 0.89067 0.76401 0.0
C1738 C 0.64655 0.91874 0.68618 0.0
C1739 C 0.65016 0.89658 0.65335 0.0
C1740 C 0.64837 0.87143 0.67652 0.0
C1741 C 0.64263 0.86878 0.73136 0.0
C1742 C 0.64808 0.94591 0.66325 0.0
C1743 C 0.65235 0.84727 0.64326 0.0
H1744 H 0.62304 0.90463 0.47508 0.0
H1745 H 0.70532 0.90774 0.50557 0.0
H1746 H 0.6037 0.87936 0.59835 0.0
H1747 H 0.60181 0.91394 0.6049 0.0
H1748 H 0.59225 0.89875 0.54294 0.0
H1749 H 0.723 0.90334 0.59154 0.0
H1750 H 0.70263 0.91742 0.64257 0.0
H1751 H 0.70407 0.88285 0.63548 0.0
H1752 H 0.63779 0.93258 0.76552 0.0
H1753 H 0.64128 0.8495 0.74881 0.0
H1754 H 0.63297 0.94842 0.63189 0.0
H1755 H 0.66729 0.94901 0.64396 0.0
H1756 H 0.64524 0.96114 0.69418 0.0
H1757 H 0.63746 0.84641 0.61113 0.0
H1758 H 0.65105 0.82916 0.66747 0.0
H1759 H 0.67171 0.84794 0.6236 0.0
C1760 C 0.89856 0.35479 0.3097 0.0
C1761 C 0.89337 0.38037 0.29278 0.0
C1762 C 0.90037 0.34847 0.36444 0.0
C1763 C 0.89682 0.36814 0.40347 0.0
C1764 C 0.8914 0.39393 0.38664 0.0
C1765 C 0.88976 0.39971 0.33173 0.0
C1766 C 0.90628 0.32075 0.38048 0.0
C1767 C 0.88729 0.41549 0.42672 0.0
C1768 C 0.8781 0.34897 0.54596 0.0
C1769 C 0.90189 0.35139 0.57334 0.0
C1770 C 0.87621 0.35417 0.4908 0.0
C1771 C 0.89869 0.36186 0.4619 0.0
C1772 C 0.9228 0.3642 0.48922 0.0
C1773 C 0.92408 0.35905 0.5445 0.0
C1774 C 0.85008 0.35167 0.46352 0.0
C1775 C 0.94727 0.37216 0.46002 0.0
H1776 H 0.90167 0.33974 0.28008 0.0
H1777 H 0.88533 0.41943 0.31926 0.0
H1778 H 0.92451 0.3201 0.40434 0.0
H1779 H 0.89043 0.31306 0.40617 0.0
H1780 H 0.90851 0.30771 0.34536 0.0
H1781 H 0.88317 0.4345 0.40723 0.0
H1782 H 0.87077 0.41055 0.45347 0.0
H1783 H 0.90485 0.41763 0.45223 0.0
H1784 H 0.86077 0.34337 0.56791 0.0
H1785 H 0.94262 0.36064 0.56506 0.0
H1786 H 0.85139 0.33758 0.43006 0.0
H1787 H 0.84429 0.3707 0.44615 0.0
H1788 H 0.83454 0.3451 0.49137 0.0
H1789 H 0.95113 0.35847 0.4267 0.0
H1790 H 0.96459 0.37256 0.4867 0.0
H1791 H 0.94469 0.39179 0.4422 0.0
C1792 C 0.357 0.39511 0.56603 0.0
C1793 C 0.38299 0.39504 0.54837 0.0
C1794 C 0.35085 0.39675 0.62084 0.0
C1795 C 0.37114 0.39828 0.65926 0.0
C1796 C 0.39739 0.39815 0.64171 0.0
C1797 C 0.40297 0.39657 0.5867 0.0
C1798 C 0.3226 0.39695 0.63759 0.0
C1799 C 0.41965 0.39958 0.68112 0.0
C1800 C 0.35671 0.42539 0.79844 0.0
C1801 C 0.35395 0.40262 0.8291 0.0
C1802 C 0.36209 0.42428 0.74324 0.0
C1803 C 0.36499 0.3998 0.71782 0.0
C1804 C 0.36238 0.37675 0.74861 0.0
C1805 C 0.35685 0.37844 0.80365 0.0
C1806 C 0.36455 0.44934 0.71203 0.0
C1807 C 0.36555 0.35026 0.72344 0.0
H1808 H 0.34139 0.39427 0.53688 0.0
H1809 H 0.42311 0.39615 0.57373 0.0
H1810 H 0.31862 0.38025 0.66454 0.0
H1811 H 0.3183 0.41496 0.66034 0.0
H1812 H 0.30912 0.39585 0.60287 0.0
H1813 H 0.43897 0.3994 0.66112 0.0
H1814 H 0.41807 0.41759 0.70529 0.0
H1815 H 0.41865 0.38287 0.70922 0.0
H1816 H 0.3542 0.44417 0.81745 0.0
H1817 H 0.3551 0.36073 0.82699 0.0
H1818 H 0.35005 0.44969 0.6791 0.0
H1819 H 0.38415 0.45059 0.69349 0.0
H1820 H 0.36156 0.46678 0.73747 0.0
H1821 H 0.35124 0.3478 0.69056 0.0
H1822 H 0.36281 0.3342 0.75272 0.0
H1823 H 0.38527 0.34851 0.70565 0.0
C1824 C 0.37554 0.65533 0.24828 0.0
C1825 C 0.39963 0.65498 0.22167 0.0
C1826 C 0.3737 0.64992 0.30338 0.0
C1827 C 0.39653 0.64413 0.33305 0.0
C1828 C 0.42093 0.6438 0.30649 0.0
C1829 C 0.42217 0.64911 0.25124 0.0
C1830 C 0.34727 0.65023 0.32978 0.0
C1831 C 0.44578 0.63791 0.3365 0.0
C1832 C 0.39457 0.65184 0.48514 0.0
C1833 C 0.39138 0.626 0.50248 0.0
C1834 C 0.39638 0.65802 0.43033 0.0
C1835 C 0.3948 0.63794 0.3916 0.0
C1836 C 0.39143 0.61186 0.40886 0.0
C1837 C 0.38982 0.60623 0.46387 0.0
C1838 C 0.40013 0.68606 0.41389 0.0
C1839 C 0.38942 0.58985 0.36913 0.0
H1840 H 0.35796 0.65952 0.22579 0.0
H1841 H 0.44092 0.6491 0.23132 0.0
H1842 H 0.34304 0.63086 0.34745 0.0
H1843 H 0.34712 0.66456 0.36292 0.0
H1844 H 0.33141 0.65526 0.30131 0.0
H1845 H 0.46323 0.63877 0.3103 0.0
H1846 H 0.44835 0.65202 0.36963 0.0
H1847 H 0.44463 0.61823 0.35467 0.0
H1848 H 0.3961 0.66724 0.51453 0.0
H1849 H 0.38697 0.58626 0.47666 0.0
H1850 H 0.38383 0.69233 0.3877 0.0
H1851 H 0.41835 0.68809 0.39042 0.0
H1852 H 0.40113 0.69937 0.4488 0.0
H1853 H 0.37273 0.59325 0.34178 0.0
H1854 H 0.38679 0.57064 0.38891 0.0
H1855 H 0.40727 0.5891 0.3442 0.0
C1856 C 0.67606 0.60215 0.77905 0.0
C1857 C 0.65575 0.60353 0.81656 0.0
C1858 C 0.67117 0.60425 0.72383 0.0
C1859 C 0.64531 0.60777 0.70533 0.0
C1860 C 0.62469 0.60909 0.74293 0.0
C1861 C 0.63015 0.60701 0.79796 0.0
C1862 C 0.69376 0.6029 0.68528 0.0
C1863 C 0.59682 0.61269 0.72502 0.0
C1864 C 0.63456 0.63726 0.56685 0.0
C1865 C 0.62938 0.61517 0.53558 0.0
C1866 C 0.63984 0.63513 0.62192 0.0
C1867 C 0.63987 0.6103 0.64669 0.0
C1868 C 0.63478 0.5879 0.61536 0.0
C1869 C 0.62967 0.59059 0.5603 0.0
C1870 C 0.6454 0.65949 0.65361 0.0
C1871 C 0.63451 0.56107 0.64011 0.0
H1872 H 0.69594 0.59986 0.79292 0.0
H1873 H 0.61428 0.6078 0.82648 0.0
H1874 H 0.69074 0.58674 0.65657 0.0
H1875 H 0.69488 0.62118 0.66168 0.0
H1876 H 0.71269 0.5999 0.70598 0.0
H1877 H 0.583 0.61317 0.75917 0.0
H1878 H 0.59491 0.63112 0.70217 0.0
H1879 H 0.59111 0.59661 0.69784 0.0
H1880 H 0.63475 0.6563 0.54809 0.0
H1881 H 0.62539 0.57342 0.53674 0.0
H1882 H 0.66493 0.65811 0.67247 0.0
H1883 H 0.63096 0.66152 0.68632 0.0
H1884 H 0.64475 0.67733 0.62845 0.0
H1885 H 0.65363 0.55692 0.65901 0.0
H1886 H 0.63029 0.54561 0.61034 0.0
H1887 H 0.61957 0.56015 0.6721 0.0
C1888 C 0.60423 0.35487 0.48912 0.0
C1889 C 0.61301 0.3794 0.5062 0.0
C1890 C 0.60243 0.34872 0.43438 0.0
C1891 C 0.60956 0.36754 0.3955 0.0
C1892 C 0.61849 0.39229 0.41244 0.0
C1893 C 0.62015 0.39788 0.46737 0.0
C1894 C 0.59287 0.32208 0.41818 0.0
C1895 C 0.62643 0.41288 0.37247 0.0
C1896 C 0.62814 0.34507 0.25534 0.0
C1897 C 0.60544 0.35049 0.22592 0.0
C1898 C 0.62968 0.35035 0.31042 0.0
C1899 C 0.60798 0.36133 0.33711 0.0
C1900 C 0.585 0.36685 0.30772 0.0
C1901 C 0.58402 0.36144 0.25257 0.0
C1902 C 0.65463 0.34434 0.34 0.0
C1903 C 0.56138 0.37845 0.33459 0.0
H1904 H 0.59836 0.34053 0.51858 0.0
H1905 H 0.6274 0.41671 0.47992 0.0
H1906 H 0.57557 0.32395 0.3918 0.0
H1907 H 0.60818 0.31189 0.39499 0.0
H1908 H 0.58757 0.30983 0.45318 0.0
H1909 H 0.63271 0.43124 0.39204 0.0
H1910 H 0.64268 0.40559 0.34742 0.0
H1911 H 0.60991 0.41728 0.34526 0.0
H1912 H 0.64492 0.33695 0.23507 0.0
H1913 H 0.56629 0.36541 0.23044 0.0
H1914 H 0.65065 0.33076 0.37355 0.0
H1915 H 0.66273 0.36245 0.35755 0.0
H1916 H 0.66962 0.33551 0.31366 0.0
H1917 H 0.55482 0.36557 0.36761 0.0
H1918 H 0.5449 0.38132 0.30635 0.0
H1919 H 0.56649 0.39752 0.35251 0.0
C1920 C 0.84417 0.62913 1.00303 0.0
C1921 C 0.84939 0.60643 0.97367 0.0
C1922 C 0.84948 0.63058 0.05815 0.0
C1923 C 0.86028 0.60879 0.08499 0.0
C1924 C 0.86563 0.58582 0.05566 0.0
C1925 C 0.86019 0.58493 1.00046 0.0
C1926 C 0.84365 0.65553 0.08763 0.0
C1927 C 0.87705 0.56212 0.08265 0.0
C1928 C 0.89686 0.62062 0.21563 0.0
C1929 C 0.87829 0.61363 0.25435 0.0
C1930 C 0.8913 0.619 0.16064 0.0
C1931 C 0.86647 0.61028 0.14348 0.0
C1932 C 0.84756 0.60331 0.18225 0.0
C1933 C 0.85369 0.60502 0.23706 0.0
C1934 C 0.912 0.6268 0.12083 0.0
C1935 C 0.82083 0.59396 0.16585 0.0
H1936 H 0.83618 0.64598 0.98269 0.0
H1937 H 0.86402 0.5672 0.9784 0.0
H1938 H 0.82999 0.65163 0.12107 0.0
H1939 H 0.86183 0.66345 0.10533 0.0
H1940 H 0.83495 0.6706 0.06119 0.0
H1941 H 0.87984 0.54567 0.05444 0.0
H1942 H 0.89616 0.56707 0.10076 0.0
H1943 H 0.86409 0.55561 0.11554 0.0
H1944 H 0.91575 0.62776 0.22829 0.0
H1945 H 0.83926 0.59925 0.2664 0.0
H1946 H 0.90486 0.64313 0.09572 0.0
H1947 H 0.91627 0.6103 0.09365 0.0
H1948 H 0.93043 0.63288 0.14054 0.0
H1949 H 0.81111 0.6089 0.14071 0.0
H1950 H 0.80818 0.58967 0.20081 0.0
H1951 H 0.82261 0.57608 0.14133 0.0
C1952 C 0.63002 0.14356 0.81633 0.0
C1953 C 0.60949 0.1311 0.7894 0.0
C1954 C 0.62851 0.14905 0.87139 0.0
C1955 C 0.60581 0.14217 0.90046 0.0
C1956 C 0.58489 0.12988 0.87338 0.0
C1957 C 0.58702 0.12442 0.8184 0.0
C1958 C 0.65135 0.162 0.89861 0.0
C1959 C 0.5602 0.12252 0.90251 0.0
C1960 C 0.61062 0.13498 0.05234 0.0
C1961 C 0.60128 0.15913 0.07021 0.0
C1962 C 0.61215 0.12918 0.99739 0.0
C1963 C 0.60395 0.14787 0.95912 0.0
C1964 C 0.59413 0.17213 0.97695 0.0
C1965 C 0.593 0.17748 0.03208 0.0
C1966 C 0.62292 0.10317 0.98027 0.0
C1967 C 0.58488 0.19252 0.93773 0.0
H1968 H 0.64758 0.14854 0.79452 0.0
H1969 H 0.57091 0.11511 0.7979 0.0
H1970 H 0.64507 0.18061 0.91698 0.0
H1971 H 0.65872 0.14937 0.93134 0.0
H1972 H 0.6676 0.16607 0.87051 0.0
H1973 H 0.5456 0.11335 0.87567 0.0
H1974 H 0.56475 0.10874 0.93542 0.0
H1975 H 0.55137 0.14006 0.92088 0.0
H1976 H 0.61733 0.12078 0.08136 0.0
H1977 H 0.58541 0.19605 0.04542 0.0
H1978 H 0.64052 0.10613 0.95525 0.0
H1979 H 0.60839 0.09272 0.95541 0.0
H1980 H 0.62819 0.09064 1.01488 0.0
H1981 H 0.60112 0.19832 0.91099 0.0
H1982 H 0.57733 0.2102 0.95798 0.0
H1983 H 0.56923 0.18438 0.91208 0.0
C1984 C 0.11873 0.38414 0.22324 0.0
C1985 C 0.13709 0.38811 0.26413 0.0
C1986 C 0.12536 0.38734 0.16906 0.0
C1987 C 0.15106 0.39473 0.1549 0.0
C1988 C 0.16987 0.39831 0.19586 0.0
C1989 C 0.16268 0.39493 0.24985 0.0
C1990 C 0.1047 0.38312 0.1269 0.0
C1991 C 0.19746 0.40625 0.18277 0.0
C1992 C 0.17147 0.38296 1.00992 0.0
C1993 C 0.16706 0.40742 0.98635 0.0
C1994 C 0.16695 0.37869 0.06483 0.0
C1995 C 0.15786 0.39937 0.09732 0.0
C1996 C 0.15397 0.42424 0.07402 0.0
C1997 C 0.15855 0.42793 1.01904 0.0
C1998 C 0.17128 0.35185 0.08782 0.0
C1999 C 0.14448 0.4469 0.10704 0.0
H2000 H 0.09904 0.37842 0.23361 0.0
H2001 H 0.17699 0.39829 0.281 0.0
H2002 H 0.10145 0.40143 0.10427 0.0
H2003 H 0.1113 0.36822 0.09786 0.0
H2004 H 0.08584 0.37673 0.14429 0.0
H2005 H 0.21012 0.40688 0.21882 0.0
H2006 H 0.20607 0.39249 0.15357 0.0
H2007 H 0.19745 0.4258 0.16384 0.0
H2008 H 0.1778 0.36689 0.9851 0.0
H2009 H 0.15549 0.44702 1.00157 0.0
H2010 H 0.15249 0.34375 0.10216 0.0
H2011 H 0.18454 0.3529 0.1228 0.0
H2012 H 0.17969 0.3382 0.05808 0.0
H2013 H 0.12474 0.44261 0.12286 0.0
H2014 H 0.14358 0.46528 0.08361 0.0
H2015 H 0.15751 0.4499 0.14191 0.0
C2016 C 0.37868 0.84932 0.04137 0.0
C2017 C 0.40287 0.85154 0.06735 0.0
C2018 C 0.3761 0.8544 0.98628 0.0
C2019 C 0.39825 0.86177 0.95601 0.0
C2020 C 0.42274 0.86394 0.98192 0.0
C2021 C 0.42473 0.85891 0.03716 0.0
C2022 C 0.34958 0.85209 0.96053 0.0
C2023 C 0.44689 0.87158 0.95124 0.0
C2024 C 0.39603 0.85399 0.80402 0.0
C2025 C 0.39087 0.87954 0.78687 0.0
C2026 C 0.39852 0.84792 0.85876 0.0
C2027 C 0.39568 0.86781 0.89757 0.0
C2028 C 0.39029 0.89357 0.88051 0.0
C2029 C 0.38798 0.8991 0.82559 0.0
C2030 C 0.40437 0.82022 0.87504 0.0
C2031 C 0.38693 0.91536 0.92036 0.0
H2032 H 0.36161 0.84396 0.06437 0.0
H2033 H 0.44356 0.86036 0.05661 0.0
H2034 H 0.34378 0.87111 0.94312 0.0
H2035 H 0.35028 0.83784 0.92729 0.0
H2036 H 0.33435 0.84584 0.98937 0.0
H2037 H 0.46456 0.87195 0.97694 0.0
H2038 H 0.4502 0.8577 0.91798 0.0
H2039 H 0.44423 0.89114 0.93318 0.0
H2040 H 0.39859 0.83876 0.77455 0.0
H2041 H 0.38359 0.91881 0.81296 0.0
H2042 H 0.38876 0.81279 0.90168 0.0
H2043 H 0.42287 0.81951 0.89798 0.0
H2044 H 0.40605 0.807 0.84008 0.0
H2045 H 0.37072 0.91071 0.94812 0.0
H2046 H 0.38275 0.93432 0.90072 0.0
H2047 H 0.40484 0.91744 0.94485 0.0
C2048 C 0.84975 0.87955 0.30142 0.0
C2049 C 0.85091 0.90356 0.32814 0.0
C2050 C 0.85499 0.87762 0.24628 0.0
C2051 C 0.86148 0.90025 0.21664 0.0
C2052 C 0.86258 0.92458 0.24329 0.0
C2053 C 0.85738 0.92592 0.29856 0.0
C2054 C 0.85381 0.85125 0.21981 0.0
C2055 C 0.86926 0.94923 0.21336 0.0
C2056 C 0.89964 0.89223 0.08661 0.0
C2057 C 0.8801 0.89457 0.04746 0.0
C2058 C 0.89384 0.89408 0.14149 0.0
C2059 C 0.86781 0.89835 0.15817 0.0
C2060 C 0.84795 0.90065 0.11894 0.0
C2061 C 0.8543 0.8987 0.06425 0.0
C2062 C 0.91565 0.89136 0.18171 0.0
C2063 C 0.81995 0.9053 0.13473 0.0
H2064 H 0.84511 0.86208 0.32386 0.0
H2065 H 0.85801 0.94462 0.3185 0.0
H2066 H 0.83964 0.85165 0.18629 0.0
H2067 H 0.87312 0.84635 0.20266 0.0
H2068 H 0.84806 0.83559 0.24812 0.0
H2069 H 0.86883 0.96668 0.23953 0.0
H2070 H 0.88899 0.94753 0.19558 0.0
H2071 H 0.85533 0.9522 0.17996 0.0
H2072 H 0.91956 0.88862 0.07437 0.0
H2073 H 0.83906 0.90084 0.03453 0.0
H2074 H 0.91162 0.87475 0.20891 0.0
H2075 H 0.91685 0.90913 0.20673 0.0
H2076 H 0.93486 0.88818 0.16236 0.0
H2077 H 0.81304 0.88924 0.16085 0.0
H2078 H 0.8068 0.9067 0.09952 0.0
H2079 H 0.81843 0.92358 0.15807 0.0
C2080 C 0.89223 0.10626 0.96725 0.0
C2081 C 0.89292 0.1262 1.00563 0.0
C2082 C 0.89391 0.11178 0.91222 0.0
C2083 C 0.89639 0.13791 0.89468 0.0
C2084 C 0.89705 0.15815 0.93314 0.0
C2085 C 0.89526 0.15208 0.98799 0.0
C2086 C 0.89294 0.08959 0.87275 0.0
C2087 C 0.8998 0.18627 0.91638 0.0
C2088 C 0.92399 0.1499 0.75484 0.0
C2089 C 0.90139 0.15487 0.7248 0.0
C2090 C 0.92268 0.14458 0.81007 0.0
C2091 C 0.89815 0.14399 0.83611 0.0
C2092 C 0.87526 0.14884 0.80594 0.0
C2093 C 0.87716 0.15427 0.75088 0.0
C2094 C 0.94759 0.1397 0.84063 0.0
C2095 C 0.8487 0.14815 0.83181 0.0
H2096 H 0.89003 0.08624 0.98024 0.0
H2097 H 0.89612 0.16763 1.01718 0.0
H2098 H 0.87623 0.09224 0.84508 0.0
H2099 H 0.9109 0.08947 0.84812 0.0
H2100 H 0.89099 0.07035 0.89274 0.0
H2101 H 0.9001 0.19972 0.95111 0.0
H2102 H 0.91805 0.18892 0.89326 0.0
H2103 H 0.8834 0.19181 0.88975 0.0
H2104 H 0.94282 0.15062 0.73531 0.0
H2105 H 0.85955 0.15776 0.72799 0.0
H2106 H 0.94708 0.12005 0.85907 0.0
H2107 H 0.94949 0.15401 0.87359 0.0
H2108 H 0.96512 0.14111 0.81474 0.0
H2109 H 0.84518 0.12867 0.84965 0.0
H2110 H 0.83279 0.15244 0.80295 0.0
H2111 H 0.84781 0.16255 0.86475 0.0
C2112 C 0.16447 0.1112 0.04595 0.0
C2113 C 0.13861 0.11527 0.02947 0.0
C2114 C 0.17083 0.10777 0.10032 0.0
C2115 C 0.15086 0.1084 0.13943 0.0
C2116 C 0.12473 0.11243 0.12306 0.0
C2117 C 0.11894 0.1158 0.06849 0.0
C2118 C 0.19896 0.10364 0.11589 0.0
C2119 C 0.10279 0.11308 0.16325 0.0
C2120 C 0.16188 0.07661 0.27571 0.0
C2121 C 0.167 0.09819 0.30853 0.0
C2122 C 0.15698 0.0796 0.22065 0.0
C2123 C 0.15717 0.1048 0.19748 0.0
C2124 C 0.16261 0.12664 0.23021 0.0
C2125 C 0.16743 0.12308 0.28517 0.0
C2126 C 0.15121 0.05579 0.18737 0.0
C2127 C 0.16311 0.15383 0.20723 0.0
H2128 H 0.17986 0.11103 1.01635 0.0
H2129 H 0.09885 0.11848 0.05628 0.0
H2130 H 0.2056 0.11991 0.14165 0.0
H2131 H 0.20098 0.08546 0.13952 0.0
H2132 H 0.21202 0.10246 0.08058 0.0
H2133 H 0.08354 0.11648 0.14414 0.0
H2134 H 0.10202 0.09439 0.1855 0.0
H2135 H 0.10633 0.12872 0.19293 0.0
H2136 H 0.16114 0.05733 0.29331 0.0
H2137 H 0.17173 0.13986 0.30986 0.0
H2138 H 0.16502 0.05463 0.15335 0.0
H2139 H 0.1313 0.05724 0.17027 0.0
H2140 H 0.15259 0.0375 0.21096 0.0
H2141 H 0.17742 0.15494 0.17407 0.0
H2142 H 0.16826 0.1687 0.23765 0.0
H2143 H 0.14373 0.15872 0.19027 0.0
C2144 C 0.07725 0.84841 0.76797 0.0
C2145 C 0.09768 0.83958 0.73534 0.0
C2146 C 0.08098 0.85295 0.82295 0.0
C2147 C 0.10581 0.84871 0.84628 0.0
C2148 C 0.1264 0.83932 0.81384 0.0
C2149 C 0.12208 0.83482 0.75894 0.0
C2150 C 0.05841 0.86274 0.85593 0.0
C2151 C 0.15319 0.83465 0.83684 0.0
C2152 C 0.12148 0.88758 0.9722 0.0
C2153 C 0.11727 0.86928 1.0131 0.0
C2154 C 0.11822 0.88101 0.91802 0.0
C2155 C 0.11051 0.85543 0.90387 0.0
C2156 C 0.10668 0.83668 0.94484 0.0
C2157 C 0.11014 0.8438 0.99883 0.0
C2158 C 0.12274 0.9016 0.87585 0.0
C2159 C 0.09838 0.80922 0.93176 0.0
H2160 H 0.05822 0.85175 0.75046 0.0
H2161 H 0.13808 0.82824 0.73415 0.0
H2162 H 0.05521 0.84976 0.89082 0.0
H2163 H 0.06296 0.8824 0.87172 0.0
H2164 H 0.04005 0.86388 0.83249 0.0
H2165 H 0.16677 0.82609 0.8071 0.0
H2166 H 0.16152 0.85331 0.85122 0.0
H2167 H 0.15195 0.82138 0.8718 0.0
H2168 H 0.12743 0.90718 0.98257 0.0
H2169 H 0.1066 0.82954 0.02998 0.0
H2170 H 0.10446 0.90511 0.85323 0.0
H2171 H 0.13756 0.89481 0.84679 0.0
H2172 H 0.12939 0.92035 0.89323 0.0
H2173 H 0.07876 0.80949 0.91308 0.0
H2174 H 0.09769 0.79655 0.9678 0.0
H2175 H 0.11197 0.80049 0.90238 0.0
loop_
_geom_bond_atom_site_label_1
_geom_bond_atom_site_label_2
_geom_bond_distance
_geom_bond_site_symmetry_2
_ccdc_geom_bond_type
Tb0 C2 2.809 . S
Tb0 O20 2.484 . S
Tb0 O21 2.440 . S
Tb0 O22 2.658 . S
Tb0 O23 2.409 . S
Tb0 O24 2.378 . S
Tb0 O28 2.325 . S
Tb0 O31 2.341 . S
Tb1 C11 2.809 1_554 S
Tb1 O22 2.325 . S
Tb1 O25 2.341 . S
Tb1 O26 2.484 1_554 S
Tb1 O27 2.440 1_554 S
Tb1 O28 2.658 . S
Tb1 O29 2.409 . S
Tb1 O30 2.378 . S
C2 Tb0 2.809 . S
C2 C3 1.514 . S
C2 O20 1.248 . S
C2 O21 1.266 . S
C3 C2 1.514 . S
C3 C4 1.359 . S
C3 C8 1.348 . S
C4 C3 1.359 . S
C4 C5 1.380 . S
C4 H32 0.929 . S
C5 C4 1.380 . S
C5 C6 1.347 . S
C5 H33 0.931 . S
C6 C5 1.347 . S
C6 C7 1.369 . S
C7 C6 1.369 . S
C7 C8 1.408 . S
C7 H34 0.930 . S
C8 C3 1.348 . S
C8 C7 1.408 . S
C8 H35 0.930 . S
C9 O22 1.281 . S
C9 O23 1.254 . S
C10 O24 1.236 . S
C10 O25 1.266 . S
C11 Tb1 2.809 1_556 S
C11 C12 1.514 . S
C11 O26 1.248 . S
C11 O27 1.266 . S
C12 C11 1.514 . S
C12 C13 1.359 . S
C12 C17 1.348 . S
C13 C12 1.359 . S
C13 C14 1.380 . S
C13 H36 0.929 . S
C14 C13 1.380 . S
C14 C15 1.347 . S
C14 H37 0.931 . S
C15 C14 1.347 . S
C15 C16 1.369 . S
C16 C15 1.369 . S
C16 C17 1.408 . S
C16 H38 0.930 . S
C17 C12 1.348 . S
C17 C16 1.408 . S
C17 H39 0.930 . S
C18 O28 1.281 . S
C18 O29 1.254 . S
C19 O30 1.236 . S
C19 O31 1.266 . S
O20 Tb0 2.484 . S
O20 C2 1.248 . S
O21 Tb0 2.440 . S
O21 C2 1.266 . S
O22 Tb0 2.658 . S
O22 Tb1 2.325 . S
O22 C9 1.281 . S
O23 Tb0 2.409 . S
O23 C9 1.254 . S
O24 Tb0 2.378 . S
O24 C10 1.236 . S
O25 Tb1 2.341 . S
O25 C10 1.266 . S
O26 Tb1 2.484 1_556 S
O26 C11 1.248 . S
O27 Tb1 2.440 1_556 S
O27 C11 1.266 . S
O28 Tb0 2.325 . S
O28 Tb1 2.658 . S
O28 C18 1.281 . S
O29 Tb1 2.409 . S
O29 C18 1.254 . S
O30 Tb1 2.378 . S
O30 C19 1.236 . S
O31 Tb0 2.341 . S
O31 C19 1.266 . S
H32 C4 0.929 . S
H33 C5 0.931 . S
H34 C7 0.930 . S
H35 C8 0.930 . S
H36 C13 0.929 . S
H37 C14 0.931 . S
H38 C16 0.930 . S
H39 C17 0.930 . S
Tb40 C42 2.809 1_556 S
Tb40 O60 2.484 1_556 S
Tb40 O61 2.440 1_556 S
Tb40 O62 2.658 . S
Tb40 O63 2.409 . S
Tb40 O64 2.378 . S
Tb40 O68 2.325 . S
Tb40 O71 2.341 . S
Tb41 C51 2.809 . S
Tb41 O62 2.325 . S
Tb41 O65 2.341 . S
Tb41 O66 2.484 . S
Tb41 O67 2.440 . S
Tb41 O68 2.658 . S
Tb41 O69 2.409 . S
Tb41 O70 2.378 . S
C42 Tb40 2.809 1_554 S
C42 C43 1.514 . S
C42 O60 1.248 . S
C42 O61 1.266 . S
C43 C42 1.514 . S
C43 C44 1.359 . S
C43 C48 1.348 . S
C44 C43 1.359 . S
C44 C45 1.380 . S
C44 H72 0.929 . S
C45 C44 1.380 . S
C45 C46 1.347 . S
C45 H73 0.931 . S
C46 C45 1.347 . S
C46 C47 1.369 . S
C47 C46 1.369 . S
C47 C48 1.408 . S
C47 H74 0.930 . S
C48 C43 1.348 . S
C48 C47 1.408 . S
C48 H75 0.930 . S
C49 O62 1.281 . S
C49 O63 1.254 . S
C50 O64 1.236 . S
C50 O65 1.266 . S
C51 Tb41 2.809 . S
C51 C52 1.514 . S
C51 O66 1.248 . S
C51 O67 1.266 . S
C52 C51 1.514 . S
C52 C53 1.359 . S
C52 C57 1.348 . S
C53 C52 1.359 . S
C53 C54 1.380 . S
C53 H76 0.929 . S
C54 C53 1.380 . S
C54 C55 1.347 . S
C54 H77 0.931 . S
C55 C54 1.347 . S
C55 C56 1.369 . S
C56 C55 1.369 . S
C56 C57 1.408 . S
C56 H78 0.930 . S
C57 C52 1.348 . S
C57 C56 1.408 . S
C57 H79 0.930 . S
C58 O68 1.281 . S
C58 O69 1.254 . S
C59 O70 1.236 . S
C59 O71 1.266 . S
O60 Tb40 2.484 1_554 S
O60 C42 1.248 . S
O61 Tb40 2.440 1_554 S
O61 C42 1.266 . S
O62 Tb40 2.658 . S
O62 Tb41 2.325 . S
O62 C49 1.281 . S
O63 Tb40 2.409 . S
O63 C49 1.254 . S
O64 Tb40 2.378 . S
O64 C50 1.236 . S
O65 Tb41 2.341 . S
O65 C50 1.266 . S
O66 Tb41 2.484 . S
O66 C51 1.248 . S
O67 Tb41 2.440 . S
O67 C51 1.266 . S
O68 Tb40 2.325 . S
O68 Tb41 2.658 . S
O68 C58 1.281 . S
O69 Tb41 2.409 . S
O69 C58 1.254 . S
O70 Tb41 2.378 . S
O70 C59 1.236 . S
O71 Tb40 2.341 . S
O71 C59 1.266 . S
H72 C44 0.929 . S
H73 C45 0.931 . S
H74 C47 0.930 . S
H75 C48 0.930 . S
H76 C53 0.929 . S
H77 C54 0.931 . S
H78 C56 0.930 . S
H79 C57 0.930 . S
Tb80 C82 2.809 . S
Tb80 O100 2.484 . S
Tb80 O101 2.440 . S
Tb80 O102 2.658 . S
Tb80 O103 2.409 . S
Tb80 O104 2.378 . S
Tb80 O108 2.325 . S
Tb80 O111 2.341 . S
Tb81 C91 2.809 1_554 S
Tb81 O102 2.325 . S
Tb81 O105 2.341 . S
Tb81 O106 2.484 1_554 S
Tb81 O107 2.440 1_554 S
Tb81 O108 2.658 . S
Tb81 O109 2.409 . S
Tb81 O110 2.378 . S
C82 Tb80 2.809 . S
C82 C83 1.514 . S
C82 O100 1.248 . S
C82 O101 1.266 . S
C83 C82 1.514 . S
C83 C84 1.359 . S
C83 C88 1.348 . S
C84 C83 1.359 . S
C84 C85 1.380 . S
C84 H112 0.929 . S
C85 C84 1.380 . S
C85 C86 1.347 . S
C85 H113 0.931 . S
C86 C85 1.347 . S
C86 C87 1.369 . S
C87 C86 1.369 . S
C87 C88 1.408 . S
C87 H114 0.930 . S
C88 C83 1.348 . S
C88 C87 1.408 . S
C88 H115 0.930 . S
C89 O102 1.281 . S
C89 O103 1.254 . S
C90 O104 1.236 . S
C90 O105 1.266 . S
C91 Tb81 2.809 1_556 S
C91 C92 1.514 . S
C91 O106 1.248 . S
C91 O107 1.266 . S
C92 C91 1.514 . S
C92 C93 1.359 . S
C92 C97 1.348 . S
C93 C92 1.359 . S
C93 C94 1.380 . S
C93 H116 0.929 . S
C94 C93 1.380 . S
C94 C95 1.347 . S
C94 H117 0.931 . S
C95 C94 1.347 . S
C95 C96 1.369 . S
C96 C95 1.369 . S
C96 C97 1.408 . S
C96 H118 0.930 . S
C97 C92 1.348 . S
C97 C96 1.408 . S
C97 H119 0.930 . S
C98 O108 1.281 . S
C98 O109 1.254 . S
C99 O110 1.236 . S
C99 O111 1.266 . S
O100 Tb80 2.484 . S
O100 C82 1.248 . S
O101 Tb80 2.440 . S
O101 C82 1.266 . S
O102 Tb80 2.658 . S
O102 Tb81 2.325 . S
O102 C89 1.281 . S
O103 Tb80 2.409 . S
O103 C89 1.254 . S
O104 Tb80 2.378 . S
O104 C90 1.236 . S
O105 Tb81 2.341 . S
O105 C90 1.266 . S
O106 Tb81 2.484 1_556 S
O106 C91 1.248 . S
O107 Tb81 2.440 1_556 S
O107 C91 1.266 . S
O108 Tb80 2.325 . S
O108 Tb81 2.658 . S
O108 C98 1.281 . S
O109 Tb81 2.409 . S
O109 C98 1.254 . S
O110 Tb81 2.378 . S
O110 C99 1.236 . S
O111 Tb80 2.341 . S
O111 C99 1.266 . S
H112 C84 0.929 . S
H113 C85 0.931 . S
H114 C87 0.930 . S
H115 C88 0.930 . S
H116 C93 0.929 . S
H117 C94 0.931 . S
H118 C96 0.930 . S
H119 C97 0.930 . S
Tb120 C122 2.809 1_556 S
Tb120 O140 2.484 1_556 S
Tb120 O141 2.440 1_556 S
Tb120 O142 2.658 . S
Tb120 O143 2.409 . S
Tb120 O144 2.378 . S
Tb120 O148 2.325 . S
Tb120 O151 2.341 . S
Tb121 C131 2.809 . S
Tb121 O142 2.325 . S
Tb121 O145 2.341 . S
Tb121 O146 2.484 . S
Tb121 O147 2.440 . S
Tb121 O148 2.658 . S
Tb121 O149 2.409 . S
Tb121 O150 2.378 . S
C122 Tb120 2.809 1_554 S
C122 C123 1.514 . S
C122 O140 1.248 . S
C122 O141 1.266 . S
C123 C122 1.514 . S
C123 C124 1.359 . S
C123 C128 1.348 . S
C124 C123 1.359 . S
C124 C125 1.380 . S
C124 H152 0.929 . S
C125 C124 1.380 . S
C125 C126 1.347 . S
C125 H153 0.931 . S
C126 C125 1.347 . S
C126 C127 1.369 . S
C127 C126 1.369 . S
C127 C128 1.408 . S
C127 H154 0.930 . S
C128 C123 1.348 . S
C128 C127 1.408 . S
C128 H155 0.930 . S
C129 O142 1.281 . S
C129 O143 1.254 . S
C130 O144 1.236 . S
C130 O145 1.266 . S
C131 Tb121 2.809 . S
C131 C132 1.514 . S
C131 O146 1.248 . S
C131 O147 1.266 . S
C132 C131 1.514 . S
C132 C133 1.359 . S
C132 C137 1.348 . S
C133 C132 1.359 . S
C133 C134 1.380 . S
C133 H156 0.929 . S
C134 C133 1.380 . S
C134 C135 1.347 . S
C134 H157 0.931 . S
C135 C134 1.347 . S
C135 C136 1.369 . S
C136 C135 1.369 . S
C136 C137 1.408 . S
C136 H158 0.930 . S
C137 C132 1.348 . S
C137 C136 1.408 . S
C137 H159 0.930 . S
C138 O148 1.281 . S
C138 O149 1.254 . S
C139 O150 1.236 . S
C139 O151 1.266 . S
O140 Tb120 2.484 1_554 S
O140 C122 1.248 . S
O141 Tb120 2.440 1_554 S
O141 C122 1.266 . S
O142 Tb120 2.658 . S
O142 Tb121 2.325 . S
O142 C129 1.281 . S
O143 Tb120 2.409 . S
O143 C129 1.254 . S
O144 Tb120 2.378 . S
O144 C130 1.236 . S
O145 Tb121 2.341 . S
O145 C130 1.266 . S
O146 Tb121 2.484 . S
O146 C131 1.248 . S
O147 Tb121 2.440 . S
O147 C131 1.266 . S
O148 Tb120 2.325 . S
O148 Tb121 2.658 . S
O148 C138 1.281 . S
O149 Tb121 2.409 . S
O149 C138 1.254 . S
O150 Tb121 2.378 . S
O150 C139 1.236 . S
O151 Tb120 2.341 . S
O151 C139 1.266 . S
H152 C124 0.929 . S
H153 C125 0.931 . S
H154 C127 0.930 . S
H155 C128 0.930 . S
H156 C133 0.929 . S
H157 C134 0.931 . S
H158 C136 0.930 . S
H159 C137 0.930 . S
Tb160 C162 2.809 1_554 S
Tb160 O180 2.484 1_554 S
Tb160 O181 2.440 1_554 S
Tb160 O182 2.658 . S
Tb160 O183 2.409 . S
Tb160 O184 2.378 . S
Tb160 O188 2.325 . S
Tb160 O191 2.341 . S
Tb161 C171 2.809 . S
Tb161 O182 2.325 . S
Tb161 O185 2.341 . S
Tb161 O186 2.484 . S
Tb161 O187 2.440 . S
Tb161 O188 2.658 . S
Tb161 O189 2.409 . S
Tb161 O190 2.378 . S
C162 Tb160 2.809 1_556 S
C162 C163 1.514 . S
C162 O180 1.248 . S
C162 O181 1.266 . S
C163 C162 1.514 . S
C163 C164 1.359 . S
C163 C168 1.348 . S
C164 C163 1.359 . S
C164 C165 1.380 . S
C164 H192 0.929 . S
C165 C164 1.380 . S
C165 C166 1.347 . S
C165 H193 0.931 . S
C166 C165 1.347 . S
C166 C167 1.369 . S
C167 C166 1.369 . S
C167 C168 1.408 . S
C167 H194 0.930 . S
C168 C163 1.348 . S
C168 C167 1.408 . S
C168 H195 0.930 . S
C169 O182 1.281 . S
C169 O183 1.254 . S
C170 O184 1.236 . S
C170 O185 1.266 . S
C171 Tb161 2.809 . S
C171 C172 1.514 . S
C171 O186 1.248 . S
C171 O187 1.266 . S
C172 C171 1.514 . S
C172 C173 1.359 . S
C172 C177 1.348 . S
C173 C172 1.359 . S
C173 C174 1.380 . S
C173 H196 0.929 . S
C174 C173 1.380 . S
C174 C175 1.347 . S
C174 H197 0.931 . S
C175 C174 1.347 . S
C175 C176 1.369 . S
C176 C175 1.369 . S
C176 C177 1.408 . S
C176 H198 0.930 . S
C177 C172 1.348 . S
C177 C176 1.408 . S
C177 H199 0.930 . S
C178 O188 1.281 . S
C178 O189 1.254 . S
C179 O190 1.236 . S
C179 O191 1.266 . S
O180 Tb160 2.484 1_556 S
O180 C162 1.248 . S
O181 Tb160 2.440 1_556 S
O181 C162 1.266 . S
O182 Tb160 2.658 . S
O182 Tb161 2.325 . S
O182 C169 1.281 . S
O183 Tb160 2.409 . S
O183 C169 1.254 . S
O184 Tb160 2.378 . S
O184 C170 1.236 . S
O185 Tb161 2.341 . S
O185 C170 1.266 . S
O186 Tb161 2.484 . S
O186 C171 1.248 . S
O187 Tb161 2.440 . S
O187 C171 1.266 . S
O188 Tb160 2.325 . S
O188 Tb161 2.658 . S
O188 C178 1.281 . S
O189 Tb161 2.409 . S
O189 C178 1.254 . S
O190 Tb161 2.378 . S
O190 C179 1.236 . S
O191 Tb160 2.341 . S
O191 C179 1.266 . S
H192 C164 0.929 . S
H193 C165 0.931 . S
H194 C167 0.930 . S
H195 C168 0.930 . S
H196 C173 0.929 . S
H197 C174 0.931 . S
H198 C176 0.930 . S
H199 C177 0.930 . S
Tb200 C202 2.809 . S
Tb200 O220 2.484 . S
Tb200 O221 2.440 . S
Tb200 O222 2.658 . S
Tb200 O223 2.409 . S
Tb200 O224 2.378 . S
Tb200 O228 2.325 . S
Tb200 O231 2.341 . S
Tb201 C211 2.809 1_556 S
Tb201 O222 2.325 . S
Tb201 O225 2.341 . S
Tb201 O226 2.484 1_556 S
Tb201 O227 2.440 1_556 S
Tb201 O228 2.658 . S
Tb201 O229 2.409 . S
Tb201 O230 2.378 . S
C202 Tb200 2.809 . S
C202 C203 1.514 . S
C202 O220 1.248 . S
C202 O221 1.266 . S
C203 C202 1.514 . S
C203 C204 1.359 . S
C203 C208 1.348 . S
C204 C203 1.359 . S
C204 C205 1.380 . S
C204 H232 0.929 . S
C205 C204 1.380 . S
C205 C206 1.347 . S
C205 H233 0.931 . S
C206 C205 1.347 . S
C206 C207 1.369 . S
C207 C206 1.369 . S
C207 C208 1.408 . S
C207 H234 0.930 . S
C208 C203 1.348 . S
C208 C207 1.408 . S
C208 H235 0.930 . S
C209 O222 1.281 . S
C209 O223 1.254 . S
C210 O224 1.236 . S
C210 O225 1.266 . S
C211 Tb201 2.809 1_554 S
C211 C212 1.514 . S
C211 O226 1.248 . S
C211 O227 1.266 . S
C212 C211 1.514 . S
C212 C213 1.359 . S
C212 C217 1.348 . S
C213 C212 1.359 . S
C213 C214 1.380 . S
C213 H236 0.929 . S
C214 C213 1.380 . S
C214 C215 1.347 . S
C214 H237 0.931 . S
C215 C214 1.347 . S
C215 C216 1.369 . S
C216 C215 1.369 . S
C216 C217 1.408 . S
C216 H238 0.930 . S
C217 C212 1.348 . S
C217 C216 1.408 . S
C217 H239 0.930 . S
C218 O228 1.281 . S
C218 O229 1.254 . S
C219 O230 1.236 . S
C219 O231 1.266 . S
O220 Tb200 2.484 . S
O220 C202 1.248 . S
O221 Tb200 2.440 . S
O221 C202 1.266 . S
O222 Tb200 2.658 . S
O222 Tb201 2.325 . S
O222 C209 1.281 . S
O223 Tb200 2.409 . S
O223 C209 1.254 . S
O224 Tb200 2.378 . S
O224 C210 1.236 . S
O225 Tb201 2.341 . S
O225 C210 1.266 . S
O226 Tb201 2.484 1_554 S
O226 C211 1.248 . S
O227 Tb201 2.440 1_554 S
O227 C211 1.266 . S
O228 Tb200 2.325 . S
O228 Tb201 2.658 . S
O228 C218 1.281 . S
O229 Tb201 2.409 . S
O229 C218 1.254 . S
O230 Tb201 2.378 . S
O230 C219 1.236 . S
O231 Tb200 2.341 . S
O231 C219 1.266 . S
H232 C204 0.929 . S
H233 C205 0.931 . S
H234 C207 0.930 . S
H235 C208 0.930 . S
H236 C213 0.929 . S
H237 C214 0.931 . S
H238 C216 0.930 . S
H239 C217 0.930 . S
Tb240 C242 2.809 1_554 S
Tb240 O260 2.484 1_554 S
Tb240 O261 2.440 1_554 S
Tb240 O262 2.658 . S
Tb240 O263 2.409 . S
Tb240 O264 2.378 . S
Tb240 O268 2.325 . S
Tb240 O271 2.341 . S
Tb241 C251 2.809 . S
Tb241 O262 2.325 . S
Tb241 O265 2.341 . S
Tb241 O266 2.484 . S
Tb241 O267 2.440 . S
Tb241 O268 2.658 . S
Tb241 O269 2.409 . S
Tb241 O270 2.378 . S
C242 Tb240 2.809 1_556 S
C242 C243 1.514 . S
C242 O260 1.248 . S
C242 O261 1.266 . S
C243 C242 1.514 . S
C243 C244 1.359 . S
C243 C248 1.348 . S
C244 C243 1.359 . S
C244 C245 1.380 . S
C244 H272 0.929 . S
C245 C244 1.380 . S
C245 C246 1.347 . S
C245 H273 0.931 . S
C246 C245 1.347 . S
C246 C247 1.369 . S
C247 C246 1.369 . S
C247 C248 1.408 . S
C247 H274 0.930 . S
C248 C243 1.348 . S
C248 C247 1.408 . S
C248 H275 0.930 . S
C249 O262 1.281 . S
C249 O263 1.254 . S
C250 O264 1.236 . S
C250 O265 1.266 . S
C251 Tb241 2.809 . S
C251 C252 1.514 . S
C251 O266 1.248 . S
C251 O267 1.266 . S
C252 C251 1.514 . S
C252 C253 1.359 . S
C252 C257 1.348 . S
C253 C252 1.359 . S
C253 C254 1.380 . S
C253 H276 0.929 . S
C254 C253 1.380 . S
C254 C255 1.347 . S
C254 H277 0.931 . S
C255 C254 1.347 . S
C255 C256 1.369 . S
C256 C255 1.369 . S
C256 C257 1.408 . S
C256 H278 0.930 . S
C257 C252 1.348 . S
C257 C256 1.408 . S
C257 H279 0.930 . S
C258 O268 1.281 . S
C258 O269 1.254 . S
C259 O270 1.236 . S
C259 O271 1.266 . S
O260 Tb240 2.484 1_556 S
O260 C242 1.248 . S
O261 Tb240 2.440 1_556 S
O261 C242 1.266 . S
O262 Tb240 2.658 . S
O262 Tb241 2.325 . S
O262 C249 1.281 . S
O263 Tb240 2.409 . S
O263 C249 1.254 . S
O264 Tb240 2.378 . S
O264 C250 1.236 . S
O265 Tb241 2.341 . S
O265 C250 1.266 . S
O266 Tb241 2.484 . S
O266 C251 1.248 . S
O267 Tb241 2.440 . S
O267 C251 1.266 . S
O268 Tb240 2.325 . S
O268 Tb241 2.658 . S
O268 C258 1.281 . S
O269 Tb241 2.409 . S
O269 C258 1.254 . S
O270 Tb241 2.378 . S
O270 C259 1.236 . S
O271 Tb240 2.341 . S
O271 C259 1.266 . S
H272 C244 0.929 . S
H273 C245 0.931 . S
H274 C247 0.930 . S
H275 C248 0.930 . S
H276 C253 0.929 . S
H277 C254 0.931 . S
H278 C256 0.930 . S
H279 C257 0.930 . S
Tb280 C282 2.809 . S
Tb280 O300 2.484 . S
Tb280 O301 2.440 . S
Tb280 O302 2.658 . S
Tb280 O303 2.409 . S
Tb280 O304 2.378 . S
Tb280 O308 2.325 . S
Tb280 O311 2.341 . S
Tb281 C291 2.809 1_556 S
Tb281 O302 2.325 . S
Tb281 O305 2.341 . S
Tb281 O306 2.484 1_556 S
Tb281 O307 2.440 1_556 S
Tb281 O308 2.658 . S
Tb281 O309 2.409 . S
Tb281 O310 2.378 . S
C282 Tb280 2.809 . S
C282 C283 1.514 . S
C282 O300 1.248 . S
C282 O301 1.266 . S
C283 C282 1.514 . S
C283 C284 1.359 . S
C283 C288 1.348 . S
C284 C283 1.359 . S
C284 C285 1.380 . S
C284 H312 0.929 . S
C285 C284 1.380 . S
C285 C286 1.347 . S
C285 H313 0.931 . S
C286 C285 1.347 . S
C286 C287 1.369 . S
C287 C286 1.369 . S
C287 C288 1.408 . S
C287 H314 0.930 . S
C288 C283 1.348 . S
C288 C287 1.408 . S
C288 H315 0.930 . S
C289 O302 1.281 . S
C289 O303 1.254 . S
C290 O304 1.236 . S
C290 O305 1.266 . S
C291 Tb281 2.809 1_554 S
C291 C292 1.514 . S
C291 O306 1.248 . S
C291 O307 1.266 . S
C292 C291 1.514 . S
C292 C293 1.359 . S
C292 C297 1.348 . S
C293 C292 1.359 . S
C293 C294 1.380 . S
C293 H316 0.929 . S
C294 C293 1.380 . S
C294 C295 1.347 . S
C294 H317 0.931 . S
C295 C294 1.347 . S
C295 C296 1.369 . S
C296 C295 1.369 . S
C296 C297 1.408 . S
C296 H318 0.930 . S
C297 C292 1.348 . S
C297 C296 1.408 . S
C297 H319 0.930 . S
C298 O308 1.281 . S
C298 O309 1.254 . S
C299 O310 1.236 . S
C299 O311 1.266 . S
O300 Tb280 2.484 . S
O300 C282 1.248 . S
O301 Tb280 2.440 . S
O301 C282 1.266 . S
O302 Tb280 2.658 . S
O302 Tb281 2.325 . S
O302 C289 1.281 . S
O303 Tb280 2.409 . S
O303 C289 1.254 . S
O304 Tb280 2.378 . S
O304 C290 1.236 . S
O305 Tb281 2.341 . S
O305 C290 1.266 . S
O306 Tb281 2.484 1_554 S
O306 C291 1.248 . S
O307 Tb281 2.440 1_554 S
O307 C291 1.266 . S
O308 Tb280 2.325 . S
O308 Tb281 2.658 . S
O308 C298 1.281 . S
O309 Tb281 2.409 . S
O309 C298 1.254 . S
O310 Tb281 2.378 . S
O310 C299 1.236 . S
O311 Tb280 2.341 . S
O311 C299 1.266 . S
H312 C284 0.929 . S
H313 C285 0.931 . S
H314 C287 0.930 . S
H315 C288 0.930 . S
H316 C293 0.929 . S
H317 C294 0.931 . S
H318 C296 0.930 . S
H319 C297 0.930 . S
Tb320 C322 2.809 . S
Tb320 O340 2.484 . S
Tb320 O341 2.440 . S
Tb320 O342 2.658 . S
Tb320 O343 2.409 . S
Tb320 O344 2.378 . S
Tb320 O348 2.325 . S
Tb320 O351 2.341 . S
Tb321 C331 2.809 . S
Tb321 O342 2.325 . S
Tb321 O345 2.341 . S
Tb321 O346 2.484 . S
Tb321 O347 2.440 . S
Tb321 O348 2.658 . S
Tb321 O349 2.409 . S
Tb321 O350 2.378 . S
C322 Tb320 2.809 . S
C322 C323 1.514 . S
C322 O340 1.248 . S
C322 O341 1.266 . S
C323 C322 1.514 . S
C323 C324 1.359 . S
C323 C328 1.348 . S
C324 C323 1.359 . S
C324 C325 1.380 . S
C324 H352 0.929 . S
C325 C324 1.380 . S
C325 C326 1.347 . S
C325 H353 0.931 . S
C326 C325 1.347 . S
C326 C327 1.369 . S
C327 C326 1.369 . S
C327 C328 1.408 . S
C327 H354 0.930 . S
C328 C323 1.348 . S
C328 C327 1.408 . S
C328 H355 0.930 . S
C329 O342 1.281 . S
C329 O343 1.254 . S
C330 O344 1.236 . S
C330 O345 1.266 . S
C331 Tb321 2.809 . S
C331 C332 1.514 . S
C331 O346 1.248 . S
C331 O347 1.266 . S
C332 C331 1.514 . S
C332 C333 1.359 . S
C332 C337 1.348 . S
C333 C332 1.359 . S
C333 C334 1.380 . S
C333 H356 0.929 . S
C334 C333 1.380 . S
C334 C335 1.347 . S
C334 H357 0.931 . S
C335 C334 1.347 . S
C335 C336 1.369 . S
C336 C335 1.369 . S
C336 C337 1.408 . S
C336 H358 0.930 . S
C337 C332 1.348 . S
C337 C336 1.408 . S
C337 H359 0.930 . S
C338 O348 1.281 . S
C338 O349 1.254 . S
C339 O350 1.236 . S
C339 O351 1.266 . S
O340 Tb320 2.484 . S
O340 C322 1.248 . S
O341 Tb320 2.440 . S
O341 C322 1.266 . S
O342 Tb320 2.658 . S
O342 Tb321 2.325 . S
O342 C329 1.281 . S
O343 Tb320 2.409 . S
O343 C329 1.254 . S
O344 Tb320 2.378 . S
O344 C330 1.236 . S
O345 Tb321 2.341 . S
O345 C330 1.266 . S
O346 Tb321 2.484 . S
O346 C331 1.248 . S
O347 Tb321 2.440 . S
O347 C331 1.266 . S
O348 Tb320 2.325 . S
O348 Tb321 2.658 . S
O348 C338 1.281 . S
O349 Tb321 2.409 . S
O349 C338 1.254 . S
O350 Tb321 2.378 . S
O350 C339 1.236 . S
O351 Tb320 2.341 . S
O351 C339 1.266 . S
H352 C324 0.929 . S
H353 C325 0.931 . S
H354 C327 0.930 . S
H355 C328 0.930 . S
H356 C333 0.929 . S
H357 C334 0.931 . S
H358 C336 0.930 . S
H359 C337 0.930 . S
Tb360 C362 2.809 . S
Tb360 O380 2.484 . S
Tb360 O381 2.440 . S
Tb360 O382 2.658 . S
Tb360 O383 2.409 . S
Tb360 O384 2.378 . S
Tb360 O388 2.325 . S
Tb360 O391 2.341 . S
Tb361 C371 2.809 . S
Tb361 O382 2.325 . S
Tb361 O385 2.341 . S
Tb361 O386 2.484 . S
Tb361 O387 2.440 . S
Tb361 O388 2.658 . S
Tb361 O389 2.409 . S
Tb361 O390 2.378 . S
C362 Tb360 2.809 . S
C362 C363 1.514 . S
C362 O380 1.248 . S
C362 O381 1.266 . S
C363 C362 1.514 . S
C363 C364 1.359 . S
C363 C368 1.348 . S
C364 C363 1.359 . S
C364 C365 1.380 . S
C364 H392 0.929 . S
C365 C364 1.380 . S
C365 C366 1.347 . S
C365 H393 0.931 . S
C366 C365 1.347 . S
C366 C367 1.369 . S
C367 C366 1.369 . S
C367 C368 1.408 . S
C367 H394 0.930 . S
C368 C363 1.348 . S
C368 C367 1.408 . S
C368 H395 0.930 . S
C369 O382 1.281 . S
C369 O383 1.254 . S
C370 O384 1.236 . S
C370 O385 1.266 . S
C371 Tb361 2.809 . S
C371 C372 1.514 . S
C371 O386 1.248 . S
C371 O387 1.266 . S
C372 C371 1.514 . S
C372 C373 1.359 . S
C372 C377 1.348 . S
C373 C372 1.359 . S
C373 C374 1.380 . S
C373 H396 0.929 . S
C374 C373 1.380 . S
C374 C375 1.347 . S
C374 H397 0.931 . S
C375 C374 1.347 . S
C375 C376 1.369 . S
C376 C375 1.369 . S
C376 C377 1.408 . S
C376 H398 0.930 . S
C377 C372 1.348 . S
C377 C376 1.408 . S
C377 H399 0.930 . S
C378 O388 1.281 . S
C378 O389 1.254 . S
C379 O390 1.236 . S
C379 O391 1.266 . S
O380 Tb360 2.484 . S
O380 C362 1.248 . S
O381 Tb360 2.440 . S
O381 C362 1.266 . S
O382 Tb360 2.658 . S
O382 Tb361 2.325 . S
O382 C369 1.281 . S
O383 Tb360 2.409 . S
O383 C369 1.254 . S
O384 Tb360 2.378 . S
O384 C370 1.236 . S
O385 Tb361 2.341 . S
O385 C370 1.266 . S
O386 Tb361 2.484 . S
O386 C371 1.248 . S
O387 Tb361 2.440 . S
O387 C371 1.266 . S
O388 Tb360 2.325 . S
O388 Tb361 2.658 . S
O388 C378 1.281 . S
O389 Tb361 2.409 . S
O389 C378 1.254 . S
O390 Tb361 2.378 . S
O390 C379 1.236 . S
O391 Tb360 2.341 . S
O391 C379 1.266 . S
H392 C364 0.929 . S
H393 C365 0.931 . S
H394 C367 0.930 . S
H395 C368 0.930 . S
H396 C373 0.929 . S
H397 C374 0.931 . S
H398 C376 0.930 . S
H399 C377 0.930 . S
Tb400 C402 2.809 . S
Tb400 O420 2.484 . S
Tb400 O421 2.440 . S
Tb400 O422 2.658 . S
Tb400 O423 2.409 . S
Tb400 O424 2.378 . S
Tb400 O428 2.325 . S
Tb400 O431 2.341 . S
Tb401 C411 2.809 . S
Tb401 O422 2.325 . S
Tb401 O425 2.341 . S
Tb401 O426 2.484 . S
Tb401 O427 2.440 . S
Tb401 O428 2.658 . S
Tb401 O429 2.409 . S
Tb401 O430 2.378 . S
C402 Tb400 2.809 . S
C402 C403 1.514 . S
C402 O420 1.248 . S
C402 O421 1.266 . S
C403 C402 1.514 . S
C403 C404 1.359 . S
C403 C408 1.348 . S
C404 C403 1.359 . S
C404 C405 1.380 . S
C404 H432 0.929 . S
C405 C404 1.380 . S
C405 C406 1.347 . S
C405 H433 0.931 . S
C406 C405 1.347 . S
C406 C407 1.369 . S
C407 C406 1.369 . S
C407 C408 1.408 . S
C407 H434 0.930 . S
C408 C403 1.348 . S
C408 C407 1.408 . S
C408 H435 0.930 . S
C409 O422 1.281 . S
C409 O423 1.254 . S
C410 O424 1.236 . S
C410 O425 1.266 . S
C411 Tb401 2.809 . S
C411 C412 1.514 . S
C411 O426 1.248 . S
C411 O427 1.266 . S
C412 C411 1.514 . S
C412 C413 1.359 . S
C412 C417 1.348 . S
C413 C412 1.359 . S
C413 C414 1.380 . S
C413 H436 0.929 . S
C414 C413 1.380 . S
C414 C415 1.347 . S
C414 H437 0.931 . S
C415 C414 1.347 . S
C415 C416 1.369 . S
C416 C415 1.369 . S
C416 C417 1.408 . S
C416 H438 0.930 . S
C417 C412 1.348 . S
C417 C416 1.408 . S
C417 H439 0.930 . S
C418 O428 1.281 . S
C418 O429 1.254 . S
C419 O430 1.236 . S
C419 O431 1.266 . S
O420 Tb400 2.484 . S
O420 C402 1.248 . S
O421 Tb400 2.440 . S
O421 C402 1.266 . S
O422 Tb400 2.658 . S
O422 Tb401 2.325 . S
O422 C409 1.281 . S
O423 Tb400 2.409 . S
O423 C409 1.254 . S
O424 Tb400 2.378 . S
O424 C410 1.236 . S
O425 Tb401 2.341 . S
O425 C410 1.266 . S
O426 Tb401 2.484 . S
O426 C411 1.248 . S
O427 Tb401 2.440 . S
O427 C411 1.266 . S
O428 Tb400 2.325 . S
O428 Tb401 2.658 . S
O428 C418 1.281 . S
O429 Tb401 2.409 . S
O429 C418 1.254 . S
O430 Tb401 2.378 . S
O430 C419 1.236 . S
O431 Tb400 2.341 . S
O431 C419 1.266 . S
H432 C404 0.929 . S
H433 C405 0.931 . S
H434 C407 0.930 . S
H435 C408 0.930 . S
H436 C413 0.929 . S
H437 C414 0.931 . S
H438 C416 0.930 . S
H439 C417 0.930 . S
Tb440 C442 2.809 . S
Tb440 O460 2.484 . S
Tb440 O461 2.440 . S
Tb440 O462 2.658 . S
Tb440 O463 2.409 . S
Tb440 O464 2.378 . S
Tb440 O468 2.325 . S
Tb440 O471 2.341 . S
Tb441 C451 2.809 . S
Tb441 O462 2.325 . S
Tb441 O465 2.341 . S
Tb441 O466 2.484 . S
Tb441 O467 2.440 . S
Tb441 O468 2.658 . S
Tb441 O469 2.409 . S
Tb441 O470 2.378 . S
C442 Tb440 2.809 . S
C442 C443 1.514 . S
C442 O460 1.248 . S
C442 O461 1.266 . S
C443 C442 1.514 . S
C443 C444 1.359 . S
C443 C448 1.348 . S
C444 C443 1.359 . S
C444 C445 1.380 . S
C444 H472 0.929 . S
C445 C444 1.380 . S
C445 C446 1.347 . S
C445 H473 0.931 . S
C446 C445 1.347 . S
C446 C447 1.369 . S
C447 C446 1.369 . S
C447 C448 1.408 . S
C447 H474 0.930 . S
C448 C443 1.348 . S
C448 C447 1.408 . S
C448 H475 0.930 . S
C449 O462 1.281 . S
C449 O463 1.254 . S
C450 O464 1.236 . S
C450 O465 1.266 . S
C451 Tb441 2.809 . S
C451 C452 1.514 . S
C451 O466 1.248 . S
C451 O467 1.266 . S
C452 C451 1.514 . S
C452 C453 1.359 . S
C452 C457 1.348 . S
C453 C452 1.359 . S
C453 C454 1.380 . S
C453 H476 0.929 . S
C454 C453 1.380 . S
C454 C455 1.347 . S
C454 H477 0.931 . S
C455 C454 1.347 . S
C455 C456 1.369 . S
C456 C455 1.369 . S
C456 C457 1.408 . S
C456 H478 0.930 . S
C457 C452 1.348 . S
C457 C456 1.408 . S
C457 H479 0.930 . S
C458 O468 1.281 . S
C458 O469 1.254 . S
C459 O470 1.236 . S
C459 O471 1.266 . S
O460 Tb440 2.484 . S
O460 C442 1.248 . S
O461 Tb440 2.440 . S
O461 C442 1.266 . S
O462 Tb440 2.658 . S
O462 Tb441 2.325 . S
O462 C449 1.281 . S
O463 Tb440 2.409 . S
O463 C449 1.254 . S
O464 Tb440 2.378 . S
O464 C450 1.236 . S
O465 Tb441 2.341 . S
O465 C450 1.266 . S
O466 Tb441 2.484 . S
O466 C451 1.248 . S
O467 Tb441 2.440 . S
O467 C451 1.266 . S
O468 Tb440 2.325 . S
O468 Tb441 2.658 . S
O468 C458 1.281 . S
O469 Tb441 2.409 . S
O469 C458 1.254 . S
O470 Tb441 2.378 . S
O470 C459 1.236 . S
O471 Tb440 2.341 . S
O471 C459 1.266 . S
H472 C444 0.929 . S
H473 C445 0.931 . S
H474 C447 0.930 . S
H475 C448 0.930 . S
H476 C453 0.929 . S
H477 C454 0.931 . S
H478 C456 0.930 . S
H479 C457 0.930 . S
Tb480 C482 2.809 . S
Tb480 O500 2.484 . S
Tb480 O501 2.440 . S
Tb480 O502 2.658 . S
Tb480 O503 2.409 . S
Tb480 O504 2.378 . S
Tb480 O508 2.325 . S
Tb480 O511 2.341 . S
Tb481 C491 2.809 . S
Tb481 O502 2.325 . S
Tb481 O505 2.341 . S
Tb481 O506 2.484 . S
Tb481 O507 2.440 . S
Tb481 O508 2.658 . S
Tb481 O509 2.409 . S
Tb481 O510 2.378 . S
C482 Tb480 2.809 . S
C482 C483 1.514 . S
C482 O500 1.248 . S
C482 O501 1.266 . S
C483 C482 1.514 . S
C483 C484 1.359 . S
C483 C488 1.348 . S
C484 C483 1.359 . S
C484 C485 1.380 . S
C484 H512 0.929 . S
C485 C484 1.380 . S
C485 C486 1.347 . S
C485 H513 0.931 . S
C486 C485 1.347 . S
C486 C487 1.369 . S
C487 C486 1.369 . S
C487 C488 1.408 . S
C487 H514 0.930 . S
C488 C483 1.348 . S
C488 C487 1.408 . S
C488 H515 0.930 . S
C489 O502 1.281 . S
C489 O503 1.254 . S
C490 O504 1.236 . S
C490 O505 1.266 . S
C491 Tb481 2.809 . S
C491 C492 1.514 . S
C491 O506 1.248 . S
C491 O507 1.266 . S
C492 C491 1.514 . S
C492 C493 1.359 . S
C492 C497 1.348 . S
C493 C492 1.359 . S
C493 C494 1.380 . S
C493 H516 0.929 . S
C494 C493 1.380 . S
C494 C495 1.347 . S
C494 H517 0.931 . S
C495 C494 1.347 . S
C495 C496 1.369 . S
C496 C495 1.369 . S
C496 C497 1.408 . S
C496 H518 0.930 . S
C497 C492 1.348 . S
C497 C496 1.408 . S
C497 H519 0.930 . S
C498 O508 1.281 . S
C498 O509 1.254 . S
C499 O510 1.236 . S
C499 O511 1.266 . S
O500 Tb480 2.484 . S
O500 C482 1.248 . S
O501 Tb480 2.440 . S
O501 C482 1.266 . S
O502 Tb480 2.658 . S
O502 Tb481 2.325 . S
O502 C489 1.281 . S
O503 Tb480 2.409 . S
O503 C489 1.254 . S
O504 Tb480 2.378 . S
O504 C490 1.236 . S
O505 Tb481 2.341 . S
O505 C490 1.266 . S
O506 Tb481 2.484 . S
O506 C491 1.248 . S
O507 Tb481 2.440 . S
O507 C491 1.266 . S
O508 Tb480 2.325 . S
O508 Tb481 2.658 . S
O508 C498 1.281 . S
O509 Tb481 2.409 . S
O509 C498 1.254 . S
O510 Tb481 2.378 . S
O510 C499 1.236 . S
O511 Tb480 2.341 . S
O511 C499 1.266 . S
H512 C484 0.929 . S
H513 C485 0.931 . S
H514 C487 0.930 . S
H515 C488 0.930 . S
H516 C493 0.929 . S
H517 C494 0.931 . S
H518 C496 0.930 . S
H519 C497 0.930 . S
Tb520 C522 2.809 . S
Tb520 O540 2.484 . S
Tb520 O541 2.440 . S
Tb520 O542 2.658 . S
Tb520 O543 2.409 . S
Tb520 O544 2.378 . S
Tb520 O548 2.325 . S
Tb520 O551 2.341 . S
Tb521 C531 2.809 . S
Tb521 O542 2.325 . S
Tb521 O545 2.341 . S
Tb521 O546 2.484 . S
Tb521 O547 2.440 . S
Tb521 O548 2.658 . S
Tb521 O549 2.409 . S
Tb521 O550 2.378 . S
C522 Tb520 2.809 . S
C522 C523 1.514 . S
C522 O540 1.248 . S
C522 O541 1.266 . S
C523 C522 1.514 . S
C523 C524 1.359 . S
C523 C528 1.348 . S
C524 C523 1.359 . S
C524 C525 1.380 . S
C524 H552 0.929 . S
C525 C524 1.380 . S
C525 C526 1.347 . S
C525 H553 0.931 . S
C526 C525 1.347 . S
C526 C527 1.369 . S
C527 C526 1.369 . S
C527 C528 1.408 . S
C527 H554 0.930 . S
C528 C523 1.348 . S
C528 C527 1.408 . S
C528 H555 0.930 . S
C529 O542 1.281 . S
C529 O543 1.254 . S
C530 O544 1.236 . S
C530 O545 1.266 . S
C531 Tb521 2.809 . S
C531 C532 1.514 . S
C531 O546 1.248 . S
C531 O547 1.266 . S
C532 C531 1.514 . S
C532 C533 1.359 . S
C532 C537 1.348 . S
C533 C532 1.359 . S
C533 C534 1.380 . S
C533 H556 0.929 . S
C534 C533 1.380 . S
C534 C535 1.347 . S
C534 H557 0.931 . S
C535 C534 1.347 . S
C535 C536 1.369 . S
C536 C535 1.369 . S
C536 C537 1.408 . S
C536 H558 0.930 . S
C537 C532 1.348 . S
C537 C536 1.408 . S
C537 H559 0.930 . S
C538 O548 1.281 . S
C538 O549 1.254 . S
C539 O550 1.236 . S
C539 O551 1.266 . S
O540 Tb520 2.484 . S
O540 C522 1.248 . S
O541 Tb520 2.440 . S
O541 C522 1.266 . S
O542 Tb520 2.658 . S
O542 Tb521 2.325 . S
O542 C529 1.281 . S
O543 Tb520 2.409 . S
O543 C529 1.254 . S
O544 Tb520 2.378 . S
O544 C530 1.236 . S
O545 Tb521 2.341 . S
O545 C530 1.266 . S
O546 Tb521 2.484 . S
O546 C531 1.248 . S
O547 Tb521 2.440 . S
O547 C531 1.266 . S
O548 Tb520 2.325 . S
O548 Tb521 2.658 . S
O548 C538 1.281 . S
O549 Tb521 2.409 . S
O549 C538 1.254 . S
O550 Tb521 2.378 . S
O550 C539 1.236 . S
O551 Tb520 2.341 . S
O551 C539 1.266 . S
H552 C524 0.929 . S
H553 C525 0.931 . S
H554 C527 0.930 . S
H555 C528 0.930 . S
H556 C533 0.929 . S
H557 C534 0.931 . S
H558 C536 0.930 . S
H559 C537 0.930 . S
Tb560 C562 2.809 . S
Tb560 O580 2.484 . S
Tb560 O581 2.440 . S
Tb560 O582 2.658 . S
Tb560 O583 2.409 . S
Tb560 O584 2.378 . S
Tb560 O588 2.325 . S
Tb560 O591 2.341 . S
Tb561 C571 2.809 . S
Tb561 O582 2.325 . S
Tb561 O585 2.341 . S
Tb561 O586 2.484 . S
Tb561 O587 2.440 . S
Tb561 O588 2.658 . S
Tb561 O589 2.409 . S
Tb561 O590 2.378 . S
C562 Tb560 2.809 . S
C562 C563 1.514 . S
C562 O580 1.248 . S
C562 O581 1.266 . S
C563 C562 1.514 . S
C563 C564 1.359 . S
C563 C568 1.348 . S
C564 C563 1.359 . S
C564 C565 1.380 . S
C564 H592 0.929 . S
C565 C564 1.380 . S
C565 C566 1.347 . S
C565 H593 0.931 . S
C566 C565 1.347 . S
C566 C567 1.369 . S
C567 C566 1.369 . S
C567 C568 1.408 . S
C567 H594 0.930 . S
C568 C563 1.348 . S
C568 C567 1.408 . S
C568 H595 0.930 . S
C569 O582 1.281 . S
C569 O583 1.254 . S
C570 O584 1.236 . S
C570 O585 1.266 . S
C571 Tb561 2.809 . S
C571 C572 1.514 . S
C571 O586 1.248 . S
C571 O587 1.266 . S
C572 C571 1.514 . S
C572 C573 1.359 . S
C572 C577 1.348 . S
C573 C572 1.359 . S
C573 C574 1.380 . S
C573 H596 0.929 . S
C574 C573 1.380 . S
C574 C575 1.347 . S
C574 H597 0.931 . S
C575 C574 1.347 . S
C575 C576 1.369 . S
C576 C575 1.369 . S
C576 C577 1.408 . S
C576 H598 0.930 . S
C577 C572 1.348 . S
C577 C576 1.408 . S
C577 H599 0.930 . S
C578 O588 1.281 . S
C578 O589 1.254 . S
C579 O590 1.236 . S
C579 O591 1.266 . S
O580 Tb560 2.484 . S
O580 C562 1.248 . S
O581 Tb560 2.440 . S
O581 C562 1.266 . S
O582 Tb560 2.658 . S
O582 Tb561 2.325 . S
O582 C569 1.281 . S
O583 Tb560 2.409 . S
O583 C569 1.254 . S
O584 Tb560 2.378 . S
O584 C570 1.236 . S
O585 Tb561 2.341 . S
O585 C570 1.266 . S
O586 Tb561 2.484 . S
O586 C571 1.248 . S
O587 Tb561 2.440 . S
O587 C571 1.266 . S
O588 Tb560 2.325 . S
O588 Tb561 2.658 . S
O588 C578 1.281 . S
O589 Tb561 2.409 . S
O589 C578 1.254 . S
O590 Tb561 2.378 . S
O590 C579 1.236 . S
O591 Tb560 2.341 . S
O591 C579 1.266 . S
H592 C564 0.929 . S
H593 C565 0.931 . S
H594 C567 0.930 . S
H595 C568 0.930 . S
H596 C573 0.929 . S
H597 C574 0.931 . S
H598 C576 0.930 . S
H599 C577 0.930 . S
Tb600 C602 2.809 . S
Tb600 O620 2.484 . S
Tb600 O621 2.440 . S
Tb600 O622 2.658 . S
Tb600 O623 2.409 . S
Tb600 O624 2.378 . S
Tb600 O628 2.325 . S
Tb600 O631 2.341 . S
Tb601 C611 2.809 . S
Tb601 O622 2.325 . S
Tb601 O625 2.341 . S
Tb601 O626 2.484 . S
Tb601 O627 2.440 . S
Tb601 O628 2.658 . S
Tb601 O629 2.409 . S
Tb601 O630 2.378 . S
C602 Tb600 2.809 . S
C602 C603 1.514 . S
C602 O620 1.248 . S
C602 O621 1.266 . S
C603 C602 1.514 . S
C603 C604 1.359 . S
C603 C608 1.348 . S
C604 C603 1.359 . S
C604 C605 1.380 . S
C604 H632 0.929 . S
C605 C604 1.380 . S
C605 C606 1.347 . S
C605 H633 0.931 . S
C606 C605 1.347 . S
C606 C607 1.369 . S
C607 C606 1.369 . S
C607 C608 1.408 . S
C607 H634 0.930 . S
C608 C603 1.348 . S
C608 C607 1.408 . S
C608 H635 0.930 . S
C609 O622 1.281 . S
C609 O623 1.254 . S
C610 O624 1.236 . S
C610 O625 1.266 . S
C611 Tb601 2.809 . S
C611 C612 1.514 . S
C611 O626 1.248 . S
C611 O627 1.266 . S
C612 C611 1.514 . S
C612 C613 1.359 . S
C612 C617 1.348 . S
C613 C612 1.359 . S
C613 C614 1.380 . S
C613 H636 0.929 . S
C614 C613 1.380 . S
C614 C615 1.347 . S
C614 H637 0.931 . S
C615 C614 1.347 . S
C615 C616 1.369 . S
C616 C615 1.369 . S
C616 C617 1.408 . S
C616 H638 0.930 . S
C617 C612 1.348 . S
C617 C616 1.408 . S
C617 H639 0.930 . S
C618 O628 1.281 . S
C618 O629 1.254 . S
C619 O630 1.236 . S
C619 O631 1.266 . S
O620 Tb600 2.484 . S
O620 C602 1.248 . S
O621 Tb600 2.440 . S
O621 C602 1.266 . S
O622 Tb600 2.658 . S
O622 Tb601 2.325 . S
O622 C609 1.281 . S
O623 Tb600 2.409 . S
O623 C609 1.254 . S
O624 Tb600 2.378 . S
O624 C610 1.236 . S
O625 Tb601 2.341 . S
O625 C610 1.266 . S
O626 Tb601 2.484 . S
O626 C611 1.248 . S
O627 Tb601 2.440 . S
O627 C611 1.266 . S
O628 Tb600 2.325 . S
O628 Tb601 2.658 . S
O628 C618 1.281 . S
O629 Tb601 2.409 . S
O629 C618 1.254 . S
O630 Tb601 2.378 . S
O630 C619 1.236 . S
O631 Tb600 2.341 . S
O631 C619 1.266 . S
H632 C604 0.929 . S
H633 C605 0.931 . S
H634 C607 0.930 . S
H635 C608 0.930 . S
H636 C613 0.929 . S
H637 C614 0.931 . S
H638 C616 0.930 . S
H639 C617 0.930 . S
C640 C641 1.391 . S
C640 C642 1.394 . S
C640 H656 0.931 . S
C641 C640 1.391 . S
C641 C645 1.376 . S
C642 C640 1.394 . S
C642 C643 1.369 . S
C642 C646 1.531 . S
C643 C642 1.369 . S
C643 C644 1.410 . S
C643 C651 1.503 . S
C644 C643 1.410 . S
C644 C645 1.392 . S
C644 C647 1.511 . S
C645 C641 1.376 . S
C645 C644 1.392 . S
C645 H657 0.929 . S
C646 C642 1.531 . S
C646 H658 0.960 . S
C646 H659 0.962 . S
C646 H660 0.960 . S
C647 C644 1.511 . S
C647 H661 0.961 . S
C647 H662 0.961 . S
C647 H663 0.961 . S
C648 C649 1.370 . S
C648 C650 1.363 . S
C648 H664 0.931 . S
C649 C648 1.370 . S
C649 C653 1.408 . S
C650 C648 1.363 . S
C650 C651 1.370 1_545 S
C650 C654 1.524 . S
C651 C643 1.503 . S
C651 C650 1.370 1_565 S
C651 C652 1.403 . S
C652 C651 1.403 . S
C652 C653 1.404 1_565 S
C652 C655 1.539 . S
C653 C649 1.408 . S
C653 C652 1.404 1_545 S
C653 H665 0.930 . S
C654 C650 1.524 . S
C654 H666 0.956 1_545 S
C654 H667 0.961 1_545 S
C654 H668 0.961 . S
C655 C652 1.539 . S
C655 H669 0.958 . S
C655 H670 0.961 . S
C655 H671 0.960 . S
H656 C640 0.931 . S
H657 C645 0.929 . S
H658 C646 0.960 . S
H659 C646 0.962 . S
H660 C646 0.960 . S
H661 C647 0.961 . S
H662 C647 0.961 . S
H663 C647 0.961 . S
H664 C648 0.931 . S
H665 C653 0.930 . S
H666 C654 0.956 1_565 S
H667 C654 0.961 1_565 S
H668 C654 0.961 . S
H669 C655 0.958 . S
H670 C655 0.961 . S
H671 C655 0.960 . S
C672 C673 1.391 . S
C672 C674 1.394 . S
C672 H688 0.931 . S
C673 C672 1.391 . S
C673 C677 1.376 . S
C674 C672 1.394 . S
C674 C675 1.369 . S
C674 C678 1.531 . S
C675 C674 1.369 . S
C675 C676 1.410 . S
C675 C683 1.503 . S
C676 C675 1.410 . S
C676 C677 1.392 . S
C676 C679 1.511 . S
C677 C673 1.376 . S
C677 C676 1.392 . S
C677 H689 0.929 . S
C678 C674 1.531 . S
C678 H690 0.960 . S
C678 H691 0.962 . S
C678 H692 0.960 . S
C679 C676 1.511 . S
C679 H693 0.961 . S
C679 H694 0.961 . S
C679 H695 0.961 . S
C680 C681 1.370 . S
C680 C682 1.363 1_455 S
C680 H696 0.931 . S
C681 C680 1.370 . S
C681 C685 1.408 . S
C682 C680 1.363 1_655 S
C682 C683 1.370 . S
C682 C686 1.524 . S
C683 C675 1.503 . S
C683 C682 1.370 . S
C683 C684 1.403 1_655 S
C684 C683 1.403 1_455 S
C684 C685 1.404 . S
C684 C687 1.539 . S
C685 C681 1.408 . S
C685 C684 1.404 . S
C685 H697 0.930 . S
C686 C682 1.524 . S
C686 H698 0.956 . S
C686 H699 0.961 . S
C686 H700 0.961 . S
C687 C684 1.539 . S
C687 H701 0.948 1_455 S
C687 H702 0.961 . S
C687 H703 0.960 1_455 S
H688 C672 0.931 . S
H689 C677 0.929 . S
H690 C678 0.960 . S
H691 C678 0.962 . S
H692 C678 0.960 . S
H693 C679 0.961 . S
H694 C679 0.961 . S
H695 C679 0.961 . S
H696 C680 0.931 . S
H697 C685 0.930 . S
H698 C686 0.956 . S
H699 C686 0.961 . S
H700 C686 0.961 . S
H701 C687 0.948 1_655 S
H702 C687 0.961 . S
H703 C687 0.960 1_655 S
C704 C705 1.391 . S
C704 C706 1.394 1_565 S
C704 H720 0.931 . S
C705 C704 1.391 . S
C705 C709 1.376 . S
C706 C704 1.394 1_545 S
C706 C707 1.369 . S
C706 C710 1.531 . S
C707 C706 1.369 . S
C707 C708 1.400 1_545 S
C707 C715 1.503 . S
C708 C707 1.400 1_565 S
C708 C709 1.407 . S
C708 C711 1.507 1_565 S
C709 C705 1.376 . S
C709 C708 1.407 . S
C709 H721 0.929 . S
C710 C706 1.531 . S
C710 H722 0.960 . S
C710 H723 0.962 . S
C710 H724 0.960 . S
C711 C708 1.507 1_545 S
C711 H725 0.961 1_545 S
C711 H726 0.961 . S
C711 H727 0.961 . S
C712 C713 1.370 . S
C712 C714 1.363 . S
C712 H728 0.931 . S
C713 C712 1.370 . S
C713 C717 1.408 . S
C714 C712 1.363 . S
C714 C715 1.370 . S
C714 C718 1.524 . S
C715 C707 1.503 . S
C715 C714 1.370 . S
C715 C716 1.403 . S
C716 C715 1.403 . S
C716 C717 1.404 . S
C716 C719 1.539 . S
C717 C713 1.408 . S
C717 C716 1.404 . S
C717 H729 0.930 . S
C718 C714 1.524 . S
C718 H730 0.956 . S
C718 H731 0.961 . S
C718 H732 0.961 . S
C719 C716 1.539 . S
C719 H733 0.958 . S
C719 H734 0.961 . S
C719 H735 0.960 . S
H720 C704 0.931 . S
H721 C709 0.929 . S
H722 C710 0.960 . S
H723 C710 0.962 . S
H724 C710 0.960 . S
H725 C711 0.961 1_565 S
H726 C711 0.961 . S
H727 C711 0.961 . S
H728 C712 0.931 . S
H729 C717 0.930 . S
H730 C718 0.956 . S
H731 C718 0.961 . S
H732 C718 0.961 . S
H733 C719 0.958 . S
H734 C719 0.961 . S
H735 C719 0.960 . S
C736 C737 1.391 . S
C736 C738 1.385 1_655 S
C736 H752 0.931 . S
C737 C736 1.391 . S
C737 C741 1.376 . S
C738 C736 1.385 1_455 S
C738 C739 1.373 . S
C738 C742 1.535 . S
C739 C738 1.373 . S
C739 C740 1.410 1_455 S
C739 C747 1.503 . S
C740 C739 1.410 1_655 S
C740 C741 1.392 . S
C740 C743 1.511 1_655 S
C741 C737 1.376 . S
C741 C740 1.392 . S
C741 H753 0.929 . S
C742 C738 1.535 . S
C742 H754 0.960 . S
C742 H755 0.962 . S
C742 H756 0.960 . S
C743 C740 1.511 1_455 S
C743 H757 0.961 . S
C743 H758 0.961 . S
C743 H759 0.972 . S
C744 C745 1.370 . S
C744 C746 1.363 . S
C744 H760 0.931 . S
C745 C744 1.370 . S
C745 C749 1.408 . S
C746 C744 1.363 . S
C746 C747 1.370 . S
C746 C750 1.524 . S
C747 C739 1.503 . S
C747 C746 1.370 . S
C747 C748 1.403 . S
C748 C747 1.403 . S
C748 C749 1.404 . S
C748 C751 1.539 . S
C749 C745 1.408 . S
C749 C748 1.404 . S
C749 H761 0.930 . S
C750 C746 1.524 . S
C750 H762 0.956 . S
C750 H763 0.961 . S
C750 H764 0.961 . S
C751 C748 1.539 . S
C751 H765 0.958 . S
C751 H766 0.961 . S
C751 H767 0.960 . S
H752 C736 0.931 . S
H753 C741 0.929 . S
H754 C742 0.960 . S
H755 C742 0.962 . S
H756 C742 0.960 . S
H757 C743 0.961 . S
H758 C743 0.961 . S
H759 C743 0.972 . S
H760 C744 0.931 . S
H761 C749 0.930 . S
H762 C750 0.956 . S
H763 C750 0.961 . S
H764 C750 0.961 . S
H765 C751 0.958 . S
H766 C751 0.961 . S
H767 C751 0.960 . S
C768 C769 1.391 . S
C768 C770 1.394 . S
C768 H784 0.931 . S
C769 C768 1.391 . S
C769 C773 1.376 . S
C770 C768 1.394 . S
C770 C771 1.369 . S
C770 C774 1.531 1_554 S
C771 C770 1.369 . S
C771 C772 1.410 . S
C771 C779 1.503 . S
C772 C771 1.410 . S
C772 C773 1.392 . S
C772 C775 1.511 . S
C773 C769 1.376 . S
C773 C772 1.392 . S
C773 H785 0.929 . S
C774 C770 1.531 1_556 S
C774 H786 0.960 . S
C774 H787 0.962 . S
C774 H788 0.960 . S
C775 C772 1.511 . S
C775 H789 0.961 . S
C775 H790 0.961 . S
C775 H791 0.961 . S
C776 C777 1.368 1_554 S
C776 C778 1.365 . S
C776 H792 0.931 . S
C777 C776 1.368 1_556 S
C777 C781 1.408 . S
C778 C776 1.365 . S
C778 C779 1.370 . S
C778 C782 1.524 . S
C779 C771 1.503 . S
C779 C778 1.370 . S
C779 C780 1.403 1_554 S
C780 C779 1.403 1_556 S
C780 C781 1.404 . S
C780 C783 1.539 . S
C781 C777 1.408 . S
C781 C780 1.404 . S
C781 H793 0.930 . S
C782 C778 1.524 . S
C782 H794 0.956 . S
C782 H795 0.961 . S
C782 H796 0.961 . S
C783 C780 1.539 . S
C783 H797 0.958 . S
C783 H798 0.961 . S
C783 H799 0.960 1_556 S
H784 C768 0.931 . S
H785 C773 0.929 . S
H786 C774 0.960 . S
H787 C774 0.962 . S
H788 C774 0.960 . S
H789 C775 0.961 . S
H790 C775 0.961 . S
H791 C775 0.961 . S
H792 C776 0.931 . S
H793 C781 0.930 . S
H794 C782 0.956 . S
H795 C782 0.961 . S
H796 C782 0.961 . S
H797 C783 0.958 . S
H798 C783 0.961 . S
H799 C783 0.960 1_554 S
C800 C801 1.391 1_556 S
C800 C802 1.394 . S
C800 H816 0.931 . S
C801 C800 1.391 1_554 S
C801 C805 1.376 . S
C802 C800 1.394 . S
C802 C803 1.369 . S
C802 C806 1.531 . S
C803 C802 1.369 . S
C803 C804 1.410 1_556 S
C803 C811 1.503 . S
C804 C803 1.410 1_554 S
C804 C805 1.392 . S
C804 C807 1.511 . S
C805 C801 1.376 . S
C805 C804 1.392 . S
C805 H817 0.929 . S
C806 C802 1.531 . S
C806 H818 0.960 . S
C806 H819 0.962 . S
C806 H820 0.960 . S
C807 C804 1.511 . S
C807 H821 0.961 . S
C807 H822 0.961 . S
C807 H823 0.961 . S
C808 C809 1.370 . S
C808 C810 1.363 . S
C808 H824 0.931 . S
C809 C808 1.370 . S
C809 C813 1.408 . S
C810 C808 1.363 . S
C810 C811 1.370 . S
C810 C814 1.524 . S
C811 C803 1.503 . S
C811 C810 1.370 . S
C811 C812 1.403 . S
C812 C811 1.403 . S
C812 C813 1.404 . S
C812 C815 1.539 1_556 S
C813 C809 1.408 . S
C813 C812 1.404 . S
C813 H825 0.930 . S
C814 C810 1.524 . S
C814 H826 0.956 . S
C814 H827 0.961 . S
C814 H828 0.961 . S
C815 C812 1.539 1_554 S
C815 H829 0.958 1_554 S
C815 H830 0.961 . S
C815 H831 0.960 . S
H816 C800 0.931 . S
H817 C805 0.929 . S
H818 C806 0.960 . S
H819 C806 0.962 . S
H820 C806 0.960 . S
H821 C807 0.961 . S
H822 C807 0.961 . S
H823 C807 0.961 . S
H824 C808 0.931 . S
H825 C813 0.930 . S
H826 C814 0.956 . S
H827 C814 0.961 . S
H828 C814 0.961 . S
H829 C815 0.958 1_556 S
H830 C815 0.961 . S
H831 C815 0.960 . S
C832 C833 1.391 . S
C832 C834 1.394 . S
C832 H848 0.931 . S
C833 C832 1.391 . S
C833 C837 1.376 . S
C834 C832 1.394 . S
C834 C835 1.369 . S
C834 C838 1.531 . S
C835 C834 1.369 . S
C835 C836 1.410 . S
C835 C843 1.503 . S
C836 C835 1.410 . S
C836 C837 1.392 . S
C836 C839 1.511 . S
C837 C833 1.376 . S
C837 C836 1.392 . S
C837 H849 0.929 . S
C838 C834 1.531 . S
C838 H850 0.960 1_554 S
C838 H851 0.962 . S
C838 H852 0.960 . S
C839 C836 1.511 . S
C839 H853 0.961 . S
C839 H854 0.961 . S
C839 H855 0.961 . S
C840 C841 1.370 1_554 S
C840 C842 1.363 . S
C840 H856 0.931 . S
C841 C840 1.370 1_556 S
C841 C845 1.408 . S
C842 C840 1.363 . S
C842 C843 1.370 . S
C842 C846 1.524 . S
C843 C835 1.503 . S
C843 C842 1.370 . S
C843 C844 1.403 1_554 S
C844 C843 1.403 1_556 S
C844 C845 1.404 . S
C844 C847 1.539 . S
C845 C841 1.408 . S
C845 C844 1.404 . S
C845 H857 0.930 . S
C846 C842 1.524 . S
C846 H858 0.956 . S
C846 H859 0.961 . S
C846 H860 0.961 . S
C847 C844 1.539 . S
C847 H861 0.958 . S
C847 H862 0.961 . S
C847 H863 0.960 . S
H848 C832 0.931 . S
H849 C837 0.929 . S
H850 C838 0.960 1_556 S
H851 C838 0.962 . S
H852 C838 0.960 . S
H853 C839 0.961 . S
H854 C839 0.961 . S
H855 C839 0.961 . S
H856 C840 0.931 . S
H857 C845 0.930 . S
H858 C846 0.956 . S
H859 C846 0.961 . S
H860 C846 0.961 . S
H861 C847 0.958 . S
H862 C847 0.961 . S
H863 C847 0.960 . S
C864 C865 1.391 . S
C864 C866 1.394 . S
C864 H880 0.931 . S
C865 C864 1.391 . S
C865 C869 1.376 1_554 S
C866 C864 1.394 . S
C866 C867 1.369 1_554 S
C866 C870 1.531 . S
C867 C866 1.369 1_556 S
C867 C868 1.410 . S
C867 C875 1.503 . S
C868 C867 1.410 . S
C868 C869 1.392 . S
C868 C871 1.511 . S
C869 C865 1.376 1_556 S
C869 C868 1.392 . S
C869 H881 0.929 . S
C870 C866 1.531 . S
C870 H882 0.960 . S
C870 H883 0.962 . S
C870 H884 0.960 . S
C871 C868 1.511 . S
C871 H885 0.961 . S
C871 H886 0.961 . S
C871 H887 0.961 . S
C872 C873 1.370 . S
C872 C874 1.363 . S
C872 H888 0.931 . S
C873 C872 1.370 . S
C873 C877 1.408 . S
C874 C872 1.363 . S
C874 C875 1.370 . S
C874 C878 1.524 1_556 S
C875 C867 1.503 . S
C875 C874 1.370 . S
C875 C876 1.403 . S
C876 C875 1.403 . S
C876 C877 1.404 . S
C876 C879 1.539 . S
C877 C873 1.408 . S
C877 C876 1.404 . S
C877 H889 0.930 . S
C878 C874 1.524 1_554 S
C878 H890 0.956 . S
C878 H891 0.961 1_554 S
C878 H892 0.961 . S
C879 C876 1.539 . S
C879 H893 0.958 . S
C879 H894 0.961 . S
C879 H895 0.960 . S
H880 C864 0.931 . S
H881 C869 0.929 . S
H882 C870 0.960 . S
H883 C870 0.962 . S
H884 C870 0.960 . S
H885 C871 0.961 . S
H886 C871 0.961 . S
H887 C871 0.961 . S
H888 C872 0.931 . S
H889 C877 0.930 . S
H890 C878 0.956 . S
H891 C878 0.961 1_556 S
H892 C878 0.961 . S
H893 C879 0.958 . S
H894 C879 0.961 . S
H895 C879 0.960 . S
C896 C897 1.391 . S
C896 C898 1.394 . S
C896 H912 0.931 . S
C897 C896 1.391 . S
C897 C901 1.376 . S
C898 C896 1.394 . S
C898 C899 1.369 . S
C898 C902 1.531 . S
C899 C898 1.369 . S
C899 C900 1.410 . S
C899 C907 1.503 . S
C900 C899 1.410 . S
C900 C901 1.392 . S
C900 C903 1.511 . S
C901 C897 1.376 . S
C901 C900 1.392 . S
C901 H913 0.929 . S
C902 C898 1.531 . S
C902 H914 0.960 . S
C902 H915 0.962 . S
C902 H916 0.960 . S
C903 C900 1.511 . S
C903 H917 0.961 . S
C903 H918 0.961 . S
C903 H919 0.961 . S
C904 C905 1.370 . S
C904 C906 1.363 . S
C904 H920 0.931 . S
C905 C904 1.370 . S
C905 C909 1.408 . S
C906 C904 1.363 . S
C906 C907 1.370 . S
C906 C910 1.524 . S
C907 C899 1.503 . S
C907 C906 1.370 . S
C907 C908 1.403 . S
C908 C907 1.403 . S
C908 C909 1.404 . S
C908 C911 1.539 . S
C909 C905 1.408 . S
C909 C908 1.404 . S
C909 H921 0.930 . S
C910 C906 1.524 . S
C910 H922 0.956 . S
C910 H923 0.961 . S
C910 H924 0.961 . S
C911 C908 1.539 . S
C911 H925 0.958 . S
C911 H926 0.961 . S
C911 H927 0.960 . S
H912 C896 0.931 . S
H913 C901 0.929 . S
H914 C902 0.960 . S
H915 C902 0.962 . S
H916 C902 0.960 . S
H917 C903 0.961 . S
H918 C903 0.961 . S
H919 C903 0.961 . S
H920 C904 0.931 . S
H921 C909 0.930 . S
H922 C910 0.956 . S
H923 C910 0.961 . S
H924 C910 0.961 . S
H925 C911 0.958 . S
H926 C911 0.961 . S
H927 C911 0.960 . S
C928 C929 1.391 . S
C928 C930 1.394 . S
C928 H944 0.931 . S
C929 C928 1.391 . S
C929 C933 1.376 . S
C930 C928 1.394 . S
C930 C931 1.369 . S
C930 C934 1.531 . S
C931 C930 1.369 . S
C931 C932 1.410 . S
C931 C939 1.503 . S
C932 C931 1.410 . S
C932 C933 1.392 . S
C932 C935 1.511 . S
C933 C929 1.376 . S
C933 C932 1.392 . S
C933 H945 0.929 . S
C934 C930 1.531 . S
C934 H946 0.960 . S
C934 H947 0.962 . S
C934 H948 0.960 . S
C935 C932 1.511 . S
C935 H949 0.961 . S
C935 H950 0.961 . S
C935 H951 0.961 . S
C936 C937 1.370 . S
C936 C938 1.363 . S
C936 H952 0.931 . S
C937 C936 1.370 . S
C937 C941 1.408 . S
C938 C936 1.363 . S
C938 C939 1.370 . S
C938 C942 1.524 . S
C939 C931 1.503 . S
C939 C938 1.370 . S
C939 C940 1.403 . S
C940 C939 1.403 . S
C940 C941 1.404 . S
C940 C943 1.539 . S
C941 C937 1.408 . S
C941 C940 1.404 . S
C941 H953 0.930 . S
C942 C938 1.524 . S
C942 H954 0.956 . S
C942 H955 0.961 . S
C942 H956 0.961 . S
C943 C940 1.539 . S
C943 H957 0.958 . S
C943 H958 0.961 . S
C943 H959 0.960 . S
H944 C928 0.931 . S
H945 C933 0.929 . S
H946 C934 0.960 . S
H947 C934 0.962 . S
H948 C934 0.960 . S
H949 C935 0.961 . S
H950 C935 0.961 . S
H951 C935 0.961 . S
H952 C936 0.931 . S
H953 C941 0.930 . S
H954 C942 0.956 . S
H955 C942 0.961 . S
H956 C942 0.961 . S
H957 C943 0.958 . S
H958 C943 0.961 . S
H959 C943 0.960 . S
C960 C961 1.391 . S
C960 C962 1.394 . S
C960 H976 0.931 . S
C961 C960 1.391 . S
C961 C965 1.376 . S
C962 C960 1.394 . S
C962 C963 1.369 . S
C962 C966 1.531 . S
C963 C962 1.369 . S
C963 C964 1.410 . S
C963 C971 1.503 . S
C964 C963 1.410 . S
C964 C965 1.392 . S
C964 C967 1.511 . S
C965 C961 1.376 . S
C965 C964 1.392 . S
C965 H977 0.929 . S
C966 C962 1.531 . S
C966 H978 0.960 . S
C966 H979 0.962 . S
C966 H980 0.960 . S
C967 C964 1.511 . S
C967 H981 0.961 . S
C967 H982 0.961 . S
C967 H983 0.961 . S
C968 C969 1.370 . S
C968 C970 1.363 . S
C968 H984 0.931 . S
C969 C968 1.370 . S
C969 C973 1.408 . S
C970 C968 1.363 . S
C970 C971 1.370 . S
C970 C974 1.524 . S
C971 C963 1.503 . S
C971 C970 1.370 . S
C971 C972 1.403 . S
C972 C971 1.403 . S
C972 C973 1.404 . S
C972 C975 1.539 . S
C973 C969 1.408 . S
C973 C972 1.404 . S
C973 H985 0.930 . S
C974 C970 1.524 . S
C974 H986 0.956 . S
C974 H987 0.961 . S
C974 H988 0.961 . S
C975 C972 1.539 . S
C975 H989 0.958 . S
C975 H990 0.961 . S
C975 H991 0.960 . S
H976 C960 0.931 . S
H977 C965 0.929 . S
H978 C966 0.960 . S
H979 C966 0.962 . S
H980 C966 0.960 . S
H981 C967 0.961 . S
H982 C967 0.961 . S
H983 C967 0.961 . S
H984 C968 0.931 . S
H985 C973 0.930 . S
H986 C974 0.956 . S
H987 C974 0.961 . S
H988 C974 0.961 . S
H989 C975 0.958 . S
H990 C975 0.961 . S
H991 C975 0.960 . S
C992 C993 1.391 . S
C992 C994 1.394 . S
C992 H1008 0.931 . S
C993 C992 1.391 . S
C993 C997 1.376 . S
C994 C992 1.394 . S
C994 C995 1.369 . S
C994 C998 1.531 . S
C995 C994 1.369 . S
C995 C996 1.410 . S
C995 C1003 1.503 . S
C996 C995 1.410 . S
C996 C997 1.392 . S
C996 C999 1.511 . S
C997 C993 1.376 . S
C997 C996 1.392 . S
C997 H1009 0.929 . S
C998 C994 1.531 . S
C998 H1010 0.960 . S
C998 H1011 0.962 . S
C998 H1012 0.960 . S
C999 C996 1.511 . S
C999 H1013 0.961 . S
C999 H1014 0.961 . S
C999 H1015 0.961 . S
C1000 C1001 1.370 . S
C1000 C1002 1.363 . S
C1000 H1016 0.931 . S
C1001 C1000 1.370 . S
C1001 C1005 1.408 . S
C1002 C1000 1.363 . S
C1002 C1003 1.370 . S
C1002 C1006 1.524 . S
C1003 C995 1.503 . S
C1003 C1002 1.370 . S
C1003 C1004 1.403 . S
C1004 C1003 1.403 . S
C1004 C1005 1.404 . S
C1004 C1007 1.539 . S
C1005 C1001 1.408 . S
C1005 C1004 1.404 . S
C1005 H1017 0.930 . S
C1006 C1002 1.524 . S
C1006 H1018 0.956 . S
C1006 H1019 0.961 . S
C1006 H1020 0.961 . S
C1007 C1004 1.539 . S
C1007 H1021 0.958 . S
C1007 H1022 0.961 . S
C1007 H1023 0.960 . S
H1008 C992 0.931 . S
H1009 C997 0.929 . S
H1010 C998 0.960 . S
H1011 C998 0.962 . S
H1012 C998 0.960 . S
H1013 C999 0.961 . S
H1014 C999 0.961 . S
H1015 C999 0.961 . S
H1016 C1000 0.931 . S
H1017 C1005 0.930 . S
H1018 C1006 0.956 . S
H1019 C1006 0.961 . S
H1020 C1006 0.961 . S
H1021 C1007 0.958 . S
H1022 C1007 0.961 . S
H1023 C1007 0.960 . S
C1024 C1025 1.391 . S
C1024 C1026 1.394 . S
C1024 H1040 0.931 . S
C1025 C1024 1.391 . S
C1025 C1029 1.376 . S
C1026 C1024 1.394 . S
C1026 C1027 1.369 1_565 S
C1026 C1030 1.531 . S
C1027 C1026 1.369 1_545 S
C1027 C1028 1.410 . S
C1027 C1035 1.503 . S
C1028 C1027 1.410 . S
C1028 C1029 1.392 1_545 S
C1028 C1031 1.511 . S
C1029 C1025 1.376 . S
C1029 C1028 1.392 1_565 S
C1029 H1041 0.929 . S
C1030 C1026 1.531 . S
C1030 H1042 0.960 1_565 S
C1030 H1043 0.962 1_565 S
C1030 H1044 0.960 . S
C1031 C1028 1.511 . S
C1031 H1045 0.961 . S
C1031 H1046 0.961 . S
C1031 H1047 0.961 . S
C1032 C1033 1.370 . S
C1032 C1034 1.363 . S
C1032 H1048 0.931 . S
C1033 C1032 1.370 . S
C1033 C1037 1.408 . S
C1034 C1032 1.363 . S
C1034 C1035 1.370 . S
C1034 C1038 1.524 . S
C1035 C1027 1.503 . S
C1035 C1034 1.370 . S
C1035 C1036 1.403 . S
C1036 C1035 1.403 . S
C1036 C1037 1.404 . S
C1036 C1039 1.539 . S
C1037 C1033 1.408 . S
C1037 C1036 1.404 . S
C1037 H1049 0.930 . S
C1038 C1034 1.524 . S
C1038 H1050 0.956 . S
C1038 H1051 0.961 . S
C1038 H1052 0.961 . S
C1039 C1036 1.539 . S
C1039 H1053 0.958 . S
C1039 H1054 0.961 . S
C1039 H1055 0.960 . S
H1040 C1024 0.931 . S
H1041 C1029 0.929 . S
H1042 C1030 0.960 1_545 S
H1043 C1030 0.962 1_545 S
H1044 C1030 0.960 . S
H1045 C1031 0.961 . S
H1046 C1031 0.961 . S
H1047 C1031 0.961 . S
H1048 C1032 0.931 . S
H1049 C1037 0.930 . S
H1050 C1038 0.956 . S
H1051 C1038 0.961 . S
H1052 C1038 0.961 . S
H1053 C1039 0.958 . S
H1054 C1039 0.961 . S
H1055 C1039 0.960 . S
C1056 C1057 1.391 . S
C1056 C1058 1.394 . S
C1056 H1072 0.931 . S
C1057 C1056 1.391 . S
C1057 C1061 1.376 . S
C1058 C1056 1.394 . S
C1058 C1059 1.369 . S
C1058 C1062 1.531 . S
C1059 C1058 1.369 . S
C1059 C1060 1.410 . S
C1059 C1067 1.503 . S
C1060 C1059 1.410 . S
C1060 C1061 1.392 . S
C1060 C1063 1.511 . S
C1061 C1057 1.376 . S
C1061 C1060 1.392 . S
C1061 H1073 0.929 . S
C1062 C1058 1.531 . S
C1062 H1074 0.960 . S
C1062 H1075 0.962 . S
C1062 H1076 0.960 . S
C1063 C1060 1.511 . S
C1063 H1077 0.961 . S
C1063 H1078 0.961 . S
C1063 H1079 0.961 . S
C1064 C1065 1.370 . S
C1064 C1066 1.363 1_655 S
C1064 H1080 0.931 . S
C1065 C1064 1.370 . S
C1065 C1069 1.408 . S
C1066 C1064 1.363 1_455 S
C1066 C1067 1.370 . S
C1066 C1070 1.524 . S
C1067 C1059 1.503 . S
C1067 C1066 1.370 . S
C1067 C1068 1.403 1_455 S
C1068 C1067 1.403 1_655 S
C1068 C1069 1.404 . S
C1068 C1071 1.539 . S
C1069 C1065 1.408 . S
C1069 C1068 1.404 . S
C1069 H1081 0.930 . S
C1070 C1066 1.524 . S
C1070 H1082 0.956 . S
C1070 H1083 0.961 . S
C1070 H1084 0.961 . S
C1071 C1068 1.539 . S
C1071 H1085 0.958 1_655 S
C1071 H1086 0.961 . S
C1071 H1087 0.960 1_655 S
H1072 C1056 0.931 . S
H1073 C1061 0.929 . S
H1074 C1062 0.960 . S
H1075 C1062 0.962 . S
H1076 C1062 0.960 . S
H1077 C1063 0.961 . S
H1078 C1063 0.961 . S
H1079 C1063 0.961 . S
H1080 C1064 0.931 . S
H1081 C1069 0.930 . S
H1082 C1070 0.956 . S
H1083 C1070 0.961 . S
H1084 C1070 0.961 . S
H1085 C1071 0.958 1_455 S
H1086 C1071 0.961 . S
H1087 C1071 0.960 1_455 S
C1088 C1089 1.391 . S
C1088 C1090 1.394 . S
C1088 H1104 0.931 . S
C1089 C1088 1.391 . S
C1089 C1093 1.376 . S
C1090 C1088 1.394 . S
C1090 C1091 1.369 . S
C1090 C1094 1.531 . S
C1091 C1090 1.369 . S
C1091 C1092 1.410 . S
C1091 C1099 1.503 . S
C1092 C1091 1.410 . S
C1092 C1093 1.392 . S
C1092 C1095 1.511 . S
C1093 C1089 1.376 . S
C1093 C1092 1.392 . S
C1093 H1105 0.929 . S
C1094 C1090 1.531 . S
C1094 H1106 0.960 . S
C1094 H1107 0.962 . S
C1094 H1108 0.960 . S
C1095 C1092 1.511 . S
C1095 H1109 0.961 . S
C1095 H1110 0.961 . S
C1095 H1111 0.961 . S
C1096 C1097 1.370 . S
C1096 C1098 1.363 . S
C1096 H1112 0.931 . S
C1097 C1096 1.370 . S
C1097 C1101 1.408 . S
C1098 C1096 1.363 . S
C1098 C1099 1.370 1_545 S
C1098 C1102 1.524 . S
C1099 C1091 1.503 . S
C1099 C1098 1.370 1_565 S
C1099 C1100 1.403 . S
C1100 C1099 1.403 . S
C1100 C1101 1.404 1_565 S
C1100 C1103 1.539 . S
C1101 C1097 1.408 . S
C1101 C1100 1.404 1_545 S
C1101 H1113 0.930 . S
C1102 C1098 1.524 . S
C1102 H1114 0.956 1_545 S
C1102 H1115 0.961 1_545 S
C1102 H1116 0.961 . S
C1103 C1100 1.539 . S
C1103 H1117 0.958 . S
C1103 H1118 0.961 . S
C1103 H1119 0.960 . S
H1104 C1088 0.931 . S
H1105 C1093 0.929 . S
H1106 C1094 0.960 . S
H1107 C1094 0.962 . S
H1108 C1094 0.960 . S
H1109 C1095 0.961 . S
H1110 C1095 0.961 . S
H1111 C1095 0.961 . S
H1112 C1096 0.931 . S
H1113 C1101 0.930 . S
H1114 C1102 0.956 1_565 S
H1115 C1102 0.961 1_565 S
H1116 C1102 0.961 . S
H1117 C1103 0.958 . S
H1118 C1103 0.961 . S
H1119 C1103 0.960 . S
C1120 C1121 1.391 . S
C1120 C1122 1.394 1_455 S
C1120 H1136 0.931 . S
C1121 C1120 1.391 . S
C1121 C1125 1.376 . S
C1122 C1120 1.394 1_655 S
C1122 C1123 1.369 . S
C1122 C1126 1.531 . S
C1123 C1122 1.369 . S
C1123 C1124 1.410 1_655 S
C1123 C1131 1.503 . S
C1124 C1123 1.410 1_455 S
C1124 C1125 1.392 . S
C1124 C1127 1.511 . S
C1125 C1121 1.376 . S
C1125 C1124 1.392 . S
C1125 H1137 0.929 . S
C1126 C1122 1.531 . S
C1126 H1138 0.960 . S
C1126 H1139 0.962 . S
C1126 H1140 0.960 . S
C1127 C1124 1.511 . S
C1127 H1141 0.961 . S
C1127 H1142 0.961 1_455 S
C1127 H1143 0.961 . S
C1128 C1129 1.370 . S
C1128 C1130 1.363 . S
C1128 H1144 0.931 . S
C1129 C1128 1.370 . S
C1129 C1133 1.408 . S
C1130 C1128 1.363 . S
C1130 C1131 1.370 . S
C1130 C1134 1.524 . S
C1131 C1123 1.503 . S
C1131 C1130 1.370 . S
C1131 C1132 1.403 . S
C1132 C1131 1.403 . S
C1132 C1133 1.404 . S
C1132 C1135 1.539 . S
C1133 C1129 1.408 . S
C1133 C1132 1.404 . S
C1133 H1145 0.930 . S
C1134 C1130 1.524 . S
C1134 H1146 0.956 . S
C1134 H1147 0.961 . S
C1134 H1148 0.961 . S
C1135 C1132 1.539 . S
C1135 H1149 0.958 . S
C1135 H1150 0.961 . S
C1135 H1151 0.960 . S
H1136 C1120 0.931 . S
H1137 C1125 0.929 . S
H1138 C1126 0.960 . S
H1139 C1126 0.962 . S
H1140 C1126 0.960 . S
H1141 C1127 0.961 . S
H1142 C1127 0.961 1_655 S
H1143 C1127 0.961 . S
H1144 C1128 0.931 . S
H1145 C1133 0.930 . S
H1146 C1134 0.956 . S
H1147 C1134 0.961 . S
H1148 C1134 0.961 . S
H1149 C1135 0.958 . S
H1150 C1135 0.961 . S
H1151 C1135 0.960 . S
C1152 C1153 1.391 . S
C1152 C1154 1.394 . S
C1152 H1168 0.931 . S
C1153 C1152 1.391 . S
C1153 C1157 1.376 . S
C1154 C1152 1.394 . S
C1154 C1155 1.369 . S
C1154 C1158 1.531 . S
C1155 C1154 1.369 . S
C1155 C1156 1.410 . S
C1155 C1163 1.503 . S
C1156 C1155 1.410 . S
C1156 C1157 1.392 . S
C1156 C1159 1.511 . S
C1157 C1153 1.376 . S
C1157 C1156 1.392 . S
C1157 H1169 0.929 . S
C1158 C1154 1.531 . S
C1158 H1170 0.960 . S
C1158 H1171 0.962 . S
C1158 H1172 0.960 . S
C1159 C1156 1.511 . S
C1159 H1173 0.961 . S
C1159 H1174 0.961 . S
C1159 H1175 0.961 . S
C1160 C1161 1.370 . S
C1160 C1162 1.363 . S
C1160 H1176 0.931 . S
C1161 C1160 1.370 . S
C1161 C1165 1.408 . S
C1162 C1160 1.363 . S
C1162 C1163 1.370 . S
C1162 C1166 1.524 . S
C1163 C1155 1.503 . S
C1163 C1162 1.370 . S
C1163 C1164 1.403 . S
C1164 C1163 1.403 . S
C1164 C1165 1.404 . S
C1164 C1167 1.539 . S
C1165 C1161 1.408 . S
C1165 C1164 1.404 . S
C1165 H1177 0.930 . S
C1166 C1162 1.524 . S
C1166 H1178 0.956 . S
C1166 H1179 0.961 . S
C1166 H1180 0.961 . S
C1167 C1164 1.539 . S
C1167 H1181 0.958 . S
C1167 H1182 0.961 . S
C1167 H1183 0.960 . S
H1168 C1152 0.931 . S
H1169 C1157 0.929 . S
H1170 C1158 0.960 . S
H1171 C1158 0.962 . S
H1172 C1158 0.960 . S
H1173 C1159 0.961 . S
H1174 C1159 0.961 . S
H1175 C1159 0.961 . S
H1176 C1160 0.931 . S
H1177 C1165 0.930 . S
H1178 C1166 0.956 . S
H1179 C1166 0.961 . S
H1180 C1166 0.961 . S
H1181 C1167 0.958 . S
H1182 C1167 0.961 . S
H1183 C1167 0.960 . S
C1184 C1185 1.391 . S
C1184 C1186 1.394 . S
C1184 H1200 0.931 . S
C1185 C1184 1.391 . S
C1185 C1189 1.376 . S
C1186 C1184 1.394 . S
C1186 C1187 1.369 . S
C1186 C1190 1.531 . S
C1187 C1186 1.369 . S
C1187 C1188 1.410 . S
C1187 C1195 1.503 . S
C1188 C1187 1.410 . S
C1188 C1189 1.392 . S
C1188 C1191 1.511 . S
C1189 C1185 1.376 . S
C1189 C1188 1.392 . S
C1189 H1201 0.929 . S
C1190 C1186 1.531 . S
C1190 H1202 0.960 . S
C1190 H1203 0.962 . S
C1190 H1204 0.960 . S
C1191 C1188 1.511 . S
C1191 H1205 0.961 . S
C1191 H1206 0.961 . S
C1191 H1207 0.961 . S
C1192 C1193 1.370 . S
C1192 C1194 1.363 . S
C1192 H1208 0.931 . S
C1193 C1192 1.370 . S
C1193 C1197 1.408 . S
C1194 C1192 1.363 . S
C1194 C1195 1.370 . S
C1194 C1198 1.524 . S
C1195 C1187 1.503 . S
C1195 C1194 1.370 . S
C1195 C1196 1.403 . S
C1196 C1195 1.403 . S
C1196 C1197 1.404 . S
C1196 C1199 1.539 . S
C1197 C1193 1.408 . S
C1197 C1196 1.404 . S
C1197 H1209 0.930 . S
C1198 C1194 1.524 . S
C1198 H1210 0.956 . S
C1198 H1211 0.961 . S
C1198 H1212 0.961 . S
C1199 C1196 1.539 . S
C1199 H1213 0.958 . S
C1199 H1214 0.961 . S
C1199 H1215 0.960 . S
H1200 C1184 0.931 . S
H1201 C1189 0.929 . S
H1202 C1190 0.960 . S
H1203 C1190 0.962 . S
H1204 C1190 0.960 . S
H1205 C1191 0.961 . S
H1206 C1191 0.961 . S
H1207 C1191 0.961 . S
H1208 C1192 0.931 . S
H1209 C1197 0.930 . S
H1210 C1198 0.956 . S
H1211 C1198 0.961 . S
H1212 C1198 0.961 . S
H1213 C1199 0.958 . S
H1214 C1199 0.961 . S
H1215 C1199 0.960 . S
C1216 C1217 1.391 . S
C1216 C1218 1.394 . S
C1216 H1232 0.931 . S
C1217 C1216 1.391 . S
C1217 C1221 1.376 . S
C1218 C1216 1.394 . S
C1218 C1219 1.369 . S
C1218 C1222 1.531 . S
C1219 C1218 1.369 . S
C1219 C1220 1.410 . S
C1219 C1227 1.503 . S
C1220 C1219 1.410 . S
C1220 C1221 1.392 . S
C1220 C1223 1.511 . S
C1221 C1217 1.376 . S
C1221 C1220 1.392 . S
C1221 H1233 0.929 . S
C1222 C1218 1.531 . S
C1222 H1234 0.960 . S
C1222 H1235 0.962 . S
C1222 H1236 0.960 . S
C1223 C1220 1.511 . S
C1223 H1237 0.961 . S
C1223 H1238 0.961 . S
C1223 H1239 0.961 . S
C1224 C1225 1.370 . S
C1224 C1226 1.363 . S
C1224 H1240 0.931 . S
C1225 C1224 1.370 . S
C1225 C1229 1.408 . S
C1226 C1224 1.363 . S
C1226 C1227 1.370 . S
C1226 C1230 1.524 . S
C1227 C1219 1.503 . S
C1227 C1226 1.370 . S
C1227 C1228 1.403 . S
C1228 C1227 1.403 . S
C1228 C1229 1.404 . S
C1228 C1231 1.539 . S
C1229 C1225 1.408 . S
C1229 C1228 1.404 . S
C1229 H1241 0.930 . S
C1230 C1226 1.524 . S
C1230 H1242 0.956 . S
C1230 H1243 0.961 . S
C1230 H1244 0.961 . S
C1231 C1228 1.539 . S
C1231 H1245 0.958 . S
C1231 H1246 0.961 . S
C1231 H1247 0.960 . S
H1232 C1216 0.931 . S
H1233 C1221 0.929 . S
H1234 C1222 0.960 . S
H1235 C1222 0.962 . S
H1236 C1222 0.960 . S
H1237 C1223 0.961 . S
H1238 C1223 0.961 . S
H1239 C1223 0.961 . S
H1240 C1224 0.931 . S
H1241 C1229 0.930 . S
H1242 C1230 0.956 . S
H1243 C1230 0.961 . S
H1244 C1230 0.961 . S
H1245 C1231 0.958 . S
H1246 C1231 0.961 . S
H1247 C1231 0.960 . S
C1248 C1249 1.391 . S
C1248 C1250 1.394 . S
C1248 H1264 0.931 . S
C1249 C1248 1.391 . S
C1249 C1253 1.376 . S
C1250 C1248 1.394 . S
C1250 C1251 1.369 . S
C1250 C1254 1.531 . S
C1251 C1250 1.369 . S
C1251 C1252 1.410 . S
C1251 C1259 1.503 . S
C1252 C1251 1.410 . S
C1252 C1253 1.392 . S
C1252 C1255 1.511 . S
C1253 C1249 1.376 . S
C1253 C1252 1.392 . S
C1253 H1265 0.929 . S
C1254 C1250 1.531 . S
C1254 H1266 0.960 . S
C1254 H1267 0.962 . S
C1254 H1268 0.960 . S
C1255 C1252 1.511 . S
C1255 H1269 0.961 . S
C1255 H1270 0.961 . S
C1255 H1271 0.961 . S
C1256 C1257 1.370 . S
C1256 C1258 1.363 . S
C1256 H1272 0.931 . S
C1257 C1256 1.370 . S
C1257 C1261 1.408 . S
C1258 C1256 1.363 . S
C1258 C1259 1.370 . S
C1258 C1262 1.524 . S
C1259 C1251 1.503 . S
C1259 C1258 1.370 . S
C1259 C1260 1.403 . S
C1260 C1259 1.403 . S
C1260 C1261 1.404 . S
C1260 C1263 1.539 . S
C1261 C1257 1.408 . S
C1261 C1260 1.404 . S
C1261 H1273 0.930 . S
C1262 C1258 1.524 . S
C1262 H1274 0.956 . S
C1262 H1275 0.961 . S
C1262 H1276 0.961 . S
C1263 C1260 1.539 . S
C1263 H1277 0.958 . S
C1263 H1278 0.961 . S
C1263 H1279 0.960 . S
H1264 C1248 0.931 . S
H1265 C1253 0.929 . S
H1266 C1254 0.960 . S
H1267 C1254 0.962 . S
H1268 C1254 0.960 . S
H1269 C1255 0.961 . S
H1270 C1255 0.961 . S
H1271 C1255 0.961 . S
H1272 C1256 0.931 . S
H1273 C1261 0.930 . S
H1274 C1262 0.956 . S
H1275 C1262 0.961 . S
H1276 C1262 0.961 . S
H1277 C1263 0.958 . S
H1278 C1263 0.961 . S
H1279 C1263 0.960 . S
C1280 C1281 1.391 . S
C1280 C1282 1.394 . S
C1280 H1296 0.931 . S
C1281 C1280 1.391 . S
C1281 C1285 1.376 . S
C1282 C1280 1.394 . S
C1282 C1283 1.369 . S
C1282 C1286 1.531 . S
C1283 C1282 1.369 . S
C1283 C1284 1.410 . S
C1283 C1291 1.503 . S
C1284 C1283 1.410 . S
C1284 C1285 1.392 . S
C1284 C1287 1.511 . S
C1285 C1281 1.376 . S
C1285 C1284 1.392 . S
C1285 H1297 0.929 . S
C1286 C1282 1.531 . S
C1286 H1298 0.960 . S
C1286 H1299 0.962 . S
C1286 H1300 0.960 . S
C1287 C1284 1.511 . S
C1287 H1301 0.961 . S
C1287 H1302 0.961 . S
C1287 H1303 0.961 . S
C1288 C1289 1.370 . S
C1288 C1290 1.363 . S
C1288 H1304 0.931 . S
C1289 C1288 1.370 . S
C1289 C1293 1.408 . S
C1290 C1288 1.363 . S
C1290 C1291 1.370 . S
C1290 C1294 1.524 . S
C1291 C1283 1.503 . S
C1291 C1290 1.370 . S
C1291 C1292 1.403 . S
C1292 C1291 1.403 . S
C1292 C1293 1.404 . S
C1292 C1295 1.539 . S
C1293 C1289 1.408 . S
C1293 C1292 1.404 . S
C1293 H1305 0.930 . S
C1294 C1290 1.524 . S
C1294 H1306 0.956 . S
C1294 H1307 0.961 . S
C1294 H1308 0.961 . S
C1295 C1292 1.539 . S
C1295 H1309 0.958 . S
C1295 H1310 0.961 . S
C1295 H1311 0.960 . S
H1296 C1280 0.931 . S
H1297 C1285 0.929 . S
H1298 C1286 0.960 . S
H1299 C1286 0.962 . S
H1300 C1286 0.960 . S
H1301 C1287 0.961 . S
H1302 C1287 0.961 . S
H1303 C1287 0.961 . S
H1304 C1288 0.931 . S
H1305 C1293 0.930 . S
H1306 C1294 0.956 . S
H1307 C1294 0.961 . S
H1308 C1294 0.961 . S
H1309 C1295 0.958 . S
H1310 C1295 0.961 . S
H1311 C1295 0.960 . S
C1312 C1313 1.391 . S
C1312 C1314 1.394 . S
C1312 H1328 0.931 . S
C1313 C1312 1.391 . S
C1313 C1317 1.376 . S
C1314 C1312 1.394 . S
C1314 C1315 1.369 . S
C1314 C1318 1.531 . S
C1315 C1314 1.369 . S
C1315 C1316 1.410 . S
C1315 C1323 1.503 . S
C1316 C1315 1.410 . S
C1316 C1317 1.392 . S
C1316 C1319 1.511 . S
C1317 C1313 1.376 . S
C1317 C1316 1.392 . S
C1317 H1329 0.929 . S
C1318 C1314 1.531 . S
C1318 H1330 0.960 . S
C1318 H1331 0.962 . S
C1318 H1332 0.960 . S
C1319 C1316 1.511 . S
C1319 H1333 0.961 . S
C1319 H1334 0.961 . S
C1319 H1335 0.961 . S
C1320 C1321 1.370 . S
C1320 C1322 1.363 . S
C1320 H1336 0.931 . S
C1321 C1320 1.370 . S
C1321 C1325 1.408 . S
C1322 C1320 1.363 . S
C1322 C1323 1.370 . S
C1322 C1326 1.524 . S
C1323 C1315 1.503 . S
C1323 C1322 1.370 . S
C1323 C1324 1.403 . S
C1324 C1323 1.403 . S
C1324 C1325 1.404 . S
C1324 C1327 1.539 . S
C1325 C1321 1.408 . S
C1325 C1324 1.404 . S
C1325 H1337 0.930 . S
C1326 C1322 1.524 . S
C1326 H1338 0.956 . S
C1326 H1339 0.961 . S
C1326 H1340 0.961 . S
C1327 C1324 1.539 . S
C1327 H1341 0.958 . S
C1327 H1342 0.961 . S
C1327 H1343 0.960 . S
H1328 C1312 0.931 . S
H1329 C1317 0.929 . S
H1330 C1318 0.960 . S
H1331 C1318 0.962 . S
H1332 C1318 0.960 . S
H1333 C1319 0.961 . S
H1334 C1319 0.961 . S
H1335 C1319 0.961 . S
H1336 C1320 0.931 . S
H1337 C1325 0.930 . S
H1338 C1326 0.956 . S
H1339 C1326 0.961 . S
H1340 C1326 0.961 . S
H1341 C1327 0.958 . S
H1342 C1327 0.961 . S
H1343 C1327 0.960 . S
C1344 C1345 1.391 . S
C1344 C1346 1.394 . S
C1344 H1360 0.931 . S
C1345 C1344 1.391 . S
C1345 C1349 1.376 . S
C1346 C1344 1.394 . S
C1346 C1347 1.369 . S
C1346 C1350 1.531 . S
C1347 C1346 1.369 . S
C1347 C1348 1.410 . S
C1347 C1355 1.503 . S
C1348 C1347 1.410 . S
C1348 C1349 1.392 . S
C1348 C1351 1.511 . S
C1349 C1345 1.376 . S
C1349 C1348 1.392 . S
C1349 H1361 0.929 . S
C1350 C1346 1.531 . S
C1350 H1362 0.960 . S
C1350 H1363 0.962 . S
C1350 H1364 0.960 . S
C1351 C1348 1.511 . S
C1351 H1365 0.961 . S
C1351 H1366 0.961 . S
C1351 H1367 0.961 . S
C1352 C1353 1.370 . S
C1352 C1354 1.363 . S
C1352 H1368 0.931 . S
C1353 C1352 1.370 . S
C1353 C1357 1.408 . S
C1354 C1352 1.363 . S
C1354 C1355 1.370 . S
C1354 C1358 1.524 . S
C1355 C1347 1.503 . S
C1355 C1354 1.370 . S
C1355 C1356 1.403 . S
C1356 C1355 1.403 . S
C1356 C1357 1.404 . S
C1356 C1359 1.539 . S
C1357 C1353 1.408 . S
C1357 C1356 1.404 . S
C1357 H1369 0.930 . S
C1358 C1354 1.524 . S
C1358 H1370 0.956 . S
C1358 H1371 0.961 . S
C1358 H1372 0.961 . S
C1359 C1356 1.539 . S
C1359 H1373 0.958 . S
C1359 H1374 0.961 . S
C1359 H1375 0.960 . S
H1360 C1344 0.931 . S
H1361 C1349 0.929 . S
H1362 C1350 0.960 . S
H1363 C1350 0.962 . S
H1364 C1350 0.960 . S
H1365 C1351 0.961 . S
H1366 C1351 0.961 . S
H1367 C1351 0.961 . S
H1368 C1352 0.931 . S
H1369 C1357 0.930 . S
H1370 C1358 0.956 . S
H1371 C1358 0.961 . S
H1372 C1358 0.961 . S
H1373 C1359 0.958 . S
H1374 C1359 0.961 . S
H1375 C1359 0.960 . S
C1376 C1377 1.391 . S
C1376 C1378 1.394 . S
C1376 H1392 0.931 . S
C1377 C1376 1.391 . S
C1377 C1381 1.376 . S
C1378 C1376 1.394 . S
C1378 C1379 1.369 . S
C1378 C1382 1.531 . S
C1379 C1378 1.369 . S
C1379 C1380 1.410 . S
C1379 C1387 1.503 . S
C1380 C1379 1.410 . S
C1380 C1381 1.392 . S
C1380 C1383 1.511 . S
C1381 C1377 1.376 . S
C1381 C1380 1.392 . S
C1381 H1393 0.929 . S
C1382 C1378 1.531 . S
C1382 H1394 0.960 . S
C1382 H1395 0.962 . S
C1382 H1396 0.960 . S
C1383 C1380 1.511 . S
C1383 H1397 0.961 . S
C1383 H1398 0.961 . S
C1383 H1399 0.961 . S
C1384 C1385 1.370 . S
C1384 C1386 1.363 . S
C1384 H1400 0.931 . S
C1385 C1384 1.370 . S
C1385 C1389 1.408 . S
C1386 C1384 1.363 . S
C1386 C1387 1.370 . S
C1386 C1390 1.524 . S
C1387 C1379 1.503 . S
C1387 C1386 1.370 . S
C1387 C1388 1.403 . S
C1388 C1387 1.403 . S
C1388 C1389 1.404 . S
C1388 C1391 1.539 . S
C1389 C1385 1.408 . S
C1389 C1388 1.404 . S
C1389 H1401 0.930 . S
C1390 C1386 1.524 . S
C1390 H1402 0.956 . S
C1390 H1403 0.961 . S
C1390 H1404 0.961 . S
C1391 C1388 1.539 . S
C1391 H1405 0.958 . S
C1391 H1406 0.961 . S
C1391 H1407 0.960 . S
H1392 C1376 0.931 . S
H1393 C1381 0.929 . S
H1394 C1382 0.960 . S
H1395 C1382 0.962 . S
H1396 C1382 0.960 . S
H1397 C1383 0.961 . S
H1398 C1383 0.961 . S
H1399 C1383 0.961 . S
H1400 C1384 0.931 . S
H1401 C1389 0.930 . S
H1402 C1390 0.956 . S
H1403 C1390 0.961 . S
H1404 C1390 0.961 . S
H1405 C1391 0.958 . S
H1406 C1391 0.961 . S
H1407 C1391 0.960 . S
C1408 C1409 1.391 . S
C1408 C1410 1.394 . S
C1408 H1424 0.931 . S
C1409 C1408 1.391 . S
C1409 C1413 1.376 . S
C1410 C1408 1.394 . S
C1410 C1411 1.369 . S
C1410 C1414 1.531 . S
C1411 C1410 1.369 . S
C1411 C1412 1.410 . S
C1411 C1419 1.503 . S
C1412 C1411 1.410 . S
C1412 C1413 1.392 . S
C1412 C1415 1.511 . S
C1413 C1409 1.376 . S
C1413 C1412 1.392 . S
C1413 H1425 0.929 . S
C1414 C1410 1.531 . S
C1414 H1426 0.960 . S
C1414 H1427 0.962 . S
C1414 H1428 0.960 . S
C1415 C1412 1.511 . S
C1415 H1429 0.961 . S
C1415 H1430 0.961 . S
C1415 H1431 0.961 . S
C1416 C1417 1.370 . S
C1416 C1418 1.363 . S
C1416 H1432 0.931 . S
C1417 C1416 1.370 . S
C1417 C1421 1.408 . S
C1418 C1416 1.363 . S
C1418 C1419 1.370 . S
C1418 C1422 1.524 . S
C1419 C1411 1.503 . S
C1419 C1418 1.370 . S
C1419 C1420 1.403 . S
C1420 C1419 1.403 . S
C1420 C1421 1.404 . S
C1420 C1423 1.539 . S
C1421 C1417 1.408 . S
C1421 C1420 1.404 . S
C1421 H1433 0.930 1_556 S
C1422 C1418 1.524 . S
C1422 H1434 0.956 . S
C1422 H1435 0.961 . S
C1422 H1436 0.961 . S
C1423 C1420 1.539 . S
C1423 H1437 0.958 . S
C1423 H1438 0.961 . S
C1423 H1439 0.960 . S
H1424 C1408 0.931 . S
H1425 C1413 0.929 . S
H1426 C1414 0.960 . S
H1427 C1414 0.962 . S
H1428 C1414 0.960 . S
H1429 C1415 0.961 . S
H1430 C1415 0.961 . S
H1431 C1415 0.961 . S
H1432 C1416 0.931 . S
H1433 C1421 0.930 1_554 S
H1434 C1422 0.956 . S
H1435 C1422 0.961 . S
H1436 C1422 0.961 . S
H1437 C1423 0.958 . S
H1438 C1423 0.961 . S
H1439 C1423 0.960 . S
C1440 C1441 1.391 . S
C1440 C1442 1.394 . S
C1440 H1456 0.931 . S
C1441 C1440 1.391 . S
C1441 C1445 1.376 . S
C1442 C1440 1.394 . S
C1442 C1443 1.369 . S
C1442 C1446 1.531 . S
C1443 C1442 1.369 . S
C1443 C1444 1.410 . S
C1443 C1451 1.503 . S
C1444 C1443 1.410 . S
C1444 C1445 1.392 . S
C1444 C1447 1.511 . S
C1445 C1441 1.376 . S
C1445 C1444 1.392 . S
C1445 H1457 0.929 1_554 S
C1446 C1442 1.531 . S
C1446 H1458 0.960 . S
C1446 H1459 0.962 . S
C1446 H1460 0.960 . S
C1447 C1444 1.511 . S
C1447 H1461 0.961 . S
C1447 H1462 0.961 . S
C1447 H1463 0.961 . S
C1448 C1449 1.370 . S
C1448 C1450 1.363 . S
C1448 H1464 0.931 . S
C1449 C1448 1.370 . S
C1449 C1453 1.408 . S
C1450 C1448 1.363 . S
C1450 C1451 1.370 . S
C1450 C1454 1.524 . S
C1451 C1443 1.503 . S
C1451 C1450 1.370 . S
C1451 C1452 1.403 . S
C1452 C1451 1.403 . S
C1452 C1453 1.404 . S
C1452 C1455 1.539 . S
C1453 C1449 1.408 . S
C1453 C1452 1.404 . S
C1453 H1465 0.930 . S
C1454 C1450 1.524 . S
C1454 H1466 0.956 . S
C1454 H1467 0.961 . S
C1454 H1468 0.961 . S
C1455 C1452 1.539 . S
C1455 H1469 0.958 . S
C1455 H1470 0.961 . S
C1455 H1471 0.960 . S
H1456 C1440 0.931 . S
H1457 C1445 0.929 1_556 S
H1458 C1446 0.960 . S
H1459 C1446 0.962 . S
H1460 C1446 0.960 . S
H1461 C1447 0.961 . S
H1462 C1447 0.961 . S
H1463 C1447 0.961 . S
H1464 C1448 0.931 . S
H1465 C1453 0.930 . S
H1466 C1454 0.956 . S
H1467 C1454 0.961 . S
H1468 C1454 0.961 . S
H1469 C1455 0.958 . S
H1470 C1455 0.961 . S
H1471 C1455 0.960 . S
C1472 C1473 1.391 . S
C1472 C1474 1.394 . S
C1472 H1488 0.931 . S
C1473 C1472 1.391 . S
C1473 C1477 1.376 . S
C1474 C1472 1.394 . S
C1474 C1475 1.369 . S
C1474 C1478 1.531 . S
C1475 C1474 1.369 . S
C1475 C1476 1.410 . S
C1475 C1483 1.503 . S
C1476 C1475 1.410 . S
C1476 C1477 1.392 . S
C1476 C1479 1.511 . S
C1477 C1473 1.376 . S
C1477 C1476 1.392 . S
C1477 H1489 0.929 . S
C1478 C1474 1.531 . S
C1478 H1490 0.960 . S
C1478 H1491 0.962 . S
C1478 H1492 0.960 . S
C1479 C1476 1.511 . S
C1479 H1493 0.961 . S
C1479 H1494 0.961 . S
C1479 H1495 0.961 . S
C1480 C1481 1.370 . S
C1480 C1482 1.363 . S
C1480 H1496 0.931 . S
C1481 C1480 1.370 . S
C1481 C1485 1.408 . S
C1482 C1480 1.363 . S
C1482 C1483 1.370 . S
C1482 C1486 1.524 . S
C1483 C1475 1.503 . S
C1483 C1482 1.370 . S
C1483 C1484 1.403 . S
C1484 C1483 1.403 . S
C1484 C1485 1.404 . S
C1484 C1487 1.539 . S
C1485 C1481 1.408 . S
C1485 C1484 1.404 . S
C1485 H1497 0.930 . S
C1486 C1482 1.524 . S
C1486 H1498 0.956 . S
C1486 H1499 0.961 . S
C1486 H1500 0.961 . S
C1487 C1484 1.539 . S
C1487 H1501 0.958 . S
C1487 H1502 0.961 . S
C1487 H1503 0.960 . S
H1488 C1472 0.931 . S
H1489 C1477 0.929 . S
H1490 C1478 0.960 . S
H1491 C1478 0.962 . S
H1492 C1478 0.960 . S
H1493 C1479 0.961 . S
H1494 C1479 0.961 . S
H1495 C1479 0.961 . S
H1496 C1480 0.931 . S
H1497 C1485 0.930 . S
H1498 C1486 0.956 . S
H1499 C1486 0.961 . S
H1500 C1486 0.961 . S
H1501 C1487 0.958 . S
H1502 C1487 0.961 . S
H1503 C1487 0.960 . S
C1504 C1505 1.391 . S
C1504 C1506 1.394 . S
C1504 H1520 0.931 1_554 S
C1505 C1504 1.391 . S
C1505 C1509 1.376 . S
C1506 C1504 1.394 . S
C1506 C1507 1.369 . S
C1506 C1510 1.531 . S
C1507 C1506 1.369 . S
C1507 C1508 1.410 . S
C1507 C1515 1.503 . S
C1508 C1507 1.410 . S
C1508 C1509 1.392 . S
C1508 C1511 1.511 . S
C1509 C1505 1.376 . S
C1509 C1508 1.392 . S
C1509 H1521 0.929 . S
C1510 C1506 1.531 . S
C1510 H1522 0.960 . S
C1510 H1523 0.962 . S
C1510 H1524 0.960 . S
C1511 C1508 1.511 . S
C1511 H1525 0.961 . S
C1511 H1526 0.961 . S
C1511 H1527 0.961 . S
C1512 C1513 1.370 . S
C1512 C1514 1.363 . S
C1512 H1528 0.931 . S
C1513 C1512 1.370 . S
C1513 C1517 1.408 . S
C1514 C1512 1.363 . S
C1514 C1515 1.370 . S
C1514 C1518 1.524 . S
C1515 C1507 1.503 . S
C1515 C1514 1.370 . S
C1515 C1516 1.403 . S
C1516 C1515 1.403 . S
C1516 C1517 1.404 . S
C1516 C1519 1.539 . S
C1517 C1513 1.408 . S
C1517 C1516 1.404 . S
C1517 H1529 0.930 . S
C1518 C1514 1.524 . S
C1518 H1530 0.956 . S
C1518 H1531 0.961 . S
C1518 H1532 0.961 . S
C1519 C1516 1.539 . S
C1519 H1533 0.958 . S
C1519 H1534 0.961 . S
C1519 H1535 0.960 . S
H1520 C1504 0.931 1_556 S
H1521 C1509 0.929 . S
H1522 C1510 0.960 . S
H1523 C1510 0.962 . S
H1524 C1510 0.960 . S
H1525 C1511 0.961 . S
H1526 C1511 0.961 . S
H1527 C1511 0.961 . S
H1528 C1512 0.931 . S
H1529 C1517 0.930 . S
H1530 C1518 0.956 . S
H1531 C1518 0.961 . S
H1532 C1518 0.961 . S
H1533 C1519 0.958 . S
H1534 C1519 0.961 . S
H1535 C1519 0.960 . S
C1536 C1537 1.391 . S
C1536 C1538 1.394 . S
C1536 H1552 0.931 . S
C1537 C1536 1.391 . S
C1537 C1541 1.376 . S
C1538 C1536 1.394 . S
C1538 C1539 1.369 . S
C1538 C1542 1.531 . S
C1539 C1538 1.369 . S
C1539 C1540 1.410 . S
C1539 C1547 1.503 . S
C1540 C1539 1.410 . S
C1540 C1541 1.392 . S
C1540 C1543 1.511 . S
C1541 C1537 1.376 . S
C1541 C1540 1.392 . S
C1541 H1553 0.929 . S
C1542 C1538 1.531 . S
C1542 H1554 0.960 . S
C1542 H1555 0.962 . S
C1542 H1556 0.960 . S
C1543 C1540 1.511 . S
C1543 H1557 0.961 . S
C1543 H1558 0.961 . S
C1543 H1559 0.961 . S
C1544 C1545 1.370 . S
C1544 C1546 1.363 . S
C1544 H1560 0.931 . S
C1545 C1544 1.370 . S
C1545 C1549 1.408 . S
C1546 C1544 1.363 . S
C1546 C1547 1.370 . S
C1546 C1550 1.524 . S
C1547 C1539 1.503 . S
C1547 C1546 1.370 . S
C1547 C1548 1.403 . S
C1548 C1547 1.403 . S
C1548 C1549 1.404 . S
C1548 C1551 1.539 . S
C1549 C1545 1.408 . S
C1549 C1548 1.404 . S
C1549 H1561 0.930 . S
C1550 C1546 1.524 . S
C1550 H1562 0.956 . S
C1550 H1563 0.961 . S
C1550 H1564 0.961 . S
C1551 C1548 1.539 . S
C1551 H1565 0.958 . S
C1551 H1566 0.961 . S
C1551 H1567 0.960 . S
H1552 C1536 0.931 . S
H1553 C1541 0.929 . S
H1554 C1542 0.960 . S
H1555 C1542 0.962 . S
H1556 C1542 0.960 . S
H1557 C1543 0.961 . S
H1558 C1543 0.961 . S
H1559 C1543 0.961 . S
H1560 C1544 0.931 . S
H1561 C1549 0.930 . S
H1562 C1550 0.956 . S
H1563 C1550 0.961 . S
H1564 C1550 0.961 . S
H1565 C1551 0.958 . S
H1566 C1551 0.961 . S
H1567 C1551 0.960 . S
C1568 C1569 1.391 . S
C1568 C1570 1.394 . S
C1568 H1584 0.931 . S
C1569 C1568 1.391 . S
C1569 C1573 1.376 . S
C1570 C1568 1.394 . S
C1570 C1571 1.369 . S
C1570 C1574 1.531 . S
C1571 C1570 1.369 . S
C1571 C1572 1.410 . S
C1571 C1579 1.503 . S
C1572 C1571 1.410 . S
C1572 C1573 1.392 . S
C1572 C1575 1.511 . S
C1573 C1569 1.376 . S
C1573 C1572 1.392 . S
C1573 H1585 0.929 . S
C1574 C1570 1.531 . S
C1574 H1586 0.960 . S
C1574 H1587 0.962 . S
C1574 H1588 0.960 . S
C1575 C1572 1.511 . S
C1575 H1589 0.961 . S
C1575 H1590 0.961 . S
C1575 H1591 0.961 . S
C1576 C1577 1.370 . S
C1576 C1578 1.363 . S
C1576 H1592 0.931 . S
C1577 C1576 1.370 . S
C1577 C1581 1.408 . S
C1578 C1576 1.363 . S
C1578 C1579 1.370 . S
C1578 C1582 1.524 . S
C1579 C1571 1.503 . S
C1579 C1578 1.370 . S
C1579 C1580 1.403 . S
C1580 C1579 1.403 . S
C1580 C1581 1.404 . S
C1580 C1583 1.539 . S
C1581 C1577 1.408 . S
C1581 C1580 1.404 . S
C1581 H1593 0.930 . S
C1582 C1578 1.524 . S
C1582 H1594 0.956 . S
C1582 H1595 0.961 . S
C1582 H1596 0.961 . S
C1583 C1580 1.539 . S
C1583 H1597 0.958 . S
C1583 H1598 0.961 . S
C1583 H1599 0.960 . S
H1584 C1568 0.931 . S
H1585 C1573 0.929 . S
H1586 C1574 0.960 . S
H1587 C1574 0.962 . S
H1588 C1574 0.960 . S
H1589 C1575 0.961 . S
H1590 C1575 0.961 . S
H1591 C1575 0.961 . S
H1592 C1576 0.931 . S
H1593 C1581 0.930 . S
H1594 C1582 0.956 . S
H1595 C1582 0.961 . S
H1596 C1582 0.961 . S
H1597 C1583 0.958 . S
H1598 C1583 0.961 . S
H1599 C1583 0.960 . S
C1600 C1601 1.391 . S
C1600 C1602 1.394 . S
C1600 H1616 0.931 . S
C1601 C1600 1.391 . S
C1601 C1605 1.376 . S
C1602 C1600 1.394 . S
C1602 C1603 1.369 . S
C1602 C1606 1.531 . S
C1603 C1602 1.369 . S
C1603 C1604 1.410 . S
C1603 C1611 1.503 . S
C1604 C1603 1.410 . S
C1604 C1605 1.392 . S
C1604 C1607 1.511 . S
C1605 C1601 1.376 . S
C1605 C1604 1.392 . S
C1605 H1617 0.929 . S
C1606 C1602 1.531 . S
C1606 H1618 0.960 . S
C1606 H1619 0.962 . S
C1606 H1620 0.960 . S
C1607 C1604 1.511 . S
C1607 H1621 0.961 . S
C1607 H1622 0.961 . S
C1607 H1623 0.961 . S
C1608 C1609 1.370 . S
C1608 C1610 1.363 . S
C1608 H1624 0.931 . S
C1609 C1608 1.370 . S
C1609 C1613 1.408 . S
C1610 C1608 1.363 . S
C1610 C1611 1.370 . S
C1610 C1614 1.524 . S
C1611 C1603 1.503 . S
C1611 C1610 1.370 . S
C1611 C1612 1.403 . S
C1612 C1611 1.403 . S
C1612 C1613 1.404 . S
C1612 C1615 1.539 . S
C1613 C1609 1.408 . S
C1613 C1612 1.404 . S
C1613 H1625 0.930 . S
C1614 C1610 1.524 . S
C1614 H1626 0.956 . S
C1614 H1627 0.961 . S
C1614 H1628 0.961 . S
C1615 C1612 1.539 . S
C1615 H1629 0.958 . S
C1615 H1630 0.961 . S
C1615 H1631 0.960 . S
H1616 C1600 0.931 . S
H1617 C1605 0.929 . S
H1618 C1606 0.960 . S
H1619 C1606 0.962 . S
H1620 C1606 0.960 . S
H1621 C1607 0.961 . S
H1622 C1607 0.961 . S
H1623 C1607 0.961 . S
H1624 C1608 0.931 . S
H1625 C1613 0.930 . S
H1626 C1614 0.956 . S
H1627 C1614 0.961 . S
H1628 C1614 0.961 . S
H1629 C1615 0.958 . S
H1630 C1615 0.961 . S
H1631 C1615 0.960 . S
C1632 C1633 1.391 . S
C1632 C1634 1.394 . S
C1632 H1648 0.931 . S
C1633 C1632 1.391 . S
C1633 C1637 1.376 . S
C1634 C1632 1.394 . S
C1634 C1635 1.369 . S
C1634 C1638 1.531 . S
C1635 C1634 1.369 . S
C1635 C1636 1.410 . S
C1635 C1643 1.503 . S
C1636 C1635 1.410 . S
C1636 C1637 1.392 . S
C1636 C1639 1.511 . S
C1637 C1633 1.376 . S
C1637 C1636 1.392 . S
C1637 H1649 0.929 . S
C1638 C1634 1.531 . S
C1638 H1650 0.960 . S
C1638 H1651 0.962 . S
C1638 H1652 0.960 . S
C1639 C1636 1.511 . S
C1639 H1653 0.961 . S
C1639 H1654 0.961 . S
C1639 H1655 0.961 . S
C1640 C1641 1.370 . S
C1640 C1642 1.363 . S
C1640 H1656 0.931 . S
C1641 C1640 1.370 . S
C1641 C1645 1.408 . S
C1642 C1640 1.363 . S
C1642 C1643 1.370 . S
C1642 C1646 1.524 . S
C1643 C1635 1.503 . S
C1643 C1642 1.370 . S
C1643 C1644 1.403 . S
C1644 C1643 1.403 . S
C1644 C1645 1.404 . S
C1644 C1647 1.539 . S
C1645 C1641 1.408 . S
C1645 C1644 1.404 . S
C1645 H1657 0.930 . S
C1646 C1642 1.524 . S
C1646 H1658 0.956 . S
C1646 H1659 0.961 . S
C1646 H1660 0.961 . S
C1647 C1644 1.539 . S
C1647 H1661 0.958 . S
C1647 H1662 0.961 . S
C1647 H1663 0.960 . S
H1648 C1632 0.931 . S
H1649 C1637 0.929 . S
H1650 C1638 0.960 . S
H1651 C1638 0.962 . S
H1652 C1638 0.960 . S
H1653 C1639 0.961 . S
H1654 C1639 0.961 . S
H1655 C1639 0.961 . S
H1656 C1640 0.931 . S
H1657 C1645 0.930 . S
H1658 C1646 0.956 . S
H1659 C1646 0.961 . S
H1660 C1646 0.961 . S
H1661 C1647 0.958 . S
H1662 C1647 0.961 . S
H1663 C1647 0.960 . S
C1664 C1665 1.391 . S
C1664 C1666 1.394 . S
C1664 H1680 0.931 . S
C1665 C1664 1.391 . S
C1665 C1669 1.376 . S
C1666 C1664 1.394 . S
C1666 C1667 1.369 . S
C1666 C1670 1.531 . S
C1667 C1666 1.369 . S
C1667 C1668 1.410 . S
C1667 C1675 1.503 . S
C1668 C1667 1.410 . S
C1668 C1669 1.392 . S
C1668 C1671 1.511 . S
C1669 C1665 1.376 . S
C1669 C1668 1.392 . S
C1669 H1681 0.929 . S
C1670 C1666 1.531 . S
C1670 H1682 0.960 . S
C1670 H1683 0.962 . S
C1670 H1684 0.960 . S
C1671 C1668 1.511 . S
C1671 H1685 0.961 . S
C1671 H1686 0.961 . S
C1671 H1687 0.961 . S
C1672 C1673 1.370 . S
C1672 C1674 1.363 . S
C1672 H1688 0.931 . S
C1673 C1672 1.370 . S
C1673 C1677 1.408 . S
C1674 C1672 1.363 . S
C1674 C1675 1.370 . S
C1674 C1678 1.524 . S
C1675 C1667 1.503 . S
C1675 C1674 1.370 . S
C1675 C1676 1.403 . S
C1676 C1675 1.403 . S
C1676 C1677 1.404 . S
C1676 C1679 1.539 . S
C1677 C1673 1.408 . S
C1677 C1676 1.404 . S
C1677 H1689 0.930 . S
C1678 C1674 1.524 . S
C1678 H1690 0.956 . S
C1678 H1691 0.961 . S
C1678 H1692 0.961 . S
C1679 C1676 1.539 . S
C1679 H1693 0.958 . S
C1679 H1694 0.961 . S
C1679 H1695 0.960 . S
H1680 C1664 0.931 . S
H1681 C1669 0.929 . S
H1682 C1670 0.960 . S
H1683 C1670 0.962 . S
H1684 C1670 0.960 . S
H1685 C1671 0.961 . S
H1686 C1671 0.961 . S
H1687 C1671 0.961 . S
H1688 C1672 0.931 . S
H1689 C1677 0.930 . S
H1690 C1678 0.956 . S
H1691 C1678 0.961 . S
H1692 C1678 0.961 . S
H1693 C1679 0.958 . S
H1694 C1679 0.961 . S
H1695 C1679 0.960 . S
C1696 C1697 1.391 . S
C1696 C1698 1.394 . S
C1696 H1712 0.931 . S
C1697 C1696 1.391 . S
C1697 C1701 1.376 . S
C1698 C1696 1.394 . S
C1698 C1699 1.369 . S
C1698 C1702 1.531 . S
C1699 C1698 1.369 . S
C1699 C1700 1.410 . S
C1699 C1707 1.503 . S
C1700 C1699 1.410 . S
C1700 C1701 1.392 . S
C1700 C1703 1.511 . S
C1701 C1697 1.376 . S
C1701 C1700 1.392 . S
C1701 H1713 0.929 . S
C1702 C1698 1.531 . S
C1702 H1714 0.960 . S
C1702 H1715 0.962 . S
C1702 H1716 0.960 . S
C1703 C1700 1.511 . S
C1703 H1717 0.961 . S
C1703 H1718 0.961 . S
C1703 H1719 0.961 . S
C1704 C1705 1.370 . S
C1704 C1706 1.363 . S
C1704 H1720 0.931 . S
C1705 C1704 1.370 . S
C1705 C1709 1.408 . S
C1706 C1704 1.363 . S
C1706 C1707 1.370 . S
C1706 C1710 1.524 . S
C1707 C1699 1.503 . S
C1707 C1706 1.370 . S
C1707 C1708 1.403 . S
C1708 C1707 1.403 . S
C1708 C1709 1.404 . S
C1708 C1711 1.539 . S
C1709 C1705 1.408 . S
C1709 C1708 1.404 . S
C1709 H1721 0.930 . S
C1710 C1706 1.524 . S
C1710 H1722 0.956 . S
C1710 H1723 0.961 . S
C1710 H1724 0.961 . S
C1711 C1708 1.539 . S
C1711 H1725 0.958 . S
C1711 H1726 0.961 . S
C1711 H1727 0.960 . S
H1712 C1696 0.931 . S
H1713 C1701 0.929 . S
H1714 C1702 0.960 . S
H1715 C1702 0.962 . S
H1716 C1702 0.960 . S
H1717 C1703 0.961 . S
H1718 C1703 0.961 . S
H1719 C1703 0.961 . S
H1720 C1704 0.931 . S
H1721 C1709 0.930 . S
H1722 C1710 0.956 . S
H1723 C1710 0.961 . S
H1724 C1710 0.961 . S
H1725 C1711 0.958 . S
H1726 C1711 0.961 . S
H1727 C1711 0.960 . S
C1728 C1729 1.391 . S
C1728 C1730 1.394 . S
C1728 H1744 0.931 . S
C1729 C1728 1.391 . S
C1729 C1733 1.376 . S
C1730 C1728 1.394 . S
C1730 C1731 1.369 . S
C1730 C1734 1.531 . S
C1731 C1730 1.369 . S
C1731 C1732 1.410 . S
C1731 C1739 1.503 . S
C1732 C1731 1.410 . S
C1732 C1733 1.392 . S
C1732 C1735 1.511 . S
C1733 C1729 1.376 . S
C1733 C1732 1.392 . S
C1733 H1745 0.929 . S
C1734 C1730 1.531 . S
C1734 H1746 0.960 . S
C1734 H1747 0.962 . S
C1734 H1748 0.960 . S
C1735 C1732 1.511 . S
C1735 H1749 0.961 . S
C1735 H1750 0.961 . S
C1735 H1751 0.961 . S
C1736 C1737 1.370 . S
C1736 C1738 1.363 . S
C1736 H1752 0.931 . S
C1737 C1736 1.370 . S
C1737 C1741 1.408 . S
C1738 C1736 1.363 . S
C1738 C1739 1.370 . S
C1738 C1742 1.524 . S
C1739 C1731 1.503 . S
C1739 C1738 1.370 . S
C1739 C1740 1.403 . S
C1740 C1739 1.403 . S
C1740 C1741 1.404 . S
C1740 C1743 1.539 . S
C1741 C1737 1.408 . S
C1741 C1740 1.404 . S
C1741 H1753 0.930 . S
C1742 C1738 1.524 . S
C1742 H1754 0.956 . S
C1742 H1755 0.961 . S
C1742 H1756 0.961 . S
C1743 C1740 1.539 . S
C1743 H1757 0.958 . S
C1743 H1758 0.961 . S
C1743 H1759 0.960 . S
H1744 C1728 0.931 . S
H1745 C1733 0.929 . S
H1746 C1734 0.960 . S
H1747 C1734 0.962 . S
H1748 C1734 0.960 . S
H1749 C1735 0.961 . S
H1750 C1735 0.961 . S
H1751 C1735 0.961 . S
H1752 C1736 0.931 . S
H1753 C1741 0.930 . S
H1754 C1742 0.956 . S
H1755 C1742 0.961 . S
H1756 C1742 0.961 . S
H1757 C1743 0.958 . S
H1758 C1743 0.961 . S
H1759 C1743 0.960 . S
C1760 C1761 1.391 . S
C1760 C1762 1.394 . S
C1760 H1776 0.931 . S
C1761 C1760 1.391 . S
C1761 C1765 1.376 . S
C1762 C1760 1.394 . S
C1762 C1763 1.369 . S
C1762 C1766 1.531 . S
C1763 C1762 1.369 . S
C1763 C1764 1.410 . S
C1763 C1771 1.503 . S
C1764 C1763 1.410 . S
C1764 C1765 1.392 . S
C1764 C1767 1.511 . S
C1765 C1761 1.376 . S
C1765 C1764 1.392 . S
C1765 H1777 0.929 . S
C1766 C1762 1.531 . S
C1766 H1778 0.960 . S
C1766 H1779 0.962 . S
C1766 H1780 0.960 . S
C1767 C1764 1.511 . S
C1767 H1781 0.961 . S
C1767 H1782 0.961 . S
C1767 H1783 0.961 . S
C1768 C1769 1.370 . S
C1768 C1770 1.363 . S
C1768 H1784 0.931 . S
C1769 C1768 1.370 . S
C1769 C1773 1.408 . S
C1770 C1768 1.363 . S
C1770 C1771 1.370 . S
C1770 C1774 1.524 . S
C1771 C1763 1.503 . S
C1771 C1770 1.370 . S
C1771 C1772 1.403 . S
C1772 C1771 1.403 . S
C1772 C1773 1.404 . S
C1772 C1775 1.539 . S
C1773 C1769 1.408 . S
C1773 C1772 1.404 . S
C1773 H1785 0.930 . S
C1774 C1770 1.524 . S
C1774 H1786 0.956 . S
C1774 H1787 0.961 . S
C1774 H1788 0.961 . S
C1775 C1772 1.539 . S
C1775 H1789 0.958 . S
C1775 H1790 0.961 . S
C1775 H1791 0.960 . S
H1776 C1760 0.931 . S
H1777 C1765 0.929 . S
H1778 C1766 0.960 . S
H1779 C1766 0.962 . S
H1780 C1766 0.960 . S
H1781 C1767 0.961 . S
H1782 C1767 0.961 . S
H1783 C1767 0.961 . S
H1784 C1768 0.931 . S
H1785 C1773 0.930 . S
H1786 C1774 0.956 . S
H1787 C1774 0.961 . S
H1788 C1774 0.961 . S
H1789 C1775 0.958 . S
H1790 C1775 0.961 . S
H1791 C1775 0.960 . S
C1792 C1793 1.391 . S
C1792 C1794 1.394 . S
C1792 H1808 0.931 . S
C1793 C1792 1.391 . S
C1793 C1797 1.376 . S
C1794 C1792 1.394 . S
C1794 C1795 1.369 . S
C1794 C1798 1.531 . S
C1795 C1794 1.369 . S
C1795 C1796 1.410 . S
C1795 C1803 1.503 . S
C1796 C1795 1.410 . S
C1796 C1797 1.392 . S
C1796 C1799 1.511 . S
C1797 C1793 1.376 . S
C1797 C1796 1.392 . S
C1797 H1809 0.929 . S
C1798 C1794 1.531 . S
C1798 H1810 0.960 . S
C1798 H1811 0.962 . S
C1798 H1812 0.960 . S
C1799 C1796 1.511 . S
C1799 H1813 0.961 . S
C1799 H1814 0.961 . S
C1799 H1815 0.961 . S
C1800 C1801 1.370 . S
C1800 C1802 1.363 . S
C1800 H1816 0.931 . S
C1801 C1800 1.370 . S
C1801 C1805 1.408 . S
C1802 C1800 1.363 . S
C1802 C1803 1.370 . S
C1802 C1806 1.524 . S
C1803 C1795 1.503 . S
C1803 C1802 1.370 . S
C1803 C1804 1.403 . S
C1804 C1803 1.403 . S
C1804 C1805 1.404 . S
C1804 C1807 1.539 . S
C1805 C1801 1.408 . S
C1805 C1804 1.404 . S
C1805 H1817 0.930 . S
C1806 C1802 1.524 . S
C1806 H1818 0.956 . S
C1806 H1819 0.961 . S
C1806 H1820 0.961 . S
C1807 C1804 1.539 . S
C1807 H1821 0.958 . S
C1807 H1822 0.961 . S
C1807 H1823 0.960 . S
H1808 C1792 0.931 . S
H1809 C1797 0.929 . S
H1810 C1798 0.960 . S
H1811 C1798 0.962 . S
H1812 C1798 0.960 . S
H1813 C1799 0.961 . S
H1814 C1799 0.961 . S
H1815 C1799 0.961 . S
H1816 C1800 0.931 . S
H1817 C1805 0.930 . S
H1818 C1806 0.956 . S
H1819 C1806 0.961 . S
H1820 C1806 0.961 . S
H1821 C1807 0.958 . S
H1822 C1807 0.961 . S
H1823 C1807 0.960 . S
C1824 C1825 1.391 . S
C1824 C1826 1.394 . S
C1824 H1840 0.931 . S
C1825 C1824 1.391 . S
C1825 C1829 1.376 . S
C1826 C1824 1.394 . S
C1826 C1827 1.369 . S
C1826 C1830 1.531 . S
C1827 C1826 1.369 . S
C1827 C1828 1.410 . S
C1827 C1835 1.503 . S
C1828 C1827 1.410 . S
C1828 C1829 1.392 . S
C1828 C1831 1.511 . S
C1829 C1825 1.376 . S
C1829 C1828 1.392 . S
C1829 H1841 0.929 . S
C1830 C1826 1.531 . S
C1830 H1842 0.960 . S
C1830 H1843 0.962 . S
C1830 H1844 0.960 . S
C1831 C1828 1.511 . S
C1831 H1845 0.961 . S
C1831 H1846 0.961 . S
C1831 H1847 0.961 . S
C1832 C1833 1.370 . S
C1832 C1834 1.363 . S
C1832 H1848 0.931 . S
C1833 C1832 1.370 . S
C1833 C1837 1.408 . S
C1834 C1832 1.363 . S
C1834 C1835 1.370 . S
C1834 C1838 1.524 . S
C1835 C1827 1.503 . S
C1835 C1834 1.370 . S
C1835 C1836 1.403 . S
C1836 C1835 1.403 . S
C1836 C1837 1.404 . S
C1836 C1839 1.539 . S
C1837 C1833 1.408 . S
C1837 C1836 1.404 . S
C1837 H1849 0.930 . S
C1838 C1834 1.524 . S
C1838 H1850 0.956 . S
C1838 H1851 0.961 . S
C1838 H1852 0.961 . S
C1839 C1836 1.539 . S
C1839 H1853 0.958 . S
C1839 H1854 0.961 . S
C1839 H1855 0.960 . S
H1840 C1824 0.931 . S
H1841 C1829 0.929 . S
H1842 C1830 0.960 . S
H1843 C1830 0.962 . S
H1844 C1830 0.960 . S
H1845 C1831 0.961 . S
H1846 C1831 0.961 . S
H1847 C1831 0.961 . S
H1848 C1832 0.931 . S
H1849 C1837 0.930 . S
H1850 C1838 0.956 . S
H1851 C1838 0.961 . S
H1852 C1838 0.961 . S
H1853 C1839 0.958 . S
H1854 C1839 0.961 . S
H1855 C1839 0.960 . S
C1856 C1857 1.391 . S
C1856 C1858 1.394 . S
C1856 H1872 0.931 . S
C1857 C1856 1.391 . S
C1857 C1861 1.376 . S
C1858 C1856 1.394 . S
C1858 C1859 1.369 . S
C1858 C1862 1.531 . S
C1859 C1858 1.369 . S
C1859 C1860 1.410 . S
C1859 C1867 1.503 . S
C1860 C1859 1.410 . S
C1860 C1861 1.392 . S
C1860 C1863 1.511 . S
C1861 C1857 1.376 . S
C1861 C1860 1.392 . S
C1861 H1873 0.929 . S
C1862 C1858 1.531 . S
C1862 H1874 0.960 . S
C1862 H1875 0.962 . S
C1862 H1876 0.960 . S
C1863 C1860 1.511 . S
C1863 H1877 0.961 . S
C1863 H1878 0.961 . S
C1863 H1879 0.961 . S
C1864 C1865 1.370 . S
C1864 C1866 1.363 . S
C1864 H1880 0.931 . S
C1865 C1864 1.370 . S
C1865 C1869 1.408 . S
C1866 C1864 1.363 . S
C1866 C1867 1.370 . S
C1866 C1870 1.524 . S
C1867 C1859 1.503 . S
C1867 C1866 1.370 . S
C1867 C1868 1.403 . S
C1868 C1867 1.403 . S
C1868 C1869 1.404 . S
C1868 C1871 1.539 . S
C1869 C1865 1.408 . S
C1869 C1868 1.404 . S
C1869 H1881 0.930 . S
C1870 C1866 1.524 . S
C1870 H1882 0.956 . S
C1870 H1883 0.961 . S
C1870 H1884 0.961 . S
C1871 C1868 1.539 . S
C1871 H1885 0.958 . S
C1871 H1886 0.961 . S
C1871 H1887 0.960 . S
H1872 C1856 0.931 . S
H1873 C1861 0.929 . S
H1874 C1862 0.960 . S
H1875 C1862 0.962 . S
H1876 C1862 0.960 . S
H1877 C1863 0.961 . S
H1878 C1863 0.961 . S
H1879 C1863 0.961 . S
H1880 C1864 0.931 . S
H1881 C1869 0.930 . S
H1882 C1870 0.956 . S
H1883 C1870 0.961 . S
H1884 C1870 0.961 . S
H1885 C1871 0.958 . S
H1886 C1871 0.961 . S
H1887 C1871 0.960 . S
C1888 C1889 1.391 . S
C1888 C1890 1.394 . S
C1888 H1904 0.931 . S
C1889 C1888 1.391 . S
C1889 C1893 1.376 . S
C1890 C1888 1.394 . S
C1890 C1891 1.369 . S
C1890 C1894 1.531 . S
C1891 C1890 1.369 . S
C1891 C1892 1.410 . S
C1891 C1899 1.503 . S
C1892 C1891 1.410 . S
C1892 C1893 1.392 . S
C1892 C1895 1.511 . S
C1893 C1889 1.376 . S
C1893 C1892 1.392 . S
C1893 H1905 0.929 . S
C1894 C1890 1.531 . S
C1894 H1906 0.960 . S
C1894 H1907 0.962 . S
C1894 H1908 0.960 . S
C1895 C1892 1.511 . S
C1895 H1909 0.961 . S
C1895 H1910 0.961 . S
C1895 H1911 0.961 . S
C1896 C1897 1.370 . S
C1896 C1898 1.363 . S
C1896 H1912 0.931 . S
C1897 C1896 1.370 . S
C1897 C1901 1.408 . S
C1898 C1896 1.363 . S
C1898 C1899 1.370 . S
C1898 C1902 1.524 . S
C1899 C1891 1.503 . S
C1899 C1898 1.370 . S
C1899 C1900 1.403 . S
C1900 C1899 1.403 . S
C1900 C1901 1.404 . S
C1900 C1903 1.539 . S
C1901 C1897 1.408 . S
C1901 C1900 1.404 . S
C1901 H1913 0.930 . S
C1902 C1898 1.524 . S
C1902 H1914 0.956 . S
C1902 H1915 0.961 . S
C1902 H1916 0.961 . S
C1903 C1900 1.539 . S
C1903 H1917 0.958 . S
C1903 H1918 0.961 . S
C1903 H1919 0.960 . S
H1904 C1888 0.931 . S
H1905 C1893 0.929 . S
H1906 C1894 0.960 . S
H1907 C1894 0.962 . S
H1908 C1894 0.960 . S
H1909 C1895 0.961 . S
H1910 C1895 0.961 . S
H1911 C1895 0.961 . S
H1912 C1896 0.931 . S
H1913 C1901 0.930 . S
H1914 C1902 0.956 . S
H1915 C1902 0.961 . S
H1916 C1902 0.961 . S
H1917 C1903 0.958 . S
H1918 C1903 0.961 . S
H1919 C1903 0.960 . S
C1920 C1921 1.391 1_554 S
C1920 C1922 1.394 . S
C1920 H1936 0.931 . S
C1921 C1920 1.391 1_556 S
C1921 C1925 1.376 1_556 S
C1922 C1920 1.394 . S
C1922 C1923 1.369 . S
C1922 C1926 1.531 . S
C1923 C1922 1.369 . S
C1923 C1924 1.410 . S
C1923 C1931 1.503 . S
C1924 C1923 1.410 . S
C1924 C1925 1.392 . S
C1924 C1927 1.511 . S
C1925 C1921 1.376 1_554 S
C1925 C1924 1.392 . S
C1925 H1937 0.929 1_554 S
C1926 C1922 1.531 . S
C1926 H1938 0.960 . S
C1926 H1939 0.962 . S
C1926 H1940 0.960 . S
C1927 C1924 1.511 . S
C1927 H1941 0.961 . S
C1927 H1942 0.961 . S
C1927 H1943 0.961 . S
C1928 C1929 1.370 . S
C1928 C1930 1.363 . S
C1928 H1944 0.931 . S
C1929 C1928 1.370 . S
C1929 C1933 1.408 . S
C1930 C1928 1.363 . S
C1930 C1931 1.370 . S
C1930 C1934 1.524 . S
C1931 C1923 1.503 . S
C1931 C1930 1.370 . S
C1931 C1932 1.403 . S
C1932 C1931 1.403 . S
C1932 C1933 1.404 . S
C1932 C1935 1.539 . S
C1933 C1929 1.408 . S
C1933 C1932 1.404 . S
C1933 H1945 0.930 . S
C1934 C1930 1.524 . S
C1934 H1946 0.956 . S
C1934 H1947 0.961 . S
C1934 H1948 0.961 . S
C1935 C1932 1.539 . S
C1935 H1949 0.958 . S
C1935 H1950 0.961 . S
C1935 H1951 0.960 . S
H1936 C1920 0.931 . S
H1937 C1925 0.929 1_556 S
H1938 C1926 0.960 . S
H1939 C1926 0.962 . S
H1940 C1926 0.960 . S
H1941 C1927 0.961 . S
H1942 C1927 0.961 . S
H1943 C1927 0.961 . S
H1944 C1928 0.931 . S
H1945 C1933 0.930 . S
H1946 C1934 0.956 . S
H1947 C1934 0.961 . S
H1948 C1934 0.961 . S
H1949 C1935 0.958 . S
H1950 C1935 0.961 . S
H1951 C1935 0.960 . S
C1952 C1953 1.391 . S
C1952 C1954 1.394 . S
C1952 H1968 0.931 . S
C1953 C1952 1.391 . S
C1953 C1957 1.376 . S
C1954 C1952 1.394 . S
C1954 C1955 1.369 . S
C1954 C1958 1.531 . S
C1955 C1954 1.369 . S
C1955 C1956 1.410 . S
C1955 C1963 1.503 . S
C1956 C1955 1.410 . S
C1956 C1957 1.392 . S
C1956 C1959 1.511 . S
C1957 C1953 1.376 . S
C1957 C1956 1.392 . S
C1957 H1969 0.929 . S
C1958 C1954 1.531 . S
C1958 H1970 0.960 . S
C1958 H1971 0.962 . S
C1958 H1972 0.960 . S
C1959 C1956 1.511 . S
C1959 H1973 0.961 . S
C1959 H1974 0.961 . S
C1959 H1975 0.961 . S
C1960 C1961 1.370 1_556 S
C1960 C1962 1.363 . S
C1960 H1976 0.931 . S
C1961 C1960 1.370 1_554 S
C1961 C1965 1.408 1_554 S
C1962 C1960 1.363 . S
C1962 C1963 1.370 . S
C1962 C1966 1.524 . S
C1963 C1955 1.503 . S
C1963 C1962 1.370 . S
C1963 C1964 1.403 . S
C1964 C1963 1.403 . S
C1964 C1965 1.404 . S
C1964 C1967 1.539 . S
C1965 C1961 1.408 1_556 S
C1965 C1964 1.404 . S
C1965 H1977 0.930 1_556 S
C1966 C1962 1.524 . S
C1966 H1978 0.956 . S
C1966 H1979 0.961 . S
C1966 H1980 0.961 . S
C1967 C1964 1.539 . S
C1967 H1981 0.958 . S
C1967 H1982 0.961 . S
C1967 H1983 0.960 . S
H1968 C1952 0.931 . S
H1969 C1957 0.929 . S
H1970 C1958 0.960 . S
H1971 C1958 0.962 . S
H1972 C1958 0.960 . S
H1973 C1959 0.961 . S
H1974 C1959 0.961 . S
H1975 C1959 0.961 . S
H1976 C1960 0.931 . S
H1977 C1965 0.930 1_554 S
H1978 C1966 0.956 . S
H1979 C1966 0.961 . S
H1980 C1966 0.961 . S
H1981 C1967 0.958 . S
H1982 C1967 0.961 . S
H1983 C1967 0.960 . S
C1984 C1985 1.391 . S
C1984 C1986 1.394 . S
C1984 H2000 0.931 . S
C1985 C1984 1.391 . S
C1985 C1989 1.376 . S
C1986 C1984 1.394 . S
C1986 C1987 1.369 . S
C1986 C1990 1.531 . S
C1987 C1986 1.369 . S
C1987 C1988 1.410 . S
C1987 C1995 1.503 . S
C1988 C1987 1.410 . S
C1988 C1989 1.392 . S
C1988 C1991 1.511 . S
C1989 C1985 1.376 . S
C1989 C1988 1.392 . S
C1989 H2001 0.929 . S
C1990 C1986 1.531 . S
C1990 H2002 0.960 . S
C1990 H2003 0.962 . S
C1990 H2004 0.960 . S
C1991 C1988 1.511 . S
C1991 H2005 0.961 . S
C1991 H2006 0.961 . S
C1991 H2007 0.961 . S
C1992 C1993 1.370 1_554 S
C1992 C1994 1.363 . S
C1992 H2008 0.931 . S
C1993 C1992 1.370 1_556 S
C1993 C1997 1.408 1_556 S
C1994 C1992 1.363 . S
C1994 C1995 1.370 . S
C1994 C1998 1.524 . S
C1995 C1987 1.503 . S
C1995 C1994 1.370 . S
C1995 C1996 1.403 . S
C1996 C1995 1.403 . S
C1996 C1997 1.404 . S
C1996 C1999 1.539 . S
C1997 C1993 1.408 1_554 S
C1997 C1996 1.404 . S
C1997 H2009 0.930 1_554 S
C1998 C1994 1.524 . S
C1998 H2010 0.956 . S
C1998 H2011 0.961 . S
C1998 H2012 0.961 . S
C1999 C1996 1.539 . S
C1999 H2013 0.958 . S
C1999 H2014 0.961 . S
C1999 H2015 0.960 . S
H2000 C1984 0.931 . S
H2001 C1989 0.929 . S
H2002 C1990 0.960 . S
H2003 C1990 0.962 . S
H2004 C1990 0.960 . S
H2005 C1991 0.961 . S
H2006 C1991 0.961 . S
H2007 C1991 0.961 . S
H2008 C1992 0.931 . S
H2009 C1997 0.930 1_556 S
H2010 C1998 0.956 . S
H2011 C1998 0.961 . S
H2012 C1998 0.961 . S
H2013 C1999 0.958 . S
H2014 C1999 0.961 . S
H2015 C1999 0.960 . S
C2016 C2017 1.391 1_556 S
C2016 C2018 1.394 . S
C2016 H2032 0.931 . S
C2017 C2016 1.391 1_554 S
C2017 C2021 1.376 1_554 S
C2018 C2016 1.394 . S
C2018 C2019 1.369 . S
C2018 C2022 1.531 . S
C2019 C2018 1.369 . S
C2019 C2020 1.410 . S
C2019 C2027 1.503 . S
C2020 C2019 1.410 . S
C2020 C2021 1.392 . S
C2020 C2023 1.511 . S
C2021 C2017 1.376 1_556 S
C2021 C2020 1.392 . S
C2021 H2033 0.929 1_556 S
C2022 C2018 1.531 . S
C2022 H2034 0.960 . S
C2022 H2035 0.962 . S
C2022 H2036 0.960 . S
C2023 C2020 1.511 . S
C2023 H2037 0.961 . S
C2023 H2038 0.961 . S
C2023 H2039 0.961 . S
C2024 C2025 1.370 . S
C2024 C2026 1.363 . S
C2024 H2040 0.931 . S
C2025 C2024 1.370 . S
C2025 C2029 1.408 . S
C2026 C2024 1.363 . S
C2026 C2027 1.370 . S
C2026 C2030 1.524 . S
C2027 C2019 1.503 . S
C2027 C2026 1.370 . S
C2027 C2028 1.403 . S
C2028 C2027 1.403 . S
C2028 C2029 1.404 . S
C2028 C2031 1.539 . S
C2029 C2025 1.408 . S
C2029 C2028 1.404 . S
C2029 H2041 0.930 . S
C2030 C2026 1.524 . S
C2030 H2042 0.956 . S
C2030 H2043 0.961 . S
C2030 H2044 0.961 . S
C2031 C2028 1.539 . S
C2031 H2045 0.958 . S
C2031 H2046 0.961 . S
C2031 H2047 0.960 . S
H2032 C2016 0.931 . S
H2033 C2021 0.929 1_554 S
H2034 C2022 0.960 . S
H2035 C2022 0.962 . S
H2036 C2022 0.960 . S
H2037 C2023 0.961 . S
H2038 C2023 0.961 . S
H2039 C2023 0.961 . S
H2040 C2024 0.931 . S
H2041 C2029 0.930 . S
H2042 C2030 0.956 . S
H2043 C2030 0.961 . S
H2044 C2030 0.961 . S
H2045 C2031 0.958 . S
H2046 C2031 0.961 . S
H2047 C2031 0.960 . S
C2048 C2049 1.391 . S
C2048 C2050 1.394 . S
C2048 H2064 0.931 . S
C2049 C2048 1.391 . S
C2049 C2053 1.376 . S
C2050 C2048 1.394 . S
C2050 C2051 1.369 . S
C2050 C2054 1.531 . S
C2051 C2050 1.369 . S
C2051 C2052 1.410 . S
C2051 C2059 1.503 . S
C2052 C2051 1.410 . S
C2052 C2053 1.392 . S
C2052 C2055 1.511 . S
C2053 C2049 1.376 . S
C2053 C2052 1.392 . S
C2053 H2065 0.929 . S
C2054 C2050 1.531 . S
C2054 H2066 0.960 . S
C2054 H2067 0.962 . S
C2054 H2068 0.960 . S
C2055 C2052 1.511 . S
C2055 H2069 0.961 . S
C2055 H2070 0.961 . S
C2055 H2071 0.961 . S
C2056 C2057 1.370 1_554 S
C2056 C2058 1.363 . S
C2056 H2072 0.931 . S
C2057 C2056 1.370 1_556 S
C2057 C2061 1.408 1_556 S
C2058 C2056 1.363 . S
C2058 C2059 1.370 . S
C2058 C2062 1.524 . S
C2059 C2051 1.503 . S
C2059 C2058 1.370 . S
C2059 C2060 1.403 . S
C2060 C2059 1.403 . S
C2060 C2061 1.404 . S
C2060 C2063 1.539 . S
C2061 C2057 1.408 1_554 S
C2061 C2060 1.404 . S
C2061 H2073 0.930 1_554 S
C2062 C2058 1.524 . S
C2062 H2074 0.956 . S
C2062 H2075 0.961 . S
C2062 H2076 0.961 . S
C2063 C2060 1.539 . S
C2063 H2077 0.958 . S
C2063 H2078 0.961 . S
C2063 H2079 0.960 . S
H2064 C2048 0.931 . S
H2065 C2053 0.929 . S
H2066 C2054 0.960 . S
H2067 C2054 0.962 . S
H2068 C2054 0.960 . S
H2069 C2055 0.961 . S
H2070 C2055 0.961 . S
H2071 C2055 0.961 . S
H2072 C2056 0.931 . S
H2073 C2061 0.930 1_556 S
H2074 C2062 0.956 . S
H2075 C2062 0.961 . S
H2076 C2062 0.961 . S
H2077 C2063 0.958 . S
H2078 C2063 0.961 . S
H2079 C2063 0.960 . S
C2080 C2081 1.391 1_556 S
C2080 C2082 1.394 . S
C2080 H2096 0.931 . S
C2081 C2080 1.391 1_554 S
C2081 C2085 1.376 1_554 S
C2082 C2080 1.394 . S
C2082 C2083 1.369 . S
C2082 C2086 1.531 . S
C2083 C2082 1.369 . S
C2083 C2084 1.410 . S
C2083 C2091 1.503 . S
C2084 C2083 1.410 . S
C2084 C2085 1.392 . S
C2084 C2087 1.511 . S
C2085 C2081 1.376 1_556 S
C2085 C2084 1.392 . S
C2085 H2097 0.929 1_556 S
C2086 C2082 1.531 . S
C2086 H2098 0.960 . S
C2086 H2099 0.962 . S
C2086 H2100 0.960 . S
C2087 C2084 1.511 . S
C2087 H2101 0.961 . S
C2087 H2102 0.961 . S
C2087 H2103 0.961 . S
C2088 C2089 1.370 . S
C2088 C2090 1.363 . S
C2088 H2104 0.931 . S
C2089 C2088 1.370 . S
C2089 C2093 1.408 . S
C2090 C2088 1.363 . S
C2090 C2091 1.370 . S
C2090 C2094 1.524 . S
C2091 C2083 1.503 . S
C2091 C2090 1.370 . S
C2091 C2092 1.403 . S
C2092 C2091 1.403 . S
C2092 C2093 1.404 . S
C2092 C2095 1.539 . S
C2093 C2089 1.408 . S
C2093 C2092 1.404 . S
C2093 H2105 0.930 . S
C2094 C2090 1.524 . S
C2094 H2106 0.956 . S
C2094 H2107 0.961 . S
C2094 H2108 0.961 . S
C2095 C2092 1.539 . S
C2095 H2109 0.958 . S
C2095 H2110 0.961 . S
C2095 H2111 0.960 . S
H2096 C2080 0.931 . S
H2097 C2085 0.929 1_554 S
H2098 C2086 0.960 . S
H2099 C2086 0.962 . S
H2100 C2086 0.960 . S
H2101 C2087 0.961 . S
H2102 C2087 0.961 . S
H2103 C2087 0.961 . S
H2104 C2088 0.931 . S
H2105 C2093 0.930 . S
H2106 C2094 0.956 . S
H2107 C2094 0.961 . S
H2108 C2094 0.961 . S
H2109 C2095 0.958 . S
H2110 C2095 0.961 . S
H2111 C2095 0.960 . S
C2112 C2113 1.391 1_554 S
C2112 C2114 1.394 . S
C2112 H2128 0.931 1_554 S
C2113 C2112 1.391 1_556 S
C2113 C2117 1.376 1_556 S
C2114 C2112 1.394 . S
C2114 C2115 1.369 . S
C2114 C2118 1.531 . S
C2115 C2114 1.369 . S
C2115 C2116 1.410 . S
C2115 C2123 1.503 . S
C2116 C2115 1.410 . S
C2116 C2117 1.392 . S
C2116 C2119 1.511 . S
C2117 C2113 1.376 1_554 S
C2117 C2116 1.392 . S
C2117 H2129 0.929 1_554 S
C2118 C2114 1.531 . S
C2118 H2130 0.960 . S
C2118 H2131 0.962 . S
C2118 H2132 0.960 . S
C2119 C2116 1.511 . S
C2119 H2133 0.961 . S
C2119 H2134 0.961 . S
C2119 H2135 0.961 . S
C2120 C2121 1.370 . S
C2120 C2122 1.363 . S
C2120 H2136 0.931 . S
C2121 C2120 1.370 . S
C2121 C2125 1.408 . S
C2122 C2120 1.363 . S
C2122 C2123 1.370 . S
C2122 C2126 1.524 . S
C2123 C2115 1.503 . S
C2123 C2122 1.370 . S
C2123 C2124 1.403 . S
C2124 C2123 1.403 . S
C2124 C2125 1.404 . S
C2124 C2127 1.539 . S
C2125 C2121 1.408 . S
C2125 C2124 1.404 . S
C2125 H2137 0.930 . S
C2126 C2122 1.524 . S
C2126 H2138 0.956 . S
C2126 H2139 0.961 . S
C2126 H2140 0.961 . S
C2127 C2124 1.539 . S
C2127 H2141 0.958 . S
C2127 H2142 0.961 . S
C2127 H2143 0.960 . S
H2128 C2112 0.931 1_556 S
H2129 C2117 0.929 1_556 S
H2130 C2118 0.960 . S
H2131 C2118 0.962 . S
H2132 C2118 0.960 . S
H2133 C2119 0.961 . S
H2134 C2119 0.961 . S
H2135 C2119 0.961 . S
H2136 C2120 0.931 . S
H2137 C2125 0.930 . S
H2138 C2126 0.956 . S
H2139 C2126 0.961 . S
H2140 C2126 0.961 . S
H2141 C2127 0.958 . S
H2142 C2127 0.961 . S
H2143 C2127 0.960 . S
C2144 C2145 1.391 . S
C2144 C2146 1.394 . S
C2144 H2160 0.931 . S
C2145 C2144 1.391 . S
C2145 C2149 1.376 . S
C2146 C2144 1.394 . S
C2146 C2147 1.369 . S
C2146 C2150 1.531 . S
C2147 C2146 1.369 . S
C2147 C2148 1.410 . S
C2147 C2155 1.503 . S
C2148 C2147 1.410 . S
C2148 C2149 1.392 . S
C2148 C2151 1.511 . S
C2149 C2145 1.376 . S
C2149 C2148 1.392 . S
C2149 H2161 0.929 . S
C2150 C2146 1.531 . S
C2150 H2162 0.960 . S
C2150 H2163 0.962 . S
C2150 H2164 0.960 . S
C2151 C2148 1.511 . S
C2151 H2165 0.961 . S
C2151 H2166 0.961 . S
C2151 H2167 0.961 . S
C2152 C2153 1.370 1_556 S
C2152 C2154 1.363 . S
C2152 H2168 0.931 . S
C2153 C2152 1.370 1_554 S
C2153 C2157 1.408 1_554 S
C2154 C2152 1.363 . S
C2154 C2155 1.370 . S
C2154 C2158 1.524 . S
C2155 C2147 1.503 . S
C2155 C2154 1.370 . S
C2155 C2156 1.403 . S
C2156 C2155 1.403 . S
C2156 C2157 1.404 . S
C2156 C2159 1.539 . S
C2157 C2153 1.408 1_556 S
C2157 C2156 1.404 . S
C2157 H2169 0.930 1_556 S
C2158 C2154 1.524 . S
C2158 H2170 0.956 . S
C2158 H2171 0.961 . S
C2158 H2172 0.961 . S
C2159 C2156 1.539 . S
C2159 H2173 0.958 . S
C2159 H2174 0.961 . S
C2159 H2175 0.960 . S
H2160 C2144 0.931 . S
H2161 C2149 0.929 . S
H2162 C2150 0.960 . S
H2163 C2150 0.962 . S
H2164 C2150 0.960 . S
H2165 C2151 0.961 . S
H2166 C2151 0.961 . S
H2167 C2151 0.961 . S
H2168 C2152 0.931 . S
H2169 C2157 0.930 1_554 S
H2170 C2158 0.956 . S
H2171 C2158 0.961 . S
H2172 C2158 0.961 . S
H2173 C2159 0.958 . S
H2174 C2159 0.961 . S
H2175 C2159 0.960 . S
C641 C459 1.737 . S
C649 C18 1.711 . S
C673 C330 1.732 . S
C681 C49 1.701 . S
C705 C98 1.701 . S
C713 C379 1.735 . S
C737 C129 1.703 . S
C745 C410 1.725 . S
C769 C178 1.730 . S
C777 C219 1.722 . S
C801 C250 1.727 . S
C809 C209 1.703 . S
C833 C258 1.714 . S
C841 C299 1.720 . S
C865 C170 1.722 . S
C873 C289 1.715 . S
C897 C139 1.721 . S
C905 C338 1.718 . S
C929 C369 1.697 . S
C937 C10 1.734 . S
C961 C59 1.728 . S
C969 C418 1.701 . S
C993 C90 1.743 . S
C1001 C449 1.699 . S
C1025 C498 1.716 . S
C1033 C539 1.720 . S
C1057 C570 1.736 . S
C1065 C529 1.700 . S
C1089 C619 1.734 . S
C1097 C578 1.712 . S
C1121 C609 1.730 . S
C1129 C490 1.720 . S
C1153 C9 1.140 . S
C1161 C169 1.198 . S
C1185 C218 1.157 . S
C1193 C58 1.180 . S
C1217 C89 1.171 . S
C1225 C249 1.207 . S
C1249 C138 1.147 . S
C1257 C298 1.185 . S
C1281 C329 1.141 . S
C1289 C489 1.206 . S
C1313 C538 1.233 . S
C1321 C378 1.181 . S
C1345 C409 1.169 . S
C1353 C569 1.207 . S
C1377 C458 1.192 . S
C1385 C618 1.206 . S
C1409 C579 2.260 . S
C1417 C19 2.278 1_556 S
C1441 C50 2.277 1_554 S
C1449 C610 2.270 . S
C1473 C99 2.252 1_556 S
C1481 C499 2.278 . S
C1505 C130 2.280 1_554 S
C1513 C530 2.266 . S
C1537 C179 2.264 . S
C1545 C419 2.270 . S
C1569 C210 2.280 . S
C1577 C450 2.268 . S
C1601 C259 2.268 . S
C1609 C339 2.268 . S
C1633 C370 2.263 . S
C1641 C290 2.276 . S
C1665 C6 1.072 . S
C1673 C15 1.060 . S
C1697 C55 1.060 . S
C1705 C46 1.066 . S
C1729 C86 1.070 . S
C1737 C95 1.062 . S
C1761 C126 1.070 . S
C1769 C135 1.061 . S
C1793 C175 1.055 . S
C1801 C166 1.067 . S
C1825 C215 1.058 . S
C1833 C206 1.067 . S
C1857 C246 1.054 . S
C1865 C255 1.068 . S
C1889 C286 1.070 . S
C1897 C295 1.061 . S
C1921 C326 1.066 . S
C1929 C335 1.064 . S
C1953 C366 1.064 . S
C1961 C375 1.063 . S
C1985 C415 1.071 . S
C1993 C406 1.061 . S
C2017 C455 1.058 . S
C2025 C446 1.067 . S
C2049 C486 1.070 . S
C2057 C495 1.062 . S
C2081 C526 1.055 . S
C2089 C535 1.068 . S
C2113 C575 1.053 . S
C2121 C566 1.069 . S
C2145 C615 1.060 . S
C2153 C606 1.065 . S
