# Generated by pormake.
# Topology wgs, (5)-cn, num edge types: 1
# Building blocks:
#     Node 0, Type 0, BuildingBlock: BEQFEK_clean_sbu_0, # of connection points: 5
#     Node 1, Type 0, BuildingBlock: BEQFEK_clean_sbu_0, # of connection points: 5
#     Node 2, Type 0, BuildingBlock: BEQFEK_clean_sbu_0, # of connection points: 5
#     Node 3, Type 0, BuildingBlock: BEQFEK_clean_sbu_0, # of connection points: 5
#     Node 4, Type 0, BuildingBlock: BEQFEK_clean_sbu_0, # of connection points: 5
#     Node 5, Type 0, BuildingBlock: BEQFEK_clean_sbu_0, # of connection points: 5
#     Node 6, Type 0, BuildingBlock: BEQFEK_clean_sbu_0, # of connection points: 5
#     Node 7, Type 0, BuildingBlock: BEQFEK_clean_sbu_0, # of connection points: 5
#     Node 8, Type 0, BuildingBlock: BEQFEK_clean_sbu_0, # of connection points: 5
#     Node 9, Type 0, BuildingBlock: BEQFEK_clean_sbu_0, # of connection points: 5
#     Node 10, Type 0, BuildingBlock: BEQFEK_clean_sbu_0, # of connection points: 5
#     Node 11, Type 0, BuildingBlock: BEQFEK_clean_sbu_0, # of connection points: 5
#     Node 12, Type 0, BuildingBlock: BEQFEK_clean_sbu_0, # of connection points: 5
#     Node 13, Type 0, BuildingBlock: BEQFEK_clean_sbu_0, # of connection points: 5
#     Node 14, Type 0, BuildingBlock: BEQFEK_clean_sbu_0, # of connection points: 5
#     Node 15, Type 0, BuildingBlock: BEQFEK_clean_sbu_0, # of connection points: 5
#     Node 16, Type 0, BuildingBlock: BEQFEK_clean_sbu_0, # of connection points: 5
#     Node 17, Type 0, BuildingBlock: BEQFEK_clean_sbu_0, # of connection points: 5
#     Node 18, Type 0, BuildingBlock: BEQFEK_clean_sbu_0, # of connection points: 5
#     Node 19, Type 0, BuildingBlock: BEQFEK_clean_sbu_0, # of connection points: 5
#     Node 20, Type 0, BuildingBlock: BEQFEK_clean_sbu_0, # of connection points: 5
#     Node 21, Type 0, BuildingBlock: BEQFEK_clean_sbu_0, # of connection points: 5
#     Node 22, Type 0, BuildingBlock: BEQFEK_clean_sbu_0, # of connection points: 5
#     Node 23, Type 0, BuildingBlock: BEQFEK_clean_sbu_0, # of connection points: 5
#     Node 24, Type 0, BuildingBlock: BEQFEK_clean_sbu_0, # of connection points: 5
#     Node 25, Type 0, BuildingBlock: BEQFEK_clean_sbu_0, # of connection points: 5
#     Node 26, Type 0, BuildingBlock: BEQFEK_clean_sbu_0, # of connection points: 5
#     Node 27, Type 0, BuildingBlock: BEQFEK_clean_sbu_0, # of connection points: 5
#     Node 28, Type 0, BuildingBlock: BEQFEK_clean_sbu_0, # of connection points: 5
#     Node 29, Type 0, BuildingBlock: BEQFEK_clean_sbu_0, # of connection points: 5
#     Node 30, Type 0, BuildingBlock: BEQFEK_clean_sbu_0, # of connection points: 5
#     Node 31, Type 0, BuildingBlock: BEQFEK_clean_sbu_0, # of connection points: 5
#     Edge 32, Type (0, 0), BuildingBlock: OJICUG_clean_linker_0, # of connection points: 2
#     Edge 33, Type (0, 0), BuildingBlock: OJICUG_clean_linker_0, # of connection points: 2
#     Edge 34, Type (0, 0), BuildingBlock: OJICUG_clean_linker_0, # of connection points: 2
#     Edge 35, Type (0, 0), BuildingBlock: OJICUG_clean_linker_0, # of connection points: 2
#     Edge 36, Type (0, 0), BuildingBlock: OJICUG_clean_linker_0, # of connection points: 2
#     Edge 37, Type (0, 0), BuildingBlock: OJICUG_clean_linker_0, # of connection points: 2
#     Edge 38, Type (0, 0), BuildingBlock: OJICUG_clean_linker_0, # of connection points: 2
#     Edge 39, Type (0, 0), BuildingBlock: OJICUG_clean_linker_0, # of connection points: 2
#     Edge 40, Type (0, 0), BuildingBlock: OJICUG_clean_linker_0, # of connection points: 2
#     Edge 41, Type (0, 0), BuildingBlock: OJICUG_clean_linker_0, # of connection points: 2
#     Edge 42, Type (0, 0), BuildingBlock: OJICUG_clean_linker_0, # of connection points: 2
#     Edge 43, Type (0, 0), BuildingBlock: OJICUG_clean_linker_0, # of connection points: 2
#     Edge 44, Type (0, 0), BuildingBlock: OJICUG_clean_linker_0, # of connection points: 2
#     Edge 45, Type (0, 0), BuildingBlock: OJICUG_clean_linker_0, # of connection points: 2
#     Edge 46, Type (0, 0), BuildingBlock: OJICUG_clean_linker_0, # of connection points: 2
#     Edge 47, Type (0, 0), BuildingBlock: OJICUG_clean_linker_0, # of connection points: 2
#     Edge 48, Type (0, 0), BuildingBlock: OJICUG_clean_linker_0, # of connection points: 2
#     Edge 49, Type (0, 0), BuildingBlock: OJICUG_clean_linker_0, # of connection points: 2
#     Edge 50, Type (0, 0), BuildingBlock: OJICUG_clean_linker_0, # of connection points: 2
#     Edge 51, Type (0, 0), BuildingBlock: OJICUG_clean_linker_0, # of connection points: 2
#     Edge 52, Type (0, 0), BuildingBlock: OJICUG_clean_linker_0, # of connection points: 2
#     Edge 53, Type (0, 0), BuildingBlock: OJICUG_clean_linker_0, # of connection points: 2
#     Edge 54, Type (0, 0), BuildingBlock: OJICUG_clean_linker_0, # of connection points: 2
#     Edge 55, Type (0, 0), BuildingBlock: OJICUG_clean_linker_0, # of connection points: 2
#     Edge 56, Type (0, 0), BuildingBlock: OJICUG_clean_linker_0, # of connection points: 2
#     Edge 57, Type (0, 0), BuildingBlock: OJICUG_clean_linker_0, # of connection points: 2
#     Edge 58, Type (0, 0), BuildingBlock: OJICUG_clean_linker_0, # of connection points: 2
#     Edge 59, Type (0, 0), BuildingBlock: OJICUG_clean_linker_0, # of connection points: 2
#     Edge 60, Type (0, 0), BuildingBlock: OJICUG_clean_linker_0, # of connection points: 2
#     Edge 61, Type (0, 0), BuildingBlock: OJICUG_clean_linker_0, # of connection points: 2
#     Edge 62, Type (0, 0), BuildingBlock: OJICUG_clean_linker_0, # of connection points: 2
#     Edge 63, Type (0, 0), BuildingBlock: OJICUG_clean_linker_0, # of connection points: 2
#     Edge 64, Type (0, 0), BuildingBlock: OJICUG_clean_linker_0, # of connection points: 2
#     Edge 65, Type (0, 0), BuildingBlock: OJICUG_clean_linker_0, # of connection points: 2
#     Edge 66, Type (0, 0), BuildingBlock: OJICUG_clean_linker_0, # of connection points: 2
#     Edge 67, Type (0, 0), BuildingBlock: OJICUG_clean_linker_0, # of connection points: 2
#     Edge 68, Type (0, 0), BuildingBlock: OJICUG_clean_linker_0, # of connection points: 2
#     Edge 69, Type (0, 0), BuildingBlock: OJICUG_clean_linker_0, # of connection points: 2
#     Edge 70, Type (0, 0), BuildingBlock: OJICUG_clean_linker_0, # of connection points: 2
#     Edge 71, Type (0, 0), BuildingBlock: OJICUG_clean_linker_0, # of connection points: 2
#     Edge 72, Type (0, 0), BuildingBlock: OJICUG_clean_linker_0, # of connection points: 2
#     Edge 73, Type (0, 0), BuildingBlock: OJICUG_clean_linker_0, # of connection points: 2
#     Edge 74, Type (0, 0), BuildingBlock: OJICUG_clean_linker_0, # of connection points: 2
#     Edge 75, Type (0, 0), BuildingBlock: OJICUG_clean_linker_0, # of connection points: 2
#     Edge 76, Type (0, 0), BuildingBlock: OJICUG_clean_linker_0, # of connection points: 2
#     Edge 77, Type (0, 0), BuildingBlock: OJICUG_clean_linker_0, # of connection points: 2
#     Edge 78, Type (0, 0), BuildingBlock: OJICUG_clean_linker_0, # of connection points: 2
#     Edge 79, Type (0, 0), BuildingBlock: OJICUG_clean_linker_0, # of connection points: 2
#     Edge 80, Type (0, 0), BuildingBlock: OJICUG_clean_linker_0, # of connection points: 2
#     Edge 81, Type (0, 0), BuildingBlock: OJICUG_clean_linker_0, # of connection points: 2
#     Edge 82, Type (0, 0), BuildingBlock: OJICUG_clean_linker_0, # of connection points: 2
#     Edge 83, Type (0, 0), BuildingBlock: OJICUG_clean_linker_0, # of connection points: 2
#     Edge 84, Type (0, 0), BuildingBlock: OJICUG_clean_linker_0, # of connection points: 2
#     Edge 85, Type (0, 0), BuildingBlock: OJICUG_clean_linker_0, # of connection points: 2
#     Edge 86, Type (0, 0), BuildingBlock: OJICUG_clean_linker_0, # of connection points: 2
#     Edge 87, Type (0, 0), BuildingBlock: OJICUG_clean_linker_0, # of connection points: 2
#     Edge 88, Type (0, 0), BuildingBlock: OJICUG_clean_linker_0, # of connection points: 2
#     Edge 89, Type (0, 0), BuildingBlock: OJICUG_clean_linker_0, # of connection points: 2
#     Edge 90, Type (0, 0), BuildingBlock: OJICUG_clean_linker_0, # of connection points: 2
#     Edge 91, Type (0, 0), BuildingBlock: OJICUG_clean_linker_0, # of connection points: 2
#     Edge 92, Type (0, 0), BuildingBlock: OJICUG_clean_linker_0, # of connection points: 2
#     Edge 93, Type (0, 0), BuildingBlock: OJICUG_clean_linker_0, # of connection points: 2
#     Edge 94, Type (0, 0), BuildingBlock: OJICUG_clean_linker_0, # of connection points: 2
#     Edge 95, Type (0, 0), BuildingBlock: OJICUG_clean_linker_0, # of connection points: 2
#     Edge 96, Type (0, 0), BuildingBlock: OJICUG_clean_linker_0, # of connection points: 2
#     Edge 97, Type (0, 0), BuildingBlock: OJICUG_clean_linker_0, # of connection points: 2
#     Edge 98, Type (0, 0), BuildingBlock: OJICUG_clean_linker_0, # of connection points: 2
#     Edge 99, Type (0, 0), BuildingBlock: OJICUG_clean_linker_0, # of connection points: 2
#     Edge 100, Type (0, 0), BuildingBlock: OJICUG_clean_linker_0, # of connection points: 2
#     Edge 101, Type (0, 0), BuildingBlock: OJICUG_clean_linker_0, # of connection points: 2
#     Edge 102, Type (0, 0), BuildingBlock: OJICUG_clean_linker_0, # of connection points: 2
#     Edge 103, Type (0, 0), BuildingBlock: OJICUG_clean_linker_0, # of connection points: 2
#     Edge 104, Type (0, 0), BuildingBlock: OJICUG_clean_linker_0, # of connection points: 2
#     Edge 105, Type (0, 0), BuildingBlock: OJICUG_clean_linker_0, # of connection points: 2
#     Edge 106, Type (0, 0), BuildingBlock: OJICUG_clean_linker_0, # of connection points: 2
#     Edge 107, Type (0, 0), BuildingBlock: OJICUG_clean_linker_0, # of connection points: 2
#     Edge 108, Type (0, 0), BuildingBlock: OJICUG_clean_linker_0, # of connection points: 2
#     Edge 109, Type (0, 0), BuildingBlock: OJICUG_clean_linker_0, # of connection points: 2
#     Edge 110, Type (0, 0), BuildingBlock: OJICUG_clean_linker_0, # of connection points: 2
#     Edge 111, Type (0, 0), BuildingBlock: OJICUG_clean_linker_0, # of connection points: 2
# Relax obj value: 0.093
# Max RMSD: 0.156
# Mean RMSD: 0.156
data_MOF--net-wgs--node1-BEQFEK_clean_sbu_0--edge1-OJICUG_clean_linker_0
_symmetry_space_group_name_H-M    P1
_symmetry_Int_Tables_number       1
_symmetry_cell_setting            triclinic
loop_
_symmetry_equiv_pos_as_xyz
'x, y, z'
_cell_length_a     21.690448
_cell_length_b     21.540765
_cell_length_c     122.88476
_cell_angle_alpha  89.953367
_cell_angle_beta   90.029406
_cell_angle_gamma 89.91947
loop_
_atom_site_label
_atom_site_type_symbol
_atom_site_fract_x
_atom_site_fract_y
_atom_site_fract_z
_atom_type_partial_charge
Co0 Co 0.32713 0.07315 0.32993 0.0
Co1 Co 0.33706 0.0673 0.30437 0.0
C2 C 0.42632 0.13949 0.31584 0.0
O3 O 0.39756 0.12652 0.32465 0.0
O4 O 0.4116 0.11493 0.30676 0.0
C5 C 0.37571 0.08242 0.35173 0.0
O6 O 0.42671 0.09856 0.34672 0.0
C7 C 0.34957 0.04356 0.28023 0.0
C8 C 0.25055 0.03182 0.2765 0.0
C9 C 0.30841 0.03215 0.27179 0.0
N10 N 0.31702 0.04959 0.28953 0.0
N11 N 0.25803 0.04213 0.28718 0.0
C12 C 0.41782 0.05141 0.27934 0.0
H13 H 0.43741 0.0692 0.28707 0.0
H14 H 0.43925 0.00592 0.27743 0.0
H15 H 0.42877 0.08361 0.27255 0.0
C16 C 0.32349 0.93514 0.32659 0.0
N17 N 0.32826 0.99423 0.32303 0.0
N18 N 0.33875 0.99351 0.31251 0.0
C19 C 0.34465 0.93467 0.30912 0.0
C20 C 0.33359 0.895 0.31783 0.0
C21 C 0.30463 0.91821 0.33792 0.0
H22 H 0.2819 0.9581 0.34197 0.0
H23 H 0.34623 0.90516 0.34266 0.0
H24 H 0.27264 0.87806 0.33783 0.0
O25 O 0.2527 0.12142 0.32654 0.0
O26 O 0.27191 0.12594 0.30891 0.0
H27 H 0.32506 0.91998 0.29224 0.0
H28 H 0.38493 0.8701 0.29764 0.0
C29 C 0.36499 0.91756 0.29787 0.0
H30 H 0.40022 0.95106 0.29503 0.0
H31 H 0.22263 0.0446 0.2929 0.0
O32 O 0.32902 0.06689 0.34611 0.0
C33 C 0.24181 0.14408 0.3172 0.0
Co34 Co 0.13536 0.08488 0.57803 0.0
Co35 Co 0.13967 0.07319 0.55252 0.0
C36 C 0.07502 0.17854 0.56482 0.0
O37 O 0.09407 0.1615 0.57414 0.0
O38 O 0.09004 0.14913 0.55618 0.0
C39 C 0.13709 0.11906 0.60076 0.0
O40 O 0.13491 0.17667 0.59726 0.0
C41 C 0.18852 0.10537 0.53048 0.0
C42 C 0.13791 0.03735 0.52045 0.0
C43 C 0.18042 0.08497 0.51987 0.0
N44 N 0.15227 0.07112 0.53707 0.0
N45 N 0.12189 0.03095 0.53096 0.0
C46 C 0.2271 0.15886 0.53415 0.0
H47 H 0.2282 0.16174 0.54316 0.0
H48 H 0.27452 0.15436 0.53086 0.0
H49 H 0.20733 0.20248 0.53082 0.0
C50 C 0.26924 0.07909 0.57542 0.0
N51 N 0.21222 0.07877 0.57117 0.0
N52 N 0.21521 0.06846 0.56063 0.0
C53 C 0.27474 0.05817 0.55796 0.0
C54 C 0.31116 0.06564 0.56723 0.0
C55 C 0.28267 0.09455 0.58706 0.0
H56 H 0.25192 0.13264 0.58977 0.0
H57 H 0.33129 0.10917 0.58818 0.0
H58 H 0.27332 0.05327 0.5922 0.0
O59 O 0.07751 0.01951 0.57372 0.0
O60 O 0.08337 0.00364 0.55598 0.0
H61 H 0.33141 0.99709 0.54838 0.0
H62 H 0.31586 0.07102 0.5423 0.0
C63 C 0.29538 0.03312 0.5472 0.0
H64 H 0.25611 0.01262 0.5427 0.0
H65 H 0.09043 -0.00134 0.53398 0.0
O66 O 0.14063 0.07492 0.59397 0.0
C67 C 0.05972 0.99142 0.5652 0.0
Co68 Co 0.15961 0.91196 0.8283 0.0
Co69 Co 0.15291 0.913 0.80267 0.0
C70 C 0.06051 0.84526 0.81447 0.0
O71 O 0.08799 0.85973 0.82332 0.0
O72 O 0.07746 0.86722 0.80532 0.0
C73 C 0.13452 0.87852 0.85013 0.0
O74 O 0.1134 0.82862 0.84527 0.0
C75 C 0.13592 0.93493 0.77866 0.0
C76 C 0.23418 0.93824 0.77393 0.0
C77 C 0.175 0.94296 0.76982 0.0
N78 N 0.17088 0.92627 0.78762 0.0
N79 N 0.22942 0.92829 0.78468 0.0
C80 C 0.06703 0.9327 0.77846 0.0
H81 H 0.04858 0.91702 0.78641 0.0
H82 H 0.04851 0.97956 0.77662 0.0
H83 H 0.0514 0.90104 0.77189 0.0
C84 C 0.16827 0.04876 0.82414 0.0
N85 N 0.16167 0.98939 0.82085 0.0
N86 N 0.15331 0.98879 0.81026 0.0
C87 C 0.15125 0.04737 0.80653 0.0
C88 C 0.1619 0.08776 0.81513 0.0
C89 C 0.18544 0.06688 0.83549 0.0
H90 H 0.20837 0.02767 0.83973 0.0
H91 H 0.14301 0.07937 0.84004 0.0
H92 H 0.21668 0.10762 0.83546 0.0
O93 O 0.23277 0.86058 0.8254 0.0
O94 O 0.21784 0.85499 0.80763 0.0
H95 H 0.17608 0.05637 0.78975 0.0
H96 H 0.12026 0.11314 0.79435 0.0
C97 C 0.13536 0.06406 0.79504 0.0
H98 H 0.09744 0.03387 0.79219 0.0
H99 H 0.26631 0.92305 0.79005 0.0
O100 O 0.15572 0.92273 0.84439 0.0
C101 C 0.24591 0.83741 0.81619 0.0
Co102 Co 0.3177 0.9148 0.07888 0.0
Co103 Co 0.31212 0.93601 0.05356 0.0
C104 C 0.37872 0.82733 0.06383 0.0
O105 O 0.36276 0.84352 0.0734 0.0
O106 O 0.36161 0.85766 0.05538 0.0
C107 C 0.34024 0.88041 0.10124 0.0
O108 O 0.36828 0.83148 0.09721 0.0
C109 C 0.27352 0.92042 0.03036 0.0
C110 C 0.28043 0.01824 0.02505 0.0
C111 C 0.26294 0.95976 0.02157 0.0
N112 N 0.29546 0.95473 0.03867 0.0
N113 N 0.30016 0.01288 0.03535 0.0
C114 C 0.2583 0.85295 0.03119 0.0
H115 H 0.25445 0.83876 0.03985 0.0
H116 H 0.2147 0.84283 0.02681 0.0
H117 H 0.29573 0.82558 0.02733 0.0
C118 C 0.18463 0.90524 0.07605 0.0
N119 N 0.24086 0.91828 0.07213 0.0
N120 N 0.23702 0.93206 0.06174 0.0
C121 C 0.177 0.932 0.05884 0.0
C122 C 0.14159 0.9138 0.06778 0.0
C123 C 0.17417 0.87929 0.0872 0.0
H124 H 0.21365 0.84943 0.08959 0.0
H125 H 0.13109 0.85162 0.08755 0.0
H126 H 0.17119 0.91804 0.09313 0.0
O127 O 0.37091 0.98562 0.07592 0.0
O128 O 0.36863 0.00268 0.05824 0.0
H129 H 0.10753 0.97547 0.04876 0.0
H130 H 0.15121 0.9144 0.04233 0.0
C131 C 0.15392 0.9542 0.04802 0.0
H132 H 0.18554 0.9895 0.04462 0.0
H133 H 0.31492 0.04947 0.04025 0.0
O134 O 0.31219 0.91755 0.09492 0.0
C135 C 0.3897 0.01497 0.06762 0.0
Co136 Co 0.33814 0.9161 0.1692 0.0
Co137 Co 0.33763 0.91816 0.19472 0.0
C138 C 0.43198 0.84821 0.18392 0.0
O139 O 0.40682 0.86381 0.17492 0.0
O140 O 0.41284 0.86932 0.19301 0.0
C141 C 0.37474 0.94624 0.14623 0.0
O142 O 0.41153 0.99115 0.14937 0.0
C143 C 0.34695 0.94589 0.21873 0.0
C144 C 0.24951 0.97179 0.22143 0.0
C145 C 0.30626 0.96862 0.22657 0.0
N146 N 0.31531 0.93756 0.20938 0.0
N147 N 0.25707 0.95224 0.21117 0.0
C148 C 0.41508 0.93717 0.21981 0.0
H149 H 0.43713 0.93441 0.21168 0.0
H150 H 0.43546 0.97579 0.22457 0.0
H151 H 0.42428 0.89313 0.22421 0.0
C152 C 0.33001 0.05352 0.17264 0.0
N153 N 0.33585 0.99426 0.17605 0.0
N154 N 0.34328 0.99374 0.18666 0.0
C155 C 0.34755 0.0525 0.19023 0.0
C156 C 0.33758 0.09285 0.18156 0.0
C157 C 0.30937 0.0712 0.16144 0.0
H158 H 0.29044 0.03034 0.15709 0.0
H159 H 0.34912 0.08983 0.1568 0.0
H160 H 0.27356 0.10798 0.16185 0.0
O161 O 0.26373 0.86973 0.17192 0.0
O162 O 0.27132 0.85987 0.18977 0.0
H163 H 0.32507 0.06674 0.20702 0.0
H164 H 0.38546 0.11682 0.20197 0.0
C165 C 0.36587 0.0693 0.2016 0.0
H166 H 0.401 0.03606 0.20458 0.0
H167 H 0.22278 0.951 0.20522 0.0
O168 O 0.34382 0.91574 0.15316 0.0
C169 C 0.24636 0.84519 0.18076 0.0
Co170 Co 0.31799 0.09957 0.41976 0.0
Co171 Co 0.32321 0.09459 0.44554 0.0
C172 C 0.38821 0.19239 0.43374 0.0
O173 O 0.37 0.17026 0.42466 0.0
O174 O 0.37103 0.16943 0.4428 0.0
C175 C 0.35932 0.10731 0.39857 0.0
O176 O 0.41052 0.11192 0.40423 0.0
C177 C 0.30354 0.11686 0.46942 0.0
C178 C 0.30351 0.01994 0.47528 0.0
C179 C 0.29702 0.0807 0.4787 0.0
N180 N 0.31319 0.07896 0.46085 0.0
N181 N 0.31384 0.02118 0.46449 0.0
C182 C 0.30285 0.18624 0.46888 0.0
H183 H 0.30682 0.20262 0.46035 0.0
H184 H 0.25976 0.20439 0.47257 0.0
H185 H 0.34193 0.20471 0.47372 0.0
C186 C 0.18393 0.09629 0.42435 0.0
N187 N 0.24329 0.0968 0.42756 0.0
N188 N 0.24574 0.09963 0.43825 0.0
C189 C 0.18805 0.10474 0.44215 0.0
C190 C 0.14654 0.10162 0.43352 0.0
C191 C 0.16417 0.08592 0.41283 0.0
H192 H 0.20103 0.06204 0.40819 0.0
H193 H 0.15479 0.13145 0.40893 0.0
H194 H 0.1216 0.05749 0.41249 0.0
O195 O 0.36774 0.02593 0.42223 0.0
O196 O 0.37784 0.02658 0.44016 0.0
H197 H 0.18256 0.07685 0.45886 0.0
H198 H 0.12541 0.13434 0.45493 0.0
C199 C 0.17368 0.11863 0.45381 0.0
H200 H 0.20408 0.15641 0.45661 0.0
H201 H 0.32007 0.98235 0.45955 0.0
O202 O 0.30832 0.10406 0.40367 0.0
C203 C 0.39205 0.00484 0.43086 0.0
Co204 Co 0.15352 0.09325 0.66913 0.0
Co205 Co 0.14146 0.08512 0.69439 0.0
C206 C 0.05344 0.15922 0.68313 0.0
O207 O 0.08342 0.14611 0.67447 0.0
O208 O 0.06671 0.13419 0.69226 0.0
C209 C 0.11578 0.06559 0.64659 0.0
O210 O 0.07439 0.02663 0.65034 0.0
C211 C 0.13034 0.05088 0.71817 0.0
C212 C 0.22838 0.02692 0.72083 0.0
C213 C 0.17123 0.02653 0.72581 0.0
N214 N 0.1623 0.06344 0.70901 0.0
N215 N 0.22087 0.05005 0.7108 0.0
C216 C 0.06191 0.05668 0.71919 0.0
H217 H 0.04039 0.06401 0.71109 0.0
H218 H 0.04259 0.01454 0.72311 0.0
H219 H 0.05092 0.09709 0.72443 0.0
C220 C 0.16028 0.95472 0.67182 0.0
N221 N 0.15214 0.01323 0.67549 0.0
N222 N 0.13992 0.01128 0.68595 0.0
C223 C 0.13591 0.95173 0.68914 0.0
C224 C 0.15022 0.91341 0.6804 0.0
C225 C 0.18426 0.93948 0.66073 0.0
H226 H 0.20503 0.98109 0.65689 0.0
H227 H 0.14569 0.92283 0.65557 0.0
H228 H 0.21929 0.90197 0.66121 0.0
O229 O 0.22848 0.13863 0.6727 0.0
O230 O 0.20756 0.14446 0.69023 0.0
H231 H 0.15439 0.93433 0.70599 0.0
H232 H 0.09682 0.88393 0.70013 0.0
C233 C 0.1151 0.93202 0.70023 0.0
H234 H 0.07837 0.96372 0.70311 0.0
H235 H 0.25548 0.05418 0.70495 0.0
O236 O 0.15127 0.09386 0.65311 0.0
C237 C 0.23883 0.16158 0.68201 0.0
Co238 Co 0.1731 0.9141 0.91854 0.0
Co239 Co 0.17125 0.91207 0.9442 0.0
C240 C 0.10266 0.81913 0.93288 0.0
O241 O 0.11881 0.84508 0.92396 0.0
O242 O 0.124 0.83673 0.94204 0.0
C243 C 0.13699 0.88728 0.89713 0.0
O244 O 0.08608 0.87343 0.90238 0.0
C245 C 0.1846 0.90615 0.96863 0.0
C246 C 0.19973 0.00624 0.97155 0.0
C247 C 0.19474 0.94966 0.9768 0.0
N248 N 0.1838 0.93619 0.95899 0.0
N249 N 0.19296 0.99585 0.96086 0.0
C250 C 0.17315 0.83817 0.97002 0.0
H251 H 0.14896 0.81906 0.96281 0.0
H252 H 0.21792 0.81376 0.97092 0.0
H253 H 0.14568 0.82959 0.97749 0.0
C254 C 0.30917 0.91503 0.92317 0.0
N255 N 0.24943 0.91428 0.92623 0.0
N256 N 0.2469 0.90781 0.93685 0.0
C257 C 0.30409 0.90128 0.94086 0.0
C258 C 0.34614 0.90679 0.93239 0.0
C259 C 0.3299 0.92725 0.91176 0.0
H260 H 0.2931 0.95118 0.90709 0.0
H261 H 0.34033 0.88239 0.90773 0.0
H262 H 0.37224 0.9561 0.91171 0.0
O263 O 0.1235 0.98987 0.92071 0.0
O264 O 0.11576 0.9765 0.93845 0.0
H265 H 0.31515 0.92764 0.95753 0.0
H266 H 0.36329 0.86313 0.95339 0.0
C267 C 0.31723 0.88502 0.95248 0.0
H268 H 0.28172 0.85228 0.95547 0.0
H269 H 0.19441 0.02968 0.95478 0.0
O270 O 0.18382 0.90518 0.90252 0.0
C271 C 0.09935 0.0041 0.92978 0.0
Co272 Co 0.67209 0.94803 0.66675 0.0
Co273 Co 0.6649 0.95401 0.69213 0.0
C274 C 0.58138 0.8731 0.68134 0.0
O275 O 0.60775 0.88871 0.67244 0.0
O276 O 0.59481 0.89915 0.69034 0.0
C277 C 0.61376 0.93787 0.64605 0.0
O278 O 0.56441 0.92907 0.65204 0.0
C279 C 0.65214 0.96626 0.71614 0.0
C280 C 0.73032 0.02936 0.71947 0.0
C281 C 0.68168 -0.00116 0.72438 0.0
N282 N 0.68177 0.97783 0.70675 0.0
N283 N 0.72871 0.01506 0.70883 0.0
C284 C 0.59512 0.92765 0.71701 0.0
H285 H 0.56288 0.93996 0.71033 0.0
H286 H 0.57193 0.93428 0.72497 0.0
H287 H 0.60769 0.87801 0.71603 0.0
C288 C 0.66253 0.08687 0.66991 0.0
N289 N 0.66443 0.02744 0.67343 0.0
N290 N 0.65356 0.02682 0.68392 0.0
C291 C 0.64005 0.08445 0.68732 0.0
C292 C 0.64738 0.12558 0.67868 0.0
C293 C 0.67865 0.10586 0.65856 0.0
H294 H 0.70307 0.06774 0.65428 0.0
H295 H 0.6357 0.11688 0.65404 0.0
H296 H 0.70813 0.14793 0.65865 0.0
O297 O 0.7506 0.90592 0.66982 0.0
O298 O 0.73476 0.90068 0.68755 0.0
H299 H 0.65083 0.10715 0.70423 0.0
H300 H 0.58319 0.13997 0.69797 0.0
C301 C 0.61336 0.09834 0.69831 0.0
H302 H 0.58622 0.05805 0.70125 0.0
H303 H 0.75897 0.0317 0.70292 0.0
O304 O 0.66447 0.95098 0.65069 0.0
C305 C 0.76435 0.88389 0.6791 0.0
Co306 Co 0.82432 0.94112 0.42058 0.0
Co307 Co 0.8152 0.93988 0.44613 0.0
C308 C 0.88598 0.84347 0.43402 0.0
O309 O 0.87326 0.86883 0.42492 0.0
O310 O 0.86372 0.8637 0.44297 0.0
C311 C 0.82652 0.903 0.39798 0.0
O312 O 0.83164 0.84601 0.40169 0.0
C313 C 0.77381 0.91579 0.469 0.0
C314 C 0.80416 0.00393 0.47645 0.0
C315 C 0.7733 0.94922 0.47869 0.0
N316 N 0.80272 0.95021 0.46139 0.0
N317 N 0.82166 0.00216 0.46601 0.0
C318 C 0.74388 0.85464 0.46677 0.0
H319 H 0.74049 0.84631 0.45788 0.0
H320 H 0.69745 0.85301 0.47056 0.0
H321 H 0.77216 0.81717 0.47046 0.0
C322 C 0.68902 0.93207 0.42295 0.0
N323 N 0.74568 0.93822 0.42725 0.0
N324 N 0.74113 0.9439 0.43787 0.0
C325 C 0.68098 0.94624 0.4406 0.0
C326 C 0.64559 0.93749 0.43124 0.0
C327 C 0.67786 0.9164 0.41125 0.0
H328 H 0.71317 0.88285 0.40844 0.0
H329 H 0.63164 0.89554 0.41002 0.0
H330 H 0.68206 0.9591 0.40624 0.0
O331 O 0.87493 0.01389 0.42456 0.0
O332 O 0.87173 0.00638 0.44245 0.0
H333 H 0.61611 0.994 0.45093 0.0
H334 H 0.64636 0.92273 0.45637 0.0
C335 C 0.65814 0.96483 0.45162 0.0
H336 H 0.69375 0.99162 0.45604 0.0
H337 H 0.84479 0.03768 0.46194 0.0
O338 O 0.81978 0.9477 0.40458 0.0
C339 C 0.89297 0.03119 0.43389 0.0
Co340 Co 0.80795 0.06503 0.16958 0.0
Co341 Co 0.81865 0.05774 0.1947 0.0
C342 C 0.90061 0.13891 0.18404 0.0
O343 O 0.87244 0.1238 0.17528 0.0
O344 O 0.88906 0.11224 0.19307 0.0
C345 C 0.84972 0.04394 0.14698 0.0
O346 O 0.89303 0.00625 0.15049 0.0
C347 C 0.83264 0.03556 0.21853 0.0
C348 C 0.74876 0.97935 0.22129 0.0
C349 C 0.80083 0.00218 0.22639 0.0
N350 N 0.80089 0.03177 0.20914 0.0
N351 N 0.75064 -0.00137 0.21091 0.0
C352 C 0.89394 0.06656 0.21967 0.0
H353 H 0.92068 0.06191 0.21202 0.0
H354 H 0.92049 0.04647 0.22655 0.0
H355 H 0.88657 0.11676 0.22123 0.0
C356 C 0.81899 0.92552 0.17232 0.0
N357 N 0.81743 0.98492 0.17585 0.0
N358 N 0.82988 0.98546 0.18629 0.0
C359 C 0.84434 0.92789 0.18961 0.0
C360 C 0.83612 0.88695 0.181 0.0
C361 C 0.79901 0.906 0.16119 0.0
H362 H 0.77373 0.94416 0.15706 0.0
H363 H 0.84019 0.89376 0.15629 0.0
H364 H 0.76905 0.86436 0.16169 0.0
O365 O 0.72885 0.10381 0.17288 0.0
O366 O 0.74913 0.11264 0.19037 0.0
H367 H 0.83428 0.90599 0.20655 0.0
H368 H 0.90098 0.8716 0.20021 0.0
C369 C 0.87159 0.91378 0.20055 0.0
H370 H 0.89975 0.9536 0.20336 0.0
H371 H 0.71837 0.9878 0.20491 0.0
O372 O 0.81218 0.06834 0.15362 0.0
C373 C 0.71753 0.12795 0.18206 0.0
Co374 Co 0.66579 0.05576 0.91918 0.0
Co375 Co 0.67746 0.07622 0.94418 0.0
C376 C 0.60114 0.1601 0.9324 0.0
O377 O 0.61264 0.12788 0.92389 0.0
O378 O 0.62771 0.14928 0.94149 0.0
C379 C 0.68716 0.08845 0.89643 0.0
O380 O 0.717 0.13758 0.89993 0.0
C381 C 0.70666 0.09561 0.96797 0.0
C382 C 0.75153 0.00478 0.97086 0.0
C383 C 0.73744 0.06066 0.9758 0.0
N384 N 0.70368 0.06166 0.95876 0.0
N385 N 0.72992 0.00734 0.96065 0.0
C386 C 0.68465 0.16111 0.96897 0.0
H387 H 0.68165 0.18331 0.96084 0.0
H388 H 0.71586 0.18805 0.97435 0.0
H389 H 0.63803 0.16109 0.97269 0.0
C390 C 0.80403 0.05851 0.92115 0.0
N391 N 0.74604 0.06206 0.92509 0.0
N392 N 0.7485 0.07832 0.93535 0.0
C393 C 0.80714 0.09024 0.93812 0.0
C394 C 0.84525 0.07638 0.92933 0.0
C395 C 0.81933 0.0332 0.91014 0.0
H396 H 0.77982 0.00672 0.9068 0.0
H397 H 0.83004 0.07221 0.90456 0.0
H398 H 0.8603 0.0024 0.9106 0.0
O399 O 0.62254 0.9811 0.92385 0.0
O400 O 0.61871 0.00783 0.94115 0.0
H401 H 0.83071 0.0842 0.95503 0.0
H402 H 0.86882 0.14632 0.94782 0.0
C403 C 0.82499 0.12022 0.94866 0.0
H404 H 0.78808 0.15249 0.95132 0.0
H405 H 0.73465 0.9725 0.95481 0.0
O406 O 0.66485 0.05026 0.90322 0.0
C407 C 0.60065 0.97383 0.93332 0.0
Co408 Co 0.69371 0.05691 0.82807 0.0
Co409 Co 0.6778 0.04771 0.80299 0.0
C410 C 0.5964 0.12884 0.81447 0.0
O411 O 0.62554 0.11475 0.8232 0.0
O412 O 0.60801 0.10222 0.80543 0.0
C413 C 0.65424 0.04185 0.85057 0.0
O414 O 0.60232 0.01925 0.84675 0.0
C415 C 0.65861 0.03492 0.77909 0.0
C416 C 0.73076 0.96527 0.77544 0.0
C417 C 0.68389 -0.00037 0.77075 0.0
N418 N 0.6889 0.02118 0.78834 0.0
N419 N 0.73225 0.98001 0.78606 0.0
C420 C 0.60526 0.07878 0.77845 0.0
H421 H 0.57242 0.06869 0.78514 0.0
H422 H 0.58112 0.07527 0.77052 0.0
H423 H 0.62222 0.12692 0.7796 0.0
C424 C 0.68214 0.91788 0.82584 0.0
N425 N 0.68401 0.9766 0.82199 0.0
N426 N 0.66936 0.97591 0.81164 0.0
C427 C 0.65271 0.91826 0.80874 0.0
C428 C 0.66228 0.87827 0.81749 0.0
C429 C 0.7028 0.90032 0.83704 0.0
H430 H 0.73067 0.93808 0.8407 0.0
H431 H 0.66176 0.89214 0.84223 0.0
H432 H 0.73061 0.85707 0.83681 0.0
O433 O 0.77039 0.09757 0.82386 0.0
O434 O 0.74886 0.1028 0.80635 0.0
H435 H 0.65376 0.89206 0.79187 0.0
H436 H 0.588 0.86422 0.79934 0.0
C437 C 0.61995 0.904 0.79828 0.0
H438 H 0.59352 0.94525 0.79551 0.0
H439 H 0.76232 0.96126 0.79182 0.0
O440 O 0.69683 0.05709 0.84404 0.0
C441 C 0.78097 0.11973 0.8145 0.0
Co442 Co 0.63963 0.8806 0.57836 0.0
Co443 Co 0.6319 0.903 0.5531 0.0
C444 C 0.57231 0.79338 0.56484 0.0
O445 O 0.59509 0.80651 0.57409 0.0
O446 O 0.58402 0.82608 0.55641 0.0
C447 C 0.60609 0.88131 0.60007 0.0
O448 O 0.55244 0.87415 0.59526 0.0
C449 C 0.66425 0.89208 0.52931 0.0
C450 C 0.60223 0.96515 0.52302 0.0
C451 C 0.6474 0.92354 0.51983 0.0
N452 N 0.63166 0.91592 0.53768 0.0
N453 N 0.59372 0.95839 0.53374 0.0
C454 C 0.71093 0.84141 0.5305 0.0
H455 H 0.72007 0.83141 0.53921 0.0
H456 H 0.75425 0.85425 0.52626 0.0
H457 H 0.69287 0.79859 0.52664 0.0
C458 C 0.77181 0.88605 0.57362 0.0
N459 N 0.71303 0.88854 0.57024 0.0
N460 N 0.71129 0.90358 0.55986 0.0
C461 C 0.76934 0.91571 0.55651 0.0
C462 C 0.80998 0.90378 0.56508 0.0
C463 C 0.79014 0.86506 0.58478 0.0
H464 H 0.75852 0.82794 0.5876 0.0
H465 H 0.83819 0.84731 0.58488 0.0
H466 H 0.78611 0.90463 0.59051 0.0
O467 O 0.57999 0.9492 0.57618 0.0
O468 O 0.58069 0.97081 0.55862 0.0
H469 H 0.81843 0.98563 0.54755 0.0
H470 H 0.80597 0.91462 0.54035 0.0
C471 C 0.78455 0.948 0.54606 0.0
H472 H 0.74256 0.96815 0.54232 0.0
H473 H 0.56284 0.98417 0.53841 0.0
O474 O 0.65459 0.88166 0.59425 0.0
C475 C 0.56043 0.98062 0.56813 0.0
Co476 Co 0.80445 0.92747 0.32974 0.0
Co477 Co 0.8139 0.9318 0.3045 0.0
C478 C 0.89941 0.85484 0.31585 0.0
O479 O 0.87212 0.87038 0.32466 0.0
O480 O 0.88509 0.87904 0.30672 0.0
C481 C 0.84612 0.95352 0.35207 0.0
O482 O 0.89102 0.98743 0.34807 0.0
C483 C 0.83041 0.94478 0.2806 0.0
C484 C 0.75001 0.00463 0.27692 0.0
C485 C 0.80103 0.97675 0.2723 0.0
N486 N 0.79852 0.95447 0.28983 0.0
N487 N 0.75024 0.98961 0.28752 0.0
C488 C 0.88889 0.9082 0.27996 0.0
H489 H 0.92249 0.92679 0.28594 0.0
H490 H 0.90902 0.90983 0.27166 0.0
H491 H 0.87936 0.85929 0.28225 0.0
C492 C 0.81203 0.06664 0.32636 0.0
N493 N 0.81102 0.00687 0.32302 0.0
N494 N 0.82282 0.00543 0.31256 0.0
C495 C 0.83633 0.06281 0.30903 0.0
C496 C 0.82813 0.10445 0.31753 0.0
C497 C 0.79311 0.08712 0.33749 0.0
H498 H 0.76767 0.04959 0.34173 0.0
H499 H 0.83482 0.09898 0.34228 0.0
H500 H 0.76362 0.12917 0.33698 0.0
O501 O 0.72762 0.88385 0.32638 0.0
O502 O 0.74422 0.87765 0.30872 0.0
H503 H 0.82631 0.08424 0.29206 0.0
H504 H 0.89324 0.11804 0.29835 0.0
C505 C 0.86357 0.07613 0.29807 0.0
H506 H 0.89143 0.03593 0.29529 0.0
H507 H 0.71814 0.00456 0.29328 0.0
O508 O 0.80708 0.92871 0.34575 0.0
C509 C 0.71434 0.86133 0.31715 0.0
Co510 Co 0.81864 0.07077 0.0791 0.0
Co511 Co 0.81777 0.05578 0.0537 0.0
C512 C 0.88904 0.15679 0.06514 0.0
O513 O 0.87011 0.13938 0.07447 0.0
O514 O 0.87105 0.13032 0.05639 0.0
C515 C 0.82414 0.10871 0.10175 0.0
O516 O 0.83885 0.16436 0.09824 0.0
C517 C 0.78963 0.08184 0.03037 0.0
C518 C 0.81398 0.99065 0.02333 0.0
C519 C 0.79418 0.04972 0.02061 0.0
N520 N 0.80649 0.0432 0.03848 0.0
N521 N 0.82036 0.98874 0.03418 0.0
C522 C 0.7735 0.14871 0.03189 0.0
H523 H 0.77874 0.16243 0.04055 0.0
H524 H 0.72514 0.15664 0.0293 0.0
H525 H 0.80354 0.17787 0.02667 0.0
C526 C 0.68635 0.08418 0.07558 0.0
N527 N 0.74323 0.07291 0.0718 0.0
N528 N 0.74097 0.06168 0.0613 0.0
C529 C 0.68135 0.06182 0.05815 0.0
C530 C 0.64444 0.0767 0.06711 0.0
C531 C 0.67398 0.10625 0.08692 0.0
H532 H 0.7112 0.13819 0.08954 0.0
H533 H 0.6291 0.13083 0.08747 0.0
H534 H 0.67398 0.06589 0.09254 0.0
O535 O 0.86755 0.99684 0.07624 0.0
O536 O 0.86967 0.98514 0.05843 0.0
H537 H 0.61504 0.01889 0.04742 0.0
H538 H 0.65571 0.0845 0.04183 0.0
C539 C 0.66029 0.04268 0.04705 0.0
H540 H 0.69418 0.01074 0.04329 0.0
H541 H 0.83539 0.95036 0.03865 0.0
O542 O 0.8102 0.06647 0.09501 0.0
C543 C 0.88731 0.96895 0.06786 0.0
Co544 Co 0.81307 0.55353 0.82886 0.0
Co545 Co 0.81885 0.55057 0.80344 0.0
C546 C 0.90414 0.62893 0.81455 0.0
O547 O 0.87861 0.61222 0.82347 0.0
O548 O 0.88924 0.60474 0.80545 0.0
C549 C 0.8177 0.60036 0.84977 0.0
O550 O 0.81384 0.6513 0.84392 0.0
C551 C 0.83072 0.54018 0.77936 0.0
C552 C 0.75249 0.47709 0.77606 0.0
C553 C 0.80096 0.50778 0.77113 0.0
N554 N 0.80141 0.52826 0.78878 0.0
N555 N 0.75439 0.49112 0.7867 0.0
C556 C 0.88771 0.57881 0.77847 0.0
H557 H 0.92039 0.56591 0.78505 0.0
H558 H 0.91031 0.57287 0.77044 0.0
H559 H 0.87526 0.62837 0.77962 0.0
C560 C 0.82341 0.4152 0.82518 0.0
N561 N 0.82013 0.47495 0.82187 0.0
N562 N 0.83022 0.4769 0.81136 0.0
C563 C 0.8445 0.41991 0.80773 0.0
C564 C 0.83869 0.37782 0.81624 0.0
C565 C 0.80894 0.3946 0.83652 0.0
H566 H 0.78355 0.43143 0.84096 0.0
H567 H 0.85264 0.38475 0.84089 0.0
H568 H 0.78099 0.35149 0.83638 0.0
O569 O 0.73501 0.59705 0.82593 0.0
O570 O 0.74936 0.60352 0.80819 0.0
H571 H 0.83327 0.39864 0.79078 0.0
H572 H 0.90186 0.36657 0.79682 0.0
C573 C 0.8709 0.40764 0.79666 0.0
H574 H 0.89716 0.4487 0.7938 0.0
H575 H 0.72439 0.47418 0.79262 0.0
O576 O 0.81984 0.54825 0.84491 0.0
C577 C 0.72057 0.61982 0.81674 0.0
Co578 Co 0.65618 0.56456 0.07763 0.0
Co579 Co 0.65947 0.56936 0.0524 0.0
C580 C 0.58269 0.65626 0.06271 0.0
O581 O 0.59756 0.62899 0.07162 0.0
O582 O 0.60853 0.64274 0.0537 0.0
C583 C 0.67994 0.60475 0.1005 0.0
O584 O 0.71269 0.65204 0.09703 0.0
C585 C 0.68852 0.57737 0.02861 0.0
C586 C 0.72386 0.48178 0.02648 0.0
C587 C 0.71621 0.53778 0.0211 0.0
N588 N 0.68171 0.546 0.03803 0.0
N589 N 0.702 0.48878 0.0366 0.0
C590 C 0.67377 0.64476 0.02721 0.0
H591 H 0.66755 0.66763 0.03522 0.0
H592 H 0.71088 0.66827 0.02256 0.0
H593 H 0.63013 0.64937 0.02257 0.0
C594 C 0.79305 0.57231 0.07463 0.0
N595 N 0.73415 0.57135 0.07111 0.0
N596 N 0.7333 0.58022 0.06055 0.0
C597 C 0.7908 0.59225 0.05711 0.0
C598 C 0.83147 0.58587 0.06581 0.0
C599 C 0.81196 0.5539 0.08589 0.0
H600 H 0.77404 0.52882 0.09004 0.0
H601 H 0.82342 0.59613 0.09063 0.0
H602 H 0.8534 0.52367 0.08563 0.0
O603 O 0.62008 0.48438 0.07471 0.0
O604 O 0.60171 0.50273 0.05738 0.0
H605 H 0.80791 0.5758 0.04019 0.0
H606 H 0.84955 0.64118 0.04576 0.0
C607 C 0.80525 0.61548 0.04591 0.0
H608 H 0.7681 0.64707 0.04316 0.0
H609 H 0.70313 0.45514 0.04271 0.0
O610 O 0.6563 0.56736 0.09372 0.0
C611 C 0.59089 0.47248 0.06606 0.0
Co612 Co 0.68179 0.4263 0.32917 0.0
Co613 Co 0.6662 0.43452 0.30412 0.0
C614 C 0.58454 0.35449 0.31553 0.0
O615 O 0.61385 0.36875 0.32423 0.0
O616 O 0.596 0.38076 0.30644 0.0
C617 C 0.64258 0.44748 0.35151 0.0
O618 O 0.59293 0.47411 0.34753 0.0
C619 C 0.64927 0.4508 0.28022 0.0
C620 C 0.72416 0.51825 0.27714 0.0
C621 C 0.67629 0.4869 0.27217 0.0
N622 N 0.67946 0.46139 0.28959 0.0
N623 N 0.72447 0.50117 0.28764 0.0
C624 C 0.59431 0.40939 0.27921 0.0
H625 H 0.56148 0.41938 0.28591 0.0
H626 H 0.57093 0.41559 0.27125 0.0
H627 H 0.60936 0.36038 0.28008 0.0
C628 C 0.67131 0.56537 0.32666 0.0
N629 N 0.67243 0.50634 0.32297 0.0
N630 N 0.65745 0.50647 0.31265 0.0
C631 C 0.64145 0.56412 0.3096 0.0
C632 C 0.65165 0.6045 0.31823 0.0
C633 C 0.69307 0.58381 0.33775 0.0
H634 H 0.7208 0.54605 0.34147 0.0
H635 H 0.65256 0.59325 0.34301 0.0
H636 H 0.72129 0.62666 0.33729 0.0
O637 O 0.75865 0.38522 0.32516 0.0
O638 O 0.73665 0.37905 0.30768 0.0
H639 H 0.64368 0.58948 0.29268 0.0
H640 H 0.57808 0.61889 0.3 0.0
C641 C 0.6094 0.57844 0.29907 0.0
H642 H 0.58246 0.53755 0.29633 0.0
H643 H 0.75469 0.51768 0.29358 0.0
O644 O 0.68373 0.42714 0.34513 0.0
C645 C 0.76892 0.36243 0.31583 0.0
Co646 Co 0.86948 0.42862 0.57663 0.0
Co647 Co 0.86774 0.41252 0.55092 0.0
C648 C 0.84724 0.31533 0.56511 0.0
O649 O 0.83336 0.34521 0.5737 0.0
O650 O 0.82738 0.33661 0.55613 0.0
C651 C 0.82867 0.42258 0.59893 0.0
O652 O 0.78781 0.38297 0.5952 0.0
C653 C 0.8297 0.39993 0.52768 0.0
C654 C 0.91103 0.4425 0.51988 0.0
C655 C 0.85351 0.41768 0.51759 0.0
N656 N 0.8707 0.41568 0.53544 0.0
N657 N 0.91968 0.43968 0.53067 0.0
C658 C 0.76783 0.37266 0.53009 0.0
H659 H 0.7589 0.37243 0.53898 0.0
H660 H 0.73119 0.39935 0.52585 0.0
H661 H 0.76652 0.32405 0.52713 0.0
C662 C 0.7848 0.52891 0.57128 0.0
N663 N 0.82833 0.48869 0.568 0.0
N664 N 0.82503 0.48189 0.55735 0.0
C665 C 0.77786 0.51711 0.55365 0.0
C666 C 0.74853 0.54546 0.56242 0.0
C667 C 0.77178 0.54351 0.58296 0.0
H668 H 0.81548 0.55494 0.5872 0.0
H669 H 0.75126 0.50242 0.58699 0.0
H670 H 0.73935 0.58323 0.58369 0.0
O671 O 0.95684 0.42787 0.57309 0.0
O672 O 0.95636 0.41059 0.5553 0.0
H673 H 0.79172 0.5073 0.53646 0.0
H674 H 0.73043 0.55892 0.5401 0.0
C675 C 0.75362 0.51478 0.54227 0.0
H676 H 0.71928 0.47693 0.54161 0.0
H677 H 0.95826 0.45614 0.53481 0.0
O678 O 0.86604 0.44801 0.59236 0.0
C679 C 0.98507 0.41826 0.56421 0.0
Co680 Co 0.80211 0.44747 0.66734 0.0
Co681 Co 0.81076 0.45566 0.6926 0.0
C682 C 0.89599 0.37555 0.6817 0.0
O683 O 0.86956 0.39 0.67271 0.0
O684 O 0.88143 0.40166 0.69065 0.0
C685 C 0.84754 0.46659 0.64519 0.0
O686 O 0.89892 0.48713 0.64955 0.0
C687 C 0.82652 0.46919 0.71653 0.0
C688 C 0.75064 0.53507 0.71997 0.0
C689 C 0.79893 0.50335 0.72479 0.0
N690 N 0.79619 0.48107 0.70721 0.0
N691 N 0.75061 0.51996 0.70937 0.0
C692 C 0.88233 0.4286 0.71731 0.0
H693 H 0.91529 0.44111 0.71076 0.0
H694 H 0.90527 0.43307 0.72534 0.0
H695 H 0.86845 0.3796 0.716 0.0
C696 C 0.81013 0.58647 0.66997 0.0
N697 N 0.80861 0.5275 0.67371 0.0
N698 N 0.8205 0.52799 0.68416 0.0
C699 C 0.8349 0.58589 0.68729 0.0
C700 C 0.82679 0.62608 0.67852 0.0
C701 C 0.79186 0.60424 0.65864 0.0
H702 H 0.76512 0.5664 0.65476 0.0
H703 H 0.83397 0.6129 0.65375 0.0
H704 H 0.76365 0.64725 0.65872 0.0
O705 O 0.72518 0.40449 0.67084 0.0
O706 O 0.7408 0.40061 0.68858 0.0
H707 H 0.82783 0.61094 0.70416 0.0
H708 H 0.89484 0.64142 0.69738 0.0
C709 C 0.86396 0.60054 0.69806 0.0
H710 H 0.89088 0.56003 0.70101 0.0
H711 H 0.72015 0.53713 0.70352 0.0
O712 O 0.80337 0.45015 0.65131 0.0
C713 C 0.71157 0.38296 0.68014 0.0
Co714 Co 0.8177 0.56486 0.91846 0.0
Co715 Co 0.81577 0.57353 0.94388 0.0
C716 C 0.88755 0.66244 0.93239 0.0
O717 O 0.87316 0.63439 0.92355 0.0
O718 O 0.86353 0.64778 0.9415 0.0
C719 C 0.81467 0.61681 0.89676 0.0
O720 O 0.82582 0.66987 0.90164 0.0
C721 C 0.79551 0.58455 0.96796 0.0
C722 C 0.78407 0.48465 0.97163 0.0
C723 C 0.78476 0.54282 0.97634 0.0
N724 N 0.80069 0.55208 0.95864 0.0
N725 N 0.79367 0.49256 0.96094 0.0
C726 C 0.80346 0.65323 0.96893 0.0
H727 H 0.81674 0.67391 0.96101 0.0
H728 H 0.75964 0.67446 0.97174 0.0
H729 H 0.83917 0.66356 0.97514 0.0
C730 C 0.68078 0.56684 0.92242 0.0
N731 N 0.74016 0.56764 0.92571 0.0
N732 N 0.74148 0.5775 0.93624 0.0
C733 C 0.68406 0.58679 0.93992 0.0
C734 C 0.6429 0.57891 0.93138 0.0
C735 C 0.66117 0.55102 0.91108 0.0
H736 H 0.69809 0.52502 0.90682 0.0
H737 H 0.65183 0.59457 0.90654 0.0
H738 H 0.61845 0.52275 0.91118 0.0
O739 O 0.86567 0.48885 0.92135 0.0
O740 O 0.87217 0.50818 0.9389 0.0
H741 H 0.67145 0.56833 0.9569 0.0
H742 H 0.62402 0.63093 0.9517 0.0
C743 C 0.67 0.60843 0.95123 0.0
H744 H 0.70537 0.64238 0.95381 0.0
H745 H 0.79555 0.45715 0.95516 0.0
O746 O 0.8078 0.56808 0.90245 0.0
C747 C 0.88941 0.47789 0.93059 0.0
Co748 Co 0.68952 0.56481 0.16896 0.0
Co749 Co 0.6773 0.55595 0.19418 0.0
C750 C 0.59382 0.63587 0.18307 0.0
O751 O 0.62176 0.62206 0.1742 0.0
O752 O 0.60696 0.60939 0.19206 0.0
C753 C 0.64733 0.55417 0.14637 0.0
O754 O 0.59416 0.53489 0.1502 0.0
C755 C 0.65715 0.53778 0.21789 0.0
C756 C 0.73485 0.47428 0.22148 0.0
C757 C 0.68409 0.50277 0.22611 0.0
N758 N 0.69023 0.52941 0.20876 0.0
N759 N 0.73685 0.49194 0.211 0.0
C760 C 0.5992 0.57533 0.21847 0.0
H761 H 0.56928 0.56414 0.21141 0.0
H762 H 0.57372 0.5665 0.22614 0.0
H763 H 0.61108 0.62533 0.21794 0.0
C764 C 0.6784 0.42536 0.17154 0.0
N765 N 0.68096 0.48446 0.17521 0.0
N766 N 0.66798 0.48445 0.18563 0.0
C767 C 0.65189 0.42712 0.18877 0.0
C768 C 0.66022 0.38651 0.18013 0.0
C769 C 0.69596 0.40674 0.16024 0.0
H770 H 0.72231 0.44436 0.1562 0.0
H771 H 0.65353 0.39757 0.15546 0.0
H772 H 0.7241 0.36368 0.1604 0.0
O773 O 0.76626 0.60658 0.17293 0.0
O774 O 0.74735 0.61119 0.19054 0.0
H775 H 0.65539 0.40355 0.20576 0.0
H776 H 0.58967 0.37271 0.19865 0.0
C777 C 0.62059 0.41351 0.19939 0.0
H778 H 0.59319 0.45435 0.20203 0.0
H779 H 0.76923 0.47721 0.20528 0.0
O780 O 0.69125 0.56551 0.15288 0.0
C781 C 0.77806 0.62857 0.18226 0.0
Co782 Co 0.66145 0.4607 0.41998 0.0
Co783 Co 0.67178 0.44286 0.44501 0.0
C784 C 0.59505 0.35937 0.43371 0.0
O785 O 0.60671 0.39082 0.4251 0.0
O786 O 0.6222 0.37017 0.44271 0.0
C787 C 0.6787 0.41883 0.39774 0.0
O788 O 0.70333 0.36824 0.40186 0.0
C789 C 0.70597 0.42439 0.46848 0.0
C790 C 0.72985 0.52182 0.47221 0.0
C791 C 0.73017 0.46254 0.47658 0.0
N792 N 0.69391 0.45987 0.45968 0.0
N793 N 0.707 0.51806 0.4621 0.0
C794 C 0.6985 0.35539 0.46877 0.0
H795 H 0.687 0.33706 0.46059 0.0
H796 H 0.74131 0.33322 0.47186 0.0
H797 H 0.66034 0.34335 0.47439 0.0
C798 C 0.79924 0.45311 0.422 0.0
N799 N 0.74133 0.4532 0.42601 0.0
N800 N 0.74335 0.4385 0.43636 0.0
C801 C 0.80143 0.42404 0.43912 0.0
C802 C 0.83978 0.43453 0.43024 0.0
C803 C 0.81511 0.47448 0.41076 0.0
H804 H 0.77677 0.50213 0.40725 0.0
H805 H 0.82336 0.43342 0.40551 0.0
H806 H 0.85763 0.50305 0.41088 0.0
O807 O 0.61974 0.53749 0.42403 0.0
O808 O 0.61411 0.5105 0.44127 0.0
H809 H 0.82072 0.42905 0.45619 0.0
H810 H 0.86266 0.36848 0.44912 0.0
C811 C 0.81806 0.39356 0.44968 0.0
H812 H 0.78189 0.35963 0.45185 0.0
H813 H 0.70287 0.55496 0.45665 0.0
O814 O 0.66104 0.46195 0.40402 0.0
C815 C 0.59679 0.5447 0.43342 0.0
Co816 Co 0.15621 0.41445 0.16965 0.0
Co817 Co 0.16109 0.41986 0.19534 0.0
C818 C 0.06202 0.35116 0.18302 0.0
O819 O 0.08308 0.36683 0.17374 0.0
O820 O 0.08652 0.37029 0.19184 0.0
C821 C 0.11812 0.42314 0.14683 0.0
O822 O 0.06136 0.42894 0.15041 0.0
C823 C 0.13025 0.462 0.21787 0.0
C824 C 0.20216 0.41182 0.22711 0.0
C825 C 0.15238 0.45128 0.22829 0.0
N826 N 0.16549 0.42991 0.2108 0.0
N827 N 0.2081 0.39985 0.21643 0.0
C828 C 0.07462 0.49907 0.2148 0.0
H829 H 0.07029 0.50265 0.20582 0.0
H830 H 0.07735 0.54601 0.21849 0.0
H831 H 0.03294 0.47616 0.21815 0.0
C832 C 0.15461 0.55102 0.17276 0.0
N833 N 0.15685 0.49294 0.17676 0.0
N834 N 0.16468 0.49546 0.18738 0.0
C835 C 0.17216 0.55519 0.19036 0.0
C836 C 0.16483 0.59283 0.18122 0.0
C837 C 0.13969 0.56548 0.16114 0.0
H838 H 0.10226 0.53458 0.15832 0.0
H839 H 0.12436 0.61428 0.16011 0.0
H840 H 0.18092 0.55668 0.15602 0.0
O841 O 0.2269 0.36042 0.17362 0.0
O842 O 0.22963 0.36537 0.1916 0.0
H843 H 0.22919 0.61314 0.20049 0.0
H844 H 0.15633 0.59196 0.20629 0.0
C845 C 0.19534 0.57483 0.20131 0.0
H846 H 0.21785 0.53549 0.20556 0.0
H847 H 0.24145 0.37104 0.21299 0.0
O848 O 0.16253 0.41964 0.15354 0.0
C849 C 0.24962 0.34351 0.18268 0.0
Co850 Co 0.32215 0.42469 0.91914 0.0
Co851 Co 0.31625 0.40865 0.94445 0.0
C852 C 0.38988 0.32272 0.93202 0.0
O853 O 0.37671 0.35275 0.92334 0.0
O854 O 0.36528 0.33603 0.94114 0.0
C855 C 0.31407 0.38734 0.8964 0.0
O856 O 0.30455 0.33061 0.89995 0.0
C857 C 0.2935 0.37904 0.96797 0.0
C858 C 0.28777 0.47474 0.97436 0.0
C859 C 0.28518 0.4131 0.97741 0.0
N860 N 0.30117 0.41911 0.95965 0.0
N861 N 0.29802 0.47611 0.96359 0.0
C862 C 0.29526 0.30991 0.96702 0.0
H863 H 0.30147 0.29541 0.95843 0.0
H864 H 0.25186 0.29007 0.9703 0.0
H865 H 0.33376 0.2915 0.97203 0.0
C866 C 0.18495 0.42204 0.92209 0.0
N867 N 0.24338 0.41958 0.92584 0.0
N868 N 0.24221 0.40813 0.93634 0.0
C869 C 0.18364 0.39936 0.93952 0.0
C870 C 0.14467 0.40919 0.93067 0.0
C871 C 0.16854 0.44093 0.91073 0.0
H872 H 0.20673 0.46758 0.90699 0.0
H873 H 0.16021 0.3987 0.90578 0.0
H874 H 0.12608 0.46972 0.91067 0.0
O875 O 0.36744 0.49917 0.92332 0.0
O876 O 0.37249 0.47767 0.94084 0.0
H877 H 0.16959 0.41529 0.95653 0.0
H878 H 0.11924 0.35672 0.95076 0.0
C879 C 0.16641 0.37654 0.95061 0.0
H880 H 0.19914 0.33985 0.95313 0.0
H881 H 0.30235 0.51617 0.95888 0.0
O882 O 0.31904 0.4315 0.90316 0.0
C883 C 0.38949 0.50966 0.93268 0.0
Co884 Co 0.3258 0.58893 0.66833 0.0
Co885 Co 0.33619 0.58638 0.69387 0.0
C886 C 0.42662 0.65546 0.68182 0.0
O887 O 0.39806 0.64124 0.67304 0.0
O888 O 0.41107 0.63295 0.69103 0.0
C889 C 0.36501 0.55429 0.64621 0.0
O890 O 0.41424 0.52919 0.65063 0.0
C891 C 0.35405 0.55826 0.71772 0.0
C892 C 0.25682 0.53717 0.72163 0.0
C893 C 0.31569 0.53663 0.72597 0.0
N894 N 0.31904 0.56935 0.70883 0.0
N895 N 0.261 0.55788 0.71137 0.0
C896 C 0.42282 0.56256 0.71795 0.0
H897 H 0.44157 0.56768 0.7096 0.0
H898 H 0.44267 0.52077 0.72193 0.0
H899 H 0.43642 0.60367 0.72282 0.0
C900 C 0.31743 0.4518 0.67217 0.0
N901 N 0.32488 0.51096 0.67553 0.0
N902 N 0.33583 0.51092 0.68604 0.0
C903 C 0.33939 0.45199 0.6896 0.0
C904 C 0.32651 0.41218 0.68102 0.0
C905 C 0.29611 0.43435 0.661 0.0
H906 H 0.27189 0.47387 0.65709 0.0
H907 H 0.33668 0.42166 0.65597 0.0
H908 H 0.26464 0.39382 0.66134 0.0
O909 O 0.25309 0.63962 0.67172 0.0
O910 O 0.27023 0.6451 0.68942 0.0
H911 H 0.31976 0.4391 0.70652 0.0
H912 H 0.37615 0.38554 0.70113 0.0
C913 C 0.35919 0.43414 0.70084 0.0
H914 H 0.39681 0.46517 0.70353 0.0
H915 H 0.22442 0.56137 0.70588 0.0
O916 O 0.3249 0.57994 0.65225 0.0
C917 C 0.24109 0.66275 0.68097 0.0
Co918 Co 0.16636 0.58416 0.41945 0.0
Co919 Co 0.16669 0.58636 0.44504 0.0
C920 C 0.09426 0.67713 0.43424 0.0
O921 O 0.10993 0.65124 0.42525 0.0
O922 O 0.11749 0.66068 0.44334 0.0
C923 C 0.16028 0.63751 0.39775 0.0
O924 O 0.13857 0.68721 0.40262 0.0
C925 C 0.19277 0.58626 0.46917 0.0
C926 C 0.20648 0.48515 0.47103 0.0
C927 C 0.21056 0.54071 0.47665 0.0
N928 N 0.18121 0.5583 0.45956 0.0
N929 N 0.18806 0.49787 0.46087 0.0
C930 C 0.18976 0.65495 0.47085 0.0
H931 H 0.18043 0.67931 0.46306 0.0
H932 H 0.23356 0.67183 0.47446 0.0
H933 H 0.15174 0.66587 0.47658 0.0
C934 C 0.30243 0.58837 0.42353 0.0
N935 N 0.24319 0.58628 0.42685 0.0
N936 N 0.24155 0.59385 0.43745 0.0
C937 C 0.29877 0.60446 0.44115 0.0
C938 C 0.33996 0.60003 0.43254 0.0
C939 C 0.3223 0.57615 0.41207 0.0
H940 H 0.28674 0.54893 0.40769 0.0
H941 H 0.32868 0.62109 0.4078 0.0
H942 H 0.36664 0.55041 0.41192 0.0
O943 O 0.12036 0.50657 0.42153 0.0
O944 O 0.11202 0.52246 0.43914 0.0
H945 H 0.31067 0.58488 0.4581 0.0
H946 H 0.35829 0.64779 0.45311 0.0
C947 C 0.31246 0.62528 0.45251 0.0
H948 H 0.27723 0.65945 0.45502 0.0
H949 H 0.18291 0.46537 0.45465 0.0
O950 O 0.17672 0.59113 0.40344 0.0
C951 C 0.09604 0.49347 0.43062 0.0
Co952 Co 0.15906 0.57406 0.32972 0.0
Co953 Co 0.15033 0.57095 0.30411 0.0
C954 C 0.06028 0.64163 0.31615 0.0
O955 O 0.08817 0.62753 0.32498 0.0
O956 O 0.07633 0.61864 0.30705 0.0
C957 C 0.15446 0.61999 0.35074 0.0
O958 O 0.15254 0.67106 0.34489 0.0
C959 C 0.12437 0.54931 0.28046 0.0
C960 C 0.21927 0.55513 0.27401 0.0
C961 C 0.15859 0.5466 0.27094 0.0
N962 N 0.16333 0.5592 0.28883 0.0
N963 N 0.21986 0.56287 0.28487 0.0
C964 C 0.05576 0.54576 0.28142 0.0
H965 H 0.04107 0.54943 0.29004 0.0
H966 H 0.03916 0.50132 0.27793 0.0
H967 H 0.0346 0.58391 0.27661 0.0
C968 C 0.16412 0.43672 0.32608 0.0
N969 N 0.15848 0.49574 0.32254 0.0
N970 N 0.15033 0.49525 0.31193 0.0
C971 C 0.14748 0.43621 0.30846 0.0
C972 C 0.15731 0.39665 0.31724 0.0
C973 C 0.18127 0.41988 0.33751 0.0
H974 H 0.20361 0.4597 0.34163 0.0
H975 H 0.13893 0.40734 0.34207 0.0
H976 H 0.21304 0.37946 0.33761 0.0
O977 O 0.23335 0.62231 0.32638 0.0
O978 O 0.21744 0.62725 0.30863 0.0
H979 H 0.17222 0.42741 0.29166 0.0
H980 H 0.11811 0.3691 0.29637 0.0
C981 C 0.13194 0.41851 0.297 0.0
H982 H 0.09305 0.44742 0.29414 0.0
H983 H 0.25904 0.57056 0.28959 0.0
O984 O 0.15618 0.56791 0.34586 0.0
C985 C 0.24662 0.64436 0.31709 0.0
Co986 Co 0.15526 0.42562 0.07829 0.0
Co987 Co 0.16128 0.42686 0.05264 0.0
C988 C 0.09171 0.32971 0.06497 0.0
O989 O 0.10667 0.35312 0.07412 0.0
O990 O 0.11174 0.35188 0.05603 0.0
C991 C 0.15927 0.38583 0.10098 0.0
O992 O 0.16173 0.32884 0.09722 0.0
C993 C 0.19985 0.39164 0.03027 0.0
C994 C 0.15933 0.46935 0.02093 0.0
C995 C 0.19216 0.4147 0.01983 0.0
N996 N 0.17237 0.43101 0.03726 0.0
N997 N 0.14811 0.47716 0.03159 0.0
C998 C 0.22945 0.33162 0.03344 0.0
H999 H 0.23285 0.32762 0.04243 0.0
H1000 H 0.2759 0.32808 0.02971 0.0
H1001 H 0.2014 0.29264 0.03024 0.0
C1002 C 0.2909 0.41699 0.07526 0.0
N1003 N 0.23343 0.42343 0.07129 0.0
N1004 N 0.23625 0.42937 0.06064 0.0
C1005 C 0.29586 0.43122 0.05757 0.0
C1006 C 0.33282 0.42204 0.06671 0.0
C1007 C 0.30431 0.40144 0.0869 0.0
H1008 H 0.26984 0.36774 0.0899 0.0
H1009 H 0.35082 0.38072 0.08788 0.0
H1010 H 0.30067 0.44414 0.0919 0.0
O1011 O 0.10314 0.49758 0.07423 0.0
O1012 O 0.10715 0.49617 0.05626 0.0
H1013 H 0.35919 0.47819 0.04686 0.0
H1014 H 0.32751 0.40726 0.04162 0.0
C1015 C 0.31683 0.44948 0.04641 0.0
H1016 H 0.28054 0.47646 0.04217 0.0
H1017 H 0.12367 0.51407 0.03499 0.0
O1018 O 0.15959 0.4314 0.09442 0.0
C1019 C 0.08574 0.51833 0.06505 0.0
Co1020 Co 0.33321 0.40668 0.82782 0.0
Co1021 Co 0.34796 0.41603 0.80255 0.0
C1022 C 0.43602 0.34292 0.81427 0.0
O1023 O 0.40543 0.35469 0.82294 0.0
O1024 O 0.42264 0.3683 0.80518 0.0
C1025 C 0.36267 0.43325 0.8509 0.0
O1026 O 0.4071 0.4706 0.84777 0.0
C1027 C 0.36454 0.44458 0.77861 0.0
C1028 C 0.26588 0.45522 0.77446 0.0
C1029 C 0.32444 0.45691 0.77005 0.0
N1030 N 0.33065 0.43601 0.7877 0.0
N1031 N 0.27192 0.44282 0.7851 0.0
C1032 C 0.43308 0.4385 0.77803 0.0
H1033 H 0.45216 0.42249 0.78593 0.0
H1034 H 0.45345 0.48417 0.77592 0.0
H1035 H 0.44572 0.40541 0.77148 0.0
C1036 C 0.32619 0.54538 0.82515 0.0
N1037 N 0.33448 0.48696 0.82146 0.0
N1038 N 0.34707 0.48927 0.81101 0.0
C1039 C 0.35128 0.54877 0.80785 0.0
C1040 C 0.33675 0.58691 0.81661 0.0
C1041 C 0.30159 0.56032 0.83622 0.0
H1042 H 0.27956 0.5189 0.8399 0.0
H1043 H 0.34008 0.57564 0.84152 0.0
H1044 H 0.26737 0.59858 0.83574 0.0
O1045 O 0.2597 0.36034 0.82374 0.0
O1046 O 0.28187 0.3559 0.80625 0.0
H1047 H 0.33327 0.56527 0.79097 0.0
H1048 H 0.39053 0.61633 0.79682 0.0
C1049 C 0.37238 0.56818 0.79676 0.0
H1050 H 0.40921 0.53635 0.79393 0.0
H1051 H 0.23566 0.43862 0.79063 0.0
O1052 O 0.32955 0.40614 0.84386 0.0
C1053 C 0.25011 0.33808 0.81436 0.0
Co1054 Co 0.37006 0.54899 0.57708 0.0
Co1055 Co 0.36392 0.56025 0.55119 0.0
C1056 C 0.34383 0.65908 0.5651 0.0
O1057 O 0.32959 0.6296 0.57369 0.0
O1058 O 0.32415 0.63737 0.55616 0.0
C1059 C 0.33331 0.56354 0.59944 0.0
O1060 O 0.29212 0.6015 0.59527 0.0
C1061 C 0.31835 0.57244 0.52845 0.0
C1062 C 0.39329 0.52358 0.51979 0.0
C1063 C 0.33706 0.55287 0.51816 0.0
N1064 N 0.3612 0.55427 0.53573 0.0
N1065 N 0.40624 0.5261 0.53046 0.0
C1066 C 0.259 0.60328 0.5315 0.0
H1067 H 0.25115 0.60034 0.5404 0.0
H1068 H 0.21991 0.58146 0.52711 0.0
H1069 H 0.26107 0.653 0.52917 0.0
C1070 C 0.28607 0.44678 0.57268 0.0
N1071 N 0.32874 0.48676 0.56904 0.0
N1072 N 0.32421 0.49157 0.55836 0.0
C1073 C 0.27771 0.45474 0.55498 0.0
C1074 C 0.24957 0.42773 0.564 0.0
C1075 C 0.27366 0.43554 0.58451 0.0
H1076 H 0.31758 0.42481 0.58874 0.0
H1077 H 0.25403 0.47807 0.58822 0.0
H1078 H 0.2409 0.3965 0.58564 0.0
O1079 O 0.45694 0.55047 0.57275 0.0
O1080 O 0.45344 0.56291 0.55481 0.0
H1081 H 0.29047 0.46003 0.53769 0.0
H1082 H 0.22853 0.41082 0.5418 0.0
C1083 C 0.25265 0.45484 0.54364 0.0
H1084 H 0.21918 0.49341 0.54272 0.0
H1085 H 0.44512 0.5071 0.53419 0.0
O1086 O 0.36949 0.53445 0.5931 0.0
C1087 C 0.48365 0.55758 0.56363 0.0
C1088 C 0.29117 0.80351 0.30798 0.0
C1089 C 0.3216 0.82725 0.31716 0.0
H1090 H 0.24775 0.72648 0.30046 0.0
C1091 C 0.33605 0.78663 0.32576 0.0
H1092 H 0.27715 0.83336 0.30135 0.0
C1093 C 0.31614 0.7247 0.32548 0.0
C1094 C 0.28303 0.70221 0.31646 0.0
H1095 H 0.36061 0.80314 0.33285 0.0
H1096 H 0.32402 0.69544 0.33252 0.0
C1097 C 0.27366 0.74163 0.30751 0.0
C1098 C 0.41978 0.07321 0.56036 0.0
C1099 C 0.37809 0.0537 0.5684 0.0
H1100 H 0.51164 0.06645 0.55407 0.0
C1101 C 0.40019 0.01915 0.57728 0.0
H1102 H 0.40429 0.10118 0.55356 0.0
C1103 C 0.46193 0.00143 0.5778 0.0
C1104 C 0.50254 0.01621 0.56928 0.0
H1105 H 0.36914 0.00245 0.58351 0.0
H1106 H 0.47633 0.9716 0.58444 0.0
C1107 C 0.48142 0.05423 0.56075 0.0
C1108 C 0.21105 0.17673 0.80552 0.0
C1109 C 0.17563 0.155 0.81429 0.0
H1110 H 0.25908 0.25237 0.79834 0.0
C1111 C 0.15697 0.19716 0.82236 0.0
H1112 H 0.2278 0.14537 0.79932 0.0
C1113 C 0.17696 0.25897 0.82201 0.0
C1114 C 0.21481 0.27971 0.81345 0.0
H1115 H 0.12877 0.18194 0.82912 0.0
H1116 H 0.16522 0.28965 0.82868 0.0
C1117 C 0.22926 0.23849 0.80498 0.0
C1118 C 0.03643 0.89331 0.05983 0.0
C1119 C 0.07339 0.91148 0.06868 0.0
H1120 H 0.94656 0.8969 0.05255 0.0
C1121 C 0.04458 0.93342 0.07814 0.0
H1122 H 0.057 0.87364 0.05258 0.0
C1123 C 0.98115 0.94265 0.07839 0.0
C1124 C 0.9454 0.9335 0.06897 0.0
H1125 H 0.07117 0.94851 0.08509 0.0
H1126 H 0.96171 0.96395 0.0856 0.0
C1127 C 0.97296 0.90529 0.05989 0.0
C1128 C 0.31857 0.26337 0.17408 0.0
C1129 C 0.28536 0.28529 0.18312 0.0
H1130 H 0.36438 0.1857 0.16671 0.0
C1131 C 0.27519 0.24525 0.19194 0.0
H1132 H 0.32663 0.2932 0.16713 0.0
C1133 C 0.29291 0.18344 0.19139 0.0
C1134 C 0.32447 0.16043 0.18228 0.0
H1135 H 0.24848 0.25997 0.19893 0.0
H1136 H 0.27833 0.15316 0.19791 0.0
C1137 C 0.33906 0.20159 0.17376 0.0
C1138 C 0.05453 0.05833 0.44283 0.0
C1139 C 0.07881 0.09372 0.43427 0.0
H1140 H 0.97627 0.01524 0.44981 0.0
C1141 C 0.0385 0.11686 0.42625 0.0
H1142 H 0.0841 0.0375 0.44891 0.0
C1143 C 0.97589 0.10064 0.42639 0.0
C1144 C 0.95256 0.06343 0.43482 0.0
H1145 H 0.05564 0.14532 0.41966 0.0
H1146 H 0.94645 0.11495 0.41972 0.0
C1147 C 0.99212 0.04511 0.44329 0.0
C1148 C 0.19593 0.8225 0.69008 0.0
C1149 C 0.16487 0.84606 0.68094 0.0
H1150 H 0.24082 0.74567 0.69753 0.0
C1151 C 0.15156 0.80566 0.67227 0.0
H1152 H 0.20898 0.85238 0.69676 0.0
C1153 C 0.17223 0.7439 0.67253 0.0
C1154 C 0.20543 0.72134 0.68155 0.0
H1155 H 0.12685 0.82216 0.66518 0.0
H1156 H 0.16452 0.71472 0.66548 0.0
C1157 C 0.21469 0.76081 0.69049 0.0
C1158 C 0.51749 0.90459 0.92591 0.0
C1159 C 0.54103 0.94117 0.93444 0.0
H1160 H 0.43732 0.86316 0.91871 0.0
C1161 C 0.50124 0.95895 0.9429 0.0
H1162 H 0.54697 0.89017 0.91926 0.0
C1163 C 0.43848 0.94645 0.94226 0.0
C1164 C 0.41403 0.91326 0.93343 0.0
H1165 H 0.51727 0.98774 0.94955 0.0
H1166 H 0.40881 0.96642 0.94841 0.0
C1167 C 0.45453 0.89019 0.92548 0.0
C1168 C 0.68783 0.28441 0.6897 0.0
C1169 C 0.67775 0.32319 0.68068 0.0
H1170 H 0.69181 0.19256 0.69573 0.0
C1171 C 0.64915 0.29784 0.67139 0.0
H1172 H 0.71031 0.30163 0.69697 0.0
C1173 C 0.63553 0.23415 0.67088 0.0
C1174 C 0.65163 0.19453 0.67953 0.0
H1175 H 0.6407 0.32639 0.66429 0.0
H1176 H 0.61478 0.21576 0.66356 0.0
C1177 C 0.67656 0.22102 0.68902 0.0
C1178 C 0.53819 0.92092 0.43853 0.0
C1179 C 0.57753 0.94196 0.43019 0.0
H1180 H 0.44717 0.92477 0.44541 0.0
C1181 C 0.55168 0.97275 0.42123 0.0
H1182 H 0.55632 0.89519 0.44539 0.0
C1183 C 0.48889 0.98553 0.42088 0.0
C1184 C 0.4508 0.97093 0.42977 0.0
H1185 H 0.58027 0.99115 0.41478 0.0
H1186 H 0.47172 0.01269 0.4141 0.0
C1187 C 0.4755 0.9366 0.43845 0.0
C1188 C 0.85021 0.77923 0.17311 0.0
C1189 C 0.83335 0.81803 0.18181 0.0
H1190 H 0.84745 0.68717 0.16645 0.0
C1191 C 0.80963 0.79066 0.19131 0.0
H1192 H 0.87005 0.79849 0.16577 0.0
C1193 C 0.80017 0.72696 0.19196 0.0
C1194 C 0.81088 0.68882 0.18289 0.0
H1195 H 0.79408 0.81857 0.19807 0.0
H1196 H 0.77849 0.70889 0.19924 0.0
C1197 C 0.83853 0.7152 0.1736 0.0
C1198 C 0.01332 0.06299 0.92052 0.0
C1199 C 0.04031 0.03877 0.93005 0.0
H1200 H 0.9307 0.09674 0.9129 0.0
C1201 C 0.0044 0.03537 0.93954 0.0
H1202 H 0.0397 0.06634 0.91307 0.0
C1203 C 0.94183 0.0487 0.93924 0.0
C1204 C 0.91355 0.06957 0.92963 0.0
H1205 H 0.02306 0.01682 0.94705 0.0
H1206 H 0.91529 0.03842 0.94644 0.0
C1207 C 0.95055 0.07915 0.92037 0.0
C1208 C 0.69079 0.71585 0.80692 0.0
C1209 C 0.68641 0.67957 0.81638 0.0
H1210 H 0.69299 0.8059 0.80015 0.0
C1211 C 0.664 0.70768 0.82595 0.0
H1212 H 0.70792 0.69637 0.79937 0.0
C1213 C 0.65174 0.77175 0.82622 0.0
C1214 C 0.66341 0.80901 0.81703 0.0
H1215 H 0.6598 0.68113 0.8334 0.0
H1216 H 0.6359 0.79225 0.83375 0.0
C1217 C 0.68137 0.77961 0.80733 0.0
C1218 C 0.96354 0.96361 0.57502 0.0
C1219 C 0.00119 0.95632 0.56579 0.0
H1220 H 0.87355 0.95685 0.58174 0.0
C1221 C 0.97718 0.92532 0.55666 0.0
H1222 H 0.97998 0.98776 0.58218 0.0
C1223 C 0.91575 0.9052 0.5566 0.0
C1224 C 0.87704 0.91706 0.56554 0.0
H1225 H 0.00496 0.91895 0.54942 0.0
H1226 H 0.89815 0.88207 0.54943 0.0
C1227 C 0.90208 0.94539 0.57481 0.0
C1228 C 0.80034 0.19977 0.30704 0.0
C1229 C 0.82514 0.17324 0.31654 0.0
H1230 H 0.7678 0.28088 0.29903 0.0
C1231 C 0.8429 0.21275 0.32507 0.0
H1232 H 0.78429 0.17122 0.3004 0.0
C1233 C 0.83095 0.27671 0.32446 0.0
C1234 C 0.802 0.30226 0.31521 0.0
H1235 H 0.86363 0.19409 0.33239 0.0
H1236 H 0.84063 0.30532 0.3315 0.0
C1237 C 0.79043 0.2634 0.30627 0.0
C1238 C 0.53781 0.09325 0.05938 0.0
C1239 C 0.57624 0.07425 0.06799 0.0
H1240 H 0.44697 0.08978 0.05245 0.0
C1241 C 0.54928 0.04765 0.07725 0.0
H1242 H 0.55695 0.11571 0.05226 0.0
C1243 C 0.48628 0.03655 0.07766 0.0
C1244 C 0.44886 0.04856 0.06855 0.0
H1245 H 0.57712 0.03104 0.08395 0.0
H1246 H 0.46838 0.01254 0.08473 0.0
C1247 C 0.47466 0.07959 0.05958 0.0
C1248 C 0.85539 0.26916 0.82363 0.0
C1249 C 0.83657 0.30896 0.81519 0.0
H1250 H 0.85409 0.17633 0.82999 0.0
C1251 C 0.81114 0.2826 0.80574 0.0
H1252 H 0.87669 0.28757 0.83091 0.0
C1253 C 0.80158 0.21896 0.80494 0.0
C1254 C 0.81404 0.17983 0.81381 0.0
H1255 H 0.79417 0.31125 0.79917 0.0
H1256 H 0.77837 0.20168 0.79774 0.0
C1257 C 0.8437 0.20517 0.823 0.0
C1258 C 0.98925 0.54276 0.05531 0.0
C1259 C 0.02684 0.55265 0.06444 0.0
H1260 H 0.89872 0.53926 0.04902 0.0
C1261 C 0.00133 0.58188 0.07363 0.0
H1262 H 0.00676 0.51954 0.04812 0.0
C1263 C 0.9384 0.59703 0.07388 0.0
C1264 C 0.89976 0.5809 0.06512 0.0
H1265 H 0.02919 0.59 0.08081 0.0
H1266 H 0.91973 0.61876 0.08109 0.0
C1267 C 0.92649 0.55479 0.05578 0.0
C1268 C 0.65459 0.77538 0.32618 0.0
C1269 C 0.67954 0.80217 0.31669 0.0
H1270 H 0.62388 0.69196 0.33405 0.0
C1271 C 0.68539 0.76507 0.30736 0.0
H1272 H 0.64919 0.80267 0.33352 0.0
C1273 C 0.67453 0.70158 0.30788 0.0
C1274 C 0.65415 0.6735 0.31756 0.0
H1275 H 0.70455 0.78358 0.29989 0.0
H1276 H 0.68688 0.67429 0.30085 0.0
C1277 C 0.64135 0.71163 0.32656 0.0
C1278 C 0.58446 0.59709 0.55645 0.0
C1279 C 0.55126 0.55741 0.56338 0.0
H1280 H 0.67403 0.62738 0.55118 0.0
C1281 C 0.58311 0.51638 0.57019 0.0
H1282 H 0.56055 0.62913 0.55112 0.0
C1283 C 0.64702 0.51356 0.56988 0.0
C1284 C 0.68086 0.55367 0.56312 0.0
H1285 H 0.55845 0.48472 0.57548 0.0
H1286 H 0.66974 0.47843 0.57475 0.0
C1287 C 0.64909 0.59597 0.55646 0.0
C1288 C 0.79169 0.78738 0.68901 0.0
C1289 C 0.79874 0.8243 0.67967 0.0
H1290 H 0.78885 0.69688 0.69561 0.0
C1291 C 0.82456 0.79705 0.6703 0.0
H1292 H 0.77177 0.80613 0.69639 0.0
C1293 C 0.83792 0.73319 0.67005 0.0
C1294 C 0.82399 0.69527 0.67905 0.0
H1295 H 0.83085 0.82413 0.66295 0.0
H1296 H 0.85652 0.71333 0.66267 0.0
C1297 C 0.8023 0.7238 0.6886 0.0
C1298 C 0.55021 0.54327 0.94156 0.0
C1299 C 0.57499 0.57262 0.93234 0.0
H1300 H 0.47143 0.50496 0.94927 0.0
C1301 C 0.53485 0.59175 0.924 0.0
H1302 H 0.57954 0.52612 0.94801 0.0
C1303 C 0.472 0.57688 0.9245 0.0
C1304 C 0.44829 0.54396 0.93348 0.0
H1305 H 0.55229 0.61583 0.91691 0.0
H1306 H 0.44285 0.58783 0.9176 0.0
C1307 C 0.48759 0.53071 0.94226 0.0
C1308 C 0.659 0.21439 0.17283 0.0
C1309 C 0.68445 0.18824 0.18235 0.0
H1310 H 0.62936 0.29755 0.16469 0.0
C1311 C 0.6929 0.22662 0.19145 0.0
H1312 H 0.65178 0.18615 0.16565 0.0
C1313 C 0.68387 0.29028 0.19065 0.0
C1314 C 0.66242 0.31752 0.18095 0.0
H1315 H 0.71267 0.20871 0.19892 0.0
H1316 H 0.69814 0.31821 0.19749 0.0
C1317 C 0.64749 0.27849 0.17218 0.0
C1318 C 0.0006 0.46611 0.44043 0.0
C1319 C 0.03632 0.46044 0.43096 0.0
H1320 H 0.91144 0.46979 0.44724 0.0
C1321 C 0.0083 0.43725 0.42146 0.0
H1322 H 0.02009 0.48379 0.44793 0.0
C1323 C 0.94476 0.42479 0.42129 0.0
C1324 C 0.90824 0.43737 0.4305 0.0
H1325 H 0.03455 0.4322 0.41402 0.0
H1326 H 0.9241 0.40787 0.41386 0.0
C1327 C 0.93745 0.45712 0.44008 0.0
C1328 C 0.17789 0.76323 0.18883 0.0
C1329 C 0.21229 0.78621 0.18005 0.0
H1330 H 0.13225 0.68442 0.19578 0.0
C1331 C 0.22486 0.74692 0.17119 0.0
H1332 H 0.16797 0.79249 0.19578 0.0
C1333 C 0.20813 0.68471 0.17151 0.0
C1334 C 0.17569 0.6607 0.18043 0.0
H1335 H 0.25255 0.76269 0.1644 0.0
H1336 H 0.2241 0.65488 0.16502 0.0
C1337 C 0.15852 0.70119 0.1889 0.0
C1338 C 0.97556 0.41502 0.92225 0.0
C1339 C 0.94936 0.44509 0.9313 0.0
H1340 H 0.05782 0.37736 0.91508 0.0
C1341 C 0.98653 0.456 0.94047 0.0
H1342 H 0.94823 0.40602 0.91504 0.0
C1343 C 0.04928 0.44359 0.94019 0.0
C1344 C 0.0765 0.41621 0.93102 0.0
H1345 H 0.96858 0.47947 0.94759 0.0
H1346 H 0.07679 0.45901 0.94701 0.0
C1347 C 0.03856 0.3998 0.92219 0.0
C1348 C 0.30966 0.24142 0.67388 0.0
C1349 C 0.27441 0.21993 0.68273 0.0
H1350 H 0.35549 0.31912 0.66651 0.0
C1351 C 0.2626 0.26047 0.69143 0.0
H1352 H 0.31941 0.21132 0.66704 0.0
C1353 C 0.28059 0.32229 0.69087 0.0
C1354 C 0.3132 0.34482 0.68183 0.0
H1355 H 0.23494 0.24602 0.69832 0.0
H1356 H 0.26572 0.35309 0.6973 0.0
C1357 C 0.32942 0.30331 0.67349 0.0
C1358 C 0.51057 0.6089 0.42559 0.0
C1359 C 0.53631 0.5759 0.43439 0.0
H1360 H 0.42796 0.64454 0.41823 0.0
C1361 C 0.49796 0.55896 0.4431 0.0
H1362 H 0.53891 0.62263 0.41875 0.0
C1363 C 0.43472 0.56769 0.44244 0.0
C1364 C 0.40812 0.59723 0.4334 0.0
H1365 H 0.51567 0.53314 0.45 0.0
H1366 H 0.40655 0.54766 0.4488 0.0
C1367 C 0.44691 0.62019 0.42518 0.0
C1368 C 0.17143 0.22601 0.32497 0.0
C1369 C 0.20776 0.20343 0.31635 0.0
H1370 H 0.12471 0.30476 0.33185 0.0
C1371 C 0.22189 0.24343 0.30767 0.0
H1372 H 0.16009 0.19639 0.33181 0.0
C1373 C 0.20481 0.30554 0.30801 0.0
C1374 C 0.17031 0.32902 0.31674 0.0
H1375 H 0.25062 0.22829 0.30097 0.0
H1376 H 0.22163 0.33571 0.30163 0.0
C1377 C 0.15212 0.28822 0.32508 0.0
C1378 C 0.49341 0.46262 0.07615 0.0
C1379 C 0.52952 0.44425 0.06722 0.0
H1380 H 0.40321 0.47443 0.08258 0.0
C1381 C 0.50158 0.41209 0.05862 0.0
H1382 H 0.51326 0.4891 0.08278 0.0
C1383 C 0.43801 0.40069 0.0588 0.0
C1384 C 0.40116 0.42409 0.06731 0.0
H1385 H 0.52836 0.39811 0.0516 0.0
H1386 H 0.41748 0.37588 0.05207 0.0
C1387 C 0.4299 0.45402 0.07607 0.0
C1388 C 0.29263 0.67853 0.80694 0.0
C1389 C 0.3225 0.65434 0.81615 0.0
H1390 H 0.24876 0.75575 0.79948 0.0
C1391 C 0.33469 0.69415 0.82496 0.0
H1392 H 0.28037 0.64916 0.80015 0.0
C1393 C 0.31379 0.75584 0.82478 0.0
C1394 C 0.28174 0.77895 0.81568 0.0
H1395 H 0.35856 0.6772 0.8321 0.0
H1396 H 0.32043 0.78451 0.83192 0.0
C1397 C 0.27389 0.74017 0.8066 0.0
C1398 C 0.0838 0.4587 0.57118 0.0
C1399 C 0.05262 0.41726 0.56437 0.0
H1400 H 0.17009 0.49615 0.57597 0.0
C1401 C 0.08641 0.37561 0.55791 0.0
H1402 H 0.05867 0.49164 0.57615 0.0
C1403 C 0.15094 0.37558 0.55829 0.0
C1404 C 0.18212 0.41887 0.56481 0.0
H1405 H 0.06301 0.3431 0.55262 0.0
H1406 H 0.17633 0.34291 0.55332 0.0
C1407 C 0.14775 0.46042 0.57122 0.0
C1408 C 0.525 0.27308 0.3256 0.0
C1409 C 0.54251 0.30062 0.3157 0.0
H1410 H 0.47538 0.19985 0.33344 0.0
C1411 C 0.52423 0.27266 0.30589 0.0
H1412 H 0.53891 0.29313 0.3333 0.0
C1413 C 0.48908 0.21855 0.30597 0.0
C1414 C 0.47069 0.19148 0.31585 0.0
H1415 H 0.5377 0.29206 0.29811 0.0
H1416 H 0.47511 0.19887 0.29824 0.0
C1417 C 0.48919 0.21923 0.32568 0.0
C1418 C 0.00112 0.2497 0.57412 0.0
C1419 C 0.02349 0.22345 0.56441 0.0
H1420 H 0.92746 0.29734 0.58206 0.0
C1421 C 0.98917 0.23112 0.5548 0.0
H1422 H 0.02624 0.24464 0.58169 0.0
C1423 C 0.93229 0.2615 0.55502 0.0
C1424 C 0.9085 0.28495 0.56484 0.0
H1425 H 0.00478 0.2112 0.5472 0.0
H1426 H 0.90629 0.26528 0.54752 0.0
C1427 C 0.94401 0.2794 0.57436 0.0
C1428 C 0.96278 0.71158 0.82445 0.0
C1429 C 0.94539 0.68345 0.8146 0.0
H1430 H 0.0115 0.78573 0.83217 0.0
C1431 C 0.96279 0.7115 0.80474 0.0
H1432 H 0.94938 0.69165 0.83219 0.0
C1433 C -0.00272 0.76605 0.80473 0.0
C1434 C 0.01578 0.79357 0.81457 0.0
H1435 H 0.94935 0.69171 0.79699 0.0
H1436 H 0.0108 0.78564 0.79697 0.0
C1437 C -0.00226 0.76598 0.82444 0.0
C1438 C 0.46112 0.77136 0.05339 0.0
C1439 C 0.42584 0.77813 0.06291 0.0
H1440 H 0.53942 0.72833 0.0459 0.0
C1441 C 0.44178 0.74339 0.07218 0.0
H1442 H 0.45032 0.79788 0.04614 0.0
C1443 C 0.4932 0.70479 0.07212 0.0
C1444 C 0.52977 0.69941 0.06274 0.0
H1445 H 0.41552 0.74725 0.07965 0.0
H1446 H 0.50418 0.6792 0.07946 0.0
C1447 C 0.51265 0.73223 0.05331 0.0
C1448 C 0.52943 0.71286 0.19319 0.0
C1449 C 0.55115 0.68932 0.18323 0.0
H1450 H 0.47632 0.78255 0.20127 0.0
C1451 C 0.53628 0.72079 0.17356 0.0
H1452 H 0.54072 0.69027 0.20082 0.0
C1453 C 0.49979 0.77413 0.17384 0.0
C1454 C 0.47754 0.79727 0.1838 0.0
H1455 H 0.55288 0.70435 0.16577 0.0
H1456 H 0.48823 0.79663 0.16622 0.0
C1457 C 0.49324 0.76638 0.19348 0.0
C1458 C 0.52006 0.29168 0.44344 0.0
C1459 C 0.54319 0.31528 0.4336 0.0
H1460 H 0.45183 0.23618 0.45125 0.0
C1461 C 0.51273 0.30092 0.42383 0.0
H1462 H 0.54186 0.30259 0.45114 0.0
C1463 C 0.46063 0.26301 0.42389 0.0
C1464 C 0.43784 0.23904 0.43374 0.0
H1465 H 0.52904 0.31896 0.41612 0.0
H1466 H 0.4389 0.25173 0.41621 0.0
C1467 C 0.4678 0.25427 0.44352 0.0
C1468 C 0.99038 0.24077 0.69242 0.0
C1469 C 0.00928 0.21157 0.68276 0.0
H1470 H 0.9415 0.31629 0.69966 0.0
C1471 C 0.9916 0.23755 0.67272 0.0
H1472 H 0.00382 0.22251 0.70029 0.0
C1473 C 0.95619 0.29173 0.67235 0.0
C1474 C 0.93801 0.3214 0.68201 0.0
H1475 H 0.00575 0.21647 0.66512 0.0
H1476 H 0.94299 0.31022 0.66449 0.0
C1477 C 0.95543 0.2952 0.69205 0.0
C1478 C 0.96593 0.72548 0.9423 0.0
C1479 C 0.94053 0.7054 0.93238 0.0
H1480 H 0.03801 0.77512 0.95026 0.0
C1481 C 0.97067 0.72068 0.92262 0.0
H1482 H 0.94445 0.71387 0.94999 0.0
C1483 C 0.02492 0.7555 0.92278 0.0
C1484 C 0.05027 0.77548 0.93271 0.0
H1485 H 0.95274 0.7053 0.91485 0.0
H1486 H 0.04657 0.76725 0.91512 0.0
C1487 C 0.0203 0.7598 0.94246 0.0
C1488 C 0.52448 0.78985 0.69129 0.0
C1489 C 0.54074 0.8181 0.6814 0.0
H1490 H 0.47772 0.71529 0.69919 0.0
C1491 C 0.52261 0.7899 0.67159 0.0
H1492 H 0.53856 0.8097 0.699 0.0
C1493 C 0.48793 0.73529 0.67169 0.0
C1494 C 0.47104 0.70747 0.6816 0.0
H1495 H 0.53505 0.81004 0.66382 0.0
H1496 H 0.47344 0.71558 0.664 0.0
C1497 C 0.49035 0.73503 0.6914 0.0
C1498 C 0.96428 0.78016 0.44407 0.0
C1499 C 0.93548 0.79641 0.43423 0.0
H1500 H 0.03807 0.73116 0.45179 0.0
C1501 C 0.95987 0.7737 0.42441 0.0
H1502 H 0.94713 0.79748 0.45177 0.0
C1503 C 0.01245 0.73651 0.4244 0.0
C1504 C 0.04189 0.72101 0.43421 0.0
H1505 H 0.93903 0.78559 0.41666 0.0
H1506 H 0.02977 0.71972 0.41667 0.0
C1507 C 0.01704 0.74295 0.44406 0.0
C1508 C 0.00283 0.27088 0.19337 0.0
C1509 C 0.01543 0.30128 0.18349 0.0
H1510 H 0.95796 0.19488 0.20128 0.0
C1511 C 0.98966 0.27794 0.17383 0.0
H1512 H 0.02241 0.28728 0.20095 0.0
C1513 C 0.95344 0.22456 0.17401 0.0
C1514 C 0.94206 0.19325 0.18384 0.0
H1515 H -0.00137 0.30001 0.16607 0.0
H1516 H 0.93454 0.20782 0.1664 0.0
C1517 C 0.96663 0.21733 0.19354 0.0
C1518 C 0.46882 0.25998 0.94183 0.0
C1519 C 0.44181 0.27835 0.93194 0.0
H1520 H 0.5412 0.21025 0.94972 0.0
C1521 C 0.46907 0.2593 0.92212 0.0
H1522 H 0.4496 0.27444 0.94956 0.0
C1523 C 0.52207 0.22226 0.92222 0.0
C1524 C 0.54921 0.2044 0.93214 0.0
H1525 H 0.4497 0.27322 0.91436 0.0
H1526 H 0.54162 0.20746 0.91453 0.0
C1527 C 0.52209 0.2239 0.94193 0.0
C1528 C 0.53642 0.21058 0.80466 0.0
C1529 C 0.55416 0.18275 0.81453 0.0
H1530 H 0.48711 0.28393 0.79684 0.0
C1531 C 0.53563 0.21029 0.82436 0.0
H1532 H 0.55069 0.19122 0.79692 0.0
C1533 C 0.49918 0.26386 0.82432 0.0
C1534 C 0.48112 0.29139 0.81443 0.0
H1535 H 0.54912 0.19038 0.83211 0.0
H1536 H 0.48451 0.28322 0.83203 0.0
C1537 C 0.50069 0.26443 0.80461 0.0
C1538 C 0.42968 0.71114 0.555 0.0
C1539 C 0.40533 0.68856 0.56484 0.0
H1540 H 0.50288 0.76022 0.54718 0.0
C1541 C 0.44028 0.69455 0.57441 0.0
H1542 H 0.40404 0.70708 0.54746 0.0
C1543 C 0.49758 0.72362 0.57419 0.0
C1544 C 0.52055 0.74899 0.56445 0.0
H1545 H 0.42315 0.67743 0.58213 0.0
H1546 H 0.52222 0.72909 0.5818 0.0
C1547 C 0.4867 0.74101 0.5548 0.0
C1548 C -0.00466 0.71912 0.30632 0.0
C1549 C 0.01538 0.6932 0.31621 0.0
H1550 H 0.94478 0.79131 0.29844 0.0
C1551 C -0.00202 0.72177 0.32602 0.0
H1552 H 0.00837 0.69876 0.29859 0.0
C1553 C 0.96159 0.77532 0.32592 0.0
C1554 C 0.94233 0.80162 0.31601 0.0
H1555 H 0.01313 0.70333 0.33378 0.0
H1556 H 0.94853 0.79602 0.33362 0.0
C1557 C 0.95957 0.77287 0.30622 0.0
C1558 C 0.01521 0.26386 0.07463 0.0
C1559 C 0.04278 0.28213 0.0648 0.0
H1560 H 0.94441 0.21223 0.0824 0.0
C1561 C 0.01833 0.25995 0.05494 0.0
H1562 H 0.03236 0.28032 0.08239 0.0
C1563 C 0.96709 0.2205 0.05494 0.0
C1564 C 0.9393 0.20294 0.0648 0.0
H1565 H 0.03816 0.27371 0.04721 0.0
H1566 H 0.94957 0.20355 0.04724 0.0
C1567 C 0.96404 0.22519 0.07462 0.0
C1568 C 0.31438 0.07929 0.36909 0.0
C1569 C 0.3712 0.08722 0.36373 0.0
H1570 H 0.26569 0.08015 0.38429 0.0
C1571 C 0.42346 0.10241 0.36993 0.0
H1572 H 0.27313 0.06785 0.36455 0.0
C1573 C 0.41915 0.10949 0.3812 0.0
C1574 C 0.36241 0.10186 0.38657 0.0
H1575 H 0.46788 0.10901 0.36608 0.0
H1576 H 0.46052 0.12099 0.3857 0.0
C1577 C 0.30999 0.08673 0.38039 0.0
C1578 C 0.10943 0.0473 0.61599 0.0
C1579 C 0.13233 0.10504 0.61248 0.0
H1580 H 0.08498 0.9899 0.6296 0.0
C1581 C 0.14931 0.14948 0.62024 0.0
H1582 H 0.09555 0.01232 0.61016 0.0
C1583 C 0.14426 0.13619 0.63132 0.0
C1584 C 0.12076 0.07876 0.63485 0.0
H1585 H 0.16707 0.19428 0.61775 0.0
H1586 H 0.15807 0.17129 0.63714 0.0
C1587 C 0.10298 0.03455 0.62709 0.0
C1588 C 0.09496 0.84445 0.86824 0.0
C1589 C 0.13532 0.88169 0.86215 0.0
H1590 H 0.06366 0.81751 0.88406 0.0
C1591 C 0.17729 0.92023 0.86765 0.0
H1592 H 0.06213 0.8143 0.86423 0.0
C1593 C 0.17916 0.92098 0.87905 0.0
C1594 C 0.13808 0.88433 0.88512 0.0
H1595 H 0.20923 0.94911 0.86315 0.0
H1596 H 0.2119 0.95107 0.8831 0.0
C1597 C 0.09586 0.84628 0.8796 0.0
C1598 C 0.35439 0.85091 0.12073 0.0
C1599 C 0.34847 0.89715 0.11277 0.0
H1600 H 0.36643 0.83073 0.13768 0.0
C1601 C 0.35318 0.95992 0.11583 0.0
H1602 H 0.35127 0.80227 0.11856 0.0
C1603 C 0.36399 0.97614 0.12668 0.0
C1604 C 0.36835 0.92988 0.13467 0.0
H1605 H 0.34957 0.99646 0.1098 0.0
H1606 H 0.36735 0.02473 0.12887 0.0
C1607 C 0.36318 0.8672 0.13163 0.0
C1608 C 0.66619 0.92637 0.62795 0.0
C1609 C 0.61187 0.92556 0.63421 0.0
H1610 H 0.70724 0.91221 0.61229 0.0
C1611 C 0.55607 0.90936 0.62915 0.0
H1612 H 0.71003 0.9383 0.63161 0.0
C1613 C 0.55455 0.89419 0.61811 0.0
C1614 C 0.60882 0.8947 0.61186 0.0
H1615 H 0.51344 0.908 0.63373 0.0
H1616 H 0.51066 0.88214 0.61448 0.0
C1617 C 0.6647 0.91097 0.6169 0.0
C1618 C 0.86124 0.98508 0.37146 0.0
C1619 C 0.84189 0.94094 0.36382 0.0
H1620 H 0.87006 0.00802 0.38835 0.0
C1621 C 0.81752 0.88414 0.36748 0.0
H1622 H 0.87998 0.02922 0.36884 0.0
C1623 C 0.81311 0.87142 0.37859 0.0
C1624 C 0.83136 0.91597 0.38624 0.0
H1625 H 0.80257 0.84914 0.36173 0.0
H1626 H 0.7946 0.82714 0.38119 0.0
C1627 C 0.8552 0.97304 0.38259 0.0
C1628 C 0.8495 0.0323 0.11633 0.0
C1629 C 0.83061 0.09248 0.11334 0.0
H1630 H 0.87207 0.97015 0.12941 0.0
C1631 C 0.81953 0.13674 0.12145 0.0
H1632 H 0.85901 0.99749 0.1102 0.0
C1633 C 0.8257 0.1206 0.1324 0.0
C1634 C 0.8449 0.06055 0.1354 0.0
H1635 H 0.80516 0.1834 0.11933 0.0
H1636 H 0.816 0.15532 0.13855 0.0
C1637 C 0.85747 0.01673 0.12729 0.0
C1638 C 0.6246 0.02419 0.87 0.0
C1639 C 0.6627 0.05316 0.86231 0.0
H1640 H 0.60294 0.0123 0.88684 0.0
C1641 C 0.7089 0.09412 0.86593 0.0
H1642 H 0.58871 0.99243 0.86745 0.0
C1643 C 0.71653 0.10625 0.87701 0.0
C1644 C 0.67881 0.07685 0.8847 0.0
H1645 H 0.73881 0.11748 0.86018 0.0
H1646 H 0.75236 0.13809 0.87955 0.0
C1647 C 0.63292 0.03552 0.88109 0.0
C1648 C 0.81217 0.55038 0.86819 0.0
C1649 C 0.81719 0.6042 0.86179 0.0
H1650 H 0.80668 0.51219 0.88423 0.0
C1651 C 0.82041 0.66227 0.86699 0.0
H1652 H 0.80928 0.50499 0.86443 0.0
C1653 C 0.81906 0.66645 0.87833 0.0
C1654 C 0.81406 0.61268 0.88474 0.0
H1655 H 0.82423 0.70468 0.86229 0.0
H1656 H 0.82205 0.71187 0.88207 0.0
C1657 C 0.81039 0.5546 0.87954 0.0
C1658 C 0.71107 0.61912 0.11999 0.0
C1659 C 0.67116 0.59307 0.11226 0.0
H1660 H 0.73539 0.62637 0.13682 0.0
C1661 C 0.62318 0.55408 0.11584 0.0
H1662 H 0.74855 0.64906 0.11748 0.0
C1663 C 0.61515 0.54157 0.12691 0.0
C1664 C 0.65558 0.56689 0.13462 0.0
H1665 H 0.5915 0.53341 0.11007 0.0
H1666 H 0.57767 0.51159 0.12941 0.0
C1667 C 0.70369 0.60572 0.13105 0.0
C1668 C 0.62718 0.46979 0.38189 0.0
C1669 C 0.6694 0.42568 0.38591 0.0
H1670 H 0.58494 0.51077 0.36785 0.0
C1671 C 0.70217 0.38854 0.37855 0.0
H1672 H 0.60094 0.49888 0.3874 0.0
C1673 C 0.6935 0.39597 0.36736 0.0
C1674 C 0.65112 0.43994 0.36335 0.0
H1675 H 0.735 0.35428 0.38141 0.0
H1676 H 0.71972 0.36687 0.36186 0.0
C1677 C 0.61773 0.47648 0.37071 0.0
C1678 C 0.79049 0.42689 0.62894 0.0
C1679 C 0.84163 0.45852 0.63328 0.0
H1680 H 0.74643 0.39057 0.61474 0.0
C1681 C 0.88744 0.48022 0.62617 0.0
H1682 H 0.75427 0.40954 0.63419 0.0
C1683 C 0.88263 0.46965 0.61497 0.0
C1684 C 0.83221 0.43663 0.61069 0.0
H1685 H 0.92727 0.50488 0.62925 0.0
H1686 H 0.91904 0.48634 0.6097 0.0
C1687 C 0.78599 0.41582 0.61778 0.0
C1688 C 0.17331 0.37119 0.13154 0.0
C1689 C 0.13026 0.41556 0.13511 0.0
H1690 H 0.21509 0.32584 0.11784 0.0
C1691 C 0.09805 0.45106 0.12741 0.0
H1692 H 0.19843 0.34299 0.13735 0.0
C1693 C 0.10913 0.44268 0.11629 0.0
C1694 C 0.15089 0.39709 0.11271 0.0
H1695 H 0.06472 0.48554 0.12999 0.0
H1696 H 0.08374 0.47061 0.11047 0.0
C1697 C 0.1827 0.36122 0.12042 0.0
C1698 C 0.3186 0.36805 0.86581 0.0
C1699 C 0.35035 0.4219 0.86255 0.0
H1700 H 0.28267 0.31456 0.87908 0.0
C1701 C 0.3692 0.46459 0.87048 0.0
H1702 H 0.30363 0.33415 0.85986 0.0
C1703 C 0.35613 0.45386 0.88146 0.0
C1704 C 0.32503 0.39961 0.88473 0.0
H1705 H 0.39342 0.50658 0.8682 0.0
H1706 H 0.37135 0.48766 0.8874 0.0
C1707 C 0.3066 0.35672 0.8768 0.0
C1708 C 0.38977 0.5253 0.61602 0.0
C1709 C 0.3398 0.5577 0.61141 0.0
H1710 H 0.43723 0.49896 0.63063 0.0
C1711 C 0.29733 0.58695 0.61834 0.0
H1712 H 0.42337 0.50226 0.6109 0.0
C1713 C 0.30519 0.58493 0.62961 0.0
C1714 C 0.35592 0.55386 0.63425 0.0
H1715 H 0.25822 0.61212 0.61507 0.0
H1716 H 0.2718 0.6086 0.63469 0.0
C1717 C 0.39784 0.52355 0.62733 0.0
C1718 C 0.17215 0.57624 0.3805 0.0
C1719 C 0.16086 0.63332 0.38571 0.0
H1720 H 0.17824 0.52694 0.36539 0.0
C1721 C 0.1477 0.68573 0.37931 0.0
H1722 H 0.1822 0.53485 0.3852 0.0
C1723 C 0.1457 0.68119 0.36797 0.0
C1724 C 0.15625 0.62401 0.36277 0.0
H1725 H 0.13874 0.73035 0.38306 0.0
H1726 H 0.13541 0.72256 0.36329 0.0
C1727 C 0.16955 0.57156 0.36915 0.0
C1728 C 0.2803 0.03978 0.24175 0.0
C1729 C 0.31726 0.99113 0.23781 0.0
H1730 H 0.2497 0.09126 0.25559 0.0
C1731 C 0.35839 0.96148 0.24499 0.0
H1732 H 0.24865 0.06416 0.23642 0.0
C1733 C 0.35949 0.97788 0.25606 0.0
C1734 C 0.31925 0.02376 0.26003 0.0
H1735 H 0.38668 0.92315 0.24227 0.0
H1736 H 0.38848 0.95181 0.26161 0.0
C1737 C 0.28108 0.05565 0.25272 0.0
C1738 C 0.27739 0.08255 0.50912 0.0
C1739 C 0.21545 0.10076 0.50999 0.0
H1740 H 0.35222 0.06172 0.49827 0.0
C1741 C 0.18409 0.12164 0.50069 0.0
H1742 H 0.3019 0.06495 0.51616 0.0
C1743 C 0.21326 0.12125 0.49054 0.0
C1744 C 0.27362 0.09841 0.48952 0.0
H1745 H 0.13592 0.13472 0.50118 0.0
H1746 H 0.18689 0.13372 0.48337 0.0
C1747 C 0.30603 0.08057 0.49891 0.0
C1748 C 0.19529 0.92519 0.7503 0.0
C1749 C 0.16101 0.95608 0.7583 0.0
H1750 H 0.22378 0.9226 0.73371 0.0
C1751 C 0.12252 0.00571 0.75524 0.0
H1752 H 0.22525 0.88678 0.75246 0.0
C1753 C 0.12193 0.02678 0.74442 0.0
C1754 C 0.1599 0.99835 0.7366 0.0
H1755 H 0.09673 0.0312 0.76131 0.0
H1756 H 0.09544 0.06779 0.74238 0.0
C1757 C 0.1946 0.94593 0.73958 0.0
C1758 C 0.1951 0.9917 0.00638 0.0
C1759 C 0.23529 0.94729 0.01081 0.0
H1760 H 0.14965 0.0259 0.99219 0.0
C1761 C 0.25462 0.89726 0.00431 0.0
H1762 H 0.17902 0.03042 0.01124 0.0
C1763 C 0.23771 0.89469 0.99328 0.0
C1764 C 0.20119 0.94203 0.9887 0.0
H1765 H 0.28629 0.86288 0.0075 0.0
H1766 H 0.25696 0.85849 0.98821 0.0
C1767 C 0.17823 0.98907 0.99547 0.0
C1768 C 0.67071 0.05637 0.75323 0.0
C1769 C 0.6702 0.00028 0.75902 0.0
H1770 H 0.67497 0.09953 0.73752 0.0
C1771 C 0.66604 0.94396 0.75332 0.0
H1772 H 0.67513 0.10024 0.75746 0.0
C1773 C 0.6649 0.94357 0.74195 0.0
C1774 C 0.66935 -0.00053 0.73615 0.0
H1775 H 0.66622 0.90014 0.75765 0.0
H1776 H 0.66476 0.89949 0.73771 0.0
C1777 C 0.67098 0.05591 0.74186 0.0
C1778 C 0.70964 0.98963 0.49373 0.0
C1779 C 0.73825 0.93849 0.48881 0.0
H1780 H 0.65936 0.02467 0.5072 0.0
C1781 C 0.73527 0.88025 0.49396 0.0
H1782 H 0.71059 0.03504 0.48993 0.0
C1783 C 0.70534 0.87407 0.50405 0.0
C1784 C 0.67797 0.92605 0.50905 0.0
H1785 H 0.75735 0.84012 0.49037 0.0
H1786 H 0.7035 0.82883 0.50785 0.0
C1787 C 0.67982 0.98349 0.50365 0.0
C1788 C 0.80671 0.92803 0.25408 0.0
C1789 C 0.81627 0.98001 0.2607 0.0
H1790 H 0.79418 0.8948 0.2378 0.0
C1791 C 0.8291 0.03775 0.25593 0.0
H1792 H 0.79578 0.88338 0.25766 0.0
C1793 C 0.82929 0.04416 0.24461 0.0
C1794 C 0.81509 0.99314 0.23799 0.0
H1795 H 0.83574 0.07847 0.26096 0.0
H1796 H 0.83584 0.08982 0.2411 0.0
C1797 C 0.80547 0.9347 0.24278 0.0
C1798 C 0.71315 0.09751 0.99473 0.0
C1799 C 0.75604 0.07616 0.98702 0.0
H1800 H 0.69192 0.10617 0.01177 0.0
C1801 C 0.81493 0.0579 0.9905 0.0
H1802 H 0.66719 0.1111 0.99223 0.0
C1803 C 0.8289 0.05512 0.00154 0.0
C1804 C 0.78436 0.07072 0.00933 0.0
H1805 H 0.84894 0.04165 0.9847 0.0
H1806 H 0.87329 0.03672 0.00401 0.0
C1807 C 0.72729 0.09475 0.00589 0.0
C1808 C 0.81364 0.44982 0.7538 0.0
C1809 C 0.81344 0.50672 0.75937 0.0
H1810 H 0.811 0.40421 0.7383 0.0
C1811 C 0.816 0.56231 0.75345 0.0
H1812 H 0.81113 0.40643 0.75824 0.0
C1813 C 0.81473 0.56103 0.74209 0.0
C1814 C 0.81242 0.50416 0.73652 0.0
H1815 H 0.8148 0.60667 0.7576 0.0
H1816 H 0.81306 0.60447 0.73764 0.0
C1817 C 0.81388 0.44852 0.74243 0.0
C1818 C 0.80868 0.51863 0.99548 0.0
C1819 C 0.77492 0.55396 0.988 0.0
H1820 H 0.81732 0.48753 0.01187 0.0
C1821 C 0.72545 0.59048 0.99165 0.0
H1822 H 0.84687 0.48996 0.9928 0.0
C1823 C 0.70755 0.58833 0.00261 0.0
C1824 C 0.73936 0.54995 0.00999 0.0
H1825 H 0.69794 0.61691 0.98593 0.0
H1826 H 0.66662 0.6133 0.00508 0.0
C1827 C 0.79137 0.51696 0.00637 0.0
C1828 C 0.66758 0.43993 0.24282 0.0
C1829 C 0.66753 0.49819 0.23768 0.0
H1830 H 0.66827 0.39061 0.25799 0.0
C1831 C 0.66127 0.55212 0.24395 0.0
H1832 H 0.67282 0.39781 0.23809 0.0
C1833 C 0.65979 0.54802 0.25529 0.0
C1834 C 0.66308 0.48993 0.26045 0.0
H1835 H 0.66219 0.59752 0.24016 0.0
H1836 H 0.65918 0.59036 0.26005 0.0
C1837 C 0.66462 0.43577 0.25415 0.0
C1838 C 0.81254 0.48257 0.49005 0.0
C1839 C 0.76207 0.44625 0.48684 0.0
H1840 H 0.8801 0.50195 0.50206 0.0
C1841 C 0.74295 0.39734 0.49362 0.0
H1842 H 0.82919 0.52014 0.48498 0.0
C1843 C 0.77318 0.38612 0.50354 0.0
C1844 C 0.82246 0.42414 0.50687 0.0
H1845 H 0.70389 0.36881 0.49146 0.0
H1846 H 0.7578 0.34777 0.5085 0.0
C1847 C 0.84226 0.47166 0.49987 0.0
C1848 C 0.11626 0.44451 0.24742 0.0
C1849 C 0.13548 0.48119 0.23862 0.0
H1850 H 0.10648 0.43795 0.26476 0.0
C1851 C 0.15221 0.54319 0.24042 0.0
H1852 H 0.10439 0.39618 0.2462 0.0
C1853 C 0.15486 0.56655 0.25102 0.0
C1854 C 0.13925 0.52867 0.2599 0.0
H1855 H 0.16848 0.57173 0.23374 0.0
H1856 H 0.1728 0.61285 0.25235 0.0
C1857 C 0.11734 0.46839 0.258 0.0
C1858 C 0.20366 0.37916 0.99012 0.0
C1859 C 0.26608 0.39218 0.98826 0.0
H1860 H 0.13085 0.37599 0.00191 0.0
C1861 C 0.30586 0.40052 0.99715 0.0
H1862 H 0.17212 0.37396 0.98334 0.0
C1863 C 0.28257 0.4003 0.00776 0.0
C1864 C 0.21908 0.39331 0.00953 0.0
H1865 H 0.35393 0.4119 0.99583 0.0
H1866 H 0.31307 0.41162 0.01446 0.0
C1867 C 0.18013 0.38044 0.0007 0.0
C1868 C 0.29815 0.45637 0.74003 0.0
C1869 C 0.33089 0.50918 0.73667 0.0
H1870 H 0.27206 0.39774 0.75326 0.0
C1871 C 0.3707 0.53855 0.74408 0.0
H1872 H 0.26774 0.43231 0.73445 0.0
C1873 C 0.3735 0.51818 0.75495 0.0
C1874 C 0.33657 0.46836 0.75842 0.0
H1875 H 0.39594 0.57973 0.74173 0.0
H1876 H 0.40053 0.54429 0.76077 0.0
C1877 C 0.30087 0.4363 0.75077 0.0
C1878 C 0.22957 0.59562 0.49468 0.0
C1879 C 0.241 0.54635 0.48744 0.0
H1880 H 0.25194 0.63792 0.50996 0.0
C1881 C 0.28344 0.50018 0.49053 0.0
H1882 H 0.19643 0.63139 0.49274 0.0
C1883 C 0.31386 0.50307 0.50045 0.0
C1884 C 0.30288 0.5521 0.5077 0.0
H1885 H 0.29402 0.46157 0.4852 0.0
H1886 H 0.34592 0.46619 0.50246 0.0
C1887 C 0.26056 0.59867 0.5047 0.0
loop_
_geom_bond_atom_site_label_1
_geom_bond_atom_site_label_2
_geom_bond_distance
_geom_bond_site_symmetry_2
_ccdc_geom_bond_type
Co0 O3 1.970 . S
Co0 N17 1.989 . S
Co0 O25 1.967 . S
Co0 O32 1.920 . S
Co1 O4 1.966 . S
Co1 N10 2.022 . S
Co1 N18 1.993 . S
Co1 O26 1.941 . S
C2 O3 1.258 . S
C2 O4 1.263 . S
O3 Co0 1.970 . S
O3 C2 1.258 . S
O4 Co1 1.966 . S
O4 C2 1.263 . S
C5 O6 1.235 . S
C5 O32 1.289 . S
O6 C5 1.235 . S
C7 C9 1.400 . S
C7 N10 1.351 . S
C7 C12 1.501 . S
C8 C9 1.387 . S
C8 N11 1.341 . S
C9 C7 1.400 . S
C9 C8 1.387 . S
N10 Co1 2.022 . S
N10 C7 1.351 . S
N10 N11 1.365 . S
N11 C8 1.341 . S
N11 N10 1.365 . S
N11 H31 0.862 . S
C12 C7 1.501 . S
C12 H13 0.961 . S
C12 H14 0.961 . S
C12 H15 0.960 . S
H13 C12 0.961 . S
H14 C12 0.961 . S
H15 C12 0.960 . S
C16 N17 1.342 1_565 S
C16 C20 1.401 . S
C16 C21 1.499 . S
N17 Co0 1.989 . S
N17 C16 1.342 1_545 S
N17 N18 1.388 . S
N18 Co1 1.993 . S
N18 N17 1.388 . S
N18 C19 1.346 1_545 S
C19 N18 1.346 1_565 S
C19 C20 1.396 . S
C19 C29 1.510 . S
C20 C16 1.401 . S
C20 C19 1.396 . S
C21 C16 1.499 . S
C21 H22 0.959 . S
C21 H23 0.960 . S
C21 H24 0.961 . S
H22 C21 0.959 . S
H23 C21 0.960 . S
H24 C21 0.961 . S
O25 Co0 1.967 . S
O25 C33 1.258 . S
O26 Co1 1.941 . S
O26 C33 1.266 . S
H27 C29 0.959 . S
H28 C29 0.961 . S
C29 C19 1.510 . S
C29 H27 0.959 . S
C29 H28 0.961 . S
C29 H30 0.960 . S
H30 C29 0.960 . S
H31 N11 0.862 . S
O32 Co0 1.920 . S
O32 C5 1.289 . S
C33 O25 1.258 . S
C33 O26 1.266 . S
Co34 O37 1.970 . S
Co34 N51 1.989 . S
Co34 O59 1.967 . S
Co34 O66 1.920 . S
Co35 O38 1.966 . S
Co35 N44 2.022 . S
Co35 N52 1.993 . S
Co35 O60 1.941 . S
C36 O37 1.258 . S
C36 O38 1.263 . S
O37 Co34 1.970 . S
O37 C36 1.258 . S
O38 Co35 1.966 . S
O38 C36 1.263 . S
C39 O40 1.235 . S
C39 O66 1.289 . S
O40 C39 1.235 . S
C41 C43 1.400 . S
C41 N44 1.351 . S
C41 C46 1.501 . S
C42 C43 1.387 . S
C42 N45 1.341 . S
C43 C41 1.400 . S
C43 C42 1.387 . S
N44 Co35 2.022 . S
N44 C41 1.351 . S
N44 N45 1.365 . S
N45 C42 1.341 . S
N45 N44 1.365 . S
N45 H65 0.862 . S
C46 C41 1.501 . S
C46 H47 0.961 . S
C46 H48 0.961 . S
C46 H49 0.960 . S
H47 C46 0.961 . S
H48 C46 0.961 . S
H49 C46 0.960 . S
C50 N51 1.342 . S
C50 C54 1.401 . S
C50 C55 1.499 . S
N51 Co34 1.989 . S
N51 C50 1.342 . S
N51 N52 1.388 . S
N52 Co35 1.993 . S
N52 N51 1.388 . S
N52 C53 1.346 . S
C53 N52 1.346 . S
C53 C54 1.396 . S
C53 C63 1.510 . S
C54 C50 1.401 . S
C54 C53 1.396 . S
C55 C50 1.499 . S
C55 H56 0.959 . S
C55 H57 0.960 . S
C55 H58 0.961 . S
H56 C55 0.959 . S
H57 C55 0.960 . S
H58 C55 0.961 . S
O59 Co34 1.967 . S
O59 C67 1.258 . S
O60 Co35 1.941 . S
O60 C67 1.266 . S
H61 C63 0.959 . S
H62 C63 0.961 . S
C63 C53 1.510 . S
C63 H61 0.959 . S
C63 H62 0.961 . S
C63 H64 0.960 . S
H64 C63 0.960 . S
H65 N45 0.862 . S
O66 Co34 1.920 . S
O66 C39 1.289 . S
C67 O59 1.258 . S
C67 O60 1.266 . S
Co68 O71 1.970 . S
Co68 N85 1.989 . S
Co68 O93 1.967 . S
Co68 O100 1.920 . S
Co69 O72 1.966 . S
Co69 N78 2.022 . S
Co69 N86 1.993 . S
Co69 O94 1.941 . S
C70 O71 1.258 . S
C70 O72 1.263 . S
O71 Co68 1.970 . S
O71 C70 1.258 . S
O72 Co69 1.966 . S
O72 C70 1.263 . S
C73 O74 1.235 . S
C73 O100 1.289 . S
O74 C73 1.235 . S
C75 C77 1.400 . S
C75 N78 1.351 . S
C75 C80 1.501 . S
C76 C77 1.387 . S
C76 N79 1.341 . S
C77 C75 1.400 . S
C77 C76 1.387 . S
N78 Co69 2.022 . S
N78 C75 1.351 . S
N78 N79 1.365 . S
N79 C76 1.341 . S
N79 N78 1.365 . S
N79 H99 0.862 . S
C80 C75 1.501 . S
C80 H81 0.961 . S
C80 H82 0.961 . S
C80 H83 0.960 . S
H81 C80 0.961 . S
H82 C80 0.961 . S
H83 C80 0.960 . S
C84 N85 1.342 1_545 S
C84 C88 1.401 . S
C84 C89 1.499 . S
N85 Co68 1.989 . S
N85 C84 1.342 1_565 S
N85 N86 1.388 . S
N86 Co69 1.993 . S
N86 N85 1.388 . S
N86 C87 1.346 1_565 S
C87 N86 1.346 1_545 S
C87 C88 1.396 . S
C87 C97 1.510 . S
C88 C84 1.401 . S
C88 C87 1.396 . S
C89 C84 1.499 . S
C89 H90 0.959 . S
C89 H91 0.960 . S
C89 H92 0.961 . S
H90 C89 0.959 . S
H91 C89 0.960 . S
H92 C89 0.961 . S
O93 Co68 1.967 . S
O93 C101 1.258 . S
O94 Co69 1.941 . S
O94 C101 1.266 . S
H95 C97 0.959 . S
H96 C97 0.961 . S
C97 C87 1.510 . S
C97 H95 0.959 . S
C97 H96 0.961 . S
C97 H98 0.960 . S
H98 C97 0.960 . S
H99 N79 0.862 . S
O100 Co68 1.920 . S
O100 C73 1.289 . S
C101 O93 1.258 . S
C101 O94 1.266 . S
Co102 O105 1.970 . S
Co102 N119 1.989 . S
Co102 O127 1.967 . S
Co102 O134 1.920 . S
Co103 O106 1.966 . S
Co103 N112 2.022 . S
Co103 N120 1.993 . S
Co103 O128 1.941 . S
C104 O105 1.258 . S
C104 O106 1.263 . S
O105 Co102 1.970 . S
O105 C104 1.258 . S
O106 Co103 1.966 . S
O106 C104 1.263 . S
C107 O108 1.235 . S
C107 O134 1.289 . S
O108 C107 1.235 . S
C109 C111 1.400 . S
C109 N112 1.351 . S
C109 C114 1.501 . S
C110 C111 1.387 . S
C110 N113 1.341 . S
C111 C109 1.400 . S
C111 C110 1.387 . S
N112 Co103 2.022 . S
N112 C109 1.351 . S
N112 N113 1.365 . S
N113 C110 1.341 . S
N113 N112 1.365 . S
N113 H133 0.862 . S
C114 C109 1.501 . S
C114 H115 0.961 . S
C114 H116 0.961 . S
C114 H117 0.960 . S
H115 C114 0.961 . S
H116 C114 0.961 . S
H117 C114 0.960 . S
C118 N119 1.342 . S
C118 C122 1.401 . S
C118 C123 1.499 . S
N119 Co102 1.989 . S
N119 C118 1.342 . S
N119 N120 1.388 . S
N120 Co103 1.993 . S
N120 N119 1.388 . S
N120 C121 1.346 . S
C121 N120 1.346 . S
C121 C122 1.396 . S
C121 C131 1.510 . S
C122 C118 1.401 . S
C122 C121 1.396 . S
C123 C118 1.499 . S
C123 H124 0.959 . S
C123 H125 0.960 . S
C123 H126 0.961 . S
H124 C123 0.959 . S
H125 C123 0.960 . S
H126 C123 0.961 . S
O127 Co102 1.967 . S
O127 C135 1.258 . S
O128 Co103 1.941 . S
O128 C135 1.266 . S
H129 C131 0.959 . S
H130 C131 0.961 . S
C131 C121 1.510 . S
C131 H129 0.959 . S
C131 H130 0.961 . S
C131 H132 0.960 . S
H132 C131 0.960 . S
H133 N113 0.862 . S
O134 Co102 1.920 . S
O134 C107 1.289 . S
C135 O127 1.258 . S
C135 O128 1.266 . S
Co136 O139 1.970 . S
Co136 N153 1.989 . S
Co136 O161 1.967 . S
Co136 O168 1.920 . S
Co137 O140 1.966 . S
Co137 N146 2.022 . S
Co137 N154 1.993 . S
Co137 O162 1.941 . S
C138 O139 1.258 . S
C138 O140 1.263 . S
O139 Co136 1.970 . S
O139 C138 1.258 . S
O140 Co137 1.966 . S
O140 C138 1.263 . S
C141 O142 1.235 . S
C141 O168 1.289 . S
O142 C141 1.235 . S
C143 C145 1.400 . S
C143 N146 1.351 . S
C143 C148 1.501 . S
C144 C145 1.387 . S
C144 N147 1.341 . S
C145 C143 1.400 . S
C145 C144 1.387 . S
N146 Co137 2.022 . S
N146 C143 1.351 . S
N146 N147 1.365 . S
N147 C144 1.341 . S
N147 N146 1.365 . S
N147 H167 0.862 . S
C148 C143 1.501 . S
C148 H149 0.961 . S
C148 H150 0.961 . S
C148 H151 0.960 . S
H149 C148 0.961 . S
H150 C148 0.961 . S
H151 C148 0.960 . S
C152 N153 1.342 1_545 S
C152 C156 1.401 . S
C152 C157 1.499 . S
N153 Co136 1.989 . S
N153 C152 1.342 1_565 S
N153 N154 1.388 . S
N154 Co137 1.993 . S
N154 N153 1.388 . S
N154 C155 1.346 1_565 S
C155 N154 1.346 1_545 S
C155 C156 1.396 . S
C155 C165 1.510 . S
C156 C152 1.401 . S
C156 C155 1.396 . S
C157 C152 1.499 . S
C157 H158 0.959 . S
C157 H159 0.960 . S
C157 H160 0.961 . S
H158 C157 0.959 . S
H159 C157 0.960 . S
H160 C157 0.961 . S
O161 Co136 1.967 . S
O161 C169 1.258 . S
O162 Co137 1.941 . S
O162 C169 1.266 . S
H163 C165 0.959 . S
H164 C165 0.961 . S
C165 C155 1.510 . S
C165 H163 0.959 . S
C165 H164 0.961 . S
C165 H166 0.960 . S
H166 C165 0.960 . S
H167 N147 0.862 . S
O168 Co136 1.920 . S
O168 C141 1.289 . S
C169 O161 1.258 . S
C169 O162 1.266 . S
Co170 O173 1.970 . S
Co170 N187 1.989 . S
Co170 O195 1.967 . S
Co170 O202 1.920 . S
Co171 O174 1.966 . S
Co171 N180 2.022 . S
Co171 N188 1.993 . S
Co171 O196 1.941 . S
C172 O173 1.258 . S
C172 O174 1.263 . S
O173 Co170 1.970 . S
O173 C172 1.258 . S
O174 Co171 1.966 . S
O174 C172 1.263 . S
C175 O176 1.235 . S
C175 O202 1.289 . S
O176 C175 1.235 . S
C177 C179 1.400 . S
C177 N180 1.351 . S
C177 C182 1.501 . S
C178 C179 1.387 . S
C178 N181 1.341 . S
C179 C177 1.400 . S
C179 C178 1.387 . S
N180 Co171 2.022 . S
N180 C177 1.351 . S
N180 N181 1.365 . S
N181 C178 1.341 . S
N181 N180 1.365 . S
N181 H201 0.862 . S
C182 C177 1.501 . S
C182 H183 0.961 . S
C182 H184 0.961 . S
C182 H185 0.960 . S
H183 C182 0.961 . S
H184 C182 0.961 . S
H185 C182 0.960 . S
C186 N187 1.342 . S
C186 C190 1.401 . S
C186 C191 1.499 . S
N187 Co170 1.989 . S
N187 C186 1.342 . S
N187 N188 1.388 . S
N188 Co171 1.993 . S
N188 N187 1.388 . S
N188 C189 1.346 . S
C189 N188 1.346 . S
C189 C190 1.396 . S
C189 C199 1.510 . S
C190 C186 1.401 . S
C190 C189 1.396 . S
C191 C186 1.499 . S
C191 H192 0.959 . S
C191 H193 0.960 . S
C191 H194 0.961 . S
H192 C191 0.959 . S
H193 C191 0.960 . S
H194 C191 0.961 . S
O195 Co170 1.967 . S
O195 C203 1.258 . S
O196 Co171 1.941 . S
O196 C203 1.266 . S
H197 C199 0.959 . S
H198 C199 0.961 . S
C199 C189 1.510 . S
C199 H197 0.959 . S
C199 H198 0.961 . S
C199 H200 0.960 . S
H200 C199 0.960 . S
H201 N181 0.862 . S
O202 Co170 1.920 . S
O202 C175 1.289 . S
C203 O195 1.258 . S
C203 O196 1.266 . S
Co204 O207 1.970 . S
Co204 N221 1.989 . S
Co204 O229 1.967 . S
Co204 O236 1.920 . S
Co205 O208 1.966 . S
Co205 N214 2.022 . S
Co205 N222 1.993 . S
Co205 O230 1.941 . S
C206 O207 1.258 . S
C206 O208 1.263 . S
O207 Co204 1.970 . S
O207 C206 1.258 . S
O208 Co205 1.966 . S
O208 C206 1.263 . S
C209 O210 1.235 . S
C209 O236 1.289 . S
O210 C209 1.235 . S
C211 C213 1.400 . S
C211 N214 1.351 . S
C211 C216 1.501 . S
C212 C213 1.387 . S
C212 N215 1.341 . S
C213 C211 1.400 . S
C213 C212 1.387 . S
N214 Co205 2.022 . S
N214 C211 1.351 . S
N214 N215 1.365 . S
N215 C212 1.341 . S
N215 N214 1.365 . S
N215 H235 0.862 . S
C216 C211 1.501 . S
C216 H217 0.961 . S
C216 H218 0.961 . S
C216 H219 0.960 . S
H217 C216 0.961 . S
H218 C216 0.961 . S
H219 C216 0.960 . S
C220 N221 1.342 1_565 S
C220 C224 1.401 . S
C220 C225 1.499 . S
N221 Co204 1.989 . S
N221 C220 1.342 1_545 S
N221 N222 1.388 . S
N222 Co205 1.993 . S
N222 N221 1.388 . S
N222 C223 1.346 1_545 S
C223 N222 1.346 1_565 S
C223 C224 1.396 . S
C223 C233 1.510 . S
C224 C220 1.401 . S
C224 C223 1.396 . S
C225 C220 1.499 . S
C225 H226 0.959 . S
C225 H227 0.960 . S
C225 H228 0.961 . S
H226 C225 0.959 . S
H227 C225 0.960 . S
H228 C225 0.961 . S
O229 Co204 1.967 . S
O229 C237 1.258 . S
O230 Co205 1.941 . S
O230 C237 1.266 . S
H231 C233 0.959 . S
H232 C233 0.961 . S
C233 C223 1.510 . S
C233 H231 0.959 . S
C233 H232 0.961 . S
C233 H234 0.960 . S
H234 C233 0.960 . S
H235 N215 0.862 . S
O236 Co204 1.920 . S
O236 C209 1.289 . S
C237 O229 1.258 . S
C237 O230 1.266 . S
Co238 O241 1.970 . S
Co238 N255 1.989 . S
Co238 O263 1.967 . S
Co238 O270 1.920 . S
Co239 O242 1.966 . S
Co239 N248 2.022 . S
Co239 N256 1.993 . S
Co239 O264 1.941 . S
C240 O241 1.258 . S
C240 O242 1.263 . S
O241 Co238 1.970 . S
O241 C240 1.258 . S
O242 Co239 1.966 . S
O242 C240 1.263 . S
C243 O244 1.235 . S
C243 O270 1.289 . S
O244 C243 1.235 . S
C245 C247 1.400 . S
C245 N248 1.351 . S
C245 C250 1.501 . S
C246 C247 1.387 . S
C246 N249 1.341 . S
C247 C245 1.400 . S
C247 C246 1.387 . S
N248 Co239 2.022 . S
N248 C245 1.351 . S
N248 N249 1.365 . S
N249 C246 1.341 . S
N249 N248 1.365 . S
N249 H269 0.862 . S
C250 C245 1.501 . S
C250 H251 0.961 . S
C250 H252 0.961 . S
C250 H253 0.960 . S
H251 C250 0.961 . S
H252 C250 0.961 . S
H253 C250 0.960 . S
C254 N255 1.342 . S
C254 C258 1.401 . S
C254 C259 1.499 . S
N255 Co238 1.989 . S
N255 C254 1.342 . S
N255 N256 1.388 . S
N256 Co239 1.993 . S
N256 N255 1.388 . S
N256 C257 1.346 . S
C257 N256 1.346 . S
C257 C258 1.396 . S
C257 C267 1.510 . S
C258 C254 1.401 . S
C258 C257 1.396 . S
C259 C254 1.499 . S
C259 H260 0.959 . S
C259 H261 0.960 . S
C259 H262 0.961 . S
H260 C259 0.959 . S
H261 C259 0.960 . S
H262 C259 0.961 . S
O263 Co238 1.967 . S
O263 C271 1.258 . S
O264 Co239 1.941 . S
O264 C271 1.266 . S
H265 C267 0.959 . S
H266 C267 0.961 . S
C267 C257 1.510 . S
C267 H265 0.959 . S
C267 H266 0.961 . S
C267 H268 0.960 . S
H268 C267 0.960 . S
H269 N249 0.862 . S
O270 Co238 1.920 . S
O270 C243 1.289 . S
C271 O263 1.258 . S
C271 O264 1.266 . S
Co272 O275 1.970 . S
Co272 N289 1.989 . S
Co272 O297 1.967 . S
Co272 O304 1.920 . S
Co273 O276 1.966 . S
Co273 N282 2.022 . S
Co273 N290 1.993 . S
Co273 O298 1.941 . S
C274 O275 1.258 . S
C274 O276 1.263 . S
O275 Co272 1.970 . S
O275 C274 1.258 . S
O276 Co273 1.966 . S
O276 C274 1.263 . S
C277 O278 1.235 . S
C277 O304 1.289 . S
O278 C277 1.235 . S
C279 C281 1.400 . S
C279 N282 1.351 . S
C279 C284 1.501 . S
C280 C281 1.387 . S
C280 N283 1.341 . S
C281 C279 1.400 . S
C281 C280 1.387 . S
N282 Co273 2.022 . S
N282 C279 1.351 . S
N282 N283 1.365 . S
N283 C280 1.341 . S
N283 N282 1.365 . S
N283 H303 0.862 . S
C284 C279 1.501 . S
C284 H285 0.961 . S
C284 H286 0.961 . S
C284 H287 0.960 . S
H285 C284 0.961 . S
H286 C284 0.961 . S
H287 C284 0.960 . S
C288 N289 1.342 1_545 S
C288 C292 1.401 . S
C288 C293 1.499 . S
N289 Co272 1.989 . S
N289 C288 1.342 1_565 S
N289 N290 1.388 . S
N290 Co273 1.993 . S
N290 N289 1.388 . S
N290 C291 1.346 1_565 S
C291 N290 1.346 1_545 S
C291 C292 1.396 . S
C291 C301 1.510 . S
C292 C288 1.401 . S
C292 C291 1.396 . S
C293 C288 1.499 . S
C293 H294 0.959 . S
C293 H295 0.960 . S
C293 H296 0.961 . S
H294 C293 0.959 . S
H295 C293 0.960 . S
H296 C293 0.961 . S
O297 Co272 1.967 . S
O297 C305 1.258 . S
O298 Co273 1.941 . S
O298 C305 1.266 . S
H299 C301 0.959 . S
H300 C301 0.961 . S
C301 C291 1.510 . S
C301 H299 0.959 . S
C301 H300 0.961 . S
C301 H302 0.960 . S
H302 C301 0.960 . S
H303 N283 0.862 . S
O304 Co272 1.920 . S
O304 C277 1.289 . S
C305 O297 1.258 . S
C305 O298 1.266 . S
Co306 O309 1.970 . S
Co306 N323 1.989 . S
Co306 O331 1.967 . S
Co306 O338 1.920 . S
Co307 O310 1.966 . S
Co307 N316 2.022 . S
Co307 N324 1.993 . S
Co307 O332 1.941 . S
C308 O309 1.258 . S
C308 O310 1.263 . S
O309 Co306 1.970 . S
O309 C308 1.258 . S
O310 Co307 1.966 . S
O310 C308 1.263 . S
C311 O312 1.235 . S
C311 O338 1.289 . S
O312 C311 1.235 . S
C313 C315 1.400 . S
C313 N316 1.351 . S
C313 C318 1.501 . S
C314 C315 1.387 . S
C314 N317 1.341 . S
C315 C313 1.400 . S
C315 C314 1.387 . S
N316 Co307 2.022 . S
N316 C313 1.351 . S
N316 N317 1.365 . S
N317 C314 1.341 . S
N317 N316 1.365 . S
N317 H337 0.862 . S
C318 C313 1.501 . S
C318 H319 0.961 . S
C318 H320 0.961 . S
C318 H321 0.960 . S
H319 C318 0.961 . S
H320 C318 0.961 . S
H321 C318 0.960 . S
C322 N323 1.342 . S
C322 C326 1.401 . S
C322 C327 1.499 . S
N323 Co306 1.989 . S
N323 C322 1.342 . S
N323 N324 1.388 . S
N324 Co307 1.993 . S
N324 N323 1.388 . S
N324 C325 1.346 . S
C325 N324 1.346 . S
C325 C326 1.396 . S
C325 C335 1.510 . S
C326 C322 1.401 . S
C326 C325 1.396 . S
C327 C322 1.499 . S
C327 H328 0.959 . S
C327 H329 0.960 . S
C327 H330 0.961 . S
H328 C327 0.959 . S
H329 C327 0.960 . S
H330 C327 0.961 . S
O331 Co306 1.967 . S
O331 C339 1.258 . S
O332 Co307 1.941 . S
O332 C339 1.266 . S
H333 C335 0.959 . S
H334 C335 0.961 . S
C335 C325 1.510 . S
C335 H333 0.959 . S
C335 H334 0.961 . S
C335 H336 0.960 . S
H336 C335 0.960 . S
H337 N317 0.862 . S
O338 Co306 1.920 . S
O338 C311 1.289 . S
C339 O331 1.258 . S
C339 O332 1.266 . S
Co340 O343 1.970 . S
Co340 N357 1.989 . S
Co340 O365 1.967 . S
Co340 O372 1.920 . S
Co341 O344 1.966 . S
Co341 N350 2.022 . S
Co341 N358 1.993 . S
Co341 O366 1.941 . S
C342 O343 1.258 . S
C342 O344 1.263 . S
O343 Co340 1.970 . S
O343 C342 1.258 . S
O344 Co341 1.966 . S
O344 C342 1.263 . S
C345 O346 1.235 . S
C345 O372 1.289 . S
O346 C345 1.235 . S
C347 C349 1.400 . S
C347 N350 1.351 . S
C347 C352 1.501 . S
C348 C349 1.387 . S
C348 N351 1.341 . S
C349 C347 1.400 . S
C349 C348 1.387 . S
N350 Co341 2.022 . S
N350 C347 1.351 . S
N350 N351 1.365 . S
N351 C348 1.341 . S
N351 N350 1.365 . S
N351 H371 0.862 . S
C352 C347 1.501 . S
C352 H353 0.961 . S
C352 H354 0.961 . S
C352 H355 0.960 . S
H353 C352 0.961 . S
H354 C352 0.961 . S
H355 C352 0.960 . S
C356 N357 1.342 1_565 S
C356 C360 1.401 . S
C356 C361 1.499 . S
N357 Co340 1.989 . S
N357 C356 1.342 1_545 S
N357 N358 1.388 . S
N358 Co341 1.993 . S
N358 N357 1.388 . S
N358 C359 1.346 1_545 S
C359 N358 1.346 1_565 S
C359 C360 1.396 . S
C359 C369 1.510 . S
C360 C356 1.401 . S
C360 C359 1.396 . S
C361 C356 1.499 . S
C361 H362 0.959 . S
C361 H363 0.960 . S
C361 H364 0.961 . S
H362 C361 0.959 . S
H363 C361 0.960 . S
H364 C361 0.961 . S
O365 Co340 1.967 . S
O365 C373 1.258 . S
O366 Co341 1.941 . S
O366 C373 1.266 . S
H367 C369 0.959 . S
H368 C369 0.961 . S
C369 C359 1.510 . S
C369 H367 0.959 . S
C369 H368 0.961 . S
C369 H370 0.960 . S
H370 C369 0.960 . S
H371 N351 0.862 . S
O372 Co340 1.920 . S
O372 C345 1.289 . S
C373 O365 1.258 . S
C373 O366 1.266 . S
Co374 O377 1.970 . S
Co374 N391 1.989 . S
Co374 O399 1.967 . S
Co374 O406 1.920 . S
Co375 O378 1.966 . S
Co375 N384 2.022 . S
Co375 N392 1.993 . S
Co375 O400 1.941 . S
C376 O377 1.258 . S
C376 O378 1.263 . S
O377 Co374 1.970 . S
O377 C376 1.258 . S
O378 Co375 1.966 . S
O378 C376 1.263 . S
C379 O380 1.235 . S
C379 O406 1.289 . S
O380 C379 1.235 . S
C381 C383 1.400 . S
C381 N384 1.351 . S
C381 C386 1.501 . S
C382 C383 1.387 . S
C382 N385 1.341 . S
C383 C381 1.400 . S
C383 C382 1.387 . S
N384 Co375 2.022 . S
N384 C381 1.351 . S
N384 N385 1.365 . S
N385 C382 1.341 . S
N385 N384 1.365 . S
N385 H405 0.862 . S
C386 C381 1.501 . S
C386 H387 0.961 . S
C386 H388 0.961 . S
C386 H389 0.960 . S
H387 C386 0.961 . S
H388 C386 0.961 . S
H389 C386 0.960 . S
C390 N391 1.342 . S
C390 C394 1.401 . S
C390 C395 1.499 . S
N391 Co374 1.989 . S
N391 C390 1.342 . S
N391 N392 1.388 . S
N392 Co375 1.993 . S
N392 N391 1.388 . S
N392 C393 1.346 . S
C393 N392 1.346 . S
C393 C394 1.396 . S
C393 C403 1.510 . S
C394 C390 1.401 . S
C394 C393 1.396 . S
C395 C390 1.499 . S
C395 H396 0.959 . S
C395 H397 0.960 . S
C395 H398 0.961 . S
H396 C395 0.959 . S
H397 C395 0.960 . S
H398 C395 0.961 . S
O399 Co374 1.967 . S
O399 C407 1.258 . S
O400 Co375 1.941 . S
O400 C407 1.266 . S
H401 C403 0.959 . S
H402 C403 0.961 . S
C403 C393 1.510 . S
C403 H401 0.959 . S
C403 H402 0.961 . S
C403 H404 0.960 . S
H404 C403 0.960 . S
H405 N385 0.862 . S
O406 Co374 1.920 . S
O406 C379 1.289 . S
C407 O399 1.258 . S
C407 O400 1.266 . S
Co408 O411 1.970 . S
Co408 N425 1.989 . S
Co408 O433 1.967 . S
Co408 O440 1.920 . S
Co409 O412 1.966 . S
Co409 N418 2.022 . S
Co409 N426 1.993 . S
Co409 O434 1.941 . S
C410 O411 1.258 . S
C410 O412 1.263 . S
O411 Co408 1.970 . S
O411 C410 1.258 . S
O412 Co409 1.966 . S
O412 C410 1.263 . S
C413 O414 1.235 . S
C413 O440 1.289 . S
O414 C413 1.235 . S
C415 C417 1.400 . S
C415 N418 1.351 . S
C415 C420 1.501 . S
C416 C417 1.387 . S
C416 N419 1.341 . S
C417 C415 1.400 . S
C417 C416 1.387 . S
N418 Co409 2.022 . S
N418 C415 1.351 . S
N418 N419 1.365 . S
N419 C416 1.341 . S
N419 N418 1.365 . S
N419 H439 0.862 . S
C420 C415 1.501 . S
C420 H421 0.961 . S
C420 H422 0.961 . S
C420 H423 0.960 . S
H421 C420 0.961 . S
H422 C420 0.961 . S
H423 C420 0.960 . S
C424 N425 1.342 1_565 S
C424 C428 1.401 . S
C424 C429 1.499 . S
N425 Co408 1.989 . S
N425 C424 1.342 1_545 S
N425 N426 1.388 . S
N426 Co409 1.993 . S
N426 N425 1.388 . S
N426 C427 1.346 1_545 S
C427 N426 1.346 1_565 S
C427 C428 1.396 . S
C427 C437 1.510 . S
C428 C424 1.401 . S
C428 C427 1.396 . S
C429 C424 1.499 . S
C429 H430 0.959 . S
C429 H431 0.960 . S
C429 H432 0.961 . S
H430 C429 0.959 . S
H431 C429 0.960 . S
H432 C429 0.961 . S
O433 Co408 1.967 . S
O433 C441 1.258 . S
O434 Co409 1.941 . S
O434 C441 1.266 . S
H435 C437 0.959 . S
H436 C437 0.961 . S
C437 C427 1.510 . S
C437 H435 0.959 . S
C437 H436 0.961 . S
C437 H438 0.960 . S
H438 C437 0.960 . S
H439 N419 0.862 . S
O440 Co408 1.920 . S
O440 C413 1.289 . S
C441 O433 1.258 . S
C441 O434 1.266 . S
Co442 O445 1.970 . S
Co442 N459 1.989 . S
Co442 O467 1.967 . S
Co442 O474 1.920 . S
Co443 O446 1.966 . S
Co443 N452 2.022 . S
Co443 N460 1.993 . S
Co443 O468 1.941 . S
C444 O445 1.258 . S
C444 O446 1.263 . S
O445 Co442 1.970 . S
O445 C444 1.258 . S
O446 Co443 1.966 . S
O446 C444 1.263 . S
C447 O448 1.235 . S
C447 O474 1.289 . S
O448 C447 1.235 . S
C449 C451 1.400 . S
C449 N452 1.351 . S
C449 C454 1.501 . S
C450 C451 1.387 . S
C450 N453 1.341 . S
C451 C449 1.400 . S
C451 C450 1.387 . S
N452 Co443 2.022 . S
N452 C449 1.351 . S
N452 N453 1.365 . S
N453 C450 1.341 . S
N453 N452 1.365 . S
N453 H473 0.862 . S
C454 C449 1.501 . S
C454 H455 0.961 . S
C454 H456 0.961 . S
C454 H457 0.960 . S
H455 C454 0.961 . S
H456 C454 0.961 . S
H457 C454 0.960 . S
C458 N459 1.342 . S
C458 C462 1.401 . S
C458 C463 1.499 . S
N459 Co442 1.989 . S
N459 C458 1.342 . S
N459 N460 1.388 . S
N460 Co443 1.993 . S
N460 N459 1.388 . S
N460 C461 1.346 . S
C461 N460 1.346 . S
C461 C462 1.396 . S
C461 C471 1.510 . S
C462 C458 1.401 . S
C462 C461 1.396 . S
C463 C458 1.499 . S
C463 H464 0.959 . S
C463 H465 0.960 . S
C463 H466 0.961 . S
H464 C463 0.959 . S
H465 C463 0.960 . S
H466 C463 0.961 . S
O467 Co442 1.967 . S
O467 C475 1.258 . S
O468 Co443 1.941 . S
O468 C475 1.266 . S
H469 C471 0.959 . S
H470 C471 0.961 . S
C471 C461 1.510 . S
C471 H469 0.959 . S
C471 H470 0.961 . S
C471 H472 0.960 . S
H472 C471 0.960 . S
H473 N453 0.862 . S
O474 Co442 1.920 . S
O474 C447 1.289 . S
C475 O467 1.258 . S
C475 O468 1.266 . S
Co476 O479 1.970 . S
Co476 N493 1.989 . S
Co476 O501 1.967 . S
Co476 O508 1.920 . S
Co477 O480 1.966 . S
Co477 N486 2.022 . S
Co477 N494 1.993 . S
Co477 O502 1.941 . S
C478 O479 1.258 . S
C478 O480 1.263 . S
O479 Co476 1.970 . S
O479 C478 1.258 . S
O480 Co477 1.966 . S
O480 C478 1.263 . S
C481 O482 1.235 . S
C481 O508 1.289 . S
O482 C481 1.235 . S
C483 C485 1.400 . S
C483 N486 1.351 . S
C483 C488 1.501 . S
C484 C485 1.387 . S
C484 N487 1.341 . S
C485 C483 1.400 . S
C485 C484 1.387 . S
N486 Co477 2.022 . S
N486 C483 1.351 . S
N486 N487 1.365 . S
N487 C484 1.341 . S
N487 N486 1.365 . S
N487 H507 0.862 . S
C488 C483 1.501 . S
C488 H489 0.961 . S
C488 H490 0.961 . S
C488 H491 0.960 . S
H489 C488 0.961 . S
H490 C488 0.961 . S
H491 C488 0.960 . S
C492 N493 1.342 1_545 S
C492 C496 1.401 . S
C492 C497 1.499 . S
N493 Co476 1.989 . S
N493 C492 1.342 1_565 S
N493 N494 1.388 . S
N494 Co477 1.993 . S
N494 N493 1.388 . S
N494 C495 1.346 1_565 S
C495 N494 1.346 1_545 S
C495 C496 1.396 . S
C495 C505 1.510 . S
C496 C492 1.401 . S
C496 C495 1.396 . S
C497 C492 1.499 . S
C497 H498 0.959 . S
C497 H499 0.960 . S
C497 H500 0.961 . S
H498 C497 0.959 . S
H499 C497 0.960 . S
H500 C497 0.961 . S
O501 Co476 1.967 . S
O501 C509 1.258 . S
O502 Co477 1.941 . S
O502 C509 1.266 . S
H503 C505 0.959 . S
H504 C505 0.961 . S
C505 C495 1.510 . S
C505 H503 0.959 . S
C505 H504 0.961 . S
C505 H506 0.960 . S
H506 C505 0.960 . S
H507 N487 0.862 . S
O508 Co476 1.920 . S
O508 C481 1.289 . S
C509 O501 1.258 . S
C509 O502 1.266 . S
Co510 O513 1.970 . S
Co510 N527 1.989 . S
Co510 O535 1.967 . S
Co510 O542 1.920 . S
Co511 O514 1.966 . S
Co511 N520 2.022 . S
Co511 N528 1.993 . S
Co511 O536 1.941 . S
C512 O513 1.258 . S
C512 O514 1.263 . S
O513 Co510 1.970 . S
O513 C512 1.258 . S
O514 Co511 1.966 . S
O514 C512 1.263 . S
C515 O516 1.235 . S
C515 O542 1.289 . S
O516 C515 1.235 . S
C517 C519 1.400 . S
C517 N520 1.351 . S
C517 C522 1.501 . S
C518 C519 1.387 . S
C518 N521 1.341 . S
C519 C517 1.400 . S
C519 C518 1.387 . S
N520 Co511 2.022 . S
N520 C517 1.351 . S
N520 N521 1.365 . S
N521 C518 1.341 . S
N521 N520 1.365 . S
N521 H541 0.862 . S
C522 C517 1.501 . S
C522 H523 0.961 . S
C522 H524 0.961 . S
C522 H525 0.960 . S
H523 C522 0.961 . S
H524 C522 0.961 . S
H525 C522 0.960 . S
C526 N527 1.342 . S
C526 C530 1.401 . S
C526 C531 1.499 . S
N527 Co510 1.989 . S
N527 C526 1.342 . S
N527 N528 1.388 . S
N528 Co511 1.993 . S
N528 N527 1.388 . S
N528 C529 1.346 . S
C529 N528 1.346 . S
C529 C530 1.396 . S
C529 C539 1.510 . S
C530 C526 1.401 . S
C530 C529 1.396 . S
C531 C526 1.499 . S
C531 H532 0.959 . S
C531 H533 0.960 . S
C531 H534 0.961 . S
H532 C531 0.959 . S
H533 C531 0.960 . S
H534 C531 0.961 . S
O535 Co510 1.967 . S
O535 C543 1.258 . S
O536 Co511 1.941 . S
O536 C543 1.266 . S
H537 C539 0.959 . S
H538 C539 0.961 . S
C539 C529 1.510 . S
C539 H537 0.959 . S
C539 H538 0.961 . S
C539 H540 0.960 . S
H540 C539 0.960 . S
H541 N521 0.862 . S
O542 Co510 1.920 . S
O542 C515 1.289 . S
C543 O535 1.258 . S
C543 O536 1.266 . S
Co544 O547 1.970 . S
Co544 N561 1.989 . S
Co544 O569 1.967 . S
Co544 O576 1.920 . S
Co545 O548 1.966 . S
Co545 N554 2.022 . S
Co545 N562 1.993 . S
Co545 O570 1.941 . S
C546 O547 1.258 . S
C546 O548 1.263 . S
O547 Co544 1.970 . S
O547 C546 1.258 . S
O548 Co545 1.966 . S
O548 C546 1.263 . S
C549 O550 1.235 . S
C549 O576 1.289 . S
O550 C549 1.235 . S
C551 C553 1.400 . S
C551 N554 1.351 . S
C551 C556 1.501 . S
C552 C553 1.387 . S
C552 N555 1.341 . S
C553 C551 1.400 . S
C553 C552 1.387 . S
N554 Co545 2.022 . S
N554 C551 1.351 . S
N554 N555 1.365 . S
N555 C552 1.341 . S
N555 N554 1.365 . S
N555 H575 0.862 . S
C556 C551 1.501 . S
C556 H557 0.961 . S
C556 H558 0.961 . S
C556 H559 0.960 . S
H557 C556 0.961 . S
H558 C556 0.961 . S
H559 C556 0.960 . S
C560 N561 1.342 . S
C560 C564 1.401 . S
C560 C565 1.499 . S
N561 Co544 1.989 . S
N561 C560 1.342 . S
N561 N562 1.388 . S
N562 Co545 1.993 . S
N562 N561 1.388 . S
N562 C563 1.346 . S
C563 N562 1.346 . S
C563 C564 1.396 . S
C563 C573 1.510 . S
C564 C560 1.401 . S
C564 C563 1.396 . S
C565 C560 1.499 . S
C565 H566 0.959 . S
C565 H567 0.960 . S
C565 H568 0.961 . S
H566 C565 0.959 . S
H567 C565 0.960 . S
H568 C565 0.961 . S
O569 Co544 1.967 . S
O569 C577 1.258 . S
O570 Co545 1.941 . S
O570 C577 1.266 . S
H571 C573 0.959 . S
H572 C573 0.961 . S
C573 C563 1.510 . S
C573 H571 0.959 . S
C573 H572 0.961 . S
C573 H574 0.960 . S
H574 C573 0.960 . S
H575 N555 0.862 . S
O576 Co544 1.920 . S
O576 C549 1.289 . S
C577 O569 1.258 . S
C577 O570 1.266 . S
Co578 O581 1.970 . S
Co578 N595 1.989 . S
Co578 O603 1.967 . S
Co578 O610 1.920 . S
Co579 O582 1.966 . S
Co579 N588 2.022 . S
Co579 N596 1.993 . S
Co579 O604 1.941 . S
C580 O581 1.258 . S
C580 O582 1.263 . S
O581 Co578 1.970 . S
O581 C580 1.258 . S
O582 Co579 1.966 . S
O582 C580 1.263 . S
C583 O584 1.235 . S
C583 O610 1.289 . S
O584 C583 1.235 . S
C585 C587 1.400 . S
C585 N588 1.351 . S
C585 C590 1.501 . S
C586 C587 1.387 . S
C586 N589 1.341 . S
C587 C585 1.400 . S
C587 C586 1.387 . S
N588 Co579 2.022 . S
N588 C585 1.351 . S
N588 N589 1.365 . S
N589 C586 1.341 . S
N589 N588 1.365 . S
N589 H609 0.862 . S
C590 C585 1.501 . S
C590 H591 0.961 . S
C590 H592 0.961 . S
C590 H593 0.960 . S
H591 C590 0.961 . S
H592 C590 0.961 . S
H593 C590 0.960 . S
C594 N595 1.342 . S
C594 C598 1.401 . S
C594 C599 1.499 . S
N595 Co578 1.989 . S
N595 C594 1.342 . S
N595 N596 1.388 . S
N596 Co579 1.993 . S
N596 N595 1.388 . S
N596 C597 1.346 . S
C597 N596 1.346 . S
C597 C598 1.396 . S
C597 C607 1.510 . S
C598 C594 1.401 . S
C598 C597 1.396 . S
C599 C594 1.499 . S
C599 H600 0.959 . S
C599 H601 0.960 . S
C599 H602 0.961 . S
H600 C599 0.959 . S
H601 C599 0.960 . S
H602 C599 0.961 . S
O603 Co578 1.967 . S
O603 C611 1.258 . S
O604 Co579 1.941 . S
O604 C611 1.266 . S
H605 C607 0.959 . S
H606 C607 0.961 . S
C607 C597 1.510 . S
C607 H605 0.959 . S
C607 H606 0.961 . S
C607 H608 0.960 . S
H608 C607 0.960 . S
H609 N589 0.862 . S
O610 Co578 1.920 . S
O610 C583 1.289 . S
C611 O603 1.258 . S
C611 O604 1.266 . S
Co612 O615 1.970 . S
Co612 N629 1.989 . S
Co612 O637 1.967 . S
Co612 O644 1.920 . S
Co613 O616 1.966 . S
Co613 N622 2.022 . S
Co613 N630 1.993 . S
Co613 O638 1.941 . S
C614 O615 1.258 . S
C614 O616 1.263 . S
O615 Co612 1.970 . S
O615 C614 1.258 . S
O616 Co613 1.966 . S
O616 C614 1.263 . S
C617 O618 1.235 . S
C617 O644 1.289 . S
O618 C617 1.235 . S
C619 C621 1.400 . S
C619 N622 1.351 . S
C619 C624 1.501 . S
C620 C621 1.387 . S
C620 N623 1.341 . S
C621 C619 1.400 . S
C621 C620 1.387 . S
N622 Co613 2.022 . S
N622 C619 1.351 . S
N622 N623 1.365 . S
N623 C620 1.341 . S
N623 N622 1.365 . S
N623 H643 0.862 . S
C624 C619 1.501 . S
C624 H625 0.961 . S
C624 H626 0.961 . S
C624 H627 0.960 . S
H625 C624 0.961 . S
H626 C624 0.961 . S
H627 C624 0.960 . S
C628 N629 1.342 . S
C628 C632 1.401 . S
C628 C633 1.499 . S
N629 Co612 1.989 . S
N629 C628 1.342 . S
N629 N630 1.388 . S
N630 Co613 1.993 . S
N630 N629 1.388 . S
N630 C631 1.346 . S
C631 N630 1.346 . S
C631 C632 1.396 . S
C631 C641 1.510 . S
C632 C628 1.401 . S
C632 C631 1.396 . S
C633 C628 1.499 . S
C633 H634 0.959 . S
C633 H635 0.960 . S
C633 H636 0.961 . S
H634 C633 0.959 . S
H635 C633 0.960 . S
H636 C633 0.961 . S
O637 Co612 1.967 . S
O637 C645 1.258 . S
O638 Co613 1.941 . S
O638 C645 1.266 . S
H639 C641 0.959 . S
H640 C641 0.961 . S
C641 C631 1.510 . S
C641 H639 0.959 . S
C641 H640 0.961 . S
C641 H642 0.960 . S
H642 C641 0.960 . S
H643 N623 0.862 . S
O644 Co612 1.920 . S
O644 C617 1.289 . S
C645 O637 1.258 . S
C645 O638 1.266 . S
Co646 O649 1.970 . S
Co646 N663 1.989 . S
Co646 O671 1.967 . S
Co646 O678 1.920 . S
Co647 O650 1.966 . S
Co647 N656 2.022 . S
Co647 N664 1.993 . S
Co647 O672 1.941 . S
C648 O649 1.258 . S
C648 O650 1.263 . S
O649 Co646 1.970 . S
O649 C648 1.258 . S
O650 Co647 1.966 . S
O650 C648 1.263 . S
C651 O652 1.235 . S
C651 O678 1.289 . S
O652 C651 1.235 . S
C653 C655 1.400 . S
C653 N656 1.351 . S
C653 C658 1.501 . S
C654 C655 1.387 . S
C654 N657 1.341 . S
C655 C653 1.400 . S
C655 C654 1.387 . S
N656 Co647 2.022 . S
N656 C653 1.351 . S
N656 N657 1.365 . S
N657 C654 1.341 . S
N657 N656 1.365 . S
N657 H677 0.862 . S
C658 C653 1.501 . S
C658 H659 0.961 . S
C658 H660 0.961 . S
C658 H661 0.960 . S
H659 C658 0.961 . S
H660 C658 0.961 . S
H661 C658 0.960 . S
C662 N663 1.342 . S
C662 C666 1.401 . S
C662 C667 1.499 . S
N663 Co646 1.989 . S
N663 C662 1.342 . S
N663 N664 1.388 . S
N664 Co647 1.993 . S
N664 N663 1.388 . S
N664 C665 1.346 . S
C665 N664 1.346 . S
C665 C666 1.396 . S
C665 C675 1.510 . S
C666 C662 1.401 . S
C666 C665 1.396 . S
C667 C662 1.499 . S
C667 H668 0.959 . S
C667 H669 0.960 . S
C667 H670 0.961 . S
H668 C667 0.959 . S
H669 C667 0.960 . S
H670 C667 0.961 . S
O671 Co646 1.967 . S
O671 C679 1.258 . S
O672 Co647 1.941 . S
O672 C679 1.266 . S
H673 C675 0.959 . S
H674 C675 0.961 . S
C675 C665 1.510 . S
C675 H673 0.959 . S
C675 H674 0.961 . S
C675 H676 0.960 . S
H676 C675 0.960 . S
H677 N657 0.862 . S
O678 Co646 1.920 . S
O678 C651 1.289 . S
C679 O671 1.258 . S
C679 O672 1.266 . S
Co680 O683 1.970 . S
Co680 N697 1.989 . S
Co680 O705 1.967 . S
Co680 O712 1.920 . S
Co681 O684 1.966 . S
Co681 N690 2.022 . S
Co681 N698 1.993 . S
Co681 O706 1.941 . S
C682 O683 1.258 . S
C682 O684 1.263 . S
O683 Co680 1.970 . S
O683 C682 1.258 . S
O684 Co681 1.966 . S
O684 C682 1.263 . S
C685 O686 1.235 . S
C685 O712 1.289 . S
O686 C685 1.235 . S
C687 C689 1.400 . S
C687 N690 1.351 . S
C687 C692 1.501 . S
C688 C689 1.387 . S
C688 N691 1.341 . S
C689 C687 1.400 . S
C689 C688 1.387 . S
N690 Co681 2.022 . S
N690 C687 1.351 . S
N690 N691 1.365 . S
N691 C688 1.341 . S
N691 N690 1.365 . S
N691 H711 0.862 . S
C692 C687 1.501 . S
C692 H693 0.961 . S
C692 H694 0.961 . S
C692 H695 0.960 . S
H693 C692 0.961 . S
H694 C692 0.961 . S
H695 C692 0.960 . S
C696 N697 1.342 . S
C696 C700 1.401 . S
C696 C701 1.499 . S
N697 Co680 1.989 . S
N697 C696 1.342 . S
N697 N698 1.388 . S
N698 Co681 1.993 . S
N698 N697 1.388 . S
N698 C699 1.346 . S
C699 N698 1.346 . S
C699 C700 1.396 . S
C699 C709 1.510 . S
C700 C696 1.401 . S
C700 C699 1.396 . S
C701 C696 1.499 . S
C701 H702 0.959 . S
C701 H703 0.960 . S
C701 H704 0.961 . S
H702 C701 0.959 . S
H703 C701 0.960 . S
H704 C701 0.961 . S
O705 Co680 1.967 . S
O705 C713 1.258 . S
O706 Co681 1.941 . S
O706 C713 1.266 . S
H707 C709 0.959 . S
H708 C709 0.961 . S
C709 C699 1.510 . S
C709 H707 0.959 . S
C709 H708 0.961 . S
C709 H710 0.960 . S
H710 C709 0.960 . S
H711 N691 0.862 . S
O712 Co680 1.920 . S
O712 C685 1.289 . S
C713 O705 1.258 . S
C713 O706 1.266 . S
Co714 O717 1.970 . S
Co714 N731 1.989 . S
Co714 O739 1.967 . S
Co714 O746 1.920 . S
Co715 O718 1.966 . S
Co715 N724 2.022 . S
Co715 N732 1.993 . S
Co715 O740 1.941 . S
C716 O717 1.258 . S
C716 O718 1.263 . S
O717 Co714 1.970 . S
O717 C716 1.258 . S
O718 Co715 1.966 . S
O718 C716 1.263 . S
C719 O720 1.235 . S
C719 O746 1.289 . S
O720 C719 1.235 . S
C721 C723 1.400 . S
C721 N724 1.351 . S
C721 C726 1.501 . S
C722 C723 1.387 . S
C722 N725 1.341 . S
C723 C721 1.400 . S
C723 C722 1.387 . S
N724 Co715 2.022 . S
N724 C721 1.351 . S
N724 N725 1.365 . S
N725 C722 1.341 . S
N725 N724 1.365 . S
N725 H745 0.862 . S
C726 C721 1.501 . S
C726 H727 0.961 . S
C726 H728 0.961 . S
C726 H729 0.960 . S
H727 C726 0.961 . S
H728 C726 0.961 . S
H729 C726 0.960 . S
C730 N731 1.342 . S
C730 C734 1.401 . S
C730 C735 1.499 . S
N731 Co714 1.989 . S
N731 C730 1.342 . S
N731 N732 1.388 . S
N732 Co715 1.993 . S
N732 N731 1.388 . S
N732 C733 1.346 . S
C733 N732 1.346 . S
C733 C734 1.396 . S
C733 C743 1.510 . S
C734 C730 1.401 . S
C734 C733 1.396 . S
C735 C730 1.499 . S
C735 H736 0.959 . S
C735 H737 0.960 . S
C735 H738 0.961 . S
H736 C735 0.959 . S
H737 C735 0.960 . S
H738 C735 0.961 . S
O739 Co714 1.967 . S
O739 C747 1.258 . S
O740 Co715 1.941 . S
O740 C747 1.266 . S
H741 C743 0.959 . S
H742 C743 0.961 . S
C743 C733 1.510 . S
C743 H741 0.959 . S
C743 H742 0.961 . S
C743 H744 0.960 . S
H744 C743 0.960 . S
H745 N725 0.862 . S
O746 Co714 1.920 . S
O746 C719 1.289 . S
C747 O739 1.258 . S
C747 O740 1.266 . S
Co748 O751 1.970 . S
Co748 N765 1.989 . S
Co748 O773 1.967 . S
Co748 O780 1.920 . S
Co749 O752 1.966 . S
Co749 N758 2.022 . S
Co749 N766 1.993 . S
Co749 O774 1.941 . S
C750 O751 1.258 . S
C750 O752 1.263 . S
O751 Co748 1.970 . S
O751 C750 1.258 . S
O752 Co749 1.966 . S
O752 C750 1.263 . S
C753 O754 1.235 . S
C753 O780 1.289 . S
O754 C753 1.235 . S
C755 C757 1.400 . S
C755 N758 1.351 . S
C755 C760 1.501 . S
C756 C757 1.387 . S
C756 N759 1.341 . S
C757 C755 1.400 . S
C757 C756 1.387 . S
N758 Co749 2.022 . S
N758 C755 1.351 . S
N758 N759 1.365 . S
N759 C756 1.341 . S
N759 N758 1.365 . S
N759 H779 0.862 . S
C760 C755 1.501 . S
C760 H761 0.961 . S
C760 H762 0.961 . S
C760 H763 0.960 . S
H761 C760 0.961 . S
H762 C760 0.961 . S
H763 C760 0.960 . S
C764 N765 1.342 . S
C764 C768 1.401 . S
C764 C769 1.499 . S
N765 Co748 1.989 . S
N765 C764 1.342 . S
N765 N766 1.388 . S
N766 Co749 1.993 . S
N766 N765 1.388 . S
N766 C767 1.346 . S
C767 N766 1.346 . S
C767 C768 1.396 . S
C767 C777 1.510 . S
C768 C764 1.401 . S
C768 C767 1.396 . S
C769 C764 1.499 . S
C769 H770 0.959 . S
C769 H771 0.960 . S
C769 H772 0.961 . S
H770 C769 0.959 . S
H771 C769 0.960 . S
H772 C769 0.961 . S
O773 Co748 1.967 . S
O773 C781 1.258 . S
O774 Co749 1.941 . S
O774 C781 1.266 . S
H775 C777 0.959 . S
H776 C777 0.961 . S
C777 C767 1.510 . S
C777 H775 0.959 . S
C777 H776 0.961 . S
C777 H778 0.960 . S
H778 C777 0.960 . S
H779 N759 0.862 . S
O780 Co748 1.920 . S
O780 C753 1.289 . S
C781 O773 1.258 . S
C781 O774 1.266 . S
Co782 O785 1.970 . S
Co782 N799 1.989 . S
Co782 O807 1.967 . S
Co782 O814 1.920 . S
Co783 O786 1.966 . S
Co783 N792 2.022 . S
Co783 N800 1.993 . S
Co783 O808 1.941 . S
C784 O785 1.258 . S
C784 O786 1.263 . S
O785 Co782 1.970 . S
O785 C784 1.258 . S
O786 Co783 1.966 . S
O786 C784 1.263 . S
C787 O788 1.235 . S
C787 O814 1.289 . S
O788 C787 1.235 . S
C789 C791 1.400 . S
C789 N792 1.351 . S
C789 C794 1.501 . S
C790 C791 1.387 . S
C790 N793 1.341 . S
C791 C789 1.400 . S
C791 C790 1.387 . S
N792 Co783 2.022 . S
N792 C789 1.351 . S
N792 N793 1.365 . S
N793 C790 1.341 . S
N793 N792 1.365 . S
N793 H813 0.862 . S
C794 C789 1.501 . S
C794 H795 0.961 . S
C794 H796 0.961 . S
C794 H797 0.960 . S
H795 C794 0.961 . S
H796 C794 0.961 . S
H797 C794 0.960 . S
C798 N799 1.342 . S
C798 C802 1.401 . S
C798 C803 1.499 . S
N799 Co782 1.989 . S
N799 C798 1.342 . S
N799 N800 1.388 . S
N800 Co783 1.993 . S
N800 N799 1.388 . S
N800 C801 1.346 . S
C801 N800 1.346 . S
C801 C802 1.396 . S
C801 C811 1.510 . S
C802 C798 1.401 . S
C802 C801 1.396 . S
C803 C798 1.499 . S
C803 H804 0.959 . S
C803 H805 0.960 . S
C803 H806 0.961 . S
H804 C803 0.959 . S
H805 C803 0.960 . S
H806 C803 0.961 . S
O807 Co782 1.967 . S
O807 C815 1.258 . S
O808 Co783 1.941 . S
O808 C815 1.266 . S
H809 C811 0.959 . S
H810 C811 0.961 . S
C811 C801 1.510 . S
C811 H809 0.959 . S
C811 H810 0.961 . S
C811 H812 0.960 . S
H812 C811 0.960 . S
H813 N793 0.862 . S
O814 Co782 1.920 . S
O814 C787 1.289 . S
C815 O807 1.258 . S
C815 O808 1.266 . S
Co816 O819 1.970 . S
Co816 N833 1.989 . S
Co816 O841 1.967 . S
Co816 O848 1.920 . S
Co817 O820 1.966 . S
Co817 N826 2.022 . S
Co817 N834 1.993 . S
Co817 O842 1.941 . S
C818 O819 1.258 . S
C818 O820 1.263 . S
O819 Co816 1.970 . S
O819 C818 1.258 . S
O820 Co817 1.966 . S
O820 C818 1.263 . S
C821 O822 1.235 . S
C821 O848 1.289 . S
O822 C821 1.235 . S
C823 C825 1.400 . S
C823 N826 1.351 . S
C823 C828 1.501 . S
C824 C825 1.387 . S
C824 N827 1.341 . S
C825 C823 1.400 . S
C825 C824 1.387 . S
N826 Co817 2.022 . S
N826 C823 1.351 . S
N826 N827 1.365 . S
N827 C824 1.341 . S
N827 N826 1.365 . S
N827 H847 0.862 . S
C828 C823 1.501 . S
C828 H829 0.961 . S
C828 H830 0.961 . S
C828 H831 0.960 . S
H829 C828 0.961 . S
H830 C828 0.961 . S
H831 C828 0.960 . S
C832 N833 1.342 . S
C832 C836 1.401 . S
C832 C837 1.499 . S
N833 Co816 1.989 . S
N833 C832 1.342 . S
N833 N834 1.388 . S
N834 Co817 1.993 . S
N834 N833 1.388 . S
N834 C835 1.346 . S
C835 N834 1.346 . S
C835 C836 1.396 . S
C835 C845 1.510 . S
C836 C832 1.401 . S
C836 C835 1.396 . S
C837 C832 1.499 . S
C837 H838 0.959 . S
C837 H839 0.960 . S
C837 H840 0.961 . S
H838 C837 0.959 . S
H839 C837 0.960 . S
H840 C837 0.961 . S
O841 Co816 1.967 . S
O841 C849 1.258 . S
O842 Co817 1.941 . S
O842 C849 1.266 . S
H843 C845 0.959 . S
H844 C845 0.961 . S
C845 C835 1.510 . S
C845 H843 0.959 . S
C845 H844 0.961 . S
C845 H846 0.960 . S
H846 C845 0.960 . S
H847 N827 0.862 . S
O848 Co816 1.920 . S
O848 C821 1.289 . S
C849 O841 1.258 . S
C849 O842 1.266 . S
Co850 O853 1.970 . S
Co850 N867 1.989 . S
Co850 O875 1.967 . S
Co850 O882 1.920 . S
Co851 O854 1.966 . S
Co851 N860 2.022 . S
Co851 N868 1.993 . S
Co851 O876 1.941 . S
C852 O853 1.258 . S
C852 O854 1.263 . S
O853 Co850 1.970 . S
O853 C852 1.258 . S
O854 Co851 1.966 . S
O854 C852 1.263 . S
C855 O856 1.235 . S
C855 O882 1.289 . S
O856 C855 1.235 . S
C857 C859 1.400 . S
C857 N860 1.351 . S
C857 C862 1.501 . S
C858 C859 1.387 . S
C858 N861 1.341 . S
C859 C857 1.400 . S
C859 C858 1.387 . S
N860 Co851 2.022 . S
N860 C857 1.351 . S
N860 N861 1.365 . S
N861 C858 1.341 . S
N861 N860 1.365 . S
N861 H881 0.862 . S
C862 C857 1.501 . S
C862 H863 0.961 . S
C862 H864 0.961 . S
C862 H865 0.960 . S
H863 C862 0.961 . S
H864 C862 0.961 . S
H865 C862 0.960 . S
C866 N867 1.342 . S
C866 C870 1.401 . S
C866 C871 1.499 . S
N867 Co850 1.989 . S
N867 C866 1.342 . S
N867 N868 1.388 . S
N868 Co851 1.993 . S
N868 N867 1.388 . S
N868 C869 1.346 . S
C869 N868 1.346 . S
C869 C870 1.396 . S
C869 C879 1.510 . S
C870 C866 1.401 . S
C870 C869 1.396 . S
C871 C866 1.499 . S
C871 H872 0.959 . S
C871 H873 0.960 . S
C871 H874 0.961 . S
H872 C871 0.959 . S
H873 C871 0.960 . S
H874 C871 0.961 . S
O875 Co850 1.967 . S
O875 C883 1.258 . S
O876 Co851 1.941 . S
O876 C883 1.266 . S
H877 C879 0.959 . S
H878 C879 0.961 . S
C879 C869 1.510 . S
C879 H877 0.959 . S
C879 H878 0.961 . S
C879 H880 0.960 . S
H880 C879 0.960 . S
H881 N861 0.862 . S
O882 Co850 1.920 . S
O882 C855 1.289 . S
C883 O875 1.258 . S
C883 O876 1.266 . S
Co884 O887 1.970 . S
Co884 N901 1.989 . S
Co884 O909 1.967 . S
Co884 O916 1.920 . S
Co885 O888 1.966 . S
Co885 N894 2.022 . S
Co885 N902 1.993 . S
Co885 O910 1.941 . S
C886 O887 1.258 . S
C886 O888 1.263 . S
O887 Co884 1.970 . S
O887 C886 1.258 . S
O888 Co885 1.966 . S
O888 C886 1.263 . S
C889 O890 1.235 . S
C889 O916 1.289 . S
O890 C889 1.235 . S
C891 C893 1.400 . S
C891 N894 1.351 . S
C891 C896 1.501 . S
C892 C893 1.387 . S
C892 N895 1.341 . S
C893 C891 1.400 . S
C893 C892 1.387 . S
N894 Co885 2.022 . S
N894 C891 1.351 . S
N894 N895 1.365 . S
N895 C892 1.341 . S
N895 N894 1.365 . S
N895 H915 0.862 . S
C896 C891 1.501 . S
C896 H897 0.961 . S
C896 H898 0.961 . S
C896 H899 0.960 . S
H897 C896 0.961 . S
H898 C896 0.961 . S
H899 C896 0.960 . S
C900 N901 1.342 . S
C900 C904 1.401 . S
C900 C905 1.499 . S
N901 Co884 1.989 . S
N901 C900 1.342 . S
N901 N902 1.388 . S
N902 Co885 1.993 . S
N902 N901 1.388 . S
N902 C903 1.346 . S
C903 N902 1.346 . S
C903 C904 1.396 . S
C903 C913 1.510 . S
C904 C900 1.401 . S
C904 C903 1.396 . S
C905 C900 1.499 . S
C905 H906 0.959 . S
C905 H907 0.960 . S
C905 H908 0.961 . S
H906 C905 0.959 . S
H907 C905 0.960 . S
H908 C905 0.961 . S
O909 Co884 1.967 . S
O909 C917 1.258 . S
O910 Co885 1.941 . S
O910 C917 1.266 . S
H911 C913 0.959 . S
H912 C913 0.961 . S
C913 C903 1.510 . S
C913 H911 0.959 . S
C913 H912 0.961 . S
C913 H914 0.960 . S
H914 C913 0.960 . S
H915 N895 0.862 . S
O916 Co884 1.920 . S
O916 C889 1.289 . S
C917 O909 1.258 . S
C917 O910 1.266 . S
Co918 O921 1.970 . S
Co918 N935 1.989 . S
Co918 O943 1.967 . S
Co918 O950 1.920 . S
Co919 O922 1.966 . S
Co919 N928 2.022 . S
Co919 N936 1.993 . S
Co919 O944 1.941 . S
C920 O921 1.258 . S
C920 O922 1.263 . S
O921 Co918 1.970 . S
O921 C920 1.258 . S
O922 Co919 1.966 . S
O922 C920 1.263 . S
C923 O924 1.235 . S
C923 O950 1.289 . S
O924 C923 1.235 . S
C925 C927 1.400 . S
C925 N928 1.351 . S
C925 C930 1.501 . S
C926 C927 1.387 . S
C926 N929 1.341 . S
C927 C925 1.400 . S
C927 C926 1.387 . S
N928 Co919 2.022 . S
N928 C925 1.351 . S
N928 N929 1.365 . S
N929 C926 1.341 . S
N929 N928 1.365 . S
N929 H949 0.862 . S
C930 C925 1.501 . S
C930 H931 0.961 . S
C930 H932 0.961 . S
C930 H933 0.960 . S
H931 C930 0.961 . S
H932 C930 0.961 . S
H933 C930 0.960 . S
C934 N935 1.342 . S
C934 C938 1.401 . S
C934 C939 1.499 . S
N935 Co918 1.989 . S
N935 C934 1.342 . S
N935 N936 1.388 . S
N936 Co919 1.993 . S
N936 N935 1.388 . S
N936 C937 1.346 . S
C937 N936 1.346 . S
C937 C938 1.396 . S
C937 C947 1.510 . S
C938 C934 1.401 . S
C938 C937 1.396 . S
C939 C934 1.499 . S
C939 H940 0.959 . S
C939 H941 0.960 . S
C939 H942 0.961 . S
H940 C939 0.959 . S
H941 C939 0.960 . S
H942 C939 0.961 . S
O943 Co918 1.967 . S
O943 C951 1.258 . S
O944 Co919 1.941 . S
O944 C951 1.266 . S
H945 C947 0.959 . S
H946 C947 0.961 . S
C947 C937 1.510 . S
C947 H945 0.959 . S
C947 H946 0.961 . S
C947 H948 0.960 . S
H948 C947 0.960 . S
H949 N929 0.862 . S
O950 Co918 1.920 . S
O950 C923 1.289 . S
C951 O943 1.258 . S
C951 O944 1.266 . S
Co952 O955 1.970 . S
Co952 N969 1.989 . S
Co952 O977 1.967 . S
Co952 O984 1.920 . S
Co953 O956 1.966 . S
Co953 N962 2.022 . S
Co953 N970 1.993 . S
Co953 O978 1.941 . S
C954 O955 1.258 . S
C954 O956 1.263 . S
O955 Co952 1.970 . S
O955 C954 1.258 . S
O956 Co953 1.966 . S
O956 C954 1.263 . S
C957 O958 1.235 . S
C957 O984 1.289 . S
O958 C957 1.235 . S
C959 C961 1.400 . S
C959 N962 1.351 . S
C959 C964 1.501 . S
C960 C961 1.387 . S
C960 N963 1.341 . S
C961 C959 1.400 . S
C961 C960 1.387 . S
N962 Co953 2.022 . S
N962 C959 1.351 . S
N962 N963 1.365 . S
N963 C960 1.341 . S
N963 N962 1.365 . S
N963 H983 0.862 . S
C964 C959 1.501 . S
C964 H965 0.961 . S
C964 H966 0.961 . S
C964 H967 0.960 . S
H965 C964 0.961 . S
H966 C964 0.961 . S
H967 C964 0.960 . S
C968 N969 1.342 . S
C968 C972 1.401 . S
C968 C973 1.499 . S
N969 Co952 1.989 . S
N969 C968 1.342 . S
N969 N970 1.388 . S
N970 Co953 1.993 . S
N970 N969 1.388 . S
N970 C971 1.346 . S
C971 N970 1.346 . S
C971 C972 1.396 . S
C971 C981 1.510 . S
C972 C968 1.401 . S
C972 C971 1.396 . S
C973 C968 1.499 . S
C973 H974 0.959 . S
C973 H975 0.960 . S
C973 H976 0.961 . S
H974 C973 0.959 . S
H975 C973 0.960 . S
H976 C973 0.961 . S
O977 Co952 1.967 . S
O977 C985 1.258 . S
O978 Co953 1.941 . S
O978 C985 1.266 . S
H979 C981 0.959 . S
H980 C981 0.961 . S
C981 C971 1.510 . S
C981 H979 0.959 . S
C981 H980 0.961 . S
C981 H982 0.960 . S
H982 C981 0.960 . S
H983 N963 0.862 . S
O984 Co952 1.920 . S
O984 C957 1.289 . S
C985 O977 1.258 . S
C985 O978 1.266 . S
Co986 O989 1.970 . S
Co986 N1003 1.989 . S
Co986 O1011 1.967 . S
Co986 O1018 1.920 . S
Co987 O990 1.966 . S
Co987 N996 2.022 . S
Co987 N1004 1.993 . S
Co987 O1012 1.941 . S
C988 O989 1.258 . S
C988 O990 1.263 . S
O989 Co986 1.970 . S
O989 C988 1.258 . S
O990 Co987 1.966 . S
O990 C988 1.263 . S
C991 O992 1.235 . S
C991 O1018 1.289 . S
O992 C991 1.235 . S
C993 C995 1.400 . S
C993 N996 1.351 . S
C993 C998 1.501 . S
C994 C995 1.387 . S
C994 N997 1.341 . S
C995 C993 1.400 . S
C995 C994 1.387 . S
N996 Co987 2.022 . S
N996 C993 1.351 . S
N996 N997 1.365 . S
N997 C994 1.341 . S
N997 N996 1.365 . S
N997 H1017 0.862 . S
C998 C993 1.501 . S
C998 H999 0.961 . S
C998 H1000 0.961 . S
C998 H1001 0.960 . S
H999 C998 0.961 . S
H1000 C998 0.961 . S
H1001 C998 0.960 . S
C1002 N1003 1.342 . S
C1002 C1006 1.401 . S
C1002 C1007 1.499 . S
N1003 Co986 1.989 . S
N1003 C1002 1.342 . S
N1003 N1004 1.388 . S
N1004 Co987 1.993 . S
N1004 N1003 1.388 . S
N1004 C1005 1.346 . S
C1005 N1004 1.346 . S
C1005 C1006 1.396 . S
C1005 C1015 1.510 . S
C1006 C1002 1.401 . S
C1006 C1005 1.396 . S
C1007 C1002 1.499 . S
C1007 H1008 0.959 . S
C1007 H1009 0.960 . S
C1007 H1010 0.961 . S
H1008 C1007 0.959 . S
H1009 C1007 0.960 . S
H1010 C1007 0.961 . S
O1011 Co986 1.967 . S
O1011 C1019 1.258 . S
O1012 Co987 1.941 . S
O1012 C1019 1.266 . S
H1013 C1015 0.959 . S
H1014 C1015 0.961 . S
C1015 C1005 1.510 . S
C1015 H1013 0.959 . S
C1015 H1014 0.961 . S
C1015 H1016 0.960 . S
H1016 C1015 0.960 . S
H1017 N997 0.862 . S
O1018 Co986 1.920 . S
O1018 C991 1.289 . S
C1019 O1011 1.258 . S
C1019 O1012 1.266 . S
Co1020 O1023 1.970 . S
Co1020 N1037 1.989 . S
Co1020 O1045 1.967 . S
Co1020 O1052 1.920 . S
Co1021 O1024 1.966 . S
Co1021 N1030 2.022 . S
Co1021 N1038 1.993 . S
Co1021 O1046 1.941 . S
C1022 O1023 1.258 . S
C1022 O1024 1.263 . S
O1023 Co1020 1.970 . S
O1023 C1022 1.258 . S
O1024 Co1021 1.966 . S
O1024 C1022 1.263 . S
C1025 O1026 1.235 . S
C1025 O1052 1.289 . S
O1026 C1025 1.235 . S
C1027 C1029 1.400 . S
C1027 N1030 1.351 . S
C1027 C1032 1.501 . S
C1028 C1029 1.387 . S
C1028 N1031 1.341 . S
C1029 C1027 1.400 . S
C1029 C1028 1.387 . S
N1030 Co1021 2.022 . S
N1030 C1027 1.351 . S
N1030 N1031 1.365 . S
N1031 C1028 1.341 . S
N1031 N1030 1.365 . S
N1031 H1051 0.862 . S
C1032 C1027 1.501 . S
C1032 H1033 0.961 . S
C1032 H1034 0.961 . S
C1032 H1035 0.960 . S
H1033 C1032 0.961 . S
H1034 C1032 0.961 . S
H1035 C1032 0.960 . S
C1036 N1037 1.342 . S
C1036 C1040 1.401 . S
C1036 C1041 1.499 . S
N1037 Co1020 1.989 . S
N1037 C1036 1.342 . S
N1037 N1038 1.388 . S
N1038 Co1021 1.993 . S
N1038 N1037 1.388 . S
N1038 C1039 1.346 . S
C1039 N1038 1.346 . S
C1039 C1040 1.396 . S
C1039 C1049 1.510 . S
C1040 C1036 1.401 . S
C1040 C1039 1.396 . S
C1041 C1036 1.499 . S
C1041 H1042 0.959 . S
C1041 H1043 0.960 . S
C1041 H1044 0.961 . S
H1042 C1041 0.959 . S
H1043 C1041 0.960 . S
H1044 C1041 0.961 . S
O1045 Co1020 1.967 . S
O1045 C1053 1.258 . S
O1046 Co1021 1.941 . S
O1046 C1053 1.266 . S
H1047 C1049 0.959 . S
H1048 C1049 0.961 . S
C1049 C1039 1.510 . S
C1049 H1047 0.959 . S
C1049 H1048 0.961 . S
C1049 H1050 0.960 . S
H1050 C1049 0.960 . S
H1051 N1031 0.862 . S
O1052 Co1020 1.920 . S
O1052 C1025 1.289 . S
C1053 O1045 1.258 . S
C1053 O1046 1.266 . S
Co1054 O1057 1.970 . S
Co1054 N1071 1.989 . S
Co1054 O1079 1.967 . S
Co1054 O1086 1.920 . S
Co1055 O1058 1.966 . S
Co1055 N1064 2.022 . S
Co1055 N1072 1.993 . S
Co1055 O1080 1.941 . S
C1056 O1057 1.258 . S
C1056 O1058 1.263 . S
O1057 Co1054 1.970 . S
O1057 C1056 1.258 . S
O1058 Co1055 1.966 . S
O1058 C1056 1.263 . S
C1059 O1060 1.235 . S
C1059 O1086 1.289 . S
O1060 C1059 1.235 . S
C1061 C1063 1.400 . S
C1061 N1064 1.351 . S
C1061 C1066 1.501 . S
C1062 C1063 1.387 . S
C1062 N1065 1.341 . S
C1063 C1061 1.400 . S
C1063 C1062 1.387 . S
N1064 Co1055 2.022 . S
N1064 C1061 1.351 . S
N1064 N1065 1.365 . S
N1065 C1062 1.341 . S
N1065 N1064 1.365 . S
N1065 H1085 0.862 . S
C1066 C1061 1.501 . S
C1066 H1067 0.961 . S
C1066 H1068 0.961 . S
C1066 H1069 0.960 . S
H1067 C1066 0.961 . S
H1068 C1066 0.961 . S
H1069 C1066 0.960 . S
C1070 N1071 1.342 . S
C1070 C1074 1.401 . S
C1070 C1075 1.499 . S
N1071 Co1054 1.989 . S
N1071 C1070 1.342 . S
N1071 N1072 1.388 . S
N1072 Co1055 1.993 . S
N1072 N1071 1.388 . S
N1072 C1073 1.346 . S
C1073 N1072 1.346 . S
C1073 C1074 1.396 . S
C1073 C1083 1.510 . S
C1074 C1070 1.401 . S
C1074 C1073 1.396 . S
C1075 C1070 1.499 . S
C1075 H1076 0.959 . S
C1075 H1077 0.960 . S
C1075 H1078 0.961 . S
H1076 C1075 0.959 . S
H1077 C1075 0.960 . S
H1078 C1075 0.961 . S
O1079 Co1054 1.967 . S
O1079 C1087 1.258 . S
O1080 Co1055 1.941 . S
O1080 C1087 1.266 . S
H1081 C1083 0.959 . S
H1082 C1083 0.961 . S
C1083 C1073 1.510 . S
C1083 H1081 0.959 . S
C1083 H1082 0.961 . S
C1083 H1084 0.960 . S
H1084 C1083 0.960 . S
H1085 N1065 0.862 . S
O1086 Co1054 1.920 . S
O1086 C1059 1.289 . S
C1087 O1079 1.258 . S
C1087 O1080 1.266 . S
C1088 C1089 1.387 . S
C1088 H1092 0.950 . S
C1088 C1097 1.390 . S
C1089 C1088 1.387 . S
C1089 C1091 1.387 . S
H1090 C1097 0.950 . S
C1091 C1089 1.387 . S
C1091 C1093 1.390 . S
C1091 H1095 0.950 . S
H1092 C1088 0.950 . S
C1093 C1091 1.390 . S
C1093 C1094 1.387 . S
C1093 H1096 0.950 . S
C1094 C1093 1.387 . S
C1094 C1097 1.387 . S
H1095 C1091 0.950 . S
H1096 C1093 0.950 . S
C1097 C1088 1.390 . S
C1097 H1090 0.950 . S
C1097 C1094 1.387 . S
C1098 C1099 1.387 . S
C1098 H1102 0.950 . S
C1098 C1107 1.390 . S
C1099 C1098 1.387 . S
C1099 C1101 1.388 . S
H1100 C1107 0.950 . S
C1101 C1099 1.388 . S
C1101 C1103 1.390 1_545 S
C1101 H1105 0.949 1_545 S
H1102 C1098 0.950 . S
C1103 C1101 1.390 1_565 S
C1103 C1104 1.387 . S
C1103 H1106 0.950 . S
C1104 C1103 1.387 . S
C1104 C1107 1.387 1_565 S
H1105 C1101 0.949 1_565 S
H1106 C1103 0.950 . S
C1107 C1098 1.390 . S
C1107 H1100 0.950 . S
C1107 C1104 1.387 1_545 S
C1108 C1109 1.387 . S
C1108 H1112 0.950 . S
C1108 C1117 1.390 . S
C1109 C1108 1.387 . S
C1109 C1111 1.387 . S
H1110 C1117 0.950 . S
C1111 C1109 1.387 . S
C1111 C1113 1.390 . S
C1111 H1115 0.950 . S
H1112 C1108 0.950 . S
C1113 C1111 1.390 . S
C1113 C1114 1.387 . S
C1113 H1116 0.950 . S
C1114 C1113 1.387 . S
C1114 C1117 1.387 . S
H1115 C1111 0.950 . S
H1116 C1113 0.950 . S
C1117 C1108 1.390 . S
C1117 H1110 0.950 . S
C1117 C1114 1.387 . S
C1118 C1119 1.387 . S
C1118 H1122 0.950 . S
C1118 C1127 1.390 . S
C1119 C1118 1.387 . S
C1119 C1121 1.387 1_565 S
H1120 C1127 0.950 1_655 S
C1121 C1119 1.387 1_545 S
C1121 C1123 1.390 . S
C1121 H1125 0.950 . S
H1122 C1118 0.950 . S
C1123 C1121 1.390 . S
C1123 C1124 1.387 1_455 S
C1123 H1126 0.950 . S
C1124 C1123 1.387 1_655 S
C1124 C1127 1.387 1_645 S
H1125 C1121 0.950 . S
H1126 C1123 0.950 . S
C1127 C1118 1.390 . S
C1127 H1120 0.950 1_455 S
C1127 C1124 1.387 1_465 S
C1128 C1129 1.387 . S
C1128 H1132 0.950 . S
C1128 C1137 1.390 . S
C1129 C1128 1.387 . S
C1129 C1131 1.387 . S
H1130 C1137 0.950 . S
C1131 C1129 1.387 . S
C1131 C1133 1.390 . S
C1131 H1135 0.950 . S
H1132 C1128 0.950 . S
C1133 C1131 1.390 . S
C1133 C1134 1.387 . S
C1133 H1136 0.950 . S
C1134 C1133 1.387 . S
C1134 C1137 1.387 . S
H1135 C1131 0.950 . S
H1136 C1133 0.950 . S
C1137 C1128 1.390 . S
C1137 H1130 0.950 . S
C1137 C1134 1.387 . S
C1138 C1139 1.387 . S
C1138 H1142 0.950 . S
C1138 C1147 1.390 . S
C1139 C1138 1.387 . S
C1139 C1141 1.387 . S
H1140 C1147 0.950 . S
C1141 C1139 1.387 . S
C1141 C1143 1.390 1_545 S
C1141 H1145 0.950 . S
H1142 C1138 0.950 . S
C1143 C1141 1.390 1_565 S
C1143 C1144 1.387 1_455 S
C1143 H1146 0.950 . S
C1144 C1143 1.387 1_655 S
C1144 C1147 1.387 1_665 S
H1145 C1141 0.950 . S
H1146 C1143 0.950 . S
C1147 C1138 1.390 . S
C1147 H1140 0.950 . S
C1147 C1144 1.387 1_445 S
C1148 C1149 1.387 . S
C1148 H1152 0.950 . S
C1148 C1157 1.390 . S
C1149 C1148 1.387 . S
C1149 C1151 1.387 . S
H1150 C1157 0.950 . S
C1151 C1149 1.387 . S
C1151 C1153 1.390 . S
C1151 H1155 0.950 . S
H1152 C1148 0.950 . S
C1153 C1151 1.390 . S
C1153 C1154 1.387 . S
C1153 H1156 0.950 . S
C1154 C1153 1.387 . S
C1154 C1157 1.387 . S
H1155 C1151 0.950 . S
H1156 C1153 0.950 . S
C1157 C1148 1.390 . S
C1157 H1150 0.950 . S
C1157 C1154 1.387 . S
C1158 C1159 1.387 . S
C1158 H1162 0.950 . S
C1158 C1167 1.390 1_545 S
C1159 C1158 1.387 . S
C1159 C1161 1.387 1_545 S
H1160 C1167 0.950 . S
C1161 C1159 1.387 1_565 S
C1161 C1163 1.390 . S
C1161 H1165 0.950 . S
H1162 C1158 0.950 . S
C1163 C1161 1.390 . S
C1163 C1164 1.387 . S
C1163 H1166 0.950 . S
C1164 C1163 1.387 . S
C1164 C1167 1.387 . S
H1165 C1161 0.950 . S
H1166 C1163 0.950 . S
C1167 C1158 1.390 1_565 S
C1167 H1160 0.950 . S
C1167 C1164 1.387 . S
C1168 C1169 1.387 . S
C1168 H1172 0.950 . S
C1168 C1177 1.390 . S
C1169 C1168 1.387 . S
C1169 C1171 1.387 . S
H1170 C1177 0.950 . S
C1171 C1169 1.387 . S
C1171 C1173 1.390 . S
C1171 H1175 0.950 . S
H1172 C1168 0.950 . S
C1173 C1171 1.390 . S
C1173 C1174 1.387 . S
C1173 H1176 0.950 . S
C1174 C1173 1.387 . S
C1174 C1177 1.387 . S
H1175 C1171 0.950 . S
H1176 C1173 0.950 . S
C1177 C1168 1.390 . S
C1177 H1170 0.950 . S
C1177 C1174 1.387 . S
C1178 C1179 1.387 . S
C1178 H1182 0.950 . S
C1178 C1187 1.390 . S
C1179 C1178 1.387 . S
C1179 C1181 1.387 . S
H1180 C1187 0.950 . S
C1181 C1179 1.387 . S
C1181 C1183 1.390 1_565 S
C1181 H1185 0.950 1_565 S
H1182 C1178 0.950 . S
C1183 C1181 1.390 1_545 S
C1183 C1184 1.387 . S
C1183 H1186 0.950 . S
C1184 C1183 1.387 . S
C1184 C1187 1.387 1_545 S
H1185 C1181 0.950 1_545 S
H1186 C1183 0.950 . S
C1187 C1178 1.390 . S
C1187 H1180 0.950 . S
C1187 C1184 1.387 1_565 S
C1188 C1189 1.387 . S
C1188 H1192 0.950 . S
C1188 C1197 1.390 . S
C1189 C1188 1.387 . S
C1189 C1191 1.387 . S
H1190 C1197 0.950 . S
C1191 C1189 1.387 . S
C1191 C1193 1.390 . S
C1191 H1195 0.950 . S
H1192 C1188 0.950 . S
C1193 C1191 1.390 . S
C1193 C1194 1.387 . S
C1193 H1196 0.950 . S
C1194 C1193 1.387 . S
C1194 C1197 1.387 . S
H1195 C1191 0.950 . S
H1196 C1193 0.950 . S
C1197 C1188 1.390 . S
C1197 H1190 0.950 . S
C1197 C1194 1.387 . S
C1198 C1199 1.387 1_655 S
C1198 H1202 0.958 . S
C1198 C1207 1.390 1_565 S
C1199 C1198 1.387 1_455 S
C1199 C1201 1.387 1_465 S
H1200 C1207 0.950 . S
C1201 C1199 1.387 1_645 S
C1201 C1203 1.390 . S
C1201 H1205 0.950 . S
H1202 C1198 0.958 . S
C1203 C1201 1.390 . S
C1203 C1204 1.387 . S
C1203 H1206 0.950 . S
C1204 C1203 1.387 . S
C1204 C1207 1.387 . S
H1205 C1201 0.950 . S
H1206 C1203 0.950 . S
C1207 C1198 1.390 1_545 S
C1207 H1200 0.950 . S
C1207 C1204 1.387 . S
C1208 C1209 1.387 . S
C1208 H1212 0.950 . S
C1208 C1217 1.390 . S
C1209 C1208 1.387 . S
C1209 C1211 1.387 . S
H1210 C1217 0.950 . S
C1211 C1209 1.387 . S
C1211 C1213 1.390 . S
C1211 H1215 0.950 . S
H1212 C1208 0.950 . S
C1213 C1211 1.390 . S
C1213 C1214 1.387 . S
C1213 H1216 0.950 . S
C1214 C1213 1.387 . S
C1214 C1217 1.387 . S
H1215 C1211 0.950 . S
H1216 C1213 0.950 . S
C1217 C1208 1.390 . S
C1217 H1210 0.950 . S
C1217 C1214 1.387 . S
C1218 C1219 1.387 1_655 S
C1218 H1222 0.950 . S
C1218 C1227 1.390 . S
C1219 C1218 1.387 1_455 S
C1219 C1221 1.387 1_445 S
H1220 C1227 0.950 . S
C1221 C1219 1.387 1_665 S
C1221 C1223 1.390 . S
C1221 H1225 0.950 1_655 S
H1222 C1218 0.950 . S
C1223 C1221 1.390 . S
C1223 C1224 1.387 . S
C1223 H1226 0.950 . S
C1224 C1223 1.387 . S
C1224 C1227 1.387 1_565 S
H1225 C1221 0.950 1_455 S
H1226 C1223 0.950 . S
C1227 C1218 1.390 . S
C1227 H1220 0.950 . S
C1227 C1224 1.387 1_545 S
C1228 C1229 1.387 . S
C1228 H1232 0.950 . S
C1228 C1237 1.390 . S
C1229 C1228 1.387 . S
C1229 C1231 1.387 . S
H1230 C1237 0.950 . S
C1231 C1229 1.387 . S
C1231 C1233 1.390 . S
C1231 H1235 0.950 . S
H1232 C1228 0.950 . S
C1233 C1231 1.390 . S
C1233 C1234 1.387 . S
C1233 H1236 0.950 . S
C1234 C1233 1.387 . S
C1234 C1237 1.387 . S
H1235 C1231 0.950 . S
H1236 C1233 0.950 . S
C1237 C1228 1.390 . S
C1237 H1230 0.950 . S
C1237 C1234 1.387 . S
C1238 C1239 1.387 . S
C1238 H1242 0.950 . S
C1238 C1247 1.390 . S
C1239 C1238 1.387 . S
C1239 C1241 1.393 . S
H1240 C1247 0.950 . S
C1241 C1239 1.393 . S
C1241 C1243 1.387 1_545 S
C1241 H1245 0.948 1_545 S
H1242 C1238 0.950 . S
C1243 C1241 1.387 1_565 S
C1243 C1244 1.387 . S
C1243 H1246 0.950 . S
C1244 C1243 1.387 . S
C1244 C1247 1.387 1_565 S
H1245 C1241 0.948 1_565 S
H1246 C1243 0.950 . S
C1247 C1238 1.390 . S
C1247 H1240 0.950 . S
C1247 C1244 1.387 1_545 S
C1248 C1249 1.387 . S
C1248 H1252 0.950 . S
C1248 C1257 1.390 . S
C1249 C1248 1.387 . S
C1249 C1251 1.387 . S
H1250 C1257 0.950 . S
C1251 C1249 1.387 . S
C1251 C1253 1.390 . S
C1251 H1255 0.950 . S
H1252 C1248 0.950 . S
C1253 C1251 1.390 . S
C1253 C1254 1.387 . S
C1253 H1256 0.950 . S
C1254 C1253 1.387 . S
C1254 C1257 1.387 . S
H1255 C1251 0.950 . S
H1256 C1253 0.950 . S
C1257 C1248 1.390 . S
C1257 H1250 0.950 . S
C1257 C1254 1.387 . S
C1258 C1259 1.387 1_655 S
C1258 H1262 0.950 . S
C1258 C1267 1.390 . S
C1259 C1258 1.387 1_455 S
C1259 C1261 1.387 1_455 S
H1260 C1267 0.950 . S
C1261 C1259 1.387 1_655 S
C1261 C1263 1.390 . S
C1261 H1265 0.950 . S
H1262 C1258 0.950 . S
C1263 C1261 1.390 . S
C1263 C1264 1.387 . S
C1263 H1266 0.950 . S
C1264 C1263 1.387 . S
C1264 C1267 1.387 . S
H1265 C1261 0.950 . S
H1266 C1263 0.950 . S
C1267 C1258 1.390 . S
C1267 H1260 0.950 . S
C1267 C1264 1.387 . S
C1268 C1269 1.387 . S
C1268 H1272 0.950 . S
C1268 C1277 1.390 . S
C1269 C1268 1.387 . S
C1269 C1271 1.387 . S
H1270 C1277 0.950 . S
C1271 C1269 1.387 . S
C1271 C1273 1.390 . S
C1271 H1275 0.950 . S
H1272 C1268 0.950 . S
C1273 C1271 1.390 . S
C1273 C1274 1.387 . S
C1273 H1276 0.950 . S
C1274 C1273 1.387 . S
C1274 C1277 1.387 . S
H1275 C1271 0.950 . S
H1276 C1273 0.950 . S
C1277 C1268 1.390 . S
C1277 H1270 0.950 . S
C1277 C1274 1.387 . S
C1278 C1279 1.387 . S
C1278 H1282 0.950 . S
C1278 C1287 1.390 . S
C1279 C1278 1.387 . S
C1279 C1281 1.387 . S
H1280 C1287 0.950 . S
C1281 C1279 1.387 . S
C1281 C1283 1.390 . S
C1281 H1285 0.950 . S
H1282 C1278 0.950 . S
C1283 C1281 1.390 . S
C1283 C1284 1.387 . S
C1283 H1286 0.950 . S
C1284 C1283 1.387 . S
C1284 C1287 1.387 . S
H1285 C1281 0.950 . S
H1286 C1283 0.950 . S
C1287 C1278 1.390 . S
C1287 H1280 0.950 . S
C1287 C1284 1.387 . S
C1288 C1289 1.387 . S
C1288 H1292 0.950 . S
C1288 C1297 1.390 . S
C1289 C1288 1.387 . S
C1289 C1291 1.387 . S
H1290 C1297 0.950 . S
C1291 C1289 1.387 . S
C1291 C1293 1.390 . S
C1291 H1295 0.950 . S
H1292 C1288 0.950 . S
C1293 C1291 1.390 . S
C1293 C1294 1.387 . S
C1293 H1296 0.950 . S
C1294 C1293 1.387 . S
C1294 C1297 1.387 . S
H1295 C1291 0.950 . S
H1296 C1293 0.950 . S
C1297 C1288 1.390 . S
C1297 H1290 0.950 . S
C1297 C1294 1.387 . S
C1298 C1299 1.387 . S
C1298 H1302 0.950 . S
C1298 C1307 1.390 . S
C1299 C1298 1.387 . S
C1299 C1301 1.387 . S
H1300 C1307 0.950 . S
C1301 C1299 1.387 . S
C1301 C1303 1.390 . S
C1301 H1305 0.950 . S
H1302 C1298 0.950 . S
C1303 C1301 1.390 . S
C1303 C1304 1.387 . S
C1303 H1306 0.950 . S
C1304 C1303 1.387 . S
C1304 C1307 1.387 . S
H1305 C1301 0.950 . S
H1306 C1303 0.950 . S
C1307 C1298 1.390 . S
C1307 H1300 0.950 . S
C1307 C1304 1.387 . S
C1308 C1309 1.387 . S
C1308 H1312 0.950 . S
C1308 C1317 1.390 . S
C1309 C1308 1.387 . S
C1309 C1311 1.387 . S
H1310 C1317 0.950 . S
C1311 C1309 1.387 . S
C1311 C1313 1.390 . S
C1311 H1315 0.950 . S
H1312 C1308 0.950 . S
C1313 C1311 1.390 . S
C1313 C1314 1.387 . S
C1313 H1316 0.950 . S
C1314 C1313 1.387 . S
C1314 C1317 1.387 . S
H1315 C1311 0.950 . S
H1316 C1313 0.950 . S
C1317 C1308 1.390 . S
C1317 H1310 0.950 . S
C1317 C1314 1.387 . S
C1318 C1319 1.387 1_655 S
C1318 H1322 0.950 . S
C1318 C1327 1.390 . S
C1319 C1318 1.387 1_455 S
C1319 C1321 1.387 1_455 S
H1320 C1327 0.950 . S
C1321 C1319 1.387 1_655 S
C1321 C1323 1.390 . S
C1321 H1325 0.950 . S
H1322 C1318 0.950 . S
C1323 C1321 1.390 . S
C1323 C1324 1.387 . S
C1323 H1326 0.950 . S
C1324 C1323 1.387 . S
C1324 C1327 1.387 . S
H1325 C1321 0.950 . S
H1326 C1323 0.950 . S
C1327 C1318 1.390 . S
C1327 H1320 0.950 . S
C1327 C1324 1.387 . S
C1328 C1329 1.387 . S
C1328 H1332 0.950 . S
C1328 C1337 1.390 . S
C1329 C1328 1.387 . S
C1329 C1331 1.387 . S
H1330 C1337 0.950 . S
C1331 C1329 1.387 . S
C1331 C1333 1.390 . S
C1331 H1335 0.950 . S
H1332 C1328 0.950 . S
C1333 C1331 1.390 . S
C1333 C1334 1.387 . S
C1333 H1336 0.950 . S
C1334 C1333 1.387 . S
C1334 C1337 1.387 . S
H1335 C1331 0.950 . S
H1336 C1333 0.950 . S
C1337 C1328 1.390 . S
C1337 H1330 0.950 . S
C1337 C1334 1.387 . S
C1338 C1339 1.387 1_455 S
C1338 H1342 0.957 . S
C1338 C1347 1.390 . S
C1339 C1338 1.387 1_655 S
C1339 C1341 1.387 1_655 S
H1340 C1347 0.950 . S
C1341 C1339 1.387 1_455 S
C1341 C1343 1.390 . S
C1341 H1345 0.950 . S
H1342 C1338 0.957 . S
C1343 C1341 1.390 . S
C1343 C1344 1.387 . S
C1343 H1346 0.950 . S
C1344 C1343 1.387 . S
C1344 C1347 1.387 . S
H1345 C1341 0.950 . S
H1346 C1343 0.950 . S
C1347 C1338 1.390 . S
C1347 H1340 0.950 . S
C1347 C1344 1.387 . S
C1348 C1349 1.387 . S
C1348 H1352 0.950 . S
C1348 C1357 1.390 . S
C1349 C1348 1.387 . S
C1349 C1351 1.387 . S
H1350 C1357 0.950 . S
C1351 C1349 1.387 . S
C1351 C1353 1.390 . S
C1351 H1355 0.950 . S
H1352 C1348 0.950 . S
C1353 C1351 1.390 . S
C1353 C1354 1.387 . S
C1353 H1356 0.950 . S
C1354 C1353 1.387 . S
C1354 C1357 1.387 . S
H1355 C1351 0.950 . S
H1356 C1353 0.950 . S
C1357 C1348 1.390 . S
C1357 H1350 0.950 . S
C1357 C1354 1.387 . S
C1358 C1359 1.387 . S
C1358 H1362 0.950 . S
C1358 C1367 1.390 . S
C1359 C1358 1.387 . S
C1359 C1361 1.387 . S
H1360 C1367 0.950 . S
C1361 C1359 1.387 . S
C1361 C1363 1.390 . S
C1361 H1365 0.950 . S
H1362 C1358 0.950 . S
C1363 C1361 1.390 . S
C1363 C1364 1.387 . S
C1363 H1366 0.950 . S
C1364 C1363 1.387 . S
C1364 C1367 1.387 . S
H1365 C1361 0.950 . S
H1366 C1363 0.950 . S
C1367 C1358 1.390 . S
C1367 H1360 0.950 . S
C1367 C1364 1.387 . S
C1368 C1369 1.387 . S
C1368 H1372 0.950 . S
C1368 C1377 1.390 . S
C1369 C1368 1.387 . S
C1369 C1371 1.387 . S
H1370 C1377 0.950 . S
C1371 C1369 1.387 . S
C1371 C1373 1.390 . S
C1371 H1375 0.950 . S
H1372 C1368 0.950 . S
C1373 C1371 1.390 . S
C1373 C1374 1.387 . S
C1373 H1376 0.950 . S
C1374 C1373 1.387 . S
C1374 C1377 1.387 . S
H1375 C1371 0.950 . S
H1376 C1373 0.950 . S
C1377 C1368 1.390 . S
C1377 H1370 0.950 . S
C1377 C1374 1.387 . S
C1378 C1379 1.387 . S
C1378 H1382 0.950 . S
C1378 C1387 1.390 . S
C1379 C1378 1.387 . S
C1379 C1381 1.387 . S
H1380 C1387 0.950 . S
C1381 C1379 1.387 . S
C1381 C1383 1.390 . S
C1381 H1385 0.950 . S
H1382 C1378 0.950 . S
C1383 C1381 1.390 . S
C1383 C1384 1.387 . S
C1383 H1386 0.950 . S
C1384 C1383 1.387 . S
C1384 C1387 1.387 . S
H1385 C1381 0.950 . S
H1386 C1383 0.950 . S
C1387 C1378 1.390 . S
C1387 H1380 0.950 . S
C1387 C1384 1.387 . S
C1388 C1389 1.387 . S
C1388 H1392 0.950 . S
C1388 C1397 1.390 . S
C1389 C1388 1.387 . S
C1389 C1391 1.387 . S
H1390 C1397 0.950 . S
C1391 C1389 1.387 . S
C1391 C1393 1.390 . S
C1391 H1395 0.950 . S
H1392 C1388 0.950 . S
C1393 C1391 1.390 . S
C1393 C1394 1.387 . S
C1393 H1396 0.950 . S
C1394 C1393 1.387 . S
C1394 C1397 1.387 . S
H1395 C1391 0.950 . S
H1396 C1393 0.950 . S
C1397 C1388 1.390 . S
C1397 H1390 0.950 . S
C1397 C1394 1.387 . S
C1398 C1399 1.387 1_455 S
C1398 H1402 0.950 . S
C1398 C1407 1.390 . S
C1399 C1398 1.387 1_655 S
C1399 C1401 1.387 1_655 S
H1400 C1407 0.950 . S
C1401 C1399 1.387 1_455 S
C1401 C1403 1.390 . S
C1401 H1405 0.950 . S
H1402 C1398 0.950 . S
C1403 C1401 1.390 . S
C1403 C1404 1.387 . S
C1403 H1406 0.950 . S
C1404 C1403 1.387 . S
C1404 C1407 1.387 . S
H1405 C1401 0.950 . S
H1406 C1403 0.950 . S
C1407 C1398 1.390 . S
C1407 H1400 0.950 . S
C1407 C1404 1.387 . S
C1408 C1409 1.387 . S
C1408 H1412 0.950 . S
C1408 C1417 1.390 . S
C1409 C1408 1.387 . S
C1409 C1411 1.387 . S
H1410 C1417 0.950 . S
C1411 C1409 1.387 . S
C1411 C1413 1.390 . S
C1411 H1415 0.950 . S
H1412 C1408 0.950 . S
C1413 C1411 1.390 . S
C1413 C1414 1.387 . S
C1413 H1416 0.950 . S
C1414 C1413 1.387 . S
C1414 C1417 1.387 . S
H1415 C1411 0.950 . S
H1416 C1413 0.950 . S
C1417 C1408 1.390 . S
C1417 H1410 0.950 . S
C1417 C1414 1.387 . S
C1418 C1419 1.387 . S
C1418 H1422 0.950 . S
C1418 C1427 1.390 1_455 S
C1419 C1418 1.387 . S
C1419 C1421 1.387 . S
H1420 C1427 0.950 . S
C1421 C1419 1.387 . S
C1421 C1423 1.390 1_455 S
C1421 H1425 0.950 . S
H1422 C1418 0.950 . S
C1423 C1421 1.390 1_655 S
C1423 C1424 1.387 . S
C1423 H1426 0.950 . S
C1424 C1423 1.387 . S
C1424 C1427 1.387 . S
H1425 C1421 0.950 . S
H1426 C1423 0.950 . S
C1427 C1418 1.390 1_655 S
C1427 H1420 0.950 . S
C1427 C1424 1.387 . S
C1428 C1429 1.387 . S
C1428 H1432 0.950 . S
C1428 C1437 1.390 1_655 S
C1429 C1428 1.387 . S
C1429 C1431 1.387 . S
H1430 C1437 0.950 . S
C1431 C1429 1.387 . S
C1431 C1433 1.390 1_655 S
C1431 H1435 0.950 . S
H1432 C1428 0.950 . S
C1433 C1431 1.390 1_455 S
C1433 C1434 1.387 . S
C1433 H1436 0.950 . S
C1434 C1433 1.387 . S
C1434 C1437 1.387 . S
H1435 C1431 0.950 . S
H1436 C1433 0.950 . S
C1437 C1428 1.390 1_455 S
C1437 H1430 0.950 . S
C1437 C1434 1.387 . S
C1438 C1439 1.387 . S
C1438 H1442 0.950 . S
C1438 C1447 1.390 . S
C1439 C1438 1.387 . S
C1439 C1441 1.387 . S
H1440 C1447 0.950 . S
C1441 C1439 1.387 . S
C1441 C1443 1.390 . S
C1441 H1445 0.950 . S
H1442 C1438 0.950 . S
C1443 C1441 1.390 . S
C1443 C1444 1.387 . S
C1443 H1446 0.950 . S
C1444 C1443 1.387 . S
C1444 C1447 1.387 . S
H1445 C1441 0.950 . S
H1446 C1443 0.950 . S
C1447 C1438 1.390 . S
C1447 H1440 0.950 . S
C1447 C1444 1.387 . S
C1448 C1449 1.387 . S
C1448 H1452 0.950 . S
C1448 C1457 1.390 . S
C1449 C1448 1.387 . S
C1449 C1451 1.387 . S
H1450 C1457 0.950 . S
C1451 C1449 1.387 . S
C1451 C1453 1.390 . S
C1451 H1455 0.950 . S
H1452 C1448 0.950 . S
C1453 C1451 1.390 . S
C1453 C1454 1.387 . S
C1453 H1456 0.950 . S
C1454 C1453 1.387 . S
C1454 C1457 1.387 . S
H1455 C1451 0.950 . S
H1456 C1453 0.950 . S
C1457 C1448 1.390 . S
C1457 H1450 0.950 . S
C1457 C1454 1.387 . S
C1458 C1459 1.387 . S
C1458 H1462 0.950 . S
C1458 C1467 1.390 . S
C1459 C1458 1.387 . S
C1459 C1461 1.387 . S
H1460 C1467 0.950 . S
C1461 C1459 1.387 . S
C1461 C1463 1.390 . S
C1461 H1465 0.950 . S
H1462 C1458 0.950 . S
C1463 C1461 1.390 . S
C1463 C1464 1.387 . S
C1463 H1466 0.950 . S
C1464 C1463 1.387 . S
C1464 C1467 1.387 . S
H1465 C1461 0.950 . S
H1466 C1463 0.950 . S
C1467 C1458 1.390 . S
C1467 H1460 0.950 . S
C1467 C1464 1.387 . S
C1468 C1469 1.387 . S
C1468 H1472 0.950 . S
C1468 C1477 1.390 1_455 S
C1469 C1468 1.387 . S
C1469 C1471 1.387 . S
H1470 C1477 0.950 . S
C1471 C1469 1.387 . S
C1471 C1473 1.390 1_455 S
C1471 H1475 0.950 . S
H1472 C1468 0.950 . S
C1473 C1471 1.390 1_655 S
C1473 C1474 1.387 . S
C1473 H1476 0.950 . S
C1474 C1473 1.387 . S
C1474 C1477 1.387 . S
H1475 C1471 0.950 . S
H1476 C1473 0.950 . S
C1477 C1468 1.390 1_655 S
C1477 H1470 0.950 . S
C1477 C1474 1.387 . S
C1478 C1479 1.387 . S
C1478 H1482 0.950 . S
C1478 C1487 1.390 1_655 S
C1479 C1478 1.387 . S
C1479 C1481 1.387 . S
H1480 C1487 0.950 . S
C1481 C1479 1.387 . S
C1481 C1483 1.390 1_655 S
C1481 H1485 0.950 . S
H1482 C1478 0.950 . S
C1483 C1481 1.390 1_455 S
C1483 C1484 1.387 . S
C1483 H1486 0.950 . S
C1484 C1483 1.387 . S
C1484 C1487 1.387 . S
H1485 C1481 0.950 . S
H1486 C1483 0.950 . S
C1487 C1478 1.390 1_455 S
C1487 H1480 0.950 . S
C1487 C1484 1.387 . S
C1488 C1489 1.387 . S
C1488 H1492 0.950 . S
C1488 C1497 1.390 . S
C1489 C1488 1.387 . S
C1489 C1491 1.387 . S
H1490 C1497 0.950 . S
C1491 C1489 1.387 . S
C1491 C1493 1.390 . S
C1491 H1495 0.950 . S
H1492 C1488 0.950 . S
C1493 C1491 1.390 . S
C1493 C1494 1.387 . S
C1493 H1496 0.950 . S
C1494 C1493 1.387 . S
C1494 C1497 1.387 . S
H1495 C1491 0.950 . S
H1496 C1493 0.950 . S
C1497 C1488 1.390 . S
C1497 H1490 0.950 . S
C1497 C1494 1.387 . S
C1498 C1499 1.387 . S
C1498 H1502 0.950 . S
C1498 C1507 1.390 1_655 S
C1499 C1498 1.387 . S
C1499 C1501 1.387 . S
H1500 C1507 0.950 . S
C1501 C1499 1.387 . S
C1501 C1503 1.390 1_655 S
C1501 H1505 0.950 . S
H1502 C1498 0.950 . S
C1503 C1501 1.390 1_455 S
C1503 C1504 1.387 . S
C1503 H1506 0.950 . S
C1504 C1503 1.387 . S
C1504 C1507 1.387 . S
H1505 C1501 0.950 . S
H1506 C1503 0.950 . S
C1507 C1498 1.390 1_455 S
C1507 H1500 0.950 . S
C1507 C1504 1.387 . S
C1508 C1509 1.387 . S
C1508 H1512 0.950 . S
C1508 C1517 1.390 1_455 S
C1509 C1508 1.387 . S
C1509 C1511 1.387 . S
H1510 C1517 0.950 . S
C1511 C1509 1.387 . S
C1511 C1513 1.390 1_455 S
C1511 H1515 0.950 . S
H1512 C1508 0.950 . S
C1513 C1511 1.390 1_655 S
C1513 C1514 1.387 . S
C1513 H1516 0.950 . S
C1514 C1513 1.387 . S
C1514 C1517 1.387 . S
H1515 C1511 0.950 . S
H1516 C1513 0.950 . S
C1517 C1508 1.390 1_655 S
C1517 H1510 0.950 . S
C1517 C1514 1.387 . S
C1518 C1519 1.387 . S
C1518 H1522 0.950 . S
C1518 C1527 1.390 . S
C1519 C1518 1.387 . S
C1519 C1521 1.387 . S
H1520 C1527 0.950 . S
C1521 C1519 1.387 . S
C1521 C1523 1.390 . S
C1521 H1525 0.950 . S
H1522 C1518 0.950 . S
C1523 C1521 1.390 . S
C1523 C1524 1.387 . S
C1523 H1526 0.950 . S
C1524 C1523 1.387 . S
C1524 C1527 1.387 . S
H1525 C1521 0.950 . S
H1526 C1523 0.950 . S
C1527 C1518 1.390 . S
C1527 H1520 0.950 . S
C1527 C1524 1.387 . S
C1528 C1529 1.387 . S
C1528 H1532 0.950 . S
C1528 C1537 1.390 . S
C1529 C1528 1.387 . S
C1529 C1531 1.387 . S
H1530 C1537 0.950 . S
C1531 C1529 1.387 . S
C1531 C1533 1.390 . S
C1531 H1535 0.950 . S
H1532 C1528 0.950 . S
C1533 C1531 1.390 . S
C1533 C1534 1.387 . S
C1533 H1536 0.950 . S
C1534 C1533 1.387 . S
C1534 C1537 1.387 . S
H1535 C1531 0.950 . S
H1536 C1533 0.950 . S
C1537 C1528 1.390 . S
C1537 H1530 0.950 . S
C1537 C1534 1.387 . S
C1538 C1539 1.387 . S
C1538 H1542 0.950 . S
C1538 C1547 1.390 . S
C1539 C1538 1.387 . S
C1539 C1541 1.387 . S
H1540 C1547 0.950 . S
C1541 C1539 1.387 . S
C1541 C1543 1.390 . S
C1541 H1545 0.950 . S
H1542 C1538 0.950 . S
C1543 C1541 1.390 . S
C1543 C1544 1.387 . S
C1543 H1546 0.950 . S
C1544 C1543 1.387 . S
C1544 C1547 1.387 . S
H1545 C1541 0.950 . S
H1546 C1543 0.950 . S
C1547 C1538 1.390 . S
C1547 H1540 0.950 . S
C1547 C1544 1.387 . S
C1548 C1549 1.387 . S
C1548 H1552 0.950 . S
C1548 C1557 1.390 1_455 S
C1549 C1548 1.387 . S
C1549 C1551 1.387 . S
H1550 C1557 0.950 . S
C1551 C1549 1.387 . S
C1551 C1553 1.390 1_455 S
C1551 H1555 0.950 . S
H1552 C1548 0.950 . S
C1553 C1551 1.390 1_655 S
C1553 C1554 1.387 . S
C1553 H1556 0.950 . S
C1554 C1553 1.387 . S
C1554 C1557 1.387 . S
H1555 C1551 0.950 . S
H1556 C1553 0.950 . S
C1557 C1548 1.390 1_655 S
C1557 H1550 0.950 . S
C1557 C1554 1.387 . S
C1558 C1559 1.387 . S
C1558 H1562 0.950 . S
C1558 C1567 1.390 1_455 S
C1559 C1558 1.387 . S
C1559 C1561 1.387 . S
H1560 C1567 0.950 . S
C1561 C1559 1.387 . S
C1561 C1563 1.390 1_455 S
C1561 H1565 0.950 . S
H1562 C1558 0.950 . S
C1563 C1561 1.390 1_655 S
C1563 C1564 1.387 . S
C1563 H1566 0.950 . S
C1564 C1563 1.387 . S
C1564 C1567 1.387 . S
H1565 C1561 0.950 . S
H1566 C1563 0.950 . S
C1567 C1558 1.390 1_655 S
C1567 H1560 0.950 . S
C1567 C1564 1.387 . S
C1568 C1569 1.387 . S
C1568 H1572 0.950 . S
C1568 C1577 1.390 . S
C1569 C1568 1.387 . S
C1569 C1571 1.387 . S
H1570 C1577 0.950 . S
C1571 C1569 1.387 . S
C1571 C1573 1.390 . S
C1571 H1575 0.950 . S
H1572 C1568 0.950 . S
C1573 C1571 1.390 . S
C1573 C1574 1.387 . S
C1573 H1576 0.950 . S
C1574 C1573 1.387 . S
C1574 C1577 1.387 . S
H1575 C1571 0.950 . S
H1576 C1573 0.950 . S
C1577 C1568 1.390 . S
C1577 H1570 0.950 . S
C1577 C1574 1.387 . S
C1578 C1579 1.387 . S
C1578 H1582 0.950 . S
C1578 C1587 1.390 . S
C1579 C1578 1.387 . S
C1579 C1581 1.387 . S
H1580 C1587 0.950 . S
C1581 C1579 1.387 . S
C1581 C1583 1.390 . S
C1581 H1585 0.950 . S
H1582 C1578 0.950 . S
C1583 C1581 1.390 . S
C1583 C1584 1.387 . S
C1583 H1586 0.950 . S
C1584 C1583 1.387 . S
C1584 C1587 1.387 . S
H1585 C1581 0.950 . S
H1586 C1583 0.950 . S
C1587 C1578 1.390 . S
C1587 H1580 0.950 . S
C1587 C1584 1.387 . S
C1588 C1589 1.387 . S
C1588 H1592 0.950 . S
C1588 C1597 1.390 . S
C1589 C1588 1.387 . S
C1589 C1591 1.387 . S
H1590 C1597 0.950 . S
C1591 C1589 1.387 . S
C1591 C1593 1.390 . S
C1591 H1595 0.950 . S
H1592 C1588 0.950 . S
C1593 C1591 1.390 . S
C1593 C1594 1.387 . S
C1593 H1596 0.950 . S
C1594 C1593 1.387 . S
C1594 C1597 1.387 . S
H1595 C1591 0.950 . S
H1596 C1593 0.950 . S
C1597 C1588 1.390 . S
C1597 H1590 0.950 . S
C1597 C1594 1.387 . S
C1598 C1599 1.387 . S
C1598 H1602 0.950 . S
C1598 C1607 1.390 . S
C1599 C1598 1.387 . S
C1599 C1601 1.387 . S
H1600 C1607 0.950 . S
C1601 C1599 1.387 . S
C1601 C1603 1.390 . S
C1601 H1605 0.950 . S
H1602 C1598 0.950 . S
C1603 C1601 1.390 . S
C1603 C1604 1.387 . S
C1603 H1606 0.950 . S
C1604 C1603 1.387 . S
C1604 C1607 1.387 . S
H1605 C1601 0.950 . S
H1606 C1603 0.950 . S
C1607 C1598 1.390 . S
C1607 H1600 0.950 . S
C1607 C1604 1.387 . S
C1608 C1609 1.387 . S
C1608 H1612 0.950 . S
C1608 C1617 1.390 . S
C1609 C1608 1.387 . S
C1609 C1611 1.387 . S
H1610 C1617 0.950 . S
C1611 C1609 1.387 . S
C1611 C1613 1.390 . S
C1611 H1615 0.950 . S
H1612 C1608 0.950 . S
C1613 C1611 1.390 . S
C1613 C1614 1.387 . S
C1613 H1616 0.950 . S
C1614 C1613 1.387 . S
C1614 C1617 1.387 . S
H1615 C1611 0.950 . S
H1616 C1613 0.950 . S
C1617 C1608 1.390 . S
C1617 H1610 0.950 . S
C1617 C1614 1.387 . S
C1618 C1619 1.387 . S
C1618 H1622 0.950 . S
C1618 C1627 1.390 . S
C1619 C1618 1.387 . S
C1619 C1621 1.387 . S
H1620 C1627 0.950 . S
C1621 C1619 1.387 . S
C1621 C1623 1.390 . S
C1621 H1625 0.950 . S
H1622 C1618 0.950 . S
C1623 C1621 1.390 . S
C1623 C1624 1.387 . S
C1623 H1626 0.950 . S
C1624 C1623 1.387 . S
C1624 C1627 1.387 . S
H1625 C1621 0.950 . S
H1626 C1623 0.950 . S
C1627 C1618 1.390 . S
C1627 H1620 0.950 . S
C1627 C1624 1.387 . S
C1628 C1629 1.387 . S
C1628 H1632 0.950 . S
C1628 C1637 1.390 . S
C1629 C1628 1.387 . S
C1629 C1631 1.387 . S
H1630 C1637 0.950 . S
C1631 C1629 1.387 . S
C1631 C1633 1.390 . S
C1631 H1635 0.950 . S
H1632 C1628 0.950 . S
C1633 C1631 1.390 . S
C1633 C1634 1.387 . S
C1633 H1636 0.950 . S
C1634 C1633 1.387 . S
C1634 C1637 1.387 . S
H1635 C1631 0.950 . S
H1636 C1633 0.950 . S
C1637 C1628 1.390 . S
C1637 H1630 0.950 . S
C1637 C1634 1.387 . S
C1638 C1639 1.387 . S
C1638 H1642 0.950 . S
C1638 C1647 1.390 . S
C1639 C1638 1.387 . S
C1639 C1641 1.387 . S
H1640 C1647 0.950 . S
C1641 C1639 1.387 . S
C1641 C1643 1.390 . S
C1641 H1645 0.950 . S
H1642 C1638 0.950 . S
C1643 C1641 1.390 . S
C1643 C1644 1.387 . S
C1643 H1646 0.950 . S
C1644 C1643 1.387 . S
C1644 C1647 1.387 . S
H1645 C1641 0.950 . S
H1646 C1643 0.950 . S
C1647 C1638 1.390 . S
C1647 H1640 0.950 . S
C1647 C1644 1.387 . S
C1648 C1649 1.387 . S
C1648 H1652 0.950 . S
C1648 C1657 1.390 . S
C1649 C1648 1.387 . S
C1649 C1651 1.387 . S
H1650 C1657 0.950 . S
C1651 C1649 1.387 . S
C1651 C1653 1.390 . S
C1651 H1655 0.950 . S
H1652 C1648 0.950 . S
C1653 C1651 1.390 . S
C1653 C1654 1.387 . S
C1653 H1656 0.950 . S
C1654 C1653 1.387 . S
C1654 C1657 1.387 . S
H1655 C1651 0.950 . S
H1656 C1653 0.950 . S
C1657 C1648 1.390 . S
C1657 H1650 0.950 . S
C1657 C1654 1.387 . S
C1658 C1659 1.387 . S
C1658 H1662 0.950 . S
C1658 C1667 1.390 . S
C1659 C1658 1.387 . S
C1659 C1661 1.387 . S
H1660 C1667 0.950 . S
C1661 C1659 1.387 . S
C1661 C1663 1.390 . S
C1661 H1665 0.950 . S
H1662 C1658 0.950 . S
C1663 C1661 1.390 . S
C1663 C1664 1.387 . S
C1663 H1666 0.950 . S
C1664 C1663 1.387 . S
C1664 C1667 1.387 . S
H1665 C1661 0.950 . S
H1666 C1663 0.950 . S
C1667 C1658 1.390 . S
C1667 H1660 0.950 . S
C1667 C1664 1.387 . S
C1668 C1669 1.387 . S
C1668 H1672 0.950 . S
C1668 C1677 1.390 . S
C1669 C1668 1.387 . S
C1669 C1671 1.387 . S
H1670 C1677 0.950 . S
C1671 C1669 1.387 . S
C1671 C1673 1.390 . S
C1671 H1675 0.950 . S
H1672 C1668 0.950 . S
C1673 C1671 1.390 . S
C1673 C1674 1.387 . S
C1673 H1676 0.950 . S
C1674 C1673 1.387 . S
C1674 C1677 1.387 . S
H1675 C1671 0.950 . S
H1676 C1673 0.950 . S
C1677 C1668 1.390 . S
C1677 H1670 0.950 . S
C1677 C1674 1.387 . S
C1678 C1679 1.387 . S
C1678 H1682 0.950 . S
C1678 C1687 1.390 . S
C1679 C1678 1.387 . S
C1679 C1681 1.387 . S
H1680 C1687 0.950 . S
C1681 C1679 1.387 . S
C1681 C1683 1.390 . S
C1681 H1685 0.950 . S
H1682 C1678 0.950 . S
C1683 C1681 1.390 . S
C1683 C1684 1.387 . S
C1683 H1686 0.950 . S
C1684 C1683 1.387 . S
C1684 C1687 1.387 . S
H1685 C1681 0.950 . S
H1686 C1683 0.950 . S
C1687 C1678 1.390 . S
C1687 H1680 0.950 . S
C1687 C1684 1.387 . S
C1688 C1689 1.387 . S
C1688 H1692 0.950 . S
C1688 C1697 1.390 . S
C1689 C1688 1.387 . S
C1689 C1691 1.387 . S
H1690 C1697 0.950 . S
C1691 C1689 1.387 . S
C1691 C1693 1.390 . S
C1691 H1695 0.950 . S
H1692 C1688 0.950 . S
C1693 C1691 1.390 . S
C1693 C1694 1.387 . S
C1693 H1696 0.950 . S
C1694 C1693 1.387 . S
C1694 C1697 1.387 . S
H1695 C1691 0.950 . S
H1696 C1693 0.950 . S
C1697 C1688 1.390 . S
C1697 H1690 0.950 . S
C1697 C1694 1.387 . S
C1698 C1699 1.387 . S
C1698 H1702 0.950 . S
C1698 C1707 1.390 . S
C1699 C1698 1.387 . S
C1699 C1701 1.387 . S
H1700 C1707 0.950 . S
C1701 C1699 1.387 . S
C1701 C1703 1.390 . S
C1701 H1705 0.950 . S
H1702 C1698 0.950 . S
C1703 C1701 1.390 . S
C1703 C1704 1.387 . S
C1703 H1706 0.950 . S
C1704 C1703 1.387 . S
C1704 C1707 1.387 . S
H1705 C1701 0.950 . S
H1706 C1703 0.950 . S
C1707 C1698 1.390 . S
C1707 H1700 0.950 . S
C1707 C1704 1.387 . S
C1708 C1709 1.387 . S
C1708 H1712 0.950 . S
C1708 C1717 1.390 . S
C1709 C1708 1.387 . S
C1709 C1711 1.387 . S
H1710 C1717 0.950 . S
C1711 C1709 1.387 . S
C1711 C1713 1.390 . S
C1711 H1715 0.950 . S
H1712 C1708 0.950 . S
C1713 C1711 1.390 . S
C1713 C1714 1.387 . S
C1713 H1716 0.950 . S
C1714 C1713 1.387 . S
C1714 C1717 1.387 . S
H1715 C1711 0.950 . S
H1716 C1713 0.950 . S
C1717 C1708 1.390 . S
C1717 H1710 0.950 . S
C1717 C1714 1.387 . S
C1718 C1719 1.387 . S
C1718 H1722 0.950 . S
C1718 C1727 1.390 . S
C1719 C1718 1.387 . S
C1719 C1721 1.387 . S
H1720 C1727 0.950 . S
C1721 C1719 1.387 . S
C1721 C1723 1.390 . S
C1721 H1725 0.950 . S
H1722 C1718 0.950 . S
C1723 C1721 1.390 . S
C1723 C1724 1.387 . S
C1723 H1726 0.950 . S
C1724 C1723 1.387 . S
C1724 C1727 1.387 . S
H1725 C1721 0.950 . S
H1726 C1723 0.950 . S
C1727 C1718 1.390 . S
C1727 H1720 0.950 . S
C1727 C1724 1.387 . S
C1728 C1729 1.387 . S
C1728 H1732 0.950 . S
C1728 C1737 1.390 1_565 S
C1729 C1728 1.387 . S
C1729 C1731 1.387 . S
H1730 C1737 0.950 . S
C1731 C1729 1.387 . S
C1731 C1733 1.390 1_565 S
C1731 H1735 0.950 . S
H1732 C1728 0.950 . S
C1733 C1731 1.390 1_545 S
C1733 C1734 1.387 . S
C1733 H1736 0.950 . S
C1734 C1733 1.387 . S
C1734 C1737 1.387 . S
H1735 C1731 0.950 . S
H1736 C1733 0.950 . S
C1737 C1728 1.390 1_545 S
C1737 H1730 0.950 . S
C1737 C1734 1.387 . S
C1738 C1739 1.387 . S
C1738 H1742 0.950 . S
C1738 C1747 1.390 . S
C1739 C1738 1.387 . S
C1739 C1741 1.387 . S
H1740 C1747 0.950 . S
C1741 C1739 1.387 . S
C1741 C1743 1.390 . S
C1741 H1745 0.950 . S
H1742 C1738 0.950 . S
C1743 C1741 1.390 . S
C1743 C1744 1.387 . S
C1743 H1746 0.950 . S
C1744 C1743 1.387 . S
C1744 C1747 1.387 . S
H1745 C1741 0.950 . S
H1746 C1743 0.950 . S
C1747 C1738 1.390 . S
C1747 H1740 0.950 . S
C1747 C1744 1.387 . S
C1748 C1749 1.387 . S
C1748 H1752 0.950 . S
C1748 C1757 1.390 1_565 S
C1749 C1748 1.387 . S
C1749 C1751 1.387 . S
H1750 C1757 0.950 . S
C1751 C1749 1.387 . S
C1751 C1753 1.390 1_565 S
C1751 H1755 0.950 . S
H1752 C1748 0.950 . S
C1753 C1751 1.390 1_545 S
C1753 C1754 1.387 . S
C1753 H1756 0.950 . S
C1754 C1753 1.387 . S
C1754 C1757 1.387 . S
H1755 C1751 0.950 . S
H1756 C1753 0.950 . S
C1757 C1748 1.390 1_545 S
C1757 H1750 0.950 . S
C1757 C1754 1.387 . S
C1758 C1759 1.387 . S
C1758 H1762 0.950 . S
C1758 C1767 1.390 1_554 S
C1759 C1758 1.387 . S
C1759 C1761 1.387 . S
H1760 C1767 0.950 . S
C1761 C1759 1.387 . S
C1761 C1763 1.390 1_554 S
C1761 H1765 0.950 . S
H1762 C1758 0.950 . S
C1763 C1761 1.390 1_556 S
C1763 C1764 1.387 . S
C1763 H1766 0.950 . S
C1764 C1763 1.387 . S
C1764 C1767 1.387 . S
H1765 C1761 0.950 . S
H1766 C1763 0.950 . S
C1767 C1758 1.390 1_556 S
C1767 H1760 0.950 . S
C1767 C1764 1.387 . S
C1768 C1769 1.387 . S
C1768 H1772 0.950 . S
C1768 C1777 1.390 1_545 S
C1769 C1768 1.387 . S
C1769 C1771 1.387 . S
H1770 C1777 0.950 . S
C1771 C1769 1.387 . S
C1771 C1773 1.390 1_545 S
C1771 H1775 0.950 . S
H1772 C1768 0.950 . S
C1773 C1771 1.390 1_565 S
C1773 C1774 1.387 . S
C1773 H1776 0.950 . S
C1774 C1773 1.387 . S
C1774 C1777 1.387 . S
H1775 C1771 0.950 . S
H1776 C1773 0.950 . S
C1777 C1768 1.390 1_565 S
C1777 H1770 0.950 . S
C1777 C1774 1.387 . S
C1778 C1779 1.387 . S
C1778 H1782 0.950 . S
C1778 C1787 1.390 . S
C1779 C1778 1.387 . S
C1779 C1781 1.387 . S
H1780 C1787 0.950 . S
C1781 C1779 1.387 . S
C1781 C1783 1.390 . S
C1781 H1785 0.950 . S
H1782 C1778 0.950 . S
C1783 C1781 1.390 . S
C1783 C1784 1.387 . S
C1783 H1786 0.950 . S
C1784 C1783 1.387 . S
C1784 C1787 1.387 . S
H1785 C1781 0.950 . S
H1786 C1783 0.950 . S
C1787 C1778 1.390 . S
C1787 H1780 0.950 . S
C1787 C1784 1.387 . S
C1788 C1789 1.387 . S
C1788 H1792 0.950 . S
C1788 C1797 1.390 1_565 S
C1789 C1788 1.387 . S
C1789 C1791 1.387 . S
H1790 C1797 0.950 . S
C1791 C1789 1.387 . S
C1791 C1793 1.390 1_565 S
C1791 H1795 0.950 . S
H1792 C1788 0.950 . S
C1793 C1791 1.390 1_545 S
C1793 C1794 1.387 . S
C1793 H1796 0.950 . S
C1794 C1793 1.387 . S
C1794 C1797 1.387 . S
H1795 C1791 0.950 . S
H1796 C1793 0.950 . S
C1797 C1788 1.390 1_545 S
C1797 H1790 0.950 . S
C1797 C1794 1.387 . S
C1798 C1799 1.387 . S
C1798 H1802 0.950 . S
C1798 C1807 1.390 1_556 S
C1799 C1798 1.387 . S
C1799 C1801 1.387 . S
H1800 C1807 0.950 . S
C1801 C1799 1.387 . S
C1801 C1803 1.390 1_556 S
C1801 H1805 0.950 . S
H1802 C1798 0.950 . S
C1803 C1801 1.390 1_554 S
C1803 C1804 1.387 . S
C1803 H1806 0.950 . S
C1804 C1803 1.387 . S
C1804 C1807 1.387 . S
H1805 C1801 0.950 . S
H1806 C1803 0.950 . S
C1807 C1798 1.390 1_554 S
C1807 H1800 0.950 . S
C1807 C1804 1.387 . S
C1808 C1809 1.387 . S
C1808 H1812 0.950 . S
C1808 C1817 1.390 . S
C1809 C1808 1.387 . S
C1809 C1811 1.387 . S
H1810 C1817 0.950 . S
C1811 C1809 1.387 . S
C1811 C1813 1.390 . S
C1811 H1815 0.950 . S
H1812 C1808 0.950 . S
C1813 C1811 1.390 . S
C1813 C1814 1.387 . S
C1813 H1816 0.950 . S
C1814 C1813 1.387 . S
C1814 C1817 1.387 . S
H1815 C1811 0.950 . S
H1816 C1813 0.950 . S
C1817 C1808 1.390 . S
C1817 H1810 0.950 . S
C1817 C1814 1.387 . S
C1818 C1819 1.387 . S
C1818 H1822 0.950 . S
C1818 C1827 1.390 1_556 S
C1819 C1818 1.387 . S
C1819 C1821 1.387 . S
H1820 C1827 0.950 . S
C1821 C1819 1.387 . S
C1821 C1823 1.390 1_556 S
C1821 H1825 0.950 . S
H1822 C1818 0.950 . S
C1823 C1821 1.390 1_554 S
C1823 C1824 1.387 . S
C1823 H1826 0.950 . S
C1824 C1823 1.387 . S
C1824 C1827 1.387 . S
H1825 C1821 0.950 . S
H1826 C1823 0.950 . S
C1827 C1818 1.390 1_554 S
C1827 H1820 0.950 . S
C1827 C1824 1.387 . S
C1828 C1829 1.387 . S
C1828 H1832 0.950 . S
C1828 C1837 1.390 . S
C1829 C1828 1.387 . S
C1829 C1831 1.387 . S
H1830 C1837 0.950 . S
C1831 C1829 1.387 . S
C1831 C1833 1.390 . S
C1831 H1835 0.950 . S
H1832 C1828 0.950 . S
C1833 C1831 1.390 . S
C1833 C1834 1.387 . S
C1833 H1836 0.950 . S
C1834 C1833 1.387 . S
C1834 C1837 1.387 . S
H1835 C1831 0.950 . S
H1836 C1833 0.950 . S
C1837 C1828 1.390 . S
C1837 H1830 0.950 . S
C1837 C1834 1.387 . S
C1838 C1839 1.387 . S
C1838 H1842 0.950 . S
C1838 C1847 1.390 . S
C1839 C1838 1.387 . S
C1839 C1841 1.387 . S
H1840 C1847 0.950 . S
C1841 C1839 1.387 . S
C1841 C1843 1.390 . S
C1841 H1845 0.950 . S
H1842 C1838 0.950 . S
C1843 C1841 1.390 . S
C1843 C1844 1.387 . S
C1843 H1846 0.950 . S
C1844 C1843 1.387 . S
C1844 C1847 1.387 . S
H1845 C1841 0.950 . S
H1846 C1843 0.950 . S
C1847 C1838 1.390 . S
C1847 H1840 0.950 . S
C1847 C1844 1.387 . S
C1848 C1849 1.387 . S
C1848 H1852 0.950 . S
C1848 C1857 1.390 . S
C1849 C1848 1.387 . S
C1849 C1851 1.387 . S
H1850 C1857 0.950 . S
C1851 C1849 1.387 . S
C1851 C1853 1.390 . S
C1851 H1855 0.950 . S
H1852 C1848 0.950 . S
C1853 C1851 1.390 . S
C1853 C1854 1.387 . S
C1853 H1856 0.950 . S
C1854 C1853 1.387 . S
C1854 C1857 1.387 . S
H1855 C1851 0.950 . S
H1856 C1853 0.950 . S
C1857 C1848 1.390 . S
C1857 H1850 0.950 . S
C1857 C1854 1.387 . S
C1858 C1859 1.387 . S
C1858 H1862 0.950 . S
C1858 C1867 1.390 1_556 S
C1859 C1858 1.387 . S
C1859 C1861 1.387 . S
H1860 C1867 0.950 . S
C1861 C1859 1.387 . S
C1861 C1863 1.390 1_556 S
C1861 H1865 0.950 . S
H1862 C1858 0.950 . S
C1863 C1861 1.390 1_554 S
C1863 C1864 1.387 . S
C1863 H1866 0.950 . S
C1864 C1863 1.387 . S
C1864 C1867 1.387 . S
H1865 C1861 0.950 . S
H1866 C1863 0.950 . S
C1867 C1858 1.390 1_554 S
C1867 H1860 0.950 . S
C1867 C1864 1.387 . S
C1868 C1869 1.387 . S
C1868 H1872 0.950 . S
C1868 C1877 1.390 . S
C1869 C1868 1.387 . S
C1869 C1871 1.387 . S
H1870 C1877 0.950 . S
C1871 C1869 1.387 . S
C1871 C1873 1.390 . S
C1871 H1875 0.950 . S
H1872 C1868 0.950 . S
C1873 C1871 1.390 . S
C1873 C1874 1.387 . S
C1873 H1876 0.950 . S
C1874 C1873 1.387 . S
C1874 C1877 1.387 . S
H1875 C1871 0.950 . S
H1876 C1873 0.950 . S
C1877 C1868 1.390 . S
C1877 H1870 0.950 . S
C1877 C1874 1.387 . S
C1878 C1879 1.387 . S
C1878 H1882 0.950 . S
C1878 C1887 1.390 . S
C1879 C1878 1.387 . S
C1879 C1881 1.387 . S
H1880 C1887 0.950 . S
C1881 C1879 1.387 . S
C1881 C1883 1.390 . S
C1881 H1885 0.950 . S
H1882 C1878 0.950 . S
C1883 C1881 1.390 . S
C1883 C1884 1.387 . S
C1883 H1886 0.950 . S
C1884 C1883 1.387 . S
C1884 C1887 1.387 . S
H1885 C1881 0.950 . S
H1886 C1883 0.950 . S
C1887 C1878 1.390 . S
C1887 H1880 0.950 . S
C1887 C1884 1.387 . S
C1089 C20 1.376 . S
C1094 C985 1.351 . S
C1099 C54 1.376 . S
C1104 C475 1.351 . S
C1109 C88 1.376 . S
C1114 C1053 1.351 . S
C1119 C122 1.375 . S
C1124 C543 1.351 . S
C1129 C849 1.348 . S
C1134 C156 1.374 . S
C1139 C190 1.376 . S
C1144 C339 1.351 . S
C1149 C224 1.376 . S
C1154 C917 1.351 . S
C1159 C407 1.348 . S
C1164 C258 1.374 . S
C1169 C713 1.348 . S
C1174 C292 1.374 . S
C1179 C326 1.374 . S
C1184 C203 1.348 . S
C1189 C360 1.376 . S
C1194 C781 1.351 . S
C1199 C271 1.351 . S
C1204 C394 1.376 . S
C1209 C577 1.348 . S
C1214 C428 1.374 . S
C1219 C67 1.351 . S
C1224 C462 1.375 . S
C1229 C496 1.374 . S
C1234 C645 1.348 . S
C1239 C530 1.374 . S
C1244 C135 1.348 . S
C1249 C564 1.374 . S
C1254 C441 1.348 . S
C1259 C1019 1.351 . S
C1264 C598 1.376 . S
C1269 C509 1.348 . S
C1274 C632 1.374 . S
C1279 C1087 1.351 . S
C1284 C666 1.376 . S
C1289 C305 1.351 . S
C1294 C700 1.376 . S
C1299 C734 1.376 . S
C1304 C883 1.351 . S
C1309 C373 1.348 . S
C1314 C768 1.374 . S
C1319 C951 1.351 . S
C1324 C802 1.376 . S
C1329 C169 1.348 . S
C1334 C836 1.374 . S
C1339 C747 1.351 . S
C1344 C870 1.376 . S
C1349 C237 1.351 . S
C1354 C904 1.376 . S
C1359 C815 1.351 . S
C1364 C938 1.376 . S
C1369 C33 1.351 . S
C1374 C972 1.376 . S
C1379 C611 1.351 . S
C1384 C1006 1.376 . S
C1389 C1040 1.374 . S
C1394 C101 1.348 . S
C1399 C679 1.351 . S
C1404 C1074 1.376 . S
C1409 C614 1.109 . S
C1414 C2 1.109 . S
C1419 C36 1.109 . S
C1424 C648 1.109 . S
C1429 C546 1.109 . S
C1434 C70 1.109 . S
C1439 C104 1.116 . S
C1444 C580 1.116 . S
C1449 C750 1.116 . S
C1454 C138 1.116 . S
C1459 C784 1.116 . S
C1464 C172 1.116 . S
C1469 C206 1.116 . S
C1474 C682 1.116 . S
C1479 C716 1.116 . S
C1484 C240 1.116 . S
C1489 C274 1.109 . S
C1494 C886 1.109 . S
C1499 C308 1.109 . S
C1504 C920 1.109 . S
C1509 C818 1.109 . S
C1514 C342 1.109 . S
C1519 C852 1.109 . S
C1524 C376 1.109 . S
C1529 C410 1.109 . S
C1534 C1022 1.109 . S
C1539 C1056 1.109 . S
C1544 C444 1.109 . S
C1549 C954 1.109 . S
C1554 C478 1.109 . S
C1559 C988 1.116 . S
C1564 C512 1.116 . S
C1569 C5 1.579 . S
C1574 C175 1.579 . S
C1579 C39 1.580 . S
C1584 C209 1.580 . S
C1589 C73 1.580 . S
C1594 C243 1.580 . S
C1599 C107 1.580 . S
C1604 C141 1.580 . S
C1609 C277 1.580 . S
C1614 C447 1.580 . S
C1619 C481 1.580 . S
C1624 C311 1.580 . S
C1629 C515 1.580 . S
C1634 C345 1.580 . S
C1639 C413 1.580 . S
C1644 C379 1.580 . S
C1649 C549 1.579 . S
C1654 C719 1.579 . S
C1659 C583 1.580 . S
C1664 C753 1.580 . S
C1669 C787 1.580 . S
C1674 C617 1.580 . S
C1679 C685 1.580 . S
C1684 C651 1.580 . S
C1689 C821 1.580 . S
C1694 C991 1.579 . S
C1699 C1025 1.580 . S
C1704 C855 1.580 . S
C1709 C1059 1.580 . S
C1714 C889 1.579 . S
C1719 C923 1.580 . S
C1724 C957 1.580 . S
C1729 C145 1.453 . S
C1734 C9 1.453 . S
C1739 C43 1.453 . S
C1744 C179 1.453 . S
C1749 C77 1.453 . S
C1754 C213 1.453 . S
C1759 C111 1.453 . S
C1764 C247 1.453 . S
C1769 C417 1.452 . S
C1774 C281 1.452 . S
C1779 C315 1.452 . S
C1784 C451 1.452 . S
C1789 C485 1.452 . S
C1794 C349 1.452 . S
C1799 C383 1.452 . S
C1804 C519 1.452 . S
C1809 C553 1.452 . S
C1814 C689 1.452 . S
C1819 C723 1.453 . S
C1824 C587 1.453 . S
C1829 C757 1.453 . S
C1834 C621 1.453 . S
C1839 C791 1.453 . S
C1844 C655 1.453 . S
C1849 C825 1.453 . S
C1854 C961 1.453 . S
C1859 C859 1.453 . S
C1864 C995 1.453 . S
C1869 C893 1.452 . S
C1874 C1029 1.452 . S
C1879 C927 1.453 . S
C1884 C1063 1.453 . S
