# Generated by pormake.
# Topology lhb, (8)-cn, num edge types: 1
# Building blocks:
#     Node 0, Type 0, BuildingBlock: AJUNOK_clean_sbu_0, # of connection points: 8
#     Node 1, Type 0, BuildingBlock: AJUNOK_clean_sbu_0, # of connection points: 8
#     Node 2, Type 0, BuildingBlock: AJUNOK_clean_sbu_0, # of connection points: 8
#     Node 3, Type 0, BuildingBlock: AJUNOK_clean_sbu_0, # of connection points: 8
#     Node 4, Type 0, BuildingBlock: AJUNOK_clean_sbu_0, # of connection points: 8
#     Node 5, Type 0, BuildingBlock: AJUNOK_clean_sbu_0, # of connection points: 8
#     Node 6, Type 0, BuildingBlock: AJUNOK_clean_sbu_0, # of connection points: 8
#     Node 7, Type 0, BuildingBlock: AJUNOK_clean_sbu_0, # of connection points: 8
#     Edge 8, Type (0, 0), BuildingBlock: TEMPAE_clean_linker_10, # of connection points: 2
#     Edge 9, Type (0, 0), BuildingBlock: TEMPAE_clean_linker_10, # of connection points: 2
#     Edge 10, Type (0, 0), BuildingBlock: TEMPAE_clean_linker_10, # of connection points: 2
#     Edge 11, Type (0, 0), BuildingBlock: TEMPAE_clean_linker_10, # of connection points: 2
#     Edge 12, Type (0, 0), BuildingBlock: TEMPAE_clean_linker_10, # of connection points: 2
#     Edge 13, Type (0, 0), BuildingBlock: TEMPAE_clean_linker_10, # of connection points: 2
#     Edge 14, Type (0, 0), BuildingBlock: TEMPAE_clean_linker_10, # of connection points: 2
#     Edge 15, Type (0, 0), BuildingBlock: TEMPAE_clean_linker_10, # of connection points: 2
#     Edge 16, Type (0, 0), BuildingBlock: TEMPAE_clean_linker_10, # of connection points: 2
#     Edge 17, Type (0, 0), BuildingBlock: TEMPAE_clean_linker_10, # of connection points: 2
#     Edge 18, Type (0, 0), BuildingBlock: TEMPAE_clean_linker_10, # of connection points: 2
#     Edge 19, Type (0, 0), BuildingBlock: TEMPAE_clean_linker_10, # of connection points: 2
#     Edge 20, Type (0, 0), BuildingBlock: TEMPAE_clean_linker_10, # of connection points: 2
#     Edge 21, Type (0, 0), BuildingBlock: TEMPAE_clean_linker_10, # of connection points: 2
#     Edge 22, Type (0, 0), BuildingBlock: TEMPAE_clean_linker_10, # of connection points: 2
#     Edge 23, Type (0, 0), BuildingBlock: TEMPAE_clean_linker_10, # of connection points: 2
#     Edge 24, Type (0, 0), BuildingBlock: TEMPAE_clean_linker_10, # of connection points: 2
#     Edge 25, Type (0, 0), BuildingBlock: TEMPAE_clean_linker_10, # of connection points: 2
#     Edge 26, Type (0, 0), BuildingBlock: TEMPAE_clean_linker_10, # of connection points: 2
#     Edge 27, Type (0, 0), BuildingBlock: TEMPAE_clean_linker_10, # of connection points: 2
#     Edge 28, Type (0, 0), BuildingBlock: TEMPAE_clean_linker_10, # of connection points: 2
#     Edge 29, Type (0, 0), BuildingBlock: TEMPAE_clean_linker_10, # of connection points: 2
#     Edge 30, Type (0, 0), BuildingBlock: TEMPAE_clean_linker_10, # of connection points: 2
#     Edge 31, Type (0, 0), BuildingBlock: TEMPAE_clean_linker_10, # of connection points: 2
#     Edge 32, Type (0, 0), BuildingBlock: TEMPAE_clean_linker_10, # of connection points: 2
#     Edge 33, Type (0, 0), BuildingBlock: TEMPAE_clean_linker_10, # of connection points: 2
#     Edge 34, Type (0, 0), BuildingBlock: TEMPAE_clean_linker_10, # of connection points: 2
#     Edge 35, Type (0, 0), BuildingBlock: TEMPAE_clean_linker_10, # of connection points: 2
#     Edge 36, Type (0, 0), BuildingBlock: TEMPAE_clean_linker_10, # of connection points: 2
#     Edge 37, Type (0, 0), BuildingBlock: TEMPAE_clean_linker_10, # of connection points: 2
#     Edge 38, Type (0, 0), BuildingBlock: TEMPAE_clean_linker_10, # of connection points: 2
#     Edge 39, Type (0, 0), BuildingBlock: TEMPAE_clean_linker_10, # of connection points: 2
# Relax obj value: 0.074
# Max RMSD: 0.163
# Mean RMSD: 0.163
data_MOF--net-lhb--node1-AJUNOK_clean_sbu_0--edge1-TEMPAE_clean_linker_10
_symmetry_space_group_name_H-M    P1
_symmetry_Int_Tables_number       1
_symmetry_cell_setting            triclinic
loop_
_symmetry_equiv_pos_as_xyz
'x, y, z'
_cell_length_a     33.907605
_cell_length_b     13.136022
_cell_length_c     77.220591
_cell_angle_alpha  90.028264
_cell_angle_beta   90.013937
_cell_angle_gamma 90.03203
loop_
_atom_site_label
_atom_site_type_symbol
_atom_site_fract_x
_atom_site_fract_y
_atom_site_fract_z
_atom_type_partial_charge
Cd0 Cd 0.06639 0.98652 0.01079 0.0
Cd1 Cd 0.92903 0.84352 0.01763 0.0
C2 C 0.03954 0.94538 0.9719 0.0
N3 N 0.05278 0.02532 0.98147 0.0
C4 C 0.06353 0.12267 0.95565 0.0
C5 C 0.05206 0.03909 0.94535 0.0
C6 C 0.03866 0.9508 0.95381 0.0
C7 C 0.06379 0.11404 0.97376 0.0
H8 H 0.03186 0.87494 0.9783 0.0
H9 H 0.07483 0.17621 0.98157 0.0
C10 C 0.96525 0.0598 0.00973 0.0
C11 C 0.86226 0.86526 0.04815 0.0
C12 C 0.8464 0.85729 0.06487 0.0
C13 C 0.87138 0.83731 0.07903 0.0
C14 C 0.9121 0.82801 0.07588 0.0
C15 C 0.92663 0.83624 0.059 0.0
N16 N 0.9017 0.85371 0.04554 0.0
H17 H 0.84297 0.87773 0.03718 0.0
H18 H 0.95775 0.82552 0.05653 0.0
C19 C 0.86911 0.95441 0.98905 0.0
N20 N 0.90549 0.91236 0.99111 0.0
C21 C 0.91819 0.92841 0.9607 0.0
C22 C 0.8808 0.97231 0.95802 0.0
C23 C 0.85639 0.98636 0.97264 0.0
C24 C 0.92997 0.89966 0.97733 0.0
H25 H 0.84992 0.96281 1.00015 0.0
H26 H 0.95835 0.86391 0.97923 0.0
C27 C 0.02496 0.77093 0.017 0.0
C28 C 0.14725 -0.00979 1.00359 0.0
N29 N 0.07198 0.05813 0.03915 0.0
C30 C 0.04844 0.02341 0.05217 0.0
C31 C 0.05652 0.04903 0.06948 0.0
C32 C 0.08957 0.10952 0.07348 0.0
C33 C 0.11231 0.14746 0.05973 0.0
C34 C 0.10289 0.12123 0.04264 0.0
C35 C 0.89216 0.66802 1.00414 0.0
O36 O -0.00611 -0.00026 0.01173 0.0
O37 O 0.93063 0.02719 0.01263 0.0
O38 O 0.00051 0.83322 0.02317 0.0
O39 O 0.05914 0.80197 0.01296 0.0
O40 O 0.12635 0.07081 1.003 0.0
O41 O 0.12999 0.90693 1.00735 0.0
O42 O 0.92438 0.69917 0.99762 0.0
O43 O 0.88095 0.71014 0.01809 0.0
H44 H 0.02441 0.97206 0.04921 0.0
H45 H 0.12145 0.14827 0.03227 0.0
H46 H 0.07362 0.19279 0.94976 0.0
H47 H 0.02998 0.88393 0.94654 0.0
H48 H 0.81491 0.86592 0.06666 0.0
H49 H 0.93248 0.81099 0.08628 0.0
H50 H 0.93794 0.91295 0.95001 0.0
H51 H 0.82757 0.02099 0.97147 0.0
H52 H 0.03824 0.01773 0.07967 0.0
H53 H 0.13771 0.19542 0.06218 0.0
Cd54 Cd 0.33321 0.17804 0.24911 0.0
Cd55 Cd 0.20391 0.29951 0.26324 0.0
C56 C 0.32561 0.28708 0.21324 0.0
N57 N 0.31038 0.20122 0.22039 0.0
C58 C 0.2822 0.15415 0.193 0.0
C59 C 0.29792 0.24262 0.18531 0.0
C60 C 0.31957 0.30962 0.19583 0.0
C61 C 0.28886 0.13473 0.21067 0.0
H62 H 0.34386 0.33682 0.22098 0.0
H63 H 0.27781 0.06544 0.2164 0.0
C64 C 0.23388 0.08938 0.25278 0.0
C65 C 0.15846 0.21257 0.29841 0.0
C66 C 0.14134 0.2201 0.31495 0.0
C67 C 0.1484 0.30667 0.32532 0.0
C68 C 0.17372 0.38223 0.31871 0.0
C69 C 0.19031 0.37133 0.30223 0.0
N70 N 0.18223 0.28814 0.29236 0.0
H71 H 0.15173 0.14804 0.29022 0.0
H72 H 0.20835 0.43173 0.29695 0.0
C73 C 0.15403 0.21046 0.22976 0.0
N74 N 0.18718 0.26383 0.23388 0.0
C75 C 0.20128 0.2891 0.20374 0.0
C76 C 0.16791 0.23169 0.19906 0.0
C77 C 0.14413 0.19229 0.21241 0.0
C78 C 0.2106 0.3034 0.22125 0.0
H79 H 0.13523 0.1818 0.23998 0.0
H80 H 0.23644 0.34684 0.22479 0.0
C81 C 0.30017 0.38312 0.26199 0.0
C82 C 0.40462 0.13573 0.23273 0.0
N83 N 0.35103 0.12183 0.2773 0.0
C84 C 0.38257 0.17234 0.28398 0.0
C85 C 0.3966 0.15008 0.30059 0.0
C86 C 0.3783 0.07411 0.31061 0.0
C87 C 0.34577 0.02254 0.3033 0.0
C88 C 0.33246 0.04796 0.28661 0.0
C89 C 0.15856 0.47211 0.25814 0.0
O90 O 0.26199 0.15214 0.2534 0.0
O91 O 0.20009 0.11822 0.25787 0.0
O92 O 0.27617 0.31491 0.26661 0.0
O93 O 0.33417 0.35644 0.25695 0.0
O94 O 0.38141 0.06204 0.23637 0.0
O95 O 0.39491 0.22468 0.2376 0.0
O96 O 0.19374 0.47091 0.25246 0.0
O97 O 0.14574 0.39461 0.26616 0.0
H98 H 0.3967 0.23123 0.2764 0.0
H99 H 0.30725 0.0089 0.2812 0.0
H100 H 0.26524 0.10021 0.18544 0.0
H101 H 0.3334 0.37708 0.19053 0.0
H102 H 0.12243 0.15922 0.31946 0.0
H103 H 0.17955 0.45138 0.3259 0.0
H104 H 0.22035 0.32162 0.19396 0.0
H105 H 0.11764 0.14952 0.20949 0.0
H106 H 0.4211 0.19387 0.30563 0.0
H107 H 0.33078 0.96272 0.31034 0.0
Cd108 Cd 0.68861 0.87562 0.2691 0.0
Cd109 Cd 0.81915 0.73603 0.26986 0.0
C110 C 0.63041 0.78635 0.23803 0.0
N111 N 0.66861 0.80774 0.24209 0.0
C112 C 0.68826 0.78027 0.21267 0.0
C113 C 0.64913 0.75891 0.20797 0.0
C114 C 0.62004 0.76054 0.22097 0.0
C115 C 0.6973 0.80466 0.22982 0.0
H116 H 0.60786 0.79229 0.24788 0.0
H117 H 0.72705 0.82503 0.23333 0.0
C118 C 0.7862 0.94943 0.27521 0.0
C119 C 0.81404 0.71848 0.3119 0.0
C120 C 0.82236 0.68477 0.32874 0.0
C121 C 0.84349 0.59387 0.33125 0.0
C122 C 0.85544 0.53864 0.31659 0.0
C123 C 0.84723 0.57624 0.3 0.0
N124 N 0.82664 0.66437 0.29792 0.0
H125 H 0.79843 0.7894 0.30997 0.0
H126 H 0.85784 0.53559 0.28877 0.0
C127 C 0.8073 0.81666 0.23196 0.0
N128 N 0.80296 0.72634 0.24032 0.0
C129 C 0.79266 0.64071 0.21328 0.0
C130 C 0.79777 0.73314 0.2043 0.0
C131 C 0.80448 0.82202 0.21397 0.0
C132 C 0.79547 0.63894 0.23142 0.0
H133 H 0.81427 0.88436 0.23929 0.0
H134 H 0.79329 0.56744 0.23829 0.0
C135 C 0.71747 0.65647 0.26658 0.0
C136 C 0.65945 0.05174 0.25356 0.0
N137 N 0.66193 0.88422 0.29704 0.0
C138 C 0.6225 0.8825 0.30035 0.0
C139 C 0.60851 0.90154 0.31714 0.0
C140 C 0.63546 0.92388 0.33046 0.0
C141 C 0.67594 0.92193 0.32669 0.0
C142 C 0.68857 0.90138 0.30987 0.0
C143 C 0.89543 0.70553 0.25795 0.0
O144 O 0.75939 0.88403 0.27611 0.0
O145 O 0.82156 0.91929 0.27508 0.0
O146 O 0.74605 0.71651 0.2685 0.0
O147 O 0.68268 0.69156 0.26701 0.0
O148 O 0.69276 0.01693 0.24888 0.0
O149 O 0.64259 0.00999 0.26644 0.0
O150 O 0.87189 0.63029 0.25965 0.0
O151 O 0.88312 0.7934 0.26228 0.0
H152 H 0.6019 0.86946 0.28988 0.0
H153 H 0.71973 0.90205 0.30691 0.0
H154 H 0.71162 0.77943 0.20312 0.0
H155 H 0.58942 0.74581 0.21787 0.0
H156 H 0.81255 0.72956 0.33971 0.0
H157 H 0.87211 0.46877 0.31794 0.0
H158 H 0.78749 0.57032 0.20633 0.0
H159 H 0.8094 0.89454 0.20766 0.0
H160 H 0.57705 0.90243 0.31956 0.0
H161 H 0.69767 0.93713 0.33665 0.0
Cd162 Cd 0.0426 0.51479 0.50867 0.0
Cd163 Cd 0.9092 0.38638 0.52254 0.0
C164 C 0.01732 0.39254 0.47391 0.0
N165 N 0.02428 0.48925 0.47942 0.0
C166 C 0.03406 0.5445 0.45016 0.0
C167 C 0.03014 0.44374 0.44413 0.0
C168 C 0.01959 0.36832 0.45626 0.0
C169 C 0.03087 0.56563 0.46789 0.0
H170 H 0.01281 0.33265 0.48332 0.0
H171 H 0.037 0.64166 0.47255 0.0
C172 C 0.95643 0.59507 0.52214 0.0
C173 C 0.92902 0.30034 0.56009 0.0
C174 C 0.92357 0.25335 0.57616 0.0
C175 C 0.89493 0.17651 0.5781 0.0
C176 C 0.87401 0.14557 0.5632 0.0
C177 C 0.88017 0.19551 0.54736 0.0
N178 N 0.90688 0.2725 0.54619 0.0
H179 H 0.94936 0.36346 0.55892 0.0
H180 H 0.86233 0.17602 0.53622 0.0
C181 C 0.89355 0.46968 0.48555 0.0
N182 N 0.9081 0.38092 0.49193 0.0
C183 C 0.91557 0.31579 0.46304 0.0
C184 C 0.89941 0.40607 0.45619 0.0
C185 C 0.88894 0.48388 0.46778 0.0
C186 C 0.91953 0.30446 0.48111 0.0
H187 H 0.88511 0.52966 0.49441 0.0
H188 H 0.93136 0.2347 0.48642 0.0
C189 C 0.01032 0.31263 0.52417 0.0
C190 C 0.11572 0.55153 0.49449 0.0
N191 N 0.05501 0.59266 0.53612 0.0
C192 C 0.08031 0.6727 0.53787 0.0
C193 C 0.09108 0.70814 0.55433 0.0
C194 C 0.07601 0.66057 0.56925 0.0
C195 C 0.04885 0.58056 0.567 0.0
C196 C 0.03894 0.54746 0.55031 0.0
C197 C 0.83178 0.45322 0.52602 0.0
O198 O 0.97167 0.54337 0.51005 0.0
O199 O 0.92681 0.55921 0.53002 0.0
O200 O 0.9814 0.37099 0.52131 0.0
O201 O 0.0446 0.34446 0.52057 0.0
O202 O 0.09184 0.62511 0.49706 0.0
O203 O 0.10521 0.46238 0.49898 0.0
O204 O 0.84029 0.37262 0.51757 0.0
O205 O 0.85984 0.5024 0.53309 0.0
H206 H 0.09302 0.70791 0.52653 0.0
H207 H 0.01894 0.48405 0.54871 0.0
H208 H 0.04251 0.60559 0.44153 0.0
H209 H 0.01511 0.29009 0.45231 0.0
H210 H 0.94005 0.28173 0.58715 0.0
H211 H 0.85208 0.08579 0.56388 0.0
H212 H 0.92415 0.2539 0.45458 0.0
H213 H 0.87714 0.55546 0.46314 0.0
H214 H 0.11223 0.76964 0.55531 0.0
H215 H 0.03568 0.54275 0.57803 0.0
Cd216 Cd 0.17646 0.95803 0.75551 0.0
Cd217 Cd 0.29905 0.80044 0.75968 0.0
C218 C 0.14143 0.83299 0.72285 0.0
N219 N 0.1715 0.89767 0.72672 0.0
C220 C 0.18873 0.90946 0.69664 0.0
C221 C 0.15706 0.8451 0.6922 0.0
C222 C 0.13384 0.80521 0.70569 0.0
C223 C 0.19531 0.93526 0.71405 0.0
H224 H 0.12239 0.80542 0.73305 0.0
H225 H 0.21868 -0.01218 0.7174 0.0
C226 C 0.27708 0.02117 0.76306 0.0
C227 C 0.29826 0.81558 0.80184 0.0
C228 C 0.31084 0.79653 0.81883 0.0
C229 C 0.34976 0.76425 0.82192 0.0
C230 C 0.37563 0.75712 0.80775 0.0
C231 C 0.36199 0.77844 0.79103 0.0
N232 N 0.32368 0.80504 0.78833 0.0
H233 H 0.26774 0.83384 0.79934 0.0
H234 H 0.3816 0.76896 0.78012 0.0
C235 C 0.3436 0.89172 0.72596 0.0
N236 N 0.31001 0.84113 0.73029 0.0
C237 C 0.29302 0.82274 0.70031 0.0
C238 C 0.32805 0.87257 0.6954 0.0
C239 C 0.35322 0.90829 0.70856 0.0
C240 C 0.28466 0.80728 0.7179 0.0
H241 H 0.36345 0.91715 0.73605 0.0
H242 H 0.25837 0.76615 0.72167 0.0
C243 C 0.1954 0.7384 0.7637 0.0
C244 C 0.13321 0.13583 0.74804 0.0
N245 N 0.15071 0.95498 0.78408 0.0
C246 C 0.11333 -0.01143 0.78701 0.0
C247 C 0.09866 -0.00382 0.80393 0.0
C248 C 0.12262 0.96906 0.81808 0.0
C249 C 0.16096 0.93327 0.81458 0.0
C250 C 0.17442 0.927 0.79745 0.0
C251 C 0.33749 0.61235 0.7574 0.0
O252 O 0.24892 0.96399 0.75867 0.0
O253 O 0.31126 0.98285 0.7643 0.0
O254 O 0.22588 0.79161 0.76111 0.0
O255 O 0.16192 0.78029 0.76221 0.0
O256 O 0.16549 0.14169 0.75635 0.0
O257 O 0.12242 0.04823 0.74299 0.0
O258 O 0.30326 0.61949 0.76399 0.0
O259 O 0.35262 0.69233 0.75097 0.0
H260 H 0.095 0.01098 0.77621 0.0
H261 H 0.20415 0.90201 0.79483 0.0
H262 H 0.2073 0.94272 0.68674 0.0
H263 H 0.10953 0.75407 0.70301 0.0
H264 H 0.28978 0.8019 0.82934 0.0
H265 H 0.40591 0.7331 0.80954 0.0
H266 H 0.27288 0.79302 0.69066 0.0
H267 H 0.38026 0.94818 0.70544 0.0
H268 H 0.0688 0.02301 0.80588 0.0
H269 H 0.18084 0.91291 0.82499 0.0
Cd270 Cd 0.65206 0.17757 0.77213 0.0
Cd271 Cd 0.79477 0.13948 0.76644 0.0
C272 C 0.60286 0.0764 0.741 0.0
N273 N 0.63418 0.13991 0.74321 0.0
C274 C 0.63984 0.16125 0.71249 0.0
C275 C 0.60685 0.09794 0.70986 0.0
C276 C 0.58869 0.05437 0.72443 0.0
C277 C 0.65302 0.18148 0.72935 0.0
H278 H 0.5886 0.04303 0.75214 0.0
H279 H 0.6779 0.23156 0.73134 0.0
C280 C 0.73226 0.3442 0.75743 0.0
C281 C 0.81398 0.17545 0.80611 0.0
C282 C 0.81794 0.16588 0.82403 0.0
C283 C 0.80072 0.08297 0.83264 0.0
C284 C 0.77865 0.01297 0.82279 0.0
C285 C 0.77524 0.02582 0.80479 0.0
N286 N 0.7937 0.10498 0.79674 0.0
H287 H 0.82761 0.23918 0.79961 0.0
H288 H 0.75788 0.97237 0.7974 0.0
C289 C 0.83216 0.01271 0.73293 0.0
N290 N 0.80107 0.07042 0.73825 0.0
C291 C 0.78332 0.10541 0.70883 0.0
C292 C 0.81652 0.05188 0.70291 0.0
C293 C 0.84021 0.00145 0.71517 0.0
C294 C 0.77621 0.11397 0.72658 0.0
H295 H 0.85219 0.9811 0.74241 0.0
H296 H 0.7522 0.16112 0.73112 0.0
C297 C 0.7097 0.02068 0.76303 0.0
C298 C 0.57422 0.23367 0.78069 0.0
N299 N 0.67777 0.16378 0.80028 0.0
C300 C 0.66021 0.09625 0.81116 0.0
C301 C 0.66572 0.10404 0.82906 0.0
C302 C 0.68931 0.18265 0.83585 0.0
C303 C 0.70968 0.24585 0.82416 0.0
C304 C 0.70322 0.23553 0.80633 0.0
C305 C 0.8719 0.21446 0.7684 0.0
O306 O 0.69904 0.30622 0.76169 0.0
O307 O 0.76451 0.29604 0.75884 0.0
O308 O 0.72688 0.09752 0.76935 0.0
O309 O 0.67292 0.01174 0.76502 0.0
O310 O 0.60015 0.29985 0.77686 0.0
O311 O 0.58507 0.14136 0.78129 0.0
O312 O 0.86414 0.11979 0.76991 0.0
O313 O 0.84307 0.27535 0.76617 0.0
H314 H 0.63951 0.04127 0.80603 0.0
H315 H 0.71643 0.2892 0.79744 0.0
H316 H 0.65469 0.19705 0.70167 0.0
H317 H 0.56373 0.00355 0.72306 0.0
H318 H 0.83538 0.22159 0.83099 0.0
H319 H 0.76417 0.949 0.82894 0.0
H320 H 0.76406 0.14457 0.69984 0.0
H321 H 0.86625 0.95999 0.71116 0.0
H322 H 0.64908 0.05418 0.8375 0.0
H323 H 0.72867 0.30637 0.82878 0.0
Cd324 Cd 0.54542 0.04697 0.52232 0.0
Cd325 Cd 0.43173 0.93348 0.50281 0.0
C326 C 0.59122 0.9708 0.48659 0.0
N327 N 0.56963 0.049 0.49327 0.0
C328 C 0.56654 0.12676 0.46524 0.0
C329 C 0.58522 0.04195 0.45771 0.0
C330 C 0.5983 0.96427 0.46883 0.0
C331 C 0.55882 0.12836 0.48305 0.0
H332 H 0.6024 0.9112 0.4948 0.0
H333 H 0.54398 0.19256 0.48878 0.0
C334 C 0.45273 0.14484 0.50771 0.0
C335 C 0.39529 0.01926 0.54022 0.0
C336 C 0.38719 0.01708 0.55803 0.0
C337 C 0.4017 0.93691 0.56828 0.0
C338 C 0.4251 0.86219 0.5603 0.0
C339 C 0.43284 0.86792 0.54254 0.0
N340 N 0.41772 0.94501 0.53283 0.0
H341 H 0.38311 0.07935 0.53231 0.0
H342 H 0.45058 0.80978 0.53639 0.0
C343 C 0.41778 0.02539 0.46534 0.0
N344 N 0.44676 0.97095 0.47326 0.0
C345 C 0.47929 0.94728 0.4459 0.0
C346 C 0.44896 0.00083 0.43741 0.0
C347 C 0.41849 0.04201 0.4475 0.0
C348 C 0.47787 0.93419 0.46397 0.0
H349 H 0.39303 0.05283 0.47282 0.0
H350 H 0.50093 0.89191 0.4704 0.0
C351 C 0.52915 0.83881 0.50965 0.0
C352 C 0.59115 0.20323 0.53687 0.0
N353 N 0.52529 -0.00166 0.55014 0.0
C354 C 0.54619 0.92727 0.55906 0.0
C355 C 0.54341 0.92211 0.57713 0.0
C356 C 0.51945 -0.00807 0.58608 0.0
C357 C 0.49596 0.0591 0.57636 0.0
C358 C 0.4995 0.06136 0.55832 0.0
C359 C 0.37673 0.7827 0.49412 0.0
O360 O 0.47678 0.08011 0.51371 0.0
O361 O 0.41904 0.11413 0.50301 0.0
O362 O 0.50058 0.90043 0.51001 0.0
O363 O 0.56021 0.86509 0.51762 0.0
O364 O 0.55853 0.22383 0.52955 0.0
O365 O 0.60281 0.1113 0.53638 0.0
O366 O 0.40554 0.76083 0.50387 0.0
O367 O 0.37243 0.87468 0.48963 0.0
H368 H 0.56752 0.88048 0.55236 0.0
H369 H 0.48401 0.1189 0.55096 0.0
H370 H 0.55784 0.19108 0.45744 0.0
H371 H 0.61297 0.89703 0.46395 0.0
H372 H 0.36876 0.07582 0.56363 0.0
H373 H 0.43732 0.7998 0.56773 0.0
H374 H 0.5035 0.91477 0.43862 0.0
H375 H 0.39424 0.08267 0.44154 0.0
H376 H 0.56246 0.87004 0.58407 0.0
H377 H 0.47687 0.11365 0.58269 0.0
Cd378 Cd 0.57415 0.55133 0.01552 0.0
Cd379 Cd 0.44762 0.4034 1.00558 0.0
C380 C 0.63002 0.41485 0.98919 0.0
N381 N 0.59526 0.46648 0.99005 0.0
C382 C 0.58429 0.43945 0.95978 0.0
C383 C 0.61973 0.38401 0.95843 0.0
C384 C 0.64248 0.37144 0.97356 0.0
C385 C 0.57259 0.47956 0.97573 0.0
H386 H 0.64819 0.40774 1.00064 0.0
H387 H 0.54579 0.52362 0.97665 0.0
C388 C 0.4736 0.62486 1.00782 0.0
C389 C 0.42417 0.46897 0.0447 0.0
C390 C 0.40549 0.46169 0.06081 0.0
C391 C 0.37069 0.40383 0.06257 0.0
C392 C 0.35425 0.36067 0.04752 0.0
C393 C 0.37361 0.37121 0.0316 0.0
N394 N 0.40847 0.42228 0.03058 0.0
H395 H 0.4522 0.50788 0.04362 0.0
H396 H 0.36191 0.33354 0.02026 0.0
C397 C 0.40267 0.50455 0.97307 0.0
N398 N 0.43792 0.45992 0.97672 0.0
C399 C 0.45859 0.48125 0.94722 0.0
C400 C 0.42228 0.52709 0.94307 0.0
C401 C 0.3942 0.53853 0.95631 0.0
C402 C 0.46567 0.44721 0.96417 0.0
H403 H 0.38095 0.51328 0.98322 0.0
H404 H 0.49309 0.40958 0.96726 0.0
C405 C 0.54825 0.33209 0.01406 0.0
C406 C 0.63029 0.693 1.00403 0.0
N407 N 0.57918 0.57582 0.04582 0.0
C408 C 0.59188 0.49922 0.05628 0.0
C409 C 0.59768 0.51615 0.07402 0.0
C410 C 0.59059 0.61308 0.08115 0.0
C411 C 0.57696 0.69029 0.07001 0.0
C412 C 0.57148 0.66996 0.05235 0.0
C413 C 0.41329 0.21091 0.99907 0.0
O414 O 0.50202 0.56703 0.0114 0.0
O415 O 0.43922 0.58772 1.00675 0.0
O416 O 0.51907 0.39136 0.01278 0.0
O417 O 0.5811 0.3685 0.01886 0.0
O418 O 0.63555 0.6399 0.01757 0.0
O419 O 0.59637 0.68985 0.99706 0.0
O420 O 0.43462 0.22575 0.01233 0.0
O421 O 0.40981 0.28431 0.98854 0.0
H422 H 0.59812 0.42514 0.05084 0.0
H423 H 0.56185 0.73001 0.04374 0.0
H424 H 0.5661 0.45447 0.94855 0.0
H425 H 0.66978 0.32886 0.9734 0.0
H426 H 0.41896 0.49842 0.07189 0.0
H427 H 0.32785 0.31444 0.04811 0.0
H428 H 0.48092 0.46975 0.93739 0.0
H429 H 0.36599 0.57419 0.95378 0.0
H430 H 0.60766 0.45373 0.08205 0.0
H431 H 0.57157 0.76656 0.07478 0.0
C432 C 0.14089 0.11537 0.09704 0.0
C433 C 0.10151 0.12895 0.09184 0.0
C434 C 0.15264 0.13112 0.11433 0.0
C435 C 0.12453 0.16319 0.12677 0.0
C436 C 0.08482 0.17809 0.12156 0.0
C437 C 0.07373 0.1598 0.10424 0.0
C438 C 0.19504 0.11183 0.11937 0.0
C439 C 0.05402 0.2137 0.1343 0.0
C440 C 0.14401 0.11807 0.1749 0.0
C441 C 0.15772 0.21364 0.18044 0.0
C442 C 0.13358 0.10037 0.15751 0.0
C443 C 0.13658 0.18026 0.14524 0.0
C444 C 0.15091 0.27652 0.15069 0.0
C445 C 0.16135 0.29195 0.16815 0.0
C446 C 0.11933 -0.00408 0.15225 0.0
C447 C 0.15449 0.36401 0.13812 0.0
H448 H 0.16247 0.09021 0.0876 0.0
H449 H 0.04335 0.1711 0.10032 0.0
H450 H 0.20807 0.18124 0.12524 0.0
H451 H 0.19638 0.051 0.12932 0.0
H452 H 0.21343 0.08847 0.10816 0.0
H453 H 0.02466 0.22403 0.12815 0.0
H454 H 0.05111 0.15776 0.14498 0.0
H455 H 0.06326 0.28707 0.14017 0.0
H456 H 0.14178 0.05646 0.18418 0.0
H457 H 0.17156 0.36632 0.17227 0.0
H458 H 0.13814 0.96543 0.1417 0.0
H459 H 0.08881 0.00085 0.14714 0.0
H460 H 0.11966 0.94118 0.16321 0.0
H461 H 0.17205 0.3409 0.12666 0.0
H462 H 0.16856 0.43193 0.14408 0.0
H463 H 0.12474 0.38565 0.1334 0.0
C464 C 0.82049 0.76738 0.09973 0.0
C465 C 0.85531 0.82307 0.09691 0.0
C466 C 0.80645 0.74866 0.11661 0.0
C467 C 0.82772 0.78635 0.13105 0.0
C468 C 0.86241 0.84427 0.12826 0.0
C469 C 0.87569 0.86197 0.11129 0.0
C470 C 0.76931 0.68686 0.119 0.0
C471 C 0.8859 0.88659 0.14325 0.0
C472 C 0.78275 0.81875 0.1759 0.0
C473 C 0.79972 0.73717 0.18499 0.0
C474 C 0.78991 0.83289 0.15812 0.0
C475 C 0.81461 0.76374 0.14915 0.0
C476 C 0.82978 0.67778 0.15801 0.0
C477 C 0.82216 0.66553 0.1758 0.0
C478 C 0.77274 0.92486 0.14917 0.0
C479 C 0.85602 0.60177 0.14895 0.0
H480 H 0.8047 0.73595 0.08876 0.0
H481 H 0.90222 0.9065 0.10928 0.0
H482 H 0.77628 0.61503 0.1259 0.0
H483 H 0.74799 0.72932 0.12713 0.0
H484 H 0.75494 0.66773 0.10648 0.0
H485 H 0.91176 0.93182 0.13891 0.0
H486 H 0.86687 0.93581 0.15141 0.0
H487 H 0.89655 0.82338 0.15155 0.0
H488 H 0.7648 0.87352 0.18284 0.0
H489 H 0.83563 0.60268 0.1827 0.0
H490 H 0.75713 0.90165 0.13718 0.0
H491 H 0.79686 0.97725 0.14531 0.0
H492 H 0.75186 0.96716 0.1576 0.0
H493 H 0.84227 0.57618 0.13666 0.0
H494 H 0.86214 0.53396 0.15711 0.0
H495 H 0.88451 0.63846 0.14562 0.0
C496 C 0.0355 0.48494 0.41212 0.0
C497 C 0.04134 0.41633 0.42587 0.0
C498 C 0.05031 0.46487 0.3954 0.0
C499 C 0.0712 0.37338 0.39216 0.0
C500 C 0.07561 0.30177 0.40573 0.0
C501 C 0.06098 0.32427 0.42235 0.0
C502 C 0.04459 0.54317 0.38133 0.0
C503 C 0.09715 0.20261 0.40285 0.0
C504 C 0.08959 0.28879 0.34538 0.0
C505 C 0.12874 0.32049 0.34261 0.0
C506 C 0.0705 0.30507 0.36138 0.0
C507 C 0.09074 0.35534 0.37499 0.0
C508 C 0.1302 0.3872 0.37231 0.0
C509 C 0.1487 0.36886 0.3563 0.0
C510 C 0.02847 0.26948 0.36364 0.0
C511 C 0.15298 0.44115 0.3864 0.0
H512 H 0.01965 0.5552 0.41444 0.0
H513 H 0.06649 0.27093 0.43276 0.0
H514 H 0.07367 0.57394 0.37732 0.0
H515 H 0.031 0.50752 0.36976 0.0
H516 H 0.02565 0.60746 0.3856 0.0
H517 H 0.09521 0.15125 0.41425 0.0
H518 H 0.08491 0.16245 0.3914 0.0
H519 H 0.12872 0.21811 0.40016 0.0
H520 H 0.07347 0.2529 0.33491 0.0
H521 H 0.17908 0.39224 0.35454 0.0
H522 H 0.00876 0.33631 0.36507 0.0
H523 H 0.02559 0.22337 0.37561 0.0
H524 H 0.01806 0.22339 0.35248 0.0
H525 H 0.13697 0.51081 0.39048 0.0
H526 H 0.18313 0.46316 0.38219 0.0
H527 H 0.1555 0.39125 0.39794 0.0
C528 C 0.8724 0.62489 0.36075 0.0
C529 C 0.85402 0.55847 0.34902 0.0
C530 C 0.8823 0.59312 0.37761 0.0
C531 C 0.87277 0.49309 0.3831 0.0
C532 C 0.85463 0.42526 0.37122 0.0
C533 C 0.84587 0.4584 0.35429 0.0
C534 C 0.90245 0.66725 0.38966 0.0
C535 C 0.84337 0.31862 0.37655 0.0
C536 C 0.92079 0.3952 0.42482 0.0
C537 C 0.89208 0.41995 0.43724 0.0
C538 C 0.91468 0.41616 0.40708 0.0
C539 C 0.87901 0.46269 0.40162 0.0
C540 C 0.84949 0.48435 0.41405 0.0
C541 C 0.85638 0.4629 0.43161 0.0
C542 C 0.94689 0.39147 0.39428 0.0
C543 C 0.81076 0.53229 0.40887 0.0
H544 H 0.87932 0.70179 0.35666 0.0
H545 H 0.83161 0.40682 0.34528 0.0
H546 H 0.88289 0.68438 0.4008 0.0
H547 H 0.92984 0.63296 0.39493 0.0
H548 H 0.91011 0.73992 0.38311 0.0
H549 H 0.83154 0.27337 0.36556 0.0
H550 H 0.86929 0.27837 0.38201 0.0
H551 H 0.82063 0.32193 0.38687 0.0
H552 H 0.9485 0.36237 0.42903 0.0
H553 H 0.83371 0.48051 0.44105 0.0
H554 H 0.95975 0.46327 0.38925 0.0
H555 H 0.93475 0.34936 0.38303 0.0
H556 H 0.9708 0.34523 0.40018 0.0
H557 H 0.81612 0.60941 0.4035 0.0
H558 H 0.79001 0.53918 0.41994 0.0
H559 H 0.79645 0.48651 0.39855 0.0
C560 C 0.09707 0.79336 0.59116 0.0
C561 C 0.08969 0.69093 0.587 0.0
C562 C 0.10991 0.8222 0.60781 0.0
C563 C 0.11563 0.74698 0.62072 0.0
C564 C 0.1088 0.64342 0.61655 0.0
C565 C 0.09603 0.61676 0.59981 0.0
C566 C 0.11674 0.93349 0.61167 0.0
C567 C 0.11465 0.56056 0.62986 0.0
C568 C 0.17653 0.80486 0.66131 0.0
C569 C 0.14699 0.82284 0.67369 0.0
C570 C 0.16691 0.78146 0.64398 0.0
C571 C 0.12677 0.77647 0.63884 0.0
C572 C 0.09693 0.79653 0.6512 0.0
C573 C 0.10736 0.81947 0.66839 0.0
C574 C 0.19972 0.76128 0.63123 0.0
C575 C 0.0538 0.7927 0.64633 0.0
H576 H 0.09221 0.85155 0.58148 0.0
H577 H 0.09141 0.53718 0.59672 0.0
H578 H 0.09606 0.95918 0.62191 0.0
H579 H 0.14708 0.94507 0.61667 0.0
H580 H 0.11254 0.98223 0.60006 0.0
H581 H 0.10928 0.4834 0.62445 0.0
H582 H 0.14514 0.56358 0.63504 0.0
H583 H 0.09429 0.57268 0.64091 0.0
H584 H 0.20722 0.807 0.66522 0.0
H585 H 0.08427 0.8356 0.67769 0.0
H586 H 0.19911 0.81962 0.62085 0.0
H587 H 0.19545 0.68609 0.62495 0.0
H588 H 0.22926 0.76263 0.63746 0.0
H589 H 0.04784 0.84609 0.63551 0.0
H590 H 0.0342 0.81257 0.65735 0.0
H591 H 0.04604 0.71517 0.64174 0.0
C592 C 0.83934 0.97217 0.67481 0.0
C593 C 0.82846 0.05877 0.68432 0.0
C594 C 0.85052 0.97985 0.65724 0.0
C595 C 0.8517 0.07666 0.6491 0.0
C596 C 0.8413 0.16429 0.65878 0.0
C597 C 0.82958 0.15417 0.67615 0.0
C598 C 0.86069 0.88437 0.64734 0.0
C599 C 0.8428 0.26925 0.65083 0.0
C600 C 0.91363 0.12777 0.60874 0.0
C601 C 0.88467 0.13675 0.59578 0.0
C602 C 0.90356 0.10444 0.62599 0.0
C603 C 0.86356 0.0876 0.63048 0.0
C604 C 0.83447 0.09055 0.61731 0.0
C605 C 0.84526 0.1158 0.60023 0.0
C606 C 0.93559 0.10286 0.63957 0.0
C607 C 0.79155 0.07169 0.6214 0.0
H608 H 0.83846 0.89826 0.68104 0.0
H609 H 0.8219 0.22168 0.68349 0.0
H610 H 0.84084 0.8765 0.63599 0.0
H611 H 0.89126 0.88935 0.64231 0.0
H612 H 0.85808 0.81489 0.65546 0.0
H613 H 0.83472 0.3299 0.66021 0.0
H614 H 0.87291 0.28496 0.64587 0.0
H615 H 0.82233 0.2734 0.63964 0.0
H616 H 0.94427 0.14136 0.6055 0.0
H617 H 0.82236 0.12348 0.59053 0.0
H618 H 0.93413 0.03147 0.6472 0.0
H619 H 0.93113 0.16697 0.64873 0.0
H620 H 0.96553 0.10967 0.63384 0.0
H621 H 0.78821 0.00124 0.62919 0.0
H622 H 0.7733 0.06459 0.60951 0.0
H623 H 0.77986 0.13564 0.62926 0.0
C624 C 0.11792 0.90721 0.84897 0.0
C625 C 0.10818 0.98 0.83635 0.0
C626 C 0.106 0.91861 0.86633 0.0
C627 C 0.08369 0.00498 0.87134 0.0
C628 C 0.07298 0.07763 0.85862 0.0
C629 C 0.08534 0.06439 0.84134 0.0
C630 C 0.11786 0.83878 0.87939 0.0
C631 C 0.04932 0.17088 0.86336 0.0
C632 C 0.03069 -0.00888 0.91502 0.0
C633 C 0.05776 0.03951 0.9261 0.0
C634 C 0.03813 0.98156 0.89713 0.0
C635 C 0.07349 0.02149 0.89005 0.0
C636 C 0.10022 0.07347 0.90105 0.0
C637 C 0.09209 0.08167 0.91887 0.0
C638 C 0.00858 0.92659 0.88589 0.0
C639 C 0.1382 0.11753 0.89411 0.0
H640 H 0.1349 0.84082 0.84527 0.0
H641 H 0.07796 0.12185 0.83181 0.0
H642 H 0.13715 0.87339 0.8894 0.0
H643 H 0.09136 0.80876 0.88609 0.0
H644 H 0.13385 0.77412 0.87333 0.0
H645 H 0.04115 0.21675 0.85182 0.0
H646 H 0.02197 0.14855 0.87026 0.0
H647 H 0.06668 0.21955 0.8723 0.0
H648 H 0.00379 0.95955 0.92039 0.0
H649 H 0.11356 0.11785 0.92726 0.0
H650 H 0.02269 0.85965 0.87969 0.0
H651 H -0.00164 0.9775 0.87534 0.0
H652 H 0.98248 0.9002 0.89334 0.0
H653 H 0.15734 0.05526 0.88926 0.0
H654 H 0.15472 0.16095 0.90411 0.0
H655 H 0.13202 0.1688 0.88303 0.0
C656 C 0.80701 0.15159 0.86297 0.0
C657 C 0.80759 0.06818 0.85158 0.0
C658 C 0.81745 0.14075 0.8805 0.0
C659 C 0.82893 0.04405 0.8869 0.0
C660 C 0.82838 0.95898 0.8756 0.0
C661 C 0.81765 0.97198 0.85813 0.0
C662 C 0.81762 0.23418 0.89189 0.0
C663 C 0.84027 0.85456 0.88185 0.0
C664 C 0.89406 0.02788 0.92714 0.0
C665 C 0.86702 -0.00162 0.94004 0.0
C666 C 0.88207 0.04395 0.9099 0.0
C667 C 0.8419 0.03164 0.90532 0.0
C668 C 0.8142 0.0061 0.91833 0.0
C669 C 0.82702 -0.01031 0.93542 0.0
C670 C 0.91257 0.0727 0.89652 0.0
C671 C 0.77102 -0.00662 0.91413 0.0
H672 H 0.7988 0.22605 0.85811 0.0
H673 H 0.81859 0.90729 0.84942 0.0
H674 H 0.8095 0.21588 0.90544 0.0
H675 H 0.84776 0.26708 0.89201 0.0
H676 H 0.79709 0.29326 0.88691 0.0
H677 H 0.83752 0.79579 0.87157 0.0
H678 H 0.8713 0.85624 0.88642 0.0
H679 H 0.82167 0.83173 0.89301 0.0
H680 H 0.92483 0.03845 0.93046 0.0
H681 H 0.80551 0.9674 0.94503 0.0
H682 H 0.90439 0.14591 0.89034 0.0
H683 H 0.91347 0.01412 0.88617 0.0
H684 H 0.94257 0.08033 0.90216 0.0
H685 H 0.76086 0.05466 0.90533 0.0
H686 H 0.75236 -0.0061 0.92596 0.0
H687 H 0.76651 0.91982 0.90735 0.0
C688 C 0.6162 0.06304 0.67804 0.0
C689 C 0.59081 0.0791 0.69212 0.0
C690 C 0.60134 0.04619 0.66128 0.0
C691 C 0.56001 0.04552 0.65842 0.0
C692 C 0.5342 0.06184 0.67258 0.0
C693 C 0.5499 0.07774 0.68922 0.0
C694 C 0.62996 0.03005 0.64655 0.0
C695 C 0.48992 0.06113 0.67048 0.0
C696 C 0.5285 0.10285 0.61218 0.0
C697 C 0.52378 0.0049 0.60519 0.0
C698 C 0.5387 0.11708 0.62965 0.0
C699 C 0.5443 0.03142 0.64048 0.0
C700 C 0.53719 0.93261 0.6338 0.0
C701 C 0.52732 0.92041 0.6162 0.0
C702 C 0.54489 0.22384 0.63637 0.0
C703 C 0.54139 0.8396 0.64509 0.0
H704 H 0.6478 0.06262 0.68016 0.0
H705 H 0.52994 0.09095 0.69995 0.0
H706 H 0.62417 0.95564 0.64023 0.0
H707 H 0.62574 0.09002 0.6366 0.0
H708 H 0.66117 0.03179 0.65092 0.0
H709 H 0.47557 0.11157 0.68016 0.0
H710 H 0.48043 0.0851 0.65736 0.0
H711 H 0.47902 0.98272 0.67278 0.0
H712 H 0.52619 0.1687 0.60379 0.0
H713 H 0.52317 0.84458 0.61097 0.0
H714 H 0.57611 0.23382 0.64036 0.0
H715 H 0.52629 0.23677 0.64799 0.0
H716 H 0.53763 0.28262 0.62653 0.0
H717 H 0.57297 0.82774 0.64826 0.0
H718 H 0.52996 0.7699 0.63866 0.0
H719 H 0.5254 0.85062 0.65749 0.0
C720 C 0.39393 0.01399 0.59796 0.0
C721 C 0.39142 0.92895 0.58702 0.0
C722 C 0.38402 0.00695 0.61564 0.0
C723 C 0.37066 0.91298 0.62251 0.0
C724 C 0.36806 0.82693 0.6115 0.0
C725 C 0.37864 0.83584 0.59395 0.0
C726 C 0.38799 0.1 0.62698 0.0
C727 C 0.354 0.72532 0.61824 0.0
C728 C 0.37792 0.86779 0.67121 0.0
C729 C 0.33894 0.88442 0.67672 0.0
C730 C 0.38857 0.8766 0.65366 0.0
C731 C 0.35973 0.90413 0.64124 0.0
C732 C 0.32036 0.92133 0.64671 0.0
C733 C 0.31043 0.91089 0.66433 0.0
C734 C 0.43066 0.85542 0.64836 0.0
C735 C 0.28868 0.95079 0.63392 0.0
H736 H 0.40414 0.08589 0.59274 0.0
H737 H 0.37624 0.77002 0.58554 0.0
H738 H 0.35924 0.11784 0.63313 0.0
H739 H 0.40938 0.08484 0.63754 0.0
H740 H 0.39813 0.16778 0.61961 0.0
H741 H 0.35391 0.66561 0.60805 0.0
H742 H 0.37321 0.69975 0.62903 0.0
H743 H 0.32368 0.73278 0.62349 0.0
H744 H 0.40008 0.84571 0.6806 0.0
H745 H 0.28034 0.92473 0.66843 0.0
H746 H 0.44417 0.92551 0.64298 0.0
H747 H 0.43151 0.79689 0.63801 0.0
H748 H 0.44894 0.82845 0.65938 0.0
H749 H 0.2969 0.02293 0.62738 0.0
H750 H 0.25945 0.96084 0.64019 0.0
H751 H 0.28597 0.89157 0.62374 0.0
C752 C 0.67365 0.33798 0.93716 0.0
C753 C 0.63329 0.34325 0.94127 0.0
C754 C 0.68658 0.30617 0.92073 0.0
C755 C 0.65862 0.27957 0.90789 0.0
C756 C 0.61795 0.2816 0.91204 0.0
C757 C 0.60584 0.3124 0.92865 0.0
C758 C 0.73021 0.3028 0.91699 0.0
C759 C 0.58708 0.25347 0.89877 0.0
C760 C 0.68314 0.30884 0.86009 0.0
C761 C 0.68775 0.20734 0.85473 0.0
C762 C 0.67512 0.33337 0.87744 0.0
C763 C 0.67161 0.25465 0.88987 0.0
C764 C 0.67826 0.15242 0.88476 0.0
C765 C 0.68619 0.13001 0.86727 0.0
C766 C 0.66827 0.44337 0.88228 0.0
C767 C 0.67483 0.06582 0.8975 0.0
H768 H 0.69541 0.36106 0.9466 0.0
H769 H 0.57465 0.3126 0.93168 0.0
H770 H 0.7382 0.22722 0.91167 0.0
H771 H 0.73773 0.36047 0.90703 0.0
H772 H 0.74834 0.31752 0.92871 0.0
H773 H 0.58911 0.30561 0.8875 0.0
H774 H 0.59241 0.17518 0.89393 0.0
H775 H 0.55668 0.25744 0.90409 0.0
H776 H 0.68365 0.36923 0.85054 0.0
H777 H 0.69012 0.05146 0.86333 0.0
H778 H 0.68722 0.46504 0.8934 0.0
H779 H 0.63716 0.45378 0.88637 0.0
H780 H 0.67442 0.49608 0.87136 0.0
H781 H 0.68709 0.08705 0.91033 0.0
H782 H 0.69015 -0.00359 0.89278 0.0
H783 H 0.64323 0.04686 0.89936 0.0
C784 C 0.37642 0.54012 0.91756 0.0
C785 C 0.41324 0.56155 0.92505 0.0
C786 C 0.367 0.57324 0.90074 0.0
C787 C 0.39485 0.63048 0.89113 0.0
C788 C 0.43212 0.65236 0.8986 0.0
C789 C 0.44096 0.61706 0.9154 0.0
C790 C 0.32718 0.54668 0.89323 0.0
C791 C 0.4625 0.71413 0.88893 0.0
C792 C 0.38286 0.64023 0.84198 0.0
C793 C 0.36264 0.73244 0.8396 0.0
C794 C 0.39378 0.60661 0.8586 0.0
C795 C 0.38482 0.66721 0.87328 0.0
C796 C 0.36508 0.76136 0.87092 0.0
C797 C 0.35391 0.79232 0.85415 0.0
C798 C 0.41414 0.50503 0.86049 0.0
C799 C 0.35547 0.82913 0.88613 0.0
H800 H 0.35501 0.49617 0.92483 0.0
H801 H 0.46933 0.63479 0.92114 0.0
H802 H 0.31069 0.61726 0.89012 0.0
H803 H 0.33098 0.50393 0.88095 0.0
H804 H 0.3091 0.50002 0.90223 0.0
H805 H 0.48998 0.72512 0.89654 0.0
H806 H 0.47009 0.67595 0.87656 0.0
H807 H 0.45019 0.78995 0.88564 0.0
H808 H 0.38924 0.59285 0.83082 0.0
H809 H 0.33856 0.86394 0.8524 0.0
H810 H 0.39581 0.45345 0.86853 0.0
H811 H 0.44275 0.5148 0.86726 0.0
H812 H 0.41961 0.46782 0.84779 0.0
H813 H 0.33494 0.78928 0.89502 0.0
H814 H 0.34173 0.90207 0.88207 0.0
H815 H 0.38269 0.84624 0.89357 0.0
C816 C 0.63099 0.59117 0.10838 0.0
C817 C 0.59816 0.63391 0.09996 0.0
C818 C 0.63875 0.61078 0.12598 0.0
C819 C 0.61312 0.6748 0.13554 0.0
C820 C 0.57999 0.71833 0.12716 0.0
C821 C 0.57289 0.6973 0.10954 0.0
C822 C 0.67436 0.5625 0.13437 0.0
C823 C 0.55209 0.78769 0.1368 0.0
C824 C 0.61403 0.65729 0.18496 0.0
C825 C 0.63887 0.7385 0.18949 0.0
C826 C 0.60535 0.63568 0.16749 0.0
C827 C 0.62142 0.69764 0.15421 0.0
C828 C 0.64593 0.78088 0.15876 0.0
C829 C 0.65455 0.79982 0.17628 0.0
C830 C 0.57942 0.54563 0.16324 0.0
C831 C 0.66334 0.84967 0.14509 0.0
H832 H 0.65112 0.54339 0.10112 0.0
H833 H 0.5472 0.72987 0.1033 0.0
H834 H 0.69266 0.62119 0.14087 0.0
H835 H 0.66457 0.50815 0.14449 0.0
H836 H 0.69305 0.52101 0.12489 0.0
H837 H 0.52778 0.81592 0.12844 0.0
H838 H 0.53909 0.74681 0.14799 0.0
H839 H 0.56847 0.85411 0.14202 0.0
H840 H 0.60207 0.60914 0.19507 0.0
H841 H 0.67337 0.86352 0.17968 0.0
H842 H 0.59596 0.49066 0.15511 0.0
H843 H 0.55346 0.57089 0.15563 0.0
H844 H 0.56886 0.50564 0.17504 0.0
H845 H 0.68379 0.80558 0.13677 0.0
H846 H 0.6797 0.91482 0.1508 0.0
H847 H 0.63969 0.87992 0.1366 0.0
C848 C 0.2995 0.18434 0.15416 0.0
C849 C 0.29484 0.26312 0.16629 0.0
C850 C 0.30476 0.20577 0.13644 0.0
C851 C 0.30618 0.30824 0.13075 0.0
C852 C 0.29775 0.3872 0.14266 0.0
C853 C 0.29181 0.36367 0.16021 0.0
C854 C 0.3113 0.11905 0.12396 0.0
C855 C 0.29756 0.49725 0.13706 0.0
C856 C 0.37832 0.36777 0.09441 0.0
C857 C 0.35344 0.38251 0.08008 0.0
C858 C 0.36312 0.34435 0.11084 0.0
C859 C 0.32186 0.33367 0.11316 0.0
C860 C 0.29642 0.34862 0.09881 0.0
C861 C 0.31249 0.37271 0.08249 0.0
C862 C 0.39142 0.3306 0.12578 0.0
C863 C 0.25231 0.3366 0.10038 0.0
H864 H 0.30148 0.10626 0.15858 0.0
H865 H 0.28661 0.42489 0.16934 0.0
H866 H 0.29347 0.13039 0.11206 0.0
H867 H 0.34279 0.11706 0.12006 0.0
H868 H 0.30348 0.04434 0.12976 0.0
H869 H 0.28707 0.54886 0.14749 0.0
H870 H 0.32787 0.52043 0.13332 0.0
H871 H 0.27841 0.50718 0.12553 0.0
H872 H 0.40999 0.3724 0.09275 0.0
H873 H 0.29279 0.38425 0.07162 0.0
H874 H 0.38895 0.25212 0.13097 0.0
H875 H 0.38377 0.38383 0.13643 0.0
H876 H 0.42257 0.34424 0.12196 0.0
H877 H 0.2445 0.25618 0.09765 0.0
H878 H 0.23662 0.38483 0.09078 0.0
H879 H 0.24141 0.35589 0.11351 0.0
C880 C 0.56296 0.07633 0.427 0.0
C881 C 0.59051 0.03329 0.43849 0.0
C882 C 0.5671 0.06597 0.40896 0.0
C883 C 0.59861 0.00773 0.40217 0.0
C884 C 0.62641 0.96388 0.41362 0.0
C885 C 0.62249 0.97889 0.43153 0.0
C886 C 0.53742 0.11635 0.39721 0.0
C887 C 0.66038 0.90061 0.40695 0.0
C888 C 0.59495 0.89023 0.35711 0.0
C889 C 0.62199 0.95146 0.34816 0.0
C890 C 0.58563 0.91009 0.37455 0.0
C891 C 0.60344 -0.00614 0.38311 0.0
C892 C 0.62876 0.05954 0.37376 0.0
C893 C 0.63799 0.03704 0.35646 0.0
C894 C 0.55844 0.83834 0.38405 0.0
C895 C 0.64717 0.15181 0.38218 0.0
H896 H 0.53763 0.11694 0.43202 0.0
H897 H 0.64479 0.94772 0.44004 0.0
H898 H 0.55233 0.15533 0.38628 0.0
H899 H 0.51783 0.05739 0.39165 0.0
H900 H 0.51897 0.17271 0.40423 0.0
H901 H 0.67833 0.86753 0.41759 0.0
H902 H 0.64907 0.83758 0.39876 0.0
H903 H 0.67988 0.94808 0.39872 0.0
H904 H 0.58246 0.82417 0.35071 0.0
H905 H 0.65827 0.0858 0.34945 0.0
H906 H 0.53538 0.88147 0.3911 0.0
H907 H 0.57557 0.79502 0.39383 0.0
H908 H 0.54384 0.78341 0.37518 0.0
H909 H 0.62425 0.19775 0.38883 0.0
H910 H 0.6627 0.20101 0.37267 0.0
H911 H 0.66871 0.12723 0.39215 0.0
C912 C 0.43687 0.10207 0.41034 0.0
C913 C 0.44698 0.00919 0.41813 0.0
C914 C 0.42954 0.10884 0.39244 0.0
C915 C 0.43156 0.02018 0.38201 0.0
C916 C 0.44328 0.92686 0.38969 0.0
C917 C 0.45114 0.92267 0.40762 0.0
C918 C 0.41848 0.21061 0.38479 0.0
C919 C 0.44572 0.83038 0.37914 0.0
C920 C 0.36565 0.02782 0.34193 0.0
C921 C 0.39248 0.05183 0.32867 0.0
C922 C 0.37826 0.01348 0.35914 0.0
C923 C 0.41872 0.02455 0.36342 0.0
C924 C 0.44616 0.04574 0.35006 0.0
C925 C 0.43279 0.05855 0.33292 0.0
C926 C 0.34799 -0.01077 0.37287 0.0
C927 C 0.48955 0.05834 0.35393 0.0
H928 H 0.43414 0.16955 0.41834 0.0
H929 H 0.45865 0.85046 0.41355 0.0
H930 H 0.43753 0.22782 0.37348 0.0
H931 H 0.38756 0.20814 0.38011 0.0
H932 H 0.42128 0.27358 0.39433 0.0
H933 H 0.45869 0.76636 0.38661 0.0
H934 H 0.41571 0.80809 0.37483 0.0
H935 H 0.46373 0.84279 0.36734 0.0
H936 H 0.33446 0.0233 0.339 0.0
H937 H 0.45408 0.07469 0.32283 0.0
H938 H 0.34582 0.05363 0.38212 0.0
H939 H 0.35717 0.9211 0.38034 0.0
H940 H 0.31829 0.97498 0.36729 0.0
H941 H 0.49404 0.12832 0.36173 0.0
H942 H 0.50757 0.06448 0.34196 0.0
H943 H 0.50062 -0.00673 0.36167 0.0
C944 C 0.02114 0.63662 0.99469 0.0
C945 C 0.01116 0.67274 0.01115 0.0
C946 C 0.00809 0.54098 0.98927 0.0
C947 C 0.98636 0.48052 1.00097 0.0
C948 C 0.97394 0.52021 0.01712 0.0
C949 C 0.98644 0.61687 0.02199 0.0
C950 C 0.01911 0.50255 0.9715 0.0
C951 C 0.94963 0.45845 0.02972 0.0
C952 C 0.94266 0.22132 0.99654 0.0
C953 C 0.97231 0.16444 1.00458 0.0
C954 C 0.94848 0.32459 0.99312 0.0
C955 C 0.98419 0.37045 0.99842 0.0
C956 C 0.01542 0.31081 1.00511 0.0
C957 C 0.00904 0.20787 1.00799 0.0
C958 C 0.91524 0.38469 0.98513 0.0
C959 C 0.05405 0.35701 0.011 0.0
H960 H 0.03915 0.68276 0.98614 0.0
H961 H 0.97806 0.6475 0.03451 0.0
H962 H 0.04375 0.4474 0.97257 0.0
H963 H -0.00619 0.46216 0.96548 0.0
H964 H 0.02857 0.56551 0.96284 0.0
H965 H 0.94154 0.50261 0.04147 0.0
H966 H 0.92211 0.43218 0.02338 0.0
H967 H 0.96636 0.38995 0.03382 0.0
H968 H 0.91465 0.18601 0.99334 0.0
H969 H 0.03215 0.1628 0.01388 0.0
H970 H 0.92519 0.45889 0.97983 0.0
H971 H 0.89235 0.39874 0.9951 0.0
H972 H 0.90112 0.34009 0.97459 0.0
H973 H 0.06688 0.40518 1.00066 0.0
H974 H 0.07611 0.29818 0.01461 0.0
H975 H 0.04882 0.40632 0.02245 0.0
C976 C 0.28651 0.50939 0.23941 0.0
C977 C 0.28528 0.48139 0.25686 0.0
C978 C 0.27227 0.60367 0.23412 0.0
C979 C 0.25796 0.67131 0.24679 0.0
C980 C 0.25448 0.6407 0.26433 0.0
C981 C 0.26827 0.54495 0.26917 0.0
C982 C 0.27394 0.63223 0.2152 0.0
C983 C 0.23774 0.71042 0.27804 0.0
C984 C 0.27931 0.94748 0.24719 0.0
C985 C 0.24085 0.98558 0.24723 0.0
C986 C 0.28593 0.84389 0.24516 0.0
C987 C 0.25319 0.77899 0.24261 0.0
C988 C 0.21515 0.81965 0.23994 0.0
C989 C 0.2092 0.92326 0.24262 0.0
C990 C 0.32721 0.8033 0.2478 0.0
C991 C 0.17995 0.7543 0.23593 0.0
H992 H 0.29848 0.45767 0.22991 0.0
H993 H 0.26668 0.5207 0.28258 0.0
H994 H 0.24621 0.67044 0.2112 0.0
H995 H 0.29846 0.68666 0.21302 0.0
H996 H 0.27877 0.56469 0.20678 0.0
H997 H 0.23562 0.67269 0.29088 0.0
H998 H 0.25664 0.77903 0.27936 0.0
H999 H 0.20785 0.73617 0.27417 0.0
H1000 H 0.30399 -0.00276 0.24995 0.0
H1001 H 0.17962 0.95437 0.24181 0.0
H1002 H 0.33478 0.74716 0.23761 0.0
H1003 H 0.32888 0.76379 0.26048 0.0
H1004 H 0.34971 0.86483 0.24768 0.0
H1005 H 0.18833 0.67682 0.23159 0.0
H1006 H 0.16168 0.79053 0.2257 0.0
H1007 H 0.16139 0.74913 0.24771 0.0
C1008 C 0.79473 0.09918 0.25658 0.0
C1009 C 0.77564 0.05144 0.2704 0.0
C1010 C 0.78135 0.19318 0.25066 0.0
C1011 C 0.74914 0.23918 0.25916 0.0
C1012 C 0.72855 0.18814 0.27248 0.0
C1013 C 0.74237 0.09448 0.27804 0.0
C1014 C 0.80319 0.24662 0.23628 0.0
C1015 C 0.69411 0.23599 0.28187 0.0
C1016 C 0.75679 0.50761 0.27287 0.0
C1017 C 0.72543 0.55045 0.26385 0.0
C1018 C 0.76676 0.40676 0.27041 0.0
C1019 C 0.74481 0.34881 0.25835 0.0
C1020 C 0.7146 0.39366 0.24831 0.0
C1021 C 0.70473 0.49505 0.25141 0.0
C1022 C 0.80017 0.36343 0.28118 0.0
C1023 C 0.69179 0.33595 0.23471 0.0
H1024 H 0.81977 0.063 0.25039 0.0
H1025 H 0.72732 0.05509 0.28844 0.0
H1026 H 0.78214 0.28531 0.22745 0.0
H1027 H 0.82274 0.30574 0.24194 0.0
H1028 H 0.82164 0.19293 0.22867 0.0
H1029 H 0.67701 0.17899 0.2894 0.0
H1030 H 0.70526 0.29469 0.29098 0.0
H1031 H 0.67398 0.27406 0.27259 0.0
H1032 H 0.7729 0.55261 0.28224 0.0
H1033 H 0.68138 0.53104 0.24401 0.0
H1034 H 0.79765 0.2807 0.28365 0.0
H1035 H 0.80188 0.40167 0.29398 0.0
H1036 H 0.82839 0.37699 0.27429 0.0
H1037 H 0.70266 0.25728 0.23265 0.0
H1038 H 0.69344 0.37758 0.22222 0.0
H1039 H 0.6602 0.33352 0.23844 0.0
C1040 C 0.96447 0.73297 0.54391 0.0
C1041 C 0.97448 0.69029 0.52786 0.0
C1042 C 0.97612 0.83213 0.54804 0.0
C1043 C -0.00254 0.88879 0.53566 0.0
C1044 C 0.01127 0.84195 0.52032 0.0
C1045 C -0.00069 0.74295 0.51653 0.0
C1046 C 0.96254 0.87912 0.56485 0.0
C1047 C 0.03515 0.89955 0.50703 0.0
C1048 C 0.97012 0.1571 0.52521 0.0
C1049 C 0.00436 0.20851 0.53008 0.0
C1050 C 0.96613 0.05332 0.52839 0.0
C1051 C -0.00255 0.00045 0.53652 0.0
C1052 C 0.03084 0.05358 0.54268 0.0
C1053 C 0.03413 0.15769 0.5392 0.0
C1054 C 0.92979 -0.0009 0.52175 0.0
C1055 C 0.06423 -7e-05 0.5518 0.0
H1056 H 0.94606 0.69086 0.55288 0.0
H1057 H 0.00759 0.70905 0.50425 0.0
H1058 H 0.98592 0.9282 0.57047 0.0
H1059 H 0.9364 0.92783 0.5624 0.0
H1060 H 0.95421 0.82013 0.57449 0.0
H1061 H 0.01606 0.95656 0.50053 0.0
H1062 H 0.05971 0.94117 0.51334 0.0
H1063 H 0.04767 0.84832 0.49698 0.0
H1064 H 0.94737 0.19681 0.51803 0.0
H1065 H 0.0605 0.19846 0.5431 0.0
H1066 H 0.91593 0.95444 0.53231 0.0
H1067 H 0.93815 0.94507 0.51133 0.0
H1068 H 0.90749 0.0527 0.51648 0.0
H1069 H 0.05351 0.9334 0.55928 0.0
H1070 H 0.08005 0.05242 0.5607 0.0
H1071 H 0.08572 0.97209 0.54206 0.0
C1072 C 0.24042 0.15003 0.77937 0.0
C1073 C 0.26923 0.12679 0.7671 0.0
C1074 C 0.22549 0.24867 0.78076 0.0
C1075 C 0.24001 0.32494 0.76946 0.0
C1076 C 0.27054 0.3016 0.75747 0.0
C1077 C 0.2851 0.2024 0.75661 0.0
C1078 C 0.1933 0.26777 0.7939 0.0
C1079 C 0.28603 0.37712 0.74442 0.0
C1080 C 0.18597 0.56102 0.75501 0.0
C1081 C 0.19935 0.6308 0.76723 0.0
C1082 C 0.19763 0.45937 0.75593 0.0
C1083 C 0.22266 0.42777 0.76967 0.0
C1084 C 0.23336 0.49752 0.78289 0.0
C1085 C 0.22174 0.59908 0.78137 0.0
C1086 C 0.18516 0.39012 0.74133 0.0
C1087 C 0.25766 0.46756 0.79849 0.0
H1088 H 0.22837 0.08994 0.78741 0.0
H1089 H 0.30691 0.1825 0.7469 0.0
H1090 H 0.20679 0.27243 0.80697 0.0
H1091 H 0.17655 0.33882 0.79151 0.0
H1092 H 0.1722 0.20298 0.79413 0.0
H1093 H 0.27153 0.36279 0.73177 0.0
H1094 H 0.28041 0.45704 0.74814 0.0
H1095 H 0.31816 0.36608 0.74238 0.0
H1096 H 0.16874 0.58726 0.74403 0.0
H1097 H 0.23148 0.65459 0.79086 0.0
H1098 H 0.19079 0.30875 0.74396 0.0
H1099 H 0.20137 0.4119 0.72941 0.0
H1100 H 0.15333 0.40087 0.73849 0.0
H1101 H 0.27613 0.3993 0.7962 0.0
H1102 H 0.2374 0.45076 0.8094 0.0
H1103 H 0.27705 0.53125 0.80267 0.0
C1104 C 0.70689 0.51926 0.75628 0.0
C1105 C 0.73382 0.44713 0.75046 0.0
C1106 C 0.71144 0.6213 0.75187 0.0
C1107 C 0.74319 0.65056 0.74087 0.0
C1108 C 0.76816 0.57602 0.7336 0.0
C1109 C 0.76359 0.47473 0.73876 0.0
C1110 C 0.68361 0.69761 0.76003 0.0
C1111 C 0.80069 0.60189 0.72101 0.0
C1112 C 0.71435 0.91321 0.73707 0.0
C1113 C 0.7308 0.94597 0.75274 0.0
C1114 C 0.72626 0.82092 0.72984 0.0
C1115 C 0.75251 0.75955 0.73937 0.0
C1116 C 0.77541 0.80323 0.75278 0.0
C1117 C 0.76409 0.89765 0.75941 0.0
C1118 C 0.70539 0.78098 0.71401 0.0
C1119 C 0.80685 0.74332 0.76207 0.0
H1120 H 0.6837 0.49682 0.76517 0.0
H1121 H 0.78379 0.41751 0.73387 0.0
H1122 H 0.7004 0.75355 0.76786 0.0
H1123 H 0.66732 0.73955 0.74984 0.0
H1124 H 0.66151 0.66103 0.76864 0.0
H1125 H 0.80042 0.54709 0.71005 0.0
H1126 H 0.79826 0.68018 0.71574 0.0
H1127 H 0.82964 0.59357 0.72757 0.0
H1128 H 0.69004 0.95496 0.73133 0.0
H1129 H 0.77869 0.92785 0.77074 0.0
H1130 H 0.67799 0.7411 0.71799 0.0
H1131 H 0.72429 0.72609 0.70689 0.0
H1132 H 0.697 0.84436 0.70523 0.0
H1133 H 0.79282 0.68372 0.77019 0.0
H1134 H 0.82516 0.79263 0.77057 0.0
H1135 H 0.82637 0.70494 0.75259 0.0
C1136 C 0.4905 0.71713 0.49206 0.0
C1137 C 0.5254 0.74001 0.50091 0.0
C1138 C 0.48203 0.6176 0.48703 0.0
C1139 C 0.50991 0.54103 0.4906 0.0
C1140 C 0.54855 0.5682 0.49562 0.0
C1141 C 0.55572 0.6677 0.50139 0.0
C1142 C 0.44171 0.59345 0.47988 0.0
C1143 C 0.5809 0.48985 0.49615 0.0
C1144 C 0.47353 0.3164 0.51631 0.0
C1145 C 0.4658 0.24639 0.50326 0.0
C1146 C 0.48721 0.41352 0.51216 0.0
C1147 C 0.49557 0.43781 0.49459 0.0
C1148 C 0.4883 0.36563 0.48137 0.0
C1149 C 0.4721 0.2714 0.48588 0.0
C1150 C 0.49185 0.49045 0.52661 0.0
C1151 C 0.49727 0.38579 0.46252 0.0
H1152 H 0.46882 0.77585 0.48997 0.0
H1153 H 0.58412 0.68718 0.50692 0.0
H1154 H 0.44304 0.53297 0.46996 0.0
H1155 H 0.42246 0.56623 0.49054 0.0
H1156 H 0.42807 0.66145 0.47382 0.0
H1157 H 0.61035 0.52574 0.49758 0.0
H1158 H 0.57591 0.43691 0.50708 0.0
H1159 H 0.58041 0.44364 0.48411 0.0
H1160 H 0.46815 0.29561 0.5297 0.0
H1161 H 0.46619 0.21538 0.47587 0.0
H1162 H 0.4755 0.5612 0.52343 0.0
H1163 H 0.52335 0.51092 0.52819 0.0
H1164 H 0.48087 0.46123 0.53922 0.0
H1165 H 0.46919 0.39246 0.45523 0.0
H1166 H 0.51312 0.32016 0.45684 0.0
H1167 H 0.51511 0.45547 0.46041 0.0
C1168 C 0.50913 0.75128 0.99092 0.0
C1169 C 0.48153 0.72951 1.00382 0.0
C1170 C 0.5245 0.84902 0.98926 0.0
C1171 C 0.51145 0.92467 1.00086 0.0
C1172 C 0.48191 0.90345 0.01337 0.0
C1173 C 0.46694 0.80516 0.0146 0.0
C1174 C 0.55659 0.86904 0.97611 0.0
C1175 C 0.46822 0.98184 0.02633 0.0
C1176 C 0.56653 0.15094 0.01669 0.0
C1177 C 0.54467 0.22721 1.00859 0.0
C1178 C 0.55905 0.04909 0.0128 0.0
C1179 C 0.52927 0.02568 1.00059 0.0
C1180 C 0.51083 0.103 0.99087 0.0
C1181 C 0.51872 0.20382 0.99509 0.0
C1182 C 0.58039 0.96708 0.0228 0.0
C1183 C 0.48063 0.07946 0.97702 0.0
H1184 H 0.51997 0.69063 0.98268 0.0
H1185 H 0.44596 0.78592 0.02469 0.0
H1186 H 0.54918 0.93579 0.968 0.0
H1187 H 0.58457 0.88725 0.9829 0.0
H1188 H 0.56171 0.80254 0.96751 0.0
H1189 H 0.44042 0.9587 0.03285 0.0
H1190 H 0.49122 -0.00788 0.0364 0.0
H1191 H 0.46363 0.05625 0.02001 0.0
H1192 H 0.58758 0.17051 0.02674 0.0
H1193 H 0.50344 0.26434 0.98831 0.0
H1194 H 0.58797 0.902 0.01427 0.0
H1195 H 0.5609 0.9379 0.03322 0.0
H1196 H 0.60785 -0.00359 0.02888 0.0
H1197 H 0.46741 0.14942 0.9714 0.0
H1198 H 0.45674 0.03109 0.98237 0.0
H1199 H 0.49458 0.03609 0.96636 0.0
C1200 C 0.36924 0.10021 0.98172 0.0
C1201 C 0.38719 0.12214 0.99762 0.0
C1202 C 0.33385 0.04544 0.98113 0.0
C1203 C 0.31615 0.01447 0.99685 0.0
C1204 C 0.33764 0.0215 0.01252 0.0
C1205 C 0.37322 0.07556 0.01272 0.0
C1206 C 0.3127 0.03468 0.96404 0.0
C1207 C 0.32027 0.98681 0.0295 0.0
C1208 C 0.20924 0.08902 1.00132 0.0
C1209 C 0.19017 -0.00534 1.00086 0.0
C1210 C 0.2502 0.09569 0.9999 0.0
C1211 C 0.27267 0.00562 0.99765 0.0
C1212 C 0.25354 0.91011 0.99661 0.0
C1213 C 0.21237 0.90561 0.99846 0.0
C1214 C 0.26941 0.19946 1.00118 0.0
C1215 C 0.27635 0.81269 0.994 0.0
H1216 H 0.38071 0.13418 0.96995 0.0
H1217 H 0.38726 0.09174 0.02503 0.0
H1218 H 0.2962 0.9618 0.9634 0.0
H1219 H 0.29113 0.0977 0.96264 0.0
H1220 H 0.33359 0.0385 0.95298 0.0
H1221 H 0.34344 0.97661 0.03953 0.0
H1222 H 0.29911 0.04509 0.03419 0.0
H1223 H 0.30399 0.91421 0.02792 0.0
H1224 H 0.1922 0.15792 1.00325 0.0
H1225 H 0.19761 0.83241 0.99807 0.0
H1226 H 0.28632 0.21583 0.98921 0.0
H1227 H 0.29045 0.20104 0.01219 0.0
H1228 H 0.24757 0.26146 1.0031 0.0
H1229 H 0.30149 0.82388 0.985 0.0
H1230 H 0.25722 0.75093 0.98888 0.0
H1231 H 0.28851 0.78724 1.00661 0.0
C1232 C 0.85241 0.67232 0.97782 0.0
C1233 C 0.86176 0.62127 0.99324 0.0
C1234 C 0.81291 0.68392 0.9728 0.0
C1235 C 0.7831 0.63809 0.98293 0.0
C1236 C 0.79365 0.56705 0.99594 0.0
C1237 C 0.83309 0.561 1.00123 0.0
C1238 C 0.80298 0.75882 0.95869 0.0
C1239 C 0.7628 0.51069 1.00626 0.0
C1240 C 0.69601 0.772 1.00208 0.0
C1241 C 0.66516 0.72056 0.99392 0.0
C1242 C 0.73503 0.75653 0.99675 0.0
C1243 C 0.74307 0.68371 0.98362 0.0
C1244 C 0.71163 0.64164 0.97396 0.0
C1245 C 0.67276 0.663 0.97899 0.0
C1246 C 0.76774 0.80799 1.00676 0.0
C1247 C 0.71857 0.56276 0.96011 0.0
H1248 H 0.87479 0.7179 0.97146 0.0
H1249 H 0.84051 0.52007 0.01298 0.0
H1250 H 0.77859 0.73038 0.95046 0.0
H1251 H 0.79287 0.83083 0.96474 0.0
H1252 H 0.8289 0.77542 0.95036 0.0
H1253 H 0.77554 0.44324 0.01289 0.0
H1254 H 0.75046 0.56223 0.01629 0.0
H1255 H 0.7382 0.48534 0.99782 0.0
H1256 H 0.68999 0.81634 0.01363 0.0
H1257 H 0.64872 0.62268 0.97274 0.0
H1258 H 0.79175 0.83247 0.99794 0.0
H1259 H 0.78043 0.75356 0.01623 0.0
H1260 H 0.75688 0.87551 0.01399 0.0
H1261 H 0.74592 0.57791 0.95271 0.0
H1262 H 0.69329 0.5586 0.95098 0.0
H1263 H 0.72191 0.48732 0.96639 0.0
C1264 C 0.11201 0.60117 0.26806 0.0
C1265 C 0.13144 0.55416 0.25431 0.0
C1266 C 0.07645 0.6519 0.26528 0.0
C1267 C 0.06025 0.65356 0.24837 0.0
C1268 C 0.08259 0.61804 0.23414 0.0
C1269 C 0.11797 0.56661 0.23734 0.0
C1270 C 0.05378 0.69056 0.28077 0.0
C1271 C 0.06703 0.62303 0.21587 0.0
C1272 C 0.95243 0.59356 0.25169 0.0
C1273 C 0.93627 0.69132 0.25219 0.0
C1274 C -0.0072 0.57988 0.24905 0.0
C1275 C 0.01725 0.66631 0.24661 0.0
C1276 C 0.00048 0.76435 0.24537 0.0
C1277 C 0.96002 0.77594 0.24838 0.0
C1278 C 0.00961 0.47353 0.25032 0.0
C1279 C 0.02538 0.85768 0.24213 0.0
H1280 H 0.12283 0.59038 0.28115 0.0
H1281 H 0.13331 0.52918 0.22677 0.0
H1282 H 0.04079 0.76627 0.27805 0.0
H1283 H 0.02919 0.63739 0.28368 0.0
H1284 H 0.07272 0.69667 0.29247 0.0
H1285 H 0.09143 0.62012 0.20628 0.0
H1286 H 0.04738 0.55692 0.21349 0.0
H1287 H 0.04961 0.69343 0.21375 0.0
H1288 H 0.93397 0.52804 0.2544 0.0
H1289 H 0.94733 0.85169 0.24836 0.0
H1290 H 0.02846 0.46752 0.26203 0.0
H1291 H 0.02837 0.45674 0.23892 0.0
H1292 H 0.98623 0.41444 0.25114 0.0
H1293 H 0.03685 0.88673 0.25465 0.0
H1294 H 0.00773 0.91933 0.23606 0.0
H1295 H 0.05099 0.84028 0.23369 0.0
C1296 C 0.33402 0.63555 0.50049 0.0
C1297 C 0.34834 0.70636 0.48859 0.0
C1298 C 0.29889 0.58376 0.49705 0.0
C1299 C 0.2789 0.60309 0.48127 0.0
C1300 C 0.29753 0.65934 0.46803 0.0
C1301 C 0.33187 0.71302 0.47202 0.0
C1302 C 0.28038 0.52111 0.51126 0.0
C1303 C 0.27849 0.67408 0.45057 0.0
C1304 C 0.17713 0.48882 0.48067 0.0
C1305 C 0.15541 0.56922 0.48785 0.0
C1306 C 0.21721 0.50074 0.47691 0.0
C1307 C 0.23568 0.59398 0.48103 0.0
C1308 C 0.21307 0.67755 0.48713 0.0
C1309 C 0.17292 0.66428 0.49022 0.0
C1310 C 0.23971 0.41165 0.46954 0.0
C1311 C 0.23164 0.77898 0.49162 0.0
H1312 H 0.34775 0.62905 0.51313 0.0
H1313 H 0.34428 0.76526 0.46261 0.0
H1314 H 0.25562 0.5644 0.51712 0.0
H1315 H 0.2682 0.44926 0.50597 0.0
H1316 H 0.30186 0.50236 0.52165 0.0
H1317 H 0.25697 0.73754 0.4513 0.0
H1318 H 0.30076 0.69355 0.44055 0.0
H1319 H 0.26234 0.60451 0.4465 0.0
H1320 H 0.16314 0.41566 0.47849 0.0
H1321 H 0.15586 0.72644 0.49564 0.0
H1322 H 0.24845 0.35994 0.48022 0.0
H1323 H 0.26672 0.4359 0.46255 0.0
H1324 H 0.2208 0.36725 0.46053 0.0
H1325 H 0.25419 0.7686 0.50188 0.0
H1326 H 0.20965 0.83535 0.49628 0.0
H1327 H 0.24662 0.81136 0.48011 0.0
C1328 C 0.77882 0.53083 0.54408 0.0
C1329 C 0.79051 0.48175 0.52879 0.0
C1330 C 0.73914 0.52924 0.54923 0.0
C1331 C 0.71146 0.47672 0.53884 0.0
C1332 C 0.7224 0.44337 0.52202 0.0
C1333 C 0.76203 0.44584 0.51727 0.0
C1334 C 0.72826 0.573 0.56662 0.0
C1335 C 0.69368 0.39035 0.51006 0.0
C1336 C 0.65253 0.2557 0.55168 0.0
C1337 C 0.61675 0.28325 0.544 0.0
C1338 C 0.68285 0.32681 0.55335 0.0
C1339 C 0.67698 0.42653 0.54686 0.0
C1340 C 0.63851 0.45937 0.54261 0.0
C1341 C 0.60841 0.38646 0.54123 0.0
C1342 C 0.72282 0.29028 0.55937 0.0
C1343 C 0.63052 0.5682 0.53753 0.0
H1344 H 0.80087 0.56176 0.55279 0.0
H1345 H 0.77113 0.41153 0.50513 0.0
H1346 H 0.69593 0.58188 0.5682 0.0
H1347 H 0.73948 0.52246 0.57703 0.0
H1348 H 0.74261 0.64835 0.56838 0.0
H1349 H 0.70554 0.38283 0.4967 0.0
H1350 H 0.68734 0.31282 0.51505 0.0
H1351 H 0.66549 0.43248 0.50939 0.0
H1352 H 0.65824 0.17667 0.55486 0.0
H1353 H 0.5796 0.40882 0.53659 0.0
H1354 H 0.73619 0.34605 0.5684 0.0
H1355 H 0.7428 0.2822 0.54806 0.0
H1356 H 0.72103 0.21542 0.56602 0.0
H1357 H 0.59841 0.58421 0.53663 0.0
H1358 H 0.64426 0.58459 0.5248 0.0
H1359 H 0.64403 0.62076 0.5471 0.0
C1360 C 0.92297 0.34666 0.76171 0.0
C1361 C 0.91306 0.25026 0.76823 0.0
C1362 C 0.96254 0.37285 0.75864 0.0
C1363 C -0.00761 0.30035 0.76203 0.0
C1364 C 0.98257 0.20709 0.77026 0.0
C1365 C 0.94302 0.18346 0.77325 0.0
C1366 C 0.97162 0.47514 0.75073 0.0
C1367 C 0.01343 0.12794 0.77464 0.0
C1368 C 0.07529 0.21781 0.7348 0.0
C1369 C 0.10503 0.22045 0.74734 0.0
C1370 C 0.0387 0.2628 0.73808 0.0
C1371 C 0.03226 0.30999 0.75433 0.0
C1372 C 0.06479 0.33181 0.76517 0.0
C1373 C 0.10117 0.28555 0.76161 0.0
C1374 C 0.0053 0.2435 0.72558 0.0
C1375 C 0.05978 0.38974 0.78187 0.0
H1376 H 0.89984 0.39958 0.75812 0.0
H1377 H 0.93547 0.11004 0.77874 0.0
H1378 H 0.00281 0.49805 0.75271 0.0
H1379 H 0.9656 0.47219 0.73662 0.0
H1380 H 0.95212 0.5346 0.75633 0.0
H1381 H 0.00087 0.06196 0.78175 0.0
H1382 H 0.02729 0.09915 0.76258 0.0
H1383 H 0.03699 0.16191 0.78274 0.0
H1384 H 0.0789 0.17013 0.72344 0.0
H1385 H 0.12464 0.29021 0.77107 0.0
H1386 H 0.9867 0.31236 0.72421 0.0
H1387 H 0.98641 0.18113 0.73063 0.0
H1388 H 0.01628 0.22096 0.71258 0.0
H1389 H 0.03595 0.4473 0.78077 0.0
H1390 H 0.0877 0.42824 0.78561 0.0
H1391 H 0.05179 0.33592 0.79237 0.0
C1392 C 0.50343 0.19523 0.77568 0.0
C1393 C 0.53249 0.26193 0.78188 0.0
C1394 C 0.46494 0.22988 0.77263 0.0
C1395 C 0.45569 0.33272 0.77615 0.0
C1396 C 0.48389 0.39678 0.78421 0.0
C1397 C 0.52223 0.36084 0.78676 0.0
C1398 C 0.43551 0.15922 0.76421 0.0
C1399 C 0.4746 0.50607 0.78878 0.0
C1400 C 0.3929 0.50139 0.74849 0.0
C1401 C 0.36153 0.52078 0.75973 0.0
C1402 C 0.42185 0.43015 0.75286 0.0
C1403 C 0.41952 0.37942 0.76902 0.0
C1404 C 0.38573 0.39108 0.77954 0.0
C1405 C 0.35701 0.46208 0.77473 0.0
C1406 C 0.45694 0.4173 0.74102 0.0
C1407 C 0.38176 0.33769 0.79675 0.0
H1408 H 0.51146 0.11847 0.7719 0.0
H1409 H 0.5447 0.41171 0.79179 0.0
H1410 H 0.4054 0.17149 0.76943 0.0
H1411 H 0.43451 0.17491 0.7501 0.0
H1412 H 0.44374 0.07809 0.76605 0.0
H1413 H 0.49805 0.54127 0.79685 0.0
H1414 H 0.47152 0.5514 0.77672 0.0
H1415 H 0.44622 0.51088 0.79588 0.0
H1416 H 0.39602 0.54615 0.73677 0.0
H1417 H 0.33293 0.47796 0.78348 0.0
H1418 H 0.46476 0.33569 0.73968 0.0
H1419 H 0.48279 0.45723 0.74666 0.0
H1420 H 0.45132 0.44917 0.72792 0.0
H1421 H 0.39561 0.26123 0.79651 0.0
H1422 H 0.35029 0.32954 0.80051 0.0
H1423 H 0.39678 0.38356 0.80686 0.0
C1424 C 0.60674 0.17657 0.24968 0.0
C1425 C 0.63593 0.11623 0.24217 0.0
C1426 C 0.5715 0.19486 0.2409 0.0
C1427 C 0.56567 0.14997 0.22437 0.0
C1428 C 0.59792 0.10554 0.21556 0.0
C1429 C 0.6332 0.08963 0.22463 0.0
C1430 C 0.53849 0.2473 0.25056 0.0
C1431 C 0.59388 0.06199 0.19758 0.0
C1432 C 0.46598 0.03579 0.22896 0.0
C1433 C 0.44325 0.12054 0.22461 0.0
C1434 C 0.50687 0.03757 0.22643 0.0
C1435 C 0.52467 0.12589 0.21923 0.0
C1436 C 0.50081 0.20267 0.21195 0.0
C1437 C 0.46015 0.20013 0.21503 0.0
C1438 C 0.53131 0.95144 0.23368 0.0
C1439 C 0.51844 0.29352 0.20286 0.0
H1440 H 0.60938 0.19819 0.26319 0.0
H1441 H 0.65616 0.04368 0.21874 0.0
H1442 H 0.52376 0.30411 0.24217 0.0
H1443 H 0.51607 0.19024 0.25451 0.0
H1444 H 0.54925 0.28672 0.26239 0.0
H1445 H 0.62146 0.07442 0.19011 0.0
H1446 H 0.58924 0.97848 0.19844 0.0
H1447 H 0.56879 0.09603 0.1904 0.0
H1448 H 0.45262 0.97339 0.23605 0.0
H1449 H 0.44209 0.26424 0.2111 0.0
H1450 H 0.54666 0.97729 0.2456 0.0
H1451 H 0.55412 0.92781 0.22423 0.0
H1452 H 0.51301 0.88402 0.23699 0.0
H1453 H 0.52412 0.35487 0.21242 0.0
H1454 H 0.49777 0.32399 0.19298 0.0
H1455 H 0.54681 0.27394 0.19651 0.0
loop_
_geom_bond_atom_site_label_1
_geom_bond_atom_site_label_2
_geom_bond_distance
_geom_bond_site_symmetry_2
_ccdc_geom_bond_type
Cd0 N3 2.334 1_554 S
Cd0 N29 2.304 . S
Cd0 O36 2.269 . S
Cd0 O39 2.273 1_545 S
Cd0 O40 2.414 1_554 S
Cd0 O41 2.330 1_545 S
Cd1 N16 2.304 . S
Cd1 N20 2.334 1_554 S
Cd1 O37 2.273 1_565 S
Cd1 O38 2.269 . S
Cd1 O42 2.414 1_554 S
Cd1 O43 2.330 1_565 S
C2 N3 1.332 1_565 S
C2 C6 1.381 . S
C2 H8 0.931 . S
N3 Cd0 2.334 1_556 S
N3 C2 1.332 1_545 S
N3 C7 1.328 . S
C4 C5 1.396 . S
C4 C7 1.378 . S
C4 H46 0.931 . S
C5 C4 1.396 . S
C5 C6 1.382 1_545 S
C6 C2 1.381 . S
C6 C5 1.382 1_565 S
C6 H47 0.930 . S
C7 N3 1.328 . S
C7 C4 1.378 . S
C7 H9 0.930 . S
H8 C2 0.931 . S
H9 C7 0.930 . S
C10 O36 1.238 1_655 S
C10 O37 1.256 . S
C11 C12 1.379 . S
C11 N16 1.337 1_545 S
C11 H17 0.929 . S
C12 C11 1.379 . S
C12 C13 1.380 1_545 S
C12 H48 0.929 . S
C13 C12 1.380 1_565 S
C13 C14 1.399 . S
C14 C13 1.399 . S
C14 C15 1.376 . S
C14 H49 0.931 . S
C15 C14 1.376 . S
C15 N16 1.338 . S
C15 H18 0.930 . S
N16 Cd1 2.304 . S
N16 C11 1.337 1_565 S
N16 C15 1.338 . S
H17 C11 0.929 . S
H18 C15 0.930 . S
C19 N20 1.332 1_545 S
C19 C23 1.381 . S
C19 H25 0.931 . S
N20 Cd1 2.334 1_556 S
N20 C19 1.332 1_565 S
N20 C24 1.328 . S
C21 C22 1.396 . S
C21 C24 1.378 . S
C21 H50 0.931 . S
C22 C21 1.396 . S
C22 C23 1.382 1_565 S
C23 C19 1.381 . S
C23 C22 1.382 1_545 S
C23 H51 0.930 . S
C24 N20 1.328 . S
C24 C21 1.378 . S
C24 H26 0.930 . S
H25 C19 0.931 . S
H26 C24 0.930 . S
C27 O38 1.238 1_455 S
C27 O39 1.256 . S
C28 O40 1.235 1_554 S
C28 O41 1.232 1_545 S
N29 Cd0 2.304 . S
N29 C30 1.337 1_545 S
N29 C34 1.338 . S
C30 N29 1.337 1_565 S
C30 C31 1.379 . S
C30 H44 0.929 . S
C31 C30 1.379 . S
C31 C32 1.380 1_565 S
C31 H52 0.929 . S
C32 C31 1.380 1_545 S
C32 C33 1.399 . S
C33 C32 1.399 . S
C33 C34 1.376 . S
C33 H53 0.931 . S
C34 N29 1.338 . S
C34 C33 1.376 . S
C34 H45 0.930 . S
C35 O42 1.235 1_554 S
C35 O43 1.232 1_565 S
O36 Cd0 2.269 . S
O36 C10 1.238 1_455 S
O37 Cd1 2.273 1_545 S
O37 C10 1.256 . S
O38 Cd1 2.269 . S
O38 C27 1.238 1_655 S
O39 Cd0 2.273 1_565 S
O39 C27 1.256 . S
O40 Cd0 2.414 1_556 S
O40 C28 1.235 1_556 S
O41 Cd0 2.330 1_565 S
O41 C28 1.232 1_565 S
O42 Cd1 2.414 1_556 S
O42 C35 1.235 1_556 S
O43 Cd1 2.330 1_545 S
O43 C35 1.232 1_545 S
H44 C30 0.929 . S
H45 C34 0.930 . S
H46 C4 0.931 . S
H47 C6 0.930 . S
H48 C12 0.929 . S
H49 C14 0.931 . S
H50 C21 0.931 . S
H51 C23 0.930 . S
H52 C31 0.929 . S
H53 C33 0.931 . S
Cd54 N57 2.334 . S
Cd54 N83 2.304 . S
Cd54 O90 2.268 . S
Cd54 O93 2.273 . S
Cd54 O94 2.417 . S
Cd54 O95 2.330 . S
Cd55 N70 2.304 . S
Cd55 N74 2.334 . S
Cd55 O91 2.273 . S
Cd55 O92 2.268 . S
Cd55 O96 2.417 . S
Cd55 O97 2.330 . S
C56 N57 1.332 . S
C56 C60 1.381 . S
C56 H62 0.931 . S
N57 Cd54 2.334 . S
N57 C56 1.332 . S
N57 C61 1.328 . S
C58 C59 1.396 . S
C58 C61 1.378 . S
C58 H100 0.931 . S
C59 C58 1.396 . S
C59 C60 1.382 . S
C60 C56 1.381 . S
C60 C59 1.382 . S
C60 H101 0.930 . S
C61 N57 1.328 . S
C61 C58 1.378 . S
C61 H63 0.930 . S
H62 C56 0.931 . S
H63 C61 0.930 . S
C64 O90 1.238 . S
C64 O91 1.253 . S
C65 C66 1.379 . S
C65 N70 1.337 . S
C65 H71 0.929 . S
C66 C65 1.379 . S
C66 C67 1.380 . S
C66 H102 0.929 . S
C67 C66 1.380 . S
C67 C68 1.399 . S
C68 C67 1.399 . S
C68 C69 1.376 . S
C68 H103 0.931 . S
C69 C68 1.376 . S
C69 N70 1.338 . S
C69 H72 0.930 . S
N70 Cd55 2.304 . S
N70 C65 1.337 . S
N70 C69 1.338 . S
H71 C65 0.929 . S
H72 C69 0.930 . S
C73 N74 1.332 . S
C73 C77 1.381 . S
C73 H79 0.931 . S
N74 Cd55 2.334 . S
N74 C73 1.332 . S
N74 C78 1.328 . S
C75 C76 1.396 . S
C75 C78 1.378 . S
C75 H104 0.931 . S
C76 C75 1.396 . S
C76 C77 1.382 . S
C77 C73 1.381 . S
C77 C76 1.382 . S
C77 H105 0.930 . S
C78 N74 1.328 . S
C78 C75 1.378 . S
C78 H80 0.930 . S
H79 C73 0.931 . S
H80 C78 0.930 . S
C81 O92 1.238 . S
C81 O93 1.253 . S
C82 O94 1.239 . S
C82 O95 1.230 . S
N83 Cd54 2.304 . S
N83 C84 1.337 . S
N83 C88 1.338 . S
C84 N83 1.337 . S
C84 C85 1.379 . S
C84 H98 0.929 . S
C85 C84 1.379 . S
C85 C86 1.380 . S
C85 H106 0.929 . S
C86 C85 1.380 . S
C86 C87 1.399 . S
C87 C86 1.399 . S
C87 C88 1.376 . S
C87 H107 0.931 . S
C88 N83 1.338 . S
C88 C87 1.376 . S
C88 H99 0.930 . S
C89 O96 1.239 . S
C89 O97 1.230 . S
O90 Cd54 2.268 . S
O90 C64 1.238 . S
O91 Cd55 2.273 . S
O91 C64 1.253 . S
O92 Cd55 2.268 . S
O92 C81 1.238 . S
O93 Cd54 2.273 . S
O93 C81 1.253 . S
O94 Cd54 2.417 . S
O94 C82 1.239 . S
O95 Cd54 2.330 . S
O95 C82 1.230 . S
O96 Cd55 2.417 . S
O96 C89 1.239 . S
O97 Cd55 2.330 . S
O97 C89 1.230 . S
H98 C84 0.929 . S
H99 C88 0.930 . S
H100 C58 0.931 . S
H101 C60 0.930 . S
H102 C66 0.929 . S
H103 C68 0.931 . S
H104 C75 0.931 . S
H105 C77 0.930 . S
H106 C85 0.929 . S
H107 C87 0.931 . S
Cd108 N111 2.334 . S
Cd108 N137 2.304 . S
Cd108 O144 2.268 . S
Cd108 O147 2.273 . S
Cd108 O148 2.417 . S
Cd108 O149 2.330 . S
Cd109 N124 2.304 . S
Cd109 N128 2.334 . S
Cd109 O145 2.273 . S
Cd109 O146 2.268 . S
Cd109 O150 2.417 . S
Cd109 O151 2.330 . S
C110 N111 1.332 . S
C110 C114 1.381 . S
C110 H116 0.931 . S
N111 Cd108 2.334 . S
N111 C110 1.332 . S
N111 C115 1.328 . S
C112 C113 1.396 . S
C112 C115 1.378 . S
C112 H154 0.931 . S
C113 C112 1.396 . S
C113 C114 1.382 . S
C114 C110 1.381 . S
C114 C113 1.382 . S
C114 H155 0.930 . S
C115 N111 1.328 . S
C115 C112 1.378 . S
C115 H117 0.930 . S
H116 C110 0.931 . S
H117 C115 0.930 . S
C118 O144 1.238 . S
C118 O145 1.253 . S
C119 C120 1.379 . S
C119 N124 1.337 . S
C119 H125 0.929 . S
C120 C119 1.379 . S
C120 C121 1.380 . S
C120 H156 0.929 . S
C121 C120 1.380 . S
C121 C122 1.399 . S
C122 C121 1.399 . S
C122 C123 1.376 . S
C122 H157 0.931 . S
C123 C122 1.376 . S
C123 N124 1.338 . S
C123 H126 0.930 . S
N124 Cd109 2.304 . S
N124 C119 1.337 . S
N124 C123 1.338 . S
H125 C119 0.929 . S
H126 C123 0.930 . S
C127 N128 1.332 . S
C127 C131 1.381 . S
C127 H133 0.931 . S
N128 Cd109 2.334 . S
N128 C127 1.332 . S
N128 C132 1.328 . S
C129 C130 1.396 . S
C129 C132 1.378 . S
C129 H158 0.931 . S
C130 C129 1.396 . S
C130 C131 1.382 . S
C131 C127 1.381 . S
C131 C130 1.382 . S
C131 H159 0.930 . S
C132 N128 1.328 . S
C132 C129 1.378 . S
C132 H134 0.930 . S
H133 C127 0.931 . S
H134 C132 0.930 . S
C135 O146 1.238 . S
C135 O147 1.253 . S
C136 O148 1.239 . S
C136 O149 1.230 . S
N137 Cd108 2.304 . S
N137 C138 1.337 . S
N137 C142 1.338 . S
C138 N137 1.337 . S
C138 C139 1.379 . S
C138 H152 0.929 . S
C139 C138 1.379 . S
C139 C140 1.380 . S
C139 H160 0.929 . S
C140 C139 1.380 . S
C140 C141 1.399 . S
C141 C140 1.399 . S
C141 C142 1.376 . S
C141 H161 0.931 . S
C142 N137 1.338 . S
C142 C141 1.376 . S
C142 H153 0.930 . S
C143 O150 1.239 . S
C143 O151 1.230 . S
O144 Cd108 2.268 . S
O144 C118 1.238 . S
O145 Cd109 2.273 . S
O145 C118 1.253 . S
O146 Cd109 2.268 . S
O146 C135 1.238 . S
O147 Cd108 2.273 . S
O147 C135 1.253 . S
O148 Cd108 2.417 . S
O148 C136 1.239 . S
O149 Cd108 2.330 . S
O149 C136 1.230 . S
O150 Cd109 2.417 . S
O150 C143 1.239 . S
O151 Cd109 2.330 . S
O151 C143 1.230 . S
H152 C138 0.929 . S
H153 C142 0.930 . S
H154 C112 0.931 . S
H155 C114 0.930 . S
H156 C120 0.929 . S
H157 C122 0.931 . S
H158 C129 0.931 . S
H159 C131 0.930 . S
H160 C139 0.929 . S
H161 C141 0.931 . S
Cd162 N165 2.334 . S
Cd162 N191 2.304 . S
Cd162 O198 2.268 . S
Cd162 O201 2.273 . S
Cd162 O202 2.417 . S
Cd162 O203 2.330 . S
Cd163 N178 2.304 . S
Cd163 N182 2.334 . S
Cd163 O199 2.273 . S
Cd163 O200 2.268 . S
Cd163 O204 2.417 . S
Cd163 O205 2.330 . S
C164 N165 1.332 . S
C164 C168 1.381 . S
C164 H170 0.931 . S
N165 Cd162 2.334 . S
N165 C164 1.332 . S
N165 C169 1.328 . S
C166 C167 1.396 . S
C166 C169 1.378 . S
C166 H208 0.931 . S
C167 C166 1.396 . S
C167 C168 1.382 . S
C168 C164 1.381 . S
C168 C167 1.382 . S
C168 H209 0.930 . S
C169 N165 1.328 . S
C169 C166 1.378 . S
C169 H171 0.930 . S
H170 C164 0.931 . S
H171 C169 0.930 . S
C172 O198 1.238 1_655 S
C172 O199 1.253 . S
C173 C174 1.379 . S
C173 N178 1.337 . S
C173 H179 0.929 . S
C174 C173 1.379 . S
C174 C175 1.380 . S
C174 H210 0.929 . S
C175 C174 1.380 . S
C175 C176 1.399 . S
C176 C175 1.399 . S
C176 C177 1.376 . S
C176 H211 0.931 . S
C177 C176 1.376 . S
C177 N178 1.338 . S
C177 H180 0.930 . S
N178 Cd163 2.304 . S
N178 C173 1.337 . S
N178 C177 1.338 . S
H179 C173 0.929 . S
H180 C177 0.930 . S
C181 N182 1.332 . S
C181 C185 1.381 . S
C181 H187 0.931 . S
N182 Cd163 2.334 . S
N182 C181 1.332 . S
N182 C186 1.328 . S
C183 C184 1.396 . S
C183 C186 1.378 . S
C183 H212 0.931 . S
C184 C183 1.396 . S
C184 C185 1.382 . S
C185 C181 1.381 . S
C185 C184 1.382 . S
C185 H213 0.930 . S
C186 N182 1.328 . S
C186 C183 1.378 . S
C186 H188 0.930 . S
H187 C181 0.931 . S
H188 C186 0.930 . S
C189 O200 1.238 1_455 S
C189 O201 1.253 . S
C190 O202 1.239 . S
C190 O203 1.230 . S
N191 Cd162 2.304 . S
N191 C192 1.337 . S
N191 C196 1.338 . S
C192 N191 1.337 . S
C192 C193 1.379 . S
C192 H206 0.929 . S
C193 C192 1.379 . S
C193 C194 1.380 . S
C193 H214 0.929 . S
C194 C193 1.380 . S
C194 C195 1.399 . S
C195 C194 1.399 . S
C195 C196 1.376 . S
C195 H215 0.931 . S
C196 N191 1.338 . S
C196 C195 1.376 . S
C196 H207 0.930 . S
C197 O204 1.239 . S
C197 O205 1.230 . S
O198 Cd162 2.268 . S
O198 C172 1.238 1_455 S
O199 Cd163 2.273 . S
O199 C172 1.253 . S
O200 Cd163 2.268 . S
O200 C189 1.238 1_655 S
O201 Cd162 2.273 . S
O201 C189 1.253 . S
O202 Cd162 2.417 . S
O202 C190 1.239 . S
O203 Cd162 2.330 . S
O203 C190 1.230 . S
O204 Cd163 2.417 . S
O204 C197 1.239 . S
O205 Cd163 2.330 . S
O205 C197 1.230 . S
H206 C192 0.929 . S
H207 C196 0.930 . S
H208 C166 0.931 . S
H209 C168 0.930 . S
H210 C174 0.929 . S
H211 C176 0.931 . S
H212 C183 0.931 . S
H213 C185 0.930 . S
H214 C193 0.929 . S
H215 C195 0.931 . S
Cd216 N219 2.334 . S
Cd216 N245 2.304 . S
Cd216 O252 2.268 . S
Cd216 O255 2.273 . S
Cd216 O256 2.417 . S
Cd216 O257 2.330 . S
Cd217 N232 2.304 . S
Cd217 N236 2.334 . S
Cd217 O253 2.273 . S
Cd217 O254 2.268 . S
Cd217 O258 2.417 . S
Cd217 O259 2.330 . S
C218 N219 1.332 . S
C218 C222 1.381 . S
C218 H224 0.931 . S
N219 Cd216 2.334 . S
N219 C218 1.332 . S
N219 C223 1.328 . S
C220 C221 1.396 . S
C220 C223 1.378 . S
C220 H262 0.931 . S
C221 C220 1.396 . S
C221 C222 1.382 . S
C222 C218 1.381 . S
C222 C221 1.382 . S
C222 H263 0.930 . S
C223 N219 1.328 . S
C223 C220 1.378 . S
C223 H225 0.930 . S
H224 C218 0.931 . S
H225 C223 0.930 . S
C226 O252 1.238 . S
C226 O253 1.253 . S
C227 C228 1.379 . S
C227 N232 1.337 . S
C227 H233 0.929 . S
C228 C227 1.379 . S
C228 C229 1.380 . S
C228 H264 0.929 . S
C229 C228 1.380 . S
C229 C230 1.399 . S
C230 C229 1.399 . S
C230 C231 1.376 . S
C230 H265 0.931 . S
C231 C230 1.376 . S
C231 N232 1.338 . S
C231 H234 0.930 . S
N232 Cd217 2.304 . S
N232 C227 1.337 . S
N232 C231 1.338 . S
H233 C227 0.929 . S
H234 C231 0.930 . S
C235 N236 1.332 . S
C235 C239 1.381 . S
C235 H241 0.931 . S
N236 Cd217 2.334 . S
N236 C235 1.332 . S
N236 C240 1.328 . S
C237 C238 1.396 . S
C237 C240 1.378 . S
C237 H266 0.931 . S
C238 C237 1.396 . S
C238 C239 1.382 . S
C239 C235 1.381 . S
C239 C238 1.382 . S
C239 H267 0.930 . S
C240 N236 1.328 . S
C240 C237 1.378 . S
C240 H242 0.930 . S
H241 C235 0.931 . S
H242 C240 0.930 . S
C243 O254 1.238 . S
C243 O255 1.253 . S
C244 O256 1.239 . S
C244 O257 1.230 . S
N245 Cd216 2.304 . S
N245 C246 1.337 . S
N245 C250 1.338 . S
C246 N245 1.337 . S
C246 C247 1.379 . S
C246 H260 0.929 . S
C247 C246 1.379 . S
C247 C248 1.380 . S
C247 H268 0.929 . S
C248 C247 1.380 . S
C248 C249 1.399 . S
C249 C248 1.399 . S
C249 C250 1.376 . S
C249 H269 0.931 . S
C250 N245 1.338 . S
C250 C249 1.376 . S
C250 H261 0.930 . S
C251 O258 1.239 . S
C251 O259 1.230 . S
O252 Cd216 2.268 . S
O252 C226 1.238 . S
O253 Cd217 2.273 . S
O253 C226 1.253 . S
O254 Cd217 2.268 . S
O254 C243 1.238 . S
O255 Cd216 2.273 . S
O255 C243 1.253 . S
O256 Cd216 2.417 . S
O256 C244 1.239 . S
O257 Cd216 2.330 . S
O257 C244 1.230 . S
O258 Cd217 2.417 . S
O258 C251 1.239 . S
O259 Cd217 2.330 . S
O259 C251 1.230 . S
H260 C246 0.929 . S
H261 C250 0.930 . S
H262 C220 0.931 . S
H263 C222 0.930 . S
H264 C228 0.929 . S
H265 C230 0.931 . S
H266 C237 0.931 . S
H267 C239 0.930 . S
H268 C247 0.929 . S
H269 C249 0.931 . S
Cd270 N273 2.334 . S
Cd270 N299 2.304 . S
Cd270 O306 2.268 . S
Cd270 O309 2.273 . S
Cd270 O310 2.417 . S
Cd270 O311 2.330 . S
Cd271 N286 2.304 . S
Cd271 N290 2.334 . S
Cd271 O307 2.273 . S
Cd271 O308 2.268 . S
Cd271 O312 2.417 . S
Cd271 O313 2.330 . S
C272 N273 1.332 . S
C272 C276 1.381 . S
C272 H278 0.931 . S
N273 Cd270 2.334 . S
N273 C272 1.332 . S
N273 C277 1.328 . S
C274 C275 1.396 . S
C274 C277 1.378 . S
C274 H316 0.931 . S
C275 C274 1.396 . S
C275 C276 1.382 . S
C276 C272 1.381 . S
C276 C275 1.382 . S
C276 H317 0.930 . S
C277 N273 1.328 . S
C277 C274 1.378 . S
C277 H279 0.930 . S
H278 C272 0.931 . S
H279 C277 0.930 . S
C280 O306 1.238 . S
C280 O307 1.253 . S
C281 C282 1.379 . S
C281 N286 1.337 . S
C281 H287 0.929 . S
C282 C281 1.379 . S
C282 C283 1.380 . S
C282 H318 0.929 . S
C283 C282 1.380 . S
C283 C284 1.399 . S
C284 C283 1.399 . S
C284 C285 1.376 . S
C284 H319 0.931 . S
C285 C284 1.376 . S
C285 N286 1.338 . S
C285 H288 0.930 . S
N286 Cd271 2.304 . S
N286 C281 1.337 . S
N286 C285 1.338 . S
H287 C281 0.929 . S
H288 C285 0.930 . S
C289 N290 1.332 . S
C289 C293 1.381 . S
C289 H295 0.931 . S
N290 Cd271 2.334 . S
N290 C289 1.332 . S
N290 C294 1.328 . S
C291 C292 1.396 . S
C291 C294 1.378 . S
C291 H320 0.931 . S
C292 C291 1.396 . S
C292 C293 1.382 . S
C293 C289 1.381 . S
C293 C292 1.382 . S
C293 H321 0.930 . S
C294 N290 1.328 . S
C294 C291 1.378 . S
C294 H296 0.930 . S
H295 C289 0.931 . S
H296 C294 0.930 . S
C297 O308 1.238 . S
C297 O309 1.253 . S
C298 O310 1.239 . S
C298 O311 1.230 . S
N299 Cd270 2.304 . S
N299 C300 1.337 . S
N299 C304 1.338 . S
C300 N299 1.337 . S
C300 C301 1.379 . S
C300 H314 0.929 . S
C301 C300 1.379 . S
C301 C302 1.380 . S
C301 H322 0.929 . S
C302 C301 1.380 . S
C302 C303 1.399 . S
C303 C302 1.399 . S
C303 C304 1.376 . S
C303 H323 0.931 . S
C304 N299 1.338 . S
C304 C303 1.376 . S
C304 H315 0.930 . S
C305 O312 1.239 . S
C305 O313 1.230 . S
O306 Cd270 2.268 . S
O306 C280 1.238 . S
O307 Cd271 2.273 . S
O307 C280 1.253 . S
O308 Cd271 2.268 . S
O308 C297 1.238 . S
O309 Cd270 2.273 . S
O309 C297 1.253 . S
O310 Cd270 2.417 . S
O310 C298 1.239 . S
O311 Cd270 2.330 . S
O311 C298 1.230 . S
O312 Cd271 2.417 . S
O312 C305 1.239 . S
O313 Cd271 2.330 . S
O313 C305 1.230 . S
H314 C300 0.929 . S
H315 C304 0.930 . S
H316 C274 0.931 . S
H317 C276 0.930 . S
H318 C282 0.929 . S
H319 C284 0.931 . S
H320 C291 0.931 . S
H321 C293 0.930 . S
H322 C301 0.929 . S
H323 C303 0.931 . S
Cd324 N327 2.334 . S
Cd324 N353 2.304 . S
Cd324 O360 2.268 . S
Cd324 O363 2.273 1_545 S
Cd324 O364 2.417 . S
Cd324 O365 2.330 1_545 S
Cd325 N340 2.304 . S
Cd325 N344 2.334 . S
Cd325 O361 2.273 1_565 S
Cd325 O362 2.268 . S
Cd325 O366 2.417 . S
Cd325 O367 2.330 1_565 S
C326 N327 1.332 1_565 S
C326 C330 1.381 . S
C326 H332 0.931 . S
N327 Cd324 2.334 . S
N327 C326 1.332 1_545 S
N327 C331 1.328 . S
C328 C329 1.396 . S
C328 C331 1.378 . S
C328 H370 0.931 . S
C329 C328 1.396 . S
C329 C330 1.382 1_545 S
C330 C326 1.381 . S
C330 C329 1.382 1_565 S
C330 H371 0.930 . S
C331 N327 1.328 . S
C331 C328 1.378 . S
C331 H333 0.930 . S
H332 C326 0.931 . S
H333 C331 0.930 . S
C334 O360 1.238 . S
C334 O361 1.253 . S
C335 C336 1.379 . S
C335 N340 1.337 1_545 S
C335 H341 0.929 . S
C336 C335 1.379 . S
C336 C337 1.380 1_545 S
C336 H372 0.929 . S
C337 C336 1.380 1_565 S
C337 C338 1.399 . S
C338 C337 1.399 . S
C338 C339 1.376 . S
C338 H373 0.931 . S
C339 C338 1.376 . S
C339 N340 1.338 . S
C339 H342 0.930 . S
N340 Cd325 2.304 . S
N340 C335 1.337 1_565 S
N340 C339 1.338 . S
H341 C335 0.929 . S
H342 C339 0.930 . S
C343 N344 1.332 1_545 S
C343 C347 1.381 . S
C343 H349 0.931 . S
N344 Cd325 2.334 . S
N344 C343 1.332 1_565 S
N344 C348 1.328 . S
C345 C346 1.396 . S
C345 C348 1.378 . S
C345 H374 0.931 . S
C346 C345 1.396 . S
C346 C347 1.382 1_565 S
C347 C343 1.381 . S
C347 C346 1.382 1_545 S
C347 H375 0.930 . S
C348 N344 1.328 . S
C348 C345 1.378 . S
C348 H350 0.930 . S
H349 C343 0.931 . S
H350 C348 0.930 . S
C351 O362 1.238 . S
C351 O363 1.253 . S
C352 O364 1.239 . S
C352 O365 1.230 1_545 S
N353 Cd324 2.304 . S
N353 C354 1.337 1_545 S
N353 C358 1.338 . S
C354 N353 1.337 1_565 S
C354 C355 1.379 . S
C354 H368 0.929 . S
C355 C354 1.379 . S
C355 C356 1.380 1_565 S
C355 H376 0.929 . S
C356 C355 1.380 1_545 S
C356 C357 1.399 . S
C357 C356 1.399 . S
C357 C358 1.376 . S
C357 H377 0.931 . S
C358 N353 1.338 . S
C358 C357 1.376 . S
C358 H369 0.930 . S
C359 O366 1.239 . S
C359 O367 1.230 1_565 S
O360 Cd324 2.268 . S
O360 C334 1.238 . S
O361 Cd325 2.273 1_545 S
O361 C334 1.253 . S
O362 Cd325 2.268 . S
O362 C351 1.238 . S
O363 Cd324 2.273 1_565 S
O363 C351 1.253 . S
O364 Cd324 2.417 . S
O364 C352 1.239 . S
O365 Cd324 2.330 1_565 S
O365 C352 1.230 1_565 S
O366 Cd325 2.417 . S
O366 C359 1.239 . S
O367 Cd325 2.330 1_545 S
O367 C359 1.230 1_545 S
H368 C354 0.929 . S
H369 C358 0.930 . S
H370 C328 0.931 . S
H371 C330 0.930 . S
H372 C336 0.929 . S
H373 C338 0.931 . S
H374 C345 0.931 . S
H375 C347 0.930 . S
H376 C355 0.929 . S
H377 C357 0.931 . S
Cd378 N381 2.334 1_554 S
Cd378 N407 2.304 . S
Cd378 O414 2.269 . S
Cd378 O417 2.273 . S
Cd378 O418 2.414 1_554 S
Cd378 O419 2.330 . S
Cd379 N394 2.304 . S
Cd379 N398 2.334 1_554 S
Cd379 O415 2.273 . S
Cd379 O416 2.269 . S
Cd379 O420 2.414 1_554 S
Cd379 O421 2.330 . S
C380 N381 1.332 . S
C380 C384 1.381 . S
C380 H386 0.931 . S
N381 Cd378 2.334 1_556 S
N381 C380 1.332 . S
N381 C385 1.328 . S
C382 C383 1.396 . S
C382 C385 1.378 . S
C382 H424 0.931 . S
C383 C382 1.396 . S
C383 C384 1.382 . S
C384 C380 1.381 . S
C384 C383 1.382 . S
C384 H425 0.930 . S
C385 N381 1.328 . S
C385 C382 1.378 . S
C385 H387 0.930 . S
H386 C380 0.931 . S
H387 C385 0.930 . S
C388 O414 1.238 . S
C388 O415 1.256 . S
C389 C390 1.379 . S
C389 N394 1.337 . S
C389 H395 0.929 . S
C390 C389 1.379 . S
C390 C391 1.380 . S
C390 H426 0.929 . S
C391 C390 1.380 . S
C391 C392 1.399 . S
C392 C391 1.399 . S
C392 C393 1.376 . S
C392 H427 0.931 . S
C393 C392 1.376 . S
C393 N394 1.338 . S
C393 H396 0.930 . S
N394 Cd379 2.304 . S
N394 C389 1.337 . S
N394 C393 1.338 . S
H395 C389 0.929 . S
H396 C393 0.930 . S
C397 N398 1.332 . S
C397 C401 1.381 . S
C397 H403 0.931 . S
N398 Cd379 2.334 1_556 S
N398 C397 1.332 . S
N398 C402 1.328 . S
C399 C400 1.396 . S
C399 C402 1.378 . S
C399 H428 0.931 . S
C400 C399 1.396 . S
C400 C401 1.382 . S
C401 C397 1.381 . S
C401 C400 1.382 . S
C401 H429 0.930 . S
C402 N398 1.328 . S
C402 C399 1.378 . S
C402 H404 0.930 . S
H403 C397 0.931 . S
H404 C402 0.930 . S
C405 O416 1.238 . S
C405 O417 1.256 . S
C406 O418 1.235 1_554 S
C406 O419 1.232 . S
N407 Cd378 2.304 . S
N407 C408 1.337 . S
N407 C412 1.338 . S
C408 N407 1.337 . S
C408 C409 1.379 . S
C408 H422 0.929 . S
C409 C408 1.379 . S
C409 C410 1.380 . S
C409 H430 0.929 . S
C410 C409 1.380 . S
C410 C411 1.399 . S
C411 C410 1.399 . S
C411 C412 1.376 . S
C411 H431 0.931 . S
C412 N407 1.338 . S
C412 C411 1.376 . S
C412 H423 0.930 . S
C413 O420 1.235 1_554 S
C413 O421 1.232 . S
O414 Cd378 2.269 . S
O414 C388 1.238 . S
O415 Cd379 2.273 . S
O415 C388 1.256 . S
O416 Cd379 2.269 . S
O416 C405 1.238 . S
O417 Cd378 2.273 . S
O417 C405 1.256 . S
O418 Cd378 2.414 1_556 S
O418 C406 1.235 1_556 S
O419 Cd378 2.330 . S
O419 C406 1.232 . S
O420 Cd379 2.414 1_556 S
O420 C413 1.235 1_556 S
O421 Cd379 2.330 . S
O421 C413 1.232 . S
H422 C408 0.929 . S
H423 C412 0.930 . S
H424 C382 0.931 . S
H425 C384 0.930 . S
H426 C390 0.929 . S
H427 C392 0.931 . S
H428 C399 0.931 . S
H429 C401 0.930 . S
H430 C409 0.929 . S
H431 C411 0.931 . S
C432 C433 1.391 . S
C432 C434 1.394 . S
C432 H448 0.931 . S
C433 C432 1.391 . S
C433 C437 1.376 . S
C434 C432 1.394 . S
C434 C435 1.369 . S
C434 C438 1.531 . S
C435 C434 1.369 . S
C435 C436 1.410 . S
C435 C443 1.503 . S
C436 C435 1.410 . S
C436 C437 1.392 . S
C436 C439 1.511 . S
C437 C433 1.376 . S
C437 C436 1.392 . S
C437 H449 0.929 . S
C438 C434 1.531 . S
C438 H450 0.960 . S
C438 H451 0.962 . S
C438 H452 0.960 . S
C439 C436 1.511 . S
C439 H453 0.961 . S
C439 H454 0.961 . S
C439 H455 0.961 . S
C440 C441 1.370 . S
C440 C442 1.363 . S
C440 H456 0.931 . S
C441 C440 1.370 . S
C441 C445 1.408 . S
C442 C440 1.363 . S
C442 C443 1.370 . S
C442 C446 1.524 1_545 S
C443 C435 1.503 . S
C443 C442 1.370 . S
C443 C444 1.403 . S
C444 C443 1.403 . S
C444 C445 1.404 . S
C444 C447 1.539 . S
C445 C441 1.408 . S
C445 C444 1.404 . S
C445 H457 0.930 . S
C446 C442 1.524 1_565 S
C446 H458 0.956 . S
C446 H459 0.961 . S
C446 H460 0.961 . S
C447 C444 1.539 . S
C447 H461 0.958 . S
C447 H462 0.961 . S
C447 H463 0.960 . S
H448 C432 0.931 . S
H449 C437 0.929 . S
H450 C438 0.960 . S
H451 C438 0.962 . S
H452 C438 0.960 . S
H453 C439 0.961 . S
H454 C439 0.961 . S
H455 C439 0.961 . S
H456 C440 0.931 . S
H457 C445 0.930 . S
H458 C446 0.956 . S
H459 C446 0.961 . S
H460 C446 0.961 . S
H461 C447 0.958 . S
H462 C447 0.961 . S
H463 C447 0.960 . S
C464 C465 1.391 . S
C464 C466 1.394 . S
C464 H480 0.931 . S
C465 C464 1.391 . S
C465 C469 1.376 . S
C466 C464 1.394 . S
C466 C467 1.369 . S
C466 C470 1.531 . S
C467 C466 1.369 . S
C467 C468 1.410 . S
C467 C475 1.503 . S
C468 C467 1.410 . S
C468 C469 1.392 . S
C468 C471 1.511 . S
C469 C465 1.376 . S
C469 C468 1.392 . S
C469 H481 0.929 . S
C470 C466 1.531 . S
C470 H482 0.960 . S
C470 H483 0.962 . S
C470 H484 0.960 . S
C471 C468 1.511 . S
C471 H485 0.961 . S
C471 H486 0.961 . S
C471 H487 0.961 . S
C472 C473 1.370 . S
C472 C474 1.363 . S
C472 H488 0.931 . S
C473 C472 1.370 . S
C473 C477 1.408 . S
C474 C472 1.363 . S
C474 C475 1.370 . S
C474 C478 1.524 1_565 S
C475 C467 1.503 . S
C475 C474 1.370 . S
C475 C476 1.403 . S
C476 C475 1.403 . S
C476 C477 1.404 . S
C476 C479 1.539 . S
C477 C473 1.408 . S
C477 C476 1.404 . S
C477 H489 0.930 . S
C478 C474 1.524 1_545 S
C478 H490 0.956 . S
C478 H491 0.961 . S
C478 H492 0.961 . S
C479 C476 1.539 . S
C479 H493 0.958 . S
C479 H494 0.961 . S
C479 H495 0.960 . S
H480 C464 0.931 . S
H481 C469 0.929 . S
H482 C470 0.960 . S
H483 C470 0.962 . S
H484 C470 0.960 . S
H485 C471 0.961 . S
H486 C471 0.961 . S
H487 C471 0.961 . S
H488 C472 0.931 . S
H489 C477 0.930 . S
H490 C478 0.956 . S
H491 C478 0.961 . S
H492 C478 0.961 . S
H493 C479 0.958 . S
H494 C479 0.961 . S
H495 C479 0.960 . S
C496 C497 1.391 . S
C496 C498 1.394 . S
C496 H512 0.931 . S
C497 C496 1.391 . S
C497 C501 1.376 . S
C498 C496 1.394 . S
C498 C499 1.369 . S
C498 C502 1.531 . S
C499 C498 1.369 . S
C499 C500 1.410 . S
C499 C507 1.503 . S
C500 C499 1.410 . S
C500 C501 1.392 . S
C500 C503 1.511 . S
C501 C497 1.376 . S
C501 C500 1.392 . S
C501 H513 0.929 . S
C502 C498 1.531 . S
C502 H514 0.960 . S
C502 H515 0.962 . S
C502 H516 0.960 . S
C503 C500 1.511 . S
C503 H517 0.961 . S
C503 H518 0.961 . S
C503 H519 0.961 . S
C504 C505 1.370 . S
C504 C506 1.363 . S
C504 H520 0.931 . S
C505 C504 1.370 . S
C505 C509 1.408 . S
C506 C504 1.363 . S
C506 C507 1.370 . S
C506 C510 1.524 . S
C507 C499 1.503 . S
C507 C506 1.370 . S
C507 C508 1.403 . S
C508 C507 1.403 . S
C508 C509 1.404 . S
C508 C511 1.539 . S
C509 C505 1.408 . S
C509 C508 1.404 . S
C509 H521 0.930 . S
C510 C506 1.524 . S
C510 H522 0.956 . S
C510 H523 0.961 . S
C510 H524 0.961 . S
C511 C508 1.539 . S
C511 H525 0.958 . S
C511 H526 0.961 . S
C511 H527 0.960 . S
H512 C496 0.931 . S
H513 C501 0.929 . S
H514 C502 0.960 . S
H515 C502 0.962 . S
H516 C502 0.960 . S
H517 C503 0.961 . S
H518 C503 0.961 . S
H519 C503 0.961 . S
H520 C504 0.931 . S
H521 C509 0.930 . S
H522 C510 0.956 . S
H523 C510 0.961 . S
H524 C510 0.961 . S
H525 C511 0.958 . S
H526 C511 0.961 . S
H527 C511 0.960 . S
C528 C529 1.391 . S
C528 C530 1.394 . S
C528 H544 0.931 . S
C529 C528 1.391 . S
C529 C533 1.376 . S
C530 C528 1.394 . S
C530 C531 1.369 . S
C530 C534 1.531 . S
C531 C530 1.369 . S
C531 C532 1.410 . S
C531 C539 1.503 . S
C532 C531 1.410 . S
C532 C533 1.392 . S
C532 C535 1.511 . S
C533 C529 1.376 . S
C533 C532 1.392 . S
C533 H545 0.929 . S
C534 C530 1.531 . S
C534 H546 0.960 . S
C534 H547 0.962 . S
C534 H548 0.960 . S
C535 C532 1.511 . S
C535 H549 0.961 . S
C535 H550 0.961 . S
C535 H551 0.961 . S
C536 C537 1.370 . S
C536 C538 1.363 . S
C536 H552 0.931 . S
C537 C536 1.370 . S
C537 C541 1.408 . S
C538 C536 1.363 . S
C538 C539 1.370 . S
C538 C542 1.524 . S
C539 C531 1.503 . S
C539 C538 1.370 . S
C539 C540 1.403 . S
C540 C539 1.403 . S
C540 C541 1.404 . S
C540 C543 1.539 . S
C541 C537 1.408 . S
C541 C540 1.404 . S
C541 H553 0.930 . S
C542 C538 1.524 . S
C542 H554 0.956 . S
C542 H555 0.961 . S
C542 H556 0.961 . S
C543 C540 1.539 . S
C543 H557 0.958 . S
C543 H558 0.961 . S
C543 H559 0.960 . S
H544 C528 0.931 . S
H545 C533 0.929 . S
H546 C534 0.960 . S
H547 C534 0.962 . S
H548 C534 0.960 . S
H549 C535 0.961 . S
H550 C535 0.961 . S
H551 C535 0.961 . S
H552 C536 0.931 . S
H553 C541 0.930 . S
H554 C542 0.956 . S
H555 C542 0.961 . S
H556 C542 0.961 . S
H557 C543 0.958 . S
H558 C543 0.961 . S
H559 C543 0.960 . S
C560 C561 1.391 . S
C560 C562 1.394 . S
C560 H576 0.931 . S
C561 C560 1.391 . S
C561 C565 1.376 . S
C562 C560 1.394 . S
C562 C563 1.369 . S
C562 C566 1.531 . S
C563 C562 1.369 . S
C563 C564 1.410 . S
C563 C571 1.503 . S
C564 C563 1.410 . S
C564 C565 1.392 . S
C564 C567 1.511 . S
C565 C561 1.376 . S
C565 C564 1.392 . S
C565 H577 0.929 . S
C566 C562 1.531 . S
C566 H578 0.960 . S
C566 H579 0.962 . S
C566 H580 0.960 . S
C567 C564 1.511 . S
C567 H581 0.961 . S
C567 H582 0.961 . S
C567 H583 0.961 . S
C568 C569 1.370 . S
C568 C570 1.363 . S
C568 H584 0.931 . S
C569 C568 1.370 . S
C569 C573 1.408 . S
C570 C568 1.363 . S
C570 C571 1.370 . S
C570 C574 1.524 . S
C571 C563 1.503 . S
C571 C570 1.370 . S
C571 C572 1.403 . S
C572 C571 1.403 . S
C572 C573 1.404 . S
C572 C575 1.539 . S
C573 C569 1.408 . S
C573 C572 1.404 . S
C573 H585 0.930 . S
C574 C570 1.524 . S
C574 H586 0.956 . S
C574 H587 0.961 . S
C574 H588 0.961 . S
C575 C572 1.539 . S
C575 H589 0.958 . S
C575 H590 0.961 . S
C575 H591 0.960 . S
H576 C560 0.931 . S
H577 C565 0.929 . S
H578 C566 0.960 . S
H579 C566 0.962 . S
H580 C566 0.960 . S
H581 C567 0.961 . S
H582 C567 0.961 . S
H583 C567 0.961 . S
H584 C568 0.931 . S
H585 C573 0.930 . S
H586 C574 0.956 . S
H587 C574 0.961 . S
H588 C574 0.961 . S
H589 C575 0.958 . S
H590 C575 0.961 . S
H591 C575 0.960 . S
C592 C593 1.391 . S
C592 C594 1.394 . S
C592 H608 0.931 . S
C593 C592 1.391 . S
C593 C597 1.376 . S
C594 C592 1.394 . S
C594 C595 1.369 . S
C594 C598 1.531 . S
C595 C594 1.369 . S
C595 C596 1.410 . S
C595 C603 1.503 . S
C596 C595 1.410 . S
C596 C597 1.392 . S
C596 C599 1.511 . S
C597 C593 1.376 . S
C597 C596 1.392 . S
C597 H609 0.929 . S
C598 C594 1.531 . S
C598 H610 0.960 . S
C598 H611 0.962 . S
C598 H612 0.960 . S
C599 C596 1.511 . S
C599 H613 0.961 . S
C599 H614 0.961 . S
C599 H615 0.961 . S
C600 C601 1.370 . S
C600 C602 1.363 . S
C600 H616 0.931 . S
C601 C600 1.370 . S
C601 C605 1.408 . S
C602 C600 1.363 . S
C602 C603 1.370 . S
C602 C606 1.524 . S
C603 C595 1.503 . S
C603 C602 1.370 . S
C603 C604 1.403 . S
C604 C603 1.403 . S
C604 C605 1.404 . S
C604 C607 1.539 . S
C605 C601 1.408 . S
C605 C604 1.404 . S
C605 H617 0.930 . S
C606 C602 1.524 . S
C606 H618 0.956 . S
C606 H619 0.961 . S
C606 H620 0.961 . S
C607 C604 1.539 . S
C607 H621 0.958 . S
C607 H622 0.961 . S
C607 H623 0.960 . S
H608 C592 0.931 . S
H609 C597 0.929 . S
H610 C598 0.960 . S
H611 C598 0.962 . S
H612 C598 0.960 . S
H613 C599 0.961 . S
H614 C599 0.961 . S
H615 C599 0.961 . S
H616 C600 0.931 . S
H617 C605 0.930 . S
H618 C606 0.956 . S
H619 C606 0.961 . S
H620 C606 0.961 . S
H621 C607 0.958 . S
H622 C607 0.961 . S
H623 C607 0.960 . S
C624 C625 1.391 . S
C624 C626 1.394 . S
C624 H640 0.931 . S
C625 C624 1.391 . S
C625 C629 1.376 . S
C626 C624 1.394 . S
C626 C627 1.369 . S
C626 C630 1.531 . S
C627 C626 1.369 . S
C627 C628 1.410 . S
C627 C635 1.503 . S
C628 C627 1.410 . S
C628 C629 1.392 . S
C628 C631 1.511 . S
C629 C625 1.376 . S
C629 C628 1.392 . S
C629 H641 0.929 . S
C630 C626 1.531 . S
C630 H642 0.960 1_565 S
C630 H643 0.962 . S
C630 H644 0.960 . S
C631 C628 1.511 . S
C631 H645 0.961 . S
C631 H646 0.961 . S
C631 H647 0.961 . S
C632 C633 1.370 . S
C632 C634 1.363 . S
C632 H648 0.931 . S
C633 C632 1.370 . S
C633 C637 1.408 1_565 S
C634 C632 1.363 . S
C634 C635 1.370 . S
C634 C638 1.524 . S
C635 C627 1.503 . S
C635 C634 1.370 . S
C635 C636 1.403 1_565 S
C636 C635 1.403 1_545 S
C636 C637 1.404 . S
C636 C639 1.539 . S
C637 C633 1.408 1_545 S
C637 C636 1.404 . S
C637 H649 0.930 . S
C638 C634 1.524 . S
C638 H650 0.956 . S
C638 H651 0.961 . S
C638 H652 0.961 . S
C639 C636 1.539 . S
C639 H653 0.958 . S
C639 H654 0.961 . S
C639 H655 0.960 . S
H640 C624 0.931 . S
H641 C629 0.929 . S
H642 C630 0.960 1_545 S
H643 C630 0.962 . S
H644 C630 0.960 . S
H645 C631 0.961 . S
H646 C631 0.961 . S
H647 C631 0.961 . S
H648 C632 0.931 . S
H649 C637 0.930 . S
H650 C638 0.956 . S
H651 C638 0.961 . S
H652 C638 0.961 . S
H653 C639 0.958 . S
H654 C639 0.961 . S
H655 C639 0.960 . S
C656 C657 1.391 . S
C656 C658 1.394 . S
C656 H672 0.931 . S
C657 C656 1.391 . S
C657 C661 1.376 . S
C658 C656 1.394 . S
C658 C659 1.369 . S
C658 C662 1.531 . S
C659 C658 1.369 . S
C659 C660 1.410 . S
C659 C667 1.503 . S
C660 C659 1.410 . S
C660 C661 1.392 . S
C660 C663 1.511 1_545 S
C661 C657 1.376 . S
C661 C660 1.392 . S
C661 H673 0.929 . S
C662 C658 1.531 . S
C662 H674 0.960 . S
C662 H675 0.962 . S
C662 H676 0.960 . S
C663 C660 1.511 1_565 S
C663 H677 0.961 . S
C663 H678 0.961 . S
C663 H679 0.961 1_565 S
C664 C665 1.370 . S
C664 C666 1.363 . S
C664 H680 0.931 1_545 S
C665 C664 1.370 . S
C665 C669 1.408 . S
C666 C664 1.363 . S
C666 C667 1.370 . S
C666 C670 1.524 . S
C667 C659 1.503 . S
C667 C666 1.370 . S
C667 C668 1.403 . S
C668 C667 1.403 . S
C668 C669 1.404 . S
C668 C671 1.539 . S
C669 C665 1.408 . S
C669 C668 1.404 . S
C669 H681 0.930 . S
C670 C666 1.524 . S
C670 H682 0.956 . S
C670 H683 0.961 1_545 S
C670 H684 0.961 1_545 S
C671 C668 1.539 . S
C671 H685 0.958 . S
C671 H686 0.961 . S
C671 H687 0.960 . S
H672 C656 0.931 . S
H673 C661 0.929 . S
H674 C662 0.960 . S
H675 C662 0.962 . S
H676 C662 0.960 . S
H677 C663 0.961 . S
H678 C663 0.961 . S
H679 C663 0.961 1_545 S
H680 C664 0.931 1_565 S
H681 C669 0.930 . S
H682 C670 0.956 . S
H683 C670 0.961 1_565 S
H684 C670 0.961 1_565 S
H685 C671 0.958 . S
H686 C671 0.961 . S
H687 C671 0.960 . S
C688 C689 1.391 . S
C688 C690 1.394 . S
C688 H704 0.931 . S
C689 C688 1.391 . S
C689 C693 1.376 . S
C690 C688 1.394 . S
C690 C691 1.369 . S
C690 C694 1.531 . S
C691 C690 1.369 . S
C691 C692 1.410 . S
C691 C699 1.503 . S
C692 C691 1.410 . S
C692 C693 1.392 . S
C692 C695 1.511 . S
C693 C689 1.376 . S
C693 C692 1.392 . S
C693 H705 0.929 . S
C694 C690 1.531 . S
C694 H706 0.960 . S
C694 H707 0.962 . S
C694 H708 0.960 . S
C695 C692 1.511 . S
C695 H709 0.961 . S
C695 H710 0.961 . S
C695 H711 0.961 . S
C696 C697 1.370 . S
C696 C698 1.363 . S
C696 H712 0.931 . S
C697 C696 1.370 . S
C697 C701 1.408 1_545 S
C698 C696 1.363 . S
C698 C699 1.370 . S
C698 C702 1.524 . S
C699 C691 1.503 . S
C699 C698 1.370 . S
C699 C700 1.403 1_545 S
C700 C699 1.403 1_565 S
C700 C701 1.404 . S
C700 C703 1.539 . S
C701 C697 1.408 1_565 S
C701 C700 1.404 . S
C701 H713 0.930 . S
C702 C698 1.524 . S
C702 H714 0.956 . S
C702 H715 0.961 . S
C702 H716 0.961 . S
C703 C700 1.539 . S
C703 H717 0.958 . S
C703 H718 0.961 . S
C703 H719 0.960 . S
H704 C688 0.931 . S
H705 C693 0.929 . S
H706 C694 0.960 . S
H707 C694 0.962 . S
H708 C694 0.960 . S
H709 C695 0.961 . S
H710 C695 0.961 . S
H711 C695 0.961 . S
H712 C696 0.931 . S
H713 C701 0.930 . S
H714 C702 0.956 . S
H715 C702 0.961 . S
H716 C702 0.961 . S
H717 C703 0.958 . S
H718 C703 0.961 . S
H719 C703 0.960 . S
C720 C721 1.391 1_545 S
C720 C722 1.394 1_545 S
C720 H736 0.931 . S
C721 C720 1.391 1_565 S
C721 C725 1.376 . S
C722 C720 1.394 1_565 S
C722 C723 1.369 . S
C722 C726 1.531 1_565 S
C723 C722 1.369 . S
C723 C724 1.410 . S
C723 C731 1.503 . S
C724 C723 1.410 . S
C724 C725 1.392 . S
C724 C727 1.511 . S
C725 C721 1.376 . S
C725 C724 1.392 . S
C725 H737 0.929 . S
C726 C722 1.531 1_545 S
C726 H738 0.960 . S
C726 H739 0.962 . S
C726 H740 0.960 . S
C727 C724 1.511 . S
C727 H741 0.961 . S
C727 H742 0.961 . S
C727 H743 0.961 . S
C728 C729 1.370 . S
C728 C730 1.363 . S
C728 H744 0.931 . S
C729 C728 1.370 . S
C729 C733 1.408 . S
C730 C728 1.363 . S
C730 C731 1.370 . S
C730 C734 1.524 . S
C731 C723 1.503 . S
C731 C730 1.370 . S
C731 C732 1.403 . S
C732 C731 1.403 . S
C732 C733 1.404 . S
C732 C735 1.539 . S
C733 C729 1.408 . S
C733 C732 1.404 . S
C733 H745 0.930 . S
C734 C730 1.524 . S
C734 H746 0.956 . S
C734 H747 0.961 . S
C734 H748 0.961 . S
C735 C732 1.539 . S
C735 H749 0.958 . S
C735 H750 0.961 . S
C735 H751 0.960 . S
H736 C720 0.931 . S
H737 C725 0.929 . S
H738 C726 0.960 . S
H739 C726 0.962 . S
H740 C726 0.960 . S
H741 C727 0.961 . S
H742 C727 0.961 . S
H743 C727 0.961 . S
H744 C728 0.931 . S
H745 C733 0.930 . S
H746 C734 0.956 . S
H747 C734 0.961 . S
H748 C734 0.961 . S
H749 C735 0.958 . S
H750 C735 0.961 . S
H751 C735 0.960 . S
C752 C753 1.391 . S
C752 C754 1.394 . S
C752 H768 0.931 . S
C753 C752 1.391 . S
C753 C757 1.376 . S
C754 C752 1.394 . S
C754 C755 1.369 . S
C754 C758 1.531 . S
C755 C754 1.369 . S
C755 C756 1.410 . S
C755 C763 1.503 . S
C756 C755 1.410 . S
C756 C757 1.392 . S
C756 C759 1.511 . S
C757 C753 1.376 . S
C757 C756 1.392 . S
C757 H769 0.929 . S
C758 C754 1.531 . S
C758 H770 0.960 . S
C758 H771 0.962 . S
C758 H772 0.960 . S
C759 C756 1.511 . S
C759 H773 0.961 . S
C759 H774 0.961 . S
C759 H775 0.961 . S
C760 C761 1.370 . S
C760 C762 1.363 . S
C760 H776 0.931 . S
C761 C760 1.370 . S
C761 C765 1.408 . S
C762 C760 1.363 . S
C762 C763 1.370 . S
C762 C766 1.524 . S
C763 C755 1.503 . S
C763 C762 1.370 . S
C763 C764 1.403 . S
C764 C763 1.403 . S
C764 C765 1.404 . S
C764 C767 1.539 . S
C765 C761 1.408 . S
C765 C764 1.404 . S
C765 H777 0.930 . S
C766 C762 1.524 . S
C766 H778 0.956 . S
C766 H779 0.961 . S
C766 H780 0.961 . S
C767 C764 1.539 . S
C767 H781 0.958 . S
C767 H782 0.961 . S
C767 H783 0.960 . S
H768 C752 0.931 . S
H769 C757 0.929 . S
H770 C758 0.960 . S
H771 C758 0.962 . S
H772 C758 0.960 . S
H773 C759 0.961 . S
H774 C759 0.961 . S
H775 C759 0.961 . S
H776 C760 0.931 . S
H777 C765 0.930 . S
H778 C766 0.956 . S
H779 C766 0.961 . S
H780 C766 0.961 . S
H781 C767 0.958 . S
H782 C767 0.961 . S
H783 C767 0.960 . S
C784 C785 1.391 . S
C784 C786 1.394 . S
C784 H800 0.931 . S
C785 C784 1.391 . S
C785 C789 1.376 . S
C786 C784 1.394 . S
C786 C787 1.369 . S
C786 C790 1.531 . S
C787 C786 1.369 . S
C787 C788 1.410 . S
C787 C795 1.503 . S
C788 C787 1.410 . S
C788 C789 1.392 . S
C788 C791 1.511 . S
C789 C785 1.376 . S
C789 C788 1.392 . S
C789 H801 0.929 . S
C790 C786 1.531 . S
C790 H802 0.960 . S
C790 H803 0.962 . S
C790 H804 0.960 . S
C791 C788 1.511 . S
C791 H805 0.961 . S
C791 H806 0.961 . S
C791 H807 0.961 . S
C792 C793 1.370 . S
C792 C794 1.363 . S
C792 H808 0.931 . S
C793 C792 1.370 . S
C793 C797 1.408 . S
C794 C792 1.363 . S
C794 C795 1.370 . S
C794 C798 1.524 . S
C795 C787 1.503 . S
C795 C794 1.370 . S
C795 C796 1.403 . S
C796 C795 1.403 . S
C796 C797 1.404 . S
C796 C799 1.539 . S
C797 C793 1.408 . S
C797 C796 1.404 . S
C797 H809 0.930 . S
C798 C794 1.524 . S
C798 H810 0.956 . S
C798 H811 0.961 . S
C798 H812 0.961 . S
C799 C796 1.539 . S
C799 H813 0.958 . S
C799 H814 0.961 . S
C799 H815 0.960 . S
H800 C784 0.931 . S
H801 C789 0.929 . S
H802 C790 0.960 . S
H803 C790 0.962 . S
H804 C790 0.960 . S
H805 C791 0.961 . S
H806 C791 0.961 . S
H807 C791 0.961 . S
H808 C792 0.931 . S
H809 C797 0.930 . S
H810 C798 0.956 . S
H811 C798 0.961 . S
H812 C798 0.961 . S
H813 C799 0.958 . S
H814 C799 0.961 . S
H815 C799 0.960 . S
C816 C817 1.391 . S
C816 C818 1.394 . S
C816 H832 0.931 . S
C817 C816 1.391 . S
C817 C821 1.376 . S
C818 C816 1.394 . S
C818 C819 1.369 . S
C818 C822 1.531 . S
C819 C818 1.369 . S
C819 C820 1.410 . S
C819 C827 1.503 . S
C820 C819 1.410 . S
C820 C821 1.392 . S
C820 C823 1.511 . S
C821 C817 1.376 . S
C821 C820 1.392 . S
C821 H833 0.929 . S
C822 C818 1.531 . S
C822 H834 0.960 . S
C822 H835 0.962 . S
C822 H836 0.960 . S
C823 C820 1.511 . S
C823 H837 0.961 . S
C823 H838 0.961 . S
C823 H839 0.961 . S
C824 C825 1.370 . S
C824 C826 1.363 . S
C824 H840 0.931 . S
C825 C824 1.370 . S
C825 C829 1.408 . S
C826 C824 1.363 . S
C826 C827 1.370 . S
C826 C830 1.524 . S
C827 C819 1.503 . S
C827 C826 1.370 . S
C827 C828 1.403 . S
C828 C827 1.403 . S
C828 C829 1.404 . S
C828 C831 1.539 . S
C829 C825 1.408 . S
C829 C828 1.404 . S
C829 H841 0.930 . S
C830 C826 1.524 . S
C830 H842 0.956 . S
C830 H843 0.961 . S
C830 H844 0.961 . S
C831 C828 1.539 . S
C831 H845 0.958 . S
C831 H846 0.961 . S
C831 H847 0.960 . S
H832 C816 0.931 . S
H833 C821 0.929 . S
H834 C822 0.960 . S
H835 C822 0.962 . S
H836 C822 0.960 . S
H837 C823 0.961 . S
H838 C823 0.961 . S
H839 C823 0.961 . S
H840 C824 0.931 . S
H841 C829 0.930 . S
H842 C830 0.956 . S
H843 C830 0.961 . S
H844 C830 0.961 . S
H845 C831 0.958 . S
H846 C831 0.961 . S
H847 C831 0.960 . S
C848 C849 1.391 . S
C848 C850 1.394 . S
C848 H864 0.931 . S
C849 C848 1.391 . S
C849 C853 1.376 . S
C850 C848 1.394 . S
C850 C851 1.369 . S
C850 C854 1.531 . S
C851 C850 1.369 . S
C851 C852 1.410 . S
C851 C859 1.503 . S
C852 C851 1.410 . S
C852 C853 1.392 . S
C852 C855 1.511 . S
C853 C849 1.376 . S
C853 C852 1.392 . S
C853 H865 0.929 . S
C854 C850 1.531 . S
C854 H866 0.960 . S
C854 H867 0.962 . S
C854 H868 0.960 . S
C855 C852 1.511 . S
C855 H869 0.961 . S
C855 H870 0.961 . S
C855 H871 0.961 . S
C856 C857 1.370 . S
C856 C858 1.363 . S
C856 H872 0.931 . S
C857 C856 1.370 . S
C857 C861 1.408 . S
C858 C856 1.363 . S
C858 C859 1.370 . S
C858 C862 1.524 . S
C859 C851 1.503 . S
C859 C858 1.370 . S
C859 C860 1.403 . S
C860 C859 1.403 . S
C860 C861 1.404 . S
C860 C863 1.539 . S
C861 C857 1.408 . S
C861 C860 1.404 . S
C861 H873 0.930 . S
C862 C858 1.524 . S
C862 H874 0.956 . S
C862 H875 0.961 . S
C862 H876 0.961 . S
C863 C860 1.539 . S
C863 H877 0.958 . S
C863 H878 0.961 . S
C863 H879 0.960 . S
H864 C848 0.931 . S
H865 C853 0.929 . S
H866 C854 0.960 . S
H867 C854 0.962 . S
H868 C854 0.960 . S
H869 C855 0.961 . S
H870 C855 0.961 . S
H871 C855 0.961 . S
H872 C856 0.931 . S
H873 C861 0.930 . S
H874 C862 0.956 . S
H875 C862 0.961 . S
H876 C862 0.961 . S
H877 C863 0.958 . S
H878 C863 0.961 . S
H879 C863 0.960 . S
C880 C881 1.391 . S
C880 C882 1.394 . S
C880 H896 0.931 . S
C881 C880 1.391 . S
C881 C885 1.376 . S
C882 C880 1.394 . S
C882 C883 1.369 . S
C882 C886 1.531 . S
C883 C882 1.369 . S
C883 C884 1.410 . S
C883 C891 1.503 . S
C884 C883 1.410 . S
C884 C885 1.392 . S
C884 C887 1.511 . S
C885 C881 1.376 . S
C885 C884 1.392 . S
C885 H897 0.929 . S
C886 C882 1.531 . S
C886 H898 0.960 . S
C886 H899 0.962 . S
C886 H900 0.960 . S
C887 C884 1.511 . S
C887 H901 0.961 . S
C887 H902 0.961 . S
C887 H903 0.961 1_565 S
C888 C889 1.370 . S
C888 C890 1.363 . S
C888 H904 0.931 . S
C889 C888 1.370 . S
C889 C893 1.408 . S
C890 C888 1.363 . S
C890 C891 1.370 . S
C890 C894 1.524 . S
C891 C883 1.503 . S
C891 C890 1.370 . S
C891 C892 1.403 . S
C892 C891 1.403 . S
C892 C893 1.404 . S
C892 C895 1.539 1_565 S
C893 C889 1.408 . S
C893 C892 1.404 . S
C893 H905 0.930 . S
C894 C890 1.524 . S
C894 H906 0.956 . S
C894 H907 0.961 . S
C894 H908 0.961 . S
C895 C892 1.539 1_545 S
C895 H909 0.958 . S
C895 H910 0.961 . S
C895 H911 0.960 . S
H896 C880 0.931 . S
H897 C885 0.929 . S
H898 C886 0.960 . S
H899 C886 0.962 . S
H900 C886 0.960 . S
H901 C887 0.961 . S
H902 C887 0.961 . S
H903 C887 0.961 1_545 S
H904 C888 0.931 . S
H905 C893 0.930 . S
H906 C894 0.956 . S
H907 C894 0.961 . S
H908 C894 0.961 . S
H909 C895 0.958 . S
H910 C895 0.961 . S
H911 C895 0.960 . S
C912 C913 1.391 . S
C912 C914 1.394 . S
C912 H928 0.931 . S
C913 C912 1.391 . S
C913 C917 1.376 . S
C914 C912 1.394 . S
C914 C915 1.369 . S
C914 C918 1.531 . S
C915 C914 1.369 . S
C915 C916 1.410 . S
C915 C923 1.503 . S
C916 C915 1.410 . S
C916 C917 1.392 . S
C916 C919 1.511 . S
C917 C913 1.376 . S
C917 C916 1.392 . S
C917 H929 0.929 1_545 S
C918 C914 1.531 . S
C918 H930 0.960 . S
C918 H931 0.962 . S
C918 H932 0.960 . S
C919 C916 1.511 . S
C919 H933 0.961 1_545 S
C919 H934 0.961 . S
C919 H935 0.961 . S
C920 C921 1.370 . S
C920 C922 1.363 . S
C920 H936 0.931 . S
C921 C920 1.370 . S
C921 C925 1.408 . S
C922 C920 1.363 . S
C922 C923 1.370 . S
C922 C926 1.524 . S
C923 C915 1.503 . S
C923 C922 1.370 . S
C923 C924 1.403 . S
C924 C923 1.403 . S
C924 C925 1.404 . S
C924 C927 1.539 . S
C925 C921 1.408 . S
C925 C924 1.404 . S
C925 H937 0.930 . S
C926 C922 1.524 . S
C926 H938 0.956 . S
C926 H939 0.961 1_545 S
C926 H940 0.961 1_545 S
C927 C924 1.539 . S
C927 H941 0.958 . S
C927 H942 0.961 . S
C927 H943 0.960 . S
H928 C912 0.931 . S
H929 C917 0.929 1_565 S
H930 C918 0.960 . S
H931 C918 0.962 . S
H932 C918 0.960 . S
H933 C919 0.961 1_565 S
H934 C919 0.961 . S
H935 C919 0.961 . S
H936 C920 0.931 . S
H937 C925 0.930 . S
H938 C926 0.956 . S
H939 C926 0.961 1_565 S
H940 C926 0.961 1_565 S
H941 C927 0.958 . S
H942 C927 0.961 . S
H943 C927 0.960 . S
C944 C945 1.387 1_655 S
C944 C946 1.394 . S
C944 H960 0.931 . S
C945 C944 1.387 1_455 S
C945 C949 1.379 1_556 S
C946 C944 1.394 . S
C946 C947 1.369 1_655 S
C946 C950 1.531 . S
C947 C946 1.369 1_455 S
C947 C948 1.410 1_556 S
C947 C955 1.503 . S
C948 C947 1.410 1_554 S
C948 C949 1.392 . S
C948 C951 1.511 . S
C949 C945 1.379 1_554 S
C949 C948 1.392 . S
C949 H961 0.929 . S
C950 C946 1.531 . S
C950 H962 0.960 . S
C950 H963 0.962 . S
C950 H964 0.960 . S
C951 C948 1.511 . S
C951 H965 0.961 . S
C951 H966 0.961 . S
C951 H967 0.961 . S
C952 C953 1.393 . S
C952 C954 1.363 . S
C952 H968 0.931 . S
C953 C952 1.393 . S
C953 C957 1.383 1_654 S
C954 C952 1.363 . S
C954 C955 1.370 1_654 S
C954 C958 1.524 . S
C955 C947 1.503 . S
C955 C954 1.370 1_456 S
C955 C956 1.403 . S
C956 C955 1.403 . S
C956 C957 1.404 . S
C956 C959 1.539 . S
C957 C953 1.383 1_456 S
C957 C956 1.404 . S
C957 H969 0.930 . S
C958 C954 1.524 . S
C958 H970 0.956 . S
C958 H971 0.961 . S
C958 H972 0.961 . S
C959 C956 1.539 . S
C959 H973 0.958 . S
C959 H974 0.961 . S
C959 H975 0.960 . S
H960 C944 0.931 . S
H961 C949 0.929 . S
H962 C950 0.960 . S
H963 C950 0.962 . S
H964 C950 0.960 . S
H965 C951 0.961 . S
H966 C951 0.961 . S
H967 C951 0.961 . S
H968 C952 0.931 . S
H969 C957 0.930 . S
H970 C958 0.956 . S
H971 C958 0.961 . S
H972 C958 0.961 . S
H973 C959 0.958 . S
H974 C959 0.961 . S
H975 C959 0.960 . S
C976 C977 1.391 . S
C976 C978 1.394 . S
C976 H992 0.931 . S
C977 C976 1.391 . S
C977 C981 1.376 . S
C978 C976 1.394 . S
C978 C979 1.369 . S
C978 C982 1.531 . S
C979 C978 1.369 . S
C979 C980 1.410 . S
C979 C987 1.503 . S
C980 C979 1.410 . S
C980 C981 1.392 . S
C980 C983 1.511 . S
C981 C977 1.376 . S
C981 C980 1.392 . S
C981 H993 0.929 . S
C982 C978 1.531 . S
C982 H994 0.960 . S
C982 H995 0.962 . S
C982 H996 0.960 . S
C983 C980 1.511 . S
C983 H997 0.961 . S
C983 H998 0.961 . S
C983 H999 0.961 . S
C984 C985 1.370 1_565 S
C984 C986 1.363 . S
C984 H1000 0.931 1_565 S
C985 C984 1.370 1_545 S
C985 C989 1.408 1_545 S
C986 C984 1.363 . S
C986 C987 1.370 . S
C986 C990 1.524 . S
C987 C979 1.503 . S
C987 C986 1.370 . S
C987 C988 1.403 . S
C988 C987 1.403 . S
C988 C989 1.404 . S
C988 C991 1.539 . S
C989 C985 1.408 1_565 S
C989 C988 1.404 . S
C989 H1001 0.930 . S
C990 C986 1.524 . S
C990 H1002 0.956 . S
C990 H1003 0.961 . S
C990 H1004 0.961 . S
C991 C988 1.539 . S
C991 H1005 0.958 . S
C991 H1006 0.961 . S
C991 H1007 0.960 . S
H992 C976 0.931 . S
H993 C981 0.929 . S
H994 C982 0.960 . S
H995 C982 0.962 . S
H996 C982 0.960 . S
H997 C983 0.961 . S
H998 C983 0.961 . S
H999 C983 0.961 . S
H1000 C984 0.931 1_545 S
H1001 C989 0.930 . S
H1002 C990 0.956 . S
H1003 C990 0.961 . S
H1004 C990 0.961 . S
H1005 C991 0.958 . S
H1006 C991 0.961 . S
H1007 C991 0.960 . S
C1008 C1009 1.391 1_545 S
C1008 C1010 1.394 . S
C1008 H1024 0.931 . S
C1009 C1008 1.391 1_565 S
C1009 C1013 1.376 1_565 S
C1010 C1008 1.394 . S
C1010 C1011 1.369 . S
C1010 C1014 1.531 . S
C1011 C1010 1.369 . S
C1011 C1012 1.410 . S
C1011 C1019 1.503 . S
C1012 C1011 1.410 . S
C1012 C1013 1.392 . S
C1012 C1015 1.511 . S
C1013 C1009 1.376 1_545 S
C1013 C1012 1.392 . S
C1013 H1025 0.929 1_545 S
C1014 C1010 1.531 . S
C1014 H1026 0.960 . S
C1014 H1027 0.962 . S
C1014 H1028 0.960 . S
C1015 C1012 1.511 . S
C1015 H1029 0.961 . S
C1015 H1030 0.961 . S
C1015 H1031 0.961 . S
C1016 C1017 1.370 . S
C1016 C1018 1.363 . S
C1016 H1032 0.931 . S
C1017 C1016 1.370 . S
C1017 C1021 1.408 . S
C1018 C1016 1.363 . S
C1018 C1019 1.370 . S
C1018 C1022 1.524 . S
C1019 C1011 1.503 . S
C1019 C1018 1.370 . S
C1019 C1020 1.403 . S
C1020 C1019 1.403 . S
C1020 C1021 1.404 . S
C1020 C1023 1.539 . S
C1021 C1017 1.408 . S
C1021 C1020 1.404 . S
C1021 H1033 0.930 . S
C1022 C1018 1.524 . S
C1022 H1034 0.956 . S
C1022 H1035 0.961 . S
C1022 H1036 0.961 . S
C1023 C1020 1.539 . S
C1023 H1037 0.958 . S
C1023 H1038 0.961 . S
C1023 H1039 0.960 . S
H1024 C1008 0.931 . S
H1025 C1013 0.929 1_565 S
H1026 C1014 0.960 . S
H1027 C1014 0.962 . S
H1028 C1014 0.960 . S
H1029 C1015 0.961 . S
H1030 C1015 0.961 . S
H1031 C1015 0.961 . S
H1032 C1016 0.931 . S
H1033 C1021 0.930 . S
H1034 C1022 0.956 . S
H1035 C1022 0.961 . S
H1036 C1022 0.961 . S
H1037 C1023 0.958 . S
H1038 C1023 0.961 . S
H1039 C1023 0.960 . S
C1040 C1041 1.391 . S
C1040 C1042 1.394 . S
C1040 H1056 0.931 . S
C1041 C1040 1.391 . S
C1041 C1045 1.376 1_655 S
C1042 C1040 1.394 . S
C1042 C1043 1.369 . S
C1042 C1046 1.531 . S
C1043 C1042 1.369 . S
C1043 C1044 1.410 1_655 S
C1043 C1051 1.503 1_665 S
C1044 C1043 1.410 1_455 S
C1044 C1045 1.392 . S
C1044 C1047 1.511 . S
C1045 C1041 1.376 1_455 S
C1045 C1044 1.392 . S
C1045 H1057 0.929 . S
C1046 C1042 1.531 . S
C1046 H1058 0.960 1_565 S
C1046 H1059 0.962 . S
C1046 H1060 0.960 . S
C1047 C1044 1.511 . S
C1047 H1061 0.961 . S
C1047 H1062 0.961 . S
C1047 H1063 0.961 . S
C1048 C1049 1.370 . S
C1048 C1050 1.363 . S
C1048 H1064 0.931 . S
C1049 C1048 1.370 . S
C1049 C1053 1.408 . S
C1050 C1048 1.363 . S
C1050 C1051 1.370 . S
C1050 C1054 1.524 1_455 S
C1051 C1043 1.503 1_445 S
C1051 C1050 1.370 . S
C1051 C1052 1.403 . S
C1052 C1051 1.403 . S
C1052 C1053 1.404 . S
C1052 C1055 1.539 . S
C1053 C1049 1.408 . S
C1053 C1052 1.404 . S
C1053 H1065 0.930 . S
C1054 C1050 1.524 1_655 S
C1054 H1066 0.956 . S
C1054 H1067 0.961 1_645 S
C1054 H1068 0.964 . S
C1055 C1052 1.539 . S
C1055 H1069 0.958 1_455 S
C1055 H1070 0.961 . S
C1055 H1071 0.960 1_545 S
H1056 C1040 0.931 . S
H1057 C1045 0.929 . S
H1058 C1046 0.960 1_545 S
H1059 C1046 0.962 . S
H1060 C1046 0.960 . S
H1061 C1047 0.961 . S
H1062 C1047 0.961 . S
H1063 C1047 0.961 . S
H1064 C1048 0.931 . S
H1065 C1053 0.930 . S
H1066 C1054 0.956 . S
H1067 C1054 0.961 1_465 S
H1068 C1054 0.964 . S
H1069 C1055 0.958 1_655 S
H1070 C1055 0.961 . S
H1071 C1055 0.960 1_565 S
C1072 C1073 1.391 1_545 S
C1072 C1074 1.394 . S
C1072 H1088 0.931 1_545 S
C1073 C1072 1.391 1_565 S
C1073 C1077 1.376 1_565 S
C1074 C1072 1.394 . S
C1074 C1075 1.369 . S
C1074 C1078 1.531 . S
C1075 C1074 1.369 . S
C1075 C1076 1.410 . S
C1075 C1083 1.503 . S
C1076 C1075 1.410 . S
C1076 C1077 1.392 . S
C1076 C1079 1.511 . S
C1077 C1073 1.376 1_545 S
C1077 C1076 1.392 . S
C1077 H1089 0.929 . S
C1078 C1074 1.531 . S
C1078 H1090 0.960 . S
C1078 H1091 0.962 . S
C1078 H1092 0.960 . S
C1079 C1076 1.511 . S
C1079 H1093 0.961 . S
C1079 H1094 0.961 . S
C1079 H1095 0.961 . S
C1080 C1081 1.370 . S
C1080 C1082 1.363 . S
C1080 H1096 0.931 . S
C1081 C1080 1.370 . S
C1081 C1085 1.408 . S
C1082 C1080 1.363 . S
C1082 C1083 1.370 . S
C1082 C1086 1.524 . S
C1083 C1075 1.503 . S
C1083 C1082 1.370 . S
C1083 C1084 1.403 . S
C1084 C1083 1.403 . S
C1084 C1085 1.404 . S
C1084 C1087 1.539 . S
C1085 C1081 1.408 . S
C1085 C1084 1.404 . S
C1085 H1097 0.930 . S
C1086 C1082 1.524 . S
C1086 H1098 0.956 . S
C1086 H1099 0.961 . S
C1086 H1100 0.961 . S
C1087 C1084 1.539 . S
C1087 H1101 0.958 . S
C1087 H1102 0.961 . S
C1087 H1103 0.960 . S
H1088 C1072 0.931 1_565 S
H1089 C1077 0.929 . S
H1090 C1078 0.960 . S
H1091 C1078 0.962 . S
H1092 C1078 0.960 . S
H1093 C1079 0.961 . S
H1094 C1079 0.961 . S
H1095 C1079 0.961 . S
H1096 C1080 0.931 . S
H1097 C1085 0.930 . S
H1098 C1086 0.956 . S
H1099 C1086 0.961 . S
H1100 C1086 0.961 . S
H1101 C1087 0.958 . S
H1102 C1087 0.961 . S
H1103 C1087 0.960 . S
C1104 C1105 1.391 . S
C1104 C1106 1.394 . S
C1104 H1120 0.931 . S
C1105 C1104 1.391 . S
C1105 C1109 1.376 . S
C1106 C1104 1.394 . S
C1106 C1107 1.369 . S
C1106 C1110 1.531 . S
C1107 C1106 1.369 . S
C1107 C1108 1.410 . S
C1107 C1115 1.503 . S
C1108 C1107 1.410 . S
C1108 C1109 1.392 . S
C1108 C1111 1.511 . S
C1109 C1105 1.376 . S
C1109 C1108 1.392 . S
C1109 H1121 0.929 . S
C1110 C1106 1.531 . S
C1110 H1122 0.960 . S
C1110 H1123 0.962 . S
C1110 H1124 0.960 . S
C1111 C1108 1.511 . S
C1111 H1125 0.961 . S
C1111 H1126 0.961 . S
C1111 H1127 0.961 . S
C1112 C1113 1.370 1_565 S
C1112 C1114 1.363 . S
C1112 H1128 0.931 . S
C1113 C1112 1.370 1_545 S
C1113 C1117 1.408 1_545 S
C1114 C1112 1.363 . S
C1114 C1115 1.370 . S
C1114 C1118 1.524 . S
C1115 C1107 1.503 . S
C1115 C1114 1.370 . S
C1115 C1116 1.403 . S
C1116 C1115 1.403 . S
C1116 C1117 1.404 . S
C1116 C1119 1.539 . S
C1117 C1113 1.408 1_565 S
C1117 C1116 1.404 . S
C1117 H1129 0.930 1_565 S
C1118 C1114 1.524 . S
C1118 H1130 0.956 . S
C1118 H1131 0.961 . S
C1118 H1132 0.961 . S
C1119 C1116 1.539 . S
C1119 H1133 0.958 . S
C1119 H1134 0.961 . S
C1119 H1135 0.960 . S
H1120 C1104 0.931 . S
H1121 C1109 0.929 . S
H1122 C1110 0.960 . S
H1123 C1110 0.962 . S
H1124 C1110 0.960 . S
H1125 C1111 0.961 . S
H1126 C1111 0.961 . S
H1127 C1111 0.961 . S
H1128 C1112 0.931 . S
H1129 C1117 0.930 1_545 S
H1130 C1118 0.956 . S
H1131 C1118 0.961 . S
H1132 C1118 0.961 . S
H1133 C1119 0.958 . S
H1134 C1119 0.961 . S
H1135 C1119 0.960 . S
C1136 C1137 1.391 . S
C1136 C1138 1.394 . S
C1136 H1152 0.931 . S
C1137 C1136 1.391 . S
C1137 C1141 1.376 . S
C1138 C1136 1.394 . S
C1138 C1139 1.369 . S
C1138 C1142 1.531 . S
C1139 C1138 1.369 . S
C1139 C1140 1.410 . S
C1139 C1147 1.503 . S
C1140 C1139 1.410 . S
C1140 C1141 1.392 . S
C1140 C1143 1.511 . S
C1141 C1137 1.376 . S
C1141 C1140 1.392 . S
C1141 H1153 0.929 . S
C1142 C1138 1.531 . S
C1142 H1154 0.960 . S
C1142 H1155 0.962 . S
C1142 H1156 0.960 . S
C1143 C1140 1.511 . S
C1143 H1157 0.961 . S
C1143 H1158 0.961 . S
C1143 H1159 0.961 . S
C1144 C1145 1.370 . S
C1144 C1146 1.363 . S
C1144 H1160 0.931 . S
C1145 C1144 1.370 . S
C1145 C1149 1.408 . S
C1146 C1144 1.363 . S
C1146 C1147 1.370 . S
C1146 C1150 1.524 . S
C1147 C1139 1.503 . S
C1147 C1146 1.370 . S
C1147 C1148 1.403 . S
C1148 C1147 1.403 . S
C1148 C1149 1.404 . S
C1148 C1151 1.539 . S
C1149 C1145 1.408 . S
C1149 C1148 1.404 . S
C1149 H1161 0.930 . S
C1150 C1146 1.524 . S
C1150 H1162 0.956 . S
C1150 H1163 0.961 . S
C1150 H1164 0.961 . S
C1151 C1148 1.539 . S
C1151 H1165 0.958 . S
C1151 H1166 0.961 . S
C1151 H1167 0.960 . S
H1152 C1136 0.931 . S
H1153 C1141 0.929 . S
H1154 C1142 0.960 . S
H1155 C1142 0.962 . S
H1156 C1142 0.960 . S
H1157 C1143 0.961 . S
H1158 C1143 0.961 . S
H1159 C1143 0.961 . S
H1160 C1144 0.931 . S
H1161 C1149 0.930 . S
H1162 C1150 0.956 . S
H1163 C1150 0.961 . S
H1164 C1150 0.961 . S
H1165 C1151 0.958 . S
H1166 C1151 0.961 . S
H1167 C1151 0.960 . S
C1168 C1169 1.399 . S
C1168 C1170 1.394 . S
C1168 H1184 0.931 . S
C1169 C1168 1.399 . S
C1169 C1173 1.370 1_556 S
C1170 C1168 1.394 . S
C1170 C1171 1.369 . S
C1170 C1174 1.531 . S
C1171 C1170 1.369 . S
C1171 C1172 1.410 1_556 S
C1171 C1179 1.503 1_565 S
C1172 C1171 1.410 1_554 S
C1172 C1173 1.392 . S
C1172 C1175 1.511 . S
C1173 C1169 1.370 1_554 S
C1173 C1172 1.392 . S
C1173 H1185 0.929 . S
C1174 C1170 1.531 . S
C1174 H1186 0.960 . S
C1174 H1187 0.962 . S
C1174 H1188 0.960 . S
C1175 C1172 1.511 . S
C1175 H1189 0.961 . S
C1175 H1190 0.961 1_565 S
C1175 H1191 0.961 . S
C1176 C1177 1.392 . S
C1176 C1178 1.363 . S
C1176 H1192 0.931 . S
C1177 C1176 1.392 . S
C1177 C1181 1.384 1_554 S
C1178 C1176 1.363 . S
C1178 C1179 1.370 1_554 S
C1178 C1182 1.524 . S
C1179 C1171 1.503 1_545 S
C1179 C1178 1.370 1_556 S
C1179 C1180 1.403 . S
C1180 C1179 1.403 . S
C1180 C1181 1.404 . S
C1180 C1183 1.539 . S
C1181 C1177 1.384 1_556 S
C1181 C1180 1.404 . S
C1181 H1193 0.930 . S
C1182 C1178 1.524 . S
C1182 H1194 0.956 1_545 S
C1182 H1195 0.961 1_545 S
C1182 H1196 0.961 . S
C1183 C1180 1.539 . S
C1183 H1197 0.958 . S
C1183 H1198 0.961 . S
C1183 H1199 0.960 . S
H1184 C1168 0.931 . S
H1185 C1173 0.929 . S
H1186 C1174 0.960 . S
H1187 C1174 0.962 . S
H1188 C1174 0.960 . S
H1189 C1175 0.961 . S
H1190 C1175 0.961 1_545 S
H1191 C1175 0.961 . S
H1192 C1176 0.931 . S
H1193 C1181 0.930 . S
H1194 C1182 0.956 1_565 S
H1195 C1182 0.961 1_565 S
H1196 C1182 0.961 . S
H1197 C1183 0.958 . S
H1198 C1183 0.961 . S
H1199 C1183 0.960 . S
C1200 C1201 1.372 1_554 S
C1200 C1202 1.394 . S
C1200 H1216 0.931 . S
C1201 C1200 1.372 1_556 S
C1201 C1205 1.398 . S
C1202 C1200 1.394 . S
C1202 C1203 1.369 1_554 S
C1202 C1206 1.531 . S
C1203 C1202 1.369 1_556 S
C1203 C1204 1.410 . S
C1203 C1211 1.503 . S
C1204 C1203 1.410 . S
C1204 C1205 1.392 . S
C1204 C1207 1.511 . S
C1205 C1201 1.398 . S
C1205 C1204 1.392 . S
C1205 H1217 0.929 . S
C1206 C1202 1.531 . S
C1206 H1218 0.960 . S
C1206 H1219 0.962 . S
C1206 H1220 0.960 . S
C1207 C1204 1.511 . S
C1207 H1221 0.961 . S
C1207 H1222 0.961 . S
C1207 H1223 0.961 . S
C1208 C1209 1.368 . S
C1208 C1210 1.363 . S
C1208 H1224 0.931 . S
C1209 C1208 1.368 . S
C1209 C1213 1.411 1_554 S
C1210 C1208 1.363 . S
C1210 C1211 1.370 1_554 S
C1210 C1214 1.524 . S
C1211 C1203 1.503 . S
C1211 C1210 1.370 1_556 S
C1211 C1212 1.403 . S
C1212 C1211 1.403 . S
C1212 C1213 1.404 . S
C1212 C1215 1.539 . S
C1213 C1209 1.411 1_556 S
C1213 C1212 1.404 . S
C1213 H1225 0.930 . S
C1214 C1210 1.524 . S
C1214 H1226 0.956 . S
C1214 H1227 0.961 . S
C1214 H1228 0.961 . S
C1215 C1212 1.539 . S
C1215 H1229 0.958 . S
C1215 H1230 0.961 . S
C1215 H1231 0.960 . S
H1216 C1200 0.931 . S
H1217 C1205 0.929 . S
H1218 C1206 0.960 . S
H1219 C1206 0.962 . S
H1220 C1206 0.960 . S
H1221 C1207 0.961 . S
H1222 C1207 0.961 . S
H1223 C1207 0.961 . S
H1224 C1208 0.931 . S
H1225 C1213 0.930 . S
H1226 C1214 0.956 . S
H1227 C1214 0.961 . S
H1228 C1214 0.961 . S
H1229 C1215 0.958 . S
H1230 C1215 0.961 . S
H1231 C1215 0.960 . S
C1232 C1233 1.415 . S
C1232 C1234 1.394 . S
C1232 H1248 0.925 1_565 S
C1233 C1232 1.415 . S
C1233 C1237 1.358 1_556 S
C1234 C1232 1.394 . S
C1234 C1235 1.369 . S
C1234 C1238 1.531 . S
C1235 C1234 1.369 . S
C1235 C1236 1.410 1_556 S
C1235 C1243 1.503 . S
C1236 C1235 1.410 1_554 S
C1236 C1237 1.392 . S
C1236 C1239 1.511 . S
C1237 C1233 1.358 1_554 S
C1237 C1236 1.392 . S
C1237 H1249 0.929 . S
C1238 C1234 1.531 . S
C1238 H1250 0.960 . S
C1238 H1251 0.962 . S
C1238 H1252 0.960 . S
C1239 C1236 1.511 . S
C1239 H1253 0.961 . S
C1239 H1254 0.961 . S
C1239 H1255 0.961 . S
C1240 C1241 1.371 . S
C1240 C1242 1.363 . S
C1240 H1256 0.931 . S
C1241 C1240 1.371 . S
C1241 C1245 1.408 1_554 S
C1242 C1240 1.363 . S
C1242 C1243 1.370 1_554 S
C1242 C1246 1.524 . S
C1243 C1235 1.503 . S
C1243 C1242 1.370 1_556 S
C1243 C1244 1.403 . S
C1244 C1243 1.403 . S
C1244 C1245 1.404 . S
C1244 C1247 1.539 . S
C1245 C1241 1.408 1_556 S
C1245 C1244 1.404 . S
C1245 H1257 0.930 . S
C1246 C1242 1.524 . S
C1246 H1258 0.956 . S
C1246 H1259 0.961 . S
C1246 H1260 0.961 . S
C1247 C1244 1.539 . S
C1247 H1261 0.958 . S
C1247 H1262 0.961 . S
C1247 H1263 0.960 . S
H1248 C1232 0.925 1_545 S
H1249 C1237 0.929 . S
H1250 C1238 0.960 . S
H1251 C1238 0.962 . S
H1252 C1238 0.960 . S
H1253 C1239 0.961 . S
H1254 C1239 0.961 . S
H1255 C1239 0.961 . S
H1256 C1240 0.931 . S
H1257 C1245 0.930 . S
H1258 C1246 0.956 . S
H1259 C1246 0.961 . S
H1260 C1246 0.961 . S
H1261 C1247 0.958 . S
H1262 C1247 0.961 . S
H1263 C1247 0.960 . S
C1264 C1265 1.391 . S
C1264 C1266 1.394 . S
C1264 H1280 0.931 . S
C1265 C1264 1.391 . S
C1265 C1269 1.376 . S
C1266 C1264 1.394 . S
C1266 C1267 1.369 . S
C1266 C1270 1.531 . S
C1267 C1266 1.369 . S
C1267 C1268 1.410 . S
C1267 C1275 1.503 1_455 S
C1268 C1267 1.410 . S
C1268 C1269 1.392 . S
C1268 C1271 1.511 . S
C1269 C1265 1.376 . S
C1269 C1268 1.392 . S
C1269 H1281 0.929 . S
C1270 C1266 1.531 . S
C1270 H1282 0.960 1_455 S
C1270 H1283 0.962 1_455 S
C1270 H1284 0.960 . S
C1271 C1268 1.511 . S
C1271 H1285 0.961 . S
C1271 H1286 0.961 . S
C1271 H1287 0.961 . S
C1272 C1273 1.370 . S
C1272 C1274 1.363 . S
C1272 H1288 0.931 . S
C1273 C1272 1.370 . S
C1273 C1277 1.408 . S
C1274 C1272 1.363 . S
C1274 C1275 1.370 . S
C1274 C1278 1.524 . S
C1275 C1267 1.503 1_655 S
C1275 C1274 1.370 . S
C1275 C1276 1.403 . S
C1276 C1275 1.403 . S
C1276 C1277 1.404 . S
C1276 C1279 1.539 1_655 S
C1277 C1273 1.408 . S
C1277 C1276 1.404 . S
C1277 H1289 0.930 . S
C1278 C1274 1.524 . S
C1278 H1290 0.956 . S
C1278 H1291 0.961 . S
C1278 H1292 0.961 . S
C1279 C1276 1.539 1_455 S
C1279 H1293 0.958 . S
C1279 H1294 0.961 . S
C1279 H1295 0.960 . S
H1280 C1264 0.931 . S
H1281 C1269 0.929 . S
H1282 C1270 0.960 1_655 S
H1283 C1270 0.962 1_655 S
H1284 C1270 0.960 . S
H1285 C1271 0.961 . S
H1286 C1271 0.961 . S
H1287 C1271 0.961 . S
H1288 C1272 0.931 . S
H1289 C1277 0.930 . S
H1290 C1278 0.956 . S
H1291 C1278 0.961 . S
H1292 C1278 0.961 . S
H1293 C1279 0.958 . S
H1294 C1279 0.961 . S
H1295 C1279 0.960 . S
C1296 C1297 1.391 . S
C1296 C1298 1.394 . S
C1296 H1312 0.931 . S
C1297 C1296 1.391 . S
C1297 C1301 1.376 . S
C1298 C1296 1.394 . S
C1298 C1299 1.369 . S
C1298 C1302 1.531 . S
C1299 C1298 1.369 . S
C1299 C1300 1.410 . S
C1299 C1307 1.503 . S
C1300 C1299 1.410 . S
C1300 C1301 1.392 . S
C1300 C1303 1.511 . S
C1301 C1297 1.376 . S
C1301 C1300 1.392 . S
C1301 H1313 0.929 . S
C1302 C1298 1.531 . S
C1302 H1314 0.960 . S
C1302 H1315 0.962 . S
C1302 H1316 0.960 . S
C1303 C1300 1.511 . S
C1303 H1317 0.961 . S
C1303 H1318 0.961 . S
C1303 H1319 0.961 . S
C1304 C1305 1.370 . S
C1304 C1306 1.363 . S
C1304 H1320 0.931 . S
C1305 C1304 1.370 . S
C1305 C1309 1.408 . S
C1306 C1304 1.363 . S
C1306 C1307 1.370 . S
C1306 C1310 1.524 . S
C1307 C1299 1.503 . S
C1307 C1306 1.370 . S
C1307 C1308 1.403 . S
C1308 C1307 1.403 . S
C1308 C1309 1.404 . S
C1308 C1311 1.539 . S
C1309 C1305 1.408 . S
C1309 C1308 1.404 . S
C1309 H1321 0.930 . S
C1310 C1306 1.524 . S
C1310 H1322 0.956 . S
C1310 H1323 0.961 . S
C1310 H1324 0.961 . S
C1311 C1308 1.539 . S
C1311 H1325 0.958 . S
C1311 H1326 0.961 . S
C1311 H1327 0.960 . S
H1312 C1296 0.931 . S
H1313 C1301 0.929 . S
H1314 C1302 0.960 . S
H1315 C1302 0.962 . S
H1316 C1302 0.960 . S
H1317 C1303 0.961 . S
H1318 C1303 0.961 . S
H1319 C1303 0.961 . S
H1320 C1304 0.931 . S
H1321 C1309 0.930 . S
H1322 C1310 0.956 . S
H1323 C1310 0.961 . S
H1324 C1310 0.961 . S
H1325 C1311 0.958 . S
H1326 C1311 0.961 . S
H1327 C1311 0.960 . S
C1328 C1329 1.391 . S
C1328 C1330 1.394 . S
C1328 H1344 0.931 . S
C1329 C1328 1.391 . S
C1329 C1333 1.376 . S
C1330 C1328 1.394 . S
C1330 C1331 1.369 . S
C1330 C1334 1.531 . S
C1331 C1330 1.369 . S
C1331 C1332 1.410 . S
C1331 C1339 1.503 . S
C1332 C1331 1.410 . S
C1332 C1333 1.392 . S
C1332 C1335 1.511 . S
C1333 C1329 1.376 . S
C1333 C1332 1.392 . S
C1333 H1345 0.929 . S
C1334 C1330 1.531 . S
C1334 H1346 0.960 . S
C1334 H1347 0.962 . S
C1334 H1348 0.960 . S
C1335 C1332 1.511 . S
C1335 H1349 0.961 . S
C1335 H1350 0.961 . S
C1335 H1351 0.961 . S
C1336 C1337 1.370 . S
C1336 C1338 1.363 . S
C1336 H1352 0.931 1_545 S
C1337 C1336 1.370 . S
C1337 C1341 1.408 . S
C1338 C1336 1.363 . S
C1338 C1339 1.370 . S
C1338 C1342 1.524 . S
C1339 C1331 1.503 . S
C1339 C1338 1.370 . S
C1339 C1340 1.403 . S
C1340 C1339 1.403 . S
C1340 C1341 1.404 . S
C1340 C1343 1.539 . S
C1341 C1337 1.408 . S
C1341 C1340 1.404 . S
C1341 H1353 0.930 . S
C1342 C1338 1.524 . S
C1342 H1354 0.956 . S
C1342 H1355 0.961 . S
C1342 H1356 0.961 . S
C1343 C1340 1.539 . S
C1343 H1357 0.958 . S
C1343 H1358 0.961 . S
C1343 H1359 0.960 . S
H1344 C1328 0.931 . S
H1345 C1333 0.929 . S
H1346 C1334 0.960 . S
H1347 C1334 0.962 . S
H1348 C1334 0.960 . S
H1349 C1335 0.961 . S
H1350 C1335 0.961 . S
H1351 C1335 0.961 . S
H1352 C1336 0.931 1_565 S
H1353 C1341 0.930 . S
H1354 C1342 0.956 . S
H1355 C1342 0.961 . S
H1356 C1342 0.961 . S
H1357 C1343 0.958 . S
H1358 C1343 0.961 . S
H1359 C1343 0.960 . S
C1360 C1361 1.391 . S
C1360 C1362 1.394 . S
C1360 H1376 0.931 . S
C1361 C1360 1.391 . S
C1361 C1365 1.376 . S
C1362 C1360 1.394 . S
C1362 C1363 1.369 . S
C1362 C1366 1.531 1_655 S
C1363 C1362 1.369 . S
C1363 C1364 1.410 1_545 S
C1363 C1371 1.503 1_645 S
C1364 C1363 1.410 1_565 S
C1364 C1365 1.392 1_565 S
C1364 C1367 1.511 . S
C1365 C1361 1.376 . S
C1365 C1364 1.392 1_545 S
C1365 H1377 0.929 . S
C1366 C1362 1.531 1_455 S
C1366 H1378 0.960 . S
C1366 H1379 0.962 . S
C1366 H1380 0.960 . S
C1367 C1364 1.511 . S
C1367 H1381 0.961 . S
C1367 H1382 0.961 . S
C1367 H1383 0.961 . S
C1368 C1369 1.370 . S
C1368 C1370 1.363 . S
C1368 H1384 0.931 . S
C1369 C1368 1.370 . S
C1369 C1373 1.408 . S
C1370 C1368 1.363 . S
C1370 C1371 1.370 . S
C1370 C1374 1.524 . S
C1371 C1363 1.503 1_465 S
C1371 C1370 1.370 . S
C1371 C1372 1.403 . S
C1372 C1371 1.403 . S
C1372 C1373 1.404 . S
C1372 C1375 1.539 . S
C1373 C1369 1.408 . S
C1373 C1372 1.404 . S
C1373 H1385 0.930 . S
C1374 C1370 1.524 . S
C1374 H1386 0.956 1_565 S
C1374 H1387 0.961 1_455 S
C1374 H1388 0.961 . S
C1375 C1372 1.539 . S
C1375 H1389 0.958 1_565 S
C1375 H1390 0.961 . S
C1375 H1391 0.960 1_455 S
H1376 C1360 0.931 . S
H1377 C1365 0.929 . S
H1378 C1366 0.960 . S
H1379 C1366 0.962 . S
H1380 C1366 0.960 . S
H1381 C1367 0.961 . S
H1382 C1367 0.961 . S
H1383 C1367 0.961 . S
H1384 C1368 0.931 . S
H1385 C1373 0.930 . S
H1386 C1374 0.956 1_545 S
H1387 C1374 0.961 1_655 S
H1388 C1374 0.961 . S
H1389 C1375 0.958 1_545 S
H1390 C1375 0.961 . S
H1391 C1375 0.960 1_655 S
C1392 C1393 1.391 . S
C1392 C1394 1.394 . S
C1392 H1408 0.931 . S
C1393 C1392 1.391 . S
C1393 C1397 1.376 . S
C1394 C1392 1.394 . S
C1394 C1395 1.369 . S
C1394 C1398 1.531 . S
C1395 C1394 1.369 . S
C1395 C1396 1.410 . S
C1395 C1403 1.503 . S
C1396 C1395 1.410 . S
C1396 C1397 1.392 . S
C1396 C1399 1.511 . S
C1397 C1393 1.376 . S
C1397 C1396 1.392 . S
C1397 H1409 0.929 . S
C1398 C1394 1.531 . S
C1398 H1410 0.960 . S
C1398 H1411 0.962 . S
C1398 H1412 0.960 . S
C1399 C1396 1.511 . S
C1399 H1413 0.961 . S
C1399 H1414 0.961 . S
C1399 H1415 0.961 . S
C1400 C1401 1.370 . S
C1400 C1402 1.363 . S
C1400 H1416 0.931 . S
C1401 C1400 1.370 . S
C1401 C1405 1.408 . S
C1402 C1400 1.363 . S
C1402 C1403 1.370 . S
C1402 C1406 1.524 . S
C1403 C1395 1.503 . S
C1403 C1402 1.370 . S
C1403 C1404 1.403 . S
C1404 C1403 1.403 . S
C1404 C1405 1.404 . S
C1404 C1407 1.539 . S
C1405 C1401 1.408 . S
C1405 C1404 1.404 . S
C1405 H1417 0.930 . S
C1406 C1402 1.524 . S
C1406 H1418 0.956 . S
C1406 H1419 0.961 . S
C1406 H1420 0.961 . S
C1407 C1404 1.539 . S
C1407 H1421 0.958 . S
C1407 H1422 0.961 . S
C1407 H1423 0.960 . S
H1408 C1392 0.931 . S
H1409 C1397 0.929 . S
H1410 C1398 0.960 . S
H1411 C1398 0.962 . S
H1412 C1398 0.960 . S
H1413 C1399 0.961 . S
H1414 C1399 0.961 . S
H1415 C1399 0.961 . S
H1416 C1400 0.931 . S
H1417 C1405 0.930 . S
H1418 C1406 0.956 . S
H1419 C1406 0.961 . S
H1420 C1406 0.961 . S
H1421 C1407 0.958 . S
H1422 C1407 0.961 . S
H1423 C1407 0.960 . S
C1424 C1425 1.391 . S
C1424 C1426 1.394 1_565 S
C1424 H1440 0.931 . S
C1425 C1424 1.391 . S
C1425 C1429 1.376 . S
C1426 C1424 1.394 1_545 S
C1426 C1427 1.369 1_545 S
C1426 C1430 1.531 . S
C1427 C1426 1.369 1_565 S
C1427 C1428 1.410 . S
C1427 C1435 1.503 1_565 S
C1428 C1427 1.410 . S
C1428 C1429 1.392 . S
C1428 C1431 1.511 . S
C1429 C1425 1.376 . S
C1429 C1428 1.392 . S
C1429 H1441 0.929 . S
C1430 C1426 1.531 . S
C1430 H1442 0.960 . S
C1430 H1443 0.962 . S
C1430 H1444 0.960 . S
C1431 C1428 1.511 . S
C1431 H1445 0.961 . S
C1431 H1446 0.961 . S
C1431 H1447 0.961 . S
C1432 C1433 1.370 . S
C1432 C1434 1.363 . S
C1432 H1448 0.931 . S
C1433 C1432 1.370 . S
C1433 C1437 1.408 . S
C1434 C1432 1.363 . S
C1434 C1435 1.370 . S
C1434 C1438 1.524 . S
C1435 C1427 1.503 1_545 S
C1435 C1434 1.370 . S
C1435 C1436 1.403 . S
C1436 C1435 1.403 . S
C1436 C1437 1.404 . S
C1436 C1439 1.539 1_545 S
C1437 C1433 1.408 . S
C1437 C1436 1.404 . S
C1437 H1449 0.930 . S
C1438 C1434 1.524 . S
C1438 H1450 0.956 . S
C1438 H1451 0.961 1_545 S
C1438 H1452 0.961 . S
C1439 C1436 1.539 1_565 S
C1439 H1453 0.958 1_565 S
C1439 H1454 0.961 . S
C1439 H1455 0.960 . S
H1440 C1424 0.931 . S
H1441 C1429 0.929 . S
H1442 C1430 0.960 . S
H1443 C1430 0.962 . S
H1444 C1430 0.960 . S
H1445 C1431 0.961 . S
H1446 C1431 0.961 . S
H1447 C1431 0.961 . S
H1448 C1432 0.931 . S
H1449 C1437 0.930 . S
H1450 C1438 0.956 . S
H1451 C1438 0.961 1_565 S
H1452 C1438 0.961 . S
H1453 C1439 0.958 1_545 S
H1454 C1439 0.961 . S
H1455 C1439 0.960 . S
C433 C32 2.001 . S
C441 C76 2.018 . S
C465 C13 1.999 . S
C473 C130 2.022 . S
C497 C167 1.998 . S
C505 C67 2.021 . S
C529 C121 2.034 . S
C537 C184 2.009 . S
C561 C194 2.033 . S
C569 C221 2.007 . S
C593 C292 2.029 . S
C601 C175 2.006 . S
C625 C248 1.988 . S
C633 C5 2.027 1_565 S
C657 C283 2.035 . S
C665 C22 2.009 1_545 S
C689 C275 1.998 . S
C697 C356 2.022 . S
C721 C337 1.986 . S
C729 C238 2.029 . S
C753 C383 2.004 . S
C761 C302 2.017 . S
C785 C400 2.013 . S
C793 C229 2.013 . S
C817 C410 1.998 . S
C825 C113 2.021 . S
C849 C59 2.040 . S
C857 C391 2.003 . S
C881 C329 2.028 1_565 S
C889 C140 2.009 . S
C913 C346 2.020 1_545 S
C921 C86 2.010 . S
C945 C27 0.437 1_556 S
C953 C10 0.442 . S
C977 C81 0.451 . S
C985 C64 0.440 . S
C1009 C118 0.450 . S
C1017 C135 0.440 . S
C1041 C172 0.448 . S
C1049 C189 0.441 . S
C1073 C226 0.445 . S
C1081 C243 0.443 . S
C1105 C280 0.445 . S
C1113 C297 0.443 . S
C1137 C351 0.446 . S
C1145 C334 0.442 . S
C1169 C388 0.433 1_556 S
C1177 C405 0.441 . S
C1201 C413 0.906 1_556 S
C1209 C28 0.879 . S
C1233 C35 0.866 1_556 S
C1241 C406 0.902 . S
C1265 C89 0.859 . S
C1273 C143 0.903 . S
C1297 C359 0.911 . S
C1305 C190 0.879 . S
C1329 C197 0.921 . S
C1337 C352 0.879 . S
C1361 C305 0.891 . S
C1369 C244 0.893 . S
C1393 C298 0.919 . S
C1401 C251 0.879 . S
C1425 C136 0.898 . S
C1433 C82 0.883 . S
