# Generated by pormake.
# Topology vbp, (6)-cn, num edge types: 1
# Building blocks:
#     Node 0, Type 0, BuildingBlock: OJICUG_clean_sbu_0, # of connection points: 6
#     Node 1, Type 0, BuildingBlock: OJICUG_clean_sbu_0, # of connection points: 6
#     Node 2, Type 0, BuildingBlock: OJICUG_clean_sbu_0, # of connection points: 6
#     Node 3, Type 0, BuildingBlock: OJICUG_clean_sbu_0, # of connection points: 6
#     Node 4, Type 0, BuildingBlock: OJICUG_clean_sbu_0, # of connection points: 6
#     Node 5, Type 0, BuildingBlock: OJICUG_clean_sbu_0, # of connection points: 6
#     Node 6, Type 0, BuildingBlock: OJICUG_clean_sbu_0, # of connection points: 6
#     Node 7, Type 0, BuildingBlock: OJICUG_clean_sbu_0, # of connection points: 6
#     Node 8, Type 0, BuildingBlock: OJICUG_clean_sbu_0, # of connection points: 6
#     Node 9, Type 0, BuildingBlock: OJICUG_clean_sbu_0, # of connection points: 6
#     Node 10, Type 0, BuildingBlock: OJICUG_clean_sbu_0, # of connection points: 6
#     Node 11, Type 0, BuildingBlock: OJICUG_clean_sbu_0, # of connection points: 6
#     Node 12, Type 0, BuildingBlock: OJICUG_clean_sbu_0, # of connection points: 6
#     Node 13, Type 0, BuildingBlock: OJICUG_clean_sbu_0, # of connection points: 6
#     Node 14, Type 0, BuildingBlock: OJICUG_clean_sbu_0, # of connection points: 6
#     Node 15, Type 0, BuildingBlock: OJICUG_clean_sbu_0, # of connection points: 6
#     Edge 16, Type (0, 0), BuildingBlock: ZUJKAS_clean_linker_0, # of connection points: 2
#     Edge 17, Type (0, 0), BuildingBlock: ZUJKAS_clean_linker_0, # of connection points: 2
#     Edge 18, Type (0, 0), BuildingBlock: ZUJKAS_clean_linker_0, # of connection points: 2
#     Edge 19, Type (0, 0), BuildingBlock: ZUJKAS_clean_linker_0, # of connection points: 2
#     Edge 20, Type (0, 0), BuildingBlock: ZUJKAS_clean_linker_0, # of connection points: 2
#     Edge 21, Type (0, 0), BuildingBlock: ZUJKAS_clean_linker_0, # of connection points: 2
#     Edge 22, Type (0, 0), BuildingBlock: ZUJKAS_clean_linker_0, # of connection points: 2
#     Edge 23, Type (0, 0), BuildingBlock: ZUJKAS_clean_linker_0, # of connection points: 2
#     Edge 24, Type (0, 0), BuildingBlock: ZUJKAS_clean_linker_0, # of connection points: 2
#     Edge 25, Type (0, 0), BuildingBlock: ZUJKAS_clean_linker_0, # of connection points: 2
#     Edge 26, Type (0, 0), BuildingBlock: ZUJKAS_clean_linker_0, # of connection points: 2
#     Edge 27, Type (0, 0), BuildingBlock: ZUJKAS_clean_linker_0, # of connection points: 2
#     Edge 28, Type (0, 0), BuildingBlock: ZUJKAS_clean_linker_0, # of connection points: 2
#     Edge 29, Type (0, 0), BuildingBlock: ZUJKAS_clean_linker_0, # of connection points: 2
#     Edge 30, Type (0, 0), BuildingBlock: ZUJKAS_clean_linker_0, # of connection points: 2
#     Edge 31, Type (0, 0), BuildingBlock: ZUJKAS_clean_linker_0, # of connection points: 2
#     Edge 32, Type (0, 0), BuildingBlock: ZUJKAS_clean_linker_0, # of connection points: 2
#     Edge 33, Type (0, 0), BuildingBlock: ZUJKAS_clean_linker_0, # of connection points: 2
#     Edge 34, Type (0, 0), BuildingBlock: ZUJKAS_clean_linker_0, # of connection points: 2
#     Edge 35, Type (0, 0), BuildingBlock: ZUJKAS_clean_linker_0, # of connection points: 2
#     Edge 36, Type (0, 0), BuildingBlock: ZUJKAS_clean_linker_0, # of connection points: 2
#     Edge 37, Type (0, 0), BuildingBlock: ZUJKAS_clean_linker_0, # of connection points: 2
#     Edge 38, Type (0, 0), BuildingBlock: ZUJKAS_clean_linker_0, # of connection points: 2
#     Edge 39, Type (0, 0), BuildingBlock: ZUJKAS_clean_linker_0, # of connection points: 2
#     Edge 40, Type (0, 0), BuildingBlock: ZUJKAS_clean_linker_0, # of connection points: 2
#     Edge 41, Type (0, 0), BuildingBlock: ZUJKAS_clean_linker_0, # of connection points: 2
#     Edge 42, Type (0, 0), BuildingBlock: ZUJKAS_clean_linker_0, # of connection points: 2
#     Edge 43, Type (0, 0), BuildingBlock: ZUJKAS_clean_linker_0, # of connection points: 2
#     Edge 44, Type (0, 0), BuildingBlock: ZUJKAS_clean_linker_0, # of connection points: 2
#     Edge 45, Type (0, 0), BuildingBlock: ZUJKAS_clean_linker_0, # of connection points: 2
#     Edge 46, Type (0, 0), BuildingBlock: ZUJKAS_clean_linker_0, # of connection points: 2
#     Edge 47, Type (0, 0), BuildingBlock: ZUJKAS_clean_linker_0, # of connection points: 2
#     Edge 48, Type (0, 0), BuildingBlock: ZUJKAS_clean_linker_0, # of connection points: 2
#     Edge 49, Type (0, 0), BuildingBlock: ZUJKAS_clean_linker_0, # of connection points: 2
#     Edge 50, Type (0, 0), BuildingBlock: ZUJKAS_clean_linker_0, # of connection points: 2
#     Edge 51, Type (0, 0), BuildingBlock: ZUJKAS_clean_linker_0, # of connection points: 2
#     Edge 52, Type (0, 0), BuildingBlock: ZUJKAS_clean_linker_0, # of connection points: 2
#     Edge 53, Type (0, 0), BuildingBlock: ZUJKAS_clean_linker_0, # of connection points: 2
#     Edge 54, Type (0, 0), BuildingBlock: ZUJKAS_clean_linker_0, # of connection points: 2
#     Edge 55, Type (0, 0), BuildingBlock: ZUJKAS_clean_linker_0, # of connection points: 2
#     Edge 56, Type (0, 0), BuildingBlock: ZUJKAS_clean_linker_0, # of connection points: 2
#     Edge 57, Type (0, 0), BuildingBlock: ZUJKAS_clean_linker_0, # of connection points: 2
#     Edge 58, Type (0, 0), BuildingBlock: ZUJKAS_clean_linker_0, # of connection points: 2
#     Edge 59, Type (0, 0), BuildingBlock: ZUJKAS_clean_linker_0, # of connection points: 2
#     Edge 60, Type (0, 0), BuildingBlock: ZUJKAS_clean_linker_0, # of connection points: 2
#     Edge 61, Type (0, 0), BuildingBlock: ZUJKAS_clean_linker_0, # of connection points: 2
#     Edge 62, Type (0, 0), BuildingBlock: ZUJKAS_clean_linker_0, # of connection points: 2
#     Edge 63, Type (0, 0), BuildingBlock: ZUJKAS_clean_linker_0, # of connection points: 2
# Relax obj value: 0.262
# Max RMSD: 0.268
# Mean RMSD: 0.268
data_MOF--net-vbp--node1-OJICUG_clean_sbu_0--edge1-ZUJKAS_clean_linker_0
_symmetry_space_group_name_H-M    P1
_symmetry_Int_Tables_number       1
_symmetry_cell_setting            triclinic
loop_
_symmetry_equiv_pos_as_xyz
'x, y, z'
_cell_length_a     37.427734
_cell_length_b     54.444928
_cell_length_c     71.267821
_cell_angle_alpha  90.016459
_cell_angle_beta   89.997877
_cell_angle_gamma 89.907781
loop_
_atom_site_label
_atom_site_type_symbol
_atom_site_fract_x
_atom_site_fract_y
_atom_site_fract_z
_atom_type_partial_charge
Sc0 Sc 0.34333 0.10344 0.13611 0.0
Sc1 Sc 0.39494 0.05023 0.1275 0.0
Sc2 Sc 0.416 0.10504 0.10451 0.0
O3 O 0.38475 0.08626 0.12283 0.0
C4 C 0.33829 0.12522 0.09424 0.0
C5 C 0.3103 0.05077 0.12594 0.0
C6 C 0.41017 0.05434 0.08347 0.0
C7 C 0.37226 0.06826 0.16865 0.0
C8 C 0.40588 0.14386 0.13745 0.0
C9 C 0.47332 0.07141 0.12566 0.0
O10 O 0.32375 0.11882 0.10967 0.0
O11 O 0.34019 0.04028 0.12313 0.0
O12 O 0.41208 0.07758 0.08324 0.0
O13 O 0.35669 0.08812 0.16368 0.0
O14 O 0.42327 0.1341 0.1241 0.0
O15 O 0.45063 0.05668 0.13262 0.0
O16 O 0.37552 0.13588 0.14289 0.0
O17 O 0.38618 0.05348 0.15699 0.0
O18 O 0.46488 0.08889 0.11471 0.0
O19 O 0.30748 0.07308 0.13112 0.0
O20 O 0.37154 0.12289 0.09125 0.0
O21 O 0.40549 0.0421 0.09844 0.0
Sc22 Sc 0.65484 0.40199 0.13597 0.0
Sc23 Sc 0.59936 0.45381 0.12919 0.0
Sc24 Sc 0.58115 0.39903 0.10511 0.0
O25 O 0.61177 0.41827 0.12352 0.0
C26 C 0.65938 0.38264 0.09307 0.0
C27 C 0.68457 0.45564 0.12723 0.0
C28 C 0.58169 0.45184 0.08578 0.0
C29 C 0.62364 0.43517 0.16961 0.0
C30 C 0.59799 0.35839 0.13618 0.0
C31 C 0.52209 0.42874 0.12763 0.0
O32 O 0.6732 0.38619 0.10925 0.0
O33 O 0.65393 0.46574 0.12678 0.0
O34 O 0.5767 0.42881 0.0857 0.0
O35 O 0.64323 0.41753 0.16372 0.0
O36 O 0.58146 0.36672 0.12203 0.0
O37 O 0.54336 0.4459 0.13225 0.0
O38 O 0.62441 0.36935 0.14372 0.0
O39 O 0.60543 0.4487 0.15871 0.0
O40 O 0.53201 0.40991 0.11843 0.0
O41 O 0.68904 0.43274 0.12992 0.0
O42 O 0.62666 0.38674 0.08962 0.0
O43 O 0.59141 0.46355 0.1003 0.0
Sc44 Sc 0.34146 0.90027 0.37397 0.0
Sc45 Sc 0.39237 0.95345 0.38385 0.0
Sc46 Sc 0.41322 0.89791 0.40612 0.0
O47 O 0.38236 0.91722 0.38786 0.0
C48 C 0.33523 0.87808 0.41577 0.0
C49 C 0.30736 0.95269 0.38387 0.0
C50 C 0.4057 0.9485 0.42784 0.0
C51 C 0.37229 0.93617 0.3422 0.0
C52 C 0.40366 0.85946 0.3728 0.0
C53 C 0.4713 0.9319 0.38627 0.0
O54 O 0.32136 0.88396 0.40002 0.0
O55 O 0.33712 0.96331 0.38656 0.0
O56 O 0.41035 0.92543 0.42743 0.0
O57 O 0.35541 0.9167 0.34687 0.0
O58 O 0.41988 0.86856 0.38677 0.0
O59 O 0.44885 0.94775 0.38056 0.0
O60 O 0.37418 0.86817 0.36667 0.0
O61 O 0.38676 0.95036 0.35411 0.0
O62 O 0.46234 0.91306 0.39566 0.0
O63 O 0.30482 0.93019 0.37921 0.0
O64 O 0.36816 0.88099 0.41929 0.0
O65 O 0.39931 0.96114 0.41324 0.0
Sc66 Sc 0.57789 0.60293 0.40728 0.0
Sc67 Sc 0.5968 0.54899 0.38228 0.0
Sc68 Sc 0.65036 0.60172 0.37545 0.0
O69 O 0.60833 0.58457 0.38822 0.0
C70 C 0.59017 0.64383 0.3759 0.0
C71 C 0.51893 0.572 0.38519 0.0
C72 C 0.62009 0.5685 0.34181 0.0
C73 C 0.58181 0.55042 0.42629 0.0
C74 C 0.65598 0.62145 0.4181 0.0
C75 C 0.68197 0.54817 0.38384 0.0
O76 O 0.57367 0.63437 0.38966 0.0
O77 O 0.54086 0.55642 0.37856 0.0
O78 O 0.63805 0.58694 0.34759 0.0
O79 O 0.5788 0.57359 0.42708 0.0
O80 O 0.66979 0.61693 0.40208 0.0
O81 O 0.6516 0.53786 0.38518 0.0
O82 O 0.62321 0.61778 0.42159 0.0
O83 O 0.5879 0.53893 0.41111 0.0
O84 O 0.68574 0.571 0.38048 0.0
O85 O 0.52824 0.58958 0.39586 0.0
O86 O 0.61831 0.63433 0.36879 0.0
O87 O 0.6037 0.5541 0.35281 0.0
Sc88 Sc 0.5814 0.89685 0.90648 0.0
Sc89 Sc 0.60242 0.95284 0.88501 0.0
Sc90 Sc 0.65525 0.90029 0.87576 0.0
O91 O 0.61301 0.91666 0.88896 0.0
C92 C 0.6594 0.87758 0.91737 0.0
C93 C 0.58672 0.94698 0.92879 0.0
C94 C 0.68721 0.95298 0.88646 0.0
C95 C 0.52389 0.93087 0.88597 0.0
C96 C 0.59406 0.85912 0.87314 0.0
C97 C 0.62533 0.93597 0.8436 0.0
O98 O 0.62599 0.87951 0.92008 0.0
O99 O 0.593 0.95991 0.91432 0.0
O100 O 0.69054 0.93066 0.88145 0.0
O101 O 0.5326 0.91224 0.89568 0.0
O102 O 0.62435 0.86765 0.86816 0.0
O103 O 0.6104 0.95016 0.85538 0.0
O104 O 0.5758 0.86818 0.88642 0.0
O105 O 0.54645 0.94668 0.88041 0.0
O106 O 0.64198 0.91643 0.84842 0.0
O107 O 0.5832 0.92383 0.9282 0.0
O108 O 0.6743 0.88438 0.90212 0.0
O109 O 0.65709 0.96323 0.889 0.0
Sc110 Sc 0.34156 0.60251 0.8758 0.0
Sc111 Sc 0.39239 0.55034 0.88703 0.0
Sc112 Sc 0.41225 0.60651 0.90797 0.0
O113 O 0.38214 0.58644 0.89008 0.0
C114 C 0.40468 0.64245 0.8738 0.0
C115 C 0.37209 0.56636 0.84486 0.0
C116 C 0.47028 0.57071 0.88954 0.0
C117 C 0.3085 0.55 0.88661 0.0
C118 C 0.33412 0.6263 0.91647 0.0
C119 C 0.40413 0.55835 0.93123 0.0
O120 O 0.37279 0.63577 0.86995 0.0
O121 O 0.3832 0.55147 0.85732 0.0
O122 O 0.46132 0.58776 0.90078 0.0
O123 O 0.30648 0.57142 0.87951 0.0
O124 O 0.36776 0.62781 0.9185 0.0
O125 O 0.40324 0.54497 0.91657 0.0
O126 O 0.31988 0.61652 0.90206 0.0
O127 O 0.33778 0.54051 0.89201 0.0
O128 O 0.40331 0.58163 0.9306 0.0
O129 O 0.35857 0.58731 0.84885 0.0
O130 O 0.42358 0.63227 0.88636 0.0
O131 O 0.44778 0.55694 0.8814 0.0
Sc132 Sc 0.57814 0.10322 0.60504 0.0
Sc133 Sc 0.59897 0.04773 0.62718 0.0
Sc134 Sc 0.652 0.10014 0.63574 0.0
O135 O 0.60973 0.08369 0.62277 0.0
C136 C 0.656 0.12262 0.59413 0.0
C137 C 0.5826 0.05307 0.58328 0.0
C138 C 0.68351 0.04702 0.62513 0.0
C139 C 0.52088 0.06961 0.6262 0.0
C140 C 0.5901 0.14107 0.63822 0.0
C141 C 0.62332 0.06501 0.6683 0.0
O142 O 0.62243 0.12139 0.59176 0.0
O143 O 0.58703 0.04044 0.5981 0.0
O144 O 0.6869 0.06919 0.63055 0.0
O145 O 0.52931 0.08703 0.61521 0.0
O146 O 0.62105 0.13315 0.64276 0.0
O147 O 0.60908 0.05039 0.65662 0.0
O148 O 0.57127 0.13149 0.62538 0.0
O149 O 0.5436 0.05475 0.63302 0.0
O150 O 0.63875 0.08491 0.66334 0.0
O151 O 0.58161 0.07635 0.58331 0.0
O152 O 0.67113 0.11521 0.60915 0.0
O153 O 0.65334 0.03706 0.62215 0.0
Sc154 Sc 0.4135 0.3991 0.60534 0.0
Sc155 Sc 0.39202 0.45525 0.62646 0.0
Sc156 Sc 0.34197 0.40216 0.6374 0.0
O157 O 0.38256 0.41885 0.62321 0.0
C158 C 0.33534 0.37898 0.59616 0.0
C159 C 0.40489 0.4484 0.58246 0.0
C160 C 0.30743 0.4545 0.62713 0.0
C161 C 0.47112 0.43458 0.62429 0.0
C162 C 0.40458 0.36152 0.63887 0.0
C163 C 0.37282 0.43849 0.66854 0.0
O164 O 0.36872 0.38029 0.59316 0.0
O165 O 0.40024 0.46173 0.59691 0.0
O166 O 0.30557 0.43251 0.63312 0.0
O167 O 0.4624 0.41592 0.61462 0.0
O168 O 0.3739 0.3694 0.64395 0.0
O169 O 0.38521 0.45314 0.65628 0.0
O170 O 0.42229 0.37121 0.62567 0.0
O171 O 0.44837 0.44988 0.63054 0.0
O172 O 0.35773 0.41816 0.66432 0.0
O173 O 0.40819 0.42525 0.58326 0.0
O174 O 0.32104 0.3866 0.61135 0.0
O175 O 0.33679 0.46474 0.62285 0.0
Sc176 Sc 0.83887 0.60358 0.63598 0.0
Sc177 Sc 0.89338 0.55216 0.62614 0.0
Sc178 Sc 0.91611 0.60991 0.60782 0.0
O179 O 0.88288 0.58857 0.62346 0.0
C180 C 0.83848 0.6275 0.59464 0.0
C181 C 0.80865 0.55133 0.62308 0.0
C182 C 0.91409 0.56088 0.58347 0.0
C183 C 0.8675 0.56652 0.66758 0.0
C184 C 0.8969 0.64629 0.64124 0.0
C185 C 0.97184 0.5752 0.62862 0.0
O186 O 0.82249 0.62074 0.6096 0.0
O187 O 0.83909 0.5413 0.62126 0.0
O188 O 0.91978 0.58365 0.58563 0.0
O189 O 0.85004 0.58583 0.66296 0.0
O190 O 0.91685 0.63876 0.62809 0.0
O191 O 0.94909 0.5583 0.63144 0.0
O192 O 0.86758 0.636 0.64569 0.0
O193 O 0.88419 0.55331 0.65576 0.0
O194 O 0.96392 0.59541 0.62067 0.0
O195 O 0.80464 0.57348 0.62827 0.0
O196 O 0.87215 0.62585 0.59265 0.0
O197 O 0.90375 0.54699 0.59672 0.0
Sc198 Sc 0.15212 0.89949 0.63546 0.0
Sc199 Sc 0.09661 0.95161 0.63124 0.0
Sc200 Sc 0.076 0.89786 0.60639 0.0
O201 O 0.10824 0.91629 0.62446 0.0
C202 C 0.1528 0.88143 0.59219 0.0
C203 C 0.18191 0.95306 0.6283 0.0
C204 C 0.07758 0.95151 0.58815 0.0
C205 C 0.12264 0.93136 0.67053 0.0
C206 C 0.09521 0.85604 0.6362 0.0
C207 C 0.01858 0.92735 0.62974 0.0
O208 O 0.16775 0.88381 0.60822 0.0
O209 O 0.15153 0.96331 0.62992 0.0
O210 O 0.07022 0.92876 0.5881 0.0
O211 O 0.14339 0.91502 0.66357 0.0
O212 O 0.07794 0.86465 0.62237 0.0
O213 O 0.04024 0.94458 0.63361 0.0
O214 O 0.12175 0.86702 0.64361 0.0
O215 O 0.10179 0.94439 0.6606 0.0
O216 O 0.02798 0.90796 0.62109 0.0
O217 O 0.18629 0.92991 0.62865 0.0
O218 O 0.12009 0.8864 0.58946 0.0
O219 O 0.08987 0.96259 0.60245 0.0
Sc220 Sc 0.84276 0.39996 0.87454 0.0
Sc221 Sc 0.89478 0.4534 0.88165 0.0
Sc222 Sc 0.91894 0.39833 0.90379 0.0
O223 O 0.88547 0.41724 0.88657 0.0
C224 C 0.84235 0.37887 0.91676 0.0
C225 C 0.80991 0.45252 0.88454 0.0
C226 C 0.91372 0.44959 0.92506 0.0
C227 C 0.87023 0.43481 0.84112 0.0
C228 C 0.90445 0.35926 0.87148 0.0
C229 C 0.97407 0.43184 0.88154 0.0
O230 O 0.82654 0.38403 0.90138 0.0
O231 O 0.83978 0.46348 0.88534 0.0
O232 O 0.91953 0.42663 0.92461 0.0
O233 O 0.85301 0.41592 0.84677 0.0
O234 O 0.92284 0.36842 0.88464 0.0
O235 O 0.95093 0.44789 0.87705 0.0
O236 O 0.87427 0.36784 0.86637 0.0
O237 O 0.88667 0.44913 0.8522 0.0
O238 O 0.96642 0.41282 0.89101 0.0
O239 O 0.80682 0.42973 0.88103 0.0
O240 O 0.87563 0.38209 0.9191 0.0
O241 O 0.90422 0.46184 0.91072 0.0
Sc242 Sc 0.07994 0.10394 0.90547 0.0
Sc243 Sc 0.10148 0.04805 0.88382 0.0
Sc244 Sc 0.15497 0.10054 0.87553 0.0
O245 O 0.11214 0.08416 0.88816 0.0
C246 C 0.09401 0.14193 0.87243 0.0
C247 C 0.02306 0.07051 0.8841 0.0
C248 C 0.12617 0.0652 0.84282 0.0
C249 C 0.08391 0.05343 0.92746 0.0
C250 C 0.15745 0.12297 0.91731 0.0
C251 C 0.18635 0.04767 0.88632 0.0
O252 O 0.07556 0.13299 0.88567 0.0
O253 O 0.04566 0.05449 0.87887 0.0
O254 O 0.14326 0.08434 0.84804 0.0
O255 O 0.0803 0.07659 0.92692 0.0
O256 O 0.17282 0.1166 0.90207 0.0
O257 O 0.15609 0.0374 0.8881 0.0
O258 O 0.12405 0.12068 0.9198 0.0
O259 O 0.09114 0.0406 0.91304 0.0
O260 O 0.18998 0.07013 0.88178 0.0
O261 O 0.03154 0.08913 0.89387 0.0
O262 O 0.12424 0.13316 0.8675 0.0
O263 O 0.11011 0.0511 0.85422 0.0
Sc264 Sc 0.07484 0.39755 0.40691 0.0
Sc265 Sc 0.09599 0.4514 0.38233 0.0
Sc266 Sc 0.14971 0.39846 0.3768 0.0
O267 O 0.10683 0.41577 0.38857 0.0
C268 C 0.15211 0.3801 0.41994 0.0
C269 C 0.07893 0.45069 0.42574 0.0
C270 C 0.18126 0.45177 0.38425 0.0
C271 C 0.01739 0.42824 0.38423 0.0
C272 C 0.09132 0.35568 0.37671 0.0
C273 C 0.11943 0.43102 0.34241 0.0
O274 O 0.11938 0.38475 0.42295 0.0
O275 O 0.08983 0.46195 0.41123 0.0
O276 O 0.18506 0.42864 0.38282 0.0
O277 O 0.02636 0.409 0.39318 0.0
O278 O 0.11848 0.36601 0.36935 0.0
O279 O 0.10086 0.44485 0.35293 0.0
O280 O 0.07432 0.36481 0.39044 0.0
O281 O 0.0395 0.445 0.37988 0.0
O282 O 0.13916 0.41369 0.34876 0.0
O283 O 0.0716 0.42795 0.42581 0.0
O284 O 0.16669 0.38305 0.40388 0.0
O285 O 0.15107 0.46243 0.38377 0.0
Sc286 Sc 0.83868 0.10064 0.3756 0.0
Sc287 Sc 0.89297 0.04964 0.38687 0.0
Sc288 Sc 0.91441 0.10792 0.40467 0.0
O289 O 0.88212 0.08607 0.3889 0.0
C290 C 0.89702 0.14325 0.37044 0.0
C291 C 0.86833 0.06285 0.34486 0.0
C292 C 0.97108 0.07279 0.38477 0.0
C293 C 0.80842 0.04855 0.38911 0.0
C294 C 0.83603 0.12564 0.41652 0.0
C295 C 0.91196 0.05974 0.42977 0.0
O296 O 0.86731 0.13331 0.3662 0.0
O297 O 0.88363 0.04967 0.35721 0.0
O298 O 0.96287 0.09267 0.39311 0.0
O299 O 0.80463 0.07027 0.38288 0.0
O300 O 0.86973 0.12481 0.41869 0.0
O301 O 0.90364 0.04537 0.41641 0.0
O302 O 0.82062 0.11782 0.40169 0.0
O303 O 0.83877 0.03888 0.39207 0.0
O304 O 0.91622 0.08265 0.42754 0.0
O305 O 0.85171 0.08274 0.34887 0.0
O306 O 0.91687 0.13568 0.38361 0.0
O307 O 0.9485 0.056 0.38129 0.0
Sc308 Sc 0.08155 0.60478 0.10624 0.0
Sc309 Sc 0.10122 0.54697 0.12535 0.0
Sc310 Sc 0.15495 0.59794 0.13693 0.0
O311 O 0.11251 0.58322 0.12296 0.0
C312 C 0.16041 0.62285 0.09619 0.0
C313 C 0.08547 0.55629 0.08186 0.0
C314 C 0.18574 0.54543 0.12437 0.0
C315 C 0.02329 0.57011 0.12547 0.0
C316 C 0.09523 0.64012 0.14079 0.0
C317 C 0.12403 0.5608 0.16754 0.0
O318 O 0.12685 0.62263 0.09353 0.0
O319 O 0.09114 0.54228 0.09581 0.0
O320 O 0.18926 0.56711 0.13076 0.0
O321 O 0.0323 0.58914 0.1163 0.0
O322 O 0.12546 0.63098 0.14524 0.0
O323 O 0.10983 0.54729 0.15506 0.0
O324 O 0.0762 0.63199 0.12749 0.0
O325 O 0.04556 0.55376 0.13049 0.0
O326 O 0.14017 0.58086 0.16365 0.0
O327 O 0.08297 0.57944 0.08336 0.0
O328 O 0.17492 0.61426 0.111 0.0
O329 O 0.15555 0.53601 0.12065 0.0
Sc330 Sc 0.9182 0.89685 0.1058 0.0
Sc331 Sc 0.89531 0.95167 0.12869 0.0
Sc332 Sc 0.84396 0.89805 0.13639 0.0
O333 O 0.8858 0.91554 0.12373 0.0
C334 C 0.84103 0.87696 0.09417 0.0
C335 C 0.91123 0.94815 0.08487 0.0
C336 C 0.81032 0.95068 0.12739 0.0
C337 C 0.97466 0.93057 0.127 0.0
C338 C 0.90628 0.85747 0.13819 0.0
C339 C 0.87311 0.93282 0.16955 0.0
O340 O 0.87415 0.88025 0.09134 0.0
O341 O 0.9031 0.96036 0.09947 0.0
O342 O 0.80743 0.92784 0.13078 0.0
O343 O 0.96655 0.9117 0.11744 0.0
O344 O 0.87625 0.86588 0.14377 0.0
O345 O 0.88892 0.94723 0.15829 0.0
O346 O 0.92373 0.86692 0.12479 0.0
O347 O 0.95168 0.94627 0.13232 0.0
O348 O 0.85579 0.91388 0.16407 0.0
O349 O 0.91674 0.92515 0.08507 0.0
O350 O 0.82603 0.88223 0.10976 0.0
O351 O 0.84012 0.96164 0.12603 0.0
H352 H 0.41646 0.0734 0.04818 0.0
H353 H 0.44531 0.05386 0.02135 0.0
H354 H 0.45452 0.98625 0.05251 0.0
H355 H 0.42546 0.00548 0.07941 0.0
H356 H 0.51599 0.03588 0.02588 0.0
H357 H 0.42351 0.96381 0.99969 0.0
H358 H 0.40857 0.98936 0.01386 0.0
H359 H 0.43081 0.96372 0.02461 0.0
C360 C 0.42373 0.05417 0.04919 0.0
C361 C 0.41915 0.04108 0.06604 0.0
C362 C 0.44023 0.04309 0.03385 0.0
C363 C 0.45208 0.01873 0.03506 0.0
C364 C 0.44515 0.00502 0.05129 0.0
H365 H 0.58028 0.92627 0.9635 0.0
H366 H 0.55236 0.94483 0.99101 0.0
C367 C 0.42858 0.01608 0.06666 0.0
C368 C 0.4755 0.00871 0.02034 0.0
H369 H 0.48276 0.96309 0.9879 0.0
C370 C 0.50873 0.02004 0.01747 0.0
C371 C 0.46593 0.98793 0.00966 0.0
C372 C 0.43015 0.97556 0.01195 0.0
C373 C 0.53291 0.01097 1.00418 0.0
C374 C 0.52325 0.99029 0.9934 0.0
C375 C 0.49009 0.97888 0.99634 0.0
C376 C 0.54626 0.98068 0.97833 0.0
C377 C 0.56871 0.02333 1.00196 0.0
C378 C 0.55324 0.99506 0.96244 0.0
C379 C 0.56932 0.98457 0.9467 0.0
C380 C 0.57813 0.95945 0.9466 0.0
C381 C 0.57345 0.94561 0.96307 0.0
C382 C 0.5575 0.95614 0.9788 0.0
H383 H 0.57581 0.03434 0.01455 0.0
H384 H 0.59017 0.00963 0.99939 0.0
H385 H 0.56768 0.03594 0.98974 0.0
H386 H 0.54428 0.01396 0.96177 0.0
H387 H 0.5725 0.99573 0.93424 0.0
H388 H 0.57102 0.43404 0.05047 0.0
H389 H 0.53964 0.45465 0.02492 0.0
H390 H 0.53418 0.52111 0.05775 0.0
H391 H 0.56596 0.50079 0.08335 0.0
H392 H 0.46991 0.47288 0.03089 0.0
H393 H 0.56211 0.5455 1.00513 0.0
H394 H 0.57741 0.51949 0.01866 0.0
H395 H 0.55534 0.54469 0.03009 0.0
C396 C 0.56398 0.45324 0.05209 0.0
C397 C 0.57065 0.46573 0.069 0.0
C398 C 0.546 0.46493 0.0375 0.0
C399 C 0.53456 0.48929 0.03954 0.0
C400 C 0.54321 0.50236 0.05587 0.0
H401 H 0.40681 0.58041 0.96568 0.0
H402 H 0.43271 0.56327 0.99424 0.0
C403 C 0.56139 0.4907 0.07047 0.0
C404 C 0.51046 0.50005 0.02543 0.0
H405 H 0.50338 0.54563 0.99294 0.0
C406 C 0.47717 0.48879 0.02256 0.0
C407 C 0.51997 0.52094 0.01485 0.0
C408 C 0.55575 0.53331 0.01717 0.0
C409 C 0.45316 0.49777 0.00914 0.0
C410 C 0.46302 0.5183 0.99826 0.0
C411 C 0.49594 0.52992 1.00144 0.0
C412 C 0.44097 0.52707 0.98251 0.0
C413 C 0.41753 0.48526 0.00672 0.0
C414 C 0.43594 0.51203 0.96677 0.0
C415 C 0.42118 0.52172 0.9504 0.0
C416 C 0.41162 0.54668 0.94951 0.0
C417 C 0.41424 0.56117 0.96582 0.0
C418 C 0.42902 0.55145 0.98216 0.0
H419 H 0.40996 0.47463 0.01942 0.0
H420 H 0.39613 0.49882 1.00364 0.0
H421 H 0.41916 0.47226 0.99475 0.0
H422 H 0.44547 0.49324 0.96673 0.0
H423 H 0.41947 0.51004 0.93813 0.0
H424 H 0.40979 0.92851 0.46287 0.0
H425 H 0.43726 0.94724 0.49041 0.0
H426 H 0.44803 0.01564 0.46045 0.0
H427 H 0.42025 0.99723 0.43288 0.0
H428 H 0.50758 0.9642 0.48712 0.0
H429 H 0.41685 0.03757 0.51303 0.0
H430 H 0.40167 0.01282 0.49815 0.0
H431 H 0.42524 0.03845 0.48823 0.0
C432 C 0.41706 0.94775 0.4623 0.0
C433 C 0.41336 0.9613 0.44561 0.0
C434 C 0.43274 0.95838 0.47804 0.0
C435 C 0.44472 0.98272 0.47737 0.0
C436 C 0.43851 0.9969 0.46128 0.0
H437 H 0.57676 0.07293 0.54822 0.0
H438 H 0.54733 0.05443 0.52116 0.0
C439 C 0.42267 0.98631 0.44552 0.0
C440 C 0.46795 0.99214 0.4924 0.0
H441 H 0.47632 0.03773 0.52481 0.0
C442 C 0.50069 0.98017 0.49549 0.0
C443 C 0.4589 0.01309 0.50305 0.0
C444 C 0.42362 0.02614 0.50061 0.0
C445 C 0.52495 0.98881 0.50889 0.0
C446 C 0.5159 0.00975 0.51954 0.0
C447 C 0.48317 0.02173 0.51646 0.0
C448 C 0.5393 0.01919 0.53448 0.0
C449 C 0.56027 0.97578 0.5113 0.0
C450 C 0.54564 0.00509 0.55059 0.0
C451 C 0.56255 0.01554 0.56608 0.0
C452 C 0.57293 0.04035 0.56572 0.0
C453 C 0.56878 0.05384 0.54903 0.0
C454 C 0.55194 0.04335 0.53355 0.0
H455 H 0.56689 0.9642 0.49894 0.0
H456 H 0.58223 0.98915 0.51357 0.0
H457 H 0.55883 0.96365 0.52379 0.0
H458 H 0.53565 0.98647 0.5516 0.0
H459 H 0.56529 0.00465 0.57872 0.0
H460 H 0.56166 0.50223 0.42848 0.0
H461 H 0.53036 0.48299 0.45477 0.0
H462 H 0.5476 0.54774 0.48839 0.0
H463 H 0.57883 0.5672 0.46228 0.0
H464 H 0.54776 0.47578 0.49535 0.0
H465 H 0.43599 0.54058 0.48102 0.0
H466 H 0.47116 0.53459 0.46426 0.0
H467 H 0.47923 0.55441 0.48396 0.0
C468 C 0.55977 0.5121 0.44164 0.0
C469 C 0.57208 0.53641 0.44322 0.0
C470 C 0.54174 0.50112 0.45658 0.0
C471 C 0.53603 0.5143 0.4732 0.0
C472 C 0.55127 0.53758 0.47545 0.0
H473 H 0.42334 0.49624 0.57609 0.0
H474 H 0.45103 0.51235 0.5476 0.0
C475 C 0.56918 0.54859 0.46056 0.0
C476 C 0.51158 0.50475 0.48757 0.0
H477 H 0.43091 0.51579 0.50824 0.0
C478 C 0.52209 0.48433 0.49813 0.0
C479 C 0.47813 0.51604 0.49094 0.0
C480 C 0.46518 0.53751 0.47937 0.0
C481 C 0.50037 0.47533 0.51256 0.0
C482 C 0.46712 0.48686 0.51613 0.0
C483 C 0.45638 0.50704 0.50535 0.0
C484 C 0.44415 0.47884 0.5317 0.0
C485 C 0.51363 0.45409 0.52428 0.0
C486 C 0.42928 0.45527 0.53163 0.0
C487 C 0.4135 0.446 0.54784 0.0
C488 C 0.41232 0.46026 0.56429 0.0
C489 C 0.424 0.48477 0.56368 0.0
C490 C 0.43993 0.49398 0.54745 0.0
H491 H 0.5426 0.45058 0.52213 0.0
H492 H 0.50886 0.45759 0.53943 0.0
H493 H 0.49885 0.43722 0.52032 0.0
H494 H 0.43169 0.44358 0.51938 0.0
H495 H 0.40418 0.42717 0.54779 0.0
H496 H 0.92634 0.58478 0.55047 0.0
H497 H 0.95249 0.56756 0.52199 0.0
H498 H 0.95084 0.49534 0.54685 0.0
H499 H 0.9243 0.51229 0.57535 0.0
H500 H 0.01865 0.54443 0.5224 0.0
H501 H 0.91391 0.48295 0.49376 0.0
H502 H 0.90431 0.50673 0.51071 0.0
H503 H 0.92305 0.47792 0.51818 0.0
C504 C 0.93084 0.56514 0.54976 0.0
C505 C 0.92356 0.5499 0.56523 0.0
C506 C 0.94578 0.55538 0.53348 0.0
C507 C 0.95346 0.53024 0.53237 0.0
C508 C 0.94454 0.51476 0.54737 0.0
H509 H 0.06896 0.43287 0.46101 0.0
H510 H 0.04202 0.45447 0.48745 0.0
C511 C 0.92944 0.52448 0.56366 0.0
C512 C 0.9741 0.52064 0.51638 0.0
H513 H 0.97303 0.4774 0.48186 0.0
C514 C 0.0086 0.52996 0.51337 0.0
C515 C 0.96078 0.50178 0.50474 0.0
C516 C 0.92335 0.4919 0.50686 0.0
C517 C 0.03067 0.52031 0.4993 0.0
C518 C 0.01763 0.50106 0.48799 0.0
C519 C 0.98291 0.49208 0.49075 0.0
C520 C 0.03955 0.48955 0.47329 0.0
C521 C 0.06805 0.53018 0.49697 0.0
C522 C 0.04818 0.5025 0.45691 0.0
C523 C 0.06369 0.49023 0.44174 0.0
C524 C 0.0703 0.46483 0.44278 0.0
C525 C 0.0638 0.45239 0.45972 0.0
C526 C 0.04844 0.46465 0.47483 0.0
H527 H 0.0762 0.54191 0.50899 0.0
H528 H 0.0875 0.51487 0.49551 0.0
H529 H 0.06935 0.5414 0.48399 0.0
H530 H 0.04113 0.52171 0.45548 0.0
H531 H 0.06829 0.50028 0.42886 0.0
H532 H 0.0652 0.93409 0.55298 0.0
H533 H 0.03659 0.95589 0.52715 0.0
H534 H 0.03691 0.02273 0.55963 0.0
H535 H 0.0658 0.00107 0.58566 0.0
H536 H 0.96786 0.97887 0.53312 0.0
H537 H 0.07108 0.04349 0.50615 0.0
H538 H 0.08245 0.01637 0.5195 0.0
H539 H 0.06417 0.04277 0.53114 0.0
C540 C 0.0599 0.95355 0.55452 0.0
C541 C 0.06743 0.96583 0.57142 0.0
C542 C 0.04354 0.96594 0.53976 0.0
C543 C 0.0346 0.9908 0.54159 0.0
C544 C 0.04397 0.00355 0.55796 0.0
H545 H 0.92235 0.08456 0.4626 0.0
H546 H 0.94735 0.06829 0.49167 0.0
C547 C 0.0605 0.99116 0.57278 0.0
C548 C 0.0125 0.00253 0.52705 0.0
H549 H 0.01392 0.04549 0.49235 0.0
C550 C 0.97781 0.99351 0.52422 0.0
C551 C 0.02561 0.02172 0.5157 0.0
C552 C 0.06293 0.03165 0.5181 0.0
C553 C 0.95591 0.00298 0.51003 0.0
C554 C 0.9694 0.02165 0.49828 0.0
C555 C 0.00374 0.03115 0.50145 0.0
C556 C 0.94929 0.0307 0.4819 0.0
C557 C 0.9186 0.99296 0.50774 0.0
C558 C 0.9413 0.01477 0.46701 0.0
C559 C 0.92692 0.02396 0.45037 0.0
C560 C 0.92077 0.04929 0.44831 0.0
C561 C 0.92707 0.06498 0.46366 0.0
C562 C 0.94134 0.05575 0.48028 0.0
H563 H 0.90885 0.9843 0.52089 0.0
H564 H 0.89959 0.00766 0.50356 0.0
H565 H 0.91869 0.97872 0.49661 0.0
H566 H 0.94781 0.99541 0.46792 0.0
H567 H 0.9225 0.01141 0.43881 0.0
H568 H 0.92553 0.43013 0.95978 0.0
H569 H 0.95419 0.45048 0.98628 0.0
H570 H 0.95355 0.51903 0.95598 0.0
H571 H 0.92458 0.49895 0.92939 0.0
H572 H 0.02227 0.47242 0.98101 0.0
H573 H 0.92258 0.53846 0.00959 0.0
H574 H 0.91005 0.51252 0.99523 0.0
H575 H 0.929 0.53941 0.98461 0.0
C576 C 0.93066 0.44968 0.95889 0.0
C577 C 0.92319 0.46288 0.94239 0.0
C578 C 0.94706 0.46123 0.97404 0.0
C579 C 0.95601 0.48616 0.97298 0.0
C580 C 0.94644 0.49981 0.95709 0.0
H581 H 0.07574 0.57979 0.04835 0.0
H582 H 0.0491 0.56261 0.02 0.0
C583 C 0.9299 0.48828 0.94191 0.0
C584 C 0.97889 0.49706 0.98757 0.0
H585 H 0.98142 0.54096 0.02157 0.0
C586 C 0.01338 0.48738 0.98993 0.0
C587 C 0.9672 0.51671 0.99892 0.0
C588 C 0.9301 0.52733 0.99713 0.0
C589 C 0.03661 0.49684 1.00352 0.0
C590 C 0.02471 0.51619 0.01512 0.0
C591 C 0.99042 0.52615 0.01254 0.0
C592 C 0.04642 0.52554 0.03079 0.0
C593 C 0.0737 0.48618 1.00525 0.0
C594 C 0.05472 0.51013 0.04594 0.0
C595 C 0.07001 0.51983 0.06216 0.0
C596 C 0.0768 0.54516 0.06354 0.0
C597 C 0.07055 0.56023 0.04783 0.0
C598 C 0.05532 0.55049 0.03161 0.0
H599 H 0.08207 0.47669 0.99216 0.0
H600 H 0.09354 0.50068 0.0086 0.0
H601 H 0.07403 0.4725 0.01679 0.0
H602 H 0.04755 0.49087 0.04563 0.0
H603 H 0.07444 0.50771 0.07399 0.0
H604 H 0.06842 0.00477 0.93256 0.0
H605 H 0.03937 0.98658 0.95997 0.0
H606 H 0.04738 0.05558 0.98935 0.0
H607 H 0.07675 0.07392 0.96221 0.0
H608 H 0.06032 0.01231 0.01177 0.0
H609 H 0.93428 0.00846 0.97046 0.0
H610 H 0.97222 0.99347 0.96003 0.0
H611 H 0.97248 0.02621 0.96309 0.0
C612 C 0.06486 0.01592 0.94501 0.0
C613 C 0.07429 0.04091 0.9451 0.0
C614 C 0.04802 0.00554 0.96058 0.0
C615 C 0.04053 0.02 0.97638 0.0
C616 C 0.05264 0.04429 0.97714 0.0
H617 H 0.92498 0.9972 0.08061 0.0
H618 H 0.95318 0.01661 0.05343 0.0
C619 C 0.06938 0.0547 0.96161 0.0
C620 C 0.01773 0.0105 0.99155 0.0
H621 H 0.93259 0.99204 1.00116 0.0
C622 C 0.03239 0.0079 0.00952 0.0
C623 C 0.98126 0.00505 0.98845 0.0
C624 C 0.96391 0.00859 0.96952 0.0
C625 C 0.01162 0.99936 0.0245 0.0
C626 C 0.97518 0.99381 0.02138 0.0
C627 C 0.96049 0.99652 1.00343 0.0
C628 C 0.9526 0.9837 0.03641 0.0
C629 C 0.02901 0.99573 0.04343 0.0
C630 C 0.94102 0.95932 0.03524 0.0
C631 C 0.92476 0.94822 0.05063 0.0
C632 C 0.91981 0.96141 0.06741 0.0
C633 C 0.92857 0.98652 0.06792 0.0
C634 C 0.94494 0.99758 0.0525 0.0
H635 H 0.05864 0.9962 0.04252 0.0
H636 H 0.02031 0.01062 0.05304 0.0
H637 H 0.02082 0.97794 0.04969 0.0
H638 H 0.94642 0.94846 0.02281 0.0
H639 H 0.9179 0.92894 0.04971 0.0
H640 H 0.42345 0.04154 0.18613 0.0
H641 H 0.41833 0.01932 0.2157 0.0
H642 H 0.31545 0.05259 0.22557 0.0
H643 H 0.3205 0.07519 0.19572 0.0
H644 H 0.36062 0.04808 0.25847 0.0
H645 H 0.34921 0.96019 0.21975 0.0
H646 H 0.38758 0.97794 0.21311 0.0
H647 H 0.34348 0.98971 0.20858 0.0
C648 C 0.39998 0.04455 0.19474 0.0
C649 C 0.37225 0.06003 0.18851 0.0
C650 C 0.39697 0.03164 0.21158 0.0
C651 C 0.36607 0.03371 0.22257 0.0
C652 C 0.33936 0.0505 0.21716 0.0
H653 H 0.32166 0.92896 0.31462 0.0
H654 H 0.31665 0.95187 0.28494 0.0
C655 C 0.34241 0.06359 0.20021 0.0
C656 C 0.36168 0.01759 0.23928 0.0
H657 H 0.3619 0.95719 0.25261 0.0
C658 C 0.36044 0.02823 0.25718 0.0
C659 C 0.36082 0.99165 0.23762 0.0
C660 C 0.35998 0.97915 0.21872 0.0
C661 C 0.3603 0.01362 0.27347 0.0
C662 C 0.36191 0.98769 0.27181 0.0
C663 C 0.36117 0.97704 0.2539 0.0
C664 C 0.36636 0.97157 0.28853 0.0
C665 C 0.35882 0.02611 0.29236 0.0
C666 C 0.39682 0.97402 0.29981 0.0
C667 C 0.39983 0.96092 0.31657 0.0
C668 C 0.37256 0.94488 0.32244 0.0
C669 C 0.34323 0.94102 0.31045 0.0
C670 C 0.34019 0.95428 0.29359 0.0
H671 H 0.34743 0.04492 0.29128 0.0
H672 H 0.34256 0.01534 0.30246 0.0
H673 H 0.3863 0.02771 0.29806 0.0
H674 H 0.41783 0.98672 0.29595 0.0
H675 H 0.42294 0.96419 0.32539 0.0
H676 H 0.57032 0.45703 0.18936 0.0
H677 H 0.57549 0.47893 0.21915 0.0
H678 H 0.68445 0.45436 0.22468 0.0
H679 H 0.67954 0.43221 0.19463 0.0
H680 H 0.61923 0.45587 0.25976 0.0
H681 H 0.66146 0.53986 0.22105 0.0
H682 H 0.62879 0.51972 0.21058 0.0
H683 H 0.67396 0.50941 0.21331 0.0
C684 C 0.59517 0.45573 0.1971 0.0
C685 C 0.62454 0.44286 0.1896 0.0
C686 C 0.59809 0.46837 0.21409 0.0
C687 C 0.63044 0.4685 0.22396 0.0
C688 C 0.65926 0.45449 0.21719 0.0
H689 H 0.67699 0.56967 0.3175 0.0
H690 H 0.68244 0.54602 0.2882 0.0
C691 C 0.65631 0.44166 0.20014 0.0
C692 C 0.63416 0.4846 0.24065 0.0
H693 H 0.64734 0.54456 0.25316 0.0
C694 C 0.62582 0.47519 0.2584 0.0
C695 C 0.64291 0.50974 0.2388 0.0
C696 C 0.65245 0.52048 0.21996 0.0
C697 C 0.62501 0.49046 0.27431 0.0
C698 C 0.63191 0.51596 0.27234 0.0
C699 C 0.6417 0.52513 0.25466 0.0
C700 C 0.62768 0.5333 0.28837 0.0
C701 C 0.61661 0.47912 0.29312 0.0
C702 C 0.59461 0.53527 0.29753 0.0
C703 C 0.59147 0.54871 0.31415 0.0
C704 C 0.62119 0.56087 0.32185 0.0
C705 C 0.65354 0.56075 0.3118 0.0
C706 C 0.65676 0.54703 0.29517 0.0
H707 H 0.62262 0.45913 0.29325 0.0
H708 H 0.632 0.4881 0.30454 0.0
H709 H 0.58771 0.48143 0.29613 0.0
H710 H 0.57152 0.52547 0.29227 0.0
H711 H 0.56618 0.54852 0.32155 0.0
H712 H 0.5749 0.96403 0.8266 0.0
H713 H 0.57938 0.98551 0.79672 0.0
H714 H 0.68065 0.95035 0.786 0.0
H715 H 0.67618 0.92845 0.81612 0.0
H716 H 0.63403 0.01868 0.78793 0.0
H717 H 0.62656 0.94267 0.73588 0.0
H718 H 0.61262 0.93891 0.75996 0.0
H719 H 0.65929 0.93939 0.75419 0.0
C720 C 0.59785 0.96042 0.81775 0.0
C721 C 0.62521 0.94449 0.82378 0.0
C722 C 0.60045 0.97285 0.80068 0.0
C723 C 0.6304 0.96971 0.78912 0.0
C724 C 0.65709 0.95293 0.7946 0.0
H725 H 0.67452 0.07289 0.69552 0.0
H726 H 0.67969 0.05115 0.7257 0.0
C727 C 0.65444 0.94031 0.81177 0.0
C728 C 0.63396 0.98511 0.77194 0.0
H729 H 0.63381 0.98272 0.72404 0.0
C730 C 0.63431 0.01082 0.77395 0.0
C731 C 0.63419 0.97487 0.75371 0.0
C732 C 0.6329 0.94747 0.75066 0.0
C733 C 0.63395 0.02653 0.75826 0.0
C734 C 0.6336 0.01629 0.74003 0.0
C735 C 0.63419 0.99058 0.73802 0.0
C736 C 0.62958 0.03167 0.72286 0.0
C737 C 0.63242 0.05393 0.7613 0.0
C738 C 0.59946 0.02841 0.71145 0.0
C739 C 0.59647 0.04075 0.69436 0.0
C740 C 0.62359 0.0567 0.68816 0.0
C741 C 0.65296 0.06102 0.70002 0.0
C742 C 0.65602 0.04849 0.71722 0.0
H743 H 0.62634 0.05872 0.77612 0.0
H744 H 0.65864 0.06209 0.75761 0.0
H745 H 0.61185 0.06241 0.75212 0.0
H746 H 0.57858 0.01572 0.71554 0.0
H747 H 0.57342 0.03704 0.68561 0.0
H748 H 0.32514 0.57587 0.81593 0.0
H749 H 0.32158 0.55377 0.78584 0.0
H750 H 0.41796 0.51421 0.7996 0.0
H751 H 0.42127 0.53571 0.82956 0.0
H752 H 0.36605 0.54796 0.75523 0.0
H753 H 0.34795 0.45856 0.79075 0.0
H754 H 0.34468 0.48746 0.80305 0.0
H755 H 0.38772 0.47394 0.79839 0.0
C756 C 0.34591 0.56282 0.81233 0.0
C757 C 0.37329 0.55738 0.82519 0.0
C758 C 0.34371 0.55005 0.79521 0.0
C759 C 0.36886 0.53171 0.79073 0.0
C760 C 0.39755 0.52763 0.803 0.0
H761 H 0.42313 0.46762 0.68451 0.0
H762 H 0.41961 0.48916 0.71446 0.0
C763 C 0.3996 0.54014 0.82006 0.0
C764 C 0.36526 0.51647 0.77345 0.0
H765 H 0.36366 0.45688 0.75814 0.0
C766 C 0.36517 0.52807 0.75588 0.0
C767 C 0.36327 0.49047 0.77423 0.0
C768 C 0.36051 0.47688 0.79263 0.0
C769 C 0.36491 0.51439 0.73912 0.0
C770 C 0.36554 0.48836 0.73993 0.0
C771 C 0.36383 0.47678 0.75748 0.0
C772 C 0.36924 0.473 0.7227 0.0
C773 C 0.3639 0.52803 0.7207 0.0
C774 C 0.34336 0.45535 0.71789 0.0
C775 C 0.34567 0.44254 0.7008 0.0
C776 C 0.37388 0.44725 0.68827 0.0
C777 C 0.40085 0.46375 0.69375 0.0
C778 C 0.39869 0.4763 0.7108 0.0
H779 H 0.35222 0.54668 0.72238 0.0
H780 H 0.39155 0.53021 0.71535 0.0
H781 H 0.34811 0.51787 0.71004 0.0
H782 H 0.32062 0.45223 0.72698 0.0
H783 H 0.32436 0.43009 0.69692 0.0
H784 H 0.8166 0.42783 0.81508 0.0
H785 H 0.81027 0.44943 0.78488 0.0
H786 H 0.91409 0.48208 0.79253 0.0
H787 H 0.92062 0.46075 0.82238 0.0
H788 H 0.85531 0.51633 0.78608 0.0
H789 H 0.8635 0.44138 0.73301 0.0
H790 H 0.83426 0.43718 0.75283 0.0
H791 H 0.88166 0.43799 0.75635 0.0
C792 C 0.83849 0.439 0.81001 0.0
C793 C 0.86907 0.44261 0.82116 0.0
C794 C 0.83475 0.45147 0.79283 0.0
C795 C 0.86162 0.46754 0.78655 0.0
C796 C 0.89292 0.46996 0.79717 0.0
H797 H 0.91767 0.53843 0.6848 0.0
H798 H 0.91213 0.51597 0.71421 0.0
C799 C 0.89665 0.45762 0.8142 0.0
C800 C 0.85685 0.48318 0.76963 0.0
H801 H 0.85765 0.48177 0.72173 0.0
C802 C 0.85536 0.5088 0.77198 0.0
C803 C 0.85709 0.4733 0.75131 0.0
C804 C 0.85938 0.44597 0.74804 0.0
C805 C 0.85518 0.52484 0.7565 0.0
C806 C 0.85628 0.51498 0.73816 0.0
C807 C 0.85671 0.48931 0.73581 0.0
C808 C 0.8602 0.53079 0.72124 0.0
C809 C 0.85547 0.55219 0.75989 0.0
C810 C 0.83328 0.54731 0.71562 0.0
C811 C 0.83653 0.56049 0.69874 0.0
C812 C 0.86659 0.55712 0.68715 0.0
C813 C 0.89407 0.5414 0.69332 0.0
C814 C 0.89089 0.52841 0.71011 0.0
H815 H 0.86085 0.55677 0.77481 0.0
H816 H 0.87598 0.56121 0.75099 0.0
H817 H 0.82904 0.55997 0.75605 0.0
H818 H 0.80919 0.54929 0.7239 0.0
H819 H 0.8147 0.57218 0.69427 0.0
H820 H 0.18315 0.06453 0.8186 0.0
H821 H 0.18743 0.04099 0.78928 0.0
H822 H 0.07558 0.02274 0.79343 0.0
H823 H 0.07168 0.04536 0.82294 0.0
H824 H 0.11379 0.98256 0.78846 0.0
H825 H 0.15765 0.05136 0.73589 0.0
H826 H 0.18639 0.04937 0.75598 0.0
H827 H 0.14117 0.06005 0.75874 0.0
C828 C 0.15926 0.05618 0.81288 0.0
C829 C 0.12702 0.05694 0.82299 0.0
C830 C 0.16172 0.04264 0.79612 0.0
C831 C 0.13178 0.03005 0.789 0.0
C832 C 0.09913 0.03211 0.7986 0.0
H833 H 0.06886 0.94567 0.69371 0.0
H834 H 0.07455 0.96705 0.72376 0.0
C835 C 0.09683 0.04525 0.81541 0.0
C836 C 0.13466 0.01305 0.77258 0.0
H837 H 0.15665 0.00975 0.72602 0.0
C838 C 0.12321 0.9886 0.77483 0.0
C839 C 0.14718 0.0207 0.75475 0.0
C840 C 0.1585 0.04685 0.75108 0.0
C841 C 0.12331 0.97187 0.75979 0.0
C842 C 0.1353 0.97964 0.74198 0.0
C843 C 0.14773 0.0038 0.73976 0.0
C844 C 0.13204 0.96367 0.72513 0.0
C845 C 0.11019 0.94602 0.76293 0.0
C846 C 0.16242 0.95396 0.71619 0.0
C847 C 0.15915 0.9412 0.69913 0.0
C848 C 0.1255 0.93844 0.69058 0.0
C849 C 0.09508 0.94729 0.70003 0.0
C850 C 0.0983 0.95963 0.71715 0.0
H851 H 0.10812 0.94149 0.77809 0.0
H852 H 0.08334 0.94397 0.75651 0.0
H853 H 0.12834 0.93259 0.75606 0.0
H854 H 0.18872 0.95696 0.72209 0.0
H855 H 0.18312 0.93505 0.69201 0.0
H856 H 0.06644 0.45237 0.32214 0.0
H857 H 0.07198 0.47349 0.29213 0.0
H858 H 0.18103 0.44867 0.28733 0.0
H859 H 0.17559 0.42722 0.31757 0.0
H860 H 0.12201 0.51174 0.28646 0.0
H861 H 0.1385 0.43639 0.23438 0.0
H862 H 0.12006 0.43122 0.25746 0.0
H863 H 0.16725 0.43556 0.2546 0.0
C864 C 0.09138 0.45082 0.3145 0.0
C865 C 0.12059 0.43806 0.32227 0.0
C866 C 0.09455 0.46307 0.29738 0.0
C867 C 0.12695 0.46285 0.28751 0.0
C868 C 0.15565 0.44895 0.29462 0.0
H869 H 0.17042 0.57048 0.19683 0.0
H870 H 0.1744 0.54812 0.22678 0.0
C871 C 0.15244 0.43654 0.31185 0.0
C872 C 0.13087 0.47864 0.27056 0.0
H873 H 0.1405 0.47695 0.22291 0.0
C874 C 0.12638 0.50417 0.27256 0.0
C875 C 0.13647 0.46875 0.25246 0.0
C876 C 0.14063 0.44147 0.24943 0.0
C877 C 0.12647 0.51997 0.25694 0.0
C878 C 0.13149 0.51003 0.2388 0.0
C879 C 0.13682 0.48457 0.23684 0.0
C880 C 0.12817 0.52527 0.22153 0.0
C881 C 0.11972 0.54702 0.25985 0.0
C882 C 0.1006 0.52022 0.20881 0.0
C883 C 0.09822 0.53293 0.19186 0.0
C884 C 0.1235 0.55102 0.18705 0.0
C885 C 0.15032 0.55688 0.20015 0.0
C886 C 0.1527 0.54402 0.21724 0.0
H887 H 0.11042 0.55114 0.27432 0.0
H888 H 0.14484 0.55731 0.25734 0.0
H889 H 0.09944 0.55384 0.24973 0.0
H890 H 0.0812 0.50602 0.21185 0.0
H891 H 0.07706 0.52799 0.1822 0.0
H892 H 0.91666 0.03138 0.32958 0.0
H893 H 0.91272 0.00938 0.29992 0.0
H894 H 0.81589 0.04851 0.28634 0.0
H895 H 0.81979 0.07096 0.31625 0.0
H896 H 0.85709 0.97832 0.28938 0.0
H897 H 0.87525 0.05408 0.23791 0.0
H898 H 0.88664 0.05738 0.2624 0.0
H899 H 0.84073 0.05845 0.25515 0.0
C900 C 0.89472 0.03567 0.32021 0.0
C901 C 0.86848 0.05298 0.32536 0.0
C902 C 0.89246 0.02294 0.30324 0.0
C903 C 0.86399 0.02715 0.29088 0.0
C904 C 0.83834 0.04509 0.29556 0.0
H905 H 0.82015 0.92611 0.19597 0.0
H906 H 0.81477 0.94761 0.22622 0.0
C907 C 0.84065 0.058 0.31264 0.0
C908 C 0.86101 0.0119 0.27355 0.0
H909 H 0.8659 0.01442 0.22571 0.0
C910 C 0.8587 0.98622 0.27543 0.0
C911 C 0.86331 0.02218 0.25537 0.0
C912 C 0.86689 0.04951 0.25246 0.0
C913 C 0.85946 0.97056 0.25971 0.0
C914 C 0.86223 0.98083 0.24154 0.0
C915 C 0.86368 0.00653 0.23964 0.0
C916 C 0.86636 0.96539 0.22438 0.0
C917 C 0.85876 0.94314 0.26268 0.0
C918 C 0.89737 0.96773 0.21349 0.0
C919 C 0.90048 0.95551 0.19634 0.0
C920 C 0.87261 0.94061 0.18955 0.0
C921 C 0.8423 0.93713 0.20092 0.0
C922 C 0.83913 0.94953 0.21817 0.0
H923 H 0.86351 0.93812 0.27758 0.0
H924 H 0.8322 0.93594 0.25851 0.0
H925 H 0.87924 0.93396 0.25384 0.0
H926 H 0.91885 0.97968 0.21801 0.0
H927 H 0.92423 0.95859 0.18797 0.0
H928 H 0.35881 0.15141 0.06339 0.0
H929 H 0.32672 0.15597 0.03379 0.0
H930 H 0.23548 0.1192 0.0576 0.0
H931 H 0.26763 0.11444 0.08742 0.0
H932 H 0.25968 0.09863 0.02342 0.0
H933 H 0.24305 0.19946 0.01662 0.0
H934 H 0.28781 0.18987 0.02207 0.0
H935 H 0.25263 0.18471 0.03877 0.0
C936 C 0.33157 0.14482 0.06254 0.0
C937 C 0.31582 0.13261 0.07789 0.0
C938 C 0.31319 0.14751 0.04555 0.0
C939 C 0.27857 0.13806 0.04342 0.0
C940 C 0.26213 0.12674 0.05892 0.0
H941 H 0.13501 0.14863 0.94811 0.0
H942 H 0.16603 0.15349 0.97803 0.0
C943 C 0.28043 0.12422 0.07604 0.0
C944 C 0.26104 0.13811 0.02459 0.0
H945 H 0.23228 0.17567 0.98912 0.0
C946 C 0.25355 0.11549 0.01597 0.0
C947 C 0.25296 0.16009 0.01482 0.0
C948 C 0.2592 0.18494 0.02357 0.0
C949 C 0.23873 0.11422 0.99783 0.0
C950 C 0.23148 0.13618 0.98787 0.0
C951 C 0.23837 0.15883 0.99661 0.0
C952 C 0.21477 0.13586 0.96885 0.0
C953 C 0.23038 0.08936 0.98959 0.0
C954 C 0.23234 0.12524 0.95338 0.0
C955 C 0.21471 0.1226 0.93608 0.0
C956 C 0.17906 0.13041 0.93396 0.0
C957 C 0.16239 0.1423 0.94921 0.0
C958 C 0.18009 0.14509 0.96638 0.0
H959 H 0.2307 0.07466 1.00039 0.0
H960 H 0.20377 0.08949 0.98268 0.0
H961 H 0.25069 0.08476 0.97879 0.0
H962 H 0.25933 0.11829 0.95486 0.0
H963 H 0.22833 0.11323 0.92473 0.0
H964 H 0.77146 0.38825 0.92413 0.0
H965 H 0.74095 0.38444 0.95449 0.0
H966 H 0.83514 0.35122 0.97832 0.0
H967 H 0.86579 0.35495 0.94816 0.0
H968 H 0.7671 0.32899 0.98966 0.0
H969 H 0.7718 0.43032 0.99916 0.0
H970 H 0.75244 0.41959 0.97756 0.0
H971 H 0.79904 0.41447 0.98208 0.0
C972 C 0.78538 0.37955 0.93568 0.0
C973 C 0.82116 0.37197 0.93366 0.0
C974 C 0.76802 0.37763 0.9531 0.0
C975 C 0.78597 0.36791 0.96878 0.0
C976 C 0.82082 0.3589 0.96648 0.0
H977 H 0.73088 0.39192 0.08718 0.0
H978 H 0.76425 0.38636 0.05773 0.0
C979 C 0.83828 0.36102 0.94918 0.0
C980 C 0.76942 0.3684 0.98781 0.0
H981 H 0.74209 0.40746 0.0226 0.0
C982 C 0.76159 0.34613 0.99686 0.0
C983 C 0.7629 0.39076 0.99737 0.0
C984 C 0.77218 0.4152 0.98868 0.0
C985 C 0.74658 0.34567 0.01499 0.0
C986 C 0.73916 0.36806 0.02435 0.0
C987 C 0.74776 0.39029 0.01546 0.0
C988 C 0.72068 0.36892 0.04289 0.0
C989 C 0.73899 0.32121 0.02408 0.0
C990 C 0.68533 0.36067 0.04446 0.0
C991 C 0.66628 0.36389 0.06117 0.0
C992 C 0.6821 0.37539 0.07681 0.0
C993 C 0.71805 0.38271 0.07552 0.0
C994 C 0.73705 0.37971 0.05864 0.0
H995 H 0.75449 0.30614 0.01741 0.0
H996 H 0.74537 0.3217 0.03929 0.0
H997 H 0.71016 0.31693 0.02255 0.0
H998 H 0.6719 0.35263 0.03248 0.0
H999 H 0.63862 0.35809 0.06163 0.0
H1000 H 0.2651 0.89047 0.42251 0.0
H1001 H 0.23302 0.88658 0.45245 0.0
H1002 H 0.32194 0.84659 0.47581 0.0
H1003 H 0.35405 0.85038 0.44609 0.0
H1004 H 0.25189 0.82803 0.48638 0.0
H1005 H 0.26792 0.92834 0.4984 0.0
H1006 H 0.24739 0.91963 0.47657 0.0
H1007 H 0.29328 0.91185 0.48089 0.0
C1008 C 0.27737 0.88022 0.43383 0.0
C1009 C 0.31221 0.87078 0.43188 0.0
C1010 C 0.25918 0.87826 0.45103 0.0
C1011 C 0.27535 0.86667 0.4665 0.0
C1012 C 0.309 0.85574 0.46414 0.0
H1013 H 0.22478 0.88808 0.58566 0.0
H1014 H 0.25652 0.88254 0.55571 0.0
C1015 C 0.32729 0.85788 0.44709 0.0
C1016 C 0.25855 0.86726 0.48548 0.0
H1017 H 0.23596 0.90611 0.52134 0.0
C1018 C 0.2483 0.84509 0.49401 0.0
C1019 C 0.25458 0.88947 0.49562 0.0
C1020 C 0.26658 0.91371 0.48755 0.0
C1021 C 0.23348 0.84464 0.51218 0.0
C1022 C 0.22869 0.86693 0.52213 0.0
C1023 C 0.2396 0.88902 0.51374 0.0
C1024 C 0.21083 0.86792 0.54084 0.0
C1025 C 0.22338 0.82026 0.5207 0.0
C1026 C 0.17479 0.86128 0.54255 0.0
C1027 C 0.15668 0.86448 0.55954 0.0
C1028 C 0.17413 0.87437 0.57536 0.0
C1029 C 0.21066 0.88014 0.57387 0.0
C1030 C 0.22874 0.87715 0.55672 0.0
H1031 H 0.23709 0.80473 0.51358 0.0
H1032 H 0.23003 0.81976 0.53588 0.0
H1033 H 0.19414 0.81754 0.51923 0.0
H1034 H 0.16021 0.85448 0.5305 0.0
H1035 H 0.12855 0.85989 0.56013 0.0
H1036 H 0.63575 0.64749 0.44899 0.0
H1037 H 0.66898 0.65331 0.47812 0.0
H1038 H 0.76046 0.61728 0.4537 0.0
H1039 H 0.72718 0.61138 0.42429 0.0
H1040 H 0.73726 0.59754 0.48909 0.0
H1041 H 0.75308 0.69872 0.49272 0.0
H1042 H 0.70849 0.68856 0.48757 0.0
H1043 H 0.74376 0.68272 0.47105 0.0
C1044 C 0.66324 0.64128 0.44961 0.0
C1045 C 0.67881 0.62904 0.43422 0.0
C1046 C 0.68226 0.6447 0.46631 0.0
C1047 C 0.71733 0.63588 0.46813 0.0
C1048 C 0.73348 0.62437 0.45261 0.0
H1049 H 0.86167 0.65147 0.56314 0.0
H1050 H 0.83124 0.65469 0.5329 0.0
C1051 C 0.71454 0.62118 0.43574 0.0
C1052 C 0.73568 0.63692 0.48672 0.0
H1053 H 0.76486 0.6764 0.52081 0.0
C1054 C 0.74349 0.61478 0.49597 0.0
C1055 C 0.74386 0.65941 0.49572 0.0
C1056 C 0.73719 0.68374 0.48623 0.0
C1057 C 0.7586 0.61452 0.51407 0.0
C1058 C 0.76585 0.63701 0.52331 0.0
C1059 C 0.7588 0.65916 0.51388 0.0
C1060 C 0.7823 0.63773 0.54239 0.0
C1061 C 0.7671 0.59013 0.52309 0.0
C1062 C 0.7644 0.62807 0.55809 0.0
C1063 C 0.78167 0.62637 0.57554 0.0
C1064 C 0.81729 0.6342 0.57763 0.0
C1065 C 0.8343 0.64518 0.5621 0.0
C1066 C 0.81695 0.64701 0.54474 0.0
H1067 H 0.76693 0.57487 0.51274 0.0
H1068 H 0.79365 0.59066 0.53003 0.0
H1069 H 0.74675 0.58608 0.53398 0.0
H1070 H 0.73744 0.62112 0.55669 0.0
H1071 H 0.76776 0.61769 0.5871 0.0
H1072 H 0.63851 0.85092 0.94795 0.0
H1073 H 0.66999 0.84635 0.97778 0.0
H1074 H 0.76129 0.88383 0.95472 0.0
H1075 H 0.72985 0.88858 0.92468 0.0
H1076 H 0.73803 0.82559 0.98856 0.0
H1077 H 0.72993 0.92633 1.00065 0.0
H1078 H 0.70368 0.91094 0.98295 0.0
H1079 H 0.75018 0.91701 0.97889 0.0
C1080 C 0.66558 0.85779 0.94904 0.0
C1081 C 0.68154 0.87022 0.93386 0.0
C1082 C 0.68354 0.85517 0.96617 0.0
C1083 C 0.71775 0.86513 0.96865 0.0
C1084 C 0.73467 0.8763 0.95323 0.0
H1085 H 0.86337 0.85251 0.06281 0.0
H1086 H 0.83151 0.84767 0.03316 0.0
C1087 C 0.71681 0.87876 0.93598 0.0
C1088 C 0.73456 0.86503 0.98765 0.0
H1089 H 0.76046 0.90289 0.02347 0.0
C1090 C 0.74303 0.84249 0.99618 0.0
C1091 C 0.74041 0.88704 0.99778 0.0
C1092 C 0.73036 0.91174 0.98974 0.0
C1093 C 0.75785 0.84142 0.01435 0.0
C1094 C 0.76451 0.86348 0.02429 0.0
C1095 C 0.75542 0.88598 0.01588 0.0
C1096 C 0.78217 0.86379 0.04309 0.0
C1097 C 0.76586 0.81667 0.02288 0.0
C1098 C 0.76502 0.87423 0.05876 0.0
C1099 C 0.78319 0.8769 0.0759 0.0
C1100 C 0.81913 0.86956 0.07762 0.0
C1101 C 0.83569 0.85829 0.06207 0.0
C1102 C 0.81746 0.85543 0.04506 0.0
H1103 H 0.75077 0.80175 0.0158 0.0
H1104 H 0.79479 0.81267 0.02134 0.0
H1105 H 0.75929 0.81647 0.03807 0.0
H1106 H 0.73785 0.88093 0.05757 0.0
H1107 H 0.76973 0.88595 0.08746 0.0
H1108 H 0.34482 0.66246 0.94263 0.0
H1109 H 0.31476 0.66704 0.97294 0.0
H1110 H 0.24532 0.60647 0.95917 0.0
H1111 H 0.27373 0.603 0.9284 0.0
H1112 H 0.20909 0.6366 0.97825 0.0
H1113 H 0.33649 0.6257 0.01659 0.0
H1114 H 0.33705 0.65248 1.00202 0.0
H1115 H 0.33367 0.62243 0.99151 0.0
C1116 C 0.32256 0.65052 0.94591 0.0
C1117 C 0.31164 0.63241 0.93306 0.0
C1118 C 0.30574 0.65285 0.96342 0.0
C1119 C 0.27856 0.63649 0.96884 0.0
C1120 C 0.26638 0.61925 0.95557 0.0
H1121 H 0.22197 0.60086 0.0843 0.0
H1122 H 0.25069 0.6055 0.05367 0.0
C1123 C 0.28253 0.61736 0.93785 0.0
C1124 C 0.2633 0.63683 0.98833 0.0
H1125 H 0.2859 0.63653 0.03491 0.0
C1126 C 0.22599 0.63652 0.99061 0.0
C1127 C 0.28508 0.63614 1.00466 0.0
C1128 C 0.32525 0.63392 1.0036 0.0
C1129 C 0.20996 0.63551 0.00849 0.0
C1130 C 0.2317 0.63616 0.02482 0.0
C1131 C 0.26902 0.63647 0.02255 0.0
C1132 C 0.21642 0.63519 0.0443 0.0
C1133 C 0.16988 0.63262 0.00949 0.0
C1134 C 0.18858 0.65102 0.04985 0.0
C1135 C 0.17162 0.648 0.06724 0.0
C1136 C 0.18305 0.62976 0.07987 0.0
C1137 C 0.2128 0.6153 0.07501 0.0
C1138 C 0.22911 0.61786 0.05738 0.0
H1139 H 0.15899 0.62448 0.99639 0.0
H1140 H 0.16188 0.62076 0.02144 0.0
H1141 H 0.15735 0.65095 0.01128 0.0
H1142 H 0.17914 0.66528 0.0405 0.0
H1143 H 0.14882 0.65947 0.07061 0.0
H1144 H 0.85753 0.15164 0.44742 0.0
H1145 H 0.82668 0.15541 0.47751 0.0
H1146 H 0.73499 0.1184 0.45442 0.0
H1147 H 0.76578 0.11441 0.42417 0.0
H1148 H 0.75958 0.17585 0.48916 0.0
H1149 H 0.76617 0.07477 0.49941 0.0
H1150 H 0.79207 0.09045 0.48173 0.0
H1151 H 0.74538 0.08469 0.47797 0.0
C1152 C 0.83051 0.1447 0.44857 0.0
C1153 C 0.81428 0.13261 0.43329 0.0
C1154 C 0.81291 0.14685 0.46585 0.0
C1155 C 0.77877 0.13678 0.46839 0.0
C1156 C 0.76157 0.12598 0.4529 0.0
H1157 H 0.63436 0.14862 0.5633 0.0
H1158 H 0.66604 0.15386 0.53365 0.0
C1159 C 0.77908 0.12396 0.43552 0.0
C1160 C 0.76225 0.13643 0.48748 0.0
H1161 H 0.73561 0.09767 0.52258 0.0
C1162 C 0.75427 0.15876 0.49646 0.0
C1163 C 0.75599 0.11415 0.49721 0.0
C1164 C 0.76558 0.08962 0.48872 0.0
C1165 C 0.73952 0.15938 0.51467 0.0
C1166 C 0.73235 0.13708 0.52418 0.0
C1167 C 0.74099 0.11478 0.51533 0.0
C1168 C 0.71477 0.13633 0.54301 0.0
C1169 C 0.73215 0.18394 0.52367 0.0
C1170 C 0.73158 0.12491 0.55837 0.0
C1171 C 0.71349 0.12196 0.57552 0.0
C1172 C 0.67794 0.13004 0.57757 0.0
C1173 C 0.66173 0.14225 0.56233 0.0
C1174 C 0.67988 0.14534 0.54531 0.0
H1175 H 0.74783 0.19886 0.51697 0.0
H1176 H 0.70338 0.18844 0.52209 0.0
H1177 H 0.73849 0.18353 0.53889 0.0
H1178 H 0.75843 0.11769 0.55695 0.0
H1179 H 0.72671 0.11221 0.5868 0.0
H1180 H 0.26545 0.39152 0.58894 0.0
H1181 H 0.23343 0.38674 0.5591 0.0
H1182 H 0.32256 0.34629 0.53638 0.0
H1183 H 0.35456 0.35087 0.56602 0.0
H1184 H 0.26004 0.40539 0.52454 0.0
H1185 H 0.23588 0.30505 0.51986 0.0
H1186 H 0.24592 0.32031 0.54175 0.0
H1187 H 0.2811 0.31336 0.52542 0.0
C1188 C 0.27777 0.38093 0.57781 0.0
C1189 C 0.31258 0.37151 0.57996 0.0
C1190 C 0.25956 0.3784 0.56067 0.0
C1191 C 0.2755 0.36607 0.54547 0.0
C1192 C 0.30944 0.35558 0.54793 0.0
H1193 H 0.22398 0.38774 0.42616 0.0
H1194 H 0.2561 0.38296 0.45606 0.0
C1195 C 0.32775 0.35827 0.56493 0.0
C1196 C 0.25822 0.36598 0.52658 0.0
H1197 H 0.22617 0.32828 0.49205 0.0
C1198 C 0.25254 0.38853 0.51747 0.0
C1199 C 0.24842 0.34399 0.51732 0.0
C1200 C 0.25281 0.31929 0.52661 0.0
C1201 C 0.23767 0.38968 0.49934 0.0
C1202 C 0.22847 0.36767 0.48992 0.0
C1203 C 0.23374 0.34512 0.49912 0.0
C1204 C 0.21093 0.36792 0.47112 0.0
C1205 C 0.2312 0.4145 0.49055 0.0
C1206 C 0.17541 0.36009 0.4694 0.0
C1207 C 0.15712 0.36276 0.4524 0.0
C1208 C 0.17397 0.3731 0.43659 0.0
C1209 C 0.21026 0.37957 0.43799 0.0
C1210 C 0.22853 0.37708 0.45513 0.0
H1211 H 0.2334 0.42963 0.50094 0.0
H1212 H 0.25132 0.41767 0.47937 0.0
H1213 H 0.2043 0.41527 0.48399 0.0
H1214 H 0.1613 0.35286 0.48146 0.0
H1215 H 0.12924 0.35748 0.45184 0.0
H1216 H 0.50524 0.05383 0.15732 0.0
H1217 H 0.56678 0.03898 0.16032 0.0
H1218 H 0.5869 0.05914 0.10267 0.0
H1219 H 0.52653 0.07553 0.10015 0.0
H1220 H 0.59321 0.00253 0.14401 0.0
H1221 H 0.67808 0.08066 0.12381 0.0
H1222 H 0.63111 0.08441 0.12864 0.0
H1223 H 0.64615 0.07516 0.10561 0.0
C1224 C 0.5233 0.05575 0.14554 0.0
C1225 C 0.5114 0.06596 0.12857 0.0
C1226 C 0.55836 0.04721 0.14721 0.0
C1227 C 0.58179 0.04818 0.1318 0.0
C1228 C 0.56998 0.05894 0.11499 0.0
H1229 H 0.74517 0.93808 0.1131 0.0
H1230 H 0.69023 0.96258 0.11402 0.0
C1231 C 0.53531 0.06816 0.11351 0.0
C1232 C 0.61682 0.03539 0.13253 0.0
H1233 H 0.70412 0.04024 0.11935 0.0
C1234 C 0.61758 0.01099 0.13893 0.0
C1235 C 0.64886 0.04639 0.12617 0.0
C1236 C 0.65103 0.07319 0.1209 0.0
C1237 C 0.6491 0.9971 0.13866 0.0
C1238 C 0.6804 0.00743 0.1308 0.0
C1239 C 0.67996 0.03207 0.12496 0.0
C1240 C 0.71404 0.9932 0.1289 0.0
C1241 C 0.64845 0.97169 0.14714 0.0
C1242 C 0.74616 0.00288 0.13585 0.0
C1243 C 0.77772 0.98934 0.13465 0.0
C1244 C 0.77763 0.96568 0.12678 0.0
C1245 C 0.74575 0.95618 0.11942 0.0
C1246 C 0.71434 0.97005 0.12014 0.0
H1247 H 0.62724 0.97008 0.15798 0.0
H1248 H 0.6425 0.95805 0.13601 0.0
H1249 H 0.67446 0.96693 0.15371 0.0
H1250 H 0.7467 0.02071 0.14259 0.0
H1251 H 0.80195 0.99701 0.14053 0.0
H1252 H 0.46608 0.40414 0.11157 0.0
H1253 H 0.40344 0.41703 0.11142 0.0
H1254 H 0.42798 0.47525 0.1503 0.0
H1255 H 0.49059 0.46261 0.15063 0.0
H1256 H 0.35794 0.44848 0.1554 0.0
H1257 H 0.38506 0.48523 0.08376 0.0
H1258 H 0.39618 0.45362 0.08833 0.0
H1259 H 0.42057 0.47758 0.09988 0.0
C1260 C 0.45804 0.41927 0.12051 0.0
C1261 C 0.48346 0.43262 0.13088 0.0
C1262 C 0.42227 0.42663 0.12033 0.0
C1263 C 0.41144 0.44727 0.13062 0.0
C1264 C 0.43603 0.45932 0.14222 0.0
H1265 H 0.25568 0.55981 0.12596 0.0
H1266 H 0.30859 0.53341 0.12626 0.0
C1267 C 0.47179 0.45209 0.14233 0.0
C1268 C 0.37583 0.45822 0.1277 0.0
H1269 H 0.32892 0.49387 0.09692 0.0
C1270 C 0.35125 0.45808 0.14254 0.0
C1271 C 0.36763 0.47094 0.11093 0.0
C1272 C 0.39369 0.47209 0.09479 0.0
C1273 C 0.31872 0.47079 0.14114 0.0
C1274 C 0.31092 0.48391 0.12453 0.0
C1275 C 0.33513 0.48362 0.10956 0.0
C1276 C 0.27896 0.49961 0.12305 0.0
C1277 C 0.29345 0.47099 0.15763 0.0
C1278 C 0.24507 0.48923 0.12067 0.0
C1279 C 0.21477 0.50424 0.12036 0.0
C1280 C 0.21798 0.52985 0.12255 0.0
C1281 C 0.25223 0.54018 0.12434 0.0
C1282 C 0.28247 0.52516 0.1245 0.0
H1283 H 0.30487 0.46156 0.17009 0.0
H1284 H 0.28668 0.49019 0.16152 0.0
H1285 H 0.26822 0.46164 0.15367 0.0
H1286 H 0.24204 0.46951 0.11939 0.0
H1287 H 0.18881 0.49566 0.11899 0.0
H1288 H 0.52802 0.90813 0.40246 0.0
H1289 H 0.59018 0.92184 0.40305 0.0
H1290 H 0.56399 0.98126 0.36552 0.0
H1291 H 0.50178 0.96784 0.36477 0.0
H1292 H 0.63381 0.95437 0.35927 0.0
H1293 H 0.60963 0.98914 0.4318 0.0
H1294 H 0.59796 0.95776 0.42676 0.0
H1295 H 0.57349 0.98225 0.41587 0.0
C1296 C 0.53555 0.92381 0.39399 0.0
C1297 C 0.50978 0.93713 0.38378 0.0
C1298 C 0.57106 0.93161 0.39441 0.0
C1299 C 0.58131 0.9527 0.38455 0.0
C1300 C 0.55636 0.96498 0.37328 0.0
H1301 H 0.73875 0.06367 0.3896 0.0
H1302 H 0.68544 0.0378 0.38992 0.0
C1303 C 0.52083 0.9573 0.37291 0.0
C1304 C 0.61701 0.96347 0.38729 0.0
H1305 H 0.66555 0.99761 0.4183 0.0
C1306 C 0.64108 0.96352 0.37224 0.0
C1307 C 0.62596 0.97555 0.40422 0.0
C1308 C 0.60046 0.97641 0.42061 0.0
C1309 C 0.67387 0.97583 0.37357 0.0
C1310 C 0.68247 0.98831 0.39035 0.0
C1311 C 0.65873 0.98784 0.40553 0.0
C1312 C 0.71473 0.00363 0.3918 0.0
C1313 C 0.69855 0.97628 0.35684 0.0
C1314 C 0.7486 0.99285 0.39327 0.0
C1315 C 0.77914 0.00755 0.39322 0.0
C1316 C 0.77617 0.03324 0.39155 0.0
C1317 C 0.74199 0.04396 0.39078 0.0
C1318 C 0.71152 0.02925 0.39098 0.0
H1319 H 0.68637 0.96762 0.34426 0.0
H1320 H 0.70589 0.99551 0.35336 0.0
H1321 H 0.72356 0.96628 0.36029 0.0
H1322 H 0.75139 0.97306 0.39405 0.0
H1323 H 0.80505 0.99869 0.39382 0.0
H1324 H 0.46588 0.57935 0.41052 0.0
H1325 H 0.4056 0.5624 0.40933 0.0
H1326 H 0.42452 0.53727 0.35274 0.0
H1327 H 0.48582 0.55282 0.35437 0.0
H1328 H 0.34707 0.56647 0.39036 0.0
H1329 H 0.40267 0.47369 0.3772 0.0
H1330 H 0.43067 0.49973 0.38222 0.0
H1331 H 0.41371 0.49482 0.35884 0.0
C1332 C 0.45694 0.57063 0.39769 0.0
C1333 C 0.48056 0.56709 0.38262 0.0
C1334 C 0.42249 0.56088 0.39704 0.0
C1335 C 0.41091 0.54781 0.38118 0.0
C1336 C 0.43336 0.54641 0.36541 0.0
H1337 H 0.19144 0.49669 0.36862 0.0
H1338 H 0.24639 0.52078 0.36814 0.0
C1339 C 0.46818 0.55553 0.36625 0.0
C1340 C 0.37648 0.53435 0.38175 0.0
H1341 H 0.33981 0.47754 0.37587 0.0
C1342 C 0.34547 0.547 0.38725 0.0
C1343 C 0.37454 0.50878 0.37818 0.0
C1344 C 0.40723 0.49341 0.37399 0.0
C1345 C 0.31261 0.53486 0.3892 0.0
C1346 C 0.31036 0.50956 0.3847 0.0
C1347 C 0.34139 0.49695 0.37921 0.0
C1348 C 0.27637 0.49557 0.38566 0.0
C1349 C 0.28109 0.54918 0.39667 0.0
C1350 C 0.2751 0.47293 0.39513 0.0
C1351 C 0.24407 0.45871 0.39484 0.0
C1352 C 0.21353 0.46714 0.38541 0.0
C1353 C 0.2145 0.48999 0.37627 0.0
C1354 C 0.24582 0.50387 0.37612 0.0
H1355 H 0.28991 0.565 0.40536 0.0
H1356 H 0.26547 0.55663 0.38472 0.0
H1357 H 0.2633 0.53744 0.40531 0.0
H1358 H 0.29832 0.46607 0.40255 0.0
H1359 H 0.24394 0.44116 0.402 0.0
H1360 H 0.19043 0.99754 0.88736 0.0
H1361 H 0.24442 0.97221 0.88776 0.0
H1362 H 0.30943 0.03742 0.89002 0.0
H1363 H 0.25569 0.06304 0.88952 0.0
H1364 H 0.30317 0.97784 0.85919 0.0
H1365 H 0.34525 0.98973 0.93349 0.0
H1366 H 0.29965 0.99415 0.92583 0.0
H1367 H 0.3326 0.01729 0.92121 0.0
C1368 C 0.21617 0.00655 0.8882 0.0
C1369 C 0.21876 0.03235 0.88838 0.0
C1370 C 0.24692 0.99202 0.88835 0.0
C1371 C 0.28067 0.00302 0.88898 0.0
C1372 C 0.28345 0.02868 0.88967 0.0
H1373 H 0.49417 0.96525 0.8627 0.0
H1374 H 0.43187 0.97856 0.86209 0.0
C1375 C 0.25275 0.04325 0.88934 0.0
C1376 C 0.31318 0.9878 0.88796 0.0
H1377 H 0.3874 0.97162 0.91274 0.0
C1378 C 0.32147 0.97619 0.87093 0.0
C1379 C 0.3366 0.98561 0.90338 0.0
C1380 C 0.32812 0.99717 0.9221 0.0
C1381 C 0.35357 0.9632 0.86869 0.0
C1382 C 0.37775 0.96194 0.88387 0.0
C1383 C 0.36872 0.97269 0.90113 0.0
C1384 C 0.41371 0.95115 0.88187 0.0
C1385 C 0.36167 0.95121 0.85009 0.0
C1386 C 0.42385 0.93105 0.89294 0.0
C1387 C 0.45942 0.92333 0.8933 0.0
C1388 C 0.48552 0.9359 0.88283 0.0
C1389 C 0.47481 0.95524 0.87099 0.0
C1390 C 0.43918 0.9628 0.87054 0.0
H1391 H 0.33709 0.94856 0.84159 0.0
H1392 H 0.38018 0.96311 0.84202 0.0
H1393 H 0.37488 0.93313 0.85216 0.0
H1394 H 0.40447 0.92195 0.90183 0.0
H1395 H 0.46672 0.9084 0.90258 0.0
H1396 H 0.74589 0.43878 0.89949 0.0
H1397 H 0.69051 0.46277 0.90009 0.0
H1398 H 0.74448 0.52298 0.87278 0.0
H1399 H 0.80027 0.49967 0.87324 0.0
H1400 H 0.70154 0.54056 0.89735 0.0
H1401 H 0.62683 0.47152 0.85631 0.0
H1402 H 0.64309 0.45853 0.87776 0.0
H1403 H 0.67425 0.46908 0.86023 0.0
C1404 C 0.74587 0.45722 0.89378 0.0
C1405 C 0.77717 0.46736 0.88624 0.0
C1406 C 0.71421 0.47082 0.89394 0.0
C1407 C 0.71304 0.49439 0.88593 0.0
C1408 C 0.74463 0.50479 0.87893 0.0
H1409 H 0.50414 0.55461 0.85803 0.0
H1410 H 0.56588 0.54008 0.85554 0.0
C1411 C 0.77649 0.49146 0.87922 0.0
C1412 C 0.67892 0.50816 0.88466 0.0
H1413 H 0.59196 0.50274 0.87115 0.0
C1414 C 0.67765 0.53238 0.89144 0.0
C1415 C 0.64798 0.49781 0.87645 0.0
C1416 C 0.64819 0.47293 0.86708 0.0
C1417 C 0.64605 0.54625 0.89074 0.0
C1418 C 0.61445 0.53519 0.88385 0.0
C1419 C 0.61602 0.51121 0.87662 0.0
C1420 C 0.5791 0.54755 0.8846 0.0
C1421 C 0.64723 0.57269 0.89708 0.0
C1422 C 0.56619 0.55716 0.9016 0.0
C1423 C 0.53135 0.56617 0.90285 0.0
C1424 C 0.50842 0.56491 0.8873 0.0
C1425 C 0.52141 0.55576 0.8702 0.0
C1426 C 0.55659 0.54741 0.86881 0.0
H1427 H 0.67419 0.58069 0.89485 0.0
H1428 H 0.62738 0.58415 0.88949 0.0
H1429 H 0.64146 0.5736 0.91233 0.0
H1430 H 0.58244 0.55671 0.91416 0.0
H1431 H 0.52172 0.57276 0.91627 0.0
H1432 H 0.24508 0.94341 0.6107 0.0
H1433 H 0.29977 0.9679 0.61191 0.0
H1434 H 0.24616 0.02172 0.6464 0.0
H1435 H 0.1909 0.99799 0.64433 0.0
H1436 H 0.28806 0.04412 0.62319 0.0
H1437 H 0.36506 0.96874 0.65574 0.0
H1438 H 0.34774 0.95944 0.63342 0.0
H1439 H 0.31745 0.96693 0.65227 0.0
C1440 C 0.24495 0.96059 0.61838 0.0
C1441 C 0.21391 0.96875 0.62752 0.0
C1442 C 0.27626 0.97445 0.61922 0.0
C1443 C 0.27741 0.99624 0.62977 0.0
C1444 C 0.24602 0.00487 0.63832 0.0
H1445 H 0.49011 0.0501 0.65754 0.0
H1446 H 0.42815 0.03651 0.66103 0.0
C1447 C 0.21445 0.99132 0.63709 0.0
C1448 C 0.31144 0.00983 0.63209 0.0
H1449 H 0.39926 0.00202 0.6432 0.0
C1450 C 0.31232 0.035 0.62778 0.0
C1451 C 0.34286 0.99817 0.63867 0.0
C1452 C 0.34315 0.97192 0.6455 0.0
C1453 C 0.3441 0.04855 0.62911 0.0
C1454 C 0.37615 0.03635 0.63413 0.0
C1455 C 0.37488 0.01142 0.63913 0.0
C1456 C 0.41165 0.04844 0.63333 0.0
C1457 C 0.3427 0.0758 0.62533 0.0
C1458 C 0.42283 0.0603 0.61685 0.0
C1459 C 0.45787 0.0687 0.61508 0.0
C1460 C 0.48273 0.06465 0.62951 0.0
C1461 C 0.47142 0.05341 0.6462 0.0
C1462 C 0.43608 0.04561 0.64817 0.0
H1463 H 0.31618 0.08353 0.62914 0.0
H1464 H 0.3636 0.08586 0.63326 0.0
H1465 H 0.34671 0.07909 0.61011 0.0
H1466 H 0.40506 0.06198 0.60493 0.0
H1467 H 0.46606 0.07696 0.60194 0.0
H1468 H 0.52785 0.41271 0.6067 0.0
H1469 H 0.58993 0.42651 0.60671 0.0
H1470 H 0.56352 0.48308 0.64674 0.0
H1471 H 0.50136 0.46952 0.64687 0.0
H1472 H 0.60725 0.47612 0.59582 0.0
H1473 H 0.65843 0.45242 0.66669 0.0
H1474 H 0.6203 0.43732 0.65626 0.0
H1475 H 0.61551 0.4673 0.66649 0.0
C1476 C 0.53532 0.42774 0.61585 0.0
C1477 C 0.50953 0.44014 0.62669 0.0
C1478 C 0.57081 0.4356 0.61579 0.0
C1479 C 0.58119 0.4557 0.62677 0.0
C1480 C 0.55603 0.46732 0.63835 0.0
H1481 H 0.73948 0.56676 0.6191 0.0
H1482 H 0.68583 0.54121 0.61813 0.0
C1483 C 0.52048 0.45961 0.63832 0.0
C1484 C 0.61721 0.46631 0.62463 0.0
H1485 H 0.69238 0.4815 0.64902 0.0
C1486 C 0.62611 0.47702 0.60735 0.0
C1487 C 0.64167 0.4673 0.6397 0.0
C1488 C 0.63374 0.4553 0.65831 0.0
C1489 C 0.65838 0.48967 0.60499 0.0
C1490 C 0.68208 0.49163 0.62031 0.0
C1491 C 0.6739 0.48003 0.63735 0.0
C1492 C 0.71462 0.50677 0.61926 0.0
C1493 C 0.66672 0.50121 0.58626 0.0
C1494 C 0.7484 0.49572 0.62006 0.0
C1495 C 0.77912 0.51023 0.62048 0.0
C1496 C 0.77645 0.53603 0.62042 0.0
C1497 C 0.74246 0.54696 0.6192 0.0
C1498 C 0.71181 0.53243 0.61859 0.0
H1499 H 0.64953 0.49376 0.57489 0.0
H1500 H 0.66214 0.52132 0.58715 0.0
H1501 H 0.69517 0.49819 0.58247 0.0
H1502 H 0.75093 0.47591 0.62065 0.0
H1503 H 0.80486 0.50121 0.62152 0.0
H1504 H 0.299 0.50089 0.61283 0.0
H1505 H 0.24588 0.52701 0.61465 0.0
H1506 H 0.18821 0.46861 0.64195 0.0
H1507 H 0.24104 0.4423 0.64028 0.0
H1508 H 0.17475 0.51742 0.60048 0.0
H1509 H 0.17838 0.52887 0.67784 0.0
H1510 H 0.21655 0.51857 0.66442 0.0
H1511 H 0.1811 0.49757 0.66994 0.0
C1512 C 0.27498 0.4935 0.61914 0.0
C1513 C 0.27439 0.4695 0.62651 0.0
C1514 C 0.24472 0.5085 0.62019 0.0
C1515 C 0.2135 0.49986 0.62877 0.0
C1516 C 0.21238 0.47573 0.63561 0.0
H1517 H -0.00167 0.53616 0.64825 0.0
H1518 H 0.0601 0.5222 0.64934 0.0
C1519 C 0.24252 0.46066 0.63448 0.0
C1520 C 0.18177 0.51589 0.6304 0.0
H1521 H 0.12475 0.54124 0.66238 0.0
C1522 C 0.16401 0.52298 0.61397 0.0
C1523 C 0.16813 0.52314 0.64805 0.0
C1524 C 0.18715 0.51686 0.66609 0.0
C1525 C 0.13167 0.53602 0.61473 0.0
C1526 C 0.11731 0.54255 0.63244 0.0
C1527 C 0.1359 0.53627 0.64885 0.0
C1528 C 0.0812 0.5534 0.6342 0.0
C1529 C 0.11221 0.54149 0.59665 0.0
C1530 C 0.07285 0.57619 0.62611 0.0
C1531 C 0.03736 0.58425 0.62536 0.0
C1532 C 0.00977 0.56962 0.63276 0.0
C1533 C 0.01878 0.54776 0.64218 0.0
C1534 C 0.05414 0.53974 0.64288 0.0
H1535 H 0.12358 0.53117 0.58459 0.0
H1536 H 0.08343 0.53684 0.59791 0.0
H1537 H 0.11432 0.56139 0.5935 0.0
H1538 H 0.09355 0.58725 0.6197 0.0
H1539 H 0.03143 0.60127 0.61813 0.0
H1540 H 0.68703 0.99709 0.62086 0.0
H1541 H 0.74038 0.97115 0.62179 0.0
H1542 H 0.80656 0.03548 0.62717 0.0
H1543 H 0.75345 0.0617 0.62635 0.0
H1544 H 0.82762 0.9955 0.59891 0.0
H1545 H 0.8028 0.96433 0.67227 0.0
H1546 H 0.76627 0.96355 0.65581 0.0
H1547 H 0.7841 0.99253 0.66317 0.0
C1548 C 0.71292 0.00581 0.62203 0.0
C1549 C 0.71593 0.03152 0.62364 0.0
C1550 C 0.7433 0.99092 0.62265 0.0
C1551 C 0.77715 0.00147 0.62476 0.0
C1552 C 0.78049 0.02708 0.62563 0.0
H1553 H 0.98848 0.96179 0.65271 0.0
H1554 H 0.92638 0.97561 0.65238 0.0
C1555 C 0.75013 0.042 0.62516 0.0
C1556 C 0.80918 0.98586 0.62651 0.0
H1557 H 0.85522 0.95005 0.65755 0.0
C1558 C 0.83355 0.9853 0.6116 0.0
C1559 C 0.81664 0.97277 0.64318 0.0
C1560 C 0.79128 0.97328 0.65963 0.0
C1561 C 0.86575 0.97226 0.61307 0.0
C1562 C 0.8735 0.95946 0.62985 0.0
C1563 C 0.84886 0.9597 0.64466 0.0
C1564 C 0.9087 0.94787 0.63278 0.0
C1565 C 0.89193 0.97303 0.59696 0.0
C1566 C 0.91869 0.92696 0.62255 0.0
C1567 C 0.95417 0.9189 0.62276 0.0
C1568 C 0.98012 0.93183 0.63308 0.0
C1569 C 0.96924 0.95158 0.64447 0.0
C1570 C 0.93377 0.95949 0.64434 0.0
H1571 H 0.88376 0.98631 0.58592 0.0
H1572 H 0.91894 0.97812 0.6021 0.0
H1573 H 0.89387 0.95453 0.5905 0.0
H1574 H 0.89949 0.91769 0.61367 0.0
H1575 H 0.96162 0.90361 0.61385 0.0
H1576 H 0.24146 0.56242 0.8746 0.0
H1577 H 0.18916 0.53585 0.87261 0.0
H1578 H 0.24909 0.47635 0.89724 0.0
H1579 H 0.30169 0.50276 0.89945 0.0
H1580 H 0.18752 0.48895 0.85249 0.0
H1581 H 0.15502 0.48099 0.92858 0.0
H1582 H 0.18258 0.50542 0.91945 0.0
H1583 H 0.2004 0.47495 0.92162 0.0
C1584 C 0.24352 0.54379 0.87982 0.0
C1585 C 0.27584 0.53474 0.88718 0.0
C1586 C 0.21364 0.52863 0.87858 0.0
C1587 C 0.21541 0.50424 0.88479 0.0
C1588 C 0.24724 0.49523 0.89253 0.0
H1589 H 0.03285 0.40529 0.8924 0.0
H1590 H 0.09525 0.41819 0.89059 0.0
C1591 C 0.27723 0.51037 0.89376 0.0
C1592 C 0.18399 0.4882 0.88265 0.0
H1593 H 0.11723 0.46071 0.90737 0.0
C1594 C 0.17226 0.48254 0.86446 0.0
C1595 C 0.16458 0.4797 0.89833 0.0
C1596 C 0.176 0.48562 0.91813 0.0
C1597 C 0.14081 0.46916 0.86152 0.0
C1598 C 0.12039 0.46172 0.87719 0.0
C1599 C 0.13303 0.46642 0.89539 0.0
C1600 C 0.08403 0.45154 0.87518 0.0
C1601 C 0.12951 0.46339 0.84169 0.0
C1602 C 0.05726 0.46574 0.86669 0.0
C1603 C 0.02162 0.45847 0.86767 0.0
C1604 C 0.01205 0.43697 0.87737 0.0
C1605 C 0.03922 0.42201 0.88489 0.0
C1606 C 0.07491 0.42933 0.88388 0.0
H1607 H 0.15292 0.46256 0.83212 0.0
H1608 H 0.11495 0.44567 0.84092 0.0
H1609 H 0.11154 0.47816 0.83655 0.0
H1610 H 0.06363 0.48319 0.86022 0.0
H1611 H 0.00146 0.4704 0.86167 0.0
H1612 H 0.99386 0.03614 0.86069 0.0
H1613 H 0.93168 0.02269 0.86003 0.0
H1614 H 0.90349 0.07965 0.8994 0.0
H1615 H 0.96558 0.09336 0.90019 0.0
H1616 H 0.88822 0.02967 0.91071 0.0
H1617 H 0.83566 0.05177 0.83978 0.0
H1618 H 0.87927 0.03785 0.84012 0.0
H1619 H 0.87304 0.06782 0.85014 0.0
C1620 C 0.97433 0.04623 0.86887 0.0
C1621 C 0.98478 0.06565 0.88066 0.0
C1622 C 0.93878 0.03859 0.86838 0.0
C1623 C 0.91317 0.05025 0.87964 0.0
C1624 C 0.923 0.07054 0.89057 0.0
H1625 H 0.69112 0.00304 0.88838 0.0
H1626 H 0.74496 0.02839 0.88808 0.0
C1627 C 0.95849 0.07833 0.89096 0.0
C1628 C 0.87754 0.03916 0.88189 0.0
H1629 H 0.80265 0.02258 0.85782 0.0
C1630 C 0.86924 0.0284 0.89924 0.0
C1631 C 0.85303 0.03761 0.86689 0.0
C1632 C 0.86044 0.04954 0.8482 0.0
C1633 C 0.83749 0.01524 0.90176 0.0
C1634 C 0.81368 0.01285 0.88653 0.0
C1635 C 0.82126 0.0244 0.8694 0.0
C1636 C 0.7814 0.99757 0.8879 0.0
C1637 C 0.82977 0.00361 0.92053 0.0
C1638 C 0.78439 0.97191 0.88806 0.0
C1639 C 0.75376 0.95732 0.88813 0.0
C1640 C 0.71968 0.96823 0.88812 0.0
C1641 C 0.71694 0.99403 0.88848 0.0
C1642 C 0.74759 0.00857 0.88823 0.0
H1643 H 0.84765 0.01073 0.93172 0.0
H1644 H 0.80157 0.00696 0.92468 0.0
H1645 H 0.8337 0.98345 0.91946 0.0
H1646 H 0.81043 0.96319 0.8877 0.0
H1647 H 0.7568 0.93753 0.88788 0.0
H1648 H 0.95987 0.4063 0.40096 0.0
H1649 H 0.89771 0.42019 0.39981 0.0
H1650 H 0.92612 0.47523 0.35899 0.0
H1651 H 0.98822 0.46155 0.36001 0.0
H1652 H 0.88129 0.47004 0.40986 0.0
H1653 H 0.83085 0.44613 0.33894 0.0
H1654 H 0.86842 0.43065 0.34967 0.0
H1655 H 0.87416 0.46035 0.33911 0.0
C1656 C 0.95274 0.42088 0.39133 0.0
C1657 C 0.97905 0.43296 0.38068 0.0
C1658 C 0.91723 0.42883 0.39075 0.0
C1659 C 0.90741 0.44865 0.37928 0.0
C1660 C 0.93312 0.45969 0.36775 0.0
H1661 H 0.75177 0.56284 0.3869 0.0
H1662 H 0.80505 0.53673 0.38704 0.0
C1663 C 0.96864 0.45192 0.36843 0.0
C1664 C 0.87166 0.45992 0.38107 0.0
H1665 H 0.79792 0.47659 0.35596 0.0
C1666 C 0.86279 0.47118 0.39817 0.0
C1667 C 0.84769 0.4613 0.3658 0.0
C1668 C 0.85552 0.44879 0.34737 0.0
C1669 C 0.83111 0.48469 0.40017 0.0
C1670 C 0.80794 0.48701 0.38464 0.0
C1671 C 0.81603 0.47491 0.36778 0.0
C1672 C 0.7757 0.50261 0.38545 0.0
C1673 C 0.8228 0.49667 0.41875 0.0
C1674 C 0.74173 0.49195 0.38451 0.0
C1675 C 0.71125 0.50676 0.38453 0.0
C1676 C 0.71426 0.53253 0.38523 0.0
C1677 C 0.74847 0.5431 0.38634 0.0
C1678 C 0.77893 0.52823 0.38648 0.0
H1679 H 0.83931 0.48895 0.4303 0.0
H1680 H 0.82836 0.51664 0.41776 0.0
H1681 H 0.79412 0.49439 0.42235 0.0
H1682 H 0.73884 0.47219 0.38365 0.0
H1683 H 0.68536 0.49798 0.38356 0.0
H1684 H 0.23787 0.93687 0.38304 0.0
H1685 H 0.18383 0.96224 0.38256 0.0
H1686 H 0.24802 0.02768 0.38662 0.0
H1687 H 0.30223 0.00264 0.38718 0.0
H1688 H 0.16324 0.0016 0.41109 0.0
H1689 H 0.18221 0.03399 0.33758 0.0
H1690 H 0.20259 0.0061 0.34623 0.0
H1691 H 0.21988 0.03537 0.35328 0.0
C1692 C 0.24055 0.95664 0.38394 0.0
C1693 C 0.27442 0.9677 0.38506 0.0
C1694 C 0.20967 0.97107 0.38367 0.0
C1695 C 0.21219 0.99674 0.38434 0.0
C1696 C 0.24574 0.00786 0.3859 0.0
H1697 H 0.02986 0.09507 0.40001 0.0
H1698 H 0.09152 0.08004 0.39884 0.0
C1699 C 0.27662 0.99348 0.38631 0.0
C1700 C 0.17958 0.01188 0.38325 0.0
H1701 H 0.13126 0.04838 0.35368 0.0
C1702 C 0.15631 0.01203 0.39864 0.0
C1703 C 0.17084 0.02529 0.36691 0.0
C1704 C 0.19498 0.02522 0.34995 0.0
C1705 C 0.12405 0.02509 0.39802 0.0
C1706 C 0.1151 0.03834 0.38161 0.0
C1707 C 0.13855 0.03839 0.36628 0.0
C1708 C 0.07994 0.0503 0.37968 0.0
C1709 C 0.09913 0.02401 0.41466 0.0
C1710 C 0.05365 0.03916 0.36861 0.0
C1711 C 0.01847 0.04759 0.36927 0.0
C1712 C 0.00911 0.0674 0.38096 0.0
C1713 C 0.03618 0.07976 0.39089 0.0
C1714 C 0.07137 0.07116 0.39031 0.0
H1715 H 0.10803 0.01042 0.42531 0.0
H1716 H 0.09787 0.04235 0.42142 0.0
H1717 H 0.0717 0.01917 0.41003 0.0
H1718 H 0.05994 0.02307 0.36028 0.0
H1719 H -0.00168 0.03783 0.36131 0.0
H1720 H 0.99343 0.53411 0.14711 0.0
H1721 H 0.9308 0.52179 0.14782 0.0
H1722 H 0.90329 0.58265 0.11191 0.0
H1723 H 0.966 0.59518 0.11097 0.0
H1724 H 0.86381 0.54784 0.15681 0.0
H1725 H 0.87706 0.5184 0.08219 0.0
H1726 H 0.91541 0.52462 0.09678 0.0
H1727 H 0.88911 0.54953 0.08777 0.0
C1728 C 0.97406 0.54517 0.1396 0.0
C1729 C 0.98486 0.56541 0.12872 0.0
C1730 C 0.93826 0.53813 0.14008 0.0
C1731 C 0.91271 0.55112 0.12968 0.0
C1732 C 0.92284 0.57227 0.11984 0.0
H1733 H 0.68752 0.50591 0.1282 0.0
H1734 H 0.74097 0.53172 0.12797 0.0
C1735 C 0.95867 0.57942 0.11939 0.0
C1736 C 0.87635 0.541 0.12781 0.0
H1737 H 0.82293 0.50955 0.09736 0.0
C1738 C 0.85453 0.53979 0.14377 0.0
C1739 C 0.86475 0.5303 0.11078 0.0
C1740 C 0.88776 0.53055 0.09338 0.0
C1741 C 0.82153 0.52763 0.14324 0.0
C1742 C 0.81031 0.51652 0.12632 0.0
C1743 C 0.83172 0.51825 0.11025 0.0
C1744 C 0.77783 0.50129 0.12544 0.0
C1745 C 0.79956 0.52578 0.16093 0.0
C1746 C 0.78106 0.47575 0.12362 0.0
C1747 C 0.7507 0.46093 0.12377 0.0
C1748 C 0.71653 0.47145 0.12559 0.0
C1749 C 0.71341 0.49719 0.12678 0.0
C1750 C 0.74386 0.51198 0.12675 0.0
H1751 H 0.81416 0.53273 0.17342 0.0
H1752 H 0.7747 0.5367 0.15927 0.0
H1753 H 0.7917 0.5064 0.16351 0.0
H1754 H 0.80717 0.46725 0.12251 0.0
H1755 H 0.75408 0.44121 0.12271 0.0
H1756 H 0.24081 0.06657 0.12709 0.0
H1757 H 0.18693 0.0412 0.1272 0.0
H1758 H 0.25136 0.97594 0.12145 0.0
H1759 H 0.30546 0.00099 0.12128 0.0
H1760 H 0.16507 0.00297 0.09843 0.0
H1761 H 0.18795 0.96815 0.171 0.0
H1762 H 0.20822 0.99611 0.16249 0.0
H1763 H 0.22471 0.9669 0.15471 0.0
C1764 C 0.24358 0.04684 0.12571 0.0
C1765 C 0.27749 0.03582 0.1243 0.0
C1766 C 0.21279 0.03242 0.12576 0.0
C1767 C 0.21543 0.00679 0.12455 0.0
C1768 C 0.249 0.99572 0.12258 0.0
H1769 H 0.03266 0.90921 0.11016 0.0
H1770 H 0.09408 0.92448 0.11038 0.0
C1771 C 0.27981 0.01011 0.1224 0.0
C1772 C 0.18296 0.99165 0.12578 0.0
H1773 H 0.13613 0.95445 0.15541 0.0
C1774 C 0.1588 0.99216 0.11077 0.0
C1775 C 0.17508 0.97776 0.142 0.0
C1776 C 0.20015 0.97717 0.15858 0.0
C1777 C 0.12648 0.97927 0.11167 0.0
C1778 C 0.11843 0.96555 0.12797 0.0
C1779 C 0.14276 0.96483 0.1429 0.0
C1780 C 0.08343 0.95361 0.13023 0.0
C1781 C 0.10059 0.98103 0.09548 0.0
C1782 C 0.0578 0.96435 0.14198 0.0
C1783 C 0.02272 0.95578 0.14188 0.0
C1784 C 0.01282 0.93624 0.13006 0.0
C1785 C 0.03934 0.92433 0.11938 0.0
C1786 C 0.0744 0.93305 0.11942 0.0
H1787 H 0.10893 0.99493 0.08495 0.0
H1788 H 0.0988 0.96293 0.08838 0.0
H1789 H 0.07347 0.98584 0.10065 0.0
H1790 H 0.0645 0.98021 0.15047 0.0
H1791 H 0.00304 0.96521 0.1504 0.0
H1792 H 0.37439 0.18053 0.15887 0.0
H1793 H 0.40312 0.21854 0.17 0.0
H1794 H 0.50374 0.19378 0.14725 0.0
H1795 H 0.47597 0.1561 0.13674 0.0
H1796 H 0.51313 0.2179 0.18043 0.0
H1797 H 0.42604 0.27174 0.13197 0.0
H1798 H 0.40447 0.25437 0.15015 0.0
H1799 H 0.42714 0.23866 0.13144 0.0
C1800 C 0.40274 0.18309 0.15657 0.0
C1801 C 0.42266 0.16551 0.14655 0.0
C1802 C 0.41909 0.20485 0.16284 0.0
C1803 C 0.4555 0.20923 0.15915 0.0
C1804 C 0.47566 0.19094 0.15025 0.0
H1805 H 0.58066 0.31812 0.11641 0.0
H1806 H 0.54565 0.28305 0.12699 0.0
C1807 C 0.45953 0.16941 0.14406 0.0
C1808 C 0.47267 0.23346 0.16251 0.0
H1809 H 0.47674 0.29105 0.14371 0.0
C1810 C 0.50473 0.23416 0.17282 0.0
C1811 C 0.46175 0.25463 0.15249 0.0
C1812 C 0.42812 0.25497 0.14079 0.0
C1813 C 0.52747 0.2547 0.17215 0.0
C1814 C 0.51761 0.27512 0.16109 0.0
C1815 C 0.48422 0.27524 0.15211 0.0
C1816 C 0.54338 0.2947 0.156 0.0
C1817 C 0.56307 0.25375 0.18203 0.0
C1818 C 0.55507 0.31241 0.16898 0.0
C1819 C 0.57576 0.33245 0.16294 0.0
C1820 C 0.58449 0.33501 0.14385 0.0
C1821 C 0.57433 0.31654 0.1312 0.0
C1822 C 0.55416 0.29658 0.13721 0.0
H1823 H 0.56773 0.23583 0.18908 0.0
H1824 H 0.58499 0.25703 0.17183 0.0
H1825 H 0.56429 0.2685 0.19275 0.0
H1826 H 0.54679 0.31139 0.18352 0.0
H1827 H 0.58282 0.34668 0.17289 0.0
H1828 H 0.55445 0.67847 0.39541 0.0
H1829 H 0.52062 0.71313 0.38339 0.0
H1830 H 0.55546 0.6963 0.32716 0.0
H1831 H 0.59021 0.66108 0.33931 0.0
H1832 H 0.5553 0.74744 0.33583 0.0
H1833 H 0.42625 0.70582 0.35479 0.0
H1834 H 0.45635 0.70461 0.37434 0.0
H1835 H 0.46699 0.68809 0.35314 0.0
C1836 C 0.5552 0.68212 0.38047 0.0
C1837 C 0.57466 0.66682 0.36827 0.0
C1838 C 0.53558 0.70188 0.3736 0.0
C1839 C 0.53448 0.7068 0.35432 0.0
C1840 C 0.55547 0.69252 0.34208 0.0
H1841 H 0.37508 0.82546 0.34789 0.0
H1842 H 0.40478 0.78828 0.33571 0.0
C1843 C 0.57549 0.67257 0.34902 0.0
C1844 C 0.51132 0.72716 0.34759 0.0
H1845 H 0.42816 0.75075 0.35548 0.0
C1846 C 0.52722 0.74797 0.33958 0.0
C1847 C 0.47436 0.72768 0.35183 0.0
C1848 C 0.45493 0.70521 0.35879 0.0
C1849 C 0.50809 0.7701 0.33779 0.0
C1850 C 0.47259 0.77156 0.34469 0.0
C1851 C 0.45555 0.74994 0.35055 0.0
C1852 C 0.45542 0.79551 0.34935 0.0
C1853 C 0.52674 0.79199 0.32934 0.0
C1854 C 0.4738 0.81188 0.36103 0.0
C1855 C 0.45708 0.83284 0.36793 0.0
C1856 C 0.42112 0.83802 0.36363 0.0
C1857 C 0.40275 0.82204 0.35148 0.0
C1858 C 0.41973 0.80082 0.3445 0.0
H1859 H 0.54486 0.78612 0.31783 0.0
H1860 H 0.50743 0.80565 0.32373 0.0
H1861 H 0.54347 0.80095 0.34022 0.0
H1862 H 0.50082 0.80794 0.36558 0.0
H1863 H 0.47235 0.8447 0.37712 0.0
H1864 H 0.62802 0.81802 0.85924 0.0
H1865 H 0.599 0.77954 0.8494 0.0
H1866 H 0.49563 0.81347 0.85638 0.0
H1867 H 0.52417 0.85153 0.86601 0.0
H1868 H 0.55492 0.75503 0.87396 0.0
H1869 H 0.47989 0.77418 0.80884 0.0
H1870 H 0.51606 0.79347 0.81685 0.0
H1871 H 0.47183 0.79709 0.82643 0.0
C1872 C 0.59918 0.81741 0.85804 0.0
C1873 C 0.57833 0.83765 0.8635 0.0
C1874 C 0.58262 0.79546 0.85247 0.0
C1875 C 0.5451 0.7937 0.85194 0.0
C1876 C 0.52453 0.81447 0.85625 0.0
H1877 H 0.37841 0.68892 0.86827 0.0
H1878 H 0.41387 0.7251 0.85925 0.0
C1879 C 0.54093 0.83617 0.86195 0.0
C1880 C 0.52704 0.76956 0.85 0.0
H1881 H 0.45759 0.74071 0.82797 0.0
C1882 C 0.53423 0.75164 0.86362 0.0
C1883 C 0.49964 0.76533 0.83669 0.0
C1884 C 0.49163 0.78348 0.82127 0.0
C1885 C 0.51362 0.73022 0.86495 0.0
C1886 C 0.48553 0.72627 0.85197 0.0
C1887 C 0.47904 0.74379 0.83792 0.0
C1888 C 0.46207 0.7044 0.85342 0.0
C1889 C 0.52097 0.71263 0.88088 0.0
C1890 C 0.47684 0.68079 0.85214 0.0
C1891 C 0.45688 0.66034 0.85748 0.0
C1892 C 0.42151 0.66306 0.86376 0.0
C1893 C 0.40553 0.68639 0.86332 0.0
C1894 C 0.4258 0.70701 0.85824 0.0
H1895 H 0.53752 0.72117 0.89206 0.0
H1896 H 0.49567 0.70607 0.88727 0.0
H1897 H 0.53572 0.69645 0.87542 0.0
H1898 H 0.50451 0.67832 0.84809 0.0
H1899 H 0.46971 0.64248 0.85764 0.0
H1900 H 0.47521 0.35195 0.64247 0.0
H1901 H 0.5034 0.31335 0.65122 0.0
H1902 H 0.40023 0.28275 0.66449 0.0
H1903 H 0.37145 0.32166 0.65535 0.0
H1904 H 0.50537 0.28244 0.68265 0.0
H1905 H 0.43713 0.23911 0.62161 0.0
H1906 H 0.43735 0.27189 0.62519 0.0
H1907 H 0.40861 0.25271 0.63904 0.0
C1908 C 0.45842 0.33716 0.64751 0.0
C1909 C 0.42099 0.33971 0.64788 0.0
C1910 C 0.47467 0.31511 0.65262 0.0
C1911 C 0.45394 0.295 0.65817 0.0
C1912 C 0.4167 0.29796 0.65994 0.0
H1913 H 0.52383 0.14317 0.65276 0.0
H1914 H 0.49082 0.17982 0.66224 0.0
C1915 C 0.40029 0.32022 0.65485 0.0
C1916 C 0.47144 0.2706 0.65998 0.0
H1917 H 0.47922 0.21542 0.63762 0.0
C1918 C 0.49934 0.2676 0.67301 0.0
C1919 C 0.46385 0.25137 0.64724 0.0
C1920 C 0.43533 0.25384 0.63236 0.0
C1921 C 0.52007 0.246 0.67347 0.0
C1922 C 0.51309 0.2271 0.66036 0.0
C1923 C 0.48455 0.22987 0.64772 0.0
C1924 C 0.53549 0.20458 0.65876 0.0
C1925 C 0.54926 0.24368 0.68795 0.0
C1926 C 0.57214 0.20605 0.65438 0.0
C1927 C 0.59132 0.18489 0.64923 0.0
C1928 C 0.57387 0.16214 0.6481 0.0
C1929 C 0.53788 0.16053 0.65356 0.0
C1930 C 0.51897 0.18147 0.65893 0.0
H1931 H 0.54406 0.25568 0.70027 0.0
H1932 H 0.55207 0.22442 0.69285 0.0
H1933 H 0.575 0.24944 0.68162 0.0
H1934 H 0.58534 0.2237 0.65374 0.0
H1935 H 0.61888 0.18663 0.64479 0.0
H1936 H 0.08691 0.84172 0.67299 0.0
H1937 H 0.05601 0.80442 0.68413 0.0
H1938 H 0.04386 0.78011 0.62689 0.0
H1939 H 0.07392 0.81705 0.61583 0.0
H1940 H 0.98269 0.79128 0.67175 0.0
H1941 H 0.08184 0.71873 0.65576 0.0
H1942 H 0.0941 0.75053 0.65915 0.0
H1943 H 0.07641 0.74042 0.63699 0.0
C1944 C 0.07839 0.82805 0.66291 0.0
C1945 C 0.08285 0.83216 0.64357 0.0
C1946 C 0.06059 0.8069 0.66924 0.0
C1947 C 0.0479 0.78945 0.65632 0.0
C1948 C 0.05381 0.79316 0.63711 0.0
H1949 H 0.8815 0.69376 0.63356 0.0
H1950 H 0.91669 0.72936 0.64336 0.0
C1951 C 0.07093 0.8143 0.63081 0.0
C1952 C 0.02586 0.76822 0.66226 0.0
H1953 H 0.02008 0.70625 0.65622 0.0
C1954 C 0.99108 0.77258 0.66886 0.0
C1955 C 0.03693 0.74385 0.65867 0.0
C1956 C 0.0745 0.73802 0.65242 0.0
C1957 C 0.96622 0.75335 0.67055 0.0
C1958 C 0.97637 0.72926 0.66527 0.0
C1959 C 0.01204 0.72471 0.66013 0.0
C1960 C 0.95001 0.70906 0.66282 0.0
C1961 C 0.92908 0.75917 0.67744 0.0
C1962 C 0.95645 0.6858 0.67069 0.0
C1963 C 0.93637 0.66545 0.66499 0.0
C1964 C 0.90941 0.66807 0.65146 0.0
C1965 C 0.90144 0.6915 0.64446 0.0
C1966 C 0.92159 0.71184 0.65008 0.0
H1967 H 0.92933 0.77512 0.68717 0.0
H1968 H 0.91199 0.76413 0.66529 0.0
H1969 H 0.91691 0.74322 0.68472 0.0
H1970 H 0.97841 0.68312 0.68038 0.0
H1971 H 0.94355 0.6474 0.67018 0.0
H1972 H 0.87805 0.31265 0.86716 0.0
H1973 H 0.91338 0.27613 0.85854 0.0
H1974 H 0.00342 0.32247 0.84561 0.0
H1975 H 0.96868 0.35866 0.85465 0.0
H1976 H 0.95714 0.25993 0.82663 0.0
H1977 H 0.03691 0.28068 0.89055 0.0
H1978 H 0.99467 0.29538 0.88575 0.0
H1979 H 0.03436 0.30511 0.87368 0.0
C1980 C 0.90495 0.31499 0.86186 0.0
C1981 C 0.92078 0.33833 0.86157 0.0
C1982 C 0.92516 0.29418 0.85702 0.0
C1983 C 0.96124 0.29661 0.8518 0.0
C1984 C 0.97586 0.32016 0.84989 0.0
H1985 H 0.12798 0.18317 0.85885 0.0
H1986 H 0.09882 0.22164 0.84891 0.0
C1987 C 0.95593 0.3408 0.85493 0.0
C1988 C 0.98479 0.2747 0.85058 0.0
H1989 H 0.05428 0.24635 0.8729 0.0
C1990 C 0.97854 0.257 0.83665 0.0
C1991 C 0.01286 0.27098 0.86361 0.0
C1992 C 0.02005 0.2889 0.87935 0.0
C1993 C -0.00063 0.2355 0.83558 0.0
C1994 C 0.0267 0.23146 0.84898 0.0
C1995 C 0.03363 0.24956 0.8625 0.0
C1996 C 0.04499 0.20737 0.85108 0.0
C1997 C 0.9917 0.21722 0.82021 0.0
C1998 C 0.02453 0.18654 0.85522 0.0
C1999 C 0.04101 0.16484 0.86095 0.0
C2000 C 0.07838 0.16341 0.86273 0.0
C2001 C 0.09917 0.18373 0.85747 0.0
C2002 C 0.08252 0.20568 0.85186 0.0
H2003 H 0.98023 0.22642 0.80766 0.0
H2004 H 0.01621 0.20712 0.81598 0.0
H2005 H 0.97177 0.20371 0.82531 0.0
H2006 H 0.99562 0.18745 0.85519 0.0
H2007 H 0.02429 0.14943 0.86485 0.0
H2008 H 0.8771 0.19076 0.37493 0.0
H2009 H 0.91215 0.22665 0.36558 0.0
H2010 H 0.98362 0.1797 0.33432 0.0
H2011 H 0.94907 0.14377 0.34423 0.0
H2012 H 0.01905 0.20513 0.35913 0.0
H2013 H 0.93171 0.27016 0.32143 0.0
H2014 H 0.91102 0.26042 0.34285 0.0
H2015 H 0.91986 0.23827 0.32461 0.0
C2016 C 0.89928 0.18833 0.36533 0.0
C2017 C 0.9101 0.16468 0.35997 0.0
C2018 C 0.91936 0.20885 0.35996 0.0
C2019 C 0.95043 0.20601 0.34903 0.0
C2020 C 0.95968 0.18243 0.34262 0.0
H2021 H 0.08821 0.33893 0.34016 0.0
H2022 H 0.05824 0.30119 0.3291 0.0
C2023 C 0.93981 0.16193 0.34815 0.0
C2024 C 0.97625 0.22668 0.34722 0.0
H2025 H 0.98166 0.28833 0.33865 0.0
C2026 C 0.01106 0.22315 0.35414 0.0
C2027 C 0.96624 0.25022 0.34058 0.0
C2028 C 0.93026 0.25491 0.33176 0.0
C2029 C 0.03501 0.2428 0.35594 0.0
C2030 C 0.02383 0.26668 0.3509 0.0
C2031 C 0.99011 0.27 0.34264 0.0
C2032 C 0.04428 0.2886 0.35695 0.0
C2033 C 0.07156 0.23806 0.36409 0.0
C2034 C 0.04649 0.2938 0.37616 0.0
C2035 C 0.06312 0.31514 0.3824 0.0
C2036 C 0.0782 0.3318 0.36959 0.0
C2037 C 0.07714 0.32627 0.35032 0.0
C2038 C 0.05987 0.30487 0.34401 0.0
H2039 H 0.07989 0.21864 0.36208 0.0
H2040 H 0.09187 0.25027 0.35762 0.0
H2041 H 0.07093 0.24183 0.3794 0.0
H2042 H 0.03438 0.28163 0.38636 0.0
H2043 H 0.06357 0.31888 0.39734 0.0
H2044 H 0.87353 0.81735 0.15451 0.0
H2045 H 0.90307 0.7792 0.16486 0.0
H2046 H 0.00584 0.81092 0.15228 0.0
H2047 H 0.9769 0.84862 0.14218 0.0
H2048 H 0.94387 0.75117 0.14075 0.0
H2049 H 0.02668 0.77718 0.20168 0.0
H2050 H 0.98982 0.79583 0.19355 0.0
H2051 H 0.03292 0.79792 0.18242 0.0
C2052 C 0.90244 0.81633 0.15447 0.0
C2053 C 0.92287 0.83588 0.1474 0.0
C2054 C 0.91929 0.79456 0.16035 0.0
C2055 C 0.95675 0.7923 0.1596 0.0
C2056 C 0.97705 0.81233 0.15343 0.0
H2057 H 0.12136 0.68683 0.14326 0.0
H2058 H 0.08634 0.7234 0.15192 0.0
C2059 C 0.96035 0.83383 0.14744 0.0
C2060 C 0.97478 0.76827 0.16257 0.0
H2061 H 0.04695 0.74169 0.18397 0.0
C2062 C 0.96583 0.74886 0.15053 0.0
C2063 C 0.00374 0.76538 0.17518 0.0
C2064 C 0.01362 0.78514 0.18906 0.0
C2065 C 0.98627 0.72723 0.14994 0.0
C2066 C 0.01607 0.72468 0.16207 0.0
C2067 C 0.02421 0.74369 0.17465 0.0
C2068 C 0.03991 0.70289 0.16096 0.0
C2069 C 0.97692 0.70788 0.13557 0.0
C2070 C 0.02621 0.6793 0.1642 0.0
C2071 C 0.04601 0.65857 0.15915 0.0
C2072 C 0.08018 0.66104 0.15123 0.0
C2073 C 0.09531 0.6845 0.14965 0.0
C2074 C 0.07524 0.70535 0.15448 0.0
H2075 H 0.95844 0.71502 0.12465 0.0
H2076 H 0.00134 0.7008 0.12854 0.0
H2077 H 0.96358 0.69226 0.14268 0.0
H2078 H -0.00071 0.67697 0.16948 0.0
H2079 H 0.03373 0.64062 0.16034 0.0
loop_
_geom_bond_atom_site_label_1
_geom_bond_atom_site_label_2
_geom_bond_distance
_geom_bond_site_symmetry_2
_ccdc_geom_bond_type
Sc0 O3 2.025 . S
Sc0 O10 2.105 . S
Sc0 O13 2.105 . S
Sc0 O16 2.105 . S
Sc0 O19 2.105 . S
Sc1 O3 2.025 . S
Sc1 O11 2.105 . S
Sc1 O15 2.105 . S
Sc1 O17 2.105 . S
Sc1 O21 2.105 . S
Sc2 O3 2.025 . S
Sc2 O12 2.105 . S
Sc2 O14 2.105 . S
Sc2 O18 2.105 . S
Sc2 O20 2.105 . S
O3 Sc0 2.025 . S
O3 Sc1 2.025 . S
O3 Sc2 2.025 . S
C4 O10 1.268 . S
C4 O20 1.268 . S
C5 O11 1.268 . S
C5 O19 1.268 . S
C6 O12 1.268 . S
C6 O21 1.268 . S
C7 O13 1.268 . S
C7 O17 1.268 . S
C8 O14 1.268 . S
C8 O16 1.268 . S
C9 O15 1.268 . S
C9 O18 1.268 . S
O10 Sc0 2.105 . S
O10 C4 1.268 . S
O11 Sc1 2.105 . S
O11 C5 1.268 . S
O12 Sc2 2.105 . S
O12 C6 1.268 . S
O13 Sc0 2.105 . S
O13 C7 1.268 . S
O14 Sc2 2.105 . S
O14 C8 1.268 . S
O15 Sc1 2.105 . S
O15 C9 1.268 . S
O16 Sc0 2.105 . S
O16 C8 1.268 . S
O17 Sc1 2.105 . S
O17 C7 1.268 . S
O18 Sc2 2.105 . S
O18 C9 1.268 . S
O19 Sc0 2.105 . S
O19 C5 1.268 . S
O20 Sc2 2.105 . S
O20 C4 1.268 . S
O21 Sc1 2.105 . S
O21 C6 1.268 . S
Sc22 O25 2.025 . S
Sc22 O32 2.105 . S
Sc22 O35 2.105 . S
Sc22 O38 2.105 . S
Sc22 O41 2.105 . S
Sc23 O25 2.025 . S
Sc23 O33 2.105 . S
Sc23 O37 2.105 . S
Sc23 O39 2.105 . S
Sc23 O43 2.105 . S
Sc24 O25 2.025 . S
Sc24 O34 2.105 . S
Sc24 O36 2.105 . S
Sc24 O40 2.105 . S
Sc24 O42 2.105 . S
O25 Sc22 2.025 . S
O25 Sc23 2.025 . S
O25 Sc24 2.025 . S
C26 O32 1.268 . S
C26 O42 1.268 . S
C27 O33 1.268 . S
C27 O41 1.268 . S
C28 O34 1.268 . S
C28 O43 1.268 . S
C29 O35 1.268 . S
C29 O39 1.268 . S
C30 O36 1.268 . S
C30 O38 1.268 . S
C31 O37 1.268 . S
C31 O40 1.268 . S
O32 Sc22 2.105 . S
O32 C26 1.268 . S
O33 Sc23 2.105 . S
O33 C27 1.268 . S
O34 Sc24 2.105 . S
O34 C28 1.268 . S
O35 Sc22 2.105 . S
O35 C29 1.268 . S
O36 Sc24 2.105 . S
O36 C30 1.268 . S
O37 Sc23 2.105 . S
O37 C31 1.268 . S
O38 Sc22 2.105 . S
O38 C30 1.268 . S
O39 Sc23 2.105 . S
O39 C29 1.268 . S
O40 Sc24 2.105 . S
O40 C31 1.268 . S
O41 Sc22 2.105 . S
O41 C27 1.268 . S
O42 Sc24 2.105 . S
O42 C26 1.268 . S
O43 Sc23 2.105 . S
O43 C28 1.268 . S
Sc44 O47 2.025 . S
Sc44 O54 2.105 . S
Sc44 O57 2.105 . S
Sc44 O60 2.105 . S
Sc44 O63 2.105 . S
Sc45 O47 2.025 . S
Sc45 O55 2.105 . S
Sc45 O59 2.105 . S
Sc45 O61 2.105 . S
Sc45 O65 2.105 . S
Sc46 O47 2.025 . S
Sc46 O56 2.105 . S
Sc46 O58 2.105 . S
Sc46 O62 2.105 . S
Sc46 O64 2.105 . S
O47 Sc44 2.025 . S
O47 Sc45 2.025 . S
O47 Sc46 2.025 . S
C48 O54 1.268 . S
C48 O64 1.268 . S
C49 O55 1.268 . S
C49 O63 1.268 . S
C50 O56 1.268 . S
C50 O65 1.268 . S
C51 O57 1.268 . S
C51 O61 1.268 . S
C52 O58 1.268 . S
C52 O60 1.268 . S
C53 O59 1.268 . S
C53 O62 1.268 . S
O54 Sc44 2.105 . S
O54 C48 1.268 . S
O55 Sc45 2.105 . S
O55 C49 1.268 . S
O56 Sc46 2.105 . S
O56 C50 1.268 . S
O57 Sc44 2.105 . S
O57 C51 1.268 . S
O58 Sc46 2.105 . S
O58 C52 1.268 . S
O59 Sc45 2.105 . S
O59 C53 1.268 . S
O60 Sc44 2.105 . S
O60 C52 1.268 . S
O61 Sc45 2.105 . S
O61 C51 1.268 . S
O62 Sc46 2.105 . S
O62 C53 1.268 . S
O63 Sc44 2.105 . S
O63 C49 1.268 . S
O64 Sc46 2.105 . S
O64 C48 1.268 . S
O65 Sc45 2.105 . S
O65 C50 1.268 . S
Sc66 O69 2.025 . S
Sc66 O76 2.105 . S
Sc66 O79 2.105 . S
Sc66 O82 2.105 . S
Sc66 O85 2.105 . S
Sc67 O69 2.025 . S
Sc67 O77 2.105 . S
Sc67 O81 2.105 . S
Sc67 O83 2.105 . S
Sc67 O87 2.105 . S
Sc68 O69 2.025 . S
Sc68 O78 2.105 . S
Sc68 O80 2.105 . S
Sc68 O84 2.105 . S
Sc68 O86 2.105 . S
O69 Sc66 2.025 . S
O69 Sc67 2.025 . S
O69 Sc68 2.025 . S
C70 O76 1.268 . S
C70 O86 1.268 . S
C71 O77 1.268 . S
C71 O85 1.268 . S
C72 O78 1.268 . S
C72 O87 1.268 . S
C73 O79 1.268 . S
C73 O83 1.268 . S
C74 O80 1.268 . S
C74 O82 1.268 . S
C75 O81 1.268 . S
C75 O84 1.268 . S
O76 Sc66 2.105 . S
O76 C70 1.268 . S
O77 Sc67 2.105 . S
O77 C71 1.268 . S
O78 Sc68 2.105 . S
O78 C72 1.268 . S
O79 Sc66 2.105 . S
O79 C73 1.268 . S
O80 Sc68 2.105 . S
O80 C74 1.268 . S
O81 Sc67 2.105 . S
O81 C75 1.268 . S
O82 Sc66 2.105 . S
O82 C74 1.268 . S
O83 Sc67 2.105 . S
O83 C73 1.268 . S
O84 Sc68 2.105 . S
O84 C75 1.268 . S
O85 Sc66 2.105 . S
O85 C71 1.268 . S
O86 Sc68 2.105 . S
O86 C70 1.268 . S
O87 Sc67 2.105 . S
O87 C72 1.268 . S
Sc88 O91 2.025 . S
Sc88 O98 2.105 . S
Sc88 O101 2.105 . S
Sc88 O104 2.105 . S
Sc88 O107 2.105 . S
Sc89 O91 2.025 . S
Sc89 O99 2.105 . S
Sc89 O103 2.105 . S
Sc89 O105 2.105 . S
Sc89 O109 2.105 . S
Sc90 O91 2.025 . S
Sc90 O100 2.105 . S
Sc90 O102 2.105 . S
Sc90 O106 2.105 . S
Sc90 O108 2.105 . S
O91 Sc88 2.025 . S
O91 Sc89 2.025 . S
O91 Sc90 2.025 . S
C92 O98 1.268 . S
C92 O108 1.268 . S
C93 O99 1.268 . S
C93 O107 1.268 . S
C94 O100 1.268 . S
C94 O109 1.268 . S
C95 O101 1.268 . S
C95 O105 1.268 . S
C96 O102 1.268 . S
C96 O104 1.268 . S
C97 O103 1.268 . S
C97 O106 1.268 . S
O98 Sc88 2.105 . S
O98 C92 1.268 . S
O99 Sc89 2.105 . S
O99 C93 1.268 . S
O100 Sc90 2.105 . S
O100 C94 1.268 . S
O101 Sc88 2.105 . S
O101 C95 1.268 . S
O102 Sc90 2.105 . S
O102 C96 1.268 . S
O103 Sc89 2.105 . S
O103 C97 1.268 . S
O104 Sc88 2.105 . S
O104 C96 1.268 . S
O105 Sc89 2.105 . S
O105 C95 1.268 . S
O106 Sc90 2.105 . S
O106 C97 1.268 . S
O107 Sc88 2.105 . S
O107 C93 1.268 . S
O108 Sc90 2.105 . S
O108 C92 1.268 . S
O109 Sc89 2.105 . S
O109 C94 1.268 . S
Sc110 O113 2.025 . S
Sc110 O120 2.105 . S
Sc110 O123 2.105 . S
Sc110 O126 2.105 . S
Sc110 O129 2.105 . S
Sc111 O113 2.025 . S
Sc111 O121 2.105 . S
Sc111 O125 2.105 . S
Sc111 O127 2.105 . S
Sc111 O131 2.105 . S
Sc112 O113 2.025 . S
Sc112 O122 2.105 . S
Sc112 O124 2.105 . S
Sc112 O128 2.105 . S
Sc112 O130 2.105 . S
O113 Sc110 2.025 . S
O113 Sc111 2.025 . S
O113 Sc112 2.025 . S
C114 O120 1.268 . S
C114 O130 1.268 . S
C115 O121 1.268 . S
C115 O129 1.268 . S
C116 O122 1.268 . S
C116 O131 1.268 . S
C117 O123 1.268 . S
C117 O127 1.268 . S
C118 O124 1.268 . S
C118 O126 1.268 . S
C119 O125 1.268 . S
C119 O128 1.268 . S
O120 Sc110 2.105 . S
O120 C114 1.268 . S
O121 Sc111 2.105 . S
O121 C115 1.268 . S
O122 Sc112 2.105 . S
O122 C116 1.268 . S
O123 Sc110 2.105 . S
O123 C117 1.268 . S
O124 Sc112 2.105 . S
O124 C118 1.268 . S
O125 Sc111 2.105 . S
O125 C119 1.268 . S
O126 Sc110 2.105 . S
O126 C118 1.268 . S
O127 Sc111 2.105 . S
O127 C117 1.268 . S
O128 Sc112 2.105 . S
O128 C119 1.268 . S
O129 Sc110 2.105 . S
O129 C115 1.268 . S
O130 Sc112 2.105 . S
O130 C114 1.268 . S
O131 Sc111 2.105 . S
O131 C116 1.268 . S
Sc132 O135 2.025 . S
Sc132 O142 2.105 . S
Sc132 O145 2.105 . S
Sc132 O148 2.105 . S
Sc132 O151 2.105 . S
Sc133 O135 2.025 . S
Sc133 O143 2.105 . S
Sc133 O147 2.105 . S
Sc133 O149 2.105 . S
Sc133 O153 2.105 . S
Sc134 O135 2.025 . S
Sc134 O144 2.105 . S
Sc134 O146 2.105 . S
Sc134 O150 2.105 . S
Sc134 O152 2.105 . S
O135 Sc132 2.025 . S
O135 Sc133 2.025 . S
O135 Sc134 2.025 . S
C136 O142 1.268 . S
C136 O152 1.268 . S
C137 O143 1.268 . S
C137 O151 1.268 . S
C138 O144 1.268 . S
C138 O153 1.268 . S
C139 O145 1.268 . S
C139 O149 1.268 . S
C140 O146 1.268 . S
C140 O148 1.268 . S
C141 O147 1.268 . S
C141 O150 1.268 . S
O142 Sc132 2.105 . S
O142 C136 1.268 . S
O143 Sc133 2.105 . S
O143 C137 1.268 . S
O144 Sc134 2.105 . S
O144 C138 1.268 . S
O145 Sc132 2.105 . S
O145 C139 1.268 . S
O146 Sc134 2.105 . S
O146 C140 1.268 . S
O147 Sc133 2.105 . S
O147 C141 1.268 . S
O148 Sc132 2.105 . S
O148 C140 1.268 . S
O149 Sc133 2.105 . S
O149 C139 1.268 . S
O150 Sc134 2.105 . S
O150 C141 1.268 . S
O151 Sc132 2.105 . S
O151 C137 1.268 . S
O152 Sc134 2.105 . S
O152 C136 1.268 . S
O153 Sc133 2.105 . S
O153 C138 1.268 . S
Sc154 O157 2.025 . S
Sc154 O164 2.105 . S
Sc154 O167 2.105 . S
Sc154 O170 2.105 . S
Sc154 O173 2.105 . S
Sc155 O157 2.025 . S
Sc155 O165 2.105 . S
Sc155 O169 2.105 . S
Sc155 O171 2.105 . S
Sc155 O175 2.105 . S
Sc156 O157 2.025 . S
Sc156 O166 2.105 . S
Sc156 O168 2.105 . S
Sc156 O172 2.105 . S
Sc156 O174 2.105 . S
O157 Sc154 2.025 . S
O157 Sc155 2.025 . S
O157 Sc156 2.025 . S
C158 O164 1.268 . S
C158 O174 1.268 . S
C159 O165 1.268 . S
C159 O173 1.268 . S
C160 O166 1.268 . S
C160 O175 1.268 . S
C161 O167 1.268 . S
C161 O171 1.268 . S
C162 O168 1.268 . S
C162 O170 1.268 . S
C163 O169 1.268 . S
C163 O172 1.268 . S
O164 Sc154 2.105 . S
O164 C158 1.268 . S
O165 Sc155 2.105 . S
O165 C159 1.268 . S
O166 Sc156 2.105 . S
O166 C160 1.268 . S
O167 Sc154 2.105 . S
O167 C161 1.268 . S
O168 Sc156 2.105 . S
O168 C162 1.268 . S
O169 Sc155 2.105 . S
O169 C163 1.268 . S
O170 Sc154 2.105 . S
O170 C162 1.268 . S
O171 Sc155 2.105 . S
O171 C161 1.268 . S
O172 Sc156 2.105 . S
O172 C163 1.268 . S
O173 Sc154 2.105 . S
O173 C159 1.268 . S
O174 Sc156 2.105 . S
O174 C158 1.268 . S
O175 Sc155 2.105 . S
O175 C160 1.268 . S
Sc176 O179 2.025 . S
Sc176 O186 2.105 . S
Sc176 O189 2.105 . S
Sc176 O192 2.105 . S
Sc176 O195 2.105 . S
Sc177 O179 2.025 . S
Sc177 O187 2.105 . S
Sc177 O191 2.105 . S
Sc177 O193 2.105 . S
Sc177 O197 2.105 . S
Sc178 O179 2.025 . S
Sc178 O188 2.105 . S
Sc178 O190 2.105 . S
Sc178 O194 2.105 1_655 S
Sc178 O196 2.105 . S
O179 Sc176 2.025 . S
O179 Sc177 2.025 . S
O179 Sc178 2.025 . S
C180 O186 1.268 . S
C180 O196 1.268 . S
C181 O187 1.268 . S
C181 O195 1.268 . S
C182 O188 1.268 . S
C182 O197 1.268 . S
C183 O189 1.268 . S
C183 O193 1.268 . S
C184 O190 1.268 . S
C184 O192 1.268 . S
C185 O191 1.268 1_455 S
C185 O194 1.268 . S
O186 Sc176 2.105 . S
O186 C180 1.268 . S
O187 Sc177 2.105 . S
O187 C181 1.268 . S
O188 Sc178 2.105 . S
O188 C182 1.268 . S
O189 Sc176 2.105 . S
O189 C183 1.268 . S
O190 Sc178 2.105 . S
O190 C184 1.268 . S
O191 Sc177 2.105 . S
O191 C185 1.268 1_655 S
O192 Sc176 2.105 . S
O192 C184 1.268 . S
O193 Sc177 2.105 . S
O193 C183 1.268 . S
O194 Sc178 2.105 1_455 S
O194 C185 1.268 . S
O195 Sc176 2.105 . S
O195 C181 1.268 . S
O196 Sc178 2.105 . S
O196 C180 1.268 . S
O197 Sc177 2.105 . S
O197 C182 1.268 . S
Sc198 O201 2.025 . S
Sc198 O208 2.105 . S
Sc198 O211 2.105 . S
Sc198 O214 2.105 . S
Sc198 O217 2.105 . S
Sc199 O201 2.025 . S
Sc199 O209 2.105 . S
Sc199 O213 2.105 . S
Sc199 O215 2.105 . S
Sc199 O219 2.105 . S
Sc200 O201 2.025 . S
Sc200 O210 2.105 . S
Sc200 O212 2.105 . S
Sc200 O216 2.105 1_455 S
Sc200 O218 2.105 . S
O201 Sc198 2.025 . S
O201 Sc199 2.025 . S
O201 Sc200 2.025 . S
C202 O208 1.268 . S
C202 O218 1.268 . S
C203 O209 1.268 . S
C203 O217 1.268 . S
C204 O210 1.268 . S
C204 O219 1.268 . S
C205 O211 1.268 . S
C205 O215 1.268 . S
C206 O212 1.268 . S
C206 O214 1.268 . S
C207 O213 1.268 1_655 S
C207 O216 1.268 . S
O208 Sc198 2.105 . S
O208 C202 1.268 . S
O209 Sc199 2.105 . S
O209 C203 1.268 . S
O210 Sc200 2.105 . S
O210 C204 1.268 . S
O211 Sc198 2.105 . S
O211 C205 1.268 . S
O212 Sc200 2.105 . S
O212 C206 1.268 . S
O213 Sc199 2.105 . S
O213 C207 1.268 1_455 S
O214 Sc198 2.105 . S
O214 C206 1.268 . S
O215 Sc199 2.105 . S
O215 C205 1.268 . S
O216 Sc200 2.105 1_655 S
O216 C207 1.268 . S
O217 Sc198 2.105 . S
O217 C203 1.268 . S
O218 Sc200 2.105 . S
O218 C202 1.268 . S
O219 Sc199 2.105 . S
O219 C204 1.268 . S
Sc220 O223 2.025 . S
Sc220 O230 2.105 . S
Sc220 O233 2.105 . S
Sc220 O236 2.105 . S
Sc220 O239 2.105 . S
Sc221 O223 2.025 . S
Sc221 O231 2.105 . S
Sc221 O235 2.105 . S
Sc221 O237 2.105 . S
Sc221 O241 2.105 . S
Sc222 O223 2.025 . S
Sc222 O232 2.105 . S
Sc222 O234 2.105 . S
Sc222 O238 2.105 1_655 S
Sc222 O240 2.105 . S
O223 Sc220 2.025 . S
O223 Sc221 2.025 . S
O223 Sc222 2.025 . S
C224 O230 1.268 . S
C224 O240 1.268 . S
C225 O231 1.268 . S
C225 O239 1.268 . S
C226 O232 1.268 . S
C226 O241 1.268 . S
C227 O233 1.268 . S
C227 O237 1.268 . S
C228 O234 1.268 . S
C228 O236 1.268 . S
C229 O235 1.268 1_455 S
C229 O238 1.268 . S
O230 Sc220 2.105 . S
O230 C224 1.268 . S
O231 Sc221 2.105 . S
O231 C225 1.268 . S
O232 Sc222 2.105 . S
O232 C226 1.268 . S
O233 Sc220 2.105 . S
O233 C227 1.268 . S
O234 Sc222 2.105 . S
O234 C228 1.268 . S
O235 Sc221 2.105 . S
O235 C229 1.268 1_655 S
O236 Sc220 2.105 . S
O236 C228 1.268 . S
O237 Sc221 2.105 . S
O237 C227 1.268 . S
O238 Sc222 2.105 1_455 S
O238 C229 1.268 . S
O239 Sc220 2.105 . S
O239 C225 1.268 . S
O240 Sc222 2.105 . S
O240 C224 1.268 . S
O241 Sc221 2.105 . S
O241 C226 1.268 . S
Sc242 O245 2.025 . S
Sc242 O252 2.105 . S
Sc242 O255 2.105 . S
Sc242 O258 2.105 . S
Sc242 O261 2.105 1_455 S
Sc243 O245 2.025 . S
Sc243 O253 2.105 . S
Sc243 O257 2.105 . S
Sc243 O259 2.105 . S
Sc243 O263 2.105 . S
Sc244 O245 2.025 . S
Sc244 O254 2.105 . S
Sc244 O256 2.105 . S
Sc244 O260 2.105 . S
Sc244 O262 2.105 . S
O245 Sc242 2.025 . S
O245 Sc243 2.025 . S
O245 Sc244 2.025 . S
C246 O252 1.268 . S
C246 O262 1.268 . S
C247 O253 1.268 1_655 S
C247 O261 1.268 . S
C248 O254 1.268 . S
C248 O263 1.268 . S
C249 O255 1.268 . S
C249 O259 1.268 . S
C250 O256 1.268 . S
C250 O258 1.268 . S
C251 O257 1.268 . S
C251 O260 1.268 . S
O252 Sc242 2.105 . S
O252 C246 1.268 . S
O253 Sc243 2.105 . S
O253 C247 1.268 1_455 S
O254 Sc244 2.105 . S
O254 C248 1.268 . S
O255 Sc242 2.105 . S
O255 C249 1.268 . S
O256 Sc244 2.105 . S
O256 C250 1.268 . S
O257 Sc243 2.105 . S
O257 C251 1.268 . S
O258 Sc242 2.105 . S
O258 C250 1.268 . S
O259 Sc243 2.105 . S
O259 C249 1.268 . S
O260 Sc244 2.105 . S
O260 C251 1.268 . S
O261 Sc242 2.105 1_655 S
O261 C247 1.268 . S
O262 Sc244 2.105 . S
O262 C246 1.268 . S
O263 Sc243 2.105 . S
O263 C248 1.268 . S
Sc264 O267 2.025 . S
Sc264 O274 2.105 . S
Sc264 O277 2.105 1_455 S
Sc264 O280 2.105 . S
Sc264 O283 2.105 . S
Sc265 O267 2.025 . S
Sc265 O275 2.105 . S
Sc265 O279 2.105 . S
Sc265 O281 2.105 . S
Sc265 O285 2.105 . S
Sc266 O267 2.025 . S
Sc266 O276 2.105 . S
Sc266 O278 2.105 . S
Sc266 O282 2.105 . S
Sc266 O284 2.105 . S
O267 Sc264 2.025 . S
O267 Sc265 2.025 . S
O267 Sc266 2.025 . S
C268 O274 1.268 . S
C268 O284 1.268 . S
C269 O275 1.268 . S
C269 O283 1.268 . S
C270 O276 1.268 . S
C270 O285 1.268 . S
C271 O277 1.268 . S
C271 O281 1.268 1_655 S
C272 O278 1.268 . S
C272 O280 1.268 . S
C273 O279 1.268 . S
C273 O282 1.268 . S
O274 Sc264 2.105 . S
O274 C268 1.268 . S
O275 Sc265 2.105 . S
O275 C269 1.268 . S
O276 Sc266 2.105 . S
O276 C270 1.268 . S
O277 Sc264 2.105 1_655 S
O277 C271 1.268 . S
O278 Sc266 2.105 . S
O278 C272 1.268 . S
O279 Sc265 2.105 . S
O279 C273 1.268 . S
O280 Sc264 2.105 . S
O280 C272 1.268 . S
O281 Sc265 2.105 . S
O281 C271 1.268 1_455 S
O282 Sc266 2.105 . S
O282 C273 1.268 . S
O283 Sc264 2.105 . S
O283 C269 1.268 . S
O284 Sc266 2.105 . S
O284 C268 1.268 . S
O285 Sc265 2.105 . S
O285 C270 1.268 . S
Sc286 O289 2.025 . S
Sc286 O296 2.105 . S
Sc286 O299 2.105 . S
Sc286 O302 2.105 . S
Sc286 O305 2.105 . S
Sc287 O289 2.025 . S
Sc287 O297 2.105 . S
Sc287 O301 2.105 . S
Sc287 O303 2.105 . S
Sc287 O307 2.105 . S
Sc288 O289 2.025 . S
Sc288 O298 2.105 1_655 S
Sc288 O300 2.105 . S
Sc288 O304 2.105 . S
Sc288 O306 2.105 . S
O289 Sc286 2.025 . S
O289 Sc287 2.025 . S
O289 Sc288 2.025 . S
C290 O296 1.268 . S
C290 O306 1.268 . S
C291 O297 1.268 . S
C291 O305 1.268 . S
C292 O298 1.268 . S
C292 O307 1.268 1_455 S
C293 O299 1.268 . S
C293 O303 1.268 . S
C294 O300 1.268 . S
C294 O302 1.268 . S
C295 O301 1.268 . S
C295 O304 1.268 . S
O296 Sc286 2.105 . S
O296 C290 1.268 . S
O297 Sc287 2.105 . S
O297 C291 1.268 . S
O298 Sc288 2.105 1_455 S
O298 C292 1.268 . S
O299 Sc286 2.105 . S
O299 C293 1.268 . S
O300 Sc288 2.105 . S
O300 C294 1.268 . S
O301 Sc287 2.105 . S
O301 C295 1.268 . S
O302 Sc286 2.105 . S
O302 C294 1.268 . S
O303 Sc287 2.105 . S
O303 C293 1.268 . S
O304 Sc288 2.105 . S
O304 C295 1.268 . S
O305 Sc286 2.105 . S
O305 C291 1.268 . S
O306 Sc288 2.105 . S
O306 C290 1.268 . S
O307 Sc287 2.105 . S
O307 C292 1.268 1_655 S
Sc308 O311 2.025 . S
Sc308 O318 2.105 . S
Sc308 O321 2.105 1_455 S
Sc308 O324 2.105 . S
Sc308 O327 2.105 . S
Sc309 O311 2.025 . S
Sc309 O319 2.105 . S
Sc309 O323 2.105 . S
Sc309 O325 2.105 . S
Sc309 O329 2.105 . S
Sc310 O311 2.025 . S
Sc310 O320 2.105 . S
Sc310 O322 2.105 . S
Sc310 O326 2.105 . S
Sc310 O328 2.105 . S
O311 Sc308 2.025 . S
O311 Sc309 2.025 . S
O311 Sc310 2.025 . S
C312 O318 1.268 . S
C312 O328 1.268 . S
C313 O319 1.268 . S
C313 O327 1.268 . S
C314 O320 1.268 . S
C314 O329 1.268 . S
C315 O321 1.268 . S
C315 O325 1.268 1_655 S
C316 O322 1.268 . S
C316 O324 1.268 . S
C317 O323 1.268 . S
C317 O326 1.268 . S
O318 Sc308 2.105 . S
O318 C312 1.268 . S
O319 Sc309 2.105 . S
O319 C313 1.268 . S
O320 Sc310 2.105 . S
O320 C314 1.268 . S
O321 Sc308 2.105 1_655 S
O321 C315 1.268 . S
O322 Sc310 2.105 . S
O322 C316 1.268 . S
O323 Sc309 2.105 . S
O323 C317 1.268 . S
O324 Sc308 2.105 . S
O324 C316 1.268 . S
O325 Sc309 2.105 . S
O325 C315 1.268 1_455 S
O326 Sc310 2.105 . S
O326 C317 1.268 . S
O327 Sc308 2.105 . S
O327 C313 1.268 . S
O328 Sc310 2.105 . S
O328 C312 1.268 . S
O329 Sc309 2.105 . S
O329 C314 1.268 . S
Sc330 O333 2.025 . S
Sc330 O340 2.105 . S
Sc330 O343 2.105 1_655 S
Sc330 O346 2.105 . S
Sc330 O349 2.105 . S
Sc331 O333 2.025 . S
Sc331 O341 2.105 . S
Sc331 O345 2.105 . S
Sc331 O347 2.105 . S
Sc331 O351 2.105 . S
Sc332 O333 2.025 . S
Sc332 O342 2.105 . S
Sc332 O344 2.105 . S
Sc332 O348 2.105 . S
Sc332 O350 2.105 . S
O333 Sc330 2.025 . S
O333 Sc331 2.025 . S
O333 Sc332 2.025 . S
C334 O340 1.268 . S
C334 O350 1.268 . S
C335 O341 1.268 . S
C335 O349 1.268 . S
C336 O342 1.268 . S
C336 O351 1.268 . S
C337 O343 1.268 . S
C337 O347 1.268 1_455 S
C338 O344 1.268 . S
C338 O346 1.268 . S
C339 O345 1.268 . S
C339 O348 1.268 . S
O340 Sc330 2.105 . S
O340 C334 1.268 . S
O341 Sc331 2.105 . S
O341 C335 1.268 . S
O342 Sc332 2.105 . S
O342 C336 1.268 . S
O343 Sc330 2.105 1_455 S
O343 C337 1.268 . S
O344 Sc332 2.105 . S
O344 C338 1.268 . S
O345 Sc331 2.105 . S
O345 C339 1.268 . S
O346 Sc330 2.105 . S
O346 C338 1.268 . S
O347 Sc331 2.105 . S
O347 C337 1.268 1_655 S
O348 Sc332 2.105 . S
O348 C339 1.268 . S
O349 Sc330 2.105 . S
O349 C335 1.268 . S
O350 Sc332 2.105 . S
O350 C334 1.268 . S
O351 Sc331 2.105 . S
O351 C336 1.268 . S
H352 C360 0.929 . S
H353 C362 0.930 . S
H354 C364 0.930 . S
H355 C367 0.929 . S
H356 C370 0.930 . S
H357 C372 0.960 . S
H358 C372 0.960 . S
H359 C372 0.960 . S
C360 H352 0.929 . S
C360 C361 1.377 . S
C360 C362 1.384 . S
C361 C360 1.377 . S
C361 C367 1.390 . S
C362 H353 0.930 . S
C362 C360 1.384 . S
C362 C363 1.372 . S
C363 C362 1.372 . S
C363 C364 1.400 . S
C363 C368 1.490 . S
C364 H354 0.930 . S
C364 C363 1.400 . S
C364 C367 1.386 . S
H365 C381 0.930 . S
H366 C382 0.931 . S
C367 H355 0.929 . S
C367 C361 1.390 . S
C367 C364 1.386 . S
C368 C363 1.490 . S
C368 C370 1.395 . S
C368 C371 1.403 1_545 S
H369 C375 0.930 . S
C370 H356 0.930 . S
C370 C368 1.395 . S
C370 C373 1.403 1_554 S
C371 C368 1.403 1_565 S
C371 C372 1.524 . S
C371 C375 1.400 1_554 S
C372 H357 0.960 . S
C372 H358 0.960 . S
C372 H359 0.960 . S
C372 C371 1.524 . S
C373 C370 1.403 1_556 S
C373 C374 1.392 1_545 S
C373 C377 1.495 . S
C374 C373 1.392 1_565 S
C374 C375 1.385 . S
C374 C376 1.478 . S
C375 H369 0.930 . S
C375 C371 1.400 1_556 S
C375 C374 1.385 . S
C376 C374 1.478 . S
C376 C378 1.381 . S
C376 C382 1.383 . S
C377 C373 1.495 . S
C377 H383 0.959 . S
C377 H384 0.961 . S
C377 H385 0.960 . S
C378 C376 1.381 . S
C378 C379 1.394 . S
C378 H386 0.930 . S
C379 C378 1.394 . S
C379 C380 1.383 . S
C379 H387 0.929 . S
C380 C379 1.383 . S
C380 C381 1.377 . S
C381 H365 0.930 . S
C381 C380 1.377 . S
C381 C382 1.379 . S
C382 H366 0.931 . S
C382 C376 1.383 . S
C382 C381 1.379 . S
H383 C377 0.959 . S
H384 C377 0.961 . S
H385 C377 0.960 . S
H386 C378 0.930 . S
H387 C379 0.929 . S
H388 C396 0.929 . S
H389 C398 0.930 . S
H390 C400 0.930 . S
H391 C403 0.929 . S
H392 C406 0.930 . S
H393 C408 0.960 . S
H394 C408 0.960 . S
H395 C408 0.960 . S
C396 H388 0.929 . S
C396 C397 1.377 . S
C396 C398 1.384 . S
C397 C396 1.377 . S
C397 C403 1.390 . S
C398 H389 0.930 . S
C398 C396 1.384 . S
C398 C399 1.372 . S
C399 C398 1.372 . S
C399 C400 1.400 . S
C399 C404 1.490 . S
C400 H390 0.930 . S
C400 C399 1.400 . S
C400 C403 1.386 . S
H401 C417 0.930 . S
H402 C418 0.931 . S
C403 H391 0.929 . S
C403 C397 1.390 . S
C403 C400 1.386 . S
C404 C399 1.490 . S
C404 C406 1.395 . S
C404 C407 1.403 . S
H405 C411 0.930 . S
C406 H392 0.930 . S
C406 C404 1.395 . S
C406 C409 1.403 1_554 S
C407 C404 1.403 . S
C407 C408 1.524 . S
C407 C411 1.400 1_554 S
C408 H393 0.960 . S
C408 H394 0.960 . S
C408 H395 0.960 . S
C408 C407 1.524 . S
C409 C406 1.403 1_556 S
C409 C410 1.392 . S
C409 C413 1.495 . S
C410 C409 1.392 . S
C410 C411 1.385 . S
C410 C412 1.478 . S
C411 H405 0.930 . S
C411 C407 1.400 1_556 S
C411 C410 1.385 . S
C412 C410 1.478 . S
C412 C414 1.381 . S
C412 C418 1.383 . S
C413 C409 1.495 . S
C413 H419 0.959 . S
C413 H420 0.961 . S
C413 H421 0.960 . S
C414 C412 1.381 . S
C414 C415 1.394 . S
C414 H422 0.930 . S
C415 C414 1.394 . S
C415 C416 1.383 . S
C415 H423 0.929 . S
C416 C415 1.383 . S
C416 C417 1.377 . S
C417 H401 0.930 . S
C417 C416 1.377 . S
C417 C418 1.379 . S
C418 H402 0.931 . S
C418 C412 1.383 . S
C418 C417 1.379 . S
H419 C413 0.959 . S
H420 C413 0.961 . S
H421 C413 0.960 . S
H422 C414 0.930 . S
H423 C415 0.929 . S
H424 C432 0.929 . S
H425 C434 0.930 . S
H426 C436 0.930 . S
H427 C439 0.929 . S
H428 C442 0.930 . S
H429 C444 0.960 . S
H430 C444 0.960 . S
H431 C444 0.960 . S
C432 H424 0.929 . S
C432 C433 1.377 . S
C432 C434 1.384 . S
C433 C432 1.377 . S
C433 C439 1.390 . S
C434 H425 0.930 . S
C434 C432 1.384 . S
C434 C435 1.372 . S
C435 C434 1.372 . S
C435 C436 1.400 . S
C435 C440 1.490 . S
C436 H426 0.930 . S
C436 C435 1.400 . S
C436 C439 1.386 . S
H437 C453 0.930 . S
H438 C454 0.931 . S
C439 H427 0.929 . S
C439 C433 1.390 . S
C439 C436 1.386 . S
C440 C435 1.490 . S
C440 C442 1.395 . S
C440 C443 1.403 1_565 S
H441 C447 0.930 . S
C442 H428 0.930 . S
C442 C440 1.395 . S
C442 C445 1.403 . S
C443 C440 1.403 1_545 S
C443 C444 1.524 . S
C443 C447 1.400 . S
C444 H429 0.960 . S
C444 H430 0.960 . S
C444 H431 0.960 . S
C444 C443 1.524 . S
C445 C442 1.403 . S
C445 C446 1.392 1_565 S
C445 C449 1.495 . S
C446 C445 1.392 1_545 S
C446 C447 1.385 . S
C446 C448 1.478 . S
C447 H441 0.930 . S
C447 C443 1.400 . S
C447 C446 1.385 . S
C448 C446 1.478 . S
C448 C450 1.381 . S
C448 C454 1.383 . S
C449 C445 1.495 . S
C449 H455 0.959 . S
C449 H456 0.961 . S
C449 H457 0.960 . S
C450 C448 1.381 . S
C450 C451 1.394 . S
C450 H458 0.930 . S
C451 C450 1.394 . S
C451 C452 1.383 . S
C451 H459 0.929 . S
C452 C451 1.383 . S
C452 C453 1.377 . S
C453 H437 0.930 . S
C453 C452 1.377 . S
C453 C454 1.379 . S
C454 H438 0.931 . S
C454 C448 1.383 . S
C454 C453 1.379 . S
H455 C449 0.959 . S
H456 C449 0.961 . S
H457 C449 0.960 . S
H458 C450 0.930 . S
H459 C451 0.929 . S
H460 C468 0.929 . S
H461 C470 0.930 . S
H462 C472 0.930 . S
H463 C475 0.929 . S
H464 C478 0.930 . S
H465 C480 0.960 . S
H466 C480 0.960 . S
H467 C480 0.960 . S
C468 H460 0.929 . S
C468 C469 1.377 . S
C468 C470 1.384 . S
C469 C468 1.377 . S
C469 C475 1.390 . S
C470 H461 0.930 . S
C470 C468 1.384 . S
C470 C471 1.372 . S
C471 C470 1.372 . S
C471 C472 1.400 . S
C471 C476 1.490 . S
C472 H462 0.930 . S
C472 C471 1.400 . S
C472 C475 1.386 . S
H473 C489 0.930 . S
H474 C490 0.931 . S
C475 H463 0.929 . S
C475 C469 1.390 . S
C475 C472 1.386 . S
C476 C471 1.490 . S
C476 C478 1.395 . S
C476 C479 1.403 . S
H477 C483 0.930 . S
C478 H464 0.930 . S
C478 C476 1.395 . S
C478 C481 1.403 . S
C479 C476 1.403 . S
C479 C480 1.524 . S
C479 C483 1.400 . S
C480 H465 0.960 . S
C480 H466 0.960 . S
C480 H467 0.960 . S
C480 C479 1.524 . S
C481 C478 1.403 . S
C481 C482 1.392 . S
C481 C485 1.495 . S
C482 C481 1.392 . S
C482 C483 1.385 . S
C482 C484 1.478 . S
C483 H477 0.930 . S
C483 C479 1.400 . S
C483 C482 1.385 . S
C484 C482 1.478 . S
C484 C486 1.381 . S
C484 C490 1.383 . S
C485 C481 1.495 . S
C485 H491 0.959 . S
C485 H492 0.961 . S
C485 H493 0.960 . S
C486 C484 1.381 . S
C486 C487 1.394 . S
C486 H494 0.930 . S
C487 C486 1.394 . S
C487 C488 1.383 . S
C487 H495 0.929 . S
C488 C487 1.383 . S
C488 C489 1.377 . S
C489 H473 0.930 . S
C489 C488 1.377 . S
C489 C490 1.379 . S
C490 H474 0.931 . S
C490 C484 1.383 . S
C490 C489 1.379 . S
H491 C485 0.959 . S
H492 C485 0.961 . S
H493 C485 0.960 . S
H494 C486 0.930 . S
H495 C487 0.929 . S
H496 C504 0.929 . S
H497 C506 0.930 . S
H498 C508 0.930 . S
H499 C511 0.929 . S
H500 C514 0.930 . S
H501 C516 0.960 . S
H502 C516 0.960 . S
H503 C516 0.960 . S
C504 H496 0.929 . S
C504 C505 1.377 . S
C504 C506 1.384 . S
C505 C504 1.377 . S
C505 C511 1.390 . S
C506 H497 0.930 . S
C506 C504 1.384 . S
C506 C507 1.372 . S
C507 C506 1.372 . S
C507 C508 1.400 . S
C507 C512 1.490 . S
C508 H498 0.930 . S
C508 C507 1.400 . S
C508 C511 1.386 . S
H509 C525 0.930 . S
H510 C526 0.931 . S
C511 H499 0.929 . S
C511 C505 1.390 . S
C511 C508 1.386 . S
C512 C507 1.490 . S
C512 C514 1.395 1_655 S
C512 C515 1.403 . S
H513 C519 0.930 . S
C514 H500 0.930 . S
C514 C512 1.395 1_455 S
C514 C517 1.403 . S
C515 C512 1.403 . S
C515 C516 1.524 . S
C515 C519 1.400 . S
C516 H501 0.960 . S
C516 H502 0.960 . S
C516 H503 0.960 . S
C516 C515 1.524 . S
C517 C514 1.403 . S
C517 C518 1.392 . S
C517 C521 1.495 . S
C518 C517 1.392 . S
C518 C519 1.385 1_455 S
C518 C520 1.478 . S
C519 H513 0.930 . S
C519 C515 1.400 . S
C519 C518 1.385 1_655 S
C520 C518 1.478 . S
C520 C522 1.381 . S
C520 C526 1.383 . S
C521 C517 1.495 . S
C521 H527 0.959 . S
C521 H528 0.961 . S
C521 H529 0.960 . S
C522 C520 1.381 . S
C522 C523 1.394 . S
C522 H530 0.930 . S
C523 C522 1.394 . S
C523 C524 1.383 . S
C523 H531 0.929 . S
C524 C523 1.383 . S
C524 C525 1.377 . S
C525 H509 0.930 . S
C525 C524 1.377 . S
C525 C526 1.379 . S
C526 H510 0.931 . S
C526 C520 1.383 . S
C526 C525 1.379 . S
H527 C521 0.959 . S
H528 C521 0.961 . S
H529 C521 0.960 . S
H530 C522 0.930 . S
H531 C523 0.929 . S
H532 C540 0.929 . S
H533 C542 0.930 . S
H534 C544 0.930 1_655 S
H535 C547 0.929 . S
H536 C550 0.930 . S
H537 C552 0.960 . S
H538 C552 0.960 1_455 S
H539 C552 0.960 . S
C540 H532 0.929 . S
C540 C541 1.377 . S
C540 C542 1.384 . S
C541 C540 1.377 . S
C541 C547 1.390 . S
C542 H533 0.930 . S
C542 C540 1.384 . S
C542 C543 1.372 . S
C543 C542 1.372 . S
C543 C544 1.400 . S
C543 C548 1.490 . S
C544 H534 0.930 1_455 S
C544 C543 1.400 . S
C544 C547 1.386 . S
H545 C561 0.930 . S
H546 C562 0.920 1_565 S
C547 H535 0.929 . S
C547 C541 1.390 . S
C547 C544 1.386 . S
C548 C543 1.490 . S
C548 C550 1.395 . S
C548 C551 1.403 1_465 S
H549 C555 0.930 . S
C550 H536 0.930 . S
C550 C548 1.395 . S
C550 C553 1.403 . S
C551 C548 1.403 1_645 S
C551 C552 1.524 . S
C551 C555 1.400 . S
C552 H537 0.960 . S
C552 H538 0.960 1_655 S
C552 H539 0.960 . S
C552 C551 1.524 . S
C553 C550 1.403 . S
C553 C554 1.392 1_465 S
C553 C557 1.495 . S
C554 C553 1.392 1_645 S
C554 C555 1.385 . S
C554 C556 1.478 . S
C555 H549 0.930 . S
C555 C551 1.400 . S
C555 C554 1.385 . S
C556 C554 1.478 . S
C556 C558 1.381 . S
C556 C562 1.383 . S
C557 C553 1.495 . S
C557 H563 0.959 . S
C557 H564 0.961 . S
C557 H565 0.960 . S
C558 C556 1.381 . S
C558 C559 1.394 . S
C558 H566 0.930 1_655 S
C559 C558 1.394 . S
C559 C560 1.383 . S
C559 H567 0.929 . S
C560 C559 1.383 . S
C560 C561 1.377 . S
C561 H545 0.930 . S
C561 C560 1.377 . S
C561 C562 1.379 . S
C562 H546 0.920 1_545 S
C562 C556 1.383 . S
C562 C561 1.379 . S
H563 C557 0.959 . S
H564 C557 0.961 . S
H565 C557 0.960 . S
H566 C558 0.930 1_455 S
H567 C559 0.929 . S
H568 C576 0.929 . S
H569 C578 0.930 . S
H570 C580 0.930 . S
H571 C583 0.929 . S
H572 C586 0.930 . S
H573 C588 0.960 . S
H574 C588 0.960 . S
H575 C588 0.960 . S
C576 H568 0.929 . S
C576 C577 1.377 . S
C576 C578 1.384 . S
C577 C576 1.377 . S
C577 C583 1.390 . S
C578 H569 0.930 . S
C578 C576 1.384 . S
C578 C579 1.372 . S
C579 C578 1.372 . S
C579 C580 1.400 . S
C579 C584 1.490 . S
C580 H570 0.930 . S
C580 C579 1.400 . S
C580 C583 1.386 . S
H581 C597 0.930 . S
H582 C598 0.931 . S
C583 H571 0.929 . S
C583 C577 1.390 . S
C583 C580 1.386 . S
C584 C579 1.490 . S
C584 C586 1.395 1_655 S
C584 C587 1.403 . S
H585 C591 0.930 . S
C586 H572 0.930 . S
C586 C584 1.395 1_455 S
C586 C589 1.403 1_556 S
C587 C584 1.403 . S
C587 C588 1.524 . S
C587 C591 1.400 1_556 S
C588 H573 0.960 . S
C588 H574 0.960 . S
C588 H575 0.960 . S
C588 C587 1.524 . S
C589 C586 1.403 1_554 S
C589 C590 1.392 . S
C589 C593 1.495 . S
C590 C589 1.392 . S
C590 C591 1.385 1_455 S
C590 C592 1.478 . S
C591 H585 0.930 . S
C591 C587 1.400 1_554 S
C591 C590 1.385 1_655 S
C592 C590 1.478 . S
C592 C594 1.381 . S
C592 C598 1.383 . S
C593 C589 1.495 . S
C593 H599 0.959 . S
C593 H600 0.961 . S
C593 H601 0.960 . S
C594 C592 1.381 . S
C594 C595 1.394 . S
C594 H602 0.930 . S
C595 C594 1.394 . S
C595 C596 1.383 . S
C595 H603 0.929 . S
C596 C595 1.383 . S
C596 C597 1.377 . S
C597 H581 0.930 . S
C597 C596 1.377 . S
C597 C598 1.379 . S
C598 H582 0.931 . S
C598 C592 1.383 . S
C598 C597 1.379 . S
H599 C593 0.959 . S
H600 C593 0.961 . S
H601 C593 0.960 . S
H602 C594 0.930 . S
H603 C595 0.929 . S
H604 C612 0.907 1_565 S
H605 C614 0.930 . S
H606 C616 0.930 . S
H607 C619 0.929 . S
H608 C622 0.930 . S
H609 C624 0.960 . S
H610 C624 0.960 . S
H611 C624 0.960 . S
C612 H604 0.907 1_545 S
C612 C613 1.408 . S
C612 C614 1.376 1_545 S
C613 C612 1.408 . S
C613 C619 1.390 . S
C614 H605 0.930 . S
C614 C612 1.376 1_565 S
C614 C615 1.372 1_565 S
C615 C614 1.372 1_545 S
C615 C616 1.400 . S
C615 C620 1.490 . S
C616 H606 0.930 . S
C616 C615 1.400 . S
C616 C619 1.386 . S
H617 C633 0.930 1_545 S
H618 C634 0.964 . S
C619 H607 0.929 . S
C619 C613 1.390 . S
C619 C616 1.386 . S
C620 C615 1.490 . S
C620 C622 1.395 1_545 S
C620 C623 1.403 1_455 S
H621 C627 0.930 . S
C622 H608 0.930 . S
C622 C620 1.395 1_565 S
C622 C625 1.403 1_556 S
C623 C620 1.403 1_655 S
C623 C624 1.524 . S
C623 C627 1.400 1_556 S
C624 H609 0.960 . S
C624 H610 0.960 . S
C624 H611 0.960 . S
C624 C623 1.524 . S
C625 C622 1.403 1_554 S
C625 C626 1.392 1_455 S
C625 C629 1.495 . S
C626 C625 1.392 1_655 S
C626 C627 1.385 1_565 S
C626 C628 1.478 . S
C627 H621 0.930 . S
C627 C623 1.400 1_554 S
C627 C626 1.385 1_545 S
C628 C626 1.478 . S
C628 C630 1.381 . S
C628 C634 1.358 1_565 S
C629 C625 1.495 . S
C629 H635 0.959 . S
C629 H636 0.961 . S
C629 H637 0.960 . S
C630 C628 1.381 . S
C630 C631 1.394 . S
C630 H638 0.930 . S
C631 C630 1.394 . S
C631 C632 1.383 . S
C631 H639 0.929 . S
C632 C631 1.383 . S
C632 C633 1.377 . S
C633 H617 0.930 1_565 S
C633 C632 1.377 . S
C633 C634 1.373 1_565 S
C634 H618 0.964 . S
C634 C628 1.358 1_545 S
C634 C633 1.373 1_545 S
H635 C629 0.959 . S
H636 C629 0.961 . S
H637 C629 0.960 . S
H638 C630 0.930 . S
H639 C631 0.929 . S
H640 C648 0.929 . S
H641 C650 0.930 . S
H642 C652 0.930 . S
H643 C655 0.929 . S
H644 C658 0.930 . S
H645 C660 0.960 . S
H646 C660 0.960 . S
H647 C660 0.960 . S
C648 H640 0.929 . S
C648 C649 1.377 . S
C648 C650 1.384 . S
C649 C648 1.377 . S
C649 C655 1.390 . S
C650 H641 0.930 . S
C650 C648 1.384 . S
C650 C651 1.372 . S
C651 C650 1.372 . S
C651 C652 1.400 . S
C651 C656 1.490 . S
C652 H642 0.930 . S
C652 C651 1.400 . S
C652 C655 1.386 . S
H653 C669 0.930 . S
H654 C670 0.931 . S
C655 H643 0.929 . S
C655 C649 1.390 . S
C655 C652 1.386 . S
C656 C651 1.490 . S
C656 C658 1.395 . S
C656 C659 1.403 1_545 S
H657 C663 0.930 . S
C658 H644 0.930 . S
C658 C656 1.395 . S
C658 C661 1.403 . S
C659 C656 1.403 1_565 S
C659 C660 1.524 . S
C659 C663 1.400 . S
C660 H645 0.960 . S
C660 H646 0.960 . S
C660 H647 0.960 . S
C660 C659 1.524 . S
C661 C658 1.403 . S
C661 C662 1.392 1_545 S
C661 C665 1.495 . S
C662 C661 1.392 1_565 S
C662 C663 1.385 . S
C662 C664 1.478 . S
C663 H657 0.930 . S
C663 C659 1.400 . S
C663 C662 1.385 . S
C664 C662 1.478 . S
C664 C666 1.381 . S
C664 C670 1.383 . S
C665 C661 1.495 . S
C665 H671 0.959 . S
C665 H672 0.961 . S
C665 H673 0.960 . S
C666 C664 1.381 . S
C666 C667 1.394 . S
C666 H674 0.930 . S
C667 C666 1.394 . S
C667 C668 1.383 . S
C667 H675 0.929 . S
C668 C667 1.383 . S
C668 C669 1.377 . S
C669 H653 0.930 . S
C669 C668 1.377 . S
C669 C670 1.379 . S
C670 H654 0.931 . S
C670 C664 1.383 . S
C670 C669 1.379 . S
H671 C665 0.959 . S
H672 C665 0.961 . S
H673 C665 0.960 . S
H674 C666 0.930 . S
H675 C667 0.929 . S
H676 C684 0.929 . S
H677 C686 0.930 . S
H678 C688 0.930 . S
H679 C691 0.929 . S
H680 C694 0.930 . S
H681 C696 0.960 . S
H682 C696 0.960 . S
H683 C696 0.960 . S
C684 H676 0.929 . S
C684 C685 1.377 . S
C684 C686 1.384 . S
C685 C684 1.377 . S
C685 C691 1.390 . S
C686 H677 0.930 . S
C686 C684 1.384 . S
C686 C687 1.372 . S
C687 C686 1.372 . S
C687 C688 1.400 . S
C687 C692 1.490 . S
C688 H678 0.930 . S
C688 C687 1.400 . S
C688 C691 1.386 . S
H689 C705 0.930 . S
H690 C706 0.931 . S
C691 H679 0.929 . S
C691 C685 1.390 . S
C691 C688 1.386 . S
C692 C687 1.490 . S
C692 C694 1.395 . S
C692 C695 1.403 . S
H693 C699 0.930 . S
C694 H680 0.930 . S
C694 C692 1.395 . S
C694 C697 1.403 . S
C695 C692 1.403 . S
C695 C696 1.524 . S
C695 C699 1.400 . S
C696 H681 0.960 . S
C696 H682 0.960 . S
C696 H683 0.960 . S
C696 C695 1.524 . S
C697 C694 1.403 . S
C697 C698 1.392 . S
C697 C701 1.495 . S
C698 C697 1.392 . S
C698 C699 1.385 . S
C698 C700 1.478 . S
C699 H693 0.930 . S
C699 C695 1.400 . S
C699 C698 1.385 . S
C700 C698 1.478 . S
C700 C702 1.381 . S
C700 C706 1.383 . S
C701 C697 1.495 . S
C701 H707 0.959 . S
C701 H708 0.961 . S
C701 H709 0.960 . S
C702 C700 1.381 . S
C702 C703 1.394 . S
C702 H710 0.930 . S
C703 C702 1.394 . S
C703 C704 1.383 . S
C703 H711 0.929 . S
C704 C703 1.383 . S
C704 C705 1.377 . S
C705 H689 0.930 . S
C705 C704 1.377 . S
C705 C706 1.379 . S
C706 H690 0.931 . S
C706 C700 1.383 . S
C706 C705 1.379 . S
H707 C701 0.959 . S
H708 C701 0.961 . S
H709 C701 0.960 . S
H710 C702 0.930 . S
H711 C703 0.929 . S
H712 C720 0.929 . S
H713 C722 0.930 . S
H714 C724 0.930 . S
H715 C727 0.929 . S
H716 C730 0.930 . S
H717 C732 0.960 . S
H718 C732 0.960 . S
H719 C732 0.960 . S
C720 H712 0.929 . S
C720 C721 1.377 . S
C720 C722 1.384 . S
C721 C720 1.377 . S
C721 C727 1.390 . S
C722 H713 0.930 . S
C722 C720 1.384 . S
C722 C723 1.372 . S
C723 C722 1.372 . S
C723 C724 1.400 . S
C723 C728 1.490 . S
C724 H714 0.930 . S
C724 C723 1.400 . S
C724 C727 1.386 . S
H725 C741 0.930 . S
H726 C742 0.931 . S
C727 H715 0.929 . S
C727 C721 1.390 . S
C727 C724 1.386 . S
C728 C723 1.490 . S
C728 C730 1.395 1_565 S
C728 C731 1.403 . S
H729 C735 0.930 . S
C730 H716 0.930 . S
C730 C728 1.395 1_545 S
C730 C733 1.403 . S
C731 C728 1.403 . S
C731 C732 1.524 . S
C731 C735 1.400 . S
C732 H717 0.960 . S
C732 H718 0.960 . S
C732 H719 0.960 . S
C732 C731 1.524 . S
C733 C730 1.403 . S
C733 C734 1.392 . S
C733 C737 1.495 . S
C734 C733 1.392 . S
C734 C735 1.385 1_545 S
C734 C736 1.478 . S
C735 H729 0.930 . S
C735 C731 1.400 . S
C735 C734 1.385 1_565 S
C736 C734 1.478 . S
C736 C738 1.381 . S
C736 C742 1.383 . S
C737 C733 1.495 . S
C737 H743 0.959 . S
C737 H744 0.961 . S
C737 H745 0.960 . S
C738 C736 1.381 . S
C738 C739 1.394 . S
C738 H746 0.930 . S
C739 C738 1.394 . S
C739 C740 1.383 . S
C739 H747 0.929 . S
C740 C739 1.383 . S
C740 C741 1.377 . S
C741 H725 0.930 . S
C741 C740 1.377 . S
C741 C742 1.379 . S
C742 H726 0.931 . S
C742 C736 1.383 . S
C742 C741 1.379 . S
H743 C737 0.959 . S
H744 C737 0.961 . S
H745 C737 0.960 . S
H746 C738 0.930 . S
H747 C739 0.929 . S
H748 C756 0.929 . S
H749 C758 0.930 . S
H750 C760 0.930 . S
H751 C763 0.929 . S
H752 C766 0.930 . S
H753 C768 0.960 . S
H754 C768 0.960 . S
H755 C768 0.960 . S
C756 H748 0.929 . S
C756 C757 1.377 . S
C756 C758 1.384 . S
C757 C756 1.377 . S
C757 C763 1.390 . S
C758 H749 0.930 . S
C758 C756 1.384 . S
C758 C759 1.372 . S
C759 C758 1.372 . S
C759 C760 1.400 . S
C759 C764 1.490 . S
C760 H750 0.930 . S
C760 C759 1.400 . S
C760 C763 1.386 . S
H761 C777 0.930 . S
H762 C778 0.931 . S
C763 H751 0.929 . S
C763 C757 1.390 . S
C763 C760 1.386 . S
C764 C759 1.490 . S
C764 C766 1.395 . S
C764 C767 1.403 . S
H765 C771 0.930 . S
C766 H752 0.930 . S
C766 C764 1.395 . S
C766 C769 1.403 . S
C767 C764 1.403 . S
C767 C768 1.524 . S
C767 C771 1.400 . S
C768 H753 0.960 . S
C768 H754 0.960 . S
C768 H755 0.960 . S
C768 C767 1.524 . S
C769 C766 1.403 . S
C769 C770 1.392 . S
C769 C773 1.495 . S
C770 C769 1.392 . S
C770 C771 1.385 . S
C770 C772 1.478 . S
C771 H765 0.930 . S
C771 C767 1.400 . S
C771 C770 1.385 . S
C772 C770 1.478 . S
C772 C774 1.381 . S
C772 C778 1.383 . S
C773 C769 1.495 . S
C773 H779 0.959 . S
C773 H780 0.961 . S
C773 H781 0.960 . S
C774 C772 1.381 . S
C774 C775 1.394 . S
C774 H782 0.930 . S
C775 C774 1.394 . S
C775 C776 1.383 . S
C775 H783 0.929 . S
C776 C775 1.383 . S
C776 C777 1.377 . S
C777 H761 0.930 . S
C777 C776 1.377 . S
C777 C778 1.379 . S
C778 H762 0.931 . S
C778 C772 1.383 . S
C778 C777 1.379 . S
H779 C773 0.959 . S
H780 C773 0.961 . S
H781 C773 0.960 . S
H782 C774 0.930 . S
H783 C775 0.929 . S
H784 C792 0.929 . S
H785 C794 0.930 . S
H786 C796 0.930 . S
H787 C799 0.929 . S
H788 C802 0.930 . S
H789 C804 0.960 . S
H790 C804 0.960 . S
H791 C804 0.960 . S
C792 H784 0.929 . S
C792 C793 1.377 . S
C792 C794 1.384 . S
C793 C792 1.377 . S
C793 C799 1.390 . S
C794 H785 0.930 . S
C794 C792 1.384 . S
C794 C795 1.372 . S
C795 C794 1.372 . S
C795 C796 1.400 . S
C795 C800 1.490 . S
C796 H786 0.930 . S
C796 C795 1.400 . S
C796 C799 1.386 . S
H797 C813 0.930 . S
H798 C814 0.931 . S
C799 H787 0.929 . S
C799 C793 1.390 . S
C799 C796 1.386 . S
C800 C795 1.490 . S
C800 C802 1.395 . S
C800 C803 1.403 . S
H801 C807 0.930 . S
C802 H788 0.930 . S
C802 C800 1.395 . S
C802 C805 1.403 . S
C803 C800 1.403 . S
C803 C804 1.524 . S
C803 C807 1.400 . S
C804 H789 0.960 . S
C804 H790 0.960 . S
C804 H791 0.960 . S
C804 C803 1.524 . S
C805 C802 1.403 . S
C805 C806 1.392 . S
C805 C809 1.495 . S
C806 C805 1.392 . S
C806 C807 1.385 . S
C806 C808 1.478 . S
C807 H801 0.930 . S
C807 C803 1.400 . S
C807 C806 1.385 . S
C808 C806 1.478 . S
C808 C810 1.381 . S
C808 C814 1.383 . S
C809 C805 1.495 . S
C809 H815 0.959 . S
C809 H816 0.961 . S
C809 H817 0.960 . S
C810 C808 1.381 . S
C810 C811 1.394 . S
C810 H818 0.930 . S
C811 C810 1.394 . S
C811 C812 1.383 . S
C811 H819 0.929 . S
C812 C811 1.383 . S
C812 C813 1.377 . S
C813 H797 0.930 . S
C813 C812 1.377 . S
C813 C814 1.379 . S
C814 H798 0.931 . S
C814 C808 1.383 . S
C814 C813 1.379 . S
H815 C809 0.959 . S
H816 C809 0.961 . S
H817 C809 0.960 . S
H818 C810 0.930 . S
H819 C811 0.929 . S
H820 C828 0.929 . S
H821 C830 0.930 1_565 S
H822 C832 0.930 . S
H823 C835 0.929 . S
H824 C838 0.930 . S
H825 C840 0.960 . S
H826 C840 0.960 . S
H827 C840 0.960 . S
C828 H820 0.929 . S
C828 C829 1.377 . S
C828 C830 1.384 . S
C829 C828 1.377 . S
C829 C835 1.390 . S
C830 H821 0.930 1_545 S
C830 C828 1.384 . S
C830 C831 1.372 . S
C831 C830 1.372 . S
C831 C832 1.400 . S
C831 C836 1.490 . S
C832 H822 0.930 . S
C832 C831 1.400 . S
C832 C835 1.386 . S
H833 C849 0.930 . S
H834 C850 0.931 . S
C835 H823 0.929 . S
C835 C829 1.390 . S
C835 C832 1.386 . S
C836 C831 1.490 . S
C836 C838 1.395 1_545 S
C836 C839 1.403 . S
H837 C843 0.930 . S
C838 H824 0.930 . S
C838 C836 1.395 1_565 S
C838 C841 1.403 . S
C839 C836 1.403 . S
C839 C840 1.524 . S
C839 C843 1.400 . S
C840 H825 0.960 . S
C840 H826 0.960 . S
C840 H827 0.960 . S
C840 C839 1.524 . S
C841 C838 1.403 . S
C841 C842 1.392 . S
C841 C845 1.495 . S
C842 C841 1.392 . S
C842 C843 1.385 1_565 S
C842 C844 1.478 . S
C843 H837 0.930 . S
C843 C839 1.400 . S
C843 C842 1.385 1_545 S
C844 C842 1.478 . S
C844 C846 1.381 . S
C844 C850 1.383 . S
C845 C841 1.495 . S
C845 H851 0.959 . S
C845 H852 0.961 . S
C845 H853 0.960 . S
C846 C844 1.381 . S
C846 C847 1.394 . S
C846 H854 0.930 . S
C847 C846 1.394 . S
C847 C848 1.383 . S
C847 H855 0.929 . S
C848 C847 1.383 . S
C848 C849 1.377 . S
C849 H833 0.930 . S
C849 C848 1.377 . S
C849 C850 1.379 . S
C850 H834 0.931 . S
C850 C844 1.383 . S
C850 C849 1.379 . S
H851 C845 0.959 . S
H852 C845 0.961 . S
H853 C845 0.960 . S
H854 C846 0.930 . S
H855 C847 0.929 . S
H856 C864 0.929 . S
H857 C866 0.930 . S
H858 C868 0.930 . S
H859 C871 0.929 . S
H860 C874 0.930 . S
H861 C876 0.960 . S
H862 C876 0.960 . S
H863 C876 0.960 . S
C864 H856 0.929 . S
C864 C865 1.377 . S
C864 C866 1.384 . S
C865 C864 1.377 . S
C865 C871 1.390 . S
C866 H857 0.930 . S
C866 C864 1.384 . S
C866 C867 1.372 . S
C867 C866 1.372 . S
C867 C868 1.400 . S
C867 C872 1.490 . S
C868 H858 0.930 . S
C868 C867 1.400 . S
C868 C871 1.386 . S
H869 C885 0.930 . S
H870 C886 0.931 . S
C871 H859 0.929 . S
C871 C865 1.390 . S
C871 C868 1.386 . S
C872 C867 1.490 . S
C872 C874 1.395 . S
C872 C875 1.403 . S
H873 C879 0.930 . S
C874 H860 0.930 . S
C874 C872 1.395 . S
C874 C877 1.403 . S
C875 C872 1.403 . S
C875 C876 1.524 . S
C875 C879 1.400 . S
C876 H861 0.960 . S
C876 H862 0.960 . S
C876 H863 0.960 . S
C876 C875 1.524 . S
C877 C874 1.403 . S
C877 C878 1.392 . S
C877 C881 1.495 . S
C878 C877 1.392 . S
C878 C879 1.385 . S
C878 C880 1.478 . S
C879 H873 0.930 . S
C879 C875 1.400 . S
C879 C878 1.385 . S
C880 C878 1.478 . S
C880 C882 1.381 . S
C880 C886 1.383 . S
C881 C877 1.495 . S
C881 H887 0.959 . S
C881 H888 0.961 . S
C881 H889 0.960 . S
C882 C880 1.381 . S
C882 C883 1.394 . S
C882 H890 0.930 . S
C883 C882 1.394 . S
C883 C884 1.383 . S
C883 H891 0.929 . S
C884 C883 1.383 . S
C884 C885 1.377 . S
C885 H869 0.930 . S
C885 C884 1.377 . S
C885 C886 1.379 . S
C886 H870 0.931 . S
C886 C880 1.383 . S
C886 C885 1.379 . S
H887 C881 0.959 . S
H888 C881 0.961 . S
H889 C881 0.960 . S
H890 C882 0.930 . S
H891 C883 0.929 . S
H892 C900 0.929 . S
H893 C902 0.930 . S
H894 C904 0.930 . S
H895 C907 0.929 . S
H896 C910 0.930 . S
H897 C912 0.960 . S
H898 C912 0.960 . S
H899 C912 0.960 . S
C900 H892 0.929 . S
C900 C901 1.377 . S
C900 C902 1.384 . S
C901 C900 1.377 . S
C901 C907 1.390 . S
C902 H893 0.930 . S
C902 C900 1.384 . S
C902 C903 1.372 . S
C903 C902 1.372 . S
C903 C904 1.400 . S
C903 C908 1.490 . S
C904 H894 0.930 . S
C904 C903 1.400 . S
C904 C907 1.386 . S
H905 C921 0.930 . S
H906 C922 0.931 . S
C907 H895 0.929 . S
C907 C901 1.390 . S
C907 C904 1.386 . S
C908 C903 1.490 . S
C908 C910 1.395 . S
C908 C911 1.403 . S
H909 C915 0.930 . S
C910 H896 0.930 . S
C910 C908 1.395 . S
C910 C913 1.403 1_545 S
C911 C908 1.403 . S
C911 C912 1.524 . S
C911 C915 1.400 1_545 S
C912 H897 0.960 . S
C912 H898 0.960 . S
C912 H899 0.960 . S
C912 C911 1.524 . S
C913 C910 1.403 1_565 S
C913 C914 1.392 . S
C913 C917 1.495 1_655 S
C914 C913 1.392 . S
C914 C915 1.385 . S
C914 C916 1.478 . S
C915 H909 0.930 . S
C915 C911 1.400 1_565 S
C915 C914 1.385 . S
C916 C914 1.478 . S
C916 C918 1.381 . S
C916 C922 1.383 . S
C917 C913 1.495 1_455 S
C917 H923 0.959 . S
C917 H924 0.961 . S
C917 H925 0.960 . S
C918 C916 1.381 . S
C918 C919 1.394 . S
C918 H926 0.961 . S
C919 C918 1.394 . S
C919 C920 1.383 . S
C919 H927 0.929 . S
C920 C919 1.383 . S
C920 C921 1.377 . S
C921 H905 0.930 . S
C921 C920 1.377 . S
C921 C922 1.379 . S
C922 H906 0.931 . S
C922 C916 1.383 . S
C922 C921 1.379 . S
H923 C917 0.959 . S
H924 C917 0.961 . S
H925 C917 0.960 . S
H926 C918 0.961 . S
H927 C919 0.929 . S
H928 C936 0.929 . S
H929 C938 0.930 . S
H930 C940 0.930 . S
H931 C943 0.929 . S
H932 C946 0.930 . S
H933 C948 0.960 . S
H934 C948 0.960 . S
H935 C948 0.960 . S
C936 H928 0.929 . S
C936 C937 1.377 . S
C936 C938 1.384 . S
C937 C936 1.377 . S
C937 C943 1.390 . S
C938 H929 0.930 . S
C938 C936 1.384 . S
C938 C939 1.372 . S
C939 C938 1.372 . S
C939 C940 1.400 . S
C939 C944 1.490 . S
C940 H930 0.930 . S
C940 C939 1.400 . S
C940 C943 1.386 . S
H941 C957 0.930 . S
H942 C958 0.931 . S
C943 H931 0.929 . S
C943 C937 1.390 . S
C943 C940 1.386 . S
C944 C939 1.490 . S
C944 C946 1.395 1_554 S
C944 C947 1.403 . S
H945 C951 0.929 1_554 S
C946 H932 0.930 . S
C946 C944 1.395 1_556 S
C946 C949 1.403 . S
C947 C944 1.403 . S
C947 C948 1.524 . S
C947 C951 1.376 1_554 S
C948 H933 0.960 . S
C948 H934 0.960 . S
C948 H935 0.960 . S
C948 C947 1.524 . S
C949 C946 1.403 . S
C949 C950 1.392 . S
C949 C953 1.495 . S
C950 C949 1.392 . S
C950 C951 1.411 . S
C950 C952 1.478 . S
C951 H945 0.929 1_556 S
C951 C947 1.376 1_556 S
C951 C950 1.411 . S
C952 C950 1.478 . S
C952 C954 1.381 . S
C952 C958 1.383 . S
C953 C949 1.495 . S
C953 H959 0.959 . S
C953 H960 0.961 . S
C953 H961 0.960 . S
C954 C952 1.381 . S
C954 C955 1.394 . S
C954 H962 0.930 . S
C955 C954 1.394 . S
C955 C956 1.383 . S
C955 H963 0.929 . S
C956 C955 1.383 . S
C956 C957 1.377 . S
C957 H941 0.930 . S
C957 C956 1.377 . S
C957 C958 1.379 . S
C958 H942 0.931 . S
C958 C952 1.383 . S
C958 C957 1.379 . S
H959 C953 0.959 . S
H960 C953 0.961 . S
H961 C953 0.960 . S
H962 C954 0.930 . S
H963 C955 0.929 . S
H964 C972 0.929 . S
H965 C974 0.930 . S
H966 C976 0.930 . S
H967 C979 0.929 . S
H968 C982 0.930 . S
H969 C984 0.960 . S
H970 C984 0.960 . S
H971 C984 0.960 . S
C972 H964 0.929 . S
C972 C973 1.377 . S
C972 C974 1.384 . S
C973 C972 1.377 . S
C973 C979 1.390 . S
C974 H965 0.930 . S
C974 C972 1.384 . S
C974 C975 1.372 . S
C975 C974 1.372 . S
C975 C976 1.400 . S
C975 C980 1.490 . S
C976 H966 0.930 . S
C976 C975 1.400 . S
C976 C979 1.386 . S
H977 C993 0.930 . S
H978 C994 0.931 . S
C979 H967 0.929 . S
C979 C973 1.390 . S
C979 C976 1.386 . S
C980 C975 1.490 . S
C980 C982 1.395 . S
C980 C983 1.403 . S
H981 C987 0.930 . S
C982 H968 0.930 . S
C982 C980 1.395 . S
C982 C985 1.403 1_556 S
C983 C980 1.403 . S
C983 C984 1.524 . S
C983 C987 1.400 1_556 S
C984 H969 0.960 . S
C984 H970 0.960 . S
C984 H971 0.960 . S
C984 C983 1.524 . S
C985 C982 1.403 1_554 S
C985 C986 1.392 . S
C985 C989 1.495 . S
C986 C985 1.392 . S
C986 C987 1.385 . S
C986 C988 1.478 . S
C987 H981 0.930 . S
C987 C983 1.400 1_554 S
C987 C986 1.385 . S
C988 C986 1.478 . S
C988 C990 1.381 . S
C988 C994 1.383 . S
C989 C985 1.495 . S
C989 H995 0.959 . S
C989 H996 0.961 . S
C989 H997 0.960 . S
C990 C988 1.381 . S
C990 C991 1.394 . S
C990 H998 0.930 . S
C991 C990 1.394 . S
C991 C992 1.383 . S
C991 H999 0.929 . S
C992 C991 1.383 . S
C992 C993 1.377 . S
C993 H977 0.930 . S
C993 C992 1.377 . S
C993 C994 1.379 . S
C994 H978 0.931 . S
C994 C988 1.383 . S
C994 C993 1.379 . S
H995 C989 0.959 . S
H996 C989 0.961 . S
H997 C989 0.960 . S
H998 C990 0.930 . S
H999 C991 0.929 . S
H1000 C1008 0.929 . S
H1001 C1010 0.930 . S
H1002 C1012 0.930 . S
H1003 C1015 0.929 . S
H1004 C1018 0.930 . S
H1005 C1020 0.960 . S
H1006 C1020 0.960 . S
H1007 C1020 0.960 . S
C1008 H1000 0.929 . S
C1008 C1009 1.377 . S
C1008 C1010 1.384 . S
C1009 C1008 1.377 . S
C1009 C1015 1.390 . S
C1010 H1001 0.930 . S
C1010 C1008 1.384 . S
C1010 C1011 1.372 . S
C1011 C1010 1.372 . S
C1011 C1012 1.400 . S
C1011 C1016 1.490 . S
C1012 H1002 0.930 . S
C1012 C1011 1.400 . S
C1012 C1015 1.386 . S
H1013 C1029 0.930 . S
H1014 C1030 0.931 . S
C1015 H1003 0.929 . S
C1015 C1009 1.390 . S
C1015 C1012 1.386 . S
C1016 C1011 1.490 . S
C1016 C1018 1.395 . S
C1016 C1019 1.403 . S
H1017 C1023 0.930 . S
C1018 H1004 0.930 . S
C1018 C1016 1.395 . S
C1018 C1021 1.403 . S
C1019 C1016 1.403 . S
C1019 C1020 1.524 . S
C1019 C1023 1.400 . S
C1020 H1005 0.960 . S
C1020 H1006 0.960 . S
C1020 H1007 0.960 . S
C1020 C1019 1.524 . S
C1021 C1018 1.403 . S
C1021 C1022 1.392 . S
C1021 C1025 1.495 . S
C1022 C1021 1.392 . S
C1022 C1023 1.385 . S
C1022 C1024 1.478 . S
C1023 H1017 0.930 . S
C1023 C1019 1.400 . S
C1023 C1022 1.385 . S
C1024 C1022 1.478 . S
C1024 C1026 1.381 . S
C1024 C1030 1.383 . S
C1025 C1021 1.495 . S
C1025 H1031 0.959 . S
C1025 H1032 0.961 . S
C1025 H1033 0.960 . S
C1026 C1024 1.381 . S
C1026 C1027 1.394 . S
C1026 H1034 0.930 . S
C1027 C1026 1.394 . S
C1027 C1028 1.383 . S
C1027 H1035 0.929 . S
C1028 C1027 1.383 . S
C1028 C1029 1.377 . S
C1029 H1013 0.930 . S
C1029 C1028 1.377 . S
C1029 C1030 1.379 . S
C1030 H1014 0.931 . S
C1030 C1024 1.383 . S
C1030 C1029 1.379 . S
H1031 C1025 0.959 . S
H1032 C1025 0.961 . S
H1033 C1025 0.960 . S
H1034 C1026 0.930 . S
H1035 C1027 0.929 . S
H1036 C1044 0.929 . S
H1037 C1046 0.930 . S
H1038 C1048 0.930 . S
H1039 C1051 0.929 . S
H1040 C1054 0.930 . S
H1041 C1056 0.960 . S
H1042 C1056 0.960 . S
H1043 C1056 0.960 . S
C1044 H1036 0.929 . S
C1044 C1045 1.377 . S
C1044 C1046 1.384 . S
C1045 C1044 1.377 . S
C1045 C1051 1.390 . S
C1046 H1037 0.930 . S
C1046 C1044 1.384 . S
C1046 C1047 1.372 . S
C1047 C1046 1.372 . S
C1047 C1048 1.400 . S
C1047 C1052 1.490 . S
C1048 H1038 0.930 . S
C1048 C1047 1.400 . S
C1048 C1051 1.386 . S
H1049 C1065 0.930 . S
H1050 C1066 0.931 . S
C1051 H1039 0.929 . S
C1051 C1045 1.390 . S
C1051 C1048 1.386 . S
C1052 C1047 1.490 . S
C1052 C1054 1.395 . S
C1052 C1055 1.403 . S
H1053 C1059 0.930 . S
C1054 H1040 0.930 . S
C1054 C1052 1.395 . S
C1054 C1057 1.403 . S
C1055 C1052 1.403 . S
C1055 C1056 1.524 . S
C1055 C1059 1.400 . S
C1056 H1041 0.960 . S
C1056 H1042 0.960 . S
C1056 H1043 0.960 . S
C1056 C1055 1.524 . S
C1057 C1054 1.403 . S
C1057 C1058 1.392 . S
C1057 C1061 1.495 . S
C1058 C1057 1.392 . S
C1058 C1059 1.385 . S
C1058 C1060 1.478 . S
C1059 H1053 0.930 . S
C1059 C1055 1.400 . S
C1059 C1058 1.385 . S
C1060 C1058 1.478 . S
C1060 C1062 1.381 . S
C1060 C1066 1.383 . S
C1061 C1057 1.495 . S
C1061 H1067 0.959 . S
C1061 H1068 0.961 . S
C1061 H1069 0.960 . S
C1062 C1060 1.381 . S
C1062 C1063 1.394 . S
C1062 H1070 0.930 . S
C1063 C1062 1.394 . S
C1063 C1064 1.383 . S
C1063 H1071 0.929 . S
C1064 C1063 1.383 . S
C1064 C1065 1.377 . S
C1065 H1049 0.930 . S
C1065 C1064 1.377 . S
C1065 C1066 1.379 . S
C1066 H1050 0.931 . S
C1066 C1060 1.383 . S
C1066 C1065 1.379 . S
H1067 C1061 0.959 . S
H1068 C1061 0.961 . S
H1069 C1061 0.960 . S
H1070 C1062 0.930 . S
H1071 C1063 0.929 . S
H1072 C1080 0.929 . S
H1073 C1082 0.930 . S
H1074 C1084 0.930 . S
H1075 C1087 0.929 . S
H1076 C1090 0.930 . S
H1077 C1092 0.960 . S
H1078 C1092 0.960 . S
H1079 C1092 0.960 1_556 S
C1080 H1072 0.929 . S
C1080 C1081 1.377 . S
C1080 C1082 1.384 . S
C1081 C1080 1.377 . S
C1081 C1087 1.390 . S
C1082 H1073 0.930 . S
C1082 C1080 1.384 . S
C1082 C1083 1.372 . S
C1083 C1082 1.372 . S
C1083 C1084 1.400 . S
C1083 C1088 1.490 . S
C1084 H1074 0.930 . S
C1084 C1083 1.400 . S
C1084 C1087 1.386 . S
H1085 C1101 0.930 . S
H1086 C1102 0.931 . S
C1087 H1075 0.929 . S
C1087 C1081 1.390 . S
C1087 C1084 1.386 . S
C1088 C1083 1.490 . S
C1088 C1090 1.395 . S
C1088 C1091 1.362 1_556 S
H1089 C1095 0.930 . S
C1090 H1076 0.930 . S
C1090 C1088 1.395 . S
C1090 C1093 1.403 . S
C1091 C1088 1.362 1_554 S
C1091 C1092 1.531 . S
C1091 C1095 1.437 . S
C1092 H1077 0.960 . S
C1092 H1078 0.960 . S
C1092 H1079 0.960 1_554 S
C1092 C1091 1.531 . S
C1093 C1090 1.403 . S
C1093 C1094 1.392 1_556 S
C1093 C1097 1.495 . S
C1094 C1093 1.392 1_554 S
C1094 C1095 1.385 . S
C1094 C1096 1.478 . S
C1095 H1089 0.930 . S
C1095 C1091 1.437 . S
C1095 C1094 1.385 . S
C1096 C1094 1.478 . S
C1096 C1098 1.381 . S
C1096 C1102 1.383 . S
C1097 C1093 1.495 . S
C1097 H1103 0.959 . S
C1097 H1104 0.961 . S
C1097 H1105 0.960 1_556 S
C1098 C1096 1.381 . S
C1098 C1099 1.394 . S
C1098 H1106 0.930 . S
C1099 C1098 1.394 . S
C1099 C1100 1.383 . S
C1099 H1107 0.929 . S
C1100 C1099 1.383 . S
C1100 C1101 1.377 . S
C1101 H1085 0.930 . S
C1101 C1100 1.377 . S
C1101 C1102 1.379 . S
C1102 H1086 0.931 . S
C1102 C1096 1.383 . S
C1102 C1101 1.379 . S
H1103 C1097 0.959 . S
H1104 C1097 0.961 . S
H1105 C1097 0.960 1_554 S
H1106 C1098 0.930 . S
H1107 C1099 0.929 . S
H1108 C1116 0.929 . S
H1109 C1118 0.930 . S
H1110 C1120 0.930 . S
H1111 C1123 0.929 . S
H1112 C1126 0.930 . S
H1113 C1128 0.960 . S
H1114 C1128 0.960 . S
H1115 C1128 0.960 1_556 S
C1116 H1108 0.929 . S
C1116 C1117 1.377 . S
C1116 C1118 1.384 . S
C1117 C1116 1.377 . S
C1117 C1123 1.390 . S
C1118 H1109 0.930 . S
C1118 C1116 1.384 . S
C1118 C1119 1.372 . S
C1119 C1118 1.372 . S
C1119 C1120 1.400 . S
C1119 C1124 1.490 . S
C1120 H1110 0.930 . S
C1120 C1119 1.400 . S
C1120 C1123 1.386 . S
H1121 C1137 0.930 . S
H1122 C1138 0.931 . S
C1123 H1111 0.929 . S
C1123 C1117 1.390 . S
C1123 C1120 1.386 . S
C1124 C1119 1.490 . S
C1124 C1126 1.395 . S
C1124 C1127 1.403 1_556 S
H1125 C1131 0.930 . S
C1126 H1112 0.930 . S
C1126 C1124 1.395 . S
C1126 C1129 1.403 . S
C1127 C1124 1.403 1_554 S
C1127 C1128 1.524 . S
C1127 C1131 1.400 . S
C1128 H1113 0.960 . S
C1128 H1114 0.960 . S
C1128 H1115 0.960 1_554 S
C1128 C1127 1.524 . S
C1129 C1126 1.403 . S
C1129 C1130 1.392 1_556 S
C1129 C1133 1.495 . S
C1130 C1129 1.392 1_554 S
C1130 C1131 1.385 . S
C1130 C1132 1.478 . S
C1131 H1125 0.930 . S
C1131 C1127 1.400 . S
C1131 C1130 1.385 . S
C1132 C1130 1.478 . S
C1132 C1134 1.381 . S
C1132 C1138 1.383 . S
C1133 C1129 1.495 . S
C1133 H1139 0.959 . S
C1133 H1140 0.961 . S
C1133 H1141 0.960 1_556 S
C1134 C1132 1.381 . S
C1134 C1135 1.394 . S
C1134 H1142 0.930 . S
C1135 C1134 1.394 . S
C1135 C1136 1.383 . S
C1135 H1143 0.929 . S
C1136 C1135 1.383 . S
C1136 C1137 1.377 . S
C1137 H1121 0.930 . S
C1137 C1136 1.377 . S
C1137 C1138 1.379 . S
C1138 H1122 0.931 . S
C1138 C1132 1.383 . S
C1138 C1137 1.379 . S
H1139 C1133 0.959 . S
H1140 C1133 0.961 . S
H1141 C1133 0.960 1_554 S
H1142 C1134 0.930 . S
H1143 C1135 0.929 . S
H1144 C1152 0.929 . S
H1145 C1154 0.930 . S
H1146 C1156 0.930 . S
H1147 C1159 0.929 . S
H1148 C1162 0.930 . S
H1149 C1164 0.960 . S
H1150 C1164 0.960 . S
H1151 C1164 0.960 . S
C1152 H1144 0.929 . S
C1152 C1153 1.377 . S
C1152 C1154 1.384 . S
C1153 C1152 1.377 . S
C1153 C1159 1.390 . S
C1154 H1145 0.930 . S
C1154 C1152 1.384 . S
C1154 C1155 1.372 . S
C1155 C1154 1.372 . S
C1155 C1156 1.400 . S
C1155 C1160 1.490 . S
C1156 H1146 0.930 . S
C1156 C1155 1.400 . S
C1156 C1159 1.386 . S
H1157 C1173 0.930 . S
H1158 C1174 0.931 . S
C1159 H1147 0.929 . S
C1159 C1153 1.390 . S
C1159 C1156 1.386 . S
C1160 C1155 1.490 . S
C1160 C1162 1.395 . S
C1160 C1163 1.403 . S
H1161 C1167 0.930 . S
C1162 H1148 0.930 . S
C1162 C1160 1.395 . S
C1162 C1165 1.403 . S
C1163 C1160 1.403 . S
C1163 C1164 1.524 . S
C1163 C1167 1.400 . S
C1164 H1149 0.960 . S
C1164 H1150 0.960 . S
C1164 H1151 0.960 . S
C1164 C1163 1.524 . S
C1165 C1162 1.403 . S
C1165 C1166 1.392 . S
C1165 C1169 1.495 . S
C1166 C1165 1.392 . S
C1166 C1167 1.385 . S
C1166 C1168 1.478 . S
C1167 H1161 0.930 . S
C1167 C1163 1.400 . S
C1167 C1166 1.385 . S
C1168 C1166 1.478 . S
C1168 C1170 1.381 . S
C1168 C1174 1.383 . S
C1169 C1165 1.495 . S
C1169 H1175 0.959 . S
C1169 H1176 0.961 . S
C1169 H1177 0.960 . S
C1170 C1168 1.381 . S
C1170 C1171 1.394 . S
C1170 H1178 0.930 . S
C1171 C1170 1.394 . S
C1171 C1172 1.383 . S
C1171 H1179 0.929 . S
C1172 C1171 1.383 . S
C1172 C1173 1.377 . S
C1173 H1157 0.930 . S
C1173 C1172 1.377 . S
C1173 C1174 1.379 . S
C1174 H1158 0.931 . S
C1174 C1168 1.383 . S
C1174 C1173 1.379 . S
H1175 C1169 0.959 . S
H1176 C1169 0.961 . S
H1177 C1169 0.960 . S
H1178 C1170 0.930 . S
H1179 C1171 0.929 . S
H1180 C1188 0.929 . S
H1181 C1190 0.930 . S
H1182 C1192 0.930 . S
H1183 C1195 0.929 . S
H1184 C1198 0.930 . S
H1185 C1200 0.960 . S
H1186 C1200 0.960 . S
H1187 C1200 0.960 . S
C1188 H1180 0.929 . S
C1188 C1189 1.377 . S
C1188 C1190 1.384 . S
C1189 C1188 1.377 . S
C1189 C1195 1.390 . S
C1190 H1181 0.930 . S
C1190 C1188 1.384 . S
C1190 C1191 1.372 . S
C1191 C1190 1.372 . S
C1191 C1192 1.400 . S
C1191 C1196 1.490 . S
C1192 H1182 0.930 . S
C1192 C1191 1.400 . S
C1192 C1195 1.386 . S
H1193 C1209 0.930 . S
H1194 C1210 0.931 . S
C1195 H1183 0.929 . S
C1195 C1189 1.390 . S
C1195 C1192 1.386 . S
C1196 C1191 1.490 . S
C1196 C1198 1.395 . S
C1196 C1199 1.403 . S
H1197 C1203 0.930 . S
C1198 H1184 0.930 . S
C1198 C1196 1.395 . S
C1198 C1201 1.403 . S
C1199 C1196 1.403 . S
C1199 C1200 1.524 . S
C1199 C1203 1.400 . S
C1200 H1185 0.960 . S
C1200 H1186 0.960 . S
C1200 H1187 0.960 . S
C1200 C1199 1.524 . S
C1201 C1198 1.403 . S
C1201 C1202 1.392 . S
C1201 C1205 1.495 . S
C1202 C1201 1.392 . S
C1202 C1203 1.385 . S
C1202 C1204 1.478 . S
C1203 H1197 0.930 . S
C1203 C1199 1.400 . S
C1203 C1202 1.385 . S
C1204 C1202 1.478 . S
C1204 C1206 1.381 . S
C1204 C1210 1.383 . S
C1205 C1201 1.495 . S
C1205 H1211 0.959 . S
C1205 H1212 0.961 . S
C1205 H1213 0.960 . S
C1206 C1204 1.381 . S
C1206 C1207 1.394 . S
C1206 H1214 0.930 . S
C1207 C1206 1.394 . S
C1207 C1208 1.383 . S
C1207 H1215 0.929 . S
C1208 C1207 1.383 . S
C1208 C1209 1.377 . S
C1209 H1193 0.930 . S
C1209 C1208 1.377 . S
C1209 C1210 1.379 . S
C1210 H1194 0.931 . S
C1210 C1204 1.383 . S
C1210 C1209 1.379 . S
H1211 C1205 0.959 . S
H1212 C1205 0.961 . S
H1213 C1205 0.960 . S
H1214 C1206 0.930 . S
H1215 C1207 0.929 . S
H1216 C1224 0.929 . S
H1217 C1226 0.930 . S
H1218 C1228 0.930 . S
H1219 C1231 0.929 . S
H1220 C1234 0.930 . S
H1221 C1236 0.960 . S
H1222 C1236 0.960 . S
H1223 C1236 0.960 . S
C1224 H1216 0.929 . S
C1224 C1225 1.377 . S
C1224 C1226 1.384 . S
C1225 C1224 1.377 . S
C1225 C1231 1.390 . S
C1226 H1217 0.930 . S
C1226 C1224 1.384 . S
C1226 C1227 1.372 . S
C1227 C1226 1.372 . S
C1227 C1228 1.400 . S
C1227 C1232 1.490 . S
C1228 H1218 0.930 . S
C1228 C1227 1.400 . S
C1228 C1231 1.386 . S
H1229 C1245 0.930 . S
H1230 C1246 0.931 . S
C1231 H1219 0.929 . S
C1231 C1225 1.390 . S
C1231 C1228 1.386 . S
C1232 C1227 1.490 . S
C1232 C1234 1.395 . S
C1232 C1235 1.403 . S
H1233 C1239 0.930 . S
C1234 H1220 0.930 . S
C1234 C1232 1.395 . S
C1234 C1237 1.403 . S
C1235 C1232 1.403 . S
C1235 C1236 1.524 . S
C1235 C1239 1.400 . S
C1236 H1221 0.960 . S
C1236 H1222 0.960 . S
C1236 H1223 0.960 . S
C1236 C1235 1.524 . S
C1237 C1234 1.403 . S
C1237 C1238 1.392 . S
C1237 C1241 1.495 1_545 S
C1238 C1237 1.392 . S
C1238 C1239 1.385 . S
C1238 C1240 1.478 1_545 S
C1239 H1233 0.930 . S
C1239 C1235 1.400 . S
C1239 C1238 1.385 . S
C1240 C1238 1.478 1_565 S
C1240 C1242 1.381 1_565 S
C1240 C1246 1.383 . S
C1241 C1237 1.495 1_565 S
C1241 H1247 0.959 . S
C1241 H1248 0.961 . S
C1241 H1249 0.971 . S
C1242 C1240 1.381 1_545 S
C1242 C1243 1.394 1_545 S
C1242 H1250 0.930 . S
C1243 C1242 1.394 1_565 S
C1243 C1244 1.383 . S
C1243 H1251 0.929 1_565 S
C1244 C1243 1.383 . S
C1244 C1245 1.377 . S
C1245 H1229 0.930 . S
C1245 C1244 1.377 . S
C1245 C1246 1.379 . S
C1246 H1230 0.931 . S
C1246 C1240 1.383 . S
C1246 C1245 1.379 . S
H1247 C1241 0.959 . S
H1248 C1241 0.961 . S
H1249 C1241 0.971 . S
H1250 C1242 0.930 . S
H1251 C1243 0.929 1_545 S
H1252 C1260 0.929 . S
H1253 C1262 0.930 . S
H1254 C1264 0.930 . S
H1255 C1267 0.929 . S
H1256 C1270 0.930 . S
H1257 C1272 0.960 . S
H1258 C1272 0.960 . S
H1259 C1272 0.960 . S
C1260 H1252 0.929 . S
C1260 C1261 1.377 . S
C1260 C1262 1.384 . S
C1261 C1260 1.377 . S
C1261 C1267 1.390 . S
C1262 H1253 0.930 . S
C1262 C1260 1.384 . S
C1262 C1263 1.372 . S
C1263 C1262 1.372 . S
C1263 C1264 1.400 . S
C1263 C1268 1.490 . S
C1264 H1254 0.930 . S
C1264 C1263 1.400 . S
C1264 C1267 1.386 . S
H1265 C1281 0.930 . S
H1266 C1282 0.931 . S
C1267 H1255 0.929 . S
C1267 C1261 1.390 . S
C1267 C1264 1.386 . S
C1268 C1263 1.490 . S
C1268 C1270 1.395 . S
C1268 C1271 1.403 . S
H1269 C1275 0.930 . S
C1270 H1256 0.930 . S
C1270 C1268 1.395 . S
C1270 C1273 1.403 . S
C1271 C1268 1.403 . S
C1271 C1272 1.524 . S
C1271 C1275 1.400 . S
C1272 H1257 0.960 . S
C1272 H1258 0.960 . S
C1272 H1259 0.960 . S
C1272 C1271 1.524 . S
C1273 C1270 1.403 . S
C1273 C1274 1.392 . S
C1273 C1277 1.495 . S
C1274 C1273 1.392 . S
C1274 C1275 1.385 . S
C1274 C1276 1.478 . S
C1275 H1269 0.930 . S
C1275 C1271 1.400 . S
C1275 C1274 1.385 . S
C1276 C1274 1.478 . S
C1276 C1278 1.381 . S
C1276 C1282 1.383 . S
C1277 C1273 1.495 . S
C1277 H1283 0.959 . S
C1277 H1284 0.961 . S
C1277 H1285 0.960 . S
C1278 C1276 1.381 . S
C1278 C1279 1.394 . S
C1278 H1286 0.930 . S
C1279 C1278 1.394 . S
C1279 C1280 1.383 . S
C1279 H1287 0.929 . S
C1280 C1279 1.383 . S
C1280 C1281 1.377 . S
C1281 H1265 0.930 . S
C1281 C1280 1.377 . S
C1281 C1282 1.379 . S
C1282 H1266 0.931 . S
C1282 C1276 1.383 . S
C1282 C1281 1.379 . S
H1283 C1277 0.959 . S
H1284 C1277 0.961 . S
H1285 C1277 0.960 . S
H1286 C1278 0.930 . S
H1287 C1279 0.929 . S
H1288 C1296 0.929 . S
H1289 C1298 0.930 . S
H1290 C1300 0.930 . S
H1291 C1303 0.929 . S
H1292 C1306 0.930 . S
H1293 C1308 0.960 . S
H1294 C1308 0.960 . S
H1295 C1308 0.960 . S
C1296 H1288 0.929 . S
C1296 C1297 1.377 . S
C1296 C1298 1.384 . S
C1297 C1296 1.377 . S
C1297 C1303 1.390 . S
C1298 H1289 0.930 . S
C1298 C1296 1.384 . S
C1298 C1299 1.372 . S
C1299 C1298 1.372 . S
C1299 C1300 1.400 . S
C1299 C1304 1.490 . S
C1300 H1290 0.930 . S
C1300 C1299 1.400 . S
C1300 C1303 1.386 . S
H1301 C1317 0.930 . S
H1302 C1318 0.931 . S
C1303 H1291 0.929 . S
C1303 C1297 1.390 . S
C1303 C1300 1.386 . S
C1304 C1299 1.490 . S
C1304 C1306 1.395 . S
C1304 C1307 1.403 . S
H1305 C1311 0.930 . S
C1306 H1292 0.930 . S
C1306 C1304 1.395 . S
C1306 C1309 1.403 . S
C1307 C1304 1.403 . S
C1307 C1308 1.524 1_565 S
C1307 C1311 1.400 1_565 S
C1308 H1293 0.960 . S
C1308 H1294 0.960 . S
C1308 H1295 0.960 . S
C1308 C1307 1.524 1_545 S
C1309 C1306 1.403 . S
C1309 C1310 1.392 . S
C1309 C1313 1.495 . S
C1310 C1309 1.392 . S
C1310 C1311 1.385 1_565 S
C1310 C1312 1.479 1_565 S
C1311 H1305 0.930 . S
C1311 C1307 1.400 1_545 S
C1311 C1310 1.385 1_545 S
C1312 C1310 1.479 1_545 S
C1312 C1314 1.382 1_545 S
C1312 C1318 1.381 . S
C1313 C1309 1.495 . S
C1313 H1319 0.959 . S
C1313 H1320 0.961 . S
C1313 H1321 0.960 . S
C1314 C1312 1.382 1_565 S
C1314 C1315 1.394 1_565 S
C1314 H1322 0.930 . S
C1315 C1314 1.394 1_545 S
C1315 C1316 1.383 . S
C1315 H1323 0.929 . S
C1316 C1315 1.383 . S
C1316 C1317 1.377 . S
C1317 H1301 0.930 . S
C1317 C1316 1.377 . S
C1317 C1318 1.379 . S
C1318 H1302 0.931 . S
C1318 C1312 1.381 . S
C1318 C1317 1.379 . S
H1319 C1313 0.959 . S
H1320 C1313 0.961 . S
H1321 C1313 0.960 . S
H1322 C1314 0.930 . S
H1323 C1315 0.929 . S
H1324 C1332 0.929 . S
H1325 C1334 0.930 . S
H1326 C1336 0.930 . S
H1327 C1339 0.929 . S
H1328 C1342 0.930 . S
H1329 C1344 0.960 . S
H1330 C1344 0.960 . S
H1331 C1344 0.960 . S
C1332 H1324 0.929 . S
C1332 C1333 1.377 . S
C1332 C1334 1.384 . S
C1333 C1332 1.377 . S
C1333 C1339 1.390 . S
C1334 H1325 0.930 . S
C1334 C1332 1.384 . S
C1334 C1335 1.372 . S
C1335 C1334 1.372 . S
C1335 C1336 1.400 . S
C1335 C1340 1.490 . S
C1336 H1326 0.930 . S
C1336 C1335 1.400 . S
C1336 C1339 1.386 . S
H1337 C1353 0.930 . S
H1338 C1354 0.931 . S
C1339 H1327 0.929 . S
C1339 C1333 1.390 . S
C1339 C1336 1.386 . S
C1340 C1335 1.490 . S
C1340 C1342 1.395 . S
C1340 C1343 1.403 . S
H1341 C1347 0.930 . S
C1342 H1328 0.930 . S
C1342 C1340 1.395 . S
C1342 C1345 1.403 . S
C1343 C1340 1.403 . S
C1343 C1344 1.524 . S
C1343 C1347 1.400 . S
C1344 H1329 0.960 . S
C1344 H1330 0.960 . S
C1344 H1331 0.960 . S
C1344 C1343 1.524 . S
C1345 C1342 1.403 . S
C1345 C1346 1.392 . S
C1345 C1349 1.495 . S
C1346 C1345 1.392 . S
C1346 C1347 1.385 . S
C1346 C1348 1.478 . S
C1347 H1341 0.930 . S
C1347 C1343 1.400 . S
C1347 C1346 1.385 . S
C1348 C1346 1.478 . S
C1348 C1350 1.381 . S
C1348 C1354 1.383 . S
C1349 C1345 1.495 . S
C1349 H1355 0.959 . S
C1349 H1356 0.961 . S
C1349 H1357 0.960 . S
C1350 C1348 1.381 . S
C1350 C1351 1.394 . S
C1350 H1358 0.930 . S
C1351 C1350 1.394 . S
C1351 C1352 1.383 . S
C1351 H1359 0.929 . S
C1352 C1351 1.383 . S
C1352 C1353 1.377 . S
C1353 H1337 0.930 . S
C1353 C1352 1.377 . S
C1353 C1354 1.379 . S
C1354 H1338 0.931 . S
C1354 C1348 1.383 . S
C1354 C1353 1.379 . S
H1355 C1349 0.959 . S
H1356 C1349 0.961 . S
H1357 C1349 0.960 . S
H1358 C1350 0.930 . S
H1359 C1351 0.929 . S
H1360 C1368 0.931 . S
H1361 C1370 0.930 . S
H1362 C1372 0.930 . S
H1363 C1375 0.929 . S
H1364 C1378 0.930 . S
H1365 C1380 0.960 . S
H1366 C1380 0.960 . S
H1367 C1380 0.960 . S
C1368 H1360 0.931 . S
C1368 C1369 1.377 . S
C1368 C1370 1.384 1_545 S
C1369 C1368 1.377 . S
C1369 C1375 1.390 . S
C1370 H1361 0.930 . S
C1370 C1368 1.384 1_565 S
C1370 C1371 1.372 1_565 S
C1371 C1370 1.372 1_545 S
C1371 C1372 1.400 . S
C1371 C1376 1.490 1_545 S
C1372 H1362 0.930 . S
C1372 C1371 1.400 . S
C1372 C1375 1.386 . S
H1373 C1389 0.930 . S
H1374 C1390 0.931 . S
C1375 H1363 0.929 . S
C1375 C1369 1.390 . S
C1375 C1372 1.386 . S
C1376 C1371 1.490 1_565 S
C1376 C1378 1.395 . S
C1376 C1379 1.403 1_565 S
H1377 C1383 0.930 1_545 S
C1378 H1364 0.930 . S
C1378 C1376 1.395 . S
C1378 C1381 1.403 . S
C1379 C1376 1.403 1_545 S
C1379 C1380 1.524 . S
C1379 C1383 1.400 1_545 S
C1380 H1365 0.960 . S
C1380 H1366 0.960 . S
C1380 H1367 0.960 . S
C1380 C1379 1.524 . S
C1381 C1378 1.403 . S
C1381 C1382 1.392 . S
C1381 C1385 1.495 . S
C1382 C1381 1.392 . S
C1382 C1383 1.385 . S
C1382 C1384 1.478 . S
C1383 H1377 0.930 1_565 S
C1383 C1379 1.400 1_565 S
C1383 C1382 1.385 . S
C1384 C1382 1.478 . S
C1384 C1386 1.381 . S
C1384 C1390 1.383 . S
C1385 C1381 1.495 . S
C1385 H1391 0.959 . S
C1385 H1392 0.961 . S
C1385 H1393 0.960 . S
C1386 C1384 1.381 . S
C1386 C1387 1.394 . S
C1386 H1394 0.930 . S
C1387 C1386 1.394 . S
C1387 C1388 1.383 . S
C1387 H1395 0.929 . S
C1388 C1387 1.383 . S
C1388 C1389 1.377 . S
C1389 H1373 0.930 . S
C1389 C1388 1.377 . S
C1389 C1390 1.379 . S
C1390 H1374 0.931 . S
C1390 C1384 1.383 . S
C1390 C1389 1.379 . S
H1391 C1385 0.959 . S
H1392 C1385 0.961 . S
H1393 C1385 0.960 . S
H1394 C1386 0.930 . S
H1395 C1387 0.929 . S
H1396 C1404 0.929 . S
H1397 C1406 0.930 . S
H1398 C1408 0.930 . S
H1399 C1411 0.929 . S
H1400 C1414 0.930 . S
H1401 C1416 0.960 . S
H1402 C1416 0.960 . S
H1403 C1416 0.960 . S
C1404 H1396 0.929 . S
C1404 C1405 1.377 . S
C1404 C1406 1.384 . S
C1405 C1404 1.377 . S
C1405 C1411 1.390 . S
C1406 H1397 0.930 . S
C1406 C1404 1.384 . S
C1406 C1407 1.372 . S
C1407 C1406 1.372 . S
C1407 C1408 1.400 . S
C1407 C1412 1.490 . S
C1408 H1398 0.930 . S
C1408 C1407 1.400 . S
C1408 C1411 1.386 . S
H1409 C1425 0.930 . S
H1410 C1426 0.931 . S
C1411 H1399 0.929 . S
C1411 C1405 1.390 . S
C1411 C1408 1.386 . S
C1412 C1407 1.490 . S
C1412 C1414 1.395 . S
C1412 C1415 1.403 . S
H1413 C1419 0.930 . S
C1414 H1400 0.930 . S
C1414 C1412 1.395 . S
C1414 C1417 1.403 . S
C1415 C1412 1.403 . S
C1415 C1416 1.524 . S
C1415 C1419 1.400 . S
C1416 H1401 0.960 . S
C1416 H1402 0.960 . S
C1416 H1403 0.960 . S
C1416 C1415 1.524 . S
C1417 C1414 1.403 . S
C1417 C1418 1.392 . S
C1417 C1421 1.495 . S
C1418 C1417 1.392 . S
C1418 C1419 1.385 . S
C1418 C1420 1.478 . S
C1419 H1413 0.930 . S
C1419 C1415 1.400 . S
C1419 C1418 1.385 . S
C1420 C1418 1.478 . S
C1420 C1422 1.381 . S
C1420 C1426 1.383 . S
C1421 C1417 1.495 . S
C1421 H1427 0.959 . S
C1421 H1428 0.961 . S
C1421 H1429 0.960 . S
C1422 C1420 1.381 . S
C1422 C1423 1.394 . S
C1422 H1430 0.930 . S
C1423 C1422 1.394 . S
C1423 C1424 1.383 . S
C1423 H1431 0.929 . S
C1424 C1423 1.383 . S
C1424 C1425 1.377 . S
C1425 H1409 0.930 . S
C1425 C1424 1.377 . S
C1425 C1426 1.379 . S
C1426 H1410 0.931 . S
C1426 C1420 1.383 . S
C1426 C1425 1.379 . S
H1427 C1421 0.959 . S
H1428 C1421 0.961 . S
H1429 C1421 0.960 . S
H1430 C1422 0.930 . S
H1431 C1423 0.929 . S
H1432 C1440 0.929 . S
H1433 C1442 0.930 . S
H1434 C1444 0.930 . S
H1435 C1447 0.929 . S
H1436 C1450 0.930 . S
H1437 C1452 0.960 . S
H1438 C1452 0.960 . S
H1439 C1452 0.960 . S
C1440 H1432 0.929 . S
C1440 C1441 1.377 . S
C1440 C1442 1.384 . S
C1441 C1440 1.377 . S
C1441 C1447 1.390 . S
C1442 H1433 0.930 . S
C1442 C1440 1.384 . S
C1442 C1443 1.372 . S
C1443 C1442 1.372 . S
C1443 C1444 1.400 . S
C1443 C1448 1.490 1_565 S
C1444 H1434 0.930 . S
C1444 C1443 1.400 . S
C1444 C1447 1.386 . S
H1445 C1461 0.930 . S
H1446 C1462 0.931 . S
C1447 H1435 0.929 . S
C1447 C1441 1.390 . S
C1447 C1444 1.386 . S
C1448 C1443 1.490 1_545 S
C1448 C1450 1.395 . S
C1448 C1451 1.403 1_545 S
H1449 C1455 0.940 . S
C1450 H1436 0.930 . S
C1450 C1448 1.395 . S
C1450 C1453 1.403 . S
C1451 C1448 1.403 1_565 S
C1451 C1452 1.524 . S
C1451 C1455 1.400 1_565 S
C1452 H1437 0.960 . S
C1452 H1438 0.960 . S
C1452 H1439 0.960 . S
C1452 C1451 1.524 . S
C1453 C1450 1.403 . S
C1453 C1454 1.392 . S
C1453 C1457 1.495 . S
C1454 C1453 1.392 . S
C1454 C1455 1.385 . S
C1454 C1456 1.478 . S
C1455 H1449 0.940 . S
C1455 C1451 1.400 1_545 S
C1455 C1454 1.385 . S
C1456 C1454 1.478 . S
C1456 C1458 1.381 . S
C1456 C1462 1.383 . S
C1457 C1453 1.495 . S
C1457 H1463 0.959 . S
C1457 H1464 0.961 . S
C1457 H1465 0.960 . S
C1458 C1456 1.381 . S
C1458 C1459 1.394 . S
C1458 H1466 0.930 . S
C1459 C1458 1.394 . S
C1459 C1460 1.383 . S
C1459 H1467 0.929 . S
C1460 C1459 1.383 . S
C1460 C1461 1.377 . S
C1461 H1445 0.930 . S
C1461 C1460 1.377 . S
C1461 C1462 1.379 . S
C1462 H1446 0.931 . S
C1462 C1456 1.383 . S
C1462 C1461 1.379 . S
H1463 C1457 0.959 . S
H1464 C1457 0.961 . S
H1465 C1457 0.960 . S
H1466 C1458 0.930 . S
H1467 C1459 0.929 . S
H1468 C1476 0.929 . S
H1469 C1478 0.930 . S
H1470 C1480 0.930 . S
H1471 C1483 0.929 . S
H1472 C1486 0.930 . S
H1473 C1488 0.960 . S
H1474 C1488 0.960 . S
H1475 C1488 0.960 . S
C1476 H1468 0.929 . S
C1476 C1477 1.377 . S
C1476 C1478 1.384 . S
C1477 C1476 1.377 . S
C1477 C1483 1.390 . S
C1478 H1469 0.930 . S
C1478 C1476 1.384 . S
C1478 C1479 1.372 . S
C1479 C1478 1.372 . S
C1479 C1480 1.400 . S
C1479 C1484 1.490 . S
C1480 H1470 0.930 . S
C1480 C1479 1.400 . S
C1480 C1483 1.386 . S
H1481 C1497 0.930 . S
H1482 C1498 0.931 . S
C1483 H1471 0.929 . S
C1483 C1477 1.390 . S
C1483 C1480 1.386 . S
C1484 C1479 1.490 . S
C1484 C1486 1.395 . S
C1484 C1487 1.403 . S
H1485 C1491 0.930 . S
C1486 H1472 0.930 . S
C1486 C1484 1.395 . S
C1486 C1489 1.403 . S
C1487 C1484 1.403 . S
C1487 C1488 1.524 . S
C1487 C1491 1.400 . S
C1488 H1473 0.960 . S
C1488 H1474 0.960 . S
C1488 H1475 0.960 . S
C1488 C1487 1.524 . S
C1489 C1486 1.403 . S
C1489 C1490 1.392 . S
C1489 C1493 1.495 . S
C1490 C1489 1.392 . S
C1490 C1491 1.385 . S
C1490 C1492 1.478 . S
C1491 H1485 0.930 . S
C1491 C1487 1.400 . S
C1491 C1490 1.385 . S
C1492 C1490 1.478 . S
C1492 C1494 1.381 . S
C1492 C1498 1.383 . S
C1493 C1489 1.495 . S
C1493 H1499 0.959 . S
C1493 H1500 0.961 . S
C1493 H1501 0.960 . S
C1494 C1492 1.381 . S
C1494 C1495 1.394 . S
C1494 H1502 0.930 . S
C1495 C1494 1.394 . S
C1495 C1496 1.383 . S
C1495 H1503 0.929 . S
C1496 C1495 1.383 . S
C1496 C1497 1.377 . S
C1497 H1481 0.930 . S
C1497 C1496 1.377 . S
C1497 C1498 1.379 . S
C1498 H1482 0.931 . S
C1498 C1492 1.383 . S
C1498 C1497 1.379 . S
H1499 C1493 0.959 . S
H1500 C1493 0.961 . S
H1501 C1493 0.960 . S
H1502 C1494 0.930 . S
H1503 C1495 0.929 . S
H1504 C1512 0.929 . S
H1505 C1514 0.930 . S
H1506 C1516 0.930 . S
H1507 C1519 0.929 . S
H1508 C1522 0.930 . S
H1509 C1524 0.960 . S
H1510 C1524 0.960 . S
H1511 C1524 0.960 . S
C1512 H1504 0.929 . S
C1512 C1513 1.377 . S
C1512 C1514 1.384 . S
C1513 C1512 1.377 . S
C1513 C1519 1.390 . S
C1514 H1505 0.930 . S
C1514 C1512 1.384 . S
C1514 C1515 1.372 . S
C1515 C1514 1.372 . S
C1515 C1516 1.400 . S
C1515 C1520 1.490 . S
C1516 H1506 0.930 . S
C1516 C1515 1.400 . S
C1516 C1519 1.386 . S
H1517 C1533 0.930 . S
H1518 C1534 0.931 . S
C1519 H1507 0.929 . S
C1519 C1513 1.390 . S
C1519 C1516 1.386 . S
C1520 C1515 1.490 . S
C1520 C1522 1.395 . S
C1520 C1523 1.403 . S
H1521 C1527 0.930 . S
C1522 H1508 0.930 . S
C1522 C1520 1.395 . S
C1522 C1525 1.403 . S
C1523 C1520 1.403 . S
C1523 C1524 1.524 . S
C1523 C1527 1.400 . S
C1524 H1509 0.960 . S
C1524 H1510 0.960 . S
C1524 H1511 0.960 . S
C1524 C1523 1.524 . S
C1525 C1522 1.403 . S
C1525 C1526 1.392 . S
C1525 C1529 1.495 . S
C1526 C1525 1.392 . S
C1526 C1527 1.385 . S
C1526 C1528 1.478 . S
C1527 H1521 0.930 . S
C1527 C1523 1.400 . S
C1527 C1526 1.385 . S
C1528 C1526 1.478 . S
C1528 C1530 1.381 . S
C1528 C1534 1.383 . S
C1529 C1525 1.495 . S
C1529 H1535 0.959 . S
C1529 H1536 0.961 . S
C1529 H1537 0.960 . S
C1530 C1528 1.381 . S
C1530 C1531 1.394 . S
C1530 H1538 0.930 . S
C1531 C1530 1.394 . S
C1531 C1532 1.383 . S
C1531 H1539 0.929 . S
C1532 C1531 1.383 . S
C1532 C1533 1.377 . S
C1533 H1517 0.930 . S
C1533 C1532 1.377 . S
C1533 C1534 1.379 . S
C1534 H1518 0.931 . S
C1534 C1528 1.383 . S
C1534 C1533 1.379 . S
H1535 C1529 0.959 . S
H1536 C1529 0.961 . S
H1537 C1529 0.960 . S
H1538 C1530 0.930 . S
H1539 C1531 0.929 . S
H1540 C1548 0.929 1_565 S
H1541 C1550 0.930 . S
H1542 C1552 0.930 . S
H1543 C1555 0.929 . S
H1544 C1558 0.933 . S
H1545 C1560 0.960 . S
H1546 C1560 0.960 . S
H1547 C1560 0.960 . S
C1548 H1540 0.929 1_545 S
C1548 C1549 1.377 . S
C1548 C1550 1.384 1_545 S
C1549 C1548 1.377 . S
C1549 C1555 1.390 . S
C1550 H1541 0.930 . S
C1550 C1548 1.384 1_565 S
C1550 C1551 1.372 1_565 S
C1551 C1550 1.372 1_545 S
C1551 C1552 1.400 . S
C1551 C1556 1.490 1_545 S
C1552 H1542 0.930 . S
C1552 C1551 1.400 . S
C1552 C1555 1.386 . S
H1553 C1569 0.930 . S
H1554 C1570 0.931 . S
C1555 H1543 0.929 . S
C1555 C1549 1.390 . S
C1555 C1552 1.386 . S
C1556 C1551 1.490 1_565 S
C1556 C1558 1.395 . S
C1556 C1559 1.403 . S
H1557 C1563 0.930 . S
C1558 H1544 0.933 . S
C1558 C1556 1.395 . S
C1558 C1561 1.403 . S
C1559 C1556 1.403 . S
C1559 C1560 1.524 . S
C1559 C1563 1.400 . S
C1560 H1545 0.960 . S
C1560 H1546 0.960 . S
C1560 H1547 0.960 . S
C1560 C1559 1.524 . S
C1561 C1558 1.403 . S
C1561 C1562 1.392 . S
C1561 C1565 1.495 . S
C1562 C1561 1.392 . S
C1562 C1563 1.385 . S
C1562 C1564 1.478 . S
C1563 H1557 0.930 . S
C1563 C1559 1.400 . S
C1563 C1562 1.385 . S
C1564 C1562 1.478 . S
C1564 C1566 1.381 . S
C1564 C1570 1.383 . S
C1565 C1561 1.495 . S
C1565 H1571 0.959 . S
C1565 H1572 0.961 . S
C1565 H1573 0.960 . S
C1566 C1564 1.381 . S
C1566 C1567 1.394 . S
C1566 H1574 0.930 . S
C1567 C1566 1.394 . S
C1567 C1568 1.383 . S
C1567 H1575 0.929 . S
C1568 C1567 1.383 . S
C1568 C1569 1.377 . S
C1569 H1553 0.930 . S
C1569 C1568 1.377 . S
C1569 C1570 1.379 . S
C1570 H1554 0.931 . S
C1570 C1564 1.383 . S
C1570 C1569 1.379 . S
H1571 C1565 0.959 . S
H1572 C1565 0.961 . S
H1573 C1565 0.960 . S
H1574 C1566 0.930 . S
H1575 C1567 0.929 . S
H1576 C1584 0.929 . S
H1577 C1586 0.930 . S
H1578 C1588 0.930 . S
H1579 C1591 0.929 . S
H1580 C1594 0.930 . S
H1581 C1596 0.960 . S
H1582 C1596 0.960 . S
H1583 C1596 0.960 . S
C1584 H1576 0.929 . S
C1584 C1585 1.377 . S
C1584 C1586 1.384 . S
C1585 C1584 1.377 . S
C1585 C1591 1.390 . S
C1586 H1577 0.930 . S
C1586 C1584 1.384 . S
C1586 C1587 1.372 . S
C1587 C1586 1.372 . S
C1587 C1588 1.400 . S
C1587 C1592 1.490 . S
C1588 H1578 0.930 . S
C1588 C1587 1.400 . S
C1588 C1591 1.386 . S
H1589 C1605 0.930 . S
H1590 C1606 0.931 . S
C1591 H1579 0.929 . S
C1591 C1585 1.390 . S
C1591 C1588 1.386 . S
C1592 C1587 1.490 . S
C1592 C1594 1.395 . S
C1592 C1595 1.403 . S
H1593 C1599 0.930 . S
C1594 H1580 0.930 . S
C1594 C1592 1.395 . S
C1594 C1597 1.403 . S
C1595 C1592 1.403 . S
C1595 C1596 1.524 . S
C1595 C1599 1.400 . S
C1596 H1581 0.960 . S
C1596 H1582 0.960 . S
C1596 H1583 0.960 . S
C1596 C1595 1.524 . S
C1597 C1594 1.403 . S
C1597 C1598 1.392 . S
C1597 C1601 1.495 . S
C1598 C1597 1.392 . S
C1598 C1599 1.385 . S
C1598 C1600 1.478 . S
C1599 H1593 0.930 . S
C1599 C1595 1.400 . S
C1599 C1598 1.385 . S
C1600 C1598 1.478 . S
C1600 C1602 1.381 . S
C1600 C1606 1.383 . S
C1601 C1597 1.495 . S
C1601 H1607 0.959 . S
C1601 H1608 0.961 . S
C1601 H1609 0.960 . S
C1602 C1600 1.381 . S
C1602 C1603 1.394 . S
C1602 H1610 0.930 . S
C1603 C1602 1.394 . S
C1603 C1604 1.383 . S
C1603 H1611 0.929 . S
C1604 C1603 1.383 . S
C1604 C1605 1.377 . S
C1605 H1589 0.930 . S
C1605 C1604 1.377 . S
C1605 C1606 1.379 . S
C1606 H1590 0.931 . S
C1606 C1600 1.383 . S
C1606 C1605 1.379 . S
H1607 C1601 0.959 . S
H1608 C1601 0.961 . S
H1609 C1601 0.960 . S
H1610 C1602 0.930 . S
H1611 C1603 0.929 . S
H1612 C1620 0.929 . S
H1613 C1622 0.930 . S
H1614 C1624 0.930 . S
H1615 C1627 0.929 . S
H1616 C1630 0.930 . S
H1617 C1632 0.960 . S
H1618 C1632 0.960 . S
H1619 C1632 0.960 . S
C1620 H1612 0.929 . S
C1620 C1621 1.377 . S
C1620 C1622 1.384 . S
C1621 C1620 1.377 . S
C1621 C1627 1.390 . S
C1622 H1613 0.930 . S
C1622 C1620 1.384 . S
C1622 C1623 1.372 . S
C1623 C1622 1.372 . S
C1623 C1624 1.400 . S
C1623 C1628 1.490 . S
C1624 H1614 0.930 . S
C1624 C1623 1.400 . S
C1624 C1627 1.386 . S
H1625 C1641 0.930 . S
H1626 C1642 0.942 . S
C1627 H1615 0.929 . S
C1627 C1621 1.390 . S
C1627 C1624 1.386 . S
C1628 C1623 1.490 . S
C1628 C1630 1.395 1_545 S
C1628 C1631 1.403 . S
H1629 C1635 0.930 . S
C1630 H1616 0.930 . S
C1630 C1628 1.395 1_565 S
C1630 C1633 1.403 . S
C1631 C1628 1.403 . S
C1631 C1632 1.524 . S
C1631 C1635 1.400 . S
C1632 H1617 0.960 . S
C1632 H1618 0.960 . S
C1632 H1619 0.960 . S
C1632 C1631 1.524 . S
C1633 C1630 1.403 . S
C1633 C1634 1.392 1_565 S
C1633 C1637 1.495 . S
C1634 C1633 1.392 1_545 S
C1634 C1635 1.385 . S
C1634 C1636 1.478 1_545 S
C1635 H1629 0.930 . S
C1635 C1631 1.400 . S
C1635 C1634 1.385 . S
C1636 C1634 1.478 1_565 S
C1636 C1638 1.381 . S
C1636 C1642 1.383 . S
C1637 C1633 1.495 . S
C1637 H1643 0.959 . S
C1637 H1644 0.961 . S
C1637 H1645 0.960 . S
C1638 C1636 1.381 . S
C1638 C1639 1.394 . S
C1638 H1646 0.930 . S
C1639 C1638 1.394 . S
C1639 C1640 1.383 . S
C1639 H1647 0.929 . S
C1640 C1639 1.383 . S
C1640 C1641 1.377 . S
C1641 H1625 0.930 . S
C1641 C1640 1.377 . S
C1641 C1642 1.379 . S
C1642 H1626 0.942 . S
C1642 C1636 1.383 . S
C1642 C1641 1.379 . S
H1643 C1637 0.959 . S
H1644 C1637 0.961 . S
H1645 C1637 0.960 . S
H1646 C1638 0.930 . S
H1647 C1639 0.929 . S
H1648 C1656 0.929 . S
H1649 C1658 0.930 . S
H1650 C1660 0.930 . S
H1651 C1663 0.929 . S
H1652 C1666 0.930 . S
H1653 C1668 0.960 . S
H1654 C1668 0.960 . S
H1655 C1668 0.960 . S
C1656 H1648 0.929 . S
C1656 C1657 1.377 . S
C1656 C1658 1.384 . S
C1657 C1656 1.377 . S
C1657 C1663 1.390 . S
C1658 H1649 0.930 . S
C1658 C1656 1.384 . S
C1658 C1659 1.372 . S
C1659 C1658 1.372 . S
C1659 C1660 1.400 . S
C1659 C1664 1.490 . S
C1660 H1650 0.930 . S
C1660 C1659 1.400 . S
C1660 C1663 1.386 . S
H1661 C1677 0.930 . S
H1662 C1678 0.931 . S
C1663 H1651 0.929 . S
C1663 C1657 1.390 . S
C1663 C1660 1.386 . S
C1664 C1659 1.490 . S
C1664 C1666 1.395 . S
C1664 C1667 1.403 . S
H1665 C1671 0.930 . S
C1666 H1652 0.930 . S
C1666 C1664 1.395 . S
C1666 C1669 1.403 . S
C1667 C1664 1.403 . S
C1667 C1668 1.524 . S
C1667 C1671 1.400 . S
C1668 H1653 0.960 . S
C1668 H1654 0.960 . S
C1668 H1655 0.960 . S
C1668 C1667 1.524 . S
C1669 C1666 1.403 . S
C1669 C1670 1.392 . S
C1669 C1673 1.495 . S
C1670 C1669 1.392 . S
C1670 C1671 1.385 . S
C1670 C1672 1.478 . S
C1671 H1665 0.930 . S
C1671 C1667 1.400 . S
C1671 C1670 1.385 . S
C1672 C1670 1.478 . S
C1672 C1674 1.381 . S
C1672 C1678 1.383 . S
C1673 C1669 1.495 . S
C1673 H1679 0.959 . S
C1673 H1680 0.961 . S
C1673 H1681 0.960 . S
C1674 C1672 1.381 . S
C1674 C1675 1.394 . S
C1674 H1682 0.930 . S
C1675 C1674 1.394 . S
C1675 C1676 1.383 . S
C1675 H1683 0.929 . S
C1676 C1675 1.383 . S
C1676 C1677 1.377 . S
C1677 H1661 0.930 . S
C1677 C1676 1.377 . S
C1677 C1678 1.379 . S
C1678 H1662 0.931 . S
C1678 C1672 1.383 . S
C1678 C1677 1.379 . S
H1679 C1673 0.959 . S
H1680 C1673 0.961 . S
H1681 C1673 0.960 . S
H1682 C1674 0.930 . S
H1683 C1675 0.929 . S
H1684 C1692 0.929 . S
H1685 C1694 0.930 . S
H1686 C1696 0.930 . S
H1687 C1699 0.940 . S
H1688 C1702 0.930 1_565 S
H1689 C1704 0.960 . S
H1690 C1704 0.960 . S
H1691 C1704 0.960 . S
C1692 H1684 0.929 . S
C1692 C1693 1.377 . S
C1692 C1694 1.384 . S
C1693 C1692 1.377 . S
C1693 C1699 1.373 1_565 S
C1694 H1685 0.930 . S
C1694 C1692 1.384 . S
C1694 C1695 1.372 . S
C1695 C1694 1.372 . S
C1695 C1696 1.400 1_565 S
C1695 C1700 1.490 1_565 S
C1696 H1686 0.930 . S
C1696 C1695 1.400 1_545 S
C1696 C1699 1.392 . S
H1697 C1713 0.930 . S
H1698 C1714 0.931 . S
C1699 H1687 0.940 . S
C1699 C1693 1.373 1_545 S
C1699 C1696 1.392 . S
C1700 C1695 1.490 1_545 S
C1700 C1702 1.395 . S
C1700 C1703 1.403 . S
H1701 C1707 0.930 . S
C1702 H1688 0.930 1_545 S
C1702 C1700 1.395 . S
C1702 C1705 1.403 . S
C1703 C1700 1.403 . S
C1703 C1704 1.524 . S
C1703 C1707 1.400 . S
C1704 H1689 0.960 . S
C1704 H1690 0.960 . S
C1704 H1691 0.960 . S
C1704 C1703 1.524 . S
C1705 C1702 1.403 . S
C1705 C1706 1.392 . S
C1705 C1709 1.495 . S
C1706 C1705 1.392 . S
C1706 C1707 1.385 . S
C1706 C1708 1.478 . S
C1707 H1701 0.930 . S
C1707 C1703 1.400 . S
C1707 C1706 1.385 . S
C1708 C1706 1.478 . S
C1708 C1710 1.381 . S
C1708 C1714 1.383 . S
C1709 C1705 1.495 . S
C1709 H1715 0.979 . S
C1709 H1716 0.961 . S
C1709 H1717 0.966 . S
C1710 C1708 1.381 . S
C1710 C1711 1.394 . S
C1710 H1718 0.930 . S
C1711 C1710 1.394 . S
C1711 C1712 1.383 . S
C1711 H1719 0.929 . S
C1712 C1711 1.383 . S
C1712 C1713 1.377 . S
C1713 H1697 0.930 . S
C1713 C1712 1.377 . S
C1713 C1714 1.379 . S
C1714 H1698 0.931 . S
C1714 C1708 1.383 . S
C1714 C1713 1.379 . S
H1715 C1709 0.979 . S
H1716 C1709 0.961 . S
H1717 C1709 0.966 . S
H1718 C1710 0.930 . S
H1719 C1711 0.929 . S
H1720 C1728 0.929 . S
H1721 C1730 0.930 . S
H1722 C1732 0.930 . S
H1723 C1735 0.929 . S
H1724 C1738 0.930 . S
H1725 C1740 0.960 . S
H1726 C1740 0.960 . S
H1727 C1740 0.960 . S
C1728 H1720 0.929 . S
C1728 C1729 1.377 . S
C1728 C1730 1.384 . S
C1729 C1728 1.377 . S
C1729 C1735 1.390 . S
C1730 H1721 0.930 . S
C1730 C1728 1.384 . S
C1730 C1731 1.372 . S
C1731 C1730 1.372 . S
C1731 C1732 1.400 . S
C1731 C1736 1.490 . S
C1732 H1722 0.930 . S
C1732 C1731 1.400 . S
C1732 C1735 1.386 . S
H1733 C1749 0.930 . S
H1734 C1750 0.931 . S
C1735 H1723 0.929 . S
C1735 C1729 1.390 . S
C1735 C1732 1.386 . S
C1736 C1731 1.490 . S
C1736 C1738 1.395 . S
C1736 C1739 1.403 . S
H1737 C1743 0.930 . S
C1738 H1724 0.930 . S
C1738 C1736 1.395 . S
C1738 C1741 1.403 . S
C1739 C1736 1.403 . S
C1739 C1740 1.524 . S
C1739 C1743 1.400 . S
C1740 H1725 0.960 . S
C1740 H1726 0.960 . S
C1740 H1727 0.960 . S
C1740 C1739 1.524 . S
C1741 C1738 1.403 . S
C1741 C1742 1.392 . S
C1741 C1745 1.495 . S
C1742 C1741 1.392 . S
C1742 C1743 1.385 . S
C1742 C1744 1.478 . S
C1743 H1737 0.930 . S
C1743 C1739 1.400 . S
C1743 C1742 1.385 . S
C1744 C1742 1.478 . S
C1744 C1746 1.381 . S
C1744 C1750 1.383 . S
C1745 C1741 1.495 . S
C1745 H1751 0.959 . S
C1745 H1752 0.961 . S
C1745 H1753 0.960 . S
C1746 C1744 1.381 . S
C1746 C1747 1.394 . S
C1746 H1754 0.930 . S
C1747 C1746 1.394 . S
C1747 C1748 1.383 . S
C1747 H1755 0.929 . S
C1748 C1747 1.383 . S
C1748 C1749 1.377 . S
C1749 H1733 0.930 . S
C1749 C1748 1.377 . S
C1749 C1750 1.379 . S
C1750 H1734 0.931 . S
C1750 C1744 1.383 . S
C1750 C1749 1.379 . S
H1751 C1745 0.959 . S
H1752 C1745 0.961 . S
H1753 C1745 0.960 . S
H1754 C1746 0.930 . S
H1755 C1747 0.929 . S
H1756 C1764 0.929 . S
H1757 C1766 0.930 . S
H1758 C1768 0.930 . S
H1759 C1771 0.921 1_565 S
H1760 C1774 0.930 . S
H1761 C1776 0.960 . S
H1762 C1776 0.960 . S
H1763 C1776 0.960 . S
C1764 H1756 0.929 . S
C1764 C1765 1.377 . S
C1764 C1766 1.384 . S
C1765 C1764 1.377 . S
C1765 C1771 1.404 . S
C1766 H1757 0.930 . S
C1766 C1764 1.384 . S
C1766 C1767 1.372 . S
C1767 C1766 1.372 . S
C1767 C1768 1.400 1_545 S
C1767 C1772 1.490 1_545 S
C1768 H1758 0.930 . S
C1768 C1767 1.400 1_565 S
C1768 C1771 1.380 1_565 S
H1769 C1785 0.930 . S
H1770 C1786 0.931 . S
C1771 H1759 0.921 1_545 S
C1771 C1765 1.404 . S
C1771 C1768 1.380 1_545 S
C1772 C1767 1.490 1_565 S
C1772 C1774 1.395 1_565 S
C1772 C1775 1.403 . S
H1773 C1779 0.930 . S
C1774 H1760 0.930 . S
C1774 C1772 1.395 1_545 S
C1774 C1777 1.399 1_545 S
C1775 C1772 1.403 . S
C1775 C1776 1.524 . S
C1775 C1779 1.400 . S
C1776 H1761 0.960 . S
C1776 H1762 0.960 . S
C1776 H1763 0.960 . S
C1776 C1775 1.524 . S
C1777 C1774 1.399 1_565 S
C1777 C1778 1.403 . S
C1777 C1781 1.489 1_565 S
C1778 C1777 1.403 . S
C1778 C1779 1.385 . S
C1778 C1780 1.478 . S
C1779 H1773 0.930 . S
C1779 C1775 1.400 . S
C1779 C1778 1.385 . S
C1780 C1778 1.478 . S
C1780 C1782 1.381 . S
C1780 C1786 1.383 . S
C1781 C1777 1.489 1_545 S
C1781 H1787 0.959 . S
C1781 H1788 0.961 . S
C1781 H1789 0.960 . S
C1782 C1780 1.381 . S
C1782 C1783 1.394 . S
C1782 H1790 0.930 . S
C1783 C1782 1.394 . S
C1783 C1784 1.383 . S
C1783 H1791 0.929 . S
C1784 C1783 1.383 . S
C1784 C1785 1.377 . S
C1785 H1769 0.930 . S
C1785 C1784 1.377 . S
C1785 C1786 1.379 . S
C1786 H1770 0.931 . S
C1786 C1780 1.383 . S
C1786 C1785 1.379 . S
H1787 C1781 0.959 . S
H1788 C1781 0.961 . S
H1789 C1781 0.960 . S
H1790 C1782 0.930 . S
H1791 C1783 0.929 . S
H1792 C1800 0.929 . S
H1793 C1802 0.930 . S
H1794 C1804 0.930 . S
H1795 C1807 0.929 . S
H1796 C1810 0.930 . S
H1797 C1812 0.960 . S
H1798 C1812 0.960 . S
H1799 C1812 0.960 . S
C1800 H1792 0.929 . S
C1800 C1801 1.377 . S
C1800 C1802 1.384 . S
C1801 C1800 1.377 . S
C1801 C1807 1.390 . S
C1802 H1793 0.930 . S
C1802 C1800 1.384 . S
C1802 C1803 1.372 . S
C1803 C1802 1.372 . S
C1803 C1804 1.400 . S
C1803 C1808 1.490 . S
C1804 H1794 0.930 . S
C1804 C1803 1.400 . S
C1804 C1807 1.386 . S
H1805 C1821 0.930 . S
H1806 C1822 0.931 . S
C1807 H1795 0.929 . S
C1807 C1801 1.390 . S
C1807 C1804 1.386 . S
C1808 C1803 1.490 . S
C1808 C1810 1.395 . S
C1808 C1811 1.403 . S
H1809 C1815 0.930 . S
C1810 H1796 0.930 . S
C1810 C1808 1.395 . S
C1810 C1813 1.403 . S
C1811 C1808 1.403 . S
C1811 C1812 1.524 . S
C1811 C1815 1.400 . S
C1812 H1797 0.960 . S
C1812 H1798 0.960 . S
C1812 H1799 0.960 . S
C1812 C1811 1.524 . S
C1813 C1810 1.403 . S
C1813 C1814 1.392 . S
C1813 C1817 1.495 . S
C1814 C1813 1.392 . S
C1814 C1815 1.385 . S
C1814 C1816 1.478 . S
C1815 H1809 0.930 . S
C1815 C1811 1.400 . S
C1815 C1814 1.385 . S
C1816 C1814 1.478 . S
C1816 C1818 1.381 . S
C1816 C1822 1.383 . S
C1817 C1813 1.495 . S
C1817 H1823 0.959 . S
C1817 H1824 0.961 . S
C1817 H1825 0.960 . S
C1818 C1816 1.381 . S
C1818 C1819 1.394 . S
C1818 H1826 0.930 . S
C1819 C1818 1.394 . S
C1819 C1820 1.383 . S
C1819 H1827 0.929 . S
C1820 C1819 1.383 . S
C1820 C1821 1.377 . S
C1821 H1805 0.930 . S
C1821 C1820 1.377 . S
C1821 C1822 1.379 . S
C1822 H1806 0.931 . S
C1822 C1816 1.383 . S
C1822 C1821 1.379 . S
H1823 C1817 0.959 . S
H1824 C1817 0.961 . S
H1825 C1817 0.960 . S
H1826 C1818 0.930 . S
H1827 C1819 0.929 . S
H1828 C1836 0.929 . S
H1829 C1838 0.930 . S
H1830 C1840 0.930 . S
H1831 C1843 0.929 . S
H1832 C1846 0.930 . S
H1833 C1848 0.960 . S
H1834 C1848 0.960 . S
H1835 C1848 0.960 . S
C1836 H1828 0.929 . S
C1836 C1837 1.377 . S
C1836 C1838 1.384 . S
C1837 C1836 1.377 . S
C1837 C1843 1.390 . S
C1838 H1829 0.930 . S
C1838 C1836 1.384 . S
C1838 C1839 1.372 . S
C1839 C1838 1.372 . S
C1839 C1840 1.400 . S
C1839 C1844 1.490 . S
C1840 H1830 0.930 . S
C1840 C1839 1.400 . S
C1840 C1843 1.386 . S
H1841 C1857 0.930 . S
H1842 C1858 0.931 . S
C1843 H1831 0.929 . S
C1843 C1837 1.390 . S
C1843 C1840 1.386 . S
C1844 C1839 1.490 . S
C1844 C1846 1.395 . S
C1844 C1847 1.403 . S
H1845 C1851 0.930 . S
C1846 H1832 0.930 . S
C1846 C1844 1.395 . S
C1846 C1849 1.403 . S
C1847 C1844 1.403 . S
C1847 C1848 1.524 . S
C1847 C1851 1.400 . S
C1848 H1833 0.960 . S
C1848 H1834 0.960 . S
C1848 H1835 0.960 . S
C1848 C1847 1.524 . S
C1849 C1846 1.403 . S
C1849 C1850 1.392 . S
C1849 C1853 1.495 . S
C1850 C1849 1.392 . S
C1850 C1851 1.385 . S
C1850 C1852 1.478 . S
C1851 H1845 0.930 . S
C1851 C1847 1.400 . S
C1851 C1850 1.385 . S
C1852 C1850 1.478 . S
C1852 C1854 1.381 . S
C1852 C1858 1.383 . S
C1853 C1849 1.495 . S
C1853 H1859 0.959 . S
C1853 H1860 0.961 . S
C1853 H1861 0.960 . S
C1854 C1852 1.381 . S
C1854 C1855 1.394 . S
C1854 H1862 0.930 . S
C1855 C1854 1.394 . S
C1855 C1856 1.383 . S
C1855 H1863 0.929 . S
C1856 C1855 1.383 . S
C1856 C1857 1.377 . S
C1857 H1841 0.930 . S
C1857 C1856 1.377 . S
C1857 C1858 1.379 . S
C1858 H1842 0.931 . S
C1858 C1852 1.383 . S
C1858 C1857 1.379 . S
H1859 C1853 0.959 . S
H1860 C1853 0.961 . S
H1861 C1853 0.960 . S
H1862 C1854 0.930 . S
H1863 C1855 0.929 . S
H1864 C1872 0.929 . S
H1865 C1874 0.930 . S
H1866 C1876 0.930 . S
H1867 C1879 0.929 . S
H1868 C1882 0.930 . S
H1869 C1884 0.960 . S
H1870 C1884 0.960 . S
H1871 C1884 0.960 . S
C1872 H1864 0.929 . S
C1872 C1873 1.377 . S
C1872 C1874 1.384 . S
C1873 C1872 1.377 . S
C1873 C1879 1.390 . S
C1874 H1865 0.930 . S
C1874 C1872 1.384 . S
C1874 C1875 1.372 . S
C1875 C1874 1.372 . S
C1875 C1876 1.400 . S
C1875 C1880 1.490 . S
C1876 H1866 0.930 . S
C1876 C1875 1.400 . S
C1876 C1879 1.386 . S
H1877 C1893 0.930 . S
H1878 C1894 0.931 . S
C1879 H1867 0.929 . S
C1879 C1873 1.390 . S
C1879 C1876 1.386 . S
C1880 C1875 1.490 . S
C1880 C1882 1.395 . S
C1880 C1883 1.403 . S
H1881 C1887 0.930 . S
C1882 H1868 0.930 . S
C1882 C1880 1.395 . S
C1882 C1885 1.403 . S
C1883 C1880 1.403 . S
C1883 C1884 1.524 . S
C1883 C1887 1.400 . S
C1884 H1869 0.960 . S
C1884 H1870 0.960 . S
C1884 H1871 0.960 . S
C1884 C1883 1.524 . S
C1885 C1882 1.403 . S
C1885 C1886 1.392 . S
C1885 C1889 1.495 . S
C1886 C1885 1.392 . S
C1886 C1887 1.385 . S
C1886 C1888 1.478 . S
C1887 H1881 0.930 . S
C1887 C1883 1.400 . S
C1887 C1886 1.385 . S
C1888 C1886 1.478 . S
C1888 C1890 1.381 . S
C1888 C1894 1.383 . S
C1889 C1885 1.495 . S
C1889 H1895 0.959 . S
C1889 H1896 0.961 . S
C1889 H1897 0.960 . S
C1890 C1888 1.381 . S
C1890 C1891 1.394 . S
C1890 H1898 0.930 . S
C1891 C1890 1.394 . S
C1891 C1892 1.383 . S
C1891 H1899 0.929 . S
C1892 C1891 1.383 . S
C1892 C1893 1.377 . S
C1893 H1877 0.930 . S
C1893 C1892 1.377 . S
C1893 C1894 1.379 . S
C1894 H1878 0.931 . S
C1894 C1888 1.383 . S
C1894 C1893 1.379 . S
H1895 C1889 0.959 . S
H1896 C1889 0.961 . S
H1897 C1889 0.960 . S
H1898 C1890 0.930 . S
H1899 C1891 0.929 . S
H1900 C1908 0.929 . S
H1901 C1910 0.930 . S
H1902 C1912 0.930 . S
H1903 C1915 0.929 . S
H1904 C1918 0.930 . S
H1905 C1920 0.960 . S
H1906 C1920 0.960 . S
H1907 C1920 0.960 . S
C1908 H1900 0.929 . S
C1908 C1909 1.377 . S
C1908 C1910 1.384 . S
C1909 C1908 1.377 . S
C1909 C1915 1.390 . S
C1910 H1901 0.930 . S
C1910 C1908 1.384 . S
C1910 C1911 1.372 . S
C1911 C1910 1.372 . S
C1911 C1912 1.400 . S
C1911 C1916 1.490 . S
C1912 H1902 0.930 . S
C1912 C1911 1.400 . S
C1912 C1915 1.386 . S
H1913 C1929 0.930 . S
H1914 C1930 0.931 . S
C1915 H1903 0.929 . S
C1915 C1909 1.390 . S
C1915 C1912 1.386 . S
C1916 C1911 1.490 . S
C1916 C1918 1.395 . S
C1916 C1919 1.403 . S
H1917 C1923 0.930 . S
C1918 H1904 0.930 . S
C1918 C1916 1.395 . S
C1918 C1921 1.403 . S
C1919 C1916 1.403 . S
C1919 C1920 1.524 . S
C1919 C1923 1.400 . S
C1920 H1905 0.960 . S
C1920 H1906 0.960 . S
C1920 H1907 0.960 . S
C1920 C1919 1.524 . S
C1921 C1918 1.403 . S
C1921 C1922 1.392 . S
C1921 C1925 1.495 . S
C1922 C1921 1.392 . S
C1922 C1923 1.385 . S
C1922 C1924 1.478 . S
C1923 H1917 0.930 . S
C1923 C1919 1.400 . S
C1923 C1922 1.385 . S
C1924 C1922 1.478 . S
C1924 C1926 1.381 . S
C1924 C1930 1.383 . S
C1925 C1921 1.495 . S
C1925 H1931 0.959 . S
C1925 H1932 0.961 . S
C1925 H1933 0.960 . S
C1926 C1924 1.381 . S
C1926 C1927 1.394 . S
C1926 H1934 0.930 . S
C1927 C1926 1.394 . S
C1927 C1928 1.383 . S
C1927 H1935 0.929 . S
C1928 C1927 1.383 . S
C1928 C1929 1.377 . S
C1929 H1913 0.930 . S
C1929 C1928 1.377 . S
C1929 C1930 1.379 . S
C1930 H1914 0.931 . S
C1930 C1924 1.383 . S
C1930 C1929 1.379 . S
H1931 C1925 0.959 . S
H1932 C1925 0.961 . S
H1933 C1925 0.960 . S
H1934 C1926 0.930 . S
H1935 C1927 0.929 . S
H1936 C1944 0.929 . S
H1937 C1946 0.930 . S
H1938 C1948 0.930 . S
H1939 C1951 0.929 . S
H1940 C1954 0.930 . S
H1941 C1956 0.960 . S
H1942 C1956 0.960 . S
H1943 C1956 0.960 . S
C1944 H1936 0.929 . S
C1944 C1945 1.377 . S
C1944 C1946 1.384 . S
C1945 C1944 1.377 . S
C1945 C1951 1.390 . S
C1946 H1937 0.930 . S
C1946 C1944 1.384 . S
C1946 C1947 1.372 . S
C1947 C1946 1.372 . S
C1947 C1948 1.400 . S
C1947 C1952 1.490 . S
C1948 H1938 0.930 . S
C1948 C1947 1.400 . S
C1948 C1951 1.386 . S
H1949 C1965 0.930 . S
H1950 C1966 0.931 . S
C1951 H1939 0.929 . S
C1951 C1945 1.390 . S
C1951 C1948 1.386 . S
C1952 C1947 1.490 . S
C1952 C1954 1.395 1_455 S
C1952 C1955 1.403 . S
H1953 C1959 0.930 . S
C1954 H1940 0.930 . S
C1954 C1952 1.395 1_655 S
C1954 C1957 1.403 . S
C1955 C1952 1.403 . S
C1955 C1956 1.524 . S
C1955 C1959 1.400 . S
C1956 H1941 0.960 . S
C1956 H1942 0.960 . S
C1956 H1943 0.960 . S
C1956 C1955 1.524 . S
C1957 C1954 1.403 . S
C1957 C1958 1.392 . S
C1957 C1961 1.495 . S
C1958 C1957 1.392 . S
C1958 C1959 1.385 1_655 S
C1958 C1960 1.478 . S
C1959 H1953 0.930 . S
C1959 C1955 1.400 . S
C1959 C1958 1.385 1_455 S
C1960 C1958 1.478 . S
C1960 C1962 1.381 . S
C1960 C1966 1.383 . S
C1961 C1957 1.495 . S
C1961 H1967 0.959 . S
C1961 H1968 0.961 . S
C1961 H1969 0.960 . S
C1962 C1960 1.381 . S
C1962 C1963 1.394 . S
C1962 H1970 0.930 . S
C1963 C1962 1.394 . S
C1963 C1964 1.383 . S
C1963 H1971 0.929 . S
C1964 C1963 1.383 . S
C1964 C1965 1.377 . S
C1965 H1949 0.930 . S
C1965 C1964 1.377 . S
C1965 C1966 1.379 . S
C1966 H1950 0.931 . S
C1966 C1960 1.383 . S
C1966 C1965 1.379 . S
H1967 C1961 0.959 . S
H1968 C1961 0.961 . S
H1969 C1961 0.960 . S
H1970 C1962 0.930 . S
H1971 C1963 0.929 . S
H1972 C1980 0.929 . S
H1973 C1982 0.930 . S
H1974 C1984 0.930 1_455 S
H1975 C1987 0.913 1_455 S
H1976 C1990 0.930 . S
H1977 C1992 0.960 . S
H1978 C1992 0.960 . S
H1979 C1992 0.960 . S
C1980 H1972 0.929 . S
C1980 C1981 1.377 . S
C1980 C1982 1.384 . S
C1981 C1980 1.377 . S
C1981 C1987 1.390 . S
C1982 H1973 0.930 . S
C1982 C1980 1.384 . S
C1982 C1983 1.372 . S
C1983 C1982 1.372 . S
C1983 C1984 1.400 . S
C1983 C1988 1.490 . S
C1984 H1974 0.930 1_655 S
C1984 C1983 1.400 . S
C1984 C1987 1.386 . S
H1985 C2001 0.930 . S
H1986 C2002 0.931 . S
C1987 H1975 0.913 1_655 S
C1987 C1981 1.390 . S
C1987 C1984 1.386 . S
C1988 C1983 1.490 . S
C1988 C1990 1.395 . S
C1988 C1991 1.403 . S
H1989 C1995 0.930 . S
C1990 H1976 0.930 . S
C1990 C1988 1.395 . S
C1990 C1993 1.403 1_655 S
C1991 C1988 1.403 . S
C1991 C1992 1.524 . S
C1991 C1995 1.399 1_655 S
C1992 H1977 0.960 . S
C1992 H1978 0.960 . S
C1992 H1979 0.960 . S
C1992 C1991 1.524 . S
C1993 C1990 1.403 1_455 S
C1993 C1994 1.392 . S
C1993 C1997 1.495 . S
C1994 C1993 1.392 . S
C1994 C1995 1.386 . S
C1994 C1996 1.478 . S
C1995 H1989 0.930 . S
C1995 C1991 1.399 1_455 S
C1995 C1994 1.386 . S
C1996 C1994 1.478 . S
C1996 C1998 1.381 . S
C1996 C2002 1.383 . S
C1997 C1993 1.495 . S
C1997 H2003 0.959 . S
C1997 H2004 0.961 . S
C1997 H2005 0.960 . S
C1998 C1996 1.381 . S
C1998 C1999 1.394 . S
C1998 H2006 0.930 1_455 S
C1999 C1998 1.394 . S
C1999 C2000 1.383 . S
C1999 H2007 0.929 1_455 S
C2000 C1999 1.383 . S
C2000 C2001 1.377 . S
C2001 H1985 0.930 . S
C2001 C2000 1.377 . S
C2001 C2002 1.379 . S
C2002 H1986 0.931 . S
C2002 C1996 1.383 . S
C2002 C2001 1.379 . S
H2003 C1997 0.959 . S
H2004 C1997 0.961 . S
H2005 C1997 0.960 . S
H2006 C1998 0.930 1_655 S
H2007 C1999 0.929 1_655 S
H2008 C2016 0.929 . S
H2009 C2018 0.930 . S
H2010 C2020 0.930 . S
H2011 C2023 0.929 . S
H2012 C2026 0.930 . S
H2013 C2028 0.960 . S
H2014 C2028 0.960 . S
H2015 C2028 0.960 . S
C2016 H2008 0.929 . S
C2016 C2017 1.377 . S
C2016 C2018 1.384 . S
C2017 C2016 1.377 . S
C2017 C2023 1.390 . S
C2018 H2009 0.930 . S
C2018 C2016 1.384 . S
C2018 C2019 1.372 . S
C2019 C2018 1.372 . S
C2019 C2020 1.400 . S
C2019 C2024 1.490 . S
C2020 H2010 0.930 . S
C2020 C2019 1.400 . S
C2020 C2023 1.386 . S
H2021 C2037 0.930 . S
H2022 C2038 0.931 . S
C2023 H2011 0.929 . S
C2023 C2017 1.390 . S
C2023 C2020 1.386 . S
C2024 C2019 1.490 . S
C2024 C2026 1.395 1_655 S
C2024 C2027 1.403 . S
H2025 C2031 0.930 . S
C2026 H2012 0.930 . S
C2026 C2024 1.395 1_455 S
C2026 C2029 1.403 . S
C2027 C2024 1.403 . S
C2027 C2028 1.524 . S
C2027 C2031 1.400 . S
C2028 H2013 0.960 . S
C2028 H2014 0.960 . S
C2028 H2015 0.960 . S
C2028 C2027 1.524 . S
C2029 C2026 1.403 . S
C2029 C2030 1.392 . S
C2029 C2033 1.495 . S
C2030 C2029 1.392 . S
C2030 C2031 1.385 1_455 S
C2030 C2032 1.478 . S
C2031 H2025 0.930 . S
C2031 C2027 1.400 . S
C2031 C2030 1.385 1_655 S
C2032 C2030 1.478 . S
C2032 C2034 1.381 . S
C2032 C2038 1.383 . S
C2033 C2029 1.495 . S
C2033 H2039 0.959 . S
C2033 H2040 0.961 . S
C2033 H2041 0.960 . S
C2034 C2032 1.381 . S
C2034 C2035 1.394 . S
C2034 H2042 0.938 . S
C2035 C2034 1.394 . S
C2035 C2036 1.383 . S
C2035 H2043 0.929 . S
C2036 C2035 1.383 . S
C2036 C2037 1.377 . S
C2037 H2021 0.930 . S
C2037 C2036 1.377 . S
C2037 C2038 1.379 . S
C2038 H2022 0.931 . S
C2038 C2032 1.383 . S
C2038 C2037 1.379 . S
H2039 C2033 0.959 . S
H2040 C2033 0.961 . S
H2041 C2033 0.960 . S
H2042 C2034 0.938 . S
H2043 C2035 0.929 . S
H2044 C2052 0.929 . S
H2045 C2054 0.930 . S
H2046 C2056 0.930 1_455 S
H2047 C2059 0.929 1_455 S
H2048 C2062 0.930 . S
H2049 C2064 0.960 . S
H2050 C2064 0.960 . S
H2051 C2064 0.960 . S
C2052 H2044 0.929 . S
C2052 C2053 1.377 . S
C2052 C2054 1.384 . S
C2053 C2052 1.377 . S
C2053 C2059 1.390 . S
C2054 H2045 0.930 . S
C2054 C2052 1.384 . S
C2054 C2055 1.372 . S
C2055 C2054 1.372 . S
C2055 C2056 1.400 . S
C2055 C2060 1.490 . S
C2056 H2046 0.930 1_655 S
C2056 C2055 1.400 . S
C2056 C2059 1.386 . S
H2057 C2073 0.930 . S
H2058 C2074 0.931 . S
C2059 H2047 0.929 1_655 S
C2059 C2053 1.390 . S
C2059 C2056 1.386 . S
C2060 C2055 1.490 . S
C2060 C2062 1.395 . S
C2060 C2063 1.403 1_655 S
H2061 C2067 0.930 . S
C2062 H2048 0.930 . S
C2062 C2060 1.395 . S
C2062 C2065 1.403 . S
C2063 C2060 1.403 1_455 S
C2063 C2064 1.524 . S
C2063 C2067 1.400 . S
C2064 H2049 0.960 . S
C2064 H2050 0.960 . S
C2064 H2051 0.960 . S
C2064 C2063 1.524 . S
C2065 C2062 1.403 . S
C2065 C2066 1.392 1_655 S
C2065 C2069 1.495 . S
C2066 C2065 1.392 1_455 S
C2066 C2067 1.385 . S
C2066 C2068 1.478 . S
C2067 H2061 0.930 . S
C2067 C2063 1.400 . S
C2067 C2066 1.385 . S
C2068 C2066 1.478 . S
C2068 C2070 1.381 1_455 S
C2068 C2074 1.383 . S
C2069 C2065 1.495 . S
C2069 H2075 0.959 . S
C2069 H2076 0.961 . S
C2069 H2077 0.960 . S
C2070 C2068 1.381 1_655 S
C2070 C2071 1.394 1_655 S
C2070 H2078 0.930 . S
C2071 C2070 1.394 1_455 S
C2071 C2072 1.383 . S
C2071 H2079 0.929 1_455 S
C2072 C2071 1.383 . S
C2072 C2073 1.377 . S
C2073 H2057 0.930 . S
C2073 C2072 1.377 . S
C2073 C2074 1.379 . S
C2074 H2058 0.931 . S
C2074 C2068 1.383 . S
C2074 C2073 1.379 . S
H2075 C2069 0.959 . S
H2076 C2069 0.961 . S
H2077 C2069 0.960 . S
H2078 C2070 0.930 . S
H2079 C2071 0.929 1_655 S
C361 C6 0.666 . S
C380 C93 0.691 . S
C397 C28 0.664 . S
C416 C119 0.648 . S
C433 C50 0.665 . S
C452 C137 0.666 . S
C469 C73 0.641 . S
C488 C159 0.675 . S
C505 C182 0.662 . S
C524 C269 0.719 . S
C541 C204 0.665 . S
C560 C295 0.662 . S
C577 C226 0.662 . S
C596 C313 0.719 . S
C613 C249 0.643 . S
C632 C335 0.579 . S
C649 C7 1.830 . S
C668 C51 1.802 . S
C685 C29 1.828 . S
C704 C72 1.807 . S
C721 C97 1.834 . S
C740 C141 1.847 . S
C757 C115 1.831 . S
C776 C163 1.828 . S
C793 C227 1.829 . S
C812 C183 1.851 . S
C829 C248 1.826 . S
C848 C205 1.849 . S
C865 C273 1.835 . S
C884 C317 1.850 . S
C901 C291 1.834 . S
C920 C339 1.841 . S
C937 C4 1.897 . S
C956 C250 1.891 . S
C973 C224 1.896 . S
C992 C26 1.898 . S
C1009 C48 1.895 . S
C1028 C202 1.895 . S
C1045 C74 1.897 . S
C1064 C180 1.887 . S
C1081 C92 1.896 . S
C1100 C334 1.895 . S
C1117 C118 1.897 . S
C1136 C312 1.893 . S
C1153 C294 1.896 . S
C1172 C136 1.895 . S
C1189 C158 1.896 . S
C1208 C268 1.888 . S
C1225 C9 1.157 . S
C1244 C336 1.168 . S
C1261 C31 1.145 . S
C1280 C314 1.200 . S
C1297 C53 1.145 . S
C1316 C293 1.196 . S
C1333 C71 1.145 . S
C1352 C270 1.200 . S
C1369 C251 1.194 . S
C1388 C95 1.184 . S
C1405 C225 1.193 . S
C1424 C116 1.176 . S
C1441 C203 1.190 . S
C1460 C139 1.159 . S
C1477 C161 1.160 . S
C1496 C181 1.208 . S
C1513 C160 1.188 . S
C1532 C185 1.156 . S
C1549 C138 1.192 . S
C1568 C207 1.116 . S
C1585 C117 1.193 . S
C1604 C229 1.151 . S
C1621 C247 1.160 . S
C1640 C94 1.177 . S
C1657 C271 1.152 . S
C1676 C75 1.182 . S
C1693 C49 1.187 . S
C1712 C292 1.118 . S
C1729 C315 1.145 . S
C1748 C27 1.168 . S
C1765 C5 1.187 . S
C1784 C337 1.112 . S
C1801 C8 1.402 . S
C1820 C30 1.406 . S
C1837 C70 1.399 . S
C1856 C52 1.410 . S
C1873 C96 1.407 . S
C1892 C114 1.392 . S
C1909 C162 1.400 . S
C1928 C140 1.418 . S
C1945 C206 1.402 . S
C1964 C184 1.405 . S
C1981 C228 1.399 . S
C2000 C246 1.420 . S
C2017 C290 1.399 . S
C2036 C272 1.373 . S
C2053 C338 1.407 . S
C2072 C316 1.396 . S
