# Generated by pormake.
# Topology zfh, (5)-cn, num edge types: 1
# Building blocks:
#     Node 0, Type 0, BuildingBlock: BEQFEK_clean_sbu_0, # of connection points: 5
#     Node 1, Type 0, BuildingBlock: BEQFEK_clean_sbu_0, # of connection points: 5
#     Node 2, Type 0, BuildingBlock: BEQFEK_clean_sbu_0, # of connection points: 5
#     Node 3, Type 0, BuildingBlock: BEQFEK_clean_sbu_0, # of connection points: 5
#     Node 4, Type 0, BuildingBlock: BEQFEK_clean_sbu_0, # of connection points: 5
#     Node 5, Type 0, BuildingBlock: BEQFEK_clean_sbu_0, # of connection points: 5
#     Node 6, Type 0, BuildingBlock: BEQFEK_clean_sbu_0, # of connection points: 5
#     Node 7, Type 0, BuildingBlock: BEQFEK_clean_sbu_0, # of connection points: 5
#     Node 8, Type 0, BuildingBlock: BEQFEK_clean_sbu_0, # of connection points: 5
#     Node 9, Type 0, BuildingBlock: BEQFEK_clean_sbu_0, # of connection points: 5
#     Node 10, Type 0, BuildingBlock: BEQFEK_clean_sbu_0, # of connection points: 5
#     Node 11, Type 0, BuildingBlock: BEQFEK_clean_sbu_0, # of connection points: 5
#     Node 12, Type 0, BuildingBlock: BEQFEK_clean_sbu_0, # of connection points: 5
#     Node 13, Type 0, BuildingBlock: BEQFEK_clean_sbu_0, # of connection points: 5
#     Node 14, Type 0, BuildingBlock: BEQFEK_clean_sbu_0, # of connection points: 5
#     Node 15, Type 0, BuildingBlock: BEQFEK_clean_sbu_0, # of connection points: 5
#     Edge 16, Type (0, 0), BuildingBlock: CIFDUS_clean_linker_0, # of connection points: 2
#     Edge 17, Type (0, 0), BuildingBlock: CIFDUS_clean_linker_0, # of connection points: 2
#     Edge 18, Type (0, 0), BuildingBlock: CIFDUS_clean_linker_0, # of connection points: 2
#     Edge 19, Type (0, 0), BuildingBlock: CIFDUS_clean_linker_0, # of connection points: 2
#     Edge 20, Type (0, 0), BuildingBlock: CIFDUS_clean_linker_0, # of connection points: 2
#     Edge 21, Type (0, 0), BuildingBlock: CIFDUS_clean_linker_0, # of connection points: 2
#     Edge 22, Type (0, 0), BuildingBlock: CIFDUS_clean_linker_0, # of connection points: 2
#     Edge 23, Type (0, 0), BuildingBlock: CIFDUS_clean_linker_0, # of connection points: 2
#     Edge 24, Type (0, 0), BuildingBlock: CIFDUS_clean_linker_0, # of connection points: 2
#     Edge 25, Type (0, 0), BuildingBlock: CIFDUS_clean_linker_0, # of connection points: 2
#     Edge 26, Type (0, 0), BuildingBlock: CIFDUS_clean_linker_0, # of connection points: 2
#     Edge 27, Type (0, 0), BuildingBlock: CIFDUS_clean_linker_0, # of connection points: 2
#     Edge 28, Type (0, 0), BuildingBlock: CIFDUS_clean_linker_0, # of connection points: 2
#     Edge 29, Type (0, 0), BuildingBlock: CIFDUS_clean_linker_0, # of connection points: 2
#     Edge 30, Type (0, 0), BuildingBlock: CIFDUS_clean_linker_0, # of connection points: 2
#     Edge 31, Type (0, 0), BuildingBlock: CIFDUS_clean_linker_0, # of connection points: 2
#     Edge 32, Type (0, 0), BuildingBlock: CIFDUS_clean_linker_0, # of connection points: 2
#     Edge 33, Type (0, 0), BuildingBlock: CIFDUS_clean_linker_0, # of connection points: 2
#     Edge 34, Type (0, 0), BuildingBlock: CIFDUS_clean_linker_0, # of connection points: 2
#     Edge 35, Type (0, 0), BuildingBlock: CIFDUS_clean_linker_0, # of connection points: 2
#     Edge 36, Type (0, 0), BuildingBlock: CIFDUS_clean_linker_0, # of connection points: 2
#     Edge 37, Type (0, 0), BuildingBlock: CIFDUS_clean_linker_0, # of connection points: 2
#     Edge 38, Type (0, 0), BuildingBlock: CIFDUS_clean_linker_0, # of connection points: 2
#     Edge 39, Type (0, 0), BuildingBlock: CIFDUS_clean_linker_0, # of connection points: 2
#     Edge 40, Type (0, 0), BuildingBlock: CIFDUS_clean_linker_0, # of connection points: 2
#     Edge 41, Type (0, 0), BuildingBlock: CIFDUS_clean_linker_0, # of connection points: 2
#     Edge 42, Type (0, 0), BuildingBlock: CIFDUS_clean_linker_0, # of connection points: 2
#     Edge 43, Type (0, 0), BuildingBlock: CIFDUS_clean_linker_0, # of connection points: 2
#     Edge 44, Type (0, 0), BuildingBlock: CIFDUS_clean_linker_0, # of connection points: 2
#     Edge 45, Type (0, 0), BuildingBlock: CIFDUS_clean_linker_0, # of connection points: 2
#     Edge 46, Type (0, 0), BuildingBlock: CIFDUS_clean_linker_0, # of connection points: 2
#     Edge 47, Type (0, 0), BuildingBlock: CIFDUS_clean_linker_0, # of connection points: 2
#     Edge 48, Type (0, 0), BuildingBlock: CIFDUS_clean_linker_0, # of connection points: 2
#     Edge 49, Type (0, 0), BuildingBlock: CIFDUS_clean_linker_0, # of connection points: 2
#     Edge 50, Type (0, 0), BuildingBlock: CIFDUS_clean_linker_0, # of connection points: 2
#     Edge 51, Type (0, 0), BuildingBlock: CIFDUS_clean_linker_0, # of connection points: 2
#     Edge 52, Type (0, 0), BuildingBlock: CIFDUS_clean_linker_0, # of connection points: 2
#     Edge 53, Type (0, 0), BuildingBlock: CIFDUS_clean_linker_0, # of connection points: 2
#     Edge 54, Type (0, 0), BuildingBlock: CIFDUS_clean_linker_0, # of connection points: 2
#     Edge 55, Type (0, 0), BuildingBlock: CIFDUS_clean_linker_0, # of connection points: 2
# Relax obj value: 0.218
# Max RMSD: 0.165
# Mean RMSD: 0.165
data_MOF--net-zfh--node1-BEQFEK_clean_sbu_0--edge1-CIFDUS_clean_linker_0
_symmetry_space_group_name_H-M    P1
_symmetry_Int_Tables_number       1
_symmetry_cell_setting            triclinic
loop_
_symmetry_equiv_pos_as_xyz
'x, y, z'
_cell_length_a     38.081256
_cell_length_b     38.217353
_cell_length_c     38.415114
_cell_angle_alpha  89.770866
_cell_angle_beta   89.969813
_cell_angle_gamma 90.47842
loop_
_atom_site_label
_atom_site_type_symbol
_atom_site_fract_x
_atom_site_fract_y
_atom_site_fract_z
_atom_type_partial_charge
Co0 Co 0.56114 0.18771 0.38833 0.0
Co1 Co 0.52144 0.23826 0.33729 0.0
C2 C 0.48639 0.17528 0.37199 0.0
O3 O 0.51347 0.16568 0.38886 0.0
O4 O 0.48709 0.20208 0.35229 0.0
C5 C 0.58921 0.15275 0.45081 0.0
O6 O 0.55962 0.16017 0.46664 0.0
C7 C 0.46944 0.29308 0.33331 0.0
C8 C 0.47414 0.31303 0.27951 0.0
C9 C 0.45668 0.31824 0.31074 0.0
N10 N 0.49388 0.27431 0.31656 0.0
N11 N 0.4964 0.28614 0.28427 0.0
C12 C 0.45778 0.28615 0.36997 0.0
H13 H 0.42866 0.28614 0.37135 0.0
H14 H 0.468 0.26083 0.37958 0.0
H15 H 0.46757 0.30715 0.38732 0.0
C16 C 0.57912 0.25613 0.42154 0.0
N17 N 0.56133 0.23658 0.39815 0.0
N18 N 0.54692 0.25757 0.37505 0.0
C19 C 0.55607 0.29093 0.38227 0.0
C20 C 0.5763 0.29112 0.4122 0.0
C21 C 0.6016 0.24147 0.44991 0.0
H22 H 0.62069 0.22293 0.43862 0.0
H23 H 0.58477 0.22692 0.46866 0.0
H24 H 0.61617 0.26232 0.46396 0.0
O25 O 0.58149 0.18121 0.34157 0.0
O26 O 0.55518 0.21684 0.30402 0.0
H27 H 0.54703 0.31411 0.33197 0.0
H28 H 0.56653 0.34353 0.36294 0.0
C29 C 0.54745 0.32182 0.35973 0.0
H30 H 0.52138 0.33201 0.36711 0.0
H31 H 0.51364 0.27625 0.26569 0.0
O32 O 0.59376 0.16211 0.41936 0.0
C33 C 0.57802 0.1935 0.31091 0.0
Co34 Co 0.33631 0.55939 0.3878 0.0
Co35 Co 0.28154 0.52186 0.33851 0.0
C36 C 0.34589 0.48526 0.36653 0.0
O37 O 0.35589 0.51096 0.38528 0.0
O38 O 0.31839 0.48717 0.34789 0.0
C39 C 0.37125 0.58366 0.4518 0.0
O40 O 0.35782 0.55591 0.46728 0.0
C41 C 0.23056 0.46565 0.32792 0.0
C42 C 0.19359 0.48833 0.28999 0.0
C43 C 0.19882 0.45952 0.31134 0.0
N44 N 0.24338 0.4968 0.31719 0.0
N45 N 0.2216 0.50982 0.29379 0.0
C46 C 0.246 0.44485 0.35717 0.0
H47 H 0.25697 0.4627 0.3772 0.0
H48 H 0.22621 0.42706 0.36918 0.0
H49 H 0.26787 0.42891 0.34686 0.0
C50 C 0.26993 0.57752 0.42511 0.0
N51 N 0.28784 0.56006 0.40037 0.0
N52 N 0.26523 0.54363 0.3801 0.0
C53 C 0.23239 0.54956 0.39182 0.0
C54 C 0.23431 0.57125 0.42053 0.0
C55 C 0.28596 0.60339 0.4497 0.0
H56 H 0.30722 0.6183 0.43649 0.0
H57 H 0.2971 0.58921 0.47231 0.0
H58 H 0.26614 0.62206 0.4595 0.0
O59 O 0.34163 0.58178 0.34164 0.0
O60 O 0.30203 0.55791 0.30621 0.0
H61 H 0.19718 0.5448 0.34869 0.0
H62 H 0.1757 0.54217 0.39052 0.0
C63 C 0.19957 0.53503 0.37576 0.0
H64 H 0.20091 0.50616 0.37551 0.0
H65 H 0.22467 0.53438 0.28216 0.0
O66 O 0.36538 0.58881 0.41962 0.0
C67 C 0.32693 0.57978 0.31193 0.0
Co68 Co 0.95819 0.32798 0.38381 0.0
Co69 Co 0.99827 0.27634 0.33417 0.0
C70 C 0.0323 0.34243 0.3635 0.0
O71 O 1.00514 0.35103 0.38086 0.0
O72 O 0.03273 0.31446 0.34546 0.0
C73 C 0.92571 0.38249 0.42853 0.0
O74 O 0.94957 0.40512 0.41785 0.0
C75 C 0.04985 0.22069 0.32748 0.0
C76 C 0.03033 0.19158 0.28185 0.0
C77 C 0.05447 0.18998 0.30886 0.0
N78 N 0.02369 0.239 0.31268 0.0
N79 N 0.01291 0.22198 0.28473 0.0
C80 C 0.06602 0.22981 0.36181 0.0
H81 H 0.05094 0.2507 0.37491 0.0
H82 H 0.06733 0.20635 0.37887 0.0
H83 H 0.09328 0.23931 0.35739 0.0
C84 C 0.94489 0.26206 0.4222 0.0
N85 N 0.9608 0.28006 0.39629 0.0
N86 N 0.97516 0.25791 0.37449 0.0
C87 C 0.9677 0.22496 0.38532 0.0
C88 C 0.94861 0.22657 0.41605 0.0
C89 C 0.92272 0.27851 0.44971 0.0
H90 H 0.93717 0.30078 0.46157 0.0
H91 H 0.91507 0.25957 0.47035 0.0
H92 H 0.8985 0.28866 0.43743 0.0
O93 O 0.93535 0.33276 0.33774 0.0
O94 O 0.96252 0.29655 0.30161 0.0
H95 H 0.97311 0.19659 0.33754 0.0
H96 H 0.96103 0.16955 0.3742 0.0
C97 C 0.97694 0.19243 0.36581 0.0
H98 H 1.00472 0.18595 0.37091 0.0
H99 H 0.99177 0.22968 0.26931 0.0
O100 O 0.92642 0.3512 0.41747 0.0
C101 C 0.93905 0.31952 0.30758 0.0
Co102 Co 0.17782 0.95773 0.39271 0.0
Co103 Co 0.24114 0.98924 0.3498 0.0
C104 C 0.17716 0.03205 0.36825 0.0
O105 O 0.16173 1.00674 0.38395 0.0
O106 O 0.20758 0.02854 0.35495 0.0
C107 C 0.13074 0.94331 0.45127 0.0
O108 O 0.13597 0.97619 0.45986 0.0
C109 C 0.30257 0.03503 0.34658 0.0
C110 C 0.33484 0.0107 0.30565 0.0
C111 C 0.33525 0.03684 0.33061 0.0
N112 N 0.28403 1.00875 0.33211 0.0
N113 N 0.30316 0.99479 0.30713 0.0
C114 C 0.29078 0.05466 0.37808 0.0
H115 H 0.269 0.04052 0.39138 0.0
H116 H 0.31295 0.05857 0.39643 0.0
H117 H 0.2812 0.08076 0.36989 0.0
C118 C 0.23642 0.94067 0.44143 0.0
N119 N 0.22388 0.95583 0.41219 0.0
N120 N 0.25051 0.96719 0.39329 0.0
C121 C 0.28077 0.959 0.40963 0.0
C122 C 0.27283 0.94236 0.44078 0.0
C123 C 0.21401 0.92492 0.4695 0.0
H124 H 0.19636 0.94526 0.47986 0.0
H125 H 0.22984 0.91468 0.49143 0.0
H126 H 0.19777 0.90342 0.45853 0.0
O127 O 0.1772 0.9322 0.34783 0.0
O128 O 0.22109 0.95446 0.31632 0.0
H129 H 0.33529 0.94394 0.40578 0.0
H130 H 0.32679 0.98952 0.39865 0.0
C131 C 0.31663 0.9627 0.39396 0.0
H132 H 0.31549 0.95781 0.36561 0.0
H133 H 0.29538 0.97313 0.29248 0.0
O134 O 0.14488 0.93158 0.42375 0.0
C135 C 0.1952 0.93327 0.31985 0.0
Co136 Co 0.06319 0.83982 0.10911 0.0
Co137 Co 0.03201 0.77635 0.15276 0.0
C138 C 0.99134 0.84282 0.13891 0.0
O139 O 0.01445 0.85685 0.11906 0.0
O140 O 0.99606 0.81298 0.15283 0.0
C141 C 0.07876 0.88479 0.04925 0.0
O142 O 0.04666 0.87708 0.03915 0.0
C143 C 0.97739 0.72301 0.1625 0.0
C144 C 1.00523 0.68108 0.19057 0.0
C145 C 0.97355 0.68901 0.17474 0.0
N146 N 1.00991 0.73455 0.17044 0.0
N147 N 0.02614 0.70963 0.18797 0.0
C148 C 0.95256 0.74247 0.13941 0.0
H149 H 0.96743 0.75772 0.11957 0.0
H150 H 0.93385 0.72441 0.12632 0.0
H151 H 0.93743 0.76115 0.15546 0.0
C152 C 0.07529 0.78205 0.05846 0.0
N153 N 0.06291 0.79427 0.089 0.0
N154 N 0.04932 0.76797 0.1069 0.0
C155 C 0.05207 0.7384 0.08793 0.0
C156 C 0.06843 0.74646 0.05664 0.0
C157 C 0.09652 0.80299 0.0329 0.0
H158 H 0.11483 0.82068 0.04686 0.0
H159 H 0.07862 0.81867 0.01644 0.0
H160 H 0.11212 0.78586 0.01562 0.0
O161 O 0.08936 0.839 0.15369 0.0
O162 O 0.07016 0.79326 0.18449 0.0
H163 H 0.05099 0.69554 0.12391 0.0
H164 H 0.04337 0.68279 0.07933 0.0
C165 C 0.03844 0.70324 0.09905 0.0
H166 H 1.00973 0.70467 0.103 0.0
H167 H 0.05217 0.71134 0.19631 0.0
O168 O 0.08967 0.873 0.07825 0.0
C169 C 0.09032 0.81995 0.18098 0.0
Co170 Co 0.68524 0.06298 0.10736 0.0
Co171 Co 0.73991 0.02503 0.15452 0.0
C172 C 0.67337 0.98961 0.12749 0.0
O173 O 0.66414 0.01592 0.10944 0.0
O174 O 0.70141 0.99041 0.14551 0.0
C175 C 0.64583 0.08499 0.04745 0.0
O176 O 0.65617 0.05564 0.03319 0.0
C177 C 0.79433 0.97269 0.15446 0.0
C178 C 0.825 0.98414 0.20184 0.0
C179 C 0.82465 0.96361 0.17213 0.0
N180 N 0.77812 0.99815 0.17222 0.0
N181 N 0.79617 1.00442 0.20093 0.0
C182 C 0.78091 0.95778 0.12093 0.0
H183 H 0.78374 0.97742 0.09979 0.0
H184 H 0.79513 0.93366 0.11368 0.0
H185 H 0.75255 0.95156 0.12348 0.0
C186 C 0.7495 0.07913 0.06573 0.0
N187 N 0.73265 0.06343 0.09255 0.0
N188 N 0.75595 0.04929 0.1135 0.0
C189 C 0.78848 0.05646 0.10107 0.0
C190 C 0.78537 0.07488 0.06999 0.0
C191 C 0.73204 0.10077 0.0383 0.0
H192 H 0.7123 0.11803 0.0504 0.0
H193 H 0.71863 0.08323 0.01954 0.0
H194 H 0.75129 0.11729 0.02389 0.0
O195 O 0.68236 0.08382 0.15378 0.0
O196 O 0.72148 0.05951 0.18911 0.0
H197 H 0.81845 0.0474 0.14757 0.0
H198 H 0.84413 0.06379 0.11188 0.0
C199 C 0.82189 0.04648 0.11899 0.0
H200 H 0.82915 0.01975 0.11109 0.0
H201 H 0.78978 0.02367 0.219 0.0
O202 O 0.65561 0.09271 0.078 0.0
C203 C 0.69697 0.08148 0.18346 0.0
Co204 Co 0.46477 0.68095 0.10586 0.0
Co205 Co 0.50067 0.73878 0.1519 0.0
C206 C 0.5401 0.67544 0.12836 0.0
O207 O 0.51382 0.66286 0.11186 0.0
O208 O 0.53821 0.70436 0.14448 0.0
C209 C 0.44274 0.6437 0.04278 0.0
O210 O 0.4692 0.65906 0.02674 0.0
C211 C 0.55376 0.79211 0.16755 0.0
C212 C 0.52347 0.83066 0.19757 0.0
C213 C 0.55591 0.82501 0.18236 0.0
N214 N 0.52143 0.77893 0.17349 0.0
N215 N 0.50375 0.80172 0.19229 0.0
C216 C 0.58004 0.77574 0.14378 0.0
H217 H 0.56647 0.76252 0.12185 0.0
H218 H 0.59898 0.79538 0.13338 0.0
H219 H 0.59481 0.75575 0.15864 0.0
C220 C 0.44649 0.7445 0.06349 0.0
N221 N 0.46307 0.72852 0.09021 0.0
N222 N 0.48 0.75236 0.10851 0.0
C223 C 0.47622 0.78386 0.09291 0.0
C224 C 0.45461 0.78001 0.06405 0.0
C225 C 0.41971 0.72723 0.04063 0.0
H226 H 0.40623 0.70573 0.05486 0.0
H227 H 0.43287 0.71658 0.01727 0.0
H228 H 0.39976 0.74631 0.03178 0.0
O229 O 0.44058 0.67711 0.15061 0.0
O230 O 0.46452 0.71774 0.18442 0.0
H231 H 0.48257 0.82616 0.12873 0.0
H232 H 0.49302 0.83767 0.08426 0.0
C233 C 0.4945 0.81673 0.10422 0.0
H234 H 0.52257 0.81133 0.10872 0.0
H235 H 0.47748 0.79853 0.19946 0.0
O236 O 0.4376 0.6494 0.0749 0.0
C237 C 0.44248 0.69283 0.17962 0.0
Co238 Co 0.83593 0.45457 0.09974 0.0
Co239 Co 0.78241 0.49278 0.14802 0.0
C240 C 0.84834 0.52871 0.12272 0.0
O241 O 0.85702 0.50171 0.10551 0.0
O242 O 0.8197 0.52934 0.13992 0.0
C243 C 0.87163 0.43978 0.03532 0.0
O244 O 0.86006 0.47048 0.02524 0.0
C245 C 0.72635 0.54306 0.16021 0.0
C246 C 0.69466 0.51591 0.20034 0.0
C247 C 0.6944 0.54433 0.17774 0.0
N248 N 0.74383 0.51459 0.17113 0.0
N249 N 0.72529 0.49915 0.19596 0.0
C250 C 0.73795 0.56525 0.13001 0.0
H251 H 0.75792 0.55143 0.11428 0.0
H252 H 0.71533 0.57228 0.11326 0.0
H253 H 0.74983 0.58982 0.14004 0.0
C254 C 0.77104 0.43992 0.05905 0.0
N255 N 0.78814 0.4554 0.08572 0.0
N256 N 0.76529 0.47154 0.10561 0.0
C257 C 0.7328 0.46691 0.09183 0.0
C258 C 0.7355 0.44699 0.06175 0.0
C259 C 0.78769 0.41563 0.03351 0.0
H260 H 0.80775 0.39947 0.04669 0.0
H261 H 0.80045 0.43119 0.01256 0.0
H262 H 0.76791 0.39796 0.02147 0.0
O263 O 0.84036 0.42945 0.14422 0.0
O264 O 0.80306 0.456 0.17969 0.0
H265 H 0.69789 0.47481 0.13478 0.0
H266 H 0.67584 0.47192 0.09346 0.0
C267 C 0.69973 0.48153 0.10679 0.0
H268 H 0.7001 0.51025 0.10362 0.0
H269 H 0.73224 0.47565 0.20793 0.0
O270 O 0.86451 0.42874 0.06576 0.0
C271 C 0.82624 0.43266 0.17406 0.0
Co272 Co 0.4547 0.83129 0.61277 0.0
Co273 Co 0.49428 0.77977 0.66262 0.0
C274 C 0.52843 0.84571 0.63269 0.0
O275 O 0.50167 0.85431 0.6148 0.0
O276 O 0.5282 0.81809 0.65131 0.0
C277 C 0.42505 0.88837 0.57276 0.0
O278 O 0.44814 0.90816 0.58897 0.0
C279 C 0.54782 0.72636 0.66743 0.0
C280 C 0.53894 0.70241 0.71909 0.0
C281 C 0.55919 0.69978 0.6892 0.0
N282 N 0.52158 0.74343 0.68329 0.0
N283 N 0.51662 0.72925 0.71437 0.0
C284 C 0.56224 0.73603 0.63234 0.0
H285 H 0.55708 0.76386 0.62629 0.0
H286 H 0.54938 0.71997 0.61199 0.0
H287 H 0.5909 0.73105 0.63131 0.0
C288 C 0.44049 0.76511 0.57521 0.0
N289 N 0.45671 0.78329 0.60066 0.0
N290 N 0.47101 0.76127 0.62277 0.0
C291 C 0.46323 0.72825 0.61277 0.0
C292 C 0.44404 0.72958 0.58201 0.0
C293 C 0.4184 0.78158 0.54752 0.0
H294 H 0.39511 0.79365 0.55982 0.0
H295 H 0.43365 0.80265 0.53434 0.0
H296 H 0.40929 0.76224 0.528 0.0
O297 O 0.43223 0.83632 0.65917 0.0
O298 O 0.45891 0.79954 0.69542 0.0
H299 H 0.4704 0.70173 0.66169 0.0
H300 H 0.45442 0.67384 0.62733 0.0
C301 C 0.47203 0.69614 0.63345 0.0
H302 H 0.49907 0.68789 0.62715 0.0
H303 H 0.49751 0.73736 0.732 0.0
O304 O 0.42419 0.8557 0.57893 0.0
C305 C 0.43582 0.8229 0.68941 0.0
Co306 Co 0.68296 0.46814 0.59394 0.0
Co307 Co 0.73677 0.49635 0.64873 0.0
C308 C 0.67253 0.53749 0.62479 0.0
O309 O 0.66309 0.51499 0.60218 0.0
O310 O 0.69938 0.53258 0.64396 0.0
C311 C 0.64121 0.44811 0.53136 0.0
O312 O 0.64615 0.47909 0.5172 0.0
C313 C 0.78978 0.54908 0.66243 0.0
C314 C 0.82369 0.52449 0.70197 0.0
C315 C 0.82079 0.55366 0.68063 0.0
N316 N 0.77497 0.51861 0.67236 0.0
N317 N 0.79495 0.50434 0.69662 0.0
C318 C 0.77691 0.57089 0.63268 0.0
H319 H 0.75997 0.55511 0.61515 0.0
H320 H 0.79928 0.58216 0.61773 0.0
H321 H 0.76123 0.59281 0.64314 0.0
C322 C 0.74802 0.4605 0.55186 0.0
N323 N 0.73077 0.47045 0.58078 0.0
N324 N 0.75366 0.4809 0.60428 0.0
C325 C 0.78634 0.47748 0.59104 0.0
C326 C 0.78384 0.46475 0.55734 0.0
C327 C 0.73037 0.44763 0.51951 0.0
H328 H 0.71179 0.46775 0.51028 0.0
H329 H 0.74935 0.44243 0.49831 0.0
H330 H 0.71525 0.42341 0.5255 0.0
O331 O 0.67823 0.43962 0.63644 0.0
O332 O 0.71694 0.45612 0.67634 0.0
H333 H 0.84171 0.46829 0.59947 0.0
H334 H 0.82643 0.51089 0.61167 0.0
C335 C 0.81954 0.48266 0.6113 0.0
H336 H 0.81587 0.47325 0.63836 0.0
H337 H 0.79014 0.47986 0.70786 0.0
O338 O 0.65452 0.44085 0.56073 0.0
C339 C 0.69206 0.43596 0.66632 0.0
Co340 Co 0.06426 0.68242 0.61041 0.0
Co341 Co 0.02277 0.73662 0.65527 0.0
C342 C 0.98973 0.66879 0.63226 0.0
O343 O 0.01724 0.65978 0.6157 0.0
O344 O 0.98835 0.69787 0.6483 0.0
C345 C 0.08839 0.64365 0.54961 0.0
O346 O 0.05897 0.65271 0.53431 0.0
C347 C 0.96642 0.78692 0.668 0.0
C348 C 0.99416 0.82744 0.6985 0.0
C349 C 0.96272 0.82017 0.68178 0.0
N350 N 0.9988 0.77534 0.67572 0.0
N351 N 0.01485 0.79927 0.69485 0.0
C352 C 0.94182 0.76879 0.64344 0.0
H353 H 0.9568 0.75378 0.62382 0.0
H354 H 0.92443 0.78772 0.63007 0.0
H355 H 0.9252 0.75012 0.65844 0.0
C356 C 0.07669 0.74569 0.56636 0.0
N357 N 0.06197 0.72925 0.59396 0.0
N358 N 0.04323 0.75179 0.61174 0.0
C359 C 0.04432 0.78303 0.59501 0.0
C360 C 0.06569 0.78025 0.56579 0.0
C361 C 0.10366 0.72973 0.54306 0.0
H362 H 0.12013 0.71123 0.558 0.0
H363 H 0.09026 0.7154 0.52176 0.0
H364 H 0.12096 0.75008 0.53131 0.0
O365 O 0.08735 0.68123 0.65558 0.0
O366 O 0.05961 0.71914 0.68913 0.0
H367 H 0.03334 0.8245 0.63055 0.0
H368 H 0.02462 0.83552 0.58564 0.0
C369 C 0.02347 0.81436 0.60538 0.0
H370 H 0.99561 0.80669 0.60829 0.0
H371 H 0.04084 0.79747 0.70322 0.0
O372 O 0.09445 0.65342 0.58057 0.0
C373 C 0.08353 0.69632 0.68469 0.0
Co374 Co 0.83546 0.06026 0.61107 0.0
Co375 Co 0.7815 0.01911 0.65817 0.0
C376 C 0.84685 0.98518 0.63035 0.0
O377 O 0.85614 0.01266 0.61372 0.0
O378 O 0.81862 0.98435 0.6481 0.0
C379 C 0.8704 0.0842 0.54765 0.0
O380 O 0.85616 0.05672 0.53261 0.0
C381 C 0.72975 0.96331 0.66832 0.0
C382 C 0.69304 0.98635 0.70617 0.0
C383 C 0.69778 0.95771 0.68473 0.0
N384 N 0.74313 0.99407 0.6792 0.0
N385 N 0.72152 1.00727 0.70257 0.0
C386 C 0.74475 0.94259 0.63894 0.0
H387 H 0.75797 0.96028 0.61997 0.0
H388 H 0.72411 0.92699 0.62557 0.0
H389 H 0.76467 0.92439 0.64951 0.0
C390 C 0.76956 0.07896 0.57375 0.0
N391 N 0.78739 0.06035 0.59781 0.0
N392 N 0.76488 0.04233 0.61696 0.0
C393 C 0.73209 0.04827 0.60496 0.0
C394 C 0.73397 0.07177 0.57739 0.0
C395 C 0.78558 0.10677 0.55107 0.0
H396 H 0.8069 0.12053 0.56522 0.0
H397 H 0.79666 0.09448 0.52744 0.0
H398 H 0.76576 0.12622 0.54278 0.0
O399 O 0.83982 0.08179 0.65709 0.0
O400 O 0.80178 0.05429 0.6918 0.0
H401 H 0.69561 0.04072 0.64674 0.0
H402 H 0.67575 0.03867 0.60414 0.0
C403 C 0.69935 0.03195 0.61955 0.0
H404 H 0.70182 1.00318 0.61916 0.0
H405 H 0.72502 0.03166 0.71424 0.0
O406 O 0.86474 0.08973 0.57973 0.0
C407 C 0.82553 0.07764 0.68677 0.0
Co408 Co 0.96372 0.18173 0.89349 0.0
Co409 Co 0.99949 0.23635 0.84324 0.0
C410 C 0.03761 0.17289 0.87074 0.0
O411 O 0.01212 0.16283 0.88991 0.0
O412 O 0.03533 0.20016 0.85183 0.0
C413 C 0.9472 0.14788 0.9588 0.0
O414 O 0.97806 0.15986 0.96866 0.0
C415 C 0.05324 0.2896 0.83299 0.0
C416 C 0.03523 0.31891 0.78682 0.0
C417 C 0.06102 0.31838 0.81227 0.0
N418 N 0.02387 0.2742 0.82085 0.0
N419 N 0.01345 0.29152 0.7929 0.0
C420 C 0.07342 0.27638 0.86374 0.0
H421 H 0.05527 0.26454 0.88317 0.0
H422 H 0.08936 0.29738 0.87597 0.0
H423 H 0.09147 0.2556 0.85485 0.0
C424 C 0.94796 0.24693 0.93269 0.0
N425 N 0.96327 0.2298 0.90613 0.0
N426 N 0.97863 0.25277 0.88535 0.0
C427 C 0.97387 0.28521 0.89837 0.0
C428 C 0.9546 0.28244 0.92894 0.0
C429 C 0.92407 0.23035 0.95909 0.0
H430 H 0.90783 0.20968 0.94675 0.0
H431 H 0.94006 0.21863 0.98016 0.0
H432 H 0.9063 0.24987 0.97088 0.0
O433 O 0.93949 0.17579 0.84837 0.0
O434 O 0.96262 0.21544 0.8123 0.0
H435 H 0.98228 0.31853 0.85401 0.0
H436 H 0.9774 0.34201 0.89433 0.0
C437 C 0.98811 0.31815 0.88226 0.0
H438 H 0.01689 0.31904 0.88602 0.0
H439 H 0.99092 0.28534 0.77868 0.0
O440 O 0.93685 0.15355 0.92787 0.0
C441 C 0.94085 0.19054 0.81859 0.0
Co442 Co 0.34237 0.96351 0.89645 0.0
Co443 Co 0.28554 0.99949 0.8496 0.0
C444 C 0.35189 0.03733 0.87102 0.0
O445 O 0.36374 0.01137 0.88829 0.0
O446 O 0.32222 0.03578 0.8559 0.0
C447 C 0.38089 0.94521 0.95961 0.0
O448 O 0.37229 0.97642 0.97085 0.0
C449 C 0.23239 0.05247 0.83778 0.0
C450 C 0.20052 0.03029 0.79513 0.0
C451 C 0.20275 0.05827 0.81786 0.0
N452 N 0.24687 0.02221 0.82773 0.0
N453 N 0.22803 1.00931 0.80181 0.0
C454 C 0.24664 0.07513 0.86627 0.0
H455 H 0.26259 0.05945 0.88468 0.0
H456 H 0.22519 0.08838 0.88047 0.0
H457 H 0.26378 0.09563 0.85454 0.0
C458 C 0.27843 0.94938 0.94036 0.0
N459 N 0.29462 0.96421 0.91258 0.0
N460 N 0.27087 0.97975 0.89315 0.0
C461 C 0.23903 0.976 0.90841 0.0
C462 C 0.24272 0.95662 0.93891 0.0
C463 C 0.29597 0.92539 0.96575 0.0
H464 H 0.31505 0.90861 0.95202 0.0
H465 H 0.3101 0.9412 0.9855 0.0
H466 H 0.27662 0.90827 0.97929 0.0
O467 O 0.34454 0.93789 0.85215 0.0
O468 O 0.30462 0.96241 0.81793 0.0
H469 H 0.20188 0.98425 0.8673 0.0
H470 H 0.18249 0.98487 0.91021 0.0
C471 C 0.20598 0.99202 0.89477 0.0
H472 H 0.20854 0.02079 0.89606 0.0
H473 H 0.23325 0.98562 0.7895 0.0
O474 O 0.37165 0.93593 0.92922 0.0
C475 C 0.32862 0.9398 0.82309 0.0
Co476 Co 0.55981 0.33348 0.8874 0.0
Co477 Co 0.5368 0.27725 0.83157 0.0
C478 C 0.48985 0.33728 0.85512 0.0
O479 O 0.51062 0.34915 0.87838 0.0
O480 O 0.49819 0.31099 0.83679 0.0
C481 C 0.57313 0.37048 0.95346 0.0
O482 O 0.54184 0.3599 0.96363 0.0
C483 C 0.48877 0.21878 0.82413 0.0
C484 C 0.51138 0.18752 0.78167 0.0
C485 C 0.48549 0.18687 0.80719 0.0
N486 N 0.51563 0.23696 0.80984 0.0
N487 N 0.52845 0.21854 0.78379 0.0
C488 C 0.47073 0.2294 0.85706 0.0
H489 H 0.48508 0.25107 0.86999 0.0
H490 H 0.46846 0.20682 0.8752 0.0
H491 H 0.44385 0.23845 0.85076 0.0
C492 C 0.57852 0.26852 0.92627 0.0
N493 N 0.56335 0.28532 0.89923 0.0
N494 N 0.55564 0.2623 0.87493 0.0
C495 C 0.56615 0.23036 0.88548 0.0
C496 C 0.58066 0.23326 0.91834 0.0
C497 C 0.59478 0.28625 0.95703 0.0
H498 H 0.57388 0.29854 0.97275 0.0
H499 H 0.6093 0.26758 0.97375 0.0
H500 H 0.61327 0.30692 0.94799 0.0
O501 O 0.58764 0.34115 0.84449 0.0
O502 O 0.57477 0.30142 0.80403 0.0
H503 H 0.57112 0.20395 0.83658 0.0
H504 H 0.58112 0.17681 0.87357 0.0
C505 C 0.56389 0.19785 0.86387 0.0
H506 H 0.53671 0.18746 0.86482 0.0
H507 H 0.5504 0.22596 0.76916 0.0
O508 O 0.58382 0.36277 0.92312 0.0
C509 C 0.59248 0.32804 0.8144 0.0
Co510 Co 0.1882 0.55608 0.89103 0.0
Co511 Co 0.24158 0.52292 0.83879 0.0
C512 C 0.17753 0.48363 0.8672 0.0
O513 O 0.16819 0.50809 0.88751 0.0
O514 O 0.20439 0.4871 0.84777 0.0
C515 C 0.14143 0.60644 0.92207 0.0
O516 O 0.13366 0.61478 0.8898 0.0
C517 C 0.29874 0.47446 0.8393 0.0
C518 C 0.32413 0.48015 0.78798 0.0
C519 C 0.32721 0.4635 0.82 0.0
N520 N 0.28004 0.49714 0.82012 0.0
N521 N 0.29505 0.50015 0.7892 0.0
C522 C 0.28945 0.46362 0.8757 0.0
H523 H 0.26135 0.46855 0.88114 0.0
H524 H 0.30539 0.47885 0.89453 0.0
H525 H 0.29533 0.43548 0.87973 0.0
C526 C 0.25425 0.57284 0.92844 0.0
N527 N 0.23638 0.55645 0.90284 0.0
N528 N 0.25869 0.54576 0.87915 0.0
C529 C 0.2913 0.5566 0.88794 0.0
C530 C 0.28966 0.57345 0.91978 0.0
C531 C 0.23727 0.59139 0.95816 0.0
H532 H 0.22316 0.61459 0.94806 0.0
H533 H 0.21773 0.57376 0.97076 0.0
H534 H 0.25686 0.60017 0.97769 0.0
O535 O 0.18237 0.58091 0.8452 0.0
O536 O 0.22105 0.559 0.8076 0.0
H537 H 0.31491 0.5534 0.83711 0.0
H538 H 0.34164 0.57556 0.86882 0.0
C539 C 0.32289 0.55368 0.86484 0.0
H540 H 0.33698 0.52925 0.87106 0.0
H541 H 0.28617 0.51664 0.76942 0.0
O542 O 0.16278 0.58173 0.92786 0.0
C543 C 0.19642 0.58036 0.81495 0.0
H544 H 0.33811 0.10604 0.34734 0.0
H545 H 0.40228 0.01429 0.33703 0.0
H546 H 0.45438 0.04812 0.35364 0.0
H547 H 0.4823 0.10466 0.36782 0.0
H548 H 0.41886 0.19731 0.37324 0.0
H549 H 0.36578 0.1623 0.36291 0.0
C550 C 0.36342 0.09341 0.34924 0.0
C551 C 0.36636 0.05772 0.34119 0.0
C552 C 0.39336 0.1132 0.35821 0.0
C553 C 0.39945 0.04182 0.34293 0.0
C554 C 0.4292 0.06109 0.3526 0.0
C555 C 0.45672 0.11694 0.36754 0.0
C556 C 0.45431 0.15334 0.37174 0.0
C557 C 0.42656 0.09688 0.35998 0.0
C558 C 0.4212 0.16923 0.37036 0.0
C559 C 0.39092 0.14928 0.36423 0.0
H560 H 0.3411 0.43474 0.31742 0.0
H561 H 0.4008 0.46483 0.40818 0.0
H562 H 0.43938 0.41457 0.39988 0.0
H563 H 0.45794 0.36396 0.36482 0.0
H564 H 0.40001 0.33649 0.27239 0.0
H565 H 0.35902 0.38428 0.2831 0.0
C566 C 0.3623 0.43022 0.3357 0.0
C567 C 0.36793 0.45355 0.36351 0.0
C568 C 0.38482 0.40189 0.33025 0.0
C569 C 0.39583 0.44733 0.38659 0.0
C570 C 0.41794 0.41863 0.38181 0.0
C571 C 0.43589 0.36802 0.34749 0.0
C572 C 0.43146 0.34639 0.31822 0.0
C573 C 0.4129 0.39597 0.3535 0.0
C574 C 0.4037 0.35275 0.29515 0.0
C575 C 0.3803 0.38 0.30131 0.0
H576 H 0.09775 0.33023 0.33713 0.0
H577 H 0.03426 0.41119 0.38274 0.0
H578 H 0.08015 0.4544 0.37049 0.0
H579 H 0.13699 0.47011 0.34362 0.0
H580 H 0.2018 0.38934 0.3005 0.0
H581 H 0.15675 0.34514 0.31469 0.0
C582 C 0.09408 0.35725 0.34474 0.0
C583 C 0.06237 0.36738 0.36063 0.0
C584 C 0.12065 0.3821 0.33761 0.0
C585 C 0.05831 0.40251 0.37056 0.0
C586 C 0.08448 0.42737 0.36334 0.0
C587 C 0.14106 0.44278 0.33735 0.0
C588 C 0.17213 0.43282 0.32052 0.0
C589 C 0.11543 0.41761 0.34628 0.0
C590 C 0.17776 0.39741 0.31312 0.0
C591 C 0.15209 0.37225 0.32131 0.0
H592 H 0.10797 0.04058 0.3544 0.0
H593 H 0.205 0.09796 0.36699 0.0
H594 H 0.1755 0.15248 0.35112 0.0
H595 H 0.1224 0.18346 0.33076 0.0
H596 H 0.02702 0.12461 0.31337 0.0
H597 H 0.05543 0.07118 0.33358 0.0
C598 C 0.12247 0.06514 0.3542 0.0
C599 C 0.15847 0.06537 0.36228 0.0
C600 C 0.10568 0.09608 0.34365 0.0
C601 C 0.17719 0.09721 0.36107 0.0
C602 C 0.16037 0.12834 0.35186 0.0
C603 C 0.10794 0.15891 0.33156 0.0
C604 C 0.07273 0.15791 0.32056 0.0
C605 C 0.12471 0.12805 0.3426 0.0
C606 C 0.05428 0.12592 0.32136 0.0
C607 C 0.07044 0.0954 0.33312 0.0
H608 H 0.86047 0.91489 0.20842 0.0
H609 H 0.85548 0.96494 0.10788 0.0
H610 H 0.90697 0.93278 0.08858 0.0
H611 H 0.95468 0.89096 0.10081 0.0
H612 H 0.95668 0.838 0.20019 0.0
H613 H 0.90544 0.87045 0.21927 0.0
C614 C 0.87059 0.91848 0.18223 0.0
C615 C 0.85414 0.94207 0.15961 0.0
C616 C 0.89987 0.8994 0.17108 0.0
C617 C 0.86741 0.9466 0.12571 0.0
C618 C 0.89702 0.92833 0.11467 0.0
C619 C 0.9438 0.88658 0.12657 0.0
C620 C 0.95955 0.86227 0.14906 0.0
C621 C 0.91365 0.90478 0.13721 0.0
C622 C 0.94496 0.8565 0.18228 0.0
C623 C 0.91568 0.8751 0.19332 0.0
H624 H 0.54682 0.88337 0.14442 0.0
H625 H 0.62452 0.82605 0.20205 0.0
H626 H 0.66889 0.87111 0.18838 0.0
H627 H 0.68462 0.92778 0.1615 0.0
H628 H 0.60674 0.98358 0.10184 0.0
H629 H 0.56358 0.93781 0.11422 0.0
C630 C 0.57347 0.88102 0.1541 0.0
C631 C 0.58252 0.85212 0.17475 0.0
C632 C 0.59878 0.90649 0.14546 0.0
C633 C 0.61715 0.84853 0.1865 0.0
C634 C 0.64241 0.87414 0.17856 0.0
C635 C 0.65832 0.92979 0.1509 0.0
C636 C 0.64897 0.95932 0.13099 0.0
C637 C 0.63346 0.90336 0.15821 0.0
C638 C 0.61478 0.96125 0.11726 0.0
C639 C 0.58993 0.93517 0.1245 0.0
H640 H 0.54597 0.60541 0.13777 0.0
H641 H 0.60717 0.70031 0.12843 0.0
H642 H 0.66072 0.66833 0.14256 0.0
H643 H 0.68969 0.61378 0.16086 0.0
H644 H 0.62775 0.51949 0.17268 0.0
H645 H 0.57505 0.55077 0.15502 0.0
C646 C 0.57116 0.61888 0.13821 0.0
C647 C 0.57273 0.65508 0.13192 0.0
C648 C 0.60166 0.60051 0.14745 0.0
C649 C 0.60538 0.67243 0.13328 0.0
C650 C 0.63597 0.65418 0.14145 0.0
C651 C 0.6647 0.60008 0.15925 0.0
C652 C 0.66269 0.56437 0.16795 0.0
C653 C 0.63436 0.61831 0.14919 0.0
C654 C 0.62997 0.54709 0.16641 0.0
C655 C 0.59983 0.56488 0.15605 0.0
H656 H 0.98024 0.62837 0.14006 0.0
H657 H 0.9037 0.69369 0.18979 0.0
H658 H 0.85726 0.65066 0.17674 0.0
H659 H 0.8392 0.59306 0.153 0.0
H660 H 0.91632 0.52989 0.1005 0.0
H661 H 0.96146 0.5736 0.11228 0.0
C662 C 0.95335 0.63304 0.14805 0.0
C663 C 0.94529 0.66369 0.16629 0.0
C664 C 0.92686 0.60867 0.13974 0.0
C665 C 0.91037 0.67002 0.17592 0.0
C666 C 0.88391 0.64548 0.16842 0.0
C667 C 0.86578 0.58903 0.14381 0.0
C668 C 0.87421 0.55793 0.1261 0.0
C669 C 0.89189 0.61451 0.15055 0.0
C670 C 0.90886 0.55341 0.11419 0.0
C671 C 0.93488 0.57836 0.12108 0.0
H672 H 0.59399 0.8314 0.65709 0.0
H673 H 0.53117 0.91504 0.61501 0.0
H674 H 0.57814 0.95702 0.6275 0.0
H675 H 0.6357 0.97068 0.65382 0.0
H676 H 0.6997 0.88712 0.69335 0.0
H677 H 0.65361 0.84433 0.67869 0.0
C678 C 0.5907 0.85876 0.6503 0.0
C679 C 0.55891 0.87004 0.63538 0.0
C680 C 0.61785 0.88281 0.65756 0.0
C681 C 0.55531 0.90555 0.62642 0.0
C682 C 0.58208 0.92966 0.6338 0.0
C683 C 0.63936 0.94305 0.65921 0.0
C684 C 0.6705 0.93187 0.67519 0.0
C685 C 0.61314 0.91871 0.65 0.0
C686 C 0.67562 0.89611 0.6814 0.0
C687 C 0.64936 0.87175 0.67296 0.0
H688 H 0.67219 0.58019 0.68132 0.0
H689 H 0.62358 0.56535 0.58089 0.0
H690 H 0.58541 0.61529 0.59137 0.0
H691 H 0.56391 0.6613 0.63016 0.0
H692 H 0.61019 0.67448 0.73166 0.0
H693 H 0.65102 0.6267 0.71988 0.0
C694 C 0.65349 0.58806 0.66156 0.0
C695 C 0.65084 0.56905 0.63031 0.0
C696 C 0.63108 0.61634 0.66807 0.0
C697 C 0.62615 0.57943 0.60519 0.0
C698 C 0.60429 0.60798 0.61117 0.0
C699 C 0.58345 0.65423 0.64938 0.0
C700 C 0.58464 0.67183 0.68144 0.0
C701 C 0.60631 0.62642 0.64263 0.0
C702 C 0.60905 0.66141 0.7067 0.0
C703 C 0.63236 0.63416 0.69995 0.0
H704 H 0.88547 0.54129 0.65528 0.0
H705 H 0.81722 0.62418 0.68799 0.0
H706 H 0.86309 0.66773 0.67462 0.0
H707 H 0.92315 0.68174 0.65482 0.0
H708 H 0.99005 0.59866 0.61886 0.0
H709 H 0.94403 0.55572 0.63167 0.0
C710 C 0.88091 0.56892 0.65965 0.0
C711 C 0.84856 0.57973 0.67322 0.0
C712 C 0.90697 0.59369 0.65098 0.0
C713 C 0.84226 0.61549 0.67797 0.0
C714 C 0.86838 0.64028 0.67021 0.0
C715 C 0.92758 0.65428 0.64952 0.0
C716 C 0.96016 0.6435 0.63608 0.0
C717 C 0.90091 0.62966 0.65682 0.0
C718 C 0.96526 0.6078 0.62909 0.0
C719 C 0.93903 0.58313 0.63663 0.0
H720 H 0.83388 0.92006 0.65738 0.0
H721 H 0.91532 0.98304 0.60927 0.0
H722 H 0.95809 0.93737 0.6209 0.0
H723 H 0.97339 0.88118 0.6481 0.0
H724 H 0.89225 0.81684 0.69405 0.0
H725 H 0.84827 0.86144 0.68009 0.0
C726 C 0.86088 0.92366 0.64906 0.0
C727 C 0.87132 0.95519 0.63272 0.0
C728 C 0.88548 0.89724 0.65587 0.0
C729 C 0.90643 0.95916 0.62188 0.0
C730 C 0.93103 0.93312 0.62872 0.0
C731 C 0.94603 0.87708 0.65505 0.0
C732 C 0.93593 0.84629 0.67259 0.0
C733 C 0.92102 0.90242 0.64634 0.0
C734 C 0.90045 0.84063 0.68083 0.0
C735 C 0.87542 0.86605 0.6728 0.0
H736 H 0.16111 0.06345 0.87433 0.0
H737 H 0.18204 0.10998 0.77409 0.0
H738 H 0.13416 0.15161 0.78292 0.0
H739 H 0.08508 0.17286 0.81814 0.0
H740 H 0.06126 0.12343 0.91669 0.0
H741 H 0.11182 0.08492 0.90981 0.0
C742 C 0.15532 0.08305 0.85471 0.0
C743 C 0.17511 0.08425 0.82385 0.0
C744 C 0.12731 0.10618 0.85968 0.0
C745 C 0.16713 0.10899 0.79811 0.0
C746 C 0.13984 0.13267 0.80318 0.0
C747 C 0.09114 0.15393 0.83833 0.0
C748 C 0.06949 0.15112 0.86798 0.0
C749 C 0.11959 0.1313 0.83374 0.0
C750 C 0.07747 0.12611 0.89363 0.0
C751 C 0.10634 0.10408 0.88969 0.0
H752 H 0.42156 0.04085 0.85549 0.0
H753 H 0.33028 0.10476 0.87127 0.0
H754 H 0.36341 0.15687 0.85323 0.0
H755 H 0.41741 0.1838 0.82969 0.0
H756 H 0.50783 0.11952 0.81066 0.0
H757 H 0.47591 0.06805 0.83228 0.0
C758 C 0.40924 0.06634 0.85565 0.0
C759 C 0.3737 0.06909 0.8652 0.0
C760 C 0.42811 0.09602 0.8439 0.0
C761 C 0.3577 0.10209 0.86433 0.0
C762 C 0.37657 0.13184 0.85379 0.0
C763 C 0.43023 0.15861 0.83063 0.0
C764 C 0.46506 0.1556 0.81884 0.0
C765 C 0.41163 0.12906 0.84297 0.0
C766 C 0.48097 0.12253 0.81938 0.0
C767 C 0.46282 0.09312 0.83201 0.0
H768 H 0.45951 0.3925 0.88897 0.0
H769 H 0.44566 0.32365 0.80102 0.0
H770 H 0.3947 0.35657 0.78232 0.0
H771 H 0.35496 0.40649 0.78924 0.0
H772 H 0.36684 0.4739 0.87811 0.0
H773 H 0.4173 0.44025 0.89796 0.0
C774 C 0.44518 0.38452 0.8659 0.0
C775 C 0.45676 0.35573 0.84642 0.0
C776 C 0.41549 0.4035 0.85522 0.0
C777 C 0.43759 0.34571 0.81664 0.0
C778 C 0.40839 0.36461 0.80573 0.0
C779 C 0.36863 0.41363 0.81297 0.0
C780 C 0.35719 0.44244 0.83224 0.0
C781 C 0.39735 0.39382 0.82452 0.0
C782 C 0.37489 0.45149 0.86307 0.0
C783 C 0.40387 0.43234 0.87436 0.0
H784 H 0.17606 0.43789 0.8133 0.0
H785 H 0.12869 0.45795 0.91327 0.0
H786 H 0.08979 0.40724 0.90584 0.0
H787 H 0.06736 0.35883 0.86963 0.0
H788 H 0.11204 0.34132 0.76822 0.0
H789 H 0.15388 0.38956 0.77734 0.0
C790 C 0.15751 0.43098 0.83368 0.0
C791 C 0.15544 0.45163 0.86391 0.0
C792 C 0.13465 0.40236 0.82883 0.0
C793 C 0.13085 0.44254 0.88978 0.0
C794 C 0.10857 0.41356 0.88552 0.0
C795 C 0.08668 0.36531 0.84983 0.0
C796 C 0.08727 0.34629 0.81858 0.0
C797 C 0.11001 0.39351 0.85501 0.0
C798 C 0.11151 0.35549 0.79259 0.0
C799 C 0.13534 0.38302 0.79782 0.0
H800 H 0.63228 0.14823 0.31838 0.0
H801 H 0.57479 0.20647 0.24075 0.0
H802 H 0.60928 0.17909 0.19482 0.0
H803 H 0.65238 0.13588 0.17673 0.0
H804 H 0.70885 0.07618 0.25392 0.0
H805 H 0.6783 0.10756 0.30026 0.0
C806 C 0.62732 0.15515 0.29144 0.0
C807 C 0.6006 0.17915 0.28304 0.0
C808 C 0.64703 0.13911 0.26518 0.0
C809 C 0.59497 0.18801 0.24798 0.0
C810 C 0.61467 0.17232 0.22171 0.0
C811 C 0.65832 0.1298 0.20368 0.0
C812 C 0.68265 0.10336 0.21182 0.0
C813 C 0.64027 0.14742 0.23002 0.0
C814 C 0.69026 0.09631 0.2469 0.0
C815 C 0.67264 0.11411 0.27338 0.0
H816 H 0.37345 0.63397 0.31722 0.0
H817 H 0.31229 0.57574 0.24218 0.0
H818 H 0.34074 0.60806 0.1948 0.0
H819 H 0.38624 0.64906 0.1747 0.0
H820 H 0.44819 0.70671 0.2495 0.0
H821 H 0.41571 0.67856 0.29709 0.0
C822 C 0.36606 0.62847 0.29052 0.0
C823 C 0.341 0.60207 0.28331 0.0
C824 C 0.38274 0.64694 0.26341 0.0
C825 C 0.33153 0.59574 0.24854 0.0
C826 C 0.34789 0.61415 0.22142 0.0
C827 C 0.39253 0.65577 0.2014 0.0
C828 C 0.41999 0.6797 0.2085 0.0
C829 C 0.37405 0.63923 0.22855 0.0
C830 C 0.42731 0.68837 0.24326 0.0
C831 C 0.40884 0.67214 0.27048 0.0
H832 H 0.87107 0.37775 0.16953 0.0
H833 H 0.81185 0.43784 0.2439 0.0
H834 H 0.83975 0.40606 0.29168 0.0
H835 H 0.88433 0.3648 0.31226 0.0
H836 H 0.9443 0.30556 0.23777 0.0
H837 H 0.91241 0.33339 0.19009 0.0
C838 C 0.86393 0.38377 0.19617 0.0
C839 C 0.83956 0.4105 0.20302 0.0
C840 C 0.88037 0.36569 0.2235 0.0
C841 C 0.83051 0.41754 0.23776 0.0
C842 C 0.84659 0.39945 0.26513 0.0
C843 C 0.8903 0.35767 0.28562 0.0
C844 C 0.91704 0.33329 0.27871 0.0
C845 C 0.8721 0.37403 0.2583 0.0
C846 C 0.92403 0.32426 0.24397 0.0
C847 C 0.90585 0.34026 0.21664 0.0
H848 H 0.15281 0.87558 0.32209 0.0
H849 H 0.21219 0.94084 0.25099 0.0
H850 H 0.18752 0.90885 0.20165 0.0
H851 H 0.14478 0.8664 0.17867 0.0
H852 H 0.08546 0.80099 0.24968 0.0
H853 H 0.11493 0.82863 0.29907 0.0
C854 C 0.16065 0.88261 0.29581 0.0
C855 C 0.18396 0.91095 0.29027 0.0
C856 C 0.14632 0.86413 0.26754 0.0
C857 C 0.19423 0.91928 0.25606 0.0
C858 C 0.18003 0.90106 0.2278 0.0
C859 C 0.13861 0.8578 0.20493 0.0
C860 C 0.11257 0.83191 0.21042 0.0
C861 C 0.15541 0.87404 0.23322 0.0
C862 C 0.10531 0.82083 0.24463 0.0
C863 C 0.122 0.83682 0.27293 0.0
H864 H 0.37227 0.88401 0.82773 0.0
H865 H 0.31228 0.94416 0.75364 0.0
H866 H 0.3382 0.91111 0.70584 0.0
H867 H 0.38156 0.86881 0.685 0.0
H868 H 0.44213 0.80937 0.75925 0.0
H869 H 0.41197 0.83838 0.8071 0.0
C870 C 0.36454 0.88976 0.80116 0.0
C871 C 0.34059 0.91689 0.79434 0.0
C872 C 0.3798 0.8709 0.77381 0.0
C873 C 0.33067 0.92355 0.75972 0.0
C874 C 0.34561 0.90474 0.73234 0.0
C875 C 0.388 0.86188 0.71163 0.0
C876 C 0.41445 0.83712 0.71841 0.0
C877 C 0.37078 0.87892 0.73906 0.0
C878 C 0.42205 0.82833 0.75316 0.0
C879 C 0.40488 0.84503 0.78058 0.0
H880 H 0.59949 0.32238 0.74368 0.0
H881 H 0.64357 0.37442 0.83332 0.0
H882 H 0.68103 0.41007 0.79581 0.0
H883 H 0.69734 0.43077 0.73723 0.0
H884 H 0.652 0.37989 0.64757 0.0
H885 H 0.61966 0.33962 0.6852 0.0
C886 C 0.61768 0.34111 0.75501 0.0
C887 C 0.61829 0.3459 0.79125 0.0
C888 C 0.63893 0.36212 0.73321 0.0
C889 C 0.64211 0.37039 0.80546 0.0
C890 C 0.66366 0.39089 0.78402 0.0
C891 C 0.68087 0.41049 0.72595 0.0
C892 C 0.67689 0.40871 0.68965 0.0
C893 C 0.66168 0.38764 0.7478 0.0
C894 C 0.6553 0.38223 0.67548 0.0
C895 C 0.6367 0.3591 0.69698 0.0
H896 H 0.14299 0.65827 0.68046 0.0
H897 H 0.07305 0.70518 0.75505 0.0
H898 H 0.10372 0.67512 0.80246 0.0
H899 H 0.14656 0.63105 0.82174 0.0
H900 H 0.21493 0.58319 0.74616 0.0
H901 H 0.1885 0.61818 0.70005 0.0
C902 C 0.13459 0.66233 0.70712 0.0
C903 C 0.10543 0.68371 0.71411 0.0
C904 C 0.1518 0.64443 0.73401 0.0
C905 C 0.09536 0.68894 0.74888 0.0
C906 C 0.11274 0.67151 0.77596 0.0
C907 C 0.15591 0.62838 0.79525 0.0
C908 C 0.18249 0.60405 0.7875 0.0
C909 C 0.14036 0.64844 0.7687 0.0
C910 C 0.19443 0.60141 0.75299 0.0
C911 C 0.1793 0.62143 0.72654 0.0
H912 H 0.88846 0.1418 0.82445 0.0
H913 H 0.94156 0.20802 0.74934 0.0
H914 H 0.908 0.1808 0.70241 0.0
H915 H 0.86735 0.1353 0.68235 0.0
H916 H 0.8149 0.06813 0.75698 0.0
H917 H 0.84423 0.09912 0.80459 0.0
C918 C 0.89257 0.15055 0.79785 0.0
C919 C 0.91789 0.17673 0.79047 0.0
C920 C 0.87339 0.13457 0.77093 0.0
C921 C 0.92245 0.18788 0.75585 0.0
C922 C 0.9033 0.17225 0.72896 0.0
C923 C 0.86201 0.12752 0.70904 0.0
C924 C 0.8392 0.09908 0.71601 0.0
C925 C 0.87928 0.14511 0.73615 0.0
C926 C 0.83234 0.08981 0.7508 0.0
C927 C 0.84926 0.10743 0.77803 0.0
H928 H 0.59778 0.1462 0.52094 0.0
H929 H 0.64621 0.12086 0.42272 0.0
H930 H 0.69525 0.09372 0.45312 0.0
H931 H 0.72466 0.07712 0.50774 0.0
H932 H 0.67775 0.10469 0.60584 0.0
H933 H 0.6279 0.13089 0.57552 0.0
C934 C 0.61895 0.13453 0.50622 0.0
C935 C 0.61822 0.13541 0.46964 0.0
C936 C 0.6474 0.11938 0.52387 0.0
C937 C 0.64611 0.12057 0.45092 0.0
C938 C 0.6742 0.10503 0.46826 0.0
C939 C 0.70351 0.08901 0.52234 0.0
C940 C 0.70444 0.08854 0.55885 0.0
C941 C 0.6752 0.10437 0.50472 0.0
C942 C 0.67712 0.10415 0.57765 0.0
C943 C 0.64873 0.11924 0.56035 0.0
H944 H 0.3635 0.59844 0.52055 0.0
H945 H 0.41943 0.63107 0.42815 0.0
H946 H 0.44743 0.67872 0.46042 0.0
H947 H 0.45518 0.71199 0.51482 0.0
H948 H 0.396 0.68205 0.6059 0.0
H949 H 0.37019 0.6325 0.57449 0.0
C950 C 0.38213 0.61575 0.50763 0.0
C951 C 0.38964 0.61106 0.47212 0.0
C952 C 0.39745 0.64366 0.52613 0.0
C953 C 0.41329 0.63412 0.45551 0.0
C954 C 0.42926 0.6614 0.47392 0.0
C955 C 0.43661 0.69452 0.52764 0.0
C956 C 0.42795 0.70007 0.56271 0.0
C957 C 0.42135 0.66659 0.50917 0.0
C958 C 0.40364 0.67765 0.57912 0.0
C959 C 0.38876 0.64949 0.56112 0.0
H960 H 0.91681 0.44566 0.46076 0.0
H961 H 0.86998 0.34294 0.45021 0.0
H962 H 0.82261 0.35919 0.48911 0.0
H963 H 0.79396 0.40239 0.52624 0.0
H964 H 0.83926 0.5054 0.53685 0.0
H965 H 0.88777 0.48927 0.49819 0.0
C966 C 0.89626 0.42685 0.46699 0.0
C967 C 0.89721 0.39304 0.45259 0.0
C968 C 0.86873 0.43643 0.48944 0.0
C969 C 0.87026 0.36902 0.46102 0.0
C970 C 0.84297 0.37831 0.48324 0.0
C971 C 0.81432 0.42135 0.51974 0.0
C972 C 0.81299 0.45508 0.53388 0.0
C973 C 0.84188 0.4119 0.49753 0.0
C974 C 0.83983 0.47926 0.52605 0.0
C975 C 0.86747 0.47006 0.50395 0.0
H976 H 0.10558 0.87789 0.43835 0.0
H977 H 0.12175 0.95218 0.52122 0.0
H978 H 0.10341 0.90823 0.56402 0.0
H979 H 0.08638 0.84751 0.57821 0.0
H980 H 0.0662 0.77453 0.49515 0.0
H981 H 0.0835 0.81879 0.45217 0.0
C982 C 0.10471 0.88458 0.46575 0.0
C983 C 0.11512 0.91825 0.47655 0.0
C984 C 0.09401 0.85922 0.49023 0.0
C985 C 0.11367 0.92656 0.51213 0.0
C986 C 0.10344 0.90134 0.53668 0.0
C987 C 0.08509 0.84153 0.55066 0.0
C988 C 0.07504 0.80778 0.53988 0.0
C989 C 0.09404 0.86745 0.52607 0.0
C990 C 0.07429 0.80018 0.50413 0.0
C991 C 0.08392 0.82555 0.47954 0.0
H992 H 0.1794 0.92592 0.92483 0.0
H993 H 0.24424 0.96189 0.00958 0.0
H994 H 0.19917 0.94344 0.05143 0.0
H995 H 0.14123 0.91679 0.06382 0.0
H996 H 0.07438 0.886 0.97842 0.0
H997 H 0.11959 0.90418 0.93687 0.0
C998 C 0.18331 0.93051 0.9524 0.0
C999 C 0.21497 0.94562 0.96406 0.0
C1000 C 0.15673 0.9211 0.97616 0.0
C1001 C 0.22015 0.95018 -3e-05 0.0
C1002 C 0.1943 0.93985 0.02387 0.0
C1003 C 0.13643 0.91444 0.0361 0.0
C1004 C 0.10445 0.90004 0.02428 0.0
C1005 C 0.16245 0.9253 0.01227 0.0
C1006 C 0.09859 0.89727 0.98826 0.0
C1007 C 0.12457 0.90739 0.96446 0.0
H1008 H 0.66198 0.10558 0.98227 0.0
H1009 H 0.59135 0.12524 0.06749 0.0
H1010 H 0.56477 0.17357 0.03502 0.0
H1011 H 0.56241 0.21069 0.98242 0.0
H1012 H 0.63691 0.19438 0.89979 0.0
H1013 H 0.6617 0.14451 0.9312 0.0
C1014 C 0.64042 0.1202 0.99337 0.0
C1015 C 0.628 0.11173 0.02671 0.0
C1016 C 0.62638 0.14871 0.9752 0.0
C1017 C 0.60086 0.13131 0.04155 0.0
C1018 C 0.58587 0.15896 0.02313 0.0
C1019 C 0.58421 0.19622 0.97158 0.0
C1020 C 0.59748 0.20538 0.93875 0.0
C1021 C 0.59861 0.16806 0.99004 0.0
C1022 C 0.62596 0.18704 0.92484 0.0
C1023 C 0.64008 0.15864 0.94274 0.0
H1024 H 0.31483 0.55671 0.98327 0.0
H1025 H 0.32885 0.62926 0.89825 0.0
H1026 H 0.3798 0.65544 0.9274 0.0
H1027 H 0.41999 0.65798 0.9775 0.0
H1028 H 0.40314 0.58848 0.06469 0.0
H1029 H 0.35393 0.56052 0.03435 0.0
C1030 C 0.32908 0.57836 0.97136 0.0
C1031 C 0.31876 0.59076 0.93855 0.0
C1032 C 0.35795 0.59353 0.98853 0.0
C1033 C 0.33697 0.61895 0.92327 0.0
C1034 C 0.36598 0.63392 0.93992 0.0
C1035 C 0.40583 0.63636 0.98956 0.0
C1036 C 0.41538 0.62488 0.02298 0.0
C1037 C 0.37686 0.62128 0.97247 0.0
C1038 C 0.39633 0.5975 0.0388 0.0
C1039 C 0.36813 0.58164 0.02156 0.0
H1040 H 0.9118 0.38373 0.05028 0.0
H1041 H 0.86811 0.44183 0.96432 0.0
H1042 H 0.89018 0.39825 0.92347 0.0
H1043 H 0.91863 0.34155 0.91278 0.0
H1044 H 0.96487 0.28536 -0.00147 0.0
H1045 H 0.94427 0.32984 0.03916 0.0
C1046 C 0.90737 0.387 0.02257 0.0
C1047 C 0.88824 0.41582 0.01032 0.0
C1048 C 0.9202 0.36199 -0.00067 0.0
C1049 C 0.88293 0.41993 0.97435 0.0
C1050 C 0.89533 0.39492 0.95102 0.0
C1051 C 0.9249 0.33959 0.94025 0.0
C1052 C 0.9435 0.31055 0.95274 0.0
C1053 C 0.91359 0.36561 0.96328 0.0
C1054 C 0.95052 0.30757 0.98848 0.0
C1055 C 0.93887 0.333 0.01163 0.0
H1056 H 0.32698 0.97551 0.4724 0.0
H1057 H 0.27536 0.87514 0.4641 0.0
H1058 H 0.31809 0.8495 0.50417 0.0
H1059 H 0.37022 0.85564 0.54104 0.0
H1060 H 0.42219 0.95609 0.54953 0.0
H1061 H 0.3794 0.98168 0.50967 0.0
C1062 C 0.32518 0.94805 0.47953 0.0
C1063 C 0.29799 0.92723 0.46583 0.0
C1064 C 0.34994 0.93354 0.50239 0.0
C1065 C 0.2958 0.8917 0.47494 0.0
C1066 C 0.32031 0.87704 0.49762 0.0
C1067 C 0.37229 0.88313 0.53417 0.0
C1068 C 0.39944 0.90389 0.54825 0.0
C1069 C 0.3475 0.89771 0.51145 0.0
C1070 C 0.40157 0.9395 0.53911 0.0
C1071 C 0.3771 0.95417 0.51632 0.0
H1072 H 0.56353 0.31306 0.47736 0.0
H1073 H 0.62459 0.33702 0.38583 0.0
H1074 H 0.64743 0.39029 0.41333 0.0
H1075 H 0.65064 0.42954 0.46412 0.0
H1076 H 0.59333 0.40257 0.55732 0.0
H1077 H 0.568 0.35124 0.52859 0.0
C1078 C 0.58195 0.32999 0.46365 0.0
C1079 C 0.59199 0.32179 0.42958 0.0
C1080 C 0.59527 0.36014 0.47981 0.0
C1081 C 0.61605 0.34347 0.41192 0.0
C1082 C 0.62911 0.3738 0.42762 0.0
C1083 C 0.6321 0.41268 0.47776 0.0
C1084 C 0.62324 0.41991 0.51241 0.0
C1085 C 0.61875 0.38252 0.46151 0.0
C1086 C 0.60009 0.39749 0.53041 0.0
C1087 C 0.58581 0.36811 0.51411 0.0
H1088 H 0.22279 0.56937 0.48989 0.0
H1089 H 0.18027 0.60868 0.39364 0.0
H1090 H 0.12985 0.6327 0.42475 0.0
H1091 H 0.09825 0.64299 0.47957 0.0
H1092 H 0.14226 0.60581 0.57621 0.0
H1093 H 0.19155 0.58032 0.54485 0.0
C1094 C 0.20246 0.58333 0.47591 0.0
C1095 C 0.20477 0.58698 0.43966 0.0
C1096 C 0.17378 0.59723 0.494 0.0
C1097 C 0.17855 0.60519 0.42159 0.0
C1098 C 0.14983 0.61893 0.43934 0.0
C1099 C 0.11842 0.62894 0.49366 0.0
C1100 C 0.11652 0.62606 0.53007 0.0
C1101 C 0.14708 0.61498 0.47554 0.0
C1102 C 0.14315 0.60832 0.54812 0.0
C1103 C 0.17138 0.59381 0.53025 0.0
H1104 H 0.95902 0.20896 0.48337 0.0
H1105 H 0.90032 0.17971 0.39207 0.0
H1106 H 0.87275 0.13116 0.42401 0.0
H1107 H 0.86413 0.09814 0.47855 0.0
H1108 H 0.91976 0.1302 0.57102 0.0
H1109 H 0.94973 0.1765 0.53818 0.0
C1110 C 0.94019 0.19184 0.47062 0.0
C1111 C 0.93201 0.19734 0.43544 0.0
C1112 C 0.92394 0.16455 0.48937 0.0
C1113 C 0.90743 0.17537 0.41904 0.0
C1114 C 0.89158 0.14779 0.43731 0.0
C1115 C 0.88311 0.11503 0.49136 0.0
C1116 C 0.88993 0.11065 0.52705 0.0
C1117 C 0.89958 0.14216 0.47252 0.0
C1118 C 0.91411 0.13309 0.54352 0.0
C1119 C 0.93122 0.15958 0.5248 0.0
H1120 H 0.84353 0.11504 0.08277 0.0
H1121 H 0.78914 0.05921 0.00152 0.0
H1122 H 0.83485 0.0761 0.95977 0.0
H1123 H 0.89016 0.10694 0.94652 0.0
H1124 H 0.94707 0.15862 0.02895 0.0
H1125 H 0.90139 0.14168 0.07062 0.0
C1126 C 0.84228 0.10567 0.05621 0.0
C1127 C 0.81345 0.08534 0.04532 0.0
C1128 C 0.86923 0.11448 0.03271 0.0
C1129 C 0.81121 0.07487 0.0104 0.0
C1130 C 0.83738 0.08434 0.98663 0.0
C1131 C 0.89271 0.11417 0.97369 0.0
C1132 C 0.92189 0.13401 0.98465 0.0
C1133 C 0.86653 0.10411 -0.00249 0.0
C1134 C 0.92499 0.14309 0.01993 0.0
C1135 C 0.89875 0.13366 0.04371 0.0
H1136 H 0.40777 0.88174 0.94295 0.0
H1137 H 0.38761 0.94935 0.03034 0.0
H1138 H 0.40773 0.9039 0.07035 0.0
H1139 H 0.42892 0.84408 0.08065 0.0
H1140 H 0.45217 0.77778 0.99322 0.0
H1141 H 0.43192 0.82318 0.95309 0.0
C1142 C 0.40799 0.88666 0.97074 0.0
C1143 C 0.39614 0.91894 0.9836 0.0
C1144 C 0.41965 0.86043 0.9936 0.0
C1145 C 0.39674 0.92486 0.01968 0.0
C1146 C 0.40805 0.89879 0.04262 0.0
C1147 C 0.43005 0.83981 0.05278 0.0
C1148 C 0.44215 0.80769 0.03989 0.0
C1149 C 0.41928 0.86638 0.02988 0.0
C1150 C 0.44265 0.80216 0.00378 0.0
C1151 C 0.43134 0.82821 0.98083 0.0
H1152 H 0.67385 0.41322 0.07707 0.0
H1153 H 0.73456 0.45517 0.99164 0.0
H1154 H 0.68935 0.43607 0.95051 0.0
H1155 H 0.63293 0.4068 0.93885 0.0
H1156 H 0.57027 0.36812 0.02456 0.0
H1157 H 0.61516 0.38783 0.06573 0.0
C1158 C 0.67675 0.41888 0.04953 0.0
C1159 C 0.70727 0.43595 0.03739 0.0
C1160 C 0.65019 0.40865 0.02616 0.0
C1161 C 0.71128 0.44203 0.00154 0.0
C1162 C 0.68539 0.43127 0.97806 0.0
C1163 C 0.62894 0.40296 0.96657 0.0
C1164 C 0.59832 0.38594 0.97859 0.0
C1165 C 0.65477 0.4145 0.99008 0.0
C1166 C 0.59347 0.38134 0.0146 0.0
C1167 C 0.61926 0.39238 0.03816 0.0
H1168 H 0.10615 0.68687 0.06078 0.0
H1169 H 0.05163 0.75342 0.98837 0.0
H1170 H 0.06825 0.7152 0.94015 0.0
H1171 H 0.09946 0.66363 0.91866 0.0
H1172 H 0.15393 0.59695 0.99145 0.0
H1173 H 0.13559 0.63403 0.03954 0.0
C1174 C 0.09757 0.69261 0.03446 0.0
C1175 C 0.07756 0.72259 0.02795 0.0
C1176 C 0.10714 0.67051 0.00703 0.0
C1177 C 0.0671 0.73036 0.99379 0.0
C1178 C 0.07651 0.70853 0.96632 0.0
C1179 C 0.10711 0.65703 0.94505 0.0
C1180 C 0.12811 0.62758 0.95136 0.0
C1181 C 0.09669 0.67861 0.97262 0.0
C1182 C 0.13781 0.61948 0.98578 0.0
C1183 C 0.1274 0.64071 0.01334 0.0
loop_
_geom_bond_atom_site_label_1
_geom_bond_atom_site_label_2
_geom_bond_distance
_geom_bond_site_symmetry_2
_ccdc_geom_bond_type
Co0 O3 1.970 . S
Co0 N17 1.989 . S
Co0 O25 1.967 . S
Co0 O32 1.920 . S
Co1 O4 1.966 . S
Co1 N10 2.022 . S
Co1 N18 1.993 . S
Co1 O26 1.941 . S
C2 O3 1.258 . S
C2 O4 1.263 . S
O3 Co0 1.970 . S
O3 C2 1.258 . S
O4 Co1 1.966 . S
O4 C2 1.263 . S
C5 O6 1.235 . S
C5 O32 1.289 . S
O6 C5 1.235 . S
C7 C9 1.400 . S
C7 N10 1.351 . S
C7 C12 1.501 . S
C8 C9 1.387 . S
C8 N11 1.341 . S
C9 C7 1.400 . S
C9 C8 1.387 . S
N10 Co1 2.022 . S
N10 C7 1.351 . S
N10 N11 1.365 . S
N11 C8 1.341 . S
N11 N10 1.365 . S
N11 H31 0.862 . S
C12 C7 1.501 . S
C12 H13 0.961 . S
C12 H14 0.961 . S
C12 H15 0.960 . S
H13 C12 0.961 . S
H14 C12 0.961 . S
H15 C12 0.960 . S
C16 N17 1.342 . S
C16 C20 1.401 . S
C16 C21 1.499 . S
N17 Co0 1.989 . S
N17 C16 1.342 . S
N17 N18 1.388 . S
N18 Co1 1.993 . S
N18 N17 1.388 . S
N18 C19 1.346 . S
C19 N18 1.346 . S
C19 C20 1.396 . S
C19 C29 1.510 . S
C20 C16 1.401 . S
C20 C19 1.396 . S
C21 C16 1.499 . S
C21 H22 0.959 . S
C21 H23 0.960 . S
C21 H24 0.961 . S
H22 C21 0.959 . S
H23 C21 0.960 . S
H24 C21 0.961 . S
O25 Co0 1.967 . S
O25 C33 1.258 . S
O26 Co1 1.941 . S
O26 C33 1.266 . S
H27 C29 0.959 . S
H28 C29 0.961 . S
C29 C19 1.510 . S
C29 H27 0.959 . S
C29 H28 0.961 . S
C29 H30 0.960 . S
H30 C29 0.960 . S
H31 N11 0.862 . S
O32 Co0 1.920 . S
O32 C5 1.289 . S
C33 O25 1.258 . S
C33 O26 1.266 . S
Co34 O37 1.970 . S
Co34 N51 1.989 . S
Co34 O59 1.967 . S
Co34 O66 1.920 . S
Co35 O38 1.966 . S
Co35 N44 2.022 . S
Co35 N52 1.993 . S
Co35 O60 1.941 . S
C36 O37 1.258 . S
C36 O38 1.263 . S
O37 Co34 1.970 . S
O37 C36 1.258 . S
O38 Co35 1.966 . S
O38 C36 1.263 . S
C39 O40 1.235 . S
C39 O66 1.289 . S
O40 C39 1.235 . S
C41 C43 1.400 . S
C41 N44 1.351 . S
C41 C46 1.501 . S
C42 C43 1.387 . S
C42 N45 1.341 . S
C43 C41 1.400 . S
C43 C42 1.387 . S
N44 Co35 2.022 . S
N44 C41 1.351 . S
N44 N45 1.365 . S
N45 C42 1.341 . S
N45 N44 1.365 . S
N45 H65 0.862 . S
C46 C41 1.501 . S
C46 H47 0.961 . S
C46 H48 0.961 . S
C46 H49 0.960 . S
H47 C46 0.961 . S
H48 C46 0.961 . S
H49 C46 0.960 . S
C50 N51 1.342 . S
C50 C54 1.401 . S
C50 C55 1.499 . S
N51 Co34 1.989 . S
N51 C50 1.342 . S
N51 N52 1.388 . S
N52 Co35 1.993 . S
N52 N51 1.388 . S
N52 C53 1.346 . S
C53 N52 1.346 . S
C53 C54 1.396 . S
C53 C63 1.510 . S
C54 C50 1.401 . S
C54 C53 1.396 . S
C55 C50 1.499 . S
C55 H56 0.959 . S
C55 H57 0.960 . S
C55 H58 0.961 . S
H56 C55 0.959 . S
H57 C55 0.960 . S
H58 C55 0.961 . S
O59 Co34 1.967 . S
O59 C67 1.258 . S
O60 Co35 1.941 . S
O60 C67 1.266 . S
H61 C63 0.959 . S
H62 C63 0.961 . S
C63 C53 1.510 . S
C63 H61 0.959 . S
C63 H62 0.961 . S
C63 H64 0.960 . S
H64 C63 0.960 . S
H65 N45 0.862 . S
O66 Co34 1.920 . S
O66 C39 1.289 . S
C67 O59 1.258 . S
C67 O60 1.266 . S
Co68 O71 1.970 . S
Co68 N85 1.989 . S
Co68 O93 1.967 . S
Co68 O100 1.920 . S
Co69 O72 1.966 1_655 S
Co69 N78 2.022 1_655 S
Co69 N86 1.993 . S
Co69 O94 1.941 . S
C70 O71 1.258 1_455 S
C70 O72 1.263 . S
O71 Co68 1.970 . S
O71 C70 1.258 1_655 S
O72 Co69 1.966 1_455 S
O72 C70 1.263 . S
C73 O74 1.235 . S
C73 O100 1.289 . S
O74 C73 1.235 . S
C75 C77 1.400 . S
C75 N78 1.351 . S
C75 C80 1.501 . S
C76 C77 1.387 . S
C76 N79 1.341 1_455 S
C77 C75 1.400 . S
C77 C76 1.387 . S
N78 Co69 2.022 1_455 S
N78 C75 1.351 . S
N78 N79 1.365 1_455 S
N79 C76 1.341 1_655 S
N79 N78 1.365 1_655 S
N79 H99 0.862 . S
C80 C75 1.501 . S
C80 H81 0.961 . S
C80 H82 0.961 . S
C80 H83 0.960 . S
H81 C80 0.961 . S
H82 C80 0.961 . S
H83 C80 0.960 . S
C84 N85 1.342 . S
C84 C88 1.401 . S
C84 C89 1.499 . S
N85 Co68 1.989 . S
N85 C84 1.342 . S
N85 N86 1.388 . S
N86 Co69 1.993 . S
N86 N85 1.388 . S
N86 C87 1.346 . S
C87 N86 1.346 . S
C87 C88 1.396 . S
C87 C97 1.510 . S
C88 C84 1.401 . S
C88 C87 1.396 . S
C89 C84 1.499 . S
C89 H90 0.959 . S
C89 H91 0.960 . S
C89 H92 0.961 . S
H90 C89 0.959 . S
H91 C89 0.960 . S
H92 C89 0.961 . S
O93 Co68 1.967 . S
O93 C101 1.258 . S
O94 Co69 1.941 . S
O94 C101 1.266 . S
H95 C97 0.959 . S
H96 C97 0.961 . S
C97 C87 1.510 . S
C97 H95 0.959 . S
C97 H96 0.961 . S
C97 H98 0.960 . S
H98 C97 0.960 . S
H99 N79 0.862 . S
O100 Co68 1.920 . S
O100 C73 1.289 . S
C101 O93 1.258 . S
C101 O94 1.266 . S
Co102 O105 1.970 . S
Co102 N119 1.989 . S
Co102 O127 1.967 . S
Co102 O134 1.920 . S
Co103 O106 1.966 1_565 S
Co103 N112 2.022 1_565 S
Co103 N120 1.993 . S
Co103 O128 1.941 . S
C104 O105 1.258 1_545 S
C104 O106 1.263 . S
O105 Co102 1.970 . S
O105 C104 1.258 1_565 S
O106 Co103 1.966 1_545 S
O106 C104 1.263 . S
C107 O108 1.235 . S
C107 O134 1.289 . S
O108 C107 1.235 . S
C109 C111 1.400 . S
C109 N112 1.351 . S
C109 C114 1.501 . S
C110 C111 1.387 . S
C110 N113 1.341 1_545 S
C111 C109 1.400 . S
C111 C110 1.387 . S
N112 Co103 2.022 1_545 S
N112 C109 1.351 . S
N112 N113 1.365 1_545 S
N113 C110 1.341 1_565 S
N113 N112 1.365 1_565 S
N113 H133 0.862 . S
C114 C109 1.501 . S
C114 H115 0.961 . S
C114 H116 0.961 . S
C114 H117 0.960 . S
H115 C114 0.961 . S
H116 C114 0.961 . S
H117 C114 0.960 . S
C118 N119 1.342 . S
C118 C122 1.401 . S
C118 C123 1.499 . S
N119 Co102 1.989 . S
N119 C118 1.342 . S
N119 N120 1.388 . S
N120 Co103 1.993 . S
N120 N119 1.388 . S
N120 C121 1.346 . S
C121 N120 1.346 . S
C121 C122 1.396 . S
C121 C131 1.510 . S
C122 C118 1.401 . S
C122 C121 1.396 . S
C123 C118 1.499 . S
C123 H124 0.959 . S
C123 H125 0.960 . S
C123 H126 0.961 . S
H124 C123 0.959 . S
H125 C123 0.960 . S
H126 C123 0.961 . S
O127 Co102 1.967 . S
O127 C135 1.258 . S
O128 Co103 1.941 . S
O128 C135 1.266 . S
H129 C131 0.959 . S
H130 C131 0.961 . S
C131 C121 1.510 . S
C131 H129 0.959 . S
C131 H130 0.961 . S
C131 H132 0.960 . S
H132 C131 0.960 . S
H133 N113 0.862 . S
O134 Co102 1.920 . S
O134 C107 1.289 . S
C135 O127 1.258 . S
C135 O128 1.266 . S
Co136 O139 1.970 . S
Co136 N153 1.989 . S
Co136 O161 1.967 . S
Co136 O168 1.920 . S
Co137 O140 1.966 1_455 S
Co137 N146 2.022 1_455 S
Co137 N154 1.993 . S
Co137 O162 1.941 . S
C138 O139 1.258 1_655 S
C138 O140 1.263 . S
O139 Co136 1.970 . S
O139 C138 1.258 1_455 S
O140 Co137 1.966 1_655 S
O140 C138 1.263 . S
C141 O142 1.235 . S
C141 O168 1.289 . S
O142 C141 1.235 . S
C143 C145 1.400 . S
C143 N146 1.351 . S
C143 C148 1.501 . S
C144 C145 1.387 . S
C144 N147 1.341 1_655 S
C145 C143 1.400 . S
C145 C144 1.387 . S
N146 Co137 2.022 1_655 S
N146 C143 1.351 . S
N146 N147 1.365 1_655 S
N147 C144 1.341 1_455 S
N147 N146 1.365 1_455 S
N147 H167 0.862 . S
C148 C143 1.501 . S
C148 H149 0.961 . S
C148 H150 0.961 . S
C148 H151 0.960 . S
H149 C148 0.961 . S
H150 C148 0.961 . S
H151 C148 0.960 . S
C152 N153 1.342 . S
C152 C156 1.401 . S
C152 C157 1.499 . S
N153 Co136 1.989 . S
N153 C152 1.342 . S
N153 N154 1.388 . S
N154 Co137 1.993 . S
N154 N153 1.388 . S
N154 C155 1.346 . S
C155 N154 1.346 . S
C155 C156 1.396 . S
C155 C165 1.510 . S
C156 C152 1.401 . S
C156 C155 1.396 . S
C157 C152 1.499 . S
C157 H158 0.959 . S
C157 H159 0.960 . S
C157 H160 0.961 . S
H158 C157 0.959 . S
H159 C157 0.960 . S
H160 C157 0.961 . S
O161 Co136 1.967 . S
O161 C169 1.258 . S
O162 Co137 1.941 . S
O162 C169 1.266 . S
H163 C165 0.959 . S
H164 C165 0.961 . S
C165 C155 1.510 . S
C165 H163 0.959 . S
C165 H164 0.961 . S
C165 H166 0.960 . S
H166 C165 0.960 . S
H167 N147 0.862 . S
O168 Co136 1.920 . S
O168 C141 1.289 . S
C169 O161 1.258 . S
C169 O162 1.266 . S
Co170 O173 1.970 . S
Co170 N187 1.989 . S
Co170 O195 1.967 . S
Co170 O202 1.920 . S
Co171 O174 1.966 1_545 S
Co171 N180 2.022 1_545 S
Co171 N188 1.993 . S
Co171 O196 1.941 . S
C172 O173 1.258 1_565 S
C172 O174 1.263 . S
O173 Co170 1.970 . S
O173 C172 1.258 1_545 S
O174 Co171 1.966 1_565 S
O174 C172 1.263 . S
C175 O176 1.235 . S
C175 O202 1.289 . S
O176 C175 1.235 . S
C177 C179 1.400 . S
C177 N180 1.351 . S
C177 C182 1.501 . S
C178 C179 1.387 . S
C178 N181 1.341 1_565 S
C179 C177 1.400 . S
C179 C178 1.387 . S
N180 Co171 2.022 1_565 S
N180 C177 1.351 . S
N180 N181 1.365 1_565 S
N181 C178 1.341 1_545 S
N181 N180 1.365 1_545 S
N181 H201 0.862 . S
C182 C177 1.501 . S
C182 H183 0.961 . S
C182 H184 0.961 . S
C182 H185 0.960 . S
H183 C182 0.961 . S
H184 C182 0.961 . S
H185 C182 0.960 . S
C186 N187 1.342 . S
C186 C190 1.401 . S
C186 C191 1.499 . S
N187 Co170 1.989 . S
N187 C186 1.342 . S
N187 N188 1.388 . S
N188 Co171 1.993 . S
N188 N187 1.388 . S
N188 C189 1.346 . S
C189 N188 1.346 . S
C189 C190 1.396 . S
C189 C199 1.510 . S
C190 C186 1.401 . S
C190 C189 1.396 . S
C191 C186 1.499 . S
C191 H192 0.959 . S
C191 H193 0.960 . S
C191 H194 0.961 . S
H192 C191 0.959 . S
H193 C191 0.960 . S
H194 C191 0.961 . S
O195 Co170 1.967 . S
O195 C203 1.258 . S
O196 Co171 1.941 . S
O196 C203 1.266 . S
H197 C199 0.959 . S
H198 C199 0.961 . S
C199 C189 1.510 . S
C199 H197 0.959 . S
C199 H198 0.961 . S
C199 H200 0.960 . S
H200 C199 0.960 . S
H201 N181 0.862 . S
O202 Co170 1.920 . S
O202 C175 1.289 . S
C203 O195 1.258 . S
C203 O196 1.266 . S
Co204 O207 1.970 . S
Co204 N221 1.989 . S
Co204 O229 1.967 . S
Co204 O236 1.920 . S
Co205 O208 1.966 . S
Co205 N214 2.022 . S
Co205 N222 1.993 . S
Co205 O230 1.941 . S
C206 O207 1.258 . S
C206 O208 1.263 . S
O207 Co204 1.970 . S
O207 C206 1.258 . S
O208 Co205 1.966 . S
O208 C206 1.263 . S
C209 O210 1.235 . S
C209 O236 1.289 . S
O210 C209 1.235 . S
C211 C213 1.400 . S
C211 N214 1.351 . S
C211 C216 1.501 . S
C212 C213 1.387 . S
C212 N215 1.341 . S
C213 C211 1.400 . S
C213 C212 1.387 . S
N214 Co205 2.022 . S
N214 C211 1.351 . S
N214 N215 1.365 . S
N215 C212 1.341 . S
N215 N214 1.365 . S
N215 H235 0.862 . S
C216 C211 1.501 . S
C216 H217 0.961 . S
C216 H218 0.961 . S
C216 H219 0.960 . S
H217 C216 0.961 . S
H218 C216 0.961 . S
H219 C216 0.960 . S
C220 N221 1.342 . S
C220 C224 1.401 . S
C220 C225 1.499 . S
N221 Co204 1.989 . S
N221 C220 1.342 . S
N221 N222 1.388 . S
N222 Co205 1.993 . S
N222 N221 1.388 . S
N222 C223 1.346 . S
C223 N222 1.346 . S
C223 C224 1.396 . S
C223 C233 1.510 . S
C224 C220 1.401 . S
C224 C223 1.396 . S
C225 C220 1.499 . S
C225 H226 0.959 . S
C225 H227 0.960 . S
C225 H228 0.961 . S
H226 C225 0.959 . S
H227 C225 0.960 . S
H228 C225 0.961 . S
O229 Co204 1.967 . S
O229 C237 1.258 . S
O230 Co205 1.941 . S
O230 C237 1.266 . S
H231 C233 0.959 . S
H232 C233 0.961 . S
C233 C223 1.510 . S
C233 H231 0.959 . S
C233 H232 0.961 . S
C233 H234 0.960 . S
H234 C233 0.960 . S
H235 N215 0.862 . S
O236 Co204 1.920 . S
O236 C209 1.289 . S
C237 O229 1.258 . S
C237 O230 1.266 . S
Co238 O241 1.970 . S
Co238 N255 1.989 . S
Co238 O263 1.967 . S
Co238 O270 1.920 . S
Co239 O242 1.966 . S
Co239 N248 2.022 . S
Co239 N256 1.993 . S
Co239 O264 1.941 . S
C240 O241 1.258 . S
C240 O242 1.263 . S
O241 Co238 1.970 . S
O241 C240 1.258 . S
O242 Co239 1.966 . S
O242 C240 1.263 . S
C243 O244 1.235 . S
C243 O270 1.289 . S
O244 C243 1.235 . S
C245 C247 1.400 . S
C245 N248 1.351 . S
C245 C250 1.501 . S
C246 C247 1.387 . S
C246 N249 1.341 . S
C247 C245 1.400 . S
C247 C246 1.387 . S
N248 Co239 2.022 . S
N248 C245 1.351 . S
N248 N249 1.365 . S
N249 C246 1.341 . S
N249 N248 1.365 . S
N249 H269 0.862 . S
C250 C245 1.501 . S
C250 H251 0.961 . S
C250 H252 0.961 . S
C250 H253 0.960 . S
H251 C250 0.961 . S
H252 C250 0.961 . S
H253 C250 0.960 . S
C254 N255 1.342 . S
C254 C258 1.401 . S
C254 C259 1.499 . S
N255 Co238 1.989 . S
N255 C254 1.342 . S
N255 N256 1.388 . S
N256 Co239 1.993 . S
N256 N255 1.388 . S
N256 C257 1.346 . S
C257 N256 1.346 . S
C257 C258 1.396 . S
C257 C267 1.510 . S
C258 C254 1.401 . S
C258 C257 1.396 . S
C259 C254 1.499 . S
C259 H260 0.959 . S
C259 H261 0.960 . S
C259 H262 0.961 . S
H260 C259 0.959 . S
H261 C259 0.960 . S
H262 C259 0.961 . S
O263 Co238 1.967 . S
O263 C271 1.258 . S
O264 Co239 1.941 . S
O264 C271 1.266 . S
H265 C267 0.959 . S
H266 C267 0.961 . S
C267 C257 1.510 . S
C267 H265 0.959 . S
C267 H266 0.961 . S
C267 H268 0.960 . S
H268 C267 0.960 . S
H269 N249 0.862 . S
O270 Co238 1.920 . S
O270 C243 1.289 . S
C271 O263 1.258 . S
C271 O264 1.266 . S
Co272 O275 1.970 . S
Co272 N289 1.989 . S
Co272 O297 1.967 . S
Co272 O304 1.920 . S
Co273 O276 1.966 . S
Co273 N282 2.022 . S
Co273 N290 1.993 . S
Co273 O298 1.941 . S
C274 O275 1.258 . S
C274 O276 1.263 . S
O275 Co272 1.970 . S
O275 C274 1.258 . S
O276 Co273 1.966 . S
O276 C274 1.263 . S
C277 O278 1.235 . S
C277 O304 1.289 . S
O278 C277 1.235 . S
C279 C281 1.400 . S
C279 N282 1.351 . S
C279 C284 1.501 . S
C280 C281 1.387 . S
C280 N283 1.341 . S
C281 C279 1.400 . S
C281 C280 1.387 . S
N282 Co273 2.022 . S
N282 C279 1.351 . S
N282 N283 1.365 . S
N283 C280 1.341 . S
N283 N282 1.365 . S
N283 H303 0.862 . S
C284 C279 1.501 . S
C284 H285 0.961 . S
C284 H286 0.961 . S
C284 H287 0.960 . S
H285 C284 0.961 . S
H286 C284 0.961 . S
H287 C284 0.960 . S
C288 N289 1.342 . S
C288 C292 1.401 . S
C288 C293 1.499 . S
N289 Co272 1.989 . S
N289 C288 1.342 . S
N289 N290 1.388 . S
N290 Co273 1.993 . S
N290 N289 1.388 . S
N290 C291 1.346 . S
C291 N290 1.346 . S
C291 C292 1.396 . S
C291 C301 1.510 . S
C292 C288 1.401 . S
C292 C291 1.396 . S
C293 C288 1.499 . S
C293 H294 0.959 . S
C293 H295 0.960 . S
C293 H296 0.961 . S
H294 C293 0.959 . S
H295 C293 0.960 . S
H296 C293 0.961 . S
O297 Co272 1.967 . S
O297 C305 1.258 . S
O298 Co273 1.941 . S
O298 C305 1.266 . S
H299 C301 0.959 . S
H300 C301 0.961 . S
C301 C291 1.510 . S
C301 H299 0.959 . S
C301 H300 0.961 . S
C301 H302 0.960 . S
H302 C301 0.960 . S
H303 N283 0.862 . S
O304 Co272 1.920 . S
O304 C277 1.289 . S
C305 O297 1.258 . S
C305 O298 1.266 . S
Co306 O309 1.970 . S
Co306 N323 1.989 . S
Co306 O331 1.967 . S
Co306 O338 1.920 . S
Co307 O310 1.966 . S
Co307 N316 2.022 . S
Co307 N324 1.993 . S
Co307 O332 1.941 . S
C308 O309 1.258 . S
C308 O310 1.263 . S
O309 Co306 1.970 . S
O309 C308 1.258 . S
O310 Co307 1.966 . S
O310 C308 1.263 . S
C311 O312 1.235 . S
C311 O338 1.289 . S
O312 C311 1.235 . S
C313 C315 1.400 . S
C313 N316 1.351 . S
C313 C318 1.501 . S
C314 C315 1.387 . S
C314 N317 1.341 . S
C315 C313 1.400 . S
C315 C314 1.387 . S
N316 Co307 2.022 . S
N316 C313 1.351 . S
N316 N317 1.365 . S
N317 C314 1.341 . S
N317 N316 1.365 . S
N317 H337 0.862 . S
C318 C313 1.501 . S
C318 H319 0.961 . S
C318 H320 0.961 . S
C318 H321 0.960 . S
H319 C318 0.961 . S
H320 C318 0.961 . S
H321 C318 0.960 . S
C322 N323 1.342 . S
C322 C326 1.401 . S
C322 C327 1.499 . S
N323 Co306 1.989 . S
N323 C322 1.342 . S
N323 N324 1.388 . S
N324 Co307 1.993 . S
N324 N323 1.388 . S
N324 C325 1.346 . S
C325 N324 1.346 . S
C325 C326 1.396 . S
C325 C335 1.510 . S
C326 C322 1.401 . S
C326 C325 1.396 . S
C327 C322 1.499 . S
C327 H328 0.959 . S
C327 H329 0.960 . S
C327 H330 0.961 . S
H328 C327 0.959 . S
H329 C327 0.960 . S
H330 C327 0.961 . S
O331 Co306 1.967 . S
O331 C339 1.258 . S
O332 Co307 1.941 . S
O332 C339 1.266 . S
H333 C335 0.959 . S
H334 C335 0.961 . S
C335 C325 1.510 . S
C335 H333 0.959 . S
C335 H334 0.961 . S
C335 H336 0.960 . S
H336 C335 0.960 . S
H337 N317 0.862 . S
O338 Co306 1.920 . S
O338 C311 1.289 . S
C339 O331 1.258 . S
C339 O332 1.266 . S
Co340 O343 1.970 . S
Co340 N357 1.989 . S
Co340 O365 1.967 . S
Co340 O372 1.920 . S
Co341 O344 1.966 1_455 S
Co341 N350 2.022 1_455 S
Co341 N358 1.993 . S
Co341 O366 1.941 . S
C342 O343 1.258 1_655 S
C342 O344 1.263 . S
O343 Co340 1.970 . S
O343 C342 1.258 1_455 S
O344 Co341 1.966 1_655 S
O344 C342 1.263 . S
C345 O346 1.235 . S
C345 O372 1.289 . S
O346 C345 1.235 . S
C347 C349 1.400 . S
C347 N350 1.351 . S
C347 C352 1.501 . S
C348 C349 1.387 . S
C348 N351 1.341 1_655 S
C349 C347 1.400 . S
C349 C348 1.387 . S
N350 Co341 2.022 1_655 S
N350 C347 1.351 . S
N350 N351 1.365 1_655 S
N351 C348 1.341 1_455 S
N351 N350 1.365 1_455 S
N351 H371 0.862 . S
C352 C347 1.501 . S
C352 H353 0.961 . S
C352 H354 0.961 . S
C352 H355 0.960 . S
H353 C352 0.961 . S
H354 C352 0.961 . S
H355 C352 0.960 . S
C356 N357 1.342 . S
C356 C360 1.401 . S
C356 C361 1.499 . S
N357 Co340 1.989 . S
N357 C356 1.342 . S
N357 N358 1.388 . S
N358 Co341 1.993 . S
N358 N357 1.388 . S
N358 C359 1.346 . S
C359 N358 1.346 . S
C359 C360 1.396 . S
C359 C369 1.510 . S
C360 C356 1.401 . S
C360 C359 1.396 . S
C361 C356 1.499 . S
C361 H362 0.959 . S
C361 H363 0.960 . S
C361 H364 0.961 . S
H362 C361 0.959 . S
H363 C361 0.960 . S
H364 C361 0.961 . S
O365 Co340 1.967 . S
O365 C373 1.258 . S
O366 Co341 1.941 . S
O366 C373 1.266 . S
H367 C369 0.959 . S
H368 C369 0.961 . S
C369 C359 1.510 . S
C369 H367 0.959 . S
C369 H368 0.961 . S
C369 H370 0.960 . S
H370 C369 0.960 . S
H371 N351 0.862 . S
O372 Co340 1.920 . S
O372 C345 1.289 . S
C373 O365 1.258 . S
C373 O366 1.266 . S
Co374 O377 1.970 . S
Co374 N391 1.989 . S
Co374 O399 1.967 . S
Co374 O406 1.920 . S
Co375 O378 1.966 1_545 S
Co375 N384 2.022 1_545 S
Co375 N392 1.993 . S
Co375 O400 1.941 . S
C376 O377 1.258 1_565 S
C376 O378 1.263 . S
O377 Co374 1.970 . S
O377 C376 1.258 1_545 S
O378 Co375 1.966 1_565 S
O378 C376 1.263 . S
C379 O380 1.235 . S
C379 O406 1.289 . S
O380 C379 1.235 . S
C381 C383 1.400 . S
C381 N384 1.351 . S
C381 C386 1.501 . S
C382 C383 1.387 . S
C382 N385 1.341 1_565 S
C383 C381 1.400 . S
C383 C382 1.387 . S
N384 Co375 2.022 1_565 S
N384 C381 1.351 . S
N384 N385 1.365 1_565 S
N385 C382 1.341 1_545 S
N385 N384 1.365 1_545 S
N385 H405 0.862 . S
C386 C381 1.501 . S
C386 H387 0.961 . S
C386 H388 0.961 . S
C386 H389 0.960 . S
H387 C386 0.961 . S
H388 C386 0.961 . S
H389 C386 0.960 . S
C390 N391 1.342 . S
C390 C394 1.401 . S
C390 C395 1.499 . S
N391 Co374 1.989 . S
N391 C390 1.342 . S
N391 N392 1.388 . S
N392 Co375 1.993 . S
N392 N391 1.388 . S
N392 C393 1.346 . S
C393 N392 1.346 . S
C393 C394 1.396 . S
C393 C403 1.510 . S
C394 C390 1.401 . S
C394 C393 1.396 . S
C395 C390 1.499 . S
C395 H396 0.959 . S
C395 H397 0.960 . S
C395 H398 0.961 . S
H396 C395 0.959 . S
H397 C395 0.960 . S
H398 C395 0.961 . S
O399 Co374 1.967 . S
O399 C407 1.258 . S
O400 Co375 1.941 . S
O400 C407 1.266 . S
H401 C403 0.959 . S
H402 C403 0.961 . S
C403 C393 1.510 . S
C403 H401 0.959 . S
C403 H402 0.961 . S
C403 H404 0.960 . S
H404 C403 0.960 . S
H405 N385 0.862 . S
O406 Co374 1.920 . S
O406 C379 1.289 . S
C407 O399 1.258 . S
C407 O400 1.266 . S
Co408 O411 1.970 . S
Co408 N425 1.989 . S
Co408 O433 1.967 . S
Co408 O440 1.920 . S
Co409 O412 1.966 1_655 S
Co409 N418 2.022 1_655 S
Co409 N426 1.993 . S
Co409 O434 1.941 . S
C410 O411 1.258 1_455 S
C410 O412 1.263 . S
O411 Co408 1.970 . S
O411 C410 1.258 1_655 S
O412 Co409 1.966 1_455 S
O412 C410 1.263 . S
C413 O414 1.235 . S
C413 O440 1.289 . S
O414 C413 1.235 . S
C415 C417 1.400 . S
C415 N418 1.351 . S
C415 C420 1.501 . S
C416 C417 1.387 . S
C416 N419 1.341 1_455 S
C417 C415 1.400 . S
C417 C416 1.387 . S
N418 Co409 2.022 1_455 S
N418 C415 1.351 . S
N418 N419 1.365 1_455 S
N419 C416 1.341 1_655 S
N419 N418 1.365 1_655 S
N419 H439 0.862 . S
C420 C415 1.501 . S
C420 H421 0.961 . S
C420 H422 0.961 . S
C420 H423 0.960 . S
H421 C420 0.961 . S
H422 C420 0.961 . S
H423 C420 0.960 . S
C424 N425 1.342 . S
C424 C428 1.401 . S
C424 C429 1.499 . S
N425 Co408 1.989 . S
N425 C424 1.342 . S
N425 N426 1.388 . S
N426 Co409 1.993 . S
N426 N425 1.388 . S
N426 C427 1.346 . S
C427 N426 1.346 . S
C427 C428 1.396 . S
C427 C437 1.510 . S
C428 C424 1.401 . S
C428 C427 1.396 . S
C429 C424 1.499 . S
C429 H430 0.959 . S
C429 H431 0.960 . S
C429 H432 0.961 . S
H430 C429 0.959 . S
H431 C429 0.960 . S
H432 C429 0.961 . S
O433 Co408 1.967 . S
O433 C441 1.258 . S
O434 Co409 1.941 . S
O434 C441 1.266 . S
H435 C437 0.959 . S
H436 C437 0.961 . S
C437 C427 1.510 . S
C437 H435 0.959 . S
C437 H436 0.961 . S
C437 H438 0.960 . S
H438 C437 0.960 . S
H439 N419 0.862 . S
O440 Co408 1.920 . S
O440 C413 1.289 . S
C441 O433 1.258 . S
C441 O434 1.266 . S
Co442 O445 1.970 . S
Co442 N459 1.989 . S
Co442 O467 1.967 . S
Co442 O474 1.920 . S
Co443 O446 1.966 1_565 S
Co443 N452 2.022 1_565 S
Co443 N460 1.993 . S
Co443 O468 1.941 . S
C444 O445 1.258 1_545 S
C444 O446 1.263 . S
O445 Co442 1.970 . S
O445 C444 1.258 1_565 S
O446 Co443 1.966 1_545 S
O446 C444 1.263 . S
C447 O448 1.235 . S
C447 O474 1.289 . S
O448 C447 1.235 . S
C449 C451 1.400 . S
C449 N452 1.351 . S
C449 C454 1.501 . S
C450 C451 1.387 . S
C450 N453 1.341 1_545 S
C451 C449 1.400 . S
C451 C450 1.387 . S
N452 Co443 2.022 1_545 S
N452 C449 1.351 . S
N452 N453 1.365 1_545 S
N453 C450 1.341 1_565 S
N453 N452 1.365 1_565 S
N453 H473 0.862 . S
C454 C449 1.501 . S
C454 H455 0.961 . S
C454 H456 0.961 . S
C454 H457 0.960 . S
H455 C454 0.961 . S
H456 C454 0.961 . S
H457 C454 0.960 . S
C458 N459 1.342 . S
C458 C462 1.401 . S
C458 C463 1.499 . S
N459 Co442 1.989 . S
N459 C458 1.342 . S
N459 N460 1.388 . S
N460 Co443 1.993 . S
N460 N459 1.388 . S
N460 C461 1.346 . S
C461 N460 1.346 . S
C461 C462 1.396 . S
C461 C471 1.510 . S
C462 C458 1.401 . S
C462 C461 1.396 . S
C463 C458 1.499 . S
C463 H464 0.959 . S
C463 H465 0.960 . S
C463 H466 0.961 . S
H464 C463 0.959 . S
H465 C463 0.960 . S
H466 C463 0.961 . S
O467 Co442 1.967 . S
O467 C475 1.258 . S
O468 Co443 1.941 . S
O468 C475 1.266 . S
H469 C471 0.959 . S
H470 C471 0.961 . S
C471 C461 1.510 . S
C471 H469 0.959 . S
C471 H470 0.961 . S
C471 H472 0.960 . S
H472 C471 0.960 . S
H473 N453 0.862 . S
O474 Co442 1.920 . S
O474 C447 1.289 . S
C475 O467 1.258 . S
C475 O468 1.266 . S
Co476 O479 1.970 . S
Co476 N493 1.989 . S
Co476 O501 1.967 . S
Co476 O508 1.920 . S
Co477 O480 1.966 . S
Co477 N486 2.022 . S
Co477 N494 1.993 . S
Co477 O502 1.941 . S
C478 O479 1.258 . S
C478 O480 1.263 . S
O479 Co476 1.970 . S
O479 C478 1.258 . S
O480 Co477 1.966 . S
O480 C478 1.263 . S
C481 O482 1.235 . S
C481 O508 1.289 . S
O482 C481 1.235 . S
C483 C485 1.400 . S
C483 N486 1.351 . S
C483 C488 1.501 . S
C484 C485 1.387 . S
C484 N487 1.341 . S
C485 C483 1.400 . S
C485 C484 1.387 . S
N486 Co477 2.022 . S
N486 C483 1.351 . S
N486 N487 1.365 . S
N487 C484 1.341 . S
N487 N486 1.365 . S
N487 H507 0.862 . S
C488 C483 1.501 . S
C488 H489 0.961 . S
C488 H490 0.961 . S
C488 H491 0.960 . S
H489 C488 0.961 . S
H490 C488 0.961 . S
H491 C488 0.960 . S
C492 N493 1.342 . S
C492 C496 1.401 . S
C492 C497 1.499 . S
N493 Co476 1.989 . S
N493 C492 1.342 . S
N493 N494 1.388 . S
N494 Co477 1.993 . S
N494 N493 1.388 . S
N494 C495 1.346 . S
C495 N494 1.346 . S
C495 C496 1.396 . S
C495 C505 1.510 . S
C496 C492 1.401 . S
C496 C495 1.396 . S
C497 C492 1.499 . S
C497 H498 0.959 . S
C497 H499 0.960 . S
C497 H500 0.961 . S
H498 C497 0.959 . S
H499 C497 0.960 . S
H500 C497 0.961 . S
O501 Co476 1.967 . S
O501 C509 1.258 . S
O502 Co477 1.941 . S
O502 C509 1.266 . S
H503 C505 0.959 . S
H504 C505 0.961 . S
C505 C495 1.510 . S
C505 H503 0.959 . S
C505 H504 0.961 . S
C505 H506 0.960 . S
H506 C505 0.960 . S
H507 N487 0.862 . S
O508 Co476 1.920 . S
O508 C481 1.289 . S
C509 O501 1.258 . S
C509 O502 1.266 . S
Co510 O513 1.970 . S
Co510 N527 1.989 . S
Co510 O535 1.967 . S
Co510 O542 1.920 . S
Co511 O514 1.966 . S
Co511 N520 2.022 . S
Co511 N528 1.993 . S
Co511 O536 1.941 . S
C512 O513 1.258 . S
C512 O514 1.263 . S
O513 Co510 1.970 . S
O513 C512 1.258 . S
O514 Co511 1.966 . S
O514 C512 1.263 . S
C515 O516 1.235 . S
C515 O542 1.289 . S
O516 C515 1.235 . S
C517 C519 1.400 . S
C517 N520 1.351 . S
C517 C522 1.501 . S
C518 C519 1.387 . S
C518 N521 1.341 . S
C519 C517 1.400 . S
C519 C518 1.387 . S
N520 Co511 2.022 . S
N520 C517 1.351 . S
N520 N521 1.365 . S
N521 C518 1.341 . S
N521 N520 1.365 . S
N521 H541 0.862 . S
C522 C517 1.501 . S
C522 H523 0.961 . S
C522 H524 0.961 . S
C522 H525 0.960 . S
H523 C522 0.961 . S
H524 C522 0.961 . S
H525 C522 0.960 . S
C526 N527 1.342 . S
C526 C530 1.401 . S
C526 C531 1.499 . S
N527 Co510 1.989 . S
N527 C526 1.342 . S
N527 N528 1.388 . S
N528 Co511 1.993 . S
N528 N527 1.388 . S
N528 C529 1.346 . S
C529 N528 1.346 . S
C529 C530 1.396 . S
C529 C539 1.510 . S
C530 C526 1.401 . S
C530 C529 1.396 . S
C531 C526 1.499 . S
C531 H532 0.959 . S
C531 H533 0.960 . S
C531 H534 0.961 . S
H532 C531 0.959 . S
H533 C531 0.960 . S
H534 C531 0.961 . S
O535 Co510 1.967 . S
O535 C543 1.258 . S
O536 Co511 1.941 . S
O536 C543 1.266 . S
H537 C539 0.959 . S
H538 C539 0.961 . S
C539 C529 1.510 . S
C539 H537 0.959 . S
C539 H538 0.961 . S
C539 H540 0.960 . S
H540 C539 0.960 . S
H541 N521 0.862 . S
O542 Co510 1.920 . S
O542 C515 1.289 . S
C543 O535 1.258 . S
C543 O536 1.266 . S
H544 C550 0.930 . S
H545 C553 0.930 . S
H546 C554 0.930 . S
H547 C555 0.930 . S
H548 C558 0.930 . S
H549 C559 0.930 . S
C550 H544 0.930 . S
C550 C551 1.355 . S
C550 C552 1.415 . S
C551 C550 1.355 . S
C551 C553 1.419 . S
C552 C550 1.415 . S
C552 C557 1.425 . S
C552 C559 1.409 . S
C553 H545 0.930 . S
C553 C551 1.419 . S
C553 C554 1.362 . S
C554 H546 0.930 . S
C554 C553 1.362 . S
C554 C557 1.409 . S
C555 H547 0.930 . S
C555 C556 1.355 . S
C555 C557 1.415 . S
C556 C555 1.355 . S
C556 C558 1.419 . S
C557 C552 1.425 . S
C557 C554 1.409 . S
C557 C555 1.415 . S
C558 H548 0.930 . S
C558 C556 1.419 . S
C558 C559 1.362 . S
C559 H549 0.930 . S
C559 C552 1.409 . S
C559 C558 1.362 . S
H560 C566 0.930 . S
H561 C569 0.930 . S
H562 C570 0.930 . S
H563 C571 0.930 . S
H564 C574 0.930 . S
H565 C575 0.930 . S
C566 H560 0.930 . S
C566 C567 1.355 . S
C566 C568 1.415 . S
C567 C566 1.355 . S
C567 C569 1.419 . S
C568 C566 1.415 . S
C568 C573 1.425 . S
C568 C575 1.409 . S
C569 H561 0.930 . S
C569 C567 1.419 . S
C569 C570 1.362 . S
C570 H562 0.930 . S
C570 C569 1.362 . S
C570 C573 1.409 . S
C571 H563 0.930 . S
C571 C572 1.355 . S
C571 C573 1.415 . S
C572 C571 1.355 . S
C572 C574 1.419 . S
C573 C568 1.425 . S
C573 C570 1.409 . S
C573 C571 1.415 . S
C574 H564 0.930 . S
C574 C572 1.419 . S
C574 C575 1.362 . S
C575 H565 0.930 . S
C575 C568 1.409 . S
C575 C574 1.362 . S
H576 C582 0.930 . S
H577 C585 0.930 . S
H578 C586 0.930 . S
H579 C587 0.930 . S
H580 C590 0.930 . S
H581 C591 0.930 . S
C582 H576 0.930 . S
C582 C583 1.355 . S
C582 C584 1.415 . S
C583 C582 1.355 . S
C583 C585 1.419 . S
C584 C582 1.415 . S
C584 C589 1.425 . S
C584 C591 1.409 . S
C585 H577 0.930 . S
C585 C583 1.419 . S
C585 C586 1.362 . S
C586 H578 0.930 . S
C586 C585 1.362 . S
C586 C589 1.409 . S
C587 H579 0.930 . S
C587 C588 1.355 . S
C587 C589 1.415 . S
C588 C587 1.355 . S
C588 C590 1.419 . S
C589 C584 1.425 . S
C589 C586 1.409 . S
C589 C587 1.415 . S
C590 H580 0.930 . S
C590 C588 1.419 . S
C590 C591 1.362 . S
C591 H581 0.930 . S
C591 C584 1.409 . S
C591 C590 1.362 . S
H592 C598 0.930 . S
H593 C601 0.930 . S
H594 C602 0.930 . S
H595 C603 0.930 . S
H596 C606 0.930 . S
H597 C607 0.930 . S
C598 H592 0.930 . S
C598 C599 1.355 . S
C598 C600 1.415 . S
C599 C598 1.355 . S
C599 C601 1.419 . S
C600 C598 1.415 . S
C600 C605 1.425 . S
C600 C607 1.409 . S
C601 H593 0.930 . S
C601 C599 1.419 . S
C601 C602 1.362 . S
C602 H594 0.930 . S
C602 C601 1.362 . S
C602 C605 1.409 . S
C603 H595 0.930 . S
C603 C604 1.355 . S
C603 C605 1.415 . S
C604 C603 1.355 . S
C604 C606 1.419 . S
C605 C600 1.425 . S
C605 C602 1.409 . S
C605 C603 1.415 . S
C606 H596 0.930 . S
C606 C604 1.419 . S
C606 C607 1.362 . S
C607 H597 0.930 . S
C607 C600 1.409 . S
C607 C606 1.362 . S
H608 C614 0.930 . S
H609 C617 0.930 . S
H610 C618 0.930 . S
H611 C619 0.930 . S
H612 C622 0.930 . S
H613 C623 0.930 . S
C614 H608 0.930 . S
C614 C615 1.355 . S
C614 C616 1.415 . S
C615 C614 1.355 . S
C615 C617 1.419 . S
C616 C614 1.415 . S
C616 C621 1.425 . S
C616 C623 1.409 . S
C617 H609 0.930 . S
C617 C615 1.419 . S
C617 C618 1.362 . S
C618 H610 0.930 . S
C618 C617 1.362 . S
C618 C621 1.409 . S
C619 H611 0.930 . S
C619 C620 1.355 . S
C619 C621 1.415 . S
C620 C619 1.355 . S
C620 C622 1.419 . S
C621 C616 1.425 . S
C621 C618 1.409 . S
C621 C619 1.415 . S
C622 H612 0.930 . S
C622 C620 1.419 . S
C622 C623 1.362 . S
C623 H613 0.930 . S
C623 C616 1.409 . S
C623 C622 1.362 . S
H624 C630 0.930 . S
H625 C633 0.930 . S
H626 C634 0.930 . S
H627 C635 0.930 . S
H628 C638 0.930 . S
H629 C639 0.930 . S
C630 H624 0.930 . S
C630 C631 1.355 . S
C630 C632 1.415 . S
C631 C630 1.355 . S
C631 C633 1.419 . S
C632 C630 1.415 . S
C632 C637 1.425 . S
C632 C639 1.409 . S
C633 H625 0.930 . S
C633 C631 1.419 . S
C633 C634 1.362 . S
C634 H626 0.930 . S
C634 C633 1.362 . S
C634 C637 1.409 . S
C635 H627 0.930 . S
C635 C636 1.355 . S
C635 C637 1.415 . S
C636 C635 1.355 . S
C636 C638 1.419 . S
C637 C632 1.425 . S
C637 C634 1.409 . S
C637 C635 1.415 . S
C638 H628 0.930 . S
C638 C636 1.419 . S
C638 C639 1.362 . S
C639 H629 0.930 . S
C639 C632 1.409 . S
C639 C638 1.362 . S
H640 C646 0.930 . S
H641 C649 0.930 . S
H642 C650 0.930 . S
H643 C651 0.930 . S
H644 C654 0.930 . S
H645 C655 0.930 . S
C646 H640 0.930 . S
C646 C647 1.355 . S
C646 C648 1.415 . S
C647 C646 1.355 . S
C647 C649 1.419 . S
C648 C646 1.415 . S
C648 C653 1.425 . S
C648 C655 1.409 . S
C649 H641 0.930 . S
C649 C647 1.419 . S
C649 C650 1.362 . S
C650 H642 0.930 . S
C650 C649 1.362 . S
C650 C653 1.409 . S
C651 H643 0.930 . S
C651 C652 1.355 . S
C651 C653 1.415 . S
C652 C651 1.355 . S
C652 C654 1.419 . S
C653 C648 1.425 . S
C653 C650 1.409 . S
C653 C651 1.415 . S
C654 H644 0.930 . S
C654 C652 1.419 . S
C654 C655 1.362 . S
C655 H645 0.930 . S
C655 C648 1.409 . S
C655 C654 1.362 . S
H656 C662 0.930 . S
H657 C665 0.930 . S
H658 C666 0.930 . S
H659 C667 0.930 . S
H660 C670 0.930 . S
H661 C671 0.930 . S
C662 H656 0.930 . S
C662 C663 1.355 . S
C662 C664 1.415 . S
C663 C662 1.355 . S
C663 C665 1.419 . S
C664 C662 1.415 . S
C664 C669 1.425 . S
C664 C671 1.409 . S
C665 H657 0.930 . S
C665 C663 1.419 . S
C665 C666 1.362 . S
C666 H658 0.930 . S
C666 C665 1.362 . S
C666 C669 1.409 . S
C667 H659 0.930 . S
C667 C668 1.355 . S
C667 C669 1.415 . S
C668 C667 1.355 . S
C668 C670 1.419 . S
C669 C664 1.425 . S
C669 C666 1.409 . S
C669 C667 1.415 . S
C670 H660 0.930 . S
C670 C668 1.419 . S
C670 C671 1.362 . S
C671 H661 0.930 . S
C671 C664 1.409 . S
C671 C670 1.362 . S
H672 C678 0.930 . S
H673 C681 0.930 . S
H674 C682 0.930 . S
H675 C683 0.930 . S
H676 C686 0.930 . S
H677 C687 0.930 . S
C678 H672 0.930 . S
C678 C679 1.355 . S
C678 C680 1.415 . S
C679 C678 1.355 . S
C679 C681 1.419 . S
C680 C678 1.415 . S
C680 C685 1.425 . S
C680 C687 1.409 . S
C681 H673 0.930 . S
C681 C679 1.419 . S
C681 C682 1.362 . S
C682 H674 0.930 . S
C682 C681 1.362 . S
C682 C685 1.409 . S
C683 H675 0.930 . S
C683 C684 1.355 . S
C683 C685 1.415 . S
C684 C683 1.355 . S
C684 C686 1.419 . S
C685 C680 1.425 . S
C685 C682 1.409 . S
C685 C683 1.415 . S
C686 H676 0.930 . S
C686 C684 1.419 . S
C686 C687 1.362 . S
C687 H677 0.930 . S
C687 C680 1.409 . S
C687 C686 1.362 . S
H688 C694 0.930 . S
H689 C697 0.930 . S
H690 C698 0.930 . S
H691 C699 0.930 . S
H692 C702 0.930 . S
H693 C703 0.930 . S
C694 H688 0.930 . S
C694 C695 1.355 . S
C694 C696 1.415 . S
C695 C694 1.355 . S
C695 C697 1.419 . S
C696 C694 1.415 . S
C696 C701 1.425 . S
C696 C703 1.409 . S
C697 H689 0.930 . S
C697 C695 1.419 . S
C697 C698 1.362 . S
C698 H690 0.930 . S
C698 C697 1.362 . S
C698 C701 1.409 . S
C699 H691 0.930 . S
C699 C700 1.355 . S
C699 C701 1.415 . S
C700 C699 1.355 . S
C700 C702 1.419 . S
C701 C696 1.425 . S
C701 C698 1.409 . S
C701 C699 1.415 . S
C702 H692 0.930 . S
C702 C700 1.419 . S
C702 C703 1.362 . S
C703 H693 0.930 . S
C703 C696 1.409 . S
C703 C702 1.362 . S
H704 C710 0.930 . S
H705 C713 0.930 . S
H706 C714 0.930 . S
H707 C715 0.930 . S
H708 C718 0.930 . S
H709 C719 0.930 . S
C710 H704 0.930 . S
C710 C711 1.355 . S
C710 C712 1.415 . S
C711 C710 1.355 . S
C711 C713 1.419 . S
C712 C710 1.415 . S
C712 C717 1.425 . S
C712 C719 1.409 . S
C713 H705 0.930 . S
C713 C711 1.419 . S
C713 C714 1.362 . S
C714 H706 0.930 . S
C714 C713 1.362 . S
C714 C717 1.409 . S
C715 H707 0.930 . S
C715 C716 1.355 . S
C715 C717 1.415 . S
C716 C715 1.355 . S
C716 C718 1.419 . S
C717 C712 1.425 . S
C717 C714 1.409 . S
C717 C715 1.415 . S
C718 H708 0.930 . S
C718 C716 1.419 . S
C718 C719 1.362 . S
C719 H709 0.930 . S
C719 C712 1.409 . S
C719 C718 1.362 . S
H720 C726 0.930 . S
H721 C729 0.930 . S
H722 C730 0.930 . S
H723 C731 0.930 . S
H724 C734 0.930 . S
H725 C735 0.930 . S
C726 H720 0.930 . S
C726 C727 1.355 . S
C726 C728 1.415 . S
C727 C726 1.355 . S
C727 C729 1.419 . S
C728 C726 1.415 . S
C728 C733 1.425 . S
C728 C735 1.409 . S
C729 H721 0.930 . S
C729 C727 1.419 . S
C729 C730 1.362 . S
C730 H722 0.930 . S
C730 C729 1.362 . S
C730 C733 1.409 . S
C731 H723 0.930 . S
C731 C732 1.355 . S
C731 C733 1.415 . S
C732 C731 1.355 . S
C732 C734 1.419 . S
C733 C728 1.425 . S
C733 C730 1.409 . S
C733 C731 1.415 . S
C734 H724 0.930 . S
C734 C732 1.419 . S
C734 C735 1.362 . S
C735 H725 0.930 . S
C735 C728 1.409 . S
C735 C734 1.362 . S
H736 C742 0.930 . S
H737 C745 0.930 . S
H738 C746 0.930 . S
H739 C747 0.930 . S
H740 C750 0.930 . S
H741 C751 0.930 . S
C742 H736 0.930 . S
C742 C743 1.355 . S
C742 C744 1.415 . S
C743 C742 1.355 . S
C743 C745 1.419 . S
C744 C742 1.415 . S
C744 C749 1.425 . S
C744 C751 1.409 . S
C745 H737 0.930 . S
C745 C743 1.419 . S
C745 C746 1.362 . S
C746 H738 0.930 . S
C746 C745 1.362 . S
C746 C749 1.409 . S
C747 H739 0.930 . S
C747 C748 1.355 . S
C747 C749 1.415 . S
C748 C747 1.355 . S
C748 C750 1.419 . S
C749 C744 1.425 . S
C749 C746 1.409 . S
C749 C747 1.415 . S
C750 H740 0.930 . S
C750 C748 1.419 . S
C750 C751 1.362 . S
C751 H741 0.930 . S
C751 C744 1.409 . S
C751 C750 1.362 . S
H752 C758 0.930 . S
H753 C761 0.930 . S
H754 C762 0.930 . S
H755 C763 0.930 . S
H756 C766 0.930 . S
H757 C767 0.930 . S
C758 H752 0.930 . S
C758 C759 1.355 . S
C758 C760 1.415 . S
C759 C758 1.355 . S
C759 C761 1.419 . S
C760 C758 1.415 . S
C760 C765 1.425 . S
C760 C767 1.409 . S
C761 H753 0.930 . S
C761 C759 1.419 . S
C761 C762 1.362 . S
C762 H754 0.930 . S
C762 C761 1.362 . S
C762 C765 1.409 . S
C763 H755 0.930 . S
C763 C764 1.355 . S
C763 C765 1.415 . S
C764 C763 1.355 . S
C764 C766 1.419 . S
C765 C760 1.425 . S
C765 C762 1.409 . S
C765 C763 1.415 . S
C766 H756 0.930 . S
C766 C764 1.419 . S
C766 C767 1.362 . S
C767 H757 0.930 . S
C767 C760 1.409 . S
C767 C766 1.362 . S
H768 C774 0.930 . S
H769 C777 0.930 . S
H770 C778 0.930 . S
H771 C779 0.930 . S
H772 C782 0.930 . S
H773 C783 0.930 . S
C774 H768 0.930 . S
C774 C775 1.355 . S
C774 C776 1.415 . S
C775 C774 1.355 . S
C775 C777 1.419 . S
C776 C774 1.415 . S
C776 C781 1.425 . S
C776 C783 1.409 . S
C777 H769 0.930 . S
C777 C775 1.419 . S
C777 C778 1.362 . S
C778 H770 0.930 . S
C778 C777 1.362 . S
C778 C781 1.409 . S
C779 H771 0.930 . S
C779 C780 1.355 . S
C779 C781 1.415 . S
C780 C779 1.355 . S
C780 C782 1.419 . S
C781 C776 1.425 . S
C781 C778 1.409 . S
C781 C779 1.415 . S
C782 H772 0.930 . S
C782 C780 1.419 . S
C782 C783 1.362 . S
C783 H773 0.930 . S
C783 C776 1.409 . S
C783 C782 1.362 . S
H784 C790 0.930 . S
H785 C793 0.930 . S
H786 C794 0.930 . S
H787 C795 0.930 . S
H788 C798 0.930 . S
H789 C799 0.930 . S
C790 H784 0.930 . S
C790 C791 1.355 . S
C790 C792 1.415 . S
C791 C790 1.355 . S
C791 C793 1.419 . S
C792 C790 1.415 . S
C792 C797 1.425 . S
C792 C799 1.409 . S
C793 H785 0.930 . S
C793 C791 1.419 . S
C793 C794 1.362 . S
C794 H786 0.930 . S
C794 C793 1.362 . S
C794 C797 1.409 . S
C795 H787 0.930 . S
C795 C796 1.355 . S
C795 C797 1.415 . S
C796 C795 1.355 . S
C796 C798 1.419 . S
C797 C792 1.425 . S
C797 C794 1.409 . S
C797 C795 1.415 . S
C798 H788 0.930 . S
C798 C796 1.419 . S
C798 C799 1.362 . S
C799 H789 0.930 . S
C799 C792 1.409 . S
C799 C798 1.362 . S
H800 C806 0.930 . S
H801 C809 0.930 . S
H802 C810 0.930 . S
H803 C811 0.930 . S
H804 C814 0.930 . S
H805 C815 0.930 . S
C806 H800 0.930 . S
C806 C807 1.355 . S
C806 C808 1.415 . S
C807 C806 1.355 . S
C807 C809 1.419 . S
C808 C806 1.415 . S
C808 C813 1.425 . S
C808 C815 1.409 . S
C809 H801 0.930 . S
C809 C807 1.419 . S
C809 C810 1.362 . S
C810 H802 0.930 . S
C810 C809 1.362 . S
C810 C813 1.409 . S
C811 H803 0.930 . S
C811 C812 1.355 . S
C811 C813 1.415 . S
C812 C811 1.355 . S
C812 C814 1.419 . S
C813 C808 1.425 . S
C813 C810 1.409 . S
C813 C811 1.415 . S
C814 H804 0.930 . S
C814 C812 1.419 . S
C814 C815 1.362 . S
C815 H805 0.930 . S
C815 C808 1.409 . S
C815 C814 1.362 . S
H816 C822 0.930 . S
H817 C825 0.930 . S
H818 C826 0.930 . S
H819 C827 0.930 . S
H820 C830 0.930 . S
H821 C831 0.930 . S
C822 H816 0.930 . S
C822 C823 1.355 . S
C822 C824 1.415 . S
C823 C822 1.355 . S
C823 C825 1.419 . S
C824 C822 1.415 . S
C824 C829 1.425 . S
C824 C831 1.409 . S
C825 H817 0.930 . S
C825 C823 1.419 . S
C825 C826 1.362 . S
C826 H818 0.930 . S
C826 C825 1.362 . S
C826 C829 1.409 . S
C827 H819 0.930 . S
C827 C828 1.355 . S
C827 C829 1.415 . S
C828 C827 1.355 . S
C828 C830 1.419 . S
C829 C824 1.425 . S
C829 C826 1.409 . S
C829 C827 1.415 . S
C830 H820 0.930 . S
C830 C828 1.419 . S
C830 C831 1.362 . S
C831 H821 0.930 . S
C831 C824 1.409 . S
C831 C830 1.362 . S
H832 C838 0.930 . S
H833 C841 0.930 . S
H834 C842 0.930 . S
H835 C843 0.930 . S
H836 C846 0.930 . S
H837 C847 0.930 . S
C838 H832 0.930 . S
C838 C839 1.355 . S
C838 C840 1.415 . S
C839 C838 1.355 . S
C839 C841 1.419 . S
C840 C838 1.415 . S
C840 C845 1.425 . S
C840 C847 1.409 . S
C841 H833 0.930 . S
C841 C839 1.419 . S
C841 C842 1.362 . S
C842 H834 0.930 . S
C842 C841 1.362 . S
C842 C845 1.409 . S
C843 H835 0.930 . S
C843 C844 1.355 . S
C843 C845 1.415 . S
C844 C843 1.355 . S
C844 C846 1.419 . S
C845 C840 1.425 . S
C845 C842 1.409 . S
C845 C843 1.415 . S
C846 H836 0.930 . S
C846 C844 1.419 . S
C846 C847 1.362 . S
C847 H837 0.930 . S
C847 C840 1.409 . S
C847 C846 1.362 . S
H848 C854 0.930 . S
H849 C857 0.930 . S
H850 C858 0.930 . S
H851 C859 0.930 . S
H852 C862 0.930 . S
H853 C863 0.930 . S
C854 H848 0.930 . S
C854 C855 1.355 . S
C854 C856 1.415 . S
C855 C854 1.355 . S
C855 C857 1.419 . S
C856 C854 1.415 . S
C856 C861 1.425 . S
C856 C863 1.409 . S
C857 H849 0.930 . S
C857 C855 1.419 . S
C857 C858 1.362 . S
C858 H850 0.930 . S
C858 C857 1.362 . S
C858 C861 1.409 . S
C859 H851 0.930 . S
C859 C860 1.355 . S
C859 C861 1.415 . S
C860 C859 1.355 . S
C860 C862 1.419 . S
C861 C856 1.425 . S
C861 C858 1.409 . S
C861 C859 1.415 . S
C862 H852 0.930 . S
C862 C860 1.419 . S
C862 C863 1.362 . S
C863 H853 0.930 . S
C863 C856 1.409 . S
C863 C862 1.362 . S
H864 C870 0.930 . S
H865 C873 0.930 . S
H866 C874 0.930 . S
H867 C875 0.930 . S
H868 C878 0.930 . S
H869 C879 0.930 . S
C870 H864 0.930 . S
C870 C871 1.355 . S
C870 C872 1.415 . S
C871 C870 1.355 . S
C871 C873 1.419 . S
C872 C870 1.415 . S
C872 C877 1.425 . S
C872 C879 1.409 . S
C873 H865 0.930 . S
C873 C871 1.419 . S
C873 C874 1.362 . S
C874 H866 0.930 . S
C874 C873 1.362 . S
C874 C877 1.409 . S
C875 H867 0.930 . S
C875 C876 1.355 . S
C875 C877 1.415 . S
C876 C875 1.355 . S
C876 C878 1.419 . S
C877 C872 1.425 . S
C877 C874 1.409 . S
C877 C875 1.415 . S
C878 H868 0.930 . S
C878 C876 1.419 . S
C878 C879 1.362 . S
C879 H869 0.930 . S
C879 C872 1.409 . S
C879 C878 1.362 . S
H880 C886 0.930 . S
H881 C889 0.930 . S
H882 C890 0.930 . S
H883 C891 0.930 . S
H884 C894 0.930 . S
H885 C895 0.930 . S
C886 H880 0.930 . S
C886 C887 1.355 . S
C886 C888 1.415 . S
C887 C886 1.355 . S
C887 C889 1.419 . S
C888 C886 1.415 . S
C888 C893 1.425 . S
C888 C895 1.409 . S
C889 H881 0.930 . S
C889 C887 1.419 . S
C889 C890 1.362 . S
C890 H882 0.930 . S
C890 C889 1.362 . S
C890 C893 1.409 . S
C891 H883 0.930 . S
C891 C892 1.355 . S
C891 C893 1.415 . S
C892 C891 1.355 . S
C892 C894 1.419 . S
C893 C888 1.425 . S
C893 C890 1.409 . S
C893 C891 1.415 . S
C894 H884 0.930 . S
C894 C892 1.419 . S
C894 C895 1.362 . S
C895 H885 0.930 . S
C895 C888 1.409 . S
C895 C894 1.362 . S
H896 C902 0.930 . S
H897 C905 0.930 . S
H898 C906 0.930 . S
H899 C907 0.930 . S
H900 C910 0.930 . S
H901 C911 0.930 . S
C902 H896 0.930 . S
C902 C903 1.355 . S
C902 C904 1.415 . S
C903 C902 1.355 . S
C903 C905 1.419 . S
C904 C902 1.415 . S
C904 C909 1.425 . S
C904 C911 1.409 . S
C905 H897 0.930 . S
C905 C903 1.419 . S
C905 C906 1.362 . S
C906 H898 0.930 . S
C906 C905 1.362 . S
C906 C909 1.409 . S
C907 H899 0.930 . S
C907 C908 1.355 . S
C907 C909 1.415 . S
C908 C907 1.355 . S
C908 C910 1.419 . S
C909 C904 1.425 . S
C909 C906 1.409 . S
C909 C907 1.415 . S
C910 H900 0.930 . S
C910 C908 1.419 . S
C910 C911 1.362 . S
C911 H901 0.930 . S
C911 C904 1.409 . S
C911 C910 1.362 . S
H912 C918 0.930 . S
H913 C921 0.930 . S
H914 C922 0.930 . S
H915 C923 0.930 . S
H916 C926 0.930 . S
H917 C927 0.930 . S
C918 H912 0.930 . S
C918 C919 1.355 . S
C918 C920 1.415 . S
C919 C918 1.355 . S
C919 C921 1.419 . S
C920 C918 1.415 . S
C920 C925 1.425 . S
C920 C927 1.409 . S
C921 H913 0.930 . S
C921 C919 1.419 . S
C921 C922 1.362 . S
C922 H914 0.930 . S
C922 C921 1.362 . S
C922 C925 1.409 . S
C923 H915 0.930 . S
C923 C924 1.355 . S
C923 C925 1.415 . S
C924 C923 1.355 . S
C924 C926 1.419 . S
C925 C920 1.425 . S
C925 C922 1.409 . S
C925 C923 1.415 . S
C926 H916 0.930 . S
C926 C924 1.419 . S
C926 C927 1.362 . S
C927 H917 0.930 . S
C927 C920 1.409 . S
C927 C926 1.362 . S
H928 C934 0.930 . S
H929 C937 0.930 . S
H930 C938 0.930 . S
H931 C939 0.930 . S
H932 C942 0.930 . S
H933 C943 0.930 . S
C934 H928 0.930 . S
C934 C935 1.355 . S
C934 C936 1.415 . S
C935 C934 1.355 . S
C935 C937 1.419 . S
C936 C934 1.415 . S
C936 C941 1.425 . S
C936 C943 1.409 . S
C937 H929 0.930 . S
C937 C935 1.419 . S
C937 C938 1.362 . S
C938 H930 0.930 . S
C938 C937 1.362 . S
C938 C941 1.409 . S
C939 H931 0.930 . S
C939 C940 1.355 . S
C939 C941 1.415 . S
C940 C939 1.355 . S
C940 C942 1.419 . S
C941 C936 1.425 . S
C941 C938 1.409 . S
C941 C939 1.415 . S
C942 H932 0.930 . S
C942 C940 1.419 . S
C942 C943 1.362 . S
C943 H933 0.930 . S
C943 C936 1.409 . S
C943 C942 1.362 . S
H944 C950 0.930 . S
H945 C953 0.930 . S
H946 C954 0.930 . S
H947 C955 0.930 . S
H948 C958 0.930 . S
H949 C959 0.930 . S
C950 H944 0.930 . S
C950 C951 1.355 . S
C950 C952 1.415 . S
C951 C950 1.355 . S
C951 C953 1.419 . S
C952 C950 1.415 . S
C952 C957 1.425 . S
C952 C959 1.409 . S
C953 H945 0.930 . S
C953 C951 1.419 . S
C953 C954 1.362 . S
C954 H946 0.930 . S
C954 C953 1.362 . S
C954 C957 1.409 . S
C955 H947 0.930 . S
C955 C956 1.355 . S
C955 C957 1.415 . S
C956 C955 1.355 . S
C956 C958 1.419 . S
C957 C952 1.425 . S
C957 C954 1.409 . S
C957 C955 1.415 . S
C958 H948 0.930 . S
C958 C956 1.419 . S
C958 C959 1.362 . S
C959 H949 0.930 . S
C959 C952 1.409 . S
C959 C958 1.362 . S
H960 C966 0.930 . S
H961 C969 0.930 . S
H962 C970 0.930 . S
H963 C971 0.930 . S
H964 C974 0.930 . S
H965 C975 0.930 . S
C966 H960 0.930 . S
C966 C967 1.355 . S
C966 C968 1.415 . S
C967 C966 1.355 . S
C967 C969 1.419 . S
C968 C966 1.415 . S
C968 C973 1.425 . S
C968 C975 1.409 . S
C969 H961 0.930 . S
C969 C967 1.419 . S
C969 C970 1.362 . S
C970 H962 0.930 . S
C970 C969 1.362 . S
C970 C973 1.409 . S
C971 H963 0.930 . S
C971 C972 1.355 . S
C971 C973 1.415 . S
C972 C971 1.355 . S
C972 C974 1.419 . S
C973 C968 1.425 . S
C973 C970 1.409 . S
C973 C971 1.415 . S
C974 H964 0.930 . S
C974 C972 1.419 . S
C974 C975 1.362 . S
C975 H965 0.930 . S
C975 C968 1.409 . S
C975 C974 1.362 . S
H976 C982 0.930 . S
H977 C985 0.930 . S
H978 C986 0.930 . S
H979 C987 0.930 . S
H980 C990 0.930 . S
H981 C991 0.930 . S
C982 H976 0.930 . S
C982 C983 1.355 . S
C982 C984 1.415 . S
C983 C982 1.355 . S
C983 C985 1.419 . S
C984 C982 1.415 . S
C984 C989 1.425 . S
C984 C991 1.409 . S
C985 H977 0.930 . S
C985 C983 1.419 . S
C985 C986 1.362 . S
C986 H978 0.930 . S
C986 C985 1.362 . S
C986 C989 1.409 . S
C987 H979 0.930 . S
C987 C988 1.355 . S
C987 C989 1.415 . S
C988 C987 1.355 . S
C988 C990 1.419 . S
C989 C984 1.425 . S
C989 C986 1.409 . S
C989 C987 1.415 . S
C990 H980 0.930 . S
C990 C988 1.419 . S
C990 C991 1.362 . S
C991 H981 0.930 . S
C991 C984 1.409 . S
C991 C990 1.362 . S
H992 C998 0.930 . S
H993 C1001 0.930 . S
H994 C1002 0.930 . S
H995 C1003 0.930 . S
H996 C1006 0.930 . S
H997 C1007 0.930 . S
C998 H992 0.930 . S
C998 C999 1.355 . S
C998 C1000 1.415 . S
C999 C998 1.355 . S
C999 C1001 1.419 . S
C1000 C998 1.415 . S
C1000 C1005 1.425 1_556 S
C1000 C1007 1.409 . S
C1001 H993 0.930 . S
C1001 C999 1.419 . S
C1001 C1002 1.362 1_556 S
C1002 H994 0.930 . S
C1002 C1001 1.362 1_554 S
C1002 C1005 1.409 . S
C1003 H995 0.930 . S
C1003 C1004 1.355 . S
C1003 C1005 1.415 . S
C1004 C1003 1.355 . S
C1004 C1006 1.419 . S
C1005 C1000 1.425 1_554 S
C1005 C1002 1.409 . S
C1005 C1003 1.415 . S
C1006 H996 0.930 . S
C1006 C1004 1.419 . S
C1006 C1007 1.362 1_554 S
C1007 H997 0.930 . S
C1007 C1000 1.409 . S
C1007 C1006 1.362 1_556 S
H1008 C1014 0.930 . S
H1009 C1017 0.930 . S
H1010 C1018 0.930 . S
H1011 C1019 0.930 . S
H1012 C1022 0.930 . S
H1013 C1023 0.930 . S
C1014 H1008 0.930 . S
C1014 C1015 1.355 . S
C1014 C1016 1.415 1_554 S
C1015 C1014 1.355 . S
C1015 C1017 1.419 . S
C1016 C1014 1.415 1_556 S
C1016 C1021 1.425 . S
C1016 C1023 1.409 . S
C1017 H1009 0.930 . S
C1017 C1015 1.419 . S
C1017 C1018 1.362 . S
C1018 H1010 0.930 . S
C1018 C1017 1.362 . S
C1018 C1021 1.409 1_554 S
C1019 H1011 0.930 . S
C1019 C1020 1.355 . S
C1019 C1021 1.415 . S
C1020 C1019 1.355 . S
C1020 C1022 1.419 . S
C1021 C1016 1.425 . S
C1021 C1018 1.409 1_556 S
C1021 C1019 1.415 . S
C1022 H1012 0.930 . S
C1022 C1020 1.419 . S
C1022 C1023 1.362 . S
C1023 H1013 0.930 . S
C1023 C1016 1.409 . S
C1023 C1022 1.362 . S
H1024 C1030 0.930 . S
H1025 C1033 0.930 . S
H1026 C1034 0.930 . S
H1027 C1035 0.930 . S
H1028 C1038 0.930 . S
H1029 C1039 0.930 . S
C1030 H1024 0.930 . S
C1030 C1031 1.355 . S
C1030 C1032 1.415 . S
C1031 C1030 1.355 . S
C1031 C1033 1.419 . S
C1032 C1030 1.415 . S
C1032 C1037 1.425 . S
C1032 C1039 1.409 1_556 S
C1033 H1025 0.930 . S
C1033 C1031 1.419 . S
C1033 C1034 1.362 . S
C1034 H1026 0.930 . S
C1034 C1033 1.362 . S
C1034 C1037 1.409 . S
C1035 H1027 0.930 . S
C1035 C1036 1.355 . S
C1035 C1037 1.415 1_554 S
C1036 C1035 1.355 . S
C1036 C1038 1.419 . S
C1037 C1032 1.425 . S
C1037 C1034 1.409 . S
C1037 C1035 1.415 1_556 S
C1038 H1028 0.930 . S
C1038 C1036 1.419 . S
C1038 C1039 1.362 . S
C1039 H1029 0.930 . S
C1039 C1032 1.409 1_554 S
C1039 C1038 1.362 . S
H1040 C1046 0.930 . S
H1041 C1049 0.930 . S
H1042 C1050 0.930 . S
H1043 C1051 0.930 . S
H1044 C1054 0.930 . S
H1045 C1055 0.930 . S
C1046 H1040 0.930 . S
C1046 C1047 1.355 . S
C1046 C1048 1.415 . S
C1047 C1046 1.355 . S
C1047 C1049 1.419 . S
C1048 C1046 1.415 . S
C1048 C1053 1.425 1_554 S
C1048 C1055 1.409 . S
C1049 H1041 0.930 . S
C1049 C1047 1.419 . S
C1049 C1050 1.362 1_554 S
C1050 H1042 0.930 . S
C1050 C1049 1.362 1_556 S
C1050 C1053 1.409 . S
C1051 H1043 0.930 . S
C1051 C1052 1.355 . S
C1051 C1053 1.415 . S
C1052 C1051 1.355 . S
C1052 C1054 1.419 . S
C1053 C1048 1.425 1_556 S
C1053 C1050 1.409 . S
C1053 C1051 1.415 . S
C1054 H1044 0.930 . S
C1054 C1052 1.419 . S
C1054 C1055 1.362 1_556 S
C1055 H1045 0.930 . S
C1055 C1048 1.409 . S
C1055 C1054 1.362 1_554 S
H1056 C1062 0.930 . S
H1057 C1065 0.930 . S
H1058 C1066 0.930 . S
H1059 C1067 0.930 . S
H1060 C1070 0.930 . S
H1061 C1071 0.930 . S
C1062 H1056 0.930 . S
C1062 C1063 1.355 . S
C1062 C1064 1.415 . S
C1063 C1062 1.355 . S
C1063 C1065 1.419 . S
C1064 C1062 1.415 . S
C1064 C1069 1.425 . S
C1064 C1071 1.409 . S
C1065 H1057 0.930 . S
C1065 C1063 1.419 . S
C1065 C1066 1.362 . S
C1066 H1058 0.930 . S
C1066 C1065 1.362 . S
C1066 C1069 1.409 . S
C1067 H1059 0.930 . S
C1067 C1068 1.355 . S
C1067 C1069 1.415 . S
C1068 C1067 1.355 . S
C1068 C1070 1.419 . S
C1069 C1064 1.425 . S
C1069 C1066 1.409 . S
C1069 C1067 1.415 . S
C1070 H1060 0.930 . S
C1070 C1068 1.419 . S
C1070 C1071 1.362 . S
C1071 H1061 0.930 . S
C1071 C1064 1.409 . S
C1071 C1070 1.362 . S
H1072 C1078 0.930 . S
H1073 C1081 0.930 . S
H1074 C1082 0.930 . S
H1075 C1083 0.930 . S
H1076 C1086 0.930 . S
H1077 C1087 0.930 . S
C1078 H1072 0.930 . S
C1078 C1079 1.355 . S
C1078 C1080 1.415 . S
C1079 C1078 1.355 . S
C1079 C1081 1.419 . S
C1080 C1078 1.415 . S
C1080 C1085 1.425 . S
C1080 C1087 1.409 . S
C1081 H1073 0.930 . S
C1081 C1079 1.419 . S
C1081 C1082 1.362 . S
C1082 H1074 0.930 . S
C1082 C1081 1.362 . S
C1082 C1085 1.409 . S
C1083 H1075 0.930 . S
C1083 C1084 1.355 . S
C1083 C1085 1.415 . S
C1084 C1083 1.355 . S
C1084 C1086 1.419 . S
C1085 C1080 1.425 . S
C1085 C1082 1.409 . S
C1085 C1083 1.415 . S
C1086 H1076 0.930 . S
C1086 C1084 1.419 . S
C1086 C1087 1.362 . S
C1087 H1077 0.930 . S
C1087 C1080 1.409 . S
C1087 C1086 1.362 . S
H1088 C1094 0.930 . S
H1089 C1097 0.930 . S
H1090 C1098 0.930 . S
H1091 C1099 0.930 . S
H1092 C1102 0.930 . S
H1093 C1103 0.930 . S
C1094 H1088 0.930 . S
C1094 C1095 1.355 . S
C1094 C1096 1.415 . S
C1095 C1094 1.355 . S
C1095 C1097 1.419 . S
C1096 C1094 1.415 . S
C1096 C1101 1.425 . S
C1096 C1103 1.409 . S
C1097 H1089 0.930 . S
C1097 C1095 1.419 . S
C1097 C1098 1.362 . S
C1098 H1090 0.930 . S
C1098 C1097 1.362 . S
C1098 C1101 1.409 . S
C1099 H1091 0.930 . S
C1099 C1100 1.355 . S
C1099 C1101 1.415 . S
C1100 C1099 1.355 . S
C1100 C1102 1.419 . S
C1101 C1096 1.425 . S
C1101 C1098 1.409 . S
C1101 C1099 1.415 . S
C1102 H1092 0.930 . S
C1102 C1100 1.419 . S
C1102 C1103 1.362 . S
C1103 H1093 0.930 . S
C1103 C1096 1.409 . S
C1103 C1102 1.362 . S
H1104 C1110 0.930 . S
H1105 C1113 0.930 . S
H1106 C1114 0.930 . S
H1107 C1115 0.930 . S
H1108 C1118 0.930 . S
H1109 C1119 0.930 . S
C1110 H1104 0.930 . S
C1110 C1111 1.355 . S
C1110 C1112 1.415 . S
C1111 C1110 1.355 . S
C1111 C1113 1.419 . S
C1112 C1110 1.415 . S
C1112 C1117 1.425 . S
C1112 C1119 1.409 . S
C1113 H1105 0.930 . S
C1113 C1111 1.419 . S
C1113 C1114 1.362 . S
C1114 H1106 0.930 . S
C1114 C1113 1.362 . S
C1114 C1117 1.409 . S
C1115 H1107 0.930 . S
C1115 C1116 1.355 . S
C1115 C1117 1.415 . S
C1116 C1115 1.355 . S
C1116 C1118 1.419 . S
C1117 C1112 1.425 . S
C1117 C1114 1.409 . S
C1117 C1115 1.415 . S
C1118 H1108 0.930 . S
C1118 C1116 1.419 . S
C1118 C1119 1.362 . S
C1119 H1109 0.930 . S
C1119 C1112 1.409 . S
C1119 C1118 1.362 . S
H1120 C1126 0.930 . S
H1121 C1129 0.930 . S
H1122 C1130 0.930 . S
H1123 C1131 0.930 . S
H1124 C1134 0.930 . S
H1125 C1135 0.930 . S
C1126 H1120 0.930 . S
C1126 C1127 1.355 . S
C1126 C1128 1.415 . S
C1127 C1126 1.355 . S
C1127 C1129 1.419 . S
C1128 C1126 1.415 . S
C1128 C1133 1.425 1_554 S
C1128 C1135 1.409 . S
C1129 H1121 0.930 . S
C1129 C1127 1.419 . S
C1129 C1130 1.362 1_554 S
C1130 H1122 0.930 . S
C1130 C1129 1.362 1_556 S
C1130 C1133 1.409 . S
C1131 H1123 0.930 . S
C1131 C1132 1.355 . S
C1131 C1133 1.415 . S
C1132 C1131 1.355 . S
C1132 C1134 1.419 . S
C1133 C1128 1.425 1_556 S
C1133 C1130 1.409 . S
C1133 C1131 1.415 . S
C1134 H1124 0.930 . S
C1134 C1132 1.419 . S
C1134 C1135 1.362 1_556 S
C1135 H1125 0.930 . S
C1135 C1128 1.409 . S
C1135 C1134 1.362 1_554 S
H1136 C1142 0.930 . S
H1137 C1145 0.930 . S
H1138 C1146 0.930 . S
H1139 C1147 0.930 . S
H1140 C1150 0.930 . S
H1141 C1151 0.930 . S
C1142 H1136 0.930 . S
C1142 C1143 1.355 . S
C1142 C1144 1.415 . S
C1143 C1142 1.355 . S
C1143 C1145 1.419 . S
C1144 C1142 1.415 . S
C1144 C1149 1.425 1_556 S
C1144 C1151 1.409 . S
C1145 H1137 0.930 . S
C1145 C1143 1.419 . S
C1145 C1146 1.362 1_556 S
C1146 H1138 0.930 . S
C1146 C1145 1.362 1_554 S
C1146 C1149 1.409 . S
C1147 H1139 0.930 . S
C1147 C1148 1.355 . S
C1147 C1149 1.415 . S
C1148 C1147 1.355 . S
C1148 C1150 1.419 . S
C1149 C1144 1.425 1_554 S
C1149 C1146 1.409 . S
C1149 C1147 1.415 . S
C1150 H1140 0.930 . S
C1150 C1148 1.419 . S
C1150 C1151 1.362 1_554 S
C1151 H1141 0.930 . S
C1151 C1144 1.409 . S
C1151 C1150 1.362 1_556 S
H1152 C1158 0.930 . S
H1153 C1161 0.930 . S
H1154 C1162 0.930 . S
H1155 C1163 0.930 . S
H1156 C1166 0.930 . S
H1157 C1167 0.930 . S
C1158 H1152 0.930 . S
C1158 C1159 1.355 . S
C1158 C1160 1.415 . S
C1159 C1158 1.355 . S
C1159 C1161 1.419 . S
C1160 C1158 1.415 . S
C1160 C1165 1.425 1_554 S
C1160 C1167 1.409 . S
C1161 H1153 0.930 . S
C1161 C1159 1.419 . S
C1161 C1162 1.362 1_554 S
C1162 H1154 0.930 . S
C1162 C1161 1.362 1_556 S
C1162 C1165 1.409 . S
C1163 H1155 0.930 . S
C1163 C1164 1.355 . S
C1163 C1165 1.415 . S
C1164 C1163 1.355 . S
C1164 C1166 1.419 . S
C1165 C1160 1.425 1_556 S
C1165 C1162 1.409 . S
C1165 C1163 1.415 . S
C1166 H1156 0.930 . S
C1166 C1164 1.419 . S
C1166 C1167 1.362 1_556 S
C1167 H1157 0.930 . S
C1167 C1160 1.409 . S
C1167 C1166 1.362 1_554 S
H1168 C1174 0.930 . S
H1169 C1177 0.930 . S
H1170 C1178 0.930 . S
H1171 C1179 0.930 . S
H1172 C1182 0.930 . S
H1173 C1183 0.940 . S
C1174 H1168 0.930 . S
C1174 C1175 1.355 . S
C1174 C1176 1.415 . S
C1175 C1174 1.355 . S
C1175 C1177 1.419 . S
C1176 C1174 1.415 . S
C1176 C1181 1.415 1_554 S
C1176 C1183 1.418 . S
C1177 H1169 0.930 . S
C1177 C1175 1.419 . S
C1177 C1178 1.362 . S
C1178 H1170 0.930 . S
C1178 C1177 1.362 . S
C1178 C1181 1.399 1_554 S
C1179 H1171 0.930 . S
C1179 C1180 1.355 . S
C1179 C1181 1.435 . S
C1180 C1179 1.355 . S
C1180 C1182 1.419 . S
C1181 C1176 1.415 1_556 S
C1181 C1178 1.399 1_556 S
C1181 C1179 1.435 . S
C1182 H1172 0.930 . S
C1182 C1180 1.419 . S
C1182 C1183 1.344 1_556 S
C1183 H1173 0.940 . S
C1183 C1176 1.418 . S
C1183 C1182 1.344 1_554 S
C551 C111 1.660 . S
C556 C2 1.703 . S
C567 C36 1.701 . S
C572 C9 1.656 . S
C583 C70 1.690 . S
C588 C43 1.693 . S
C599 C104 1.682 . S
C604 C77 1.649 . S
C615 C179 1.659 . S
C620 C138 1.677 . S
C631 C213 1.686 . S
C636 C172 1.682 . S
C647 C206 1.684 . S
C652 C247 1.648 . S
C663 C145 1.686 . S
C668 C240 1.682 . S
C679 C274 1.680 . S
C684 C383 1.682 . S
C695 C308 1.702 . S
C700 C281 1.688 . S
C711 C315 1.693 . S
C716 C342 1.691 . S
C727 C376 1.698 . S
C732 C349 1.692 . S
C743 C451 1.665 . S
C748 C410 1.704 . S
C759 C444 1.702 . S
C764 C485 1.658 . S
C775 C478 1.677 . S
C780 C519 1.672 . S
C791 C512 1.705 . S
C796 C417 1.675 . S
C807 C33 1.976 . S
C812 C203 1.982 . S
C823 C67 1.947 . S
C828 C237 1.939 . S
C839 C271 1.948 . S
C844 C101 1.940 . S
C855 C135 1.980 . S
C860 C169 1.973 . S
C871 C475 1.939 . S
C876 C305 1.946 . S
C887 C509 1.935 . S
C892 C339 1.939 . S
C903 C373 1.971 . S
C908 C543 1.979 . S
C919 C441 1.961 . S
C924 C407 1.971 . S
C935 C5 1.185 . S
C940 C394 1.203 . S
C951 C39 1.156 . S
C956 C292 1.189 . S
C967 C73 1.113 . S
C972 C326 1.160 . S
C983 C107 1.142 . S
C988 C360 1.159 . S
C999 C462 1.148 . S
C1004 C141 1.100 . S
C1015 C175 1.187 . S
C1020 C496 1.193 . S
C1031 C530 1.199 . S
C1036 C209 1.175 . S
C1047 C243 1.137 . S
C1052 C428 1.156 . S
C1063 C122 1.176 . S
C1068 C277 1.166 . S
C1079 C20 1.183 . S
C1084 C311 1.147 . S
C1095 C54 1.199 . S
C1100 C345 1.175 . S
C1111 C88 1.200 . S
C1116 C379 1.193 . S
C1127 C190 1.142 . S
C1132 C413 1.108 . S
C1143 C447 1.096 . S
C1148 C224 1.142 . S
C1159 C258 1.152 . S
C1164 C481 1.130 . S
C1175 C156 1.150 . S
C1180 C515 1.102 . S
