# Generated by pormake.
# Topology una, (4)-cn, num edge types: 1
# Building blocks:
#     Node 0, Type 0, BuildingBlock: GALJAG_clean_sbu_0, # of connection points: 4
#     Node 1, Type 0, BuildingBlock: GALJAG_clean_sbu_0, # of connection points: 4
#     Node 2, Type 0, BuildingBlock: GALJAG_clean_sbu_0, # of connection points: 4
#     Node 3, Type 0, BuildingBlock: GALJAG_clean_sbu_0, # of connection points: 4
#     Node 4, Type 0, BuildingBlock: GALJAG_clean_sbu_0, # of connection points: 4
#     Node 5, Type 0, BuildingBlock: GALJAG_clean_sbu_0, # of connection points: 4
#     Node 6, Type 0, BuildingBlock: GALJAG_clean_sbu_0, # of connection points: 4
#     Node 7, Type 0, BuildingBlock: GALJAG_clean_sbu_0, # of connection points: 4
#     Node 8, Type 0, BuildingBlock: GALJAG_clean_sbu_0, # of connection points: 4
#     Node 9, Type 0, BuildingBlock: GALJAG_clean_sbu_0, # of connection points: 4
#     Node 10, Type 0, BuildingBlock: GALJAG_clean_sbu_0, # of connection points: 4
#     Node 11, Type 0, BuildingBlock: GALJAG_clean_sbu_0, # of connection points: 4
#     Edge 12, Type (0, 0), BuildingBlock: CIFDUS_clean_linker_0, # of connection points: 2
#     Edge 13, Type (0, 0), BuildingBlock: CIFDUS_clean_linker_0, # of connection points: 2
#     Edge 14, Type (0, 0), BuildingBlock: CIFDUS_clean_linker_0, # of connection points: 2
#     Edge 15, Type (0, 0), BuildingBlock: CIFDUS_clean_linker_0, # of connection points: 2
#     Edge 16, Type (0, 0), BuildingBlock: CIFDUS_clean_linker_0, # of connection points: 2
#     Edge 17, Type (0, 0), BuildingBlock: CIFDUS_clean_linker_0, # of connection points: 2
#     Edge 18, Type (0, 0), BuildingBlock: CIFDUS_clean_linker_0, # of connection points: 2
#     Edge 19, Type (0, 0), BuildingBlock: CIFDUS_clean_linker_0, # of connection points: 2
#     Edge 20, Type (0, 0), BuildingBlock: CIFDUS_clean_linker_0, # of connection points: 2
#     Edge 21, Type (0, 0), BuildingBlock: CIFDUS_clean_linker_0, # of connection points: 2
#     Edge 22, Type (0, 0), BuildingBlock: CIFDUS_clean_linker_0, # of connection points: 2
#     Edge 23, Type (0, 0), BuildingBlock: CIFDUS_clean_linker_0, # of connection points: 2
#     Edge 24, Type (0, 0), BuildingBlock: CIFDUS_clean_linker_0, # of connection points: 2
#     Edge 25, Type (0, 0), BuildingBlock: CIFDUS_clean_linker_0, # of connection points: 2
#     Edge 26, Type (0, 0), BuildingBlock: CIFDUS_clean_linker_0, # of connection points: 2
#     Edge 27, Type (0, 0), BuildingBlock: CIFDUS_clean_linker_0, # of connection points: 2
#     Edge 28, Type (0, 0), BuildingBlock: CIFDUS_clean_linker_0, # of connection points: 2
#     Edge 29, Type (0, 0), BuildingBlock: CIFDUS_clean_linker_0, # of connection points: 2
#     Edge 30, Type (0, 0), BuildingBlock: CIFDUS_clean_linker_0, # of connection points: 2
#     Edge 31, Type (0, 0), BuildingBlock: CIFDUS_clean_linker_0, # of connection points: 2
#     Edge 32, Type (0, 0), BuildingBlock: CIFDUS_clean_linker_0, # of connection points: 2
#     Edge 33, Type (0, 0), BuildingBlock: CIFDUS_clean_linker_0, # of connection points: 2
#     Edge 34, Type (0, 0), BuildingBlock: CIFDUS_clean_linker_0, # of connection points: 2
#     Edge 35, Type (0, 0), BuildingBlock: CIFDUS_clean_linker_0, # of connection points: 2
# Relax obj value: 0.044
# Max RMSD: 0.038
# Mean RMSD: 0.038
data_MOF--net-una--node1-GALJAG_clean_sbu_0--edge1-CIFDUS_clean_linker_0
_symmetry_space_group_name_H-M    P1
_symmetry_Int_Tables_number       1
_symmetry_cell_setting            triclinic
loop_
_symmetry_equiv_pos_as_xyz
'x, y, z'
_cell_length_a     53.270849
_cell_length_b     53.305606
_cell_length_c     17.585029
_cell_angle_alpha  90.078062
_cell_angle_beta   90.004631
_cell_angle_gamma 119.98685
loop_
_atom_site_label
_atom_site_type_symbol
_atom_site_fract_x
_atom_site_fract_y
_atom_site_fract_z
_atom_type_partial_charge
In0 In 0.13215 0.44558 0.05365 0.0
O1 O 0.08453 0.40844 0.04825 0.0
O2 O 0.10503 0.43042 0.94623 0.0
C3 C 0.15439 0.43582 0.18219 0.0
C4 C 0.12539 0.49126 0.08436 0.0
C5 C 0.17386 0.45209 0.95687 0.0
O6 O 0.14183 0.41651 0.1321 0.0
O7 O 0.15369 0.45869 0.16979 0.0
O8 O 0.1699 0.47289 0.97388 0.0
O9 O 0.15678 0.42834 0.98849 0.0
C10 C 0.08234 0.41095 0.97731 0.0
O11 O 0.14715 0.49359 0.04917 0.0
O12 O 0.10684 0.46574 0.10376 0.0
In13 In 0.68905 0.12739 0.22775 0.0
O14 O 0.67705 0.07984 0.24845 0.0
O15 O 0.67547 0.09336 0.13585 0.0
C16 C 0.72075 0.15809 0.34944 0.0
C17 C 0.63659 0.12245 0.24513 0.0
C18 C 0.72751 0.16298 0.12506 0.0
O19 O 0.72377 0.13793 0.32102 0.0
O20 O 0.70126 0.16143 0.31881 0.0
O21 O 0.70473 0.16371 0.14068 0.0
O22 O 0.73058 0.14416 0.16069 0.0
C23 C 0.67166 0.07292 0.17894 0.0
O24 O 0.65153 0.13258 0.18549 0.0
O25 O 0.64798 0.11453 0.29583 0.0
In26 In 0.56013 0.68459 0.40318 0.0
O27 O 0.59429 0.67082 0.42631 0.0
O28 O 0.5832 0.6738 0.31199 0.0
C29 C 0.56036 0.7156 0.52588 0.0
C30 C 0.51196 0.63222 0.41358 0.0
C31 C 0.56394 0.72397 0.30245 0.0
O32 O 0.58367 0.71876 0.49808 0.0
O33 O 0.53771 0.69614 0.4945 0.0
O34 O 0.54037 0.70092 0.31541 0.0
O35 O 0.58547 0.72685 0.33965 0.0
C36 C 0.59808 0.66796 0.35644 0.0
O37 O 0.51759 0.64821 0.35576 0.0
O38 O 0.53084 0.6425 0.46567 0.0
In39 In 0.87844 0.56365 0.56319 0.0
O40 O 0.87342 0.51902 0.54184 0.0
O41 O 0.88768 0.53789 0.65116 0.0
C42 C 0.84567 0.56588 0.45085 0.0
C43 C 0.93255 0.59801 0.50868 0.0
C44 C 0.8476 0.57271 0.67095 0.0
O45 O 0.84291 0.54214 0.47388 0.0
O46 O 0.86522 0.58824 0.48365 0.0
O47 O 0.87383 0.59136 0.65776 0.0
O48 O 0.83796 0.54983 0.63216 0.0
C49 C 0.88117 0.51659 0.60794 0.0
O50 O 0.91195 0.57917 0.46947 0.0
O51 O 0.92613 0.59976 0.57708 0.0
In52 In 0.31573 0.87413 0.71418 0.0
O53 O 0.35334 0.868 0.67734 0.0
O54 O 0.35325 0.88073 0.79158 0.0
C55 C 0.27846 0.84149 0.60575 0.0
C56 C 0.33502 0.92866 0.6635 0.0
C57 C 0.27676 0.84534 0.82552 0.0
O58 O 0.2991 0.83789 0.62724 0.0
O59 O 0.27709 0.86197 0.63797 0.0
O60 O 0.28785 0.87241 0.81702 0.0
O61 O 0.28645 0.83365 0.78114 0.0
C62 C 0.36602 0.87455 0.74078 0.0
O63 O 0.32979 0.9222 0.73314 0.0
O64 O 0.33038 0.90779 0.62085 0.0
In65 In 0.44734 0.31745 0.8868 0.0
O66 O 0.40878 0.32542 0.89861 0.0
O67 O 0.42954 0.33261 0.79132 0.0
C68 C 0.43768 0.27639 0.99115 0.0
C69 C 0.49105 0.36836 0.93892 0.0
C70 C 0.45395 0.28722 0.77456 0.0
O71 O 0.41796 0.28186 0.97224 0.0
O72 O 0.46183 0.29228 0.95986 0.0
O73 O 0.47519 0.30974 0.80221 0.0
O74 O 0.42957 0.28054 0.80251 0.0
C75 C 0.40987 0.33302 0.82999 0.0
O76 O 0.48949 0.36018 0.8709 0.0
O77 O 0.47039 0.35103 0.98073 0.0
In78 In 0.55575 0.86883 0.90498 0.0
O79 O 0.51519 0.86932 0.94313 0.0
O80 O 0.52621 0.8769 0.82609 0.0
C81 C 0.55084 0.8313 0.01309 0.0
C82 C 0.59423 0.92298 0.95396 0.0
C83 C 0.56499 0.83927 0.79305 0.0
O84 O 0.52916 0.83212 0.98717 0.0
O85 O 0.57496 0.8498 0.98546 0.0
O86 O 0.58492 0.86369 0.81594 0.0
O87 O 0.5407 0.83103 0.82344 0.0
C88 C 0.50878 0.87438 0.87817 0.0
O89 O 0.58944 0.91684 0.88401 0.0
O90 O 0.58023 0.90185 0.99786 0.0
In91 In 0.68989 0.55924 0.06341 0.0
O92 O 0.64935 0.51547 0.08381 0.0
O93 O 0.65126 0.53868 0.9833 0.0
C94 C 0.72386 0.55311 0.16562 0.0
C95 C 0.67498 0.59683 0.12361 0.0
C96 C 0.72365 0.56418 0.94277 0.0
O97 O 0.69943 0.53219 0.14662 0.0
O98 O 0.73066 0.57691 0.13409 0.0
O99 O 0.72749 0.58622 0.97972 0.0
O100 O 0.70262 0.54059 0.96522 0.0
C101 C 0.63709 0.51609 0.02284 0.0
O102 O 0.68251 0.59823 0.0548 0.0
O103 O 0.6755 0.57702 0.16123 0.0
In104 In 0.13174 0.69023 0.20707 0.0
O105 O 0.08388 0.67825 0.19649 0.0
O106 O 0.09956 0.67487 0.30477 0.0
C107 C 0.15167 0.72551 0.08336 0.0
C108 C 0.13605 0.64295 0.17555 0.0
C109 C 0.16935 0.72169 0.31692 0.0
O110 O 0.14008 0.69838 0.07885 0.0
O111 O 0.15093 0.73456 0.1489 0.0
O112 O 0.16729 0.69844 0.29253 0.0
O113 O 0.15209 0.72852 0.28693 0.0
C114 C 0.07834 0.67185 0.26605 0.0
O115 O 0.15788 0.6678 0.1847 0.0
O116 O 0.11193 0.64183 0.18289 0.0
In117 In 0.44735 0.13159 0.38521 0.0
O118 O 0.4902 0.13709 0.42795 0.0
O119 O 0.47514 0.11783 0.31888 0.0
C120 C 0.44363 0.16782 0.48446 0.0
C121 C 0.41029 0.07756 0.43561 0.0
C122 C 0.44559 0.1605 0.261 0.0
O123 O 0.46743 0.16898 0.47002 0.0
O124 O 0.42196 0.14826 0.4496 0.0
O125 O 0.42269 0.14021 0.28998 0.0
O126 O 0.4687 0.16495 0.29254 0.0
C127 C 0.49462 0.12614 0.36922 0.0
O128 O 0.41189 0.08407 0.36586 0.0
O129 O 0.42692 0.09819 0.4784 0.0
In130 In 0.31422 0.44004 0.55043 0.0
O131 O 0.35316 0.48182 0.59195 0.0
O132 O 0.35221 0.47149 0.47502 0.0
C133 C 0.27883 0.43757 0.66165 0.0
C134 C 0.3325 0.40346 0.59718 0.0
C135 C 0.27525 0.43158 0.44002 0.0
O136 O 0.29978 0.4613 0.63874 0.0
O137 O 0.27603 0.41521 0.62885 0.0
O138 O 0.28342 0.41334 0.45203 0.0
O139 O 0.28784 0.4541 0.48029 0.0
C140 C 0.36574 0.48892 0.52845 0.0
O141 O 0.32495 0.41699 0.64159 0.0
O142 O 0.33036 0.40775 0.52728 0.0
In143 In 0.87231 0.31663 0.72863 0.0
O144 O 0.86867 0.35705 0.7457 0.0
O145 O 0.88654 0.35312 0.64136 0.0
C146 C 0.8335 0.28336 0.83339 0.0
C147 C 0.92325 0.3326 0.80001 0.0
C148 C 0.84361 0.27713 0.61795 0.0
O149 O 0.83489 0.30634 0.80904 0.0
O150 O 0.85192 0.27762 0.80556 0.0
O151 O 0.86838 0.28242 0.64056 0.0
O152 O 0.83472 0.2927 0.64815 0.0
C153 C 0.87916 0.36795 0.68179 0.0
O154 O 0.92025 0.32747 0.72924 0.0
O155 O 0.90097 0.32968 0.83282 0.0
H156 H 0.17679 0.39954 0.19334 0.0
H157 H 0.17388 0.46978 0.30742 0.0
H158 H 0.21075 0.47423 0.39713 0.0
H159 H 0.24615 0.4608 0.43779 0.0
H160 H 0.25008 0.39072 0.32657 0.0
H161 H 0.21065 0.38367 0.24078 0.0
C162 C 0.18382 0.41536 0.23889 0.0
C163 C 0.17258 0.4343 0.24371 0.0
C164 C 0.20559 0.41822 0.28979 0.0
C165 C 0.18215 0.45495 0.30244 0.0
C166 C 0.20338 0.45764 0.35353 0.0
C167 C 0.23846 0.44398 0.3947 0.0
C168 C 0.25133 0.4266 0.38775 0.0
C169 C 0.21572 0.4399 0.34659 0.0
C170 C 0.2407 0.40456 0.33258 0.0
C171 C 0.21811 0.40049 0.28372 0.0
H172 H 0.78783 0.25874 0.58423 0.0
H173 H 0.8569 0.24119 0.53542 0.0
H174 H 0.82433 0.20093 0.45183 0.0
H175 H 0.77604 0.17161 0.38961 0.0
H176 H 0.70815 0.19074 0.44145 0.0
H177 H 0.7403 0.22912 0.52786 0.0
C178 C 0.79591 0.24623 0.5552 0.0
C179 C 0.82487 0.25318 0.56542 0.0
C180 C 0.7771 0.22314 0.5083 0.0
C181 C 0.83477 0.23644 0.52802 0.0
C182 C 0.8161 0.21336 0.48049 0.0
C183 C 0.76824 0.1839 0.42092 0.0
C184 C 0.7397 0.17828 0.40921 0.0
C185 C 0.78716 0.20652 0.47001 0.0
C186 C 0.72998 0.19462 0.44936 0.0
C187 C 0.74839 0.21668 0.49859 0.0
H188 H 0.60233 0.77044 0.56779 0.0
H189 H 0.51438 0.70373 0.61452 0.0
H190 H 0.50816 0.73626 0.69966 0.0
H191 H 0.52658 0.78387 0.7569 0.0
H192 H 0.61421 0.85157 0.71258 0.0
H193 H 0.6216 0.81865 0.62992 0.0
C194 C 0.58202 0.76296 0.5977 0.0
C195 C 0.55887 0.73464 0.58501 0.0
C196 C 0.57835 0.78209 0.64596 0.0
C197 C 0.53253 0.72537 0.6233 0.0
C198 C 0.52888 0.74401 0.67177 0.0
C199 C 0.54731 0.79156 0.72897 0.0
C200 C 0.56971 0.82024 0.74032 0.0
C201 C 0.55144 0.7725 0.68255 0.0
C202 C 0.59652 0.82966 0.70431 0.0
C203 C 0.60077 0.81078 0.65733 0.0
H204 H 0.79012 0.53803 0.68875 0.0
H205 H 0.86231 0.61748 0.77239 0.0
H206 H 0.82986 0.62347 0.8605 0.0
H207 H 0.78077 0.60454 0.91739 0.0
H208 H 0.70983 0.52441 0.832 0.0
H209 H 0.7419 0.52054 0.74015 0.0
C210 C 0.79888 0.5567 0.72623 0.0
C211 C 0.82865 0.57713 0.72455 0.0
C212 C 0.78019 0.55997 0.7761 0.0
C213 C 0.83948 0.60134 0.77294 0.0
C214 C 0.82091 0.60478 0.82316 0.0
C215 C 0.77235 0.58655 0.87773 0.0
C216 C 0.74295 0.56479 0.88144 0.0
C217 C 0.79119 0.58409 0.82562 0.0
C218 C 0.73236 0.54139 0.83041 0.0
C219 C 0.7507 0.53908 0.778 0.0
H220 H 0.23787 0.78846 0.81398 0.0
H221 H 0.26158 0.86314 0.95553 0.0
H222 H 0.22276 0.83294 0.04515 0.0
H223 H 0.18413 0.78451 0.08665 0.0
H224 H 0.16039 0.71045 0.94202 0.0
H225 H 0.19679 0.74136 0.84923 0.0
C226 C 0.23455 0.79815 0.86448 0.0
C227 C 0.25285 0.82786 0.87897 0.0
C228 C 0.21203 0.7808 0.91472 0.0
C229 C 0.2479 0.84026 0.94361 0.0
C230 C 0.2257 0.823 0.99469 0.0
C231 C 0.18655 0.77524 0.03414 0.0
C232 C 0.16961 0.74515 0.02147 0.0
C233 C 0.20784 0.79315 0.98125 0.0
C234 C 0.17307 0.73349 0.95321 0.0
C235 C 0.19405 0.75113 0.90034 0.0
H236 H 0.40296 0.1725 0.22116 0.0
H237 H 0.48997 0.19253 0.1659 0.0
H238 H 0.49478 0.22973 0.07724 0.0
H239 H 0.47573 0.25842 0.02095 0.0
H240 H 0.38927 0.2402 0.07521 0.0
H241 H 0.38281 0.2006 0.15912 0.0
C242 C 0.42272 0.18469 0.18856 0.0
C243 C 0.44607 0.17974 0.19988 0.0
C244 C 0.42562 0.20667 0.13856 0.0
C245 C 0.47172 0.19595 0.15819 0.0
C246 C 0.47455 0.21732 0.10771 0.0
C247 C 0.45542 0.24585 0.05112 0.0
C248 C 0.43312 0.25244 0.04245 0.0
C249 C 0.4519 0.22324 0.09861 0.0
C250 C 0.40686 0.23569 0.08137 0.0
C251 C 0.40315 0.21301 0.12913 0.0
H252 H 0.16722 0.54771 0.0799 0.0
H253 H 0.07677 0.49153 0.13188 0.0
H254 H 0.0719 0.53359 0.16383 0.0
H255 H 0.09351 0.58642 0.17737 0.0
H256 H 0.18453 0.64221 0.1307 0.0
H257 H 0.18905 0.60022 0.09649 0.0
C258 C 0.14642 0.5447 0.09798 0.0
C259 C 0.12236 0.51662 0.10317 0.0
C260 C 0.14392 0.5689 0.1174 0.0
C261 C 0.09561 0.51297 0.12745 0.0
C262 C 0.09281 0.537 0.14568 0.0
C263 C 0.11431 0.58934 0.15966 0.0
C264 C 0.13863 0.61735 0.15633 0.0
C265 C 0.11684 0.56506 0.14096 0.0
C266 C 0.1655 0.62085 0.13384 0.0
C267 C 0.1681 0.59687 0.11413 0.0
H268 H 0.61082 0.12178 0.37853 0.0
H269 H 0.5998 0.12073 0.13538 0.0
H270 H 0.55395 0.12018 0.15247 0.0
H271 H 0.51776 0.12147 0.23658 0.0
H272 H 0.53074 0.12653 0.47942 0.0
H273 H 0.57505 0.12402 0.46267 0.0
C274 C 0.59822 0.1212 0.32941 0.0
C275 C 0.60849 0.12111 0.25585 0.0
C276 C 0.57234 0.12173 0.33968 0.0
C277 C 0.59227 0.12081 0.19256 0.0
C278 C 0.56608 0.12049 0.2023 0.0
C279 C 0.53022 0.12183 0.28578 0.0
C280 C 0.521 0.12402 0.35911 0.0
C281 C 0.55602 0.12115 0.27557 0.0
C282 C 0.53749 0.12488 0.4224 0.0
C283 C 0.56277 0.12342 0.41286 0.0
H284 H 0.39145 0.51596 0.39592 0.0
H285 H 0.40377 0.5213 0.63914 0.0
H286 H 0.45075 0.56523 0.6247 0.0
H287 H 0.48793 0.60276 0.54347 0.0
H288 H 0.47464 0.59948 0.30094 0.0
H289 H 0.42858 0.55413 0.31439 0.0
C290 C 0.4045 0.52673 0.44561 0.0
C291 C 0.3942 0.5154 0.51844 0.0
C292 C 0.43132 0.55234 0.43701 0.0
C293 C 0.41119 0.52966 0.58247 0.0
C294 C 0.43809 0.55475 0.57428 0.0
C295 C 0.47503 0.59199 0.49354 0.0
C296 C 0.4847 0.60431 0.42133 0.0
C297 C 0.44832 0.56635 0.50191 0.0
C298 C 0.46762 0.59036 0.35717 0.0
C299 C 0.44129 0.56446 0.36483 0.0
H300 H 0.88424 0.47616 0.5203 0.0
H301 H 0.87962 0.49879 0.75343 0.0
H302 H 0.87871 0.45482 0.79695 0.0
H303 H 0.87812 0.4094 0.76864 0.0
H304 H 0.88555 0.38793 0.53631 0.0
H305 H 0.88667 0.43204 0.49247 0.0
C306 C 0.88308 0.47143 0.58059 0.0
C307 C 0.88179 0.49053 0.63359 0.0
C308 C 0.8831 0.44637 0.60528 0.0
C309 C 0.88065 0.48439 0.71158 0.0
C310 C 0.88007 0.45924 0.73649 0.0
C311 C 0.88008 0.41445 0.70844 0.0
C312 C 0.88156 0.3954 0.6557 0.0
C313 C 0.88112 0.44001 0.68385 0.0
C314 C 0.8844 0.40231 0.57797 0.0
C315 C 0.88495 0.42747 0.55288 0.0
H316 H 0.39293 0.87952 0.87593 0.0
H317 H 0.40106 0.87052 0.63471 0.0
H318 H 0.4466 0.87093 0.65536 0.0
H319 H 0.48375 0.8729 0.74226 0.0
H320 H 0.47449 0.87976 0.9839 0.0
H321 H 0.42993 0.88124 0.96284 0.0
C322 C 0.40473 0.87772 0.82793 0.0
C323 C 0.39366 0.87501 0.75396 0.0
C324 C 0.43073 0.8776 0.84029 0.0
C325 C 0.40909 0.87255 0.69229 0.0
C326 C 0.43516 0.87282 0.70401 0.0
C327 C 0.47204 0.87489 0.79019 0.0
C328 C 0.48241 0.87629 0.86445 0.0
C329 C 0.44614 0.87523 0.77778 0.0
C330 C 0.46691 0.87861 0.92614 0.0
C331 C 0.44142 0.87946 0.91418 0.0
H332 H 0.52888 0.41499 0.85681 0.0
H333 H 0.50872 0.38221 0.08601 0.0
H334 H 0.55195 0.42545 0.13303 0.0
H335 H 0.59673 0.47164 0.10782 0.0
H336 H 0.61533 0.50536 0.87923 0.0
H337 H 0.5714 0.46282 0.83313 0.0
C338 C 0.53391 0.41743 0.91709 0.0
C339 C 0.51586 0.39541 0.96784 0.0
C340 C 0.55853 0.44248 0.94374 0.0
C341 C 0.52235 0.39892 0.04589 0.0
C342 C 0.54709 0.42358 0.07275 0.0
C343 C 0.59102 0.4697 0.04804 0.0
C344 C 0.6093 0.49145 0.99689 0.0
C345 C 0.56552 0.44534 0.02206 0.0
C346 C 0.60156 0.48889 0.91971 0.0
C347 C 0.57651 0.46453 0.89325 0.0
H348 H 0.27388 0.48195 0.72059 0.0
H349 H 0.23815 0.3894 0.73427 0.0
H350 H 0.20304 0.38603 0.82867 0.0
H351 H 0.18177 0.40904 0.90444 0.0
H352 H 0.21601 0.50129 0.88878 0.0
H353 H 0.25256 0.50517 0.79774 0.0
C354 C 0.2585 0.4611 0.74467 0.0
C355 C 0.25854 0.43597 0.72073 0.0
C356 C 0.23812 0.45927 0.79812 0.0
C357 C 0.23845 0.40904 0.75181 0.0
C358 C 0.21839 0.40709 0.80572 0.0
C359 C 0.19729 0.43003 0.88132 0.0
C360 C 0.19626 0.45484 0.90309 0.0
C361 C 0.21791 0.43201 0.82879 0.0
C362 C 0.2164 0.48187 0.8726 0.0
C363 C 0.23727 0.4841 0.82069 0.0
H364 H 0.73052 0.21049 0.05955 0.0
H365 H 0.77333 0.15993 0.06864 0.0
H366 H 0.81001 0.19296 0.97943 0.0
H367 H 0.82989 0.23602 0.89926 0.0
H368 H 0.78809 0.28751 0.89113 0.0
H369 H 0.75103 0.25433 0.9801 0.0
C370 C 0.74785 0.2067 0.04173 0.0
C371 C 0.74922 0.18282 0.07029 0.0
C372 C 0.76904 0.22595 0.99103 0.0
C373 C 0.77185 0.17821 0.04735 0.0
C374 C 0.79282 0.19707 0.99642 0.0
C375 C 0.81269 0.24002 0.91703 0.0
C376 C 0.81164 0.26409 0.88877 0.0
C377 C 0.79164 0.221 0.96805 0.0
C378 C 0.78933 0.26909 0.91237 0.0
C379 C 0.76813 0.25012 0.96302 0.0
H380 H 0.5199 0.72747 0.236 0.0
H381 H 0.6132 0.77041 0.24997 0.0
H382 H 0.61732 0.80776 0.1624 0.0
H383 H 0.59447 0.82799 0.08153 0.0
H384 H 0.5012 0.78582 0.069 0.0
H385 H 0.49697 0.74842 0.15698 0.0
C386 C 0.5411 0.74497 0.21963 0.0
C387 C 0.5662 0.74618 0.24894 0.0
C388 C 0.54331 0.76653 0.16996 0.0
C389 C 0.59357 0.76906 0.22797 0.0
C390 C 0.59595 0.79041 0.178 0.0
C391 C 0.57322 0.81066 0.09827 0.0
C392 C 0.5482 0.80958 0.06891 0.0
C393 C 0.57097 0.78935 0.14871 0.0
C394 C 0.52079 0.7871 0.09112 0.0
C395 C 0.51835 0.76569 0.14116 0.0
H396 H 0.79485 0.52193 0.39646 0.0
H397 H 0.85387 0.61386 0.37611 0.0
H398 H 0.82139 0.61781 0.2854 0.0
H399 H 0.77589 0.59557 0.21467 0.0
H400 H 0.71584 0.50395 0.23629 0.0
H401 H 0.74903 0.49944 0.32416 0.0
C402 C 0.80065 0.54275 0.3716 0.0
C403 C 0.82668 0.56756 0.39272 0.0
C404 C 0.78164 0.54496 0.32034 0.0
C405 C 0.8339 0.59447 0.36074 0.0
C406 C 0.81534 0.59676 0.30899 0.0
C407 C 0.77003 0.57459 0.23859 0.0
C408 C 0.74347 0.55014 0.21929 0.0
C409 C 0.78908 0.57222 0.28897 0.0
C410 C 0.73617 0.52311 0.25061 0.0
C411 C 0.75514 0.52052 0.30065 0.0
H412 H 0.1765 0.77161 0.37565 0.0
H413 H 0.21111 0.71373 0.38394 0.0
H414 H 0.24858 0.74625 0.47321 0.0
H415 H 0.27159 0.79132 0.54779 0.0
H416 H 0.2363 0.84864 0.53995 0.0
H417 H 0.199 0.81613 0.45083 0.0
C418 C 0.19218 0.76605 0.39718 0.0
C419 C 0.19111 0.74038 0.3734 0.0
C420 C 0.21359 0.78479 0.44802 0.0
C421 C 0.21151 0.7334 0.40168 0.0
C422 C 0.23296 0.752 0.45245 0.0
C423 C 0.25581 0.79673 0.5262 0.0
C424 C 0.25671 0.82234 0.54995 0.0
C425 C 0.23427 0.77781 0.47567 0.0
C426 C 0.23603 0.82904 0.52225 0.0
C427 C 0.21469 0.81046 0.47147 0.0
H428 H 0.41117 0.24013 0.70489 0.0
H429 H 0.50427 0.29326 0.71645 0.0
H430 H 0.50944 0.26077 0.6275 0.0
H431 H 0.48728 0.2165 0.54895 0.0
H432 H 0.39406 0.16408 0.53748 0.0
H433 H 0.38916 0.19705 0.62437 0.0
C434 C 0.4326 0.24469 0.68767 0.0
C435 C 0.4573 0.26895 0.71717 0.0
C436 C 0.43537 0.22596 0.637 0.0
C437 C 0.48493 0.27468 0.69428 0.0
C438 C 0.48789 0.25608 0.6437 0.0
C439 C 0.46593 0.21232 0.56568 0.0
C440 C 0.44108 0.18787 0.53729 0.0
C441 C 0.46325 0.23151 0.61522 0.0
C442 C 0.41352 0.18277 0.55874 0.0
C443 C 0.41068 0.2016 0.60834 0.0
H444 H 0.02739 0.37843 0.03208 0.0
H445 H 0.07644 0.40586 0.82365 0.0
H446 H 0.03173 0.38198 0.74944 0.0
H447 H 0.97829 0.35615 0.7436 0.0
H448 H 0.92944 0.33113 0.95259 0.0
H449 H 0.97414 0.35088 0.02617 0.0
C450 C 0.02826 0.37884 0.97045 0.0
C451 C 0.05517 0.39394 0.93354 0.0
C452 C 1.00239 0.36559 0.92797 0.0
C453 C 0.05596 0.39447 0.85354 0.0
C454 C 0.03039 0.38083 0.81095 0.0
C455 C 0.97749 0.35472 0.80515 0.0
C456 C 0.9506 0.34228 0.84248 0.0
C457 C 0.00341 0.36675 0.84749 0.0
C458 C 0.94988 0.34076 0.92239 0.0
C459 C 0.97545 0.35206 0.96466 0.0
H460 H 0.60881 0.93948 0.10107 0.0
H461 H 0.62129 0.97338 0.8729 0.0
H462 H 0.64795 0.02281 0.9228 0.0
H463 H 0.6648 0.05625 0.0314 0.0
H464 H 0.65221 0.02264 0.25982 0.0
H465 H 0.62865 0.97312 0.2096 0.0
C466 C 0.6176 0.95769 0.06217 0.0
C467 C 0.61291 0.95276 0.98331 0.0
C468 C 0.63274 0.98603 0.09135 0.0
C469 C 0.62456 0.97656 0.93373 0.0
C470 C 0.63973 0.00483 0.96228 0.0
C471 C 0.65712 0.03811 0.07028 0.0
C472 C 0.66006 0.0431 0.14934 0.0
C473 C 0.6435 0.0098 0.041 0.0
C474 C 0.65019 0.01938 0.19883 0.0
C475 C 0.63664 0.99108 0.17009 0.0
H476 H 0.6652 0.60211 0.27281 0.0
H477 H 0.66057 0.63281 0.04923 0.0
H478 H 0.63797 0.65909 0.10289 0.0
H479 H 0.61637 0.67035 0.21172 0.0
H480 H 0.6214 0.64028 0.43573 0.0
H481 H 0.6473 0.61693 0.38364 0.0
C482 C 0.65949 0.61479 0.23592 0.0
C483 C 0.66432 0.61531 0.15698 0.0
C484 C 0.64651 0.62983 0.26722 0.0
C485 C 0.65705 0.63202 0.11006 0.0
C486 C 0.64404 0.64697 0.14071 0.0
C487 C 0.62338 0.65891 0.24932 0.0
C488 C 0.61676 0.65681 0.32742 0.0
C489 C 0.63818 0.64557 0.21894 0.0
C490 C 0.62623 0.64219 0.37548 0.0
C491 C 0.64092 0.62874 0.34562 0.0
H492 H 0.06458 0.66739 0.41585 0.0
H493 H 0.0266 0.64992 0.19161 0.0
H494 H 0.97806 0.62644 0.24754 0.0
H495 H 0.94652 0.60847 0.35988 0.0
H496 H 0.98425 0.62726 0.58434 0.0
H497 H 0.03292 0.65285 0.52866 0.0
C498 C 0.04566 0.65862 0.37924 0.0
C499 C 0.04913 0.66014 0.29965 0.0
C500 C 0.01786 0.64533 0.41184 0.0
C501 C 0.02448 0.64899 0.25296 0.0
C502 C 0.99674 0.63548 0.28492 0.0
C503 C 0.96541 0.61833 0.39663 0.0
C504 C 0.96187 0.61577 0.4761 0.0
C505 C 0.99319 0.63315 0.36421 0.0
C506 C 0.98646 0.62895 0.52305 0.0
C507 C 0.01425 0.64347 0.4912 0.0
H508 H 0.39882 0.06166 0.58335 0.0
H509 H 0.38079 0.02698 0.35535 0.0
H510 H 0.35458 0.9777 0.4064 0.0
H511 H 0.33956 0.94462 0.51573 0.0
H512 H 0.35725 0.97933 0.74369 0.0
H513 H 0.38075 0.02862 0.69267 0.0
C514 C 0.38895 0.04332 0.54477 0.0
C515 C 0.39193 0.04792 0.46563 0.0
C516 C 0.37401 0.01514 0.57453 0.0
C517 C 0.37882 0.02399 0.41642 0.0
C518 C 0.36394 0.99584 0.44561 0.0
C519 C 0.34839 0.96297 0.55429 0.0
C520 C 0.34691 0.95837 0.63342 0.0
C521 C 0.36183 0.99117 0.52453 0.0
C522 C 0.35817 0.98232 0.68264 0.0
C523 C 0.37167 0.01048 0.65346 0.0
H524 H 0.33158 0.38637 0.74242 0.0
H525 H 0.3617 0.38173 0.51793 0.0
H526 H 0.38719 0.35805 0.57028 0.0
H527 H 0.40364 0.34193 0.68111 0.0
H528 H 0.37321 0.3464 0.90536 0.0
H529 H 0.34494 0.36685 0.85172 0.0
C530 C 0.34349 0.37992 0.70477 0.0
C531 C 0.34495 0.38599 0.62643 0.0
C532 C 0.35815 0.36649 0.73533 0.0
C533 C 0.36025 0.37729 0.57835 0.0
C534 C 0.37493 0.36389 0.60835 0.0
C535 C 0.39065 0.34719 0.71821 0.0
C536 C 0.39072 0.34292 0.79725 0.0
C537 C 0.37447 0.3589 0.68693 0.0
C538 C 0.37357 0.34955 0.84445 0.0
C539 C 0.35747 0.3613 0.81379 0.0
loop_
_geom_bond_atom_site_label_1
_geom_bond_atom_site_label_2
_geom_bond_distance
_geom_bond_site_symmetry_2
_ccdc_geom_bond_type
In0 O1 2.294 . S
In0 O2 2.326 1_554 S
In0 O6 2.266 . S
In0 O7 2.326 . S
In0 O8 2.266 1_554 S
In0 O9 2.326 1_554 S
In0 O11 2.294 . S
In0 O12 2.326 . S
O1 In0 2.294 . S
O1 C10 1.240 . S
O2 In0 2.326 1_556 S
O2 C10 1.252 1_556 S
C3 O6 1.252 . S
C3 O7 1.260 . S
C4 O11 1.240 . S
C4 O12 1.252 . S
C5 O8 1.252 . S
C5 O9 1.260 . S
O6 In0 2.266 . S
O6 C3 1.252 . S
O7 In0 2.326 . S
O7 C3 1.260 . S
O8 In0 2.266 1_556 S
O8 C5 1.252 . S
O9 In0 2.326 1_556 S
O9 C5 1.260 . S
C10 O1 1.240 . S
C10 O2 1.252 1_554 S
O11 In0 2.294 . S
O11 C4 1.240 . S
O12 In0 2.326 . S
O12 C4 1.252 . S
In13 O14 2.294 . S
In13 O15 2.326 . S
In13 O19 2.266 . S
In13 O20 2.326 . S
In13 O21 2.266 . S
In13 O22 2.326 . S
In13 O24 2.294 . S
In13 O25 2.326 . S
O14 In13 2.294 . S
O14 C23 1.240 . S
O15 In13 2.326 . S
O15 C23 1.252 . S
C16 O19 1.252 . S
C16 O20 1.260 . S
C17 O24 1.240 . S
C17 O25 1.252 . S
C18 O21 1.252 . S
C18 O22 1.260 . S
O19 In13 2.266 . S
O19 C16 1.252 . S
O20 In13 2.326 . S
O20 C16 1.260 . S
O21 In13 2.266 . S
O21 C18 1.252 . S
O22 In13 2.326 . S
O22 C18 1.260 . S
C23 O14 1.240 . S
C23 O15 1.252 . S
O24 In13 2.294 . S
O24 C17 1.240 . S
O25 In13 2.326 . S
O25 C17 1.252 . S
In26 O27 2.294 . S
In26 O28 2.326 . S
In26 O32 2.266 . S
In26 O33 2.326 . S
In26 O34 2.266 . S
In26 O35 2.326 . S
In26 O37 2.294 . S
In26 O38 2.326 . S
O27 In26 2.294 . S
O27 C36 1.240 . S
O28 In26 2.326 . S
O28 C36 1.252 . S
C29 O32 1.252 . S
C29 O33 1.260 . S
C30 O37 1.240 . S
C30 O38 1.252 . S
C31 O34 1.252 . S
C31 O35 1.260 . S
O32 In26 2.266 . S
O32 C29 1.252 . S
O33 In26 2.326 . S
O33 C29 1.260 . S
O34 In26 2.266 . S
O34 C31 1.252 . S
O35 In26 2.326 . S
O35 C31 1.260 . S
C36 O27 1.240 . S
C36 O28 1.252 . S
O37 In26 2.294 . S
O37 C30 1.240 . S
O38 In26 2.326 . S
O38 C30 1.252 . S
In39 O40 2.294 . S
In39 O41 2.326 . S
In39 O45 2.266 . S
In39 O46 2.326 . S
In39 O47 2.266 . S
In39 O48 2.326 . S
In39 O50 2.294 . S
In39 O51 2.326 . S
O40 In39 2.294 . S
O40 C49 1.240 . S
O41 In39 2.326 . S
O41 C49 1.252 . S
C42 O45 1.252 . S
C42 O46 1.260 . S
C43 O50 1.240 . S
C43 O51 1.252 . S
C44 O47 1.252 . S
C44 O48 1.260 . S
O45 In39 2.266 . S
O45 C42 1.252 . S
O46 In39 2.326 . S
O46 C42 1.260 . S
O47 In39 2.266 . S
O47 C44 1.252 . S
O48 In39 2.326 . S
O48 C44 1.260 . S
C49 O40 1.240 . S
C49 O41 1.252 . S
O50 In39 2.294 . S
O50 C43 1.240 . S
O51 In39 2.326 . S
O51 C43 1.252 . S
In52 O53 2.294 . S
In52 O54 2.326 . S
In52 O58 2.266 . S
In52 O59 2.326 . S
In52 O60 2.266 . S
In52 O61 2.326 . S
In52 O63 2.294 . S
In52 O64 2.326 . S
O53 In52 2.294 . S
O53 C62 1.240 . S
O54 In52 2.326 . S
O54 C62 1.252 . S
C55 O58 1.252 . S
C55 O59 1.260 . S
C56 O63 1.240 . S
C56 O64 1.252 . S
C57 O60 1.252 . S
C57 O61 1.260 . S
O58 In52 2.266 . S
O58 C55 1.252 . S
O59 In52 2.326 . S
O59 C55 1.260 . S
O60 In52 2.266 . S
O60 C57 1.252 . S
O61 In52 2.326 . S
O61 C57 1.260 . S
C62 O53 1.240 . S
C62 O54 1.252 . S
O63 In52 2.294 . S
O63 C56 1.240 . S
O64 In52 2.326 . S
O64 C56 1.252 . S
In65 O66 2.294 . S
In65 O67 2.326 . S
In65 O71 2.266 . S
In65 O72 2.326 . S
In65 O73 2.266 . S
In65 O74 2.326 . S
In65 O76 2.294 . S
In65 O77 2.326 . S
O66 In65 2.294 . S
O66 C75 1.240 . S
O67 In65 2.326 . S
O67 C75 1.252 . S
C68 O71 1.254 . S
C68 O72 1.267 . S
C69 O76 1.240 . S
C69 O77 1.252 . S
C70 O73 1.252 . S
C70 O74 1.260 . S
O71 In65 2.266 . S
O71 C68 1.254 . S
O72 In65 2.326 . S
O72 C68 1.267 . S
O73 In65 2.266 . S
O73 C70 1.252 . S
O74 In65 2.326 . S
O74 C70 1.260 . S
C75 O66 1.240 . S
C75 O67 1.252 . S
O76 In65 2.294 . S
O76 C69 1.240 . S
O77 In65 2.326 . S
O77 C69 1.252 . S
In78 O79 2.294 . S
In78 O80 2.326 . S
In78 O84 2.266 . S
In78 O85 2.326 . S
In78 O86 2.266 . S
In78 O87 2.326 . S
In78 O89 2.294 . S
In78 O90 2.326 . S
O79 In78 2.294 . S
O79 C88 1.240 . S
O80 In78 2.326 . S
O80 C88 1.252 . S
C81 O84 1.252 . S
C81 O85 1.260 . S
C82 O89 1.240 . S
C82 O90 1.252 . S
C83 O86 1.252 . S
C83 O87 1.260 . S
O84 In78 2.266 . S
O84 C81 1.252 . S
O85 In78 2.326 . S
O85 C81 1.260 . S
O86 In78 2.266 . S
O86 C83 1.252 . S
O87 In78 2.326 . S
O87 C83 1.260 . S
C88 O79 1.240 . S
C88 O80 1.252 . S
O89 In78 2.294 . S
O89 C82 1.240 . S
O90 In78 2.326 . S
O90 C82 1.252 . S
In91 O92 2.294 . S
In91 O93 2.326 1_554 S
In91 O97 2.266 . S
In91 O98 2.326 . S
In91 O99 2.266 1_554 S
In91 O100 2.326 1_554 S
In91 O102 2.294 . S
In91 O103 2.326 . S
O92 In91 2.294 . S
O92 C101 1.240 . S
O93 In91 2.326 1_556 S
O93 C101 1.252 1_556 S
C94 O97 1.252 . S
C94 O98 1.260 . S
C95 O102 1.240 . S
C95 O103 1.252 . S
C96 O99 1.252 . S
C96 O100 1.260 . S
O97 In91 2.266 . S
O97 C94 1.252 . S
O98 In91 2.326 . S
O98 C94 1.260 . S
O99 In91 2.266 1_556 S
O99 C96 1.252 . S
O100 In91 2.326 1_556 S
O100 C96 1.260 . S
C101 O92 1.240 . S
C101 O93 1.252 1_554 S
O102 In91 2.294 . S
O102 C95 1.240 . S
O103 In91 2.326 . S
O103 C95 1.252 . S
In104 O105 2.294 . S
In104 O106 2.326 . S
In104 O110 2.266 . S
In104 O111 2.326 . S
In104 O112 2.266 . S
In104 O113 2.326 . S
In104 O115 2.294 . S
In104 O116 2.326 . S
O105 In104 2.294 . S
O105 C114 1.240 . S
O106 In104 2.326 . S
O106 C114 1.252 . S
C107 O110 1.252 . S
C107 O111 1.260 . S
C108 O115 1.240 . S
C108 O116 1.252 . S
C109 O112 1.252 . S
C109 O113 1.260 . S
O110 In104 2.266 . S
O110 C107 1.252 . S
O111 In104 2.326 . S
O111 C107 1.260 . S
O112 In104 2.266 . S
O112 C109 1.252 . S
O113 In104 2.326 . S
O113 C109 1.260 . S
C114 O105 1.240 . S
C114 O106 1.252 . S
O115 In104 2.294 . S
O115 C108 1.240 . S
O116 In104 2.326 . S
O116 C108 1.252 . S
In117 O118 2.294 . S
In117 O119 2.326 . S
In117 O123 2.266 . S
In117 O124 2.326 . S
In117 O125 2.266 . S
In117 O126 2.326 . S
In117 O128 2.294 . S
In117 O129 2.326 . S
O118 In117 2.294 . S
O118 C127 1.240 . S
O119 In117 2.326 . S
O119 C127 1.252 . S
C120 O123 1.252 . S
C120 O124 1.260 . S
C121 O128 1.240 . S
C121 O129 1.252 . S
C122 O125 1.252 . S
C122 O126 1.260 . S
O123 In117 2.266 . S
O123 C120 1.252 . S
O124 In117 2.326 . S
O124 C120 1.260 . S
O125 In117 2.266 . S
O125 C122 1.252 . S
O126 In117 2.326 . S
O126 C122 1.260 . S
C127 O118 1.240 . S
C127 O119 1.252 . S
O128 In117 2.294 . S
O128 C121 1.240 . S
O129 In117 2.326 . S
O129 C121 1.252 . S
In130 O131 2.294 . S
In130 O132 2.326 . S
In130 O136 2.266 . S
In130 O137 2.326 . S
In130 O138 2.266 . S
In130 O139 2.326 . S
In130 O141 2.294 . S
In130 O142 2.326 . S
O131 In130 2.294 . S
O131 C140 1.240 . S
O132 In130 2.326 . S
O132 C140 1.252 . S
C133 O136 1.252 . S
C133 O137 1.260 . S
C134 O141 1.240 . S
C134 O142 1.252 . S
C135 O138 1.252 . S
C135 O139 1.260 . S
O136 In130 2.266 . S
O136 C133 1.252 . S
O137 In130 2.326 . S
O137 C133 1.260 . S
O138 In130 2.266 . S
O138 C135 1.252 . S
O139 In130 2.326 . S
O139 C135 1.260 . S
C140 O131 1.240 . S
C140 O132 1.252 . S
O141 In130 2.294 . S
O141 C134 1.240 . S
O142 In130 2.326 . S
O142 C134 1.252 . S
In143 O144 2.294 . S
In143 O145 2.326 . S
In143 O149 2.266 . S
In143 O150 2.326 . S
In143 O151 2.266 . S
In143 O152 2.326 . S
In143 O154 2.294 . S
In143 O155 2.326 . S
O144 In143 2.294 . S
O144 C153 1.240 . S
O145 In143 2.326 . S
O145 C153 1.252 . S
C146 O149 1.252 . S
C146 O150 1.260 . S
C147 O154 1.240 . S
C147 O155 1.252 . S
C148 O151 1.252 . S
C148 O152 1.260 . S
O149 In143 2.266 . S
O149 C146 1.252 . S
O150 In143 2.326 . S
O150 C146 1.260 . S
O151 In143 2.266 . S
O151 C148 1.252 . S
O152 In143 2.326 . S
O152 C148 1.260 . S
C153 O144 1.240 . S
C153 O145 1.252 . S
O154 In143 2.294 . S
O154 C147 1.240 . S
O155 In143 2.326 . S
O155 C147 1.252 . S
H156 C162 0.930 . S
H157 C165 0.930 . S
H158 C166 0.930 . S
H159 C167 0.930 . S
H160 C170 0.930 . S
H161 C171 0.930 . S
C162 H156 0.930 . S
C162 C163 1.355 . S
C162 C164 1.415 . S
C163 C162 1.355 . S
C163 C165 1.419 . S
C164 C162 1.415 . S
C164 C169 1.425 . S
C164 C171 1.409 . S
C165 H157 0.930 . S
C165 C163 1.419 . S
C165 C166 1.362 . S
C166 H158 0.930 . S
C166 C165 1.362 . S
C166 C169 1.409 . S
C167 H159 0.930 . S
C167 C168 1.355 . S
C167 C169 1.415 . S
C168 C167 1.355 . S
C168 C170 1.419 . S
C169 C164 1.425 . S
C169 C166 1.409 . S
C169 C167 1.415 . S
C170 H160 0.930 . S
C170 C168 1.419 . S
C170 C171 1.362 . S
C171 H161 0.930 . S
C171 C164 1.409 . S
C171 C170 1.362 . S
H172 C178 0.930 . S
H173 C181 0.930 . S
H174 C182 0.930 . S
H175 C183 0.930 . S
H176 C186 0.930 . S
H177 C187 0.930 . S
C178 H172 0.930 . S
C178 C179 1.355 . S
C178 C180 1.415 . S
C179 C178 1.355 . S
C179 C181 1.419 . S
C180 C178 1.415 . S
C180 C185 1.425 . S
C180 C187 1.409 . S
C181 H173 0.930 . S
C181 C179 1.419 . S
C181 C182 1.362 . S
C182 H174 0.930 . S
C182 C181 1.362 . S
C182 C185 1.409 . S
C183 H175 0.930 . S
C183 C184 1.355 . S
C183 C185 1.415 . S
C184 C183 1.355 . S
C184 C186 1.419 . S
C185 C180 1.425 . S
C185 C182 1.409 . S
C185 C183 1.415 . S
C186 H176 0.930 . S
C186 C184 1.419 . S
C186 C187 1.362 . S
C187 H177 0.930 . S
C187 C180 1.409 . S
C187 C186 1.362 . S
H188 C194 0.930 . S
H189 C197 0.930 . S
H190 C198 0.930 . S
H191 C199 0.930 . S
H192 C202 0.930 . S
H193 C203 0.930 . S
C194 H188 0.930 . S
C194 C195 1.355 . S
C194 C196 1.415 . S
C195 C194 1.355 . S
C195 C197 1.419 . S
C196 C194 1.415 . S
C196 C201 1.425 . S
C196 C203 1.409 . S
C197 H189 0.930 . S
C197 C195 1.419 . S
C197 C198 1.362 . S
C198 H190 0.930 . S
C198 C197 1.362 . S
C198 C201 1.409 . S
C199 H191 0.930 . S
C199 C200 1.355 . S
C199 C201 1.415 . S
C200 C199 1.355 . S
C200 C202 1.419 . S
C201 C196 1.425 . S
C201 C198 1.409 . S
C201 C199 1.415 . S
C202 H192 0.930 . S
C202 C200 1.419 . S
C202 C203 1.362 . S
C203 H193 0.930 . S
C203 C196 1.409 . S
C203 C202 1.362 . S
H204 C210 0.930 . S
H205 C213 0.930 . S
H206 C214 0.930 . S
H207 C215 0.930 . S
H208 C218 0.930 . S
H209 C219 0.930 . S
C210 H204 0.930 . S
C210 C211 1.355 . S
C210 C212 1.415 . S
C211 C210 1.355 . S
C211 C213 1.419 . S
C212 C210 1.415 . S
C212 C217 1.425 . S
C212 C219 1.409 . S
C213 H205 0.930 . S
C213 C211 1.419 . S
C213 C214 1.362 . S
C214 H206 0.930 . S
C214 C213 1.362 . S
C214 C217 1.409 . S
C215 H207 0.930 . S
C215 C216 1.355 . S
C215 C217 1.415 . S
C216 C215 1.355 . S
C216 C218 1.419 . S
C217 C212 1.425 . S
C217 C214 1.409 . S
C217 C215 1.415 . S
C218 H208 0.930 . S
C218 C216 1.419 . S
C218 C219 1.362 . S
C219 H209 0.930 . S
C219 C212 1.409 . S
C219 C218 1.362 . S
H220 C226 0.930 . S
H221 C229 0.930 . S
H222 C230 0.930 . S
H223 C231 0.930 . S
H224 C234 0.930 . S
H225 C235 0.930 . S
C226 H220 0.930 . S
C226 C227 1.355 . S
C226 C228 1.415 . S
C227 C226 1.355 . S
C227 C229 1.419 . S
C228 C226 1.415 . S
C228 C233 1.425 1_556 S
C228 C235 1.409 . S
C229 H221 0.930 . S
C229 C227 1.419 . S
C229 C230 1.362 1_556 S
C230 H222 0.930 . S
C230 C229 1.362 1_554 S
C230 C233 1.409 . S
C231 H223 0.930 . S
C231 C232 1.355 . S
C231 C233 1.415 . S
C232 C231 1.355 . S
C232 C234 1.419 1_554 S
C233 C228 1.425 1_554 S
C233 C230 1.409 . S
C233 C231 1.415 . S
C234 H224 0.930 . S
C234 C232 1.419 1_556 S
C234 C235 1.362 . S
C235 H225 0.930 . S
C235 C228 1.409 . S
C235 C234 1.362 . S
H236 C242 0.930 . S
H237 C245 0.930 . S
H238 C246 0.930 . S
H239 C247 0.930 . S
H240 C250 0.930 . S
H241 C251 0.930 . S
C242 H236 0.930 . S
C242 C243 1.355 . S
C242 C244 1.415 . S
C243 C242 1.355 . S
C243 C245 1.419 . S
C244 C242 1.415 . S
C244 C249 1.425 . S
C244 C251 1.409 . S
C245 H237 0.930 . S
C245 C243 1.419 . S
C245 C246 1.362 . S
C246 H238 0.930 . S
C246 C245 1.362 . S
C246 C249 1.409 . S
C247 H239 0.930 . S
C247 C248 1.355 . S
C247 C249 1.415 . S
C248 C247 1.355 . S
C248 C250 1.419 . S
C249 C244 1.425 . S
C249 C246 1.409 . S
C249 C247 1.415 . S
C250 H240 0.930 . S
C250 C248 1.419 . S
C250 C251 1.362 . S
C251 H241 0.930 . S
C251 C244 1.409 . S
C251 C250 1.362 . S
H252 C258 0.930 . S
H253 C261 0.930 . S
H254 C262 0.930 . S
H255 C263 0.930 . S
H256 C266 0.930 . S
H257 C267 0.930 . S
C258 H252 0.930 . S
C258 C259 1.355 . S
C258 C260 1.415 . S
C259 C258 1.355 . S
C259 C261 1.419 . S
C260 C258 1.415 . S
C260 C265 1.425 . S
C260 C267 1.409 . S
C261 H253 0.930 . S
C261 C259 1.419 . S
C261 C262 1.362 . S
C262 H254 0.930 . S
C262 C261 1.362 . S
C262 C265 1.409 . S
C263 H255 0.930 . S
C263 C264 1.355 . S
C263 C265 1.415 . S
C264 C263 1.355 . S
C264 C266 1.419 . S
C265 C260 1.425 . S
C265 C262 1.409 . S
C265 C263 1.415 . S
C266 H256 0.930 . S
C266 C264 1.419 . S
C266 C267 1.362 . S
C267 H257 0.930 . S
C267 C260 1.409 . S
C267 C266 1.362 . S
H268 C274 0.930 . S
H269 C277 0.930 . S
H270 C278 0.930 . S
H271 C279 0.930 . S
H272 C282 0.930 . S
H273 C283 0.930 . S
C274 H268 0.930 . S
C274 C275 1.355 . S
C274 C276 1.415 . S
C275 C274 1.355 . S
C275 C277 1.419 . S
C276 C274 1.415 . S
C276 C281 1.425 . S
C276 C283 1.409 . S
C277 H269 0.930 . S
C277 C275 1.419 . S
C277 C278 1.362 . S
C278 H270 0.930 . S
C278 C277 1.362 . S
C278 C281 1.409 . S
C279 H271 0.930 . S
C279 C280 1.355 . S
C279 C281 1.415 . S
C280 C279 1.355 . S
C280 C282 1.419 . S
C281 C276 1.425 . S
C281 C278 1.409 . S
C281 C279 1.415 . S
C282 H272 0.930 . S
C282 C280 1.419 . S
C282 C283 1.362 . S
C283 H273 0.930 . S
C283 C276 1.409 . S
C283 C282 1.362 . S
H284 C290 0.930 . S
H285 C293 0.930 . S
H286 C294 0.930 . S
H287 C295 0.930 . S
H288 C298 0.930 . S
H289 C299 0.930 . S
C290 H284 0.930 . S
C290 C291 1.355 . S
C290 C292 1.415 . S
C291 C290 1.355 . S
C291 C293 1.419 . S
C292 C290 1.415 . S
C292 C297 1.425 . S
C292 C299 1.409 . S
C293 H285 0.930 . S
C293 C291 1.419 . S
C293 C294 1.362 . S
C294 H286 0.930 . S
C294 C293 1.362 . S
C294 C297 1.409 . S
C295 H287 0.930 . S
C295 C296 1.355 . S
C295 C297 1.415 . S
C296 C295 1.355 . S
C296 C298 1.419 . S
C297 C292 1.425 . S
C297 C294 1.409 . S
C297 C295 1.415 . S
C298 H288 0.930 . S
C298 C296 1.419 . S
C298 C299 1.362 . S
C299 H289 0.930 . S
C299 C292 1.409 . S
C299 C298 1.362 . S
H300 C306 0.930 . S
H301 C309 0.930 . S
H302 C310 0.930 . S
H303 C311 0.930 . S
H304 C314 0.930 . S
H305 C315 0.930 . S
C306 H300 0.930 . S
C306 C307 1.355 . S
C306 C308 1.415 . S
C307 C306 1.355 . S
C307 C309 1.419 . S
C308 C306 1.415 . S
C308 C313 1.425 . S
C308 C315 1.409 . S
C309 H301 0.930 . S
C309 C307 1.419 . S
C309 C310 1.362 . S
C310 H302 0.930 . S
C310 C309 1.362 . S
C310 C313 1.409 . S
C311 H303 0.930 . S
C311 C312 1.355 . S
C311 C313 1.415 . S
C312 C311 1.355 . S
C312 C314 1.419 . S
C313 C308 1.425 . S
C313 C310 1.409 . S
C313 C311 1.415 . S
C314 H304 0.930 . S
C314 C312 1.419 . S
C314 C315 1.362 . S
C315 H305 0.930 . S
C315 C308 1.409 . S
C315 C314 1.362 . S
H316 C322 0.930 . S
H317 C325 0.930 . S
H318 C326 0.930 . S
H319 C327 0.930 . S
H320 C330 0.930 . S
H321 C331 0.930 . S
C322 H316 0.930 . S
C322 C323 1.355 . S
C322 C324 1.415 . S
C323 C322 1.355 . S
C323 C325 1.419 . S
C324 C322 1.415 . S
C324 C329 1.425 . S
C324 C331 1.409 . S
C325 H317 0.930 . S
C325 C323 1.419 . S
C325 C326 1.362 . S
C326 H318 0.930 . S
C326 C325 1.362 . S
C326 C329 1.409 . S
C327 H319 0.930 . S
C327 C328 1.355 . S
C327 C329 1.415 . S
C328 C327 1.355 . S
C328 C330 1.419 . S
C329 C324 1.425 . S
C329 C326 1.409 . S
C329 C327 1.415 . S
C330 H320 0.930 . S
C330 C328 1.419 . S
C330 C331 1.362 . S
C331 H321 0.930 . S
C331 C324 1.409 . S
C331 C330 1.362 . S
H332 C338 0.930 . S
H333 C341 0.930 . S
H334 C342 0.930 . S
H335 C343 0.930 . S
H336 C346 0.930 . S
H337 C347 0.930 . S
C338 H332 0.930 . S
C338 C339 1.355 . S
C338 C340 1.415 . S
C339 C338 1.355 . S
C339 C341 1.419 1_556 S
C340 C338 1.415 . S
C340 C345 1.425 1_556 S
C340 C347 1.409 . S
C341 H333 0.930 . S
C341 C339 1.419 1_554 S
C341 C342 1.362 . S
C342 H334 0.930 . S
C342 C341 1.362 . S
C342 C345 1.409 . S
C343 H335 0.930 . S
C343 C344 1.355 1_554 S
C343 C345 1.415 . S
C344 C343 1.355 1_556 S
C344 C346 1.419 . S
C345 C340 1.425 1_554 S
C345 C342 1.409 . S
C345 C343 1.415 . S
C346 H336 0.930 . S
C346 C344 1.419 . S
C346 C347 1.362 . S
C347 H337 0.930 . S
C347 C340 1.409 . S
C347 C346 1.362 . S
H348 C354 0.930 . S
H349 C357 0.930 . S
H350 C358 0.930 . S
H351 C359 0.930 . S
H352 C362 0.930 . S
H353 C363 0.930 . S
C354 H348 0.930 . S
C354 C355 1.355 . S
C354 C356 1.415 . S
C355 C354 1.355 . S
C355 C357 1.419 . S
C356 C354 1.415 . S
C356 C361 1.425 . S
C356 C363 1.409 . S
C357 H349 0.930 . S
C357 C355 1.419 . S
C357 C358 1.362 . S
C358 H350 0.930 . S
C358 C357 1.362 . S
C358 C361 1.409 . S
C359 H351 0.930 . S
C359 C360 1.355 . S
C359 C361 1.415 . S
C360 C359 1.355 . S
C360 C362 1.419 . S
C361 C356 1.425 . S
C361 C358 1.409 . S
C361 C359 1.415 . S
C362 H352 0.930 . S
C362 C360 1.419 . S
C362 C363 1.362 . S
C363 H353 0.930 . S
C363 C356 1.409 . S
C363 C362 1.362 . S
H364 C370 0.930 . S
H365 C373 0.930 . S
H366 C374 0.930 . S
H367 C375 0.930 . S
H368 C378 0.930 . S
H369 C379 0.930 . S
C370 H364 0.930 . S
C370 C371 1.355 1_556 S
C370 C372 1.415 . S
C371 C370 1.355 1_554 S
C371 C373 1.419 . S
C372 C370 1.415 . S
C372 C377 1.425 . S
C372 C379 1.409 . S
C373 H365 0.930 . S
C373 C371 1.419 . S
C373 C374 1.362 . S
C374 H366 0.930 . S
C374 C373 1.362 . S
C374 C377 1.409 1_554 S
C375 H367 0.930 . S
C375 C376 1.355 . S
C375 C377 1.415 . S
C376 C375 1.355 . S
C376 C378 1.419 . S
C377 C372 1.425 . S
C377 C374 1.409 1_556 S
C377 C375 1.415 . S
C378 H368 0.930 . S
C378 C376 1.419 . S
C378 C379 1.362 . S
C379 H369 0.930 . S
C379 C372 1.409 . S
C379 C378 1.362 . S
H380 C386 0.930 . S
H381 C389 0.930 . S
H382 C390 0.930 . S
H383 C391 0.930 . S
H384 C394 0.930 1_556 S
H385 C395 0.930 . S
C386 H380 0.930 . S
C386 C387 1.355 . S
C386 C388 1.415 . S
C387 C386 1.355 . S
C387 C389 1.419 . S
C388 C386 1.415 . S
C388 C393 1.425 . S
C388 C395 1.409 . S
C389 H381 0.930 . S
C389 C387 1.419 . S
C389 C390 1.362 . S
C390 H382 0.930 . S
C390 C389 1.362 . S
C390 C393 1.409 . S
C391 H383 0.930 . S
C391 C392 1.355 . S
C391 C393 1.415 . S
C392 C391 1.355 . S
C392 C394 1.419 . S
C393 C388 1.425 . S
C393 C390 1.409 . S
C393 C391 1.415 . S
C394 H384 0.930 1_554 S
C394 C392 1.419 . S
C394 C395 1.362 . S
C395 H385 0.930 . S
C395 C388 1.409 . S
C395 C394 1.362 . S
H396 C402 0.930 . S
H397 C405 0.930 . S
H398 C406 0.930 . S
H399 C407 0.930 . S
H400 C410 0.930 . S
H401 C411 0.930 . S
C402 H396 0.930 . S
C402 C403 1.355 . S
C402 C404 1.415 . S
C403 C402 1.355 . S
C403 C405 1.419 . S
C404 C402 1.415 . S
C404 C409 1.425 . S
C404 C411 1.409 . S
C405 H397 0.930 . S
C405 C403 1.419 . S
C405 C406 1.362 . S
C406 H398 0.930 . S
C406 C405 1.362 . S
C406 C409 1.409 . S
C407 H399 0.930 . S
C407 C408 1.355 . S
C407 C409 1.415 . S
C408 C407 1.355 . S
C408 C410 1.419 . S
C409 C404 1.425 . S
C409 C406 1.409 . S
C409 C407 1.415 . S
C410 H400 0.930 . S
C410 C408 1.419 . S
C410 C411 1.362 . S
C411 H401 0.930 . S
C411 C404 1.409 . S
C411 C410 1.362 . S
H412 C418 0.930 . S
H413 C421 0.930 . S
H414 C422 0.930 . S
H415 C423 0.930 . S
H416 C426 0.930 . S
H417 C427 0.930 . S
C418 H412 0.930 . S
C418 C419 1.355 . S
C418 C420 1.415 . S
C419 C418 1.355 . S
C419 C421 1.419 . S
C420 C418 1.415 . S
C420 C425 1.425 . S
C420 C427 1.409 . S
C421 H413 0.930 . S
C421 C419 1.419 . S
C421 C422 1.362 . S
C422 H414 0.930 . S
C422 C421 1.362 . S
C422 C425 1.409 . S
C423 H415 0.930 . S
C423 C424 1.355 . S
C423 C425 1.415 . S
C424 C423 1.355 . S
C424 C426 1.419 . S
C425 C420 1.425 . S
C425 C422 1.409 . S
C425 C423 1.415 . S
C426 H416 0.930 . S
C426 C424 1.419 . S
C426 C427 1.362 . S
C427 H417 0.930 . S
C427 C420 1.409 . S
C427 C426 1.362 . S
H428 C434 0.930 . S
H429 C437 0.930 . S
H430 C438 0.930 . S
H431 C439 0.930 . S
H432 C442 0.930 . S
H433 C443 0.930 . S
C434 H428 0.930 . S
C434 C435 1.355 . S
C434 C436 1.415 . S
C435 C434 1.355 . S
C435 C437 1.419 . S
C436 C434 1.415 . S
C436 C441 1.425 . S
C436 C443 1.409 . S
C437 H429 0.930 . S
C437 C435 1.419 . S
C437 C438 1.362 . S
C438 H430 0.930 . S
C438 C437 1.362 . S
C438 C441 1.409 . S
C439 H431 0.930 . S
C439 C440 1.355 . S
C439 C441 1.415 . S
C440 C439 1.355 . S
C440 C442 1.419 . S
C441 C436 1.425 . S
C441 C438 1.409 . S
C441 C439 1.415 . S
C442 H432 0.930 . S
C442 C440 1.419 . S
C442 C443 1.362 . S
C443 H433 0.930 . S
C443 C436 1.409 . S
C443 C442 1.362 . S
H444 C450 0.930 1_554 S
H445 C453 0.930 . S
H446 C454 0.930 . S
H447 C455 0.930 . S
H448 C458 0.930 . S
H449 C459 0.930 . S
C450 H444 0.930 1_556 S
C450 C451 1.355 . S
C450 C452 1.415 1_455 S
C451 C450 1.355 . S
C451 C453 1.419 . S
C452 C450 1.415 1_655 S
C452 C457 1.425 1_655 S
C452 C459 1.409 . S
C453 H445 0.930 . S
C453 C451 1.419 . S
C453 C454 1.362 . S
C454 H446 0.930 . S
C454 C453 1.362 . S
C454 C457 1.409 . S
C455 H447 0.930 . S
C455 C456 1.355 . S
C455 C457 1.415 1_655 S
C456 C455 1.355 . S
C456 C458 1.419 . S
C457 C452 1.425 1_455 S
C457 C454 1.409 . S
C457 C455 1.415 1_455 S
C458 H448 0.930 . S
C458 C456 1.419 . S
C458 C459 1.362 . S
C459 H449 0.930 . S
C459 C452 1.409 . S
C459 C458 1.362 . S
H460 C466 0.930 . S
H461 C469 0.930 . S
H462 C470 0.930 . S
H463 C471 0.930 . S
H464 C474 0.930 . S
H465 C475 0.930 . S
C466 H460 0.930 . S
C466 C467 1.355 . S
C466 C468 1.415 1_556 S
C467 C466 1.355 . S
C467 C469 1.419 1_556 S
C468 C466 1.415 1_554 S
C468 C473 1.425 1_565 S
C468 C475 1.409 1_565 S
C469 H461 0.930 . S
C469 C467 1.419 1_554 S
C469 C470 1.362 . S
C470 H462 0.930 . S
C470 C469 1.362 . S
C470 C473 1.409 1_565 S
C471 H463 0.930 . S
C471 C472 1.355 . S
C471 C473 1.415 . S
C472 C471 1.355 . S
C472 C474 1.419 . S
C473 C468 1.425 1_545 S
C473 C470 1.409 1_545 S
C473 C471 1.415 . S
C474 H464 0.930 . S
C474 C472 1.419 . S
C474 C475 1.362 . S
C475 H465 0.930 . S
C475 C468 1.409 1_545 S
C475 C474 1.362 . S
H476 C482 0.930 . S
H477 C485 0.930 . S
H478 C486 0.930 . S
H479 C487 0.930 . S
H480 C490 0.930 . S
H481 C491 0.930 . S
C482 H476 0.930 . S
C482 C483 1.355 . S
C482 C484 1.415 . S
C483 C482 1.355 . S
C483 C485 1.419 . S
C484 C482 1.415 . S
C484 C489 1.425 . S
C484 C491 1.409 . S
C485 H477 0.930 . S
C485 C483 1.419 . S
C485 C486 1.362 . S
C486 H478 0.930 . S
C486 C485 1.362 . S
C486 C489 1.409 . S
C487 H479 0.930 . S
C487 C488 1.355 . S
C487 C489 1.415 . S
C488 C487 1.355 . S
C488 C490 1.419 . S
C489 C484 1.425 . S
C489 C486 1.409 . S
C489 C487 1.415 . S
C490 H480 0.930 . S
C490 C488 1.419 . S
C490 C491 1.362 . S
C491 H481 0.930 . S
C491 C484 1.409 . S
C491 C490 1.362 . S
H492 C498 0.930 . S
H493 C501 0.930 . S
H494 C502 0.930 . S
H495 C503 0.930 . S
H496 C506 0.930 . S
H497 C507 0.930 . S
C498 H492 0.930 . S
C498 C499 1.355 . S
C498 C500 1.419 . S
C499 C498 1.355 . S
C499 C501 1.419 . S
C500 C498 1.419 . S
C500 C505 1.421 1_455 S
C500 C507 1.407 1_455 S
C501 H493 0.930 . S
C501 C499 1.419 . S
C501 C502 1.362 . S
C502 H494 0.930 . S
C502 C501 1.362 . S
C502 C505 1.407 1_455 S
C503 H495 0.930 . S
C503 C504 1.355 . S
C503 C505 1.418 . S
C504 C503 1.355 . S
C504 C506 1.419 . S
C505 C500 1.421 1_655 S
C505 C502 1.407 1_655 S
C505 C503 1.418 . S
C506 H496 0.930 . S
C506 C504 1.419 . S
C506 C507 1.362 . S
C507 H497 0.930 . S
C507 C500 1.407 1_655 S
C507 C506 1.362 . S
H508 C514 0.930 . S
H509 C517 0.930 . S
H510 C518 0.930 . S
H511 C519 0.930 . S
H512 C522 0.930 . S
H513 C523 0.930 . S
C514 H508 0.930 . S
C514 C515 1.355 . S
C514 C516 1.415 . S
C515 C514 1.355 . S
C515 C517 1.419 . S
C516 C514 1.415 . S
C516 C521 1.425 1_545 S
C516 C523 1.409 1_545 S
C517 H509 0.930 . S
C517 C515 1.419 . S
C517 C518 1.362 . S
C518 H510 0.930 . S
C518 C517 1.362 . S
C518 C521 1.409 1_545 S
C519 H511 0.930 . S
C519 C520 1.355 . S
C519 C521 1.415 . S
C520 C519 1.355 . S
C520 C522 1.419 . S
C521 C516 1.425 1_565 S
C521 C518 1.409 1_565 S
C521 C519 1.415 . S
C522 H512 0.930 . S
C522 C520 1.419 . S
C522 C523 1.362 . S
C523 H513 0.930 . S
C523 C516 1.409 1_565 S
C523 C522 1.362 . S
H524 C530 0.930 . S
H525 C533 0.930 . S
H526 C534 0.930 . S
H527 C535 0.930 . S
H528 C538 0.930 . S
H529 C539 0.930 . S
C530 H524 0.930 . S
C530 C531 1.355 . S
C530 C532 1.415 . S
C531 C530 1.355 . S
C531 C533 1.419 . S
C532 C530 1.415 . S
C532 C537 1.425 . S
C532 C539 1.409 . S
C533 H525 0.930 . S
C533 C531 1.419 . S
C533 C534 1.362 . S
C534 H526 0.930 . S
C534 C533 1.362 . S
C534 C537 1.409 . S
C535 H527 0.930 . S
C535 C536 1.355 . S
C535 C537 1.415 . S
C536 C535 1.355 . S
C536 C538 1.419 . S
C537 C532 1.425 . S
C537 C534 1.409 . S
C537 C535 1.415 . S
C538 H528 0.930 . S
C538 C536 1.419 . S
C538 C539 1.362 . S
C539 H529 0.930 . S
C539 C532 1.409 . S
C539 C538 1.362 . S
C163 C3 1.506 . S
C168 C135 1.518 . S
C179 C148 1.484 . S
C184 C16 1.486 . S
C195 C29 1.484 . S
C200 C83 1.503 . S
C211 C44 1.515 . S
C216 C96 1.495 . S
C227 C57 1.516 . S
C232 C107 1.515 . S
C243 C122 1.500 . S
C248 C68 1.509 1_554 S
C259 C4 1.726 . S
C264 C108 1.715 . S
C275 C17 1.715 . S
C280 C127 1.707 . S
C291 C140 1.718 . S
C296 C30 1.707 . S
C307 C49 1.722 . S
C312 C153 1.726 . S
C323 C62 1.714 . S
C328 C88 1.706 . S
C339 C69 1.726 . S
C344 C101 1.722 1_556 S
C355 C133 1.481 . S
C360 C5 1.470 . S
C371 C18 1.476 . S
C376 C146 1.473 . S
C387 C31 1.481 . S
C392 C81 1.470 1_554 S
C403 C42 1.482 . S
C408 C94 1.470 . S
C419 C109 1.474 . S
C424 C55 1.481 . S
C435 C70 1.470 . S
C440 C120 1.480 . S
C451 C10 1.411 1_556 S
C456 C147 1.404 . S
C467 C82 1.405 . S
C472 C23 1.414 . S
C483 C95 1.423 . S
C488 C36 1.411 . S
C499 C114 1.423 . S
C504 C43 1.412 . S
C515 C121 1.411 . S
C520 C56 1.423 . S
C531 C134 1.407 . S
C536 C75 1.417 . S
