# Generated by pormake.
# Topology zfp, (5)-cn, num edge types: 1
# Building blocks:
#     Node 0, Type 0, BuildingBlock: XOMCOT_clean_sbu_0, # of connection points: 5
#     Node 1, Type 0, BuildingBlock: XOMCOT_clean_sbu_0, # of connection points: 5
#     Node 2, Type 0, BuildingBlock: XOMCOT_clean_sbu_0, # of connection points: 5
#     Node 3, Type 0, BuildingBlock: XOMCOT_clean_sbu_0, # of connection points: 5
#     Node 4, Type 0, BuildingBlock: XOMCOT_clean_sbu_0, # of connection points: 5
#     Node 5, Type 0, BuildingBlock: XOMCOT_clean_sbu_0, # of connection points: 5
#     Node 6, Type 0, BuildingBlock: XOMCOT_clean_sbu_0, # of connection points: 5
#     Node 7, Type 0, BuildingBlock: XOMCOT_clean_sbu_0, # of connection points: 5
#     Node 8, Type 0, BuildingBlock: XOMCOT_clean_sbu_0, # of connection points: 5
#     Node 9, Type 0, BuildingBlock: XOMCOT_clean_sbu_0, # of connection points: 5
#     Node 10, Type 0, BuildingBlock: XOMCOT_clean_sbu_0, # of connection points: 5
#     Node 11, Type 0, BuildingBlock: XOMCOT_clean_sbu_0, # of connection points: 5
#     Node 12, Type 0, BuildingBlock: XOMCOT_clean_sbu_0, # of connection points: 5
#     Node 13, Type 0, BuildingBlock: XOMCOT_clean_sbu_0, # of connection points: 5
#     Node 14, Type 0, BuildingBlock: XOMCOT_clean_sbu_0, # of connection points: 5
#     Node 15, Type 0, BuildingBlock: XOMCOT_clean_sbu_0, # of connection points: 5
#     Edge 16, Type (0, 0), BuildingBlock: AJUNOK_clean_linker_0, # of connection points: 2
#     Edge 17, Type (0, 0), BuildingBlock: AJUNOK_clean_linker_0, # of connection points: 2
#     Edge 18, Type (0, 0), BuildingBlock: AJUNOK_clean_linker_0, # of connection points: 2
#     Edge 19, Type (0, 0), BuildingBlock: AJUNOK_clean_linker_0, # of connection points: 2
#     Edge 20, Type (0, 0), BuildingBlock: AJUNOK_clean_linker_0, # of connection points: 2
#     Edge 21, Type (0, 0), BuildingBlock: AJUNOK_clean_linker_0, # of connection points: 2
#     Edge 22, Type (0, 0), BuildingBlock: AJUNOK_clean_linker_0, # of connection points: 2
#     Edge 23, Type (0, 0), BuildingBlock: AJUNOK_clean_linker_0, # of connection points: 2
#     Edge 24, Type (0, 0), BuildingBlock: AJUNOK_clean_linker_0, # of connection points: 2
#     Edge 25, Type (0, 0), BuildingBlock: AJUNOK_clean_linker_0, # of connection points: 2
#     Edge 26, Type (0, 0), BuildingBlock: AJUNOK_clean_linker_0, # of connection points: 2
#     Edge 27, Type (0, 0), BuildingBlock: AJUNOK_clean_linker_0, # of connection points: 2
#     Edge 28, Type (0, 0), BuildingBlock: AJUNOK_clean_linker_0, # of connection points: 2
#     Edge 29, Type (0, 0), BuildingBlock: AJUNOK_clean_linker_0, # of connection points: 2
#     Edge 30, Type (0, 0), BuildingBlock: AJUNOK_clean_linker_0, # of connection points: 2
#     Edge 31, Type (0, 0), BuildingBlock: AJUNOK_clean_linker_0, # of connection points: 2
#     Edge 32, Type (0, 0), BuildingBlock: AJUNOK_clean_linker_0, # of connection points: 2
#     Edge 33, Type (0, 0), BuildingBlock: AJUNOK_clean_linker_0, # of connection points: 2
#     Edge 34, Type (0, 0), BuildingBlock: AJUNOK_clean_linker_0, # of connection points: 2
#     Edge 35, Type (0, 0), BuildingBlock: AJUNOK_clean_linker_0, # of connection points: 2
#     Edge 36, Type (0, 0), BuildingBlock: AJUNOK_clean_linker_0, # of connection points: 2
#     Edge 37, Type (0, 0), BuildingBlock: AJUNOK_clean_linker_0, # of connection points: 2
#     Edge 38, Type (0, 0), BuildingBlock: AJUNOK_clean_linker_0, # of connection points: 2
#     Edge 39, Type (0, 0), BuildingBlock: AJUNOK_clean_linker_0, # of connection points: 2
#     Edge 40, Type (0, 0), BuildingBlock: AJUNOK_clean_linker_0, # of connection points: 2
#     Edge 41, Type (0, 0), BuildingBlock: AJUNOK_clean_linker_0, # of connection points: 2
#     Edge 42, Type (0, 0), BuildingBlock: AJUNOK_clean_linker_0, # of connection points: 2
#     Edge 43, Type (0, 0), BuildingBlock: AJUNOK_clean_linker_0, # of connection points: 2
#     Edge 44, Type (0, 0), BuildingBlock: AJUNOK_clean_linker_0, # of connection points: 2
#     Edge 45, Type (0, 0), BuildingBlock: AJUNOK_clean_linker_0, # of connection points: 2
#     Edge 46, Type (0, 0), BuildingBlock: AJUNOK_clean_linker_0, # of connection points: 2
#     Edge 47, Type (0, 0), BuildingBlock: AJUNOK_clean_linker_0, # of connection points: 2
#     Edge 48, Type (0, 0), BuildingBlock: AJUNOK_clean_linker_0, # of connection points: 2
#     Edge 49, Type (0, 0), BuildingBlock: AJUNOK_clean_linker_0, # of connection points: 2
#     Edge 50, Type (0, 0), BuildingBlock: AJUNOK_clean_linker_0, # of connection points: 2
#     Edge 51, Type (0, 0), BuildingBlock: AJUNOK_clean_linker_0, # of connection points: 2
#     Edge 52, Type (0, 0), BuildingBlock: AJUNOK_clean_linker_0, # of connection points: 2
#     Edge 53, Type (0, 0), BuildingBlock: AJUNOK_clean_linker_0, # of connection points: 2
#     Edge 54, Type (0, 0), BuildingBlock: AJUNOK_clean_linker_0, # of connection points: 2
#     Edge 55, Type (0, 0), BuildingBlock: AJUNOK_clean_linker_0, # of connection points: 2
# Relax obj value: 0.363
# Max RMSD: 0.245
# Mean RMSD: 0.245
data_MOF--net-zfp--node1-XOMCOT_clean_sbu_0--edge1-AJUNOK_clean_linker_0
_symmetry_space_group_name_H-M    P1
_symmetry_Int_Tables_number       1
_symmetry_cell_setting            triclinic
loop_
_symmetry_equiv_pos_as_xyz
'x, y, z'
_cell_length_a     21.46252
_cell_length_b     21.527325
_cell_length_c     53.72615
_cell_angle_alpha  90.446355
_cell_angle_beta   90.379613
_cell_angle_gamma 90.009283
loop_
_atom_site_label
_atom_site_type_symbol
_atom_site_fract_x
_atom_site_fract_y
_atom_site_fract_z
_atom_type_partial_charge
Co0 Co 0.29832 0.32993 0.14948 0.0
C1 C 0.31554 0.29761 0.20273 0.0
C2 C 0.29749 0.21643 0.18034 0.0
C3 C 0.30413 0.19866 0.20491 0.0
N4 N 0.30408 0.27855 0.17906 0.0
N5 N 0.31464 0.2499 0.21893 0.0
H6 H 0.32296 0.34567 0.20805 0.0
H7 H 0.28762 0.18635 0.16458 0.0
C8 C 0.1677 0.31793 0.13074 0.0
O9 O 0.17469 0.37704 0.12557 0.0
N10 N 0.29724 0.37935 0.11884 0.0
C11 C 0.33008 0.43189 0.1149 0.0
C12 C 0.33358 0.44281 0.08981 0.0
C13 C 0.28398 0.3577 0.09549 0.0
N14 N 0.30488 0.39615 0.07747 0.0
C15 C 0.25199 0.45131 0.1673 0.0
C16 C 0.15555 0.40052 0.19426 0.0
C17 C 0.15575 0.46459 0.19036 0.0
C18 C 0.20622 0.4903 0.17741 0.0
C19 C 0.19984 0.36341 0.18276 0.0
N20 N 0.24606 0.38828 0.16843 0.0
H21 H 0.29026 0.47232 0.15787 0.0
H22 H 0.19449 0.31373 0.18437 0.0
H23 H 0.35657 0.45705 0.12883 0.0
H24 H 0.26439 0.31222 0.09175 0.0
O25 O 0.38101 0.3621 0.15743 0.0
O26 O 0.36384 0.27985 0.1337 0.0
O27 O 0.21553 0.28704 0.1388 0.0
C28 C 0.40434 0.31796 0.14379 0.0
H29 H 0.29954 0.15199 0.21204 0.0
H30 H 0.3594 0.48006 0.08122 0.0
H31 H 0.11885 0.37842 0.20474 0.0
H32 H 0.20889 0.53955 0.17373 0.0
Co33 Co 0.73209 0.30338 0.64779 0.0
C34 C 0.76317 0.32082 0.70329 0.0
C35 C 0.84214 0.30404 0.68011 0.0
C36 C 0.86282 0.31129 0.70429 0.0
N37 N 0.77938 0.30884 0.67929 0.0
N38 N 0.81307 0.32155 0.71882 0.0
H39 H 0.71703 0.33092 0.7097 0.0
H40 H 0.8711 0.29528 0.66406 0.0
C41 C 0.78776 0.17788 0.65509 0.0
O42 O 0.77223 0.18755 0.6784 0.0
N43 N 0.68869 0.30092 0.61587 0.0
C44 C 0.62882 0.31715 0.61216 0.0
C45 C 0.61514 0.31207 0.58718 0.0
C46 C 0.71107 0.28697 0.59293 0.0
N47 N 0.66654 0.29265 0.57502 0.0
C48 C 0.6342 0.26479 0.68294 0.0
C49 C 0.6192 0.15068 0.65987 0.0
C50 C 0.5967 0.15883 0.68395 0.0
C51 C 0.60041 0.21795 0.69503 0.0
C52 C 0.65187 0.19828 0.64878 0.0
N53 N 0.66598 0.25148 0.66161 0.0
H54 H 0.63452 0.31112 0.69058 0.0
H55 H 0.66988 0.19045 0.63037 0.0
H56 H 0.59747 0.33242 0.62665 0.0
H57 H 0.75868 0.27303 0.58943 0.0
O58 O 0.6978 0.38587 0.65406 0.0
O59 O 0.78622 0.36817 0.63461 0.0
O60 O 0.77883 0.22164 0.63904 0.0
C61 C 0.74579 0.4088 0.64272 0.0
H62 H 0.91058 0.30812 0.71076 0.0
H63 H 0.57098 0.32358 0.57853 0.0
H64 H 0.61313 0.10705 0.64992 0.0
H65 H 0.57867 0.22733 0.7128 0.0
Co66 Co 0.79529 0.75684 0.15191 0.0
C67 C 0.76804 0.78787 0.20578 0.0
C68 C 0.82626 0.85531 0.18846 0.0
C69 C 0.81951 0.87154 0.21308 0.0
N70 N 0.79599 0.80145 0.18389 0.0
N71 N 0.78295 0.8291 0.22412 0.0
H72 H 0.73697 0.74898 0.20835 0.0
H73 H 0.85232 0.88141 0.17497 0.0
C74 C 0.91689 0.80296 0.12601 0.0
O75 O 0.90058 0.78207 0.10395 0.0
N76 N 0.79168 0.71416 0.11981 0.0
C77 C 0.78639 0.65229 0.11624 0.0
C78 C 0.77643 0.64047 0.09132 0.0
C79 C 0.78153 0.73916 0.09708 0.0
N80 N 0.77389 0.69506 0.07922 0.0
C81 C 0.83737 0.66333 0.18773 0.0
C82 C 0.94581 0.63731 0.16227 0.0
C83 C 0.93838 0.61405 0.18614 0.0
C84 C 0.8825 0.62487 0.19871 0.0
C85 C 0.89974 0.67418 0.15204 0.0
N86 N 0.84829 0.69096 0.16534 0.0
H87 H 0.79398 0.67017 0.19718 0.0
H88 H 0.90573 0.68864 0.13316 0.0
H89 H 0.78825 0.61802 0.13083 0.0
H90 H 0.77878 0.78862 0.09378 0.0
O91 O 0.71313 0.72309 0.15874 0.0
O92 O 0.72978 0.81259 0.1402 0.0
O93 O 0.87721 0.80287 0.14386 0.0
C94 C 0.68956 0.77162 0.148 0.0
H95 H 0.84241 0.91026 0.22225 0.0
H96 H 0.77154 0.59506 0.08273 0.0
H97 H 0.98697 0.62657 0.15146 0.0
H98 H 0.87409 0.60429 0.21671 0.0
Co99 Co 0.33911 0.78747 0.65219 0.0
C100 C 0.30577 0.77018 0.70664 0.0
C101 C 0.23473 0.81645 0.68572 0.0
C102 C 0.2164 0.81422 0.71021 0.0
N103 N 0.29246 0.79194 0.68353 0.0
N104 N 0.26111 0.78512 0.72327 0.0
H105 H 0.34608 0.74282 0.71142 0.0
H106 H 0.20809 0.83627 0.67059 0.0
C107 C 0.29872 0.92089 0.65499 0.0
O108 O 0.31767 0.91817 0.67825 0.0
N109 N 0.38172 0.78009 0.62055 0.0
C110 C 0.44082 0.76093 0.61729 0.0
C111 C 0.45143 0.7539 0.59221 0.0
C112 C 0.35675 0.78348 0.59741 0.0
N113 N 0.3986 0.76783 0.57963 0.0
C114 C 0.43482 0.82839 0.68863 0.0
C115 C 0.46784 0.93016 0.66076 0.0
C116 C 0.48366 0.92911 0.68595 0.0
C117 C 0.47059 0.87588 0.69973 0.0
C118 C 0.43142 0.88292 0.65077 0.0
N119 N 0.40979 0.8359 0.66537 0.0
H120 H 0.42672 0.78688 0.69894 0.0
H121 H 0.4153 0.88799 0.63181 0.0
H122 H 0.47344 0.75123 0.63219 0.0
H123 H 0.30824 0.79403 0.59385 0.0
O124 O 0.36631 0.70327 0.65998 0.0
O125 O 0.27939 0.7256 0.63994 0.0
O126 O 0.29991 0.87129 0.64116 0.0
C127 C 0.31727 0.68281 0.64817 0.0
H128 H 0.17415 0.83359 0.71796 0.0
H129 H 0.49472 0.73887 0.58388 0.0
H130 H 0.47993 0.96952 0.64928 0.0
H131 H 0.48578 0.87205 0.71892 0.0
Co132 Co 0.80537 0.25089 0.89489 0.0
C133 C 0.82075 0.2856 0.84172 0.0
C134 C 0.80149 0.36529 0.8647 0.0
C135 C 0.80611 0.38425 0.84025 0.0
N136 N 0.81019 0.30338 0.86557 0.0
N137 N 0.81766 0.33397 0.82586 0.0
H138 H 0.82814 0.23787 0.83596 0.0
H139 H 0.7911 0.39435 0.88065 0.0
C140 C 0.67603 0.25984 0.91375 0.0
O141 O 0.68373 0.20031 0.91793 0.0
N142 N 0.80543 0.20099 0.92536 0.0
C143 C 0.83648 0.14733 0.92948 0.0
C144 C 0.83635 0.13452 0.95455 0.0
C145 C 0.79119 0.22213 0.94857 0.0
N146 N 0.8082 0.18169 0.96653 0.0
C147 C 0.70687 0.21803 0.86125 0.0
C148 C 0.70684 0.09196 0.86922 0.0
C149 C 0.65554 0.11935 0.85711 0.0
C150 C 0.65887 0.18233 0.85142 0.0
C151 C 0.75646 0.12933 0.87754 0.0
N152 N 0.75338 0.19244 0.87549 0.0
H153 H 0.70279 0.26769 0.8592 0.0
H154 H 0.79477 0.10738 0.8868 0.0
H155 H 0.86282 0.12175 0.91577 0.0
H156 H 0.77063 0.26711 0.95232 0.0
O157 O 0.88891 0.22061 0.88755 0.0
O158 O 0.86823 0.30215 0.91128 0.0
O159 O 0.72246 0.29192 0.9055 0.0
C160 C 0.91008 0.26503 0.90182 0.0
H161 H 0.79889 0.43091 0.83343 0.0
H162 H 0.85876 0.09547 0.96349 0.0
H163 H 0.70697 0.04318 0.87391 0.0
H164 H 0.62142 0.20532 0.84149 0.0
Co165 Co 0.83031 0.79162 0.40206 0.0
C166 C 0.80176 0.81293 0.34729 0.0
C167 C 0.72672 0.77007 0.36676 0.0
C168 C 0.70972 0.77532 0.34213 0.0
N169 N 0.78597 0.79026 0.36992 0.0
N170 N 0.75689 0.80232 0.32999 0.0
H171 H 0.84398 0.83807 0.34339 0.0
H172 H 0.69781 0.75176 0.38139 0.0
C173 C 0.78334 0.66183 0.39692 0.0
O174 O 0.80489 0.66633 0.37418 0.0
N175 N 0.87105 0.79652 0.43443 0.0
C176 C 0.92961 0.81704 0.43836 0.0
C177 C 0.94027 0.82129 0.46356 0.0
C178 C 0.84659 0.78872 0.45738 0.0
N179 N 0.88827 0.80356 0.47555 0.0
C180 C 0.92885 0.74844 0.36794 0.0
C181 C 0.95658 0.64589 0.39665 0.0
C182 C 0.97974 0.64909 0.37258 0.0
C183 C 0.96832 0.70218 0.3584 0.0
C184 C 0.91771 0.6925 0.40526 0.0
N185 N 0.89967 0.74035 0.39022 0.0
H186 H 0.92198 0.78987 0.35738 0.0
H187 H 0.89844 0.68756 0.42361 0.0
H188 H 0.96174 0.82972 0.42383 0.0
H189 H 0.79874 0.7754 0.46068 0.0
O190 O 0.86227 0.87399 0.39468 0.0
O191 O 0.77263 0.85597 0.41319 0.0
O192 O 0.78623 0.7095 0.41177 0.0
C193 C 0.81272 0.89669 0.40509 0.0
H194 H 0.66612 0.76054 0.33374 0.0
H195 H 0.98273 0.83748 0.47247 0.0
H196 H 0.96659 0.60637 0.4084 0.0
H197 H 0.9886 0.70723 0.34012 0.0
Co198 Co 0.28676 0.84413 0.90283 0.0
C199 C 0.26682 0.81808 0.84752 0.0
C200 C 0.29731 0.73886 0.86799 0.0
C201 C 0.29315 0.72251 0.8432 0.0
N202 N 0.28351 0.79971 0.87073 0.0
N203 N 0.27486 0.77267 0.83021 0.0
H204 H 0.24622 0.86218 0.84322 0.0
H205 H 0.3115 0.7087 0.88301 0.0
C206 C 0.41559 0.79467 0.89529 0.0
O207 O 0.40664 0.81363 0.87237 0.0
N208 N 0.28694 0.88542 0.93514 0.0
C209 C 0.26859 0.9444 0.93916 0.0
C210 C 0.27125 0.95682 0.96425 0.0
C211 C 0.29989 0.86229 0.95798 0.0
N212 N 0.29079 0.90537 0.97622 0.0
C213 C 0.32333 0.94518 0.86904 0.0
C214 C 0.43517 0.96498 0.8936 0.0
C215 C 0.42651 0.98987 0.87002 0.0
C216 C 0.36862 0.98316 0.85812 0.0
C217 C 0.38904 0.92816 0.90361 0.0
N218 N 0.33707 0.91264 0.89011 0.0
H219 H 0.27774 0.94279 0.86078 0.0
H220 H 0.39713 0.90856 0.92172 0.0
H221 H 0.25349 0.97599 0.92476 0.0
H222 H 0.31571 0.81526 0.96109 0.0
O223 O 0.20366 0.87693 0.89678 0.0
O224 O 0.22221 0.7876 0.91507 0.0
O225 O 0.37042 0.79936 0.91116 0.0
C226 C 0.181 0.82828 0.90761 0.0
H227 H 0.30454 0.67757 0.83528 0.0
H228 H 0.25815 1.00019 0.97311 0.0
H229 H 0.47807 0.97259 0.90396 0.0
H230 H 0.35895 1.00613 0.84065 0.0
Co231 Co 0.24879 0.27125 0.39579 0.0
C232 C 0.28024 0.25696 0.34229 0.0
C233 C 0.3621 0.27388 0.36453 0.0
C234 C 0.37946 0.26833 0.33985 0.0
N235 N 0.2998 0.2674 0.36597 0.0
N236 N 0.32778 0.25855 0.32595 0.0
H237 H 0.23194 0.2499 0.33706 0.0
H238 H 0.3926 0.28284 0.38026 0.0
C239 C 0.25746 0.40065 0.41558 0.0
O240 O 0.19847 0.39133 0.42065 0.0
N241 N 0.19997 0.26985 0.42657 0.0
C242 C 0.14781 0.23626 0.43052 0.0
C243 C 0.13771 0.23138 0.45564 0.0
C244 C 0.22244 0.28188 0.44988 0.0
N245 N 0.18512 0.25916 0.46792 0.0
C246 C 0.12574 0.31956 0.38008 0.0
C247 C 0.17634 0.41821 0.3545 0.0
C248 C 0.11338 0.4205 0.36073 0.0
C249 C 0.08724 0.36873 0.37258 0.0
C250 C 0.21323 0.37034 0.36342 0.0
N251 N 0.18887 0.32334 0.37744 0.0
H252 H 0.10461 0.28097 0.38917 0.0
H253 H 0.26287 0.37479 0.36086 0.0
H254 H 0.12201 0.21082 0.41646 0.0
H255 H 0.26756 0.30261 0.45351 0.0
O256 O 0.21837 0.18818 0.38763 0.0
O257 O 0.30089 0.207 0.41114 0.0
O258 O 0.28988 0.35461 0.40684 0.0
C259 C 0.2633 0.16587 0.40121 0.0
H260 H 0.42613 0.27314 0.33258 0.0
H261 H 0.09971 0.20647 0.46416 0.0
H262 H 0.19836 0.45606 0.3447 0.0
H263 H 1.03856 0.36779 0.37768 0.0
Co264 Co 0.7933 0.75808 0.9003 0.0
C265 C 0.75979 0.80126 0.8484 0.0
C266 C 0.85223 0.82721 0.85959 0.0
C267 C 0.84346 0.84467 0.83537 0.0
N268 N 0.79982 0.80032 0.86815 0.0
N269 N 0.78546 0.8285 0.82818 0.0
H270 H 0.71432 0.77958 0.84828 0.0
H271 H 0.8962 0.82953 0.86931 0.0
C272 C 0.91275 0.80074 0.92908 0.0
O273 O 0.8984 0.771 0.94944 0.0
N274 N 0.78485 0.71622 0.93212 0.0
C275 C 0.77711 0.6546 0.93513 0.0
C276 C 0.76715 0.64284 0.9599 0.0
C277 C 0.7758 0.74139 0.955 0.0
N278 N 0.76694 0.6973 0.97249 0.0
C279 C 0.84373 0.67145 0.86399 0.0
C280 C 0.94266 0.63404 0.89343 0.0
C281 C 0.94075 0.6158 0.86853 0.0
C282 C 0.88982 0.63296 0.85374 0.0
C283 C 0.8959 0.6716 0.90284 0.0
N284 N 0.84884 0.69292 0.88797 0.0
H285 H 0.80465 0.6848 0.85249 0.0
H286 H 0.89788 0.68278 0.92227 0.0
H287 H 0.77842 0.62045 0.92027 0.0
H288 H 0.77584 0.79088 0.95869 0.0
O289 O 0.71353 0.72233 0.89078 0.0
O290 O 0.72385 0.8126 0.91004 0.0
O291 O 0.87209 0.80692 0.9115 0.0
C292 C 0.68643 0.77003 0.90096 0.0
H293 H 0.87906 0.86321 0.82332 0.0
H294 H 0.76154 0.59742 0.9681 0.0
H295 H 0.98003 0.61891 0.90563 0.0
H296 H 0.88593 0.61715 0.83461 0.0
Co297 Co 0.32488 0.7736 0.40005 0.0
C298 C 0.29453 0.74531 0.34611 0.0
C299 C 0.22556 0.80193 0.36382 0.0
C300 C 0.21017 0.79614 0.33904 0.0
N301 N 0.28004 0.77248 0.3682 0.0
N302 N 0.2535 0.76058 0.32796 0.0
H303 H 0.33437 0.71568 0.34304 0.0
H304 H 0.19864 0.82672 0.37758 0.0
C305 C 0.28003 0.89853 0.42482 0.0
O306 O 0.30168 0.88456 0.44692 0.0
N307 N 0.36823 0.77189 0.43207 0.0
C308 C 0.4302 0.76432 0.43509 0.0
C309 C 0.44346 0.75807 0.46002 0.0
C310 C 0.34436 0.76699 0.45528 0.0
N311 N 0.38962 0.76039 0.47274 0.0
C312 C 0.4204 0.81156 0.36403 0.0
C313 C 0.44601 0.9219 0.38861 0.0
C314 C 0.46922 0.91285 0.36475 0.0
C315 C 0.45881 0.85588 0.35268 0.0
C316 C 0.40918 0.87662 0.39918 0.0
N317 N 0.39211 0.82437 0.38623 0.0
H318 H 0.41435 0.76726 0.35506 0.0
H319 H 0.39477 0.884 0.41804 0.0
H320 H 0.46356 0.76237 0.42011 0.0
H321 H 0.29498 0.76744 0.45927 0.0
O322 O 0.3564 0.68974 0.39374 0.0
O323 O 0.26747 0.71037 0.41226 0.0
O324 O 0.28013 0.85725 0.40733 0.0
C325 C 0.30698 0.66833 0.40458 0.0
H326 H 0.17105 0.81773 0.32967 0.0
H327 H 0.4893 0.75245 0.46822 0.0
H328 H 0.45672 0.96376 0.39915 0.0
H329 H 0.47971 0.84597 0.33479 0.0
Co330 Co 0.30401 0.32458 0.89783 0.0
C331 C 0.32095 0.29179 0.84464 0.0
C332 C 0.28355 0.21531 0.86508 0.0
C333 C 0.28381 0.19984 0.84009 0.0
N334 N 0.30576 0.27343 0.86782 0.0
N335 N 0.30715 0.24809 0.82712 0.0
H336 H 0.3385 0.33774 0.84065 0.0
H337 H 0.26469 0.18766 0.87996 0.0
C338 C 0.17502 0.31461 0.91707 0.0
O339 O 0.18221 0.37379 0.92247 0.0
N340 N 0.3064 0.37332 0.92897 0.0
C341 C 0.34175 0.42423 0.93335 0.0
C342 C 0.34467 0.43594 0.95848 0.0
C343 C 0.29126 0.35309 0.95214 0.0
N344 N 0.31306 0.39127 0.97044 0.0
C345 C 0.25705 0.44806 0.88298 0.0
C346 C 0.15931 0.40007 0.85517 0.0
C347 C 0.15772 0.46274 0.8619 0.0
C348 C 0.20933 0.4876 0.87477 0.0
C349 C 0.20531 0.36203 0.86497 0.0
N350 N 0.25212 0.3852 0.87986 0.0
H351 H 0.29568 0.46829 0.89279 0.0
H352 H 0.19977 0.31279 0.86197 0.0
H353 H 0.36897 0.44827 0.9196 0.0
H354 H 0.2688 0.30903 0.95561 0.0
O355 O 0.38733 0.35419 0.88991 0.0
O356 O 0.36762 0.27162 0.91263 0.0
O357 O 0.2217 0.28356 0.90842 0.0
C358 C 0.40919 0.30857 0.90305 0.0
H359 H 0.26405 0.1579 0.83215 0.0
H360 H 0.37114 0.47281 0.96739 0.0
H361 H 0.12257 0.37926 0.84399 0.0
H362 H 0.21125 0.5364 0.87976 0.0
Co363 Co 0.73927 0.28937 0.3962 0.0
C364 C 0.77059 0.3051 0.34273 0.0
C365 C 0.85278 0.29139 0.36503 0.0
C366 C 0.8702 0.29756 0.34042 0.0
N367 N 0.79026 0.29548 0.36641 0.0
N368 N 0.81837 0.30534 0.32646 0.0
H369 H 0.72211 0.31033 0.33745 0.0
H370 H 0.88344 0.28367 0.38076 0.0
C371 C 0.75558 0.16156 0.41537 0.0
O372 O 0.69598 0.16671 0.42037 0.0
N373 N 0.69021 0.28848 0.42702 0.0
C374 C 0.63532 0.31758 0.43098 0.0
C375 C 0.62152 0.31636 0.45592 0.0
C376 C 0.71103 0.27437 0.45032 0.0
N377 N 0.66893 0.28898 0.46812 0.0
C378 C 0.61934 0.23385 0.37981 0.0
C379 C 0.67539 0.14034 0.35241 0.0
C380 C 0.61237 0.13439 0.3581 0.0
C381 C 0.58348 0.18383 0.37087 0.0
C382 C 0.70982 0.18841 0.36298 0.0
N383 N 0.68269 0.2333 0.3776 0.0
H384 H 0.59595 0.27081 0.38935 0.0
H385 H 0.75964 0.18665 0.3606 0.0
H386 H 0.60902 0.34281 0.41716 0.0
H387 H 0.75655 0.25502 0.45423 0.0
O388 O 0.70384 0.36965 0.38813 0.0
O389 O 0.78771 0.35713 0.41147 0.0
O390 O 0.7852 0.20949 0.40705 0.0
C391 C 0.74782 0.39539 0.40137 0.0
H392 H 0.91714 0.29475 0.33324 0.0
H393 H 0.58126 0.33731 0.46466 0.0
H394 H 0.69928 0.10594 0.34119 0.0
H395 H 0.53427 0.18259 0.37513 0.0
Co396 Co 0.29213 0.82742 0.15375 0.0
C397 C 0.26853 0.78703 0.20528 0.0
C398 C 0.30789 0.71316 0.18344 0.0
C399 C 0.3031 0.69375 0.2078 0.0
N400 N 0.28723 0.77205 0.18204 0.0
N401 N 0.27845 0.74035 0.2216 0.0
H402 H 0.25072 0.83244 0.21025 0.0
H403 H 0.32821 0.68738 0.16817 0.0
C404 C 0.42248 0.82013 0.13575 0.0
O405 O 0.41486 0.87976 0.13175 0.0
N406 N 0.29251 0.88007 0.12412 0.0
C407 C 0.26022 0.93318 0.12049 0.0
C408 C 0.26097 0.94793 0.09562 0.0
C409 C 0.30831 0.86121 0.10078 0.0
N410 N 0.29096 0.90253 0.0832 0.0
C411 C 0.34179 0.94733 0.17234 0.0
C412 C 0.43588 0.89345 0.2001 0.0
C413 C 0.44057 0.95653 0.19461 0.0
C414 C 0.39054 0.98423 0.18174 0.0
C415 C 0.38902 0.85802 0.18906 0.0
N416 N 0.34418 0.88414 0.17411 0.0
H417 H 0.30462 0.96988 0.1626 0.0
H418 H 0.39253 0.80842 0.19112 0.0
H419 H 0.23291 0.95706 0.1344 0.0
H420 H 0.33022 0.81707 0.09668 0.0
O421 O 0.20939 0.85769 0.16186 0.0
O422 O 0.22749 0.77837 0.13665 0.0
O423 O 0.37524 0.78738 0.1428 0.0
C424 C 0.18671 0.8148 0.14729 0.0
H425 H 0.32024 0.65006 0.21489 0.0
H426 H 0.2375 0.98691 0.08706 0.0
H427 H 0.47048 0.87029 0.21145 0.0
H428 H 0.39053 1.03335 0.17759 0.0
Co429 Co 0.25091 0.29449 0.64779 0.0
C430 C 0.27972 0.2666 0.7019 0.0
C431 C 0.34231 0.33323 0.68638 0.0
C432 C 0.35591 0.3274 0.71124 0.0
N433 N 0.29307 0.29675 0.68041 0.0
N434 N 0.31651 0.28588 0.72106 0.0
H435 H 0.24262 0.23301 0.70383 0.0
H436 H 0.36693 0.36328 0.67385 0.0
C437 C 0.29653 0.41601 0.62207 0.0
O438 O 0.27443 0.40041 0.60012 0.0
N439 N 0.21019 0.28977 0.61519 0.0
C440 C 0.14835 0.283 0.61131 0.0
C441 C 0.13727 0.27375 0.58629 0.0
C442 C 0.23609 0.28154 0.59241 0.0
N443 N 0.19231 0.27345 0.57444 0.0
C444 C 0.15576 0.33648 0.68261 0.0
C445 C 0.12703 0.44323 0.65678 0.0
C446 C 0.10272 0.43519 0.6805 0.0
C447 C 0.11522 0.38019 0.69325 0.0
C448 C 0.16625 0.39843 0.64686 0.0
N449 N 0.18403 0.34783 0.66036 0.0
H450 H 0.16377 0.29365 0.69223 0.0
H451 H 0.18118 0.40438 0.62804 0.0
H452 H 0.11359 0.28338 0.6258 0.0
H453 H 0.28578 0.28094 0.58909 0.0
O454 O 0.21535 0.21394 0.65496 0.0
O455 O 0.30677 0.22623 0.63746 0.0
O456 O 0.29839 0.37568 0.63962 0.0
C457 C 0.26406 0.18781 0.64535 0.0
H458 H 0.39128 0.35288 0.72155 0.0
H459 H 0.09226 0.26728 0.57742 0.0
H460 H 0.11513 0.48367 0.64582 0.0
H461 H 0.09406 0.37122 0.71111 0.0
Co462 Co 0.79418 0.24804 0.14692 0.0
C463 C 0.81063 0.27211 0.20242 0.0
C464 C 0.7873 0.35349 0.18171 0.0
C465 C 0.79192 0.36964 0.20656 0.0
N466 N 0.79829 0.29208 0.17897 0.0
N467 N 0.80585 0.31823 0.21954 0.0
H468 H 0.8243 0.22576 0.20729 0.0
H469 H 0.77587 0.38451 0.16661 0.0
C470 C 0.67369 0.3037 0.12243 0.0
O471 O 0.68959 0.28725 0.09985 0.0
N472 N 0.79189 0.20487 0.1147 0.0
C473 C 0.79029 0.14272 0.11162 0.0
C474 C 0.79339 0.12872 0.08668 0.0
C475 C 0.79945 0.22756 0.09138 0.0
N476 N 0.79836 0.18195 0.07372 0.0
C477 C 0.76214 0.14509 0.17997 0.0
C478 C 0.6403 0.13741 0.16344 0.0
C479 C 0.65727 0.10557 0.18491 0.0
C480 C 0.71986 0.10691 0.19263 0.0
C481 C 0.6838 0.17364 0.15143 0.0
N482 N 0.74211 0.18257 0.16111 0.0
H483 H 0.81076 0.14414 0.18515 0.0
H484 H 0.67057 0.19272 0.13384 0.0
H485 H 0.78808 0.10933 0.12651 0.0
H486 H 0.80393 0.27655 0.08749 0.0
O487 O 0.87739 0.21356 0.15241 0.0
O488 O 0.85918 0.30317 0.13431 0.0
O489 O 0.71262 0.29706 0.14055 0.0
C490 C 0.90026 0.26249 0.14179 0.0
H491 H 0.78398 0.41524 0.21458 0.0
H492 H 0.79287 0.08236 0.07874 0.0
H493 H 0.59389 0.13296 0.15552 0.0
H494 H 0.73573 0.07895 0.2081 0.0
Co495 Co 0.81744 0.80177 0.654 0.0
C496 C 0.78269 0.82246 0.70667 0.0
C497 C 0.70565 0.78586 0.68549 0.0
C498 C 0.68832 0.79039 0.71019 0.0
N499 N 0.76515 0.80511 0.68342 0.0
N500 N 0.73676 0.81369 0.72339 0.0
H501 H 0.82927 0.83797 0.71146 0.0
H502 H 0.67759 0.76771 0.6703 0.0
C503 C 0.80269 0.67408 0.63319 0.0
O504 O 0.86232 0.67967 0.62834 0.0
N505 N 0.86765 0.80281 0.6236 0.0
C506 C 0.92107 0.83473 0.62015 0.0
C507 C 0.93353 0.83788 0.59518 0.0
C508 C 0.84679 0.79032 0.60012 0.0
N509 N 0.88681 0.81015 0.58246 0.0
C510 C 0.9378 0.75031 0.67044 0.0
C511 C 0.88507 0.65215 0.69558 0.0
C512 C 0.94857 0.64983 0.69017 0.0
C513 C 0.97566 0.70158 0.67871 0.0
C514 C 0.84883 0.69982 0.68595 0.0
N515 N 0.87449 0.74643 0.6721 0.0
H516 H 0.95976 0.78923 0.66189 0.0
H517 H 0.7991 0.69619 0.6882 0.0
H518 H 0.94647 0.85998 0.63438 0.0
H519 H 0.80115 0.77132 0.59605 0.0
O520 O 0.85212 0.88152 0.66352 0.0
O521 O 0.76926 0.87061 0.63945 0.0
O522 O 0.77276 0.7218 0.6418 0.0
C523 C 0.80906 0.90817 0.65034 0.0
H524 H 0.64399 0.77671 0.71793 0.0
H525 H 0.9725 0.86197 0.58695 0.0
H526 H 0.8625 0.61521 0.7057 0.0
H527 H 1.02507 0.70301 0.67482 0.0
C528 C 0.35795 0.21314 0.25909 0.0
C529 C 0.31823 0.2532 0.24578 0.0
C530 C 0.36141 0.21546 0.28529 0.0
C531 C 0.32378 0.2565 0.2991 0.0
H532 H 0.38701 0.18038 0.2491 0.0
H533 H 0.393 0.18442 0.29488 0.0
S534 S 0.21147 0.37019 0.27321 0.0
N535 N 0.2407 0.33509 0.24844 0.0
N536 N 0.24594 0.33818 0.29753 0.0
C537 C 0.28352 0.29628 0.28602 0.0
C538 C 0.28109 0.29498 0.2594 0.0
C539 C 0.77758 0.2898 0.78619 0.0
C540 C 0.81733 0.33138 0.79898 0.0
C541 C 0.775 0.28815 0.75999 0.0
C542 C 0.81323 0.3269 0.74565 0.0
H543 H 0.74768 0.25901 0.79658 0.0
H544 H 0.74394 0.25543 0.75084 0.0
S545 S 0.92543 0.44362 0.77009 0.0
N546 N 0.89497 0.41269 0.79532 0.0
N547 N 0.89178 0.40804 0.74616 0.0
C548 C 0.85337 0.36835 0.75822 0.0
C549 C 0.85492 0.37105 0.78485 0.0
C550 C 0.76044 0.75838 0.28753 0.0
C551 C 0.76107 0.81042 0.30348 0.0
C552 C 0.76576 0.76489 0.26162 0.0
C553 C 0.77107 0.82388 0.2506 0.0
H554 H 0.75729 0.71222 0.2953 0.0
H555 H 0.76762 0.72324 0.25024 0.0
S556 S 0.76598 0.9751 0.28456 0.0
N557 N 0.7626 0.92254 0.30675 0.0
N558 N 0.76988 0.9358 0.25806 0.0
C559 C 0.76887 0.8765 0.26649 0.0
C560 C 0.76456 0.86952 0.29291 0.0
C561 C 0.25316 0.72456 0.78878 0.0
C562 C 0.2698 0.77708 0.80331 0.0
C563 C 0.25094 0.727 0.76258 0.0
C564 C 0.26524 0.78199 0.74998 0.0
H565 H 0.24139 0.68128 0.79772 0.0
H566 H 0.23757 0.68592 0.75208 0.0
S567 S 0.31494 0.93121 0.77843 0.0
N568 N 0.3038 0.88503 0.8024 0.0
N569 N 0.29794 0.88931 0.75341 0.0
C570 C 0.28211 0.83454 0.76405 0.0
C571 C 0.28475 0.83222 0.79064 0.0
C572 C 0.73307 0.77762 0.79203 0.0
C573 C 0.76309 0.82967 0.8027 0.0
C574 C 0.72213 0.77364 0.76615 0.0
C575 C 0.74132 0.82131 0.75007 0.0
H576 H 0.72105 0.73838 0.80352 0.0
H577 H 0.70136 0.73175 0.75851 0.0
S578 S 0.81181 0.97147 0.7691 0.0
N579 N 0.80401 0.93319 0.79543 0.0
N580 N 0.78481 0.92483 0.74698 0.0
C581 C 0.76786 0.87491 0.76069 0.0
C582 C 0.77829 0.87933 0.78693 0.0
C583 C 0.27084 0.80629 0.28684 0.0
C584 C 0.2614 0.75356 0.30152 0.0
C585 C 0.27657 0.80145 0.26091 0.0
C586 C 0.27214 0.74361 0.24848 0.0
H587 H 0.27421 0.85167 0.29559 0.0
H588 H 0.28529 0.84353 0.25064 0.0
S589 S 0.24362 0.59174 0.27899 0.0
N590 N 0.24638 0.6422 0.3023 0.0
N591 N 0.25504 0.63236 0.25345 0.0
C592 C 0.2621 0.69036 0.26317 0.0
C593 C 0.25717 0.69551 0.2897 0.0
C594 C 0.30541 0.32459 0.76405 0.0
C595 C 0.30979 0.27428 0.74733 0.0
C596 C 0.30404 0.31555 0.78987 0.0
C597 C 0.30825 0.2557 0.80025 0.0
H598 H 0.30301 0.37154 0.757 0.0
H599 H 0.29924 0.35611 0.8017 0.0
S600 S 0.3232 0.1084 0.76404 0.0
N601 N 0.31826 0.16275 0.74259 0.0
N602 N 0.31904 0.14504 0.79112 0.0
C603 C 0.31276 0.20476 0.78356 0.0
C604 C 0.31272 0.21422 0.75714 0.0
C605 C 0.85168 0.35045 0.28638 0.0
C606 C 0.81482 0.30805 0.29962 0.0
C607 C 0.84847 0.35375 0.26021 0.0
C608 C 0.80995 0.31325 0.24631 0.0
H609 H 0.88242 0.38185 0.29638 0.0
H610 H 0.87671 0.38772 0.25071 0.0
S611 S 0.70613 0.19228 0.27199 0.0
N612 N 0.73923 0.22433 0.29681 0.0
N613 N 0.73483 0.22908 0.24773 0.0
C614 C 0.77386 0.26989 0.25931 0.0
C615 C 0.77587 0.26766 0.28593 0.0
C616 C 0.3621 0.40074 0.03778 0.0
C617 C 0.30735 0.38602 0.05077 0.0
C618 C 0.36411 0.3995 1.0117 0.0
C619 C 0.31144 0.38358 0.99724 0.0
H620 H 0.40367 0.41457 0.04792 0.0
H621 H 0.4072 0.41238 1.00274 0.0
S622 S 0.15714 0.33822 1.02197 0.0
N623 N 0.19967 0.35226 0.04717 0.0
N624 N 0.20335 0.35012 0.99797 0.0
C625 C 0.25704 0.36596 1.00991 0.0
C626 C 0.25501 0.36714 0.03668 0.0
C627 C 0.72445 0.30341 0.50867 0.0
C628 C 0.67295 0.2812 0.49482 0.0
C629 C 0.7237 0.30446 0.53501 0.0
C630 C 0.67147 0.28323 0.54832 0.0
H631 H 0.76407 0.32283 0.49908 0.0
H632 H 0.76284 0.3247 0.54497 0.0
S633 S 0.52983 0.21096 0.52061 0.0
N634 N 0.57189 0.23125 0.49637 0.0
N635 N 0.57076 0.23203 0.5454 0.0
C636 C 0.62174 0.25727 0.53455 0.0
C637 C 0.62241 0.25659 0.50795 0.0
C638 C 0.72601 0.66246 1.01293 0.0
C639 C 0.76257 0.70424 0.99925 0.0
C640 C 0.72793 0.66166 0.03903 0.0
C641 C 0.76634 0.70275 0.05265 0.0
H642 H 0.69673 0.62893 1.00332 0.0
H643 H 0.70008 0.62759 0.04865 0.0
S644 S 0.87031 0.82242 0.02599 0.0
N645 N 0.83737 0.78897 1.00147 0.0
N646 N 0.84069 0.78761 0.05051 0.0
C647 C 0.80121 0.74659 0.03932 0.0
C648 C 0.79938 0.74733 1.01265 0.0
C649 C 0.42104 0.71612 0.5131 0.0
C650 C 0.38409 0.75794 0.49951 0.0
C651 C 0.4235 0.71823 0.53918 0.0
C652 C 0.38967 0.76281 0.55291 0.0
H653 H 0.44926 0.68214 0.50339 0.0
H654 H 0.45306 0.68514 0.54866 0.0
S655 S 0.28552 0.88301 0.52608 0.0
N656 N 0.31182 0.84448 0.50161 0.0
N657 N 0.3172 0.84948 0.55066 0.0
C658 C 0.35098 0.80384 0.53956 0.0
C659 C 0.34807 0.8012 0.51288 0.0
C660 C 0.76852 0.13982 0.03222 0.0
C661 C 0.798 0.18653 0.04669 0.0
C662 C 0.77068 0.13974 1.00613 0.0
C663 C 0.8011 0.18704 0.99316 0.0
H664 H 0.74375 0.10234 0.0411 0.0
H665 H 0.74884 0.10193 0.9959 0.0
S666 S 0.88583 0.32038 1.02122 0.0
N667 N 0.85942 0.28164 0.04542 0.0
N668 N 0.86124 0.28208 0.99625 0.0
C669 C 0.82929 0.2351 1.00703 0.0
C670 C 0.82812 0.23481 0.03379 0.0
C671 C 0.90211 0.86 0.54165 0.0
C672 C 0.87934 0.80983 0.55562 0.0
C673 C 0.90241 0.85838 0.51558 0.0
C674 C 0.87948 0.80682 0.50218 0.0
H675 H 0.92092 0.90069 0.55097 0.0
H676 H 0.92187 0.89752 0.50576 0.0
S677 S 0.81254 0.66416 0.52942 0.0
N678 N 0.83147 0.70749 0.55386 0.0
N679 N 0.83139 0.70503 0.50466 0.0
C680 C 0.85403 0.75735 0.51571 0.0
C681 C 0.85407 0.75875 0.54245 0.0
C682 C 0.31529 0.95216 0.04327 0.0
C683 C 0.29801 0.89886 0.05648 0.0
C684 C 0.31569 0.95265 1.01717 0.0
C685 C 0.29803 0.90007 1.00299 0.0
H686 H 0.32758 0.9943 0.05329 0.0
H687 H 0.32875 0.99524 1.00798 0.0
S688 S 0.24875 0.74833 0.02871 0.0
N689 N 0.26388 0.79152 0.05358 0.0
N690 N 0.26341 0.79256 1.00444 0.0
C691 C 0.28236 0.84566 1.01599 0.0
C692 C 0.28255 0.84507 0.04273 0.0
C693 C 0.22016 0.31633 0.53331 0.0
C694 C 0.20045 0.26618 0.54796 0.0
C695 C 0.21772 0.31299 0.50705 0.0
C696 C 0.19535 0.25941 0.49464 0.0
H697 H 0.23464 0.35928 0.54224 0.0
H698 H 0.23059 0.35349 0.49642 0.0
S699 S 0.14767 0.11244 0.52495 0.0
N700 N 0.16374 0.15997 0.54841 0.0
N701 N 0.16092 0.1524 0.49941 0.0
C702 C 0.17931 0.20777 0.50929 0.0
C703 C 0.18132 0.21153 0.53584 0.0
C704 C 1.03974 0.47487 0.19107 0.0
C705 C 0.09879 0.50149 0.19608 0.0
C706 C 0.98555 0.51079 0.19116 0.0
C707 C 0.98838 0.57466 0.196 0.0
H708 H 1.03546 0.42696 0.18501 0.0
H709 H 0.94214 0.48963 0.18508 0.0
S710 S 0.12803 0.66591 0.21395 0.0
N711 N 0.1545 0.59458 0.20964 0.0
N712 N 0.05232 0.6626 0.2084 0.0
C713 C 0.04565 0.60119 0.20297 0.0
C714 C 0.10099 0.5645 0.20328 0.0
C715 C 0.57536 0.99162 0.69901 0.0
C716 C 0.51045 0.98607 0.69696 0.0
C717 C 0.60363 0.0503 0.69855 0.0
C718 C 0.56769 0.10471 0.69589 0.0
H719 H 0.60454 0.95058 0.69811 0.0
H720 H 0.65398 0.05271 0.69739 0.0
S721 S 0.39583 0.11444 0.69397 0.0
N722 N 0.41076 0.03934 0.69587 0.0
N723 N 0.4642 0.14966 0.69465 0.0
C724 C 0.50274 0.09993 0.69692 0.0
C725 C 0.47397 0.04034 0.69751 0.0
C726 C 0.48284 0.08814 0.86376 0.0
C727 C 0.47862 1.02424 0.85922 0.0
C728 C 0.53982 0.11891 0.8616 0.0
C729 C 0.5946 0.08689 0.85461 0.0
H730 H 0.44314 0.11343 0.87101 0.0
H731 H 0.54149 0.16731 0.86724 0.0
S732 S 0.60488 0.91977 0.83777 0.0
N733 N 0.53134 0.93021 0.84572 0.0
N734 N 0.63851 0.98857 0.84049 0.0
C735 C 0.58957 1.02361 0.84824 0.0
C736 C 0.53149 0.99218 0.85077 0.0
C737 C 0.11071 0.53591 0.3658 0.0
C738 C 0.07949 0.48059 0.35876 0.0
C739 C 0.07899 0.59238 0.36788 0.0
C740 C 1.01495 0.59561 0.36311 0.0
H741 H 0.15933 0.53518 0.37133 0.0
H742 H 0.10382 0.63277 0.37492 0.0
S743 S 0.91176 0.46709 0.34241 0.0
N744 N 0.98125 0.43465 0.34507 0.0
N745 N 0.9213 0.54098 0.35004 0.0
C746 C 0.98348 0.54195 0.35498 0.0
C747 C 1.0158 0.48434 0.35259 0.0
C748 C 0.04825 0.59983 0.85296 0.0
C749 C 0.99037 0.57457 0.85956 0.0
C750 C 0.10191 0.56262 0.85219 0.0
C751 C 0.09942 0.49925 0.85846 0.0
H752 H 0.05271 0.64932 0.84991 0.0
H753 H 0.14601 0.58423 0.84777 0.0
S754 S 0.95717 0.41222 0.87667 0.0
N755 N 0.93225 0.4833 0.87125 0.0
N756 N 1.03268 0.41335 0.87119 0.0
C757 C 0.04069 0.47329 0.86408 0.0
C758 C 0.98625 0.51102 0.86429 0.0
C759 C 0.51525 0.07415 0.34736 0.0
C760 C 0.57917 0.0744 0.35349 0.0
C761 C 0.48031 1.01918 0.34811 0.0
C762 C 0.5083 0.9624 0.35444 0.0
H763 H 0.49123 0.11721 0.34334 0.0
H764 H 0.43025 1.02183 0.34554 0.0
S765 S 0.67426 0.93517 0.36928 0.0
N766 N 0.66941 1.01064 0.36452 0.0
N767 N 0.60341 0.90771 0.36454 0.0
C768 C 0.57269 0.96066 0.35832 0.0
C769 C 0.60829 1.01658 0.35817 0.0
C770 C 0.4983 0.05534 0.20468 0.0
C771 C 0.49993 0.99123 0.1993 0.0
C772 C 0.55206 0.09194 0.203 0.0
C773 C 0.60963 0.06563 0.19634 0.0
H774 H 0.45452 0.07824 0.20868 0.0
H775 H 0.54763 0.14189 0.20495 0.0
S776 S 0.64288 0.89949 0.18518 0.0
N777 N 0.5671 0.90226 0.19001 0.0
N778 N 0.66782 0.97158 0.18816 0.0
C779 C 0.61374 1.00111 0.19387 0.0
C780 C 0.55893 0.96369 0.195 0.0
C781 C 0.08502 0.53973 0.69883 0.0
C782 C 0.06037 0.48308 0.69016 0.0
C783 C 0.04744 0.59282 0.70065 0.0
C784 C 0.98429 0.59113 0.69336 0.0
H785 H 0.13447 0.54391 0.70269 0.0
H786 H 0.06878 0.63615 0.70653 0.0
S787 S 0.89829 0.45193 0.67031 0.0
N788 N 0.96952 0.42654 0.67578 0.0
N789 N 0.89882 0.52625 0.67797 0.0
C790 C 0.95864 0.53337 0.68595 0.0
C791 C 0.9968 0.47934 0.68461 0.0
C792 C 0.55987 0.28996 0.11078 0.0
C793 C 0.60526 0.3118 0.12797 0.0
C794 C 0.49558 0.29067 0.11622 0.0
C795 C 0.47316 0.31436 0.13894 0.0
H796 H 0.57403 0.27061 0.09303 0.0
H797 H 0.4631 0.27327 0.10231 0.0
S798 S 0.57118 0.37706 0.1906 0.0
N799 N 0.62202 0.35706 0.16903 0.0
N800 N 0.50178 0.36022 0.17889 0.0
C801 C 0.51769 0.33697 0.15623 0.0
C802 C 0.58333 0.33517 0.15088 0.0
C803 C 0.79684 0.49944 0.62159 0.0
C804 C 0.75375 0.47752 0.63905 0.0
C805 C 0.80829 0.56332 0.61868 0.0
C806 C 0.77746 0.60896 0.63311 0.0
H807 H 0.82316 0.46687 0.61035 0.0
H808 H 0.84364 0.57694 0.60549 0.0
S809 S 0.65787 0.57689 0.68084 0.0
N810 N 0.6777 0.50731 0.67038 0.0
N811 N 0.69982 0.62709 0.66499 0.0
C812 C 0.7323 0.588 0.64996 0.0
C813 C 0.72043 0.52256 0.65292 0.0
C814 C 0.53388 0.83153 0.12314 0.0
C815 C 0.48861 0.79768 0.13638 0.0
C816 C 0.5981 0.82227 0.12683 0.0
C817 C 0.62066 0.77843 0.1439 0.0
H818 H 0.5196 0.8674 0.11027 0.0
H819 H 0.63034 0.85058 0.11642 0.0
S820 S 0.52257 0.67585 0.18295 0.0
N821 N 0.47154 0.71714 0.16695 0.0
N822 N 0.59208 0.69897 0.17376 0.0
C823 C 0.57611 0.74246 0.15669 0.0
C824 C 0.51032 0.75213 0.15294 0.0
C825 C 0.34277 0.50558 0.64746 0.0
C826 C 0.30238 0.48419 0.62844 0.0
C827 C 0.34671 0.56939 0.65393 0.0
C828 C 0.30923 0.61472 0.64218 0.0
H829 H 0.37227 0.47292 0.65722 0.0
H830 H 0.3796 0.58326 0.6683 0.0
S831 S 0.19211 0.58303 0.59249 0.0
N832 N 0.22199 0.5142 0.59868 0.0
N833 N 0.22854 0.63248 0.61116 0.0
C834 C 0.26749 0.59367 0.62362 0.0
C835 C 0.26432 0.52909 0.6167 0.0
C836 C 0.08804 0.25331 0.8964 0.0
C837 C 0.10954 0.29098 0.91621 0.0
C838 C 1.02361 0.24373 0.89221 0.0
C839 C 0.97818 0.27177 0.90756 0.0
H840 H 0.12088 0.23395 0.88323 0.0
H841 H 1.00929 0.2161 0.87624 0.0
S842 S 1.0106 0.36749 0.96394 0.0
N843 N 0.08019 0.35111 0.95276 0.0
N844 N 0.96027 0.33351 0.94487 0.0
C845 C 0.99942 0.30663 0.92818 0.0
C846 C 0.06466 0.31604 0.9325 0.0
C847 C 0.76147 0.98751 0.42629 0.0
C848 C 0.80381 0.96532 0.40849 0.0
C849 C 0.75051 0.0514 0.42953 0.0
C850 C 0.78085 0.09665 0.41503 0.0
H851 H 0.73579 0.9552 0.43768 0.0
H852 H 0.71591 0.06534 0.44307 0.0
S853 S 0.89736 0.06347 0.36605 0.0
N854 N 0.87807 0.99415 0.37653 0.0
N855 N 0.85651 0.11412 0.38244 0.0
C856 C 0.82491 0.07537 0.39768 0.0
C857 C 0.83645 1.0099 0.39443 0.0
C858 C 1.02559 0.76945 0.93347 0.0
C859 C 0.98075 0.8111 0.92382 0.0
C860 C 0.08952 0.77458 0.92784 0.0
C861 C 0.11216 0.82202 0.91242 0.0
H862 H 1.01109 0.73145 0.94519 0.0
H863 H 0.12148 0.74115 0.93581 0.0
S864 S 1.01489 0.94475 0.88297 0.0
N865 N 0.96431 0.90245 0.8985 0.0
N866 N 0.08366 0.91243 0.88783 0.0
C867 C 0.06785 0.86437 0.90276 0.0
C868 C 1.0026 0.85881 0.90843 0.0
C869 C 0.29196 0.07663 0.42938 0.0
C870 C 0.26783 0.0976 0.40652 0.0
C871 C 0.29334 1.01285 0.43534 0.0
C872 C 0.27167 0.96646 0.41857 0.0
H873 H 0.3091 0.10987 0.44303 0.0
H874 H 0.31281 0.99993 0.45321 0.0
S875 S 0.20573 0.99695 0.35567 0.0
N876 N 0.22201 0.06679 0.36687 0.0
N877 N 0.2263 0.94762 0.37762 0.0
C878 C 0.24791 0.98709 0.3955 0.0
C879 C 0.24552 0.0522 0.38963 0.0
C880 C 0.51516 0.74205 0.88441 0.0
C881 C 0.48159 0.77812 0.90176 0.0
C882 C 0.58067 0.73917 0.88474 0.0
C883 C 0.61651 0.77359 0.90204 0.0
H884 H 0.49045 0.71776 0.86961 0.0
H885 H 0.60348 0.71137 0.87059 0.0
S886 S 0.55245 0.87193 0.95286 0.0
N887 N 0.48993 0.84553 0.9381 0.0
N888 N 0.61302 0.84202 0.93819 0.0
C889 C 0.58382 0.8083 0.92011 0.0
C890 C 0.51659 0.80998 0.92014 0.0
C891 C 0.32207 0.49004 0.39824 0.0
C892 C 0.27855 0.4675 0.41552 0.0
C893 C 0.33172 0.55473 0.39503 0.0
C894 C 0.29769 0.59975 0.40869 0.0
H895 H 0.3469 0.45771 0.38637 0.0
H896 H 0.36488 0.56956 0.38118 0.0
S897 S 0.18262 0.56546 0.45796 0.0
N898 N 0.20499 0.49641 0.44792 0.0
N899 N 0.2219 0.61616 0.44137 0.0
C900 C 0.25575 0.57764 0.42654 0.0
C901 C 0.24662 0.51225 0.43008 0.0
C902 C 0.58674 0.32237 0.89557 0.0
C903 C 0.61018 0.28271 0.91412 0.0
C904 C 0.52186 0.33145 0.89239 0.0
C905 C 0.47783 0.30076 0.90744 0.0
H906 H 0.61838 0.34393 0.8826 0.0
H907 H 0.50608 0.36114 0.87744 0.0
S908 S 0.51551 0.19773 0.96051 0.0
N909 N 0.58404 0.21712 0.94918 0.0
N910 N 0.46342 0.23336 0.94297 0.0
C911 C 0.50101 0.26334 0.92672 0.0
C912 C 0.56667 0.25465 0.93011 0.0
C913 C 0.71425 0.50239 0.38858 0.0
C914 C 0.75167 0.4648 0.404 0.0
C915 C 0.7202 0.56744 0.38855 0.0
C916 C 0.76271 0.59854 0.40434 0.0
H917 H 0.68201 0.48134 0.37541 0.0
H918 H 0.69373 0.59351 0.37492 0.0
S919 S 0.86708 0.52317 0.45039 0.0
N920 N 0.82989 0.4645 0.43696 0.0
N921 N 0.83966 0.5868 0.43727 0.0
C922 C 0.7975 0.5621 0.42107 0.0
C923 C 0.79237 0.49538 0.4208 0.0
C924 C 1.03032 0.79722 0.11318 0.0
C925 C 0.98556 0.81019 0.13176 0.0
C926 C 0.09491 0.79699 0.11841 0.0
C927 C 0.11808 0.81073 0.14237 0.0
H928 H 1.01548 0.78609 0.09437 0.0
H929 H 0.12701 0.78706 0.10341 0.0
S930 S 1.02268 0.84519 0.19815 0.0
N931 N 0.97091 0.83471 0.17565 0.0
N932 N 0.09149 0.83618 0.18506 0.0
C933 C 0.0744 0.82393 0.16112 0.0
C934 C 1.00859 0.82319 0.15595 0.0
C935 C 0.32406 0.08835 0.63556 0.0
C936 C 0.26921 0.11791 0.64384 0.0
C937 C 0.33106 1.02297 0.63657 0.0
C938 C 0.2833 0.98414 0.64555 0.0
H939 H 0.36305 0.11601 0.62936 0.0
H940 H 0.37562 1.00311 0.63162 0.0
S941 S 0.12847 1.03638 0.66731 0.0
N942 N 0.16423 0.10125 0.65954 0.0
N943 N 0.17845 0.97985 0.6616 0.0
C944 C 0.22739 1.01269 0.65263 0.0
C945 C 0.22002 0.07895 0.65166 0.0
C946 C 0.9909 0.31715 0.12179 0.0
C947 C 0.96934 0.27113 0.13805 0.0
C948 C 0.05497 0.32832 0.11849 0.0
C949 C 0.10145 0.29452 0.13139 0.0
H950 H 0.95793 0.34559 0.11163 0.0
H951 H 0.06808 0.3655 0.1061 0.0
S952 S 0.07059 0.16719 0.17578 0.0
N953 N 1.00041 0.18948 0.16668 0.0
N954 N 0.12049 0.21143 0.16075 0.0
C955 C 0.08079 0.24695 0.14717 0.0
C956 C 1.01509 0.23518 0.15045 0.0
C957 C 0.83987 0.07864 0.66591 0.0
C958 C 0.80393 0.11209 0.64855 0.0
C959 C 0.84199 1.01345 0.66574 0.0
C960 C 0.80733 0.97776 0.64845 0.0
H961 H 0.86438 0.10319 0.6807 0.0
H962 H 0.86933 0.99087 0.68007 0.0
S963 S 0.71081 0.04179 0.5971 0.0
N964 N 0.73747 0.10407 0.61186 0.0
N965 N 0.73981 0.9813 0.61199 0.0
C966 C 0.77347 1.01033 0.63013 0.0
C967 C 0.77235 0.07737 0.63001 0.0
loop_
_geom_bond_atom_site_label_1
_geom_bond_atom_site_label_2
_geom_bond_distance
_geom_bond_site_symmetry_2
_ccdc_geom_bond_type
Co0 N4 2.148 . S
Co0 N10 2.128 . S
Co0 N20 2.194 . S
Co0 O25 2.351 . S
Co0 O26 2.155 . S
Co0 O27 2.096 . S
C1 N4 1.301 . S
C1 N5 1.328 . S
C1 H6 0.930 . S
C2 C3 1.333 . S
C2 N4 1.317 . S
C2 H7 0.930 . S
C3 C2 1.333 . S
C3 N5 1.350 . S
C3 H29 0.931 . S
N4 Co0 2.148 . S
N4 C1 1.301 . S
N4 C2 1.317 . S
N5 C1 1.328 . S
N5 C3 1.350 . S
H6 C1 0.930 . S
H7 C2 0.930 . S
C8 O9 1.224 . S
C8 O27 1.247 1_655 S
O9 C8 1.224 . S
N10 Co0 2.128 . S
N10 C11 1.355 . S
N10 C13 1.311 . S
C11 N10 1.355 . S
C11 C12 1.363 . S
C11 H23 0.929 . S
C12 C11 1.363 . S
C12 N14 1.375 . S
C12 H30 0.931 . S
C13 N10 1.311 . S
C13 N14 1.347 . S
C13 H24 0.929 . S
N14 C12 1.375 . S
N14 C13 1.347 . S
C15 C18 1.365 . S
C15 N20 1.328 . S
C15 H21 0.929 . S
C16 C17 1.362 . S
C16 C19 1.378 . S
C16 H31 0.929 1_455 S
C17 C16 1.362 . S
C17 C18 1.366 . S
C18 C15 1.365 . S
C18 C17 1.366 . S
C18 H32 0.930 . S
C19 C16 1.378 . S
C19 N20 1.315 . S
C19 H22 0.930 1_455 S
N20 Co0 2.194 . S
N20 C15 1.328 . S
N20 C19 1.315 . S
H21 C15 0.929 . S
H22 C19 0.930 1_655 S
H23 C11 0.929 . S
H24 C13 0.929 . S
O25 Co0 2.351 . S
O25 C28 1.244 . S
O26 Co0 2.155 . S
O26 C28 1.240 . S
O27 Co0 2.096 . S
O27 C8 1.247 1_455 S
C28 O25 1.244 . S
C28 O26 1.240 . S
H29 C3 0.931 . S
H30 C12 0.931 . S
H31 C16 0.929 1_655 S
H32 C18 0.930 . S
Co33 N37 2.148 . S
Co33 N43 2.128 . S
Co33 N53 2.194 . S
Co33 O58 2.351 . S
Co33 O59 2.155 . S
Co33 O60 2.096 . S
C34 N37 1.301 . S
C34 N38 1.328 . S
C34 H39 0.930 . S
C35 C36 1.333 . S
C35 N37 1.317 . S
C35 H40 0.930 . S
C36 C35 1.333 . S
C36 N38 1.350 . S
C36 H62 0.931 . S
N37 Co33 2.148 . S
N37 C34 1.301 . S
N37 C35 1.317 . S
N38 C34 1.328 . S
N38 C36 1.350 . S
H39 C34 0.930 . S
H40 C35 0.930 . S
C41 O42 1.224 . S
C41 O60 1.247 1_565 S
O42 C41 1.224 . S
N43 Co33 2.128 . S
N43 C44 1.355 . S
N43 C46 1.311 . S
C44 N43 1.355 . S
C44 C45 1.363 . S
C44 H56 0.929 . S
C45 C44 1.363 . S
C45 N47 1.375 . S
C45 H63 0.931 . S
C46 N43 1.311 . S
C46 N47 1.347 . S
C46 H57 0.929 . S
N47 C45 1.375 . S
N47 C46 1.347 . S
C48 C51 1.365 . S
C48 N53 1.328 . S
C48 H54 0.929 . S
C49 C50 1.362 . S
C49 C52 1.378 . S
C49 H64 0.929 1_545 S
C50 C49 1.362 . S
C50 C51 1.366 . S
C51 C48 1.365 . S
C51 C50 1.366 . S
C51 H65 0.930 . S
C52 C49 1.378 . S
C52 N53 1.315 . S
C52 H55 0.930 1_545 S
N53 Co33 2.194 . S
N53 C48 1.328 . S
N53 C52 1.315 . S
H54 C48 0.929 . S
H55 C52 0.930 1_565 S
H56 C44 0.929 . S
H57 C46 0.929 . S
O58 Co33 2.351 . S
O58 C61 1.244 . S
O59 Co33 2.155 . S
O59 C61 1.240 . S
O60 Co33 2.096 . S
O60 C41 1.247 1_545 S
C61 O58 1.244 . S
C61 O59 1.240 . S
H62 C36 0.931 . S
H63 C45 0.931 . S
H64 C49 0.929 1_565 S
H65 C51 0.930 . S
Co66 N70 2.148 . S
Co66 N76 2.128 . S
Co66 N86 2.194 . S
Co66 O91 2.351 . S
Co66 O92 2.155 . S
Co66 O93 2.096 . S
C67 N70 1.301 . S
C67 N71 1.328 . S
C67 H72 0.930 . S
C68 C69 1.333 . S
C68 N70 1.317 . S
C68 H73 0.930 . S
C69 C68 1.333 . S
C69 N71 1.350 . S
C69 H95 0.931 . S
N70 Co66 2.148 . S
N70 C67 1.301 . S
N70 C68 1.317 . S
N71 C67 1.328 . S
N71 C69 1.350 . S
H72 C67 0.930 . S
H73 C68 0.930 . S
C74 O75 1.224 . S
C74 O93 1.247 1_455 S
O75 C74 1.224 . S
N76 Co66 2.128 . S
N76 C77 1.355 . S
N76 C79 1.311 . S
C77 N76 1.355 . S
C77 C78 1.363 . S
C77 H89 0.929 . S
C78 C77 1.363 . S
C78 N80 1.375 . S
C78 H96 0.931 . S
C79 N76 1.311 . S
C79 N80 1.347 . S
C79 H90 0.929 . S
N80 C78 1.375 . S
N80 C79 1.347 . S
C81 C84 1.365 . S
C81 N86 1.328 . S
C81 H87 0.929 . S
C82 C83 1.362 . S
C82 C85 1.378 . S
C82 H97 0.929 1_655 S
C83 C82 1.362 . S
C83 C84 1.366 . S
C84 C81 1.365 . S
C84 C83 1.366 . S
C84 H98 0.930 . S
C85 C82 1.378 . S
C85 N86 1.315 . S
C85 H88 0.930 1_655 S
N86 Co66 2.194 . S
N86 C81 1.328 . S
N86 C85 1.315 . S
H87 C81 0.929 . S
H88 C85 0.930 1_455 S
H89 C77 0.929 . S
H90 C79 0.929 . S
O91 Co66 2.351 . S
O91 C94 1.244 . S
O92 Co66 2.155 . S
O92 C94 1.240 . S
O93 Co66 2.096 . S
O93 C74 1.247 1_655 S
C94 O91 1.244 . S
C94 O92 1.240 . S
H95 C69 0.931 . S
H96 C78 0.931 . S
H97 C82 0.929 1_455 S
H98 C84 0.930 . S
Co99 N103 2.148 . S
Co99 N109 2.128 . S
Co99 N119 2.194 . S
Co99 O124 2.351 . S
Co99 O125 2.155 . S
Co99 O126 2.096 . S
C100 N103 1.301 . S
C100 N104 1.328 . S
C100 H105 0.930 . S
C101 C102 1.333 . S
C101 N103 1.317 . S
C101 H106 0.930 . S
C102 C101 1.333 . S
C102 N104 1.350 . S
C102 H128 0.931 . S
N103 Co99 2.148 . S
N103 C100 1.301 . S
N103 C101 1.317 . S
N104 C100 1.328 . S
N104 C102 1.350 . S
H105 C100 0.930 . S
H106 C101 0.930 . S
C107 O108 1.224 . S
C107 O126 1.247 1_545 S
O108 C107 1.224 . S
N109 Co99 2.128 . S
N109 C110 1.355 . S
N109 C112 1.311 . S
C110 N109 1.355 . S
C110 C111 1.363 . S
C110 H122 0.929 . S
C111 C110 1.363 . S
C111 N113 1.375 . S
C111 H129 0.931 . S
C112 N109 1.311 . S
C112 N113 1.347 . S
C112 H123 0.929 . S
N113 C111 1.375 . S
N113 C112 1.347 . S
C114 C117 1.365 . S
C114 N119 1.328 . S
C114 H120 0.929 . S
C115 C116 1.362 . S
C115 C118 1.378 . S
C115 H130 0.929 1_565 S
C116 C115 1.362 . S
C116 C117 1.366 . S
C117 C114 1.365 . S
C117 C116 1.366 . S
C117 H131 0.930 . S
C118 C115 1.378 . S
C118 N119 1.315 . S
C118 H121 0.930 1_565 S
N119 Co99 2.194 . S
N119 C114 1.328 . S
N119 C118 1.315 . S
H120 C114 0.929 . S
H121 C118 0.930 1_545 S
H122 C110 0.929 . S
H123 C112 0.929 . S
O124 Co99 2.351 . S
O124 C127 1.244 . S
O125 Co99 2.155 . S
O125 C127 1.240 . S
O126 Co99 2.096 . S
O126 C107 1.247 1_565 S
C127 O124 1.244 . S
C127 O125 1.240 . S
H128 C102 0.931 . S
H129 C111 0.931 . S
H130 C115 0.929 1_545 S
H131 C117 0.930 . S
Co132 N136 2.148 . S
Co132 N142 2.128 . S
Co132 N152 2.194 . S
Co132 O157 2.351 . S
Co132 O158 2.155 . S
Co132 O159 2.096 . S
C133 N136 1.301 . S
C133 N137 1.328 . S
C133 H138 0.930 . S
C134 C135 1.333 . S
C134 N136 1.317 . S
C134 H139 0.930 . S
C135 C134 1.333 . S
C135 N137 1.350 . S
C135 H161 0.931 . S
N136 Co132 2.148 . S
N136 C133 1.301 . S
N136 C134 1.317 . S
N137 C133 1.328 . S
N137 C135 1.350 . S
H138 C133 0.930 . S
H139 C134 0.930 . S
C140 O141 1.224 . S
C140 O159 1.247 . S
O141 C140 1.224 . S
N142 Co132 2.128 . S
N142 C143 1.355 . S
N142 C145 1.311 . S
C143 N142 1.355 . S
C143 C144 1.363 . S
C143 H155 0.929 . S
C144 C143 1.363 . S
C144 N146 1.375 . S
C144 H162 0.931 . S
C145 N142 1.311 . S
C145 N146 1.347 . S
C145 H156 0.929 . S
N146 C144 1.375 . S
N146 C145 1.347 . S
C147 C150 1.365 . S
C147 N152 1.328 . S
C147 H153 0.929 . S
C148 C149 1.362 . S
C148 C151 1.378 . S
C148 H163 0.929 . S
C149 C148 1.362 . S
C149 C150 1.366 . S
C150 C147 1.365 . S
C150 C149 1.366 . S
C150 H164 0.930 . S
C151 C148 1.378 . S
C151 N152 1.315 . S
C151 H154 0.930 . S
N152 Co132 2.194 . S
N152 C147 1.328 . S
N152 C151 1.315 . S
H153 C147 0.929 . S
H154 C151 0.930 . S
H155 C143 0.929 . S
H156 C145 0.929 . S
O157 Co132 2.351 . S
O157 C160 1.244 . S
O158 Co132 2.155 . S
O158 C160 1.240 . S
O159 Co132 2.096 . S
O159 C140 1.247 . S
C160 O157 1.244 . S
C160 O158 1.240 . S
H161 C135 0.931 . S
H162 C144 0.931 . S
H163 C148 0.929 . S
H164 C150 0.930 . S
Co165 N169 2.148 . S
Co165 N175 2.128 . S
Co165 N185 2.194 . S
Co165 O190 2.351 . S
Co165 O191 2.155 . S
Co165 O192 2.096 . S
C166 N169 1.301 . S
C166 N170 1.328 . S
C166 H171 0.930 . S
C167 C168 1.333 . S
C167 N169 1.317 . S
C167 H172 0.930 . S
C168 C167 1.333 . S
C168 N170 1.350 . S
C168 H194 0.931 . S
N169 Co165 2.148 . S
N169 C166 1.301 . S
N169 C167 1.317 . S
N170 C166 1.328 . S
N170 C168 1.350 . S
H171 C166 0.930 . S
H172 C167 0.930 . S
C173 O174 1.224 . S
C173 O192 1.247 . S
O174 C173 1.224 . S
N175 Co165 2.128 . S
N175 C176 1.355 . S
N175 C178 1.311 . S
C176 N175 1.355 . S
C176 C177 1.363 . S
C176 H188 0.929 . S
C177 C176 1.363 . S
C177 N179 1.375 . S
C177 H195 0.931 . S
C178 N175 1.311 . S
C178 N179 1.347 . S
C178 H189 0.929 . S
N179 C177 1.375 . S
N179 C178 1.347 . S
C180 C183 1.365 . S
C180 N185 1.328 . S
C180 H186 0.929 . S
C181 C182 1.362 . S
C181 C184 1.378 . S
C181 H196 0.929 . S
C182 C181 1.362 . S
C182 C183 1.366 . S
C183 C180 1.365 . S
C183 C182 1.366 . S
C183 H197 0.930 . S
C184 C181 1.378 . S
C184 N185 1.315 . S
C184 H187 0.930 . S
N185 Co165 2.194 . S
N185 C180 1.328 . S
N185 C184 1.315 . S
H186 C180 0.929 . S
H187 C184 0.930 . S
H188 C176 0.929 . S
H189 C178 0.929 . S
O190 Co165 2.351 . S
O190 C193 1.244 . S
O191 Co165 2.155 . S
O191 C193 1.240 . S
O192 Co165 2.096 . S
O192 C173 1.247 . S
C193 O190 1.244 . S
C193 O191 1.240 . S
H194 C168 0.931 . S
H195 C177 0.931 . S
H196 C181 0.929 . S
H197 C183 0.930 . S
Co198 N202 2.148 . S
Co198 N208 2.128 . S
Co198 N218 2.194 . S
Co198 O223 2.351 . S
Co198 O224 2.155 . S
Co198 O225 2.096 . S
C199 N202 1.301 . S
C199 N203 1.328 . S
C199 H204 0.930 . S
C200 C201 1.333 . S
C200 N202 1.317 . S
C200 H205 0.930 . S
C201 C200 1.333 . S
C201 N203 1.350 . S
C201 H227 0.931 . S
N202 Co198 2.148 . S
N202 C199 1.301 . S
N202 C200 1.317 . S
N203 C199 1.328 . S
N203 C201 1.350 . S
H204 C199 0.930 . S
H205 C200 0.930 . S
C206 O207 1.224 . S
C206 O225 1.247 . S
O207 C206 1.224 . S
N208 Co198 2.128 . S
N208 C209 1.355 . S
N208 C211 1.311 . S
C209 N208 1.355 . S
C209 C210 1.363 . S
C209 H221 0.929 . S
C210 C209 1.363 . S
C210 N212 1.375 . S
C210 H228 0.931 . S
C211 N208 1.311 . S
C211 N212 1.347 . S
C211 H222 0.929 . S
N212 C210 1.375 . S
N212 C211 1.347 . S
C213 C216 1.365 . S
C213 N218 1.328 . S
C213 H219 0.929 . S
C214 C215 1.362 . S
C214 C217 1.378 . S
C214 H229 0.929 . S
C215 C214 1.362 . S
C215 C216 1.366 . S
C216 C213 1.365 . S
C216 C215 1.366 . S
C216 H230 0.930 . S
C217 C214 1.378 . S
C217 N218 1.315 . S
C217 H220 0.930 . S
N218 Co198 2.194 . S
N218 C213 1.328 . S
N218 C217 1.315 . S
H219 C213 0.929 . S
H220 C217 0.930 . S
H221 C209 0.929 . S
H222 C211 0.929 . S
O223 Co198 2.351 . S
O223 C226 1.244 . S
O224 Co198 2.155 . S
O224 C226 1.240 . S
O225 Co198 2.096 . S
O225 C206 1.247 . S
C226 O223 1.244 . S
C226 O224 1.240 . S
H227 C201 0.931 . S
H228 C210 0.931 . S
H229 C214 0.929 . S
H230 C216 0.930 . S
Co231 N235 2.148 . S
Co231 N241 2.128 . S
Co231 N251 2.194 . S
Co231 O256 2.351 . S
Co231 O257 2.155 . S
Co231 O258 2.096 . S
C232 N235 1.301 . S
C232 N236 1.328 . S
C232 H237 0.930 . S
C233 C234 1.333 . S
C233 N235 1.317 . S
C233 H238 0.930 . S
C234 C233 1.333 . S
C234 N236 1.350 . S
C234 H260 0.931 . S
N235 Co231 2.148 . S
N235 C232 1.301 . S
N235 C233 1.317 . S
N236 C232 1.328 . S
N236 C234 1.350 . S
H237 C232 0.930 . S
H238 C233 0.930 . S
C239 O240 1.224 . S
C239 O258 1.247 . S
O240 C239 1.224 . S
N241 Co231 2.128 . S
N241 C242 1.355 . S
N241 C244 1.311 . S
C242 N241 1.355 . S
C242 C243 1.363 . S
C242 H254 0.929 . S
C243 C242 1.363 . S
C243 N245 1.375 . S
C243 H261 0.931 . S
C244 N241 1.311 . S
C244 N245 1.347 . S
C244 H255 0.929 . S
N245 C243 1.375 . S
N245 C244 1.347 . S
C246 C249 1.365 . S
C246 N251 1.328 . S
C246 H252 0.929 . S
C247 C248 1.362 . S
C247 C250 1.378 . S
C247 H262 0.929 . S
C248 C247 1.362 . S
C248 C249 1.366 . S
C249 C246 1.365 . S
C249 C248 1.366 . S
C249 H263 0.930 . S
C250 C247 1.378 . S
C250 N251 1.315 . S
C250 H253 0.930 . S
N251 Co231 2.194 . S
N251 C246 1.328 . S
N251 C250 1.315 . S
H252 C246 0.929 . S
H253 C250 0.930 . S
H254 C242 0.929 . S
H255 C244 0.929 . S
O256 Co231 2.351 . S
O256 C259 1.244 . S
O257 Co231 2.155 . S
O257 C259 1.240 . S
O258 Co231 2.096 . S
O258 C239 1.247 . S
C259 O256 1.244 . S
C259 O257 1.240 . S
H260 C234 0.931 . S
H261 C243 0.931 . S
H262 C247 0.929 . S
H263 C249 0.930 . S
Co264 N268 2.148 . S
Co264 N274 2.128 . S
Co264 N284 2.194 . S
Co264 O289 2.351 . S
Co264 O290 2.155 . S
Co264 O291 2.096 . S
C265 N268 1.301 . S
C265 N269 1.328 . S
C265 H270 0.930 . S
C266 C267 1.333 . S
C266 N268 1.317 . S
C266 H271 0.930 . S
C267 C266 1.333 . S
C267 N269 1.350 . S
C267 H293 0.931 . S
N268 Co264 2.148 . S
N268 C265 1.301 . S
N268 C266 1.317 . S
N269 C265 1.328 . S
N269 C267 1.350 . S
H270 C265 0.930 . S
H271 C266 0.930 . S
C272 O273 1.224 . S
C272 O291 1.247 1_455 S
O273 C272 1.224 . S
N274 Co264 2.128 . S
N274 C275 1.355 . S
N274 C277 1.311 . S
C275 N274 1.355 . S
C275 C276 1.363 . S
C275 H287 0.929 . S
C276 C275 1.363 . S
C276 N278 1.375 . S
C276 H294 0.931 . S
C277 N274 1.311 . S
C277 N278 1.347 . S
C277 H288 0.929 . S
N278 C276 1.375 . S
N278 C277 1.347 . S
C279 C282 1.365 . S
C279 N284 1.328 . S
C279 H285 0.929 . S
C280 C281 1.362 . S
C280 C283 1.378 . S
C280 H295 0.929 1_655 S
C281 C280 1.362 . S
C281 C282 1.366 . S
C282 C279 1.365 . S
C282 C281 1.366 . S
C282 H296 0.930 . S
C283 C280 1.378 . S
C283 N284 1.315 . S
C283 H286 0.930 1_655 S
N284 Co264 2.194 . S
N284 C279 1.328 . S
N284 C283 1.315 . S
H285 C279 0.929 . S
H286 C283 0.930 1_455 S
H287 C275 0.929 . S
H288 C277 0.929 . S
O289 Co264 2.351 . S
O289 C292 1.244 . S
O290 Co264 2.155 . S
O290 C292 1.240 . S
O291 Co264 2.096 . S
O291 C272 1.247 1_655 S
C292 O289 1.244 . S
C292 O290 1.240 . S
H293 C267 0.931 . S
H294 C276 0.931 . S
H295 C280 0.929 1_455 S
H296 C282 0.930 . S
Co297 N301 2.148 . S
Co297 N307 2.128 . S
Co297 N317 2.194 . S
Co297 O322 2.351 . S
Co297 O323 2.155 . S
Co297 O324 2.096 . S
C298 N301 1.301 . S
C298 N302 1.328 . S
C298 H303 0.930 . S
C299 C300 1.333 . S
C299 N301 1.317 . S
C299 H304 0.930 . S
C300 C299 1.333 . S
C300 N302 1.350 . S
C300 H326 0.931 . S
N301 Co297 2.148 . S
N301 C298 1.301 . S
N301 C299 1.317 . S
N302 C298 1.328 . S
N302 C300 1.350 . S
H303 C298 0.930 . S
H304 C299 0.930 . S
C305 O306 1.224 . S
C305 O324 1.247 1_545 S
O306 C305 1.224 . S
N307 Co297 2.128 . S
N307 C308 1.355 . S
N307 C310 1.311 . S
C308 N307 1.355 . S
C308 C309 1.363 . S
C308 H320 0.929 . S
C309 C308 1.363 . S
C309 N311 1.375 . S
C309 H327 0.931 . S
C310 N307 1.311 . S
C310 N311 1.347 . S
C310 H321 0.929 . S
N311 C309 1.375 . S
N311 C310 1.347 . S
C312 C315 1.365 . S
C312 N317 1.328 . S
C312 H318 0.929 . S
C313 C314 1.362 . S
C313 C316 1.378 . S
C313 H328 0.929 1_565 S
C314 C313 1.362 . S
C314 C315 1.366 . S
C315 C312 1.365 . S
C315 C314 1.366 . S
C315 H329 0.930 . S
C316 C313 1.378 . S
C316 N317 1.315 . S
C316 H319 0.930 1_565 S
N317 Co297 2.194 . S
N317 C312 1.328 . S
N317 C316 1.315 . S
H318 C312 0.929 . S
H319 C316 0.930 1_545 S
H320 C308 0.929 . S
H321 C310 0.929 . S
O322 Co297 2.351 . S
O322 C325 1.244 . S
O323 Co297 2.155 . S
O323 C325 1.240 . S
O324 Co297 2.096 . S
O324 C305 1.247 1_565 S
C325 O322 1.244 . S
C325 O323 1.240 . S
H326 C300 0.931 . S
H327 C309 0.931 . S
H328 C313 0.929 1_545 S
H329 C315 0.930 . S
Co330 N334 2.148 . S
Co330 N340 2.128 . S
Co330 N350 2.194 . S
Co330 O355 2.351 . S
Co330 O356 2.155 . S
Co330 O357 2.096 . S
C331 N334 1.301 . S
C331 N335 1.328 . S
C331 H336 0.930 . S
C332 C333 1.333 . S
C332 N334 1.317 . S
C332 H337 0.930 . S
C333 C332 1.333 . S
C333 N335 1.350 . S
C333 H359 0.931 . S
N334 Co330 2.148 . S
N334 C331 1.301 . S
N334 C332 1.317 . S
N335 C331 1.328 . S
N335 C333 1.350 . S
H336 C331 0.930 . S
H337 C332 0.930 . S
C338 O339 1.224 . S
C338 O357 1.247 1_655 S
O339 C338 1.224 . S
N340 Co330 2.128 . S
N340 C341 1.355 . S
N340 C343 1.311 . S
C341 N340 1.355 . S
C341 C342 1.363 . S
C341 H353 0.929 . S
C342 C341 1.363 . S
C342 N344 1.375 . S
C342 H360 0.931 . S
C343 N340 1.311 . S
C343 N344 1.347 . S
C343 H354 0.929 . S
N344 C342 1.375 . S
N344 C343 1.347 . S
C345 C348 1.365 . S
C345 N350 1.328 . S
C345 H351 0.929 . S
C346 C347 1.362 . S
C346 C349 1.378 . S
C346 H361 0.929 1_455 S
C347 C346 1.362 . S
C347 C348 1.366 . S
C348 C345 1.365 . S
C348 C347 1.366 . S
C348 H362 0.930 . S
C349 C346 1.378 . S
C349 N350 1.315 . S
C349 H352 0.930 1_455 S
N350 Co330 2.194 . S
N350 C345 1.328 . S
N350 C349 1.315 . S
H351 C345 0.929 . S
H352 C349 0.930 1_655 S
H353 C341 0.929 . S
H354 C343 0.929 . S
O355 Co330 2.351 . S
O355 C358 1.244 . S
O356 Co330 2.155 . S
O356 C358 1.240 . S
O357 Co330 2.096 . S
O357 C338 1.247 1_455 S
C358 O355 1.244 . S
C358 O356 1.240 . S
H359 C333 0.931 . S
H360 C342 0.931 . S
H361 C346 0.929 1_655 S
H362 C348 0.930 . S
Co363 N367 2.148 . S
Co363 N373 2.128 . S
Co363 N383 2.194 . S
Co363 O388 2.351 . S
Co363 O389 2.155 . S
Co363 O390 2.096 . S
C364 N367 1.301 . S
C364 N368 1.328 . S
C364 H369 0.930 . S
C365 C366 1.333 . S
C365 N367 1.317 . S
C365 H370 0.930 . S
C366 C365 1.333 . S
C366 N368 1.350 . S
C366 H392 0.931 . S
N367 Co363 2.148 . S
N367 C364 1.301 . S
N367 C365 1.317 . S
N368 C364 1.328 . S
N368 C366 1.350 . S
H369 C364 0.930 . S
H370 C365 0.930 . S
C371 O372 1.224 . S
C371 O390 1.247 1_565 S
O372 C371 1.224 . S
N373 Co363 2.128 . S
N373 C374 1.355 . S
N373 C376 1.311 . S
C374 N373 1.355 . S
C374 C375 1.363 . S
C374 H386 0.929 . S
C375 C374 1.363 . S
C375 N377 1.375 . S
C375 H393 0.931 . S
C376 N373 1.311 . S
C376 N377 1.347 . S
C376 H387 0.929 . S
N377 C375 1.375 . S
N377 C376 1.347 . S
C378 C381 1.365 . S
C378 N383 1.328 . S
C378 H384 0.929 . S
C379 C380 1.362 . S
C379 C382 1.378 . S
C379 H394 0.929 1_545 S
C380 C379 1.362 . S
C380 C381 1.366 . S
C381 C378 1.365 . S
C381 C380 1.366 . S
C381 H395 0.930 . S
C382 C379 1.378 . S
C382 N383 1.315 . S
C382 H385 0.930 1_545 S
N383 Co363 2.194 . S
N383 C378 1.328 . S
N383 C382 1.315 . S
H384 C378 0.929 . S
H385 C382 0.930 1_565 S
H386 C374 0.929 . S
H387 C376 0.929 . S
O388 Co363 2.351 . S
O388 C391 1.244 . S
O389 Co363 2.155 . S
O389 C391 1.240 . S
O390 Co363 2.096 . S
O390 C371 1.247 1_545 S
C391 O388 1.244 . S
C391 O389 1.240 . S
H392 C366 0.931 . S
H393 C375 0.931 . S
H394 C379 0.929 1_565 S
H395 C381 0.930 . S
Co396 N400 2.148 . S
Co396 N406 2.128 . S
Co396 N416 2.194 . S
Co396 O421 2.351 . S
Co396 O422 2.155 . S
Co396 O423 2.096 . S
C397 N400 1.301 . S
C397 N401 1.328 . S
C397 H402 0.930 . S
C398 C399 1.333 . S
C398 N400 1.317 . S
C398 H403 0.930 . S
C399 C398 1.333 . S
C399 N401 1.350 . S
C399 H425 0.931 . S
N400 Co396 2.148 . S
N400 C397 1.301 . S
N400 C398 1.317 . S
N401 C397 1.328 . S
N401 C399 1.350 . S
H402 C397 0.930 . S
H403 C398 0.930 . S
C404 O405 1.224 . S
C404 O423 1.247 . S
O405 C404 1.224 . S
N406 Co396 2.128 . S
N406 C407 1.355 . S
N406 C409 1.311 . S
C407 N406 1.355 . S
C407 C408 1.363 . S
C407 H419 0.929 . S
C408 C407 1.363 . S
C408 N410 1.375 . S
C408 H426 0.931 . S
C409 N406 1.311 . S
C409 N410 1.347 . S
C409 H420 0.929 . S
N410 C408 1.375 . S
N410 C409 1.347 . S
C411 C414 1.365 . S
C411 N416 1.328 . S
C411 H417 0.929 . S
C412 C413 1.362 . S
C412 C415 1.378 . S
C412 H427 0.929 . S
C413 C412 1.362 . S
C413 C414 1.366 . S
C414 C411 1.365 . S
C414 C413 1.366 . S
C414 H428 0.930 . S
C415 C412 1.378 . S
C415 N416 1.315 . S
C415 H418 0.930 . S
N416 Co396 2.194 . S
N416 C411 1.328 . S
N416 C415 1.315 . S
H417 C411 0.929 . S
H418 C415 0.930 . S
H419 C407 0.929 . S
H420 C409 0.929 . S
O421 Co396 2.351 . S
O421 C424 1.244 . S
O422 Co396 2.155 . S
O422 C424 1.240 . S
O423 Co396 2.096 . S
O423 C404 1.247 . S
C424 O421 1.244 . S
C424 O422 1.240 . S
H425 C399 0.931 . S
H426 C408 0.931 . S
H427 C412 0.929 . S
H428 C414 0.930 . S
Co429 N433 2.148 . S
Co429 N439 2.128 . S
Co429 N449 2.194 . S
Co429 O454 2.351 . S
Co429 O455 2.155 . S
Co429 O456 2.096 . S
C430 N433 1.301 . S
C430 N434 1.328 . S
C430 H435 0.930 . S
C431 C432 1.333 . S
C431 N433 1.317 . S
C431 H436 0.930 . S
C432 C431 1.333 . S
C432 N434 1.350 . S
C432 H458 0.931 . S
N433 Co429 2.148 . S
N433 C430 1.301 . S
N433 C431 1.317 . S
N434 C430 1.328 . S
N434 C432 1.350 . S
H435 C430 0.930 . S
H436 C431 0.930 . S
C437 O438 1.224 . S
C437 O456 1.247 . S
O438 C437 1.224 . S
N439 Co429 2.128 . S
N439 C440 1.355 . S
N439 C442 1.311 . S
C440 N439 1.355 . S
C440 C441 1.363 . S
C440 H452 0.929 . S
C441 C440 1.363 . S
C441 N443 1.375 . S
C441 H459 0.931 . S
C442 N439 1.311 . S
C442 N443 1.347 . S
C442 H453 0.929 . S
N443 C441 1.375 . S
N443 C442 1.347 . S
C444 C447 1.365 . S
C444 N449 1.328 . S
C444 H450 0.929 . S
C445 C446 1.362 . S
C445 C448 1.378 . S
C445 H460 0.929 . S
C446 C445 1.362 . S
C446 C447 1.366 . S
C447 C444 1.365 . S
C447 C446 1.366 . S
C447 H461 0.930 . S
C448 C445 1.378 . S
C448 N449 1.315 . S
C448 H451 0.930 . S
N449 Co429 2.194 . S
N449 C444 1.328 . S
N449 C448 1.315 . S
H450 C444 0.929 . S
H451 C448 0.930 . S
H452 C440 0.929 . S
H453 C442 0.929 . S
O454 Co429 2.351 . S
O454 C457 1.244 . S
O455 Co429 2.155 . S
O455 C457 1.240 . S
O456 Co429 2.096 . S
O456 C437 1.247 . S
C457 O454 1.244 . S
C457 O455 1.240 . S
H458 C432 0.931 . S
H459 C441 0.931 . S
H460 C445 0.929 . S
H461 C447 0.930 . S
Co462 N466 2.148 . S
Co462 N472 2.128 . S
Co462 N482 2.194 . S
Co462 O487 2.351 . S
Co462 O488 2.155 . S
Co462 O489 2.096 . S
C463 N466 1.301 . S
C463 N467 1.328 . S
C463 H468 0.930 . S
C464 C465 1.333 . S
C464 N466 1.317 . S
C464 H469 0.930 . S
C465 C464 1.333 . S
C465 N467 1.350 . S
C465 H491 0.931 . S
N466 Co462 2.148 . S
N466 C463 1.301 . S
N466 C464 1.317 . S
N467 C463 1.328 . S
N467 C465 1.350 . S
H468 C463 0.930 . S
H469 C464 0.930 . S
C470 O471 1.224 . S
C470 O489 1.247 . S
O471 C470 1.224 . S
N472 Co462 2.128 . S
N472 C473 1.355 . S
N472 C475 1.311 . S
C473 N472 1.355 . S
C473 C474 1.363 . S
C473 H485 0.929 . S
C474 C473 1.363 . S
C474 N476 1.375 . S
C474 H492 0.931 . S
C475 N472 1.311 . S
C475 N476 1.347 . S
C475 H486 0.929 . S
N476 C474 1.375 . S
N476 C475 1.347 . S
C477 C480 1.365 . S
C477 N482 1.328 . S
C477 H483 0.929 . S
C478 C479 1.362 . S
C478 C481 1.378 . S
C478 H493 0.929 . S
C479 C478 1.362 . S
C479 C480 1.366 . S
C480 C477 1.365 . S
C480 C479 1.366 . S
C480 H494 0.930 . S
C481 C478 1.378 . S
C481 N482 1.315 . S
C481 H484 0.930 . S
N482 Co462 2.194 . S
N482 C477 1.328 . S
N482 C481 1.315 . S
H483 C477 0.929 . S
H484 C481 0.930 . S
H485 C473 0.929 . S
H486 C475 0.929 . S
O487 Co462 2.351 . S
O487 C490 1.244 . S
O488 Co462 2.155 . S
O488 C490 1.240 . S
O489 Co462 2.096 . S
O489 C470 1.247 . S
C490 O487 1.244 . S
C490 O488 1.240 . S
H491 C465 0.931 . S
H492 C474 0.931 . S
H493 C478 0.929 . S
H494 C480 0.930 . S
Co495 N499 2.148 . S
Co495 N505 2.128 . S
Co495 N515 2.194 . S
Co495 O520 2.351 . S
Co495 O521 2.155 . S
Co495 O522 2.096 . S
C496 N499 1.301 . S
C496 N500 1.328 . S
C496 H501 0.930 . S
C497 C498 1.333 . S
C497 N499 1.317 . S
C497 H502 0.930 . S
C498 C497 1.333 . S
C498 N500 1.350 . S
C498 H524 0.931 . S
N499 Co495 2.148 . S
N499 C496 1.301 . S
N499 C497 1.317 . S
N500 C496 1.328 . S
N500 C498 1.350 . S
H501 C496 0.930 . S
H502 C497 0.930 . S
C503 O504 1.224 . S
C503 O522 1.247 . S
O504 C503 1.224 . S
N505 Co495 2.128 . S
N505 C506 1.355 . S
N505 C508 1.311 . S
C506 N505 1.355 . S
C506 C507 1.363 . S
C506 H518 0.929 . S
C507 C506 1.363 . S
C507 N509 1.375 . S
C507 H525 0.931 . S
C508 N505 1.311 . S
C508 N509 1.347 . S
C508 H519 0.929 . S
N509 C507 1.375 . S
N509 C508 1.347 . S
C510 C513 1.365 . S
C510 N515 1.328 . S
C510 H516 0.929 . S
C511 C512 1.362 . S
C511 C514 1.378 . S
C511 H526 0.929 . S
C512 C511 1.362 . S
C512 C513 1.366 . S
C513 C510 1.365 . S
C513 C512 1.366 . S
C513 H527 0.930 . S
C514 C511 1.378 . S
C514 N515 1.315 . S
C514 H517 0.930 . S
N515 Co495 2.194 . S
N515 C510 1.328 . S
N515 C514 1.315 . S
H516 C510 0.929 . S
H517 C514 0.930 . S
H518 C506 0.929 . S
H519 C508 0.929 . S
O520 Co495 2.351 . S
O520 C523 1.244 . S
O521 Co495 2.155 . S
O521 C523 1.240 . S
O522 Co495 2.096 . S
O522 C503 1.247 . S
C523 O520 1.244 . S
C523 O521 1.240 . S
H524 C498 0.931 . S
H525 C507 0.931 . S
H526 C511 0.929 . S
H527 C513 0.930 . S
C528 C529 1.369 . S
C528 C530 1.419 . S
C528 H532 0.930 . S
C529 C528 1.369 . S
C529 C538 1.429 . S
C530 C528 1.419 . S
C530 C531 1.363 . S
C530 H533 0.929 . S
C531 C530 1.363 . S
C531 C537 1.428 . S
H532 C528 0.930 . S
H533 C530 0.929 . S
S534 N535 1.613 . S
S534 N536 1.610 . S
N535 S534 1.613 . S
N535 C538 1.350 . S
N536 S534 1.610 . S
N536 C537 1.351 . S
C537 C531 1.428 . S
C537 N536 1.351 . S
C537 C538 1.434 . S
C538 C529 1.429 . S
C538 N535 1.350 . S
C538 C537 1.434 . S
C539 C540 1.369 . S
C539 C541 1.419 . S
C539 H543 0.930 . S
C540 C539 1.369 . S
C540 C549 1.429 . S
C541 C539 1.419 . S
C541 C542 1.363 . S
C541 H544 0.929 . S
C542 C541 1.363 . S
C542 C548 1.428 . S
H543 C539 0.930 . S
H544 C541 0.929 . S
S545 N546 1.613 . S
S545 N547 1.610 . S
N546 S545 1.613 . S
N546 C549 1.350 . S
N547 S545 1.610 . S
N547 C548 1.351 . S
C548 C542 1.428 . S
C548 N547 1.351 . S
C548 C549 1.434 . S
C549 C540 1.429 . S
C549 N546 1.350 . S
C549 C548 1.434 . S
C550 C551 1.369 . S
C550 C552 1.419 . S
C550 H554 0.930 . S
C551 C550 1.369 . S
C551 C560 1.429 . S
C552 C550 1.419 . S
C552 C553 1.363 . S
C552 H555 0.929 . S
C553 C552 1.363 . S
C553 C559 1.428 . S
H554 C550 0.930 . S
H555 C552 0.929 . S
S556 N557 1.613 . S
S556 N558 1.610 . S
N557 S556 1.613 . S
N557 C560 1.350 . S
N558 S556 1.610 . S
N558 C559 1.351 . S
C559 C553 1.428 . S
C559 N558 1.351 . S
C559 C560 1.434 . S
C560 C551 1.429 . S
C560 N557 1.350 . S
C560 C559 1.434 . S
C561 C562 1.369 . S
C561 C563 1.419 . S
C561 H565 0.930 . S
C562 C561 1.369 . S
C562 C571 1.429 . S
C563 C561 1.419 . S
C563 C564 1.363 . S
C563 H566 0.929 . S
C564 C563 1.363 . S
C564 C570 1.428 . S
H565 C561 0.930 . S
H566 C563 0.929 . S
S567 N568 1.613 . S
S567 N569 1.610 . S
N568 S567 1.613 . S
N568 C571 1.350 . S
N569 S567 1.610 . S
N569 C570 1.351 . S
C570 C564 1.428 . S
C570 N569 1.351 . S
C570 C571 1.434 . S
C571 C562 1.429 . S
C571 N568 1.350 . S
C571 C570 1.434 . S
C572 C573 1.369 . S
C572 C574 1.419 . S
C572 H576 0.930 . S
C573 C572 1.369 . S
C573 C582 1.429 . S
C574 C572 1.419 . S
C574 C575 1.363 . S
C574 H577 0.929 . S
C575 C574 1.363 . S
C575 C581 1.428 . S
H576 C572 0.930 . S
H577 C574 0.929 . S
S578 N579 1.613 . S
S578 N580 1.610 . S
N579 S578 1.613 . S
N579 C582 1.350 . S
N580 S578 1.610 . S
N580 C581 1.351 . S
C581 C575 1.428 . S
C581 N580 1.351 . S
C581 C582 1.434 . S
C582 C573 1.429 . S
C582 N579 1.350 . S
C582 C581 1.434 . S
C583 C584 1.369 . S
C583 C585 1.419 . S
C583 H587 0.930 . S
C584 C583 1.369 . S
C584 C593 1.429 . S
C585 C583 1.419 . S
C585 C586 1.363 . S
C585 H588 0.929 . S
C586 C585 1.363 . S
C586 C592 1.428 . S
H587 C583 0.930 . S
H588 C585 0.929 . S
S589 N590 1.613 . S
S589 N591 1.610 . S
N590 S589 1.613 . S
N590 C593 1.350 . S
N591 S589 1.610 . S
N591 C592 1.351 . S
C592 C586 1.428 . S
C592 N591 1.351 . S
C592 C593 1.434 . S
C593 C584 1.429 . S
C593 N590 1.350 . S
C593 C592 1.434 . S
C594 C595 1.369 . S
C594 C596 1.419 . S
C594 H598 0.930 . S
C595 C594 1.369 . S
C595 C604 1.429 . S
C596 C594 1.419 . S
C596 C597 1.363 . S
C596 H599 0.929 . S
C597 C596 1.363 . S
C597 C603 1.428 . S
H598 C594 0.930 . S
H599 C596 0.929 . S
S600 N601 1.613 . S
S600 N602 1.610 . S
N601 S600 1.613 . S
N601 C604 1.350 . S
N602 S600 1.610 . S
N602 C603 1.351 . S
C603 C597 1.428 . S
C603 N602 1.351 . S
C603 C604 1.434 . S
C604 C595 1.429 . S
C604 N601 1.350 . S
C604 C603 1.434 . S
C605 C606 1.369 . S
C605 C607 1.419 . S
C605 H609 0.930 . S
C606 C605 1.369 . S
C606 C615 1.429 . S
C607 C605 1.419 . S
C607 C608 1.363 . S
C607 H610 0.929 . S
C608 C607 1.363 . S
C608 C614 1.428 . S
H609 C605 0.930 . S
H610 C607 0.929 . S
S611 N612 1.613 . S
S611 N613 1.610 . S
N612 S611 1.613 . S
N612 C615 1.350 . S
N613 S611 1.610 . S
N613 C614 1.351 . S
C614 C608 1.428 . S
C614 N613 1.351 . S
C614 C615 1.434 . S
C615 C606 1.429 . S
C615 N612 1.350 . S
C615 C614 1.434 . S
C616 C617 1.369 . S
C616 C618 1.419 1_554 S
C616 H620 0.930 . S
C617 C616 1.369 . S
C617 C626 1.429 . S
C618 C616 1.419 1_556 S
C618 C619 1.363 . S
C618 H621 0.929 . S
C619 C618 1.363 . S
C619 C625 1.428 . S
H620 C616 0.930 . S
H621 C618 0.929 . S
S622 N623 1.617 1_556 S
S622 N624 1.607 . S
N623 S622 1.617 1_554 S
N623 C626 1.350 . S
N624 S622 1.607 . S
N624 C625 1.351 . S
C625 C619 1.428 . S
C625 N624 1.351 . S
C625 C626 1.434 1_556 S
C626 C617 1.429 . S
C626 N623 1.350 . S
C626 C625 1.434 1_554 S
C627 C628 1.369 . S
C627 C629 1.419 . S
C627 H631 0.930 . S
C628 C627 1.369 . S
C628 C637 1.429 . S
C629 C627 1.419 . S
C629 C630 1.363 . S
C629 H632 0.929 . S
C630 C629 1.363 . S
C630 C636 1.428 . S
H631 C627 0.930 . S
H632 C629 0.929 . S
S633 N634 1.613 . S
S633 N635 1.610 . S
N634 S633 1.613 . S
N634 C637 1.350 . S
N635 S633 1.610 . S
N635 C636 1.351 . S
C636 C630 1.428 . S
C636 N635 1.351 . S
C636 C637 1.434 . S
C637 C628 1.429 . S
C637 N634 1.350 . S
C637 C636 1.434 . S
C638 C639 1.369 . S
C638 C640 1.419 1_556 S
C638 H642 0.930 . S
C639 C638 1.369 . S
C639 C648 1.429 . S
C640 C638 1.419 1_554 S
C640 C641 1.363 . S
C640 H643 0.929 . S
C641 C640 1.363 . S
C641 C647 1.428 . S
H642 C638 0.930 . S
H643 C640 0.929 . S
S644 N645 1.617 1_454 S
S644 N646 1.607 1_455 S
N645 S644 1.617 1_656 S
N645 C648 1.350 . S
N646 S644 1.607 1_655 S
N646 C647 1.351 . S
C647 C641 1.428 . S
C647 N646 1.351 . S
C647 C648 1.434 1_554 S
C648 C639 1.429 . S
C648 N645 1.350 . S
C648 C647 1.434 1_556 S
C649 C650 1.369 . S
C649 C651 1.419 . S
C649 H653 0.930 . S
C650 C649 1.369 . S
C650 C659 1.429 . S
C651 C649 1.419 . S
C651 C652 1.363 . S
C651 H654 0.929 . S
C652 C651 1.363 . S
C652 C658 1.428 . S
H653 C649 0.930 . S
H654 C651 0.929 . S
S655 N656 1.613 1_545 S
S655 N657 1.610 1_545 S
N656 S655 1.613 1_565 S
N656 C659 1.350 . S
N657 S655 1.610 1_565 S
N657 C658 1.351 . S
C658 C652 1.428 . S
C658 N657 1.351 . S
C658 C659 1.434 . S
C659 C650 1.429 . S
C659 N656 1.350 . S
C659 C658 1.434 . S
C660 C661 1.369 . S
C660 C662 1.419 1_554 S
C660 H664 0.930 . S
C661 C660 1.369 . S
C661 C670 1.429 . S
C662 C660 1.419 1_556 S
C662 C663 1.363 . S
C662 H665 0.929 . S
C663 C662 1.363 . S
C663 C669 1.428 . S
H664 C660 0.930 . S
H665 C662 0.929 . S
S666 N667 1.617 1_556 S
S666 N668 1.607 . S
N667 S666 1.617 1_554 S
N667 C670 1.350 . S
N668 S666 1.607 . S
N668 C669 1.351 . S
C669 C663 1.428 . S
C669 N668 1.351 . S
C669 C670 1.434 1_556 S
C670 C661 1.429 . S
C670 N667 1.350 . S
C670 C669 1.434 1_554 S
C671 C672 1.369 . S
C671 C673 1.419 . S
C671 H675 0.930 . S
C672 C671 1.369 . S
C672 C681 1.429 . S
C673 C671 1.419 . S
C673 C674 1.363 . S
C673 H676 0.929 . S
C674 C673 1.363 . S
C674 C680 1.428 . S
H675 C671 0.930 . S
H676 C673 0.929 . S
S677 N678 1.613 . S
S677 N679 1.610 . S
N678 S677 1.613 . S
N678 C681 1.350 . S
N679 S677 1.610 . S
N679 C680 1.351 . S
C680 C674 1.428 . S
C680 N679 1.351 . S
C680 C681 1.434 . S
C681 C672 1.429 . S
C681 N678 1.350 . S
C681 C680 1.434 . S
C682 C683 1.369 . S
C682 C684 1.419 1_554 S
C682 H686 0.930 . S
C683 C682 1.369 . S
C683 C692 1.429 . S
C684 C682 1.419 1_556 S
C684 C685 1.363 . S
C684 H687 0.929 . S
C685 C684 1.363 . S
C685 C691 1.428 . S
H686 C682 0.930 . S
H687 C684 0.929 . S
S688 N689 1.617 1_556 S
S688 N690 1.607 . S
N689 S688 1.617 1_554 S
N689 C692 1.350 . S
N690 S688 1.607 . S
N690 C691 1.351 . S
C691 C685 1.428 . S
C691 N690 1.351 . S
C691 C692 1.434 1_556 S
C692 C683 1.429 . S
C692 N689 1.350 . S
C692 C691 1.434 1_554 S
C693 C694 1.369 . S
C693 C695 1.419 . S
C693 H697 0.930 . S
C694 C693 1.369 . S
C694 C703 1.429 . S
C695 C693 1.419 . S
C695 C696 1.363 . S
C695 H698 0.929 . S
C696 C695 1.363 . S
C696 C702 1.428 . S
H697 C693 0.930 . S
H698 C695 0.929 . S
S699 N700 1.613 . S
S699 N701 1.610 . S
N700 S699 1.613 . S
N700 C703 1.350 . S
N701 S699 1.610 . S
N701 C702 1.351 . S
C702 C696 1.428 . S
C702 N701 1.351 . S
C702 C703 1.434 . S
C703 C694 1.429 . S
C703 N700 1.350 . S
C703 C702 1.434 . S
C704 C705 1.369 . S
C704 C706 1.419 1_455 S
C704 H708 0.930 . S
C705 C704 1.369 . S
C705 C714 1.429 . S
C706 C704 1.419 1_655 S
C706 C707 1.363 . S
C706 H709 0.929 . S
C707 C706 1.363 . S
C707 C713 1.428 . S
H708 C704 0.930 . S
H709 C706 0.929 . S
S710 N711 1.613 . S
S710 N712 1.610 1_455 S
N711 S710 1.613 . S
N711 C714 1.350 . S
N712 S710 1.610 1_655 S
N712 C713 1.351 . S
C713 C707 1.428 . S
C713 N712 1.351 . S
C713 C714 1.434 1_655 S
C714 C705 1.429 . S
C714 N711 1.350 . S
C714 C713 1.434 1_455 S
C715 C716 1.369 . S
C715 C717 1.419 1_565 S
C715 H719 0.930 . S
C716 C715 1.369 . S
C716 C725 1.429 . S
C717 C715 1.419 1_545 S
C717 C718 1.363 . S
C717 H720 0.929 . S
C718 C717 1.363 . S
C718 C724 1.428 . S
H719 C715 0.930 . S
H720 C717 0.929 . S
S721 N722 1.613 1_545 S
S721 N723 1.610 . S
N722 S721 1.613 1_565 S
N722 C725 1.350 . S
N723 S721 1.610 . S
N723 C724 1.351 . S
C724 C718 1.428 . S
C724 N723 1.351 . S
C724 C725 1.434 1_545 S
C725 C716 1.429 . S
C725 N722 1.350 . S
C725 C724 1.434 1_565 S
C726 C727 1.369 . S
C726 C728 1.419 . S
C726 H730 0.930 . S
C727 C726 1.369 . S
C727 C736 1.429 1_565 S
C728 C726 1.419 . S
C728 C729 1.363 1_565 S
C728 H731 0.929 . S
C729 C728 1.363 1_545 S
C729 C735 1.428 . S
H730 C726 0.930 . S
H731 C728 0.929 . S
S732 N733 1.613 . S
S732 N734 1.610 . S
N733 S732 1.613 . S
N733 C736 1.350 . S
N734 S732 1.610 . S
N734 C735 1.351 . S
C735 C729 1.428 . S
C735 N734 1.351 . S
C735 C736 1.434 . S
C736 C727 1.429 1_545 S
C736 N733 1.350 . S
C736 C735 1.434 . S
C737 C738 1.369 . S
C737 C739 1.419 1_455 S
C737 H741 0.930 . S
C738 C737 1.369 . S
C738 C747 1.429 . S
C739 C737 1.419 1_655 S
C739 C740 1.363 . S
C739 H742 0.929 . S
C740 C739 1.363 . S
C740 C746 1.428 . S
H741 C737 0.930 . S
H742 C739 0.929 . S
S743 N744 1.613 . S
S743 N745 1.610 1_455 S
N744 S743 1.613 . S
N744 C747 1.350 . S
N745 S743 1.610 1_655 S
N745 C746 1.351 . S
C746 C740 1.428 . S
C746 N745 1.351 . S
C746 C747 1.434 1_655 S
C747 C738 1.429 . S
C747 N744 1.350 . S
C747 C746 1.434 1_455 S
C748 C749 1.369 . S
C748 C750 1.419 1_655 S
C748 H752 0.930 . S
C749 C748 1.369 . S
C749 C758 1.429 . S
C750 C748 1.419 1_455 S
C750 C751 1.363 . S
C750 H753 0.929 . S
C751 C750 1.363 . S
C751 C757 1.428 . S
H752 C748 0.930 . S
H753 C750 0.929 . S
S754 N755 1.613 . S
S754 N756 1.610 1_655 S
N755 S754 1.613 . S
N755 C758 1.350 . S
N756 S754 1.610 1_455 S
N756 C757 1.351 . S
C757 C751 1.428 . S
C757 N756 1.351 . S
C757 C758 1.434 1_455 S
C758 C749 1.429 . S
C758 N755 1.350 . S
C758 C757 1.434 1_655 S
C759 C760 1.369 . S
C759 C761 1.419 1_545 S
C759 H763 0.930 . S
C760 C759 1.369 . S
C760 C769 1.429 . S
C761 C759 1.419 1_565 S
C761 C762 1.363 . S
C761 H764 0.929 . S
C762 C761 1.363 . S
C762 C768 1.428 . S
H763 C759 0.930 . S
H764 C761 0.929 . S
S765 N766 1.613 1_565 S
S765 N767 1.610 . S
N766 S765 1.613 1_545 S
N766 C769 1.350 . S
N767 S765 1.610 . S
N767 C768 1.351 . S
C768 C762 1.428 . S
C768 N767 1.351 . S
C768 C769 1.434 1_565 S
C769 C760 1.429 . S
C769 N766 1.350 . S
C769 C768 1.434 1_545 S
C770 C771 1.369 1_545 S
C770 C772 1.419 . S
C770 H774 0.930 . S
C771 C770 1.369 1_565 S
C771 C780 1.429 . S
C772 C770 1.419 . S
C772 C773 1.363 . S
C772 H775 0.929 . S
C773 C772 1.363 . S
C773 C779 1.428 1_545 S
H774 C770 0.930 . S
H775 C772 0.929 . S
S776 N777 1.613 . S
S776 N778 1.610 . S
N777 S776 1.613 . S
N777 C780 1.350 . S
N778 S776 1.610 . S
N778 C779 1.351 . S
C779 C773 1.428 1_565 S
C779 N778 1.351 . S
C779 C780 1.434 . S
C780 C771 1.429 . S
C780 N777 1.350 . S
C780 C779 1.434 . S
C781 C782 1.369 . S
C781 C783 1.419 . S
C781 H785 0.930 . S
C782 C781 1.369 . S
C782 C791 1.429 1_455 S
C783 C781 1.419 . S
C783 C784 1.363 1_455 S
C783 H786 0.929 . S
C784 C783 1.363 1_655 S
C784 C790 1.428 . S
H785 C781 0.930 . S
H786 C783 0.929 . S
S787 N788 1.613 . S
S787 N789 1.610 . S
N788 S787 1.613 . S
N788 C791 1.350 . S
N789 S787 1.610 . S
N789 C790 1.351 . S
C790 C784 1.428 . S
C790 N789 1.351 . S
C790 C791 1.434 . S
C791 C782 1.429 1_655 S
C791 N788 1.350 . S
C791 C790 1.434 . S
C792 C793 1.369 . S
C792 C794 1.419 . S
C792 H796 0.930 . S
C793 C792 1.369 . S
C793 C802 1.429 . S
C794 C792 1.419 . S
C794 C795 1.363 . S
C794 H797 0.929 . S
C795 C794 1.363 . S
C795 C801 1.428 . S
H796 C792 0.930 . S
H797 C794 0.929 . S
S798 N799 1.613 . S
S798 N800 1.610 . S
N799 S798 1.613 . S
N799 C802 1.350 . S
N800 S798 1.610 . S
N800 C801 1.351 . S
C801 C795 1.428 . S
C801 N800 1.351 . S
C801 C802 1.434 . S
C802 C793 1.429 . S
C802 N799 1.350 . S
C802 C801 1.434 . S
C803 C804 1.369 . S
C803 C805 1.419 . S
C803 H807 0.930 . S
C804 C803 1.369 . S
C804 C813 1.429 . S
C805 C803 1.419 . S
C805 C806 1.363 . S
C805 H808 0.929 . S
C806 C805 1.363 . S
C806 C812 1.428 . S
H807 C803 0.930 . S
H808 C805 0.929 . S
S809 N810 1.613 . S
S809 N811 1.610 . S
N810 S809 1.613 . S
N810 C813 1.350 . S
N811 S809 1.610 . S
N811 C812 1.351 . S
C812 C806 1.428 . S
C812 N811 1.351 . S
C812 C813 1.434 . S
C813 C804 1.429 . S
C813 N810 1.350 . S
C813 C812 1.434 . S
C814 C815 1.369 . S
C814 C816 1.419 . S
C814 H818 0.930 . S
C815 C814 1.369 . S
C815 C824 1.429 . S
C816 C814 1.419 . S
C816 C817 1.363 . S
C816 H819 0.929 . S
C817 C816 1.363 . S
C817 C823 1.428 . S
H818 C814 0.930 . S
H819 C816 0.929 . S
S820 N821 1.613 . S
S820 N822 1.610 . S
N821 S820 1.613 . S
N821 C824 1.350 . S
N822 S820 1.610 . S
N822 C823 1.351 . S
C823 C817 1.428 . S
C823 N822 1.351 . S
C823 C824 1.434 . S
C824 C815 1.429 . S
C824 N821 1.350 . S
C824 C823 1.434 . S
C825 C826 1.369 . S
C825 C827 1.419 . S
C825 H829 0.930 . S
C826 C825 1.369 . S
C826 C835 1.429 . S
C827 C825 1.419 . S
C827 C828 1.363 . S
C827 H830 0.929 . S
C828 C827 1.363 . S
C828 C834 1.428 . S
H829 C825 0.930 . S
H830 C827 0.929 . S
S831 N832 1.613 . S
S831 N833 1.610 . S
N832 S831 1.613 . S
N832 C835 1.350 . S
N833 S831 1.610 . S
N833 C834 1.351 . S
C834 C828 1.428 . S
C834 N833 1.351 . S
C834 C835 1.434 . S
C835 C826 1.429 . S
C835 N832 1.350 . S
C835 C834 1.434 . S
C836 C837 1.369 . S
C836 C838 1.419 . S
C836 H840 0.930 . S
C837 C836 1.369 . S
C837 C846 1.429 . S
C838 C836 1.419 . S
C838 C839 1.363 . S
C838 H841 0.929 . S
C839 C838 1.363 . S
C839 C845 1.428 . S
H840 C836 0.930 . S
H841 C838 0.929 . S
S842 N843 1.613 . S
S842 N844 1.610 . S
N843 S842 1.613 . S
N843 C846 1.350 . S
N844 S842 1.610 . S
N844 C845 1.351 . S
C845 C839 1.428 . S
C845 N844 1.351 . S
C845 C846 1.434 . S
C846 C837 1.429 . S
C846 N843 1.350 . S
C846 C845 1.434 . S
C847 C848 1.369 . S
C847 C849 1.419 . S
C847 H851 0.930 . S
C848 C847 1.369 . S
C848 C857 1.429 . S
C849 C847 1.419 . S
C849 C850 1.363 . S
C849 H852 0.929 . S
C850 C849 1.363 . S
C850 C856 1.428 . S
H851 C847 0.930 . S
H852 C849 0.929 . S
S853 N854 1.613 . S
S853 N855 1.610 . S
N854 S853 1.613 . S
N854 C857 1.350 . S
N855 S853 1.610 . S
N855 C856 1.351 . S
C856 C850 1.428 . S
C856 N855 1.351 . S
C856 C857 1.434 . S
C857 C848 1.429 . S
C857 N854 1.350 . S
C857 C856 1.434 . S
C858 C859 1.369 . S
C858 C860 1.419 . S
C858 H862 0.930 . S
C859 C858 1.369 . S
C859 C868 1.429 . S
C860 C858 1.419 . S
C860 C861 1.363 . S
C860 H863 0.929 . S
C861 C860 1.363 . S
C861 C867 1.428 . S
H862 C858 0.930 . S
H863 C860 0.929 . S
S864 N865 1.613 . S
S864 N866 1.610 . S
N865 S864 1.613 . S
N865 C868 1.350 . S
N866 S864 1.610 . S
N866 C867 1.351 . S
C867 C861 1.428 . S
C867 N866 1.351 . S
C867 C868 1.434 . S
C868 C859 1.429 . S
C868 N865 1.350 . S
C868 C867 1.434 . S
C869 C870 1.369 . S
C869 C871 1.419 . S
C869 H873 0.930 . S
C870 C869 1.369 . S
C870 C879 1.429 . S
C871 C869 1.419 . S
C871 C872 1.363 . S
C871 H874 0.929 . S
C872 C871 1.363 . S
C872 C878 1.428 . S
H873 C869 0.930 . S
H874 C871 0.929 . S
S875 N876 1.613 . S
S875 N877 1.610 . S
N876 S875 1.613 . S
N876 C879 1.350 . S
N877 S875 1.610 . S
N877 C878 1.351 . S
C878 C872 1.428 . S
C878 N877 1.351 . S
C878 C879 1.434 . S
C879 C870 1.429 . S
C879 N876 1.350 . S
C879 C878 1.434 . S
C880 C881 1.369 . S
C880 C882 1.419 . S
C880 H884 0.930 . S
C881 C880 1.369 . S
C881 C890 1.429 . S
C882 C880 1.419 . S
C882 C883 1.363 . S
C882 H885 0.929 . S
C883 C882 1.363 . S
C883 C889 1.428 . S
H884 C880 0.930 . S
H885 C882 0.929 . S
S886 N887 1.613 . S
S886 N888 1.610 . S
N887 S886 1.613 . S
N887 C890 1.350 . S
N888 S886 1.610 . S
N888 C889 1.351 . S
C889 C883 1.428 . S
C889 N888 1.351 . S
C889 C890 1.434 . S
C890 C881 1.429 . S
C890 N887 1.350 . S
C890 C889 1.434 . S
C891 C892 1.369 . S
C891 C893 1.419 . S
C891 H895 0.930 . S
C892 C891 1.369 . S
C892 C901 1.429 . S
C893 C891 1.419 . S
C893 C894 1.363 . S
C893 H896 0.929 . S
C894 C893 1.363 . S
C894 C900 1.428 . S
H895 C891 0.930 . S
H896 C893 0.929 . S
S897 N898 1.613 . S
S897 N899 1.610 . S
N898 S897 1.613 . S
N898 C901 1.350 . S
N899 S897 1.610 . S
N899 C900 1.351 . S
C900 C894 1.428 . S
C900 N899 1.351 . S
C900 C901 1.434 . S
C901 C892 1.429 . S
C901 N898 1.350 . S
C901 C900 1.434 . S
C902 C903 1.369 . S
C902 C904 1.419 . S
C902 H906 0.930 . S
C903 C902 1.369 . S
C903 C912 1.429 . S
C904 C902 1.419 . S
C904 C905 1.363 . S
C904 H907 0.929 . S
C905 C904 1.363 . S
C905 C911 1.428 . S
H906 C902 0.930 . S
H907 C904 0.929 . S
S908 N909 1.613 . S
S908 N910 1.610 . S
N909 S908 1.613 . S
N909 C912 1.350 . S
N910 S908 1.610 . S
N910 C911 1.351 . S
C911 C905 1.428 . S
C911 N910 1.351 . S
C911 C912 1.434 . S
C912 C903 1.429 . S
C912 N909 1.350 . S
C912 C911 1.434 . S
C913 C914 1.369 . S
C913 C915 1.419 . S
C913 H917 0.930 . S
C914 C913 1.369 . S
C914 C923 1.429 . S
C915 C913 1.419 . S
C915 C916 1.363 . S
C915 H918 0.929 . S
C916 C915 1.363 . S
C916 C922 1.428 . S
H917 C913 0.930 . S
H918 C915 0.929 . S
S919 N920 1.613 . S
S919 N921 1.610 . S
N920 S919 1.613 . S
N920 C923 1.350 . S
N921 S919 1.610 . S
N921 C922 1.351 . S
C922 C916 1.428 . S
C922 N921 1.351 . S
C922 C923 1.434 . S
C923 C914 1.429 . S
C923 N920 1.350 . S
C923 C922 1.434 . S
C924 C925 1.369 . S
C924 C926 1.419 . S
C924 H928 0.930 . S
C925 C924 1.369 . S
C925 C934 1.429 . S
C926 C924 1.419 . S
C926 C927 1.363 . S
C926 H929 0.929 . S
C927 C926 1.363 . S
C927 C933 1.428 . S
H928 C924 0.930 . S
H929 C926 0.929 . S
S930 N931 1.613 . S
S930 N932 1.610 . S
N931 S930 1.613 . S
N931 C934 1.350 . S
N932 S930 1.610 . S
N932 C933 1.351 . S
C933 C927 1.428 . S
C933 N932 1.351 . S
C933 C934 1.434 . S
C934 C925 1.429 . S
C934 N931 1.350 . S
C934 C933 1.434 . S
C935 C936 1.369 . S
C935 C937 1.419 . S
C935 H939 0.930 . S
C936 C935 1.369 . S
C936 C945 1.429 . S
C937 C935 1.419 . S
C937 C938 1.363 . S
C937 H940 0.929 . S
C938 C937 1.363 . S
C938 C944 1.428 . S
H939 C935 0.930 . S
H940 C937 0.929 . S
S941 N942 1.613 . S
S941 N943 1.610 . S
N942 S941 1.613 . S
N942 C945 1.350 . S
N943 S941 1.610 . S
N943 C944 1.351 . S
C944 C938 1.428 . S
C944 N943 1.351 . S
C944 C945 1.434 . S
C945 C936 1.429 . S
C945 N942 1.350 . S
C945 C944 1.434 . S
C946 C947 1.369 . S
C946 C948 1.419 . S
C946 H950 0.930 . S
C947 C946 1.369 . S
C947 C956 1.429 . S
C948 C946 1.419 . S
C948 C949 1.363 . S
C948 H951 0.929 . S
C949 C948 1.363 . S
C949 C955 1.428 . S
H950 C946 0.930 . S
H951 C948 0.929 . S
S952 N953 1.613 . S
S952 N954 1.610 . S
N953 S952 1.613 . S
N953 C956 1.350 . S
N954 S952 1.610 . S
N954 C955 1.351 . S
C955 C949 1.428 . S
C955 N954 1.351 . S
C955 C956 1.434 . S
C956 C947 1.429 . S
C956 N953 1.350 . S
C956 C955 1.434 . S
C957 C958 1.369 . S
C957 C959 1.419 . S
C957 H961 0.930 . S
C958 C957 1.369 . S
C958 C967 1.429 . S
C959 C957 1.419 . S
C959 C960 1.363 . S
C959 H962 0.929 . S
C960 C959 1.363 . S
C960 C966 1.428 . S
H961 C957 0.930 . S
H962 C959 0.929 . S
S963 N964 1.613 . S
S963 N965 1.610 . S
N964 S963 1.613 . S
N964 C967 1.350 . S
N965 S963 1.610 . S
N965 C966 1.351 . S
C966 C960 1.428 . S
C966 N965 1.351 . S
C966 C967 1.434 . S
C967 C958 1.429 . S
C967 N964 1.350 . S
C967 C966 1.434 . S
C529 N5 1.865 . S
C531 N236 1.867 . S
C540 N137 1.868 . S
C542 N38 1.867 . S
C551 N170 1.867 . S
C553 N71 1.868 . S
C562 N203 1.865 . S
C564 N104 1.866 . S
C573 N269 1.868 . S
C575 N500 1.866 . S
C584 N302 1.866 . S
C586 N401 1.867 . S
C595 N434 1.866 . S
C597 N335 1.867 . S
C606 N368 1.865 . S
C608 N467 1.867 . S
C617 N14 1.604 . S
C619 N344 1.604 . S
C628 N377 1.599 . S
C630 N47 1.601 . S
C639 N278 1.602 . S
C641 N80 1.603 . S
C650 N311 1.602 . S
C652 N113 1.603 . S
C661 N476 1.603 . S
C663 N146 1.603 . S
C672 N509 1.608 . S
C674 N179 1.608 . S
C683 N410 1.605 . S
C685 N212 1.605 . S
C694 N443 1.600 . S
C696 N245 1.601 . S
C705 C17 0.712 . S
C707 C83 0.707 . S
C716 C116 0.695 . S
C718 C50 0.725 . S
C727 C215 0.725 . S
C729 C149 0.699 . S
C738 C248 0.703 . S
C740 C182 0.714 . S
C749 C281 0.728 . S
C751 C347 0.701 . S
C760 C380 0.701 . S
C762 C314 0.722 . S
C771 C413 0.704 . S
C773 C479 0.721 . S
C782 C446 0.721 . S
C784 C512 0.707 . S
C793 C470 1.922 . S
C795 C28 2.105 . S
C804 C61 2.104 . S
C806 C503 1.921 . S
C815 C404 1.915 . S
C817 C94 2.109 . S
C826 C437 1.917 . S
C828 C127 2.107 . S
C837 C338 1.912 . S
C839 C160 2.110 . S
C848 C193 2.110 . S
C850 C371 1.914 . S
C859 C272 1.922 . S
C861 C226 2.105 . S
C870 C259 2.110 . S
C872 C305 1.915 . S
C881 C206 1.910 . S
C883 C292 2.111 . S
C892 C239 1.917 . S
C894 C325 2.107 . S
C903 C140 1.918 . S
C905 C358 2.106 . S
C914 C391 2.108 . S
C916 C173 1.915 . S
C925 C74 1.913 . S
C927 C424 2.111 . S
C936 C457 2.106 . S
C938 C107 1.920 . S
C947 C490 2.109 . S
C949 C8 1.916 . S
C958 C41 1.910 . S
C960 C523 2.111 . S
