# Generated by pormake.
# Topology acs-a, (4)-cn, num edge types: 1
# Building blocks:
#     Node 0, Type 0, BuildingBlock: UXUYUI_clean_sbu_0, # of connection points: 4
#     Node 1, Type 0, BuildingBlock: UXUYUI_clean_sbu_0, # of connection points: 4
#     Node 2, Type 0, BuildingBlock: UXUYUI_clean_sbu_0, # of connection points: 4
#     Node 3, Type 0, BuildingBlock: UXUYUI_clean_sbu_0, # of connection points: 4
#     Node 4, Type 0, BuildingBlock: UXUYUI_clean_sbu_0, # of connection points: 4
#     Node 5, Type 0, BuildingBlock: UXUYUI_clean_sbu_0, # of connection points: 4
#     Node 6, Type 0, BuildingBlock: UXUYUI_clean_sbu_0, # of connection points: 4
#     Node 7, Type 0, BuildingBlock: UXUYUI_clean_sbu_0, # of connection points: 4
#     Node 8, Type 0, BuildingBlock: UXUYUI_clean_sbu_0, # of connection points: 4
#     Node 9, Type 0, BuildingBlock: UXUYUI_clean_sbu_0, # of connection points: 4
#     Node 10, Type 0, BuildingBlock: UXUYUI_clean_sbu_0, # of connection points: 4
#     Node 11, Type 0, BuildingBlock: UXUYUI_clean_sbu_0, # of connection points: 4
#     Edge 12, Type (0, 0), BuildingBlock: CIFDUS_clean_linker_0, # of connection points: 2
#     Edge 13, Type (0, 0), BuildingBlock: CIFDUS_clean_linker_0, # of connection points: 2
#     Edge 14, Type (0, 0), BuildingBlock: CIFDUS_clean_linker_0, # of connection points: 2
#     Edge 15, Type (0, 0), BuildingBlock: CIFDUS_clean_linker_0, # of connection points: 2
#     Edge 16, Type (0, 0), BuildingBlock: CIFDUS_clean_linker_0, # of connection points: 2
#     Edge 17, Type (0, 0), BuildingBlock: CIFDUS_clean_linker_0, # of connection points: 2
#     Edge 18, Type (0, 0), BuildingBlock: CIFDUS_clean_linker_0, # of connection points: 2
#     Edge 19, Type (0, 0), BuildingBlock: CIFDUS_clean_linker_0, # of connection points: 2
#     Edge 20, Type (0, 0), BuildingBlock: CIFDUS_clean_linker_0, # of connection points: 2
#     Edge 21, Type (0, 0), BuildingBlock: CIFDUS_clean_linker_0, # of connection points: 2
#     Edge 22, Type (0, 0), BuildingBlock: CIFDUS_clean_linker_0, # of connection points: 2
#     Edge 23, Type (0, 0), BuildingBlock: CIFDUS_clean_linker_0, # of connection points: 2
#     Edge 24, Type (0, 0), BuildingBlock: CIFDUS_clean_linker_0, # of connection points: 2
#     Edge 25, Type (0, 0), BuildingBlock: CIFDUS_clean_linker_0, # of connection points: 2
#     Edge 26, Type (0, 0), BuildingBlock: CIFDUS_clean_linker_0, # of connection points: 2
#     Edge 27, Type (0, 0), BuildingBlock: CIFDUS_clean_linker_0, # of connection points: 2
#     Edge 28, Type (0, 0), BuildingBlock: CIFDUS_clean_linker_0, # of connection points: 2
#     Edge 29, Type (0, 0), BuildingBlock: CIFDUS_clean_linker_0, # of connection points: 2
#     Edge 30, Type (0, 0), BuildingBlock: CIFDUS_clean_linker_0, # of connection points: 2
#     Edge 31, Type (0, 0), BuildingBlock: CIFDUS_clean_linker_0, # of connection points: 2
#     Edge 32, Type (0, 0), BuildingBlock: CIFDUS_clean_linker_0, # of connection points: 2
#     Edge 33, Type (0, 0), BuildingBlock: CIFDUS_clean_linker_0, # of connection points: 2
#     Edge 34, Type (0, 0), BuildingBlock: CIFDUS_clean_linker_0, # of connection points: 2
#     Edge 35, Type (0, 0), BuildingBlock: CIFDUS_clean_linker_0, # of connection points: 2
# Relax obj value: 0.500
# Max RMSD: 0.243
# Mean RMSD: 0.227
data_MOF--net-acs-a--node1-UXUYUI_clean_sbu_0--edge1-CIFDUS_clean_linker_0
_symmetry_space_group_name_H-M    P1
_symmetry_Int_Tables_number       1
_symmetry_cell_setting            triclinic
loop_
_symmetry_equiv_pos_as_xyz
'x, y, z'
_cell_length_a     51.92973
_cell_length_b     64.074092
_cell_length_c     62.86914
_cell_angle_alpha  90.034425
_cell_angle_beta   90.012048
_cell_angle_gamma 110.86355
loop_
_atom_site_label
_atom_site_type_symbol
_atom_site_fract_x
_atom_site_fract_y
_atom_site_fract_z
_atom_type_partial_charge
Li0 Li 0.57095 0.1337 0.08262 0.0
Li1 Li 0.61879 0.13716 0.08356 0.0
Li2 Li 0.58143 0.10108 0.0794 0.0
Li3 Li 0.58738 0.11939 0.11376 0.0
C4 C 0.58908 0.13735 0.04184 0.0
N5 N 0.58152 0.1589 0.0056 0.0
C6 C 0.60894 0.15774 0.03578 0.0
C7 C 0.56552 0.12783 0.02933 0.0
C8 C 0.60471 0.16838 0.01742 0.0
C9 C 0.56203 0.13902 0.01112 0.0
C10 C 0.59595 0.17081 0.10363 0.0
C11 C 0.56968 0.19323 0.11492 0.0
N12 N 0.5858 0.21031 0.10258 0.0
C13 C 0.61223 0.18858 0.09104 0.0
C14 C 0.57451 0.17314 0.11571 0.0
C15 C 0.6068 0.20843 0.09076 0.0
C16 C 0.52033 0.14031 0.08493 0.0
N17 N 0.54528 0.14796 0.07507 0.0
C18 C 0.53503 0.17834 0.05998 0.0
C19 C 0.5527 0.16646 0.06255 0.0
C20 C 0.50965 0.17133 0.07068 0.0
C21 C 0.50212 0.15182 0.08298 0.0
H22 H 0.51508 0.1259 0.09522 0.0
H23 H 0.57294 0.17287 0.05557 0.0
C24 C 0.6667 0.14671 0.05888 0.0
N25 N 0.65596 0.15294 0.07645 0.0
C26 C 0.69426 0.15788 0.0534 0.0
C27 C 0.69923 0.1811 0.08461 0.0
C28 C 0.67157 0.16965 0.08936 0.0
C29 C 0.71086 0.17531 0.06638 0.0
H30 H 0.65375 0.13314 0.04908 0.0
H31 H 0.66249 0.17409 0.10332 0.0
C32 C 0.53067 0.08657 0.09511 0.0
N33 N 0.48651 0.04734 0.08875 0.0
C34 C 0.52231 0.07062 0.11128 0.0
C35 C 0.5163 0.08276 0.07585 0.0
C36 C 0.49998 0.05084 0.10773 0.0
C37 C 0.49412 0.06276 0.07289 0.0
C38 C 0.63619 0.1101 0.11046 0.0
C39 C 0.6491 0.09446 0.10828 0.0
C40 C 0.64674 0.12778 0.12481 0.0
C41 C 0.67242 0.09677 0.12052 0.0
C42 C 0.67009 0.12952 0.13676 0.0
N43 N 0.68235 0.11411 0.13438 0.0
C44 C 0.5742 0.0729 0.04447 0.0
C45 C 0.56318 0.05396 0.07754 0.0
C46 C 0.56525 0.0527 0.03352 0.0
N47 N 0.5723 0.07313 0.066 0.0
C48 C 0.55346 0.03334 0.06721 0.0
C49 C 0.55407 0.03269 0.04492 0.0
H50 H 0.58199 0.08843 0.03577 0.0
H51 H 0.5626 0.05472 0.0947 0.0
C52 C 0.58577 0.13163 0.15664 0.0
N53 N 0.58537 0.11472 0.14346 0.0
C54 C 0.58467 0.12855 0.1786 0.0
C55 C 0.58349 0.09085 0.17304 0.0
C56 C 0.58434 0.09461 0.15113 0.0
C57 C 0.58353 0.10795 0.18703 0.0
H58 H 0.58731 0.14761 0.15011 0.0
H59 H 0.58432 0.08156 0.1402 0.0
O60 O 0.59299 0.12652 0.05961 0.0
O61 O 0.60059 0.15107 0.10377 0.0
O62 O 0.55282 0.10583 0.09811 0.0
O63 O 0.6134 0.10803 0.09849 0.0
H64 H 0.62723 0.16545 0.04526 0.0
H65 H 0.55011 0.11195 0.03361 0.0
H66 H 0.61982 0.18423 0.01263 0.0
H67 H 0.54384 0.13188 0.00135 0.0
H68 H 0.55299 0.19517 0.124 0.0
H69 H 0.62862 0.18699 0.08135 0.0
H70 H 0.56129 0.1594 0.12516 0.0
H71 H 0.61917 0.22229 0.08102 0.0
H72 H 0.54194 0.19363 0.05079 0.0
H73 H 0.48277 0.14594 0.09156 0.0
H74 H 0.70253 0.1529 0.03926 0.0
H75 H 0.71122 0.19469 0.09485 0.0
H76 H 0.53309 0.07339 0.12634 0.0
H77 H 0.52234 0.09506 0.06329 0.0
H78 H 0.4934 0.03826 0.12004 0.0
H79 H 0.48297 0.0595 0.05799 0.0
H80 H 0.64118 0.08068 0.09722 0.0
H81 H 0.63708 0.14009 0.1267 0.0
H82 H 0.68264 0.08479 0.11899 0.0
H83 H 0.67849 0.14313 0.14791 0.0
H84 H 0.5658 0.05277 0.0163 0.0
H85 H 0.54503 0.01815 0.07644 0.0
H86 H 0.58526 0.14226 0.18891 0.0
H87 H 0.58259 0.07474 0.17896 0.0
Li88 Li 0.48744 0.63394 0.57859 0.0
Li89 Li 0.48829 0.61294 0.6123 0.0
Li90 Li 0.47748 0.59349 0.57626 0.0
Li91 Li 0.4465 0.60816 0.59294 0.0
C92 C 0.53998 0.62865 0.58436 0.0
N93 N 0.59607 0.65157 0.58088 0.0
C94 C 0.554 0.64396 0.60003 0.0
C95 C 0.5546 0.62476 0.56707 0.0
C96 C 0.58232 0.65546 0.59794 0.0
C97 C 0.58292 0.63658 0.56555 0.0
C98 C 0.45423 0.64504 0.61491 0.0
C99 C 0.42857 0.65198 0.64435 0.0
N100 N 0.41781 0.66361 0.63118 0.0
C101 C 0.44296 0.65711 0.60169 0.0
C102 C 0.447 0.64245 0.63643 0.0
C103 C 0.42456 0.66633 0.6102 0.0
C104 C 0.48537 0.66804 0.55135 0.0
N105 N 0.50121 0.66323 0.56642 0.0
C106 C 0.52643 0.70214 0.57185 0.0
C107 C 0.52196 0.67974 0.57625 0.0
C108 C 0.50894 0.70755 0.55756 0.0
C109 C 0.48902 0.69012 0.54655 0.0
H110 H 0.46802 0.65489 0.54455 0.0
H111 H 0.53354 0.67568 0.5888 0.0
C112 C 0.5104 0.59675 0.64737 0.0
N113 N 0.50521 0.61449 0.63922 0.0
C114 C 0.52069 0.59769 0.66806 0.0
C115 C 0.52066 0.63529 0.67116 0.0
C116 C 0.51063 0.63368 0.65045 0.0
C117 C 0.52549 0.61704 0.68041 0.0
H118 H 0.50592 0.5817 0.63799 0.0
H119 H 0.50649 0.64758 0.64347 0.0
C120 C 0.46354 0.6123 0.5413 0.0
N121 N 0.47611 0.61407 0.49843 0.0
C122 C 0.44247 0.60503 0.52615 0.0
C123 C 0.49098 0.62041 0.53458 0.0
C124 C 0.44925 0.60606 0.50457 0.0
C125 C 0.49693 0.62121 0.51287 0.0
C126 C 0.43572 0.56981 0.6133 0.0
C127 C 0.41466 0.55585 0.60043 0.0
C128 C 0.43269 0.56887 0.6354 0.0
C129 C 0.39065 0.54133 0.60993 0.0
C130 C 0.40838 0.55407 0.64428 0.0
N131 N 0.38803 0.54075 0.63147 0.0
C132 C 0.50272 0.564 0.55945 0.0
C133 C 0.45788 0.55926 0.54694 0.0
C134 C 0.50388 0.54693 0.54605 0.0
N135 N 0.48003 0.56989 0.55944 0.0
C136 C 0.4583 0.5424 0.53313 0.0
C137 C 0.48157 0.53616 0.53249 0.0
H138 H 0.51994 0.57267 0.56972 0.0
H139 H 0.43994 0.56405 0.54755 0.0
C140 C 0.3953 0.6065 0.57816 0.0
N141 N 0.40826 0.60408 0.59624 0.0
C142 C 0.36831 0.60604 0.57885 0.0
C143 C 0.36813 0.60039 0.61684 0.0
C144 C 0.39519 0.60084 0.61538 0.0
C145 C 0.35449 0.60336 0.59842 0.0
H146 H 0.40619 0.60941 0.56322 0.0
H147 H 0.40602 0.59939 0.62964 0.0
O148 O 0.51232 0.61691 0.58631 0.0
O149 O 0.47199 0.63562 0.60678 0.0
O150 O 0.45716 0.61082 0.56256 0.0
O151 O 0.45932 0.58421 0.60432 0.0
H152 H 0.54308 0.64715 0.61353 0.0
H153 H 0.54423 0.61269 0.55495 0.0
H154 H 0.59336 0.66748 0.60988 0.0
H155 H 0.59445 0.63379 0.55221 0.0
H156 H 0.42269 0.65 0.66094 0.0
H157 H 0.44802 0.65904 0.58497 0.0
H158 H 0.45512 0.63285 0.64684 0.0
H159 H 0.41557 0.6756 0.60011 0.0
H160 H 0.54215 0.71503 0.58064 0.0
H161 H 0.47454 0.69332 0.53582 0.0
H162 H 0.52442 0.58331 0.67439 0.0
H163 H 0.52352 0.65042 0.68007 0.0
H164 H 0.42109 0.59838 0.53097 0.0
H165 H 0.50751 0.62626 0.54595 0.0
H166 H 0.43315 0.60042 0.49271 0.0
H167 H 0.51811 0.62752 0.5075 0.0
H168 H 0.41673 0.55641 0.5833 0.0
H169 H 0.44881 0.57958 0.64557 0.0
H170 H 0.37408 0.53053 0.60017 0.0
H171 H 0.40567 0.55323 0.66136 0.0
H172 H 0.52218 0.54254 0.54592 0.0
H173 H 0.44057 0.53424 0.52312 0.0
H174 H 0.35849 0.60804 0.56418 0.0
H175 H 0.35839 0.59854 0.6323 0.0
Li176 Li 0.86598 0.37041 0.09199 0.0
Li177 Li 0.90475 0.36759 0.11429 0.0
Li178 Li 0.91155 0.38499 0.07803 0.0
Li179 Li 0.89035 0.34595 0.08177 0.0
C180 C 0.8847 0.40733 0.11403 0.0
N181 N 0.85613 0.43118 0.13346 0.0
C182 C 0.88117 0.40641 0.1361 0.0
C183 C 0.87381 0.42049 0.10187 0.0
C184 C 0.86667 0.41858 0.14562 0.0
C185 C 0.85938 0.43237 0.11198 0.0
C186 C 0.85028 0.3234 0.10927 0.0
C187 C 0.83806 0.28525 0.12104 0.0
N188 N 0.81386 0.27972 0.11023 0.0
C189 C 0.82527 0.31732 0.09827 0.0
C190 C 0.85677 0.30722 0.12071 0.0
C191 C 0.80716 0.29515 0.09894 0.0
C192 C 0.81899 0.37718 0.07543 0.0
N193 N 0.83089 0.37355 0.0936 0.0
C194 C 0.79262 0.37447 0.1142 0.0
C195 C 0.8182 0.37193 0.11277 0.0
C196 C 0.77994 0.3785 0.09568 0.0
C197 C 0.7935 0.37985 0.07611 0.0
H198 H 0.82922 0.37793 0.06037 0.0
H199 H 0.82798 0.36867 0.12693 0.0
C200 C 0.94281 0.38568 0.14731 0.0
N201 N 0.91876 0.36911 0.14213 0.0
C202 C 0.95252 0.38788 0.16823 0.0
C203 C 0.91289 0.35553 0.17777 0.0
C204 C 0.90375 0.3542 0.15681 0.0
C205 C 0.93741 0.37266 0.1837 0.0
H206 H 0.95411 0.39743 0.13526 0.0
H207 H 0.88431 0.34166 0.15238 0.0
C208 C 0.88374 0.37359 0.0432 0.0
N209 N 0.89721 0.3911 0.00281 0.0
C210 C 0.89386 0.36244 0.0281 0.0
C211 C 0.88042 0.39363 0.03772 0.0
C212 C 0.90051 0.37155 0.00776 0.0
C213 C 0.8874 0.40223 0.01724 0.0
C214 C 0.94349 0.35103 0.08755 0.0
C215 C 0.94863 0.34528 0.06695 0.0
C216 C 0.95402 0.34314 0.10499 0.0
C217 C 0.96405 0.33153 0.06415 0.0
C218 C 0.96939 0.32946 0.10151 0.0
N219 N 0.97403 0.32397 0.08134 0.0
C220 C 0.93663 0.42982 0.06647 0.0
C221 C 0.95071 0.40502 0.04553 0.0
C222 C 0.95157 0.44776 0.05366 0.0
N223 N 0.93593 0.40891 0.06191 0.0
C224 C 0.96594 0.42249 0.03225 0.0
C225 C 0.96603 0.44412 0.03604 0.0
H226 H 0.92515 0.43253 0.07981 0.0
H227 H 0.94989 0.38825 0.04231 0.0
C228 C 0.8611 0.31002 0.05666 0.0
N229 N 0.88235 0.3165 0.07071 0.0
C230 C 0.84683 0.28744 0.05281 0.0
C231 C 0.87835 0.27858 0.07625 0.0
C232 C 0.89181 0.3014 0.0799 0.0
C233 C 0.85446 0.2713 0.06359 0.0
H234 H 0.85329 0.32222 0.05019 0.0
H235 H 0.90792 0.30672 0.0917 0.0
O236 O 0.89839 0.39517 0.10436 0.0
O237 O 0.86848 0.34498 0.10855 0.0
O238 O 0.87748 0.36509 0.06331 0.0
O239 O 0.92868 0.36464 0.09066 0.0
H240 H 0.88933 0.39629 0.1458 0.0
H241 H 0.87601 0.4212 0.08475 0.0
H242 H 0.8637 0.41795 0.16267 0.0
H243 H 0.85064 0.44245 0.10273 0.0
H244 H 0.84289 0.27256 0.12976 0.0
H245 H 0.82004 0.32947 0.08904 0.0
H246 H 0.87629 0.31145 0.1289 0.0
H247 H 0.78782 0.29019 0.09039 0.0
H248 H 0.78271 0.37293 0.12957 0.0
H249 H 0.78464 0.38311 0.06146 0.0
H250 H 0.97144 0.40137 0.17231 0.0
H251 H 0.90038 0.34381 0.1894 0.0
H252 H 0.89687 0.34705 0.03207 0.0
H253 H 0.8731 0.40273 0.04928 0.0
H254 H 0.90846 0.36314 0.99595 0.0
H255 H 0.88517 0.41783 0.01286 0.0
H256 H 0.94047 0.35109 0.05329 0.0
H257 H 0.95032 0.34749 0.12104 0.0
H258 H 0.96804 0.32682 0.0483 0.0
H259 H 0.97761 0.32318 0.11486 0.0
H260 H 0.95163 0.46428 0.05742 0.0
H261 H 0.97673 0.41898 0.01877 0.0
H262 H 0.8283 0.28284 0.04326 0.0
H263 H 0.88516 0.26678 0.08474 0.0
Li264 Li 0.4046 0.88864 0.58408 0.0
Li265 Li 0.40241 0.87816 0.62126 0.0
Li266 Li 0.41048 0.8551 0.59284 0.0
Li267 Li 0.36489 0.85674 0.59633 0.0
C268 C 0.45694 0.90219 0.59599 0.0
N269 N 0.50234 0.93776 0.58269 0.0
C270 C 0.4679 0.92102 0.60894 0.0
C271 C 0.4693 0.90128 0.57643 0.0
C272 C 0.49084 0.93887 0.6019 0.0
C273 C 0.49215 0.9195 0.56994 0.0
C274 C 0.35684 0.8918 0.618 0.0
C275 C 0.32619 0.88049 0.64808 0.0
N276 N 0.31702 0.89751 0.64406 0.0
C277 C 0.34712 0.90917 0.61415 0.0
C278 C 0.3463 0.87732 0.63509 0.0
C279 C 0.32698 0.91178 0.62751 0.0
C280 C 0.41528 0.90908 0.5442 0.0
N281 N 0.41607 0.91323 0.56541 0.0
C282 C 0.44115 0.95196 0.55974 0.0
C283 C 0.42756 0.93425 0.57332 0.0
C284 C 0.44246 0.94787 0.53788 0.0
C285 C 0.42838 0.92628 0.53004 0.0
H286 H 0.40542 0.89227 0.53834 0.0
H287 H 0.42754 0.93702 0.59029 0.0
C288 C 0.4133 0.876 0.66503 0.0
N289 N 0.40968 0.88934 0.64943 0.0
C290 C 0.41613 0.88312 0.68613 0.0
C291 C 0.41136 0.91763 0.67479 0.0
C292 C 0.4092 0.91001 0.6538 0.0
C293 C 0.41465 0.90399 0.69121 0.0
H294 H 0.41309 0.85954 0.66121 0.0
H295 H 0.40626 0.92026 0.64105 0.0
C296 C 0.38557 0.8447 0.55428 0.0
N297 N 0.38364 0.8145 0.52236 0.0
C298 C 0.36215 0.82546 0.55174 0.0
C299 C 0.40791 0.84865 0.54048 0.0
C300 C 0.3616 0.81039 0.53553 0.0
C301 C 0.40657 0.83315 0.52448 0.0
C302 C 0.38587 0.82423 0.62022 0.0
C303 C 0.36637 0.80553 0.61068 0.0
C304 C 0.40775 0.82176 0.63162 0.0
C305 C 0.36886 0.78464 0.61295 0.0
C306 C 0.40958 0.8006 0.63345 0.0
N307 N 0.39024 0.78263 0.62418 0.0
C308 C 0.4583 0.84398 0.59337 0.0
C309 C 0.4204 0.81645 0.57664 0.0
C310 C 0.47457 0.83091 0.59054 0.0
N311 N 0.43171 0.8366 0.58645 0.0
C312 C 0.43607 0.80308 0.5731 0.0
C313 C 0.46342 0.81022 0.58026 0.0
H314 H 0.46669 0.85977 0.6016 0.0
H315 H 0.399 0.81038 0.57207 0.0
C316 C 0.31312 0.84823 0.57735 0.0
N317 N 0.32619 0.84285 0.59403 0.0
C318 C 0.28464 0.8379 0.57495 0.0
C319 C 0.28368 0.81728 0.60733 0.0
C320 C 0.31207 0.82815 0.60918 0.0
C321 C 0.26957 0.82188 0.58989 0.0
H322 H 0.32493 0.86034 0.56576 0.0
H323 H 0.32296 0.82457 0.62254 0.0
O324 O 0.43415 0.88475 0.60239 0.0
O325 O 0.37656 0.8891 0.605 0.0
O326 O 0.38636 0.85979 0.56991 0.0
O327 O 0.38405 0.84492 0.61784 0.0
H328 H 0.45862 0.92193 0.62416 0.0
H329 H 0.46114 0.88676 0.5663 0.0
H330 H 0.49944 0.95363 0.61168 0.0
H331 H 0.50175 0.91913 0.55474 0.0
H332 H 0.31787 0.86943 0.66137 0.0
H333 H 0.35509 0.92051 0.60098 0.0
H334 H 0.35358 0.86381 0.63836 0.0
H335 H 0.31927 0.92516 0.62472 0.0
H336 H 0.45181 0.96835 0.56646 0.0
H337 H 0.42829 0.92255 0.51323 0.0
H338 H 0.4182 0.87202 0.69847 0.0
H339 H 0.41006 0.9338 0.67819 0.0
H340 H 0.34468 0.82207 0.56226 0.0
H341 H 0.4262 0.86342 0.54219 0.0
H342 H 0.34367 0.79538 0.53345 0.0
H343 H 0.42377 0.83593 0.51378 0.0
H344 H 0.34978 0.80713 0.60125 0.0
H345 H 0.42363 0.83608 0.63846 0.0
H346 H 0.35394 0.77006 0.60561 0.0
H347 H 0.42652 0.79851 0.64208 0.0
H348 H 0.49553 0.83679 0.59648 0.0
H349 H 0.42657 0.78692 0.5656 0.0
H350 H 0.27462 0.84225 0.56145 0.0
H351 H 0.27313 0.80486 0.6191 0.0
Li352 Li 0.49658 0.3724 0.11282 0.0
Li353 Li 0.49018 0.34863 0.08093 0.0
Li354 Li 0.53589 0.37667 0.0894 0.0
Li355 Li 0.49874 0.38819 0.07718 0.0
C356 C 0.52098 0.33838 0.12089 0.0
N357 N 0.53572 0.3137 0.15145 0.0
C358 C 0.5041 0.31627 0.12489 0.0
C359 C 0.54556 0.34782 0.13226 0.0
C360 C 0.51184 0.3041 0.14045 0.0
C361 C 0.55259 0.3351 0.14769 0.0
C362 C 0.44356 0.36032 0.07822 0.0
C363 C 0.42197 0.3501 0.04389 0.0
N364 N 0.39818 0.35118 0.05197 0.0
C365 C 0.41891 0.36132 0.08618 0.0
C366 C 0.44513 0.35464 0.05691 0.0
C367 C 0.39619 0.35664 0.07266 0.0
C368 C 0.48887 0.39435 0.14955 0.0
N369 N 0.4865 0.37397 0.14171 0.0
C370 C 0.47678 0.35782 0.17638 0.0
C371 C 0.47956 0.35568 0.15447 0.0
C372 C 0.48113 0.37899 0.18513 0.0
C373 C 0.4864 0.39728 0.17134 0.0
H374 H 0.49398 0.40855 0.13897 0.0
H375 H 0.47719 0.33958 0.14781 0.0
C376 C 0.49067 0.31459 0.05479 0.0
N377 N 0.47509 0.31925 0.0701 0.0
C378 C 0.48566 0.29261 0.04875 0.0
C379 C 0.44773 0.28057 0.07368 0.0
C380 C 0.45332 0.30296 0.07908 0.0
C381 C 0.46467 0.27518 0.05884 0.0
H382 H 0.50825 0.32784 0.04835 0.0
H383 H 0.44157 0.30719 0.09148 0.0
C384 C 0.54422 0.41576 0.113 0.0
N385 N 0.58543 0.44676 0.1363 0.0
C386 C 0.55653 0.43763 0.10554 0.0
C387 C 0.55278 0.40971 0.13237 0.0
C388 C 0.57737 0.45305 0.11753 0.0
C389 C 0.57365 0.42561 0.1439 0.0
C390 C 0.53343 0.38284 0.04575 0.0
C391 C 0.55161 0.40443 0.05021 0.0
C392 C 0.53204 0.37434 0.02513 0.0
C393 C 0.56821 0.41715 0.03397 0.0
C394 C 0.54898 0.38759 0.00931 0.0
N395 N 0.56657 0.40854 0.01403 0.0
C396 C 0.57692 0.36026 0.08232 0.0
C397 C 0.59566 0.39853 0.09186 0.0
C398 C 0.60317 0.3592 0.0808 0.0
N399 N 0.57362 0.37963 0.08791 0.0
C400 C 0.62241 0.39821 0.09057 0.0
C401 C 0.62638 0.37833 0.08498 0.0
H402 H 0.55897 0.34553 0.07921 0.0
H403 H 0.59264 0.41386 0.09592 0.0
C404 C 0.493 0.42962 0.0706 0.0
N405 N 0.49129 0.41023 0.06087 0.0
C406 C 0.49077 0.44729 0.05871 0.0
C407 C 0.48413 0.42438 0.02714 0.0
C408 C 0.48645 0.40716 0.03964 0.0
C409 C 0.48678 0.4449 0.03661 0.0
H410 H 0.4969 0.43156 0.08753 0.0
H411 H 0.48511 0.39156 0.0323 0.0
O412 O 0.51379 0.35044 0.10553 0.0
O413 O 0.46596 0.36496 0.09132 0.0
O414 O 0.52382 0.40049 0.10138 0.0
O415 O 0.51663 0.37015 0.0613 0.0
H416 H 0.48508 0.30864 0.11621 0.0
H417 H 0.55925 0.3647 0.1291 0.0
H418 H 0.49887 0.28702 0.14378 0.0
H419 H 0.57153 0.34223 0.15662 0.0
H420 H 0.42291 0.34573 0.02736 0.0
H421 H 0.41738 0.3657 0.10265 0.0
H422 H 0.46401 0.35382 0.05041 0.0
H423 H 0.37698 0.35737 0.0786 0.0
H424 H 0.47275 0.34329 0.18644 0.0
H425 H 0.48946 0.41382 0.17742 0.0
H426 H 0.49961 0.28927 0.03759 0.0
H427 H 0.43136 0.2676 0.08181 0.0
H428 H 0.55017 0.44263 0.09058 0.0
H429 H 0.54329 0.39299 0.13852 0.0
H430 H 0.58713 0.47 0.11191 0.0
H431 H 0.58045 0.42114 0.15892 0.0
H432 H 0.55284 0.41137 0.06598 0.0
H433 H 0.51788 0.35775 0.02133 0.0
H434 H 0.58236 0.43389 0.03722 0.0
H435 H 0.54809 0.38124 0.99328 0.0
H436 H 0.60525 0.34345 0.07669 0.0
H437 H 0.63977 0.41341 0.09365 0.0
H438 H 0.49314 0.46289 0.06661 0.0
H439 H 0.48063 0.42174 0.01021 0.0
Li440 Li 0.08433 0.6278 0.60812 0.0
Li441 Li 0.12269 0.62564 0.58469 0.0
Li442 Li 0.09761 0.64993 0.5758 0.0
Li443 Li 0.07657 0.61101 0.57132 0.0
C444 C 0.13706 0.67209 0.60439 0.0
N445 N 0.1709 0.71626 0.6088 0.0
C446 C 0.1615 0.68052 0.59272 0.0
C447 C 0.1299 0.68607 0.6184 0.0
C448 C 0.1783 0.70292 0.59513 0.0
C449 C 0.14728 0.70837 0.62039 0.0
C450 C 0.104 0.58728 0.60523 0.0
C451 C 0.12917 0.56243 0.60019 0.0
N452 N 0.13141 0.56096 0.62165 0.0
C453 C 0.10633 0.58533 0.62723 0.0
C454 C 0.11529 0.57556 0.5916 0.0
C455 C 0.12033 0.57201 0.63522 0.0
C456 C 0.04605 0.61556 0.64241 0.0
N457 N 0.07282 0.62602 0.63668 0.0
C458 C 0.08692 0.63141 0.67297 0.0
C459 C 0.09309 0.63422 0.65138 0.0
C460 C 0.05959 0.62023 0.67943 0.0
C461 C 0.03886 0.61265 0.66393 0.0
H462 H 0.03045 0.60901 0.63029 0.0
H463 H 0.11423 0.64222 0.64628 0.0
C464 C 0.17198 0.62422 0.56713 0.0
N465 N 0.15829 0.62362 0.58566 0.0
C466 C 0.19848 0.62345 0.56736 0.0
C467 C 0.19638 0.62156 0.60576 0.0
C468 C 0.16998 0.62256 0.6048 0.0
C469 C 0.211 0.62211 0.58686 0.0
H470 H 0.16247 0.62559 0.55218 0.0
H471 H 0.15883 0.62264 0.6193 0.0
C472 C 0.04516 0.64494 0.58158 0.0
N473 N 0.01603 0.67289 0.5744 0.0
C474 C 0.04016 0.65023 0.5608 0.0
C475 C 0.03519 0.65373 0.59872 0.0
C476 C 0.02546 0.66445 0.5575 0.0
C477 C 0.02052 0.66785 0.59476 0.0
C478 C 0.10498 0.62318 0.53624 0.0
C479 C 0.09411 0.63384 0.52119 0.0
C480 C 0.11032 0.60404 0.53044 0.0
C481 C 0.08857 0.62507 0.50064 0.0
C482 C 0.10439 0.59574 0.50975 0.0
N483 N 0.09373 0.60634 0.4954 0.0
C484 C 0.12543 0.68605 0.55029 0.0
C485 C 0.09752 0.69482 0.57601 0.0
C486 C 0.13968 0.70862 0.54639 0.0
N487 N 0.10555 0.67962 0.56547 0.0
C488 C 0.11109 0.71764 0.57245 0.0
C489 C 0.13358 0.7248 0.55837 0.0
H490 H 0.13231 0.67379 0.54279 0.0
H491 H 0.08256 0.68949 0.58865 0.0
C492 C 0.05123 0.56611 0.56031 0.0
N493 N 0.05249 0.58698 0.55497 0.0
C494 C 0.03734 0.54799 0.54733 0.0
C495 C 0.02497 0.57296 0.52408 0.0
C496 C 0.03894 0.5906 0.53766 0.0
C497 C 0.02466 0.55139 0.52859 0.0
H498 H 0.06159 0.56357 0.5744 0.0
H499 H 0.03997 0.60731 0.53388 0.0
O500 O 0.12007 0.65033 0.60195 0.0
O501 O 0.09072 0.60054 0.59709 0.0
O502 O 0.05935 0.63094 0.58515 0.0
O503 O 0.11025 0.63136 0.55654 0.0
H504 H 0.16724 0.66995 0.5817 0.0
H505 H 0.11095 0.67981 0.62746 0.0
H506 H 0.19715 0.70973 0.58606 0.0
H507 H 0.14193 0.71943 0.63107 0.0
H508 H 0.13821 0.55344 0.58981 0.0
H509 H 0.09744 0.59398 0.63806 0.0
H510 H 0.11361 0.57676 0.57455 0.0
H511 H 0.12238 0.57045 0.65221 0.0
H512 H 0.10339 0.63762 0.68452 0.0
H513 H 0.0176 0.60386 0.66841 0.0
H514 H 0.20903 0.62383 0.55242 0.0
H515 H 0.20549 0.62087 0.62112 0.0
H516 H 0.0478 0.64365 0.54737 0.0
H517 H 0.0389 0.64983 0.6149 0.0
H518 H 0.02159 0.66881 0.5415 0.0
H519 H 0.01277 0.67485 0.60787 0.0
H520 H 0.08966 0.64858 0.52538 0.0
H521 H 0.1187 0.59555 0.54183 0.0
H522 H 0.08001 0.63309 0.48889 0.0
H523 H 0.10822 0.58085 0.50512 0.0
H524 H 0.15716 0.71316 0.5357 0.0
H525 H 0.10556 0.72951 0.58195 0.0
H526 H 0.03695 0.53154 0.55174 0.0
H527 H 0.01551 0.57635 0.50978 0.0
Li528 Li 0.87853 0.37231 0.39713 0.0
Li529 Li 0.92229 0.38467 0.4117 0.0
Li530 Li 0.91549 0.3662 0.37731 0.0
Li531 Li 0.89728 0.34516 0.41256 0.0
C532 C 0.90103 0.40819 0.37355 0.0
N533 N 0.87847 0.43485 0.35148 0.0
C534 C 0.89218 0.42346 0.38444 0.0
C535 C 0.89854 0.4066 0.35141 0.0
C536 C 0.88077 0.43674 0.373 0.0
C537 C 0.88707 0.42021 0.34055 0.0
C538 C 0.89201 0.37866 0.44629 0.0
C539 C 0.90515 0.37968 0.48319 0.0
N540 N 0.90265 0.4 0.48527 0.0
C541 C 0.88934 0.39947 0.44885 0.0
C542 C 0.89985 0.36861 0.46362 0.0
C543 C 0.89492 0.41003 0.46866 0.0
C544 C 0.82974 0.37727 0.41185 0.0
N545 N 0.84416 0.37696 0.39388 0.0
C546 C 0.80827 0.38098 0.37229 0.0
C547 C 0.83392 0.37874 0.37431 0.0
C548 C 0.79296 0.38136 0.39059 0.0
C549 C 0.80407 0.37958 0.41058 0.0
H550 H 0.8379 0.37526 0.42719 0.0
H551 H 0.84544 0.37805 0.36021 0.0
C552 C 0.95239 0.42963 0.42035 0.0
N553 N 0.94789 0.40862 0.42751 0.0
C554 C 0.96719 0.44807 0.43268 0.0
C555 C 0.97422 0.42302 0.45888 0.0
C556 C 0.95907 0.40503 0.4461 0.0
C557 C 0.97771 0.44482 0.45243 0.0
H558 H 0.94375 0.43209 0.40538 0.0
H559 H 0.95519 0.3882 0.45152 0.0
C560 C 0.85229 0.33369 0.3774 0.0
N561 N 0.79838 0.31407 0.36384 0.0
C562 C 0.83144 0.32312 0.392 0.0
C563 C 0.84574 0.33424 0.35588 0.0
C564 C 0.8043 0.31332 0.38484 0.0
C565 C 0.81836 0.32422 0.34935 0.0
C566 C 0.96158 0.36666 0.41054 0.0
C567 C 0.98281 0.38431 0.4012 0.0
C568 C 0.96711 0.35569 0.4282 0.0
C569 C 0.00926 0.39094 0.40992 0.0
C570 C 0.99385 0.3628 0.43642 0.0
N571 N 0.01419 0.38015 0.4272 0.0
C572 C 0.95046 0.3811 0.34181 0.0
C573 C 0.91785 0.34424 0.33937 0.0
C574 C 0.95861 0.38018 0.32078 0.0
N575 N 0.92988 0.3635 0.35037 0.0
C576 C 0.92512 0.34265 0.31826 0.0
C577 C 0.94525 0.361 0.30848 0.0
H578 H 0.95969 0.39619 0.35103 0.0
H579 H 0.90176 0.33044 0.34673 0.0
C580 C 0.86739 0.31177 0.44072 0.0
N581 N 0.88743 0.31697 0.42569 0.0
C582 C 0.85499 0.2898 0.44759 0.0
C583 C 0.88525 0.27914 0.42425 0.0
C584 C 0.8971 0.30141 0.41782 0.0
C585 C 0.86318 0.27298 0.43874 0.0
H586 H 0.85965 0.32441 0.44626 0.0
H587 H 0.91285 0.30607 0.40565 0.0
O588 O 0.91229 0.39505 0.3845 0.0
O589 O 0.88698 0.36819 0.42694 0.0
O590 O 0.87889 0.34378 0.3842 0.0
O591 O 0.93554 0.35999 0.40236 0.0
H592 H 0.89392 0.42495 0.40155 0.0
H593 H 0.90498 0.39478 0.34269 0.0
H594 H 0.87371 0.44853 0.38124 0.0
H595 H 0.88489 0.41905 0.32343 0.0
H596 H 0.91143 0.37217 0.49669 0.0
H597 H 0.88324 0.40747 0.43564 0.0
H598 H 0.90233 0.35263 0.46189 0.0
H599 H 0.89316 0.42622 0.47081 0.0
H600 H 0.8005 0.38237 0.35657 0.0
H601 H 0.7927 0.37934 0.42507 0.0
H602 H 0.96988 0.46469 0.42703 0.0
H603 H 0.98192 0.41986 0.47409 0.0
H604 H 0.83607 0.3228 0.40873 0.0
H605 H 0.86152 0.34267 0.3444 0.0
H606 H 0.78794 0.3052 0.39599 0.0
H607 H 0.81296 0.32463 0.33278 0.0
H608 H 0.9788 0.39294 0.38753 0.0
H609 H 0.95085 0.34195 0.43555 0.0
H610 H 0.02587 0.40469 0.40297 0.0
H611 H -0.00157 0.35456 0.45015 0.0
H612 H 0.97455 0.39457 0.31404 0.0
H613 H 0.91399 0.32763 0.30943 0.0
H614 H 0.83771 0.28582 0.45843 0.0
H615 H 0.89227 0.26673 0.41712 0.0
Li616 Li 0.3964 0.88072 0.88611 0.0
Li617 Li 0.40364 0.88553 0.9246 0.0
Li618 Li 0.40368 0.85166 0.90819 0.0
Li619 Li 0.36183 0.86105 0.91163 0.0
C620 C 0.45023 0.8816 0.88974 0.0
N621 N 0.49217 0.8804 0.8633 0.0
C622 C 0.47755 0.89479 0.89424 0.0
C623 C 0.44425 0.86771 0.87184 0.0
C624 C 0.49846 0.89397 0.88066 0.0
C625 C 0.46573 0.86737 0.85866 0.0
C626 C 0.35359 0.89816 0.90543 0.0
C627 C 0.31493 0.904 0.92225 0.0
N628 N 0.30407 0.90506 0.90278 0.0
C629 C 0.34215 0.89951 0.88559 0.0
C630 C 0.33998 0.90062 0.92393 0.0
C631 C 0.31707 0.90294 0.88458 0.0
C632 C 0.38448 0.8836 0.84335 0.0
N633 N 0.40345 0.8935 0.85858 0.0
C634 C 0.43387 0.91696 0.83273 0.0
C635 C 0.42752 0.91028 0.85384 0.0
C636 C 0.41492 0.90656 0.81662 0.0
C637 C 0.38969 0.89007 0.82216 0.0
H638 H 0.36561 0.87023 0.84762 0.0
H639 H 0.44226 0.91782 0.8663 0.0
C640 C 0.44544 0.90284 0.9539 0.0
N641 N 0.42258 0.90565 0.94593 0.0
C642 C 0.46034 0.9166 0.97019 0.0
C643 C 0.4277 0.93576 0.9698 0.0
C644 C 0.41354 0.92172 0.95337 0.0
C645 C 0.45146 0.93329 0.9783 0.0
H646 H 0.45195 0.88979 0.94762 0.0
H647 H 0.39537 0.92359 0.94659 0.0
C648 C 0.35888 0.82654 0.88289 0.0
N649 N 0.3267 0.78228 0.87609 0.0
C650 C 0.3494 0.81203 0.90014 0.0
C651 C 0.35199 0.8185 0.8622 0.0
C652 C 0.33314 0.78974 0.89636 0.0
C653 C 0.33572 0.79608 0.85909 0.0
C654 C 0.38789 0.85586 0.95591 0.0
C655 C 0.40298 0.8444 0.96585 0.0
C656 C 0.37681 0.86881 0.96819 0.0
C657 C 0.40747 0.84665 0.98778 0.0
C658 C 0.3818 0.8707 0.99007 0.0
N659 N 0.39694 0.8597 -0.00067 0.0
C660 C 0.44426 0.83611 0.9222 0.0
C661 C 0.41675 0.81342 0.89491 0.0
C662 C 0.46061 0.82294 0.92302 0.0
N663 N 0.42253 0.83095 0.90859 0.0
C664 C 0.43269 0.79989 0.89508 0.0
C665 C 0.45488 0.80455 0.90933 0.0
H666 H 0.44909 0.8507 0.93227 0.0
H667 H 0.40017 0.81009 0.88359 0.0
C668 C 0.30755 0.84356 0.89706 0.0
N669 N 0.32289 0.84865 0.91511 0.0
C670 C 0.27917 0.83239 0.89816 0.0
C671 C 0.28251 0.83335 0.93651 0.0
C672 C 0.31099 0.84414 0.93464 0.0
C673 C 0.26623 0.82668 0.91809 0.0
H674 H 0.31757 0.84748 0.88173 0.0
H675 H 0.32363 0.84844 0.94876 0.0
O676 O 0.42961 0.88216 0.90302 0.0
O677 O 0.37784 0.89429 0.90672 0.0
O678 O 0.3745 0.84856 0.88609 0.0
O679 O 0.3836 0.85407 0.93437 0.0
H680 H 0.48251 0.90555 0.90809 0.0
H681 H 0.42326 0.85729 0.86814 0.0
H682 H 0.5197 0.90411 0.88393 0.0
H683 H 0.46139 0.85673 0.84475 0.0
H684 H 0.30409 0.90574 0.93645 0.0
H685 H 0.3524 0.89782 0.87112 0.0
H686 H 0.34846 0.89969 0.93943 0.0
H687 H 0.30793 0.90388 0.86931 0.0
H688 H 0.45355 0.92971 0.82896 0.0
H689 H 0.37476 0.88148 0.81011 0.0
H690 H 0.47853 0.91419 0.97643 0.0
H691 H 0.42052 0.9487 0.97546 0.0
H692 H 0.35443 0.81786 0.91628 0.0
H693 H 0.35918 0.82947 0.84867 0.0
H694 H 0.32564 0.77835 0.90956 0.0
H695 H 0.33024 0.78964 0.84316 0.0
H696 H 0.4109 0.83368 0.9568 0.0
H697 H 0.36493 0.87766 0.96085 0.0
H698 H 0.41924 0.83796 0.99563 0.0
H699 H 0.37368 0.88094 -0.00033 0.0
H700 H 0.47782 0.82731 0.93398 0.0
H701 H 0.42757 0.78582 0.88427 0.0
H702 H 0.26783 0.82733 0.88344 0.0
H703 H 0.27352 0.82974 0.95223 0.0
Li704 Li 0.51209 0.38384 0.41948 0.0
Li705 Li 0.50864 0.34653 0.41366 0.0
Li706 Li 0.55109 0.37821 0.40572 0.0
Li707 Li 0.50963 0.37146 0.38252 0.0
C708 C 0.53197 0.37129 0.45463 0.0
N709 N 0.52762 0.37858 0.49759 0.0
C710 C 0.51286 0.35501 0.46714 0.0
C711 C 0.54903 0.39119 0.46403 0.0
C712 C 0.51097 0.35902 0.48882 0.0
C713 C 0.54644 0.3946 0.48575 0.0
C714 C 0.45868 0.3618 0.41433 0.0
C715 C 0.42754 0.38188 0.41812 0.0
N716 N 0.41411 0.36761 0.43388 0.0
C717 C 0.44453 0.34726 0.43047 0.0
C718 C 0.45007 0.37917 0.40797 0.0
C719 C 0.42204 0.3505 0.44019 0.0
C720 C 0.5112 0.4254 0.43262 0.0
N721 N 0.50166 0.4034 0.4379 0.0
C722 C 0.4828 0.41123 0.47034 0.0
C723 C 0.48694 0.39604 0.45605 0.0
C724 C 0.49348 0.43414 0.46567 0.0
C725 C 0.50733 0.44113 0.44632 0.0
H726 H 0.52239 0.43087 0.41797 0.0
H727 H 0.47898 0.37846 0.45975 0.0
C728 C 0.51573 0.31047 0.4332 0.0
N729 N 0.49741 0.31609 0.42128 0.0
C730 C 0.5133 0.28822 0.43506 0.0
C731 C 0.47222 0.27779 0.4133 0.0
C732 C 0.47542 0.30036 0.41191 0.0
C733 C 0.49191 0.27159 0.4244 0.0
H734 H 0.53346 0.32343 0.4399 0.0
H735 H 0.46157 0.30545 0.40211 0.0
C736 C 0.55798 0.41736 0.39015 0.0
N737 N 0.60665 0.45156 0.38022 0.0
C738 C 0.5649 0.42314 0.36893 0.0
C739 C 0.57561 0.42923 0.40633 0.0
C740 C 0.58965 0.44042 0.36423 0.0
C741 C 0.60018 0.44639 0.40099 0.0
C742 C 0.53309 0.33279 0.38123 0.0
C743 C 0.55361 0.32565 0.38936 0.0
C744 C 0.51301 0.31886 0.36762 0.0
C745 C 0.55346 0.30445 0.38393 0.0
C746 C 0.51359 0.29779 0.36257 0.0
N747 N 0.5336 0.29107 0.37079 0.0
C748 C 0.60423 0.38777 0.42295 0.0
C749 C 0.60234 0.3882 0.38527 0.0
C750 C 0.63238 0.39151 0.42238 0.0
N751 N 0.58988 0.38608 0.40457 0.0
C752 C 0.63048 0.39196 0.38395 0.0
C753 C 0.6458 0.39336 0.40268 0.0
H754 H 0.59366 0.38553 0.43804 0.0
H755 H 0.59026 0.38648 0.37092 0.0
C756 C 0.47203 0.36935 0.34867 0.0
N757 N 0.49828 0.37166 0.35402 0.0
C758 C 0.4646 0.36912 0.32725 0.0
C759 C 0.51135 0.37364 0.3175 0.0
C760 C 0.51774 0.3735 0.33901 0.0
C761 C 0.48452 0.37148 0.31141 0.0
H762 H 0.45687 0.36757 0.36099 0.0
H763 H 0.53828 0.37483 0.3438 0.0
O764 O 0.53418 0.36762 0.43337 0.0
O765 O 0.48081 0.35897 0.40475 0.0
O766 O 0.53407 0.40021 0.39511 0.0
O767 O 0.5322 0.35307 0.38707 0.0
H768 H 0.49929 0.33959 0.46015 0.0
H769 H 0.56398 0.40395 0.45464 0.0
H770 H 0.49615 0.34664 0.49866 0.0
H771 H 0.55938 0.41 0.49319 0.0
H772 H 0.42075 0.39534 0.41349 0.0
H773 H 0.45098 0.33374 0.43554 0.0
H774 H 0.46091 0.39059 0.39552 0.0
H775 H 0.41095 0.33946 0.45278 0.0
H776 H 0.4716 0.40516 0.48495 0.0
H777 H 0.51593 0.45867 0.44215 0.0
H778 H 0.52933 0.28436 0.44337 0.0
H779 H 0.4554 0.26549 0.40489 0.0
H780 H 0.55132 0.41442 0.35622 0.0
H781 H 0.57047 0.4251 0.42284 0.0
H782 H 0.59532 0.44498 0.34786 0.0
H783 H 0.61412 0.45557 0.41335 0.0
H784 H 0.5692 0.33623 0.40001 0.0
H785 H 0.49692 0.32414 0.36129 0.0
H786 H 0.56904 0.2986 0.39026 0.0
H787 H 0.49804 0.28672 0.35221 0.0
H788 H 0.64326 0.39208 0.43719 0.0
H789 H 0.64005 0.39346 0.36844 0.0
H790 H 0.44368 0.36736 0.32311 0.0
H791 H 0.52714 0.37508 0.30574 0.0
Li792 Li 0.07806 0.6048 0.91399 0.0
Li793 Li 0.12382 0.61414 0.89677 0.0
Li794 Li 0.10214 0.64108 0.9017 0.0
Li795 Li 0.08267 0.613 0.87553 0.0
C796 C 0.12074 0.63879 0.94121 0.0
N797 N 0.13386 0.66775 0.97553 0.0
C798 C 0.14711 0.65503 0.94305 0.0
C799 C 0.10107 0.6373 0.95691 0.0
C800 C 0.15332 0.66954 0.96046 0.0
C801 C 0.10812 0.65205 0.97414 0.0
C802 C 0.07772 0.56676 0.8974 0.0
C803 C 0.03903 0.53196 0.89804 0.0
N804 N 0.05239 0.52381 0.9126 0.0
C805 C 0.09104 0.55805 0.91241 0.0
C806 C 0.05147 0.55365 0.89019 0.0
C807 C 0.0779 0.5363 0.91988 0.0
C808 C 0.02798 0.57514 0.93132 0.0
N809 N 0.05551 0.5853 0.93459 0.0
C810 C 0.05369 0.56302 0.96529 0.0
C811 C 0.06844 0.57981 0.95129 0.0
C812 C 0.02543 0.55159 0.9619 0.0
C813 C 0.01239 0.55812 0.94493 0.0
H814 H 0.01844 0.5796 0.91762 0.0
H815 H 0.09047 0.5879 0.9532 0.0
C816 C 0.18104 0.62646 0.90052 0.0
N817 N 0.15769 0.60887 0.89616 0.0
C818 C 0.20652 0.62377 0.90078 0.0
C819 C 0.18367 0.58504 0.89104 0.0
C820 C 0.15856 0.58847 0.89116 0.0
C821 C 0.20811 0.60281 0.89604 0.0
H822 H 0.17988 0.64265 0.90371 0.0
H823 H 0.13983 0.57491 0.88701 0.0
C824 C 0.05044 0.63827 0.9035 0.0
N825 N 0.02735 0.669 0.91624 0.0
C826 C 0.05137 0.65591 0.89009 0.0
C827 C 0.0376 0.63616 0.92333 0.0
C828 C 0.03967 0.67132 0.89685 0.0
C829 C 0.02606 0.65188 0.92948 0.0
C830 C 0.13333 0.63367 0.85702 0.0
C831 C 0.14626 0.65205 0.84388 0.0
C832 C 0.13288 0.61256 0.85079 0.0
C833 C 0.15873 0.64907 0.825 0.0
C834 C 0.14555 0.61025 0.8318 0.0
N835 N 0.15813 0.62841 0.8194 0.0
C836 C 0.13113 0.68611 0.89446 0.0
C837 C 0.10379 0.68055 0.92556 0.0
C838 C 0.14397 0.70864 0.89926 0.0
N839 N 0.11206 0.6724 0.90785 0.0
C840 C 0.11672 0.70295 0.93134 0.0
C841 C 0.13754 0.71706 0.91829 0.0
H842 H 0.13755 0.67931 0.88067 0.0
H843 H 0.08836 0.66949 0.9359 0.0
C844 C 0.06599 0.5868 0.83849 0.0
N845 N 0.06783 0.60642 0.8478 0.0
C846 C 0.06121 0.58377 0.81667 0.0
C847 C 0.05908 0.62081 0.81467 0.0
C848 C 0.06398 0.62314 0.83651 0.0
C849 C 0.05852 0.60119 0.80439 0.0
H850 H 0.07007 0.57408 0.8477 0.0
H851 H 0.06652 0.63883 0.84419 0.0
O852 O 0.11424 0.62443 0.92421 0.0
O853 O 0.08986 0.5883 0.89045 0.0
O854 O 0.06175 0.62298 0.89718 0.0
O855 O 0.12045 0.63633 0.87537 0.0
H856 H 0.16255 0.65666 0.93105 0.0
H857 H 0.08039 0.62525 0.95564 0.0
H858 H 0.17358 0.68227 0.96196 0.0
H859 H 0.09303 0.65113 0.9863 0.0
H860 H 0.01868 0.52166 0.89266 0.0
H861 H 0.11101 0.56816 0.91865 0.0
H862 H 0.0406 0.56026 0.87893 0.0
H863 H 0.08788 0.52942 0.93162 0.0
H864 H 0.06444 0.55869 0.97835 0.0
H865 H 0.99069 0.54954 0.94166 0.0
H866 H 0.22471 0.63794 0.90487 0.0
H867 H 0.18395 0.56874 0.88681 0.0
H868 H 0.06141 0.65791 0.87477 0.0
H869 H 0.03666 0.62262 0.93392 0.0
H870 H 0.04043 0.68516 0.8867 0.0
H871 H 0.01614 0.65049 0.94482 0.0
H872 H 0.14654 0.6685 0.84801 0.0
H873 H 0.12264 0.59797 0.86031 0.0
H874 H 0.16879 0.66318 0.81476 0.0
H875 H 0.14527 0.594 0.82687 0.0
H876 H 0.16027 0.71898 0.88898 0.0
H877 H 0.1114 0.70894 0.94622 0.0
H878 H 0.06089 0.56838 0.80933 0.0
H879 H 0.05766 0.63481 0.80573 0.0
Li880 Li 0.59906 0.12706 0.41177 0.0
Li881 Li 0.64283 0.12305 0.41401 0.0
Li882 Li 0.61376 0.10619 0.3834 0.0
Li883 Li 0.60362 0.09127 0.42007 0.0
C884 C 0.65038 0.15841 0.38938 0.0
N885 N 0.69433 0.19843 0.38692 0.0
C886 C 0.65011 0.17693 0.40103 0.0
C887 C 0.67296 0.16029 0.37641 0.0
C888 C 0.67251 0.19702 0.39955 0.0
C889 C 0.69502 0.18064 0.37544 0.0
C890 C 0.6299 0.12875 0.45457 0.0
C891 C 0.66215 0.12993 0.48258 0.0
N892 N 0.65987 0.14914 0.49 0.0
C893 C 0.62776 0.14845 0.46255 0.0
C894 C 0.64711 0.11933 0.46473 0.0
C895 C 0.64312 0.15852 0.48045 0.0
C896 C 0.56202 0.14155 0.43492 0.0
N897 N 0.57708 0.14468 0.41674 0.0
C898 C 0.56046 0.17305 0.40528 0.0
C899 C 0.57624 0.15974 0.40183 0.0
C900 C 0.54517 0.17065 0.42417 0.0
C901 C 0.54582 0.15443 0.43899 0.0
H902 H 0.56276 0.12912 0.4463 0.0
H903 H 0.58814 0.16159 0.38738 0.0
C904 C 0.69986 0.13023 0.41352 0.0
N905 N 0.68076 0.1383 0.42122 0.0
C906 C 0.72798 0.14239 0.41617 0.0
C907 C 0.71611 0.17036 0.43542 0.0
C908 C 0.68839 0.15789 0.43212 0.0
C909 C 0.73631 0.16286 0.42705 0.0
H910 H 0.69328 0.11477 0.40461 0.0
H911 H 0.67305 0.16446 0.43743 0.0
C912 C 0.55203 0.09646 0.40013 0.0
N913 N 0.49943 0.09758 0.40299 0.0
C914 C 0.5353 0.08674 0.41752 0.0
C915 C 0.54201 0.10677 0.3842 0.0
C916 C 0.50875 0.08745 0.41866 0.0
C917 C 0.51537 0.10717 0.38594 0.0
C918 C 0.63605 0.07232 0.40332 0.0
C919 C 0.62416 0.05643 0.38754 0.0
C920 C 0.64787 0.06641 0.42122 0.0
C921 C 0.62398 0.03472 0.39009 0.0
C922 C 0.64725 0.04452 0.42318 0.0
N923 N 0.6354 0.02926 0.40771 0.0
C924 C 0.63456 0.10461 0.34217 0.0
C925 C 0.58589 0.08958 0.34529 0.0
C926 C 0.63274 0.10154 0.32015 0.0
N927 N 0.61128 0.09919 0.3541 0.0
C928 C 0.58309 0.0863 0.32337 0.0
C929 C 0.6067 0.0928 0.31047 0.0
H930 H 0.65449 0.11178 0.34969 0.0
H931 H 0.56777 0.08487 0.35524 0.0
C932 C 0.58639 0.06657 0.45727 0.0
N933 N 0.58647 0.06492 0.43574 0.0
C934 C 0.56998 0.04865 0.46943 0.0
C935 C 0.55479 0.02732 0.43707 0.0
C936 C 0.57139 0.04578 0.42549 0.0
C937 C 0.55345 0.02894 0.45927 0.0
H938 H 0.59797 0.08215 0.46495 0.0
H939 H 0.5712 0.04524 0.4083 0.0
O940 O 0.62885 0.13848 0.3909 0.0
O941 O 0.61492 0.1186 0.43712 0.0
O942 O 0.57837 0.09652 0.39902 0.0
O943 O 0.63608 0.09357 0.40129 0.0
H944 H 0.63309 0.17571 0.41146 0.0
H945 H 0.67367 0.14612 0.36746 0.0
H946 H 0.67264 0.21143 0.40858 0.0
H947 H 0.71272 0.18227 0.36561 0.0
H948 H 0.67566 0.12289 0.49052 0.0
H949 H 0.61468 0.15605 0.45485 0.0
H950 H 0.64896 0.10409 0.45879 0.0
H951 H 0.64179 0.17383 0.48672 0.0
H952 H 0.56092 0.18553 0.39354 0.0
H953 H 0.53407 0.1518 0.45361 0.0
H954 H 0.74301 0.13618 0.40934 0.0
H955 H 0.72166 0.18637 0.44337 0.0
H956 H 0.54279 0.07896 0.43015 0.0
H957 H 0.55486 0.11476 0.37083 0.0
H958 H 0.49562 0.08005 0.43206 0.0
H959 H 0.50742 0.11521 0.37381 0.0
H960 H 0.61492 0.06075 0.37359 0.0
H961 H 0.65733 0.07858 0.43348 0.0
H962 H 0.61471 0.0222 0.37807 0.0
H963 H 0.65619 0.03967 0.437 0.0
H964 H 0.65144 0.10681 0.31075 0.0
H965 H 0.56267 0.07912 0.31653 0.0
H966 H 0.56954 0.05041 0.48655 0.0
H967 H 0.54203 0.01244 0.42872 0.0
Li968 Li 0.49884 0.63778 0.90793 0.0
Li969 Li 0.49124 0.59936 0.91186 0.0
Li970 Li 0.4973 0.61688 0.87597 0.0
Li971 Li 0.45538 0.61164 0.89784 0.0
C972 C 0.54924 0.63691 0.90592 0.0
N973 N 0.59933 0.66696 0.91939 0.0
C974 C 0.55484 0.64037 0.92764 0.0
C975 C 0.56917 0.6485 0.89104 0.0
C976 C 0.58027 0.65572 0.93414 0.0
C977 C 0.59437 0.66367 0.89818 0.0
C978 C 0.45309 0.60224 0.94049 0.0
C979 C 0.41805 0.56655 0.94839 0.0
N980 N 0.41631 0.57358 0.96857 0.0
C981 C 0.45096 0.60907 0.96133 0.0
C982 C 0.43652 0.58077 0.93397 0.0
C983 C 0.43224 0.59436 0.97528 0.0
C984 C 0.49407 0.6701 0.93455 0.0
N985 N 0.51224 0.66698 0.92049 0.0
C986 C 0.5358 0.70642 0.91757 0.0
C987 C 0.53377 0.68456 0.91284 0.0
C988 C 0.5158 0.71001 0.9306 0.0
C989 C 0.49566 0.69156 0.94005 0.0
H990 H 0.47675 0.65599 0.93999 0.0
H991 H 0.54775 0.68182 0.90142 0.0
C992 C 0.49535 0.5574 0.91892 0.0
N993 N 0.49745 0.57699 0.92837 0.0
C994 C 0.49725 0.53979 0.93108 0.0
C995 C 0.50405 0.56312 0.96238 0.0
C996 C 0.50214 0.5803 0.94959 0.0
C997 C 0.50125 0.54244 0.95316 0.0
H998 H 0.49164 0.55532 0.90199 0.0
H999 H 0.50376 0.59611 0.95665 0.0
C1000 C 0.4866 0.6598 0.87529 0.0
N1001 N 0.50365 0.70409 0.86298 0.0
C1002 C 0.46937 0.67207 0.8783 0.0
C1003 C 0.5125 0.6701 0.86599 0.0
C1004 C 0.4784 0.69444 0.87203 0.0
C1005 C 0.52073 0.69247 0.85984 0.0
C1006 C 0.45261 0.57753 0.86872 0.0
C1007 C 0.44395 0.58973 0.85369 0.0
C1008 C 0.44552 0.55451 0.86605 0.0
C1009 C 0.42845 0.57869 0.8362 0.0
C1010 C 0.42996 0.54407 0.84836 0.0
N1011 N 0.42184 0.55628 0.83391 0.0
C1012 C 0.52229 0.60068 0.84294 0.0
C1013 C 0.50246 0.62709 0.83218 0.0
C1014 C 0.52863 0.59756 0.82181 0.0
N1015 N 0.50936 0.61522 0.84764 0.0
C1016 C 0.50901 0.62493 0.81103 0.0
C1017 C 0.52197 0.60985 0.80565 0.0
H1018 H 0.52692 0.59105 0.85552 0.0
H1019 H 0.49099 0.63768 0.83611 0.0
C1020 C 0.41233 0.62548 0.90587 0.0
N1021 N 0.41732 0.6077 0.89765 0.0
C1022 C 0.38595 0.62636 0.90512 0.0
C1023 C 0.36967 0.58969 0.88897 0.0
C1024 C 0.39656 0.58962 0.88987 0.0
C1025 C 0.36434 0.60852 0.89616 0.0
H1026 H 0.42909 0.63919 0.91271 0.0
H1027 H 0.40083 0.57532 0.88406 0.0
O1028 O 0.52454 0.62195 0.89924 0.0
O1029 O 0.47169 0.6165 0.92683 0.0
O1030 O 0.47816 0.63782 0.88131 0.0
O1031 O 0.46821 0.58797 0.88583 0.0
H1032 H 0.5396 0.63145 0.93933 0.0
H1033 H 0.56516 0.64583 0.87416 0.0
H1034 H 0.58485 0.65871 0.95089 0.0
H1035 H 0.60997 0.67285 0.88685 0.0
H1036 H 0.40513 0.54991 0.94355 0.0
H1037 H 0.46377 0.62555 0.96673 0.0
H1038 H 0.43786 0.57501 0.91802 0.0
H1039 H 0.43042 0.59944 0.99145 0.0
H1040 H 0.55156 0.72028 0.90992 0.0
H1041 H 0.47957 0.6936 0.94987 0.0
H1042 H 0.49475 0.52406 0.92337 0.0
H1043 H 0.50753 0.56594 0.97929 0.0
H1044 H 0.44919 0.66445 0.88526 0.0
H1045 H 0.5263 0.661 0.86381 0.0
H1046 H 0.46531 0.70414 0.87434 0.0
H1047 H 0.54076 0.70064 0.85271 0.0
H1048 H 0.44894 0.6075 0.85553 0.0
H1049 H 0.45196 0.54478 0.87754 0.0
H1050 H 0.42165 0.58794 0.82447 0.0
H1051 H 0.42435 0.52626 0.8461 0.0
H1052 H 0.53832 0.58557 0.81809 0.0
H1053 H 0.50294 0.63423 0.79886 0.0
H1054 H 0.3825 0.64092 0.91133 0.0
H1055 H 0.35345 0.57554 0.88211 0.0
H1056 H 0.57192 0.10606 0.28674 0.0
H1057 H 0.63609 0.07827 0.28161 0.0
H1058 H 0.63363 0.07947 0.24276 0.0
H1059 H 0.61459 0.09007 0.21034 0.0
H1060 H 0.55112 0.11859 0.21586 0.0
H1061 H 0.55177 0.11528 0.25455 0.0
C1062 C 0.58504 0.09991 0.27712 0.0
C1063 C 0.60409 0.09202 0.28699 0.0
C1064 C 0.58372 0.10089 0.2549 0.0
C1065 C 0.62138 0.08455 0.27433 0.0
C1066 C 0.61994 0.08519 0.25215 0.0
C1067 C 0.60067 0.09527 0.22004 0.0
C1068 C 0.58289 0.10461 0.21033 0.0
C1069 C 0.60139 0.09356 0.24228 0.0
C1070 C 0.56519 0.11157 0.22304 0.0
C1071 C 0.5655 0.10963 0.24512 0.0
H1072 H 0.50832 0.58328 0.70956 0.0
H1073 H 0.56025 0.65263 0.7029 0.0
H1074 H 0.56591 0.65597 0.74137 0.0
H1075 H 0.55151 0.64039 0.77703 0.0
H1076 H 0.50114 0.5709 0.78375 0.0
H1077 H 0.50017 0.56619 0.74504 0.0
C1078 C 0.52154 0.59897 0.71639 0.0
C1079 C 0.53327 0.61781 0.70328 0.0
C1080 C 0.52491 0.60077 0.73856 0.0
C1081 C 0.55024 0.63802 0.71259 0.0
C1082 C 0.55363 0.63994 0.73461 0.0
C1083 C 0.54086 0.62414 0.76994 0.0
C1084 C 0.52627 0.60604 0.78301 0.0
C1085 C 0.5403 0.62164 0.74776 0.0
C1086 C 0.5126 0.585 0.77387 0.0
C1087 C 0.51188 0.58237 0.75178 0.0
H1088 H 0.94223 0.34105 0.21036 0.0
H1089 H 0.95069 0.41041 0.20758 0.0
H1090 H 0.95703 0.41362 0.24615 0.0
H1091 H 0.95409 0.39542 0.28071 0.0
H1092 H 0.94659 0.32615 0.28365 0.0
H1093 H 0.94576 0.32416 0.24488 0.0
C1094 C 0.94586 0.35692 0.21824 0.0
C1095 C 0.94574 0.37541 0.20631 0.0
C1096 C 0.94927 0.35857 0.24038 0.0
C1097 C 0.9508 0.39599 0.21651 0.0
C1098 C 0.95422 0.39778 0.23854 0.0
C1099 C 0.9531 0.38003 0.27296 0.0
C1100 C 0.94995 0.36086 0.28516 0.0
C1101 C 0.9527 0.37901 0.25068 0.0
C1102 C 0.94837 0.34103 0.27469 0.0
C1103 C 0.94799 0.33988 0.25251 0.0
H1104 H 0.38491 0.91685 0.7858 0.0
H1105 H 0.46091 0.90566 0.79676 0.0
H1106 H 0.46917 0.90612 0.75843 0.0
H1107 H 0.4518 0.90513 0.72186 0.0
H1108 H 0.37601 0.91663 0.71087 0.0
H1109 H 0.3707 0.9209 0.74912 0.0
C1110 C 0.40348 0.91491 0.77972 0.0
C1111 C 0.42217 0.91104 0.79393 0.0
C1112 C 0.40798 0.91507 0.75772 0.0
C1113 C 0.44633 0.90876 0.78604 0.0
C1114 C 0.45094 0.90884 0.76416 0.0
C1115 C 0.4344 0.90894 0.7279 0.0
C1116 C 0.41418 0.91037 0.71374 0.0
C1117 C 0.43148 0.91129 0.74986 0.0
C1118 C 0.39184 0.91553 0.72156 0.0
C1119 C 0.38871 0.91782 0.7434 0.0
H1120 H 0.51298 0.40079 0.28138 0.0
H1121 H 0.44056 0.34194 0.29033 0.0
H1122 H 0.43186 0.33979 0.25193 0.0
H1123 H 0.4469 0.35327 0.2156 0.0
H1124 H 0.5198 0.41199 0.20712 0.0
H1125 H 0.5261 0.41571 0.24553 0.0
C1126 C 0.49524 0.38756 0.27489 0.0
C1127 C 0.4776 0.37141 0.28855 0.0
C1128 C 0.49048 0.38641 0.2529 0.0
C1129 C 0.45439 0.35458 0.28007 0.0
C1130 C 0.44951 0.35328 0.25814 0.0
C1131 C 0.46405 0.36693 0.22221 0.0
C1132 C 0.48287 0.38229 0.20852 0.0
C1133 C 0.46772 0.36888 0.24437 0.0
C1134 C 0.50482 0.40009 0.21729 0.0
C1135 C 0.50859 0.40213 0.23926 0.0
H1136 H 0.08451 0.60115 0.70671 0.0
H1137 H 0.02042 0.62906 0.703 0.0
H1138 H 0.01284 0.62414 0.74149 0.0
H1139 H 0.0268 0.6141 0.77645 0.0
H1140 H 0.09138 0.5865 0.77955 0.0
H1141 H 0.09612 0.58875 0.74099 0.0
C1142 C 0.06885 0.60609 0.71438 0.0
C1143 C 0.05329 0.61571 0.70225 0.0
C1144 C 0.06466 0.60319 0.73634 0.0
C1145 C 0.03265 0.62165 0.71214 0.0
C1146 C 0.0284 0.61891 0.7341 0.0
C1147 C 0.04175 0.60844 0.76862 0.0
C1148 C 0.05869 0.60015 0.78084 0.0
C1149 C 0.04462 0.61003 0.7464 0.0
C1150 C 0.0778 0.59265 0.77051 0.0
C1151 C 0.08073 0.59413 0.74847 0.0
H1152 H 0.50207 0.00421 0.05028 0.0
H1153 H 0.57544 0.01494 0.01315 0.0
H1154 H 0.55036 0.98331 0.99022 0.0
H1155 H 0.50651 0.95534 0.97871 0.0
H1156 H 0.43248 0.94614 0.01459 0.0
H1157 H 0.45884 0.97451 0.04017 0.0
C1158 C 0.51264 -0.00078 0.03746 0.0
C1159 C 0.54045 0.01166 0.03334 0.0
C1160 C 0.4979 0.98158 0.02402 0.0
C1161 C 0.55397 0.00547 0.0165 0.0
C1162 C 0.53964 0.9875 0.0034 0.0
C1163 C 0.49629 0.95928 0.99236 0.0
C1164 C 0.46767 0.94883 0.9948 0.0
C1165 C 0.51144 0.97584 0.00669 0.0
C1166 C 0.4545 0.95422 0.01234 0.0
C1167 C 0.46954 0.97035 0.02696 0.0
H1168 H 0.49503 0.49979 0.54104 0.0
H1169 H 0.46987 0.53353 0.49025 0.0
H1170 H 0.47064 0.50462 0.46515 0.0
H1171 H 0.47874 0.46992 0.45762 0.0
H1172 H 0.50334 0.43575 0.50835 0.0
H1173 H 0.50217 0.46446 0.5336 0.0
C1174 C 0.48989 0.50081 0.52444 0.0
C1175 C 0.48251 0.51872 0.51743 0.0
C1176 C 0.49007 0.484 0.51017 0.0
C1177 C 0.47548 0.51978 0.49598 0.0
C1178 C 0.47596 0.50331 0.48164 0.0
C1179 C 0.48389 0.46881 0.4742 0.0
C1180 C 0.49116 0.45082 0.48113 0.0
C1181 C 0.48323 0.48536 0.48856 0.0
C1182 C 0.4974 0.44936 0.5027 0.0
C1183 C 0.49694 0.46584 0.5171 0.0
H1184 H 0.04258 0.51851 0.97514 0.0
H1185 H 0.97375 0.54115 0.97869 0.0
H1186 H 0.94899 0.50943 0.00151 0.0
H1187 H 0.94744 0.47581 0.02095 0.0
H1188 H 0.01701 0.454 0.01831 0.0
H1189 H 0.04107 0.48499 0.99456 0.0
C1190 C 0.02229 0.51665 0.98111 0.0
C1191 C 0.01012 0.53226 0.97544 0.0
C1192 C 0.00836 0.49857 0.99432 0.0
C1193 C 0.9835 0.52929 0.98278 0.0
C1194 C 0.96941 0.51125 0.99589 0.0
C1195 C 0.96798 0.47798 0.01534 0.0
C1196 C 0.98052 0.46275 0.02148 0.0
C1197 C 0.98174 0.49589 0.00187 0.0
C1198 C 0.00687 0.46543 0.01369 0.0
C1199 C 0.02067 0.48319 0.00021 0.0
H1200 H 0.51744 0.03332 0.48824 0.0
H1201 H 0.54431 0.9843 0.45777 0.0
H1202 H 0.51136 0.95466 0.47898 0.0
H1203 H 0.47649 0.94318 0.5071 0.0
H1204 H 0.44893 0.99218 0.53705 0.0
H1205 H 0.48106 0.02157 0.51526 0.0
C1206 C 0.51616 0.01614 0.48638 0.0
C1207 C 0.5334 0.01092 0.47173 0.0
C1208 C 0.4972 -0.00068 0.4985 0.0
C1209 C 0.5312 0.98861 0.46901 0.0
C1210 C 0.51245 0.97174 0.48114 0.0
C1211 C 0.4771 0.96021 0.50859 0.0
C1212 C 0.46031 0.96549 0.52364 0.0
C1213 C 0.49548 0.97694 0.496 0.0
C1214 C 0.46183 0.98773 0.52571 0.0
C1215 C 0.48011 0.00451 0.51324 0.0
H1216 H 0.47586 0.52927 0.9912 0.0
H1217 H 0.52736 0.51303 0.94507 0.0
H1218 H 0.527 0.48125 0.96668 0.0
H1219 H 0.51243 0.45834 -0.00123 0.0
H1220 H 0.46089 0.47447 0.04492 0.0
H1221 H 0.46136 0.50636 0.02338 0.0
C1222 C 0.48726 0.51892 0.98599 0.0
C1223 C 0.50165 0.52352 0.96658 0.0
C1224 C 0.48699 0.50071 -0.00151 0.0
C1225 C 0.51591 0.50972 0.95986 0.0
C1226 C 0.5158 0.4916 0.97223 0.0
C1227 C 0.50103 0.46868 0.00399 0.0
C1228 C 0.48655 0.46399 0.02336 0.0
C1229 C 0.50134 0.48691 0.99153 0.0
C1230 C 0.47236 0.47783 0.03014 0.0
C1231 C 0.47254 0.496 0.01781 0.0
H1232 H 0.95831 0.47746 0.46263 0.0
H1233 H 0.02571 0.45466 0.4747 0.0
H1234 H 0.04626 0.48583 0.49929 0.0
H1235 H 0.04499 0.51945 0.5171 0.0
H1236 H 0.97671 0.54154 0.50595 0.0
H1237 H 0.95682 0.51094 0.48077 0.0
C1238 C 0.97766 0.47949 0.47048 0.0
C1239 C 0.99063 0.46396 0.46681 0.0
C1240 C 0.98915 0.49727 0.48466 0.0
C1241 C 0.01537 0.46643 0.47738 0.0
C1242 C 0.02711 0.48423 0.49136 0.0
C1243 C 0.02556 0.51742 0.50939 0.0
C1244 C 0.01229 0.5327 0.51349 0.0
C1245 C 0.0141 0.49968 0.49517 0.0
C1246 C 0.98747 0.53013 0.50295 0.0
C1247 C 0.97602 0.51259 0.48863 0.0
H1248 H 0.49538 0.19177 0.03714 0.0
H1249 H 0.4872 0.18395 0.10522 0.0
H1250 H 0.46744 0.2132 0.10704 0.0
H1251 H 0.45988 0.24492 0.09008 0.0
H1252 H 0.46921 0.25369 0.02213 0.0
H1253 H 0.48089 0.22005 0.01941 0.0
C1254 C 0.48882 0.19626 0.0523 0.0
C1255 C 0.49299 0.1859 0.07102 0.0
C1256 C 0.47794 0.2134 0.05328 0.0
C1257 C 0.48408 0.1916 0.09056 0.0
C1258 C 0.47297 0.20845 0.09163 0.0
C1259 C 0.46348 0.23906 0.07458 0.0
C1260 C 0.46404 0.25196 0.05637 0.0
C1261 C 0.47075 0.22001 0.0732 0.0
C1262 C 0.46906 0.24421 0.03642 0.0
C1263 C 0.47583 0.22504 0.03487 0.0
H1264 H 0.33551 0.63179 0.57715 0.0
H1265 H 0.31049 0.57761 0.62237 0.0
H1266 H 0.26412 0.57917 0.62343 0.0
H1267 H 0.23023 0.59511 0.61043 0.0
H1268 H 0.25548 0.64857 0.56446 0.0
H1269 H 0.3021 0.64774 0.5644 0.0
C1270 C 0.31986 0.62012 0.58707 0.0
C1271 C 0.32643 0.60447 0.59952 0.0
C1272 C 0.29324 0.6209 0.58736 0.0
C1273 C 0.30605 0.58992 0.61273 0.0
C1274 C 0.27949 0.59071 0.61324 0.0
C1275 C 0.24603 0.60668 0.60055 0.0
C1276 C 0.2394 0.6218 0.58739 0.0
C1277 C 0.27281 0.60605 0.60052 0.0
C1278 C 0.25998 0.63656 0.5745 0.0
C1279 C 0.28666 0.63618 0.57453 0.0
H1280 H 0.82049 0.24612 0.03248 0.0
H1281 H 0.84262 0.24401 0.0985 0.0
H1282 H 0.80161 0.21132 0.10417 0.0
H1283 H 0.75541 0.18794 0.09235 0.0
H1284 H 0.731 0.19197 0.02737 0.0
H1285 H 0.7767 0.21916 0.01939 0.0
C1286 C 0.81655 0.23833 0.04804 0.0
C1287 C 0.83442 0.24799 0.0651 0.0
C1288 C 0.79213 0.22006 0.05153 0.0
C1289 C 0.82942 0.23714 0.08497 0.0
C1290 C 0.80566 0.21852 0.08837 0.0
C1291 C 0.76025 0.19459 0.07638 0.0
C1292 C 0.73977 0.18835 0.06059 0.0
C1293 C 0.78624 0.21061 0.07207 0.0
C1294 C 0.74643 0.19659 0.03982 0.0
C1295 C 0.7725 0.21224 0.03529 0.0
H1296 H 0.47271 0.79014 0.54461 0.0
H1297 H 0.48904 0.79647 0.61199 0.0
H1298 H 0.5087 0.76703 0.61031 0.0
H1299 H 0.51486 0.73621 0.59067 0.0
H1300 H 0.49946 0.73009 0.52304 0.0
H1301 H 0.48597 0.76291 0.5238 0.0
C1302 C 0.48102 0.78526 0.55881 0.0
C1303 C 0.47924 0.79517 0.57842 0.0
C1304 C 0.49219 0.7683 0.55772 0.0
C1305 C 0.49029 0.78902 0.59673 0.0
C1306 C 0.50137 0.77214 0.59578 0.0
C1307 C 0.50952 0.74243 0.57592 0.0
C1308 C 0.50776 0.73041 0.55688 0.0
C1309 C 0.50164 0.76121 0.57649 0.0
C1310 C 0.50045 0.73872 0.538 0.0
C1311 C 0.49271 0.75749 0.53842 0.0
H1312 H 0.66934 0.39628 0.11235 0.0
H1313 H 0.64633 0.35795 0.0544 0.0
H1314 H 0.69158 0.3545 0.05276 0.0
H1315 H 0.73721 0.36163 0.0681 0.0
H1316 H 0.76105 0.40078 0.12551 0.0
H1317 H 0.71585 0.4045 0.12712 0.0
C1318 C 0.67437 0.38741 0.09923 0.0
C1319 C 0.65444 0.37732 0.08357 0.0
C1320 C 0.70047 0.38549 0.09837 0.0
C1321 C 0.66115 0.36561 0.06682 0.0
C1322 C 0.68705 0.3637 0.06582 0.0
C1323 C 0.73269 0.37123 0.08083 0.0
C1324 C 0.75254 0.38092 0.09664 0.0
C1325 C 0.7068 0.37345 0.08156 0.0
C1326 C 0.74605 0.3929 0.11327 0.0
C1327 C 0.72027 0.39517 0.11413 0.0
H1328 H 0.15027 0.75105 0.59339 0.0
H1329 H 0.16371 0.75051 0.52564 0.0
H1330 H 0.20624 0.78285 0.52923 0.0
H1331 H 0.2431 0.80652 0.5524 0.0
H1332 H 0.22891 0.80742 0.62004 0.0
H1333 H 0.18289 0.77956 0.61555 0.0
C1334 C 0.16184 0.7584 0.57922 0.0
C1335 C 0.15406 0.74795 0.55932 0.0
C1336 C 0.18647 0.77673 0.58144 0.0
C1337 C 0.16956 0.75785 0.54124 0.0
C1338 C 0.19393 0.77632 0.54328 0.0
C1339 C 0.22971 0.80121 0.56612 0.0
C1340 C 0.23982 0.80867 0.58661 0.0
C1341 C 0.20321 0.78519 0.56345 0.0
C1342 C 0.22205 0.80145 0.60416 0.0
C1343 C 0.19563 0.7856 0.60161 0.0
H1344 H 0.77142 0.40653 0.41454 0.0
H1345 H 0.7519 0.35908 0.36287 0.0
H1346 H 0.70518 0.35966 0.36122 0.0
H1347 H 0.66913 0.37189 0.37586 0.0
H1348 H 0.6884 0.41916 0.4277 0.0
H1349 H 0.73586 0.42013 0.42811 0.0
C1350 C 0.75691 0.3963 0.40295 0.0
C1351 C 0.7651 0.38274 0.3889 0.0
C1352 C 0.73 0.39656 0.40222 0.0
C1353 C 0.74621 0.36984 0.37372 0.0
C1354 C 0.71944 0.37005 0.37286 0.0
C1355 C 0.68381 0.38271 0.387 0.0
C1356 C 0.67518 0.39538 0.40177 0.0
C1357 C 0.71103 0.38316 0.38717 0.0
C1358 C 0.69441 0.40902 0.41634 0.0
C1359 C 0.72157 0.40965 0.41654 0.0
H1360 H 0.24224 0.79408 0.94741 0.0
H1361 H 0.22348 0.82531 0.89156 0.0
H1362 H 0.17903 0.79505 0.8884 0.0
H1363 H 0.14938 0.75671 0.89805 0.0
H1364 H 0.16763 0.72644 0.95448 0.0
H1365 H 0.20793 0.75992 0.96142 0.0
C1366 C 0.22818 0.79486 0.93496 0.0
C1367 C 0.23677 0.81168 0.91933 0.0
C1368 C 0.20251 0.7775 0.93332 0.0
C1369 C 0.21797 0.81214 0.90335 0.0
C1370 C 0.19242 0.7949 0.90159 0.0
C1371 C 0.16173 0.75785 0.91222 0.0
C1372 C 0.15585 0.73923 0.92566 0.0
C1373 C 0.18507 0.77699 0.91591 0.0
C1374 C 0.17178 0.7407 0.94402 0.0
C1375 C 0.19498 0.75972 0.94784 0.0
H1376 H 0.51518 0.18596 0.39681 0.0
H1377 H 0.54184 0.19016 0.46224 0.0
H1378 H 0.52302 0.21936 0.469 0.0
H1379 H 0.50464 0.24701 0.45523 0.0
H1380 H 0.48216 0.2452 0.38896 0.0
H1381 H 0.49314 0.2116 0.38378 0.0
C1382 C 0.51678 0.19321 0.41257 0.0
C1383 C 0.53025 0.18606 0.42889 0.0
C1384 C 0.50667 0.21049 0.41621 0.0
C1385 C 0.53148 0.19522 0.44938 0.0
C1386 C 0.52091 0.21207 0.45323 0.0
C1387 C 0.50185 0.23911 0.4397 0.0
C1388 C 0.49285 0.24877 0.42249 0.0
C1389 C 0.50929 0.22032 0.4366 0.0
C1390 C 0.4888 0.23806 0.40257 0.0
C1391 C 0.49542 0.21898 0.39951 0.0
H1392 H 0.25757 0.63187 0.88237 0.0
H1393 H 0.21946 0.56653 0.91029 0.0
H1394 H 0.26415 0.56195 0.91175 0.0
H1395 H 0.31458 0.5773 0.90657 0.0
H1396 H 0.35242 0.64339 0.88029 0.0
H1397 H 0.30739 0.64707 0.87717 0.0
C1398 C 0.259 0.6167 0.88899 0.0
C1399 C 0.23513 0.59964 0.8963 0.0
C1400 C 0.28479 0.61437 0.89022 0.0
C1401 C 0.2374 0.57986 0.90432 0.0
C1402 C 0.263 0.57728 0.90531 0.0
C1403 C 0.31285 0.5924 0.90002 0.0
C1404 C 0.33673 0.61009 0.89377 0.0
C1405 C 0.28688 0.59451 0.89847 0.0
C1406 C 0.33432 0.62966 0.88545 0.0
C1407 C 0.3086 0.63175 0.88359 0.0
H1408 H 0.76524 0.18558 0.461 0.0
H1409 H 0.77242 0.17429 0.394 0.0
H1410 H 0.81616 0.20569 0.39264 0.0
H1411 H 0.84703 0.24022 0.40892 0.0
H1412 H 0.8393 0.25242 0.47572 0.0
H1413 H 0.80111 0.21674 0.47877 0.0
C1414 C 0.77676 0.18974 0.44624 0.0
C1415 C 0.76552 0.1779 0.42758 0.0
C1416 C 0.8015 0.20817 0.44546 0.0
C1417 C 0.78071 0.18314 0.40858 0.0
C1418 C 0.80558 0.20124 0.40776 0.0
C1419 C 0.83773 0.23476 0.42434 0.0
C1420 C 0.84569 0.24918 0.44199 0.0
C1421 C 0.81549 0.21445 0.42588 0.0
C1422 C 0.83317 0.24183 0.4618 0.0
C1423 C 0.81132 0.22145 0.46355 0.0
H1424 H 0.51432 0.73537 0.89682 0.0
H1425 H 0.50733 0.73275 0.96514 0.0
H1426 H 0.49018 0.76375 0.96466 0.0
H1427 H 0.4715 0.78799 0.94437 0.0
H1428 H 0.47569 0.78855 0.87583 0.0
H1429 H 0.49938 0.76175 0.87676 0.0
C1430 C 0.50978 0.74201 0.91163 0.0
C1431 C 0.5121 0.73186 0.93099 0.0
C1432 C 0.49883 0.75909 0.91112 0.0
C1433 C 0.50572 0.74037 0.95007 0.0
C1434 C 0.49573 0.75794 0.94976 0.0
C1435 C 0.47808 0.78255 0.92967 0.0
C1436 C 0.47163 0.79004 0.91006 0.0
C1437 C 0.49129 0.76688 0.93032 0.0
C1438 C 0.48003 0.78272 0.89111 0.0
C1439 C 0.49369 0.7675 0.89163 0.0
loop_
_geom_bond_atom_site_label_1
_geom_bond_atom_site_label_2
_geom_bond_distance
_geom_bond_site_symmetry_2
_ccdc_geom_bond_type
Li0 N17 1.990 . S
Li0 O60 1.956 . S
Li0 O61 1.970 . S
Li0 O62 1.961 . S
Li1 N25 1.990 . S
Li1 O60 1.970 . S
Li1 O61 1.956 . S
Li1 O63 1.961 . S
Li2 N47 1.990 . S
Li2 O60 1.961 . S
Li2 O62 1.956 . S
Li2 O63 1.970 . S
Li3 N53 1.990 . S
Li3 O61 1.961 . S
Li3 O62 1.970 . S
Li3 O63 1.956 . S
C4 C6 1.348 . S
C4 C7 1.356 . S
C4 O60 1.325 . S
N5 C8 1.314 1_556 S
N5 C9 1.279 1_556 S
C6 C4 1.348 . S
C6 C8 1.353 . S
C6 H64 0.929 . S
C7 C4 1.356 . S
C7 C9 1.358 . S
C7 H65 0.930 . S
C8 N5 1.314 1_554 S
C8 C6 1.353 . S
C8 H66 0.930 . S
C9 N5 1.279 1_554 S
C9 C7 1.358 . S
C9 H67 0.930 1_554 S
C10 C13 1.348 . S
C10 C14 1.356 . S
C10 O61 1.325 . S
C11 N12 1.279 . S
C11 C14 1.358 . S
C11 H68 0.930 . S
N12 C11 1.279 . S
N12 C15 1.314 . S
C13 C10 1.348 . S
C13 C15 1.353 . S
C13 H69 0.929 . S
C14 C10 1.356 . S
C14 C11 1.358 . S
C14 H70 0.930 . S
C15 N12 1.314 . S
C15 C13 1.353 . S
C15 H71 0.930 . S
C16 N17 1.314 . S
C16 C21 1.353 . S
C16 H22 0.930 . S
N17 Li0 1.990 . S
N17 C16 1.314 . S
N17 C19 1.279 . S
C18 C19 1.358 . S
C18 C20 1.356 . S
C18 H72 0.930 . S
C19 N17 1.279 . S
C19 C18 1.358 . S
C19 H23 0.930 . S
C20 C18 1.356 . S
C20 C21 1.348 . S
C21 C16 1.353 . S
C21 C20 1.348 . S
C21 H73 0.929 . S
H22 C16 0.930 . S
H23 C19 0.930 . S
C24 N25 1.314 . S
C24 C26 1.353 . S
C24 H30 0.930 . S
N25 Li1 1.990 . S
N25 C24 1.314 . S
N25 C28 1.279 . S
C26 C24 1.353 . S
C26 C29 1.348 . S
C26 H74 0.929 . S
C27 C28 1.358 . S
C27 C29 1.356 . S
C27 H75 0.930 . S
C28 N25 1.279 . S
C28 C27 1.358 . S
C28 H31 0.930 . S
C29 C26 1.348 . S
C29 C27 1.356 . S
H30 C24 0.930 . S
H31 C28 0.930 . S
C32 C34 1.348 . S
C32 C35 1.356 . S
C32 O62 1.325 . S
N33 C36 1.314 . S
N33 C37 1.279 . S
C34 C32 1.348 . S
C34 C36 1.353 . S
C34 H76 0.929 . S
C35 C32 1.356 . S
C35 C37 1.358 . S
C35 H77 0.930 . S
C36 N33 1.314 . S
C36 C34 1.353 . S
C36 H78 0.930 . S
C37 N33 1.279 . S
C37 C35 1.358 . S
C37 H79 0.930 . S
C38 C39 1.348 . S
C38 C40 1.356 . S
C38 O63 1.325 . S
C39 C38 1.348 . S
C39 C41 1.353 . S
C39 H80 0.929 . S
C40 C38 1.356 . S
C40 C42 1.358 . S
C40 H81 0.930 . S
C41 C39 1.353 . S
C41 N43 1.314 . S
C41 H82 0.930 . S
C42 C40 1.358 . S
C42 N43 1.279 . S
C42 H83 0.930 . S
N43 C41 1.314 . S
N43 C42 1.279 . S
C44 C46 1.353 . S
C44 N47 1.314 . S
C44 H50 0.930 . S
C45 N47 1.279 . S
C45 C48 1.358 . S
C45 H51 0.930 . S
C46 C44 1.353 . S
C46 C49 1.348 . S
C46 H84 0.929 . S
N47 Li2 1.990 . S
N47 C44 1.314 . S
N47 C45 1.279 . S
C48 C45 1.358 . S
C48 C49 1.356 . S
C48 H85 0.930 . S
C49 C46 1.348 . S
C49 C48 1.356 . S
H50 C44 0.930 . S
H51 C45 0.930 . S
C52 N53 1.314 . S
C52 C54 1.353 . S
C52 H58 0.930 . S
N53 Li3 1.990 . S
N53 C52 1.314 . S
N53 C56 1.279 . S
C54 C52 1.353 . S
C54 C57 1.348 . S
C54 H86 0.929 . S
C55 C56 1.358 . S
C55 C57 1.356 . S
C55 H87 0.930 . S
C56 N53 1.279 . S
C56 C55 1.358 . S
C56 H59 0.930 . S
C57 C54 1.348 . S
C57 C55 1.356 . S
H58 C52 0.930 . S
H59 C56 0.930 . S
O60 Li0 1.956 . S
O60 Li1 1.970 . S
O60 Li2 1.961 . S
O60 C4 1.325 . S
O61 Li0 1.970 . S
O61 Li1 1.956 . S
O61 Li3 1.961 . S
O61 C10 1.325 . S
O62 Li0 1.961 . S
O62 Li2 1.956 . S
O62 Li3 1.970 . S
O62 C32 1.325 . S
O63 Li1 1.961 . S
O63 Li2 1.970 . S
O63 Li3 1.956 . S
O63 C38 1.325 . S
H64 C6 0.929 . S
H65 C7 0.930 . S
H66 C8 0.930 . S
H67 C9 0.930 1_556 S
H68 C11 0.930 . S
H69 C13 0.929 . S
H70 C14 0.930 . S
H71 C15 0.930 . S
H72 C18 0.930 . S
H73 C21 0.929 . S
H74 C26 0.929 . S
H75 C27 0.930 . S
H76 C34 0.929 . S
H77 C35 0.930 . S
H78 C36 0.930 . S
H79 C37 0.930 . S
H80 C39 0.929 . S
H81 C40 0.930 . S
H82 C41 0.930 . S
H83 C42 0.930 . S
H84 C46 0.929 . S
H85 C48 0.930 . S
H86 C54 0.929 . S
H87 C55 0.930 . S
Li88 N105 1.990 . S
Li88 O148 1.956 . S
Li88 O149 1.970 . S
Li88 O150 1.961 . S
Li89 N113 1.990 . S
Li89 O148 1.970 . S
Li89 O149 1.956 . S
Li89 O151 1.961 . S
Li90 N135 1.990 . S
Li90 O148 1.961 . S
Li90 O150 1.956 . S
Li90 O151 1.970 . S
Li91 N141 1.990 . S
Li91 O149 1.961 . S
Li91 O150 1.970 . S
Li91 O151 1.956 . S
C92 C94 1.348 . S
C92 C95 1.356 . S
C92 O148 1.325 . S
N93 C96 1.314 . S
N93 C97 1.279 . S
C94 C92 1.348 . S
C94 C96 1.353 . S
C94 H152 0.929 . S
C95 C92 1.356 . S
C95 C97 1.358 . S
C95 H153 0.930 . S
C96 N93 1.314 . S
C96 C94 1.353 . S
C96 H154 0.930 . S
C97 N93 1.279 . S
C97 C95 1.358 . S
C97 H155 0.930 . S
C98 C101 1.348 . S
C98 C102 1.356 . S
C98 O149 1.325 . S
C99 N100 1.279 . S
C99 C102 1.358 . S
C99 H156 0.930 . S
N100 C99 1.279 . S
N100 C103 1.314 . S
C101 C98 1.348 . S
C101 C103 1.353 . S
C101 H157 0.929 . S
C102 C98 1.356 . S
C102 C99 1.358 . S
C102 H158 0.930 . S
C103 N100 1.314 . S
C103 C101 1.353 . S
C103 H159 0.930 . S
C104 N105 1.314 . S
C104 C109 1.353 . S
C104 H110 0.930 . S
N105 Li88 1.990 . S
N105 C104 1.314 . S
N105 C107 1.279 . S
C106 C107 1.358 . S
C106 C108 1.356 . S
C106 H160 0.930 . S
C107 N105 1.279 . S
C107 C106 1.358 . S
C107 H111 0.930 . S
C108 C106 1.356 . S
C108 C109 1.348 . S
C109 C104 1.353 . S
C109 C108 1.348 . S
C109 H161 0.929 . S
H110 C104 0.930 . S
H111 C107 0.930 . S
C112 N113 1.314 . S
C112 C114 1.353 . S
C112 H118 0.930 . S
N113 Li89 1.990 . S
N113 C112 1.314 . S
N113 C116 1.279 . S
C114 C112 1.353 . S
C114 C117 1.348 . S
C114 H162 0.929 . S
C115 C116 1.358 . S
C115 C117 1.356 . S
C115 H163 0.930 . S
C116 N113 1.279 . S
C116 C115 1.358 . S
C116 H119 0.930 . S
C117 C114 1.348 . S
C117 C115 1.356 . S
H118 C112 0.930 . S
H119 C116 0.930 . S
C120 C122 1.348 . S
C120 C123 1.356 . S
C120 O150 1.325 . S
N121 C124 1.314 . S
N121 C125 1.279 . S
C122 C120 1.348 . S
C122 C124 1.353 . S
C122 H164 0.929 . S
C123 C120 1.356 . S
C123 C125 1.358 . S
C123 H165 0.930 . S
C124 N121 1.314 . S
C124 C122 1.353 . S
C124 H166 0.930 . S
C125 N121 1.279 . S
C125 C123 1.358 . S
C125 H167 0.930 . S
C126 C127 1.348 . S
C126 C128 1.356 . S
C126 O151 1.325 . S
C127 C126 1.348 . S
C127 C129 1.353 . S
C127 H168 0.929 . S
C128 C126 1.356 . S
C128 C130 1.358 . S
C128 H169 0.930 . S
C129 C127 1.353 . S
C129 N131 1.314 . S
C129 H170 0.930 . S
C130 C128 1.358 . S
C130 N131 1.279 . S
C130 H171 0.930 . S
N131 C129 1.314 . S
N131 C130 1.279 . S
C132 C134 1.353 . S
C132 N135 1.314 . S
C132 H138 0.930 . S
C133 N135 1.279 . S
C133 C136 1.358 . S
C133 H139 0.930 . S
C134 C132 1.353 . S
C134 C137 1.348 . S
C134 H172 0.929 . S
N135 Li90 1.990 . S
N135 C132 1.314 . S
N135 C133 1.279 . S
C136 C133 1.358 . S
C136 C137 1.356 . S
C136 H173 0.930 . S
C137 C134 1.348 . S
C137 C136 1.356 . S
H138 C132 0.930 . S
H139 C133 0.930 . S
C140 N141 1.314 . S
C140 C142 1.353 . S
C140 H146 0.930 . S
N141 Li91 1.990 . S
N141 C140 1.314 . S
N141 C144 1.279 . S
C142 C140 1.353 . S
C142 C145 1.348 . S
C142 H174 0.929 . S
C143 C144 1.358 . S
C143 C145 1.356 . S
C143 H175 0.930 . S
C144 N141 1.279 . S
C144 C143 1.358 . S
C144 H147 0.930 . S
C145 C142 1.348 . S
C145 C143 1.356 . S
H146 C140 0.930 . S
H147 C144 0.930 . S
O148 Li88 1.956 . S
O148 Li89 1.970 . S
O148 Li90 1.961 . S
O148 C92 1.325 . S
O149 Li88 1.970 . S
O149 Li89 1.956 . S
O149 Li91 1.961 . S
O149 C98 1.325 . S
O150 Li88 1.961 . S
O150 Li90 1.956 . S
O150 Li91 1.970 . S
O150 C120 1.325 . S
O151 Li89 1.961 . S
O151 Li90 1.970 . S
O151 Li91 1.956 . S
O151 C126 1.325 . S
H152 C94 0.929 . S
H153 C95 0.930 . S
H154 C96 0.930 . S
H155 C97 0.930 . S
H156 C99 0.930 . S
H157 C101 0.929 . S
H158 C102 0.930 . S
H159 C103 0.930 . S
H160 C106 0.930 . S
H161 C109 0.929 . S
H162 C114 0.929 . S
H163 C115 0.930 . S
H164 C122 0.929 . S
H165 C123 0.930 . S
H166 C124 0.930 . S
H167 C125 0.930 . S
H168 C127 0.929 . S
H169 C128 0.930 . S
H170 C129 0.930 . S
H171 C130 0.930 . S
H172 C134 0.929 . S
H173 C136 0.930 . S
H174 C142 0.929 . S
H175 C143 0.930 . S
Li176 N193 1.990 . S
Li176 O236 1.956 . S
Li176 O237 1.970 . S
Li176 O238 1.961 . S
Li177 N201 1.990 . S
Li177 O236 1.970 . S
Li177 O237 1.956 . S
Li177 O239 1.961 . S
Li178 N223 1.990 . S
Li178 O236 1.961 . S
Li178 O238 1.956 . S
Li178 O239 1.970 . S
Li179 N229 1.990 . S
Li179 O237 1.961 . S
Li179 O238 1.970 . S
Li179 O239 1.956 . S
C180 C182 1.348 . S
C180 C183 1.356 . S
C180 O236 1.325 . S
N181 C184 1.314 . S
N181 C185 1.279 . S
C182 C180 1.348 . S
C182 C184 1.353 . S
C182 H240 0.929 . S
C183 C180 1.356 . S
C183 C185 1.358 . S
C183 H241 0.930 . S
C184 N181 1.314 . S
C184 C182 1.353 . S
C184 H242 0.930 . S
C185 N181 1.279 . S
C185 C183 1.358 . S
C185 H243 0.930 . S
C186 C189 1.348 . S
C186 C190 1.356 . S
C186 O237 1.325 . S
C187 N188 1.279 . S
C187 C190 1.358 . S
C187 H244 0.930 . S
N188 C187 1.279 . S
N188 C191 1.314 . S
C189 C186 1.348 . S
C189 C191 1.353 . S
C189 H245 0.929 . S
C190 C186 1.356 . S
C190 C187 1.358 . S
C190 H246 0.930 . S
C191 N188 1.314 . S
C191 C189 1.353 . S
C191 H247 0.930 . S
C192 N193 1.314 . S
C192 C197 1.353 . S
C192 H198 0.930 . S
N193 Li176 1.990 . S
N193 C192 1.314 . S
N193 C195 1.279 . S
C194 C195 1.358 . S
C194 C196 1.356 . S
C194 H248 0.930 . S
C195 N193 1.279 . S
C195 C194 1.358 . S
C195 H199 0.930 . S
C196 C194 1.356 . S
C196 C197 1.348 . S
C197 C192 1.353 . S
C197 C196 1.348 . S
C197 H249 0.929 . S
H198 C192 0.930 . S
H199 C195 0.930 . S
C200 N201 1.314 . S
C200 C202 1.353 . S
C200 H206 0.930 . S
N201 Li177 1.990 . S
N201 C200 1.314 . S
N201 C204 1.279 . S
C202 C200 1.353 . S
C202 C205 1.348 . S
C202 H250 0.929 . S
C203 C204 1.358 . S
C203 C205 1.356 . S
C203 H251 0.930 . S
C204 N201 1.279 . S
C204 C203 1.358 . S
C204 H207 0.930 . S
C205 C202 1.348 . S
C205 C203 1.356 . S
H206 C200 0.930 . S
H207 C204 0.930 . S
C208 C210 1.348 . S
C208 C211 1.356 . S
C208 O238 1.325 . S
N209 C212 1.314 1_556 S
N209 C213 1.279 1_556 S
C210 C208 1.348 . S
C210 C212 1.353 . S
C210 H252 0.929 . S
C211 C208 1.356 . S
C211 C213 1.358 . S
C211 H253 0.930 . S
C212 N209 1.314 1_554 S
C212 C210 1.353 . S
C212 H254 0.930 1_554 S
C213 N209 1.279 1_554 S
C213 C211 1.358 . S
C213 H255 0.930 . S
C214 C215 1.348 . S
C214 C216 1.356 . S
C214 O239 1.325 . S
C215 C214 1.348 . S
C215 C217 1.353 . S
C215 H256 0.929 . S
C216 C214 1.356 . S
C216 C218 1.358 . S
C216 H257 0.930 . S
C217 C215 1.353 . S
C217 N219 1.314 . S
C217 H258 0.930 . S
C218 C216 1.358 . S
C218 N219 1.279 . S
C218 H259 0.930 . S
N219 C217 1.314 . S
N219 C218 1.279 . S
C220 C222 1.353 . S
C220 N223 1.314 . S
C220 H226 0.930 . S
C221 N223 1.279 . S
C221 C224 1.358 . S
C221 H227 0.930 . S
C222 C220 1.353 . S
C222 C225 1.348 . S
C222 H260 0.929 . S
N223 Li178 1.990 . S
N223 C220 1.314 . S
N223 C221 1.279 . S
C224 C221 1.358 . S
C224 C225 1.356 . S
C224 H261 0.930 . S
C225 C222 1.348 . S
C225 C224 1.356 . S
H226 C220 0.930 . S
H227 C221 0.930 . S
C228 N229 1.314 . S
C228 C230 1.353 . S
C228 H234 0.930 . S
N229 Li179 1.990 . S
N229 C228 1.314 . S
N229 C232 1.279 . S
C230 C228 1.353 . S
C230 C233 1.348 . S
C230 H262 0.929 . S
C231 C232 1.358 . S
C231 C233 1.356 . S
C231 H263 0.930 . S
C232 N229 1.279 . S
C232 C231 1.358 . S
C232 H235 0.930 . S
C233 C230 1.348 . S
C233 C231 1.356 . S
H234 C228 0.930 . S
H235 C232 0.930 . S
O236 Li176 1.956 . S
O236 Li177 1.970 . S
O236 Li178 1.961 . S
O236 C180 1.325 . S
O237 Li176 1.970 . S
O237 Li177 1.956 . S
O237 Li179 1.961 . S
O237 C186 1.325 . S
O238 Li176 1.961 . S
O238 Li178 1.956 . S
O238 Li179 1.970 . S
O238 C208 1.325 . S
O239 Li177 1.961 . S
O239 Li178 1.970 . S
O239 Li179 1.956 . S
O239 C214 1.325 . S
H240 C182 0.929 . S
H241 C183 0.930 . S
H242 C184 0.930 . S
H243 C185 0.930 . S
H244 C187 0.930 . S
H245 C189 0.929 . S
H246 C190 0.930 . S
H247 C191 0.930 . S
H248 C194 0.930 . S
H249 C197 0.929 . S
H250 C202 0.929 . S
H251 C203 0.930 . S
H252 C210 0.929 . S
H253 C211 0.930 . S
H254 C212 0.930 1_556 S
H255 C213 0.930 . S
H256 C215 0.929 . S
H257 C216 0.930 . S
H258 C217 0.930 . S
H259 C218 0.930 . S
H260 C222 0.929 . S
H261 C224 0.930 . S
H262 C230 0.929 . S
H263 C231 0.930 . S
Li264 N281 1.990 . S
Li264 O324 1.956 . S
Li264 O325 1.970 . S
Li264 O326 1.961 . S
Li265 N289 1.990 . S
Li265 O324 1.970 . S
Li265 O325 1.956 . S
Li265 O327 1.961 . S
Li266 N311 1.990 . S
Li266 O324 1.961 . S
Li266 O326 1.956 . S
Li266 O327 1.970 . S
Li267 N317 1.990 . S
Li267 O325 1.961 . S
Li267 O326 1.970 . S
Li267 O327 1.956 . S
C268 C270 1.348 . S
C268 C271 1.356 . S
C268 O324 1.325 . S
N269 C272 1.314 . S
N269 C273 1.279 . S
C270 C268 1.348 . S
C270 C272 1.353 . S
C270 H328 0.929 . S
C271 C268 1.356 . S
C271 C273 1.358 . S
C271 H329 0.930 . S
C272 N269 1.314 . S
C272 C270 1.353 . S
C272 H330 0.930 . S
C273 N269 1.279 . S
C273 C271 1.358 . S
C273 H331 0.930 . S
C274 C277 1.348 . S
C274 C278 1.356 . S
C274 O325 1.325 . S
C275 N276 1.279 . S
C275 C278 1.358 . S
C275 H332 0.930 . S
N276 C275 1.279 . S
N276 C279 1.314 . S
C277 C274 1.348 . S
C277 C279 1.353 . S
C277 H333 0.929 . S
C278 C274 1.356 . S
C278 C275 1.358 . S
C278 H334 0.930 . S
C279 N276 1.314 . S
C279 C277 1.353 . S
C279 H335 0.930 . S
C280 N281 1.314 . S
C280 C285 1.353 . S
C280 H286 0.930 . S
N281 Li264 1.990 . S
N281 C280 1.314 . S
N281 C283 1.279 . S
C282 C283 1.358 . S
C282 C284 1.356 . S
C282 H336 0.930 . S
C283 N281 1.279 . S
C283 C282 1.358 . S
C283 H287 0.930 . S
C284 C282 1.356 . S
C284 C285 1.348 . S
C285 C280 1.353 . S
C285 C284 1.348 . S
C285 H337 0.929 . S
H286 C280 0.930 . S
H287 C283 0.930 . S
C288 N289 1.314 . S
C288 C290 1.353 . S
C288 H294 0.930 . S
N289 Li265 1.990 . S
N289 C288 1.314 . S
N289 C292 1.279 . S
C290 C288 1.353 . S
C290 C293 1.348 . S
C290 H338 0.929 . S
C291 C292 1.358 . S
C291 C293 1.356 . S
C291 H339 0.930 . S
C292 N289 1.279 . S
C292 C291 1.358 . S
C292 H295 0.930 . S
C293 C290 1.348 . S
C293 C291 1.356 . S
H294 C288 0.930 . S
H295 C292 0.930 . S
C296 C298 1.348 . S
C296 C299 1.356 . S
C296 O326 1.325 . S
N297 C300 1.314 . S
N297 C301 1.279 . S
C298 C296 1.348 . S
C298 C300 1.353 . S
C298 H340 0.929 . S
C299 C296 1.356 . S
C299 C301 1.358 . S
C299 H341 0.930 . S
C300 N297 1.314 . S
C300 C298 1.353 . S
C300 H342 0.930 . S
C301 N297 1.279 . S
C301 C299 1.358 . S
C301 H343 0.930 . S
C302 C303 1.348 . S
C302 C304 1.356 . S
C302 O327 1.325 . S
C303 C302 1.348 . S
C303 C305 1.353 . S
C303 H344 0.929 . S
C304 C302 1.356 . S
C304 C306 1.358 . S
C304 H345 0.930 . S
C305 C303 1.353 . S
C305 N307 1.314 . S
C305 H346 0.930 . S
C306 C304 1.358 . S
C306 N307 1.279 . S
C306 H347 0.930 . S
N307 C305 1.314 . S
N307 C306 1.279 . S
C308 C310 1.353 . S
C308 N311 1.314 . S
C308 H314 0.930 . S
C309 N311 1.279 . S
C309 C312 1.358 . S
C309 H315 0.930 . S
C310 C308 1.353 . S
C310 C313 1.348 . S
C310 H348 0.929 . S
N311 Li266 1.990 . S
N311 C308 1.314 . S
N311 C309 1.279 . S
C312 C309 1.358 . S
C312 C313 1.356 . S
C312 H349 0.930 . S
C313 C310 1.348 . S
C313 C312 1.356 . S
H314 C308 0.930 . S
H315 C309 0.930 . S
C316 N317 1.314 . S
C316 C318 1.353 . S
C316 H322 0.930 . S
N317 Li267 1.990 . S
N317 C316 1.314 . S
N317 C320 1.279 . S
C318 C316 1.353 . S
C318 C321 1.348 . S
C318 H350 0.929 . S
C319 C320 1.358 . S
C319 C321 1.356 . S
C319 H351 0.930 . S
C320 N317 1.279 . S
C320 C319 1.358 . S
C320 H323 0.930 . S
C321 C318 1.348 . S
C321 C319 1.356 . S
H322 C316 0.930 . S
H323 C320 0.930 . S
O324 Li264 1.956 . S
O324 Li265 1.970 . S
O324 Li266 1.961 . S
O324 C268 1.325 . S
O325 Li264 1.970 . S
O325 Li265 1.956 . S
O325 Li267 1.961 . S
O325 C274 1.325 . S
O326 Li264 1.961 . S
O326 Li266 1.956 . S
O326 Li267 1.970 . S
O326 C296 1.325 . S
O327 Li265 1.961 . S
O327 Li266 1.970 . S
O327 Li267 1.956 . S
O327 C302 1.325 . S
H328 C270 0.929 . S
H329 C271 0.930 . S
H330 C272 0.930 . S
H331 C273 0.930 . S
H332 C275 0.930 . S
H333 C277 0.929 . S
H334 C278 0.930 . S
H335 C279 0.930 . S
H336 C282 0.930 . S
H337 C285 0.929 . S
H338 C290 0.929 . S
H339 C291 0.930 . S
H340 C298 0.929 . S
H341 C299 0.930 . S
H342 C300 0.930 . S
H343 C301 0.930 . S
H344 C303 0.929 . S
H345 C304 0.930 . S
H346 C305 0.930 . S
H347 C306 0.930 . S
H348 C310 0.929 . S
H349 C312 0.930 . S
H350 C318 0.929 . S
H351 C319 0.930 . S
Li352 N369 1.990 . S
Li352 O412 1.956 . S
Li352 O413 1.970 . S
Li352 O414 1.961 . S
Li353 N377 1.990 . S
Li353 O412 1.970 . S
Li353 O413 1.956 . S
Li353 O415 1.961 . S
Li354 N399 1.990 . S
Li354 O412 1.961 . S
Li354 O414 1.956 . S
Li354 O415 1.970 . S
Li355 N405 1.990 . S
Li355 O413 1.961 . S
Li355 O414 1.970 . S
Li355 O415 1.956 . S
C356 C358 1.348 . S
C356 C359 1.356 . S
C356 O412 1.325 . S
N357 C360 1.314 . S
N357 C361 1.279 . S
C358 C356 1.348 . S
C358 C360 1.353 . S
C358 H416 0.929 . S
C359 C356 1.356 . S
C359 C361 1.358 . S
C359 H417 0.930 . S
C360 N357 1.314 . S
C360 C358 1.353 . S
C360 H418 0.930 . S
C361 N357 1.279 . S
C361 C359 1.358 . S
C361 H419 0.930 . S
C362 C365 1.348 . S
C362 C366 1.356 . S
C362 O413 1.325 . S
C363 N364 1.279 . S
C363 C366 1.358 . S
C363 H420 0.930 . S
N364 C363 1.279 . S
N364 C367 1.314 . S
C365 C362 1.348 . S
C365 C367 1.353 . S
C365 H421 0.929 . S
C366 C362 1.356 . S
C366 C363 1.358 . S
C366 H422 0.930 . S
C367 N364 1.314 . S
C367 C365 1.353 . S
C367 H423 0.930 . S
C368 N369 1.314 . S
C368 C373 1.353 . S
C368 H374 0.930 . S
N369 Li352 1.990 . S
N369 C368 1.314 . S
N369 C371 1.279 . S
C370 C371 1.358 . S
C370 C372 1.356 . S
C370 H424 0.930 . S
C371 N369 1.279 . S
C371 C370 1.358 . S
C371 H375 0.930 . S
C372 C370 1.356 . S
C372 C373 1.348 . S
C373 C368 1.353 . S
C373 C372 1.348 . S
C373 H425 0.929 . S
H374 C368 0.930 . S
H375 C371 0.930 . S
C376 N377 1.314 . S
C376 C378 1.353 . S
C376 H382 0.930 . S
N377 Li353 1.990 . S
N377 C376 1.314 . S
N377 C380 1.279 . S
C378 C376 1.353 . S
C378 C381 1.348 . S
C378 H426 0.929 . S
C379 C380 1.358 . S
C379 C381 1.356 . S
C379 H427 0.930 . S
C380 N377 1.279 . S
C380 C379 1.358 . S
C380 H383 0.930 . S
C381 C378 1.348 . S
C381 C379 1.356 . S
H382 C376 0.930 . S
H383 C380 0.930 . S
C384 C386 1.348 . S
C384 C387 1.356 . S
C384 O414 1.325 . S
N385 C388 1.314 . S
N385 C389 1.279 . S
C386 C384 1.348 . S
C386 C388 1.353 . S
C386 H428 0.929 . S
C387 C384 1.356 . S
C387 C389 1.358 . S
C387 H429 0.930 . S
C388 N385 1.314 . S
C388 C386 1.353 . S
C388 H430 0.930 . S
C389 N385 1.279 . S
C389 C387 1.358 . S
C389 H431 0.930 . S
C390 C391 1.348 . S
C390 C392 1.356 . S
C390 O415 1.325 . S
C391 C390 1.348 . S
C391 C393 1.353 . S
C391 H432 0.929 . S
C392 C390 1.356 . S
C392 C394 1.358 . S
C392 H433 0.930 . S
C393 C391 1.353 . S
C393 N395 1.293 1_554 S
C393 H434 0.930 . S
C394 C392 1.358 . S
C394 N395 1.266 1_554 S
C394 H435 0.930 1_554 S
N395 C393 1.293 1_556 S
N395 C394 1.266 1_556 S
C396 C398 1.353 . S
C396 N399 1.314 . S
C396 H402 0.930 . S
C397 N399 1.279 . S
C397 C400 1.358 . S
C397 H403 0.930 . S
C398 C396 1.353 . S
C398 C401 1.348 . S
C398 H436 0.929 . S
N399 Li354 1.990 . S
N399 C396 1.314 . S
N399 C397 1.279 . S
C400 C397 1.358 . S
C400 C401 1.356 . S
C400 H437 0.930 . S
C401 C398 1.348 . S
C401 C400 1.356 . S
H402 C396 0.930 . S
H403 C397 0.930 . S
C404 N405 1.314 . S
C404 C406 1.353 . S
C404 H410 0.930 . S
N405 Li355 1.990 . S
N405 C404 1.314 . S
N405 C408 1.279 . S
C406 C404 1.353 . S
C406 C409 1.348 . S
C406 H438 0.929 . S
C407 C408 1.358 . S
C407 C409 1.356 . S
C407 H439 0.930 . S
C408 N405 1.279 . S
C408 C407 1.358 . S
C408 H411 0.930 . S
C409 C406 1.348 . S
C409 C407 1.356 . S
H410 C404 0.930 . S
H411 C408 0.930 . S
O412 Li352 1.956 . S
O412 Li353 1.970 . S
O412 Li354 1.961 . S
O412 C356 1.325 . S
O413 Li352 1.970 . S
O413 Li353 1.956 . S
O413 Li355 1.961 . S
O413 C362 1.325 . S
O414 Li352 1.961 . S
O414 Li354 1.956 . S
O414 Li355 1.970 . S
O414 C384 1.325 . S
O415 Li353 1.961 . S
O415 Li354 1.970 . S
O415 Li355 1.956 . S
O415 C390 1.325 . S
H416 C358 0.929 . S
H417 C359 0.930 . S
H418 C360 0.930 . S
H419 C361 0.930 . S
H420 C363 0.930 . S
H421 C365 0.929 . S
H422 C366 0.930 . S
H423 C367 0.930 . S
H424 C370 0.930 . S
H425 C373 0.929 . S
H426 C378 0.929 . S
H427 C379 0.930 . S
H428 C386 0.929 . S
H429 C387 0.930 . S
H430 C388 0.930 . S
H431 C389 0.930 . S
H432 C391 0.929 . S
H433 C392 0.930 . S
H434 C393 0.930 . S
H435 C394 0.930 1_556 S
H436 C398 0.929 . S
H437 C400 0.930 . S
H438 C406 0.929 . S
H439 C407 0.930 . S
Li440 N457 1.990 . S
Li440 O500 1.956 . S
Li440 O501 1.970 . S
Li440 O502 1.961 . S
Li441 N465 1.990 . S
Li441 O500 1.970 . S
Li441 O501 1.956 . S
Li441 O503 1.961 . S
Li442 N487 1.990 . S
Li442 O500 1.961 . S
Li442 O502 1.956 . S
Li442 O503 1.970 . S
Li443 N493 1.990 . S
Li443 O501 1.961 . S
Li443 O502 1.970 . S
Li443 O503 1.956 . S
C444 C446 1.348 . S
C444 C447 1.356 . S
C444 O500 1.325 . S
N445 C448 1.314 . S
N445 C449 1.279 . S
C446 C444 1.348 . S
C446 C448 1.353 . S
C446 H504 0.929 . S
C447 C444 1.356 . S
C447 C449 1.358 . S
C447 H505 0.930 . S
C448 N445 1.314 . S
C448 C446 1.353 . S
C448 H506 0.930 . S
C449 N445 1.279 . S
C449 C447 1.358 . S
C449 H507 0.930 . S
C450 C453 1.348 . S
C450 C454 1.356 . S
C450 O501 1.325 . S
C451 N452 1.279 . S
C451 C454 1.358 . S
C451 H508 0.930 . S
N452 C451 1.279 . S
N452 C455 1.314 . S
C453 C450 1.348 . S
C453 C455 1.353 . S
C453 H509 0.929 . S
C454 C450 1.356 . S
C454 C451 1.358 . S
C454 H510 0.930 . S
C455 N452 1.314 . S
C455 C453 1.353 . S
C455 H511 0.930 . S
C456 N457 1.314 . S
C456 C461 1.353 . S
C456 H462 0.930 . S
N457 Li440 1.990 . S
N457 C456 1.314 . S
N457 C459 1.279 . S
C458 C459 1.358 . S
C458 C460 1.356 . S
C458 H512 0.930 . S
C459 N457 1.279 . S
C459 C458 1.358 . S
C459 H463 0.930 . S
C460 C458 1.356 . S
C460 C461 1.348 . S
C461 C456 1.353 . S
C461 C460 1.348 . S
C461 H513 0.929 . S
H462 C456 0.930 . S
H463 C459 0.930 . S
C464 N465 1.314 . S
C464 C466 1.353 . S
C464 H470 0.930 . S
N465 Li441 1.990 . S
N465 C464 1.314 . S
N465 C468 1.279 . S
C466 C464 1.353 . S
C466 C469 1.348 . S
C466 H514 0.929 . S
C467 C468 1.358 . S
C467 C469 1.356 . S
C467 H515 0.930 . S
C468 N465 1.279 . S
C468 C467 1.358 . S
C468 H471 0.930 . S
C469 C466 1.348 . S
C469 C467 1.356 . S
H470 C464 0.930 . S
H471 C468 0.930 . S
C472 C474 1.348 . S
C472 C475 1.356 . S
C472 O502 1.325 . S
N473 C476 1.314 . S
N473 C477 1.279 . S
C474 C472 1.348 . S
C474 C476 1.353 . S
C474 H516 0.929 . S
C475 C472 1.356 . S
C475 C477 1.358 . S
C475 H517 0.930 . S
C476 N473 1.314 . S
C476 C474 1.353 . S
C476 H518 0.930 . S
C477 N473 1.279 . S
C477 C475 1.358 . S
C477 H519 0.930 . S
C478 C479 1.348 . S
C478 C480 1.356 . S
C478 O503 1.325 . S
C479 C478 1.348 . S
C479 C481 1.353 . S
C479 H520 0.929 . S
C480 C478 1.356 . S
C480 C482 1.358 . S
C480 H521 0.930 . S
C481 C479 1.353 . S
C481 N483 1.314 . S
C481 H522 0.930 . S
C482 C480 1.358 . S
C482 N483 1.279 . S
C482 H523 0.930 . S
N483 C481 1.314 . S
N483 C482 1.279 . S
C484 C486 1.353 . S
C484 N487 1.314 . S
C484 H490 0.930 . S
C485 N487 1.279 . S
C485 C488 1.358 . S
C485 H491 0.930 . S
C486 C484 1.353 . S
C486 C489 1.348 . S
C486 H524 0.929 . S
N487 Li442 1.990 . S
N487 C484 1.314 . S
N487 C485 1.279 . S
C488 C485 1.358 . S
C488 C489 1.356 . S
C488 H525 0.930 . S
C489 C486 1.348 . S
C489 C488 1.356 . S
H490 C484 0.930 . S
H491 C485 0.930 . S
C492 N493 1.314 . S
C492 C494 1.353 . S
C492 H498 0.930 . S
N493 Li443 1.990 . S
N493 C492 1.314 . S
N493 C496 1.279 . S
C494 C492 1.353 . S
C494 C497 1.348 . S
C494 H526 0.929 . S
C495 C496 1.358 . S
C495 C497 1.356 . S
C495 H527 0.930 . S
C496 N493 1.279 . S
C496 C495 1.358 . S
C496 H499 0.930 . S
C497 C494 1.348 . S
C497 C495 1.356 . S
H498 C492 0.930 . S
H499 C496 0.930 . S
O500 Li440 1.956 . S
O500 Li441 1.970 . S
O500 Li442 1.961 . S
O500 C444 1.325 . S
O501 Li440 1.970 . S
O501 Li441 1.956 . S
O501 Li443 1.961 . S
O501 C450 1.325 . S
O502 Li440 1.961 . S
O502 Li442 1.956 . S
O502 Li443 1.970 . S
O502 C472 1.325 . S
O503 Li441 1.961 . S
O503 Li442 1.970 . S
O503 Li443 1.956 . S
O503 C478 1.325 . S
H504 C446 0.929 . S
H505 C447 0.930 . S
H506 C448 0.930 . S
H507 C449 0.930 . S
H508 C451 0.930 . S
H509 C453 0.929 . S
H510 C454 0.930 . S
H511 C455 0.930 . S
H512 C458 0.930 . S
H513 C461 0.929 . S
H514 C466 0.929 . S
H515 C467 0.930 . S
H516 C474 0.929 . S
H517 C475 0.930 . S
H518 C476 0.930 . S
H519 C477 0.930 . S
H520 C479 0.929 . S
H521 C480 0.930 . S
H522 C481 0.930 . S
H523 C482 0.930 . S
H524 C486 0.929 . S
H525 C488 0.930 . S
H526 C494 0.929 . S
H527 C495 0.930 . S
Li528 N545 1.990 . S
Li528 O588 1.956 . S
Li528 O589 1.970 . S
Li528 O590 1.961 . S
Li529 N553 1.990 . S
Li529 O588 1.970 . S
Li529 O589 1.956 . S
Li529 O591 1.961 . S
Li530 N575 1.990 . S
Li530 O588 1.961 . S
Li530 O590 1.956 . S
Li530 O591 1.970 . S
Li531 N581 1.990 . S
Li531 O589 1.961 . S
Li531 O590 1.970 . S
Li531 O591 1.956 . S
C532 C534 1.348 . S
C532 C535 1.356 . S
C532 O588 1.325 . S
N533 C536 1.314 . S
N533 C537 1.279 . S
C534 C532 1.348 . S
C534 C536 1.353 . S
C534 H592 0.929 . S
C535 C532 1.356 . S
C535 C537 1.358 . S
C535 H593 0.930 . S
C536 N533 1.314 . S
C536 C534 1.353 . S
C536 H594 0.930 . S
C537 N533 1.279 . S
C537 C535 1.358 . S
C537 H595 0.930 . S
C538 C541 1.348 . S
C538 C542 1.356 . S
C538 O589 1.325 . S
C539 N540 1.279 . S
C539 C542 1.358 . S
C539 H596 0.930 . S
N540 C539 1.279 . S
N540 C543 1.314 . S
C541 C538 1.348 . S
C541 C543 1.353 . S
C541 H597 0.929 . S
C542 C538 1.356 . S
C542 C539 1.358 . S
C542 H598 0.930 . S
C543 N540 1.314 . S
C543 C541 1.353 . S
C543 H599 0.930 . S
C544 N545 1.314 . S
C544 C549 1.353 . S
C544 H550 0.930 . S
N545 Li528 1.990 . S
N545 C544 1.314 . S
N545 C547 1.279 . S
C546 C547 1.358 . S
C546 C548 1.356 . S
C546 H600 0.930 . S
C547 N545 1.279 . S
C547 C546 1.358 . S
C547 H551 0.930 . S
C548 C546 1.356 . S
C548 C549 1.348 . S
C549 C544 1.353 . S
C549 C548 1.348 . S
C549 H601 0.929 . S
H550 C544 0.930 . S
H551 C547 0.930 . S
C552 N553 1.314 . S
C552 C554 1.353 . S
C552 H558 0.930 . S
N553 Li529 1.990 . S
N553 C552 1.314 . S
N553 C556 1.279 . S
C554 C552 1.353 . S
C554 C557 1.348 . S
C554 H602 0.927 . S
C555 C556 1.358 . S
C555 C557 1.356 . S
C555 H603 0.930 . S
C556 N553 1.279 . S
C556 C555 1.358 . S
C556 H559 0.930 . S
C557 C554 1.348 . S
C557 C555 1.356 . S
H558 C552 0.930 . S
H559 C556 0.930 . S
C560 C562 1.348 . S
C560 C563 1.356 . S
C560 O590 1.325 . S
N561 C564 1.314 . S
N561 C565 1.279 . S
C562 C560 1.348 . S
C562 C564 1.353 . S
C562 H604 0.929 . S
C563 C560 1.356 . S
C563 C565 1.358 . S
C563 H605 0.930 . S
C564 N561 1.314 . S
C564 C562 1.353 . S
C564 H606 0.930 . S
C565 N561 1.279 . S
C565 C563 1.358 . S
C565 H607 0.930 . S
C566 C567 1.348 . S
C566 C568 1.356 . S
C566 O591 1.325 . S
C567 C566 1.348 . S
C567 C569 1.353 . S
C567 H608 0.929 . S
C568 C566 1.356 . S
C568 C570 1.358 . S
C568 H609 0.930 . S
C569 C567 1.353 . S
C569 N571 1.314 . S
C569 H610 0.930 . S
C570 C568 1.358 . S
C570 N571 1.279 . S
C570 H611 0.930 . S
N571 C569 1.314 . S
N571 C570 1.279 . S
C572 C574 1.353 . S
C572 N575 1.314 . S
C572 H578 0.930 . S
C573 N575 1.279 . S
C573 C576 1.358 . S
C573 H579 0.930 . S
C574 C572 1.353 . S
C574 C577 1.348 . S
C574 H612 0.929 . S
N575 Li530 1.990 . S
N575 C572 1.314 . S
N575 C573 1.279 . S
C576 C573 1.358 . S
C576 C577 1.356 . S
C576 H613 0.930 . S
C577 C574 1.348 . S
C577 C576 1.356 . S
H578 C572 0.930 . S
H579 C573 0.930 . S
C580 N581 1.314 . S
C580 C582 1.353 . S
C580 H586 0.930 . S
N581 Li531 1.990 . S
N581 C580 1.314 . S
N581 C584 1.279 . S
C582 C580 1.353 . S
C582 C585 1.348 . S
C582 H614 0.929 . S
C583 C584 1.358 . S
C583 C585 1.356 . S
C583 H615 0.930 . S
C584 N581 1.279 . S
C584 C583 1.358 . S
C584 H587 0.930 . S
C585 C582 1.348 . S
C585 C583 1.356 . S
H586 C580 0.930 . S
H587 C584 0.930 . S
O588 Li528 1.956 . S
O588 Li529 1.970 . S
O588 Li530 1.961 . S
O588 C532 1.325 . S
O589 Li528 1.970 . S
O589 Li529 1.956 . S
O589 Li531 1.961 . S
O589 C538 1.325 . S
O590 Li528 1.961 . S
O590 Li530 1.956 . S
O590 Li531 1.970 . S
O590 C560 1.325 . S
O591 Li529 1.961 . S
O591 Li530 1.970 . S
O591 Li531 1.956 . S
O591 C566 1.325 . S
H592 C534 0.929 . S
H593 C535 0.930 . S
H594 C536 0.930 . S
H595 C537 0.930 . S
H596 C539 0.930 . S
H597 C541 0.929 . S
H598 C542 0.930 . S
H599 C543 0.930 . S
H600 C546 0.930 . S
H601 C549 0.929 . S
H602 C554 0.927 . S
H603 C555 0.930 . S
H604 C562 0.929 . S
H605 C563 0.930 . S
H606 C564 0.930 . S
H607 C565 0.930 . S
H608 C567 0.929 . S
H609 C568 0.930 . S
H610 C569 0.930 . S
H611 C570 0.930 . S
H612 C574 0.929 . S
H613 C576 0.930 . S
H614 C582 0.929 . S
H615 C583 0.930 . S
Li616 N633 1.990 . S
Li616 O676 1.956 . S
Li616 O677 1.970 . S
Li616 O678 1.961 . S
Li617 N641 1.990 . S
Li617 O676 1.970 . S
Li617 O677 1.956 . S
Li617 O679 1.961 . S
Li618 N663 1.990 . S
Li618 O676 1.961 . S
Li618 O678 1.956 . S
Li618 O679 1.970 . S
Li619 N669 1.990 . S
Li619 O677 1.961 . S
Li619 O678 1.970 . S
Li619 O679 1.956 . S
C620 C622 1.348 . S
C620 C623 1.356 . S
C620 O676 1.325 . S
N621 C624 1.314 . S
N621 C625 1.279 . S
C622 C620 1.348 . S
C622 C624 1.353 . S
C622 H680 0.929 . S
C623 C620 1.356 . S
C623 C625 1.358 . S
C623 H681 0.930 . S
C624 N621 1.314 . S
C624 C622 1.353 . S
C624 H682 0.930 . S
C625 N621 1.279 . S
C625 C623 1.358 . S
C625 H683 0.930 . S
C626 C629 1.348 . S
C626 C630 1.356 . S
C626 O677 1.325 . S
C627 N628 1.279 . S
C627 C630 1.358 . S
C627 H684 0.930 . S
N628 C627 1.279 . S
N628 C631 1.314 . S
C629 C626 1.348 . S
C629 C631 1.353 . S
C629 H685 0.929 . S
C630 C626 1.356 . S
C630 C627 1.358 . S
C630 H686 0.930 . S
C631 N628 1.314 . S
C631 C629 1.353 . S
C631 H687 0.930 . S
C632 N633 1.314 . S
C632 C637 1.353 . S
C632 H638 0.930 . S
N633 Li616 1.990 . S
N633 C632 1.314 . S
N633 C635 1.279 . S
C634 C635 1.358 . S
C634 C636 1.356 . S
C634 H688 0.930 . S
C635 N633 1.279 . S
C635 C634 1.358 . S
C635 H639 0.930 . S
C636 C634 1.356 . S
C636 C637 1.348 . S
C637 C632 1.353 . S
C637 C636 1.348 . S
C637 H689 0.929 . S
H638 C632 0.930 . S
H639 C635 0.930 . S
C640 N641 1.314 . S
C640 C642 1.353 . S
C640 H646 0.930 . S
N641 Li617 1.990 . S
N641 C640 1.314 . S
N641 C644 1.279 . S
C642 C640 1.353 . S
C642 C645 1.348 . S
C642 H690 0.929 . S
C643 C644 1.358 . S
C643 C645 1.356 . S
C643 H691 0.930 . S
C644 N641 1.279 . S
C644 C643 1.358 . S
C644 H647 0.930 . S
C645 C642 1.348 . S
C645 C643 1.356 . S
H646 C640 0.930 . S
H647 C644 0.930 . S
C648 C650 1.348 . S
C648 C651 1.356 . S
C648 O678 1.325 . S
N649 C652 1.314 . S
N649 C653 1.279 . S
C650 C648 1.348 . S
C650 C652 1.353 . S
C650 H692 0.929 . S
C651 C648 1.356 . S
C651 C653 1.358 . S
C651 H693 0.930 . S
C652 N649 1.314 . S
C652 C650 1.353 . S
C652 H694 0.930 . S
C653 N649 1.279 . S
C653 C651 1.358 . S
C653 H695 0.930 . S
C654 C655 1.348 . S
C654 C656 1.356 . S
C654 O679 1.325 . S
C655 C654 1.348 . S
C655 C657 1.353 . S
C655 H696 0.929 . S
C656 C654 1.356 . S
C656 C658 1.358 . S
C656 H697 0.930 . S
C657 C655 1.353 . S
C657 N659 1.314 1_556 S
C657 H698 0.930 . S
C658 C656 1.358 . S
C658 N659 1.279 1_556 S
C658 H699 0.930 1_556 S
N659 C657 1.314 1_554 S
N659 C658 1.279 1_554 S
C660 C662 1.353 . S
C660 N663 1.314 . S
C660 H666 0.930 . S
C661 N663 1.279 . S
C661 C664 1.358 . S
C661 H667 0.930 . S
C662 C660 1.353 . S
C662 C665 1.348 . S
C662 H700 0.929 . S
N663 Li618 1.990 . S
N663 C660 1.314 . S
N663 C661 1.279 . S
C664 C661 1.358 . S
C664 C665 1.356 . S
C664 H701 0.930 . S
C665 C662 1.348 . S
C665 C664 1.356 . S
H666 C660 0.930 . S
H667 C661 0.930 . S
C668 N669 1.314 . S
C668 C670 1.353 . S
C668 H674 0.930 . S
N669 Li619 1.990 . S
N669 C668 1.314 . S
N669 C672 1.279 . S
C670 C668 1.353 . S
C670 C673 1.348 . S
C670 H702 0.929 . S
C671 C672 1.358 . S
C671 C673 1.356 . S
C671 H703 0.930 . S
C672 N669 1.279 . S
C672 C671 1.358 . S
C672 H675 0.930 . S
C673 C670 1.348 . S
C673 C671 1.356 . S
H674 C668 0.930 . S
H675 C672 0.930 . S
O676 Li616 1.956 . S
O676 Li617 1.970 . S
O676 Li618 1.961 . S
O676 C620 1.325 . S
O677 Li616 1.970 . S
O677 Li617 1.956 . S
O677 Li619 1.961 . S
O677 C626 1.325 . S
O678 Li616 1.961 . S
O678 Li618 1.956 . S
O678 Li619 1.970 . S
O678 C648 1.325 . S
O679 Li617 1.961 . S
O679 Li618 1.970 . S
O679 Li619 1.956 . S
O679 C654 1.325 . S
H680 C622 0.929 . S
H681 C623 0.930 . S
H682 C624 0.930 . S
H683 C625 0.930 . S
H684 C627 0.930 . S
H685 C629 0.929 . S
H686 C630 0.930 . S
H687 C631 0.930 . S
H688 C634 0.930 . S
H689 C637 0.929 . S
H690 C642 0.929 . S
H691 C643 0.930 . S
H692 C650 0.929 . S
H693 C651 0.930 . S
H694 C652 0.930 . S
H695 C653 0.930 . S
H696 C655 0.929 . S
H697 C656 0.930 . S
H698 C657 0.930 . S
H699 C658 0.930 1_554 S
H700 C662 0.929 . S
H701 C664 0.930 . S
H702 C670 0.929 . S
H703 C671 0.930 . S
Li704 N721 1.990 . S
Li704 O764 1.956 . S
Li704 O765 1.970 . S
Li704 O766 1.961 . S
Li705 N729 1.990 . S
Li705 O764 1.970 . S
Li705 O765 1.956 . S
Li705 O767 1.961 . S
Li706 N751 1.990 . S
Li706 O764 1.961 . S
Li706 O766 1.956 . S
Li706 O767 1.970 . S
Li707 N757 1.990 . S
Li707 O765 1.961 . S
Li707 O766 1.970 . S
Li707 O767 1.956 . S
C708 C710 1.348 . S
C708 C711 1.356 . S
C708 O764 1.325 . S
N709 C712 1.314 . S
N709 C713 1.279 . S
C710 C708 1.348 . S
C710 C712 1.353 . S
C710 H768 0.929 . S
C711 C708 1.356 . S
C711 C713 1.358 . S
C711 H769 0.930 . S
C712 N709 1.314 . S
C712 C710 1.353 . S
C712 H770 0.930 . S
C713 N709 1.279 . S
C713 C711 1.358 . S
C713 H771 0.930 . S
C714 C717 1.348 . S
C714 C718 1.356 . S
C714 O765 1.325 . S
C715 N716 1.279 . S
C715 C718 1.358 . S
C715 H772 0.930 . S
N716 C715 1.279 . S
N716 C719 1.314 . S
C717 C714 1.348 . S
C717 C719 1.353 . S
C717 H773 0.929 . S
C718 C714 1.356 . S
C718 C715 1.358 . S
C718 H774 0.930 . S
C719 N716 1.314 . S
C719 C717 1.353 . S
C719 H775 0.930 . S
C720 N721 1.314 . S
C720 C725 1.353 . S
C720 H726 0.930 . S
N721 Li704 1.990 . S
N721 C720 1.314 . S
N721 C723 1.279 . S
C722 C723 1.358 . S
C722 C724 1.356 . S
C722 H776 0.930 . S
C723 N721 1.279 . S
C723 C722 1.358 . S
C723 H727 0.930 . S
C724 C722 1.356 . S
C724 C725 1.348 . S
C725 C720 1.353 . S
C725 C724 1.348 . S
C725 H777 0.929 . S
H726 C720 0.930 . S
H727 C723 0.930 . S
C728 N729 1.314 . S
C728 C730 1.353 . S
C728 H734 0.930 . S
N729 Li705 1.990 . S
N729 C728 1.314 . S
N729 C732 1.279 . S
C730 C728 1.353 . S
C730 C733 1.348 . S
C730 H778 0.929 . S
C731 C732 1.358 . S
C731 C733 1.356 . S
C731 H779 0.930 . S
C732 N729 1.279 . S
C732 C731 1.358 . S
C732 H735 0.930 . S
C733 C730 1.348 . S
C733 C731 1.356 . S
H734 C728 0.930 . S
H735 C732 0.930 . S
C736 C738 1.348 . S
C736 C739 1.356 . S
C736 O766 1.325 . S
N737 C740 1.314 . S
N737 C741 1.279 . S
C738 C736 1.348 . S
C738 C740 1.353 . S
C738 H780 0.929 . S
C739 C736 1.356 . S
C739 C741 1.358 . S
C739 H781 0.930 . S
C740 N737 1.314 . S
C740 C738 1.353 . S
C740 H782 0.930 . S
C741 N737 1.279 . S
C741 C739 1.358 . S
C741 H783 0.930 . S
C742 C743 1.348 . S
C742 C744 1.356 . S
C742 O767 1.325 . S
C743 C742 1.348 . S
C743 C745 1.353 . S
C743 H784 0.929 . S
C744 C742 1.356 . S
C744 C746 1.358 . S
C744 H785 0.930 . S
C745 C743 1.353 . S
C745 N747 1.314 . S
C745 H786 0.930 . S
C746 C744 1.358 . S
C746 N747 1.279 . S
C746 H787 0.930 . S
N747 C745 1.314 . S
N747 C746 1.279 . S
C748 C750 1.353 . S
C748 N751 1.314 . S
C748 H754 0.930 . S
C749 N751 1.279 . S
C749 C752 1.358 . S
C749 H755 0.930 . S
C750 C748 1.353 . S
C750 C753 1.348 . S
C750 H788 0.929 . S
N751 Li706 1.990 . S
N751 C748 1.314 . S
N751 C749 1.279 . S
C752 C749 1.358 . S
C752 C753 1.356 . S
C752 H789 0.930 . S
C753 C750 1.348 . S
C753 C752 1.356 . S
H754 C748 0.930 . S
H755 C749 0.930 . S
C756 N757 1.314 . S
C756 C758 1.353 . S
C756 H762 0.930 . S
N757 Li707 1.990 . S
N757 C756 1.314 . S
N757 C760 1.279 . S
C758 C756 1.353 . S
C758 C761 1.348 . S
C758 H790 0.929 . S
C759 C760 1.358 . S
C759 C761 1.356 . S
C759 H791 0.930 . S
C760 N757 1.279 . S
C760 C759 1.358 . S
C760 H763 0.930 . S
C761 C758 1.348 . S
C761 C759 1.356 . S
H762 C756 0.930 . S
H763 C760 0.930 . S
O764 Li704 1.956 . S
O764 Li705 1.970 . S
O764 Li706 1.961 . S
O764 C708 1.325 . S
O765 Li704 1.970 . S
O765 Li705 1.956 . S
O765 Li707 1.961 . S
O765 C714 1.325 . S
O766 Li704 1.961 . S
O766 Li706 1.956 . S
O766 Li707 1.970 . S
O766 C736 1.325 . S
O767 Li705 1.961 . S
O767 Li706 1.970 . S
O767 Li707 1.956 . S
O767 C742 1.325 . S
H768 C710 0.929 . S
H769 C711 0.930 . S
H770 C712 0.930 . S
H771 C713 0.930 . S
H772 C715 0.930 . S
H773 C717 0.929 . S
H774 C718 0.930 . S
H775 C719 0.930 . S
H776 C722 0.930 . S
H777 C725 0.929 . S
H778 C730 0.929 . S
H779 C731 0.930 . S
H780 C738 0.929 . S
H781 C739 0.930 . S
H782 C740 0.930 . S
H783 C741 0.930 . S
H784 C743 0.929 . S
H785 C744 0.930 . S
H786 C745 0.930 . S
H787 C746 0.930 . S
H788 C750 0.929 . S
H789 C752 0.930 . S
H790 C758 0.929 . S
H791 C759 0.930 . S
Li792 N809 1.990 . S
Li792 O852 1.956 . S
Li792 O853 1.970 . S
Li792 O854 1.961 . S
Li793 N817 1.990 . S
Li793 O852 1.970 . S
Li793 O853 1.956 . S
Li793 O855 1.961 . S
Li794 N839 1.990 . S
Li794 O852 1.961 . S
Li794 O854 1.956 . S
Li794 O855 1.970 . S
Li795 N845 1.990 . S
Li795 O853 1.961 . S
Li795 O854 1.970 . S
Li795 O855 1.956 . S
C796 C798 1.348 . S
C796 C799 1.356 . S
C796 O852 1.325 . S
N797 C800 1.314 1_554 S
N797 C801 1.279 1_554 S
C798 C796 1.348 . S
C798 C800 1.353 . S
C798 H856 0.929 . S
C799 C796 1.356 . S
C799 C801 1.358 . S
C799 H857 0.930 . S
C800 N797 1.314 1_556 S
C800 C798 1.353 . S
C800 H858 0.930 . S
C801 N797 1.279 1_556 S
C801 C799 1.358 . S
C801 H859 0.930 1_556 S
C802 C805 1.348 . S
C802 C806 1.356 . S
C802 O853 1.325 . S
C803 N804 1.279 . S
C803 C806 1.358 . S
C803 H860 0.930 . S
N804 C803 1.279 . S
N804 C807 1.314 . S
C805 C802 1.348 . S
C805 C807 1.353 . S
C805 H861 0.929 . S
C806 C802 1.356 . S
C806 C803 1.358 . S
C806 H862 0.930 . S
C807 N804 1.314 . S
C807 C805 1.353 . S
C807 H863 0.930 . S
C808 N809 1.314 . S
C808 C813 1.353 . S
C808 H814 0.930 . S
N809 Li792 1.990 . S
N809 C808 1.314 . S
N809 C811 1.279 . S
C810 C811 1.358 . S
C810 C812 1.356 . S
C810 H864 0.930 . S
C811 N809 1.279 . S
C811 C810 1.358 . S
C811 H815 0.930 . S
C812 C810 1.356 . S
C812 C813 1.348 . S
C813 C808 1.353 . S
C813 C812 1.348 . S
C813 H865 0.927 . S
H814 C808 0.930 . S
H815 C811 0.930 . S
C816 N817 1.314 . S
C816 C818 1.353 . S
C816 H822 0.930 . S
N817 Li793 1.990 . S
N817 C816 1.314 . S
N817 C820 1.279 . S
C818 C816 1.353 . S
C818 C821 1.348 . S
C818 H866 0.929 . S
C819 C820 1.358 . S
C819 C821 1.356 . S
C819 H867 0.930 . S
C820 N817 1.279 . S
C820 C819 1.358 . S
C820 H823 0.930 . S
C821 C818 1.348 . S
C821 C819 1.356 . S
H822 C816 0.930 . S
H823 C820 0.930 . S
C824 C826 1.348 . S
C824 C827 1.356 . S
C824 O854 1.325 . S
N825 C828 1.314 . S
N825 C829 1.279 . S
C826 C824 1.348 . S
C826 C828 1.353 . S
C826 H868 0.929 . S
C827 C824 1.356 . S
C827 C829 1.358 . S
C827 H869 0.930 . S
C828 N825 1.314 . S
C828 C826 1.353 . S
C828 H870 0.930 . S
C829 N825 1.279 . S
C829 C827 1.358 . S
C829 H871 0.930 . S
C830 C831 1.348 . S
C830 C832 1.356 . S
C830 O855 1.325 . S
C831 C830 1.348 . S
C831 C833 1.353 . S
C831 H872 0.929 . S
C832 C830 1.356 . S
C832 C834 1.358 . S
C832 H873 0.930 . S
C833 C831 1.353 . S
C833 N835 1.314 . S
C833 H874 0.930 . S
C834 C832 1.358 . S
C834 N835 1.279 . S
C834 H875 0.930 . S
N835 C833 1.314 . S
N835 C834 1.279 . S
C836 C838 1.353 . S
C836 N839 1.314 . S
C836 H842 0.930 . S
C837 N839 1.279 . S
C837 C840 1.358 . S
C837 H843 0.930 . S
C838 C836 1.353 . S
C838 C841 1.348 . S
C838 H876 0.929 . S
N839 Li794 1.990 . S
N839 C836 1.314 . S
N839 C837 1.279 . S
C840 C837 1.358 . S
C840 C841 1.356 . S
C840 H877 0.930 . S
C841 C838 1.348 . S
C841 C840 1.356 . S
H842 C836 0.930 . S
H843 C837 0.930 . S
C844 N845 1.314 . S
C844 C846 1.353 . S
C844 H850 0.930 . S
N845 Li795 1.990 . S
N845 C844 1.314 . S
N845 C848 1.279 . S
C846 C844 1.353 . S
C846 C849 1.348 . S
C846 H878 0.929 . S
C847 C848 1.358 . S
C847 C849 1.356 . S
C847 H879 0.930 . S
C848 N845 1.279 . S
C848 C847 1.358 . S
C848 H851 0.930 . S
C849 C846 1.348 . S
C849 C847 1.356 . S
H850 C844 0.930 . S
H851 C848 0.930 . S
O852 Li792 1.956 . S
O852 Li793 1.970 . S
O852 Li794 1.961 . S
O852 C796 1.325 . S
O853 Li792 1.970 . S
O853 Li793 1.956 . S
O853 Li795 1.961 . S
O853 C802 1.325 . S
O854 Li792 1.961 . S
O854 Li794 1.956 . S
O854 Li795 1.970 . S
O854 C824 1.325 . S
O855 Li793 1.961 . S
O855 Li794 1.970 . S
O855 Li795 1.956 . S
O855 C830 1.325 . S
H856 C798 0.929 . S
H857 C799 0.930 . S
H858 C800 0.930 . S
H859 C801 0.930 1_554 S
H860 C803 0.930 . S
H861 C805 0.929 . S
H862 C806 0.930 . S
H863 C807 0.930 . S
H864 C810 0.930 . S
H865 C813 0.927 . S
H866 C818 0.929 . S
H867 C819 0.930 . S
H868 C826 0.929 . S
H869 C827 0.930 . S
H870 C828 0.930 . S
H871 C829 0.930 . S
H872 C831 0.929 . S
H873 C832 0.930 . S
H874 C833 0.930 . S
H875 C834 0.930 . S
H876 C838 0.929 . S
H877 C840 0.930 . S
H878 C846 0.929 . S
H879 C847 0.930 . S
Li880 N897 1.990 . S
Li880 O940 1.956 . S
Li880 O941 1.970 . S
Li880 O942 1.961 . S
Li881 N905 1.990 . S
Li881 O940 1.970 . S
Li881 O941 1.956 . S
Li881 O943 1.961 . S
Li882 N927 1.990 . S
Li882 O940 1.961 . S
Li882 O942 1.956 . S
Li882 O943 1.970 . S
Li883 N933 1.990 . S
Li883 O941 1.961 . S
Li883 O942 1.970 . S
Li883 O943 1.956 . S
C884 C886 1.348 . S
C884 C887 1.356 . S
C884 O940 1.325 . S
N885 C888 1.314 . S
N885 C889 1.279 . S
C886 C884 1.348 . S
C886 C888 1.353 . S
C886 H944 0.929 . S
C887 C884 1.356 . S
C887 C889 1.358 . S
C887 H945 0.930 . S
C888 N885 1.314 . S
C888 C886 1.353 . S
C888 H946 0.930 . S
C889 N885 1.279 . S
C889 C887 1.358 . S
C889 H947 0.930 . S
C890 C893 1.348 . S
C890 C894 1.356 . S
C890 O941 1.325 . S
C891 N892 1.279 . S
C891 C894 1.358 . S
C891 H948 0.930 . S
N892 C891 1.279 . S
N892 C895 1.314 . S
C893 C890 1.348 . S
C893 C895 1.353 . S
C893 H949 0.929 . S
C894 C890 1.356 . S
C894 C891 1.358 . S
C894 H950 0.930 . S
C895 N892 1.314 . S
C895 C893 1.353 . S
C895 H951 0.930 . S
C896 N897 1.314 . S
C896 C901 1.353 . S
C896 H902 0.930 . S
N897 Li880 1.990 . S
N897 C896 1.314 . S
N897 C899 1.279 . S
C898 C899 1.358 . S
C898 C900 1.356 . S
C898 H952 0.930 . S
C899 N897 1.279 . S
C899 C898 1.358 . S
C899 H903 0.930 . S
C900 C898 1.356 . S
C900 C901 1.348 . S
C901 C896 1.353 . S
C901 C900 1.348 . S
C901 H953 0.929 . S
H902 C896 0.930 . S
H903 C899 0.930 . S
C904 N905 1.314 . S
C904 C906 1.353 . S
C904 H910 0.930 . S
N905 Li881 1.990 . S
N905 C904 1.314 . S
N905 C908 1.279 . S
C906 C904 1.353 . S
C906 C909 1.348 . S
C906 H954 0.929 . S
C907 C908 1.358 . S
C907 C909 1.356 . S
C907 H955 0.930 . S
C908 N905 1.279 . S
C908 C907 1.358 . S
C908 H911 0.930 . S
C909 C906 1.348 . S
C909 C907 1.356 . S
H910 C904 0.930 . S
H911 C908 0.930 . S
C912 C914 1.348 . S
C912 C915 1.356 . S
C912 O942 1.325 . S
N913 C916 1.314 . S
N913 C917 1.279 . S
C914 C912 1.348 . S
C914 C916 1.353 . S
C914 H956 0.929 . S
C915 C912 1.356 . S
C915 C917 1.358 . S
C915 H957 0.930 . S
C916 N913 1.314 . S
C916 C914 1.353 . S
C916 H958 0.930 . S
C917 N913 1.279 . S
C917 C915 1.358 . S
C917 H959 0.930 . S
C918 C919 1.348 . S
C918 C920 1.356 . S
C918 O943 1.325 . S
C919 C918 1.348 . S
C919 C921 1.353 . S
C919 H960 0.929 . S
C920 C918 1.356 . S
C920 C922 1.358 . S
C920 H961 0.930 . S
C921 C919 1.353 . S
C921 N923 1.314 . S
C921 H962 0.930 . S
C922 C920 1.358 . S
C922 N923 1.279 . S
C922 H963 0.930 . S
N923 C921 1.314 . S
N923 C922 1.279 . S
C924 C926 1.353 . S
C924 N927 1.314 . S
C924 H930 0.930 . S
C925 N927 1.279 . S
C925 C928 1.358 . S
C925 H931 0.930 . S
C926 C924 1.353 . S
C926 C929 1.348 . S
C926 H964 0.929 . S
N927 Li882 1.990 . S
N927 C924 1.314 . S
N927 C925 1.279 . S
C928 C925 1.358 . S
C928 C929 1.356 . S
C928 H965 0.930 . S
C929 C926 1.348 . S
C929 C928 1.356 . S
H930 C924 0.930 . S
H931 C925 0.930 . S
C932 N933 1.314 . S
C932 C934 1.353 . S
C932 H938 0.930 . S
N933 Li883 1.990 . S
N933 C932 1.314 . S
N933 C936 1.279 . S
C934 C932 1.353 . S
C934 C937 1.348 . S
C934 H966 0.929 . S
C935 C936 1.358 . S
C935 C937 1.356 . S
C935 H967 0.930 . S
C936 N933 1.279 . S
C936 C935 1.358 . S
C936 H939 0.930 . S
C937 C934 1.348 . S
C937 C935 1.356 . S
H938 C932 0.930 . S
H939 C936 0.930 . S
O940 Li880 1.956 . S
O940 Li881 1.970 . S
O940 Li882 1.961 . S
O940 C884 1.325 . S
O941 Li880 1.970 . S
O941 Li881 1.956 . S
O941 Li883 1.961 . S
O941 C890 1.325 . S
O942 Li880 1.961 . S
O942 Li882 1.956 . S
O942 Li883 1.970 . S
O942 C912 1.325 . S
O943 Li881 1.961 . S
O943 Li882 1.970 . S
O943 Li883 1.956 . S
O943 C918 1.325 . S
H944 C886 0.929 . S
H945 C887 0.930 . S
H946 C888 0.930 . S
H947 C889 0.930 . S
H948 C891 0.930 . S
H949 C893 0.929 . S
H950 C894 0.930 . S
H951 C895 0.930 . S
H952 C898 0.930 . S
H953 C901 0.929 . S
H954 C906 0.929 . S
H955 C907 0.930 . S
H956 C914 0.929 . S
H957 C915 0.930 . S
H958 C916 0.930 . S
H959 C917 0.930 . S
H960 C919 0.929 . S
H961 C920 0.930 . S
H962 C921 0.930 . S
H963 C922 0.930 . S
H964 C926 0.929 . S
H965 C928 0.930 . S
H966 C934 0.929 . S
H967 C935 0.930 . S
Li968 N985 1.990 . S
Li968 O1028 1.956 . S
Li968 O1029 1.970 . S
Li968 O1030 1.961 . S
Li969 N993 1.990 . S
Li969 O1028 1.970 . S
Li969 O1029 1.956 . S
Li969 O1031 1.961 . S
Li970 N1015 1.990 . S
Li970 O1028 1.961 . S
Li970 O1030 1.956 . S
Li970 O1031 1.970 . S
Li971 N1021 1.990 . S
Li971 O1029 1.961 . S
Li971 O1030 1.970 . S
Li971 O1031 1.956 . S
C972 C974 1.348 . S
C972 C975 1.356 . S
C972 O1028 1.325 . S
N973 C976 1.314 . S
N973 C977 1.279 . S
C974 C972 1.348 . S
C974 C976 1.353 . S
C974 H1032 0.929 . S
C975 C972 1.356 . S
C975 C977 1.358 . S
C975 H1033 0.930 . S
C976 N973 1.314 . S
C976 C974 1.353 . S
C976 H1034 0.930 . S
C977 N973 1.279 . S
C977 C975 1.358 . S
C977 H1035 0.930 . S
C978 C981 1.348 . S
C978 C982 1.356 . S
C978 O1029 1.325 . S
C979 N980 1.279 1_556 S
C979 C982 1.358 . S
C979 H1036 0.930 . S
N980 C979 1.279 1_554 S
N980 C983 1.314 1_554 S
C981 C978 1.348 . S
C981 C983 1.353 . S
C981 H1037 0.929 . S
C982 C978 1.356 . S
C982 C979 1.358 . S
C982 H1038 0.930 . S
C983 N980 1.314 1_556 S
C983 C981 1.353 . S
C983 H1039 0.915 1_556 S
C984 N985 1.314 . S
C984 C989 1.353 . S
C984 H990 0.930 . S
N985 Li968 1.990 . S
N985 C984 1.314 . S
N985 C987 1.279 . S
C986 C987 1.358 . S
C986 C988 1.356 . S
C986 H1040 0.930 . S
C987 N985 1.279 . S
C987 C986 1.358 . S
C987 H991 0.930 . S
C988 C986 1.356 . S
C988 C989 1.348 . S
C989 C984 1.353 . S
C989 C988 1.348 . S
C989 H1041 0.929 . S
H990 C984 0.930 . S
H991 C987 0.930 . S
C992 N993 1.314 . S
C992 C994 1.353 . S
C992 H998 0.930 . S
N993 Li969 1.990 . S
N993 C992 1.314 . S
N993 C996 1.279 . S
C994 C992 1.353 . S
C994 C997 1.348 . S
C994 H1042 0.929 . S
C995 C996 1.358 . S
C995 C997 1.356 . S
C995 H1043 0.930 . S
C996 N993 1.279 . S
C996 C995 1.358 . S
C996 H999 0.930 . S
C997 C994 1.348 . S
C997 C995 1.356 . S
H998 C992 0.930 . S
H999 C996 0.930 . S
C1000 C1002 1.348 . S
C1000 C1003 1.356 . S
C1000 O1030 1.325 . S
N1001 C1004 1.314 . S
N1001 C1005 1.279 . S
C1002 C1000 1.348 . S
C1002 C1004 1.353 . S
C1002 H1044 0.929 . S
C1003 C1000 1.356 . S
C1003 C1005 1.358 . S
C1003 H1045 0.930 . S
C1004 N1001 1.314 . S
C1004 C1002 1.353 . S
C1004 H1046 0.930 . S
C1005 N1001 1.279 . S
C1005 C1003 1.358 . S
C1005 H1047 0.930 . S
C1006 C1007 1.348 . S
C1006 C1008 1.356 . S
C1006 O1031 1.325 . S
C1007 C1006 1.348 . S
C1007 C1009 1.353 . S
C1007 H1048 0.929 . S
C1008 C1006 1.356 . S
C1008 C1010 1.358 . S
C1008 H1049 0.930 . S
C1009 C1007 1.353 . S
C1009 N1011 1.314 . S
C1009 H1050 0.930 . S
C1010 C1008 1.358 . S
C1010 N1011 1.279 . S
C1010 H1051 0.930 . S
N1011 C1009 1.314 . S
N1011 C1010 1.279 . S
C1012 C1014 1.353 . S
C1012 N1015 1.314 . S
C1012 H1018 0.930 . S
C1013 N1015 1.279 . S
C1013 C1016 1.358 . S
C1013 H1019 0.930 . S
C1014 C1012 1.353 . S
C1014 C1017 1.348 . S
C1014 H1052 0.929 . S
N1015 Li970 1.990 . S
N1015 C1012 1.314 . S
N1015 C1013 1.279 . S
C1016 C1013 1.358 . S
C1016 C1017 1.356 . S
C1016 H1053 0.930 . S
C1017 C1014 1.348 . S
C1017 C1016 1.356 . S
H1018 C1012 0.930 . S
H1019 C1013 0.930 . S
C1020 N1021 1.314 . S
C1020 C1022 1.353 . S
C1020 H1026 0.930 . S
N1021 Li971 1.990 . S
N1021 C1020 1.314 . S
N1021 C1024 1.279 . S
C1022 C1020 1.353 . S
C1022 C1025 1.348 . S
C1022 H1054 0.929 . S
C1023 C1024 1.358 . S
C1023 C1025 1.356 . S
C1023 H1055 0.930 . S
C1024 N1021 1.279 . S
C1024 C1023 1.358 . S
C1024 H1027 0.930 . S
C1025 C1022 1.348 . S
C1025 C1023 1.356 . S
H1026 C1020 0.930 . S
H1027 C1024 0.930 . S
O1028 Li968 1.956 . S
O1028 Li969 1.970 . S
O1028 Li970 1.961 . S
O1028 C972 1.325 . S
O1029 Li968 1.970 . S
O1029 Li969 1.956 . S
O1029 Li971 1.961 . S
O1029 C978 1.325 . S
O1030 Li968 1.961 . S
O1030 Li970 1.956 . S
O1030 Li971 1.970 . S
O1030 C1000 1.325 . S
O1031 Li969 1.961 . S
O1031 Li970 1.970 . S
O1031 Li971 1.956 . S
O1031 C1006 1.325 . S
H1032 C974 0.929 . S
H1033 C975 0.930 . S
H1034 C976 0.930 . S
H1035 C977 0.930 . S
H1036 C979 0.930 . S
H1037 C981 0.929 . S
H1038 C982 0.930 . S
H1039 C983 0.915 1_554 S
H1040 C986 0.930 . S
H1041 C989 0.929 . S
H1042 C994 0.929 . S
H1043 C995 0.930 . S
H1044 C1002 0.929 . S
H1045 C1003 0.930 . S
H1046 C1004 0.930 . S
H1047 C1005 0.930 . S
H1048 C1007 0.929 . S
H1049 C1008 0.930 . S
H1050 C1009 0.930 . S
H1051 C1010 0.930 . S
H1052 C1014 0.929 . S
H1053 C1016 0.930 . S
H1054 C1022 0.929 . S
H1055 C1023 0.930 . S
H1056 C1062 0.930 . S
H1057 C1065 0.930 . S
H1058 C1066 0.930 . S
H1059 C1067 0.930 . S
H1060 C1070 0.930 . S
H1061 C1071 0.930 . S
C1062 H1056 0.930 . S
C1062 C1063 1.355 . S
C1062 C1064 1.415 . S
C1063 C1062 1.355 . S
C1063 C1065 1.419 . S
C1064 C1062 1.415 . S
C1064 C1069 1.425 . S
C1064 C1071 1.409 . S
C1065 H1057 0.930 . S
C1065 C1063 1.419 . S
C1065 C1066 1.362 . S
C1066 H1058 0.930 . S
C1066 C1065 1.362 . S
C1066 C1069 1.409 . S
C1067 H1059 0.930 . S
C1067 C1068 1.355 . S
C1067 C1069 1.415 . S
C1068 C1067 1.355 . S
C1068 C1070 1.419 . S
C1069 C1064 1.425 . S
C1069 C1066 1.409 . S
C1069 C1067 1.415 . S
C1070 H1060 0.930 . S
C1070 C1068 1.419 . S
C1070 C1071 1.362 . S
C1071 H1061 0.930 . S
C1071 C1064 1.409 . S
C1071 C1070 1.362 . S
H1072 C1078 0.930 . S
H1073 C1081 0.930 . S
H1074 C1082 0.930 . S
H1075 C1083 0.930 . S
H1076 C1086 0.930 . S
H1077 C1087 0.930 . S
C1078 H1072 0.930 . S
C1078 C1079 1.355 . S
C1078 C1080 1.415 . S
C1079 C1078 1.355 . S
C1079 C1081 1.419 . S
C1080 C1078 1.415 . S
C1080 C1085 1.425 . S
C1080 C1087 1.409 . S
C1081 H1073 0.930 . S
C1081 C1079 1.419 . S
C1081 C1082 1.362 . S
C1082 H1074 0.930 . S
C1082 C1081 1.362 . S
C1082 C1085 1.409 . S
C1083 H1075 0.930 . S
C1083 C1084 1.355 . S
C1083 C1085 1.415 . S
C1084 C1083 1.355 . S
C1084 C1086 1.419 . S
C1085 C1080 1.425 . S
C1085 C1082 1.409 . S
C1085 C1083 1.415 . S
C1086 H1076 0.930 . S
C1086 C1084 1.419 . S
C1086 C1087 1.362 . S
C1087 H1077 0.930 . S
C1087 C1080 1.409 . S
C1087 C1086 1.362 . S
H1088 C1094 0.930 . S
H1089 C1097 0.930 . S
H1090 C1098 0.930 . S
H1091 C1099 0.930 . S
H1092 C1102 0.930 . S
H1093 C1103 0.930 . S
C1094 H1088 0.930 . S
C1094 C1095 1.355 . S
C1094 C1096 1.415 . S
C1095 C1094 1.355 . S
C1095 C1097 1.419 . S
C1096 C1094 1.415 . S
C1096 C1101 1.425 . S
C1096 C1103 1.409 . S
C1097 H1089 0.930 . S
C1097 C1095 1.419 . S
C1097 C1098 1.362 . S
C1098 H1090 0.930 . S
C1098 C1097 1.362 . S
C1098 C1101 1.409 . S
C1099 H1091 0.930 . S
C1099 C1100 1.355 . S
C1099 C1101 1.415 . S
C1100 C1099 1.355 . S
C1100 C1102 1.419 . S
C1101 C1096 1.425 . S
C1101 C1098 1.409 . S
C1101 C1099 1.415 . S
C1102 H1092 0.930 . S
C1102 C1100 1.419 . S
C1102 C1103 1.362 . S
C1103 H1093 0.930 . S
C1103 C1096 1.409 . S
C1103 C1102 1.362 . S
H1104 C1110 0.930 . S
H1105 C1113 0.930 . S
H1106 C1114 0.930 . S
H1107 C1115 0.930 . S
H1108 C1118 0.930 . S
H1109 C1119 0.930 . S
C1110 H1104 0.930 . S
C1110 C1111 1.355 . S
C1110 C1112 1.415 . S
C1111 C1110 1.355 . S
C1111 C1113 1.419 . S
C1112 C1110 1.415 . S
C1112 C1117 1.425 . S
C1112 C1119 1.409 . S
C1113 H1105 0.930 . S
C1113 C1111 1.419 . S
C1113 C1114 1.362 . S
C1114 H1106 0.930 . S
C1114 C1113 1.362 . S
C1114 C1117 1.409 . S
C1115 H1107 0.930 . S
C1115 C1116 1.355 . S
C1115 C1117 1.415 . S
C1116 C1115 1.355 . S
C1116 C1118 1.419 . S
C1117 C1112 1.425 . S
C1117 C1114 1.409 . S
C1117 C1115 1.415 . S
C1118 H1108 0.930 . S
C1118 C1116 1.419 . S
C1118 C1119 1.362 . S
C1119 H1109 0.930 . S
C1119 C1112 1.409 . S
C1119 C1118 1.362 . S
H1120 C1126 0.930 . S
H1121 C1129 0.930 . S
H1122 C1130 0.930 . S
H1123 C1131 0.930 . S
H1124 C1134 0.930 . S
H1125 C1135 0.930 . S
C1126 H1120 0.930 . S
C1126 C1127 1.355 . S
C1126 C1128 1.415 . S
C1127 C1126 1.355 . S
C1127 C1129 1.419 . S
C1128 C1126 1.415 . S
C1128 C1133 1.425 . S
C1128 C1135 1.409 . S
C1129 H1121 0.930 . S
C1129 C1127 1.419 . S
C1129 C1130 1.362 . S
C1130 H1122 0.930 . S
C1130 C1129 1.362 . S
C1130 C1133 1.409 . S
C1131 H1123 0.930 . S
C1131 C1132 1.355 . S
C1131 C1133 1.415 . S
C1132 C1131 1.355 . S
C1132 C1134 1.419 . S
C1133 C1128 1.425 . S
C1133 C1130 1.409 . S
C1133 C1131 1.415 . S
C1134 H1124 0.930 . S
C1134 C1132 1.419 . S
C1134 C1135 1.362 . S
C1135 H1125 0.930 . S
C1135 C1128 1.409 . S
C1135 C1134 1.362 . S
H1136 C1142 0.930 . S
H1137 C1145 0.930 . S
H1138 C1146 0.930 . S
H1139 C1147 0.930 . S
H1140 C1150 0.930 . S
H1141 C1151 0.930 . S
C1142 H1136 0.930 . S
C1142 C1143 1.355 . S
C1142 C1144 1.415 . S
C1143 C1142 1.355 . S
C1143 C1145 1.419 . S
C1144 C1142 1.415 . S
C1144 C1149 1.425 . S
C1144 C1151 1.409 . S
C1145 H1137 0.930 . S
C1145 C1143 1.419 . S
C1145 C1146 1.362 . S
C1146 H1138 0.930 . S
C1146 C1145 1.362 . S
C1146 C1149 1.409 . S
C1147 H1139 0.930 . S
C1147 C1148 1.355 . S
C1147 C1149 1.415 . S
C1148 C1147 1.355 . S
C1148 C1150 1.419 . S
C1149 C1144 1.425 . S
C1149 C1146 1.409 . S
C1149 C1147 1.415 . S
C1150 H1140 0.930 . S
C1150 C1148 1.419 . S
C1150 C1151 1.362 . S
C1151 H1141 0.930 . S
C1151 C1144 1.409 . S
C1151 C1150 1.362 . S
H1152 C1158 0.930 . S
H1153 C1161 0.930 1_556 S
H1154 C1162 0.930 1_565 S
H1155 C1163 0.930 . S
H1156 C1166 0.930 1_554 S
H1157 C1167 0.930 1_545 S
C1158 H1152 0.930 . S
C1158 C1159 1.355 . S
C1158 C1160 1.415 . S
C1159 C1158 1.355 . S
C1159 C1161 1.419 . S
C1160 C1158 1.415 . S
C1160 C1165 1.425 1_544 S
C1160 C1167 1.409 1_545 S
C1161 H1153 0.930 1_554 S
C1161 C1159 1.419 . S
C1161 C1162 1.362 1_554 S
C1162 H1154 0.930 1_545 S
C1162 C1161 1.362 1_556 S
C1162 C1165 1.409 1_545 S
C1163 H1155 0.930 . S
C1163 C1164 1.355 . S
C1163 C1165 1.415 . S
C1164 C1163 1.355 . S
C1164 C1166 1.419 . S
C1165 C1160 1.425 1_566 S
C1165 C1162 1.409 1_565 S
C1165 C1163 1.415 . S
C1166 H1156 0.930 1_556 S
C1166 C1164 1.419 . S
C1166 C1167 1.362 1_556 S
C1167 H1157 0.930 1_565 S
C1167 C1160 1.409 1_565 S
C1167 C1166 1.362 1_554 S
H1168 C1174 0.930 . S
H1169 C1177 0.930 . S
H1170 C1178 0.930 . S
H1171 C1179 0.930 . S
H1172 C1182 0.930 . S
H1173 C1183 0.930 . S
C1174 H1168 0.930 . S
C1174 C1175 1.355 . S
C1174 C1176 1.415 . S
C1175 C1174 1.355 . S
C1175 C1177 1.419 . S
C1176 C1174 1.415 . S
C1176 C1181 1.425 . S
C1176 C1183 1.409 . S
C1177 H1169 0.930 . S
C1177 C1175 1.419 . S
C1177 C1178 1.362 . S
C1178 H1170 0.930 . S
C1178 C1177 1.362 . S
C1178 C1181 1.409 . S
C1179 H1171 0.930 . S
C1179 C1180 1.355 . S
C1179 C1181 1.415 . S
C1180 C1179 1.355 . S
C1180 C1182 1.419 . S
C1181 C1176 1.425 . S
C1181 C1178 1.409 . S
C1181 C1179 1.415 . S
C1182 H1172 0.930 . S
C1182 C1180 1.419 . S
C1182 C1183 1.362 . S
C1183 H1173 0.930 . S
C1183 C1176 1.409 . S
C1183 C1182 1.362 . S
H1184 C1190 0.930 . S
H1185 C1193 0.930 . S
H1186 C1194 0.930 . S
H1187 C1195 0.930 . S
H1188 C1198 0.908 1_455 S
H1189 C1199 0.930 . S
C1190 H1184 0.930 . S
C1190 C1191 1.355 . S
C1190 C1192 1.415 . S
C1191 C1190 1.355 . S
C1191 C1193 1.419 1_456 S
C1192 C1190 1.415 . S
C1192 C1197 1.425 1_456 S
C1192 C1199 1.409 . S
C1193 H1185 0.930 . S
C1193 C1191 1.419 1_654 S
C1193 C1194 1.362 . S
C1194 H1186 0.930 . S
C1194 C1193 1.362 . S
C1194 C1197 1.409 . S
C1195 H1187 0.930 . S
C1195 C1196 1.355 . S
C1195 C1197 1.415 . S
C1196 C1195 1.355 . S
C1196 C1198 1.427 1_554 S
C1197 C1192 1.425 1_654 S
C1197 C1194 1.409 . S
C1197 C1195 1.415 . S
C1198 H1188 0.908 1_655 S
C1198 C1196 1.427 1_556 S
C1198 C1199 1.366 1_655 S
C1199 H1189 0.930 . S
C1199 C1192 1.409 . S
C1199 C1198 1.366 1_455 S
H1200 C1206 0.930 . S
H1201 C1209 0.930 . S
H1202 C1210 0.904 1_565 S
H1203 C1211 0.930 . S
H1204 C1214 0.930 . S
H1205 C1215 0.906 1_545 S
C1206 H1200 0.930 . S
C1206 C1207 1.355 . S
C1206 C1208 1.415 . S
C1207 C1206 1.355 . S
C1207 C1209 1.419 . S
C1208 C1206 1.415 . S
C1208 C1213 1.425 1_545 S
C1208 C1215 1.409 1_545 S
C1209 H1201 0.930 . S
C1209 C1207 1.419 . S
C1209 C1210 1.362 . S
C1210 H1202 0.904 1_545 S
C1210 C1209 1.362 . S
C1210 C1213 1.409 1_545 S
C1211 H1203 0.930 . S
C1211 C1212 1.355 . S
C1211 C1213 1.415 . S
C1212 C1211 1.355 . S
C1212 C1214 1.419 . S
C1213 C1208 1.425 1_565 S
C1213 C1210 1.409 1_565 S
C1213 C1211 1.415 . S
C1214 H1204 0.930 . S
C1214 C1212 1.419 . S
C1214 C1215 1.362 . S
C1215 H1205 0.906 1_565 S
C1215 C1208 1.409 1_565 S
C1215 C1214 1.362 . S
H1216 C1222 0.930 . S
H1217 C1225 0.930 . S
H1218 C1226 0.930 . S
H1219 C1227 0.930 . S
H1220 C1230 0.930 . S
H1221 C1231 0.936 . S
C1222 H1216 0.930 . S
C1222 C1223 1.355 . S
C1222 C1224 1.415 . S
C1223 C1222 1.355 . S
C1223 C1225 1.419 . S
C1224 C1222 1.415 . S
C1224 C1229 1.425 1_556 S
C1224 C1231 1.410 . S
C1225 H1217 0.930 . S
C1225 C1223 1.419 . S
C1225 C1226 1.362 1_556 S
C1226 H1218 0.930 . S
C1226 C1225 1.362 1_554 S
C1226 C1229 1.409 . S
C1227 H1219 0.930 . S
C1227 C1228 1.355 . S
C1227 C1229 1.415 . S
C1228 C1227 1.355 . S
C1228 C1230 1.419 . S
C1229 C1224 1.425 1_554 S
C1229 C1226 1.409 . S
C1229 C1227 1.415 . S
C1230 H1220 0.930 . S
C1230 C1228 1.419 . S
C1230 C1231 1.356 1_554 S
C1231 H1221 0.936 . S
C1231 C1224 1.410 . S
C1231 C1230 1.356 1_556 S
H1232 C1238 0.930 . S
H1233 C1241 0.930 . S
H1234 C1242 0.930 . S
H1235 C1243 0.930 1_655 S
H1236 C1246 0.930 . S
H1237 C1247 0.930 . S
C1238 H1232 0.930 . S
C1238 C1239 1.355 1_455 S
C1238 C1240 1.415 . S
C1239 C1238 1.355 1_655 S
C1239 C1241 1.419 . S
C1240 C1238 1.415 . S
C1240 C1245 1.420 1_455 S
C1240 C1247 1.409 . S
C1241 H1233 0.930 . S
C1241 C1239 1.419 . S
C1241 C1242 1.362 . S
C1242 H1234 0.930 . S
C1242 C1241 1.362 . S
C1242 C1245 1.407 . S
C1243 H1235 0.930 1_455 S
C1243 C1244 1.355 . S
C1243 C1245 1.423 1_455 S
C1244 C1243 1.355 . S
C1244 C1246 1.419 . S
C1245 C1240 1.420 1_655 S
C1245 C1242 1.407 . S
C1245 C1243 1.423 1_655 S
C1246 H1236 0.930 . S
C1246 C1244 1.419 . S
C1246 C1247 1.362 . S
C1247 H1237 0.930 . S
C1247 C1240 1.409 . S
C1247 C1246 1.362 . S
H1248 C1254 0.930 . S
H1249 C1257 0.930 . S
H1250 C1258 0.930 . S
H1251 C1259 0.930 . S
H1252 C1262 0.930 . S
H1253 C1263 0.930 . S
C1254 H1248 0.930 . S
C1254 C1255 1.355 . S
C1254 C1256 1.415 . S
C1255 C1254 1.355 . S
C1255 C1257 1.419 . S
C1256 C1254 1.415 . S
C1256 C1261 1.425 . S
C1256 C1263 1.409 . S
C1257 H1249 0.930 . S
C1257 C1255 1.419 . S
C1257 C1258 1.362 . S
C1258 H1250 0.930 . S
C1258 C1257 1.362 . S
C1258 C1261 1.409 . S
C1259 H1251 0.930 . S
C1259 C1260 1.355 . S
C1259 C1261 1.415 . S
C1260 C1259 1.355 . S
C1260 C1262 1.419 . S
C1261 C1256 1.425 . S
C1261 C1258 1.409 . S
C1261 C1259 1.415 . S
C1262 H1252 0.930 . S
C1262 C1260 1.419 . S
C1262 C1263 1.362 . S
C1263 H1253 0.930 . S
C1263 C1256 1.409 . S
C1263 C1262 1.362 . S
H1264 C1270 0.930 . S
H1265 C1273 0.930 . S
H1266 C1274 0.930 . S
H1267 C1275 0.930 . S
H1268 C1278 0.930 . S
H1269 C1279 0.930 . S
C1270 H1264 0.930 . S
C1270 C1271 1.355 . S
C1270 C1272 1.415 . S
C1271 C1270 1.355 . S
C1271 C1273 1.419 . S
C1272 C1270 1.415 . S
C1272 C1277 1.425 . S
C1272 C1279 1.409 . S
C1273 H1265 0.930 . S
C1273 C1271 1.419 . S
C1273 C1274 1.362 . S
C1274 H1266 0.930 . S
C1274 C1273 1.362 . S
C1274 C1277 1.409 . S
C1275 H1267 0.930 . S
C1275 C1276 1.355 . S
C1275 C1277 1.415 . S
C1276 C1275 1.355 . S
C1276 C1278 1.419 . S
C1277 C1272 1.425 . S
C1277 C1274 1.409 . S
C1277 C1275 1.415 . S
C1278 H1268 0.930 . S
C1278 C1276 1.419 . S
C1278 C1279 1.362 . S
C1279 H1269 0.930 . S
C1279 C1272 1.409 . S
C1279 C1278 1.362 . S
H1280 C1286 0.930 . S
H1281 C1289 0.930 . S
H1282 C1290 0.930 . S
H1283 C1291 0.930 . S
H1284 C1294 0.930 . S
H1285 C1295 0.930 . S
C1286 H1280 0.930 . S
C1286 C1287 1.355 . S
C1286 C1288 1.415 . S
C1287 C1286 1.355 . S
C1287 C1289 1.419 . S
C1288 C1286 1.415 . S
C1288 C1293 1.425 . S
C1288 C1295 1.409 . S
C1289 H1281 0.930 . S
C1289 C1287 1.419 . S
C1289 C1290 1.362 . S
C1290 H1282 0.930 . S
C1290 C1289 1.362 . S
C1290 C1293 1.409 . S
C1291 H1283 0.930 . S
C1291 C1292 1.355 . S
C1291 C1293 1.415 . S
C1292 C1291 1.355 . S
C1292 C1294 1.419 . S
C1293 C1288 1.425 . S
C1293 C1290 1.409 . S
C1293 C1291 1.415 . S
C1294 H1284 0.930 . S
C1294 C1292 1.419 . S
C1294 C1295 1.362 . S
C1295 H1285 0.930 . S
C1295 C1288 1.409 . S
C1295 C1294 1.362 . S
H1296 C1302 0.930 . S
H1297 C1305 0.930 . S
H1298 C1306 0.930 . S
H1299 C1307 0.930 . S
H1300 C1310 0.930 . S
H1301 C1311 0.930 . S
C1302 H1296 0.930 . S
C1302 C1303 1.355 . S
C1302 C1304 1.415 . S
C1303 C1302 1.355 . S
C1303 C1305 1.419 . S
C1304 C1302 1.415 . S
C1304 C1309 1.425 . S
C1304 C1311 1.409 . S
C1305 H1297 0.930 . S
C1305 C1303 1.419 . S
C1305 C1306 1.362 . S
C1306 H1298 0.930 . S
C1306 C1305 1.362 . S
C1306 C1309 1.409 . S
C1307 H1299 0.930 . S
C1307 C1308 1.355 . S
C1307 C1309 1.415 . S
C1308 C1307 1.355 . S
C1308 C1310 1.419 . S
C1309 C1304 1.425 . S
C1309 C1306 1.409 . S
C1309 C1307 1.415 . S
C1310 H1300 0.930 . S
C1310 C1308 1.419 . S
C1310 C1311 1.362 . S
C1311 H1301 0.930 . S
C1311 C1304 1.409 . S
C1311 C1310 1.362 . S
H1312 C1318 0.930 . S
H1313 C1321 0.930 . S
H1314 C1322 0.930 . S
H1315 C1323 0.930 . S
H1316 C1326 0.930 . S
H1317 C1327 0.930 . S
C1318 H1312 0.930 . S
C1318 C1319 1.355 . S
C1318 C1320 1.415 . S
C1319 C1318 1.355 . S
C1319 C1321 1.419 . S
C1320 C1318 1.415 . S
C1320 C1325 1.425 . S
C1320 C1327 1.409 . S
C1321 H1313 0.930 . S
C1321 C1319 1.419 . S
C1321 C1322 1.362 . S
C1322 H1314 0.930 . S
C1322 C1321 1.362 . S
C1322 C1325 1.409 . S
C1323 H1315 0.930 . S
C1323 C1324 1.355 . S
C1323 C1325 1.415 . S
C1324 C1323 1.355 . S
C1324 C1326 1.419 . S
C1325 C1320 1.425 . S
C1325 C1322 1.409 . S
C1325 C1323 1.415 . S
C1326 H1316 0.930 . S
C1326 C1324 1.419 . S
C1326 C1327 1.362 . S
C1327 H1317 0.930 . S
C1327 C1320 1.409 . S
C1327 C1326 1.362 . S
H1328 C1334 0.930 . S
H1329 C1337 0.930 . S
H1330 C1338 0.930 . S
H1331 C1339 0.930 . S
H1332 C1342 0.930 . S
H1333 C1343 0.930 . S
C1334 H1328 0.930 . S
C1334 C1335 1.355 . S
C1334 C1336 1.415 . S
C1335 C1334 1.355 . S
C1335 C1337 1.419 . S
C1336 C1334 1.415 . S
C1336 C1341 1.425 . S
C1336 C1343 1.409 . S
C1337 H1329 0.930 . S
C1337 C1335 1.419 . S
C1337 C1338 1.362 . S
C1338 H1330 0.930 . S
C1338 C1337 1.362 . S
C1338 C1341 1.409 . S
C1339 H1331 0.930 . S
C1339 C1340 1.355 . S
C1339 C1341 1.415 . S
C1340 C1339 1.355 . S
C1340 C1342 1.419 . S
C1341 C1336 1.425 . S
C1341 C1338 1.409 . S
C1341 C1339 1.415 . S
C1342 H1332 0.930 . S
C1342 C1340 1.419 . S
C1342 C1343 1.362 . S
C1343 H1333 0.930 . S
C1343 C1336 1.409 . S
C1343 C1342 1.362 . S
H1344 C1350 0.930 . S
H1345 C1353 0.930 . S
H1346 C1354 0.930 . S
H1347 C1355 0.930 . S
H1348 C1358 0.930 . S
H1349 C1359 0.930 . S
C1350 H1344 0.930 . S
C1350 C1351 1.355 . S
C1350 C1352 1.415 . S
C1351 C1350 1.355 . S
C1351 C1353 1.419 . S
C1352 C1350 1.415 . S
C1352 C1357 1.425 . S
C1352 C1359 1.409 . S
C1353 H1345 0.930 . S
C1353 C1351 1.419 . S
C1353 C1354 1.362 . S
C1354 H1346 0.930 . S
C1354 C1353 1.362 . S
C1354 C1357 1.409 . S
C1355 H1347 0.930 . S
C1355 C1356 1.355 . S
C1355 C1357 1.415 . S
C1356 C1355 1.355 . S
C1356 C1358 1.419 . S
C1357 C1352 1.425 . S
C1357 C1354 1.409 . S
C1357 C1355 1.415 . S
C1358 H1348 0.930 . S
C1358 C1356 1.419 . S
C1358 C1359 1.362 . S
C1359 H1349 0.930 . S
C1359 C1352 1.409 . S
C1359 C1358 1.362 . S
H1360 C1366 0.930 . S
H1361 C1369 0.930 . S
H1362 C1370 0.930 . S
H1363 C1371 0.930 . S
H1364 C1374 0.930 . S
H1365 C1375 0.930 . S
C1366 H1360 0.930 . S
C1366 C1367 1.355 . S
C1366 C1368 1.415 . S
C1367 C1366 1.355 . S
C1367 C1369 1.419 . S
C1368 C1366 1.415 . S
C1368 C1373 1.425 . S
C1368 C1375 1.409 . S
C1369 H1361 0.930 . S
C1369 C1367 1.419 . S
C1369 C1370 1.362 . S
C1370 H1362 0.930 . S
C1370 C1369 1.362 . S
C1370 C1373 1.409 . S
C1371 H1363 0.930 . S
C1371 C1372 1.355 . S
C1371 C1373 1.415 . S
C1372 C1371 1.355 . S
C1372 C1374 1.419 . S
C1373 C1368 1.425 . S
C1373 C1370 1.409 . S
C1373 C1371 1.415 . S
C1374 H1364 0.930 . S
C1374 C1372 1.419 . S
C1374 C1375 1.362 . S
C1375 H1365 0.930 . S
C1375 C1368 1.409 . S
C1375 C1374 1.362 . S
H1376 C1382 0.930 . S
H1377 C1385 0.930 . S
H1378 C1386 0.930 . S
H1379 C1387 0.930 . S
H1380 C1390 0.930 . S
H1381 C1391 0.930 . S
C1382 H1376 0.930 . S
C1382 C1383 1.355 . S
C1382 C1384 1.415 . S
C1383 C1382 1.355 . S
C1383 C1385 1.419 . S
C1384 C1382 1.415 . S
C1384 C1389 1.425 . S
C1384 C1391 1.409 . S
C1385 H1377 0.930 . S
C1385 C1383 1.419 . S
C1385 C1386 1.362 . S
C1386 H1378 0.930 . S
C1386 C1385 1.362 . S
C1386 C1389 1.409 . S
C1387 H1379 0.930 . S
C1387 C1388 1.355 . S
C1387 C1389 1.415 . S
C1388 C1387 1.355 . S
C1388 C1390 1.419 . S
C1389 C1384 1.425 . S
C1389 C1386 1.409 . S
C1389 C1387 1.415 . S
C1390 H1380 0.930 . S
C1390 C1388 1.419 . S
C1390 C1391 1.362 . S
C1391 H1381 0.930 . S
C1391 C1384 1.409 . S
C1391 C1390 1.362 . S
H1392 C1398 0.930 . S
H1393 C1401 0.930 . S
H1394 C1402 0.930 . S
H1395 C1403 0.930 . S
H1396 C1406 0.930 . S
H1397 C1407 0.930 . S
C1398 H1392 0.930 . S
C1398 C1399 1.355 . S
C1398 C1400 1.415 . S
C1399 C1398 1.355 . S
C1399 C1401 1.419 . S
C1400 C1398 1.415 . S
C1400 C1405 1.425 . S
C1400 C1407 1.409 . S
C1401 H1393 0.930 . S
C1401 C1399 1.419 . S
C1401 C1402 1.362 . S
C1402 H1394 0.930 . S
C1402 C1401 1.362 . S
C1402 C1405 1.409 . S
C1403 H1395 0.930 . S
C1403 C1404 1.355 . S
C1403 C1405 1.415 . S
C1404 C1403 1.355 . S
C1404 C1406 1.419 . S
C1405 C1400 1.425 . S
C1405 C1402 1.409 . S
C1405 C1403 1.415 . S
C1406 H1396 0.930 . S
C1406 C1404 1.419 . S
C1406 C1407 1.362 . S
C1407 H1397 0.930 . S
C1407 C1400 1.409 . S
C1407 C1406 1.362 . S
H1408 C1414 0.930 . S
H1409 C1417 0.930 . S
H1410 C1418 0.930 . S
H1411 C1419 0.930 . S
H1412 C1422 0.930 . S
H1413 C1423 0.930 . S
C1414 H1408 0.930 . S
C1414 C1415 1.355 . S
C1414 C1416 1.415 . S
C1415 C1414 1.355 . S
C1415 C1417 1.419 . S
C1416 C1414 1.415 . S
C1416 C1421 1.425 . S
C1416 C1423 1.409 . S
C1417 H1409 0.930 . S
C1417 C1415 1.419 . S
C1417 C1418 1.362 . S
C1418 H1410 0.930 . S
C1418 C1417 1.362 . S
C1418 C1421 1.409 . S
C1419 H1411 0.930 . S
C1419 C1420 1.355 . S
C1419 C1421 1.415 . S
C1420 C1419 1.355 . S
C1420 C1422 1.419 . S
C1421 C1416 1.425 . S
C1421 C1418 1.409 . S
C1421 C1419 1.415 . S
C1422 H1412 0.930 . S
C1422 C1420 1.419 . S
C1422 C1423 1.362 . S
C1423 H1413 0.930 . S
C1423 C1416 1.409 . S
C1423 C1422 1.362 . S
H1424 C1430 0.930 . S
H1425 C1433 0.930 . S
H1426 C1434 0.930 . S
H1427 C1435 0.930 . S
H1428 C1438 0.930 . S
H1429 C1439 0.930 . S
C1430 H1424 0.930 . S
C1430 C1431 1.355 . S
C1430 C1432 1.415 . S
C1431 C1430 1.355 . S
C1431 C1433 1.419 . S
C1432 C1430 1.415 . S
C1432 C1437 1.425 . S
C1432 C1439 1.409 . S
C1433 H1425 0.930 . S
C1433 C1431 1.419 . S
C1433 C1434 1.362 . S
C1434 H1426 0.930 . S
C1434 C1433 1.362 . S
C1434 C1437 1.409 . S
C1435 H1427 0.930 . S
C1435 C1436 1.355 . S
C1435 C1437 1.415 . S
C1436 C1435 1.355 . S
C1436 C1438 1.419 . S
C1437 C1432 1.425 . S
C1437 C1434 1.409 . S
C1437 C1435 1.415 . S
C1438 H1428 0.930 . S
C1438 C1436 1.419 . S
C1438 C1439 1.362 . S
C1439 H1429 0.930 . S
C1439 C1432 1.409 . S
C1439 C1438 1.362 . S
C1063 C929 1.627 . S
C1068 C57 1.603 . S
C1079 C117 1.511 . S
C1084 C1017 1.558 . S
C1095 C205 1.584 . S
C1100 C577 1.578 . S
C1111 C636 1.598 . S
C1116 C293 1.624 . S
C1127 C761 1.558 . S
C1132 C372 1.510 . S
C1143 C460 1.588 . S
C1148 C849 1.568 . S
C1159 C49 0.755 . S
C1164 C645 0.743 . S
C1175 C137 1.481 . S
C1180 C724 1.465 . S
C1191 C812 1.449 . S
C1196 C225 1.436 . S
C1207 C937 0.731 . S
C1212 C284 0.740 . S
C1223 C997 1.511 . S
C1228 C409 1.526 . S
C1239 C557 1.434 . S
C1244 C497 1.420 . S
C1255 C20 1.232 . S
C1260 C381 1.179 . S
C1271 C145 0.923 . S
C1276 C469 0.860 . S
C1287 C233 0.972 . S
C1292 C29 1.136 . S
C1303 C313 1.233 . S
C1308 C108 1.158 . S
C1319 C401 0.869 . S
C1324 C196 0.903 . S
C1335 C489 1.098 . S
C1340 C321 1.068 . S
C1351 C548 0.880 . S
C1356 C753 0.889 . S
C1367 C673 1.120 . S
C1372 C841 1.041 . S
C1383 C900 1.233 . S
C1388 C733 1.013 . S
C1399 C821 0.918 . S
C1404 C1025 0.858 . S
C1415 C909 1.083 . S
C1420 C585 1.121 . S
C1431 C988 1.125 . S
C1436 C665 1.218 . S
