# Generated by pormake.
# Topology zfn, (5)-cn, num edge types: 1
# Building blocks:
#     Node 0, Type 0, BuildingBlock: XOMCOT_clean_sbu_1, # of connection points: 5
#     Node 1, Type 0, BuildingBlock: XOMCOT_clean_sbu_1, # of connection points: 5
#     Node 2, Type 0, BuildingBlock: XOMCOT_clean_sbu_1, # of connection points: 5
#     Node 3, Type 0, BuildingBlock: XOMCOT_clean_sbu_1, # of connection points: 5
#     Node 4, Type 0, BuildingBlock: XOMCOT_clean_sbu_1, # of connection points: 5
#     Node 5, Type 0, BuildingBlock: XOMCOT_clean_sbu_1, # of connection points: 5
#     Node 6, Type 0, BuildingBlock: XOMCOT_clean_sbu_1, # of connection points: 5
#     Node 7, Type 0, BuildingBlock: XOMCOT_clean_sbu_1, # of connection points: 5
#     Node 8, Type 0, BuildingBlock: XOMCOT_clean_sbu_1, # of connection points: 5
#     Node 9, Type 0, BuildingBlock: XOMCOT_clean_sbu_1, # of connection points: 5
#     Node 10, Type 0, BuildingBlock: XOMCOT_clean_sbu_1, # of connection points: 5
#     Node 11, Type 0, BuildingBlock: XOMCOT_clean_sbu_1, # of connection points: 5
#     Node 12, Type 0, BuildingBlock: XOMCOT_clean_sbu_1, # of connection points: 5
#     Node 13, Type 0, BuildingBlock: XOMCOT_clean_sbu_1, # of connection points: 5
#     Node 14, Type 0, BuildingBlock: XOMCOT_clean_sbu_1, # of connection points: 5
#     Node 15, Type 0, BuildingBlock: XOMCOT_clean_sbu_1, # of connection points: 5
#     Edge 16, Type (0, 0), BuildingBlock: UVAHIK_clean_linker_0, # of connection points: 2
#     Edge 17, Type (0, 0), BuildingBlock: UVAHIK_clean_linker_0, # of connection points: 2
#     Edge 18, Type (0, 0), BuildingBlock: UVAHIK_clean_linker_0, # of connection points: 2
#     Edge 19, Type (0, 0), BuildingBlock: UVAHIK_clean_linker_0, # of connection points: 2
#     Edge 20, Type (0, 0), BuildingBlock: UVAHIK_clean_linker_0, # of connection points: 2
#     Edge 21, Type (0, 0), BuildingBlock: UVAHIK_clean_linker_0, # of connection points: 2
#     Edge 22, Type (0, 0), BuildingBlock: UVAHIK_clean_linker_0, # of connection points: 2
#     Edge 23, Type (0, 0), BuildingBlock: UVAHIK_clean_linker_0, # of connection points: 2
#     Edge 24, Type (0, 0), BuildingBlock: UVAHIK_clean_linker_0, # of connection points: 2
#     Edge 25, Type (0, 0), BuildingBlock: UVAHIK_clean_linker_0, # of connection points: 2
#     Edge 26, Type (0, 0), BuildingBlock: UVAHIK_clean_linker_0, # of connection points: 2
#     Edge 27, Type (0, 0), BuildingBlock: UVAHIK_clean_linker_0, # of connection points: 2
#     Edge 28, Type (0, 0), BuildingBlock: UVAHIK_clean_linker_0, # of connection points: 2
#     Edge 29, Type (0, 0), BuildingBlock: UVAHIK_clean_linker_0, # of connection points: 2
#     Edge 30, Type (0, 0), BuildingBlock: UVAHIK_clean_linker_0, # of connection points: 2
#     Edge 31, Type (0, 0), BuildingBlock: UVAHIK_clean_linker_0, # of connection points: 2
#     Edge 32, Type (0, 0), BuildingBlock: UVAHIK_clean_linker_0, # of connection points: 2
#     Edge 33, Type (0, 0), BuildingBlock: UVAHIK_clean_linker_0, # of connection points: 2
#     Edge 34, Type (0, 0), BuildingBlock: UVAHIK_clean_linker_0, # of connection points: 2
#     Edge 35, Type (0, 0), BuildingBlock: UVAHIK_clean_linker_0, # of connection points: 2
#     Edge 36, Type (0, 0), BuildingBlock: UVAHIK_clean_linker_0, # of connection points: 2
#     Edge 37, Type (0, 0), BuildingBlock: UVAHIK_clean_linker_0, # of connection points: 2
#     Edge 38, Type (0, 0), BuildingBlock: UVAHIK_clean_linker_0, # of connection points: 2
#     Edge 39, Type (0, 0), BuildingBlock: UVAHIK_clean_linker_0, # of connection points: 2
#     Edge 40, Type (0, 0), BuildingBlock: UVAHIK_clean_linker_0, # of connection points: 2
#     Edge 41, Type (0, 0), BuildingBlock: UVAHIK_clean_linker_0, # of connection points: 2
#     Edge 42, Type (0, 0), BuildingBlock: UVAHIK_clean_linker_0, # of connection points: 2
#     Edge 43, Type (0, 0), BuildingBlock: UVAHIK_clean_linker_0, # of connection points: 2
#     Edge 44, Type (0, 0), BuildingBlock: UVAHIK_clean_linker_0, # of connection points: 2
#     Edge 45, Type (0, 0), BuildingBlock: UVAHIK_clean_linker_0, # of connection points: 2
#     Edge 46, Type (0, 0), BuildingBlock: UVAHIK_clean_linker_0, # of connection points: 2
#     Edge 47, Type (0, 0), BuildingBlock: UVAHIK_clean_linker_0, # of connection points: 2
#     Edge 48, Type (0, 0), BuildingBlock: UVAHIK_clean_linker_0, # of connection points: 2
#     Edge 49, Type (0, 0), BuildingBlock: UVAHIK_clean_linker_0, # of connection points: 2
#     Edge 50, Type (0, 0), BuildingBlock: UVAHIK_clean_linker_0, # of connection points: 2
#     Edge 51, Type (0, 0), BuildingBlock: UVAHIK_clean_linker_0, # of connection points: 2
#     Edge 52, Type (0, 0), BuildingBlock: UVAHIK_clean_linker_0, # of connection points: 2
#     Edge 53, Type (0, 0), BuildingBlock: UVAHIK_clean_linker_0, # of connection points: 2
#     Edge 54, Type (0, 0), BuildingBlock: UVAHIK_clean_linker_0, # of connection points: 2
#     Edge 55, Type (0, 0), BuildingBlock: UVAHIK_clean_linker_0, # of connection points: 2
# Relax obj value: 0.119
# Max RMSD: 0.125
# Mean RMSD: 0.125
data_MOF--net-zfn--node1-XOMCOT_clean_sbu_1--edge1-UVAHIK_clean_linker_0
_symmetry_space_group_name_H-M    P1
_symmetry_Int_Tables_number       1
_symmetry_cell_setting            triclinic
loop_
_symmetry_equiv_pos_as_xyz
'x, y, z'
_cell_length_a     95.1557
_cell_length_b     95.170258
_cell_length_c     22.041229
_cell_angle_alpha  90.005483
_cell_angle_beta   89.994949
_cell_angle_gamma 90.001234
loop_
_atom_site_label
_atom_site_type_symbol
_atom_site_fract_x
_atom_site_fract_y
_atom_site_fract_z
_atom_type_partial_charge
C0 C 0.0019 0.34938 0.18617 0.0
C1 C 0.99944 0.34888 0.12463 0.0
N2 N 0.01147 0.35219 0.09557 0.0
N3 N 0.01539 0.35299 0.19597 0.0
C4 C 0.02097 0.35458 0.13997 0.0
H5 H 0.9943 0.34741 0.22167 0.0
Co6 Co 0.0234 0.35529 0.2723 0.0
C7 C 0.048 0.37378 0.25061 0.0
O8 O 0.04497 0.381 0.29976 0.0
N9 N 0.0315 0.35704 0.35048 0.0
C10 C 0.04717 0.35393 0.42437 0.0
C11 C 0.04502 0.35379 0.36286 0.0
C12 C 0.02556 0.35873 0.40597 0.0
N13 N 0.0349 0.35696 0.45166 0.0
O14 O 0.03139 0.33698 0.26663 0.0
H15 H 0.05277 0.35087 0.32926 0.0
H16 H 0.01447 0.36024 0.41347 0.0
O17 O 0.04027 0.36337 0.23531 0.0
C18 C 0.02364 0.32785 0.29227 0.0
O19 O 0.01178 0.33204 0.31688 0.0
N20 N 0.01437 0.37287 0.27781 0.0
C21 C 0.99637 0.39613 0.27887 0.0
C22 C 0.00814 0.39578 0.24055 0.0
C23 C 0.01679 0.38393 0.23956 0.0
C24 C 0.00268 0.37283 0.31354 0.0
C25 C 0.99372 0.38443 0.3158 0.0
H26 H 0.02489 0.38345 0.20546 0.0
H27 H -0.00023 0.36339 0.33758 0.0
H28 H 0.03182 0.35733 0.13173 0.0
H29 H 0.98949 0.34654 0.10311 0.0
H30 H 0.05697 0.35159 0.44716 0.0
H31 H 0.01043 0.40441 0.2101 0.0
H32 H 0.98438 0.3839 0.34377 0.0
C33 C 0.15463 0.99874 0.57527 0.0
C34 C 0.15518 0.99667 0.51364 0.0
N35 N 0.15475 0.00932 0.48608 0.0
N36 N 0.15379 0.01261 0.58673 0.0
C37 C 0.15396 0.01881 0.53164 0.0
H38 H 0.15471 0.99064 0.60968 0.0
Co39 Co 0.15252 0.02042 0.66371 0.0
C40 C 0.13283 0.0442 0.65056 0.0
O41 O 0.12663 0.04038 0.70126 0.0
N42 N 0.15178 0.02835 0.74222 0.0
C43 C 0.15482 0.0442 0.81558 0.0
C44 C 0.15506 0.0419 0.75414 0.0
C45 C 0.15008 0.02253 0.79784 0.0
N46 N 0.15172 0.03198 0.84305 0.0
O47 O 0.1703 0.02937 0.6529 0.0
H48 H 0.15782 0.04962 0.72017 0.0
H49 H 0.14803 0.01157 0.80587 0.0
O50 O 0.1432 0.03706 0.63022 0.0
C51 C 0.18131 0.0218 0.65211 0.0
O52 O 0.18003 0.00807 0.65472 0.0
N53 N 0.13532 0.01075 0.67406 0.0
C54 C 0.1121 0.99281 0.68226 0.0
C55 C 0.11201 0.00429 0.64242 0.0
C56 C 0.12382 0.01291 0.63792 0.0
C57 C 0.13586 0.99916 0.71036 0.0
C58 C 0.12427 0.99026 0.71639 0.0
H59 H 0.12388 0.02086 0.60308 0.0
H60 H 0.14561 0.99633 0.73221 0.0
H61 H 0.15363 0.03007 0.52521 0.0
H62 H 0.15556 0.98658 0.49106 0.0
H63 H 0.15734 0.05395 0.83836 0.0
H64 H 0.103 0.00642 0.61385 0.0
H65 H 0.12508 0.98109 0.74527 0.0
C66 C 0.49861 0.15088 0.14421 0.0
C67 C 0.50069 0.15111 0.08249 0.0
N68 N 0.4881 0.14972 0.05504 0.0
N69 N 0.48479 0.14934 0.15573 0.0
C70 C 0.47864 0.14869 0.10056 0.0
H71 H 0.50665 0.15183 0.17864 0.0
Co72 Co 0.47682 0.14889 0.23269 0.0
C73 C 0.45332 0.12881 0.22265 0.0
O74 O 0.45706 0.12328 0.27487 0.0
N75 N 0.46866 0.14896 0.31099 0.0
C76 C 0.45268 0.15313 0.38276 0.0
C77 C 0.45522 0.15289 0.32147 0.0
C78 C 0.47411 0.1471 0.36723 0.0
N79 N 0.46459 0.1495 0.41158 0.0
O80 O 0.46798 0.16655 0.21719 0.0
H81 H 0.44773 0.15565 0.28653 0.0
H82 H 0.48496 0.14466 0.37637 0.0
O83 O 0.46034 0.13905 0.20048 0.0
C84 C 0.47632 0.17693 0.22212 0.0
O85 O 0.48953 0.17455 0.23618 0.0
N86 N 0.48665 0.13201 0.24737 0.0
C87 C 0.50574 0.10986 0.26035 0.0
C88 C 0.49407 0.10859 0.22189 0.0
C89 C 0.48486 0.1199 0.21483 0.0
C90 C 0.49829 0.13361 0.28272 0.0
C91 C 0.50777 0.1226 0.29106 0.0
H92 H 0.47685 0.11911 0.18041 0.0
H93 H 0.50064 0.14377 0.30215 0.0
H94 H 0.46741 0.14779 0.09387 0.0
H95 H 0.51071 0.15207 0.05966 0.0
H96 H 0.44284 0.15587 0.40435 0.0
H97 H 0.49249 0.09922 0.19483 0.0
H98 H 0.51681 0.12422 0.32005 0.0
C99 C 0.34815 0.49095 0.62208 0.0
C100 C 0.34817 0.49311 0.56039 0.0
N101 N 0.34845 0.48048 0.53267 0.0
N102 N 0.34852 0.47703 0.63334 0.0
C103 C 0.34857 0.47092 0.57799 0.0
H104 H 0.34795 0.49901 0.65665 0.0
Co105 Co 0.34924 0.46889 0.71016 0.0
C106 C 0.3687 0.44474 0.69457 0.0
O107 O 0.37476 0.4476 0.74673 0.0
N108 N 0.3495 0.46061 0.78813 0.0
C109 C 0.34598 0.44456 0.8602 0.0
C110 C 0.34621 0.44702 0.79886 0.0
C111 C 0.35078 0.46626 0.84429 0.0
N112 N 0.34882 0.45671 0.88897 0.0
O113 O 0.3314 0.46019 0.69684 0.0
H114 H 0.34381 0.43936 0.76409 0.0
H115 H 0.35237 0.47728 0.85291 0.0
O116 O 0.35858 0.45242 0.6757 0.0
C117 C 0.32064 0.4681 0.69543 0.0
O118 O 0.32232 0.48178 0.69913 0.0
N119 N 0.3664 0.47837 0.72352 0.0
C120 C 0.38943 0.49635 0.73791 0.0
C121 C 0.39009 0.48489 0.69801 0.0
C122 C 0.37837 0.47623 0.69039 0.0
C123 C 0.36536 0.4899 0.75995 0.0
C124 C 0.37682 0.49882 0.76896 0.0
H125 H 0.3788 0.46831 0.65548 0.0
H126 H 0.35534 0.49265 0.7796 0.0
H127 H 0.34896 0.45967 0.57103 0.0
H128 H 0.34787 0.50319 0.53776 0.0
H129 H 0.34373 0.43459 0.88168 0.0
H130 H 0.39948 0.4828 0.67172 0.0
H131 H 0.37556 0.50797 0.79772 0.0
C132 C 0.00448 0.15302 0.35403 0.0
C133 C 0.00242 0.15298 0.41575 0.0
N134 N 0.01507 0.15225 0.44307 0.0
N135 N 0.01836 0.15227 0.34237 0.0
C136 C 0.02456 0.15185 0.39746 0.0
H137 H 0.99638 0.1536 0.3197 0.0
Co138 Co 0.02626 0.15243 0.26527 0.0
C139 C 0.05098 0.13385 0.27314 0.0
O140 O 0.04766 0.12854 0.21999 0.0
N141 N 0.03429 0.15315 0.18684 0.0
C142 C 0.04987 0.15854 0.11496 0.0
C143 C 0.04735 0.15819 0.17622 0.0
C144 C 0.02904 0.15069 0.13068 0.0
N145 N 0.03832 0.15383 0.08626 0.0
O146 O 0.03413 0.17049 0.28154 0.0
H147 H 0.0546 0.16158 0.21108 0.0
H148 H 0.01847 0.14723 0.12166 0.0
O149 O 0.04327 0.14343 0.29659 0.0
C150 C 0.02531 0.18049 0.27765 0.0
O151 O 0.01221 0.17755 0.26376 0.0
N152 N 0.01737 0.13505 0.25025 0.0
C153 C 0.99875 0.11234 0.24304 0.0
C154 C 0.01087 0.11155 0.27909 0.0
C155 C 0.01987 0.12311 0.28313 0.0
C156 C 0.00549 0.13606 0.21603 0.0
C157 C 0.99624 0.12476 0.21056 0.0
H158 H 0.02816 0.12271 0.31639 0.0
H159 H 0.00267 0.14604 0.19597 0.0
H160 H 0.03583 0.15156 0.40403 0.0
H161 H 0.99237 0.15333 0.43865 0.0
H162 H 0.05946 0.16204 0.0933 0.0
H163 H 0.0129 0.10245 0.30723 0.0
H164 H 0.98689 0.12598 0.18301 0.0
C165 C 0.3391 0.00086 0.9245 0.0
C166 C 0.33685 -0.00042 0.98591 0.0
N167 N 0.33866 0.01229 0.01184 0.0
N168 N 0.34229 0.0143 0.91132 0.0
C169 C 0.34188 0.02103 0.9654 0.0
H170 H 0.33884 0.99242 0.89161 0.0
Co171 Co 0.3475 0.02067 0.83413 0.0
C172 C 0.35596 0.04985 0.85815 0.0
O173 O 0.3487 0.05431 0.81131 0.0
N174 N 0.35283 0.02671 0.75652 0.0
C175 C 0.36567 0.03441 0.67922 0.0
C176 C 0.36533 0.03235 0.74085 0.0
C177 C 0.34585 0.0252 0.70342 0.0
N178 N 0.35342 0.0299 0.65548 0.0
O179 O 0.3303 0.03091 0.8273 0.0
H180 H 0.37382 0.03449 0.77213 0.0
H181 H 0.3355 0.02056 0.70002 0.0
O182 O 0.35652 0.0368 0.87086 0.0
C183 C 0.31933 0.02347 0.81995 0.0
O184 O 0.3205 0.00972 0.8189 0.0
N185 N 0.36382 0.00997 0.83898 0.0
C186 C 0.38652 0.99152 0.83605 0.0
C187 C 0.38669 0.00331 0.87447 0.0
C188 C 0.37512 0.0124 0.87568 0.0
C189 C 0.36343 0.99854 0.80197 0.0
C190 C 0.37467 0.98922 0.79957 0.0
H191 H 0.37524 0.02126 0.9063 0.0
H192 H 0.35428 0.99673 0.77388 0.0
H193 H 0.34406 0.0321 0.97077 0.0
H194 H 0.33464 0.9899 0.0098 0.0
H195 H 0.37452 0.03841 0.65363 0.0
H196 H 0.39557 0.00534 0.90395 0.0
H197 H 0.37414 0.98037 0.76876 0.0
C198 C 0.49725 0.34519 0.32633 0.0
C199 C 0.49967 0.34467 0.38788 0.0
N200 N 0.48765 0.34802 0.41686 0.0
N201 N 0.48377 0.34885 0.31643 0.0
C202 C 0.47817 0.35045 0.37239 0.0
H203 H 0.50485 0.34318 0.29088 0.0
Co204 Co 0.47578 0.35116 0.24009 0.0
C205 C 0.45152 0.3701 0.26139 0.0
O206 O 0.45471 0.37722 0.21215 0.0
N207 N 0.46766 0.35295 0.16191 0.0
C208 C 0.45189 0.35 0.08824 0.0
C209 C 0.45409 0.34985 0.14973 0.0
C210 C 0.47356 0.35457 0.10632 0.0
N211 N 0.46418 0.3529 0.06077 0.0
O212 O 0.46753 0.33295 0.24617 0.0
H213 H 0.44633 0.34704 0.18347 0.0
H214 H 0.48466 0.35597 0.0986 0.0
O215 O 0.45905 0.35957 0.27697 0.0
C216 C 0.47526 0.32385 0.22023 0.0
O217 O 0.48713 0.32807 0.19574 0.0
N218 N 0.48509 0.36858 0.234 0.0
C219 C 0.50354 0.39145 0.23065 0.0
C220 C 0.49184 0.39152 0.26935 0.0
C221 C 0.48294 0.37984 0.27147 0.0
C222 C 0.49674 0.36814 0.19813 0.0
C223 C 0.5059 0.37954 0.19464 0.0
H224 H 0.47488 0.37963 0.30583 0.0
H225 H 0.49939 0.35856 0.17456 0.0
H226 H 0.46732 0.35323 0.38055 0.0
H227 H 0.5096 0.34228 0.40948 0.0
H228 H 0.44205 0.34777 0.06559 0.0
H229 H 0.48999 0.4002 0.30013 0.0
H230 H 0.51498 0.37885 0.16514 0.0
C231 C 0.15184 0.49318 0.88319 0.0
C232 C 0.15195 0.49529 0.94492 0.0
N233 N 0.15139 0.48267 0.97249 0.0
N234 N 0.15111 0.47928 0.87176 0.0
C235 C 0.15097 0.47314 0.92704 0.0
H236 H 0.15219 0.50125 0.84872 0.0
Co237 Co 0.15009 0.47114 0.79496 0.0
C238 C 0.12991 0.44758 0.81156 0.0
O239 O 0.12376 0.45054 0.75969 0.0
N240 N 0.14952 0.46281 0.71706 0.0
C241 C 0.15248 0.4466 0.6452 0.0
C242 C 0.15228 0.4491 0.70651 0.0
C243 C 0.14852 0.46848 0.66082 0.0
N244 N 0.15015 0.45883 0.61625 0.0
O245 O 0.16767 0.4619 0.80814 0.0
H246 H 0.15437 0.44138 0.74137 0.0
H247 H 0.14738 0.47955 0.65207 0.0
O248 O 0.14029 0.455 0.82973 0.0
C249 C 0.17863 0.46955 0.80926 0.0
O250 O 0.17729 0.48325 0.80536 0.0
N251 N 0.13324 0.48114 0.78162 0.0
C252 C 0.11095 0.50001 0.76675 0.0
C253 C 0.10978 0.48857 0.80654 0.0
C254 C 0.12115 0.47945 0.81442 0.0
C255 C 0.13477 0.4926 0.7452 0.0
C256 C 0.12369 0.50196 0.73591 0.0
H257 H 0.1204 0.47157 0.8494 0.0
H258 H 0.1449 0.49492 0.72552 0.0
H259 H 0.15032 0.4619 0.93387 0.0
H260 H 0.15253 0.50535 0.96766 0.0
H261 H 0.15437 0.43654 0.62385 0.0
H262 H 0.10041 0.48705 0.83366 0.0
H263 H 0.12525 0.51082 0.70581 0.0
C264 C 0.99689 0.65272 0.84038 0.0
C265 C 0.99929 0.65324 0.90194 0.0
N266 N 0.98728 0.6498 0.93084 0.0
N267 N 0.98345 0.64896 0.8304 0.0
C268 C 0.97784 0.64731 0.88631 0.0
H269 H 0.00448 0.65481 0.80499 0.0
Co270 Co 0.97546 0.6467 0.75403 0.0
C271 C 0.95151 0.62734 0.77447 0.0
O272 O 0.95479 0.62036 0.72499 0.0
N273 N 0.96734 0.64496 0.67583 0.0
C274 C 0.95151 0.64778 0.60232 0.0
C275 C 0.95373 0.64793 0.6638 0.0
C276 C 0.97323 0.6434 0.62018 0.0
N277 N 0.96381 0.64499 0.57473 0.0
O278 O 0.96688 0.66473 0.76115 0.0
H279 H 0.94596 0.65063 0.69765 0.0
H280 H 0.98433 0.64206 0.61236 0.0
O281 O 0.95891 0.63791 0.79055 0.0
C282 C 0.97436 0.67406 0.7354 0.0
O283 O 0.98627 0.67016 0.71028 0.0
N284 N 0.98509 0.62948 0.74695 0.0
C285 C 0.00389 0.60692 0.74152 0.0
C286 C 0.99221 0.6065 0.78031 0.0
C287 C 0.98313 0.61803 0.78349 0.0
C288 C 0.99673 0.63028 0.71116 0.0
C289 C 0.00607 0.61904 0.70661 0.0
H290 H 0.97506 0.61795 0.81782 0.0
H291 H 0.99921 0.64001 0.68834 0.0
H292 H 0.967 0.64447 0.89438 0.0
H293 H 0.00919 0.65571 0.92361 0.0
H294 H 0.94164 0.64991 0.57976 0.0
H295 H 0.9905 0.59764 0.8103 0.0
H296 H 0.01511 0.62001 0.67706 0.0
C297 C 0.8431 0.00075 0.40387 0.0
C298 C 0.84111 0.00228 0.46535 0.0
N299 N 0.84241 0.98956 0.49182 0.0
N300 N 0.84563 0.98714 0.39123 0.0
C301 C 0.84508 0.98056 0.44565 0.0
H302 H 0.84306 0.00908 0.37052 0.0
Co303 Co 0.85007 0.98019 0.31414 0.0
C304 C 0.85692 0.95095 0.34477 0.0
O305 O 0.84766 0.94649 0.30495 0.0
N306 N 0.85462 0.97346 0.23678 0.0
C307 C 0.86655 0.96442 0.1595 0.0
C308 C 0.86645 0.96654 0.2211 0.0
C309 C 0.84779 0.97563 0.18375 0.0
N310 N 0.85482 0.97015 0.13578 0.0
O311 O 0.83254 0.97044 0.31106 0.0
H312 H 0.87475 0.96366 0.25219 0.0
H313 H 0.83798 0.98134 0.18042 0.0
O314 O 0.85903 0.96409 0.35146 0.0
C315 C 0.8216 0.97797 0.30461 0.0
O316 O 0.82291 0.9917 0.30207 0.0
N317 N 0.86669 0.9905 0.3152 0.0
C318 C 0.88953 0.00874 0.30884 0.0
C319 C 0.88972 0.9972 0.3486 0.0
C320 C 0.87809 0.98821 0.35151 0.0
C321 C 0.86632 0.00163 0.27654 0.0
C322 C 0.87763 0.01084 0.2724 0.0
H323 H 0.87818 0.97962 0.38348 0.0
H324 H 0.85709 0.00337 0.24887 0.0
H325 H 0.84672 0.9694 0.4514 0.0
H326 H 0.83936 0.01211 0.48883 0.0
H327 H 0.87495 0.95957 0.13389 0.0
H328 H 0.89863 0.99533 0.3781 0.0
H329 H 0.87708 0.01951 0.24063 0.0
C330 C 0.50205 0.84737 0.86917 0.0
C331 C 0.49992 0.84731 0.93087 0.0
N332 N 0.51251 0.84836 0.95849 0.0
N333 N 0.51592 0.84847 0.85784 0.0
C334 C 0.52204 0.84901 0.9131 0.0
H335 H 0.49401 0.84666 0.83463 0.0
Co336 Co 0.52391 0.84879 0.78087 0.0
C337 C 0.54865 0.86733 0.79211 0.0
O338 O 0.54547 0.87305 0.73959 0.0
N339 N 0.53202 0.84856 0.70252 0.0
C340 C 0.54765 0.84359 0.63032 0.0
C341 C 0.54517 0.84382 0.69163 0.0
C342 C 0.52665 0.85093 0.64647 0.0
N343 N 0.53597 0.84803 0.60185 0.0
O344 O 0.53172 0.83062 0.79507 0.0
H345 H 0.55249 0.84048 0.7263 0.0
H346 H 0.51597 0.85407 0.63769 0.0
O347 O 0.54089 0.85757 0.81371 0.0
C348 C 0.52284 0.82076 0.78799 0.0
O349 O 0.5099 0.824 0.77254 0.0
N350 N 0.51505 0.86625 0.76771 0.0
C351 C 0.49636 0.88892 0.76277 0.0
C352 C 0.50846 0.88956 0.79894 0.0
C353 C 0.5175 0.87801 0.80185 0.0
C354 C 0.5032 0.86539 0.73326 0.0
C355 C 0.4939 0.87668 0.72894 0.0
H356 H 0.52576 0.87824 0.83526 0.0
H357 H 0.5004 0.85552 0.71226 0.0
H358 H 0.53328 0.84963 0.91996 0.0
H359 H 0.48985 0.84673 0.95353 0.0
H360 H 0.55728 0.84028 0.60848 0.0
H361 H 0.51044 0.89851 0.82805 0.0
H362 H 0.48456 0.87558 0.70129 0.0
C363 C 0.64996 0.50616 0.39228 0.0
C364 C 0.65002 0.50407 0.45403 0.0
N365 N 0.64948 0.51672 0.48148 0.0
N366 N 0.64928 0.52005 0.38073 0.0
C367 C 0.64913 0.52622 0.43595 0.0
H368 H 0.65032 0.49806 0.3579 0.0
Co369 Co 0.64841 0.52818 0.30388 0.0
C370 C 0.62818 0.55171 0.31961 0.0
O371 O 0.6221 0.5487 0.26764 0.0
N372 N 0.64797 0.53651 0.22597 0.0
C373 C 0.65102 0.55273 0.15424 0.0
C374 C 0.6508 0.55021 0.21554 0.0
C375 C 0.64695 0.53086 0.16968 0.0
N376 N 0.64863 0.54052 0.1252 0.0
O377 O 0.66595 0.53744 0.31769 0.0
H378 H 0.65289 0.55791 0.25048 0.0
H379 H 0.64573 0.51981 0.16082 0.0
O380 O 0.63852 0.54431 0.33822 0.0
C381 C 0.67689 0.52978 0.31922 0.0
O382 O 0.67554 0.51607 0.31545 0.0
N383 N 0.63163 0.51814 0.28985 0.0
C384 C 0.60949 0.49915 0.27355 0.0
C385 C 0.60811 0.5106 0.31321 0.0
C386 C 0.61941 0.51978 0.32181 0.0
C387 C 0.63335 0.50667 0.25363 0.0
C388 C 0.62236 0.49726 0.2436 0.0
H389 H 0.61849 0.52769 0.3566 0.0
H390 H 0.64356 0.50441 0.2346 0.0
H391 H 0.64853 0.53747 0.44267 0.0
H392 H 0.65056 0.49402 0.47688 0.0
H393 H 0.65294 0.56279 0.13297 0.0
H394 H 0.59863 0.51208 0.33963 0.0
H395 H 0.62407 0.48842 0.21357 0.0
C396 C 0.99552 0.84287 0.62112 0.0
C397 C 0.99741 0.8416 0.55948 0.0
N398 N 0.98472 0.84212 0.53253 0.0
N399 N 0.98171 0.84437 0.63313 0.0
C400 C 0.97535 0.84369 0.57817 0.0
H401 H 0.00373 0.84331 0.65498 0.0
Co402 Co 0.97456 0.84875 0.71002 0.0
C403 C 0.94512 0.85533 0.6791 0.0
O404 O 0.94043 0.8463 0.71942 0.0
N405 N 0.96766 0.85328 0.7874 0.0
C406 C 0.9599 0.86616 0.86457 0.0
C407 C 0.96115 0.86539 0.80258 0.0
C408 C 0.97021 0.84682 0.84107 0.0
N409 N 0.96559 0.8545 0.88873 0.0
O410 O 0.96547 0.83089 0.71318 0.0
H411 H 0.95825 0.87355 0.77084 0.0
H412 H 0.97617 0.83719 0.84539 0.0
O413 O 0.95829 0.85714 0.67247 0.0
C414 C 0.97394 0.82097 0.72578 0.0
O415 O 0.98716 0.82409 0.73661 0.0
N416 N 0.9843 0.86577 0.70791 0.0
C417 C 0.00198 0.88913 0.70673 0.0
C418 C 0.99068 0.88812 0.66595 0.0
C419 C 0.98199 0.87628 0.66698 0.0
C420 C 0.99516 0.86657 0.74794 0.0
C421 C 0.00409 0.87818 0.74837 0.0
H422 H 0.9737 0.87543 0.63378 0.0
H423 H 0.99708 0.85795 0.77886 0.0
H424 H 0.96418 0.84506 0.57126 0.0
H425 H 0.00737 0.84071 0.53607 0.0
H426 H 0.95564 0.87489 0.89019 0.0
H427 H 0.98863 0.89633 0.6331 0.0
H428 H 0.01285 0.87832 0.77973 0.0
C429 C 0.6532 0.9978 0.10442 0.0
C430 C 0.65295 -0.00019 0.04267 0.0
N431 N 0.65266 0.98712 0.01558 0.0
N432 N 0.65297 0.98391 0.11632 0.0
C433 C 0.65276 0.97765 0.0613 0.0
H434 H 0.65357 0.00595 0.13856 0.0
Co435 Co 0.65293 0.9759 0.19337 0.0
C436 C 0.63289 0.95217 0.18363 0.0
O437 O 0.62747 0.95546 0.23663 0.0
N438 N 0.65333 0.96771 0.27153 0.0
C439 C 0.65723 0.95163 0.34311 0.0
C440 C 0.65684 0.95416 0.28184 0.0
C441 C 0.65202 0.97327 0.32784 0.0
N442 N 0.6542 0.96369 0.3722 0.0
O443 O 0.6704 0.9668 0.1766 0.0
H444 H 0.65916 0.94655 0.24677 0.0
H445 H 0.6501 0.98422 0.33683 0.0
O446 O 0.64289 0.95956 0.16164 0.0
C447 C 0.6813 0.97446 0.17188 0.0
O448 O 0.67995 0.98819 0.17445 0.0
N449 N 0.63617 0.98579 0.21004 0.0
C450 C 0.61392 0.00446 0.22937 0.0
C451 C 0.61235 0.99291 0.19043 0.0
C452 C 0.62371 0.98389 0.18024 0.0
C453 C 0.63805 0.99738 0.24539 0.0
C454 C 0.62702 0.00665 0.2569 0.0
H455 H 0.62259 0.97589 0.14595 0.0
H456 H 0.6484 -0.0002 0.26273 0.0
H457 H 0.65252 0.96638 0.05489 0.0
H458 H 0.65317 0.00984 0.01954 0.0
H459 H 0.6596 0.94166 0.36435 0.0
H460 H 0.60266 0.99122 0.16575 0.0
H461 H 0.62885 0.01559 0.28621 0.0
C462 C 0.49997 0.6505 0.68749 0.0
C463 C 0.49753 0.65093 0.62595 0.0
N464 N 0.50968 0.64808 0.59697 0.0
N465 N 0.51359 0.64741 0.69736 0.0
C466 C 0.51925 0.64605 0.64141 0.0
H467 H 0.49229 0.65218 0.72294 0.0
Co468 Co 0.52162 0.6454 0.77374 0.0
C469 C 0.54663 0.62745 0.75323 0.0
O470 O 0.54367 0.62035 0.80281 0.0
N471 N 0.52972 0.64395 0.85199 0.0
C472 C 0.54529 0.64762 0.92585 0.0
C473 C 0.54313 0.64767 0.86435 0.0
C474 C 0.52385 0.64207 0.90747 0.0
N475 N 0.53312 0.64417 0.95315 0.0
O476 O 0.52917 0.6639 0.76774 0.0
H477 H 0.55078 0.65083 0.83072 0.0
H478 H 0.51282 0.64017 0.91499 0.0
O479 O 0.53872 0.63765 0.73711 0.0
C480 C 0.52109 0.67289 0.79235 0.0
O481 O 0.50922 0.66847 0.81612 0.0
N482 N 0.51303 0.62758 0.77949 0.0
C483 C 0.49565 0.60386 0.78003 0.0
C484 C 0.50743 0.60454 0.74191 0.0
C485 C 0.51575 0.61661 0.74114 0.0
C486 C 0.50133 0.62729 0.81514 0.0
C487 C 0.49267 0.61545 0.81712 0.0
H488 H 0.52384 0.61733 0.70706 0.0
H489 H 0.49816 0.63664 0.83927 0.0
H490 H 0.5302 0.6437 0.63325 0.0
H491 H 0.4875 0.65288 0.60437 0.0
H492 H 0.555 0.65029 0.94864 0.0
H493 H 0.50998 0.59599 0.71139 0.0
H494 H 0.4833 0.61572 0.84497 0.0
C495 C 0.84601 0.50654 0.12737 0.0
C496 C 0.84596 0.5044 0.06567 0.0
N497 N 0.84626 0.51703 0.03805 0.0
N498 N 0.84642 0.52044 0.13871 0.0
C499 C 0.84644 0.52658 0.08342 0.0
H500 H 0.84582 0.49847 0.1619 0.0
Co501 Co 0.84722 0.52855 0.21555 0.0
C502 C 0.86683 0.55255 0.2005 0.0
O503 O 0.87282 0.54954 0.25264 0.0
N504 N 0.84753 0.53679 0.29359 0.0
C505 C 0.84401 0.55284 0.36562 0.0
C506 C 0.84431 0.5504 0.30429 0.0
C507 C 0.84868 0.53111 0.34974 0.0
N508 N 0.84672 0.54067 0.39441 0.0
O509 O 0.82942 0.53734 0.20245 0.0
H510 H 0.84199 0.55807 0.26952 0.0
H511 H 0.85016 0.52008 0.35835 0.0
O512 O 0.85664 0.54501 0.18125 0.0
C513 C 0.81858 0.52954 0.20096 0.0
O514 O 0.82012 0.51584 0.20428 0.0
N515 N 0.86438 0.519 0.2286 0.0
C516 C 0.88747 0.50107 0.24194 0.0
C517 C 0.88799 0.51249 0.2018 0.0
C518 C 0.87623 0.5211 0.19469 0.0
C519 C 0.86347 0.50751 0.26531 0.0
C520 C 0.87496 0.49861 0.27381 0.0
H521 H 0.87654 0.52897 0.15955 0.0
H522 H 0.85351 0.50475 0.28553 0.0
H523 H 0.84685 0.53783 0.07654 0.0
H524 H 0.84561 0.49432 0.04297 0.0
H525 H 0.84179 0.56282 0.38708 0.0
H526 H 0.89729 0.51457 0.17492 0.0
H527 H 0.87382 0.48949 0.3028 0.0
C528 C 0.98257 0.41415 0.2208 0.0
C529 C 0.98626 0.40803 0.27664 0.0
C530 C 0.97247 0.42478 0.21806 0.0
C531 C 0.95358 0.45112 0.31109 0.0
H532 H 0.9263 0.44924 0.18062 0.0
C533 C 0.90339 0.4856 0.30384 0.0
C534 C 0.8995 0.49118 0.2472 0.0
C535 C 0.91438 0.4759 0.30829 0.0
C536 C 0.93393 0.45002 0.21692 0.0
H537 H 0.98243 0.40856 0.37361 0.0
H538 H 0.96459 0.42695 0.3687 0.0
H539 H 0.94478 0.43162 0.18689 0.0
H540 H 0.90411 0.49088 0.15079 0.0
H541 H 0.92341 0.47418 0.15873 0.0
H542 H 0.9426 0.46949 0.34128 0.0
C543 C 0.96963 0.42361 0.32707 0.0
C544 C 0.94454 0.43992 0.22051 0.0
C545 C 0.97975 0.41297 0.32982 0.0
C546 C 0.90694 0.48693 0.19523 0.0
C547 C 0.9179 0.47722 0.19966 0.0
C548 C 0.94294 0.46122 0.30754 0.0
C549 C 0.96576 0.42954 0.27105 0.0
C550 C 0.95452 0.44036 0.26751 0.0
C551 C 0.92169 0.47152 0.25616 0.0
C552 C 0.93301 0.46081 0.2603 0.0
H553 H 0.98721 0.41049 0.17882 0.0
H554 H 0.96988 0.42924 0.17426 0.0
H555 H 0.96119 0.45185 0.34747 0.0
H556 H 0.89792 0.48874 0.34477 0.0
H557 H 0.91697 0.47161 0.35242 0.0
C558 C 0.0953 0.97765 0.74094 0.0
C559 C 0.09998 0.98301 0.68506 0.0
C560 C 0.08407 0.96818 0.74324 0.0
C561 C 0.06516 0.94238 0.64954 0.0
H562 H 0.03613 0.94572 0.77218 0.0
C563 C 0.01637 0.90659 0.64798 0.0
C564 C 0.01195 0.90115 0.70414 0.0
C565 C 0.02645 0.91726 0.64538 0.0
C566 C 0.04423 0.94456 0.73801 0.0
H567 H 0.09661 0.98253 0.58772 0.0
H568 H 0.07694 0.96616 0.59184 0.0
H569 H 0.05515 0.96293 0.76866 0.0
H570 H 0.01432 0.90304 0.80169 0.0
H571 H 0.03215 0.92138 0.79711 0.0
H572 H 0.05442 0.92393 0.61932 0.0
C573 C 0.08198 0.96923 0.63386 0.0
C574 C 0.05511 0.95442 0.736 0.0
C575 C 0.09315 0.97873 0.63157 0.0
C576 C 0.01762 0.90687 0.75765 0.0
C577 C 0.02772 0.9175 0.75505 0.0
C578 C 0.05432 0.9325 0.65167 0.0
C579 C 0.07734 0.96381 0.68967 0.0
C580 C 0.0657 0.95343 0.69174 0.0
C581 C 0.03239 0.92271 0.69885 0.0
C582 C 0.04372 0.93346 0.69594 0.0
H583 H 0.1003 0.98081 0.78293 0.0
H584 H 0.08082 0.96409 0.78689 0.0
H585 H 0.07328 0.94119 0.6155 0.0
H586 H 0.01234 0.90235 0.60584 0.0
H587 H 0.02965 0.92116 0.60136 0.0
C588 C 0.60504 0.02919 0.23977 0.0
C589 C 0.60226 0.01468 0.23806 0.0
C590 C 0.59413 0.03885 0.2471 0.0
C591 C 0.55601 0.04308 0.22661 0.0
H592 H 0.56141 0.07568 0.32964 0.0
C593 C 0.51214 0.08424 0.26649 0.0
C594 C 0.51633 0.09841 0.26437 0.0
C595 C 0.52217 0.0735 0.26783 0.0
C596 C 0.55977 0.06668 0.30035 0.0
H597 H 0.5858 0.99897 0.2432 0.0
H598 H 0.5667 0.01589 0.25574 0.0
H599 H 0.57974 0.05785 0.32345 0.0
H600 H 0.53436 0.11234 0.26111 0.0
H601 H 0.55178 0.09367 0.26359 0.0
H602 H 0.53612 0.05204 0.20281 0.0
C603 C 0.57734 0.01976 0.25092 0.0
C604 C 0.57027 0.05647 0.29682 0.0
C605 C 0.58828 0.01008 0.24372 0.0
C606 C 0.53076 0.10157 0.26405 0.0
C607 C 0.54076 0.09085 0.26541 0.0
C608 C 0.54549 0.05332 0.23009 0.0
C609 C 0.58016 0.03426 0.25273 0.0
C610 C 0.5686 0.04464 0.25931 0.0
C611 C 0.5366 0.07668 0.26707 0.0
C612 C 0.54733 0.06533 0.26641 0.0
H613 H 0.61564 0.03314 0.23419 0.0
H614 H 0.59663 0.04995 0.24708 0.0
H615 H 0.55446 0.03417 0.1968 0.0
H616 H 0.5011 0.08147 0.26737 0.0
H617 H 0.51862 0.06269 0.26982 0.0
C618 C 0.40895 0.51058 0.69213 0.0
C619 C 0.4014 0.50629 0.74373 0.0
C620 C 0.41973 0.52048 0.69701 0.0
C621 C 0.44407 0.5372 0.80594 0.0
H622 H 0.44535 0.56684 0.68536 0.0
C623 C 0.47936 0.58654 0.83016 0.0
C624 C 0.48584 0.5917 0.7773 0.0
C625 C 0.46956 0.57561 0.82689 0.0
C626 C 0.44527 0.55854 0.71896 0.0
H627 H 0.3995 0.50878 0.84117 0.0
H628 H 0.41825 0.52621 0.84961 0.0
H629 H 0.42745 0.54866 0.6781 0.0
H630 H 0.48706 0.58932 0.67948 0.0
H631 H 0.47033 0.57006 0.67406 0.0
H632 H 0.46191 0.54714 0.84686 0.0
C633 C 0.41587 0.52183 0.80542 0.0
C634 C 0.435 0.54811 0.7148 0.0
C635 C 0.40505 0.51196 0.80051 0.0
C636 C 0.48244 0.5855 0.72125 0.0
C637 C 0.47268 0.57458 0.71801 0.0
C638 C 0.45438 0.54764 0.81005 0.0
C639 C 0.42324 0.52631 0.75361 0.0
C640 C 0.43428 0.53731 0.75817 0.0
C641 C 0.46601 0.56959 0.77067 0.0
C642 C 0.45512 0.55842 0.76653 0.0
H643 H 0.4063 0.50656 0.6476 0.0
H644 H 0.42531 0.52359 0.65633 0.0
H645 H 0.44388 0.52894 0.83971 0.0
H646 H 0.48182 0.591 0.8741 0.0
H647 H 0.46454 0.57209 0.86828 0.0
C648 C 0.91546 0.01388 0.30354 0.0
C649 C 0.9015 0.01872 0.30528 0.0
C650 C 0.92659 0.02334 0.29578 0.0
C651 C 0.93379 0.05894 0.2366 0.0
H652 H 0.96859 0.05603 0.32715 0.0
C653 C 0.97372 0.10412 0.24707 0.0
C654 C 0.98812 0.10087 0.24443 0.0
C655 C 0.96369 0.09348 0.25161 0.0
C656 C 0.95901 0.05686 0.3009 0.0
H657 H 0.88835 0.03733 0.30367 0.0
H658 H 0.90768 0.05377 0.2905 0.0
H659 H 0.95009 0.03857 0.34261 0.0
H660 H 0.00323 0.08381 0.24372 0.0
H661 H 0.98565 0.06517 0.25189 0.0
H662 H 0.94259 0.07728 0.19535 0.0
C663 C 0.91004 0.04266 0.29348 0.0
C664 C 0.94841 0.04687 0.30981 0.0
C665 C 0.89896 0.03323 0.30114 0.0
C666 C 0.99223 0.08668 0.24614 0.0
C667 C 0.98217 0.076 0.2509 0.0
C668 C 0.94435 0.06891 0.22776 0.0
C669 C 0.92397 0.03782 0.2897 0.0
C670 C 0.93559 0.04793 0.27837 0.0
C671 C 0.96779 0.0793 0.25384 0.0
C672 C 0.95701 0.0681 0.26039 0.0
H673 H 0.91774 0.00275 0.30624 0.0
H674 H 0.9372 0.01928 0.29277 0.0
H675 H 0.92417 0.05988 0.2106 0.0
H676 H 0.97016 0.11493 0.24742 0.0
H677 H 0.95271 0.09639 0.25496 0.0
C678 C 0.47129 0.89691 0.76843 0.0
C679 C 0.48566 0.90029 0.76551 0.0
C680 C 0.46119 0.90745 0.77423 0.0
C681 C 0.45633 0.94388 0.82608 0.0
H682 H 0.42124 0.94076 0.73766 0.0
C683 C 0.41247 0.98656 0.83085 0.0
C684 C 0.39856 0.98161 0.83328 0.0
C685 C 0.42366 0.97716 0.82297 0.0
C686 C 0.43093 0.94172 0.76313 0.0
H687 H 0.50064 0.91746 0.76572 0.0
H688 H 0.48291 0.93593 0.7759 0.0
H689 H 0.43977 0.92358 0.72048 0.0
H690 H 0.38555 0.9629 0.83301 0.0
H691 H 0.40498 0.94658 0.81954 0.0
H692 H 0.44738 0.96202 0.86901 0.0
C693 C 0.47952 0.92508 0.7742 0.0
C694 C 0.44156 0.93188 0.75321 0.0
C695 C 0.48966 0.91451 0.76827 0.0
C696 C 0.39612 0.96707 0.82996 0.0
C697 C 0.40725 0.95772 0.82213 0.0
C698 C 0.44567 0.95376 0.83601 0.0
C699 C 0.46517 0.92165 0.77741 0.0
C700 C 0.45431 0.93272 0.78515 0.0
C701 C 0.42112 0.96266 0.81742 0.0
C702 C 0.43277 0.95265 0.80525 0.0
H703 H 0.46783 0.88607 0.768 0.0
H704 H 0.45024 0.90442 0.77778 0.0
H705 H 0.46599 0.94475 0.85183 0.0
H706 H 0.41468 0.99771 0.83287 0.0
H707 H 0.43422 0.9813 0.81926 0.0
C708 C 0.58383 0.49307 0.2635 0.0
C709 C 0.59795 0.48873 0.2664 0.0
C710 C 0.57304 0.48319 0.25687 0.0
C711 C 0.56652 0.44682 0.20562 0.0
H712 H 0.53283 0.44937 0.30402 0.0
C713 C 0.52831 0.40045 0.2303 0.0
C714 C 0.5138 0.40323 0.2313 0.0
C715 C 0.53803 0.41142 0.23186 0.0
C716 C 0.54208 0.44862 0.27556 0.0
H717 H 0.61171 0.47054 0.26653 0.0
H718 H 0.59297 0.45341 0.25446 0.0
H719 H 0.55079 0.46764 0.31165 0.0
H720 H 0.49814 0.41976 0.23451 0.0
H721 H 0.51518 0.43899 0.23703 0.0
H722 H 0.55792 0.4278 0.16974 0.0
C723 C 0.59024 0.46446 0.25615 0.0
C724 C 0.55237 0.45908 0.27997 0.0
C725 C 0.601 0.4743 0.26296 0.0
C726 C 0.50925 0.41727 0.23413 0.0
C727 C 0.519 0.42828 0.23565 0.0
C728 C 0.55624 0.4364 0.2011 0.0
C729 C 0.57614 0.46877 0.25284 0.0
C730 C 0.56479 0.45818 0.24565 0.0
C731 C 0.53352 0.42547 0.23444 0.0
C732 C 0.54399 0.43706 0.23663 0.0
H733 H 0.58113 0.50411 0.26549 0.0
H734 H 0.56228 0.48685 0.25397 0.0
H735 H 0.57585 0.44597 0.17769 0.0
H736 H 0.53219 0.38975 0.22957 0.0
H737 H 0.54912 0.40886 0.2322 0.0
C738 C 0.0099 0.58116 0.74228 0.0
C739 C 0.01429 0.59526 0.7407 0.0
C740 C 0.01978 0.57026 0.74203 0.0
C741 C 0.05693 0.56273 0.70382 0.0
H742 H 0.05229 0.53085 0.81154 0.0
C743 C 0.10229 0.52483 0.75747 0.0
C744 C 0.09934 0.51037 0.7606 0.0
C745 C 0.09144 0.53463 0.75227 0.0
C746 C 0.05364 0.53959 0.78061 0.0
H747 H 0.03253 0.60895 0.73946 0.0
H748 H 0.04967 0.59002 0.73894 0.0
H749 H 0.03414 0.54897 0.80741 0.0
H750 H 0.0826 0.4949 0.7605 0.0
H751 H 0.06361 0.51207 0.75165 0.0
H752 H 0.07649 0.55347 0.67756 0.0
C753 C 0.03861 0.58734 0.739 0.0
C754 C 0.04324 0.54997 0.77822 0.0
C755 C 0.02876 0.59821 0.73925 0.0
C756 C 0.08523 0.50596 0.75874 0.0
C757 C 0.07435 0.51579 0.75367 0.0
C758 C 0.06731 0.55238 0.70626 0.0
C759 C 0.03425 0.57323 0.74024 0.0
C760 C 0.04486 0.56175 0.74035 0.0
C761 C 0.07735 0.53024 0.75024 0.0
C762 C 0.06588 0.54078 0.74523 0.0
H763 H 0.99883 0.57854 0.74294 0.0
H764 H 0.01608 0.5595 0.74244 0.0
H765 H 0.05837 0.57152 0.67325 0.0
H766 H 0.11299 0.52864 0.76021 0.0
H767 H 0.09409 0.54569 0.75098 0.0
C768 C 0.06466 0.39246 0.21631 0.0
C769 C 0.05894 0.37898 0.2085 0.0
C770 C 0.07403 0.39797 0.17379 0.0
C771 C 0.08497 0.39374 0.01346 0.0
H772 H 0.1135 0.42059 0.06152 0.0
C773 C 0.13096 0.43235 0.90418 0.0
C774 C 0.12359 0.4371 0.8529 0.0
C775 C 0.12453 0.42336 0.94594 0.0
C776 C 0.10577 0.41294 0.04707 0.0
H777 H 0.05901 0.36046 0.15117 0.0
H778 H 0.07572 0.36991 0.07781 0.0
H779 H 0.10036 0.40805 0.13874 0.0
H780 H 0.10378 0.43591 0.80456 0.0
H781 H 0.09241 0.42068 0.87805 0.0
H782 H 0.09066 0.39834 0.92176 0.0
C783 C 0.07268 0.3764 0.11596 0.0
C784 C 0.09805 0.40589 0.09156 0.0
C785 C 0.06317 0.37093 0.15824 0.0
C786 C 0.10979 0.43237 0.84342 0.0
C787 C 0.10329 0.42354 0.88554 0.0
C788 C 0.09283 0.40065 0.96894 0.0
C789 C 0.07807 0.39009 0.12267 0.0
C790 C 0.08731 0.39644 0.0754 0.0
C791 C 0.1105 0.41905 0.93783 0.0
C792 C 0.10313 0.41058 0.98509 0.0
H793 H 0.06156 0.39899 0.25428 0.0
H794 H 0.07772 0.40864 0.1801 0.0
H795 H 0.07674 0.38663 0.99905 0.0
H796 H 0.14167 0.43571 0.91245 0.0
H797 H 0.13053 0.4199 0.9849 0.0
C798 C 0.11333 0.06089 0.62751 0.0
C799 C 0.12682 0.05578 0.61419 0.0
C800 C 0.1072 0.07127 0.59153 0.0
C801 C 0.09789 0.09727 0.52556 0.0
H802 H 0.10384 0.09546 0.35187 0.0
C803 C 0.06713 0.1335 0.36317 0.0
C804 C 0.06229 0.12727 0.3093 0.0
C805 C 0.07708 0.12664 0.39936 0.0
C806 C 0.10196 0.09607 0.40024 0.0
H807 H 0.14467 0.05784 0.55375 0.0
H808 H 0.13418 0.07637 0.492 0.0
H809 H 0.11684 0.07979 0.41808 0.0
H810 H 0.06427 0.10908 0.25061 0.0
H811 H 0.08107 0.09694 0.31432 0.0
H812 H 0.08226 0.1128 0.50746 0.0
C813 C 0.12815 0.07209 0.52933 0.0
C814 C 0.10963 0.08721 0.43847 0.0
C815 C 0.13421 0.06152 0.56492 0.0
C816 C 0.06784 0.11422 0.29166 0.0
C817 C 0.0776 0.10729 0.32815 0.0
C818 C 0.09005 0.10595 0.48728 0.0
C819 C 0.11448 0.07699 0.54175 0.0
C820 C 0.10748 0.08748 0.50159 0.0
C821 C 0.08226 0.11331 0.38287 0.0
C822 C 0.09176 0.10527 0.42396 0.0
H823 H 0.10729 0.0566 0.66486 0.0
H824 H 0.09655 0.07448 0.60189 0.0
H825 H 0.09617 0.09804 0.574 0.0
H826 H 0.06311 0.14361 0.37775 0.0
H827 H 0.08059 0.13175 0.44054 0.0
C828 C 0.43479 0.12937 0.1418 0.0
C829 C 0.4423 0.12191 0.18614 0.0
C830 C 0.42448 0.12262 0.10704 0.0
C831 C 0.40835 0.10475 0.01679 0.0
H832 H 0.38891 0.07269 0.08506 0.0
C833 C 0.37536 0.06723 0.86738 0.0
C834 C 0.36431 0.05977 0.89416 0.0
C835 C 0.38409 0.07574 0.9029 0.0
C836 C 0.39397 0.08177 0.06521 0.0
H837 H 0.44529 0.1015 0.22765 0.0
H838 H 0.42804 0.08958 0.16536 0.0
H839 H 0.40474 0.08607 0.14786 0.0
H840 H 0.35312 0.0557 0.97768 0.0
H841 H 0.36764 0.07119 0.03921 0.0
H842 H 0.39686 0.10095 0.93519 0.0
C843 C 0.42947 0.10077 0.15889 0.0
C844 C 0.40338 0.08932 0.10118 0.0
C845 C 0.43949 0.10758 0.19451 0.0
C846 C 0.36173 0.06127 0.95634 0.0
C847 C 0.37017 0.07007 0.9916 0.0
C848 C 0.39865 0.0974 0.98118 0.0
C849 C 0.4217 0.10818 0.1149 0.0
C850 C 0.41094 0.10077 0.07728 0.0
C851 C 0.3817 0.07721 0.96576 0.0
C852 C 0.39145 0.08565 0.00455 0.0
H853 H 0.43676 0.14046 0.13455 0.0
H854 H 0.41862 0.1288 0.07448 0.0
H855 H 0.41402 0.11339 0.99622 0.0
H856 H 0.37757 0.06607 0.81941 0.0
H857 H 0.39295 0.08078 0.88115 0.0
C858 C 0.38861 0.42909 0.66432 0.0
C859 C 0.37497 0.43415 0.65359 0.0
C860 C 0.39515 0.42018 0.62261 0.0
C861 C 0.39334 0.40988 0.46054 0.0
H862 H 0.42167 0.38304 0.51083 0.0
C863 C 0.43597 0.36742 0.35265 0.0
C864 C 0.44054 0.37545 0.30291 0.0
C865 C 0.42632 0.37296 0.39415 0.0
C866 C 0.41363 0.39029 0.49575 0.0
H867 H 0.35721 0.43327 0.59216 0.0
H868 H 0.36839 0.41731 0.52036 0.0
H869 H 0.40748 0.39483 0.58694 0.0
H870 H 0.4384 0.39553 0.25731 0.0
H871 H 0.42203 0.40533 0.33022 0.0
H872 H 0.3992 0.40505 0.36932 0.0
C873 C 0.37425 0.42057 0.56005 0.0
C874 C 0.40562 0.39725 0.53963 0.0
C875 C 0.36778 0.42965 0.60143 0.0
C876 C 0.43504 0.38902 0.29489 0.0
C877 C 0.42554 0.39461 0.33667 0.0
C878 C 0.40121 0.40278 0.41667 0.0
C879 C 0.38813 0.41593 0.56946 0.0
C880 C 0.39559 0.40739 0.52271 0.0
C881 C 0.42113 0.38672 0.38721 0.0
C882 C 0.41171 0.39314 0.43367 0.0
H883 H 0.39448 0.43243 0.70387 0.0
H884 H 0.40591 0.41708 0.63113 0.0
H885 H 0.38583 0.41768 0.4455 0.0
H886 H 0.43995 0.35688 0.35986 0.0
H887 H 0.423 0.36647 0.43185 0.0
C888 C 0.8663 0.56765 0.10729 0.0
C889 C 0.87327 0.56314 0.16 0.0
C890 C 0.87296 0.57673 0.06645 0.0
C891 C 0.89254 0.58739 0.96859 0.0
H892 H 0.92059 0.61425 0.02151 0.0
C893 C 0.93504 0.6083 0.80683 0.0
C894 C 0.94044 0.62189 0.81531 0.0
C895 C 0.92536 0.60267 0.84778 0.0
C896 C 0.91264 0.60699 0.00569 0.0
H897 H 0.89257 0.56484 0.21181 0.0
H898 H 0.90431 0.58019 0.14007 0.0
H899 H 0.90602 0.60248 0.09627 0.0
H900 H 0.93952 0.64046 0.87221 0.0
H901 H 0.92228 0.63082 0.94271 0.0
H902 H 0.89888 0.5922 0.87794 0.0
C903 C 0.89358 0.57709 0.13068 0.0
C904 C 0.90441 0.60004 0.04879 0.0
C905 C 0.88687 0.56818 0.17181 0.0
C906 C 0.93563 0.62991 0.86468 0.0
C907 C 0.9258 0.62433 0.90533 0.0
C908 C 0.90064 0.59448 0.92546 0.0
C909 C 0.8868 0.58136 0.077 0.0
C910 C 0.89447 0.5899 0.03094 0.0
C911 C 0.92068 0.61056 0.8979 0.0
C912 C 0.91104 0.60413 0.94345 0.0
H913 H 0.85577 0.56404 0.09716 0.0
H914 H 0.86728 0.57999 0.02629 0.0
H915 H 0.88511 0.57959 0.95288 0.0
H916 H 0.93859 0.60181 0.76952 0.0
H917 H 0.92191 0.59195 0.84103 0.0
C918 C 0.94024 0.87206 0.59429 0.0
C919 C 0.93526 0.86408 0.64344 0.0
C920 C 0.93124 0.88096 0.56237 0.0
C921 C 0.91274 0.90558 0.53008 0.0
H922 H 0.87454 0.89499 0.48935 0.0
C923 C 0.86456 0.92631 0.36821 0.0
C924 C 0.86514 0.94076 0.38106 0.0
C925 C 0.87258 0.91676 0.4018 0.0
C926 C 0.88521 0.89807 0.50008 0.0
H927 H 0.91679 0.85892 0.69661 0.0
H928 H 0.90105 0.87463 0.64109 0.0
H929 H 0.88964 0.87836 0.54302 0.0
H930 H 0.87427 0.95647 0.44058 0.0
H931 H 0.88812 0.93984 0.49937 0.0
H932 H 0.90849 0.92513 0.48603 0.0
C933 C 0.91193 0.87389 0.627 0.0
C934 C 0.89381 0.8886 0.53142 0.0
C935 C 0.92096 0.86493 0.65895 0.0
C936 C 0.87372 0.94543 0.4289 0.0
C937 C 0.8817 0.93589 0.46255 0.0
C938 C 0.90416 0.91503 0.49882 0.0
C939 C 0.91702 0.88215 0.57882 0.0
C940 C 0.9077 0.89222 0.54649 0.0
C941 C 0.88133 0.92145 0.44909 0.0
C942 C 0.89031 0.9114 0.48329 0.0
H943 H 0.95114 0.87148 0.58041 0.0
H944 H 0.93545 0.88692 0.52464 0.0
H945 H 0.92332 0.9088 0.5417 0.0
H946 H 0.85806 0.92237 0.33164 0.0
H947 H 0.87217 0.90573 0.38979 0.0
C948 C 0.6333 0.93554 0.09549 0.0
C949 C 0.62634 0.94103 0.14645 0.0
C950 C 0.62672 0.92555 0.05859 0.0
C951 C 0.59556 0.90151 0.05186 0.0
H952 H 0.60137 0.90481 0.87847 0.0
C953 C 0.5654 0.88684 0.81468 0.0
C954 C 0.55982 0.87364 0.82994 0.0
C955 C 0.57506 0.89347 0.85272 0.0
C956 C 0.59952 0.90379 0.92674 0.0
H957 H 0.60709 0.94031 0.19897 0.0
H958 H 0.59543 0.92342 0.13368 0.0
H959 H 0.61482 0.9195 0.94702 0.0
H960 H 0.56045 0.85677 0.89594 0.0
H961 H 0.57774 0.8681 0.96142 0.0
H962 H 0.57954 0.88653 0.03134 0.0
C963 C 0.60612 0.92639 0.12292 0.0
C964 C 0.60745 0.91208 0.96631 0.0
C965 C 0.61278 0.93619 0.16028 0.0
C966 C 0.56449 0.86699 0.88315 0.0
C967 C 0.57434 0.87354 0.92089 0.0
C968 C 0.58746 0.89338 0.01224 0.0
C969 C 0.61294 0.921 0.07125 0.0
C970 C 0.60541 0.91124 0.02942 0.0
C971 C 0.57959 0.88698 0.90667 0.0
C972 C 0.58916 0.89459 0.94904 0.0
H973 H 0.64381 0.939 0.08396 0.0
H974 H 0.63244 0.92146 0.01997 0.0
H975 H 0.59389 0.90031 0.10017 0.0
H976 H 0.56195 0.89232 0.77425 0.0
H977 H 0.57859 0.90391 0.84063 0.0
C978 C 0.60808 0.56704 0.35073 0.0
C979 C 0.6219 0.56235 0.36029 0.0
C980 C 0.60166 0.57611 0.39213 0.0
C981 C 0.59133 0.59946 0.47336 0.0
H982 H 0.59926 0.59318 0.64364 0.0
C983 C 0.56168 0.63001 0.6603 0.0
C984 C 0.55762 0.6222 0.7115 0.0
C985 C 0.57121 0.62443 0.61836 0.0
C986 C 0.59683 0.59503 0.59632 0.0
H987 H 0.64007 0.56403 0.41916 0.0
H988 H 0.62907 0.58027 0.49025 0.0
H989 H 0.61226 0.58019 0.56743 0.0
H990 H 0.5606 0.60251 0.75936 0.0
H991 H 0.57676 0.59265 0.68585 0.0
H992 H 0.57523 0.61359 0.50246 0.0
C993 C 0.623 0.5766 0.45186 0.0
C994 C 0.60449 0.58772 0.55237 0.0
C995 C 0.62935 0.56736 0.41088 0.0
C996 C 0.56356 0.60886 0.72063 0.0
C997 C 0.57294 0.60322 0.67847 0.0
C998 C 0.58353 0.60662 0.51737 0.0
C999 C 0.60896 0.5809 0.4437 0.0
C1000 C 0.60169 0.58966 0.49025 0.0
C1001 C 0.57679 0.61086 0.62639 0.0
C1002 C 0.58601 0.60432 0.5795 0.0
H1003 H 0.60202 0.5633 0.3124 0.0
H1004 H 0.59078 0.57895 0.38465 0.0
H1005 H 0.58905 0.60147 0.42602 0.0
H1006 H 0.55736 0.64038 0.6522 0.0
H1007 H 0.57411 0.63073 0.57942 0.0
C1008 C 0.01902 0.30342 0.32726 0.0
C1009 C 0.02775 0.31288 0.29613 0.0
C1010 C 0.02252 0.28925 0.33135 0.0
C1011 C 0.04246 0.26143 0.25548 0.0
H1012 H 0.03214 0.24091 0.40092 0.0
C1013 C 0.04294 0.20014 0.27526 0.0
C1014 C 0.02939 0.19519 0.28912 0.0
C1015 C 0.04614 0.21446 0.28159 0.0
C1016 C 0.03523 0.24652 0.36027 0.0
H1017 H 0.04714 0.31487 0.24513 0.0
H1018 H 0.05331 0.28988 0.2523 0.0
H1019 H 0.03186 0.26654 0.40172 0.0
H1020 H 0.00881 0.20107 0.32269 0.0
H1021 H 0.01451 0.22585 0.33543 0.0
H1022 H 0.04544 0.24125 0.21383 0.0
C1023 C 0.0437 0.29353 0.27335 0.0
C1024 C 0.03499 0.26118 0.36053 0.0
C1025 C 0.04018 0.30782 0.26935 0.0
C1026 C 0.01931 0.20462 0.31146 0.0
C1027 C 0.02259 0.21878 0.31909 0.0
C1028 C 0.04283 0.24672 0.25545 0.0
C1029 C 0.03489 0.2841 0.30457 0.0
C1030 C 0.03799 0.26879 0.30739 0.0
C1031 C 0.03595 0.22388 0.30346 0.0
C1032 C 0.03866 0.23916 0.30716 0.0
H1033 H 0.00934 0.30691 0.34831 0.0
H1034 H 0.01532 0.28226 0.35449 0.0
H1035 H 0.04479 0.26698 0.21377 0.0
H1036 H 0.05086 0.19306 0.25762 0.0
H1037 H 0.0565 0.21819 0.26914 0.0
C1038 C 0.29343 0.0232 0.83144 0.0
C1039 C 0.3055 0.02989 0.80914 0.0
C1040 C 0.28011 0.02791 0.81478 0.0
C1041 C 0.26227 0.04154 0.68633 0.0
H1042 H 0.23052 0.04403 0.79622 0.0
C1043 C 0.19737 0.04118 0.68512 0.0
C1044 C 0.19539 0.0282 0.65593 0.0
C1045 C 0.21095 0.04601 0.69792 0.0
C1046 C 0.23928 0.04367 0.76487 0.0
H1047 H 0.31326 0.04694 0.75337 0.0
H1048 H 0.28975 0.05492 0.72199 0.0
H1049 H 0.25444 0.0445 0.83674 0.0
H1050 H 0.20594 0.01059 0.61338 0.0
H1051 H 0.2296 0.01916 0.63435 0.0
H1052 H 0.24709 0.03959 0.6149 0.0
C1053 C 0.29067 0.04622 0.75346 0.0
C1054 C 0.25294 0.04388 0.78808 0.0
C1055 C 0.30406 0.04171 0.77152 0.0
C1056 C 0.20718 0.02061 0.63612 0.0
C1057 C 0.22071 0.02556 0.64776 0.0
C1058 C 0.2486 0.04109 0.66318 0.0
C1059 C 0.2786 0.0392 0.77431 0.0
C1060 C 0.26453 0.04234 0.7492 0.0
C1061 C 0.22273 0.03808 0.68044 0.0
C1062 C 0.23699 0.04168 0.70249 0.0
H1063 H 0.2943 0.01406 0.86051 0.0
H1064 H 0.27098 0.02221 0.8309 0.0
H1065 H 0.27104 0.04021 0.65548 0.0
H1066 H 0.18845 0.0472 0.70115 0.0
H1067 H 0.21225 0.05568 0.72322 0.0
C1068 C 0.47962 0.29962 0.18217 0.0
C1069 C 0.47112 0.30889 0.2155 0.0
C1070 C 0.47612 0.28547 0.17717 0.0
C1071 C 0.45716 0.25713 0.25338 0.0
H1072 H 0.4663 0.23754 0.10409 0.0
C1073 C 0.45802 0.19592 0.22791 0.0
C1074 C 0.4716 0.19148 0.21175 0.0
C1075 C 0.4543 0.21015 0.22322 0.0
C1076 C 0.46352 0.24289 0.14582 0.0
H1077 H 0.45215 0.31055 0.26955 0.0
H1078 H 0.44601 0.28556 0.26093 0.0
H1079 H 0.46612 0.26317 0.10579 0.0
H1080 H 0.49171 0.19817 0.17572 0.0
H1081 H 0.4851 0.22278 0.16567 0.0
H1082 H 0.45501 0.23669 0.29359 0.0
C1083 C 0.45542 0.28937 0.23875 0.0
C1084 C 0.4635 0.25754 0.14697 0.0
C1085 C 0.45892 0.30365 0.24359 0.0
C1086 C 0.48118 0.20132 0.18865 0.0
C1087 C 0.47738 0.21538 0.18259 0.0
C1088 C 0.45705 0.24241 0.25203 0.0
C1089 C 0.464 0.28013 0.20528 0.0
C1090 C 0.46097 0.26483 0.20142 0.0
C1091 C 0.464 0.21998 0.20064 0.0
C1092 C 0.46081 0.2352 0.19884 0.0
H1093 H 0.48911 0.30326 0.16 0.0
H1094 H 0.48316 0.27863 0.15224 0.0
H1095 H 0.4552 0.26242 0.29605 0.0
H1096 H 0.45049 0.1885 0.24623 0.0
H1097 H 0.44394 0.21349 0.23755 0.0
C1098 C 0.29514 0.46988 0.67188 0.0
C1099 C 0.30632 0.4622 0.69686 0.0
C1100 C 0.28129 0.46554 0.68086 0.0
C1101 C 0.26004 0.4501 0.79586 0.0
H1102 H 0.23071 0.45103 0.67364 0.0
C1103 C 0.19538 0.45088 0.77515 0.0
C1104 C 0.19279 0.4633 0.80775 0.0
C1105 C 0.20921 0.44643 0.7647 0.0
C1106 C 0.23879 0.45045 0.70819 0.0
H1107 H 0.31191 0.44373 0.74907 0.0
H1108 H 0.28749 0.43639 0.76666 0.0
H1109 H 0.25542 0.45092 0.64249 0.0
H1110 H 0.2024 0.48028 0.85833 0.0
H1111 H 0.22647 0.47226 0.84192 0.0
H1112 H 0.24342 0.45074 0.86159 0.0
C1113 C 0.28953 0.4456 0.73922 0.0
C1114 C 0.25289 0.45046 0.69038 0.0
C1115 C 0.30345 0.44977 0.72894 0.0
C1116 C 0.20414 0.47067 0.83305 0.0
C1117 C 0.21789 0.46604 0.82391 0.0
C1118 C 0.24594 0.45036 0.81368 0.0
C1119 C 0.27834 0.45361 0.71612 0.0
C1120 C 0.26363 0.45069 0.73409 0.0
C1121 C 0.22058 0.45414 0.78812 0.0
C1122 C 0.23521 0.45094 0.76999 0.0
H1123 H 0.2971 0.4795 0.64697 0.0
H1124 H 0.27285 0.47198 0.6631 0.0
H1125 H 0.26813 0.45041 0.83043 0.0
H1126 H 0.18679 0.44508 0.75475 0.0
H1127 H 0.21104 0.43723 0.73685 0.0
C1128 C 0.97973 0.79567 0.7145 0.0
C1129 C 0.96954 0.8061 0.72421 0.0
C1130 C 0.97595 0.78155 0.71248 0.0
C1131 C 0.95531 0.75511 0.77285 0.0
H1132 H 0.9631 0.73471 0.62425 0.0
C1133 C 0.95781 0.69389 0.76157 0.0
C1134 C 0.96989 0.68893 0.73161 0.0
C1135 C 0.95402 0.70812 0.75776 0.0
C1136 C 0.96079 0.74023 0.66605 0.0
H1137 H 0.94738 0.80994 0.74009 0.0
H1138 H 0.9408 0.78485 0.73843 0.0
H1139 H 0.96318 0.76035 0.62372 0.0
H1140 H 0.98734 0.69499 0.67376 0.0
H1141 H 0.98087 0.71951 0.66769 0.0
H1142 H 0.95403 0.73499 0.81637 0.0
C1143 C 0.95167 0.78782 0.73158 0.0
C1144 C 0.96073 0.75488 0.66552 0.0
C1145 C 0.95543 0.80209 0.73234 0.0
C1146 C 0.97796 0.69841 0.69739 0.0
C1147 C 0.97416 0.7125 0.69337 0.0
C1148 C 0.95551 0.74038 0.77358 0.0
C1149 C 0.96194 0.77751 0.72117 0.0
C1150 C 0.95847 0.76241 0.71927 0.0
C1151 C 0.96216 0.71756 0.72341 0.0
C1152 C 0.95886 0.73282 0.72064 0.0
H1153 H 0.99067 0.79842 0.70771 0.0
H1154 H 0.98403 0.77373 0.70461 0.0
H1155 H 0.95369 0.76076 0.81493 0.0
H1156 H 0.95138 0.68682 0.78827 0.0
H1157 H 0.94472 0.71172 0.78145 0.0
C1158 C 0.79572 0.97882 0.31808 0.0
C1159 C 0.80761 0.9716 0.29704 0.0
C1160 C 0.78228 0.97378 0.30549 0.0
C1161 C 0.75516 0.95671 0.29238 0.0
H1162 H 0.74687 0.95724 0.12007 0.0
C1163 C 0.69825 0.95583 0.20429 0.0
C1164 C 0.69549 0.96826 0.17202 0.0
C1165 C 0.71213 0.95153 0.21439 0.0
C1166 C 0.74908 0.95677 0.16825 0.0
H1167 H 0.81491 0.95334 0.2475 0.0
H1168 H 0.79116 0.94477 0.22317 0.0
H1169 H 0.77135 0.95809 0.15449 0.0
H1170 H 0.70485 0.98531 0.12103 0.0
H1171 H 0.72901 0.97761 0.13714 0.0
H1172 H 0.7329 0.95609 0.30634 0.0
C1173 C 0.79234 0.95416 0.25052 0.0
C1174 C 0.76304 0.95718 0.1879 0.0
C1175 C 0.80586 0.95902 0.26455 0.0
C1176 C 0.70672 0.97571 0.14618 0.0
C1177 C 0.72053 0.97125 0.1551 0.0
C1178 C 0.74122 0.95604 0.27276 0.0
C1179 C 0.78045 0.96161 0.27041 0.0
C1180 C 0.76615 0.95774 0.25014 0.0
C1181 C 0.7234 0.95941 0.19107 0.0
C1182 C 0.73803 0.95665 0.21057 0.0
H1183 H 0.79681 0.98853 0.34328 0.0
H1184 H 0.77327 0.9798 0.32073 0.0
H1185 H 0.75733 0.95713 0.34061 0.0
H1186 H 0.68977 0.94995 0.22501 0.0
H1187 H 0.71409 0.94237 0.24232 0.0
C1188 C 0.51618 0.79644 0.81641 0.0
C1189 C 0.52662 0.80592 0.79789 0.0
C1190 C 0.51922 0.7822 0.82286 0.0
C1191 C 0.54006 0.75438 0.76165 0.0
H1192 H 0.52722 0.73404 0.90368 0.0
C1193 C 0.53755 0.69316 0.77242 0.0
C1194 C 0.52487 0.68795 0.79636 0.0
C1195 C 0.54084 0.70749 0.77724 0.0
C1196 C 0.53087 0.73955 0.86366 0.0
H1197 H 0.54848 0.80804 0.77182 0.0
H1198 H 0.55373 0.78277 0.78129 0.0
H1199 H 0.52756 0.75966 0.9048 0.0
H1200 H 0.50574 0.69371 0.8439 0.0
H1201 H 0.51134 0.71843 0.85147 0.0
H1202 H 0.54253 0.73426 0.71909 0.0
C1203 C 0.54325 0.78652 0.79164 0.0
C1204 C 0.53114 0.7542 0.86452 0.0
C1205 C 0.54027 0.80091 0.7865 0.0
C1206 C 0.51562 0.69731 0.82515 0.0
C1207 C 0.5189 0.71152 0.83003 0.0
C1208 C 0.53966 0.73966 0.76054 0.0
C1209 C 0.53272 0.77707 0.80987 0.0
C1210 C 0.53527 0.76175 0.81287 0.0
C1211 C 0.53156 0.71681 0.80643 0.0
C1212 C 0.53454 0.73212 0.8108 0.0
H1213 H 0.50558 0.80002 0.82568 0.0
H1214 H 0.51088 0.77511 0.83636 0.0
H1215 H 0.54322 0.76 0.72114 0.0
H1216 H 0.5449 0.68619 0.75003 0.0
H1217 H 0.55068 0.71125 0.75863 0.0
C1218 C 0.793 0.52803 0.17858 0.0
C1219 C 0.80433 0.5356 0.20289 0.0
C1220 C 0.77923 0.53255 0.18798 0.0
C1221 C 0.75105 0.548 0.19809 0.0
H1222 H 0.74192 0.54826 0.36965 0.0
C1223 C 0.69371 0.54832 0.28441 0.0
C1224 C 0.69107 0.53599 0.31763 0.0
C1225 C 0.70755 0.55265 0.27355 0.0
C1226 C 0.74435 0.54849 0.32163 0.0
H1227 H 0.81025 0.55408 0.25436 0.0
H1228 H 0.78598 0.56177 0.27267 0.0
H1229 H 0.76656 0.54819 0.33756 0.0
H1230 H 0.70061 0.51911 0.36901 0.0
H1231 H 0.72471 0.52694 0.35188 0.0
H1232 H 0.72883 0.54767 0.1822 0.0
C1233 C 0.78784 0.55248 0.24543 0.0
C1234 C 0.75841 0.54852 0.30328 0.0
C1235 C 0.80168 0.54812 0.23474 0.0
C1236 C 0.70239 0.52864 0.34325 0.0
C1237 C 0.71616 0.53316 0.33369 0.0
C1238 C 0.73699 0.54823 0.21643 0.0
C1239 C 0.7765 0.54458 0.223 0.0
C1240 C 0.76187 0.54773 0.2414 0.0
C1241 C 0.71889 0.54494 0.29718 0.0
C1242 C 0.73352 0.54794 0.27838 0.0
H1243 H 0.79478 0.51835 0.15385 0.0
H1244 H 0.77067 0.52619 0.17074 0.0
H1245 H 0.75347 0.54739 0.15013 0.0
H1246 H 0.68514 0.55409 0.26374 0.0
H1247 H 0.70942 0.56175 0.24515 0.0
C1248 C 0.02415 0.362 0.00691 0.0
C1249 C 0.01362 0.35323 0.03082 0.0
C1250 C 0.02618 0.36304 0.94419 0.0
C1251 C 0.00867 0.35628 0.79628 0.0
H1252 H 0.04673 0.35769 0.73383 0.0
C1253 C 0.02107 0.36492 0.54077 0.0
C1254 C 0.03214 0.35695 0.51615 0.0
C1255 C 0.01858 0.36498 0.60346 0.0
C1256 C 0.03602 0.35723 0.75042 0.0
H1257 H 0.9971 0.33853 0.0071 0.0
H1258 H 0.00069 0.34025 0.89795 0.0
H1259 H 0.04284 0.35657 0.84285 0.0
H1260 H 0.04896 0.34245 0.53841 0.0
H1261 H 0.04463 0.34254 0.64692 0.0
H1262 H 0.00189 0.35655 0.7036 0.0
C1263 C 0.00722 0.34655 0.92764 0.0
C1264 C 0.03379 0.35675 0.81309 0.0
C1265 C 0.00517 0.34554 0.99034 0.0
C1266 C 0.04054 0.34896 0.55569 0.0
C1267 C 0.03805 0.34901 0.61813 0.0
C1268 C 0.01091 0.35675 0.73352 0.0
C1269 C 0.01776 0.3553 0.9037 0.0
C1270 C 0.02009 0.35619 0.83689 0.0
C1271 C 0.0271 0.35707 0.64296 0.0
C1272 C 0.02462 0.35712 0.70977 0.0
H1273 H 0.0307 0.36826 0.03657 0.0
H1274 H 0.03425 0.37005 0.92741 0.0
H1275 H 0.99797 0.35604 0.81298 0.0
H1276 H 0.01448 0.37129 0.51171 0.0
H1277 H 0.01013 0.37142 0.62106 0.0
C1278 C 0.14713 0.04018 0.94745 0.0
C1279 C 0.15129 0.02945 0.90747 0.0
C1280 C 0.14722 0.03798 0.01012 0.0
C1281 C 0.16389 0.01636 0.12758 0.0
H1282 H 0.13295 0.02891 0.22849 0.0
C1283 C 0.16006 0.00187 0.38094 0.0
C1284 C 0.15478 0.01198 0.42157 0.0
C1285 C 0.15967 0.00418 0.31841 0.0
C1286 C 0.14177 0.02552 0.20111 0.0
H1287 H 0.15878 0.00798 0.90196 0.0
H1288 H 0.15889 0.00411 0.0115 0.0
H1289 H 0.13192 0.03241 0.11894 0.0
H1290 H 0.145 0.03253 0.42759 0.0
H1291 H 0.14473 0.03673 0.31866 0.0
H1292 H 0.17385 0.00964 0.20951 0.0
C1293 C 0.1556 0.01424 0.99425 0.0
C1294 C 0.14115 0.02749 0.13831 0.0
C1295 C 0.15539 0.01641 0.93151 0.0
C1296 C 0.14928 0.02456 0.39791 0.0
C1297 C 0.14895 0.02689 0.33527 0.0
C1298 C 0.16456 0.01448 0.19037 0.0
C1299 C 0.15158 0.02503 0.03422 0.0
C1300 C 0.15218 0.02289 0.10087 0.0
C1301 C 0.15408 0.01669 0.29471 0.0
C1302 C 0.15349 0.01899 0.22795 0.0
H1303 H 0.14379 0.0503 0.93022 0.0
H1304 H 0.14416 0.04653 0.03977 0.0
H1305 H 0.17265 0.01291 0.09998 0.0
H1306 H 0.16455 0.99215 0.39729 0.0
H1307 H 0.16357 0.99601 0.28861 0.0
C1308 C 0.4945 0.1564 0.95022 0.0
C1309 C 0.48542 0.14946 0.99062 0.0
C1310 C 0.49209 0.15597 0.88773 0.0
C1311 C 0.46445 0.14896 0.77338 0.0
H1312 H 0.49627 0.14606 0.66416 0.0
C1313 C 0.45893 0.15757 0.51541 0.0
C1314 C 0.46686 0.14901 0.47628 0.0
C1315 C 0.46111 0.15716 0.57807 0.0
C1316 C 0.48725 0.14673 0.69396 0.0
H1317 H 0.46673 0.13652 0.99681 0.0
H1318 H 0.46257 0.13567 0.88762 0.0
H1319 H 0.50015 0.14589 0.77333 0.0
H1320 H 0.48314 0.13312 0.47259 0.0
H1321 H 0.48689 0.13229 0.58208 0.0
H1322 H 0.45152 0.14949 0.694 0.0
C1323 C 0.47144 0.14165 0.90437 0.0
C1324 C 0.48949 0.14682 0.75664 0.0
C1325 C 0.47382 0.14213 0.967 0.0
C1326 C 0.477 0.13999 0.50139 0.0
C1327 C 0.47914 0.13952 0.56417 0.0
C1328 C 0.4622 0.14883 0.71068 0.0
C1329 C 0.48058 0.14854 0.86391 0.0
C1330 C 0.47813 0.14804 0.79718 0.0
C1331 C 0.47122 0.14812 0.60333 0.0
C1332 C 0.47358 0.1478 0.67014 0.0
H1333 H 0.50339 0.16234 0.96694 0.0
H1334 H 0.49918 0.16165 0.85811 0.0
H1335 H 0.45546 0.15003 0.80316 0.0
H1336 H 0.4512 0.16482 0.49757 0.0
H1337 H 0.455 0.16412 0.60664 0.0
C1338 C 0.34208 0.44984 0.99357 0.0
C1339 C 0.34902 0.45911 0.95378 0.0
C1340 C 0.34232 0.45208 0.05622 0.0
C1341 C 0.3473 0.47962 0.1713 0.0
H1342 H 0.35374 0.44827 0.28022 0.0
C1343 C 0.35491 0.48774 0.42862 0.0
C1344 C 0.34886 0.47787 0.46821 0.0
C1345 C 0.35519 0.48534 0.36608 0.0
C1346 C 0.35174 0.45712 0.25055 0.0
H1347 H 0.36179 0.47798 0.94964 0.0
H1348 H 0.362 0.48199 0.05888 0.0
H1349 H 0.3537 0.44438 0.17085 0.0
H1350 H 0.33828 0.45774 0.47291 0.0
H1351 H 0.33857 0.4536 0.36369 0.0
H1352 H 0.34513 0.49234 0.25073 0.0
C1353 C 0.3563 0.47302 0.04125 0.0
C1354 C 0.35176 0.45488 0.18782 0.0
C1355 C 0.35615 0.47073 0.97853 0.0
C1356 C 0.34316 0.46547 0.44375 0.0
C1357 C 0.34335 0.4631 0.38107 0.0
C1358 C 0.34719 0.48184 0.23401 0.0
C1359 C 0.34941 0.46371 0.08081 0.0
C1360 C 0.34954 0.46611 0.14748 0.0
C1361 C 0.34934 0.47303 0.34138 0.0
C1362 C 0.34943 0.47062 0.27451 0.0
H1363 H 0.33627 0.44091 0.97648 0.0
H1364 H 0.33673 0.44483 0.0854 0.0
H1365 H 0.34535 0.48845 0.14144 0.0
H1366 H 0.35963 0.49726 0.44603 0.0
H1367 H 0.36015 0.49308 0.33716 0.0
C1368 C 0.02984 0.14542 0.53082 0.0
C1369 C 0.01778 0.15203 0.50746 0.0
C1370 C 0.03225 0.14499 0.59343 0.0
C1371 C 0.01393 0.14872 0.74125 0.0
H1372 H 0.05158 0.1542 0.80405 0.0
C1373 C 0.02681 0.14314 0.99671 0.0
C1374 C 0.03615 0.15302 0.02157 0.0
C1375 C 0.02476 0.14237 0.93392 0.0
C1376 C 0.04098 0.15273 0.7873 0.0
H1377 H 0.99904 0.16372 0.53162 0.0
H1378 H 0.00329 0.16309 0.64038 0.0
H1379 H 0.04764 0.15442 0.69483 0.0
H1380 H 0.05046 0.17003 0.99984 0.0
H1381 H 0.04683 0.16878 0.89079 0.0
H1382 H 0.0072 0.14747 0.83371 0.0
C1383 C 0.01072 0.15793 0.61056 0.0
C1384 C 0.03875 0.15268 0.7246 0.0
C1385 C 0.00829 0.15832 0.5481 0.0
C1386 C 0.04337 0.16213 0.98221 0.0
C1387 C 0.0413 0.1614 0.91956 0.0
C1388 C 0.01615 0.14879 0.80393 0.0
C1389 C 0.02269 0.1512 0.6341 0.0
C1390 C 0.02517 0.15078 0.70078 0.0
C1391 C 0.03198 0.1515 0.89456 0.0
C1392 C 0.02969 0.1509 0.82778 0.0
H1393 H 0.03727 0.14033 0.50083 0.0
H1394 H 0.04149 0.13957 0.61001 0.0
H1395 H 0.00336 0.14702 0.7245 0.0
H1396 H 0.02123 0.13585 0.0257 0.0
H1397 H 0.01765 0.13449 0.91618 0.0
C1398 C 0.3462 0.02675 0.09986 0.0
C1399 C 0.33844 0.01543 0.07612 0.0
C1400 C 0.34673 0.02916 0.16254 0.0
C1401 C 0.32914 0.02037 0.30889 0.0
H1402 H 0.36536 0.03012 0.37745 0.0
C1403 C 0.34093 0.019 0.56832 0.0
C1404 C 0.34989 0.02943 0.59169 0.0
C1405 C 0.33858 0.01791 0.50562 0.0
C1406 C 0.35511 0.02759 0.35912 0.0
H1407 H 0.32468 0.99814 0.10019 0.0
H1408 H 0.32582 0.00215 0.20914 0.0
H1409 H 0.36301 0.02732 0.26826 0.0
H1410 H 0.36272 0.0474 0.56751 0.0
H1411 H 0.3586 0.04557 0.45891 0.0
H1412 H 0.32131 0.02051 0.40017 0.0
C1413 C 0.33144 0.00924 0.17934 0.0
C1414 C 0.35375 0.026 0.2963 0.0
C1415 C 0.33092 0.00683 0.11672 0.0
C1416 C 0.35601 0.03905 0.55107 0.0
C1417 C 0.35366 0.03798 0.48865 0.0
C1418 C 0.33051 0.02196 0.37188 0.0
C1419 C 0.3395 0.02033 0.20321 0.0
C1420 C 0.34076 0.02236 0.27024 0.0
C1421 C 0.34513 0.02725 0.46488 0.0
C1422 C 0.34351 0.0256 0.39783 0.0
H1423 H 0.3522 0.03356 0.0703 0.0
H1424 H 0.35288 0.03792 0.17914 0.0
H1425 H 0.31894 0.01772 0.29044 0.0
H1426 H 0.33613 0.01136 0.5982 0.0
H1427 H 0.33202 0.00945 0.48896 0.0
C1428 C 0.49386 0.34129 0.52208 0.0
C1429 C 0.48547 0.34904 0.4816 0.0
C1430 C 0.49179 0.34229 0.58478 0.0
C1431 C 0.46524 0.35262 0.69925 0.0
H1432 H 0.49712 0.35222 0.80885 0.0
C1433 C 0.4584 0.34496 0.95676 0.0
C1434 C 0.46689 0.35288 0.99625 0.0
C1435 C 0.46088 0.34498 0.89431 0.0
C1436 C 0.4881 0.35248 0.7789 0.0
H1437 H 0.46846 0.36415 0.47582 0.0
H1438 H 0.46487 0.36593 0.58497 0.0
H1439 H 0.50105 0.35169 0.6995 0.0
H1440 H 0.48467 0.36707 1.00057 0.0
H1441 H 0.48899 0.36715 0.89122 0.0
H1442 H 0.45229 0.35365 0.77847 0.0
C1443 C 0.47291 0.35888 0.5682 0.0
C1444 C 0.49035 0.352 0.71615 0.0
C1445 C 0.47497 0.35785 0.50549 0.0
C1446 C 0.47802 0.36075 0.97156 0.0
C1447 C 0.48049 0.36078 0.90887 0.0
C1448 C 0.46299 0.35311 0.76192 0.0
C1449 C 0.48128 0.35109 0.6087 0.0
C1450 C 0.47894 0.35198 0.6755 0.0
C1451 C 0.4719 0.35294 0.86942 0.0
C1452 C 0.47438 0.35294 0.80261 0.0
H1453 H 0.5019 0.33425 0.50534 0.0
H1454 H 0.49827 0.33595 0.61447 0.0
H1455 H 0.45619 0.35249 0.66945 0.0
H1456 H 0.44993 0.33853 0.97411 0.0
H1457 H 0.45424 0.33856 0.86556 0.0
C1458 C 0.15636 0.46742 0.06102 0.0
C1459 C 0.15099 0.48 0.03693 0.0
C1460 C 0.15614 0.46497 0.12364 0.0
C1461 C 0.13838 0.47581 0.26496 0.0
H1462 H 0.1716 0.46085 0.34359 0.0
C1463 C 0.14349 0.47306 0.52633 0.0
C1464 C 0.15015 0.46121 0.55141 0.0
C1465 C 0.14352 0.47532 0.46358 0.0
C1466 C 0.16216 0.46486 0.32234 0.0
H1467 H 0.14089 0.49972 0.05981 0.0
H1468 H 0.14058 0.4955 0.16888 0.0
H1469 H 0.17162 0.46453 0.23415 0.0
H1470 H 0.1622 0.44251 0.52925 0.0
H1471 H 0.16185 0.44621 0.4204 0.0
H1472 H 0.12884 0.47602 0.3529 0.0
C1473 C 0.14495 0.48751 0.13936 0.0
C1474 C 0.16219 0.46698 0.25955 0.0
C1475 C 0.14527 0.49 0.07687 0.0
C1476 C 0.15681 0.45168 0.51193 0.0
C1477 C 0.15679 0.4539 0.44926 0.0
C1478 C 0.13831 0.47361 0.32772 0.0
C1479 C 0.15044 0.475 0.16352 0.0
C1480 C 0.15031 0.47251 0.23015 0.0
C1481 C 0.15017 0.46577 0.42419 0.0
C1482 C 0.15021 0.46813 0.35729 0.0
H1483 H 0.16093 0.45955 0.03159 0.0
H1484 H 0.16034 0.45517 0.14081 0.0
H1485 H 0.12899 0.47992 0.24354 0.0
H1486 H 0.13812 0.48056 0.55502 0.0
H1487 H 0.13845 0.48466 0.44603 0.0
C1488 C 0.95793 0.65284 0.47072 0.0
C1489 C 0.96649 0.645 0.51019 0.0
C1490 C 0.96039 0.65283 0.40825 0.0
C1491 C 0.98767 0.6455 0.29286 0.0
H1492 H 0.95577 0.64523 0.18335 0.0
C1493 C 0.9934 0.65663 0.03604 0.0
C1494 C 0.98508 0.6488 0.99557 0.0
C1495 C 0.99131 0.65565 0.09873 0.0
C1496 C 0.96481 0.64518 0.21317 0.0
H1497 H 0.98438 0.63095 0.51449 0.0
H1498 H 0.98867 0.63086 0.40514 0.0
H1499 H 0.95187 0.64408 0.29238 0.0
H1500 H 0.96818 0.63357 0.98979 0.0
H1501 H 0.96456 0.63183 0.09894 0.0
H1502 H 0.00062 0.64636 0.21348 0.0
C1503 C 0.98013 0.63717 0.42279 0.0
C1504 C 0.96257 0.64469 0.27584 0.0
C1505 C 0.97767 0.63721 0.48549 0.0
C1506 C 0.97463 0.63993 0.01945 0.0
C1507 C 0.97256 0.63893 0.08216 0.0
C1508 C 0.98992 0.64598 0.23012 0.0
C1509 C 0.97147 0.64495 0.38335 0.0
C1510 C 0.97396 0.64495 0.31654 0.0
C1511 C 0.98086 0.64679 0.12265 0.0
C1512 C 0.97851 0.64591 0.18945 0.0
H1513 H 0.94941 0.65921 0.48809 0.0
H1514 H 0.9537 0.65918 0.3795 0.0
H1515 H 0.99668 0.64583 0.32281 0.0
H1516 H 0.0014 0.66372 0.0193 0.0
H1517 H 0.99774 0.66205 0.1284 0.0
C1518 C 0.85667 0.96099 0.03108 0.0
C1519 C 0.85141 0.97106 0.07193 0.0
C1520 C 0.85456 0.96241 0.96864 0.0
C1521 C 0.8332 0.98058 0.85172 0.0
H1522 H 0.86544 0.97285 0.74934 0.0
C1523 C 0.83506 0.99565 0.59664 0.0
C1524 C 0.84204 0.98656 0.55622 0.0
C1525 C 0.83538 0.99324 0.6593 0.0
C1526 C 0.85625 0.97486 0.777 0.0
H1527 H 0.83939 0.99033 0.07874 0.0
H1528 H 0.83567 0.99282 0.96944 0.0
H1529 H 0.86729 0.96968 0.85852 0.0
H1530 H 0.85465 0.9676 0.55083 0.0
H1531 H 0.85492 0.96324 0.65964 0.0
H1532 H 0.82218 0.98579 0.76995 0.0
C1533 C 0.84138 0.98376 0.98599 0.0
C1534 C 0.85732 0.97305 0.83981 0.0
C1535 C 0.8435 0.98233 0.04872 0.0
C1536 C 0.84907 0.9748 0.58022 0.0
C1537 C 0.84937 0.97238 0.64291 0.0
C1538 C 0.83212 0.98235 0.78872 0.0
C1539 C 0.84712 0.97394 0.94508 0.0
C1540 C 0.84582 0.97587 0.87807 0.0
C1541 C 0.84267 0.98166 0.68341 0.0
C1542 C 0.84364 0.97951 0.75048 0.0
H1543 H 0.86253 0.952 0.04735 0.0
H1544 H 0.85884 0.95446 0.93871 0.0
H1545 H 0.82409 0.9827 0.8797 0.0
H1546 H 0.82938 0.0047 0.57998 0.0
H1547 H 0.83019 0.00069 0.68892 0.0
C1548 C 0.54111 0.83977 0.4978 0.0
C1549 C 0.53369 0.84872 0.53718 0.0
C1550 C 0.53894 0.84037 0.43518 0.0
C1551 C 0.51338 0.85219 0.31958 0.0
H1552 H 0.54497 0.84731 0.21039 0.0
C1553 C 0.50577 0.84229 0.06361 0.0
C1554 C 0.51515 0.84874 0.02294 0.0
C1555 C 0.50815 0.84281 0.12612 0.0
C1556 C 0.53604 0.84883 0.24016 0.0
H1557 H 0.51828 0.86545 0.54131 0.0
H1558 H 0.51453 0.86658 0.43182 0.0
H1559 H 0.54894 0.84773 0.31954 0.0
H1560 H 0.53434 0.8609 0.01635 0.0
H1561 H 0.53847 0.8619 0.12551 0.0
H1562 H 0.50052 0.85355 0.24017 0.0
C1563 C 0.52188 0.85893 0.44955 0.0
C1564 C 0.5383 0.8489 0.30285 0.0
C1565 C 0.52403 0.85829 0.51233 0.0
C1566 C 0.52701 0.85567 0.04634 0.0
C1567 C 0.52937 0.85624 0.10896 0.0
C1568 C 0.51113 0.85215 0.25689 0.0
C1569 C 0.52932 0.84997 0.41018 0.0
C1570 C 0.52698 0.85046 0.34339 0.0
C1571 C 0.51995 0.84984 0.14967 0.0
C1572 C 0.52242 0.85036 0.21637 0.0
H1573 H 0.54843 0.83209 0.51539 0.0
H1574 H 0.54464 0.83311 0.40643 0.0
H1575 H 0.5044 0.8533 0.3494 0.0
H1576 H 0.49666 0.83666 0.04713 0.0
H1577 H 0.50082 0.83751 0.15596 0.0
C1578 C 0.65529 0.54768 0.02089 0.0
C1579 C 0.64858 0.53818 0.06035 0.0
C1580 C 0.65521 0.54548 0.95821 0.0
C1581 C 0.63655 0.52594 0.83671 0.0
H1582 H 0.66988 0.53479 0.7429 0.0
C1583 C 0.64332 0.50946 0.5859 0.0
C1584 C 0.6491 0.51942 0.54589 0.0
C1585 C 0.64303 0.51197 0.64837 0.0
C1586 C 0.66044 0.53241 0.76837 0.0
H1587 H 0.63643 0.5189 0.0639 0.0
H1588 H 0.63668 0.51484 0.9549 0.0
H1589 H 0.66994 0.53846 0.85234 0.0
H1590 H 0.65916 0.53981 0.54041 0.0
H1591 H 0.65862 0.54422 0.64962 0.0
H1592 H 0.62715 0.5197 0.7526 0.0
C1593 C 0.64182 0.52414 0.97247 0.0
C1594 C 0.66045 0.53453 0.83116 0.0
C1595 C 0.64184 0.52638 0.03523 0.0
C1596 C 0.65455 0.53197 0.5699 0.0
C1597 C 0.65436 0.53444 0.6325 0.0
C1598 C 0.63657 0.52374 0.77396 0.0
C1599 C 0.64851 0.53367 0.9331 0.0
C1600 C 0.6485 0.53133 0.8662 0.0
C1601 C 0.6486 0.52445 0.67245 0.0
C1602 C 0.64851 0.52696 0.73906 0.0
H1603 H 0.66074 0.5568 0.03825 0.0
H1604 H 0.66032 0.55315 0.92936 0.0
H1605 H 0.62707 0.52359 0.86196 0.0
H1606 H 0.63888 0.49976 0.5689 0.0
H1607 H 0.63862 0.50402 0.67794 0.0
C1608 C 0.99093 0.85044 0.42994 0.0
C1609 C 0.98204 0.84265 0.46816 0.0
C1610 C 0.98841 0.85109 0.3675 0.0
C1611 C 0.97559 0.83263 0.23834 0.0
H1612 H 0.96771 0.86898 0.16689 0.0
C1613 C 0.96426 0.83925 0.97961 0.0
C1614 C 0.96797 0.85205 0.9524 0.0
C1615 C 0.96548 0.83749 0.0427 0.0
C1616 C 0.97017 0.85875 0.18548 0.0
H1617 H 0.96364 0.82932 0.47103 0.0
H1618 H 0.95948 0.83006 0.36062 0.0
H1619 H 0.97087 0.86699 0.27607 0.0
H1620 H 0.97655 0.87272 0.9686 0.0
H1621 H 0.97953 0.8695 0.07722 0.0
H1622 H 0.97567 0.82442 0.14791 0.0
C1623 C 0.96828 0.83579 0.37958 0.0
C1624 C 0.97181 0.85763 0.24836 0.0
C1625 C 0.97061 0.83542 0.44249 0.0
C1626 C 0.97343 0.86283 0.9888 0.0
C1627 C 0.97497 0.86098 0.05133 0.0
C1628 C 0.97427 0.83378 0.17508 0.0
C1629 C 0.97713 0.84372 0.34167 0.0
C1630 C 0.97459 0.8446 0.27535 0.0
C1631 C 0.97072 0.84841 0.07974 0.0
C1632 C 0.97167 0.84691 0.1475 0.0
H1633 H -0.00027 0.85622 0.44861 0.0
H1634 H 0.99536 0.85729 0.33919 0.0
H1635 H 0.97784 0.82247 0.25821 0.0
H1636 H 0.95994 0.83083 0.95231 0.0
H1637 H 0.96194 0.82769 0.06239 0.0
C1638 C 0.65835 0.9721 0.9272 0.0
C1639 C 0.65231 0.98436 0.95126 0.0
C1640 C 0.65835 0.96969 0.86456 0.0
C1641 C 0.65453 0.98838 0.71755 0.0
H1642 H 0.6491 0.95083 0.65352 0.0
C1643 C 0.64635 0.97735 0.46188 0.0
C1644 C 0.65385 0.96597 0.43704 0.0
C1645 C 0.64604 0.97954 0.52462 0.0
C1646 C 0.65075 0.96136 0.67077 0.0
H1647 H 0.64108 0.00347 0.92858 0.0
H1648 H 0.64087 0.99921 0.81972 0.0
H1649 H 0.64863 0.95463 0.76296 0.0
H1650 H 0.66704 0.94809 0.45949 0.0
H1651 H 0.6663 0.95182 0.56859 0.0
H1652 H 0.65649 0.9951 0.62521 0.0
C1653 C 0.64597 0.99161 0.84891 0.0
C1654 C 0.65051 0.96354 0.73351 0.0
C1655 C 0.64606 0.99405 0.9114 0.0
C1656 C 0.66096 0.95682 0.47672 0.0
C1657 C 0.66056 0.95896 0.53942 0.0
C1658 C 0.65467 0.98621 0.65484 0.0
C1659 C 0.65221 0.97946 0.82457 0.0
C1660 C 0.65241 0.97708 0.75774 0.0
C1661 C 0.65312 0.97035 0.56409 0.0
C1662 C 0.65281 0.97267 0.63074 0.0
H1663 H 0.66338 0.96452 0.95664 0.0
H1664 H 0.66342 0.96031 0.84743 0.0
H1665 H 0.6563 0.99891 0.73452 0.0
H1666 H 0.64055 0.98448 0.43305 0.0
H1667 H 0.64006 0.98831 0.54233 0.0
C1668 C 0.53848 0.6524 0.05712 0.0
C1669 C 0.53037 0.64408 0.01763 0.0
C1670 C 0.53601 0.65225 0.11957 0.0
C1671 C 0.50923 0.64347 0.23506 0.0
H1672 H 0.54117 0.64484 0.34419 0.0
C1673 C 0.50316 0.65452 0.49178 0.0
C1674 C 0.51188 0.64713 0.53223 0.0
C1675 C 0.50524 0.65358 0.42908 0.0
C1676 C 0.53212 0.64432 0.31447 0.0
H1677 H 0.51328 0.62908 0.01323 0.0
H1678 H 0.50897 0.62877 0.12261 0.0
H1679 H 0.54505 0.64386 0.23513 0.0
H1680 H 0.52949 0.63272 0.53799 0.0
H1681 H 0.53309 0.63105 0.42881 0.0
H1682 H 0.4963 0.6437 0.31459 0.0
C1683 C 0.51716 0.63553 0.10497 0.0
C1684 C 0.53435 0.64393 0.2518 0.0
C1685 C 0.51962 0.6357 0.04227 0.0
C1686 C 0.52272 0.63874 0.50833 0.0
C1687 C 0.52478 0.63777 0.44561 0.0
C1688 C 0.50699 0.64385 0.29782 0.0
C1689 C 0.52538 0.64376 0.14443 0.0
C1690 C 0.52294 0.64361 0.21123 0.0
C1691 C 0.51607 0.64519 0.40515 0.0
C1692 C 0.51842 0.64437 0.33834 0.0
H1693 H 0.54663 0.65922 0.0398 0.0
H1694 H 0.54234 0.65896 0.14833 0.0
H1695 H 0.50019 0.64334 0.20519 0.0
H1696 H 0.49485 0.66124 0.50854 0.0
H1697 H 0.49849 0.65963 0.3994 0.0
C1698 C 0.83978 0.54755 0.49869 0.0
C1699 C 0.84676 0.53826 0.4592 0.0
C1700 C 0.83987 0.54531 0.56133 0.0
C1701 C 0.85901 0.52626 0.68278 0.0
H1702 H 0.82543 0.53425 0.7764 0.0
C1703 C 0.85261 0.50981 0.93381 0.0
C1704 C 0.84659 0.51967 0.97361 0.0
C1705 C 0.85284 0.51226 0.8713 0.0
C1706 C 0.83493 0.53211 0.75097 0.0
H1707 H 0.85943 0.51932 0.4555 0.0
H1708 H 0.85922 0.51518 0.56447 0.0
H1709 H 0.82529 0.53785 0.66693 0.0
H1710 H 0.83606 0.53983 0.97874 0.0
H1711 H 0.83649 0.54413 0.86943 0.0
H1712 H 0.86856 0.52033 0.76699 0.0
C1713 C 0.85384 0.52435 0.54695 0.0
C1714 C 0.83487 0.53419 0.68817 0.0
C1715 C 0.85381 0.52663 0.48422 0.0
C1716 C 0.84086 0.53208 0.94939 0.0
C1717 C 0.84099 0.53447 0.88674 0.0
C1718 C 0.85903 0.5241 0.74555 0.0
C1719 C 0.84688 0.53367 0.58635 0.0
C1720 C 0.84692 0.53131 0.65322 0.0
C1721 C 0.84698 0.52458 0.847 0.0
C1722 C 0.847 0.52702 0.78037 0.0
H1723 H 0.83409 0.55653 0.48141 0.0
H1724 H 0.83455 0.55282 0.59021 0.0
H1725 H 0.86855 0.52416 0.65758 0.0
H1726 H 0.85727 0.50024 0.951 0.0
H1727 H 0.85744 0.50438 0.84187 0.0
loop_
_geom_bond_atom_site_label_1
_geom_bond_atom_site_label_2
_geom_bond_distance
_geom_bond_site_symmetry_2
_ccdc_geom_bond_type
C0 C1 1.355 . S
C0 N3 1.366 1_556 S
C0 H5 0.923 1_456 S
C1 C0 1.355 . S
C1 N2 1.373 . S
C1 H29 0.930 1_455 S
N2 C1 1.373 . S
N2 C4 1.340 . S
N3 C0 1.366 1_554 S
N3 C4 1.321 1_554 S
N3 Co6 2.135 . S
C4 N2 1.340 . S
C4 N3 1.321 1_556 S
C4 H28 0.930 . S
H5 C0 0.923 1_654 S
Co6 N3 2.135 . S
Co6 N9 2.121 . S
Co6 O14 2.055 . S
Co6 O17 2.039 . S
Co6 N20 2.132 1_455 S
C7 O8 1.227 . S
C7 O17 1.265 . S
O8 C7 1.227 . S
N9 Co6 2.121 . S
N9 C11 1.375 . S
N9 C12 1.313 . S
C10 C11 1.338 . S
C10 N13 1.377 . S
C10 H30 0.930 . S
C11 N9 1.375 . S
C11 C10 1.338 . S
C11 H15 0.931 . S
C12 N9 1.313 . S
C12 N13 1.344 . S
C12 H16 0.930 . S
N13 C10 1.377 . S
N13 C12 1.344 . S
O14 Co6 2.055 . S
O14 C18 1.253 . S
H15 C11 0.931 . S
H16 C12 0.930 . S
O17 Co6 2.039 . S
O17 C7 1.265 . S
C18 O14 1.253 . S
C18 O19 1.227 . S
O19 C18 1.227 . S
N20 Co6 2.132 1_655 S
N20 C23 1.348 . S
N20 C24 1.351 . S
C21 C22 1.387 . S
C21 C25 1.391 . S
C22 C21 1.387 . S
C22 C23 1.369 . S
C22 H31 0.929 . S
C23 N20 1.348 . S
C23 C22 1.369 . S
C23 H26 0.928 1_655 S
C24 N20 1.351 . S
C24 C25 1.371 . S
C24 H27 0.931 . S
C25 C21 1.391 . S
C25 C24 1.371 . S
C25 H32 0.930 . S
H26 C23 0.928 1_455 S
H27 C24 0.931 . S
H28 C4 0.930 . S
H29 C1 0.930 1_655 S
H30 C10 0.930 . S
H31 C22 0.929 . S
H32 C25 0.930 . S
C33 C34 1.351 . S
C33 N36 1.368 . S
C33 H38 0.925 1_545 S
C34 C33 1.351 . S
C34 N35 1.373 . S
C34 H62 0.930 1_545 S
N35 C34 1.373 . S
N35 C37 1.340 . S
N36 C33 1.368 . S
N36 C37 1.321 . S
N36 Co39 2.135 . S
C37 N35 1.340 . S
C37 N36 1.321 . S
C37 H61 0.930 . S
H38 C33 0.925 1_565 S
Co39 N36 2.135 . S
Co39 N42 2.121 . S
Co39 O47 2.055 . S
Co39 O50 2.039 . S
Co39 N53 2.132 1_545 S
C40 O41 1.227 . S
C40 O50 1.265 . S
O41 C40 1.227 . S
N42 Co39 2.121 . S
N42 C44 1.375 . S
N42 C45 1.313 . S
C43 C44 1.338 . S
C43 N46 1.377 . S
C43 H63 0.930 . S
C44 N42 1.375 . S
C44 C43 1.338 . S
C44 H48 0.931 . S
C45 N42 1.313 . S
C45 N46 1.344 . S
C45 H49 0.930 . S
N46 C43 1.377 . S
N46 C45 1.344 . S
O47 Co39 2.055 . S
O47 C51 1.253 . S
H48 C44 0.931 . S
H49 C45 0.930 . S
O50 Co39 2.039 . S
O50 C40 1.265 . S
C51 O47 1.253 . S
C51 O52 1.227 . S
O52 C51 1.227 . S
N53 Co39 2.132 1_565 S
N53 C56 1.348 . S
N53 C57 1.351 . S
C54 C55 1.387 . S
C54 C58 1.391 . S
C55 C54 1.387 . S
C55 C56 1.369 . S
C55 H64 0.929 . S
C56 N53 1.348 . S
C56 C55 1.369 . S
C56 H59 0.928 1_565 S
C57 N53 1.351 . S
C57 C58 1.371 . S
C57 H60 0.931 . S
C58 C54 1.391 . S
C58 C57 1.371 . S
C58 H65 0.930 . S
H59 C56 0.928 1_545 S
H60 C57 0.931 . S
H61 C37 0.930 . S
H62 C34 0.930 1_565 S
H63 C43 0.930 . S
H64 C55 0.929 . S
H65 C58 0.930 . S
C66 C67 1.355 . S
C66 N69 1.366 1_556 S
C66 H71 0.929 1_556 S
C67 C66 1.355 . S
C67 N68 1.373 . S
C67 H95 0.930 . S
N68 C67 1.373 . S
N68 C70 1.340 . S
N69 C66 1.366 1_554 S
N69 C70 1.321 1_554 S
N69 Co72 2.135 . S
C70 N68 1.340 . S
C70 N69 1.321 1_556 S
C70 H94 0.930 . S
H71 C66 0.929 1_554 S
Co72 N69 2.135 . S
Co72 N75 2.121 . S
Co72 O80 2.055 . S
Co72 O83 2.039 . S
Co72 N86 2.140 . S
C73 O74 1.227 . S
C73 O83 1.265 . S
O74 C73 1.227 . S
N75 Co72 2.121 . S
N75 C77 1.375 . S
N75 C78 1.313 . S
C76 C77 1.338 . S
C76 N79 1.377 . S
C76 H96 0.930 . S
C77 N75 1.375 . S
C77 C76 1.338 . S
C77 H81 0.931 . S
C78 N75 1.313 . S
C78 N79 1.344 . S
C78 H82 0.930 . S
N79 C76 1.377 . S
N79 C78 1.344 . S
O80 Co72 2.055 . S
O80 C84 1.253 . S
H81 C77 0.931 . S
H82 C78 0.930 . S
O83 Co72 2.039 . S
O83 C73 1.265 . S
C84 O80 1.253 . S
C84 O85 1.227 . S
O85 C84 1.227 . S
N86 Co72 2.140 . S
N86 C89 1.346 . S
N86 C90 1.345 . S
C87 C88 1.387 . S
C87 C91 1.391 . S
C88 C87 1.387 . S
C88 C89 1.369 . S
C88 H97 0.929 . S
C89 N86 1.346 . S
C89 C88 1.369 . S
C89 H92 0.928 . S
C90 N86 1.345 . S
C90 C91 1.371 . S
C90 H93 0.931 . S
C91 C87 1.391 . S
C91 C90 1.371 . S
C91 H98 0.930 . S
H92 C89 0.928 . S
H93 C90 0.931 . S
H94 C70 0.930 . S
H95 C67 0.930 . S
H96 C76 0.930 . S
H97 C88 0.929 . S
H98 C91 0.930 . S
C99 C100 1.351 . S
C99 N102 1.368 . S
C99 H104 0.931 . S
C100 C99 1.351 . S
C100 N101 1.373 . S
C100 H128 0.930 . S
N101 C100 1.373 . S
N101 C103 1.340 . S
N102 C99 1.368 . S
N102 C103 1.321 . S
N102 Co105 2.135 . S
C103 N101 1.340 . S
C103 N102 1.321 . S
C103 H127 0.930 . S
H104 C99 0.931 . S
Co105 N102 2.135 . S
Co105 N108 2.121 . S
Co105 O113 2.055 . S
Co105 O116 2.039 . S
Co105 N119 2.140 . S
C106 O107 1.227 . S
C106 O116 1.265 . S
O107 C106 1.227 . S
N108 Co105 2.121 . S
N108 C110 1.375 . S
N108 C111 1.313 . S
C109 C110 1.338 . S
C109 N112 1.377 . S
C109 H129 0.930 . S
C110 N108 1.375 . S
C110 C109 1.338 . S
C110 H114 0.931 . S
C111 N108 1.313 . S
C111 N112 1.344 . S
C111 H115 0.930 . S
N112 C109 1.377 . S
N112 C111 1.344 . S
O113 Co105 2.055 . S
O113 C117 1.253 . S
H114 C110 0.931 . S
H115 C111 0.930 . S
O116 Co105 2.039 . S
O116 C106 1.265 . S
C117 O113 1.253 . S
C117 O118 1.227 . S
O118 C117 1.227 . S
N119 Co105 2.140 . S
N119 C122 1.346 . S
N119 C123 1.345 . S
C120 C121 1.387 . S
C120 C124 1.391 . S
C121 C120 1.387 . S
C121 C122 1.369 . S
C121 H130 0.929 . S
C122 N119 1.346 . S
C122 C121 1.369 . S
C122 H125 0.928 . S
C123 N119 1.345 . S
C123 C124 1.371 . S
C123 H126 0.931 . S
C124 C120 1.391 . S
C124 C123 1.371 . S
C124 H131 0.930 . S
H125 C122 0.928 . S
H126 C123 0.931 . S
H127 C103 0.930 . S
H128 C100 0.930 . S
H129 C109 0.930 . S
H130 C121 0.929 . S
H131 C124 0.930 . S
C132 C133 1.351 . S
C132 N135 1.368 . S
C132 H137 0.925 1_455 S
C133 C132 1.351 . S
C133 N134 1.373 . S
C133 H161 0.930 1_455 S
N134 C133 1.373 . S
N134 C136 1.340 . S
N135 C132 1.368 . S
N135 C136 1.321 . S
N135 Co138 2.135 . S
C136 N134 1.340 . S
C136 N135 1.321 . S
C136 H160 0.930 . S
H137 C132 0.925 1_655 S
Co138 N135 2.135 . S
Co138 N141 2.121 . S
Co138 O146 2.055 . S
Co138 O149 2.039 . S
Co138 N152 2.132 1_455 S
C139 O140 1.227 . S
C139 O149 1.265 . S
O140 C139 1.227 . S
N141 Co138 2.121 . S
N141 C143 1.375 . S
N141 C144 1.313 . S
C142 C143 1.338 . S
C142 N145 1.377 . S
C142 H162 0.930 . S
C143 N141 1.375 . S
C143 C142 1.338 . S
C143 H147 0.931 . S
C144 N141 1.313 . S
C144 N145 1.344 . S
C144 H148 0.930 . S
N145 C142 1.377 . S
N145 C144 1.344 . S
O146 Co138 2.055 . S
O146 C150 1.253 . S
H147 C143 0.931 . S
H148 C144 0.930 . S
O149 Co138 2.039 . S
O149 C139 1.265 . S
C150 O146 1.253 . S
C150 O151 1.227 . S
O151 C150 1.227 . S
N152 Co138 2.132 1_655 S
N152 C155 1.348 . S
N152 C156 1.351 . S
C153 C154 1.387 . S
C153 C157 1.391 . S
C154 C153 1.387 . S
C154 C155 1.369 . S
C154 H163 0.929 . S
C155 N152 1.348 . S
C155 C154 1.369 . S
C155 H158 0.928 1_655 S
C156 N152 1.351 . S
C156 C157 1.371 . S
C156 H159 0.931 . S
C157 C153 1.391 . S
C157 C156 1.371 . S
C157 H164 0.930 . S
H158 C155 0.928 1_455 S
H159 C156 0.931 . S
H160 C136 0.930 . S
H161 C133 0.930 1_655 S
H162 C142 0.930 . S
H163 C154 0.929 . S
H164 C157 0.930 . S
C165 C166 1.355 . S
C165 N168 1.366 1_554 S
C165 H170 0.923 1_544 S
C166 C165 1.355 . S
C166 N167 1.373 . S
C166 H194 0.930 1_545 S
N167 C166 1.373 . S
N167 C169 1.340 . S
N168 C165 1.366 1_556 S
N168 C169 1.321 1_556 S
N168 Co171 2.135 . S
C169 N167 1.340 . S
C169 N168 1.321 1_554 S
C169 H193 0.930 . S
H170 C165 0.923 1_566 S
Co171 N168 2.135 . S
Co171 N174 2.121 . S
Co171 O179 2.055 . S
Co171 O182 2.039 . S
Co171 N185 2.132 1_545 S
C172 O173 1.227 . S
C172 O182 1.265 . S
O173 C172 1.227 . S
N174 Co171 2.121 . S
N174 C176 1.375 . S
N174 C177 1.313 . S
C175 C176 1.338 . S
C175 N178 1.377 . S
C175 H195 0.930 . S
C176 N174 1.375 . S
C176 C175 1.338 . S
C176 H180 0.931 . S
C177 N174 1.313 . S
C177 N178 1.344 . S
C177 H181 0.930 . S
N178 C175 1.377 . S
N178 C177 1.344 . S
O179 Co171 2.055 . S
O179 C183 1.253 . S
H180 C176 0.931 . S
H181 C177 0.930 . S
O182 Co171 2.039 . S
O182 C172 1.265 . S
C183 O179 1.253 . S
C183 O184 1.227 . S
O184 C183 1.227 . S
N185 Co171 2.132 1_565 S
N185 C188 1.348 . S
N185 C189 1.351 . S
C186 C187 1.387 . S
C186 C190 1.391 . S
C187 C186 1.387 . S
C187 C188 1.369 . S
C187 H196 0.929 . S
C188 N185 1.348 . S
C188 C187 1.369 . S
C188 H191 0.928 1_565 S
C189 N185 1.351 . S
C189 C190 1.371 . S
C189 H192 0.931 . S
C190 C186 1.391 . S
C190 C189 1.371 . S
C190 H197 0.930 . S
H191 C188 0.928 1_545 S
H192 C189 0.931 . S
H193 C169 0.930 . S
H194 C166 0.930 1_565 S
H195 C175 0.930 . S
H196 C187 0.929 . S
H197 C190 0.930 . S
C198 C199 1.351 . S
C198 N201 1.368 . S
C198 H203 0.931 . S
C199 C198 1.351 . S
C199 N200 1.373 . S
C199 H227 0.930 . S
N200 C199 1.373 . S
N200 C202 1.340 . S
N201 C198 1.368 . S
N201 C202 1.321 . S
N201 Co204 2.135 . S
C202 N200 1.340 . S
C202 N201 1.321 . S
C202 H226 0.930 . S
H203 C198 0.931 . S
Co204 N201 2.135 . S
Co204 N207 2.121 . S
Co204 O212 2.055 . S
Co204 O215 2.039 . S
Co204 N218 2.140 . S
C205 O206 1.227 . S
C205 O215 1.265 . S
O206 C205 1.227 . S
N207 Co204 2.121 . S
N207 C209 1.375 . S
N207 C210 1.313 . S
C208 C209 1.338 . S
C208 N211 1.377 . S
C208 H228 0.930 . S
C209 N207 1.375 . S
C209 C208 1.338 . S
C209 H213 0.931 . S
C210 N207 1.313 . S
C210 N211 1.344 . S
C210 H214 0.930 . S
N211 C208 1.377 . S
N211 C210 1.344 . S
O212 Co204 2.055 . S
O212 C216 1.253 . S
H213 C209 0.931 . S
H214 C210 0.930 . S
O215 Co204 2.039 . S
O215 C205 1.265 . S
C216 O212 1.253 . S
C216 O217 1.227 . S
O217 C216 1.227 . S
N218 Co204 2.140 . S
N218 C221 1.346 . S
N218 C222 1.345 . S
C219 C220 1.387 . S
C219 C223 1.391 . S
C220 C219 1.387 . S
C220 C221 1.369 . S
C220 H229 0.929 . S
C221 N218 1.346 . S
C221 C220 1.369 . S
C221 H224 0.928 . S
C222 N218 1.345 . S
C222 C223 1.371 . S
C222 H225 0.931 . S
C223 C219 1.391 . S
C223 C222 1.371 . S
C223 H230 0.930 . S
H224 C221 0.928 . S
H225 C222 0.931 . S
H226 C202 0.930 . S
H227 C199 0.930 . S
H228 C208 0.930 . S
H229 C220 0.929 . S
H230 C223 0.930 . S
C231 C232 1.355 . S
C231 N234 1.366 1_554 S
C231 H236 0.929 1_554 S
C232 C231 1.355 . S
C232 N233 1.373 . S
C232 H260 0.930 . S
N233 C232 1.373 . S
N233 C235 1.340 . S
N234 C231 1.366 1_556 S
N234 C235 1.321 1_556 S
N234 Co237 2.135 . S
C235 N233 1.340 . S
C235 N234 1.321 1_554 S
C235 H259 0.930 . S
H236 C231 0.929 1_556 S
Co237 N234 2.135 . S
Co237 N240 2.121 . S
Co237 O245 2.055 . S
Co237 O248 2.039 . S
Co237 N251 2.140 . S
C238 O239 1.227 . S
C238 O248 1.265 . S
O239 C238 1.227 . S
N240 Co237 2.121 . S
N240 C242 1.375 . S
N240 C243 1.313 . S
C241 C242 1.338 . S
C241 N244 1.377 . S
C241 H261 0.930 . S
C242 N240 1.375 . S
C242 C241 1.338 . S
C242 H246 0.931 . S
C243 N240 1.313 . S
C243 N244 1.344 . S
C243 H247 0.930 . S
N244 C241 1.377 . S
N244 C243 1.344 . S
O245 Co237 2.055 . S
O245 C249 1.253 . S
H246 C242 0.931 . S
H247 C243 0.930 . S
O248 Co237 2.039 . S
O248 C238 1.265 . S
C249 O245 1.253 . S
C249 O250 1.227 . S
O250 C249 1.227 . S
N251 Co237 2.140 . S
N251 C254 1.346 . S
N251 C255 1.345 . S
C252 C253 1.387 . S
C252 C256 1.391 . S
C253 C252 1.387 . S
C253 C254 1.369 . S
C253 H262 0.929 . S
C254 N251 1.346 . S
C254 C253 1.369 . S
C254 H257 0.928 . S
C255 N251 1.345 . S
C255 C256 1.371 . S
C255 H258 0.931 . S
C256 C252 1.391 . S
C256 C255 1.371 . S
C256 H263 0.930 . S
H257 C254 0.928 . S
H258 C255 0.931 . S
H259 C235 0.930 . S
H260 C232 0.930 . S
H261 C241 0.930 . S
H262 C253 0.929 . S
H263 C256 0.930 . S
C264 C265 1.355 . S
C264 N267 1.366 1_554 S
C264 H269 0.923 1_654 S
C265 C264 1.355 . S
C265 N266 1.373 . S
C265 H293 0.930 1_655 S
N266 C265 1.373 . S
N266 C268 1.340 . S
N267 C264 1.366 1_556 S
N267 C268 1.321 1_556 S
N267 Co270 2.135 . S
C268 N266 1.340 . S
C268 N267 1.321 1_554 S
C268 H292 0.930 . S
H269 C264 0.923 1_456 S
Co270 N267 2.135 . S
Co270 N273 2.121 . S
Co270 O278 2.055 . S
Co270 O281 2.039 . S
Co270 N284 2.132 1_655 S
C271 O272 1.227 . S
C271 O281 1.265 . S
O272 C271 1.227 . S
N273 Co270 2.121 . S
N273 C275 1.375 . S
N273 C276 1.313 . S
C274 C275 1.338 . S
C274 N277 1.377 . S
C274 H294 0.930 . S
C275 N273 1.375 . S
C275 C274 1.338 . S
C275 H279 0.931 . S
C276 N273 1.313 . S
C276 N277 1.344 . S
C276 H280 0.930 . S
N277 C274 1.377 . S
N277 C276 1.344 . S
O278 Co270 2.055 . S
O278 C282 1.253 . S
H279 C275 0.931 . S
H280 C276 0.930 . S
O281 Co270 2.039 . S
O281 C271 1.265 . S
C282 O278 1.253 . S
C282 O283 1.227 . S
O283 C282 1.227 . S
N284 Co270 2.132 1_455 S
N284 C287 1.348 . S
N284 C288 1.351 . S
C285 C286 1.387 . S
C285 C289 1.391 . S
C286 C285 1.387 . S
C286 C287 1.369 . S
C286 H295 0.929 . S
C287 N284 1.348 . S
C287 C286 1.369 . S
C287 H290 0.928 1_455 S
C288 N284 1.351 . S
C288 C289 1.371 . S
C288 H291 0.931 . S
C289 C285 1.391 . S
C289 C288 1.371 . S
C289 H296 0.930 . S
H290 C287 0.928 1_655 S
H291 C288 0.931 . S
H292 C268 0.930 . S
H293 C265 0.930 1_455 S
H294 C274 0.930 . S
H295 C286 0.929 . S
H296 C289 0.930 . S
C297 C298 1.351 . S
C297 N300 1.368 . S
C297 H302 0.925 1_565 S
C298 C297 1.351 . S
C298 N299 1.373 . S
C298 H326 0.930 1_565 S
N299 C298 1.373 . S
N299 C301 1.340 . S
N300 C297 1.368 . S
N300 C301 1.321 . S
N300 Co303 2.135 . S
C301 N299 1.340 . S
C301 N300 1.321 . S
C301 H325 0.930 . S
H302 C297 0.925 1_545 S
Co303 N300 2.135 . S
Co303 N306 2.121 . S
Co303 O311 2.055 . S
Co303 O314 2.039 . S
Co303 N317 2.132 1_565 S
C304 O305 1.227 . S
C304 O314 1.265 . S
O305 C304 1.227 . S
N306 Co303 2.121 . S
N306 C308 1.375 . S
N306 C309 1.313 . S
C307 C308 1.338 . S
C307 N310 1.377 . S
C307 H327 0.930 . S
C308 N306 1.375 . S
C308 C307 1.338 . S
C308 H312 0.931 . S
C309 N306 1.313 . S
C309 N310 1.344 . S
C309 H313 0.930 . S
N310 C307 1.377 . S
N310 C309 1.344 . S
O311 Co303 2.055 . S
O311 C315 1.253 . S
H312 C308 0.931 . S
H313 C309 0.930 . S
O314 Co303 2.039 . S
O314 C304 1.265 . S
C315 O311 1.253 . S
C315 O316 1.227 . S
O316 C315 1.227 . S
N317 Co303 2.132 1_545 S
N317 C320 1.348 . S
N317 C321 1.351 . S
C318 C319 1.387 . S
C318 C322 1.391 . S
C319 C318 1.387 . S
C319 C320 1.369 . S
C319 H328 0.929 . S
C320 N317 1.348 . S
C320 C319 1.369 . S
C320 H323 0.928 1_545 S
C321 N317 1.351 . S
C321 C322 1.371 . S
C321 H324 0.931 . S
C322 C318 1.391 . S
C322 C321 1.371 . S
C322 H329 0.930 . S
H323 C320 0.928 1_565 S
H324 C321 0.931 . S
H325 C301 0.930 . S
H326 C298 0.930 1_545 S
H327 C307 0.930 . S
H328 C319 0.929 . S
H329 C322 0.930 . S
C330 C331 1.355 . S
C330 N333 1.366 1_554 S
C330 H335 0.929 1_554 S
C331 C330 1.355 . S
C331 N332 1.373 . S
C331 H359 0.930 . S
N332 C331 1.373 . S
N332 C334 1.340 . S
N333 C330 1.366 1_556 S
N333 C334 1.321 1_556 S
N333 Co336 2.135 . S
C334 N332 1.340 . S
C334 N333 1.321 1_554 S
C334 H358 0.930 . S
H335 C330 0.929 1_556 S
Co336 N333 2.135 . S
Co336 N339 2.121 . S
Co336 O344 2.055 . S
Co336 O347 2.039 . S
Co336 N350 2.140 . S
C337 O338 1.227 . S
C337 O347 1.265 . S
O338 C337 1.227 . S
N339 Co336 2.121 . S
N339 C341 1.375 . S
N339 C342 1.313 . S
C340 C341 1.338 . S
C340 N343 1.377 . S
C340 H360 0.930 . S
C341 N339 1.375 . S
C341 C340 1.338 . S
C341 H345 0.931 . S
C342 N339 1.313 . S
C342 N343 1.344 . S
C342 H346 0.930 . S
N343 C340 1.377 . S
N343 C342 1.344 . S
O344 Co336 2.055 . S
O344 C348 1.253 . S
H345 C341 0.931 . S
H346 C342 0.930 . S
O347 Co336 2.039 . S
O347 C337 1.265 . S
C348 O344 1.253 . S
C348 O349 1.227 . S
O349 C348 1.227 . S
N350 Co336 2.140 . S
N350 C353 1.346 . S
N350 C354 1.345 . S
C351 C352 1.387 . S
C351 C355 1.391 . S
C352 C351 1.387 . S
C352 C353 1.369 . S
C352 H361 0.929 . S
C353 N350 1.346 . S
C353 C352 1.369 . S
C353 H356 0.928 . S
C354 N350 1.345 . S
C354 C355 1.371 . S
C354 H357 0.931 . S
C355 C351 1.391 . S
C355 C354 1.371 . S
C355 H362 0.930 . S
H356 C353 0.928 . S
H357 C354 0.931 . S
H358 C334 0.930 . S
H359 C331 0.930 . S
H360 C340 0.930 . S
H361 C352 0.929 . S
H362 C355 0.930 . S
C363 C364 1.351 . S
C363 N366 1.368 . S
C363 H368 0.931 . S
C364 C363 1.351 . S
C364 N365 1.373 . S
C364 H392 0.930 . S
N365 C364 1.373 . S
N365 C367 1.340 . S
N366 C363 1.368 . S
N366 C367 1.321 . S
N366 Co369 2.135 . S
C367 N365 1.340 . S
C367 N366 1.321 . S
C367 H391 0.930 . S
H368 C363 0.931 . S
Co369 N366 2.135 . S
Co369 N372 2.121 . S
Co369 O377 2.055 . S
Co369 O380 2.039 . S
Co369 N383 2.140 . S
C370 O371 1.227 . S
C370 O380 1.265 . S
O371 C370 1.227 . S
N372 Co369 2.121 . S
N372 C374 1.375 . S
N372 C375 1.313 . S
C373 C374 1.338 . S
C373 N376 1.377 . S
C373 H393 0.930 . S
C374 N372 1.375 . S
C374 C373 1.338 . S
C374 H378 0.931 . S
C375 N372 1.313 . S
C375 N376 1.344 . S
C375 H379 0.930 . S
N376 C373 1.377 . S
N376 C375 1.344 . S
O377 Co369 2.055 . S
O377 C381 1.253 . S
H378 C374 0.931 . S
H379 C375 0.930 . S
O380 Co369 2.039 . S
O380 C370 1.265 . S
C381 O377 1.253 . S
C381 O382 1.227 . S
O382 C381 1.227 . S
N383 Co369 2.140 . S
N383 C386 1.346 . S
N383 C387 1.345 . S
C384 C385 1.387 . S
C384 C388 1.391 . S
C385 C384 1.387 . S
C385 C386 1.369 . S
C385 H394 0.929 . S
C386 N383 1.346 . S
C386 C385 1.369 . S
C386 H389 0.928 . S
C387 N383 1.345 . S
C387 C388 1.371 . S
C387 H390 0.931 . S
C388 C384 1.391 . S
C388 C387 1.371 . S
C388 H395 0.930 . S
H389 C386 0.928 . S
H390 C387 0.931 . S
H391 C367 0.930 . S
H392 C364 0.930 . S
H393 C373 0.930 . S
H394 C385 0.929 . S
H395 C388 0.930 . S
C396 C397 1.351 . S
C396 N399 1.368 . S
C396 H401 0.925 1_655 S
C397 C396 1.351 . S
C397 N398 1.373 . S
C397 H425 0.930 1_655 S
N398 C397 1.373 . S
N398 C400 1.340 . S
N399 C396 1.368 . S
N399 C400 1.321 . S
N399 Co402 2.135 . S
C400 N398 1.340 . S
C400 N399 1.321 . S
C400 H424 0.930 . S
H401 C396 0.925 1_455 S
Co402 N399 2.135 . S
Co402 N405 2.121 . S
Co402 O410 2.055 . S
Co402 O413 2.039 . S
Co402 N416 2.132 1_655 S
C403 O404 1.227 . S
C403 O413 1.265 . S
O404 C403 1.227 . S
N405 Co402 2.121 . S
N405 C407 1.375 . S
N405 C408 1.313 . S
C406 C407 1.338 . S
C406 N409 1.377 . S
C406 H426 0.930 . S
C407 N405 1.375 . S
C407 C406 1.338 . S
C407 H411 0.931 . S
C408 N405 1.313 . S
C408 N409 1.344 . S
C408 H412 0.930 . S
N409 C406 1.377 . S
N409 C408 1.344 . S
O410 Co402 2.055 . S
O410 C414 1.253 . S
H411 C407 0.931 . S
H412 C408 0.930 . S
O413 Co402 2.039 . S
O413 C403 1.265 . S
C414 O410 1.253 . S
C414 O415 1.227 . S
O415 C414 1.227 . S
N416 Co402 2.132 1_455 S
N416 C419 1.348 . S
N416 C420 1.351 . S
C417 C418 1.387 . S
C417 C421 1.391 . S
C418 C417 1.387 . S
C418 C419 1.369 . S
C418 H427 0.929 . S
C419 N416 1.348 . S
C419 C418 1.369 . S
C419 H422 0.928 1_455 S
C420 N416 1.351 . S
C420 C421 1.371 . S
C420 H423 0.931 . S
C421 C417 1.391 . S
C421 C420 1.371 . S
C421 H428 0.930 . S
H422 C419 0.928 1_655 S
H423 C420 0.931 . S
H424 C400 0.930 . S
H425 C397 0.930 1_455 S
H426 C406 0.930 . S
H427 C418 0.929 . S
H428 C421 0.930 . S
C429 C430 1.355 . S
C429 N432 1.366 1_556 S
C429 H434 0.923 1_566 S
C430 C429 1.355 . S
C430 N431 1.373 . S
C430 H458 0.930 1_565 S
N431 C430 1.373 . S
N431 C433 1.340 . S
N432 C429 1.366 1_554 S
N432 C433 1.321 1_554 S
N432 Co435 2.135 . S
C433 N431 1.340 . S
C433 N432 1.321 1_556 S
C433 H457 0.930 . S
H434 C429 0.923 1_544 S
Co435 N432 2.135 . S
Co435 N438 2.121 . S
Co435 O443 2.055 . S
Co435 O446 2.039 . S
Co435 N449 2.132 1_565 S
C436 O437 1.227 . S
C436 O446 1.265 . S
O437 C436 1.227 . S
N438 Co435 2.121 . S
N438 C440 1.375 . S
N438 C441 1.313 . S
C439 C440 1.338 . S
C439 N442 1.377 . S
C439 H459 0.930 . S
C440 N438 1.375 . S
C440 C439 1.338 . S
C440 H444 0.931 . S
C441 N438 1.313 . S
C441 N442 1.344 . S
C441 H445 0.930 . S
N442 C439 1.377 . S
N442 C441 1.344 . S
O443 Co435 2.055 . S
O443 C447 1.253 . S
H444 C440 0.931 . S
H445 C441 0.930 . S
O446 Co435 2.039 . S
O446 C436 1.265 . S
C447 O443 1.253 . S
C447 O448 1.227 . S
O448 C447 1.227 . S
N449 Co435 2.132 1_545 S
N449 C452 1.348 . S
N449 C453 1.351 . S
C450 C451 1.387 . S
C450 C454 1.391 . S
C451 C450 1.387 . S
C451 C452 1.369 . S
C451 H460 0.929 . S
C452 N449 1.348 . S
C452 C451 1.369 . S
C452 H455 0.928 1_545 S
C453 N449 1.351 . S
C453 C454 1.371 . S
C453 H456 0.931 . S
C454 C450 1.391 . S
C454 C453 1.371 . S
C454 H461 0.930 . S
H455 C452 0.928 1_565 S
H456 C453 0.931 . S
H457 C433 0.930 . S
H458 C430 0.930 1_545 S
H459 C439 0.930 . S
H460 C451 0.929 . S
H461 C454 0.930 . S
C462 C463 1.351 . S
C462 N465 1.368 . S
C462 H467 0.931 . S
C463 C462 1.351 . S
C463 N464 1.373 . S
C463 H491 0.930 . S
N464 C463 1.373 . S
N464 C466 1.340 . S
N465 C462 1.368 . S
N465 C466 1.321 . S
N465 Co468 2.135 . S
C466 N464 1.340 . S
C466 N465 1.321 . S
C466 H490 0.930 . S
H467 C462 0.931 . S
Co468 N465 2.135 . S
Co468 N471 2.121 . S
Co468 O476 2.055 . S
Co468 O479 2.039 . S
Co468 N482 2.140 . S
C469 O470 1.227 . S
C469 O479 1.265 . S
O470 C469 1.227 . S
N471 Co468 2.121 . S
N471 C473 1.375 . S
N471 C474 1.313 . S
C472 C473 1.338 . S
C472 N475 1.377 . S
C472 H492 0.930 . S
C473 N471 1.375 . S
C473 C472 1.338 . S
C473 H477 0.931 . S
C474 N471 1.313 . S
C474 N475 1.344 . S
C474 H478 0.930 . S
N475 C472 1.377 . S
N475 C474 1.344 . S
O476 Co468 2.055 . S
O476 C480 1.253 . S
H477 C473 0.931 . S
H478 C474 0.930 . S
O479 Co468 2.039 . S
O479 C469 1.265 . S
C480 O476 1.253 . S
C480 O481 1.227 . S
O481 C480 1.227 . S
N482 Co468 2.140 . S
N482 C485 1.346 . S
N482 C486 1.345 . S
C483 C484 1.387 . S
C483 C487 1.391 . S
C484 C483 1.387 . S
C484 C485 1.369 . S
C484 H493 0.929 . S
C485 N482 1.346 . S
C485 C484 1.369 . S
C485 H488 0.928 . S
C486 N482 1.345 . S
C486 C487 1.371 . S
C486 H489 0.931 . S
C487 C483 1.391 . S
C487 C486 1.371 . S
C487 H494 0.930 . S
H488 C485 0.928 . S
H489 C486 0.931 . S
H490 C466 0.930 . S
H491 C463 0.930 . S
H492 C472 0.930 . S
H493 C484 0.929 . S
H494 C487 0.930 . S
C495 C496 1.355 . S
C495 N498 1.366 1_556 S
C495 H500 0.929 1_556 S
C496 C495 1.355 . S
C496 N497 1.373 . S
C496 H524 0.930 . S
N497 C496 1.373 . S
N497 C499 1.340 . S
N498 C495 1.366 1_554 S
N498 C499 1.321 1_554 S
N498 Co501 2.135 . S
C499 N497 1.340 . S
C499 N498 1.321 1_556 S
C499 H523 0.930 . S
H500 C495 0.929 1_554 S
Co501 N498 2.135 . S
Co501 N504 2.121 . S
Co501 O509 2.055 . S
Co501 O512 2.039 . S
Co501 N515 2.140 . S
C502 O503 1.227 . S
C502 O512 1.265 . S
O503 C502 1.227 . S
N504 Co501 2.121 . S
N504 C506 1.375 . S
N504 C507 1.313 . S
C505 C506 1.338 . S
C505 N508 1.377 . S
C505 H525 0.930 . S
C506 N504 1.375 . S
C506 C505 1.338 . S
C506 H510 0.931 . S
C507 N504 1.313 . S
C507 N508 1.344 . S
C507 H511 0.930 . S
N508 C505 1.377 . S
N508 C507 1.344 . S
O509 Co501 2.055 . S
O509 C513 1.253 . S
H510 C506 0.931 . S
H511 C507 0.930 . S
O512 Co501 2.039 . S
O512 C502 1.265 . S
C513 O509 1.253 . S
C513 O514 1.227 . S
O514 C513 1.227 . S
N515 Co501 2.140 . S
N515 C518 1.346 . S
N515 C519 1.345 . S
C516 C517 1.387 . S
C516 C520 1.391 . S
C517 C516 1.387 . S
C517 C518 1.369 . S
C517 H526 0.929 . S
C518 N515 1.346 . S
C518 C517 1.369 . S
C518 H521 0.928 . S
C519 N515 1.345 . S
C519 C520 1.371 . S
C519 H522 0.931 . S
C520 C516 1.391 . S
C520 C519 1.371 . S
C520 H527 0.930 . S
H521 C518 0.928 . S
H522 C519 0.931 . S
H523 C499 0.930 . S
H524 C496 0.930 . S
H525 C505 0.930 . S
H526 C517 0.929 . S
H527 C520 0.930 . S
C528 C529 1.349 . S
C528 C530 1.327 . S
C528 H553 0.950 . S
C529 C528 1.349 . S
C529 C545 1.349 . S
C530 C528 1.327 . S
C530 C549 1.429 . S
C530 H554 0.950 . S
C531 C548 1.574 . S
C531 C550 1.368 . S
C531 H555 0.949 . S
H532 C536 0.949 . S
C533 C534 1.349 . S
C533 C535 1.327 . S
C533 H556 0.950 . S
C534 C533 1.349 . S
C534 C546 1.349 . S
C535 C533 1.327 . S
C535 C551 1.429 . S
C535 H557 0.950 . S
C536 H532 0.949 . S
C536 C544 1.574 . S
C536 C552 1.368 . S
H537 C545 0.950 . S
H538 C543 0.950 . S
H539 C544 0.949 . S
H540 C546 0.950 . S
H541 C547 0.950 . S
H542 C548 0.949 . S
C543 H538 0.950 . S
C543 C545 1.327 . S
C543 C549 1.429 . S
C544 C536 1.574 . S
C544 H539 0.949 . S
C544 C550 1.368 . S
C545 C529 1.349 . S
C545 H537 0.950 . S
C545 C543 1.327 . S
C546 C534 1.349 . S
C546 H540 0.950 . S
C546 C547 1.327 . S
C547 H541 0.950 . S
C547 C546 1.327 . S
C547 C551 1.429 . S
C548 C531 1.574 . S
C548 H542 0.949 . S
C548 C552 1.368 . S
C549 C530 1.429 . S
C549 C543 1.429 . S
C549 C550 1.523 . S
C550 C531 1.368 . S
C550 C544 1.368 . S
C550 C549 1.523 . S
C551 C535 1.429 . S
C551 C547 1.429 . S
C551 C552 1.523 . S
C552 C536 1.368 . S
C552 C548 1.368 . S
C552 C551 1.523 . S
H553 C528 0.950 . S
H554 C530 0.950 . S
H555 C531 0.949 . S
H556 C533 0.950 . S
H557 C535 0.950 . S
C558 C559 1.349 . S
C558 C560 1.327 . S
C558 H583 0.950 . S
C559 C558 1.349 . S
C559 C575 1.349 . S
C560 C558 1.327 . S
C560 C579 1.429 . S
C560 H584 0.950 . S
C561 C578 1.574 . S
C561 C580 1.368 . S
C561 H585 0.949 . S
H562 C566 0.949 . S
C563 C564 1.349 . S
C563 C565 1.327 . S
C563 H586 0.950 . S
C564 C563 1.349 . S
C564 C576 1.349 . S
C565 C563 1.327 . S
C565 C581 1.429 . S
C565 H587 0.950 . S
C566 H562 0.949 . S
C566 C574 1.574 . S
C566 C582 1.368 . S
H567 C575 0.950 . S
H568 C573 0.950 . S
H569 C574 0.949 . S
H570 C576 0.950 . S
H571 C577 0.950 . S
H572 C578 0.949 . S
C573 H568 0.950 . S
C573 C575 1.327 . S
C573 C579 1.429 . S
C574 C566 1.574 . S
C574 H569 0.949 . S
C574 C580 1.368 . S
C575 C559 1.349 . S
C575 H567 0.950 . S
C575 C573 1.327 . S
C576 C564 1.349 . S
C576 H570 0.950 . S
C576 C577 1.327 . S
C577 H571 0.950 . S
C577 C576 1.327 . S
C577 C581 1.429 . S
C578 C561 1.574 . S
C578 H572 0.949 . S
C578 C582 1.368 . S
C579 C560 1.429 . S
C579 C573 1.429 . S
C579 C580 1.523 . S
C580 C561 1.368 . S
C580 C574 1.368 . S
C580 C579 1.523 . S
C581 C565 1.429 . S
C581 C577 1.429 . S
C581 C582 1.523 . S
C582 C566 1.368 . S
C582 C578 1.368 . S
C582 C581 1.523 . S
H583 C558 0.950 . S
H584 C560 0.950 . S
H585 C561 0.949 . S
H586 C563 0.950 . S
H587 C565 0.950 . S
C588 C589 1.349 . S
C588 C590 1.327 . S
C588 H613 0.950 . S
C589 C588 1.349 . S
C589 C605 1.349 . S
C590 C588 1.327 . S
C590 C609 1.429 . S
C590 H614 0.950 . S
C591 C608 1.574 . S
C591 C610 1.368 . S
C591 H615 0.949 . S
H592 C596 0.949 . S
C593 C594 1.349 . S
C593 C595 1.327 . S
C593 H616 0.950 . S
C594 C593 1.349 . S
C594 C606 1.349 . S
C595 C593 1.327 . S
C595 C611 1.429 . S
C595 H617 0.950 . S
C596 H592 0.949 . S
C596 C604 1.574 . S
C596 C612 1.368 . S
H597 C605 0.950 . S
H598 C603 0.950 . S
H599 C604 0.949 . S
H600 C606 0.950 . S
H601 C607 0.950 . S
H602 C608 0.949 . S
C603 H598 0.950 . S
C603 C605 1.327 . S
C603 C609 1.429 . S
C604 C596 1.574 . S
C604 H599 0.949 . S
C604 C610 1.368 . S
C605 C589 1.349 . S
C605 H597 0.950 . S
C605 C603 1.327 . S
C606 C594 1.349 . S
C606 H600 0.950 . S
C606 C607 1.327 . S
C607 H601 0.950 . S
C607 C606 1.327 . S
C607 C611 1.429 . S
C608 C591 1.574 . S
C608 H602 0.949 . S
C608 C612 1.368 . S
C609 C590 1.429 . S
C609 C603 1.429 . S
C609 C610 1.523 . S
C610 C591 1.368 . S
C610 C604 1.368 . S
C610 C609 1.523 . S
C611 C595 1.429 . S
C611 C607 1.429 . S
C611 C612 1.523 . S
C612 C596 1.368 . S
C612 C608 1.368 . S
C612 C611 1.523 . S
H613 C588 0.950 . S
H614 C590 0.950 . S
H615 C591 0.949 . S
H616 C593 0.950 . S
H617 C595 0.950 . S
C618 C619 1.349 . S
C618 C620 1.327 . S
C618 H643 0.950 . S
C619 C618 1.349 . S
C619 C635 1.349 . S
C620 C618 1.327 . S
C620 C639 1.429 . S
C620 H644 0.950 . S
C621 C638 1.574 . S
C621 C640 1.368 . S
C621 H645 0.949 . S
H622 C626 0.949 . S
C623 C624 1.349 . S
C623 C625 1.327 . S
C623 H646 0.950 . S
C624 C623 1.349 . S
C624 C636 1.349 . S
C625 C623 1.327 . S
C625 C641 1.429 . S
C625 H647 0.950 . S
C626 H622 0.949 . S
C626 C634 1.574 . S
C626 C642 1.368 . S
H627 C635 0.950 . S
H628 C633 0.950 . S
H629 C634 0.949 . S
H630 C636 0.950 . S
H631 C637 0.950 . S
H632 C638 0.949 . S
C633 H628 0.950 . S
C633 C635 1.327 . S
C633 C639 1.429 . S
C634 C626 1.574 . S
C634 H629 0.949 . S
C634 C640 1.368 . S
C635 C619 1.349 . S
C635 H627 0.950 . S
C635 C633 1.327 . S
C636 C624 1.349 . S
C636 H630 0.950 . S
C636 C637 1.327 . S
C637 H631 0.950 . S
C637 C636 1.327 . S
C637 C641 1.429 . S
C638 C621 1.574 . S
C638 H632 0.949 . S
C638 C642 1.368 . S
C639 C620 1.429 . S
C639 C633 1.429 . S
C639 C640 1.523 . S
C640 C621 1.368 . S
C640 C634 1.368 . S
C640 C639 1.523 . S
C641 C625 1.429 . S
C641 C637 1.429 . S
C641 C642 1.523 . S
C642 C626 1.368 . S
C642 C638 1.368 . S
C642 C641 1.523 . S
H643 C618 0.950 . S
H644 C620 0.950 . S
H645 C621 0.949 . S
H646 C623 0.950 . S
H647 C625 0.950 . S
C648 C649 1.349 . S
C648 C650 1.327 . S
C648 H673 0.950 . S
C649 C648 1.349 . S
C649 C665 1.349 . S
C650 C648 1.327 . S
C650 C669 1.429 . S
C650 H674 0.950 . S
C651 C668 1.574 . S
C651 C670 1.368 . S
C651 H675 0.949 . S
H652 C656 0.949 . S
C653 C654 1.349 . S
C653 C655 1.327 . S
C653 H676 0.950 . S
C654 C653 1.349 . S
C654 C666 1.349 . S
C655 C653 1.327 . S
C655 C671 1.429 . S
C655 H677 0.950 . S
C656 H652 0.949 . S
C656 C664 1.574 . S
C656 C672 1.368 . S
H657 C665 0.950 . S
H658 C663 0.950 . S
H659 C664 0.949 . S
H660 C666 0.950 . S
H661 C667 0.950 . S
H662 C668 0.949 . S
C663 H658 0.950 . S
C663 C665 1.327 . S
C663 C669 1.429 . S
C664 C656 1.574 . S
C664 H659 0.949 . S
C664 C670 1.368 . S
C665 C649 1.349 . S
C665 H657 0.950 . S
C665 C663 1.327 . S
C666 C654 1.349 . S
C666 H660 0.950 . S
C666 C667 1.327 . S
C667 H661 0.950 . S
C667 C666 1.327 . S
C667 C671 1.429 . S
C668 C651 1.574 . S
C668 H662 0.949 . S
C668 C672 1.368 . S
C669 C650 1.429 . S
C669 C663 1.429 . S
C669 C670 1.523 . S
C670 C651 1.368 . S
C670 C664 1.368 . S
C670 C669 1.523 . S
C671 C655 1.429 . S
C671 C667 1.429 . S
C671 C672 1.523 . S
C672 C656 1.368 . S
C672 C668 1.368 . S
C672 C671 1.523 . S
H673 C648 0.950 . S
H674 C650 0.950 . S
H675 C651 0.949 . S
H676 C653 0.950 . S
H677 C655 0.950 . S
C678 C679 1.349 . S
C678 C680 1.327 . S
C678 H703 0.950 . S
C679 C678 1.349 . S
C679 C695 1.349 . S
C680 C678 1.327 . S
C680 C699 1.429 . S
C680 H704 0.950 . S
C681 C698 1.574 . S
C681 C700 1.368 . S
C681 H705 0.949 . S
H682 C686 0.949 . S
C683 C684 1.349 . S
C683 C685 1.327 . S
C683 H706 0.950 . S
C684 C683 1.349 . S
C684 C696 1.349 . S
C685 C683 1.327 . S
C685 C701 1.429 . S
C685 H707 0.950 . S
C686 H682 0.949 . S
C686 C694 1.574 . S
C686 C702 1.368 . S
H687 C695 0.950 . S
H688 C693 0.950 . S
H689 C694 0.949 . S
H690 C696 0.950 . S
H691 C697 0.950 . S
H692 C698 0.949 . S
C693 H688 0.950 . S
C693 C695 1.327 . S
C693 C699 1.429 . S
C694 C686 1.574 . S
C694 H689 0.949 . S
C694 C700 1.368 . S
C695 C679 1.349 . S
C695 H687 0.950 . S
C695 C693 1.327 . S
C696 C684 1.349 . S
C696 H690 0.950 . S
C696 C697 1.327 . S
C697 H691 0.950 . S
C697 C696 1.327 . S
C697 C701 1.429 . S
C698 C681 1.574 . S
C698 H692 0.949 . S
C698 C702 1.368 . S
C699 C680 1.429 . S
C699 C693 1.429 . S
C699 C700 1.523 . S
C700 C681 1.368 . S
C700 C694 1.368 . S
C700 C699 1.523 . S
C701 C685 1.429 . S
C701 C697 1.429 . S
C701 C702 1.523 . S
C702 C686 1.368 . S
C702 C698 1.368 . S
C702 C701 1.523 . S
H703 C678 0.950 . S
H704 C680 0.950 . S
H705 C681 0.949 . S
H706 C683 0.950 . S
H707 C685 0.950 . S
C708 C709 1.349 . S
C708 C710 1.327 . S
C708 H733 0.950 . S
C709 C708 1.349 . S
C709 C725 1.349 . S
C710 C708 1.327 . S
C710 C729 1.429 . S
C710 H734 0.950 . S
C711 C728 1.574 . S
C711 C730 1.368 . S
C711 H735 0.949 . S
H712 C716 0.949 . S
C713 C714 1.349 . S
C713 C715 1.327 . S
C713 H736 0.950 . S
C714 C713 1.349 . S
C714 C726 1.349 . S
C715 C713 1.327 . S
C715 C731 1.429 . S
C715 H737 0.950 . S
C716 H712 0.949 . S
C716 C724 1.574 . S
C716 C732 1.368 . S
H717 C725 0.950 . S
H718 C723 0.950 . S
H719 C724 0.949 . S
H720 C726 0.950 . S
H721 C727 0.950 . S
H722 C728 0.949 . S
C723 H718 0.950 . S
C723 C725 1.327 . S
C723 C729 1.429 . S
C724 C716 1.574 . S
C724 H719 0.949 . S
C724 C730 1.368 . S
C725 C709 1.349 . S
C725 H717 0.950 . S
C725 C723 1.327 . S
C726 C714 1.349 . S
C726 H720 0.950 . S
C726 C727 1.327 . S
C727 H721 0.950 . S
C727 C726 1.327 . S
C727 C731 1.429 . S
C728 C711 1.574 . S
C728 H722 0.949 . S
C728 C732 1.368 . S
C729 C710 1.429 . S
C729 C723 1.429 . S
C729 C730 1.523 . S
C730 C711 1.368 . S
C730 C724 1.368 . S
C730 C729 1.523 . S
C731 C715 1.429 . S
C731 C727 1.429 . S
C731 C732 1.523 . S
C732 C716 1.368 . S
C732 C728 1.368 . S
C732 C731 1.523 . S
H733 C708 0.950 . S
H734 C710 0.950 . S
H735 C711 0.949 . S
H736 C713 0.950 . S
H737 C715 0.950 . S
C738 C739 1.349 . S
C738 C740 1.327 . S
C738 H763 0.950 . S
C739 C738 1.349 . S
C739 C755 1.349 . S
C740 C738 1.327 . S
C740 C759 1.429 . S
C740 H764 0.950 . S
C741 C758 1.574 . S
C741 C760 1.368 . S
C741 H765 0.949 . S
H742 C746 0.949 . S
C743 C744 1.349 . S
C743 C745 1.327 . S
C743 H766 0.950 . S
C744 C743 1.349 . S
C744 C756 1.349 . S
C745 C743 1.327 . S
C745 C761 1.429 . S
C745 H767 0.950 . S
C746 H742 0.949 . S
C746 C754 1.574 . S
C746 C762 1.368 . S
H747 C755 0.950 . S
H748 C753 0.950 . S
H749 C754 0.949 . S
H750 C756 0.950 . S
H751 C757 0.950 . S
H752 C758 0.949 . S
C753 H748 0.950 . S
C753 C755 1.327 . S
C753 C759 1.429 . S
C754 C746 1.574 . S
C754 H749 0.949 . S
C754 C760 1.368 . S
C755 C739 1.349 . S
C755 H747 0.950 . S
C755 C753 1.327 . S
C756 C744 1.349 . S
C756 H750 0.950 . S
C756 C757 1.327 . S
C757 H751 0.950 . S
C757 C756 1.327 . S
C757 C761 1.429 . S
C758 C741 1.574 . S
C758 H752 0.949 . S
C758 C762 1.368 . S
C759 C740 1.429 . S
C759 C753 1.429 . S
C759 C760 1.523 . S
C760 C741 1.368 . S
C760 C754 1.368 . S
C760 C759 1.523 . S
C761 C745 1.429 . S
C761 C757 1.429 . S
C761 C762 1.523 . S
C762 C746 1.368 . S
C762 C758 1.368 . S
C762 C761 1.523 . S
H763 C738 0.950 . S
H764 C740 0.950 . S
H765 C741 0.949 . S
H766 C743 0.950 . S
H767 C745 0.950 . S
C768 C769 1.349 . S
C768 C770 1.327 . S
C768 H793 0.950 . S
C769 C768 1.349 . S
C769 C785 1.349 . S
C770 C768 1.327 . S
C770 C789 1.429 . S
C770 H794 0.950 . S
C771 C788 1.574 . S
C771 C790 1.368 1_556 S
C771 H795 0.949 . S
H772 C776 0.949 . S
C773 C774 1.349 . S
C773 C775 1.327 . S
C773 H796 0.950 . S
C774 C773 1.349 . S
C774 C786 1.349 . S
C775 C773 1.327 . S
C775 C791 1.429 . S
C775 H797 0.950 . S
C776 H772 0.949 . S
C776 C784 1.574 . S
C776 C792 1.368 1_554 S
H777 C785 0.950 1_556 S
H778 C783 0.950 . S
H779 C784 0.949 . S
H780 C786 0.950 1_554 S
H781 C787 0.950 . S
H782 C788 0.949 . S
C783 H778 0.950 . S
C783 C785 1.327 1_556 S
C783 C789 1.429 1_556 S
C784 C776 1.574 . S
C784 H779 0.949 . S
C784 C790 1.368 . S
C785 C769 1.349 . S
C785 H777 0.950 1_554 S
C785 C783 1.327 1_554 S
C786 C774 1.349 . S
C786 H780 0.950 1_556 S
C786 C787 1.327 1_556 S
C787 H781 0.950 . S
C787 C786 1.327 1_554 S
C787 C791 1.429 1_554 S
C788 C771 1.574 . S
C788 H782 0.949 . S
C788 C792 1.368 . S
C789 C770 1.429 . S
C789 C783 1.429 1_554 S
C789 C790 1.523 . S
C790 C771 1.368 1_554 S
C790 C784 1.368 . S
C790 C789 1.523 . S
C791 C775 1.429 . S
C791 C787 1.429 1_556 S
C791 C792 1.523 . S
C792 C776 1.368 1_556 S
C792 C788 1.368 . S
C792 C791 1.523 . S
H793 C768 0.950 . S
H794 C770 0.950 . S
H795 C771 0.949 . S
H796 C773 0.950 . S
H797 C775 0.950 . S
C798 C799 1.349 . S
C798 C800 1.327 . S
C798 H823 0.950 . S
C799 C798 1.349 . S
C799 C815 1.349 . S
C800 C798 1.327 . S
C800 C819 1.429 . S
C800 H824 0.950 . S
C801 C818 1.574 . S
C801 C820 1.368 . S
C801 H825 0.949 . S
H802 C806 0.949 . S
C803 C804 1.349 . S
C803 C805 1.327 . S
C803 H826 0.950 . S
C804 C803 1.349 . S
C804 C816 1.349 . S
C805 C803 1.327 . S
C805 C821 1.429 . S
C805 H827 0.950 . S
C806 H802 0.949 . S
C806 C814 1.574 . S
C806 C822 1.368 . S
H807 C815 0.950 . S
H808 C813 0.950 . S
H809 C814 0.949 . S
H810 C816 0.950 . S
H811 C817 0.950 . S
H812 C818 0.949 . S
C813 H808 0.950 . S
C813 C815 1.327 . S
C813 C819 1.429 . S
C814 C806 1.574 . S
C814 H809 0.949 . S
C814 C820 1.368 . S
C815 C799 1.349 . S
C815 H807 0.950 . S
C815 C813 1.327 . S
C816 C804 1.349 . S
C816 H810 0.950 . S
C816 C817 1.327 . S
C817 H811 0.950 . S
C817 C816 1.327 . S
C817 C821 1.429 . S
C818 C801 1.574 . S
C818 H812 0.949 . S
C818 C822 1.368 . S
C819 C800 1.429 . S
C819 C813 1.429 . S
C819 C820 1.523 . S
C820 C801 1.368 . S
C820 C814 1.368 . S
C820 C819 1.523 . S
C821 C805 1.429 . S
C821 C817 1.429 . S
C821 C822 1.523 . S
C822 C806 1.368 . S
C822 C818 1.368 . S
C822 C821 1.523 . S
H823 C798 0.950 . S
H824 C800 0.950 . S
H825 C801 0.949 . S
H826 C803 0.950 . S
H827 C805 0.950 . S
C828 C829 1.349 . S
C828 C830 1.327 . S
C828 H853 0.950 . S
C829 C828 1.349 . S
C829 C845 1.349 . S
C830 C828 1.327 . S
C830 C849 1.429 . S
C830 H854 0.950 . S
C831 C848 1.574 . S
C831 C850 1.368 1_556 S
C831 H855 0.949 . S
H832 C836 0.949 . S
C833 C834 1.349 . S
C833 C835 1.327 . S
C833 H856 0.950 . S
C834 C833 1.349 . S
C834 C846 1.349 . S
C835 C833 1.327 . S
C835 C851 1.429 . S
C835 H857 0.950 . S
C836 H832 0.949 . S
C836 C844 1.574 . S
C836 C852 1.368 1_554 S
H837 C845 0.950 1_556 S
H838 C843 0.950 . S
H839 C844 0.949 . S
H840 C846 0.950 1_554 S
H841 C847 0.950 . S
H842 C848 0.949 . S
C843 H838 0.950 . S
C843 C845 1.327 1_556 S
C843 C849 1.429 1_556 S
C844 C836 1.574 . S
C844 H839 0.949 . S
C844 C850 1.368 . S
C845 C829 1.349 . S
C845 H837 0.950 1_554 S
C845 C843 1.327 1_554 S
C846 C834 1.349 . S
C846 H840 0.950 1_556 S
C846 C847 1.327 1_556 S
C847 H841 0.950 . S
C847 C846 1.327 1_554 S
C847 C851 1.429 1_554 S
C848 C831 1.574 . S
C848 H842 0.949 . S
C848 C852 1.368 . S
C849 C830 1.429 . S
C849 C843 1.429 1_554 S
C849 C850 1.523 . S
C850 C831 1.368 1_554 S
C850 C844 1.368 . S
C850 C849 1.523 . S
C851 C835 1.429 . S
C851 C847 1.429 1_556 S
C851 C852 1.523 . S
C852 C836 1.368 1_556 S
C852 C848 1.368 . S
C852 C851 1.523 . S
H853 C828 0.950 . S
H854 C830 0.950 . S
H855 C831 0.949 . S
H856 C833 0.950 . S
H857 C835 0.950 . S
C858 C859 1.349 . S
C858 C860 1.327 . S
C858 H883 0.950 . S
C859 C858 1.349 . S
C859 C875 1.349 . S
C860 C858 1.327 . S
C860 C879 1.429 . S
C860 H884 0.950 . S
C861 C878 1.574 . S
C861 C880 1.368 . S
C861 H885 0.949 . S
H862 C866 0.949 . S
C863 C864 1.349 . S
C863 C865 1.327 . S
C863 H886 0.950 . S
C864 C863 1.349 . S
C864 C876 1.349 . S
C865 C863 1.327 . S
C865 C881 1.429 . S
C865 H887 0.950 . S
C866 H862 0.949 . S
C866 C874 1.574 . S
C866 C882 1.368 . S
H867 C875 0.950 . S
H868 C873 0.950 . S
H869 C874 0.949 . S
H870 C876 0.950 . S
H871 C877 0.950 . S
H872 C878 0.949 . S
C873 H868 0.950 . S
C873 C875 1.327 . S
C873 C879 1.429 . S
C874 C866 1.574 . S
C874 H869 0.949 . S
C874 C880 1.368 . S
C875 C859 1.349 . S
C875 H867 0.950 . S
C875 C873 1.327 . S
C876 C864 1.349 . S
C876 H870 0.950 . S
C876 C877 1.327 . S
C877 H871 0.950 . S
C877 C876 1.327 . S
C877 C881 1.429 . S
C878 C861 1.574 . S
C878 H872 0.949 . S
C878 C882 1.368 . S
C879 C860 1.429 . S
C879 C873 1.429 . S
C879 C880 1.523 . S
C880 C861 1.368 . S
C880 C874 1.368 . S
C880 C879 1.523 . S
C881 C865 1.429 . S
C881 C877 1.429 . S
C881 C882 1.523 . S
C882 C866 1.368 . S
C882 C878 1.368 . S
C882 C881 1.523 . S
H883 C858 0.950 . S
H884 C860 0.950 . S
H885 C861 0.949 . S
H886 C863 0.950 . S
H887 C865 0.950 . S
C888 C889 1.349 . S
C888 C890 1.327 . S
C888 H913 0.950 . S
C889 C888 1.349 . S
C889 C905 1.349 . S
C890 C888 1.327 . S
C890 C909 1.429 . S
C890 H914 0.950 . S
C891 C908 1.574 . S
C891 C910 1.368 1_556 S
C891 H915 0.949 . S
H892 C896 0.949 . S
C893 C894 1.349 . S
C893 C895 1.327 . S
C893 H916 0.950 . S
C894 C893 1.349 . S
C894 C906 1.349 . S
C895 C893 1.327 . S
C895 C911 1.429 . S
C895 H917 0.950 . S
C896 H892 0.949 . S
C896 C904 1.574 . S
C896 C912 1.368 1_554 S
H897 C905 0.956 . S
H898 C903 0.950 1_556 S
H899 C904 0.949 . S
H900 C906 0.956 . S
H901 C907 0.950 1_554 S
H902 C908 0.949 . S
C903 H898 0.950 1_554 S
C903 C905 1.327 . S
C903 C909 1.429 . S
C904 C896 1.574 . S
C904 H899 0.949 . S
C904 C910 1.368 . S
C905 C889 1.349 . S
C905 H897 0.956 . S
C905 C903 1.327 . S
C906 C894 1.349 . S
C906 H900 0.956 . S
C906 C907 1.327 . S
C907 H901 0.950 1_556 S
C907 C906 1.327 . S
C907 C911 1.429 . S
C908 C891 1.574 . S
C908 H902 0.949 . S
C908 C912 1.368 . S
C909 C890 1.429 . S
C909 C903 1.429 . S
C909 C910 1.523 . S
C910 C891 1.368 1_554 S
C910 C904 1.368 . S
C910 C909 1.523 . S
C911 C895 1.429 . S
C911 C907 1.429 . S
C911 C912 1.523 . S
C912 C896 1.368 1_556 S
C912 C908 1.368 . S
C912 C911 1.523 . S
H913 C888 0.950 . S
H914 C890 0.950 . S
H915 C891 0.949 . S
H916 C893 0.950 . S
H917 C895 0.950 . S
C918 C919 1.349 . S
C918 C920 1.327 . S
C918 H943 0.950 . S
C919 C918 1.349 . S
C919 C935 1.349 . S
C920 C918 1.327 . S
C920 C939 1.429 . S
C920 H944 0.950 . S
C921 C938 1.574 . S
C921 C940 1.368 . S
C921 H945 0.949 . S
H922 C926 0.949 . S
C923 C924 1.349 . S
C923 C925 1.327 . S
C923 H946 0.950 . S
C924 C923 1.349 . S
C924 C936 1.349 . S
C925 C923 1.327 . S
C925 C941 1.429 . S
C925 H947 0.950 . S
C926 H922 0.949 . S
C926 C934 1.574 . S
C926 C942 1.368 . S
H927 C935 0.950 . S
H928 C933 0.950 . S
H929 C934 0.949 . S
H930 C936 0.950 . S
H931 C937 0.950 . S
H932 C938 0.949 . S
C933 H928 0.950 . S
C933 C935 1.327 . S
C933 C939 1.429 . S
C934 C926 1.574 . S
C934 H929 0.949 . S
C934 C940 1.368 . S
C935 C919 1.349 . S
C935 H927 0.950 . S
C935 C933 1.327 . S
C936 C924 1.349 . S
C936 H930 0.950 . S
C936 C937 1.327 . S
C937 H931 0.950 . S
C937 C936 1.327 . S
C937 C941 1.429 . S
C938 C921 1.574 . S
C938 H932 0.949 . S
C938 C942 1.368 . S
C939 C920 1.429 . S
C939 C933 1.429 . S
C939 C940 1.523 . S
C940 C921 1.368 . S
C940 C934 1.368 . S
C940 C939 1.523 . S
C941 C925 1.429 . S
C941 C937 1.429 . S
C941 C942 1.523 . S
C942 C926 1.368 . S
C942 C938 1.368 . S
C942 C941 1.523 . S
H943 C918 0.950 . S
H944 C920 0.950 . S
H945 C921 0.949 . S
H946 C923 0.950 . S
H947 C925 0.950 . S
C948 C949 1.349 . S
C948 C950 1.327 . S
C948 H973 0.950 . S
C949 C948 1.349 . S
C949 C965 1.349 . S
C950 C948 1.327 . S
C950 C969 1.429 . S
C950 H974 0.950 . S
C951 C968 1.574 . S
C951 C970 1.368 1_556 S
C951 H975 0.949 . S
H952 C956 0.949 . S
C953 C954 1.349 . S
C953 C955 1.327 . S
C953 H976 0.950 . S
C954 C953 1.349 . S
C954 C966 1.349 . S
C955 C953 1.327 . S
C955 C971 1.429 . S
C955 H977 0.950 . S
C956 H952 0.949 . S
C956 C964 1.574 . S
C956 C972 1.368 1_554 S
H957 C965 0.950 . S
H958 C963 0.950 1_556 S
H959 C964 0.949 . S
H960 C966 0.950 . S
H961 C967 0.950 1_554 S
H962 C968 0.949 . S
C963 H958 0.950 1_554 S
C963 C965 1.327 . S
C963 C969 1.429 . S
C964 C956 1.574 . S
C964 H959 0.949 . S
C964 C970 1.368 . S
C965 C949 1.349 . S
C965 H957 0.950 . S
C965 C963 1.327 . S
C966 C954 1.349 . S
C966 H960 0.950 . S
C966 C967 1.327 . S
C967 H961 0.950 1_556 S
C967 C966 1.327 . S
C967 C971 1.429 . S
C968 C951 1.574 . S
C968 H962 0.949 . S
C968 C972 1.368 . S
C969 C950 1.429 . S
C969 C963 1.429 . S
C969 C970 1.523 . S
C970 C951 1.368 1_554 S
C970 C964 1.368 . S
C970 C969 1.523 . S
C971 C955 1.429 . S
C971 C967 1.429 . S
C971 C972 1.523 . S
C972 C956 1.368 1_556 S
C972 C968 1.368 . S
C972 C971 1.523 . S
H973 C948 0.950 . S
H974 C950 0.950 . S
H975 C951 0.949 . S
H976 C953 0.950 . S
H977 C955 0.950 . S
C978 C979 1.349 . S
C978 C980 1.327 . S
C978 H1003 0.950 . S
C979 C978 1.349 . S
C979 C995 1.349 . S
C980 C978 1.327 . S
C980 C999 1.429 . S
C980 H1004 0.950 . S
C981 C998 1.574 . S
C981 C1000 1.368 . S
C981 H1005 0.949 . S
H982 C986 0.949 . S
C983 C984 1.349 . S
C983 C985 1.327 . S
C983 H1006 0.950 . S
C984 C983 1.349 . S
C984 C996 1.349 . S
C985 C983 1.327 . S
C985 C1001 1.429 . S
C985 H1007 0.950 . S
C986 H982 0.949 . S
C986 C994 1.574 . S
C986 C1002 1.368 . S
H987 C995 0.950 . S
H988 C993 0.950 . S
H989 C994 0.949 . S
H990 C996 0.950 . S
H991 C997 0.950 . S
H992 C998 0.949 . S
C993 H988 0.950 . S
C993 C995 1.327 . S
C993 C999 1.429 . S
C994 C986 1.574 . S
C994 H989 0.949 . S
C994 C1000 1.368 . S
C995 C979 1.349 . S
C995 H987 0.950 . S
C995 C993 1.327 . S
C996 C984 1.349 . S
C996 H990 0.950 . S
C996 C997 1.327 . S
C997 H991 0.950 . S
C997 C996 1.327 . S
C997 C1001 1.429 . S
C998 C981 1.574 . S
C998 H992 0.949 . S
C998 C1002 1.368 . S
C999 C980 1.429 . S
C999 C993 1.429 . S
C999 C1000 1.523 . S
C1000 C981 1.368 . S
C1000 C994 1.368 . S
C1000 C999 1.523 . S
C1001 C985 1.429 . S
C1001 C997 1.429 . S
C1001 C1002 1.523 . S
C1002 C986 1.368 . S
C1002 C998 1.368 . S
C1002 C1001 1.523 . S
H1003 C978 0.950 . S
H1004 C980 0.950 . S
H1005 C981 0.949 . S
H1006 C983 0.950 . S
H1007 C985 0.950 . S
C1008 C1009 1.349 . S
C1008 C1010 1.327 . S
C1008 H1033 0.950 . S
C1009 C1008 1.349 . S
C1009 C1025 1.349 . S
C1010 C1008 1.327 . S
C1010 C1029 1.429 . S
C1010 H1034 0.950 . S
C1011 C1028 1.574 . S
C1011 C1030 1.368 . S
C1011 H1035 0.949 . S
H1012 C1016 0.949 . S
C1013 C1014 1.349 . S
C1013 C1015 1.327 . S
C1013 H1036 0.950 . S
C1014 C1013 1.349 . S
C1014 C1026 1.349 . S
C1015 C1013 1.327 . S
C1015 C1031 1.429 . S
C1015 H1037 0.950 . S
C1016 H1012 0.949 . S
C1016 C1024 1.574 . S
C1016 C1032 1.368 . S
H1017 C1025 0.950 . S
H1018 C1023 0.950 . S
H1019 C1024 0.949 . S
H1020 C1026 0.950 . S
H1021 C1027 0.950 . S
H1022 C1028 0.949 . S
C1023 H1018 0.950 . S
C1023 C1025 1.327 . S
C1023 C1029 1.429 . S
C1024 C1016 1.574 . S
C1024 H1019 0.949 . S
C1024 C1030 1.368 . S
C1025 C1009 1.349 . S
C1025 H1017 0.950 . S
C1025 C1023 1.327 . S
C1026 C1014 1.349 . S
C1026 H1020 0.950 . S
C1026 C1027 1.327 . S
C1027 H1021 0.950 . S
C1027 C1026 1.327 . S
C1027 C1031 1.429 . S
C1028 C1011 1.574 . S
C1028 H1022 0.949 . S
C1028 C1032 1.368 . S
C1029 C1010 1.429 . S
C1029 C1023 1.429 . S
C1029 C1030 1.523 . S
C1030 C1011 1.368 . S
C1030 C1024 1.368 . S
C1030 C1029 1.523 . S
C1031 C1015 1.429 . S
C1031 C1027 1.429 . S
C1031 C1032 1.523 . S
C1032 C1016 1.368 . S
C1032 C1028 1.368 . S
C1032 C1031 1.523 . S
H1033 C1008 0.950 . S
H1034 C1010 0.950 . S
H1035 C1011 0.949 . S
H1036 C1013 0.950 . S
H1037 C1015 0.950 . S
C1038 C1039 1.349 . S
C1038 C1040 1.327 . S
C1038 H1063 0.950 1_545 S
C1039 C1038 1.349 . S
C1039 C1055 1.349 . S
C1040 C1038 1.327 . S
C1040 C1059 1.429 . S
C1040 H1064 0.950 1_545 S
C1041 C1058 1.574 . S
C1041 C1060 1.368 . S
C1041 H1065 0.949 . S
H1042 C1046 0.949 1_565 S
C1043 C1044 1.349 . S
C1043 C1045 1.327 . S
C1043 H1066 0.950 . S
C1044 C1043 1.349 . S
C1044 C1056 1.349 . S
C1045 C1043 1.327 . S
C1045 C1061 1.429 . S
C1045 H1067 0.950 . S
C1046 H1042 0.949 1_545 S
C1046 C1054 1.574 . S
C1046 C1062 1.368 . S
H1047 C1055 0.950 . S
H1048 C1053 0.950 . S
H1049 C1054 0.949 1_565 S
H1050 C1056 0.950 1_565 S
H1051 C1057 0.950 1_565 S
H1052 C1058 0.949 . S
C1053 H1048 0.950 . S
C1053 C1055 1.327 . S
C1053 C1059 1.429 . S
C1054 C1046 1.574 . S
C1054 H1049 0.949 1_545 S
C1054 C1060 1.368 . S
C1055 C1039 1.349 . S
C1055 H1047 0.950 . S
C1055 C1053 1.327 . S
C1056 C1044 1.349 . S
C1056 H1050 0.950 1_545 S
C1056 C1057 1.327 . S
C1057 H1051 0.950 1_545 S
C1057 C1056 1.327 . S
C1057 C1061 1.429 . S
C1058 C1041 1.574 . S
C1058 H1052 0.949 . S
C1058 C1062 1.368 . S
C1059 C1040 1.429 . S
C1059 C1053 1.429 . S
C1059 C1060 1.523 . S
C1060 C1041 1.368 . S
C1060 C1054 1.368 . S
C1060 C1059 1.523 . S
C1061 C1045 1.429 . S
C1061 C1057 1.429 . S
C1061 C1062 1.523 . S
C1062 C1046 1.368 . S
C1062 C1058 1.368 . S
C1062 C1061 1.523 . S
H1063 C1038 0.950 1_565 S
H1064 C1040 0.950 1_565 S
H1065 C1041 0.949 . S
H1066 C1043 0.950 . S
H1067 C1045 0.950 . S
C1068 C1069 1.349 . S
C1068 C1070 1.327 . S
C1068 H1093 0.950 . S
C1069 C1068 1.349 . S
C1069 C1085 1.349 . S
C1070 C1068 1.327 . S
C1070 C1089 1.429 . S
C1070 H1094 0.950 . S
C1071 C1088 1.574 . S
C1071 C1090 1.368 . S
C1071 H1095 0.949 . S
H1072 C1076 0.949 . S
C1073 C1074 1.349 . S
C1073 C1075 1.327 . S
C1073 H1096 0.950 . S
C1074 C1073 1.349 . S
C1074 C1086 1.349 . S
C1075 C1073 1.327 . S
C1075 C1091 1.429 . S
C1075 H1097 0.950 . S
C1076 H1072 0.949 . S
C1076 C1084 1.574 . S
C1076 C1092 1.368 . S
H1077 C1085 0.950 . S
H1078 C1083 0.950 . S
H1079 C1084 0.949 . S
H1080 C1086 0.950 . S
H1081 C1087 0.950 . S
H1082 C1088 0.949 . S
C1083 H1078 0.950 . S
C1083 C1085 1.327 . S
C1083 C1089 1.429 . S
C1084 C1076 1.574 . S
C1084 H1079 0.949 . S
C1084 C1090 1.368 . S
C1085 C1069 1.349 . S
C1085 H1077 0.950 . S
C1085 C1083 1.327 . S
C1086 C1074 1.349 . S
C1086 H1080 0.950 . S
C1086 C1087 1.327 . S
C1087 H1081 0.950 . S
C1087 C1086 1.327 . S
C1087 C1091 1.429 . S
C1088 C1071 1.574 . S
C1088 H1082 0.949 . S
C1088 C1092 1.368 . S
C1089 C1070 1.429 . S
C1089 C1083 1.429 . S
C1089 C1090 1.523 . S
C1090 C1071 1.368 . S
C1090 C1084 1.368 . S
C1090 C1089 1.523 . S
C1091 C1075 1.429 . S
C1091 C1087 1.429 . S
C1091 C1092 1.523 . S
C1092 C1076 1.368 . S
C1092 C1088 1.368 . S
C1092 C1091 1.523 . S
H1093 C1068 0.950 . S
H1094 C1070 0.950 . S
H1095 C1071 0.949 . S
H1096 C1073 0.950 . S
H1097 C1075 0.950 . S
C1098 C1099 1.349 . S
C1098 C1100 1.327 . S
C1098 H1123 0.950 . S
C1099 C1098 1.349 . S
C1099 C1115 1.349 . S
C1100 C1098 1.327 . S
C1100 C1119 1.429 . S
C1100 H1124 0.950 . S
C1101 C1118 1.574 . S
C1101 C1120 1.368 . S
C1101 H1125 0.949 . S
H1102 C1106 0.949 . S
C1103 C1104 1.349 . S
C1103 C1105 1.327 . S
C1103 H1126 0.950 . S
C1104 C1103 1.349 . S
C1104 C1116 1.349 . S
C1105 C1103 1.327 . S
C1105 C1121 1.429 . S
C1105 H1127 0.950 . S
C1106 H1102 0.949 . S
C1106 C1114 1.574 . S
C1106 C1122 1.368 . S
H1107 C1115 0.950 . S
H1108 C1113 0.950 . S
H1109 C1114 0.949 . S
H1110 C1116 0.950 . S
H1111 C1117 0.950 . S
H1112 C1118 0.949 . S
C1113 H1108 0.950 . S
C1113 C1115 1.327 . S
C1113 C1119 1.429 . S
C1114 C1106 1.574 . S
C1114 H1109 0.949 . S
C1114 C1120 1.368 . S
C1115 C1099 1.349 . S
C1115 H1107 0.950 . S
C1115 C1113 1.327 . S
C1116 C1104 1.349 . S
C1116 H1110 0.950 . S
C1116 C1117 1.327 . S
C1117 H1111 0.950 . S
C1117 C1116 1.327 . S
C1117 C1121 1.429 . S
C1118 C1101 1.574 . S
C1118 H1112 0.949 . S
C1118 C1122 1.368 . S
C1119 C1100 1.429 . S
C1119 C1113 1.429 . S
C1119 C1120 1.523 . S
C1120 C1101 1.368 . S
C1120 C1114 1.368 . S
C1120 C1119 1.523 . S
C1121 C1105 1.429 . S
C1121 C1117 1.429 . S
C1121 C1122 1.523 . S
C1122 C1106 1.368 . S
C1122 C1118 1.368 . S
C1122 C1121 1.523 . S
H1123 C1098 0.950 . S
H1124 C1100 0.950 . S
H1125 C1101 0.949 . S
H1126 C1103 0.950 . S
H1127 C1105 0.950 . S
C1128 C1129 1.349 . S
C1128 C1130 1.327 . S
C1128 H1153 0.963 . S
C1129 C1128 1.349 . S
C1129 C1145 1.349 . S
C1130 C1128 1.327 . S
C1130 C1149 1.429 . S
C1130 H1154 0.948 . S
C1131 C1148 1.574 . S
C1131 C1150 1.368 . S
C1131 H1155 0.949 . S
H1132 C1136 0.953 1_455 S
C1133 C1134 1.349 . S
C1133 C1135 1.327 . S
C1133 H1156 0.950 . S
C1134 C1133 1.349 . S
C1134 C1146 1.349 . S
C1135 C1133 1.327 . S
C1135 C1151 1.429 . S
C1135 H1157 0.950 . S
C1136 H1132 0.953 1_655 S
C1136 C1144 1.574 . S
C1136 C1152 1.368 . S
H1137 C1145 0.950 . S
H1138 C1143 0.950 . S
H1139 C1144 0.953 1_455 S
H1140 C1146 0.963 . S
H1141 C1147 0.948 . S
H1142 C1148 0.949 . S
C1143 H1138 0.950 . S
C1143 C1145 1.327 . S
C1143 C1149 1.429 . S
C1144 C1136 1.574 . S
C1144 H1139 0.953 1_655 S
C1144 C1150 1.368 . S
C1145 C1129 1.349 . S
C1145 H1137 0.950 . S
C1145 C1143 1.327 . S
C1146 C1134 1.349 . S
C1146 H1140 0.963 . S
C1146 C1147 1.327 . S
C1147 H1141 0.948 . S
C1147 C1146 1.327 . S
C1147 C1151 1.429 . S
C1148 C1131 1.574 . S
C1148 H1142 0.949 . S
C1148 C1152 1.368 . S
C1149 C1130 1.429 . S
C1149 C1143 1.429 . S
C1149 C1150 1.523 . S
C1150 C1131 1.368 . S
C1150 C1144 1.368 . S
C1150 C1149 1.523 . S
C1151 C1135 1.429 . S
C1151 C1147 1.429 . S
C1151 C1152 1.523 . S
C1152 C1136 1.368 . S
C1152 C1148 1.368 . S
C1152 C1151 1.523 . S
H1153 C1128 0.963 . S
H1154 C1130 0.948 . S
H1155 C1131 0.949 . S
H1156 C1133 0.950 . S
H1157 C1135 0.950 . S
C1158 C1159 1.349 . S
C1158 C1160 1.327 . S
C1158 H1183 0.950 1_565 S
C1159 C1158 1.349 . S
C1159 C1175 1.349 . S
C1160 C1158 1.327 . S
C1160 C1179 1.429 . S
C1160 H1184 0.950 1_565 S
C1161 C1178 1.574 . S
C1161 C1180 1.368 . S
C1161 H1185 0.949 . S
H1162 C1166 0.949 1_545 S
C1163 C1164 1.349 . S
C1163 C1165 1.327 . S
C1163 H1186 0.950 . S
C1164 C1163 1.349 . S
C1164 C1176 1.349 . S
C1165 C1163 1.327 . S
C1165 C1181 1.429 . S
C1165 H1187 0.950 . S
C1166 H1162 0.949 1_565 S
C1166 C1174 1.574 . S
C1166 C1182 1.368 . S
H1167 C1175 0.950 . S
H1168 C1173 0.950 . S
H1169 C1174 0.949 1_545 S
H1170 C1176 0.950 1_545 S
H1171 C1177 0.950 1_545 S
H1172 C1178 0.949 . S
C1173 H1168 0.950 . S
C1173 C1175 1.327 . S
C1173 C1179 1.429 . S
C1174 C1166 1.574 . S
C1174 H1169 0.949 1_565 S
C1174 C1180 1.368 . S
C1175 C1159 1.349 . S
C1175 H1167 0.950 . S
C1175 C1173 1.327 . S
C1176 C1164 1.349 . S
C1176 H1170 0.950 1_565 S
C1176 C1177 1.327 . S
C1177 H1171 0.950 1_565 S
C1177 C1176 1.327 . S
C1177 C1181 1.429 . S
C1178 C1161 1.574 . S
C1178 H1172 0.949 . S
C1178 C1182 1.368 . S
C1179 C1160 1.429 . S
C1179 C1173 1.429 . S
C1179 C1180 1.523 . S
C1180 C1161 1.368 . S
C1180 C1174 1.368 . S
C1180 C1179 1.523 . S
C1181 C1165 1.429 . S
C1181 C1177 1.429 . S
C1181 C1182 1.523 . S
C1182 C1166 1.368 . S
C1182 C1178 1.368 . S
C1182 C1181 1.523 . S
H1183 C1158 0.950 1_545 S
H1184 C1160 0.950 1_545 S
H1185 C1161 0.949 . S
H1186 C1163 0.950 . S
H1187 C1165 0.950 . S
C1188 C1189 1.349 . S
C1188 C1190 1.327 . S
C1188 H1213 0.950 . S
C1189 C1188 1.349 . S
C1189 C1205 1.349 . S
C1190 C1188 1.327 . S
C1190 C1209 1.429 . S
C1190 H1214 0.950 . S
C1191 C1208 1.574 . S
C1191 C1210 1.368 . S
C1191 H1215 0.949 . S
H1192 C1196 0.949 . S
C1193 C1194 1.349 . S
C1193 C1195 1.327 . S
C1193 H1216 0.950 . S
C1194 C1193 1.349 . S
C1194 C1206 1.349 . S
C1195 C1193 1.327 . S
C1195 C1211 1.429 . S
C1195 H1217 0.950 . S
C1196 H1192 0.949 . S
C1196 C1204 1.574 . S
C1196 C1212 1.368 . S
H1197 C1205 0.950 . S
H1198 C1203 0.950 . S
H1199 C1204 0.949 . S
H1200 C1206 0.950 . S
H1201 C1207 0.950 . S
H1202 C1208 0.949 . S
C1203 H1198 0.950 . S
C1203 C1205 1.327 . S
C1203 C1209 1.429 . S
C1204 C1196 1.574 . S
C1204 H1199 0.949 . S
C1204 C1210 1.368 . S
C1205 C1189 1.349 . S
C1205 H1197 0.950 . S
C1205 C1203 1.327 . S
C1206 C1194 1.349 . S
C1206 H1200 0.950 . S
C1206 C1207 1.327 . S
C1207 H1201 0.950 . S
C1207 C1206 1.327 . S
C1207 C1211 1.429 . S
C1208 C1191 1.574 . S
C1208 H1202 0.949 . S
C1208 C1212 1.368 . S
C1209 C1190 1.429 . S
C1209 C1203 1.429 . S
C1209 C1210 1.523 . S
C1210 C1191 1.368 . S
C1210 C1204 1.368 . S
C1210 C1209 1.523 . S
C1211 C1195 1.429 . S
C1211 C1207 1.429 . S
C1211 C1212 1.523 . S
C1212 C1196 1.368 . S
C1212 C1208 1.368 . S
C1212 C1211 1.523 . S
H1213 C1188 0.950 . S
H1214 C1190 0.950 . S
H1215 C1191 0.949 . S
H1216 C1193 0.950 . S
H1217 C1195 0.950 . S
C1218 C1219 1.349 . S
C1218 C1220 1.327 . S
C1218 H1243 0.950 . S
C1219 C1218 1.349 . S
C1219 C1235 1.349 . S
C1220 C1218 1.327 . S
C1220 C1239 1.429 . S
C1220 H1244 0.950 . S
C1221 C1238 1.574 . S
C1221 C1240 1.368 . S
C1221 H1245 0.949 . S
H1222 C1226 0.949 . S
C1223 C1224 1.349 . S
C1223 C1225 1.327 . S
C1223 H1246 0.950 . S
C1224 C1223 1.349 . S
C1224 C1236 1.349 . S
C1225 C1223 1.327 . S
C1225 C1241 1.429 . S
C1225 H1247 0.950 . S
C1226 H1222 0.949 . S
C1226 C1234 1.574 . S
C1226 C1242 1.368 . S
H1227 C1235 0.950 . S
H1228 C1233 0.950 . S
H1229 C1234 0.949 . S
H1230 C1236 0.950 . S
H1231 C1237 0.950 . S
H1232 C1238 0.949 . S
C1233 H1228 0.950 . S
C1233 C1235 1.327 . S
C1233 C1239 1.429 . S
C1234 C1226 1.574 . S
C1234 H1229 0.949 . S
C1234 C1240 1.368 . S
C1235 C1219 1.349 . S
C1235 H1227 0.950 . S
C1235 C1233 1.327 . S
C1236 C1224 1.349 . S
C1236 H1230 0.950 . S
C1236 C1237 1.327 . S
C1237 H1231 0.950 . S
C1237 C1236 1.327 . S
C1237 C1241 1.429 . S
C1238 C1221 1.574 . S
C1238 H1232 0.949 . S
C1238 C1242 1.368 . S
C1239 C1220 1.429 . S
C1239 C1233 1.429 . S
C1239 C1240 1.523 . S
C1240 C1221 1.368 . S
C1240 C1234 1.368 . S
C1240 C1239 1.523 . S
C1241 C1225 1.429 . S
C1241 C1237 1.429 . S
C1241 C1242 1.523 . S
C1242 C1226 1.368 . S
C1242 C1238 1.368 . S
C1242 C1241 1.523 . S
H1243 C1218 0.950 . S
H1244 C1220 0.950 . S
H1245 C1221 0.949 . S
H1246 C1223 0.950 . S
H1247 C1225 0.950 . S
C1248 C1249 1.349 . S
C1248 C1250 1.327 . S
C1248 H1273 0.950 . S
C1249 C1248 1.349 . S
C1249 C1265 1.349 . S
C1250 C1248 1.327 . S
C1250 C1269 1.429 . S
C1250 H1274 0.950 . S
C1251 C1268 1.574 . S
C1251 C1270 1.368 . S
C1251 H1275 0.949 . S
H1252 C1256 0.949 . S
C1253 C1254 1.349 . S
C1253 C1255 1.327 . S
C1253 H1276 0.950 . S
C1254 C1253 1.349 . S
C1254 C1266 1.349 . S
C1255 C1253 1.327 . S
C1255 C1271 1.429 . S
C1255 H1277 0.950 . S
C1256 H1252 0.949 . S
C1256 C1264 1.574 . S
C1256 C1272 1.368 . S
H1257 C1265 0.950 . S
H1258 C1263 0.950 . S
H1259 C1264 0.949 . S
H1260 C1266 0.950 . S
H1261 C1267 0.950 . S
H1262 C1268 0.949 . S
C1263 H1258 0.950 . S
C1263 C1265 1.327 . S
C1263 C1269 1.429 . S
C1264 C1256 1.574 . S
C1264 H1259 0.949 . S
C1264 C1270 1.368 . S
C1265 C1249 1.349 . S
C1265 H1257 0.950 . S
C1265 C1263 1.327 . S
C1266 C1254 1.349 . S
C1266 H1260 0.950 . S
C1266 C1267 1.327 . S
C1267 H1261 0.950 . S
C1267 C1266 1.327 . S
C1267 C1271 1.429 . S
C1268 C1251 1.574 . S
C1268 H1262 0.949 . S
C1268 C1272 1.368 . S
C1269 C1250 1.429 . S
C1269 C1263 1.429 . S
C1269 C1270 1.523 . S
C1270 C1251 1.368 . S
C1270 C1264 1.368 . S
C1270 C1269 1.523 . S
C1271 C1255 1.429 . S
C1271 C1267 1.429 . S
C1271 C1272 1.523 . S
C1272 C1256 1.368 . S
C1272 C1268 1.368 . S
C1272 C1271 1.523 . S
H1273 C1248 0.950 . S
H1274 C1250 0.950 . S
H1275 C1251 0.949 . S
H1276 C1253 0.950 . S
H1277 C1255 0.950 . S
C1278 C1279 1.349 . S
C1278 C1280 1.327 . S
C1278 H1303 0.950 . S
C1279 C1278 1.349 . S
C1279 C1295 1.349 . S
C1280 C1278 1.327 . S
C1280 C1299 1.429 . S
C1280 H1304 0.950 . S
C1281 C1298 1.574 . S
C1281 C1300 1.368 . S
C1281 H1305 0.954 . S
H1282 C1286 0.949 . S
C1283 C1284 1.349 . S
C1283 C1285 1.327 . S
C1283 H1306 0.950 1_545 S
C1284 C1283 1.349 . S
C1284 C1296 1.349 . S
C1285 C1283 1.327 . S
C1285 C1301 1.429 . S
C1285 H1307 0.950 1_545 S
C1286 H1282 0.949 . S
C1286 C1294 1.574 . S
C1286 C1302 1.368 . S
H1287 C1295 0.950 . S
H1288 C1293 0.950 . S
H1289 C1294 0.949 . S
H1290 C1296 0.950 . S
H1291 C1297 0.950 . S
H1292 C1298 0.894 1_565 S
C1293 H1288 0.950 . S
C1293 C1295 1.327 . S
C1293 C1299 1.429 . S
C1294 C1286 1.574 . S
C1294 H1289 0.949 . S
C1294 C1300 1.368 . S
C1295 C1279 1.349 . S
C1295 H1287 0.950 . S
C1295 C1293 1.327 . S
C1296 C1284 1.349 . S
C1296 H1290 0.950 . S
C1296 C1297 1.327 . S
C1297 H1291 0.950 . S
C1297 C1296 1.327 . S
C1297 C1301 1.429 . S
C1298 C1281 1.574 . S
C1298 H1292 0.894 1_545 S
C1298 C1302 1.368 . S
C1299 C1280 1.429 . S
C1299 C1293 1.429 . S
C1299 C1300 1.523 1_556 S
C1300 C1281 1.368 . S
C1300 C1294 1.368 . S
C1300 C1299 1.523 1_554 S
C1301 C1285 1.429 . S
C1301 C1297 1.429 . S
C1301 C1302 1.523 . S
C1302 C1286 1.368 . S
C1302 C1298 1.368 . S
C1302 C1301 1.523 . S
H1303 C1278 0.950 . S
H1304 C1280 0.950 . S
H1305 C1281 0.954 . S
H1306 C1283 0.950 1_565 S
H1307 C1285 0.950 1_565 S
C1308 C1309 1.349 . S
C1308 C1310 1.327 . S
C1308 H1333 0.950 . S
C1309 C1308 1.349 . S
C1309 C1325 1.349 . S
C1310 C1308 1.327 . S
C1310 C1329 1.429 . S
C1310 H1334 0.950 . S
C1311 C1328 1.574 . S
C1311 C1330 1.368 . S
C1311 H1335 0.949 . S
H1312 C1316 0.949 . S
C1313 C1314 1.349 . S
C1313 C1315 1.327 . S
C1313 H1336 0.950 . S
C1314 C1313 1.349 . S
C1314 C1326 1.349 . S
C1315 C1313 1.327 . S
C1315 C1331 1.429 . S
C1315 H1337 0.950 . S
C1316 H1312 0.949 . S
C1316 C1324 1.574 . S
C1316 C1332 1.368 . S
H1317 C1325 0.950 . S
H1318 C1323 0.950 . S
H1319 C1324 0.949 . S
H1320 C1326 0.950 . S
H1321 C1327 0.950 . S
H1322 C1328 0.949 . S
C1323 H1318 0.950 . S
C1323 C1325 1.327 . S
C1323 C1329 1.429 . S
C1324 C1316 1.574 . S
C1324 H1319 0.949 . S
C1324 C1330 1.368 . S
C1325 C1309 1.349 . S
C1325 H1317 0.950 . S
C1325 C1323 1.327 . S
C1326 C1314 1.349 . S
C1326 H1320 0.950 . S
C1326 C1327 1.327 . S
C1327 H1321 0.950 . S
C1327 C1326 1.327 . S
C1327 C1331 1.429 . S
C1328 C1311 1.574 . S
C1328 H1322 0.949 . S
C1328 C1332 1.368 . S
C1329 C1310 1.429 . S
C1329 C1323 1.429 . S
C1329 C1330 1.523 . S
C1330 C1311 1.368 . S
C1330 C1324 1.368 . S
C1330 C1329 1.523 . S
C1331 C1315 1.429 . S
C1331 C1327 1.429 . S
C1331 C1332 1.523 . S
C1332 C1316 1.368 . S
C1332 C1328 1.368 . S
C1332 C1331 1.523 . S
H1333 C1308 0.950 . S
H1334 C1310 0.950 . S
H1335 C1311 0.949 . S
H1336 C1313 0.950 . S
H1337 C1315 0.950 . S
C1338 C1339 1.349 . S
C1338 C1340 1.327 . S
C1338 H1363 0.950 . S
C1339 C1338 1.349 . S
C1339 C1355 1.349 . S
C1340 C1338 1.327 . S
C1340 C1359 1.429 . S
C1340 H1364 0.950 . S
C1341 C1358 1.574 . S
C1341 C1360 1.368 . S
C1341 H1365 0.949 . S
H1342 C1346 0.949 . S
C1343 C1344 1.349 . S
C1343 C1345 1.327 . S
C1343 H1366 0.950 . S
C1344 C1343 1.349 . S
C1344 C1356 1.349 . S
C1345 C1343 1.327 . S
C1345 C1361 1.429 . S
C1345 H1367 0.950 . S
C1346 H1342 0.949 . S
C1346 C1354 1.574 . S
C1346 C1362 1.368 . S
H1347 C1355 0.950 . S
H1348 C1353 0.950 . S
H1349 C1354 0.949 . S
H1350 C1356 0.950 . S
H1351 C1357 0.950 . S
H1352 C1358 0.949 . S
C1353 H1348 0.950 . S
C1353 C1355 1.327 . S
C1353 C1359 1.429 . S
C1354 C1346 1.574 . S
C1354 H1349 0.949 . S
C1354 C1360 1.368 . S
C1355 C1339 1.349 . S
C1355 H1347 0.950 . S
C1355 C1353 1.327 . S
C1356 C1344 1.349 . S
C1356 H1350 0.950 . S
C1356 C1357 1.327 . S
C1357 H1351 0.950 . S
C1357 C1356 1.327 . S
C1357 C1361 1.429 . S
C1358 C1341 1.574 . S
C1358 H1352 0.949 . S
C1358 C1362 1.368 . S
C1359 C1340 1.429 . S
C1359 C1353 1.429 . S
C1359 C1360 1.523 1_556 S
C1360 C1341 1.368 . S
C1360 C1354 1.368 . S
C1360 C1359 1.523 1_554 S
C1361 C1345 1.429 . S
C1361 C1357 1.429 . S
C1361 C1362 1.523 . S
C1362 C1346 1.368 . S
C1362 C1358 1.368 . S
C1362 C1361 1.523 . S
H1363 C1338 0.950 . S
H1364 C1340 0.950 . S
H1365 C1341 0.949 . S
H1366 C1343 0.950 . S
H1367 C1345 0.950 . S
C1368 C1369 1.349 . S
C1368 C1370 1.327 . S
C1368 H1393 0.950 . S
C1369 C1368 1.349 . S
C1369 C1385 1.349 . S
C1370 C1368 1.327 . S
C1370 C1389 1.429 . S
C1370 H1394 0.950 . S
C1371 C1388 1.574 . S
C1371 C1390 1.368 . S
C1371 H1395 0.949 . S
H1372 C1376 0.949 . S
C1373 C1374 1.349 . S
C1373 C1375 1.327 . S
C1373 H1396 0.950 . S
C1374 C1373 1.349 . S
C1374 C1386 1.349 . S
C1375 C1373 1.327 . S
C1375 C1391 1.429 . S
C1375 H1397 0.950 . S
C1376 H1372 0.949 . S
C1376 C1384 1.574 . S
C1376 C1392 1.368 . S
H1377 C1385 0.950 . S
H1378 C1383 0.950 . S
H1379 C1384 0.949 . S
H1380 C1386 0.950 . S
H1381 C1387 0.950 . S
H1382 C1388 0.949 . S
C1383 H1378 0.950 . S
C1383 C1385 1.327 . S
C1383 C1389 1.429 . S
C1384 C1376 1.574 . S
C1384 H1379 0.949 . S
C1384 C1390 1.368 . S
C1385 C1369 1.349 . S
C1385 H1377 0.950 . S
C1385 C1383 1.327 . S
C1386 C1374 1.349 . S
C1386 H1380 0.950 . S
C1386 C1387 1.327 . S
C1387 H1381 0.950 . S
C1387 C1386 1.327 . S
C1387 C1391 1.429 . S
C1388 C1371 1.574 . S
C1388 H1382 0.949 . S
C1388 C1392 1.368 . S
C1389 C1370 1.429 . S
C1389 C1383 1.429 . S
C1389 C1390 1.523 . S
C1390 C1371 1.368 . S
C1390 C1384 1.368 . S
C1390 C1389 1.523 . S
C1391 C1375 1.429 . S
C1391 C1387 1.429 . S
C1391 C1392 1.523 1_554 S
C1392 C1376 1.368 . S
C1392 C1388 1.368 . S
C1392 C1391 1.523 1_556 S
H1393 C1368 0.950 . S
H1394 C1370 0.950 . S
H1395 C1371 0.949 . S
H1396 C1373 0.950 . S
H1397 C1375 0.950 . S
C1398 C1399 1.349 . S
C1398 C1400 1.327 . S
C1398 H1423 0.950 . S
C1399 C1398 1.349 . S
C1399 C1415 1.349 . S
C1400 C1398 1.327 . S
C1400 C1419 1.429 . S
C1400 H1424 0.950 . S
C1401 C1418 1.574 . S
C1401 C1420 1.368 . S
C1401 H1425 0.947 1_545 S
H1402 C1406 0.949 . S
C1403 C1404 1.349 . S
C1403 C1405 1.327 . S
C1403 H1426 0.950 . S
C1404 C1403 1.349 . S
C1404 C1416 1.349 . S
C1405 C1403 1.327 . S
C1405 C1421 1.429 . S
C1405 H1427 0.950 . S
C1406 H1402 0.949 . S
C1406 C1414 1.574 . S
C1406 C1422 1.368 . S
H1407 C1415 0.950 1_565 S
H1408 C1413 0.905 1_565 S
H1409 C1414 0.949 . S
H1410 C1416 0.950 . S
H1411 C1417 0.950 . S
H1412 C1418 1.004 . S
C1413 H1408 0.905 1_545 S
C1413 C1415 1.327 . S
C1413 C1419 1.429 . S
C1414 C1406 1.574 . S
C1414 H1409 0.949 . S
C1414 C1420 1.368 . S
C1415 C1399 1.349 . S
C1415 H1407 0.950 1_545 S
C1415 C1413 1.327 . S
C1416 C1404 1.349 . S
C1416 H1410 0.950 . S
C1416 C1417 1.327 . S
C1417 H1411 0.950 . S
C1417 C1416 1.327 . S
C1417 C1421 1.429 . S
C1418 C1401 1.574 . S
C1418 H1412 1.004 . S
C1418 C1422 1.368 . S
C1419 C1400 1.429 . S
C1419 C1413 1.429 . S
C1419 C1420 1.523 . S
C1420 C1401 1.368 . S
C1420 C1414 1.368 . S
C1420 C1419 1.523 . S
C1421 C1405 1.429 . S
C1421 C1417 1.429 . S
C1421 C1422 1.523 . S
C1422 C1406 1.368 . S
C1422 C1418 1.368 . S
C1422 C1421 1.523 . S
H1423 C1398 0.950 . S
H1424 C1400 0.950 . S
H1425 C1401 0.947 1_565 S
H1426 C1403 0.950 . S
H1427 C1405 0.950 . S
C1428 C1429 1.349 . S
C1428 C1430 1.327 . S
C1428 H1453 0.950 . S
C1429 C1428 1.349 . S
C1429 C1445 1.349 . S
C1430 C1428 1.327 . S
C1430 C1449 1.429 . S
C1430 H1454 0.950 . S
C1431 C1448 1.574 . S
C1431 C1450 1.368 . S
C1431 H1455 0.949 . S
H1432 C1436 0.949 . S
C1433 C1434 1.349 . S
C1433 C1435 1.327 . S
C1433 H1456 0.950 . S
C1434 C1433 1.349 . S
C1434 C1446 1.349 . S
C1435 C1433 1.327 . S
C1435 C1451 1.429 . S
C1435 H1457 0.950 . S
C1436 H1432 0.949 . S
C1436 C1444 1.574 . S
C1436 C1452 1.368 . S
H1437 C1445 0.950 . S
H1438 C1443 0.950 . S
H1439 C1444 0.949 . S
H1440 C1446 0.950 . S
H1441 C1447 0.950 . S
H1442 C1448 0.949 . S
C1443 H1438 0.950 . S
C1443 C1445 1.327 . S
C1443 C1449 1.429 . S
C1444 C1436 1.574 . S
C1444 H1439 0.949 . S
C1444 C1450 1.368 . S
C1445 C1429 1.349 . S
C1445 H1437 0.950 . S
C1445 C1443 1.327 . S
C1446 C1434 1.349 . S
C1446 H1440 0.950 . S
C1446 C1447 1.327 . S
C1447 H1441 0.950 . S
C1447 C1446 1.327 . S
C1447 C1451 1.429 . S
C1448 C1431 1.574 . S
C1448 H1442 0.949 . S
C1448 C1452 1.368 . S
C1449 C1430 1.429 . S
C1449 C1443 1.429 . S
C1449 C1450 1.523 . S
C1450 C1431 1.368 . S
C1450 C1444 1.368 . S
C1450 C1449 1.523 . S
C1451 C1435 1.429 . S
C1451 C1447 1.429 . S
C1451 C1452 1.523 1_554 S
C1452 C1436 1.368 . S
C1452 C1448 1.368 . S
C1452 C1451 1.523 1_556 S
H1453 C1428 0.950 . S
H1454 C1430 0.950 . S
H1455 C1431 0.949 . S
H1456 C1433 0.950 . S
H1457 C1435 0.950 . S
C1458 C1459 1.349 . S
C1458 C1460 1.327 . S
C1458 H1483 0.950 . S
C1459 C1458 1.349 . S
C1459 C1475 1.349 . S
C1460 C1458 1.327 . S
C1460 C1479 1.429 . S
C1460 H1484 0.950 . S
C1461 C1478 1.574 . S
C1461 C1480 1.368 . S
C1461 H1485 0.949 . S
H1462 C1466 0.949 . S
C1463 C1464 1.349 . S
C1463 C1465 1.327 . S
C1463 H1486 0.950 . S
C1464 C1463 1.349 . S
C1464 C1476 1.349 . S
C1465 C1463 1.327 . S
C1465 C1481 1.429 . S
C1465 H1487 0.950 . S
C1466 H1462 0.949 . S
C1466 C1474 1.574 . S
C1466 C1482 1.368 . S
H1467 C1475 0.950 . S
H1468 C1473 0.950 . S
H1469 C1474 0.949 . S
H1470 C1476 0.950 . S
H1471 C1477 0.950 . S
H1472 C1478 0.949 . S
C1473 H1468 0.950 . S
C1473 C1475 1.327 . S
C1473 C1479 1.429 . S
C1474 C1466 1.574 . S
C1474 H1469 0.949 . S
C1474 C1480 1.368 . S
C1475 C1459 1.349 . S
C1475 H1467 0.950 . S
C1475 C1473 1.327 . S
C1476 C1464 1.349 . S
C1476 H1470 0.950 . S
C1476 C1477 1.327 . S
C1477 H1471 0.950 . S
C1477 C1476 1.327 . S
C1477 C1481 1.429 . S
C1478 C1461 1.574 . S
C1478 H1472 0.949 . S
C1478 C1482 1.368 . S
C1479 C1460 1.429 . S
C1479 C1473 1.429 . S
C1479 C1480 1.523 . S
C1480 C1461 1.368 . S
C1480 C1474 1.368 . S
C1480 C1479 1.523 . S
C1481 C1465 1.429 . S
C1481 C1477 1.429 . S
C1481 C1482 1.523 . S
C1482 C1466 1.368 . S
C1482 C1478 1.368 . S
C1482 C1481 1.523 . S
H1483 C1458 0.950 . S
H1484 C1460 0.950 . S
H1485 C1461 0.949 . S
H1486 C1463 0.950 . S
H1487 C1465 0.950 . S
C1488 C1489 1.349 . S
C1488 C1490 1.327 . S
C1488 H1513 0.950 . S
C1489 C1488 1.349 . S
C1489 C1505 1.349 . S
C1490 C1488 1.327 . S
C1490 C1509 1.429 . S
C1490 H1514 0.950 . S
C1491 C1508 1.574 . S
C1491 C1510 1.368 . S
C1491 H1515 0.949 . S
H1492 C1496 0.949 . S
C1493 C1494 1.349 . S
C1493 C1495 1.327 . S
C1493 H1516 0.950 . S
C1494 C1493 1.349 . S
C1494 C1506 1.349 . S
C1495 C1493 1.327 . S
C1495 C1511 1.429 . S
C1495 H1517 0.950 . S
C1496 H1492 0.949 . S
C1496 C1504 1.574 . S
C1496 C1512 1.368 . S
H1497 C1505 0.950 . S
H1498 C1503 0.950 . S
H1499 C1504 0.949 . S
H1500 C1506 0.950 . S
H1501 C1507 0.950 . S
H1502 C1508 0.949 . S
C1503 H1498 0.950 . S
C1503 C1505 1.327 . S
C1503 C1509 1.429 . S
C1504 C1496 1.574 . S
C1504 H1499 0.949 . S
C1504 C1510 1.368 . S
C1505 C1489 1.349 . S
C1505 H1497 0.950 . S
C1505 C1503 1.327 . S
C1506 C1494 1.349 . S
C1506 H1500 0.950 . S
C1506 C1507 1.327 . S
C1507 H1501 0.950 . S
C1507 C1506 1.327 . S
C1507 C1511 1.429 . S
C1508 C1491 1.574 . S
C1508 H1502 0.949 . S
C1508 C1512 1.368 . S
C1509 C1490 1.429 . S
C1509 C1503 1.429 . S
C1509 C1510 1.523 . S
C1510 C1491 1.368 . S
C1510 C1504 1.368 . S
C1510 C1509 1.523 . S
C1511 C1495 1.429 . S
C1511 C1507 1.429 . S
C1511 C1512 1.523 . S
C1512 C1496 1.368 . S
C1512 C1508 1.368 . S
C1512 C1511 1.523 . S
H1513 C1488 0.950 . S
H1514 C1490 0.950 . S
H1515 C1491 0.949 . S
H1516 C1493 0.950 . S
H1517 C1495 0.950 . S
C1518 C1519 1.349 . S
C1518 C1520 1.327 . S
C1518 H1543 0.950 . S
C1519 C1518 1.349 . S
C1519 C1535 1.349 . S
C1520 C1518 1.327 . S
C1520 C1539 1.429 . S
C1520 H1544 0.950 . S
C1521 C1538 1.574 . S
C1521 C1540 1.368 . S
C1521 H1545 0.999 . S
H1522 C1526 0.949 . S
C1523 C1524 1.349 . S
C1523 C1525 1.327 . S
C1523 H1546 0.950 1_565 S
C1524 C1523 1.349 . S
C1524 C1536 1.349 . S
C1525 C1523 1.327 . S
C1525 C1541 1.429 . S
C1525 H1547 0.900 1_565 S
C1526 H1522 0.949 . S
C1526 C1534 1.574 . S
C1526 C1542 1.368 . S
H1527 C1535 0.950 . S
H1528 C1533 0.950 . S
H1529 C1534 0.949 . S
H1530 C1536 0.950 . S
H1531 C1537 0.950 . S
H1532 C1538 0.941 1_545 S
C1533 H1528 0.950 . S
C1533 C1535 1.327 . S
C1533 C1539 1.429 . S
C1534 C1526 1.574 . S
C1534 H1529 0.949 . S
C1534 C1540 1.368 . S
C1535 C1519 1.349 . S
C1535 H1527 0.950 . S
C1535 C1533 1.327 . S
C1536 C1524 1.349 . S
C1536 H1530 0.950 . S
C1536 C1537 1.327 . S
C1537 H1531 0.950 . S
C1537 C1536 1.327 . S
C1537 C1541 1.429 . S
C1538 C1521 1.574 . S
C1538 H1532 0.941 1_565 S
C1538 C1542 1.368 . S
C1539 C1520 1.429 . S
C1539 C1533 1.429 . S
C1539 C1540 1.523 1_554 S
C1540 C1521 1.368 . S
C1540 C1534 1.368 . S
C1540 C1539 1.523 1_556 S
C1541 C1525 1.429 . S
C1541 C1537 1.429 . S
C1541 C1542 1.523 . S
C1542 C1526 1.368 . S
C1542 C1538 1.368 . S
C1542 C1541 1.523 . S
H1543 C1518 0.950 . S
H1544 C1520 0.950 . S
H1545 C1521 0.999 . S
H1546 C1523 0.950 1_545 S
H1547 C1525 0.900 1_545 S
C1548 C1549 1.349 . S
C1548 C1550 1.327 . S
C1548 H1573 0.950 . S
C1549 C1548 1.349 . S
C1549 C1565 1.349 . S
C1550 C1548 1.327 . S
C1550 C1569 1.429 . S
C1550 H1574 0.950 . S
C1551 C1568 1.574 . S
C1551 C1570 1.368 . S
C1551 H1575 0.949 . S
H1552 C1556 0.949 . S
C1553 C1554 1.349 . S
C1553 C1555 1.327 . S
C1553 H1576 0.950 . S
C1554 C1553 1.349 . S
C1554 C1566 1.349 . S
C1555 C1553 1.327 . S
C1555 C1571 1.429 . S
C1555 H1577 0.950 . S
C1556 H1552 0.949 . S
C1556 C1564 1.574 . S
C1556 C1572 1.368 . S
H1557 C1565 0.950 . S
H1558 C1563 0.950 . S
H1559 C1564 0.949 . S
H1560 C1566 0.950 . S
H1561 C1567 0.950 . S
H1562 C1568 0.949 . S
C1563 H1558 0.950 . S
C1563 C1565 1.327 . S
C1563 C1569 1.429 . S
C1564 C1556 1.574 . S
C1564 H1559 0.949 . S
C1564 C1570 1.368 . S
C1565 C1549 1.349 . S
C1565 H1557 0.950 . S
C1565 C1563 1.327 . S
C1566 C1554 1.349 . S
C1566 H1560 0.950 . S
C1566 C1567 1.327 . S
C1567 H1561 0.950 . S
C1567 C1566 1.327 . S
C1567 C1571 1.429 . S
C1568 C1551 1.574 . S
C1568 H1562 0.949 . S
C1568 C1572 1.368 . S
C1569 C1550 1.429 . S
C1569 C1563 1.429 . S
C1569 C1570 1.523 . S
C1570 C1551 1.368 . S
C1570 C1564 1.368 . S
C1570 C1569 1.523 . S
C1571 C1555 1.429 . S
C1571 C1567 1.429 . S
C1571 C1572 1.523 . S
C1572 C1556 1.368 . S
C1572 C1568 1.368 . S
C1572 C1571 1.523 . S
H1573 C1548 0.950 . S
H1574 C1550 0.950 . S
H1575 C1551 0.949 . S
H1576 C1553 0.950 . S
H1577 C1555 0.950 . S
C1578 C1579 1.349 . S
C1578 C1580 1.327 . S
C1578 H1603 0.950 . S
C1579 C1578 1.349 . S
C1579 C1595 1.349 . S
C1580 C1578 1.327 . S
C1580 C1599 1.429 . S
C1580 H1604 0.950 . S
C1581 C1598 1.574 . S
C1581 C1600 1.368 . S
C1581 H1605 0.949 . S
H1582 C1586 0.949 . S
C1583 C1584 1.349 . S
C1583 C1585 1.327 . S
C1583 H1606 0.950 . S
C1584 C1583 1.349 . S
C1584 C1596 1.349 . S
C1585 C1583 1.327 . S
C1585 C1601 1.429 . S
C1585 H1607 0.950 . S
C1586 H1582 0.949 . S
C1586 C1594 1.574 . S
C1586 C1602 1.368 . S
H1587 C1595 0.950 . S
H1588 C1593 0.950 . S
H1589 C1594 0.949 . S
H1590 C1596 0.950 . S
H1591 C1597 0.950 . S
H1592 C1598 0.949 . S
C1593 H1588 0.950 . S
C1593 C1595 1.327 . S
C1593 C1599 1.429 . S
C1594 C1586 1.574 . S
C1594 H1589 0.949 . S
C1594 C1600 1.368 . S
C1595 C1579 1.349 . S
C1595 H1587 0.950 . S
C1595 C1593 1.327 . S
C1596 C1584 1.349 . S
C1596 H1590 0.950 . S
C1596 C1597 1.327 . S
C1597 H1591 0.950 . S
C1597 C1596 1.327 . S
C1597 C1601 1.429 . S
C1598 C1581 1.574 . S
C1598 H1592 0.949 . S
C1598 C1602 1.368 . S
C1599 C1580 1.429 . S
C1599 C1593 1.429 . S
C1599 C1600 1.523 1_554 S
C1600 C1581 1.368 . S
C1600 C1594 1.368 . S
C1600 C1599 1.523 1_556 S
C1601 C1585 1.429 . S
C1601 C1597 1.429 . S
C1601 C1602 1.523 . S
C1602 C1586 1.368 . S
C1602 C1598 1.368 . S
C1602 C1601 1.523 . S
H1603 C1578 0.950 . S
H1604 C1580 0.950 . S
H1605 C1581 0.949 . S
H1606 C1583 0.950 . S
H1607 C1585 0.950 . S
C1608 C1609 1.349 . S
C1608 C1610 1.327 . S
C1608 H1633 0.994 . S
C1609 C1608 1.349 . S
C1609 C1625 1.349 . S
C1610 C1608 1.327 . S
C1610 C1629 1.429 . S
C1610 H1634 0.950 . S
C1611 C1628 1.574 . S
C1611 C1630 1.368 . S
C1611 H1635 0.949 . S
H1612 C1616 0.949 . S
C1613 C1614 1.349 . S
C1613 C1615 1.327 . S
C1613 H1636 0.950 . S
C1614 C1613 1.349 . S
C1614 C1626 1.349 . S
C1615 C1613 1.327 . S
C1615 C1631 1.429 . S
C1615 H1637 0.950 . S
C1616 H1612 0.949 . S
C1616 C1624 1.574 . S
C1616 C1632 1.368 . S
H1617 C1625 0.950 . S
H1618 C1623 0.950 . S
H1619 C1624 0.949 . S
H1620 C1626 0.950 . S
H1621 C1627 0.950 . S
H1622 C1628 0.949 . S
C1623 H1618 0.950 . S
C1623 C1625 1.327 . S
C1623 C1629 1.429 . S
C1624 C1616 1.574 . S
C1624 H1619 0.949 . S
C1624 C1630 1.368 . S
C1625 C1609 1.349 . S
C1625 H1617 0.950 . S
C1625 C1623 1.327 . S
C1626 C1614 1.349 . S
C1626 H1620 0.950 . S
C1626 C1627 1.327 . S
C1627 H1621 0.950 . S
C1627 C1626 1.327 . S
C1627 C1631 1.429 . S
C1628 C1611 1.574 . S
C1628 H1622 0.949 . S
C1628 C1632 1.368 . S
C1629 C1610 1.429 . S
C1629 C1623 1.429 . S
C1629 C1630 1.523 . S
C1630 C1611 1.368 . S
C1630 C1624 1.368 . S
C1630 C1629 1.523 . S
C1631 C1615 1.429 . S
C1631 C1627 1.429 . S
C1631 C1632 1.523 1_556 S
C1632 C1616 1.368 . S
C1632 C1628 1.368 . S
C1632 C1631 1.523 1_554 S
H1633 C1608 0.994 . S
H1634 C1610 0.950 . S
H1635 C1611 0.949 . S
H1636 C1613 0.950 . S
H1637 C1615 0.950 . S
C1638 C1639 1.349 . S
C1638 C1640 1.327 . S
C1638 H1663 0.950 . S
C1639 C1638 1.349 . S
C1639 C1655 1.349 . S
C1640 C1638 1.327 . S
C1640 C1659 1.429 . S
C1640 H1664 0.950 . S
C1641 C1658 1.574 . S
C1641 C1660 1.368 . S
C1641 H1665 0.932 1_565 S
H1642 C1646 0.949 . S
C1643 C1644 1.349 . S
C1643 C1645 1.327 . S
C1643 H1666 0.950 . S
C1644 C1643 1.349 . S
C1644 C1656 1.349 . S
C1645 C1643 1.327 . S
C1645 C1661 1.429 . S
C1645 H1667 0.950 . S
C1646 H1642 0.949 . S
C1646 C1654 1.574 . S
C1646 C1662 1.368 . S
H1647 C1655 0.950 1_545 S
H1648 C1653 0.950 1_545 S
H1649 C1654 0.949 . S
H1650 C1656 0.950 . S
H1651 C1657 0.950 . S
H1652 C1658 0.990 . S
C1653 H1648 0.950 1_565 S
C1653 C1655 1.327 . S
C1653 C1659 1.429 . S
C1654 C1646 1.574 . S
C1654 H1649 0.949 . S
C1654 C1660 1.368 . S
C1655 C1639 1.349 . S
C1655 H1647 0.950 1_565 S
C1655 C1653 1.327 . S
C1656 C1644 1.349 . S
C1656 H1650 0.950 . S
C1656 C1657 1.327 . S
C1657 H1651 0.950 . S
C1657 C1656 1.327 . S
C1657 C1661 1.429 . S
C1658 C1641 1.574 . S
C1658 H1652 0.990 . S
C1658 C1662 1.368 . S
C1659 C1640 1.429 . S
C1659 C1653 1.429 . S
C1659 C1660 1.523 . S
C1660 C1641 1.368 . S
C1660 C1654 1.368 . S
C1660 C1659 1.523 . S
C1661 C1645 1.429 . S
C1661 C1657 1.429 . S
C1661 C1662 1.523 . S
C1662 C1646 1.368 . S
C1662 C1658 1.368 . S
C1662 C1661 1.523 . S
H1663 C1638 0.950 . S
H1664 C1640 0.950 . S
H1665 C1641 0.932 1_545 S
H1666 C1643 0.950 . S
H1667 C1645 0.950 . S
C1668 C1669 1.349 . S
C1668 C1670 1.327 . S
C1668 H1693 0.950 . S
C1669 C1668 1.349 . S
C1669 C1685 1.349 . S
C1670 C1668 1.327 . S
C1670 C1689 1.429 . S
C1670 H1694 0.950 . S
C1671 C1688 1.574 . S
C1671 C1690 1.368 . S
C1671 H1695 0.949 . S
H1672 C1676 0.949 . S
C1673 C1674 1.349 . S
C1673 C1675 1.327 . S
C1673 H1696 0.950 . S
C1674 C1673 1.349 . S
C1674 C1686 1.349 . S
C1675 C1673 1.327 . S
C1675 C1691 1.429 . S
C1675 H1697 0.950 . S
C1676 H1672 0.949 . S
C1676 C1684 1.574 . S
C1676 C1692 1.368 . S
H1677 C1685 0.950 . S
H1678 C1683 0.950 . S
H1679 C1684 0.949 . S
H1680 C1686 0.950 . S
H1681 C1687 0.950 . S
H1682 C1688 0.949 . S
C1683 H1678 0.950 . S
C1683 C1685 1.327 . S
C1683 C1689 1.429 . S
C1684 C1676 1.574 . S
C1684 H1679 0.949 . S
C1684 C1690 1.368 . S
C1685 C1669 1.349 . S
C1685 H1677 0.950 . S
C1685 C1683 1.327 . S
C1686 C1674 1.349 . S
C1686 H1680 0.950 . S
C1686 C1687 1.327 . S
C1687 H1681 0.950 . S
C1687 C1686 1.327 . S
C1687 C1691 1.429 . S
C1688 C1671 1.574 . S
C1688 H1682 0.949 . S
C1688 C1692 1.368 . S
C1689 C1670 1.429 . S
C1689 C1683 1.429 . S
C1689 C1690 1.523 1_556 S
C1690 C1671 1.368 . S
C1690 C1684 1.368 . S
C1690 C1689 1.523 1_554 S
C1691 C1675 1.429 . S
C1691 C1687 1.429 . S
C1691 C1692 1.523 . S
C1692 C1676 1.368 . S
C1692 C1688 1.368 . S
C1692 C1691 1.523 . S
H1693 C1668 0.950 . S
H1694 C1670 0.950 . S
H1695 C1671 0.949 . S
H1696 C1673 0.950 . S
H1697 C1675 0.950 . S
C1698 C1699 1.349 . S
C1698 C1700 1.327 . S
C1698 H1723 0.950 . S
C1699 C1698 1.349 . S
C1699 C1715 1.349 . S
C1700 C1698 1.327 . S
C1700 C1719 1.429 . S
C1700 H1724 0.950 . S
C1701 C1718 1.574 . S
C1701 C1720 1.368 . S
C1701 H1725 0.949 . S
H1702 C1706 0.949 . S
C1703 C1704 1.349 . S
C1703 C1705 1.327 . S
C1703 H1726 0.950 . S
C1704 C1703 1.349 . S
C1704 C1716 1.349 . S
C1705 C1703 1.327 . S
C1705 C1721 1.429 . S
C1705 H1727 0.950 . S
C1706 H1702 0.949 . S
C1706 C1714 1.574 . S
C1706 C1722 1.368 . S
H1707 C1715 0.950 . S
H1708 C1713 0.950 . S
H1709 C1714 0.949 . S
H1710 C1716 0.950 . S
H1711 C1717 0.950 . S
H1712 C1718 0.949 . S
C1713 H1708 0.950 . S
C1713 C1715 1.327 . S
C1713 C1719 1.429 . S
C1714 C1706 1.574 . S
C1714 H1709 0.949 . S
C1714 C1720 1.368 . S
C1715 C1699 1.349 . S
C1715 H1707 0.950 . S
C1715 C1713 1.327 . S
C1716 C1704 1.349 . S
C1716 H1710 0.950 . S
C1716 C1717 1.327 . S
C1717 H1711 0.950 . S
C1717 C1716 1.327 . S
C1717 C1721 1.429 . S
C1718 C1701 1.574 . S
C1718 H1712 0.949 . S
C1718 C1722 1.368 . S
C1719 C1700 1.429 . S
C1719 C1713 1.429 . S
C1719 C1720 1.523 . S
C1720 C1701 1.368 . S
C1720 C1714 1.368 . S
C1720 C1719 1.523 . S
C1721 C1705 1.429 . S
C1721 C1717 1.429 . S
C1721 C1722 1.523 . S
C1722 C1706 1.368 . S
C1722 C1718 1.368 . S
C1722 C1721 1.523 . S
H1723 C1698 0.950 . S
H1724 C1700 0.950 . S
H1725 C1701 0.949 . S
H1726 C1703 0.950 . S
H1727 C1705 0.950 . S
C529 C21 1.451 . S
C534 C516 1.451 . S
C559 C54 1.451 . S
C564 C417 1.451 . S
C589 C450 1.451 . S
C594 C87 1.451 . S
C619 C120 1.451 . S
C624 C483 1.451 . S
C649 C318 1.451 . S
C654 C153 1.451 . S
C679 C351 1.451 . S
C684 C186 1.451 . S
C709 C384 1.451 . S
C714 C219 1.451 . S
C739 C285 1.451 . S
C744 C252 1.451 . S
C769 C7 1.350 . S
C774 C238 1.350 . S
C799 C40 1.350 . S
C804 C139 1.350 . S
C829 C73 1.350 . S
C834 C172 1.350 . S
C859 C106 1.350 . S
C864 C205 1.350 . S
C889 C502 1.350 . S
C894 C271 1.350 . S
C919 C403 1.350 . S
C924 C304 1.350 . S
C949 C436 1.350 . S
C954 C337 1.350 . S
C979 C370 1.350 . S
C984 C469 1.350 . S
C1009 C18 1.018 . S
C1014 C150 1.018 . S
C1039 C183 1.018 . S
C1044 C51 1.018 . S
C1069 C216 1.018 . S
C1074 C84 1.018 . S
C1099 C117 1.018 . S
C1104 C249 1.018 . S
C1129 C414 1.018 . S
C1134 C282 1.018 . S
C1159 C315 1.018 . S
C1164 C447 1.018 . S
C1189 C348 1.018 . S
C1194 C480 1.018 . S
C1219 C513 1.018 . S
C1224 C381 1.018 . S
C1249 N2 1.280 . S
C1254 N13 1.282 . S
C1279 N46 1.282 . S
C1284 N35 1.280 . S
C1309 N68 1.280 . S
C1314 N79 1.282 . S
C1339 N112 1.282 . S
C1344 N101 1.280 . S
C1369 N134 1.280 . S
C1374 N145 1.282 . S
C1399 N167 1.280 . S
C1404 N178 1.282 . S
C1429 N200 1.280 . S
C1434 N211 1.282 . S
C1459 N233 1.280 . S
C1464 N244 1.282 . S
C1489 N277 1.282 . S
C1494 N266 1.280 . S
C1519 N310 1.282 . S
C1524 N299 1.280 . S
C1549 N343 1.282 . S
C1554 N332 1.280 . S
C1579 N376 1.282 . S
C1584 N365 1.280 . S
C1609 N398 1.280 . S
C1614 N409 1.282 . S
C1639 N431 1.280 . S
C1644 N442 1.282 . S
C1669 N475 1.282 . S
C1674 N464 1.280 . S
C1699 N508 1.282 . S
C1704 N497 1.280 . S
