# Generated by pormake.
# Topology qtz-e, (6)-cn, num edge types: 1
# Building blocks:
#     Node 0, Type 0, BuildingBlock: HISSIN_clean_sbu_0, # of connection points: 6
#     Node 1, Type 0, BuildingBlock: HISSIN_clean_sbu_0, # of connection points: 6
#     Node 2, Type 0, BuildingBlock: HISSIN_clean_sbu_0, # of connection points: 6
#     Node 3, Type 0, BuildingBlock: HISSIN_clean_sbu_0, # of connection points: 6
#     Node 4, Type 0, BuildingBlock: HISSIN_clean_sbu_0, # of connection points: 6
#     Node 5, Type 0, BuildingBlock: HISSIN_clean_sbu_0, # of connection points: 6
#     Edge 6, Type (0, 0), BuildingBlock: OJICUG_clean_linker_0, # of connection points: 2
#     Edge 7, Type (0, 0), BuildingBlock: OJICUG_clean_linker_0, # of connection points: 2
#     Edge 8, Type (0, 0), BuildingBlock: OJICUG_clean_linker_0, # of connection points: 2
#     Edge 9, Type (0, 0), BuildingBlock: OJICUG_clean_linker_0, # of connection points: 2
#     Edge 10, Type (0, 0), BuildingBlock: OJICUG_clean_linker_0, # of connection points: 2
#     Edge 11, Type (0, 0), BuildingBlock: OJICUG_clean_linker_0, # of connection points: 2
#     Edge 12, Type (0, 0), BuildingBlock: OJICUG_clean_linker_0, # of connection points: 2
#     Edge 13, Type (0, 0), BuildingBlock: OJICUG_clean_linker_0, # of connection points: 2
#     Edge 14, Type (0, 0), BuildingBlock: OJICUG_clean_linker_0, # of connection points: 2
#     Edge 15, Type (0, 0), BuildingBlock: OJICUG_clean_linker_0, # of connection points: 2
#     Edge 16, Type (0, 0), BuildingBlock: OJICUG_clean_linker_0, # of connection points: 2
#     Edge 17, Type (0, 0), BuildingBlock: OJICUG_clean_linker_0, # of connection points: 2
#     Edge 18, Type (0, 0), BuildingBlock: OJICUG_clean_linker_0, # of connection points: 2
#     Edge 19, Type (0, 0), BuildingBlock: OJICUG_clean_linker_0, # of connection points: 2
#     Edge 20, Type (0, 0), BuildingBlock: OJICUG_clean_linker_0, # of connection points: 2
#     Edge 21, Type (0, 0), BuildingBlock: OJICUG_clean_linker_0, # of connection points: 2
#     Edge 22, Type (0, 0), BuildingBlock: OJICUG_clean_linker_0, # of connection points: 2
#     Edge 23, Type (0, 0), BuildingBlock: OJICUG_clean_linker_0, # of connection points: 2
# Relax obj value: 0.116
# Max RMSD: 0.203
# Mean RMSD: 0.203
data_MOF--net-qtz-e--node1-HISSIN_clean_sbu_0--edge1-OJICUG_clean_linker_0
_symmetry_space_group_name_H-M    P1
_symmetry_Int_Tables_number       1
_symmetry_cell_setting            triclinic
loop_
_symmetry_equiv_pos_as_xyz
'x, y, z'
_cell_length_a     19.597687
_cell_length_b     19.38574
_cell_length_c     41.801984
_cell_angle_alpha  89.972877
_cell_angle_beta   89.793488
_cell_angle_gamma 121.39375
loop_
_atom_site_label
_atom_site_type_symbol
_atom_site_fract_x
_atom_site_fract_y
_atom_site_fract_z
_atom_type_partial_charge
Eu0 Eu 0.15549 0.45145 0.08972 0.0
Eu1 Eu 0.11852 0.29589 0.0439 0.0
C2 C -0.00416 0.34407 0.05966 0.0
C3 C 0.19941 0.59601 0.15973 0.0
C4 C 0.16984 0.55077 0.18811 0.0
C5 C 0.29238 0.71313 0.19116 0.0
C6 C 0.19985 0.58708 0.21777 0.0
C7 C 0.26205 0.67698 0.16153 0.0
C8 C 0.26008 0.66927 0.21968 0.0
C9 C 0.16353 0.56122 0.12834 0.0
O10 O 0.18859 0.4051 1.01302 0.0
O11 O 0.15826 0.49167 0.03819 0.0
C12 C 0.18721 0.4721 1.01356 0.0
O13 O 0.27806 0.4779 0.08114 0.0
O14 O 0.04245 0.20938 1.00746 0.0
O15 O 0.1367 0.19854 0.02917 0.0
O16 O 0.25362 0.37049 0.0485 0.0
C17 C 0.30243 0.43971 0.06305 0.0
O18 O 0.17557 0.36922 0.12067 0.0
O19 O 0.08555 0.25159 0.09547 0.0
O20 O 0.02642 0.33057 0.03454 0.0
O21 O 0.21293 0.57753 0.10455 0.0
O22 O 0.10358 0.48661 0.12783 0.0
O23 O 0.03061 0.34754 0.08632 0.0
C24 C 0.11285 0.17066 0.97359 0.0
C25 C 0.19434 0.21639 0.9655 0.0
C26 C 0.08218 0.12551 0.91833 0.0
C27 C 0.2195 0.21661 0.93417 0.0
C28 C 0.05712 0.12458 0.94984 0.0
C29 C 0.16375 0.1723 0.90998 0.0
C30 C 0.0849 0.17539 1.00593 0.0
C31 C 0.12498 0.29075 0.12141 0.0
H32 H 0.12177 0.48805 0.18757 0.0
H33 H 0.33937 0.77629 0.19178 0.0
H34 H 0.17274 0.55177 0.23924 0.0
H35 H 0.28618 0.71309 0.14001 0.0
H36 H 0.23873 0.25302 0.98326 0.0
H37 H 0.0373 0.09117 0.90043 0.0
H38 H 0.28294 0.25181 0.92899 0.0
H39 H -0.00612 0.08934 0.95549 0.0
Eu40 Eu 0.72885 0.19943 0.41907 0.0
Eu41 Eu 0.81793 0.12574 0.37514 0.0
C42 C 0.63818 0.02953 0.39611 0.0
C43 C 0.62536 0.21547 0.49155 0.0
C44 C 0.54989 0.19965 0.50076 0.0
C45 C 0.6486 0.1866 0.54564 0.0
C46 C 0.52409 0.17816 0.53228 0.0
C47 C 0.67408 0.20746 0.514 0.0
C48 C 0.57359 0.17235 0.55506 0.0
C49 C 0.652 0.23865 0.4584 0.0
O50 O 0.79023 0.1954 0.34055 0.0
O51 O 0.69034 0.20108 0.36781 0.0
C52 C 0.73176 0.20981 0.3415 0.0
O53 O 0.82219 0.30732 0.39405 0.0
O54 O 0.81116 0.04286 0.33803 0.0
O55 O 0.92262 0.11902 0.36275 0.0
O56 O 0.9062 0.2622 0.37946 0.0
C57 C 0.88997 0.32018 0.38271 0.0
O58 O 0.82113 0.19628 0.45001 0.0
O59 O 0.81829 0.08811 0.42684 0.0
O60 O 0.68239 0.04616 0.37043 0.0
O61 O 0.72926 0.28257 0.45394 0.0
O62 O 0.61617 0.18139 0.4372 0.0
O63 O 0.67605 0.06699 0.4218 0.0
C64 C 0.92936 0.09985 0.30729 0.0
C65 C 0.96086 0.18037 0.2978 0.0
C66 C 0.97171 0.07328 0.25627 0.0
C67 C -0.00212 0.2073 0.26797 0.0
C68 C 0.93487 0.04643 0.28631 0.0
C69 C 0.00386 0.15424 0.24678 0.0
C70 C 0.88787 0.07132 0.33839 0.0
C71 C 0.82938 0.13339 0.45216 0.0
H72 H 0.51131 0.20477 0.48366 0.0
H73 H 0.6875 0.18197 0.56271 0.0
H74 H 0.46632 0.1685 0.53905 0.0
H75 H 0.73212 0.21812 0.50718 0.0
H76 H 0.95604 0.22238 0.31335 0.0
H77 H -0.02466 0.03087 0.24056 0.0
H78 H 0.02028 0.26949 0.26122 0.0
H79 H 0.91004 0.98385 0.29306 0.0
Eu80 Eu 0.48623 0.76778 0.75875 0.0
Eu81 Eu 0.65605 0.84709 0.71383 0.0
C82 C 0.52173 0.65693 0.71559 0.0
C83 C 0.346 0.70292 0.83167 0.0
C84 C 0.40464 0.71211 0.85333 0.0
C85 C 0.24767 0.65075 0.87464 0.0
C86 C 0.38434 0.68864 0.88529 0.0
C87 C 0.26804 0.67419 0.84267 0.0
C88 C 0.30502 0.65533 0.89609 0.0
C89 C 0.36327 0.71547 0.7972 0.0
O90 O 0.5581 0.82262 0.6799 0.0
O91 O 0.45293 0.80299 0.71237 0.0
C92 C 0.48877 0.81661 0.68432 0.0
O93 O 0.57956 0.89543 0.76938 0.0
O94 O 0.72296 0.83145 0.6755 0.0
O95 O 0.77396 0.94709 0.69929 0.0
O96 O 0.62035 0.93991 0.71987 0.0
C97 C 0.59128 0.94722 0.74702 0.0
O98 O 0.57426 0.74815 0.78586 0.0
O99 O 0.69371 0.85149 0.76523 0.0
O100 O 0.59889 0.71093 0.71793 0.0
O101 O 0.40551 0.79009 0.78707 0.0
O102 O 0.38528 0.66906 0.78396 0.0
O103 O 0.46778 0.67494 0.72275 0.0
C104 C 0.79609 0.9475 0.64319 0.0
C105 C 0.75941 0.99015 0.63385 0.0
C106 C 0.85695 0.97122 0.59017 0.0
C107 C 0.77168 0.02336 0.60306 0.0
C108 C 0.84516 0.93857 0.62112 0.0
C109 C 0.82032 0.01404 0.58072 0.0
C110 C 0.77919 0.90767 0.67495 0.0
C111 C 0.65213 0.79863 0.78795 0.0
H112 H 0.46526 0.7344 0.84523 0.0
H113 H 0.18599 0.62468 0.88206 0.0
H114 H 0.43016 0.6939 0.9013 0.0
H115 H 0.22203 0.66657 0.82621 0.0
H116 H 0.72026 -0.00318 0.65023 0.0
H117 H 0.89493 0.96316 0.57367 0.0
H118 H 0.74141 0.05471 0.59648 0.0
H119 H 0.87361 0.9054 0.62768 0.0
Eu120 Eu 0.73666 0.51012 0.08655 0.0
Eu121 Eu 0.82536 0.67698 0.04182 0.0
C122 C 0.90719 0.58236 0.06495 0.0
C123 C 0.67786 0.36503 0.15739 0.0
C124 C 0.73893 0.4222 0.17707 0.0
C125 C 0.62507 0.27038 0.20174 0.0
C126 C 0.74382 0.40296 0.20885 0.0
C127 C 0.62041 0.2896 0.16994 0.0
C128 C 0.68752 0.32643 0.22137 0.0
C129 C 0.67228 0.38379 0.12396 0.0
O130 O 0.74727 0.5759 1.00842 0.0
O131 O 0.73952 0.4688 0.03585 0.0
C132 C 0.73199 0.50137 1.00937 0.0
O133 O 0.63947 0.50862 0.0597 0.0
O134 O 0.90789 0.74658 1.00297 0.0
O135 O 0.84564 0.79509 0.02824 0.0
O136 O 0.69791 0.64536 0.0519 0.0
C137 C 0.63482 0.57151 0.05274 0.0
O138 O 0.7588 0.61475 0.11801 0.0
O139 O 0.86929 0.7168 0.09239 0.0
O140 O 0.89542 0.61364 0.03935 0.0
O141 O 0.64217 0.42924 0.11938 0.0
O142 O 0.73461 0.40452 0.10581 0.0
O143 O 0.86863 0.57922 0.09076 0.0
C144 C 0.85616 0.80966 0.97192 0.0
C145 C 0.77344 0.77185 0.96707 0.0
C146 C 0.87817 0.84913 0.91579 0.0
C147 C 0.74334 0.77249 0.93694 0.0
C148 C 0.90836 0.84911 0.94615 0.0
C149 C 0.79506 0.80962 0.91066 0.0
C150 C 0.88688 0.80025 1.00277 0.0
C151 C 0.82547 0.68606 0.11845 0.0
H152 H 0.78309 0.48121 0.16777 0.0
H153 H 0.58152 0.21069 0.21062 0.0
H154 H 0.79218 0.44755 0.22353 0.0
H155 H 0.57254 0.24517 0.15502 0.0
H156 H 0.73169 0.74012 0.98644 0.0
H157 H 0.91993 0.87785 0.89617 0.0
H158 H 0.6792 0.74317 0.93426 0.0
H159 H 0.97236 0.87782 0.94929 0.0
Eu160 Eu 0.2467 0.7956 0.41959 0.0
Eu161 Eu 0.13944 0.84639 0.37432 0.0
C162 C 0.31569 0.96352 0.3946 0.0
C163 C 0.35357 0.79736 0.49417 0.0
C164 C 0.42858 0.81734 0.5056 0.0
C165 C 0.31495 0.81395 0.5476 0.0
C166 C 0.44641 0.83439 0.53792 0.0
C167 C 0.29747 0.79758 0.51516 0.0
C168 C 0.38928 0.83149 0.55931 0.0
C169 C 0.33395 0.77525 0.46052 0.0
O170 O 0.19433 0.80335 0.33887 0.0
O171 O 0.29092 0.79752 0.36892 0.0
C172 C 0.2567 0.79525 0.34139 0.0
O173 O 0.17009 0.68354 0.39302 0.0
O174 O 0.12927 0.92976 0.34232 0.0
O175 O 0.02243 0.82014 0.35795 0.0
O176 O 0.07167 0.70841 0.37805 0.0
C177 C 0.09958 0.65953 0.38136 0.0
O178 O 0.14279 0.77921 0.44917 0.0
O179 O 0.12994 0.87841 0.42595 0.0
O180 O 0.27165 0.94166 0.36891 0.0
O181 O 0.25934 0.72065 0.45472 0.0
O182 O 0.3636 0.83511 0.44012 0.0
O183 O 0.27944 0.9238 0.42033 0.0
C184 C 0.02225 0.86427 0.30535 0.0
C185 C 0.9469 0.85246 0.29845 0.0
C186 C 0.03432 0.83362 0.24987 0.0
C187 C 0.91505 0.83063 0.2676 0.0
C188 C 0.06594 0.85502 0.28078 0.0
C189 C 0.95805 0.82022 0.24298 0.0
C190 C 0.05234 0.88191 0.33854 0.0
C191 C 0.12385 0.83487 0.45125 0.0
H192 H 0.47268 0.81805 0.48966 0.0
H193 H 0.27023 0.81191 0.56356 0.0
H194 H 0.50389 0.84674 0.54639 0.0
H195 H 0.23961 0.78345 0.50656 0.0
H196 H 0.91209 0.85897 0.31708 0.0
H197 H 0.06854 0.825 0.23162 0.0
H198 H 0.85653 0.8215 0.26306 0.0
H199 H 0.12385 0.86284 0.28559 0.0
Eu200 Eu 0.45283 0.21274 0.75279 0.0
Eu201 Eu 0.28247 0.12759 0.70968 0.0
C202 C 0.41191 0.31903 0.71014 0.0
C203 C 0.58844 0.28205 0.82554 0.0
C204 C 0.53052 0.28293 0.84506 0.0
C205 C 0.67843 0.32343 0.87085 0.0
C206 C 0.54749 0.30656 0.87701 0.0
C207 C 0.66159 0.30033 0.83877 0.0
C208 C 0.62244 0.32917 0.88998 0.0
C209 C 0.57541 0.26863 0.79098 0.0
O210 O 0.38014 0.15395 0.67488 0.0
O211 O 0.48704 0.1776 0.70668 0.0
C212 C 0.45068 0.16253 0.67885 0.0
O213 O 0.36167 0.0857 0.76554 0.0
O214 O 0.21238 0.13754 0.6714 0.0
O215 O 0.16525 0.02431 0.69696 0.0
O216 O 0.32281 0.03849 0.71645 0.0
C217 C 0.35111 0.03284 0.74398 0.0
O218 O 0.36512 0.23363 0.77952 0.0
O219 O 0.24638 0.1254 0.76141 0.0
O220 O 0.33532 0.2634 0.71322 0.0
O221 O 0.53469 0.19354 0.78147 0.0
O222 O 0.55383 0.31393 0.77646 0.0
O223 O 0.46724 0.30222 0.71588 0.0
C224 C 0.14137 0.01841 0.64095 0.0
C225 C 0.18247 0.97993 0.63187 0.0
C226 C 0.07763 0.98683 0.58859 0.0
C227 C 0.17118 0.9451 0.60149 0.0
C228 C 0.08853 0.02116 0.61912 0.0
C229 C 0.11905 0.94857 0.57932 0.0
C230 C 0.15778 0.06073 0.67206 0.0
C231 C 0.2881 0.18113 0.78307 0.0
H232 H 0.47343 0.26843 0.83525 0.0
H233 H 0.73683 0.34112 0.88016 0.0
H234 H 0.503 0.30974 0.89132 0.0
H235 H 0.70685 0.29982 0.82399 0.0
H236 H 0.2245 0.97806 0.64808 0.0
H237 H 0.03686 0.99033 0.57222 0.0
H238 H 0.20516 0.91747 0.59504 0.0
H239 H 0.05659 0.05102 0.6255 0.0
C240 C 0.2861 0.70559 0.30921 0.0
C241 C 0.28292 0.77601 0.31158 0.0
H242 H 0.28206 0.61611 0.27776 0.0
C243 C 0.28588 0.81761 0.28367 0.0
H244 H 0.28263 0.67199 0.3305 0.0
C245 C 0.28503 0.78584 0.25371 0.0
C246 C 0.28049 0.71128 0.25105 0.0
H247 H 0.28278 0.87176 0.28503 0.0
H248 H 0.28116 0.81653 0.23278 0.0
C249 C 0.28459 0.67319 0.27908 0.0
C250 C 0.43916 0.09677 0.62697 0.0
C251 C 0.48816 0.15316 0.65016 0.0
H252 H 0.42905 0.05699 0.57863 0.0
C253 C 0.56954 0.20613 0.64367 0.0
H254 H 0.37648 0.05403 0.63182 0.0
C255 C 0.59951 0.20837 0.61302 0.0
C256 C 0.54828 0.15717 0.58889 0.0
H257 H 0.60822 0.24981 0.66134 0.0
H258 H 0.66096 0.25411 0.6076 0.0
C259 C 0.46908 0.09846 0.59662 0.0
C260 C 0.27906 0.52205 0.96676 0.0
C261 C 0.22146 0.52609 0.98545 0.0
H262 H 0.35017 0.55932 0.92432 0.0
C263 C 0.19557 0.57823 0.97592 0.0
H264 H 0.30098 0.48312 0.97362 0.0
C265 C 0.22424 0.62252 0.94731 0.0
C266 C 0.28018 0.61631 0.92815 0.0
H267 H 0.15126 0.5825 0.9899 0.0
H268 H 0.20185 0.66066 0.93993 0.0
C269 C 0.30812 0.5666 0.9386 0.0
C270 C 0.78436 0.29012 0.29174 0.0
C271 C 0.71913 0.24437 0.31237 0.0
H272 H 0.82527 0.35177 0.24708 0.0
C273 C 0.64361 0.23024 0.30405 0.0
H274 H 0.84361 0.30291 0.29774 0.0
C275 C 0.63308 0.25848 0.2747 0.0
C276 C 0.69826 0.30237 0.2537 0.0
H277 H 0.59253 0.19519 0.31962 0.0
H278 H 0.57398 0.24528 0.26825 0.0
C279 C 0.77412 0.31897 0.26284 0.0
C280 C 0.37559 0.7775 0.64672 0.0
C281 C 0.45458 0.83161 0.656 0.0
H282 H 0.2924 0.73496 0.60786 0.0
C283 C 0.50626 0.89483 0.63537 0.0
H284 H 0.33504 0.72839 0.66237 0.0
C285 C 0.48197 0.89952 0.6047 0.0
C286 C 0.40605 0.84006 0.59394 0.0
H287 H 0.56723 0.93803 0.64235 0.0
H288 H 0.52447 0.94638 0.58867 0.0
C289 C 0.35141 0.7815 0.61565 0.0
C290 C 0.71158 0.38823 0.97336 0.0
C291 C 0.69999 0.45241 0.98011 0.0
H292 H 0.69638 0.29863 0.9391 0.0
C293 C 0.65918 0.47227 0.95792 0.0
H294 H 0.74302 0.37191 0.99007 0.0
C295 C 0.63188 0.43014 0.92928 0.0
C296 C 0.64546 0.36765 0.92191 0.0
H297 H 0.64874 0.52103 0.96257 0.0
H298 H 0.60239 0.4484 0.91239 0.0
C299 C 0.68524 0.34667 0.94425 0.0
C300 C 0.44212 0.55359 0.07274 0.0
C301 C 0.38892 0.48054 0.05704 0.0
H302 H 0.56453 0.64278 0.08255 0.0
C303 C 0.41907 0.44894 0.0348 0.0
H304 H 0.42063 0.58061 0.08955 0.0
C305 C 0.50115 0.48587 0.03038 0.0
C306 C 0.55411 0.55477 0.04811 0.0
H307 H 0.3797 0.39421 1.02165 0.0
H308 H 0.52356 0.45722 1.01484 0.0
C309 C 0.5244 0.59057 0.06826 0.0
C310 C 0.9691 0.53847 0.36595 0.0
C311 C 0.04927 0.57259 0.37439 0.0
H312 H 0.85586 0.42986 0.36079 0.0
C313 C 0.08005 0.5216 0.37897 0.0
H314 H 0.94413 0.57597 0.3615 0.0
C315 C 0.02944 0.43779 0.37883 0.0
C316 C 0.94774 0.40425 0.37394 0.0
H317 H 0.14242 0.54614 0.38465 0.0
H318 H 0.05309 0.39996 0.38499 0.0
C319 C 0.91879 0.45485 0.36557 0.0
C320 C 0.43713 -0.00418 0.77389 0.0
C321 C 0.40747 0.00403 0.74451 0.0
H322 H 0.5202 0.97334 0.79772 0.0
C323 C 0.44229 -0.00179 0.716 0.0
H324 H 0.41217 0.00119 0.79626 0.0
C325 C 0.50723 0.98738 0.7169 0.0
C326 C 0.53551 0.97689 0.74624 0.0
H327 H 0.42134 0.00477 0.69294 0.0
H328 H 0.5334 0.98453 0.69451 0.0
C329 C 0.50004 0.98169 0.77474 0.0
C330 C 0.41091 0.51319 0.7086 0.0
C331 C 0.49346 0.57137 0.70863 0.0
H332 H 0.32004 0.38754 0.70878 0.0
C333 C 0.54789 0.54573 0.70465 0.0
H334 H 0.36709 0.53087 0.71121 0.0
C335 C 0.52064 0.46343 0.703 0.0
C336 C 0.43841 0.40504 0.70544 0.0
H337 H 0.61168 0.58889 0.70419 0.0
H338 H 0.56457 0.44567 0.70129 0.0
C339 C 0.38367 0.43083 0.70707 0.0
C340 C 0.93335 0.4098 0.08638 0.0
C341 C 0.96142 0.39553 0.05779 0.0
H342 H 0.90114 0.48323 0.11166 0.0
C343 C 0.97106 0.44289 0.03068 0.0
H344 H 0.92559 0.37448 0.1077 0.0
C345 C 0.9552 0.5055 0.03274 0.0
C346 C 0.93091 0.52189 0.06203 0.0
H347 H -0.00609 0.43391 1.00845 0.0
H348 H 0.96266 0.54132 1.01166 0.0
C349 C 0.92026 0.47313 0.08871 0.0
C350 C 0.43888 0.98992 0.36387 0.0
C351 C 0.40168 -0.00847 0.39255 0.0
H352 H 0.54374 0.00012 0.34219 0.0
C353 C 0.4429 0.00502 0.42142 0.0
H354 H 0.40821 0.97873 0.34123 0.0
C355 C 0.51595 0.00991 0.42222 0.0
C356 C 0.5542 0.00908 0.39388 0.0
H357 H 0.41628 0.00669 0.44397 0.0
H358 H 0.54353 0.01674 0.44536 0.0
C359 C 0.51533 -0.0002 0.36451 0.0
C360 C 0.28626 0.24991 0.83334 0.0
C361 C 0.25027 0.18095 0.81383 0.0
H362 H 0.28583 0.30228 0.87817 0.0
C363 C 0.18245 0.11019 0.82534 0.0
H364 H 0.33822 0.30561 0.82507 0.0
C365 C 0.15346 0.10747 0.85629 0.0
C366 C 0.19106 0.17584 0.87627 0.0
H367 H 0.15383 0.0558 0.81098 0.0
H368 H 0.10332 0.05088 0.86488 0.0
C369 C 0.25663 0.24763 0.864 0.0
C370 C 0.00583 0.13795 0.1869 0.0
C371 C 0.04143 0.18374 0.21465 0.0
H372 H 0.0045 0.13536 0.13559 0.0
C373 C 0.1104 0.26091 0.21129 0.0
H374 H 0.95251 0.07837 0.18861 0.0
C375 C 0.14022 0.29351 0.181 0.0
C376 C 0.10182 0.2499 0.15316 0.0
H377 H 0.14032 0.29717 0.23215 0.0
H378 H 0.19168 0.35439 0.1795 0.0
C379 C 0.03564 0.17073 0.15648 0.0
C380 C 0.82677 0.00192 0.52064 0.0
C381 C 0.83108 0.04761 0.54759 0.0
H382 H 0.82307 -0.00715 0.46939 0.0
C383 C 0.84259 0.12471 0.54261 0.0
H384 H 0.81763 0.94216 0.52356 0.0
C385 C 0.84664 0.15412 0.51163 0.0
C386 C 0.8382 0.1069 0.48463 0.0
H387 H 0.84766 0.16222 0.56275 0.0
H388 H 0.85426 0.21328 0.50893 0.0
C389 C 0.82997 0.03106 0.48953 0.0
C390 C 0.65544 0.73313 0.83907 0.0
C391 C 0.6926 0.79916 0.81794 0.0
H392 H 0.65964 0.68336 0.88405 0.0
C393 C 0.766 0.86744 0.82677 0.0
H394 H 0.59926 0.67927 0.8329 0.0
C395 C 0.79996 0.87071 0.8566 0.0
C396 C 0.76169 0.80537 0.87815 0.0
H397 H 0.79592 0.91961 0.81112 0.0
H398 H 0.85492 0.92547 0.8631 0.0
C399 C 0.68984 0.7359 0.86861 0.0
C400 C 0.96783 0.82434 0.18274 0.0
C401 C 0.92195 0.79134 0.21073 0.0
H402 H -0.02684 0.81833 0.13168 0.0
C403 C 0.8421 0.72758 0.20778 0.0
H404 H 0.02923 0.8741 0.18416 0.0
C405 C 0.8099 0.69553 0.17773 0.0
C406 C 0.8565 0.72678 0.14979 0.0
H407 H 0.80526 0.70023 0.22883 0.0
H408 H 0.749 0.64469 0.17654 0.0
C409 C 0.9354 0.79271 0.15263 0.0
C410 C 0.11027 0.9579 0.51928 0.0
C411 C 0.11047 0.91479 0.54638 0.0
H412 H 0.1139 0.9666 0.46806 0.0
C413 C 0.1063 0.84086 0.54165 0.0
H414 H 0.11375 0.01521 0.52197 0.0
C415 C 0.10549 0.81254 0.51074 0.0
C416 C 0.11001 0.85787 0.48362 0.0
H417 H 0.1048 0.80524 0.56192 0.0
H418 H 0.10377 0.75609 0.50817 0.0
C419 C 0.1103 0.92992 0.4883 0.0
loop_
_geom_bond_atom_site_label_1
_geom_bond_atom_site_label_2
_geom_bond_distance
_geom_bond_site_symmetry_2
_ccdc_geom_bond_type
Eu0 C9 2.828 . S
Eu0 O11 2.392 . S
Eu0 O13 2.418 . S
Eu0 O18 2.373 . S
Eu0 O21 2.488 . S
Eu0 O22 2.471 . S
Eu0 O23 2.349 . S
Eu1 O10 2.373 1_554 S
Eu1 O14 2.488 1_554 S
Eu1 O15 2.471 1_554 S
Eu1 O16 2.349 . S
Eu1 O19 2.392 . S
Eu1 O20 2.418 . S
Eu1 C30 2.828 1_554 S
C2 O20 1.244 . S
C2 O23 1.265 . S
C3 C4 1.379 . S
C3 C7 1.373 . S
C3 C9 1.505 . S
C4 C3 1.379 . S
C4 C6 1.369 . S
C4 H32 0.930 . S
C5 C7 1.383 . S
C5 C8 1.382 . S
C5 H33 0.930 . S
C6 C4 1.369 . S
C6 C8 1.392 . S
C6 H34 0.930 . S
C7 C3 1.373 . S
C7 C5 1.383 . S
C7 H35 0.931 . S
C8 C5 1.382 . S
C8 C6 1.392 . S
C9 Eu0 2.828 . S
C9 C3 1.505 . S
C9 O21 1.249 . S
C9 O22 1.244 . S
O10 Eu1 2.373 1_556 S
O10 C12 1.258 . S
O11 Eu0 2.392 . S
O11 C12 1.242 1_554 S
C12 O10 1.258 . S
C12 O11 1.242 1_556 S
O13 Eu0 2.418 . S
O13 C17 1.244 . S
O14 Eu1 2.488 1_556 S
O14 C30 1.249 . S
O15 Eu1 2.471 1_556 S
O15 C30 1.244 . S
O16 Eu1 2.349 . S
O16 C17 1.265 . S
C17 O13 1.244 . S
C17 O16 1.265 . S
O18 Eu0 2.373 . S
O18 C31 1.258 . S
O19 Eu1 2.392 . S
O19 C31 1.242 . S
O20 Eu1 2.418 . S
O20 C2 1.244 . S
O21 Eu0 2.488 . S
O21 C9 1.249 . S
O22 Eu0 2.471 . S
O22 C9 1.244 . S
O23 Eu0 2.349 . S
O23 C2 1.265 . S
C24 C25 1.379 . S
C24 C28 1.373 . S
C24 C30 1.505 . S
C25 C24 1.379 . S
C25 C27 1.369 . S
C25 H36 0.930 . S
C26 C28 1.383 . S
C26 C29 1.382 . S
C26 H37 0.930 . S
C27 C25 1.369 . S
C27 C29 1.392 . S
C27 H38 0.930 . S
C28 C24 1.373 . S
C28 C26 1.383 . S
C28 H39 0.931 . S
C29 C26 1.382 . S
C29 C27 1.392 . S
C30 Eu1 2.828 1_556 S
C30 O14 1.249 . S
C30 O15 1.244 . S
C30 C24 1.505 . S
C31 O18 1.258 . S
C31 O19 1.242 . S
H32 C4 0.930 . S
H33 C5 0.930 . S
H34 C6 0.930 . S
H35 C7 0.931 . S
H36 C25 0.930 . S
H37 C26 0.930 . S
H38 C27 0.930 . S
H39 C28 0.931 . S
Eu40 C49 2.828 . S
Eu40 O51 2.392 . S
Eu40 O53 2.418 . S
Eu40 O58 2.373 . S
Eu40 O61 2.488 . S
Eu40 O62 2.471 . S
Eu40 O63 2.349 . S
Eu41 O50 2.373 . S
Eu41 O54 2.488 . S
Eu41 O55 2.471 . S
Eu41 O56 2.349 . S
Eu41 O59 2.392 . S
Eu41 O60 2.418 . S
Eu41 C70 2.828 . S
C42 O60 1.244 . S
C42 O63 1.265 . S
C43 C44 1.379 . S
C43 C47 1.373 . S
C43 C49 1.505 . S
C44 C43 1.379 . S
C44 C46 1.369 . S
C44 H72 0.930 . S
C45 C47 1.383 . S
C45 C48 1.382 . S
C45 H73 0.930 . S
C46 C44 1.369 . S
C46 C48 1.392 . S
C46 H74 0.930 . S
C47 C43 1.373 . S
C47 C45 1.383 . S
C47 H75 0.931 . S
C48 C45 1.382 . S
C48 C46 1.392 . S
C49 Eu40 2.828 . S
C49 C43 1.505 . S
C49 O61 1.249 . S
C49 O62 1.244 . S
O50 Eu41 2.373 . S
O50 C52 1.258 . S
O51 Eu40 2.392 . S
O51 C52 1.242 . S
C52 O50 1.258 . S
C52 O51 1.242 . S
O53 Eu40 2.418 . S
O53 C57 1.244 . S
O54 Eu41 2.488 . S
O54 C70 1.249 . S
O55 Eu41 2.471 . S
O55 C70 1.244 . S
O56 Eu41 2.349 . S
O56 C57 1.265 . S
C57 O53 1.244 . S
C57 O56 1.265 . S
O58 Eu40 2.373 . S
O58 C71 1.258 . S
O59 Eu41 2.392 . S
O59 C71 1.242 . S
O60 Eu41 2.418 . S
O60 C42 1.244 . S
O61 Eu40 2.488 . S
O61 C49 1.249 . S
O62 Eu40 2.471 . S
O62 C49 1.244 . S
O63 Eu40 2.349 . S
O63 C42 1.265 . S
C64 C65 1.379 1_655 S
C64 C68 1.373 . S
C64 C70 1.505 . S
C65 C64 1.379 1_455 S
C65 C67 1.369 . S
C65 H76 0.930 . S
C66 C68 1.383 . S
C66 C69 1.382 1_655 S
C66 H77 0.930 . S
C67 C65 1.369 . S
C67 C69 1.392 . S
C67 H78 0.930 . S
C68 C64 1.373 . S
C68 C66 1.383 . S
C68 H79 0.931 . S
C69 C66 1.382 1_455 S
C69 C67 1.392 . S
C70 Eu41 2.828 . S
C70 O54 1.249 . S
C70 O55 1.244 . S
C70 C64 1.505 . S
C71 O58 1.258 . S
C71 O59 1.242 . S
H72 C44 0.930 . S
H73 C45 0.930 . S
H74 C46 0.930 . S
H75 C47 0.931 . S
H76 C65 0.930 . S
H77 C66 0.930 . S
H78 C67 0.930 . S
H79 C68 0.931 . S
Eu80 C89 2.828 . S
Eu80 O91 2.392 . S
Eu80 O93 2.418 . S
Eu80 O98 2.373 . S
Eu80 O101 2.488 . S
Eu80 O102 2.471 . S
Eu80 O103 2.349 . S
Eu81 O90 2.373 . S
Eu81 O94 2.488 . S
Eu81 O95 2.471 . S
Eu81 O96 2.349 . S
Eu81 O99 2.392 . S
Eu81 O100 2.418 . S
Eu81 C110 2.828 . S
C82 O100 1.244 . S
C82 O103 1.265 . S
C83 C84 1.379 . S
C83 C87 1.373 . S
C83 C89 1.505 . S
C84 C83 1.379 . S
C84 C86 1.369 . S
C84 H112 0.930 . S
C85 C87 1.383 . S
C85 C88 1.382 . S
C85 H113 0.930 . S
C86 C84 1.369 . S
C86 C88 1.392 . S
C86 H114 0.930 . S
C87 C83 1.373 . S
C87 C85 1.383 . S
C87 H115 0.931 . S
C88 C85 1.382 . S
C88 C86 1.392 . S
C89 Eu80 2.828 . S
C89 C83 1.505 . S
C89 O101 1.249 . S
C89 O102 1.244 . S
O90 Eu81 2.373 . S
O90 C92 1.258 . S
O91 Eu80 2.392 . S
O91 C92 1.242 . S
C92 O90 1.258 . S
C92 O91 1.242 . S
O93 Eu80 2.418 . S
O93 C97 1.244 . S
O94 Eu81 2.488 . S
O94 C110 1.249 . S
O95 Eu81 2.471 . S
O95 C110 1.244 . S
O96 Eu81 2.349 . S
O96 C97 1.265 . S
C97 O93 1.244 . S
C97 O96 1.265 . S
O98 Eu80 2.373 . S
O98 C111 1.258 . S
O99 Eu81 2.392 . S
O99 C111 1.242 . S
O100 Eu81 2.418 . S
O100 C82 1.244 . S
O101 Eu80 2.488 . S
O101 C89 1.249 . S
O102 Eu80 2.471 . S
O102 C89 1.244 . S
O103 Eu80 2.349 . S
O103 C82 1.265 . S
C104 C105 1.379 1_565 S
C104 C108 1.373 . S
C104 C110 1.505 . S
C105 C104 1.379 1_545 S
C105 C107 1.369 . S
C105 H116 0.930 . S
C106 C108 1.383 . S
C106 C109 1.382 1_565 S
C106 H117 0.930 . S
C107 C105 1.369 . S
C107 C109 1.392 . S
C107 H118 0.930 . S
C108 C104 1.373 . S
C108 C106 1.383 . S
C108 H119 0.931 . S
C109 C106 1.382 1_545 S
C109 C107 1.392 . S
C110 Eu81 2.828 . S
C110 O94 1.249 . S
C110 O95 1.244 . S
C110 C104 1.505 . S
C111 O98 1.258 . S
C111 O99 1.242 . S
H112 C84 0.930 . S
H113 C85 0.930 . S
H114 C86 0.930 . S
H115 C87 0.931 . S
H116 C105 0.930 . S
H117 C106 0.930 . S
H118 C107 0.930 . S
H119 C108 0.931 . S
Eu120 C129 2.828 . S
Eu120 O131 2.392 . S
Eu120 O133 2.418 . S
Eu120 O138 2.373 . S
Eu120 O141 2.488 . S
Eu120 O142 2.471 . S
Eu120 O143 2.349 . S
Eu121 O130 2.373 1_554 S
Eu121 O134 2.488 1_554 S
Eu121 O135 2.471 1_554 S
Eu121 O136 2.349 . S
Eu121 O139 2.392 . S
Eu121 O140 2.418 . S
Eu121 C150 2.828 1_554 S
C122 O140 1.244 . S
C122 O143 1.265 . S
C123 C124 1.379 . S
C123 C127 1.373 . S
C123 C129 1.505 . S
C124 C123 1.379 . S
C124 C126 1.369 . S
C124 H152 0.930 . S
C125 C127 1.383 . S
C125 C128 1.382 . S
C125 H153 0.930 . S
C126 C124 1.369 . S
C126 C128 1.392 . S
C126 H154 0.930 . S
C127 C123 1.373 . S
C127 C125 1.383 . S
C127 H155 0.931 . S
C128 C125 1.382 . S
C128 C126 1.392 . S
C129 Eu120 2.828 . S
C129 C123 1.505 . S
C129 O141 1.249 . S
C129 O142 1.244 . S
O130 Eu121 2.373 1_556 S
O130 C132 1.258 . S
O131 Eu120 2.392 . S
O131 C132 1.242 1_554 S
C132 O130 1.258 . S
C132 O131 1.242 1_556 S
O133 Eu120 2.418 . S
O133 C137 1.244 . S
O134 Eu121 2.488 1_556 S
O134 C150 1.249 . S
O135 Eu121 2.471 1_556 S
O135 C150 1.244 . S
O136 Eu121 2.349 . S
O136 C137 1.265 . S
C137 O133 1.244 . S
C137 O136 1.265 . S
O138 Eu120 2.373 . S
O138 C151 1.258 . S
O139 Eu121 2.392 . S
O139 C151 1.242 . S
O140 Eu121 2.418 . S
O140 C122 1.244 . S
O141 Eu120 2.488 . S
O141 C129 1.249 . S
O142 Eu120 2.471 . S
O142 C129 1.244 . S
O143 Eu120 2.349 . S
O143 C122 1.265 . S
C144 C145 1.379 . S
C144 C148 1.373 . S
C144 C150 1.505 . S
C145 C144 1.379 . S
C145 C147 1.369 . S
C145 H156 0.930 . S
C146 C148 1.383 . S
C146 C149 1.382 . S
C146 H157 0.930 . S
C147 C145 1.369 . S
C147 C149 1.392 . S
C147 H158 0.930 . S
C148 C144 1.373 . S
C148 C146 1.383 . S
C148 H159 0.931 . S
C149 C146 1.382 . S
C149 C147 1.392 . S
C150 Eu121 2.828 1_556 S
C150 O134 1.249 . S
C150 O135 1.244 . S
C150 C144 1.505 . S
C151 O138 1.258 . S
C151 O139 1.242 . S
H152 C124 0.930 . S
H153 C125 0.930 . S
H154 C126 0.930 . S
H155 C127 0.931 . S
H156 C145 0.930 . S
H157 C146 0.930 . S
H158 C147 0.930 . S
H159 C148 0.931 . S
Eu160 C169 2.828 . S
Eu160 O171 2.392 . S
Eu160 O173 2.418 . S
Eu160 O178 2.373 . S
Eu160 O181 2.488 . S
Eu160 O182 2.471 . S
Eu160 O183 2.349 . S
Eu161 O170 2.373 . S
Eu161 O174 2.488 . S
Eu161 O175 2.471 . S
Eu161 O176 2.349 . S
Eu161 O179 2.392 . S
Eu161 O180 2.418 . S
Eu161 C190 2.828 . S
C162 O180 1.244 . S
C162 O183 1.265 . S
C163 C164 1.379 . S
C163 C167 1.373 . S
C163 C169 1.505 . S
C164 C163 1.379 . S
C164 C166 1.369 . S
C164 H192 0.930 . S
C165 C167 1.383 . S
C165 C168 1.382 . S
C165 H193 0.930 . S
C166 C164 1.369 . S
C166 C168 1.392 . S
C166 H194 0.930 . S
C167 C163 1.373 . S
C167 C165 1.383 . S
C167 H195 0.931 . S
C168 C165 1.382 . S
C168 C166 1.392 . S
C169 Eu160 2.828 . S
C169 C163 1.505 . S
C169 O181 1.249 . S
C169 O182 1.244 . S
O170 Eu161 2.373 . S
O170 C172 1.258 . S
O171 Eu160 2.392 . S
O171 C172 1.242 . S
C172 O170 1.258 . S
C172 O171 1.242 . S
O173 Eu160 2.418 . S
O173 C177 1.244 . S
O174 Eu161 2.488 . S
O174 C190 1.249 . S
O175 Eu161 2.471 . S
O175 C190 1.244 . S
O176 Eu161 2.349 . S
O176 C177 1.265 . S
C177 O173 1.244 . S
C177 O176 1.265 . S
O178 Eu160 2.373 . S
O178 C191 1.258 . S
O179 Eu161 2.392 . S
O179 C191 1.242 . S
O180 Eu161 2.418 . S
O180 C162 1.244 . S
O181 Eu160 2.488 . S
O181 C169 1.249 . S
O182 Eu160 2.471 . S
O182 C169 1.244 . S
O183 Eu160 2.349 . S
O183 C162 1.265 . S
C184 C185 1.379 1_455 S
C184 C188 1.373 . S
C184 C190 1.505 . S
C185 C184 1.379 1_655 S
C185 C187 1.369 . S
C185 H196 0.930 . S
C186 C188 1.383 . S
C186 C189 1.382 1_455 S
C186 H197 0.930 . S
C187 C185 1.369 . S
C187 C189 1.392 . S
C187 H198 0.930 . S
C188 C184 1.373 . S
C188 C186 1.383 . S
C188 H199 0.931 . S
C189 C186 1.382 1_655 S
C189 C187 1.392 . S
C190 Eu161 2.828 . S
C190 O174 1.249 . S
C190 O175 1.244 . S
C190 C184 1.505 . S
C191 O178 1.258 . S
C191 O179 1.242 . S
H192 C164 0.930 . S
H193 C165 0.930 . S
H194 C166 0.930 . S
H195 C167 0.931 . S
H196 C185 0.930 . S
H197 C186 0.930 . S
H198 C187 0.930 . S
H199 C188 0.931 . S
Eu200 C209 2.828 . S
Eu200 O211 2.392 . S
Eu200 O213 2.418 . S
Eu200 O218 2.373 . S
Eu200 O221 2.488 . S
Eu200 O222 2.471 . S
Eu200 O223 2.349 . S
Eu201 O210 2.373 . S
Eu201 O214 2.488 . S
Eu201 O215 2.471 . S
Eu201 O216 2.349 . S
Eu201 O219 2.392 . S
Eu201 O220 2.418 . S
Eu201 C230 2.828 . S
C202 O220 1.244 . S
C202 O223 1.265 . S
C203 C204 1.379 . S
C203 C207 1.373 . S
C203 C209 1.505 . S
C204 C203 1.379 . S
C204 C206 1.369 . S
C204 H232 0.930 . S
C205 C207 1.383 . S
C205 C208 1.382 . S
C205 H233 0.930 . S
C206 C204 1.369 . S
C206 C208 1.392 . S
C206 H234 0.930 . S
C207 C203 1.373 . S
C207 C205 1.383 . S
C207 H235 0.931 . S
C208 C205 1.382 . S
C208 C206 1.392 . S
C209 Eu200 2.828 . S
C209 C203 1.505 . S
C209 O221 1.249 . S
C209 O222 1.244 . S
O210 Eu201 2.373 . S
O210 C212 1.258 . S
O211 Eu200 2.392 . S
O211 C212 1.242 . S
C212 O210 1.258 . S
C212 O211 1.242 . S
O213 Eu200 2.418 . S
O213 C217 1.244 . S
O214 Eu201 2.488 . S
O214 C230 1.249 . S
O215 Eu201 2.471 . S
O215 C230 1.244 . S
O216 Eu201 2.349 . S
O216 C217 1.265 . S
C217 O213 1.244 . S
C217 O216 1.265 . S
O218 Eu200 2.373 . S
O218 C231 1.258 . S
O219 Eu201 2.392 . S
O219 C231 1.242 . S
O220 Eu201 2.418 . S
O220 C202 1.244 . S
O221 Eu200 2.488 . S
O221 C209 1.249 . S
O222 Eu200 2.471 . S
O222 C209 1.244 . S
O223 Eu200 2.349 . S
O223 C202 1.265 . S
C224 C225 1.379 1_545 S
C224 C228 1.373 . S
C224 C230 1.505 . S
C225 C224 1.379 1_565 S
C225 C227 1.369 . S
C225 H236 0.930 . S
C226 C228 1.383 . S
C226 C229 1.382 1_545 S
C226 H237 0.930 . S
C227 C225 1.369 . S
C227 C229 1.392 . S
C227 H238 0.930 . S
C228 C224 1.373 . S
C228 C226 1.383 . S
C228 H239 0.931 . S
C229 C226 1.382 1_565 S
C229 C227 1.392 . S
C230 Eu201 2.828 . S
C230 O214 1.249 . S
C230 O215 1.244 . S
C230 C224 1.505 . S
C231 O218 1.258 . S
C231 O219 1.242 . S
H232 C204 0.930 . S
H233 C205 0.930 . S
H234 C206 0.930 . S
H235 C207 0.931 . S
H236 C225 0.930 . S
H237 C226 0.930 . S
H238 C227 0.930 . S
H239 C228 0.931 . S
C240 C241 1.387 . S
C240 H244 0.950 . S
C240 C249 1.390 . S
C241 C240 1.387 . S
C241 C243 1.387 . S
H242 C249 0.950 . S
C243 C241 1.387 . S
C243 C245 1.390 . S
C243 H247 0.950 . S
H244 C240 0.950 . S
C245 C243 1.390 . S
C245 C246 1.387 . S
C245 H248 0.950 . S
C246 C245 1.387 . S
C246 C249 1.387 . S
H247 C243 0.950 . S
H248 C245 0.950 . S
C249 C240 1.390 . S
C249 H242 0.950 . S
C249 C246 1.387 . S
C250 C251 1.387 . S
C250 H254 0.950 . S
C250 C259 1.390 . S
C251 C250 1.387 . S
C251 C253 1.387 . S
H252 C259 0.950 . S
C253 C251 1.387 . S
C253 C255 1.390 . S
C253 H257 0.950 . S
H254 C250 0.950 . S
C255 C253 1.390 . S
C255 C256 1.387 . S
C255 H258 0.950 . S
C256 C255 1.387 . S
C256 C259 1.387 . S
H257 C253 0.950 . S
H258 C255 0.950 . S
C259 C250 1.390 . S
C259 H252 0.950 . S
C259 C256 1.387 . S
C260 C261 1.387 . S
C260 H264 0.950 . S
C260 C269 1.390 . S
C261 C260 1.387 . S
C261 C263 1.387 . S
H262 C269 0.950 . S
C263 C261 1.387 . S
C263 C265 1.390 . S
C263 H267 0.950 . S
H264 C260 0.950 . S
C265 C263 1.390 . S
C265 C266 1.387 . S
C265 H268 0.950 . S
C266 C265 1.387 . S
C266 C269 1.387 . S
H267 C263 0.950 . S
H268 C265 0.950 . S
C269 C260 1.390 . S
C269 H262 0.950 . S
C269 C266 1.387 . S
C270 C271 1.387 . S
C270 H274 0.950 . S
C270 C279 1.390 . S
C271 C270 1.387 . S
C271 C273 1.387 . S
H272 C279 0.950 . S
C273 C271 1.387 . S
C273 C275 1.390 . S
C273 H277 0.950 . S
H274 C270 0.950 . S
C275 C273 1.390 . S
C275 C276 1.387 . S
C275 H278 0.950 . S
C276 C275 1.387 . S
C276 C279 1.387 . S
H277 C273 0.950 . S
H278 C275 0.950 . S
C279 C270 1.390 . S
C279 H272 0.950 . S
C279 C276 1.387 . S
C280 C281 1.387 . S
C280 H284 0.950 . S
C280 C289 1.390 . S
C281 C280 1.387 . S
C281 C283 1.387 . S
H282 C289 0.950 . S
C283 C281 1.387 . S
C283 C285 1.390 . S
C283 H287 0.950 . S
H284 C280 0.950 . S
C285 C283 1.390 . S
C285 C286 1.387 . S
C285 H288 0.950 . S
C286 C285 1.387 . S
C286 C289 1.387 . S
H287 C283 0.950 . S
H288 C285 0.950 . S
C289 C280 1.390 . S
C289 H282 0.950 . S
C289 C286 1.387 . S
C290 C291 1.387 . S
C290 H294 0.950 . S
C290 C299 1.390 . S
C291 C290 1.387 . S
C291 C293 1.387 . S
H292 C299 0.950 . S
C293 C291 1.387 . S
C293 C295 1.390 . S
C293 H297 0.950 . S
H294 C290 0.950 . S
C295 C293 1.390 . S
C295 C296 1.387 . S
C295 H298 0.950 . S
C296 C295 1.387 . S
C296 C299 1.387 . S
H297 C293 0.950 . S
H298 C295 0.950 . S
C299 C290 1.390 . S
C299 H292 0.950 . S
C299 C296 1.387 . S
C300 C301 1.387 . S
C300 H304 0.950 . S
C300 C309 1.390 . S
C301 C300 1.387 . S
C301 C303 1.387 . S
H302 C309 0.950 . S
C303 C301 1.387 . S
C303 C305 1.390 . S
C303 H307 0.950 . S
H304 C300 0.950 . S
C305 C303 1.390 . S
C305 C306 1.387 . S
C305 H308 0.950 . S
C306 C305 1.387 . S
C306 C309 1.387 . S
H307 C303 0.950 . S
H308 C305 0.950 . S
C309 C300 1.390 . S
C309 H302 0.950 . S
C309 C306 1.387 . S
C310 C311 1.387 . S
C310 H314 0.950 . S
C310 C319 1.390 1_455 S
C311 C310 1.387 . S
C311 C313 1.387 . S
H312 C319 0.950 . S
C313 C311 1.387 . S
C313 C315 1.390 1_455 S
C313 H317 0.950 . S
H314 C310 0.950 . S
C315 C313 1.390 1_655 S
C315 C316 1.387 . S
C315 H318 0.950 . S
C316 C315 1.387 . S
C316 C319 1.387 . S
H317 C313 0.950 . S
H318 C315 0.950 . S
C319 C310 1.390 1_655 S
C319 H312 0.950 . S
C319 C316 1.387 . S
C320 C321 1.387 . S
C320 H324 0.950 . S
C320 C329 1.390 1_545 S
C321 C320 1.387 . S
C321 C323 1.387 . S
H322 C329 0.950 . S
C323 C321 1.387 . S
C323 C325 1.390 1_545 S
C323 H327 0.950 . S
H324 C320 0.950 . S
C325 C323 1.390 1_565 S
C325 C326 1.387 . S
C325 H328 0.950 . S
C326 C325 1.387 . S
C326 C329 1.387 . S
H327 C323 0.950 . S
H328 C325 0.950 . S
C329 C320 1.390 1_565 S
C329 H322 0.950 . S
C329 C326 1.387 . S
C330 C331 1.387 . S
C330 H334 0.950 . S
C330 C339 1.390 . S
C331 C330 1.387 . S
C331 C333 1.387 . S
H332 C339 0.950 . S
C333 C331 1.387 . S
C333 C335 1.390 . S
C333 H337 0.950 . S
H334 C330 0.950 . S
C335 C333 1.390 . S
C335 C336 1.387 . S
C335 H338 0.950 . S
C336 C335 1.387 . S
C336 C339 1.387 . S
H337 C333 0.950 . S
H338 C335 0.950 . S
C339 C330 1.390 . S
C339 H332 0.950 . S
C339 C336 1.387 . S
C340 C341 1.387 . S
C340 H344 0.950 . S
C340 C349 1.390 1_455 S
C341 C340 1.387 . S
C341 C343 1.387 1_554 S
H342 C349 0.950 . S
C343 C341 1.387 1_556 S
C343 C345 1.390 1_455 S
C343 H347 0.950 . S
H344 C340 0.950 . S
C345 C343 1.390 1_655 S
C345 C346 1.387 1_556 S
C345 H348 0.950 . S
C346 C345 1.387 1_554 S
C346 C349 1.387 . S
H347 C343 0.950 . S
H348 C345 0.950 . S
C349 C340 1.390 1_655 S
C349 H342 0.950 . S
C349 C346 1.387 . S
C350 C351 1.387 . S
C350 H354 0.950 . S
C350 C359 1.390 1_565 S
C351 C350 1.387 . S
C351 C353 1.387 . S
H352 C359 0.950 . S
C353 C351 1.387 . S
C353 C355 1.390 1_565 S
C353 H357 0.950 . S
H354 C350 0.950 . S
C355 C353 1.390 1_545 S
C355 C356 1.387 . S
C355 H358 0.950 . S
C356 C355 1.387 . S
C356 C359 1.387 . S
H357 C353 0.950 . S
H358 C355 0.950 . S
C359 C350 1.390 1_545 S
C359 H352 0.950 . S
C359 C356 1.387 . S
C360 C361 1.387 . S
C360 H364 0.950 . S
C360 C369 1.390 . S
C361 C360 1.387 . S
C361 C363 1.387 . S
H362 C369 0.950 . S
C363 C361 1.387 . S
C363 C365 1.390 . S
C363 H367 0.950 . S
H364 C360 0.950 . S
C365 C363 1.390 . S
C365 C366 1.387 . S
C365 H368 0.950 . S
C366 C365 1.387 . S
C366 C369 1.387 . S
H367 C363 0.950 . S
H368 C365 0.950 . S
C369 C360 1.390 . S
C369 H362 0.950 . S
C369 C366 1.387 . S
C370 C371 1.387 . S
C370 H374 0.950 1_455 S
C370 C379 1.390 . S
C371 C370 1.387 . S
C371 C373 1.387 . S
H372 C379 0.950 . S
C373 C371 1.387 . S
C373 C375 1.390 . S
C373 H377 0.950 . S
H374 C370 0.950 1_655 S
C375 C373 1.390 . S
C375 C376 1.387 . S
C375 H378 0.950 . S
C376 C375 1.387 . S
C376 C379 1.387 . S
H377 C373 0.950 . S
H378 C375 0.950 . S
C379 C370 1.390 . S
C379 H372 0.950 . S
C379 C376 1.387 . S
C380 C381 1.387 . S
C380 H384 0.950 1_545 S
C380 C389 1.390 . S
C381 C380 1.387 . S
C381 C383 1.387 . S
H382 C389 0.950 . S
C383 C381 1.387 . S
C383 C385 1.390 . S
C383 H387 0.950 . S
H384 C380 0.950 1_565 S
C385 C383 1.390 . S
C385 C386 1.387 . S
C385 H388 0.950 . S
C386 C385 1.387 . S
C386 C389 1.387 . S
H387 C383 0.950 . S
H388 C385 0.950 . S
C389 C380 1.390 . S
C389 H382 0.950 . S
C389 C386 1.387 . S
C390 C391 1.387 . S
C390 H394 0.950 . S
C390 C399 1.390 . S
C391 C390 1.387 . S
C391 C393 1.387 . S
H392 C399 0.950 . S
C393 C391 1.387 . S
C393 C395 1.390 . S
C393 H397 0.950 . S
H394 C390 0.950 . S
C395 C393 1.390 . S
C395 C396 1.387 . S
C395 H398 0.950 . S
C396 C395 1.387 . S
C396 C399 1.387 . S
H397 C393 0.950 . S
H398 C395 0.950 . S
C399 C390 1.390 . S
C399 H392 0.950 . S
C399 C396 1.387 . S
C400 C401 1.387 . S
C400 H404 0.950 . S
C400 C409 1.390 . S
C401 C400 1.387 . S
C401 C403 1.387 . S
H402 C409 0.950 . S
C403 C401 1.387 . S
C403 C405 1.390 . S
C403 H407 0.950 . S
H404 C400 0.950 . S
C405 C403 1.390 . S
C405 C406 1.387 . S
C405 H408 0.950 . S
C406 C405 1.387 . S
C406 C409 1.387 . S
H407 C403 0.950 . S
H408 C405 0.950 . S
C409 C400 1.390 . S
C409 H402 0.950 . S
C409 C406 1.387 . S
C410 C411 1.387 . S
C410 H414 0.950 1_565 S
C410 C419 1.390 . S
C411 C410 1.387 . S
C411 C413 1.387 . S
H412 C419 0.950 . S
C413 C411 1.387 . S
C413 C415 1.390 . S
C413 H417 0.950 . S
H414 C410 0.950 1_545 S
C415 C413 1.390 . S
C415 C416 1.387 . S
C415 H418 0.950 . S
C416 C415 1.387 . S
C416 C419 1.387 . S
H417 C413 0.950 . S
H418 C415 0.950 . S
C419 C410 1.390 . S
C419 H412 0.950 . S
C419 C416 1.387 . S
C241 C172 1.238 . S
C246 C8 1.238 . S
C251 C212 1.238 . S
C256 C48 1.238 . S
C261 C12 1.238 . S
C266 C88 1.237 . S
C271 C52 1.237 . S
C276 C128 1.237 . S
C281 C92 1.237 . S
C286 C168 1.237 . S
C291 C132 1.237 . S
C296 C208 1.237 . S
C301 C17 1.233 . S
C306 C137 1.233 . S
C311 C177 1.240 . S
C316 C57 1.240 . S
C321 C217 1.233 . S
C326 C97 1.233 . S
C331 C82 1.484 . S
C336 C202 1.484 . S
C341 C2 1.483 . S
C346 C122 1.483 . S
C351 C162 1.481 . S
C356 C42 1.481 . S
C361 C231 1.358 . S
C366 C29 1.330 . S
C371 C69 1.331 . S
C376 C31 1.359 . S
C381 C109 1.331 . S
C386 C71 1.359 . S
C391 C111 1.358 . S
C396 C149 1.330 . S
C401 C189 1.331 . S
C406 C151 1.359 . S
C411 C229 1.331 . S
C416 C191 1.359 . S
