# Generated by pormake.
# Topology lhb, (8)-cn, num edge types: 1
# Building blocks:
#     Node 0, Type 0, BuildingBlock: TAGTUT_clean_sbu_1, # of connection points: 8
#     Node 1, Type 0, BuildingBlock: TAGTUT_clean_sbu_1, # of connection points: 8
#     Node 2, Type 0, BuildingBlock: TAGTUT_clean_sbu_1, # of connection points: 8
#     Node 3, Type 0, BuildingBlock: TAGTUT_clean_sbu_1, # of connection points: 8
#     Node 4, Type 0, BuildingBlock: TAGTUT_clean_sbu_1, # of connection points: 8
#     Node 5, Type 0, BuildingBlock: TAGTUT_clean_sbu_1, # of connection points: 8
#     Node 6, Type 0, BuildingBlock: TAGTUT_clean_sbu_1, # of connection points: 8
#     Node 7, Type 0, BuildingBlock: TAGTUT_clean_sbu_1, # of connection points: 8
#     Edge 8, Type (0, 0), BuildingBlock: XIVTED_clean_linker_0, # of connection points: 2
#     Edge 9, Type (0, 0), BuildingBlock: XIVTED_clean_linker_0, # of connection points: 2
#     Edge 10, Type (0, 0), BuildingBlock: XIVTED_clean_linker_0, # of connection points: 2
#     Edge 11, Type (0, 0), BuildingBlock: XIVTED_clean_linker_0, # of connection points: 2
#     Edge 12, Type (0, 0), BuildingBlock: XIVTED_clean_linker_0, # of connection points: 2
#     Edge 13, Type (0, 0), BuildingBlock: XIVTED_clean_linker_0, # of connection points: 2
#     Edge 14, Type (0, 0), BuildingBlock: XIVTED_clean_linker_0, # of connection points: 2
#     Edge 15, Type (0, 0), BuildingBlock: XIVTED_clean_linker_0, # of connection points: 2
#     Edge 16, Type (0, 0), BuildingBlock: XIVTED_clean_linker_0, # of connection points: 2
#     Edge 17, Type (0, 0), BuildingBlock: XIVTED_clean_linker_0, # of connection points: 2
#     Edge 18, Type (0, 0), BuildingBlock: XIVTED_clean_linker_0, # of connection points: 2
#     Edge 19, Type (0, 0), BuildingBlock: XIVTED_clean_linker_0, # of connection points: 2
#     Edge 20, Type (0, 0), BuildingBlock: XIVTED_clean_linker_0, # of connection points: 2
#     Edge 21, Type (0, 0), BuildingBlock: XIVTED_clean_linker_0, # of connection points: 2
#     Edge 22, Type (0, 0), BuildingBlock: XIVTED_clean_linker_0, # of connection points: 2
#     Edge 23, Type (0, 0), BuildingBlock: XIVTED_clean_linker_0, # of connection points: 2
#     Edge 24, Type (0, 0), BuildingBlock: XIVTED_clean_linker_0, # of connection points: 2
#     Edge 25, Type (0, 0), BuildingBlock: XIVTED_clean_linker_0, # of connection points: 2
#     Edge 26, Type (0, 0), BuildingBlock: XIVTED_clean_linker_0, # of connection points: 2
#     Edge 27, Type (0, 0), BuildingBlock: XIVTED_clean_linker_0, # of connection points: 2
#     Edge 28, Type (0, 0), BuildingBlock: XIVTED_clean_linker_0, # of connection points: 2
#     Edge 29, Type (0, 0), BuildingBlock: XIVTED_clean_linker_0, # of connection points: 2
#     Edge 30, Type (0, 0), BuildingBlock: XIVTED_clean_linker_0, # of connection points: 2
#     Edge 31, Type (0, 0), BuildingBlock: XIVTED_clean_linker_0, # of connection points: 2
#     Edge 32, Type (0, 0), BuildingBlock: XIVTED_clean_linker_0, # of connection points: 2
#     Edge 33, Type (0, 0), BuildingBlock: XIVTED_clean_linker_0, # of connection points: 2
#     Edge 34, Type (0, 0), BuildingBlock: XIVTED_clean_linker_0, # of connection points: 2
#     Edge 35, Type (0, 0), BuildingBlock: XIVTED_clean_linker_0, # of connection points: 2
#     Edge 36, Type (0, 0), BuildingBlock: XIVTED_clean_linker_0, # of connection points: 2
#     Edge 37, Type (0, 0), BuildingBlock: XIVTED_clean_linker_0, # of connection points: 2
#     Edge 38, Type (0, 0), BuildingBlock: XIVTED_clean_linker_0, # of connection points: 2
#     Edge 39, Type (0, 0), BuildingBlock: XIVTED_clean_linker_0, # of connection points: 2
# Relax obj value: 0.064
# Max RMSD: 0.159
# Mean RMSD: 0.159
data_MOF--net-lhb--node1-TAGTUT_clean_sbu_1--edge1-XIVTED_clean_linker_0
_symmetry_space_group_name_H-M    P1
_symmetry_Int_Tables_number       1
_symmetry_cell_setting            triclinic
loop_
_symmetry_equiv_pos_as_xyz
'x, y, z'
_cell_length_a     33.739763
_cell_length_b     14.991042
_cell_length_c     59.54555
_cell_angle_alpha  94.869673
_cell_angle_beta   90.015543
_cell_angle_gamma 89.992792
loop_
_atom_site_label
_atom_site_type_symbol
_atom_site_fract_x
_atom_site_fract_y
_atom_site_fract_z
_atom_type_partial_charge
C0 C 0.05355 0.93718 0.08389 0.0
C1 C 0.08606 0.0485 0.02242 0.0
C2 C 0.93437 0.16117 0.02435 0.0
Mg3 Mg 0.04503 0.8744 0.03281 0.0
O4 O 0.99741 0.93546 0.03651 0.0
Mg5 Mg 0.99875 0.06069 0.05121 0.0
Mg6 Mg 0.96274 0.95862 0.01028 0.0
O7 O 0.92774 -0.01581 0.98484 0.0
Mg8 Mg 0.87991 0.04312 0.99112 0.0
Mg9 Mg 0.92458 0.86408 0.96808 0.0
C10 C 0.98854 0.75506 0.99826 0.0
C11 C 0.01405 0.93995 0.96392 0.0
O12 O 0.03329 0.00641 0.08001 0.0
O13 O 0.06109 0.8742 0.06845 0.0
O14 O 0.05948 0.09297 0.03409 0.0
O15 O 0.08406 0.96386 0.01832 0.0
O16 O 0.02035 0.76622 0.01019 0.0
O17 O 0.96128 0.8146 0.9983 0.0
C18 C 0.9127 0.96431 0.05676 0.0
O19 O 0.91277 0.9398 0.03558 0.0
O20 O 0.9403 0.01416 0.06591 0.0
O21 O 0.89389 0.93991 0.93944 0.0
O22 O 0.8676 0.06509 0.95703 0.0
O23 O 0.86284 0.83016 0.98339 0.0
C24 C 0.87619 0.01609 0.93902 0.0
O25 O 0.83939 0.95195 1.00308 0.0
O26 O 0.90087 0.14982 0.01435 0.0
C27 C 0.83658 0.8696 0.99624 0.0
O28 O 0.96216 0.10318 0.02194 0.0
O29 O 0.01471 0.96964 0.98482 0.0
O30 O 0.98388 0.90007 0.95481 0.0
C31 C 0.37457 0.10493 0.18082 0.0
C32 C 0.41422 0.06828 0.24877 0.0
C33 C 0.2611 0.96583 0.26188 0.0
Mg34 Mg 0.36877 0.21106 0.2275 0.0
O35 O 0.3211 0.14698 0.22685 0.0
Mg36 Mg 0.32552 0.01574 0.22327 0.0
Mg37 Mg 0.28744 0.16215 0.25422 0.0
O38 O 0.25549 0.18237 0.28267 0.0
Mg39 Mg 0.21057 0.12052 0.29 0.0
Mg40 Mg 0.25486 0.316 0.28554 0.0
C41 C 0.30853 0.36282 0.24242 0.0
C42 C 0.34245 0.23772 0.29622 0.0
O43 O 0.3549 0.03915 0.18796 0.0
O44 O 0.38386 0.17455 0.1936 0.0
O45 O 0.38759 0.01465 0.24026 0.0
O46 O 0.41088 0.15275 0.2484 0.0
O47 O 0.34269 0.34102 0.23427 0.0
O48 O 0.28526 0.30678 0.2506 0.0
C49 C 0.23566 0.07211 0.21202 0.0
O50 O 0.23414 0.13094 0.2291 0.0
O51 O 0.26622 0.02347 0.20776 0.0
O52 O 0.22621 0.31177 0.32067 0.0
O53 O 0.20504 0.17237 0.32534 0.0
O54 O 0.19147 0.31807 0.26995 0.0
C55 C 0.21106 0.25416 0.33292 0.0
O56 O 0.165 0.18172 0.27168 0.0
O57 O 0.23119 -0.00857 0.27428 0.0
C58 C 0.16293 0.26207 0.26622 0.0
O59 O 0.29005 0.01729 0.25769 0.0
O60 O 0.33949 0.18481 0.27829 0.0
O61 O 0.31604 0.29754 0.30142 0.0
C62 C 0.8522 0.60014 0.17767 0.0
C63 C 0.89487 0.5093 0.24178 0.0
C64 C 0.74269 0.4652 0.2627 0.0
Mg65 Mg 0.86302 0.6825 0.2266 0.0
O66 O 0.81063 0.64359 0.22814 0.0
Mg67 Mg 0.80132 0.51354 0.22006 0.0
Mg68 Mg 0.78461 0.65603 0.25821 0.0
O69 O 0.75962 0.66989 0.28892 0.0
Mg70 Mg 0.7087 0.63059 0.29401 0.0
Mg71 Mg 0.77242 0.7989 0.29644 0.0
C72 C 0.82939 0.8478 0.25529 0.0
C73 C 0.8503 0.66951 0.298 0.0
O74 O 0.82783 0.54145 0.18431 0.0
O75 O 0.86939 0.65817 0.19133 0.0
O76 O 0.86419 0.46962 0.23296 0.0
O77 O 0.89849 0.5939 0.24305 0.0
O78 O 0.85665 0.81635 0.24192 0.0
O79 O 0.80044 0.79991 0.26127 0.0
C80 C 0.71757 0.62048 0.2193 0.0
O81 O 0.72659 0.66993 0.23735 0.0
O82 O 0.74093 0.56042 0.21023 0.0
O83 O 0.74356 0.78915 0.33126 0.0
O84 O 0.70434 0.66784 0.33001 0.0
O85 O 0.71087 0.84539 0.28294 0.0
C86 C 0.71991 0.737 0.34078 0.0
O87 O 0.6737 0.72145 0.27731 0.0
O88 O 0.71729 0.49653 0.27747 0.0
C89 C 0.67891 0.80514 0.27607 0.0
O90 O 0.77105 0.5121 0.25552 0.0
O91 O 0.84003 0.63392 0.27855 0.0
O92 O 0.831 0.73558 0.30798 0.0
C93 C 0.06065 0.58749 0.58872 0.0
C94 C 0.10594 0.62053 0.52255 0.0
C95 C 0.95813 0.66249 0.49715 0.0
Mg96 Mg 0.07203 0.45958 0.54549 0.0
O97 O 0.0222 0.49948 0.53819 0.0
Mg98 Mg 0.01171 0.6311 0.54127 0.0
Mg99 Mg 0.99713 0.47101 0.50782 0.0
O100 O 0.97173 0.44582 0.47788 0.0
Mg101 Mg 0.922 0.49282 0.47189 0.0
Mg102 Mg 0.97897 0.31427 0.4737 0.0
C103 C 0.03705 0.28475 0.51811 0.0
C104 C 0.06444 0.41115 0.47012 0.0
O105 O 0.03971 0.63744 0.57687 0.0
O106 O 0.07427 0.51143 0.58068 0.0
O107 O 0.0738 0.66445 0.52692 0.0
O108 O 0.1102 0.53935 0.52705 0.0
O109 O 0.06249 0.32128 0.53215 0.0
O110 O 0.00808 0.32725 0.50994 0.0
C111 C 0.93181 0.51187 0.54739 0.0
O112 O 0.9407 0.46459 0.52909 0.0
O113 O 0.95257 0.58048 0.55456 0.0
O114 O 0.95607 0.32583 0.43625 0.0
O115 O 0.9213 0.45446 0.437 0.0
O116 O 0.91427 0.28753 0.48674 0.0
C117 C 0.93672 0.38555 0.42636 0.0
O118 O 0.88135 0.41758 0.48912 0.0
O119 O 0.93187 0.63078 0.48318 0.0
C120 C 0.88331 0.33462 0.49206 0.0
O121 O 0.98399 0.61384 0.50593 0.0
O122 O 0.05579 0.47 0.48646 0.0
O123 O 0.04044 0.34893 0.46306 0.0
C124 C 0.35914 0.7899 0.68539 0.0
C125 C 0.39712 0.64635 0.74384 0.0
C126 C 0.24398 0.57005 0.75387 0.0
Mg127 Mg 0.36276 0.82846 0.73736 0.0
O128 O 0.3119 0.78144 0.7341 0.0
Mg129 Mg 0.30691 0.65873 0.71867 0.0
Mg130 Mg 0.2801 0.76915 0.7617 0.0
O131 O 0.24813 0.75885 0.78973 0.0
Mg132 Mg 0.19723 0.71192 0.78735 0.0
Mg133 Mg 0.25394 0.8864 0.80247 0.0
C134 C 0.31947 0.96637 0.77107 0.0
C135 C 0.33541 0.77059 0.80626 0.0
O136 O 0.33746 0.72006 0.68745 0.0
O137 O 0.3723 0.83851 0.70248 0.0
O138 O 0.36858 0.61146 0.73189 0.0
O139 O 0.39867 0.72974 0.74968 0.0
O140 O 0.35051 0.94576 0.75938 0.0
O141 O 0.28968 0.91367 0.77141 0.0
C142 C 0.22089 0.7557 0.71832 0.0
O143 O 0.2258 0.78929 0.7387 0.0
O144 O 0.24707 0.70671 0.70777 0.0
O145 O 0.21831 0.848 0.83304 0.0
O146 O 0.18177 0.72554 0.82298 0.0
O147 O 0.19454 0.93127 0.78631 0.0
C148 C 0.1936 0.78734 0.83773 0.0
O149 O 0.16343 0.80784 0.77176 0.0
O150 O 0.21398 0.59083 0.76666 0.0
C151 C 0.16587 0.89269 0.77513 0.0
O152 O 0.27254 0.62473 0.75137 0.0
O153 O 0.33194 0.74197 0.78538 0.0
O154 O 0.31109 0.82801 0.81582 0.0
C155 C 0.86143 0.24146 0.68437 0.0
C156 C 0.90406 0.17422 0.75003 0.0
C157 C 0.75982 0.09275 0.77222 0.0
Mg158 Mg 0.86308 0.3337 0.73277 0.0
O159 O 0.81331 0.28022 0.73298 0.0
Mg160 Mg 0.81241 0.14716 0.7265 0.0
Mg161 Mg 0.7818 0.29356 0.76137 0.0
O162 O 0.75036 0.30686 0.78998 0.0
Mg163 Mg 0.70263 0.24755 0.79244 0.0
Mg164 Mg 0.7513 0.43899 0.79489 0.0
C165 C 0.81726 0.48992 0.75972 0.0
C166 C 0.83622 0.3467 0.80516 0.0
O167 O 0.84061 0.17622 0.69101 0.0
O168 O 0.87302 0.30751 0.69779 0.0
O169 O 0.87538 0.12705 0.74141 0.0
O170 O 0.90379 0.25907 0.75054 0.0
O171 O 0.84822 0.46246 0.74877 0.0
O172 O 0.78652 0.44095 0.76174 0.0
C173 C 0.72293 0.22226 0.72062 0.0
O174 O 0.72717 0.27994 0.73766 0.0
O175 O 0.75061 0.16833 0.71375 0.0
O176 O 0.71722 0.42805 0.82847 0.0
O177 O 0.6893 0.29171 0.82707 0.0
O178 O 0.69063 0.45011 0.77644 0.0
C179 C 0.6971 0.36795 0.83753 0.0
O180 O 0.66421 0.31269 0.77074 0.0
O181 O 0.72883 0.11777 0.78363 0.0
C182 C 0.6635 0.39644 0.7683 0.0
O183 O 0.7807 0.14682 0.76168 0.0
O184 O 0.83407 0.30148 0.78588 0.0
O185 O 0.81028 0.40661 0.81148 0.0
C186 C 0.56094 0.07808 0.58883 0.0
C187 C 0.61329 0.10526 0.52375 0.0
C188 C 0.46933 0.20385 0.49856 0.0
Mg189 Mg 0.56562 0.95605 0.54425 0.0
O190 O 0.51998 0.01682 0.53772 0.0
Mg191 Mg 0.52 0.15079 0.54192 0.0
Mg192 Mg 0.49207 0.00152 0.50802 0.0
O193 O 0.46271 -0.00934 0.47909 0.0
Mg194 Mg 0.41366 0.04948 0.48018 0.0
Mg195 Mg 0.4603 0.85916 0.47351 0.0
C196 C 0.51975 0.80309 0.51356 0.0
C197 C 0.55201 0.91981 0.46873 0.0
O198 O 0.54589 0.13913 0.57756 0.0
O199 O 0.56863 -0.00099 0.57985 0.0
O200 O 0.58433 0.15962 0.52798 0.0
O201 O 0.61136 0.02322 0.52777 0.0
O202 O 0.54827 0.82801 0.52703 0.0
O203 O 0.49091 0.85435 0.50903 0.0
C204 C 0.43174 0.06812 0.54836 0.0
O205 O 0.43693 0.01741 0.53018 0.0
O206 O 0.45746 0.12742 0.55521 0.0
O207 O 0.43329 0.88959 0.43799 0.0
O208 O 0.4004 0.01941 0.44582 0.0
O209 O 0.39667 0.84881 0.48817 0.0
C210 C 0.41178 0.95475 0.43196 0.0
O211 O 0.37171 -0.01724 0.49928 0.0
O212 O 0.43594 0.18089 0.48959 0.0
C213 C 0.36916 0.8978 0.49748 0.0
O214 O 0.49311 0.14777 0.5063 0.0
O215 O 0.54884 -0.02247 0.48592 0.0
O216 O 0.52283 0.87153 0.46123 0.0
C217 C 0.54781 0.52379 0.08841 0.0
C218 C 0.57406 0.59846 0.02163 0.0
C219 C 0.41982 0.65055 0.01312 0.0
Mg220 Mg 0.54788 0.42316 0.04057 0.0
O221 O 0.49628 0.46503 0.03982 0.0
Mg222 Mg 0.48635 0.59427 0.04886 0.0
Mg223 Mg 0.46466 0.45718 0.01119 0.0
O224 O 0.43322 0.45101 0.98287 0.0
Mg225 Mg 0.38125 0.49297 0.98345 0.0
Mg226 Mg 0.44202 0.32367 0.97179 0.0
C227 C 0.50676 0.26336 0.01026 0.0
C228 C 0.52498 0.43227 0.96858 0.0
O229 O 0.5232 0.57926 0.08092 0.0
O230 O 0.56005 0.4542 0.07632 0.0
O231 O 0.54407 0.63932 0.031 0.0
O232 O 0.57941 0.51451 0.02215 0.0
O233 O 0.5352 0.29224 0.02334 0.0
O234 O 0.47717 0.31231 1.00559 0.0
C235 C 0.41003 0.46442 0.05579 0.0
O236 O 0.41393 0.43163 0.03527 0.0
O237 O 0.43179 0.52974 0.06411 0.0
O238 O 0.41137 0.36145 0.93801 0.0
O239 O 0.37199 0.47936 0.94807 0.0
O240 O 0.38059 0.27761 0.98653 0.0
C241 C 0.38733 0.42376 0.93303 0.0
O242 O 0.34734 0.40031 0.99947 0.0
O243 O 0.39045 0.62244 1.00086 0.0
C244 C 0.35086 0.31571 0.9969 0.0
O245 O 0.44961 0.60074 0.01671 0.0
O246 O 0.51808 0.47704 0.98755 0.0
O247 O 0.50109 0.37272 0.95981 0.0
H248 H 0.02987 0.02825 0.12342 0.0
H249 H 0.24652 0.03678 0.16772 0.0
H250 H 0.12101 0.85035 0.09521 0.0
H251 H 0.15329 0.08036 0.2171 0.0
H252 H 0.19787 -0.01052 0.13942 0.0
H253 H 0.07046 0.05939 0.15738 0.0
C254 C 0.05801 -0.00586 0.12457 0.0
C255 C 0.07249 0.93775 0.10628 0.0
C256 C 0.18786 0.00896 0.15642 0.0
C257 C 0.11889 -0.02549 0.14475 0.0
C258 C 0.21557 0.03684 0.17261 0.0
C259 C 0.20397 0.06106 0.19493 0.0
C260 C 0.14781 0.00625 0.16227 0.0
C261 C 0.16336 0.06196 0.20007 0.0
C262 C 0.081 0.012 0.14396 0.0
C263 C 0.10881 0.89465 0.10878 0.0
N264 N 0.13643 0.03457 0.18374 0.0
N265 N 0.13115 0.9155 0.12745 0.0
H266 H 0.86127 0.82352 0.04566 0.0
H267 H 0.7942 0.60114 0.14521 0.0
H268 H 0.9081 -0.01183 0.10263 0.0
H269 H 0.91936 0.64228 0.15642 0.0
H270 H 0.79866 0.68828 0.11189 0.0
H271 H 0.84002 0.71306 0.07153 0.0
C272 C 0.86593 0.83817 0.06359 0.0
C273 C 0.8873 0.91489 0.07189 0.0
C274 C 0.82523 0.67521 0.12128 0.0
C275 C 0.86412 0.78802 0.10111 0.0
C276 C 0.82289 0.62455 0.14004 0.0
C277 C 0.85651 0.61484 0.1536 0.0
C278 C 0.86124 0.7166 0.11655 0.0
C279 C 0.89275 0.64852 0.14649 0.0
C280 C 0.85402 0.77466 0.07824 0.0
C281 C 0.8924 0.92976 0.09531 0.0
N282 N 0.89391 0.70009 0.12889 0.0
N283 N 0.88202 0.86572 0.10896 0.0
H284 H 0.11924 0.28078 0.468 0.0
H285 H 0.20281 0.42698 0.35127 0.0
H286 H 0.09272 0.53546 0.4431 0.0
H287 H 0.1921 0.15334 0.36798 0.0
H288 H 0.17902 0.47815 0.38894 0.0
H289 H 0.16488 0.24772 0.43652 0.0
C290 C 0.12454 0.33155 0.45642 0.0
C291 C 0.10251 0.41116 0.45816 0.0
C292 C 0.1823 0.40702 0.38442 0.0
C293 C 0.15326 0.37228 0.42158 0.0
C294 C 0.19587 0.37748 0.36291 0.0
C295 C 0.19911 0.28537 0.35629 0.0
C296 C 0.1723 0.34421 0.39962 0.0
C297 C 0.18969 0.2248 0.3722 0.0
C298 C 0.15003 0.31199 0.43826 0.0
C299 C 0.10963 0.4739 0.44248 0.0
N300 N 0.1766 0.25529 0.39308 0.0
N301 N 0.13394 0.45246 0.42455 0.0
H302 H 0.8703 0.49301 0.2908 0.0
H303 H 0.88816 0.30646 0.3935 0.0
H304 H 0.89258 0.72837 0.33601 0.0
H305 H 0.98762 0.48458 0.40478 0.0
H306 H 0.87787 0.36469 0.35652 0.0
H307 H 0.90184 0.40115 0.3177 0.0
C308 C 0.88292 0.52602 0.30604 0.0
C309 C 0.87846 0.61893 0.31123 0.0
C310 C 0.90297 0.3882 0.36671 0.0
C311 C 0.9143 0.51337 0.34203 0.0
C312 C 0.909 0.35436 0.38766 0.0
C313 C 0.93924 0.38961 0.40186 0.0
C314 C 0.92653 0.45963 0.3605 0.0
C315 C 0.96445 0.45469 0.39401 0.0
C316 C 0.9005 0.47307 0.32144 0.0
C317 C 0.89511 0.65719 0.33138 0.0
N318 N 0.95682 0.48967 0.37416 0.0
N319 N 0.91214 0.60409 0.34613 0.0
H320 H 0.06566 0.76253 0.60539 0.0
H321 H 0.15844 0.64726 0.72272 0.0
H322 H 0.0824 0.49355 0.62439 0.0
H323 H 0.19904 0.8672 0.68676 0.0
H324 H 0.10765 0.61376 0.6937 0.0
H325 H 0.0931 0.82088 0.64181 0.0
C326 C 0.07434 0.71572 0.61739 0.0
C327 C 0.07218 0.62287 0.61175 0.0
C328 C 0.12675 0.67132 0.69262 0.0
C329 C 0.10282 0.68955 0.65348 0.0
C330 C 0.15525 0.69123 0.70929 0.0
C331 C 0.18243 0.76062 0.70712 0.0
C332 C 0.12547 0.72167 0.67382 0.0
C333 C 0.17812 0.81402 0.6891 0.0
C334 C 0.09002 0.74922 0.63811 0.0
C335 C 0.08399 0.5655 0.62794 0.0
N336 N 0.15038 0.79287 0.67293 0.0
N337 N 0.09896 0.59978 0.64806 0.0
H338 H 0.92929 0.2999 0.66692 0.0
H339 H 0.89262 0.3495 0.54275 0.0
H340 H 0.81197 0.20864 0.64757 0.0
H341 H 0.91132 0.58121 0.58979 0.0
H342 H 0.86986 0.26597 0.57407 0.0
H343 H 0.93628 0.36353 0.63075 0.0
C344 C 0.90549 0.29057 0.65471 0.0
C345 C 0.86993 0.24934 0.66027 0.0
C346 C 0.87784 0.33589 0.57726 0.0
C347 C 0.87765 0.32324 0.61905 0.0
C348 C 0.89059 0.38409 0.55941 0.0
C349 C 0.90473 0.47247 0.56361 0.0
C350 C 0.87991 0.37621 0.59931 0.0
C351 C 0.90144 0.51309 0.58567 0.0
C352 C 0.90936 0.32777 0.63425 0.0
C353 C 0.83996 0.23938 0.64381 0.0
N354 N 0.89056 0.46385 0.60275 0.0
N355 N 0.84424 0.27737 0.62387 0.0
H356 H 0.22375 0.86443 0.87754 0.0
H357 H 0.01441 -0.00787 0.92194 0.0
H358 H 0.11837 0.74017 0.84809 0.0
H359 H 0.09085 0.89063 0.9719 0.0
H360 H 0.06386 0.95005 0.89304 0.0
H361 H 0.18542 0.91226 0.91169 0.0
C362 C 0.19283 0.84559 0.87846 0.0
C363 C 0.17407 0.79849 0.85996 0.0
C364 C 0.07021 0.93928 0.91044 0.0
C365 C 0.1305 0.85532 0.89828 0.0
C366 C 0.04238 0.9642 0.92694 0.0
C367 C 0.04882 0.94508 0.94927 0.0
C368 C 0.10486 0.89563 0.91633 0.0
C369 C 0.08531 0.90786 0.95489 0.0
C370 C 0.17118 0.87301 0.89786 0.0
C371 C 0.13402 0.77593 0.86195 0.0
N372 N 0.1121 0.88307 0.93837 0.0
N373 N 0.11333 0.80639 0.88058 0.0
H374 H 0.87751 0.18757 0.80299 0.0
H375 H 0.83286 0.16415 0.93197 0.0
H376 H 0.84793 0.41757 0.84855 0.0
H377 H 0.9086 0.96554 0.89709 0.0
H378 H 0.83454 0.2503 0.89936 0.0
H379 H 0.89099 0.10252 0.83545 0.0
C380 C 0.87521 0.22146 0.81974 0.0
C381 C 0.86036 0.30949 0.82299 0.0
C382 C 0.85086 0.18792 0.89876 0.0
C383 C 0.87473 0.2114 0.86006 0.0
C384 C 0.84953 0.13783 0.91733 0.0
C385 C 0.87083 0.05736 0.91743 0.0
C386 C 0.87324 0.15744 0.87981 0.0
C387 C 0.8916 0.02693 0.89776 0.0
C388 C 0.8825 0.17224 0.83827 0.0
C389 C 0.85838 0.34948 0.84514 0.0
N390 N 0.89231 0.07711 0.87967 0.0
N391 N 0.86442 0.2995 0.86279 0.0
H392 H 0.67768 0.35021 0.70213 0.0
H393 H 0.57903 0.96491 0.62108 0.0
H394 H 0.68316 0.06863 0.7115 0.0
H395 H 0.56816 0.24557 0.61085 0.0
H396 H 0.60552 0.00564 0.6586 0.0
H397 H 0.62555 0.3186 0.67358 0.0
C398 C 0.66697 0.28232 0.69865 0.0
C399 C 0.68493 0.21154 0.70872 0.0
C400 C 0.59692 0.05856 0.64829 0.0
C401 C 0.6264 0.17466 0.6762 0.0
C402 C 0.5819 0.03516 0.6268 0.0
C403 C 0.57209 0.1018 0.61262 0.0
C404 C 0.60291 0.1493 0.65557 0.0
C405 C 0.57578 0.19187 0.62112 0.0
C406 C 0.63751 0.26408 0.6823 0.0
C407 C 0.67031 0.1247 0.70374 0.0
N408 N 0.59158 0.21302 0.6419 0.0
N409 N 0.64235 0.10851 0.68761 0.0
H410 H 0.40881 0.1593 0.58799 0.0
H411 H 0.33203 0.72258 0.64311 0.0
H412 H 0.38967 0.9105 0.54737 0.0
H413 H 0.39909 0.94059 0.67668 0.0
H414 H 0.3371 0.79687 0.60774 0.0
H415 H 0.38344 0.08998 0.62062 0.0
C416 C 0.39813 0.09097 0.58572 0.0
C417 C 0.4025 0.04014 0.56499 0.0
C418 C 0.3505 0.82786 0.62298 0.0
C419 C 0.37437 0.95953 0.6025 0.0
C420 C 0.348 0.78522 0.64308 0.0
C421 C 0.36522 0.82491 0.663 0.0
C422 C 0.36959 0.9113 0.62306 0.0
C423 C 0.38524 0.90676 0.66192 0.0
C424 C 0.38408 0.05101 0.60445 0.0
C425 C 0.38749 0.95203 0.56309 0.0
N426 N 0.38658 0.9471 0.64246 0.0
N427 N 0.37497 0.91364 0.58177 0.0
H428 H 0.58275 0.30954 0.96346 0.0
H429 H 0.68088 0.53214 0.85969 0.0
H430 H 0.55072 0.57266 0.94576 0.0
H431 H 0.6774 0.24895 0.86785 0.0
H432 H 0.64861 0.56113 0.89659 0.0
H433 H 0.63482 0.30276 0.93487 0.0
C434 C 0.58768 0.36711 0.95396 0.0
C435 C 0.5627 0.44169 0.95681 0.0
C436 C 0.65544 0.49288 0.89037 0.0
C437 C 0.621 0.4333 0.92357 0.0
C438 C 0.67386 0.47622 0.86937 0.0
C439 C 0.68133 0.38784 0.86058 0.0
C440 C 0.64511 0.4207 0.90274 0.0
C441 C 0.67166 0.31798 0.87382 0.0
C442 C 0.61707 0.36293 0.93752 0.0
C443 C 0.56973 0.5143 0.94403 0.0
N444 N 0.65396 0.33591 0.89416 0.0
N445 N 0.59796 0.50779 0.9276 0.0
H446 H 0.43871 0.39473 0.89695 0.0
H447 H 0.35735 0.82114 0.84955 0.0
H448 H 0.32445 0.50699 0.91574 0.0
H449 H 0.36911 0.60337 0.79765 0.0
H450 H 0.37506 0.71881 0.87768 0.0
H451 H 0.43682 0.47586 0.86249 0.0
C452 C 0.41269 0.43361 0.89349 0.0
C453 C 0.38181 0.44485 0.90937 0.0
C454 C 0.37485 0.69434 0.86002 0.0
C455 C 0.38044 0.53926 0.87087 0.0
C456 C 0.36502 0.75269 0.84392 0.0
C457 C 0.36074 0.72049 0.82123 0.0
C458 C 0.38094 0.60343 0.85344 0.0
C459 C 0.37157 0.63091 0.815 0.0
C460 C 0.41194 0.48048 0.87402 0.0
C461 C 0.34911 0.49719 0.90416 0.0
N462 N 0.38032 0.57452 0.83114 0.0
N463 N 0.34973 0.544 0.88568 0.0
H464 H 0.55294 0.68725 0.11236 0.0
H465 H 0.66294 0.49053 0.21592 0.0
H466 H 0.57939 0.40758 0.11679 0.0
H467 H 0.68608 0.75632 0.19684 0.0
H468 H 0.61204 0.47144 0.1867 0.0
H469 H 0.58397 0.72203 0.1493 0.0
C470 C 0.56479 0.63297 0.12122 0.0
C471 C 0.56389 0.54428 0.1114 0.0
C472 C 0.62742 0.5349 0.1893 0.0
C473 C 0.59865 0.58383 0.15373 0.0
C474 C 0.65601 0.54631 0.20614 0.0
C475 C 0.67847 0.62514 0.20871 0.0
C476 C 0.62144 0.60272 0.17484 0.0
C477 C 0.66901 0.69495 0.19544 0.0
C478 C 0.58249 0.65308 0.14225 0.0
C479 C 0.5798 0.47685 0.12361 0.0
N480 N 0.64149 0.68162 0.17872 0.0
N481 N 0.59653 0.49805 0.14415 0.0
H482 H 0.32086 0.07273 0.14648 0.0
H483 H 0.36914 0.30575 0.04661 0.0
H484 H 0.43947 0.16779 0.16091 0.0
H485 H 0.40675 0.49259 0.10171 0.0
H486 H 0.35712 0.19359 0.07363 0.0
H487 H 0.32059 0.15539 0.11236 0.0
C488 C 0.34756 0.10689 0.14186 0.0
C489 C 0.38029 0.11363 0.15654 0.0
C490 C 0.36705 0.26001 0.0797 0.0
C491 C 0.37927 0.21093 0.11859 0.0
C492 C 0.37353 0.32459 0.06438 0.0
C493 C 0.38942 0.40906 0.07178 0.0
C494 C 0.37733 0.27986 0.10236 0.0
C495 C 0.39491 0.42863 0.09505 0.0
C496 C 0.34707 0.1552 0.12265 0.0
C497 C 0.41368 0.16094 0.15007 0.0
N498 N 0.39 0.36376 0.10937 0.0
N499 N 0.41183 0.21005 0.13201 0.0
H500 H 0.60432 0.03844 0.45187 0.0
H501 H 0.73731 0.89186 0.36698 0.0
H502 H 0.58486 0.75827 0.45908 0.0
H503 H 0.67331 0.64289 0.36823 0.0
H504 H 0.70818 0.94325 0.40327 0.0
H505 H 0.65632 -0.00219 0.42408 0.0
C506 C 0.61214 0.96864 0.4482 0.0
C507 C 0.59024 0.90146 0.45746 0.0
C508 C 0.70041 0.87754 0.39564 0.0
C509 C 0.64925 0.85385 0.42582 0.0
C510 C 0.71738 0.84755 0.37495 0.0
C511 C 0.70718 0.76333 0.36425 0.0
C512 C 0.67297 0.82289 0.4057 0.0
C513 C 0.68162 0.70873 0.37559 0.0
C514 C 0.6418 0.94511 0.43228 0.0
C515 C 0.60094 0.8119 0.45203 0.0
N516 N 0.66522 0.73978 0.39556 0.0
N517 N 0.62916 0.7907 0.43632 0.0
H518 H 0.46139 0.92656 0.3952 0.0
H519 H 0.34672 0.30874 0.34007 0.0
H520 H 0.34451 0.01895 0.41514 0.0
H521 H 0.39646 0.09912 0.29436 0.0
H522 H 0.36774 0.2267 0.37163 0.0
H523 H 0.45424 0.00225 0.36008 0.0
C524 C 0.43374 0.9596 0.39181 0.0
C525 C 0.40347 0.96675 0.40808 0.0
C526 C 0.37483 0.19994 0.35463 0.0
C527 C 0.39636 0.0569 0.36912 0.0
C528 C 0.36332 0.24727 0.33656 0.0
C529 C 0.36884 0.20991 0.31436 0.0
C530 C 0.39264 0.11556 0.35054 0.0
C531 C 0.39101 0.13004 0.31111 0.0
C532 C 0.43004 0.00403 0.37206 0.0
C533 C 0.36861 0.01215 0.40309 0.0
N534 N 0.40152 0.08438 0.32902 0.0
N535 N 0.36639 0.05713 0.38436 0.0
H536 H 0.91468 0.68299 0.99366 0.0
H537 H 0.00825 0.23337 0.0303 0.0
H538 H 0.03881 0.61605 0.98726 0.0
H539 H 0.88402 0.29936 0.03661 0.0
H540 H 0.02124 0.38163 0.01868 0.0
H541 H 0.90187 0.53671 1.00665 0.0
C542 C 0.93904 0.63601 0.99402 0.0
C543 C 0.97827 0.6629 0.99088 0.0
C544 C 0.99118 0.36417 0.02293 0.0
C545 C 0.96414 0.49834 1.00631 0.0
C546 C 0.98386 0.28029 0.03018 0.0
C547 C 0.94457 0.2526 0.03266 0.0
C548 C 0.95894 0.41966 0.01888 0.0
C549 C 0.91451 0.31721 0.03347 0.0
C550 C 0.93186 0.55348 1.00208 0.0
C551 C 0.00837 0.59856 0.99065 0.0
N552 N 0.92202 0.39737 0.02559 0.0
N553 N 0.00096 0.5197 0.99924 0.0
H554 H 0.2433 0.44646 0.26114 0.0
H555 H 0.32105 0.87756 0.23922 0.0
H556 H 0.33361 0.46784 0.21044 0.0
H557 H 0.1967 0.85636 0.25547 0.0
H558 H 0.3188 0.73037 0.21997 0.0
H559 H 0.21654 0.5895 0.25222 0.0
C560 C 0.25741 0.48124 0.24811 0.0
C561 C 0.29207 0.44849 0.23749 0.0
C562 C 0.29157 0.75841 0.22715 0.0
C563 C 0.26139 0.61024 0.22688 0.0
C564 C 0.29296 0.84277 0.23829 0.0
C565 C 0.2593 0.87826 0.24941 0.0
C566 C 0.25706 0.70708 0.22852 0.0
C567 C 0.22381 0.82951 0.24789 0.0
C568 C 0.24161 0.56182 0.24263 0.0
C569 C 0.30825 0.49382 0.22003 0.0
N570 N 0.22387 0.74466 0.23818 0.0
N571 N 0.29314 0.57361 0.21552 0.0
H572 H 0.8648 -0.02484 0.23222 0.0
H573 H 0.76817 0.37381 0.22385 0.0
H574 H 0.78697 0.94182 0.28847 0.0
H575 H 0.72275 0.33903 0.29029 0.0
H576 H 0.79509 0.22298 0.2219 0.0
H577 H 0.84098 0.12742 0.23127 0.0
C578 C 0.84305 0.00017 0.24458 0.0
C579 C 0.82635 0.94451 0.2598 0.0
C580 C 0.77971 0.24853 0.23702 0.0
C581 C 0.79723 0.11543 0.25783 0.0
C582 C 0.76368 0.33381 0.23791 0.0
C583 C 0.74483 0.36922 0.25759 0.0
C584 C 0.77692 0.20015 0.25611 0.0
C585 C 0.7378 0.31418 0.27495 0.0
C586 C 0.8286 0.0863 0.24358 0.0
C587 C 0.79919 -0.01919 0.27577 0.0
N588 N 0.75468 0.23243 0.27401 0.0
N589 N 0.78483 0.06383 0.2741 0.0
H590 H 0.95628 0.77733 0.46497 0.0
H591 H 0.05445 0.16088 0.54692 0.0
H592 H 0.9737 0.76179 0.53631 0.0
H593 H 0.02319 0.19207 0.47777 0.0
H594 H 0.03658 0.00303 0.54122 0.0
H595 H 0.98552 0.92643 0.46827 0.0
C596 C 0.96539 0.80668 0.48143 0.0
C597 C 0.96347 0.75803 0.50038 0.0
C598 C 0.03403 0.04435 0.52723 0.0
C599 C 0.99793 0.92486 0.50415 0.0
C600 C 0.04472 0.13369 0.53039 0.0
C601 C 0.03854 0.18898 0.51298 0.0
C602 C 0.01718 0.0119 0.50659 0.0
C603 C 0.02643 0.15169 0.49182 0.0
C604 C 0.98278 0.89055 0.48323 0.0
C605 C 0.97594 0.79716 0.52129 0.0
N606 N 0.01532 0.06509 0.48927 0.0
N607 N 0.9931 0.87868 0.52262 0.0
H608 H 0.25373 0.04552 0.79098 0.0
H609 H 0.31163 0.49146 0.73648 0.0
H610 H 0.37169 0.10424 0.76827 0.0
H611 H 0.19355 0.43061 0.75871 0.0
H612 H 0.3337 0.34594 0.74635 0.0
H613 H 0.23301 0.19475 0.78339 0.0
C614 C 0.27562 0.09055 0.78503 0.0
C615 C 0.31367 0.0607 0.77869 0.0
C616 C 0.30286 0.36416 0.74888 0.0
C617 C 0.29016 0.22967 0.7696 0.0
C618 C 0.29002 0.44652 0.74279 0.0
C619 C 0.25131 0.47488 0.74809 0.0
C620 C 0.27642 0.31028 0.75985 0.0
C621 C 0.22419 0.41261 0.75534 0.0
C622 C 0.26357 0.1753 0.78032 0.0
C623 C 0.34138 0.12333 0.77225 0.0
N624 N 0.23757 0.33363 0.76168 0.0
N625 N 0.3287 0.20455 0.76707 0.0
H626 H 0.75681 0.57921 0.78204 0.0
H627 H 0.81946 0.00242 0.74914 0.0
H628 H 0.88061 0.60328 0.76465 0.0
H629 H 0.74295 -0.00439 0.80722 0.0
H630 H 0.84975 0.86284 0.75865 0.0
H631 H 0.75721 0.73142 0.79798 0.0
C632 C 0.78452 0.61522 0.78226 0.0
C633 C 0.81852 0.57864 0.77173 0.0
C634 C 0.82704 0.89349 0.76962 0.0
C635 C 0.81837 0.75554 0.78853 0.0
C636 C 0.80913 -0.02839 0.76385 0.0
C637 C 0.7773 0.00748 0.77667 0.0
C638 C 0.81231 0.85109 0.78801 0.0
C639 C 0.76593 0.96728 0.7961 0.0
C640 C 0.78479 0.70278 0.79141 0.0
C641 C 0.8533 0.63013 0.77199 0.0
N642 N 0.78304 0.89011 0.80099 0.0
N643 N 0.852 0.71769 0.77955 0.0
H644 H 0.4627 0.71746 0.48775 0.0
H645 H 0.4532 0.29076 0.46177 0.0
H646 H 0.58347 0.69037 0.51049 0.0
H647 H 0.52684 0.30159 0.52129 0.0
H648 H 0.48278 0.42995 0.45172 0.0
H649 H 0.46508 0.56767 0.4703 0.0
C650 C 0.49026 0.68107 0.48844 0.0
C651 C 0.52257 0.71565 0.50103 0.0
C652 C 0.49247 0.40147 0.46693 0.0
C653 C 0.52512 0.54197 0.48171 0.0
C654 C 0.47506 0.32356 0.47296 0.0
C655 C 0.48585 0.28869 0.49322 0.0
C656 C 0.51941 0.44613 0.48177 0.0
C657 C 0.51637 0.32942 0.50619 0.0
C658 C 0.49182 0.5951 0.47822 0.0
C659 C 0.5573 0.66457 0.50166 0.0
N660 N 0.53152 0.40785 0.50051 0.0
N661 N 0.55723 0.57856 0.49275 0.0
H662 H 0.46736 0.7395 0.04496 0.0
H663 H 0.45935 0.17495 0.97852 0.0
H664 H 0.38233 0.78161 0.99267 0.0
H665 H 0.54508 0.13226 0.03045 0.0
H666 H 0.43359 0.0257 0.98162 0.0
H667 H 0.494 0.88761 0.04141 0.0
C668 C 0.45387 0.78027 0.03301 0.0
C669 C 0.42406 0.74671 0.01829 0.0
C670 C 0.45831 0.04872 0.99218 0.0
C671 C 0.45437 0.91496 0.01396 0.0
C672 C 0.47333 0.13354 0.99021 0.0
C673 C 0.50305 0.16718 1.00499 0.0
C674 C 0.47348 -0.00193 0.00893 0.0
C675 C 0.5213 0.10957 0.01916 0.0
C676 C 0.4693 0.8646 0.03084 0.0
C677 C 0.40614 0.80416 1.00395 0.0
N678 N 0.50549 0.02795 0.0212 0.0
N679 N 0.42228 0.8853 1.00174 0.0
H680 H 0.2995 0.36274 0.03084 0.0
H681 H 0.14221 -0.0174 0.99237 0.0
H682 H 0.32303 0.1535 0.97823 0.0
H683 H 0.11604 0.21127 0.03906 0.0
H684 H 0.20891 0.0401 0.98769 0.0
H685 H 0.23433 0.29878 0.03641 0.0
C686 C 0.29117 0.30212 0.02073 0.0
C687 C 0.31659 0.26367 1.00391 0.0
C688 C 0.18852 0.07811 0.99881 0.0
C689 C 0.24141 0.19128 0.00985 0.0
C690 C 0.15021 0.04579 1.00137 0.0
C691 C 0.12334 0.09214 0.01618 0.0
C692 C 0.2003 0.15717 0.01126 0.0
C693 C 0.1356 0.17347 0.0274 0.0
C694 C 0.25376 0.26618 0.02378 0.0
C695 C 0.30439 0.18501 0.99142 0.0
N696 N 0.17332 0.20296 0.02486 0.0
N697 N 0.26737 0.15188 0.99445 0.0
H698 H 0.78151 0.9222 0.02808 0.0
H699 H 0.62604 0.54104 0.98864 0.0
H700 H 0.80554 0.71569 0.97476 0.0
H701 H 0.5983 0.76839 0.03534 0.0
H702 H 0.6906 0.60677 0.9818 0.0
H703 H 0.7146 0.86429 0.03122 0.0
C704 C 0.77285 0.86393 0.01717 0.0
C705 C 0.79912 0.82406 1.001 0.0
C706 C 0.67023 0.64302 0.99329 0.0
C707 C 0.72213 0.75817 1.00434 0.0
C708 C 0.63324 0.60596 0.99705 0.0
C709 C 0.60705 0.6491 0.01276 0.0
C710 C 0.68122 0.72326 1.00552 0.0
C711 C 0.61766 0.73305 0.02311 0.0
C712 C 0.73446 0.83142 0.01886 0.0
C713 C 0.78632 0.74834 0.98749 0.0
N714 N 0.6543 0.76678 0.01959 0.0
N715 N 0.74857 0.71807 0.98938 0.0
H716 H 0.10074 0.162 0.24824 0.0
H717 H 0.95042 0.56556 0.27255 0.0
H718 H 0.13598 0.43423 0.26809 0.0
H719 H 0.91953 0.33999 0.22593 0.0
H720 H 0.01585 0.50159 0.27696 0.0
H721 H 0.03254 0.21384 0.24339 0.0
C722 C 0.09429 0.2328 0.25123 0.0
C723 C 0.12407 0.29392 0.25873 0.0
C724 C 0.99474 0.46565 0.26586 0.0
C725 C 0.04622 0.35255 0.25383 0.0
C726 C 0.95722 0.5016 0.2635 0.0
C727 C 0.92972 0.45861 0.24857 0.0
C728 C 0.00502 0.38581 0.25328 0.0
C729 C 0.93995 0.37529 0.23756 0.0
C730 C 0.05538 0.26203 0.24855 0.0
C731 C 0.11408 0.38475 0.26228 0.0
N732 N 0.97714 0.34174 0.23995 0.0
N733 N 0.07589 0.41106 0.26011 0.0
H734 H 0.34971 0.72002 0.49278 0.0
H735 H 0.12187 0.80086 0.52601 0.0
H736 H 0.30178 -0.01978 0.51468 0.0
H737 H 0.17141 0.54443 0.50229 0.0
H738 H 0.18649 0.87018 0.52041 0.0
H739 H 0.28417 0.65517 0.49662 0.0
C740 C 0.32553 0.76345 0.49867 0.0
C741 C 0.33129 0.85585 0.50327 0.0
C742 C 0.18305 0.79888 0.51625 0.0
C743 C 0.25583 0.78209 0.50735 0.0
C744 C 0.14607 0.75949 0.5192 0.0
C745 C 0.14142 0.66663 0.51485 0.0
C746 C 0.21537 0.74486 0.50889 0.0
C747 C 0.17383 0.61612 0.50616 0.0
C748 C 0.28797 0.72644 0.50068 0.0
C749 C 0.29873 0.90866 0.51085 0.0
N750 N 0.20947 0.65575 0.50367 0.0
N751 N 0.26233 0.87108 0.51253 0.0
H752 H 0.86011 0.158 0.48582 0.0
H753 H 0.63795 0.27957 0.52449 0.0
H754 H 0.82274 0.41724 0.51544 0.0
H755 H 0.67703 0.00808 0.5071 0.0
H756 H 0.70521 0.33181 0.5182 0.0
H757 H 0.79345 0.09995 0.49254 0.0
C758 C 0.83817 0.20213 0.4941 0.0
C759 C 0.84677 0.29274 0.49981 0.0
C760 C 0.69905 0.26078 0.51569 0.0
C761 C 0.77065 0.22782 0.50704 0.0
C762 C 0.66052 0.23106 0.51905 0.0
C763 C 0.65191 0.13931 0.51652 0.0
C764 C 0.72914 0.19839 0.50964 0.0
C765 C 0.68245 0.07944 0.50948 0.0
C766 C 0.80008 0.16933 0.49772 0.0
C767 C 0.8172 0.34723 0.5104 0.0
N768 N 0.71977 0.10999 0.50638 0.0
N769 N 0.78043 0.31418 0.51346 0.0
H770 H 0.92506 -0.00191 0.7417 0.0
H771 H 0.14486 0.06454 0.79031 0.0
H772 H 0.96753 0.25095 0.77282 0.0
H773 H 0.1072 0.83797 0.74575 0.0
H774 H 0.07999 0.13408 0.78552 0.0
H775 H 0.99069 0.93407 0.74659 0.0
C776 C 0.94799 0.03981 0.74986 0.0
C777 C 0.94092 0.13026 0.75662 0.0
C778 C 0.08618 0.06952 0.77664 0.0
C779 C 0.01624 0.05789 0.76192 0.0
C780 C 0.12331 0.03028 0.77918 0.0
C781 C 0.13125 0.94486 0.76865 0.0
C782 C 0.05696 0.02261 0.7636 0.0
C783 C 0.10217 0.90334 0.75448 0.0
C784 C 0.98559 0.00352 0.75242 0.0
C785 C 0.9718 0.18109 0.76713 0.0
N786 N 0.06619 0.94213 0.75259 0.0
N787 N 0.00822 0.14433 0.76934 0.0
H788 H 0.60692 0.30838 0.74181 0.0
H789 H 0.44821 0.6808 0.77849 0.0
H790 H 0.63564 0.56704 0.77537 0.0
H791 H 0.4266 0.49405 0.72053 0.0
H792 H 0.51438 0.61906 0.78173 0.0
H793 H 0.53929 0.36132 0.73564 0.0
C794 C 0.59924 0.37679 0.74748 0.0
C795 C 0.62677 0.4332 0.75938 0.0
C796 C 0.49514 0.59119 0.76835 0.0
C797 C 0.54964 0.49249 0.75295 0.0
C798 C 0.45723 0.62568 0.76663 0.0
C799 C 0.4322 0.59339 0.74898 0.0
C800 C 0.50817 0.52337 0.75243 0.0
C801 C 0.44512 0.52089 0.73434 0.0
C802 C 0.56067 0.40656 0.74405 0.0
C803 C 0.61541 0.5212 0.7662 0.0
N804 N 0.4826 0.48855 0.73625 0.0
N805 N 0.57748 0.5476 0.76324 0.0
H806 H 0.65929 -0.01855 0.28767 0.0
H807 H 0.43671 0.89272 0.2465 0.0
H808 H 0.61933 0.74273 0.24856 0.0
H809 H 0.4791 0.15928 0.26691 0.0
H810 H 0.50313 0.83505 0.25169 0.0
H811 H 0.594 0.0497 0.28234 0.0
C812 C 0.63717 0.94432 0.27755 0.0
C813 C 0.64447 0.85597 0.26879 0.0
C814 C 0.49793 0.9062 0.25511 0.0
C815 C 0.56995 0.93206 0.26323 0.0
C816 C 0.45983 0.93911 0.25238 0.0
C817 C 0.45232 0.03119 0.25602 0.0
C818 C 0.52886 0.9655 0.26165 0.0
C819 C 0.48361 0.08784 0.26372 0.0
C820 C 0.59985 -0.01719 0.27473 0.0
C821 C 0.61473 0.81051 0.25593 0.0
N822 N 0.52065 0.05413 0.26617 0.0
N823 N 0.5787 0.84861 0.25379 0.0
loop_
_geom_bond_atom_site_label_1
_geom_bond_atom_site_label_2
_geom_bond_distance
_geom_bond_site_symmetry_2
_ccdc_geom_bond_type
C0 O12 1.241 1_565 S
C0 O13 1.280 . S
C1 O14 1.277 . S
C1 O15 1.245 . S
C2 O26 1.241 1_554 S
C2 O28 1.302 1_655 S
Mg3 O4 1.926 . S
Mg3 O13 1.984 . S
Mg3 O15 1.988 1_565 S
Mg3 O16 2.061 . S
O4 Mg3 1.926 . S
O4 Mg5 1.986 1_565 S
O4 Mg6 1.916 1_565 S
Mg5 O4 1.986 1_545 S
Mg5 O12 2.042 . S
Mg5 O14 2.041 . S
Mg5 O20 2.038 1_455 S
Mg5 O28 2.238 . S
Mg6 O4 1.916 1_545 S
Mg6 O7 1.918 1_454 S
Mg6 O17 2.096 1_444 S
Mg6 O19 2.078 1_445 S
Mg6 O28 2.117 . S
Mg6 O29 2.080 1_554 S
O7 Mg6 1.918 1_656 S
O7 Mg8 1.926 . S
O7 Mg9 1.986 1_545 S
Mg8 O7 1.926 . S
Mg8 O22 1.984 . S
Mg8 O25 1.988 1_545 S
Mg8 O26 2.061 . S
Mg9 O7 1.986 1_565 S
Mg9 O17 2.238 . S
Mg9 O21 2.042 . S
Mg9 O23 2.041 . S
Mg9 O30 2.038 1_655 S
C10 O16 1.247 . S
C10 O17 1.289 1_454 S
C11 O29 1.245 1_565 S
C11 O30 1.274 . S
O12 C0 1.241 1_545 S
O12 Mg5 2.042 . S
O13 C0 1.280 . S
O13 Mg3 1.984 . S
O14 C1 1.277 . S
O14 Mg5 2.041 . S
O15 C1 1.245 . S
O15 Mg3 1.988 1_545 S
O16 Mg3 2.061 . S
O16 C10 1.247 . S
O17 Mg6 2.096 1_666 S
O17 Mg9 2.238 . S
O17 C10 1.289 1_656 S
C18 O19 1.245 1_545 S
C18 O20 1.274 . S
O19 Mg6 2.078 1_665 S
O19 C18 1.245 1_565 S
O20 Mg5 2.038 1_655 S
O20 C18 1.274 . S
O21 Mg9 2.042 . S
O21 C24 1.241 1_565 S
O22 Mg8 1.984 . S
O22 C24 1.280 . S
O23 Mg9 2.041 . S
O23 C27 1.277 . S
C24 O21 1.241 1_545 S
C24 O22 1.280 . S
O25 Mg8 1.988 1_565 S
O25 C27 1.245 . S
O26 C2 1.241 1_556 S
O26 Mg8 2.061 . S
C27 O23 1.277 . S
C27 O25 1.245 . S
O28 C2 1.302 1_455 S
O28 Mg5 2.238 . S
O28 Mg6 2.117 . S
O29 Mg6 2.080 1_556 S
O29 C11 1.245 1_545 S
O30 Mg9 2.038 1_455 S
O30 C11 1.274 . S
C31 O43 1.241 . S
C31 O44 1.280 . S
C32 O45 1.277 . S
C32 O46 1.245 . S
C33 O57 1.247 . S
C33 O59 1.289 . S
Mg34 O35 1.926 . S
Mg34 O44 1.984 . S
Mg34 O46 1.988 . S
Mg34 O47 2.061 . S
O35 Mg34 1.926 . S
O35 Mg36 1.986 . S
O35 Mg37 1.917 . S
Mg36 O35 1.986 . S
Mg36 O43 2.042 . S
Mg36 O45 2.041 . S
Mg36 O51 2.038 . S
Mg36 O59 2.238 . S
Mg37 O35 1.917 . S
Mg37 O38 1.917 . S
Mg37 O48 2.106 . S
Mg37 O50 2.079 . S
Mg37 O59 2.106 . S
Mg37 O60 2.079 . S
O38 Mg37 1.917 . S
O38 Mg39 1.926 . S
O38 Mg40 1.986 . S
Mg39 O38 1.926 . S
Mg39 O53 1.984 . S
Mg39 O56 1.988 . S
Mg39 O57 2.061 . S
Mg40 O38 1.986 . S
Mg40 O48 2.238 . S
Mg40 O52 2.042 . S
Mg40 O54 2.041 . S
Mg40 O61 2.038 . S
C41 O47 1.247 . S
C41 O48 1.289 . S
C42 O60 1.245 . S
C42 O61 1.274 . S
O43 C31 1.241 . S
O43 Mg36 2.042 . S
O44 C31 1.280 . S
O44 Mg34 1.984 . S
O45 C32 1.277 . S
O45 Mg36 2.041 . S
O46 C32 1.245 . S
O46 Mg34 1.988 . S
O47 Mg34 2.061 . S
O47 C41 1.247 . S
O48 Mg37 2.106 . S
O48 Mg40 2.238 . S
O48 C41 1.289 . S
C49 O50 1.245 . S
C49 O51 1.274 . S
O50 Mg37 2.079 . S
O50 C49 1.245 . S
O51 Mg36 2.038 . S
O51 C49 1.274 . S
O52 Mg40 2.042 . S
O52 C55 1.241 . S
O53 Mg39 1.984 . S
O53 C55 1.280 . S
O54 Mg40 2.041 . S
O54 C58 1.277 . S
C55 O52 1.241 . S
C55 O53 1.280 . S
O56 Mg39 1.988 . S
O56 C58 1.245 . S
O57 C33 1.247 . S
O57 Mg39 2.061 . S
C58 O54 1.277 . S
C58 O56 1.245 . S
O59 C33 1.289 . S
O59 Mg36 2.238 . S
O59 Mg37 2.106 . S
O60 Mg37 2.079 . S
O60 C42 1.245 . S
O61 Mg40 2.038 . S
O61 C42 1.274 . S
C62 O74 1.241 . S
C62 O75 1.280 . S
C63 O76 1.277 . S
C63 O77 1.245 . S
C64 O88 1.247 . S
C64 O90 1.289 . S
Mg65 O66 1.926 . S
Mg65 O75 1.984 . S
Mg65 O77 1.988 . S
Mg65 O78 2.061 . S
O66 Mg65 1.926 . S
O66 Mg67 1.986 . S
O66 Mg68 1.917 . S
Mg67 O66 1.986 . S
Mg67 O74 2.042 . S
Mg67 O76 2.041 . S
Mg67 O82 2.038 . S
Mg67 O90 2.238 . S
Mg68 O66 1.917 . S
Mg68 O69 1.917 . S
Mg68 O79 2.106 . S
Mg68 O81 2.079 . S
Mg68 O90 2.106 . S
Mg68 O91 2.079 . S
O69 Mg68 1.917 . S
O69 Mg70 1.926 . S
O69 Mg71 1.986 . S
Mg70 O69 1.926 . S
Mg70 O84 1.984 . S
Mg70 O87 1.988 . S
Mg70 O88 2.061 . S
Mg71 O69 1.986 . S
Mg71 O79 2.238 . S
Mg71 O83 2.042 . S
Mg71 O85 2.041 . S
Mg71 O92 2.038 . S
C72 O78 1.247 . S
C72 O79 1.289 . S
C73 O91 1.245 . S
C73 O92 1.274 . S
O74 C62 1.241 . S
O74 Mg67 2.042 . S
O75 C62 1.280 . S
O75 Mg65 1.984 . S
O76 C63 1.277 . S
O76 Mg67 2.041 . S
O77 C63 1.245 . S
O77 Mg65 1.988 . S
O78 Mg65 2.061 . S
O78 C72 1.247 . S
O79 Mg68 2.106 . S
O79 Mg71 2.238 . S
O79 C72 1.289 . S
C80 O81 1.245 . S
C80 O82 1.274 . S
O81 Mg68 2.079 . S
O81 C80 1.245 . S
O82 Mg67 2.038 . S
O82 C80 1.274 . S
O83 Mg71 2.042 . S
O83 C86 1.241 . S
O84 Mg70 1.984 . S
O84 C86 1.280 . S
O85 Mg71 2.041 . S
O85 C89 1.277 . S
C86 O83 1.241 . S
C86 O84 1.280 . S
O87 Mg70 1.988 . S
O87 C89 1.245 . S
O88 C64 1.247 . S
O88 Mg70 2.061 . S
C89 O85 1.277 . S
C89 O87 1.245 . S
O90 C64 1.289 . S
O90 Mg67 2.238 . S
O90 Mg68 2.106 . S
O91 Mg68 2.079 . S
O91 C73 1.245 . S
O92 Mg71 2.038 . S
O92 C73 1.274 . S
C93 O105 1.241 . S
C93 O106 1.280 . S
C94 O107 1.277 . S
C94 O108 1.245 . S
C95 O119 1.247 . S
C95 O121 1.289 1_655 S
Mg96 O97 1.926 . S
Mg96 O106 1.984 . S
Mg96 O108 1.988 . S
Mg96 O109 2.061 . S
O97 Mg96 1.926 . S
O97 Mg98 1.986 . S
O97 Mg99 1.917 . S
Mg98 O97 1.986 . S
Mg98 O105 2.042 . S
Mg98 O107 2.041 . S
Mg98 O113 2.038 1_455 S
Mg98 O121 2.238 . S
Mg99 O97 1.917 . S
Mg99 O100 1.917 1_455 S
Mg99 O110 2.106 1_455 S
Mg99 O112 2.079 1_455 S
Mg99 O121 2.106 . S
Mg99 O122 2.079 . S
O100 Mg99 1.917 1_655 S
O100 Mg101 1.926 . S
O100 Mg102 1.986 . S
Mg101 O100 1.926 . S
Mg101 O115 1.984 . S
Mg101 O118 1.988 . S
Mg101 O119 2.061 . S
Mg102 O100 1.986 . S
Mg102 O110 2.238 . S
Mg102 O114 2.042 . S
Mg102 O116 2.041 . S
Mg102 O123 2.038 1_655 S
C103 O109 1.247 . S
C103 O110 1.289 1_455 S
C104 O122 1.245 . S
C104 O123 1.274 . S
O105 C93 1.241 . S
O105 Mg98 2.042 . S
O106 C93 1.280 . S
O106 Mg96 1.984 . S
O107 C94 1.277 . S
O107 Mg98 2.041 . S
O108 C94 1.245 . S
O108 Mg96 1.988 . S
O109 Mg96 2.061 . S
O109 C103 1.247 . S
O110 Mg99 2.106 1_655 S
O110 Mg102 2.238 . S
O110 C103 1.289 1_655 S
C111 O112 1.245 . S
C111 O113 1.274 . S
O112 Mg99 2.079 1_655 S
O112 C111 1.245 . S
O113 Mg98 2.038 1_655 S
O113 C111 1.274 . S
O114 Mg102 2.042 . S
O114 C117 1.241 . S
O115 Mg101 1.984 . S
O115 C117 1.280 . S
O116 Mg102 2.041 . S
O116 C120 1.277 . S
C117 O114 1.241 . S
C117 O115 1.280 . S
O118 Mg101 1.988 . S
O118 C120 1.245 . S
O119 C95 1.247 . S
O119 Mg101 2.061 . S
C120 O116 1.277 . S
C120 O118 1.245 . S
O121 C95 1.289 1_455 S
O121 Mg98 2.238 . S
O121 Mg99 2.106 . S
O122 Mg99 2.079 . S
O122 C104 1.245 . S
O123 Mg102 2.038 1_455 S
O123 C104 1.274 . S
C124 O136 1.241 . S
C124 O137 1.280 . S
C125 O138 1.277 . S
C125 O139 1.245 . S
C126 O150 1.247 . S
C126 O152 1.289 . S
Mg127 O128 1.926 . S
Mg127 O137 1.984 . S
Mg127 O139 1.988 . S
Mg127 O140 2.061 . S
O128 Mg127 1.926 . S
O128 Mg129 1.986 . S
O128 Mg130 1.917 . S
Mg129 O128 1.986 . S
Mg129 O136 2.042 . S
Mg129 O138 2.041 . S
Mg129 O144 2.038 . S
Mg129 O152 2.238 . S
Mg130 O128 1.917 . S
Mg130 O131 1.917 . S
Mg130 O141 2.106 . S
Mg130 O143 2.079 . S
Mg130 O152 2.106 . S
Mg130 O153 2.079 . S
O131 Mg130 1.917 . S
O131 Mg132 1.926 . S
O131 Mg133 1.986 . S
Mg132 O131 1.926 . S
Mg132 O146 1.984 . S
Mg132 O149 1.988 . S
Mg132 O150 2.061 . S
Mg133 O131 1.986 . S
Mg133 O141 2.238 . S
Mg133 O145 2.042 . S
Mg133 O147 2.041 . S
Mg133 O154 2.038 . S
C134 O140 1.247 . S
C134 O141 1.289 . S
C135 O153 1.245 . S
C135 O154 1.274 . S
O136 C124 1.241 . S
O136 Mg129 2.042 . S
O137 C124 1.280 . S
O137 Mg127 1.984 . S
O138 C125 1.277 . S
O138 Mg129 2.041 . S
O139 C125 1.245 . S
O139 Mg127 1.988 . S
O140 Mg127 2.061 . S
O140 C134 1.247 . S
O141 Mg130 2.106 . S
O141 Mg133 2.238 . S
O141 C134 1.289 . S
C142 O143 1.245 . S
C142 O144 1.274 . S
O143 Mg130 2.079 . S
O143 C142 1.245 . S
O144 Mg129 2.038 . S
O144 C142 1.274 . S
O145 Mg133 2.042 . S
O145 C148 1.241 . S
O146 Mg132 1.984 . S
O146 C148 1.280 . S
O147 Mg133 2.041 . S
O147 C151 1.277 . S
C148 O145 1.241 . S
C148 O146 1.280 . S
O149 Mg132 1.988 . S
O149 C151 1.245 . S
O150 C126 1.247 . S
O150 Mg132 2.061 . S
C151 O147 1.277 . S
C151 O149 1.245 . S
O152 C126 1.289 . S
O152 Mg129 2.238 . S
O152 Mg130 2.106 . S
O153 Mg130 2.079 . S
O153 C135 1.245 . S
O154 Mg133 2.038 . S
O154 C135 1.274 . S
C155 O167 1.241 . S
C155 O168 1.280 . S
C156 O169 1.277 . S
C156 O170 1.245 . S
C157 O181 1.247 . S
C157 O183 1.289 . S
Mg158 O159 1.926 . S
Mg158 O168 1.984 . S
Mg158 O170 1.988 . S
Mg158 O171 2.061 . S
O159 Mg158 1.926 . S
O159 Mg160 1.986 . S
O159 Mg161 1.917 . S
Mg160 O159 1.986 . S
Mg160 O167 2.042 . S
Mg160 O169 2.041 . S
Mg160 O175 2.038 . S
Mg160 O183 2.238 . S
Mg161 O159 1.917 . S
Mg161 O162 1.917 . S
Mg161 O172 2.106 . S
Mg161 O174 2.079 . S
Mg161 O183 2.106 . S
Mg161 O184 2.079 . S
O162 Mg161 1.917 . S
O162 Mg163 1.926 . S
O162 Mg164 1.986 . S
Mg163 O162 1.926 . S
Mg163 O177 1.984 . S
Mg163 O180 1.988 . S
Mg163 O181 2.061 . S
Mg164 O162 1.986 . S
Mg164 O172 2.238 . S
Mg164 O176 2.042 . S
Mg164 O178 2.041 . S
Mg164 O185 2.038 . S
C165 O171 1.247 . S
C165 O172 1.289 . S
C166 O184 1.245 . S
C166 O185 1.274 . S
O167 C155 1.241 . S
O167 Mg160 2.042 . S
O168 C155 1.280 . S
O168 Mg158 1.984 . S
O169 C156 1.277 . S
O169 Mg160 2.041 . S
O170 C156 1.245 . S
O170 Mg158 1.988 . S
O171 Mg158 2.061 . S
O171 C165 1.247 . S
O172 Mg161 2.106 . S
O172 Mg164 2.238 . S
O172 C165 1.289 . S
C173 O174 1.245 . S
C173 O175 1.274 . S
O174 Mg161 2.079 . S
O174 C173 1.245 . S
O175 Mg160 2.038 . S
O175 C173 1.274 . S
O176 Mg164 2.042 . S
O176 C179 1.241 . S
O177 Mg163 1.984 . S
O177 C179 1.280 . S
O178 Mg164 2.041 . S
O178 C182 1.277 . S
C179 O176 1.241 . S
C179 O177 1.280 . S
O180 Mg163 1.988 . S
O180 C182 1.245 . S
O181 C157 1.247 . S
O181 Mg163 2.061 . S
C182 O178 1.277 . S
C182 O180 1.245 . S
O183 C157 1.289 . S
O183 Mg160 2.238 . S
O183 Mg161 2.106 . S
O184 Mg161 2.079 . S
O184 C166 1.245 . S
O185 Mg164 2.038 . S
O185 C166 1.274 . S
C186 O198 1.241 1_565 S
C186 O199 1.280 . S
C187 O200 1.277 . S
C187 O201 1.245 . S
C188 O212 1.247 . S
C188 O214 1.289 . S
Mg189 O190 1.926 . S
Mg189 O199 1.984 . S
Mg189 O201 1.988 1_565 S
Mg189 O202 2.061 . S
O190 Mg189 1.926 . S
O190 Mg191 1.986 1_565 S
O190 Mg192 1.916 1_565 S
Mg191 O190 1.986 1_545 S
Mg191 O198 2.042 . S
Mg191 O200 2.041 . S
Mg191 O206 2.038 . S
Mg191 O214 2.238 . S
Mg192 O190 1.916 1_545 S
Mg192 O193 1.918 . S
Mg192 O203 2.098 1_545 S
Mg192 O205 2.078 1_545 S
Mg192 O214 2.114 . S
Mg192 O215 2.080 . S
O193 Mg192 1.918 . S
O193 Mg194 1.926 . S
O193 Mg195 1.986 1_545 S
Mg194 O193 1.926 . S
Mg194 O208 1.984 . S
Mg194 O211 1.988 1_545 S
Mg194 O212 2.061 . S
Mg195 O193 1.986 1_565 S
Mg195 O203 2.238 . S
Mg195 O207 2.042 . S
Mg195 O209 2.041 . S
Mg195 O216 2.038 . S
C196 O202 1.247 . S
C196 O203 1.289 . S
C197 O215 1.245 1_565 S
C197 O216 1.274 . S
O198 C186 1.241 1_545 S
O198 Mg191 2.042 . S
O199 C186 1.280 . S
O199 Mg189 1.984 . S
O200 C187 1.277 . S
O200 Mg191 2.041 . S
O201 C187 1.245 . S
O201 Mg189 1.988 1_545 S
O202 Mg189 2.061 . S
O202 C196 1.247 . S
O203 Mg192 2.098 1_565 S
O203 Mg195 2.238 . S
O203 C196 1.289 . S
C204 O205 1.245 1_545 S
C204 O206 1.274 . S
O205 Mg192 2.078 1_565 S
O205 C204 1.245 1_565 S
O206 Mg191 2.038 . S
O206 C204 1.274 . S
O207 Mg195 2.042 . S
O207 C210 1.241 1_565 S
O208 Mg194 1.984 . S
O208 C210 1.280 . S
O209 Mg195 2.041 . S
O209 C213 1.277 . S
C210 O207 1.241 1_545 S
C210 O208 1.280 . S
O211 Mg194 1.988 1_565 S
O211 C213 1.245 . S
O212 C188 1.247 . S
O212 Mg194 2.061 . S
C213 O209 1.277 . S
C213 O211 1.245 . S
O214 C188 1.289 . S
O214 Mg191 2.238 . S
O214 Mg192 2.114 . S
O215 Mg192 2.080 . S
O215 C197 1.245 1_545 S
O216 Mg195 2.038 . S
O216 C197 1.274 . S
C217 O229 1.241 . S
C217 O230 1.280 . S
C218 O231 1.277 . S
C218 O232 1.245 . S
C219 O243 1.241 1_554 S
C219 O245 1.302 . S
Mg220 O221 1.926 . S
Mg220 O230 1.984 . S
Mg220 O232 1.988 . S
Mg220 O233 2.061 . S
O221 Mg220 1.926 . S
O221 Mg222 1.986 . S
O221 Mg223 1.917 . S
Mg222 O221 1.986 . S
Mg222 O229 2.042 . S
Mg222 O231 2.041 . S
Mg222 O237 2.038 . S
Mg222 O245 2.238 . S
Mg223 O221 1.917 . S
Mg223 O224 1.917 1_554 S
Mg223 O234 2.106 1_554 S
Mg223 O236 2.079 . S
Mg223 O245 2.106 . S
Mg223 O246 2.079 1_554 S
O224 Mg223 1.917 1_556 S
O224 Mg225 1.926 . S
O224 Mg226 1.986 . S
Mg225 O224 1.926 . S
Mg225 O239 1.984 . S
Mg225 O242 1.988 . S
Mg225 O243 2.061 . S
Mg226 O224 1.986 . S
Mg226 O234 2.238 . S
Mg226 O238 2.042 . S
Mg226 O240 2.041 . S
Mg226 O247 2.038 . S
C227 O233 1.247 . S
C227 O234 1.289 1_554 S
C228 O246 1.245 . S
C228 O247 1.274 . S
O229 C217 1.241 . S
O229 Mg222 2.042 . S
O230 C217 1.280 . S
O230 Mg220 1.984 . S
O231 C218 1.277 . S
O231 Mg222 2.041 . S
O232 C218 1.245 . S
O232 Mg220 1.988 . S
O233 Mg220 2.061 . S
O233 C227 1.247 . S
O234 Mg223 2.106 1_556 S
O234 Mg226 2.238 . S
O234 C227 1.289 1_556 S
C235 O236 1.245 . S
C235 O237 1.274 . S
O236 Mg223 2.079 . S
O236 C235 1.245 . S
O237 Mg222 2.038 . S
O237 C235 1.274 . S
O238 Mg226 2.042 . S
O238 C241 1.241 . S
O239 Mg225 1.984 . S
O239 C241 1.280 . S
O240 Mg226 2.041 . S
O240 C244 1.277 . S
C241 O238 1.241 . S
C241 O239 1.280 . S
O242 Mg225 1.988 . S
O242 C244 1.245 . S
O243 C219 1.241 1_556 S
O243 Mg225 2.061 . S
C244 O240 1.277 . S
C244 O242 1.245 . S
O245 C219 1.302 . S
O245 Mg222 2.238 . S
O245 Mg223 2.106 . S
O246 Mg223 2.079 1_556 S
O246 C228 1.245 . S
O247 Mg226 2.038 . S
O247 C228 1.274 . S
H248 C254 0.930 . S
H249 C258 0.930 . S
H250 C263 0.929 . S
H251 C261 0.929 . S
H252 C256 0.929 . S
H253 C262 0.929 . S
C254 H248 0.930 . S
C254 C255 1.367 . S
C254 C262 1.378 1_565 S
C255 C254 1.367 . S
C255 C263 1.433 1_565 S
C256 H252 0.929 . S
C256 C258 1.378 . S
C256 C260 1.350 . S
C257 C260 1.463 . S
C257 C262 1.350 . S
C257 N265 1.427 . S
C258 H249 0.930 . S
C258 C256 1.378 . S
C258 C259 1.367 . S
C259 C258 1.367 . S
C259 C261 1.433 . S
C260 C256 1.350 . S
C260 C257 1.463 . S
C260 N264 1.427 . S
C261 H251 0.929 . S
C261 C259 1.433 . S
C261 N264 1.384 . S
C262 H253 0.929 . S
C262 C254 1.378 1_545 S
C262 C257 1.350 . S
C263 H250 0.929 . S
C263 C255 1.433 1_545 S
C263 N265 1.384 . S
N264 C260 1.427 . S
N264 C261 1.384 . S
N265 C257 1.427 . S
N265 C263 1.384 . S
H266 C272 0.930 . S
H267 C276 0.930 . S
H268 C281 0.929 . S
H269 C279 0.929 . S
H270 C274 0.929 . S
H271 C280 0.929 . S
C272 H266 0.930 . S
C272 C273 1.367 . S
C272 C280 1.378 . S
C273 C272 1.367 . S
C273 C281 1.433 1_565 S
C274 H270 0.929 . S
C274 C276 1.378 . S
C274 C278 1.350 . S
C275 C278 1.463 . S
C275 C280 1.350 . S
C275 N283 1.427 1_565 S
C276 H267 0.930 . S
C276 C274 1.378 . S
C276 C277 1.367 . S
C277 C276 1.367 . S
C277 C279 1.433 . S
C278 C274 1.350 . S
C278 C275 1.463 . S
C278 N282 1.427 . S
C279 H269 0.929 . S
C279 C277 1.433 . S
C279 N282 1.384 . S
C280 H271 0.929 . S
C280 C272 1.378 . S
C280 C275 1.350 . S
C281 H268 0.929 . S
C281 C273 1.433 1_545 S
C281 N283 1.384 . S
N282 C278 1.427 . S
N282 C279 1.384 . S
N283 C275 1.427 1_545 S
N283 C281 1.384 . S
H284 C290 0.930 . S
H285 C294 0.930 . S
H286 C299 0.929 . S
H287 C297 0.929 . S
H288 C292 0.929 . S
H289 C298 0.929 . S
C290 H284 0.930 . S
C290 C291 1.367 . S
C290 C298 1.378 . S
C291 C290 1.367 . S
C291 C299 1.433 . S
C292 H288 0.929 . S
C292 C294 1.378 . S
C292 C296 1.350 . S
C293 C296 1.463 . S
C293 C298 1.350 . S
C293 N301 1.427 . S
C294 H285 0.930 . S
C294 C292 1.378 . S
C294 C295 1.367 . S
C295 C294 1.367 . S
C295 C297 1.433 . S
C296 C292 1.350 . S
C296 C293 1.463 . S
C296 N300 1.427 . S
C297 H287 0.929 . S
C297 C295 1.433 . S
C297 N300 1.384 . S
C298 H289 0.929 . S
C298 C290 1.378 . S
C298 C293 1.350 . S
C299 H286 0.929 . S
C299 C291 1.433 . S
C299 N301 1.384 . S
N300 C296 1.427 . S
N300 C297 1.384 . S
N301 C293 1.427 . S
N301 C299 1.384 . S
H302 C308 0.930 . S
H303 C312 0.930 . S
H304 C317 0.929 . S
H305 C315 0.929 . S
H306 C310 0.929 . S
H307 C316 0.929 . S
C308 H302 0.930 . S
C308 C309 1.367 . S
C308 C316 1.378 . S
C309 C308 1.367 . S
C309 C317 1.433 . S
C310 H306 0.929 . S
C310 C312 1.378 . S
C310 C314 1.350 . S
C311 C314 1.463 . S
C311 C316 1.350 . S
C311 N319 1.427 . S
C312 H303 0.930 . S
C312 C310 1.378 . S
C312 C313 1.367 . S
C313 C312 1.367 . S
C313 C315 1.433 . S
C314 C310 1.350 . S
C314 C311 1.463 . S
C314 N318 1.427 . S
C315 H305 0.929 . S
C315 C313 1.433 . S
C315 N318 1.384 . S
C316 H307 0.929 . S
C316 C308 1.378 . S
C316 C311 1.350 . S
C317 H304 0.929 . S
C317 C309 1.433 . S
C317 N319 1.384 . S
N318 C314 1.427 . S
N318 C315 1.384 . S
N319 C311 1.427 . S
N319 C317 1.384 . S
H320 C326 0.930 . S
H321 C330 0.930 . S
H322 C335 0.929 . S
H323 C333 0.929 . S
H324 C328 0.929 . S
H325 C334 0.929 . S
C326 H320 0.930 . S
C326 C327 1.367 . S
C326 C334 1.378 . S
C327 C326 1.367 . S
C327 C335 1.433 . S
C328 H324 0.929 . S
C328 C330 1.378 . S
C328 C332 1.350 . S
C329 C332 1.463 . S
C329 C334 1.350 . S
C329 N337 1.427 . S
C330 H321 0.930 . S
C330 C328 1.378 . S
C330 C331 1.367 . S
C331 C330 1.367 . S
C331 C333 1.433 . S
C332 C328 1.350 . S
C332 C329 1.463 . S
C332 N336 1.427 . S
C333 H323 0.929 . S
C333 C331 1.433 . S
C333 N336 1.384 . S
C334 H325 0.929 . S
C334 C326 1.378 . S
C334 C329 1.350 . S
C335 H322 0.929 . S
C335 C327 1.433 . S
C335 N337 1.384 . S
N336 C332 1.427 . S
N336 C333 1.384 . S
N337 C329 1.427 . S
N337 C335 1.384 . S
H338 C344 0.930 . S
H339 C348 0.930 . S
H340 C353 0.929 . S
H341 C351 0.929 . S
H342 C346 0.929 . S
H343 C352 0.929 . S
C344 H338 0.930 . S
C344 C345 1.367 . S
C344 C352 1.378 . S
C345 C344 1.367 . S
C345 C353 1.433 . S
C346 H342 0.929 . S
C346 C348 1.378 . S
C346 C350 1.350 . S
C347 C350 1.463 . S
C347 C352 1.350 . S
C347 N355 1.427 . S
C348 H339 0.930 . S
C348 C346 1.378 . S
C348 C349 1.367 . S
C349 C348 1.367 . S
C349 C351 1.433 . S
C350 C346 1.350 . S
C350 C347 1.463 . S
C350 N354 1.427 . S
C351 H341 0.929 . S
C351 C349 1.433 . S
C351 N354 1.384 . S
C352 H343 0.929 . S
C352 C344 1.378 . S
C352 C347 1.350 . S
C353 H340 0.929 . S
C353 C345 1.433 . S
C353 N355 1.384 . S
N354 C350 1.427 . S
N354 C351 1.384 . S
N355 C347 1.427 . S
N355 C353 1.384 . S
H356 C362 0.930 . S
H357 C366 0.930 . S
H358 C371 0.929 . S
H359 C369 0.929 . S
H360 C364 0.929 . S
H361 C370 0.929 . S
C362 H356 0.930 . S
C362 C363 1.367 . S
C362 C370 1.378 . S
C363 C362 1.367 . S
C363 C371 1.433 . S
C364 H360 0.929 . S
C364 C366 1.378 1_565 S
C364 C368 1.350 . S
C365 C368 1.463 . S
C365 C370 1.350 . S
C365 N373 1.427 . S
C366 H357 0.930 . S
C366 C364 1.378 1_545 S
C366 C367 1.367 1_545 S
C367 C366 1.367 1_565 S
C367 C369 1.433 . S
C368 C364 1.350 . S
C368 C365 1.463 . S
C368 N372 1.427 . S
C369 H359 0.929 . S
C369 C367 1.433 . S
C369 N372 1.384 . S
C370 H361 0.929 . S
C370 C362 1.378 . S
C370 C365 1.350 . S
C371 H358 0.929 . S
C371 C363 1.433 . S
C371 N373 1.384 . S
N372 C368 1.427 . S
N372 C369 1.384 . S
N373 C365 1.427 . S
N373 C371 1.384 . S
H374 C380 0.930 . S
H375 C384 0.930 . S
H376 C389 0.929 . S
H377 C387 0.929 1_565 S
H378 C382 0.929 . S
H379 C388 0.929 . S
C380 H374 0.930 . S
C380 C381 1.367 . S
C380 C388 1.378 . S
C381 C380 1.367 . S
C381 C389 1.433 . S
C382 H378 0.929 . S
C382 C384 1.378 . S
C382 C386 1.350 . S
C383 C386 1.463 . S
C383 C388 1.350 . S
C383 N391 1.427 . S
C384 H375 0.930 . S
C384 C382 1.378 . S
C384 C385 1.367 . S
C385 C384 1.367 . S
C385 C387 1.433 . S
C386 C382 1.350 . S
C386 C383 1.463 . S
C386 N390 1.427 . S
C387 H377 0.929 1_545 S
C387 C385 1.433 . S
C387 N390 1.384 . S
C388 H379 0.929 . S
C388 C380 1.378 . S
C388 C383 1.350 . S
C389 H376 0.929 . S
C389 C381 1.433 . S
C389 N391 1.384 . S
N390 C386 1.427 . S
N390 C387 1.384 . S
N391 C383 1.427 . S
N391 C389 1.384 . S
H392 C398 0.930 . S
H393 C402 0.930 . S
H394 C407 0.929 . S
H395 C405 0.929 . S
H396 C400 0.929 . S
H397 C406 0.929 . S
C398 H392 0.930 . S
C398 C399 1.367 . S
C398 C406 1.378 . S
C399 C398 1.367 . S
C399 C407 1.433 . S
C400 H396 0.929 . S
C400 C402 1.378 . S
C400 C404 1.350 1_565 S
C401 C404 1.463 . S
C401 C406 1.350 . S
C401 N409 1.427 . S
C402 H393 0.930 . S
C402 C400 1.378 . S
C402 C403 1.367 . S
C403 C402 1.367 . S
C403 C405 1.433 1_565 S
C404 C400 1.350 1_545 S
C404 C401 1.463 . S
C404 N408 1.427 . S
C405 H395 0.929 . S
C405 C403 1.433 1_545 S
C405 N408 1.384 . S
C406 H397 0.929 . S
C406 C398 1.378 . S
C406 C401 1.350 . S
C407 H394 0.929 . S
C407 C399 1.433 . S
C407 N409 1.384 . S
N408 C404 1.427 . S
N408 C405 1.384 . S
N409 C401 1.427 . S
N409 C407 1.384 . S
H410 C416 0.930 . S
H411 C420 0.930 . S
H412 C425 0.929 . S
H413 C423 0.929 . S
H414 C418 0.929 . S
H415 C424 0.929 . S
C416 H410 0.930 . S
C416 C417 1.367 1_545 S
C416 C424 1.378 . S
C417 C416 1.367 1_565 S
C417 C425 1.433 . S
C418 H414 0.929 . S
C418 C420 1.378 . S
C418 C422 1.350 . S
C419 C422 1.463 . S
C419 C424 1.350 1_565 S
C419 N427 1.427 . S
C420 H411 0.930 . S
C420 C418 1.378 . S
C420 C421 1.367 . S
C421 C420 1.367 . S
C421 C423 1.433 . S
C422 C418 1.350 . S
C422 C419 1.463 . S
C422 N426 1.427 . S
C423 H413 0.929 . S
C423 C421 1.433 . S
C423 N426 1.384 . S
C424 H415 0.929 . S
C424 C416 1.378 . S
C424 C419 1.350 1_545 S
C425 H412 0.929 . S
C425 C417 1.433 . S
C425 N427 1.384 . S
N426 C422 1.427 . S
N426 C423 1.384 . S
N427 C419 1.427 . S
N427 C425 1.384 . S
H428 C434 0.930 . S
H429 C438 0.930 . S
H430 C443 0.929 . S
H431 C441 0.929 . S
H432 C436 0.929 . S
H433 C442 0.929 . S
C434 H428 0.930 . S
C434 C435 1.367 . S
C434 C442 1.378 . S
C435 C434 1.367 . S
C435 C443 1.433 . S
C436 H432 0.929 . S
C436 C438 1.378 . S
C436 C440 1.350 . S
C437 C440 1.463 . S
C437 C442 1.350 . S
C437 N445 1.427 . S
C438 H429 0.930 . S
C438 C436 1.378 . S
C438 C439 1.367 . S
C439 C438 1.367 . S
C439 C441 1.433 . S
C440 C436 1.350 . S
C440 C437 1.463 . S
C440 N444 1.427 . S
C441 H431 0.929 . S
C441 C439 1.433 . S
C441 N444 1.384 . S
C442 H433 0.929 . S
C442 C434 1.378 . S
C442 C437 1.350 . S
C443 H430 0.929 . S
C443 C435 1.433 . S
C443 N445 1.384 . S
N444 C440 1.427 . S
N444 C441 1.384 . S
N445 C437 1.427 . S
N445 C443 1.384 . S
H446 C452 0.930 . S
H447 C456 0.930 . S
H448 C461 0.929 . S
H449 C459 0.929 . S
H450 C454 0.929 . S
H451 C460 0.929 . S
C452 H446 0.930 . S
C452 C453 1.367 . S
C452 C460 1.378 . S
C453 C452 1.367 . S
C453 C461 1.433 . S
C454 H450 0.929 . S
C454 C456 1.378 . S
C454 C458 1.350 . S
C455 C458 1.463 . S
C455 C460 1.350 . S
C455 N463 1.427 . S
C456 H447 0.930 . S
C456 C454 1.378 . S
C456 C457 1.367 . S
C457 C456 1.367 . S
C457 C459 1.433 . S
C458 C454 1.350 . S
C458 C455 1.463 . S
C458 N462 1.427 . S
C459 H449 0.929 . S
C459 C457 1.433 . S
C459 N462 1.384 . S
C460 H451 0.929 . S
C460 C452 1.378 . S
C460 C455 1.350 . S
C461 H448 0.929 . S
C461 C453 1.433 . S
C461 N463 1.384 . S
N462 C458 1.427 . S
N462 C459 1.384 . S
N463 C455 1.427 . S
N463 C461 1.384 . S
H464 C470 0.930 . S
H465 C474 0.930 . S
H466 C479 0.929 . S
H467 C477 0.929 . S
H468 C472 0.929 . S
H469 C478 0.929 . S
C470 H464 0.930 . S
C470 C471 1.367 . S
C470 C478 1.378 . S
C471 C470 1.367 . S
C471 C479 1.433 . S
C472 H468 0.929 . S
C472 C474 1.378 . S
C472 C476 1.350 . S
C473 C476 1.463 . S
C473 C478 1.350 . S
C473 N481 1.427 . S
C474 H465 0.930 . S
C474 C472 1.378 . S
C474 C475 1.367 . S
C475 C474 1.367 . S
C475 C477 1.433 . S
C476 C472 1.350 . S
C476 C473 1.463 . S
C476 N480 1.427 . S
C477 H467 0.929 . S
C477 C475 1.433 . S
C477 N480 1.384 . S
C478 H469 0.929 . S
C478 C470 1.378 . S
C478 C473 1.350 . S
C479 H466 0.929 . S
C479 C471 1.433 . S
C479 N481 1.384 . S
N480 C476 1.427 . S
N480 C477 1.384 . S
N481 C473 1.427 . S
N481 C479 1.384 . S
H482 C488 0.930 . S
H483 C492 0.930 . S
H484 C497 0.929 . S
H485 C495 0.929 . S
H486 C490 0.929 . S
H487 C496 0.929 . S
C488 H482 0.930 . S
C488 C489 1.367 . S
C488 C496 1.378 . S
C489 C488 1.367 . S
C489 C497 1.433 . S
C490 H486 0.929 . S
C490 C492 1.378 . S
C490 C494 1.350 . S
C491 C494 1.463 . S
C491 C496 1.350 . S
C491 N499 1.427 . S
C492 H483 0.930 . S
C492 C490 1.378 . S
C492 C493 1.367 . S
C493 C492 1.367 . S
C493 C495 1.433 . S
C494 C490 1.350 . S
C494 C491 1.463 . S
C494 N498 1.427 . S
C495 H485 0.929 . S
C495 C493 1.433 . S
C495 N498 1.384 . S
C496 H487 0.929 . S
C496 C488 1.378 . S
C496 C491 1.350 . S
C497 H484 0.929 . S
C497 C489 1.433 . S
C497 N499 1.384 . S
N498 C494 1.427 . S
N498 C495 1.384 . S
N499 C491 1.427 . S
N499 C497 1.384 . S
H500 C506 0.930 . S
H501 C510 0.930 . S
H502 C515 0.929 . S
H503 C513 0.929 . S
H504 C508 0.929 . S
H505 C514 0.929 . S
C506 H500 0.930 . S
C506 C507 1.367 . S
C506 C514 1.378 . S
C507 C506 1.367 . S
C507 C515 1.433 . S
C508 H504 0.929 . S
C508 C510 1.378 . S
C508 C512 1.350 . S
C509 C512 1.463 . S
C509 C514 1.350 . S
C509 N517 1.427 . S
C510 H501 0.930 . S
C510 C508 1.378 . S
C510 C511 1.367 . S
C511 C510 1.367 . S
C511 C513 1.433 . S
C512 C508 1.350 . S
C512 C509 1.463 . S
C512 N516 1.427 . S
C513 H503 0.929 . S
C513 C511 1.433 . S
C513 N516 1.384 . S
C514 H505 0.929 . S
C514 C506 1.378 . S
C514 C509 1.350 . S
C515 H502 0.929 . S
C515 C507 1.433 . S
C515 N517 1.384 . S
N516 C512 1.427 . S
N516 C513 1.384 . S
N517 C509 1.427 . S
N517 C515 1.384 . S
H518 C524 0.930 1_565 S
H519 C528 0.930 . S
H520 C533 0.929 . S
H521 C531 0.929 . S
H522 C526 0.929 . S
H523 C532 0.929 . S
C524 H518 0.930 1_545 S
C524 C525 1.367 . S
C524 C532 1.378 . S
C525 C524 1.367 . S
C525 C533 1.433 . S
C526 H522 0.929 . S
C526 C528 1.378 . S
C526 C530 1.350 . S
C527 C530 1.463 . S
C527 C532 1.350 . S
C527 N535 1.427 . S
C528 H519 0.930 . S
C528 C526 1.378 . S
C528 C529 1.367 . S
C529 C528 1.367 . S
C529 C531 1.433 . S
C530 C526 1.350 . S
C530 C527 1.463 . S
C530 N534 1.427 . S
C531 H521 0.929 . S
C531 C529 1.433 . S
C531 N534 1.384 . S
C532 H523 0.929 . S
C532 C524 1.378 . S
C532 C527 1.350 . S
C533 H520 0.929 . S
C533 C525 1.433 . S
C533 N535 1.384 . S
N534 C530 1.427 . S
N534 C531 1.384 . S
N535 C527 1.427 . S
N535 C533 1.384 . S
H536 C542 0.930 . S
H537 C546 0.930 . S
H538 C551 0.929 . S
H539 C549 0.929 . S
H540 C544 0.929 . S
H541 C550 0.929 . S
C542 H536 0.930 . S
C542 C543 1.367 1_655 S
C542 C550 1.378 . S
C543 C542 1.367 1_455 S
C543 C551 1.433 1_554 S
C544 H540 0.929 . S
C544 C546 1.378 . S
C544 C548 1.341 1_556 S
C545 C548 1.462 . S
C545 C550 1.350 1_455 S
C545 N553 1.427 1_554 S
C546 H537 0.930 . S
C546 C544 1.378 . S
C546 C547 1.367 . S
C547 C546 1.367 . S
C547 C549 1.433 1_456 S
C548 C544 1.341 1_554 S
C548 C545 1.462 . S
C548 N552 1.438 1_455 S
C549 H539 0.929 . S
C549 C547 1.433 1_654 S
C549 N552 1.384 . S
C550 H541 0.929 . S
C550 C542 1.378 . S
C550 C545 1.350 1_655 S
C551 H538 0.929 . S
C551 C543 1.433 1_556 S
C551 N553 1.384 . S
N552 C548 1.438 1_655 S
N552 C549 1.384 . S
N553 C545 1.427 1_556 S
N553 C551 1.384 . S
H554 C560 0.930 . S
H555 C564 0.930 . S
H556 C569 0.929 . S
H557 C567 0.929 . S
H558 C562 0.929 . S
H559 C568 0.929 . S
C560 H554 0.930 . S
C560 C561 1.367 . S
C560 C568 1.378 . S
C561 C560 1.367 . S
C561 C569 1.433 . S
C562 H558 0.929 . S
C562 C564 1.378 . S
C562 C566 1.350 . S
C563 C566 1.463 . S
C563 C568 1.350 . S
C563 N571 1.427 . S
C564 H555 0.930 . S
C564 C562 1.378 . S
C564 C565 1.367 . S
C565 C564 1.367 . S
C565 C567 1.433 . S
C566 C562 1.350 . S
C566 C563 1.463 . S
C566 N570 1.427 . S
C567 H557 0.929 . S
C567 C565 1.433 . S
C567 N570 1.384 . S
C568 H559 0.929 . S
C568 C560 1.378 . S
C568 C563 1.350 . S
C569 H556 0.929 . S
C569 C561 1.433 . S
C569 N571 1.384 . S
N570 C566 1.427 . S
N570 C567 1.384 . S
N571 C563 1.427 . S
N571 C569 1.384 . S
H572 C578 0.930 . S
H573 C582 0.930 . S
H574 C587 0.929 . S
H575 C585 0.929 . S
H576 C580 0.929 . S
H577 C586 0.929 . S
C578 H572 0.930 . S
C578 C579 1.367 . S
C578 C586 1.378 . S
C579 C578 1.367 . S
C579 C587 1.433 . S
C580 H576 0.929 . S
C580 C582 1.378 . S
C580 C584 1.350 . S
C581 C584 1.463 . S
C581 C586 1.350 . S
C581 N589 1.427 . S
C582 H573 0.930 . S
C582 C580 1.378 . S
C582 C583 1.367 . S
C583 C582 1.367 . S
C583 C585 1.433 . S
C584 C580 1.350 . S
C584 C581 1.463 . S
C584 N588 1.427 . S
C585 H575 0.929 . S
C585 C583 1.433 . S
C585 N588 1.384 . S
C586 H577 0.929 . S
C586 C578 1.378 . S
C586 C581 1.350 . S
C587 H574 0.929 . S
C587 C579 1.433 . S
C587 N589 1.384 . S
N588 C584 1.427 . S
N588 C585 1.384 . S
N589 C581 1.427 . S
N589 C587 1.384 . S
H590 C596 0.930 . S
H591 C600 0.930 . S
H592 C605 0.929 . S
H593 C603 0.929 . S
H594 C598 0.929 . S
H595 C604 0.929 . S
C596 H590 0.930 . S
C596 C597 1.367 . S
C596 C604 1.378 . S
C597 C596 1.367 . S
C597 C605 1.433 1_655 S
C598 H594 0.929 . S
C598 C600 1.378 . S
C598 C602 1.350 . S
C599 C602 1.463 1_565 S
C599 C604 1.350 1_455 S
C599 N607 1.427 . S
C600 H591 0.930 . S
C600 C598 1.378 . S
C600 C601 1.367 . S
C601 C600 1.367 . S
C601 C603 1.433 1_455 S
C602 C598 1.350 . S
C602 C599 1.463 1_545 S
C602 N606 1.427 1_455 S
C603 H593 0.929 . S
C603 C601 1.433 1_655 S
C603 N606 1.384 . S
C604 H595 0.929 . S
C604 C596 1.378 . S
C604 C599 1.350 1_655 S
C605 H592 0.929 . S
C605 C597 1.433 1_455 S
C605 N607 1.384 . S
N606 C602 1.427 1_655 S
N606 C603 1.384 . S
N607 C599 1.427 . S
N607 C605 1.384 . S
H608 C614 0.930 . S
H609 C618 0.930 . S
H610 C623 0.929 . S
H611 C621 0.929 . S
H612 C616 0.929 . S
H613 C622 0.929 . S
C614 H608 0.930 . S
C614 C615 1.367 . S
C614 C622 1.378 . S
C615 C614 1.367 . S
C615 C623 1.433 . S
C616 H612 0.929 . S
C616 C618 1.378 . S
C616 C620 1.350 . S
C617 C620 1.463 . S
C617 C622 1.350 . S
C617 N625 1.427 . S
C618 H609 0.930 . S
C618 C616 1.378 . S
C618 C619 1.367 . S
C619 C618 1.367 . S
C619 C621 1.433 . S
C620 C616 1.350 . S
C620 C617 1.463 . S
C620 N624 1.427 . S
C621 H611 0.929 . S
C621 C619 1.433 . S
C621 N624 1.384 . S
C622 H613 0.929 . S
C622 C614 1.378 . S
C622 C617 1.350 . S
C623 H610 0.929 . S
C623 C615 1.433 . S
C623 N625 1.384 . S
N624 C620 1.427 . S
N624 C621 1.384 . S
N625 C617 1.427 . S
N625 C623 1.384 . S
H626 C632 0.930 . S
H627 C636 0.930 . S
H628 C641 0.929 . S
H629 C639 0.929 . S
H630 C634 0.929 . S
H631 C640 0.929 . S
C632 H626 0.930 . S
C632 C633 1.367 . S
C632 C640 1.378 . S
C633 C632 1.367 . S
C633 C641 1.433 . S
C634 H630 0.929 . S
C634 C636 1.378 . S
C634 C638 1.350 . S
C635 C638 1.463 . S
C635 C640 1.350 . S
C635 N643 1.427 . S
C636 H627 0.930 . S
C636 C634 1.378 . S
C636 C637 1.367 . S
C637 C636 1.367 . S
C637 C639 1.433 . S
C638 C634 1.350 . S
C638 C635 1.463 . S
C638 N642 1.427 . S
C639 H629 0.929 . S
C639 C637 1.433 . S
C639 N642 1.384 . S
C640 H631 0.929 . S
C640 C632 1.378 . S
C640 C635 1.350 . S
C641 H628 0.929 . S
C641 C633 1.433 . S
C641 N643 1.384 . S
N642 C638 1.427 . S
N642 C639 1.384 . S
N643 C635 1.427 . S
N643 C641 1.384 . S
H644 C650 0.930 . S
H645 C654 0.930 . S
H646 C659 0.929 . S
H647 C657 0.929 . S
H648 C652 0.929 . S
H649 C658 0.929 . S
C650 H644 0.930 . S
C650 C651 1.367 . S
C650 C658 1.378 . S
C651 C650 1.367 . S
C651 C659 1.433 . S
C652 H648 0.929 . S
C652 C654 1.378 . S
C652 C656 1.350 . S
C653 C656 1.463 . S
C653 C658 1.350 . S
C653 N661 1.427 . S
C654 H645 0.930 . S
C654 C652 1.378 . S
C654 C655 1.367 . S
C655 C654 1.367 . S
C655 C657 1.433 . S
C656 C652 1.350 . S
C656 C653 1.463 . S
C656 N660 1.427 . S
C657 H647 0.929 . S
C657 C655 1.433 . S
C657 N660 1.384 . S
C658 H649 0.929 . S
C658 C650 1.378 . S
C658 C653 1.350 . S
C659 H646 0.929 . S
C659 C651 1.433 . S
C659 N661 1.384 . S
N660 C656 1.427 . S
N660 C657 1.384 . S
N661 C653 1.427 . S
N661 C659 1.384 . S
H662 C668 0.931 . S
H663 C672 0.930 . S
H664 C677 0.930 . S
H665 C675 0.929 . S
H666 C670 0.929 . S
H667 C676 0.929 . S
C668 H662 0.931 . S
C668 C669 1.367 . S
C668 C676 1.381 1_556 S
C669 C668 1.367 . S
C669 C677 1.433 . S
C670 H666 0.929 . S
C670 C672 1.378 . S
C670 C674 1.350 . S
C671 C674 1.462 1_565 S
C671 C676 1.351 . S
C671 N679 1.428 . S
C672 H663 0.930 . S
C672 C670 1.378 . S
C672 C673 1.367 . S
C673 C672 1.367 . S
C673 C675 1.433 . S
C674 C670 1.350 . S
C674 C671 1.462 1_545 S
C674 N678 1.427 . S
C675 H665 0.929 . S
C675 C673 1.433 . S
C675 N678 1.384 . S
C676 H667 0.929 . S
C676 C668 1.381 1_554 S
C676 C671 1.351 . S
C677 H664 0.930 . S
C677 C669 1.433 . S
C677 N679 1.386 1_556 S
N678 C674 1.427 . S
N678 C675 1.384 . S
N679 C671 1.428 . S
N679 C677 1.386 1_554 S
H680 C686 0.930 . S
H681 C690 0.930 . S
H682 C695 0.929 . S
H683 C693 0.929 . S
H684 C688 0.929 . S
H685 C694 0.929 . S
C686 H680 0.930 . S
C686 C687 1.367 1_554 S
C686 C694 1.378 . S
C687 C686 1.367 1_556 S
C687 C695 1.433 . S
C688 H684 0.929 . S
C688 C690 1.378 . S
C688 C692 1.350 1_556 S
C689 C692 1.463 . S
C689 C694 1.350 . S
C689 N697 1.427 1_554 S
C690 H681 0.930 . S
C690 C688 1.378 . S
C690 C691 1.367 1_556 S
C691 C690 1.367 1_554 S
C691 C693 1.433 . S
C692 C688 1.350 1_554 S
C692 C689 1.463 . S
C692 N696 1.427 . S
C693 H683 0.929 . S
C693 C691 1.433 . S
C693 N696 1.384 . S
C694 H685 0.929 . S
C694 C686 1.378 . S
C694 C689 1.350 . S
C695 H682 0.929 . S
C695 C687 1.433 . S
C695 N697 1.384 . S
N696 C692 1.427 . S
N696 C693 1.384 . S
N697 C689 1.427 1_556 S
N697 C695 1.384 . S
H698 C704 0.930 . S
H699 C708 0.930 . S
H700 C713 0.929 . S
H701 C711 0.929 . S
H702 C706 0.929 . S
H703 C712 0.929 . S
C704 H698 0.930 . S
C704 C705 1.367 1_554 S
C704 C712 1.378 . S
C705 C704 1.367 1_556 S
C705 C713 1.433 . S
C706 H702 0.929 . S
C706 C708 1.378 . S
C706 C710 1.350 1_556 S
C707 C710 1.463 . S
C707 C712 1.350 . S
C707 N715 1.427 1_554 S
C708 H699 0.930 . S
C708 C706 1.378 . S
C708 C709 1.367 1_556 S
C709 C708 1.367 1_554 S
C709 C711 1.433 . S
C710 C706 1.350 1_554 S
C710 C707 1.463 . S
C710 N714 1.427 . S
C711 H701 0.929 . S
C711 C709 1.433 . S
C711 N714 1.384 . S
C712 H703 0.929 . S
C712 C704 1.378 . S
C712 C707 1.350 . S
C713 H700 0.929 . S
C713 C705 1.433 . S
C713 N715 1.384 . S
N714 C710 1.427 . S
N714 C711 1.384 . S
N715 C707 1.427 1_556 S
N715 C713 1.384 . S
H716 C722 0.930 . S
H717 C726 0.930 . S
H718 C731 0.929 . S
H719 C729 0.929 . S
H720 C724 0.929 1_455 S
H721 C730 0.929 . S
C722 H716 0.930 . S
C722 C723 1.367 . S
C722 C730 1.378 . S
C723 C722 1.367 . S
C723 C731 1.433 . S
C724 H720 0.929 1_655 S
C724 C726 1.378 . S
C724 C728 1.350 . S
C725 C728 1.463 1_455 S
C725 C730 1.350 . S
C725 N733 1.427 . S
C726 H717 0.930 . S
C726 C724 1.378 . S
C726 C727 1.367 . S
C727 C726 1.367 . S
C727 C729 1.433 . S
C728 C724 1.350 . S
C728 C725 1.463 1_655 S
C728 N732 1.427 . S
C729 H719 0.929 . S
C729 C727 1.433 . S
C729 N732 1.384 . S
C730 H721 0.929 . S
C730 C722 1.378 . S
C730 C725 1.350 . S
C731 H718 0.929 . S
C731 C723 1.433 . S
C731 N733 1.384 . S
N732 C728 1.427 . S
N732 C729 1.384 . S
N733 C725 1.427 . S
N733 C731 1.384 . S
H734 C740 0.930 . S
H735 C744 0.930 . S
H736 C749 0.929 . S
H737 C747 0.929 . S
H738 C742 0.929 . S
H739 C748 0.929 . S
C740 H734 0.930 . S
C740 C741 1.367 . S
C740 C748 1.378 . S
C741 C740 1.367 . S
C741 C749 1.433 . S
C742 H738 0.929 . S
C742 C744 1.378 . S
C742 C746 1.350 . S
C743 C746 1.463 . S
C743 C748 1.350 . S
C743 N751 1.427 . S
C744 H735 0.930 . S
C744 C742 1.378 . S
C744 C745 1.367 . S
C745 C744 1.367 . S
C745 C747 1.433 . S
C746 C742 1.350 . S
C746 C743 1.463 . S
C746 N750 1.427 . S
C747 H737 0.929 . S
C747 C745 1.433 . S
C747 N750 1.384 . S
C748 H739 0.929 . S
C748 C740 1.378 . S
C748 C743 1.350 . S
C749 H736 0.929 . S
C749 C741 1.433 . S
C749 N751 1.384 . S
N750 C746 1.427 . S
N750 C747 1.384 . S
N751 C743 1.427 . S
N751 C749 1.384 . S
H752 C758 0.930 . S
H753 C762 0.930 . S
H754 C767 0.929 . S
H755 C765 0.929 . S
H756 C760 0.929 . S
H757 C766 0.929 . S
C758 H752 0.930 . S
C758 C759 1.367 . S
C758 C766 1.378 . S
C759 C758 1.367 . S
C759 C767 1.433 . S
C760 H756 0.929 . S
C760 C762 1.378 . S
C760 C764 1.350 . S
C761 C764 1.463 . S
C761 C766 1.350 . S
C761 N769 1.427 . S
C762 H753 0.930 . S
C762 C760 1.378 . S
C762 C763 1.367 . S
C763 C762 1.367 . S
C763 C765 1.433 . S
C764 C760 1.350 . S
C764 C761 1.463 . S
C764 N768 1.427 . S
C765 H755 0.929 . S
C765 C763 1.433 . S
C765 N768 1.384 . S
C766 H757 0.929 . S
C766 C758 1.378 . S
C766 C761 1.350 . S
C767 H754 0.929 . S
C767 C759 1.433 . S
C767 N769 1.384 . S
N768 C764 1.427 . S
N768 C765 1.384 . S
N769 C761 1.427 . S
N769 C767 1.384 . S
H770 C776 0.930 . S
H771 C780 0.930 . S
H772 C785 0.929 . S
H773 C783 0.929 . S
H774 C778 0.929 1_545 S
H775 C784 0.929 1_565 S
C776 H770 0.930 . S
C776 C777 1.367 . S
C776 C784 1.378 . S
C777 C776 1.367 . S
C777 C785 1.433 . S
C778 H774 0.929 1_565 S
C778 C780 1.378 . S
C778 C782 1.350 . S
C779 C782 1.463 1_645 S
C779 C784 1.350 . S
C779 N787 1.427 . S
C780 H771 0.930 . S
C780 C778 1.378 . S
C780 C781 1.367 . S
C781 C780 1.367 . S
C781 C783 1.433 . S
C782 C778 1.350 . S
C782 C779 1.463 1_465 S
C782 N786 1.427 . S
C783 H773 0.929 . S
C783 C781 1.433 . S
C783 N786 1.384 . S
C784 H775 0.929 1_545 S
C784 C776 1.378 . S
C784 C779 1.350 . S
C785 H772 0.929 . S
C785 C777 1.433 . S
C785 N787 1.384 . S
N786 C782 1.427 . S
N786 C783 1.384 . S
N787 C779 1.427 . S
N787 C785 1.384 . S
H788 C794 0.930 . S
H789 C798 0.930 . S
H790 C803 0.929 . S
H791 C801 0.929 . S
H792 C796 0.929 . S
H793 C802 0.929 . S
C794 H788 0.930 . S
C794 C795 1.367 . S
C794 C802 1.378 . S
C795 C794 1.367 . S
C795 C803 1.433 . S
C796 H792 0.929 . S
C796 C798 1.378 . S
C796 C800 1.350 . S
C797 C800 1.463 . S
C797 C802 1.350 . S
C797 N805 1.427 . S
C798 H789 0.930 . S
C798 C796 1.378 . S
C798 C799 1.367 . S
C799 C798 1.367 . S
C799 C801 1.433 . S
C800 C796 1.350 . S
C800 C797 1.463 . S
C800 N804 1.427 . S
C801 H791 0.929 . S
C801 C799 1.433 . S
C801 N804 1.384 . S
C802 H793 0.929 . S
C802 C794 1.378 . S
C802 C797 1.350 . S
C803 H790 0.929 . S
C803 C795 1.433 . S
C803 N805 1.384 . S
N804 C800 1.427 . S
N804 C801 1.384 . S
N805 C797 1.427 . S
N805 C803 1.384 . S
H806 C812 0.930 . S
H807 C816 0.930 . S
H808 C821 0.929 . S
H809 C819 0.929 . S
H810 C814 0.929 1_565 S
H811 C820 0.929 1_545 S
C812 H806 0.930 . S
C812 C813 1.367 . S
C812 C820 1.378 . S
C813 C812 1.367 . S
C813 C821 1.433 . S
C814 H810 0.929 1_545 S
C814 C816 1.378 . S
C814 C818 1.350 . S
C815 C818 1.463 1_565 S
C815 C820 1.350 . S
C815 N823 1.427 . S
C816 H807 0.930 . S
C816 C814 1.378 . S
C816 C817 1.367 . S
C817 C816 1.367 . S
C817 C819 1.433 . S
C818 C814 1.350 . S
C818 C815 1.463 1_545 S
C818 N822 1.427 . S
C819 H809 0.929 . S
C819 C817 1.433 . S
C819 N822 1.384 . S
C820 H811 0.929 1_565 S
C820 C812 1.378 . S
C820 C815 1.350 . S
C821 H808 0.929 . S
C821 C813 1.433 . S
C821 N823 1.384 . S
N822 C818 1.427 . S
N822 C819 1.384 . S
N823 C815 1.427 . S
N823 C821 1.384 . S
C255 C0 1.547 . S
C259 C49 1.572 . S
C273 C18 1.794 1_565 S
C277 C62 1.784 . S
C291 C104 1.565 . S
C295 C55 1.531 . S
C309 C73 1.795 . S
C313 C117 1.782 . S
C327 C93 1.533 . S
C331 C142 1.565 . S
C345 C155 1.778 . S
C349 C111 1.798 . S
C363 C148 1.550 . S
C367 C11 1.579 . S
C381 C166 1.799 . S
C385 C24 1.778 . S
C399 C173 1.580 . S
C403 C186 1.550 . S
C417 C204 1.798 1_565 S
C421 C124 1.781 . S
C435 C228 1.565 . S
C439 C179 1.531 . S
C453 C241 1.782 . S
C457 C135 1.798 . S
C471 C217 1.532 . S
C475 C80 1.564 . S
C489 C31 1.782 . S
C493 C235 1.795 . S
C507 C197 1.570 . S
C511 C86 1.545 . S
C525 C210 1.787 . S
C529 C42 1.794 . S
C543 C10 0.736 . S
C547 C2 0.730 1_456 S
C561 C41 0.729 . S
C565 C33 0.729 1_565 S
C579 C72 0.727 1_545 S
C583 C64 0.727 . S
C597 C95 0.722 . S
C601 C103 0.722 . S
C615 C134 0.736 1_545 S
C619 C126 0.736 . S
C633 C165 0.736 . S
C637 C157 0.736 1_565 S
C651 C196 0.734 . S
C655 C188 0.734 . S
C669 C219 0.729 1_556 S
C673 C227 0.735 . S
C687 C244 1.490 . S
C691 C1 1.490 . S
C705 C27 1.493 . S
C709 C218 1.493 . S
C723 C58 1.486 . S
C727 C63 1.486 . S
C741 C213 1.485 . S
C745 C94 1.485 . S
C759 C120 1.485 . S
C763 C187 1.485 . S
C777 C156 1.484 . S
C781 C151 1.484 . S
C795 C182 1.492 . S
C799 C125 1.492 . S
C813 C89 1.485 . S
C817 C32 1.485 . S
