# Generated by pormake.
# Topology umr, (4)-cn, num edge types: 1
# Building blocks:
#     Node 0, Type 0, BuildingBlock: QUQFOY_clean_sbu_1, # of connection points: 4
#     Node 1, Type 0, BuildingBlock: QUQFOY_clean_sbu_1, # of connection points: 4
#     Node 2, Type 0, BuildingBlock: QUQFOY_clean_sbu_1, # of connection points: 4
#     Node 3, Type 0, BuildingBlock: QUQFOY_clean_sbu_1, # of connection points: 4
#     Node 4, Type 0, BuildingBlock: QUQFOY_clean_sbu_1, # of connection points: 4
#     Node 5, Type 0, BuildingBlock: QUQFOY_clean_sbu_1, # of connection points: 4
#     Node 6, Type 0, BuildingBlock: QUQFOY_clean_sbu_1, # of connection points: 4
#     Node 7, Type 0, BuildingBlock: QUQFOY_clean_sbu_1, # of connection points: 4
#     Node 8, Type 0, BuildingBlock: QUQFOY_clean_sbu_1, # of connection points: 4
#     Node 9, Type 0, BuildingBlock: QUQFOY_clean_sbu_1, # of connection points: 4
#     Node 10, Type 0, BuildingBlock: QUQFOY_clean_sbu_1, # of connection points: 4
#     Node 11, Type 0, BuildingBlock: QUQFOY_clean_sbu_1, # of connection points: 4
#     Node 12, Type 0, BuildingBlock: QUQFOY_clean_sbu_1, # of connection points: 4
#     Node 13, Type 0, BuildingBlock: QUQFOY_clean_sbu_1, # of connection points: 4
#     Node 14, Type 0, BuildingBlock: QUQFOY_clean_sbu_1, # of connection points: 4
#     Node 15, Type 0, BuildingBlock: QUQFOY_clean_sbu_1, # of connection points: 4
#     Node 16, Type 0, BuildingBlock: QUQFOY_clean_sbu_1, # of connection points: 4
#     Node 17, Type 0, BuildingBlock: QUQFOY_clean_sbu_1, # of connection points: 4
#     Node 18, Type 0, BuildingBlock: QUQFOY_clean_sbu_1, # of connection points: 4
#     Node 19, Type 0, BuildingBlock: QUQFOY_clean_sbu_1, # of connection points: 4
#     Node 20, Type 0, BuildingBlock: QUQFOY_clean_sbu_1, # of connection points: 4
#     Node 21, Type 0, BuildingBlock: QUQFOY_clean_sbu_1, # of connection points: 4
#     Node 22, Type 0, BuildingBlock: QUQFOY_clean_sbu_1, # of connection points: 4
#     Node 23, Type 0, BuildingBlock: QUQFOY_clean_sbu_1, # of connection points: 4
#     Node 24, Type 0, BuildingBlock: QUQFOY_clean_sbu_1, # of connection points: 4
#     Node 25, Type 0, BuildingBlock: QUQFOY_clean_sbu_1, # of connection points: 4
#     Node 26, Type 0, BuildingBlock: QUQFOY_clean_sbu_1, # of connection points: 4
#     Node 27, Type 0, BuildingBlock: QUQFOY_clean_sbu_1, # of connection points: 4
#     Node 28, Type 0, BuildingBlock: QUQFOY_clean_sbu_1, # of connection points: 4
#     Node 29, Type 0, BuildingBlock: QUQFOY_clean_sbu_1, # of connection points: 4
#     Node 30, Type 0, BuildingBlock: QUQFOY_clean_sbu_1, # of connection points: 4
#     Node 31, Type 0, BuildingBlock: QUQFOY_clean_sbu_1, # of connection points: 4
#     Edge 32, Type (0, 0), BuildingBlock: EZIPEK_clean_linker_0, # of connection points: 2
#     Edge 33, Type (0, 0), BuildingBlock: EZIPEK_clean_linker_0, # of connection points: 2
#     Edge 34, Type (0, 0), BuildingBlock: EZIPEK_clean_linker_0, # of connection points: 2
#     Edge 35, Type (0, 0), BuildingBlock: EZIPEK_clean_linker_0, # of connection points: 2
#     Edge 36, Type (0, 0), BuildingBlock: EZIPEK_clean_linker_0, # of connection points: 2
#     Edge 37, Type (0, 0), BuildingBlock: EZIPEK_clean_linker_0, # of connection points: 2
#     Edge 38, Type (0, 0), BuildingBlock: EZIPEK_clean_linker_0, # of connection points: 2
#     Edge 39, Type (0, 0), BuildingBlock: EZIPEK_clean_linker_0, # of connection points: 2
#     Edge 40, Type (0, 0), BuildingBlock: EZIPEK_clean_linker_0, # of connection points: 2
#     Edge 41, Type (0, 0), BuildingBlock: EZIPEK_clean_linker_0, # of connection points: 2
#     Edge 42, Type (0, 0), BuildingBlock: EZIPEK_clean_linker_0, # of connection points: 2
#     Edge 43, Type (0, 0), BuildingBlock: EZIPEK_clean_linker_0, # of connection points: 2
#     Edge 44, Type (0, 0), BuildingBlock: EZIPEK_clean_linker_0, # of connection points: 2
#     Edge 45, Type (0, 0), BuildingBlock: EZIPEK_clean_linker_0, # of connection points: 2
#     Edge 46, Type (0, 0), BuildingBlock: EZIPEK_clean_linker_0, # of connection points: 2
#     Edge 47, Type (0, 0), BuildingBlock: EZIPEK_clean_linker_0, # of connection points: 2
#     Edge 48, Type (0, 0), BuildingBlock: EZIPEK_clean_linker_0, # of connection points: 2
#     Edge 49, Type (0, 0), BuildingBlock: EZIPEK_clean_linker_0, # of connection points: 2
#     Edge 50, Type (0, 0), BuildingBlock: EZIPEK_clean_linker_0, # of connection points: 2
#     Edge 51, Type (0, 0), BuildingBlock: EZIPEK_clean_linker_0, # of connection points: 2
#     Edge 52, Type (0, 0), BuildingBlock: EZIPEK_clean_linker_0, # of connection points: 2
#     Edge 53, Type (0, 0), BuildingBlock: EZIPEK_clean_linker_0, # of connection points: 2
#     Edge 54, Type (0, 0), BuildingBlock: EZIPEK_clean_linker_0, # of connection points: 2
#     Edge 55, Type (0, 0), BuildingBlock: EZIPEK_clean_linker_0, # of connection points: 2
#     Edge 56, Type (0, 0), BuildingBlock: EZIPEK_clean_linker_0, # of connection points: 2
#     Edge 57, Type (0, 0), BuildingBlock: EZIPEK_clean_linker_0, # of connection points: 2
#     Edge 58, Type (0, 0), BuildingBlock: EZIPEK_clean_linker_0, # of connection points: 2
#     Edge 59, Type (0, 0), BuildingBlock: EZIPEK_clean_linker_0, # of connection points: 2
#     Edge 60, Type (0, 0), BuildingBlock: EZIPEK_clean_linker_0, # of connection points: 2
#     Edge 61, Type (0, 0), BuildingBlock: EZIPEK_clean_linker_0, # of connection points: 2
#     Edge 62, Type (0, 0), BuildingBlock: EZIPEK_clean_linker_0, # of connection points: 2
#     Edge 63, Type (0, 0), BuildingBlock: EZIPEK_clean_linker_0, # of connection points: 2
#     Edge 64, Type (0, 0), BuildingBlock: EZIPEK_clean_linker_0, # of connection points: 2
#     Edge 65, Type (0, 0), BuildingBlock: EZIPEK_clean_linker_0, # of connection points: 2
#     Edge 66, Type (0, 0), BuildingBlock: EZIPEK_clean_linker_0, # of connection points: 2
#     Edge 67, Type (0, 0), BuildingBlock: EZIPEK_clean_linker_0, # of connection points: 2
#     Edge 68, Type (0, 0), BuildingBlock: EZIPEK_clean_linker_0, # of connection points: 2
#     Edge 69, Type (0, 0), BuildingBlock: EZIPEK_clean_linker_0, # of connection points: 2
#     Edge 70, Type (0, 0), BuildingBlock: EZIPEK_clean_linker_0, # of connection points: 2
#     Edge 71, Type (0, 0), BuildingBlock: EZIPEK_clean_linker_0, # of connection points: 2
#     Edge 72, Type (0, 0), BuildingBlock: EZIPEK_clean_linker_0, # of connection points: 2
#     Edge 73, Type (0, 0), BuildingBlock: EZIPEK_clean_linker_0, # of connection points: 2
#     Edge 74, Type (0, 0), BuildingBlock: EZIPEK_clean_linker_0, # of connection points: 2
#     Edge 75, Type (0, 0), BuildingBlock: EZIPEK_clean_linker_0, # of connection points: 2
#     Edge 76, Type (0, 0), BuildingBlock: EZIPEK_clean_linker_0, # of connection points: 2
#     Edge 77, Type (0, 0), BuildingBlock: EZIPEK_clean_linker_0, # of connection points: 2
#     Edge 78, Type (0, 0), BuildingBlock: EZIPEK_clean_linker_0, # of connection points: 2
#     Edge 79, Type (0, 0), BuildingBlock: EZIPEK_clean_linker_0, # of connection points: 2
#     Edge 80, Type (0, 0), BuildingBlock: EZIPEK_clean_linker_0, # of connection points: 2
#     Edge 81, Type (0, 0), BuildingBlock: EZIPEK_clean_linker_0, # of connection points: 2
#     Edge 82, Type (0, 0), BuildingBlock: EZIPEK_clean_linker_0, # of connection points: 2
#     Edge 83, Type (0, 0), BuildingBlock: EZIPEK_clean_linker_0, # of connection points: 2
#     Edge 84, Type (0, 0), BuildingBlock: EZIPEK_clean_linker_0, # of connection points: 2
#     Edge 85, Type (0, 0), BuildingBlock: EZIPEK_clean_linker_0, # of connection points: 2
#     Edge 86, Type (0, 0), BuildingBlock: EZIPEK_clean_linker_0, # of connection points: 2
#     Edge 87, Type (0, 0), BuildingBlock: EZIPEK_clean_linker_0, # of connection points: 2
#     Edge 88, Type (0, 0), BuildingBlock: EZIPEK_clean_linker_0, # of connection points: 2
#     Edge 89, Type (0, 0), BuildingBlock: EZIPEK_clean_linker_0, # of connection points: 2
#     Edge 90, Type (0, 0), BuildingBlock: EZIPEK_clean_linker_0, # of connection points: 2
#     Edge 91, Type (0, 0), BuildingBlock: EZIPEK_clean_linker_0, # of connection points: 2
#     Edge 92, Type (0, 0), BuildingBlock: EZIPEK_clean_linker_0, # of connection points: 2
#     Edge 93, Type (0, 0), BuildingBlock: EZIPEK_clean_linker_0, # of connection points: 2
#     Edge 94, Type (0, 0), BuildingBlock: EZIPEK_clean_linker_0, # of connection points: 2
#     Edge 95, Type (0, 0), BuildingBlock: EZIPEK_clean_linker_0, # of connection points: 2
# Relax obj value: 0.050
# Max RMSD: 0.109
# Mean RMSD: 0.109
data_MOF--net-umr--node1-QUQFOY_clean_sbu_1--edge1-EZIPEK_clean_linker_0
_symmetry_space_group_name_H-M    P1
_symmetry_Int_Tables_number       1
_symmetry_cell_setting            triclinic
loop_
_symmetry_equiv_pos_as_xyz
'x, y, z'
_cell_length_a     64.286645
_cell_length_b     64.26755
_cell_length_c     20.807053
_cell_angle_alpha  89.998801
_cell_angle_beta   90.060339
_cell_angle_gamma 90.006768
loop_
_atom_site_label
_atom_site_type_symbol
_atom_site_fract_x
_atom_site_fract_y
_atom_site_fract_z
_atom_type_partial_charge
O0 O 0.1737 0.29398 0.22463 0.0
Cd1 Cd 0.17259 0.31347 0.14594 0.0
Cd2 Cd 0.17777 0.27524 0.08297 0.0
O3 O 0.17127 0.26364 0.17464 0.0
O4 O 0.15989 0.33964 0.17779 0.0
O5 O 0.14452 0.31875 0.10726 0.0
C6 C 0.14403 0.33539 0.14216 0.0
C7 C 0.16749 0.25946 0.98635 0.0
C8 C 0.17163 0.27431 0.22634 0.0
C9 C 0.21108 0.30866 0.07039 0.0
O10 O 0.20566 0.28977 0.06555 0.0
O11 O 0.19943 0.32185 0.09792 0.0
O12 O 0.18173 0.25154 0.02245 0.0
O13 O 0.15724 0.27512 0.00895 0.0
O14 O 0.96144 0.91589 0.44518 0.0
Cd15 Cd 0.94027 0.91878 0.37141 0.0
Cd16 Cd 0.9769 0.91998 0.3011 0.0
O17 O 0.98967 0.90975 0.38762 0.0
O18 O 0.91371 0.90902 0.40969 0.0
O19 O 0.92982 0.89264 0.33013 0.0
C20 C 0.91463 0.89345 0.37074 0.0
C21 C 0.98675 0.90729 0.2008 0.0
C22 C 0.98052 0.91091 0.44176 0.0
C23 C 0.94886 0.95786 0.30099 0.0
O24 O 0.96688 0.95037 0.29161 0.0
O25 O 0.93488 0.94733 0.32916 0.0
O26 O -0.00084 0.9186 0.23465 0.0
O27 O 0.96928 0.90163 0.22599 0.0
O28 O 0.3339 0.71397 0.71091 0.0
Cd29 Cd 0.33054 0.69408 0.63389 0.0
Cd30 Cd 0.33076 0.73038 0.5699 0.0
O31 O 0.34359 0.74149 0.6549 0.0
O32 O 0.33956 0.66633 0.66555 0.0
O33 O 0.35697 0.68451 0.59257 0.0
C34 C 0.35561 0.66823 0.62882 0.0
C35 C 0.34278 0.738 0.46755 0.0
C36 C 0.34111 0.73236 0.70864 0.0
C37 C 0.29134 0.70585 0.56934 0.0
O38 O 0.29939 0.72385 0.56584 0.0
O39 O 0.3018 0.69056 0.59056 0.0
O40 O 0.33383 0.75201 0.50218 0.0
O41 O 0.34683 0.72015 0.4933 0.0
O42 O 0.53357 0.08166 0.94662 0.0
Cd43 Cd 0.55399 0.07814 0.87095 0.0
Cd44 Cd 0.51779 0.07941 0.80558 0.0
O45 O 0.50568 0.09069 0.89116 0.0
O46 O 0.58132 0.08698 0.90651 0.0
O47 O 0.56469 0.1041 0.82941 0.0
C48 C 0.58029 0.10279 0.86845 0.0
C49 C 0.51159 0.09343 0.70435 0.0
C50 C 0.51496 0.08828 0.9447 0.0
C51 C 0.54216 0.03968 0.80206 0.0
O52 O 0.5244 0.04817 0.79715 0.0
O53 O 0.55738 0.04961 0.82609 0.0
O54 O 0.49734 0.08335 0.73488 0.0
O55 O 0.52871 0.09755 0.73433 0.0
O56 O 0.16798 0.71259 0.31625 0.0
Cd57 Cd 0.17035 0.69315 0.39487 0.0
Cd58 Cd 0.16865 0.72934 0.45569 0.0
O59 O 0.15745 0.74054 0.3688 0.0
O60 O 0.16175 0.66513 0.36407 0.0
O61 O 0.14329 0.68397 0.43287 0.0
C62 C 0.14515 0.6674 0.39814 0.0
C63 C 0.154 0.73464 0.55641 0.0
C64 C 0.16076 0.731 0.31618 0.0
C65 C 0.20836 0.70599 0.46462 0.0
O66 O 0.20005 0.72389 0.46482 0.0
O67 O 0.19829 0.69032 0.44403 0.0
O68 O 0.16338 0.74948 0.52634 0.0
O69 O 0.15089 0.71737 0.52613 0.0
O70 O 0.53352 0.91386 0.55597 0.0
Cd71 Cd 0.55408 0.91784 0.63105 0.0
Cd72 Cd 0.51775 0.91747 0.69774 0.0
O73 O 0.50548 0.90605 0.61236 0.0
O74 O 0.58131 0.90876 0.59568 0.0
O75 O 0.56495 0.89229 0.67462 0.0
C76 C 0.58047 0.89335 0.63529 0.0
C77 C 0.51011 0.90468 0.7993 0.0
C78 C 0.51474 0.90779 0.55858 0.0
C79 C 0.54293 0.95693 0.69714 0.0
O80 O 0.52522 0.94858 0.70467 0.0
O81 O 0.55785 0.94686 0.67206 0.0
O82 O 0.49647 0.91487 0.76652 0.0
O83 O 0.52743 0.89975 0.77172 0.0
O84 O 0.3316 0.29109 0.80161 0.0
Cd85 Cd 0.33068 0.30889 0.88461 0.0
Cd86 Cd 0.31713 0.2702 0.92916 0.0
O87 O 0.32393 0.25972 0.83715 0.0
O88 O 0.34227 0.3357 0.85344 0.0
O89 O 0.35838 0.31573 0.92455 0.0
C90 C 0.35826 0.33224 0.88912 0.0
C91 C 0.32775 0.25638 0.02703 0.0
C92 C 0.32891 0.27179 0.7911 0.0
C93 C 0.28809 0.30569 0.94481 0.0
O94 O 0.28995 0.28611 0.94095 0.0
O95 O 0.30289 0.31769 0.92848 0.0
O96 O 0.33681 0.27274 1.00406 0.0
O97 O 0.31428 0.24686 0.99165 0.0
O98 O 0.95817 0.07946 0.04195 0.0
Cd99 Cd 0.93789 0.07753 0.11834 0.0
Cd100 Cd 0.97472 0.07645 0.18371 0.0
O101 O 0.98556 0.08934 0.09835 0.0
O102 O 0.9107 0.08765 0.08537 0.0
O103 O 0.92963 0.10467 0.15766 0.0
C104 C 0.91334 0.10381 0.12124 0.0
C105 C 0.98599 0.08604 0.28572 0.0
C106 C 0.97656 0.08666 0.04444 0.0
C107 C 0.94769 0.03854 0.1861 0.0
O108 O 0.96613 0.04555 0.18761 0.0
O109 O 0.93285 0.04969 0.16538 0.0
O110 O 0.9982 0.07666 0.2461 0.0
O111 O 0.968 0.09207 0.26512 0.0
O112 O 0.83346 0.71397 0.8133 0.0
Cd113 Cd 0.8302 0.69382 0.88962 0.0
Cd114 Cd 0.83092 0.72956 0.95431 0.0
O115 O 0.84337 0.74134 0.86971 0.0
O116 O 0.83929 0.66628 0.85665 0.0
O117 O 0.85672 0.68422 0.93029 0.0
C118 C 0.85542 0.66815 0.89313 0.0
C119 C 0.84358 0.73549 0.05707 0.0
C120 C 0.8407 0.73235 0.81582 0.0
C121 C 0.79124 0.70548 0.95456 0.0
O122 O 0.79951 0.72335 0.95878 0.0
O123 O 0.8015 0.69014 0.93289 0.0
O124 O 0.83435 0.75001 0.02517 0.0
O125 O 0.84775 0.71822 0.02794 0.0
O126 O 0.03301 0.07885 0.55204 0.0
Cd127 Cd 0.05174 0.07835 0.63233 0.0
Cd128 Cd 0.01473 0.07701 0.68933 0.0
O129 O 0.00324 0.08598 0.60025 0.0
O130 O 0.07928 0.08829 0.60213 0.0
O131 O 0.05936 0.10599 0.66996 0.0
C132 C 0.07615 0.1048 0.63602 0.0
C133 C 0.00663 0.09168 0.78823 0.0
C134 C 0.01392 0.08387 0.5492 0.0
C135 C 0.04173 0.03948 0.70143 0.0
O136 O 0.02325 0.04641 0.70177 0.0
O137 O 0.05658 0.05064 0.68073 0.0
O138 O 0.99327 0.08055 0.75719 0.0
O139 O 0.02381 0.09649 0.75968 0.0
O140 O 0.66531 0.28312 0.31546 0.0
Cd141 Cd 0.66941 0.3038 0.39013 0.0
Cd142 Cd 0.66762 0.26786 0.45846 0.0
O143 O 0.6572 0.25519 0.37218 0.0
O144 O 0.66101 0.33117 0.35397 0.0
O145 O 0.64385 0.31516 0.43221 0.0
C146 C 0.64541 0.33066 0.39287 0.0
C147 C 0.65264 0.26192 0.55865 0.0
C148 C 0.65915 0.26436 0.31827 0.0
C149 C 0.7076 0.29219 0.46152 0.0
O150 O 0.69874 0.27474 0.46972 0.0
O151 O 0.69813 0.30705 0.43384 0.0
O152 O 0.66304 0.24762 0.52944 0.0
O153 O 0.64881 0.27898 0.52795 0.0
O154 O 0.46312 0.91466 0.05818 0.0
Cd155 Cd 0.44342 0.91775 0.13586 0.0
Cd156 Cd 0.47972 0.91723 0.19769 0.0
O157 O 0.49122 0.90534 0.11217 0.0
O158 O 0.43373 0.89122 0.17652 0.0
O159 O 0.41563 0.90893 0.10393 0.0
C160 C 0.41747 0.89275 0.14021 0.0
C161 C 0.48611 0.90413 0.29979 0.0
C162 C 0.48169 0.90791 0.05911 0.0
C163 C 0.45562 0.95685 0.19979 0.0
O164 O 0.47353 0.94863 0.20266 0.0
O165 O 0.4401 0.94648 0.17976 0.0
O166 O 0.50044 0.91361 0.26782 0.0
O167 O 0.46875 0.90003 0.27104 0.0
O168 O 0.82966 0.28906 0.72247 0.0
Cd169 Cd 0.8275 0.30752 0.6418 0.0
Cd170 Cd 0.82905 0.26964 0.58217 0.0
O171 O 0.84026 0.26075 0.67208 0.0
O172 O 0.83638 0.33571 0.66967 0.0
O173 O 0.85454 0.31607 0.6022 0.0
C174 C 0.85288 0.33299 0.63545 0.0
C175 C 0.8415 0.25381 0.48713 0.0
C176 C 0.837 0.27072 0.72399 0.0
C177 C 0.78965 0.29476 0.57219 0.0
O178 O 0.79801 0.27689 0.5708 0.0
O179 O 0.79946 0.31036 0.59415 0.0
O180 O 0.83051 0.24402 0.52896 0.0
O181 O 0.84642 0.27274 0.50137 0.0
O182 O 0.46608 0.0817 0.44384 0.0
Cd183 Cd 0.44698 0.07948 0.36399 0.0
Cd184 Cd 0.48327 0.07889 0.30722 0.0
O185 O 0.49416 0.09188 0.3918 0.0
O186 O 0.41893 0.08792 0.39424 0.0
O187 O 0.43778 0.1066 0.32606 0.0
C188 C 0.4211 0.10452 0.36005 0.0
C189 C 0.48809 0.09199 0.20438 0.0
C190 C 0.48445 0.08901 0.44429 0.0
C191 C 0.45905 0.04028 0.30001 0.0
O192 O 0.47739 0.0474 0.30472 0.0
O193 O 0.44361 0.05169 0.31436 0.0
O194 O 0.50307 0.08302 0.2351 0.0
O195 O 0.47091 0.09546 0.23471 0.0
O196 O 0.66544 0.71574 0.19801 0.0
Cd197 Cd 0.66926 0.69523 0.12271 0.0
Cd198 Cd 0.66786 0.73104 0.05682 0.0
O199 O 0.65654 0.74353 0.14192 0.0
O200 O 0.66057 0.66798 0.15893 0.0
O201 O 0.64353 0.68415 0.08072 0.0
C202 C 0.64486 0.66871 0.12035 0.0
C203 C 0.65351 0.73622 0.95543 0.0
C204 C 0.65883 0.73435 0.19564 0.0
C205 C 0.70781 0.70714 0.05467 0.0
O206 O 0.6992 0.72483 0.04906 0.0
O207 O 0.69793 0.69192 0.07881 0.0
O208 O 0.66335 0.7509 0.98486 0.0
O209 O 0.64989 0.71918 0.98642 0.0
O210 O 0.0348 0.91457 0.94426 0.0
Cd211 Cd 0.05571 0.91763 0.86991 0.0
Cd212 Cd 0.01945 0.91753 0.80213 0.0
O213 O 0.00703 0.90606 0.88729 0.0
O214 O 0.08268 0.90853 0.90739 0.0
O215 O 0.06658 0.89167 0.82863 0.0
C216 C 0.08192 0.89286 0.86874 0.0
C217 C 0.01097 0.90591 0.6996 0.0
C218 C 0.01606 0.90838 0.9413 0.0
C219 C 0.04493 0.95676 0.8043 0.0
O220 O 0.0271 0.9486 0.79742 0.0
O221 O 0.05992 0.94648 0.82823 0.0
O222 O 0.99768 0.91587 0.73421 0.0
O223 O 0.02844 0.90055 0.72555 0.0
O224 O 0.66377 0.78242 0.70079 0.0
Cd225 Cd 0.66828 0.80306 0.62634 0.0
Cd226 Cd 0.66716 0.76731 0.559 0.0
O227 O 0.65476 0.75502 0.64308 0.0
O228 O 0.65929 0.83035 0.6616 0.0
O229 O 0.64302 0.81417 0.58181 0.0
C230 C 0.64401 0.82964 0.62144 0.0
C231 C 0.65462 0.76134 0.456 0.0
C232 C 0.65689 0.76392 0.69734 0.0
C233 C 0.70732 0.7911 0.56212 0.0
O234 O 0.69857 0.77357 0.55453 0.0
O235 O 0.69748 0.80632 0.58629 0.0
O236 O 0.66393 0.74688 0.48792 0.0
O237 O 0.65034 0.77858 0.48513 0.0
O238 O 0.46772 0.41847 0.95465 0.0
Cd239 Cd 0.449 0.4192 0.87364 0.0
Cd240 Cd 0.4856 0.42029 0.81967 0.0
O241 O 0.49635 0.40828 0.90551 0.0
O242 O 0.42102 0.41062 0.90415 0.0
O243 O 0.44056 0.39135 0.8394 0.0
C244 C 0.42372 0.39356 0.87259 0.0
C245 C 0.49092 0.40659 0.71801 0.0
C246 C 0.48622 0.41153 0.95698 0.0
C247 C 0.46058 0.45794 0.80622 0.0
O248 O 0.47906 0.4516 0.81488 0.0
O249 O 0.44537 0.44606 0.81928 0.0
O250 O 0.50568 0.41599 0.7485 0.0
O251 O 0.47372 0.40299 0.74815 0.0
O252 O 0.83109 0.21206 0.20652 0.0
Cd253 Cd 0.82825 0.19666 0.11988 0.0
Cd254 Cd 0.82456 0.2365 0.08288 0.0
O255 O 0.83397 0.24468 0.1749 0.0
O256 O 0.8355 0.1676 0.14383 0.0
O257 O 0.85507 0.18712 0.08017 0.0
C258 C 0.85234 0.16991 0.11108 0.0
C259 C 0.84009 0.24367 0.98488 0.0
C260 C 0.83429 0.23113 0.21951 0.0
C261 C 0.78795 0.20985 0.06024 0.0
O262 O 0.79403 0.22839 0.06943 0.0
O263 O 0.79992 0.19458 0.0721 0.0
O264 O 0.82976 0.2578 0.01544 0.0
O265 O 0.84378 0.22629 0.01404 0.0
O266 O 0.03458 0.58328 0.46473 0.0
Cd267 Cd 0.05442 0.57989 0.38761 0.0
Cd268 Cd 0.01793 0.58074 0.32469 0.0
O269 O 0.00677 0.59302 0.41001 0.0
O270 O 0.08226 0.58832 0.42014 0.0
O271 O 0.06455 0.60632 0.34731 0.0
C272 C 0.08072 0.60454 0.3839 0.0
C273 C 0.01055 0.59313 0.22271 0.0
C274 C 0.01614 0.59041 0.46329 0.0
C275 C 0.04208 0.54109 0.32207 0.0
O276 O 0.02421 0.5494 0.31915 0.0
O277 O 0.05756 0.55123 0.34338 0.0
O278 O 0.99657 0.58375 0.25633 0.0
O279 O 0.02808 0.59767 0.24983 0.0
O280 O 0.66248 0.21501 0.81246 0.0
Cd281 Cd 0.66697 0.19414 0.88636 0.0
Cd282 Cd 0.66549 0.23 0.95474 0.0
O283 O 0.65286 0.24211 0.87053 0.0
O284 O 0.65852 0.16689 0.84943 0.0
O285 O 0.6417 0.18242 0.92925 0.0
C286 C 0.64306 0.16717 0.88891 0.0
C287 C 0.65369 0.23662 0.0582 0.0
C288 C 0.65529 0.23338 0.81611 0.0
C289 C 0.70577 0.20637 0.95161 0.0
O290 O 0.6969 0.22385 0.95869 0.0
O291 O 0.69608 0.19106 0.92725 0.0
O292 O 0.66272 0.25088 0.02479 0.0
O293 O 0.6492 0.21919 0.0304 0.0
O294 O 0.03209 0.41804 0.06525 0.0
Cd295 Cd 0.05128 0.42036 0.14449 0.0
Cd296 Cd 0.01494 0.4196 0.20439 0.0
O297 O 0.00375 0.40847 0.11741 0.0
O298 O 0.07926 0.41157 0.1146 0.0
O299 O 0.06027 0.39338 0.18373 0.0
C300 C 0.07698 0.39517 0.14967 0.0
C301 C 0.00916 0.40497 0.30483 0.0
C302 C 0.01351 0.41128 0.06493 0.0
C303 C 0.03926 0.45874 0.21364 0.0
O304 O 0.02116 0.45087 0.21398 0.0
O305 O 0.05463 0.44833 0.19282 0.0
O306 O 0.99459 0.41473 0.27461 0.0
O307 O 0.02638 0.40149 0.27479 0.0
O308 O 0.8327 0.78098 0.31561 0.0
Cd309 Cd 0.82888 0.80136 0.39133 0.0
Cd310 Cd 0.83033 0.76529 0.45628 0.0
O311 O 0.84168 0.75307 0.371 0.0
O312 O 0.83685 0.82881 0.35498 0.0
O313 O 0.85465 0.81287 0.43204 0.0
C314 C 0.85275 0.82835 0.39277 0.0
C315 C 0.84465 0.75992 0.55749 0.0
C316 C 0.83935 0.76238 0.31752 0.0
C317 C 0.79045 0.78912 0.45989 0.0
O318 O 0.79899 0.77137 0.46439 0.0
O319 O 0.80035 0.80442 0.4363 0.0
O320 O 0.83486 0.74529 0.52774 0.0
O321 O 0.84828 0.77702 0.52683 0.0
O322 O 0.46471 0.58238 0.55587 0.0
Cd323 Cd 0.44499 0.57929 0.63345 0.0
Cd324 Cd 0.48149 0.57954 0.69569 0.0
O325 O 0.49243 0.5923 0.61061 0.0
O326 O 0.41719 0.58829 0.60212 0.0
O327 O 0.4356 0.60588 0.67424 0.0
C328 C 0.41922 0.60445 0.63837 0.0
C329 C 0.48907 0.59155 0.79822 0.0
C330 C 0.4831 0.58963 0.55728 0.0
C331 C 0.45693 0.54016 0.69734 0.0
O332 O 0.47496 0.54816 0.69921 0.0
O333 O 0.44147 0.55067 0.67765 0.0
O334 O 0.50299 0.58231 0.76398 0.0
O335 O 0.47141 0.596 0.77177 0.0
O336 O 0.32455 0.20606 0.28946 0.0
Cd337 Cd 0.32565 0.18642 0.36776 0.0
Cd338 Cd 0.32062 0.22469 0.43136 0.0
O339 O 0.3271 0.23634 0.33974 0.0
O340 O 0.33813 0.16025 0.33503 0.0
O341 O 0.35372 0.18084 0.40593 0.0
C342 C 0.35407 0.16431 0.37053 0.0
C343 C 0.33083 0.24049 0.52803 0.0
C344 C 0.32668 0.22572 0.28794 0.0
C345 C 0.28725 0.19127 0.44371 0.0
O346 O 0.29274 0.21013 0.44875 0.0
O347 O 0.29882 0.17808 0.41591 0.0
O348 O 0.31659 0.24838 0.49187 0.0
O349 O 0.34112 0.22485 0.50546 0.0
O350 O 0.53535 0.58262 0.06179 0.0
Cd351 Cd 0.55482 0.58064 0.14098 0.0
Cd352 Cd 0.51774 0.57961 0.19834 0.0
O353 O 0.50618 0.59055 0.11207 0.0
O354 O 0.58242 0.58891 0.10636 0.0
O355 O 0.56511 0.60739 0.17875 0.0
C356 C 0.58111 0.60535 0.14167 0.0
C357 C 0.51132 0.59376 0.29904 0.0
C358 C 0.51645 0.58841 0.06032 0.0
C359 C 0.54348 0.54173 0.2093 0.0
O360 O 0.52499 0.54854 0.20582 0.0
O361 O 0.55862 0.55309 0.19165 0.0
O362 O 0.49718 0.58349 0.26852 0.0
O363 O 0.52849 0.5979 0.26939 0.0
O364 O 0.16489 0.78138 0.81069 0.0
Cd365 Cd 0.16925 0.80211 0.88509 0.0
Cd366 Cd 0.16899 0.76586 0.95238 0.0
O367 O 0.1566 0.7537 0.86812 0.0
O368 O 0.16035 0.82929 0.84866 0.0
O369 O 0.14386 0.81345 0.92852 0.0
C370 C 0.14497 0.82877 0.88838 0.0
C371 C 0.15695 0.75853 0.05505 0.0
C372 C 0.15835 0.76276 0.81399 0.0
C373 C 0.20857 0.79071 0.94962 0.0
O374 O 0.20022 0.77298 0.9569 0.0
O375 O 0.1984 0.80575 0.92551 0.0
O376 O 0.16669 0.74471 0.02175 0.0
O377 O 0.15202 0.77588 0.02753 0.0
O378 O 0.9632 0.41717 0.56118 0.0
Cd379 Cd 0.94335 0.42074 0.63821 0.0
Cd380 Cd 0.97958 0.42011 0.70132 0.0
O381 O 0.99085 0.4074 0.61657 0.0
O382 O 0.91555 0.41195 0.60637 0.0
O383 O 0.93354 0.39443 0.67971 0.0
C384 C 0.91729 0.39593 0.64337 0.0
C385 C 0.9861 0.4075 0.80396 0.0
C386 C 0.98157 0.40991 0.56304 0.0
C387 C 0.95552 0.45978 0.70234 0.0
O388 O 0.97343 0.45156 0.70536 0.0
O389 O 0.94004 0.44944 0.68198 0.0
O390 O 0.00038 0.41686 0.77144 0.0
O391 O 0.96873 0.40323 0.77549 0.0
O392 O 0.33049 0.78355 0.20658 0.0
Cd393 Cd 0.32863 0.80332 0.12861 0.0
Cd394 Cd 0.33107 0.76737 0.0663 0.0
O395 O 0.34242 0.75635 0.15332 0.0
O396 O 0.33716 0.83126 0.16021 0.0
O397 O 0.35584 0.81252 0.09169 0.0
C398 C 0.35385 0.82907 0.12645 0.0
C399 C 0.34567 0.76124 0.96595 0.0
C400 C 0.33833 0.7654 0.20621 0.0
C401 C 0.29117 0.79067 0.05674 0.0
O402 O 0.29964 0.77284 0.05628 0.0
O403 O 0.301 0.80633 0.07833 0.0
O404 O 0.33611 0.74672 0.99691 0.0
O405 O 0.34898 0.77866 0.99518 0.0
O406 O 0.96496 0.58232 0.95874 0.0
Cd407 Cd 0.94609 0.5808 0.87816 0.0
Cd408 Cd 0.98292 0.58032 0.82306 0.0
O409 O 0.99371 0.59205 0.90918 0.0
O410 O 0.91796 0.58881 0.909 0.0
O411 O 0.9368 0.60822 0.84275 0.0
C412 C 0.92012 0.60577 0.87656 0.0
C413 C 0.98854 0.59436 0.72198 0.0
C414 C 0.98353 0.5891 0.96073 0.0
C415 C 0.95826 0.54213 0.81069 0.0
O416 O 0.97665 0.549 0.81692 0.0
O417 O 0.94286 0.55352 0.82561 0.0
O418 O 0.00319 0.5848 0.75253 0.0
O419 O 0.97129 0.59791 0.75185 0.0
O420 O 0.16664 0.20888 0.71271 0.0
Cd421 Cd 0.16767 0.19114 0.62964 0.0
Cd422 Cd 0.1812 0.22985 0.58519 0.0
O423 O 0.17437 0.24026 0.67729 0.0
O424 O 0.1562 0.16423 0.66037 0.0
O425 O 0.14005 0.18421 0.5894 0.0
C426 C 0.14025 0.16762 0.62446 0.0
C427 C 0.17055 0.24369 0.48736 0.0
C428 C 0.16935 0.22818 0.72328 0.0
C429 C 0.21028 0.19442 0.56951 0.0
O430 O 0.2084 0.21399 0.57332 0.0
O431 O 0.1955 0.18241 0.5859 0.0
O432 O 0.184 0.25323 0.5228 0.0
O433 O 0.16152 0.22731 0.51027 0.0
O434 O 0.53704 0.41696 0.46108 0.0
Cd435 Cd 0.55727 0.42067 0.38503 0.0
Cd436 Cd 0.5208 0.42097 0.3209 0.0
O437 O 0.50882 0.40901 0.40567 0.0
O438 O 0.58447 0.41096 0.41906 0.0
O439 O 0.56736 0.39495 0.34065 0.0
C440 C 0.5831 0.3956 0.37936 0.0
C441 C 0.51331 0.40848 0.21891 0.0
C442 C 0.51828 0.41075 0.45912 0.0
C443 C 0.54628 0.46009 0.32102 0.0
O444 O 0.52831 0.45211 0.31568 0.0
O445 O 0.56135 0.4496 0.34357 0.0
O446 O 0.49962 0.4186 0.25162 0.0
O447 O 0.53057 0.40344 0.24679 0.0
C448 C 0.2682 0.31899 0.0391 0.0
C449 C 0.26866 0.31401 0.97268 0.0
C450 C 0.23063 0.31435 0.96907 0.0
C451 C 0.23032 0.31514 0.03717 0.0
N452 N 0.24816 0.3191 0.1381 0.0
N453 N 0.25094 0.30843 0.87237 0.0
C454 C 0.2489 0.31825 0.07251 0.0
C455 C 0.25 0.31251 0.93678 0.0
N456 N 0.28627 0.32396 0.07015 0.0
N457 N 0.21229 0.31521 0.93581 0.0
H458 H 0.26498 0.30819 0.84715 0.0
H459 H 0.23808 0.30466 0.84433 0.0
H460 H 0.19793 0.31672 0.95874 0.0
H461 H 0.2113 0.31619 0.88599 0.0
H462 H 0.2869 0.32934 0.11728 0.0
H463 H 0.30063 0.3243 0.04692 0.0
H464 H 0.26126 0.31875 0.16751 0.0
H465 H 0.23418 0.31925 0.16353 0.0
C466 C 0.94572 0.99657 0.31286 0.0
C467 C 0.94399 0.97857 0.27401 0.0
C468 C 0.94136 0.0001 0.17711 0.0
C469 C 0.9435 0.01809 0.21583 0.0
N470 N 0.94147 0.034 0.32047 0.0
N471 N 0.93402 0.96308 0.17322 0.0
C472 C 0.94365 0.01648 0.28385 0.0
C473 C 0.93981 0.98032 0.20728 0.0
N474 N 0.95015 0.99464 0.37683 0.0
N475 N 0.94168 0.00186 0.11167 0.0
H476 H 0.93249 0.94845 0.19447 0.0
H477 H 0.92899 0.96359 0.12566 0.0
H478 H 0.94215 0.0162 0.08821 0.0
H479 H 0.94269 0.98914 0.08082 0.0
H480 H 0.95407 0.00717 0.40618 0.0
H481 H 0.95105 0.98024 0.3999 0.0
H482 H 0.93955 0.03372 0.37014 0.0
H483 H 0.93984 0.0488 0.30043 0.0
C484 C 0.23245 0.70966 0.55849 0.0
C485 C 0.22928 0.70341 0.49368 0.0
C486 C 0.26613 0.6939 0.48521 0.0
C487 C 0.26974 0.7029 0.54654 0.0
N488 N 0.25688 0.72033 0.64103 0.0
N489 N 0.24328 0.6915 0.39266 0.0
C490 C 0.25303 0.71101 0.58312 0.0
C491 C 0.24611 0.69576 0.45646 0.0
N492 N 0.21571 0.7136 0.59712 0.0
N493 N 0.28186 0.68368 0.45429 0.0
H494 H 0.22893 0.69284 0.36967 0.0
H495 H 0.25542 0.68825 0.36115 0.0
H496 H 0.29686 0.68247 0.47301 0.0
H497 H 0.27968 0.67496 0.41265 0.0
H498 H 0.21683 0.71617 0.6464 0.0
H499 H 0.20039 0.71236 0.58108 0.0
H500 H 0.24582 0.72889 0.66621 0.0
H501 H 0.27157 0.72047 0.66246 0.0
C502 C 0.54088 0.01587 0.70713 0.0
C503 C 0.54524 0.01878 0.77352 0.0
C504 C 0.55334 0.98165 0.78409 0.0
C505 C 0.54607 0.97841 0.72047 0.0
N506 N 0.53177 0.99182 0.6218 0.0
N507 N 0.554 0.0044 0.87715 0.0
C508 C 0.53961 0.99537 0.68192 0.0
C509 C 0.55132 0.0017 0.81248 0.0
N510 N 0.5386 0.03277 0.66782 0.0
N511 N 0.56214 0.96553 0.81727 0.0
H512 H 0.55258 0.01881 0.89973 0.0
H513 H 0.55608 0.99216 0.90931 0.0
H514 H 0.56363 0.95062 0.79799 0.0
H515 H 0.56954 0.96727 0.86146 0.0
H516 H 0.5374 0.03178 0.61802 0.0
H517 H 0.53991 0.04802 0.68441 0.0
H518 H 0.52438 0.00319 0.59438 0.0
H519 H 0.53155 0.9771 0.60062 0.0
C520 C 0.74563 0.69753 0.06698 0.0
C521 C 0.7289 0.70412 0.02736 0.0
C522 C 0.75298 0.7099 0.93765 0.0
C523 C 0.76957 0.70277 0.97669 0.0
N524 N 0.78143 0.6857 0.07312 0.0
N525 N 0.71572 0.71155 0.92109 0.0
C526 C 0.76577 0.69515 0.03959 0.0
C527 C 0.73231 0.70883 0.96144 0.0
N528 N 0.74257 0.69473 0.13143 0.0
N529 N 0.75704 0.71805 0.87827 0.0
H530 H 0.70034 0.71035 0.93646 0.0
H531 H 0.71709 0.713 0.87143 0.0
H532 H 0.77185 0.71804 0.85782 0.0
H533 H 0.74599 0.72591 0.85082 0.0
H534 H 0.75461 0.69226 0.16405 0.0
H535 H 0.72813 0.69654 0.15347 0.0
H536 H 0.77919 0.67802 0.11663 0.0
H537 H 0.79641 0.68392 0.0547 0.0
C538 C 0.05586 0.98216 0.71995 0.0
C539 C 0.04795 0.97842 0.78253 0.0
C540 C 0.04081 0.01556 0.796 0.0
C541 C 0.04585 0.01882 0.73031 0.0
N542 N 0.0568 0.00526 0.62771 0.0
N543 N 0.03218 0.99091 0.88013 0.0
C544 C 0.05333 0.0022 0.69185 0.0
C545 C 0.04036 0.99498 0.82077 0.0
N546 N 0.06563 0.9665 0.68737 0.0
N547 N 0.03699 0.03226 0.83497 0.0
H548 H 0.03264 0.97618 0.90119 0.0
H549 H 0.024 0.00181 0.90711 0.0
H550 H 0.03751 0.04756 0.81842 0.0
H551 H 0.03518 0.03118 0.88457 0.0
H552 H 0.07349 0.96866 0.64418 0.0
H553 H 0.0674 0.95156 0.70624 0.0
H554 H 0.0599 0.99327 0.59548 0.0
H555 H 0.05512 0.01969 0.60542 0.0
C556 C 0.73076 0.29344 0.55802 0.0
C557 C 0.72841 0.29556 0.49041 0.0
C558 C 0.76585 0.30206 0.47981 0.0
C559 C 0.76844 0.29719 0.54586 0.0
N560 N 0.75397 0.28688 0.64774 0.0
N561 N 0.74363 0.30026 0.38556 0.0
C562 C 0.75104 0.29259 0.58507 0.0
C563 C 0.7459 0.29971 0.45089 0.0
N564 N 0.71354 0.29293 0.59651 0.0
N565 N 0.78249 0.30894 0.44488 0.0
H566 H 0.72928 0.29861 0.3627 0.0
H567 H 0.75607 0.30084 0.35363 0.0
H568 H 0.79739 0.31041 0.46434 0.0
H569 H 0.78129 0.31476 0.39835 0.0
H570 H 0.71414 0.29342 0.64649 0.0
H571 H 0.69845 0.29398 0.57841 0.0
H572 H 0.74223 0.28083 0.67666 0.0
H573 H 0.76853 0.28701 0.66995 0.0
C574 C 0.44599 0.98258 0.28517 0.0
C575 C 0.45311 0.97858 0.22182 0.0
C576 C 0.46255 0.01524 0.20811 0.0
C577 C 0.45579 0.01927 0.27208 0.0
N578 N 0.43839 0.00789 0.36861 0.0
N579 N 0.4642 0.991 0.11848 0.0
C580 C 0.4465 0.00329 0.30953 0.0
C581 C 0.46021 0.99493 0.18192 0.0
N582 N 0.43965 0.96634 0.3229 0.0
N583 N 0.47142 0.03083 0.17268 0.0
H584 H 0.46253 0.97625 0.0981 0.0
H585 H 0.46756 0.00243 0.08465 0.0
H586 H 0.47196 0.04625 0.18789 0.0
H587 H 0.47903 0.02851 0.12917 0.0
H588 H 0.43678 0.96751 0.37196 0.0
H589 H 0.43807 0.95121 0.30549 0.0
H590 H 0.42932 0.99765 0.3953 0.0
H591 H 0.43978 0.02246 0.39015 0.0
C592 C 0.74557 0.78624 0.578 0.0
C593 C 0.72895 0.79368 0.53967 0.0
C594 C 0.75268 0.79899 0.44889 0.0
C595 C 0.76946 0.79211 0.48784 0.0
N596 N 0.78285 0.7841 0.59346 0.0
N597 N 0.71696 0.81114 0.44407 0.0
C598 C 0.76618 0.78717 0.55368 0.0
C599 C 0.73264 0.80145 0.47689 0.0
N600 N 0.74158 0.77786 0.63713 0.0
N601 N 0.75559 0.80199 0.38445 0.0
H602 H 0.70205 0.81297 0.46297 0.0
H603 H 0.71913 0.81893 0.40073 0.0
H604 H 0.76995 0.80013 0.36198 0.0
H605 H 0.74348 0.80469 0.35223 0.0
H606 H 0.75263 0.7698 0.66403 0.0
H607 H 0.7268 0.77788 0.65784 0.0
H608 H 0.7816 0.78248 0.6431 0.0
H609 H 0.7982 0.78517 0.57773 0.0
C610 C 0.44595 0.49431 0.80801 0.0
C611 C 0.45707 0.47845 0.77512 0.0
C612 C 0.46307 0.50211 0.68409 0.0
C613 C 0.45423 0.51852 0.72024 0.0
N614 N 0.43701 0.53097 0.81551 0.0
N615 N 0.47585 0.46664 0.68132 0.0
C616 C 0.44524 0.51474 0.78145 0.0
C617 C 0.46544 0.48217 0.71279 0.0
N618 N 0.43633 0.48991 0.86504 0.0
N619 N 0.46863 0.5056 0.62152 0.0
H620 H 0.47642 0.45136 0.69786 0.0
H621 H 0.48461 0.46888 0.63989 0.0
H622 H 0.46681 0.52003 0.5992 0.0
H623 H 0.4734 0.49401 0.58989 0.0
H624 H 0.42595 0.49989 0.88779 0.0
H625 H 0.43784 0.4757 0.88871 0.0
H626 H 0.43262 0.5301 0.86353 0.0
H627 H 0.43528 0.54586 0.79639 0.0
C628 C 0.7314 0.19404 0.0339 0.0
C629 C 0.72745 0.20407 0.97427 0.0
C630 C 0.76413 0.21405 0.96617 0.0
C631 C 0.76748 0.20637 0.02937 0.0
N632 N 0.75439 0.19035 0.12591 0.0
N633 N 0.73937 0.22423 0.88391 0.0
C634 C 0.75122 0.19642 0.06365 0.0
C635 C 0.74367 0.21415 0.94029 0.0
N636 N 0.71612 0.18245 0.0623 0.0
N637 N 0.78066 0.22071 0.93031 0.0
H638 H 0.72487 0.2235 0.86143 0.0
H639 H 0.74978 0.23414 0.86091 0.0
H640 H 0.79586 0.22086 0.94776 0.0
H641 H 0.77971 0.22445 0.88173 0.0
H642 H 0.71855 0.17303 0.10229 0.0
H643 H 0.7012 0.18097 0.04311 0.0
H644 H 0.7426 0.18524 0.15625 0.0
H645 H 0.76871 0.19177 0.14912 0.0
C646 C 0.03691 0.48237 0.3089 0.0
C647 C 0.04249 0.47944 0.24345 0.0
C648 C 0.05288 0.5161 0.23607 0.0
C649 C 0.04458 0.51954 0.29837 0.0
N650 N 0.02772 0.50657 0.39367 0.0
N651 N 0.05405 0.49366 0.14234 0.0
C652 C 0.03638 0.50282 0.33478 0.0
C653 C 0.05029 0.49628 0.20651 0.0
N654 N 0.0328 0.46549 0.34688 0.0
N655 N 0.0631 0.53181 0.20505 0.0
H656 H 0.05222 0.47944 0.11888 0.0
H657 H 0.05743 0.50585 0.11112 0.0
H658 H 0.06487 0.54664 0.22462 0.0
H659 H 0.0713 0.52976 0.16241 0.0
H660 H 0.03069 0.46636 0.39641 0.0
H661 H 0.0334 0.45025 0.32988 0.0
H662 H 0.0191 0.49559 0.41902 0.0
H663 H 0.0282 0.52112 0.41588 0.0
C664 C 0.26773 0.18565 0.54509 0.0
C665 C 0.26801 0.18483 0.47699 0.0
C666 C 0.23012 0.18107 0.47518 0.0
C667 C 0.22969 0.18609 0.54158 0.0
N668 N 0.24745 0.19168 0.64181 0.0
N669 N 0.25013 0.18087 0.37612 0.0
C670 C 0.24836 0.18756 0.57741 0.0
C671 C 0.24941 0.18175 0.44171 0.0
N672 N 0.28607 0.18475 0.5783 0.0
N673 N 0.21203 0.17612 0.4442 0.0
H674 H 0.2641 0.18068 0.35064 0.0
H675 H 0.23702 0.18124 0.34676 0.0
H676 H 0.19768 0.17583 0.46746 0.0
H677 H 0.21138 0.1707 0.39711 0.0
H678 H 0.28707 0.18378 0.62812 0.0
H679 H 0.30042 0.18317 0.55533 0.0
H680 H 0.26034 0.19544 0.66978 0.0
H681 H 0.23343 0.19198 0.66707 0.0
C682 C 0.54276 0.49846 0.33452 0.0
C683 C 0.54956 0.48147 0.29684 0.0
C684 C 0.55642 0.50476 0.20562 0.0
C685 C 0.54727 0.52134 0.24074 0.0
N686 N 0.5326 0.53479 0.33924 0.0
N687 N 0.56339 0.46764 0.19825 0.0
C688 C 0.54081 0.51843 0.30562 0.0
C689 C 0.55689 0.48446 0.23317 0.0
N690 N 0.53858 0.49543 0.39832 0.0
N691 N 0.56439 0.50838 0.14571 0.0
H692 H 0.56504 0.45285 0.21818 0.0
H693 H 0.5665 0.46798 0.14923 0.0
H694 H 0.56308 0.52262 0.12214 0.0
H695 H 0.57326 0.49768 0.12015 0.0
H696 H 0.53518 0.50728 0.43064 0.0
H697 H 0.54004 0.48093 0.42051 0.0
H698 H 0.52526 0.53342 0.38354 0.0
H699 H 0.53256 0.54999 0.32192 0.0
C700 C 0.25329 0.80037 0.06443 0.0
C701 C 0.27033 0.79321 0.02716 0.0
C702 C 0.24697 0.78616 0.9363 0.0
C703 C 0.23007 0.7938 0.97297 0.0
N704 N 0.21734 0.81191 0.06645 0.0
N705 N 0.28437 0.78395 0.9235 0.0
C706 C 0.23335 0.80223 0.03521 0.0
C707 C 0.26745 0.78747 0.96177 0.0
N708 N 0.25588 0.80419 0.1286 0.0
N709 N 0.24338 0.77723 0.87768 0.0
H710 H 0.29962 0.78516 0.9402 0.0
H711 H 0.28346 0.78173 0.87401 0.0
H712 H 0.22872 0.777 0.85605 0.0
H713 H 0.25461 0.76902 0.85209 0.0
H714 H 0.24363 0.8071 0.15999 0.0
H715 H 0.27019 0.80285 0.15191 0.0
H716 H 0.21919 0.8202 0.10906 0.0
H717 H 0.20243 0.81315 0.04704 0.0
C718 C 0.94519 0.48468 0.78925 0.0
C719 C 0.95283 0.4813 0.72611 0.0
C720 C 0.96217 0.51812 0.71639 0.0
C721 C 0.95498 0.52149 0.78029 0.0
N722 N 0.93686 0.50916 0.87438 0.0
N723 N 0.96469 0.49472 0.6248 0.0
C724 C 0.94545 0.50515 0.81553 0.0
C725 C 0.96015 0.49805 0.68823 0.0
N726 N 0.93863 0.46808 0.82507 0.0
N727 N 0.97111 0.53412 0.68293 0.0
H728 H 0.96324 0.48016 0.60302 0.0
H729 H 0.96831 0.50646 0.59226 0.0
H730 H 0.97135 0.54941 0.69955 0.0
H731 H 0.97899 0.53232 0.63966 0.0
H732 H 0.93538 0.46878 0.87398 0.0
H733 H 0.93725 0.45311 0.8063 0.0
H734 H 0.9276 0.49865 0.89941 0.0
H735 H 0.93802 0.52352 0.89733 0.0
C736 C 0.16109 0.26499 0.86599 0.0
C737 C 0.16455 0.25143 0.91928 0.0
C738 C 0.17344 0.22364 0.84376 0.0
C739 C 0.16729 0.23622 0.7907 0.0
N740 N 0.14869 0.26707 0.75649 0.0
N741 N 0.16689 0.21576 0.95529 0.0
C742 C 0.15904 0.25635 0.80326 0.0
C743 C 0.16833 0.23006 0.90698 0.0
N744 N 0.16113 0.28611 0.87335 0.0
N745 N 0.18541 0.2063 0.83508 0.0
H746 H 0.16186 0.21967 1.0014 0.0
H747 H 0.16814 0.1998 0.94709 0.0
H748 H 0.19183 0.20217 0.79094 0.0
H749 H 0.19135 0.19771 0.87347 0.0
H750 H 0.16055 0.29627 0.8343 0.0
H751 H 0.1642 0.29361 0.91659 0.0
H752 H 0.14107 0.28109 0.76555 0.0
H753 H 0.14547 0.26082 0.71136 0.0
C754 C 0.01061 0.88862 0.04408 0.0
C755 C 0.00467 0.90513 1.00245 0.0
C756 C 0.98444 0.92117 0.08897 0.0
C757 C 0.99071 0.90491 0.13103 0.0
N758 N 0.00605 0.87125 0.14722 0.0
N759 N 0.98254 0.93456 0.98013 0.0
C760 C 0.00257 0.88794 0.10794 0.0
C761 C 0.99031 0.92046 0.02316 0.0
N762 N 0.02439 0.87395 0.02279 0.0
N763 N 0.97386 0.93792 0.11294 0.0
H764 H 0.9871 0.93512 0.93213 0.0
H765 H 0.97035 0.94468 0.99044 0.0
H766 H 0.96879 0.93877 0.16042 0.0
H767 H 0.97118 0.95157 0.08729 0.0
H768 H 0.03129 0.86284 0.05224 0.0
H769 H 0.02953 0.87336 0.97527 0.0
H770 H 0.01312 0.85752 0.13227 0.0
H771 H 0.0004 0.87058 0.19418 0.0
C772 C 0.3594 0.75662 0.3752 0.0
C773 C 0.34509 0.74152 0.39752 0.0
C774 C 0.33064 0.73794 0.28866 0.0
C775 C 0.34282 0.75517 0.26869 0.0
N776 N 0.36943 0.78065 0.29053 0.0
N777 N 0.31611 0.71848 0.37772 0.0
C778 C 0.35754 0.76432 0.31122 0.0
C779 C 0.33073 0.73202 0.35457 0.0
N780 N 0.3749 0.7633 0.41524 0.0
N781 N 0.31866 0.72747 0.24497 0.0
H782 H 0.31569 0.71351 0.42536 0.0
H783 H 0.30348 0.71316 0.35105 0.0
H784 H 0.31723 0.73197 0.19707 0.0
H785 H 0.31134 0.71338 0.25479 0.0
H786 H 0.387 0.773 0.40102 0.0
H787 H 0.37658 0.75771 0.46207 0.0
H788 H 0.3786 0.78976 0.32064 0.0
H789 H 0.36959 0.78562 0.24278 0.0
C790 C 0.49009 0.10862 0.61536 0.0
C791 C 0.50849 0.0982 0.63499 0.0
C792 C 0.51297 0.08418 0.52626 0.0
C793 C 0.49429 0.09415 0.50695 0.0
N794 N 0.46843 0.1205 0.52696 0.0
N795 N 0.54104 0.08231 0.60349 0.0
C796 C 0.48391 0.10789 0.54968 0.0
C797 C 0.52121 0.0882 0.58848 0.0
N798 N 0.47836 0.11886 0.66 0.0
N799 N 0.52206 0.06965 0.48736 0.0
H800 H 0.54786 0.085 0.64804 0.0
H801 H 0.55155 0.07675 0.56949 0.0
H802 H 0.51645 0.06584 0.44186 0.0
H803 H 0.53412 0.05998 0.50244 0.0
H804 H 0.46345 0.1245 0.65098 0.0
H805 H 0.48339 0.1211 0.70722 0.0
H806 H 0.46136 0.1321 0.55417 0.0
H807 H 0.46397 0.12067 0.47872 0.0
C808 C 0.16339 0.7336 0.73422 0.0
C809 C 0.15276 0.75194 0.75326 0.0
C810 C 0.13762 0.75516 0.64536 0.0
C811 C 0.14894 0.73733 0.62571 0.0
N812 N 0.16618 0.70548 0.65741 0.0
N813 N 0.1251 0.77641 0.73375 0.0
C814 C 0.15953 0.72508 0.67224 0.0
C815 C 0.1383 0.76149 0.71088 0.0
N816 N 0.17837 0.72517 0.77297 0.0
N817 N 0.12664 0.76627 0.60082 0.0
H818 H 0.12498 0.78096 0.7819 0.0
H819 H 0.11303 0.78284 0.70691 0.0
H820 H 0.12455 0.76105 0.55374 0.0
H821 H 0.12021 0.78086 0.60978 0.0
H822 H 0.18848 0.71349 0.75788 0.0
H823 H 0.18198 0.73094 0.81841 0.0
H824 H 0.17226 0.69526 0.69144 0.0
H825 H 0.1636 0.69849 0.61303 0.0
C826 C 0.50931 0.916 0.97728 0.0
C827 C 0.49218 0.90362 0.997 0.0
C828 C 0.48958 0.88854 0.88883 0.0
C829 C 0.5065 0.90113 0.86888 0.0
N830 N 0.53562 0.92313 0.89694 0.0
N831 N 0.46925 0.87468 0.97745 0.0
C832 C 0.51754 0.91344 0.91431 0.0
C833 C 0.48335 0.88876 0.95449 0.0
N834 N 0.5167 0.93134 0.0168 0.0
N835 N 0.47917 0.8768 0.84446 0.0
H836 H 0.46465 0.87431 0.02554 0.0
H837 H 0.46347 0.86228 0.95068 0.0
H838 H 0.48424 0.87527 0.79705 0.0
H839 H 0.46516 0.86927 0.85369 0.0
H840 H 0.52725 0.94267 1.00215 0.0
H841 H 0.51115 0.93386 0.06319 0.0
H842 H 0.54552 0.9304 0.9296 0.0
H843 H 0.54179 0.92246 0.85077 0.0
C844 C 0.34463 0.23596 0.11641 0.0
C845 C 0.32973 0.25077 0.09597 0.0
C846 C 0.31357 0.25048 0.20298 0.0
C847 C 0.3288 0.23601 0.22416 0.0
N848 N 0.36143 0.21846 0.20598 0.0
N849 N 0.30287 0.27554 0.12226 0.0
C850 C 0.34514 0.2298 0.18224 0.0
C851 C 0.31517 0.25917 0.14026 0.0
N852 N 0.35791 0.22739 0.07252 0.0
N853 N 0.29682 0.25491 0.24108 0.0
H854 H 0.3033 0.28204 0.07635 0.0
H855 H 0.29356 0.28383 0.15417 0.0
H856 H 0.29488 0.24878 0.28706 0.0
H857 H 0.28395 0.26333 0.22532 0.0
H858 H 0.36753 0.21477 0.08245 0.0
H859 H 0.3584 0.23219 0.02462 0.0
H860 H 0.37475 0.21501 0.17968 0.0
H861 H 0.3625 0.21407 0.25416 0.0
C862 C 0.00096 0.06588 0.4509 0.0
C863 C 0.00383 0.08472 0.48523 0.0
C864 C 0.9939 0.1049 0.38957 0.0
C865 C 0.99102 0.08601 0.35537 0.0
N866 N 0.98717 0.04861 0.35673 0.0
N867 N -4e-05 0.1219 0.49248 0.0
C868 C 0.99322 0.06652 0.38704 0.0
C869 C -0.00081 0.10418 0.45623 0.0
N870 N 0.00604 0.04731 0.47912 0.0
N871 N 0.99258 0.12342 0.35751 0.0
H872 H 0.00432 0.12187 0.54079 0.0
H873 H 0.99493 0.13638 0.4764 0.0
H874 H 0.98864 0.12441 0.30896 0.0
H875 H 0.99659 0.13771 0.3775 0.0
H876 H 0.00721 0.03334 0.45409 0.0
H877 H 0.01018 0.04595 0.52744 0.0
H878 H 0.98606 0.03423 0.37948 0.0
H879 H 0.98143 0.04828 0.30993 0.0
C880 C 0.83429 0.72713 0.17114 0.0
C881 C 0.84705 0.73823 0.12712 0.0
C882 C 0.85954 0.7604 0.21509 0.0
C883 C 0.84412 0.75178 0.25593 0.0
N884 N 0.81597 0.72759 0.27296 0.0
N885 N 0.87242 0.7649 0.10624 0.0
C886 C 0.83156 0.73499 0.23454 0.0
C887 C 0.86004 0.75459 0.14907 0.0
N888 N 0.82438 0.70934 0.1521 0.0
N889 N 0.87386 0.77392 0.23999 0.0
H890 H 0.87415 0.76007 0.05866 0.0
H891 H 0.88034 0.7786 0.11694 0.0
H892 H 0.874 0.77813 0.28844 0.0
H893 H 0.88661 0.77951 0.21453 0.0
H894 H 0.81668 0.69941 0.18364 0.0
H895 H 0.82532 0.70339 0.10571 0.0
H896 H 0.80451 0.71735 0.25716 0.0
H897 H 0.8135 0.73277 0.3198 0.0
C898 C 0.00641 0.083 0.96635 0.0
C899 C 0.98714 0.09226 0.98331 0.0
C900 C 0.98368 0.10643 0.87426 0.0
C901 C 0.00265 0.09669 0.85696 0.0
N902 N 0.0355 0.08246 0.89276 0.0
N903 N 0.96094 0.11802 0.9602 0.0
C904 C 0.01524 0.08737 0.90518 0.0
C905 C 0.97688 0.10569 0.9393 0.0
N906 N 0.01558 0.0688 1.00628 0.0
N907 N 0.972 0.11604 0.82809 0.0
H908 H 0.95616 0.11831 0.00811 0.0
H909 H 0.95389 0.12938 0.93194 0.0
H910 H 0.97738 0.11822 0.78125 0.0
H911 H 0.95682 0.12114 0.83555 0.0
H912 H 0.02821 0.05967 0.99263 0.0
H913 H 0.00954 0.0647 0.05095 0.0
H914 H 0.0458 0.07739 0.92813 0.0
H915 H 0.04274 0.08557 0.84912 0.0
C916 C 0.63595 0.24089 0.64595 0.0
C917 C 0.64712 0.25895 0.62751 0.0
C918 C 0.66038 0.26287 0.73745 0.0
C919 C 0.6499 0.24431 0.75534 0.0
N920 N 0.62298 0.21929 0.73296 0.0
N921 N 0.66373 0.29095 0.66058 0.0
C922 C 0.63609 0.23452 0.71148 0.0
C923 C 0.6571 0.27131 0.67502 0.0
N924 N 0.62566 0.22958 0.60029 0.0
N925 N 0.67473 0.27159 0.77787 0.0
H926 H 0.66153 0.29781 0.61583 0.0
H927 H 0.66938 0.30128 0.69498 0.0
H928 H 0.67783 0.26594 0.8238 0.0
H929 H 0.6848 0.28346 0.76397 0.0
H930 H 0.61941 0.21488 0.60857 0.0
H931 H 0.62401 0.23476 0.55301 0.0
H932 H 0.61133 0.21263 0.70494 0.0
H933 H 0.62249 0.2147 0.78104 0.0
C934 C 0.50617 0.88758 0.38971 0.0
C935 C 0.48927 0.90015 0.36948 0.0
C936 C 0.48657 0.91524 0.47754 0.0
C937 C 0.50382 0.90305 0.49737 0.0
N938 N 0.52637 0.87376 0.47877 0.0
N939 N 0.45964 0.92132 0.39826 0.0
C940 C 0.51243 0.88793 0.45536 0.0
C941 C 0.4781 0.91227 0.41498 0.0
N942 N 0.51653 0.87571 0.34564 0.0
N943 N 0.47925 0.93078 0.51634 0.0
H944 H 0.45303 0.91989 0.35285 0.0
H945 H 0.44983 0.92856 0.43118 0.0
H946 H 0.48498 0.93364 0.56235 0.0
H947 H 0.46859 0.94195 0.50118 0.0
H948 H 0.53055 0.8682 0.3551 0.0
H949 H 0.51138 0.87402 0.29833 0.0
H950 H 0.53196 0.8612 0.45234 0.0
H951 H 0.53089 0.87345 0.52695 0.0
C952 C 0.8547 0.24992 0.30725 0.0
C953 C 0.83773 0.23704 0.2881 0.0
C954 C 0.83186 0.22824 0.40071 0.0
C955 C 0.84476 0.24489 0.42085 0.0
N956 N 0.87177 0.26932 0.39254 0.0
N957 N 0.8072 0.2176 0.3204 0.0
C958 C 0.85714 0.25518 0.37377 0.0
C959 C 0.82545 0.22727 0.33595 0.0
N960 N 0.86915 0.25603 0.26297 0.0
N961 N 0.82658 0.21262 0.44204 0.0
H962 H 0.80091 0.21784 0.27417 0.0
H963 H 0.79717 0.21162 0.3552 0.0
H964 H 0.83368 0.2109 0.48681 0.0
H965 H 0.818 0.19966 0.42754 0.0
H966 H 0.88288 0.26371 0.27487 0.0
H967 H 0.86846 0.25177 0.21471 0.0
H968 H 0.87895 0.27965 0.36101 0.0
H969 H 0.87689 0.27047 0.43997 0.0
C970 C 0.50788 0.10847 0.11408 0.0
C971 C 0.4906 0.0965 0.13471 0.0
C972 C 0.48668 0.08198 0.0263 0.0
C973 C 0.50446 0.09334 1.00628 0.0
N974 N 0.52819 0.12171 0.02458 0.0
N975 N 0.45951 0.07748 0.10553 0.0
C976 C 0.51383 0.10802 0.04823 0.0
C977 C 0.47855 0.08527 0.08906 0.0
N978 N 0.51884 0.1199 0.15795 0.0
N979 N 0.47847 0.0669 0.98743 0.0
H980 H 0.45295 0.07929 0.15085 0.0
H981 H 0.44926 0.07097 0.07234 0.0
H982 H 0.48391 0.06388 0.94121 0.0
H983 H 0.46733 0.05625 1.00281 0.0
H984 H 0.53311 0.12685 0.1482 0.0
H985 H 0.51385 0.12183 0.20531 0.0
H986 H 0.5344 0.13397 0.05105 0.0
H987 H 0.53245 0.12197 0.97622 0.0
C988 C 0.6589 0.72656 0.83972 0.0
C989 C 0.64833 0.73883 0.88618 0.0
C990 C 0.63715 0.76267 0.80079 0.0
C991 C 0.65144 0.75308 0.75811 0.0
N992 N 0.67702 0.72634 0.73778 0.0
N993 N 0.62594 0.76767 0.91114 0.0
C994 C 0.66228 0.73485 0.77718 0.0
C995 C 0.63679 0.75651 0.86648 0.0
N996 N 0.666 0.70718 0.85528 0.0
N997 N 0.62381 0.77751 0.77803 0.0
H998 H 0.62414 0.7626 0.95848 0.0
H999 H 0.61934 0.78217 0.90203 0.0
H1000 H 0.62349 0.78194 0.72978 0.0
H1001 H 0.61183 0.78397 0.80511 0.0
H1002 H 0.67208 0.69686 0.82157 0.0
H1003 H 0.66387 0.70045 0.90025 0.0
H1004 H 0.68732 0.71479 0.75259 0.0
H1005 H 0.68017 0.73189 0.69177 0.0
C1006 C 0.00808 0.91988 0.52341 0.0
C1007 C 0.99185 0.90649 0.50255 0.0
C1008 C 0.99096 0.88977 0.60872 0.0
C1009 C 0.00696 0.90332 0.62981 0.0
N1010 N 0.03406 0.92798 0.60429 0.0
N1011 N 0.97153 0.87547 0.51878 0.0
C1012 C 0.01675 0.91713 0.58586 0.0
C1013 C 0.98448 0.89037 0.54328 0.0
N1014 N 0.01415 0.93618 0.48555 0.0
N1015 N 0.9816 0.87674 0.65182 0.0
H1016 H 0.96685 0.87534 0.47073 0.0
H1017 H 0.96695 0.86226 0.54403 0.0
H1018 H 0.98685 0.8751 0.69904 0.0
H1019 H 0.96817 0.86829 0.64185 0.0
H1020 H 0.02393 0.94806 0.50121 0.0
H1021 H 0.00828 0.93878 0.43955 0.0
H1022 H 0.04318 0.93657 0.57265 0.0
H1023 H 0.0404 0.92707 0.65029 0.0
C1024 C 0.63806 0.74241 0.36382 0.0
C1025 C 0.65123 0.7586 0.3859 0.0
C1026 C 0.66679 0.76173 0.27852 0.0
C1027 C 0.65406 0.74508 0.25703 0.0
N1028 N 0.6241 0.72324 0.27277 0.0
N1029 N 0.67439 0.78713 0.36141 0.0
C1030 C 0.63852 0.73662 0.29778 0.0
C1031 C 0.66418 0.76955 0.34204 0.0
N1032 N 0.62553 0.73223 0.40656 0.0
N1033 N 0.68242 0.76902 0.24004 0.0
H1034 H 0.67357 0.79298 0.40797 0.0
H1035 H 0.68227 0.79699 0.33009 0.0
H1036 H 0.68476 0.7639 0.19308 0.0
H1037 H 0.69399 0.77914 0.2558 0.0
H1038 H 0.61744 0.71864 0.39577 0.0
H1039 H 0.62386 0.73705 0.45418 0.0
H1040 H 0.61127 0.71777 0.29814 0.0
H1041 H 0.62395 0.71903 0.22432 0.0
C1042 C 0.48147 0.41305 0.60265 0.0
C1043 C 0.49356 0.40197 0.64849 0.0
C1044 C 0.51716 0.39087 0.56248 0.0
C1045 C 0.50776 0.40555 0.52055 0.0
N1046 N 0.48168 0.43196 0.5021 0.0
N1047 N 0.52212 0.37904 0.67225 0.0
C1048 C 0.48982 0.4167 0.5404 0.0
C1049 C 0.51107 0.39029 0.62819 0.0
N1050 N 0.46222 0.42041 0.61849 0.0
N1051 N 0.53167 0.37732 0.53899 0.0
H1052 H 0.51708 0.37705 0.71953 0.0
H1053 H 0.53653 0.37231 0.66272 0.0
H1054 H 0.53604 0.37713 0.49071 0.0
H1055 H 0.5379 0.36508 0.56551 0.0
H1056 H 0.45201 0.42681 0.58495 0.0
H1057 H 0.45547 0.41831 0.66343 0.0
H1058 H 0.47038 0.44242 0.51773 0.0
H1059 H 0.48736 0.43543 0.45648 0.0
C1060 C 0.85484 0.27197 0.83133 0.0
C1061 C 0.84181 0.26116 0.78742 0.0
C1062 C 0.83636 0.23392 0.86821 0.0
C1063 C 0.84535 0.24703 0.91584 0.0
N1064 N 0.8646 0.27796 0.94257 0.0
N1065 N 0.8183 0.23262 0.76629 0.0
C1066 C 0.85518 0.26584 0.89711 0.0
C1067 C 0.83236 0.24214 0.80597 0.0
N1068 N 0.86724 0.28777 0.80965 0.0
N1069 N 0.83147 0.21372 0.8819 0.0
H1070 H 0.81439 0.23824 0.7209 0.0
H1071 H 0.80902 0.22019 0.78083 0.0
H1072 H 0.83426 0.20677 0.92615 0.0
H1073 H 0.82673 0.20312 0.84693 0.0
H1074 H 0.87837 0.29518 0.83791 0.0
H1075 H 0.86781 0.29211 0.76136 0.0
H1076 H 0.86971 0.29308 0.93397 0.0
H1077 H 0.86667 0.27299 0.98992 0.0
C1078 C 0.01808 0.58332 0.10859 0.0
C1079 C 0.00707 0.5961 0.15281 0.0
C1080 C 0.98433 0.6082 0.06562 0.0
C1081 C 0.99326 0.5931 0.02418 0.0
N1082 N 0.01749 0.56501 1.00672 0.0
N1083 N 0.97989 0.62083 0.17479 0.0
C1084 C 0.01011 0.58059 0.04532 0.0
C1085 C 0.99032 0.60871 0.13151 0.0
N1086 N 0.03588 0.57336 0.12731 0.0
N1087 N 0.9704 0.62225 0.04141 0.0
H1088 H 0.98483 0.62265 0.22226 0.0
H1089 H 0.96596 0.62841 0.16465 0.0
H1090 H 0.96591 0.62239 0.99319 0.0
H1091 H 0.96462 0.63483 0.06732 0.0
H1092 H 0.04583 0.56582 0.09547 0.0
H1093 H 0.04178 0.57394 0.17385 0.0
H1094 H 0.02782 0.5536 0.02228 0.0
H1095 H 0.01212 0.56238 0.96015 0.0
C1096 C 0.63827 0.26131 0.21722 0.0
C1097 C 0.65438 0.25345 0.25708 0.0
C1098 C 0.66489 0.22938 0.1714 0.0
C1099 C 0.65107 0.23968 0.12846 0.0
N1100 N 0.6243 0.26509 0.10927 0.0
N1101 N 0.68368 0.23058 0.27259 0.0
C1102 C 0.6375 0.25542 0.15127 0.0
C1103 C 0.66759 0.2373 0.23484 0.0
N1104 N 0.62358 0.27422 0.24302 0.0
N1105 N 0.67583 0.21236 0.1511 0.0
H1106 H 0.68605 0.23576 0.31949 0.0
H1107 H 0.69553 0.22088 0.25637 0.0
H1108 H 0.67512 0.20663 0.10435 0.0
H1109 H 0.68441 0.20285 0.18174 0.0
H1110 H 0.61038 0.2792 0.21844 0.0
H1111 H 0.62365 0.27851 0.2914 0.0
H1112 H 0.6158 0.27838 0.12047 0.0
H1113 H 0.62248 0.2602 0.06176 0.0
C1114 C 0.01061 0.41411 0.48263 0.0
C1115 C 0.99185 0.40424 0.5016 0.0
C1116 C 0.98794 0.3894 0.39358 0.0
C1117 C 0.00627 0.39992 0.37408 0.0
N1118 N 0.03888 0.41564 0.40618 0.0
N1119 N 0.96615 0.37771 0.48181 0.0
C1120 C 0.01897 0.40992 0.42073 0.0
C1121 C 0.98164 0.39029 0.45908 0.0
N1122 N 0.01966 0.42871 0.52144 0.0
N1123 N 0.97637 0.37894 0.34894 0.0
H1124 H 0.96161 0.37769 0.52996 0.0
H1125 H 0.95916 0.366 0.4548 0.0
H1126 H 0.98153 0.37662 0.30192 0.0
H1127 H 0.9615 0.37318 0.35776 0.0
H1128 H 0.03177 0.43832 0.50642 0.0
H1129 H 0.014 0.43259 0.56678 0.0
H1130 H 0.04932 0.42125 0.44036 0.0
H1131 H 0.04582 0.41271 0.36199 0.0
C1132 C 0.83567 0.76133 0.73559 0.0
C1133 C 0.84616 0.7429 0.75464 0.0
C1134 C 0.86089 0.73928 0.64646 0.0
C1135 C 0.84972 0.75721 0.62677 0.0
N1136 N 0.83259 0.78916 0.65784 0.0
N1137 N 0.87334 0.71794 0.73488 0.0
C1138 C 0.8393 0.76962 0.67321 0.0
C1139 C 0.86031 0.73305 0.71208 0.0
N1140 N 0.82105 0.77006 0.77492 0.0
N1141 N 0.87163 0.72798 0.60187 0.0
H1142 H 0.87353 0.71345 0.78309 0.0
H1143 H 0.88519 0.71123 0.70786 0.0
H1144 H 0.87365 0.73311 0.55466 0.0
H1145 H 0.87793 0.71334 0.61088 0.0
H1146 H 0.81097 0.78181 0.76011 0.0
H1147 H 0.81773 0.7645 0.82081 0.0
H1148 H 0.82666 0.79954 0.69162 0.0
H1149 H 0.83492 0.79594 0.61304 0.0
C1150 C 0.49072 0.57817 0.97511 0.0
C1151 C 0.50643 0.59196 0.99701 0.0
C1152 C 0.50832 0.60807 0.8901 0.0
C1153 C 0.49265 0.59426 0.86819 0.0
N1154 N 0.46572 0.56924 0.89239 0.0
N1155 N 0.52686 0.62293 0.98107 0.0
C1156 C 0.48266 0.58047 0.91179 0.0
C1157 C 0.51419 0.60785 0.95615 0.0
N1158 N 0.48454 0.56191 0.01307 0.0
N1159 N 0.5179 0.62105 0.84731 0.0
H1160 H 0.53118 0.62326 0.02942 0.0
H1161 H 0.53161 0.63603 0.95564 0.0
H1162 H 0.51305 0.62246 0.79962 0.0
H1163 H 0.53113 0.62972 0.85806 0.0
H1164 H 0.47522 0.54974 0.99689 0.0
H1165 H 0.48998 0.55962 0.05975 0.0
H1166 H 0.45638 0.56074 0.9237 0.0
H1167 H 0.45986 0.56971 0.84578 0.0
C1168 C 0.33719 0.23496 0.6484 0.0
C1169 C 0.33372 0.24852 0.5951 0.0
C1170 C 0.32478 0.2763 0.67063 0.0
C1171 C 0.33095 0.26373 0.72369 0.0
N1172 N 0.34959 0.2329 0.75791 0.0
N1173 N 0.33132 0.28419 0.5591 0.0
C1174 C 0.33923 0.24361 0.71113 0.0
C1175 C 0.3299 0.26988 0.60741 0.0
N1176 N 0.33718 0.21385 0.64104 0.0
N1177 N 0.31278 0.29362 0.67931 0.0
H1178 H 0.33636 0.2803 0.51299 0.0
H1179 H 0.33004 0.30015 0.5673 0.0
H1180 H 0.30636 0.29774 0.72346 0.0
H1181 H 0.30682 0.30219 0.64092 0.0
H1182 H 0.33776 0.20369 0.68008 0.0
H1183 H 0.33411 0.20635 0.5978 0.0
H1184 H 0.35723 0.21889 0.74884 0.0
H1185 H 0.35281 0.23916 0.80304 0.0
C1186 C 0.51216 0.58497 0.47722 0.0
C1187 C 0.49338 0.59494 0.49553 0.0
C1188 C 0.48962 0.60926 0.38679 0.0
C1189 C 0.50806 0.59877 0.36811 0.0
N1190 N 0.54053 0.58304 0.40122 0.0
N1191 N 0.46765 0.6213 0.47411 0.0
C1192 C 0.52064 0.58891 0.41532 0.0
C1193 C 0.4832 0.60865 0.45222 0.0
N1194 N 0.5211 0.57047 0.51664 0.0
N1195 N 0.47806 0.61944 0.34149 0.0
H1196 H 0.46301 0.62154 0.52217 0.0
H1197 H 0.4607 0.63287 0.44645 0.0
H1198 H 0.48326 0.62155 0.29442 0.0
H1199 H 0.46315 0.62513 0.34982 0.0
H1200 H 0.53322 0.56079 0.50212 0.0
H1201 H 0.51532 0.56671 0.56194 0.0
H1202 H 0.55092 0.57758 0.43578 0.0
H1203 H 0.54748 0.58562 0.35683 0.0
C1204 C 0.16879 0.75825 0.23311 0.0
C1205 C 0.15647 0.74117 0.25353 0.0
C1206 C 0.14121 0.73818 0.14566 0.0
C1207 C 0.15379 0.75501 0.12488 0.0
N1208 N 0.17613 0.78405 0.15122 0.0
N1209 N 0.12762 0.71802 0.23513 0.0
C1210 C 0.16627 0.76617 0.16965 0.0
C1211 C 0.14159 0.73214 0.2115 0.0
N1212 N 0.18398 0.76593 0.27265 0.0
N1213 N 0.12931 0.72768 0.10189 0.0
H1214 H 0.1274 0.71352 0.28333 0.0
H1215 H 0.1152 0.7121 0.20878 0.0
H1216 H 0.12761 0.73262 0.05439 0.0
H1217 H 0.12178 0.71369 0.11167 0.0
H1218 H 0.1953 0.77646 0.25785 0.0
H1219 H 0.18632 0.76068 0.31951 0.0
H1220 H 0.18351 0.79409 0.18323 0.0
H1221 H 0.17564 0.78989 0.1046 0.0
C1222 C 0.00669 0.39177 0.89418 0.0
C1223 C 0.98936 0.40374 0.87376 0.0
C1224 C 0.98588 0.41851 0.98208 0.0
C1225 C 0.00344 0.40682 1.00219 0.0
N1226 N 0.02724 0.37854 0.98336 0.0
N1227 N 0.95902 0.42398 0.90224 0.0
C1228 C 0.01279 0.39221 0.95998 0.0
C1229 C 0.97771 0.41544 0.9192 0.0
N1230 N 0.01755 0.38032 0.85018 0.0
N1231 N 0.97793 0.43368 0.02111 0.0
H1232 H 0.95257 0.42257 0.85662 0.0
H1233 H 0.94888 0.43077 0.93513 0.0
H1234 H 0.98345 0.4366 0.06735 0.0
H1235 H 0.96697 0.44456 1.00597 0.0
H1236 H 0.03184 0.37336 0.85972 0.0
H1237 H 0.01252 0.37842 0.80283 0.0
H1238 H 0.03341 0.3663 0.95675 0.0
H1239 H 0.03172 0.37828 0.03158 0.0
C1240 C 0.36143 0.73974 0.87813 0.0
C1241 C 0.35067 0.75803 0.8968 0.0
C1242 C 0.33641 0.76163 0.78803 0.0
C1243 C 0.34657 0.74292 0.76986 0.0
N1244 N 0.37333 0.71759 0.79096 0.0
N1245 N 0.33436 0.7902 0.86336 0.0
C1246 C 0.3606 0.73308 0.81291 0.0
C1247 C 0.34046 0.77034 0.84961 0.0
N1248 N 0.37205 0.72853 0.9233 0.0
N1249 N 0.32169 0.77027 0.74877 0.0
H1250 H 0.33711 0.79738 0.90733 0.0
H1251 H 0.3286 0.8004 0.82875 0.0
H1252 H 0.3179 0.76434 0.70366 0.0
H1253 H 0.31189 0.7823 0.76324 0.0
H1254 H 0.37799 0.7137 0.9152 0.0
H1255 H 0.37432 0.73397 0.97007 0.0
H1256 H 0.38511 0.71087 0.81831 0.0
H1257 H 0.37337 0.71276 0.74306 0.0
C1258 C 0.00935 0.6104 0.63315 0.0
C1259 C 0.99141 0.59921 0.65268 0.0
C1260 C 0.98748 0.58498 0.54403 0.0
C1261 C 0.00582 0.59559 0.52499 0.0
N1262 N 0.03075 0.62282 0.54495 0.0
N1263 N 0.95955 0.5819 0.62124 0.0
C1264 C 0.01564 0.60978 0.56761 0.0
C1265 C 0.97909 0.58867 0.60619 0.0
N1266 N 0.02058 0.62122 0.67781 0.0
N1267 N 0.97892 0.57014 0.50497 0.0
H1268 H 0.95271 0.58413 0.66597 0.0
H1269 H 0.94925 0.57594 0.58724 0.0
H1270 H 0.98461 0.56666 0.45935 0.0
H1271 H 0.96725 0.56 0.51992 0.0
H1272 H 0.03522 0.62751 0.66896 0.0
H1273 H 0.0154 0.62331 0.7249 0.0
H1274 H 0.0374 0.63471 0.57201 0.0
H1275 H 0.03533 0.62297 0.49684 0.0
C1276 C 0.18478 0.24962 0.31144 0.0
C1277 C 0.16953 0.26406 0.29021 0.0
C1278 C 0.15369 0.26411 0.39794 0.0
C1279 C 0.1686 0.24932 0.41842 0.0
N1280 N 0.19548 0.22457 0.39218 0.0
N1281 N 0.13688 0.28158 0.30832 0.0
C1282 C 0.18317 0.24092 0.37417 0.0
C1283 C 0.15318 0.27027 0.3321 0.0
N1284 N 0.20156 0.24522 0.27342 0.0
N1285 N 0.1404 0.27267 0.4418 0.0
H1286 H 0.13581 0.28596 0.26014 0.0
H1287 H 0.12355 0.28501 0.3346 0.0
H1288 H 0.1399 0.26788 0.4897 0.0
H1289 H 0.13076 0.28529 0.43184 0.0
H1290 H 0.21443 0.23682 0.28923 0.0
H1291 H 0.20352 0.25136 0.22746 0.0
H1292 H 0.2048 0.21628 0.36028 0.0
H1293 H 0.19505 0.21807 0.43809 0.0
C1294 C 0.52136 0.41661 0.1038 0.0
C1295 C 0.50973 0.40491 0.14927 0.0
C1296 C 0.48635 0.39319 0.06322 0.0
C1297 C 0.49586 0.40758 0.02062 0.0
N1298 N 0.52129 0.43449 1.00129 0.0
N1299 N 0.48133 0.3818 0.1734 0.0
C1300 C 0.51332 0.41943 0.04069 0.0
C1301 C 0.49234 0.39298 0.12911 0.0
N1302 N 0.5399 0.42542 0.12104 0.0
N1303 N 0.47191 0.37946 0.04012 0.0
H1304 H 0.48621 0.38013 0.22099 0.0
H1305 H 0.46701 0.37489 0.16387 0.0
H1306 H 0.4675 0.37902 0.99185 0.0
H1307 H 0.46565 0.36735 0.06711 0.0
H1308 H 0.55011 0.43215 0.08823 0.0
H1309 H 0.54612 0.4244 0.16709 0.0
H1310 H 0.53219 0.44546 0.01623 0.0
H1311 H 0.51582 0.43726 0.9549 0.0
C1312 C 0.1175 0.35766 0.08552 0.0
C1313 C 0.12555 0.34916 0.14332 0.0
C1314 C 0.10191 0.37109 0.20614 0.0
C1315 C 0.09289 0.37851 0.14828 0.0
N1316 N 0.08823 0.37437 0.03374 0.0
N1317 N 0.12148 0.34353 0.25739 0.0
C1318 C 0.09951 0.37044 0.08814 0.0
C1319 C 0.11656 0.35458 0.20334 0.0
N1320 N 0.12754 0.35447 0.02848 0.0
N1321 N 0.09735 0.38041 0.26348 0.0
H1322 H 0.13156 0.33081 0.2569 0.0
H1323 H 0.11385 0.34553 0.30112 0.0
H1324 H 0.08715 0.39294 0.26769 0.0
H1325 H 0.10522 0.377 0.306 0.0
H1326 H 0.12353 0.36221 0.98624 0.0
H1327 H 0.1411 0.34568 0.02439 0.0
H1328 H 0.09125 0.36719 0.98984 0.0
H1329 H 0.07449 0.38301 0.03394 0.0
C1330 C 0.86263 0.86612 0.39024 0.0
C1331 C 0.86876 0.84492 0.389 0.0
C1332 C 0.90526 0.85559 0.38145 0.0
C1333 C 0.89889 0.87663 0.37455 0.0
N1334 N 0.87105 0.90133 0.35852 0.0
N1335 N 0.8957 0.8195 0.36828 0.0
C1336 C 0.87742 0.88175 0.37502 0.0
C1337 C 0.89003 0.83961 0.38043 0.0
N1338 N 0.8429 0.87144 0.40837 0.0
N1339 N 0.92571 0.85082 0.39197 0.0
H1340 H 0.88506 0.80732 0.36468 0.0
H1341 H 0.91076 0.81528 0.35507 0.0
H1342 H 0.93738 0.86202 0.39546 0.0
H1343 H 0.93074 0.8359 0.40397 0.0
H1344 H 0.83827 0.88677 0.41611 0.0
H1345 H 0.83181 0.8605 0.4224 0.0
H1346 H 0.85547 0.90527 0.35202 0.0
H1347 H 0.88134 0.91303 0.34455 0.0
C1348 C 0.38097 0.64639 0.69102 0.0
C1349 C 0.37244 0.65246 0.63082 0.0
C1350 C 0.39724 0.62967 0.57604 0.0
C1351 C 0.40349 0.62132 0.63631 0.0
N1352 N 0.39832 0.61925 0.75114 0.0
N1353 N 0.36998 0.64693 0.51621 0.0
C1354 C 0.39458 0.62901 0.69392 0.0
C1355 C 0.37991 0.64333 0.57325 0.0
N1356 N 0.37683 0.65771 0.74514 0.0
N1357 N 0.40836 0.6253 0.52171 0.0
H1358 H 0.35681 0.65631 0.51219 0.0
H1359 H 0.37356 0.63893 0.47408 0.0
H1360 H 0.42173 0.61612 0.52188 0.0
H1361 H 0.40566 0.63266 0.47785 0.0
H1362 H 0.38432 0.65513 0.78886 0.0
H1363 H 0.36771 0.67113 0.74484 0.0
H1364 H 0.39047 0.623 0.79337 0.0
H1365 H 0.40765 0.60605 0.75527 0.0
C1366 C 0.6328 0.12949 0.88529 0.0
C1367 C 0.62687 0.15076 0.8856 0.0
C1368 C 0.59021 0.14049 0.88022 0.0
C1369 C 0.59628 0.11941 0.87191 0.0
N1370 N 0.62371 0.0945 0.85286 0.0
N1371 N 0.60003 0.17655 0.86819 0.0
C1372 C 0.6177 0.11407 0.8706 0.0
C1373 C 0.6056 0.15632 0.87888 0.0
N1374 N 0.65264 0.12391 0.90142 0.0
N1375 N 0.56991 0.14544 0.8924 0.0
H1376 H 0.61076 0.18865 0.86463 0.0
H1377 H 0.58493 0.18099 0.85617 0.0
H1378 H 0.55813 0.13438 0.89601 0.0
H1379 H 0.56516 0.16035 0.90559 0.0
H1380 H 0.65721 0.1085 0.90808 0.0
H1381 H 0.66398 0.13468 0.91485 0.0
H1382 H 0.63919 0.09041 0.84503 0.0
H1383 H 0.61318 0.08297 0.83926 0.0
C1384 C 0.10249 0.62954 0.44767 0.0
C1385 C 0.09672 0.62114 0.38703 0.0
C1386 C 0.12027 0.64561 0.33388 0.0
C1387 C 0.12822 0.65176 0.39475 0.0
N1388 N 0.1293 0.6467 0.50974 0.0
N1389 N 0.10291 0.61869 0.27279 0.0
C1390 C 0.11998 0.64297 0.45181 0.0
C1391 C 0.10634 0.6285 0.33011 0.0
N1392 N 0.09075 0.62547 0.50098 0.0
N1393 N 0.12525 0.65666 0.27988 0.0
H1394 H 0.09328 0.60572 0.2681 0.0
H1395 H 0.11124 0.62214 0.2312 0.0
H1396 H 0.13467 0.66987 0.28071 0.0
H1397 H 0.11822 0.65407 0.23544 0.0
H1398 H 0.0931 0.63289 0.54492 0.0
H1399 H 0.07727 0.61645 0.49975 0.0
H1400 H 0.12516 0.63893 0.55178 0.0
H1401 H 0.14251 0.65598 0.51481 0.0
C1402 C 0.63331 0.86719 0.62227 0.0
C1403 C 0.62762 0.84586 0.62304 0.0
C1404 C 0.59082 0.85573 0.62617 0.0
C1405 C 0.59664 0.87692 0.63344 0.0
N1406 N 0.62369 0.9023 0.65189 0.0
N1407 N 0.601 0.81985 0.64061 0.0
C1408 C 0.61798 0.88253 0.63528 0.0
C1409 C 0.60638 0.84009 0.62908 0.0
N1410 N 0.65315 0.8729 0.60667 0.0
N1411 N 0.57061 0.85049 0.61351 0.0
H1412 H 0.61185 0.8079 0.64532 0.0
H1413 H 0.5859 0.8153 0.65215 0.0
H1414 H 0.55874 0.86142 0.60873 0.0
H1415 H 0.56605 0.83546 0.60111 0.0
H1416 H 0.65757 0.88831 0.59923 0.0
H1417 H 0.66466 0.86218 0.59442 0.0
H1418 H 0.63909 0.90663 0.66015 0.0
H1419 H 0.61297 0.91381 0.6641 0.0
C1420 C 0.40171 0.36937 0.93807 0.0
C1421 C 0.40811 0.37668 0.87674 0.0
C1422 C 0.38508 0.35135 0.82529 0.0
C1423 C 0.37635 0.34647 0.88613 0.0
N1424 N 0.37437 0.35313 1.0002 0.0
N1425 N 0.40353 0.37681 0.76148 0.0
C1426 C 0.38418 0.356 0.94264 0.0
C1427 C 0.39925 0.36819 0.82007 0.0
N1428 N 0.4128 0.3746 0.9918 0.0
N1429 N 0.38039 0.33945 0.77277 0.0
H1430 H 0.41341 0.38952 0.75548 0.0
H1431 H 0.39572 0.37261 0.71953 0.0
H1432 H 0.37065 0.32648 0.77502 0.0
H1433 H 0.38789 0.34106 0.72868 0.0
H1434 H 0.41006 0.36802 0.03676 0.0
H1435 H 0.42614 0.38382 0.99034 0.0
H1436 H 0.37811 0.36154 0.04143 0.0
H1437 H 0.36124 0.34377 1.00559 0.0
C1438 C 0.87639 0.14487 0.05534 0.0
C1439 C 0.86864 0.15366 0.11301 0.0
C1440 C 0.88912 0.1288 0.17617 0.0
C1441 C 0.89826 0.12124 0.11877 0.0
N1442 N 0.90418 0.12551 1.00478 0.0
N1443 N 0.87168 0.15754 0.2282 0.0
C1444 C 0.89293 0.13025 0.05855 0.0
C1445 C 0.87617 0.14666 0.17347 0.0
N1446 N 0.86745 0.1498 0.99768 0.0
N1447 N 0.89198 0.11844 0.23289 0.0
H1448 H 0.86291 0.1712 0.2282 0.0
H1449 H 0.8785 0.15429 0.27252 0.0
H1450 H 0.90084 0.10492 0.2368 0.0
H1451 H 0.88386 0.12208 0.27472 0.0
H1452 H 0.87102 0.14212 0.95499 0.0
H1453 H 0.85507 0.16018 0.9933 0.0
H1454 H 0.90234 0.13328 0.96119 0.0
H1455 H 0.91681 0.11535 1.00518 0.0
C1456 C 0.88118 0.64763 0.82862 0.0
C1457 C 0.87251 0.65273 0.88943 0.0
C1458 C 0.89766 0.62968 0.94173 0.0
C1459 C 0.90415 0.62233 0.88053 0.0
N1460 N 0.89936 0.62183 0.76538 0.0
N1461 N 0.87016 0.64584 1.00332 0.0
C1462 C 0.8952 0.63064 0.82376 0.0
C1463 C 0.88013 0.64304 0.94597 0.0
N1464 N 0.87675 0.65952 0.77587 0.0
N1465 N 0.90875 0.62463 0.99564 0.0
H1466 H 0.85691 0.65505 0.0083 0.0
H1467 H 0.87383 0.6374 0.04456 0.0
H1468 H 0.92221 0.61557 0.99446 0.0
H1469 H 0.90589 0.63126 0.04046 0.0
H1470 H 0.88432 0.65773 0.73196 0.0
H1471 H 0.86722 0.67263 0.77762 0.0
H1472 H 0.8915 0.62595 0.72343 0.0
H1473 H 0.90912 0.60901 0.75972 0.0
C1474 C 0.11467 0.14391 0.56915 0.0
C1475 C 0.12236 0.15311 0.62637 0.0
C1476 C 0.0999 0.13041 0.69074 0.0
C1477 C 0.09119 0.12223 0.63343 0.0
N1478 N 0.08625 0.12538 0.51871 0.0
N1479 N 0.11816 0.15917 0.7402 0.0
C1480 C 0.09736 0.13024 0.57273 0.0
C1481 C 0.11371 0.14759 0.68681 0.0
N1482 N 0.12444 0.14734 0.51181 0.0
N1483 N 0.09588 0.1212 0.74863 0.0
H1484 H 0.12759 0.17237 0.7389 0.0
H1485 H 0.1107 0.15703 0.78415 0.0
H1486 H 0.08629 0.10822 0.75368 0.0
H1487 H 0.10364 0.12522 0.79084 0.0
H1488 H 0.12079 0.13918 0.47 0.0
H1489 H 0.13747 0.15686 0.50707 0.0
H1490 H 0.08887 0.13241 0.47432 0.0
H1491 H 0.07298 0.11605 0.5196 0.0
C1492 C 0.62038 0.38405 0.37891 0.0
C1493 C 0.59893 0.37883 0.38032 0.0
C1494 C 0.60803 0.34182 0.38335 0.0
C1495 C 0.62934 0.34719 0.39042 0.0
N1496 N 0.65529 0.37375 0.40844 0.0
N1497 N 0.57243 0.35275 0.39863 0.0
C1498 C 0.6354 0.36842 0.39196 0.0
C1499 C 0.59274 0.35771 0.38656 0.0
N1500 N 0.62648 0.40374 0.36272 0.0
N1501 N 0.60236 0.32174 0.37064 0.0
H1502 H 0.56074 0.36384 0.40372 0.0
H1503 H 0.56761 0.33773 0.41025 0.0
H1504 H 0.61304 0.30966 0.36541 0.0
H1505 H 0.5872 0.3175 0.35853 0.0
H1506 H 0.64197 0.40779 0.3549 0.0
H1507 H 0.61599 0.41544 0.3503 0.0
H1508 H 0.65993 0.38907 0.41643 0.0
H1509 H 0.66658 0.36282 0.42086 0.0
C1510 C 0.37885 0.85365 0.07267 0.0
C1511 C 0.37063 0.84488 0.1298 0.0
C1512 C 0.39215 0.86853 0.19427 0.0
C1513 C 0.40174 0.8759 0.13731 0.0
N1514 N 0.40794 0.8714 0.02356 0.0
N1515 N 0.3734 0.84033 0.24486 0.0
C1516 C 0.39617 0.86729 0.07678 0.0
C1517 C 0.3784 0.85127 0.19067 0.0
N1518 N 0.36965 0.84971 0.01468 0.0
N1519 N 0.39544 0.87848 0.25144 0.0
H1520 H 0.36407 0.82706 0.2442 0.0
H1521 H 0.38033 0.84308 0.28935 0.0
H1522 H 0.40497 0.89152 0.256 0.0
H1523 H 0.3871 0.87504 0.29303 0.0
H1524 H 0.37376 0.85745 0.97257 0.0
H1525 H 0.35654 0.84031 0.00959 0.0
H1526 H 0.40575 0.86386 0.97974 0.0
H1527 H 0.4213 0.8806 0.02482 0.0
C1528 C 0.89179 0.37245 0.69944 0.0
C1529 C 0.90133 0.37929 0.64178 0.0
C1530 C 0.87805 0.35682 0.57921 0.0
C1531 C 0.86989 0.34856 0.63714 0.0
N1532 N 0.87289 0.34485 0.75245 0.0
N1533 N 0.90709 0.37406 0.52811 0.0
C1534 C 0.87787 0.35532 0.69736 0.0
C1535 C 0.89549 0.37035 0.58195 0.0
N1536 N 0.89527 0.38282 0.75581 0.0
N1537 N 0.86866 0.35253 0.52175 0.0
H1538 H 0.92047 0.38323 0.52834 0.0
H1539 H 0.90472 0.36624 0.48483 0.0
H1540 H 0.85547 0.34317 0.51768 0.0
H1541 H 0.87272 0.35991 0.47898 0.0
H1542 H 0.88698 0.37977 0.79778 0.0
H1543 H 0.90491 0.39582 0.75925 0.0
H1544 H 0.87998 0.34784 0.79655 0.0
H1545 H 0.86338 0.33172 0.75303 0.0
C1546 C 0.38045 0.14161 0.42606 0.0
C1547 C 0.37247 0.15046 0.36868 0.0
C1548 C 0.39609 0.12883 0.30483 0.0
C1549 C 0.4051 0.12109 0.36233 0.0
N1550 N 0.4096 0.1245 0.47718 0.0
N1551 N 0.37655 0.15666 0.2549 0.0
C1552 C 0.39841 0.12879 0.42288 0.0
C1553 C 0.38146 0.14533 0.30842 0.0
N1554 N 0.37038 0.14452 0.48318 0.0
N1555 N 0.40066 0.11981 0.24704 0.0
H1556 H 0.36646 0.16937 0.25598 0.0
H1557 H 0.38419 0.15489 0.2111 0.0
H1558 H 0.41084 0.10728 0.24225 0.0
H1559 H 0.39281 0.12345 0.20467 0.0
H1560 H 0.37432 0.13653 0.52504 0.0
H1561 H 0.35687 0.15336 0.48764 0.0
H1562 H 0.40657 0.13144 0.52145 0.0
H1563 H 0.42328 0.11578 0.4767 0.0
C1564 C 0.63401 0.63121 0.12541 0.0
C1565 C 0.62841 0.65256 0.12378 0.0
C1566 C 0.59159 0.6428 0.12735 0.0
C1567 C 0.59732 0.62172 0.13763 0.0
N1568 N 0.62437 0.5967 0.16074 0.0
N1569 N 0.6018 0.67875 0.13912 0.0
C1570 C 0.61866 0.61613 0.14071 0.0
C1571 C 0.60717 0.65843 0.12915 0.0
N1572 N 0.65376 0.62519 0.10993 0.0
N1573 N 0.57149 0.64793 0.11287 0.0
H1574 H 0.61266 0.69069 0.14376 0.0
H1575 H 0.58665 0.68338 0.1498 0.0
H1576 H 0.55965 0.63696 0.10816 0.0
H1577 H 0.56707 0.66284 0.09864 0.0
H1578 H 0.65806 0.60965 0.10447 0.0
H1579 H 0.66525 0.63566 0.09558 0.0
H1580 H 0.63977 0.59254 0.16967 0.0
H1581 H 0.61365 0.58546 0.17525 0.0
C1582 C 0.11935 0.88176 0.87124 0.0
C1583 C 0.09796 0.87633 0.87246 0.0
C1584 C 0.10739 0.83945 0.87939 0.0
C1585 C 0.12867 0.84509 0.8858 0.0
N1586 N 0.15433 0.87203 0.90188 0.0
N1587 N 0.07166 0.85025 0.89304 0.0
C1588 C 0.1345 0.86638 0.88572 0.0
C1589 C 0.09195 0.85524 0.88081 0.0
N1590 N 0.12528 0.90138 0.85379 0.0
N1591 N 0.10188 0.81919 0.86887 0.0
H1592 H 0.05988 0.86131 0.89681 0.0
H1593 H 0.06693 0.83533 0.90613 0.0
H1594 H 0.11264 0.80713 0.86529 0.0
H1595 H 0.08678 0.81469 0.85708 0.0
H1596 H 0.14074 0.90555 0.84595 0.0
H1597 H 0.1147 0.91291 0.84051 0.0
H1598 H 0.15884 0.88745 0.9087 0.0
H1599 H 0.1657 0.86129 0.91523 0.0
loop_
_geom_bond_atom_site_label_1
_geom_bond_atom_site_label_2
_geom_bond_distance
_geom_bond_site_symmetry_2
_ccdc_geom_bond_type
O0 Cd1 2.223 . S
O0 C8 1.315 . S
Cd1 O0 2.223 . S
Cd1 O4 2.297 . S
Cd1 O5 2.439 . S
Cd1 O11 2.240 . S
Cd2 O3 2.247 . S
Cd2 O10 2.225 . S
Cd2 O12 2.289 1_554 S
Cd2 O13 2.432 1_554 S
O3 Cd2 2.247 . S
O3 C8 1.279 . S
O4 Cd1 2.297 . S
O4 C6 1.247 . S
O5 Cd1 2.439 . S
O5 C6 1.208 . S
C6 O4 1.247 . S
C6 O5 1.208 . S
C7 O12 1.247 . S
C7 O13 1.208 . S
C8 O0 1.315 . S
C8 O3 1.279 . S
C9 O10 1.315 . S
C9 O11 1.279 . S
O10 Cd2 2.225 . S
O10 C9 1.315 . S
O11 Cd1 2.240 . S
O11 C9 1.279 . S
O12 Cd2 2.289 1_556 S
O12 C7 1.247 . S
O13 Cd2 2.432 1_556 S
O13 C7 1.208 . S
O14 Cd15 2.223 . S
O14 C22 1.315 . S
Cd15 O14 2.223 . S
Cd15 O18 2.297 . S
Cd15 O19 2.439 . S
Cd15 O25 2.240 . S
Cd16 O17 2.240 . S
Cd16 O24 2.223 . S
Cd16 O26 2.297 1_655 S
Cd16 O27 2.439 . S
O17 Cd16 2.240 . S
O17 C22 1.279 . S
O18 Cd15 2.297 . S
O18 C20 1.247 . S
O19 Cd15 2.439 . S
O19 C20 1.208 . S
C20 O18 1.247 . S
C20 O19 1.208 . S
C21 O26 1.247 1_655 S
C21 O27 1.208 . S
C22 O14 1.315 . S
C22 O17 1.279 . S
C23 O24 1.315 . S
C23 O25 1.279 . S
O24 Cd16 2.223 . S
O24 C23 1.315 . S
O25 Cd15 2.240 . S
O25 C23 1.279 . S
O26 Cd16 2.297 1_455 S
O26 C21 1.247 1_455 S
O27 Cd16 2.439 . S
O27 C21 1.208 . S
O28 Cd29 2.223 . S
O28 C36 1.315 . S
Cd29 O28 2.223 . S
Cd29 O32 2.297 . S
Cd29 O33 2.439 . S
Cd29 O39 2.240 . S
Cd30 O31 2.240 . S
Cd30 O38 2.223 . S
Cd30 O40 2.297 . S
Cd30 O41 2.439 . S
O31 Cd30 2.240 . S
O31 C36 1.279 . S
O32 Cd29 2.297 . S
O32 C34 1.247 . S
O33 Cd29 2.439 . S
O33 C34 1.208 . S
C34 O32 1.247 . S
C34 O33 1.208 . S
C35 O40 1.247 . S
C35 O41 1.208 . S
C36 O28 1.315 . S
C36 O31 1.279 . S
C37 O38 1.315 . S
C37 O39 1.279 . S
O38 Cd30 2.223 . S
O38 C37 1.315 . S
O39 Cd29 2.240 . S
O39 C37 1.279 . S
O40 Cd30 2.297 . S
O40 C35 1.247 . S
O41 Cd30 2.439 . S
O41 C35 1.208 . S
O42 Cd43 2.223 . S
O42 C50 1.315 . S
Cd43 O42 2.223 . S
Cd43 O46 2.297 . S
Cd43 O47 2.439 . S
Cd43 O53 2.240 . S
Cd44 O45 2.240 . S
Cd44 O52 2.223 . S
Cd44 O54 2.297 . S
Cd44 O55 2.439 . S
O45 Cd44 2.240 . S
O45 C50 1.279 . S
O46 Cd43 2.297 . S
O46 C48 1.247 . S
O47 Cd43 2.439 . S
O47 C48 1.208 . S
C48 O46 1.247 . S
C48 O47 1.208 . S
C49 O54 1.247 . S
C49 O55 1.208 . S
C50 O42 1.315 . S
C50 O45 1.279 . S
C51 O52 1.315 . S
C51 O53 1.279 . S
O52 Cd44 2.223 . S
O52 C51 1.315 . S
O53 Cd43 2.240 . S
O53 C51 1.279 . S
O54 Cd44 2.297 . S
O54 C49 1.247 . S
O55 Cd44 2.439 . S
O55 C49 1.208 . S
O56 Cd57 2.223 . S
O56 C64 1.315 . S
Cd57 O56 2.223 . S
Cd57 O60 2.297 . S
Cd57 O61 2.439 . S
Cd57 O67 2.240 . S
Cd58 O59 2.240 . S
Cd58 O66 2.223 . S
Cd58 O68 2.297 . S
Cd58 O69 2.439 . S
O59 Cd58 2.240 . S
O59 C64 1.279 . S
O60 Cd57 2.297 . S
O60 C62 1.247 . S
O61 Cd57 2.439 . S
O61 C62 1.208 . S
C62 O60 1.247 . S
C62 O61 1.208 . S
C63 O68 1.247 . S
C63 O69 1.208 . S
C64 O56 1.315 . S
C64 O59 1.279 . S
C65 O66 1.315 . S
C65 O67 1.279 . S
O66 Cd58 2.223 . S
O66 C65 1.315 . S
O67 Cd57 2.240 . S
O67 C65 1.279 . S
O68 Cd58 2.297 . S
O68 C63 1.247 . S
O69 Cd58 2.439 . S
O69 C63 1.208 . S
O70 Cd71 2.223 . S
O70 C78 1.315 . S
Cd71 O70 2.223 . S
Cd71 O74 2.297 . S
Cd71 O75 2.439 . S
Cd71 O81 2.240 . S
Cd72 O73 2.240 . S
Cd72 O80 2.223 . S
Cd72 O82 2.297 . S
Cd72 O83 2.439 . S
O73 Cd72 2.240 . S
O73 C78 1.279 . S
O74 Cd71 2.297 . S
O74 C76 1.247 . S
O75 Cd71 2.439 . S
O75 C76 1.208 . S
C76 O74 1.247 . S
C76 O75 1.208 . S
C77 O82 1.247 . S
C77 O83 1.208 . S
C78 O70 1.315 . S
C78 O73 1.279 . S
C79 O80 1.315 . S
C79 O81 1.279 . S
O80 Cd72 2.223 . S
O80 C79 1.315 . S
O81 Cd71 2.240 . S
O81 C79 1.279 . S
O82 Cd72 2.297 . S
O82 C77 1.247 . S
O83 Cd72 2.439 . S
O83 C77 1.208 . S
O84 Cd85 2.223 . S
O84 C92 1.315 . S
Cd85 O84 2.223 . S
Cd85 O88 2.297 . S
Cd85 O89 2.439 . S
Cd85 O95 2.240 . S
Cd86 O87 2.249 . S
Cd86 O94 2.225 . S
Cd86 O96 2.287 1_556 S
Cd86 O97 2.431 1_556 S
O87 Cd86 2.249 . S
O87 C92 1.279 . S
O88 Cd85 2.297 . S
O88 C90 1.247 . S
O89 Cd85 2.439 . S
O89 C90 1.208 . S
C90 O88 1.247 . S
C90 O89 1.208 . S
C91 O96 1.247 . S
C91 O97 1.208 . S
C92 O84 1.315 . S
C92 O87 1.279 . S
C93 O94 1.315 . S
C93 O95 1.279 . S
O94 Cd86 2.225 . S
O94 C93 1.315 . S
O95 Cd85 2.240 . S
O95 C93 1.279 . S
O96 Cd86 2.287 1_554 S
O96 C91 1.247 . S
O97 Cd86 2.431 1_554 S
O97 C91 1.208 . S
O98 Cd99 2.223 . S
O98 C106 1.315 . S
Cd99 O98 2.223 . S
Cd99 O102 2.297 . S
Cd99 O103 2.439 . S
Cd99 O109 2.240 . S
Cd100 O101 2.240 . S
Cd100 O108 2.223 . S
Cd100 O110 2.297 1_655 S
Cd100 O111 2.439 . S
O101 Cd100 2.240 . S
O101 C106 1.279 . S
O102 Cd99 2.297 . S
O102 C104 1.247 . S
O103 Cd99 2.439 . S
O103 C104 1.208 . S
C104 O102 1.247 . S
C104 O103 1.208 . S
C105 O110 1.247 1_655 S
C105 O111 1.208 . S
C106 O98 1.315 . S
C106 O101 1.279 . S
C107 O108 1.315 . S
C107 O109 1.279 . S
O108 Cd100 2.223 . S
O108 C107 1.315 . S
O109 Cd99 2.240 . S
O109 C107 1.279 . S
O110 Cd100 2.297 1_455 S
O110 C105 1.247 1_455 S
O111 Cd100 2.439 . S
O111 C105 1.208 . S
O112 Cd113 2.223 . S
O112 C120 1.315 . S
Cd113 O112 2.223 . S
Cd113 O116 2.297 . S
Cd113 O117 2.439 . S
Cd113 O123 2.240 . S
Cd114 O115 2.247 . S
Cd114 O122 2.225 . S
Cd114 O124 2.289 1_556 S
Cd114 O125 2.432 1_556 S
O115 Cd114 2.247 . S
O115 C120 1.279 . S
O116 Cd113 2.297 . S
O116 C118 1.247 . S
O117 Cd113 2.439 . S
O117 C118 1.208 . S
C118 O116 1.247 . S
C118 O117 1.208 . S
C119 O124 1.247 . S
C119 O125 1.208 . S
C120 O112 1.315 . S
C120 O115 1.279 . S
C121 O122 1.315 . S
C121 O123 1.279 . S
O122 Cd114 2.225 . S
O122 C121 1.315 . S
O123 Cd113 2.240 . S
O123 C121 1.279 . S
O124 Cd114 2.289 1_554 S
O124 C119 1.247 . S
O125 Cd114 2.432 1_554 S
O125 C119 1.208 . S
O126 Cd127 2.223 . S
O126 C134 1.315 . S
Cd127 O126 2.223 . S
Cd127 O130 2.297 . S
Cd127 O131 2.439 . S
Cd127 O137 2.240 . S
Cd128 O129 2.240 . S
Cd128 O136 2.223 . S
Cd128 O138 2.297 1_455 S
Cd128 O139 2.439 . S
O129 Cd128 2.240 . S
O129 C134 1.279 . S
O130 Cd127 2.297 . S
O130 C132 1.247 . S
O131 Cd127 2.439 . S
O131 C132 1.208 . S
C132 O130 1.247 . S
C132 O131 1.208 . S
C133 O138 1.247 1_455 S
C133 O139 1.208 . S
C134 O126 1.315 . S
C134 O129 1.279 . S
C135 O136 1.315 . S
C135 O137 1.279 . S
O136 Cd128 2.223 . S
O136 C135 1.315 . S
O137 Cd127 2.240 . S
O137 C135 1.279 . S
O138 Cd128 2.297 1_655 S
O138 C133 1.247 1_655 S
O139 Cd128 2.439 . S
O139 C133 1.208 . S
O140 Cd141 2.223 . S
O140 C148 1.315 . S
Cd141 O140 2.223 . S
Cd141 O144 2.297 . S
Cd141 O145 2.439 . S
Cd141 O151 2.240 . S
Cd142 O143 2.240 . S
Cd142 O150 2.223 . S
Cd142 O152 2.297 . S
Cd142 O153 2.439 . S
O143 Cd142 2.240 . S
O143 C148 1.279 . S
O144 Cd141 2.297 . S
O144 C146 1.247 . S
O145 Cd141 2.439 . S
O145 C146 1.208 . S
C146 O144 1.247 . S
C146 O145 1.208 . S
C147 O152 1.247 . S
C147 O153 1.208 . S
C148 O140 1.315 . S
C148 O143 1.279 . S
C149 O150 1.315 . S
C149 O151 1.279 . S
O150 Cd142 2.223 . S
O150 C149 1.315 . S
O151 Cd141 2.240 . S
O151 C149 1.279 . S
O152 Cd142 2.297 . S
O152 C147 1.247 . S
O153 Cd142 2.439 . S
O153 C147 1.208 . S
O154 Cd155 2.223 . S
O154 C162 1.315 . S
Cd155 O154 2.223 . S
Cd155 O158 2.297 . S
Cd155 O159 2.439 . S
Cd155 O165 2.240 . S
Cd156 O157 2.240 . S
Cd156 O164 2.223 . S
Cd156 O166 2.297 . S
Cd156 O167 2.439 . S
O157 Cd156 2.240 . S
O157 C162 1.279 . S
O158 Cd155 2.297 . S
O158 C160 1.247 . S
O159 Cd155 2.439 . S
O159 C160 1.208 . S
C160 O158 1.247 . S
C160 O159 1.208 . S
C161 O166 1.247 . S
C161 O167 1.208 . S
C162 O154 1.315 . S
C162 O157 1.279 . S
C163 O164 1.315 . S
C163 O165 1.279 . S
O164 Cd156 2.223 . S
O164 C163 1.315 . S
O165 Cd155 2.240 . S
O165 C163 1.279 . S
O166 Cd156 2.297 . S
O166 C161 1.247 . S
O167 Cd156 2.439 . S
O167 C161 1.208 . S
O168 Cd169 2.223 . S
O168 C176 1.315 . S
Cd169 O168 2.223 . S
Cd169 O172 2.297 . S
Cd169 O173 2.439 . S
Cd169 O179 2.240 . S
Cd170 O171 2.240 . S
Cd170 O178 2.223 . S
Cd170 O180 2.297 . S
Cd170 O181 2.439 . S
O171 Cd170 2.240 . S
O171 C176 1.279 . S
O172 Cd169 2.297 . S
O172 C174 1.247 . S
O173 Cd169 2.439 . S
O173 C174 1.208 . S
C174 O172 1.247 . S
C174 O173 1.208 . S
C175 O180 1.247 . S
C175 O181 1.208 . S
C176 O168 1.315 . S
C176 O171 1.279 . S
C177 O178 1.315 . S
C177 O179 1.279 . S
O178 Cd170 2.223 . S
O178 C177 1.315 . S
O179 Cd169 2.240 . S
O179 C177 1.279 . S
O180 Cd170 2.297 . S
O180 C175 1.247 . S
O181 Cd170 2.439 . S
O181 C175 1.208 . S
O182 Cd183 2.223 . S
O182 C190 1.315 . S
Cd183 O182 2.223 . S
Cd183 O186 2.297 . S
Cd183 O187 2.439 . S
Cd183 O193 2.240 . S
Cd184 O185 2.240 . S
Cd184 O192 2.223 . S
Cd184 O194 2.297 . S
Cd184 O195 2.439 . S
O185 Cd184 2.240 . S
O185 C190 1.279 . S
O186 Cd183 2.297 . S
O186 C188 1.247 . S
O187 Cd183 2.439 . S
O187 C188 1.208 . S
C188 O186 1.247 . S
C188 O187 1.208 . S
C189 O194 1.247 . S
C189 O195 1.208 . S
C190 O182 1.315 . S
C190 O185 1.279 . S
C191 O192 1.315 . S
C191 O193 1.279 . S
O192 Cd184 2.223 . S
O192 C191 1.315 . S
O193 Cd183 2.240 . S
O193 C191 1.279 . S
O194 Cd184 2.297 . S
O194 C189 1.247 . S
O195 Cd184 2.439 . S
O195 C189 1.208 . S
O196 Cd197 2.223 . S
O196 C204 1.315 . S
Cd197 O196 2.223 . S
Cd197 O200 2.297 . S
Cd197 O201 2.439 . S
Cd197 O207 2.240 . S
Cd198 O199 2.249 . S
Cd198 O206 2.225 . S
Cd198 O208 2.287 1_554 S
Cd198 O209 2.431 1_554 S
O199 Cd198 2.249 . S
O199 C204 1.279 . S
O200 Cd197 2.297 . S
O200 C202 1.247 . S
O201 Cd197 2.439 . S
O201 C202 1.208 . S
C202 O200 1.247 . S
C202 O201 1.208 . S
C203 O208 1.247 . S
C203 O209 1.208 . S
C204 O196 1.315 . S
C204 O199 1.279 . S
C205 O206 1.315 . S
C205 O207 1.279 . S
O206 Cd198 2.225 . S
O206 C205 1.315 . S
O207 Cd197 2.240 . S
O207 C205 1.279 . S
O208 Cd198 2.287 1_556 S
O208 C203 1.247 . S
O209 Cd198 2.431 1_556 S
O209 C203 1.208 . S
O210 Cd211 2.223 . S
O210 C218 1.315 . S
Cd211 O210 2.223 . S
Cd211 O214 2.297 . S
Cd211 O215 2.439 . S
Cd211 O221 2.240 . S
Cd212 O213 2.240 . S
Cd212 O220 2.223 . S
Cd212 O222 2.297 1_455 S
Cd212 O223 2.439 . S
O213 Cd212 2.240 . S
O213 C218 1.279 . S
O214 Cd211 2.297 . S
O214 C216 1.247 . S
O215 Cd211 2.439 . S
O215 C216 1.208 . S
C216 O214 1.247 . S
C216 O215 1.208 . S
C217 O222 1.247 1_455 S
C217 O223 1.208 . S
C218 O210 1.315 . S
C218 O213 1.279 . S
C219 O220 1.315 . S
C219 O221 1.279 . S
O220 Cd212 2.223 . S
O220 C219 1.315 . S
O221 Cd211 2.240 . S
O221 C219 1.279 . S
O222 Cd212 2.297 1_655 S
O222 C217 1.247 1_655 S
O223 Cd212 2.439 . S
O223 C217 1.208 . S
O224 Cd225 2.223 . S
O224 C232 1.315 . S
Cd225 O224 2.223 . S
Cd225 O228 2.297 . S
Cd225 O229 2.439 . S
Cd225 O235 2.240 . S
Cd226 O227 2.240 . S
Cd226 O234 2.223 . S
Cd226 O236 2.297 . S
Cd226 O237 2.439 . S
O227 Cd226 2.240 . S
O227 C232 1.279 . S
O228 Cd225 2.297 . S
O228 C230 1.247 . S
O229 Cd225 2.439 . S
O229 C230 1.208 . S
C230 O228 1.247 . S
C230 O229 1.208 . S
C231 O236 1.247 . S
C231 O237 1.208 . S
C232 O224 1.315 . S
C232 O227 1.279 . S
C233 O234 1.315 . S
C233 O235 1.279 . S
O234 Cd226 2.223 . S
O234 C233 1.315 . S
O235 Cd225 2.240 . S
O235 C233 1.279 . S
O236 Cd226 2.297 . S
O236 C231 1.247 . S
O237 Cd226 2.439 . S
O237 C231 1.208 . S
O238 Cd239 2.223 . S
O238 C246 1.315 . S
Cd239 O238 2.223 . S
Cd239 O242 2.297 . S
Cd239 O243 2.439 . S
Cd239 O249 2.240 . S
Cd240 O241 2.240 . S
Cd240 O248 2.223 . S
Cd240 O250 2.297 . S
Cd240 O251 2.439 . S
O241 Cd240 2.240 . S
O241 C246 1.279 . S
O242 Cd239 2.297 . S
O242 C244 1.247 . S
O243 Cd239 2.439 . S
O243 C244 1.208 . S
C244 O242 1.247 . S
C244 O243 1.208 . S
C245 O250 1.247 . S
C245 O251 1.208 . S
C246 O238 1.315 . S
C246 O241 1.279 . S
C247 O248 1.315 . S
C247 O249 1.279 . S
O248 Cd240 2.223 . S
O248 C247 1.315 . S
O249 Cd239 2.240 . S
O249 C247 1.279 . S
O250 Cd240 2.297 . S
O250 C245 1.247 . S
O251 Cd240 2.439 . S
O251 C245 1.208 . S
O252 Cd253 2.223 . S
O252 C260 1.315 . S
Cd253 O252 2.223 . S
Cd253 O256 2.297 . S
Cd253 O257 2.439 . S
Cd253 O263 2.240 . S
Cd254 O255 2.247 . S
Cd254 O262 2.225 . S
Cd254 O264 2.289 1_554 S
Cd254 O265 2.432 1_554 S
O255 Cd254 2.247 . S
O255 C260 1.279 . S
O256 Cd253 2.297 . S
O256 C258 1.247 . S
O257 Cd253 2.439 . S
O257 C258 1.208 . S
C258 O256 1.247 . S
C258 O257 1.208 . S
C259 O264 1.247 . S
C259 O265 1.208 . S
C260 O252 1.315 . S
C260 O255 1.279 . S
C261 O262 1.315 . S
C261 O263 1.279 . S
O262 Cd254 2.225 . S
O262 C261 1.315 . S
O263 Cd253 2.240 . S
O263 C261 1.279 . S
O264 Cd254 2.289 1_556 S
O264 C259 1.247 . S
O265 Cd254 2.432 1_556 S
O265 C259 1.208 . S
O266 Cd267 2.223 . S
O266 C274 1.315 . S
Cd267 O266 2.223 . S
Cd267 O270 2.297 . S
Cd267 O271 2.439 . S
Cd267 O277 2.240 . S
Cd268 O269 2.240 . S
Cd268 O276 2.223 . S
Cd268 O278 2.297 1_455 S
Cd268 O279 2.439 . S
O269 Cd268 2.240 . S
O269 C274 1.279 . S
O270 Cd267 2.297 . S
O270 C272 1.247 . S
O271 Cd267 2.439 . S
O271 C272 1.208 . S
C272 O270 1.247 . S
C272 O271 1.208 . S
C273 O278 1.247 1_455 S
C273 O279 1.208 . S
C274 O266 1.315 . S
C274 O269 1.279 . S
C275 O276 1.315 . S
C275 O277 1.279 . S
O276 Cd268 2.223 . S
O276 C275 1.315 . S
O277 Cd267 2.240 . S
O277 C275 1.279 . S
O278 Cd268 2.297 1_655 S
O278 C273 1.247 1_655 S
O279 Cd268 2.439 . S
O279 C273 1.208 . S
O280 Cd281 2.223 . S
O280 C288 1.315 . S
Cd281 O280 2.223 . S
Cd281 O284 2.297 . S
Cd281 O285 2.439 . S
Cd281 O291 2.240 . S
Cd282 O283 2.249 . S
Cd282 O290 2.225 . S
Cd282 O292 2.287 1_556 S
Cd282 O293 2.431 1_556 S
O283 Cd282 2.249 . S
O283 C288 1.279 . S
O284 Cd281 2.297 . S
O284 C286 1.247 . S
O285 Cd281 2.439 . S
O285 C286 1.208 . S
C286 O284 1.247 . S
C286 O285 1.208 . S
C287 O292 1.247 . S
C287 O293 1.208 . S
C288 O280 1.315 . S
C288 O283 1.279 . S
C289 O290 1.315 . S
C289 O291 1.279 . S
O290 Cd282 2.225 . S
O290 C289 1.315 . S
O291 Cd281 2.240 . S
O291 C289 1.279 . S
O292 Cd282 2.287 1_554 S
O292 C287 1.247 . S
O293 Cd282 2.431 1_554 S
O293 C287 1.208 . S
O294 Cd295 2.223 . S
O294 C302 1.315 . S
Cd295 O294 2.223 . S
Cd295 O298 2.297 . S
Cd295 O299 2.439 . S
Cd295 O305 2.240 . S
Cd296 O297 2.240 . S
Cd296 O304 2.223 . S
Cd296 O306 2.297 1_455 S
Cd296 O307 2.439 . S
O297 Cd296 2.240 . S
O297 C302 1.279 . S
O298 Cd295 2.297 . S
O298 C300 1.247 . S
O299 Cd295 2.439 . S
O299 C300 1.208 . S
C300 O298 1.247 . S
C300 O299 1.208 . S
C301 O306 1.247 1_455 S
C301 O307 1.208 . S
C302 O294 1.315 . S
C302 O297 1.279 . S
C303 O304 1.315 . S
C303 O305 1.279 . S
O304 Cd296 2.223 . S
O304 C303 1.315 . S
O305 Cd295 2.240 . S
O305 C303 1.279 . S
O306 Cd296 2.297 1_655 S
O306 C301 1.247 1_655 S
O307 Cd296 2.439 . S
O307 C301 1.208 . S
O308 Cd309 2.223 . S
O308 C316 1.315 . S
Cd309 O308 2.223 . S
Cd309 O312 2.297 . S
Cd309 O313 2.439 . S
Cd309 O319 2.240 . S
Cd310 O311 2.240 . S
Cd310 O318 2.223 . S
Cd310 O320 2.297 . S
Cd310 O321 2.439 . S
O311 Cd310 2.240 . S
O311 C316 1.279 . S
O312 Cd309 2.297 . S
O312 C314 1.247 . S
O313 Cd309 2.439 . S
O313 C314 1.208 . S
C314 O312 1.247 . S
C314 O313 1.208 . S
C315 O320 1.247 . S
C315 O321 1.208 . S
C316 O308 1.315 . S
C316 O311 1.279 . S
C317 O318 1.315 . S
C317 O319 1.279 . S
O318 Cd310 2.223 . S
O318 C317 1.315 . S
O319 Cd309 2.240 . S
O319 C317 1.279 . S
O320 Cd310 2.297 . S
O320 C315 1.247 . S
O321 Cd310 2.439 . S
O321 C315 1.208 . S
O322 Cd323 2.223 . S
O322 C330 1.315 . S
Cd323 O322 2.223 . S
Cd323 O326 2.297 . S
Cd323 O327 2.439 . S
Cd323 O333 2.240 . S
Cd324 O325 2.240 . S
Cd324 O332 2.223 . S
Cd324 O334 2.297 . S
Cd324 O335 2.439 . S
O325 Cd324 2.240 . S
O325 C330 1.279 . S
O326 Cd323 2.297 . S
O326 C328 1.247 . S
O327 Cd323 2.439 . S
O327 C328 1.208 . S
C328 O326 1.247 . S
C328 O327 1.208 . S
C329 O334 1.247 . S
C329 O335 1.208 . S
C330 O322 1.315 . S
C330 O325 1.279 . S
C331 O332 1.315 . S
C331 O333 1.279 . S
O332 Cd324 2.223 . S
O332 C331 1.315 . S
O333 Cd323 2.240 . S
O333 C331 1.279 . S
O334 Cd324 2.297 . S
O334 C329 1.247 . S
O335 Cd324 2.439 . S
O335 C329 1.208 . S
O336 Cd337 2.223 . S
O336 C344 1.315 . S
Cd337 O336 2.223 . S
Cd337 O340 2.297 . S
Cd337 O341 2.439 . S
Cd337 O347 2.240 . S
Cd338 O339 2.240 . S
Cd338 O346 2.223 . S
Cd338 O348 2.297 . S
Cd338 O349 2.439 . S
O339 Cd338 2.240 . S
O339 C344 1.279 . S
O340 Cd337 2.297 . S
O340 C342 1.247 . S
O341 Cd337 2.439 . S
O341 C342 1.208 . S
C342 O340 1.247 . S
C342 O341 1.208 . S
C343 O348 1.247 . S
C343 O349 1.208 . S
C344 O336 1.315 . S
C344 O339 1.279 . S
C345 O346 1.315 . S
C345 O347 1.279 . S
O346 Cd338 2.223 . S
O346 C345 1.315 . S
O347 Cd337 2.240 . S
O347 C345 1.279 . S
O348 Cd338 2.297 . S
O348 C343 1.247 . S
O349 Cd338 2.439 . S
O349 C343 1.208 . S
O350 Cd351 2.223 . S
O350 C358 1.315 . S
Cd351 O350 2.223 . S
Cd351 O354 2.297 . S
Cd351 O355 2.439 . S
Cd351 O361 2.240 . S
Cd352 O353 2.240 . S
Cd352 O360 2.223 . S
Cd352 O362 2.297 . S
Cd352 O363 2.439 . S
O353 Cd352 2.240 . S
O353 C358 1.279 . S
O354 Cd351 2.297 . S
O354 C356 1.247 . S
O355 Cd351 2.439 . S
O355 C356 1.208 . S
C356 O354 1.247 . S
C356 O355 1.208 . S
C357 O362 1.247 . S
C357 O363 1.208 . S
C358 O350 1.315 . S
C358 O353 1.279 . S
C359 O360 1.315 . S
C359 O361 1.279 . S
O360 Cd352 2.223 . S
O360 C359 1.315 . S
O361 Cd351 2.240 . S
O361 C359 1.279 . S
O362 Cd352 2.297 . S
O362 C357 1.247 . S
O363 Cd352 2.439 . S
O363 C357 1.208 . S
O364 Cd365 2.223 . S
O364 C372 1.315 . S
Cd365 O364 2.223 . S
Cd365 O368 2.297 . S
Cd365 O369 2.439 . S
Cd365 O375 2.240 . S
Cd366 O367 2.247 . S
Cd366 O374 2.225 . S
Cd366 O376 2.289 1_556 S
Cd366 O377 2.432 1_556 S
O367 Cd366 2.247 . S
O367 C372 1.279 . S
O368 Cd365 2.297 . S
O368 C370 1.247 . S
O369 Cd365 2.439 . S
O369 C370 1.208 . S
C370 O368 1.247 . S
C370 O369 1.208 . S
C371 O376 1.247 . S
C371 O377 1.208 . S
C372 O364 1.315 . S
C372 O367 1.279 . S
C373 O374 1.315 . S
C373 O375 1.279 . S
O374 Cd366 2.225 . S
O374 C373 1.315 . S
O375 Cd365 2.240 . S
O375 C373 1.279 . S
O376 Cd366 2.289 1_554 S
O376 C371 1.247 . S
O377 Cd366 2.432 1_554 S
O377 C371 1.208 . S
O378 Cd379 2.223 . S
O378 C386 1.315 . S
Cd379 O378 2.223 . S
Cd379 O382 2.297 . S
Cd379 O383 2.439 . S
Cd379 O389 2.240 . S
Cd380 O381 2.240 . S
Cd380 O388 2.223 . S
Cd380 O390 2.297 1_655 S
Cd380 O391 2.439 . S
O381 Cd380 2.240 . S
O381 C386 1.279 . S
O382 Cd379 2.297 . S
O382 C384 1.247 . S
O383 Cd379 2.439 . S
O383 C384 1.208 . S
C384 O382 1.247 . S
C384 O383 1.208 . S
C385 O390 1.247 1_655 S
C385 O391 1.208 . S
C386 O378 1.315 . S
C386 O381 1.279 . S
C387 O388 1.315 . S
C387 O389 1.279 . S
O388 Cd380 2.223 . S
O388 C387 1.315 . S
O389 Cd379 2.240 . S
O389 C387 1.279 . S
O390 Cd380 2.297 1_455 S
O390 C385 1.247 1_455 S
O391 Cd380 2.439 . S
O391 C385 1.208 . S
O392 Cd393 2.223 . S
O392 C400 1.315 . S
Cd393 O392 2.223 . S
Cd393 O396 2.297 . S
Cd393 O397 2.439 . S
Cd393 O403 2.240 . S
Cd394 O395 2.249 . S
Cd394 O402 2.225 . S
Cd394 O404 2.287 1_554 S
Cd394 O405 2.431 1_554 S
O395 Cd394 2.249 . S
O395 C400 1.279 . S
O396 Cd393 2.297 . S
O396 C398 1.247 . S
O397 Cd393 2.439 . S
O397 C398 1.208 . S
C398 O396 1.247 . S
C398 O397 1.208 . S
C399 O404 1.247 . S
C399 O405 1.208 . S
C400 O392 1.315 . S
C400 O395 1.279 . S
C401 O402 1.315 . S
C401 O403 1.279 . S
O402 Cd394 2.225 . S
O402 C401 1.315 . S
O403 Cd393 2.240 . S
O403 C401 1.279 . S
O404 Cd394 2.287 1_556 S
O404 C399 1.247 . S
O405 Cd394 2.431 1_556 S
O405 C399 1.208 . S
O406 Cd407 2.223 . S
O406 C414 1.315 . S
Cd407 O406 2.223 . S
Cd407 O410 2.297 . S
Cd407 O411 2.439 . S
Cd407 O417 2.240 . S
Cd408 O409 2.240 . S
Cd408 O416 2.223 . S
Cd408 O418 2.297 1_655 S
Cd408 O419 2.439 . S
O409 Cd408 2.240 . S
O409 C414 1.279 . S
O410 Cd407 2.297 . S
O410 C412 1.247 . S
O411 Cd407 2.439 . S
O411 C412 1.208 . S
C412 O410 1.247 . S
C412 O411 1.208 . S
C413 O418 1.247 1_655 S
C413 O419 1.208 . S
C414 O406 1.315 . S
C414 O409 1.279 . S
C415 O416 1.315 . S
C415 O417 1.279 . S
O416 Cd408 2.223 . S
O416 C415 1.315 . S
O417 Cd407 2.240 . S
O417 C415 1.279 . S
O418 Cd408 2.297 1_455 S
O418 C413 1.247 1_455 S
O419 Cd408 2.439 . S
O419 C413 1.208 . S
O420 Cd421 2.223 . S
O420 C428 1.315 . S
Cd421 O420 2.223 . S
Cd421 O424 2.297 . S
Cd421 O425 2.439 . S
Cd421 O431 2.240 . S
Cd422 O423 2.240 . S
Cd422 O430 2.223 . S
Cd422 O432 2.297 . S
Cd422 O433 2.439 . S
O423 Cd422 2.240 . S
O423 C428 1.279 . S
O424 Cd421 2.297 . S
O424 C426 1.247 . S
O425 Cd421 2.439 . S
O425 C426 1.208 . S
C426 O424 1.247 . S
C426 O425 1.208 . S
C427 O432 1.247 . S
C427 O433 1.208 . S
C428 O420 1.315 . S
C428 O423 1.279 . S
C429 O430 1.315 . S
C429 O431 1.279 . S
O430 Cd422 2.223 . S
O430 C429 1.315 . S
O431 Cd421 2.240 . S
O431 C429 1.279 . S
O432 Cd422 2.297 . S
O432 C427 1.247 . S
O433 Cd422 2.439 . S
O433 C427 1.208 . S
O434 Cd435 2.223 . S
O434 C442 1.315 . S
Cd435 O434 2.223 . S
Cd435 O438 2.297 . S
Cd435 O439 2.439 . S
Cd435 O445 2.240 . S
Cd436 O437 2.240 . S
Cd436 O444 2.223 . S
Cd436 O446 2.297 . S
Cd436 O447 2.439 . S
O437 Cd436 2.240 . S
O437 C442 1.279 . S
O438 Cd435 2.297 . S
O438 C440 1.247 . S
O439 Cd435 2.439 . S
O439 C440 1.208 . S
C440 O438 1.247 . S
C440 O439 1.208 . S
C441 O446 1.247 . S
C441 O447 1.208 . S
C442 O434 1.315 . S
C442 O437 1.279 . S
C443 O444 1.315 . S
C443 O445 1.279 . S
O444 Cd436 2.223 . S
O444 C443 1.315 . S
O445 Cd435 2.240 . S
O445 C443 1.279 . S
O446 Cd436 2.297 . S
O446 C441 1.247 . S
O447 Cd436 2.439 . S
O447 C441 1.208 . S
C448 C449 1.363 1_554 S
C448 C454 1.379 . S
C448 N456 1.356 . S
C449 C448 1.363 1_556 S
C449 C455 1.363 . S
C450 C451 1.363 1_556 S
C450 C455 1.379 . S
C450 N457 1.356 . S
C451 C450 1.363 1_554 S
C451 C454 1.363 . S
N452 C454 1.356 . S
N452 H464 0.984 . S
N452 H465 0.985 . S
N453 C455 1.356 . S
N453 H458 0.984 . S
N453 H459 0.985 . S
C454 C448 1.379 . S
C454 C451 1.363 . S
C454 N452 1.356 . S
C455 C449 1.363 . S
C455 C450 1.379 . S
C455 N453 1.356 . S
N456 C448 1.356 . S
N456 H462 0.984 . S
N456 H463 0.984 . S
N457 C450 1.356 . S
N457 H460 0.984 . S
N457 H461 0.985 . S
H458 N453 0.984 . S
H459 N453 0.985 . S
H460 N457 0.984 . S
H461 N457 0.985 . S
H462 N456 0.984 . S
H463 N456 0.984 . S
H464 N452 0.984 . S
H465 N452 0.985 . S
C466 C467 1.363 . S
C466 C472 1.379 1_565 S
C466 N474 1.356 . S
C467 C466 1.363 . S
C467 C473 1.363 . S
C468 C469 1.363 . S
C468 C473 1.379 1_545 S
C468 N475 1.356 . S
C469 C468 1.363 . S
C469 C472 1.363 . S
N470 C472 1.356 . S
N470 H482 0.984 . S
N470 H483 0.985 . S
N471 C473 1.356 . S
N471 H476 0.984 . S
N471 H477 0.985 . S
C472 C466 1.379 1_545 S
C472 C469 1.363 . S
C472 N470 1.356 . S
C473 C467 1.363 . S
C473 C468 1.379 1_565 S
C473 N471 1.356 . S
N474 C466 1.356 . S
N474 H480 0.984 . S
N474 H481 0.984 . S
N475 C468 1.356 . S
N475 H478 0.984 . S
N475 H479 0.985 . S
H476 N471 0.984 . S
H477 N471 0.985 . S
H478 N475 0.984 . S
H479 N475 0.985 . S
H480 N474 0.984 . S
H481 N474 0.984 . S
H482 N470 0.984 . S
H483 N470 0.985 . S
C484 C485 1.363 . S
C484 C490 1.379 . S
C484 N492 1.356 . S
C485 C484 1.363 . S
C485 C491 1.363 . S
C486 C487 1.363 . S
C486 C491 1.379 . S
C486 N493 1.356 . S
C487 C486 1.363 . S
C487 C490 1.363 . S
N488 C490 1.356 . S
N488 H500 0.984 . S
N488 H501 0.985 . S
N489 C491 1.356 . S
N489 H494 0.984 . S
N489 H495 0.985 . S
C490 C484 1.379 . S
C490 C487 1.363 . S
C490 N488 1.356 . S
C491 C485 1.363 . S
C491 C486 1.379 . S
C491 N489 1.356 . S
N492 C484 1.356 . S
N492 H498 0.984 . S
N492 H499 0.984 . S
N493 C486 1.356 . S
N493 H496 0.984 . S
N493 H497 0.985 . S
H494 N489 0.984 . S
H495 N489 0.985 . S
H496 N493 0.984 . S
H497 N493 0.985 . S
H498 N492 0.984 . S
H499 N492 0.984 . S
H500 N488 0.984 . S
H501 N488 0.985 . S
C502 C503 1.363 . S
C502 C508 1.379 1_545 S
C502 N510 1.356 . S
C503 C502 1.363 . S
C503 C509 1.363 . S
C504 C505 1.363 . S
C504 C509 1.379 1_565 S
C504 N511 1.356 . S
C505 C504 1.363 . S
C505 C508 1.363 . S
N506 C508 1.356 . S
N506 H518 0.984 . S
N506 H519 0.985 . S
N507 C509 1.356 . S
N507 H512 0.984 . S
N507 H513 0.985 . S
C508 C502 1.379 1_565 S
C508 C505 1.363 . S
C508 N506 1.356 . S
C509 C503 1.363 . S
C509 C504 1.379 1_545 S
C509 N507 1.356 . S
N510 C502 1.356 . S
N510 H516 0.984 . S
N510 H517 0.984 . S
N511 C504 1.356 . S
N511 H514 0.984 . S
N511 H515 0.985 . S
H512 N507 0.984 . S
H513 N507 0.985 . S
H514 N511 0.984 . S
H515 N511 0.985 . S
H516 N510 0.984 . S
H517 N510 0.984 . S
H518 N506 0.984 . S
H519 N506 0.985 . S
C520 C521 1.363 . S
C520 C526 1.379 . S
C520 N528 1.356 . S
C521 C520 1.363 . S
C521 C527 1.363 1_554 S
C522 C523 1.363 . S
C522 C527 1.379 . S
C522 N529 1.356 . S
C523 C522 1.363 . S
C523 C526 1.363 1_556 S
N524 C526 1.356 . S
N524 H536 0.984 . S
N524 H537 0.985 . S
N525 C527 1.356 . S
N525 H530 0.984 . S
N525 H531 0.985 . S
C526 C520 1.379 . S
C526 C523 1.363 1_554 S
C526 N524 1.356 . S
C527 C521 1.363 1_556 S
C527 C522 1.379 . S
C527 N525 1.356 . S
N528 C520 1.356 . S
N528 H534 0.984 . S
N528 H535 0.984 . S
N529 C522 1.356 . S
N529 H532 0.984 . S
N529 H533 0.985 . S
H530 N525 0.984 . S
H531 N525 0.985 . S
H532 N529 0.984 . S
H533 N529 0.985 . S
H534 N528 0.984 . S
H535 N528 0.984 . S
H536 N524 0.984 . S
H537 N524 0.985 . S
C538 C539 1.363 . S
C538 C544 1.379 1_565 S
C538 N546 1.356 . S
C539 C538 1.363 . S
C539 C545 1.363 . S
C540 C541 1.363 . S
C540 C545 1.379 1_545 S
C540 N547 1.356 . S
C541 C540 1.363 . S
C541 C544 1.363 . S
N542 C544 1.356 . S
N542 H554 0.984 . S
N542 H555 0.985 . S
N543 C545 1.356 . S
N543 H548 0.984 . S
N543 H549 0.985 1_455 S
C544 C538 1.379 1_545 S
C544 C541 1.363 . S
C544 N542 1.356 . S
C545 C539 1.363 . S
C545 C540 1.379 1_565 S
C545 N543 1.356 . S
N546 C538 1.356 . S
N546 H552 0.984 . S
N546 H553 0.984 . S
N547 C540 1.356 . S
N547 H550 0.984 . S
N547 H551 0.985 1_455 S
H548 N543 0.984 . S
H549 N543 0.985 1_655 S
H550 N547 0.984 . S
H551 N547 0.985 1_655 S
H552 N546 0.984 . S
H553 N546 0.984 . S
H554 N542 0.984 . S
H555 N542 0.985 . S
C556 C557 1.363 . S
C556 C562 1.379 . S
C556 N564 1.356 . S
C557 C556 1.363 . S
C557 C563 1.363 . S
C558 C559 1.363 . S
C558 C563 1.379 . S
C558 N565 1.356 . S
C559 C558 1.363 . S
C559 C562 1.363 . S
N560 C562 1.356 . S
N560 H572 0.984 . S
N560 H573 0.985 . S
N561 C563 1.356 . S
N561 H566 0.984 . S
N561 H567 0.985 . S
C562 C556 1.379 . S
C562 C559 1.363 . S
C562 N560 1.356 . S
C563 C557 1.363 . S
C563 C558 1.379 . S
C563 N561 1.356 . S
N564 C556 1.356 . S
N564 H570 0.984 . S
N564 H571 0.984 . S
N565 C558 1.356 . S
N565 H568 0.984 . S
N565 H569 0.985 . S
H566 N561 0.984 . S
H567 N561 0.985 . S
H568 N565 0.984 . S
H569 N565 0.985 . S
H570 N564 0.984 . S
H571 N564 0.984 . S
H572 N560 0.984 . S
H573 N560 0.985 . S
C574 C575 1.363 . S
C574 C580 1.379 1_565 S
C574 N582 1.356 . S
C575 C574 1.363 . S
C575 C581 1.363 . S
C576 C577 1.363 . S
C576 C581 1.379 1_545 S
C576 N583 1.356 . S
C577 C576 1.363 . S
C577 C580 1.363 . S
N578 C580 1.356 . S
N578 H590 0.984 . S
N578 H591 0.985 . S
N579 C581 1.356 . S
N579 H584 0.984 . S
N579 H585 0.985 . S
C580 C574 1.379 1_545 S
C580 C577 1.363 . S
C580 N578 1.356 . S
C581 C575 1.363 . S
C581 C576 1.379 1_565 S
C581 N579 1.356 . S
N582 C574 1.356 . S
N582 H588 0.984 . S
N582 H589 0.984 . S
N583 C576 1.356 . S
N583 H586 0.984 . S
N583 H587 0.985 . S
H584 N579 0.984 . S
H585 N579 0.985 . S
H586 N583 0.984 . S
H587 N583 0.985 . S
H588 N582 0.984 . S
H589 N582 0.984 . S
H590 N578 0.984 . S
H591 N578 0.985 . S
C592 C593 1.363 . S
C592 C598 1.379 . S
C592 N600 1.356 . S
C593 C592 1.363 . S
C593 C599 1.363 . S
C594 C595 1.363 . S
C594 C599 1.379 . S
C594 N601 1.356 . S
C595 C594 1.363 . S
C595 C598 1.363 . S
N596 C598 1.356 . S
N596 H608 0.984 . S
N596 H609 0.985 . S
N597 C599 1.356 . S
N597 H602 0.984 . S
N597 H603 0.985 . S
C598 C592 1.379 . S
C598 C595 1.363 . S
C598 N596 1.356 . S
C599 C593 1.363 . S
C599 C594 1.379 . S
C599 N597 1.356 . S
N600 C592 1.356 . S
N600 H606 0.984 . S
N600 H607 0.984 . S
N601 C594 1.356 . S
N601 H604 0.984 . S
N601 H605 0.985 . S
H602 N597 0.984 . S
H603 N597 0.985 . S
H604 N601 0.984 . S
H605 N601 0.985 . S
H606 N600 0.984 . S
H607 N600 0.984 . S
H608 N596 0.984 . S
H609 N596 0.985 . S
C610 C611 1.363 . S
C610 C616 1.379 . S
C610 N618 1.356 . S
C611 C610 1.363 . S
C611 C617 1.363 . S
C612 C613 1.363 . S
C612 C617 1.379 . S
C612 N619 1.356 . S
C613 C612 1.363 . S
C613 C616 1.363 . S
N614 C616 1.356 . S
N614 H626 0.984 . S
N614 H627 0.985 . S
N615 C617 1.356 . S
N615 H620 0.984 . S
N615 H621 0.985 . S
C616 C610 1.379 . S
C616 C613 1.363 . S
C616 N614 1.356 . S
C617 C611 1.363 . S
C617 C612 1.379 . S
C617 N615 1.356 . S
N618 C610 1.356 . S
N618 H624 0.984 . S
N618 H625 0.984 . S
N619 C612 1.356 . S
N619 H622 0.984 . S
N619 H623 0.985 . S
H620 N615 0.984 . S
H621 N615 0.985 . S
H622 N619 0.984 . S
H623 N619 0.985 . S
H624 N618 0.984 . S
H625 N618 0.984 . S
H626 N614 0.984 . S
H627 N614 0.985 . S
C628 C629 1.363 1_554 S
C628 C634 1.379 . S
C628 N636 1.356 . S
C629 C628 1.363 1_556 S
C629 C635 1.363 . S
C630 C631 1.363 1_556 S
C630 C635 1.379 . S
C630 N637 1.356 . S
C631 C630 1.363 1_554 S
C631 C634 1.363 . S
N632 C634 1.356 . S
N632 H644 0.984 . S
N632 H645 0.985 . S
N633 C635 1.356 . S
N633 H638 0.984 . S
N633 H639 0.985 . S
C634 C628 1.379 . S
C634 C631 1.363 . S
C634 N632 1.356 . S
C635 C629 1.363 . S
C635 C630 1.379 . S
C635 N633 1.356 . S
N636 C628 1.356 . S
N636 H642 0.984 . S
N636 H643 0.984 . S
N637 C630 1.356 . S
N637 H640 0.984 . S
N637 H641 0.985 . S
H638 N633 0.984 . S
H639 N633 0.985 . S
H640 N637 0.984 . S
H641 N637 0.985 . S
H642 N636 0.984 . S
H643 N636 0.984 . S
H644 N632 0.984 . S
H645 N632 0.985 . S
C646 C647 1.363 . S
C646 C652 1.379 . S
C646 N654 1.356 . S
C647 C646 1.363 . S
C647 C653 1.363 . S
C648 C649 1.363 . S
C648 C653 1.379 . S
C648 N655 1.356 . S
C649 C648 1.363 . S
C649 C652 1.363 . S
N650 C652 1.356 . S
N650 H662 0.986 1_455 S
N650 H663 0.985 . S
N651 C653 1.356 . S
N651 H656 0.984 . S
N651 H657 0.985 . S
C652 C646 1.379 . S
C652 C649 1.363 . S
C652 N650 1.356 . S
C653 C647 1.363 . S
C653 C648 1.379 . S
C653 N651 1.356 . S
N654 C646 1.356 . S
N654 H660 0.986 1_455 S
N654 H661 0.984 . S
N655 C648 1.356 . S
N655 H658 0.984 . S
N655 H659 0.985 . S
H656 N651 0.984 . S
H657 N651 0.985 . S
H658 N655 0.984 . S
H659 N655 0.985 . S
H660 N654 0.986 1_655 S
H661 N654 0.984 . S
H662 N650 0.986 1_655 S
H663 N650 0.985 . S
C664 C665 1.363 . S
C664 C670 1.379 . S
C664 N672 1.356 . S
C665 C664 1.363 . S
C665 C671 1.363 . S
C666 C667 1.363 . S
C666 C671 1.379 . S
C666 N673 1.356 . S
C667 C666 1.363 . S
C667 C670 1.363 . S
N668 C670 1.356 . S
N668 H680 0.984 . S
N668 H681 0.985 . S
N669 C671 1.356 . S
N669 H674 0.984 . S
N669 H675 0.985 . S
C670 C664 1.379 . S
C670 C667 1.363 . S
C670 N668 1.356 . S
C671 C665 1.363 . S
C671 C666 1.379 . S
C671 N669 1.356 . S
N672 C664 1.356 . S
N672 H678 0.984 . S
N672 H679 0.984 . S
N673 C666 1.356 . S
N673 H676 0.984 . S
N673 H677 0.985 . S
H674 N669 0.984 . S
H675 N669 0.985 . S
H676 N673 0.984 . S
H677 N673 0.985 . S
H678 N672 0.984 . S
H679 N672 0.984 . S
H680 N668 0.984 . S
H681 N668 0.985 . S
C682 C683 1.363 . S
C682 C688 1.379 . S
C682 N690 1.356 . S
C683 C682 1.363 . S
C683 C689 1.363 . S
C684 C685 1.363 . S
C684 C689 1.379 . S
C684 N691 1.356 . S
C685 C684 1.363 . S
C685 C688 1.363 . S
N686 C688 1.356 . S
N686 H698 0.984 . S
N686 H699 0.985 . S
N687 C689 1.356 . S
N687 H692 0.984 . S
N687 H693 0.985 . S
C688 C682 1.379 . S
C688 C685 1.363 . S
C688 N686 1.356 . S
C689 C683 1.363 . S
C689 C684 1.379 . S
C689 N687 1.356 . S
N690 C682 1.356 . S
N690 H696 0.984 . S
N690 H697 0.984 . S
N691 C684 1.356 . S
N691 H694 0.984 . S
N691 H695 0.985 . S
H692 N687 0.984 . S
H693 N687 0.985 . S
H694 N691 0.984 . S
H695 N691 0.985 . S
H696 N690 0.984 . S
H697 N690 0.984 . S
H698 N686 0.984 . S
H699 N686 0.985 . S
C700 C701 1.363 . S
C700 C706 1.379 . S
C700 N708 1.356 . S
C701 C700 1.363 . S
C701 C707 1.363 1_554 S
C702 C703 1.363 . S
C702 C707 1.379 . S
C702 N709 1.356 . S
C703 C702 1.363 . S
C703 C706 1.363 1_556 S
N704 C706 1.356 . S
N704 H716 0.984 . S
N704 H717 0.985 . S
N705 C707 1.356 . S
N705 H710 0.984 . S
N705 H711 0.985 . S
C706 C700 1.379 . S
C706 C703 1.363 1_554 S
C706 N704 1.356 . S
C707 C701 1.363 1_556 S
C707 C702 1.379 . S
C707 N705 1.356 . S
N708 C700 1.356 . S
N708 H714 0.984 . S
N708 H715 0.984 . S
N709 C702 1.356 . S
N709 H712 0.984 . S
N709 H713 0.985 . S
H710 N705 0.984 . S
H711 N705 0.985 . S
H712 N709 0.984 . S
H713 N709 0.985 . S
H714 N708 0.984 . S
H715 N708 0.984 . S
H716 N704 0.984 . S
H717 N704 0.985 . S
C718 C719 1.363 . S
C718 C724 1.379 . S
C718 N726 1.356 . S
C719 C718 1.363 . S
C719 C725 1.363 . S
C720 C721 1.363 . S
C720 C725 1.379 . S
C720 N727 1.356 . S
C721 C720 1.363 . S
C721 C724 1.363 . S
N722 C724 1.356 . S
N722 H734 0.984 . S
N722 H735 0.985 . S
N723 C725 1.356 . S
N723 H728 0.984 . S
N723 H729 0.985 . S
C724 C718 1.379 . S
C724 C721 1.363 . S
C724 N722 1.356 . S
C725 C719 1.363 . S
C725 C720 1.379 . S
C725 N723 1.356 . S
N726 C718 1.356 . S
N726 H732 0.984 . S
N726 H733 0.984 . S
N727 C720 1.356 . S
N727 H730 0.984 . S
N727 H731 0.985 . S
H728 N723 0.984 . S
H729 N723 0.985 . S
H730 N727 0.984 . S
H731 N727 0.985 . S
H732 N726 0.984 . S
H733 N726 0.984 . S
H734 N722 0.984 . S
H735 N722 0.985 . S
C736 C737 1.363 . S
C736 C742 1.379 . S
C736 N744 1.356 . S
C737 C736 1.363 . S
C737 C743 1.363 . S
C738 C739 1.363 . S
C738 C743 1.379 . S
C738 N745 1.356 . S
C739 C738 1.363 . S
C739 C742 1.363 . S
N740 C742 1.356 . S
N740 H752 0.984 . S
N740 H753 0.985 . S
N741 C743 1.356 . S
N741 H746 0.984 . S
N741 H747 0.985 . S
C742 C736 1.379 . S
C742 C739 1.363 . S
C742 N740 1.356 . S
C743 C737 1.363 . S
C743 C738 1.379 . S
C743 N741 1.356 . S
N744 C736 1.356 . S
N744 H750 0.984 . S
N744 H751 0.984 . S
N745 C738 1.356 . S
N745 H748 0.984 . S
N745 H749 0.985 . S
H746 N741 0.984 . S
H747 N741 0.985 . S
H748 N745 0.984 . S
H749 N745 0.985 . S
H750 N744 0.984 . S
H751 N744 0.984 . S
H752 N740 0.984 . S
H753 N740 0.985 . S
C754 C755 1.363 1_655 S
C754 C760 1.379 1_556 S
C754 N762 1.356 . S
C755 C754 1.363 1_455 S
C755 C761 1.363 . S
C756 C757 1.363 1_455 S
C756 C761 1.379 1_554 S
C756 N763 1.356 . S
C757 C756 1.363 1_655 S
C757 C760 1.363 . S
N758 C760 1.356 . S
N758 H770 0.984 . S
N758 H771 0.985 . S
N759 C761 1.356 . S
N759 H764 0.984 . S
N759 H765 0.985 . S
C760 C754 1.379 1_554 S
C760 C757 1.363 . S
C760 N758 1.356 . S
C761 C755 1.363 . S
C761 C756 1.379 1_556 S
C761 N759 1.356 . S
N762 C754 1.356 . S
N762 H768 0.984 . S
N762 H769 0.984 1_655 S
N763 C756 1.356 . S
N763 H766 0.984 1_455 S
N763 H767 0.985 . S
H764 N759 0.984 . S
H765 N759 0.985 . S
H766 N763 0.984 1_655 S
H767 N763 0.985 . S
H768 N762 0.984 . S
H769 N762 0.984 1_455 S
H770 N758 0.984 . S
H771 N758 0.985 . S
C772 C773 1.363 . S
C772 C778 1.379 . S
C772 N780 1.356 . S
C773 C772 1.363 . S
C773 C779 1.363 . S
C774 C775 1.363 . S
C774 C779 1.379 . S
C774 N781 1.356 . S
C775 C774 1.363 . S
C775 C778 1.363 . S
N776 C778 1.356 . S
N776 H788 0.984 . S
N776 H789 0.985 . S
N777 C779 1.356 . S
N777 H782 0.984 . S
N777 H783 0.985 . S
C778 C772 1.379 . S
C778 C775 1.363 . S
C778 N776 1.356 . S
C779 C773 1.363 . S
C779 C774 1.379 . S
C779 N777 1.356 . S
N780 C772 1.356 . S
N780 H786 0.984 . S
N780 H787 0.984 . S
N781 C774 1.356 . S
N781 H784 0.984 . S
N781 H785 0.985 . S
H782 N777 0.984 . S
H783 N777 0.985 . S
H784 N781 0.984 . S
H785 N781 0.985 . S
H786 N780 0.984 . S
H787 N780 0.984 . S
H788 N776 0.984 . S
H789 N776 0.985 . S
C790 C791 1.363 . S
C790 C796 1.379 . S
C790 N798 1.356 . S
C791 C790 1.363 . S
C791 C797 1.363 . S
C792 C793 1.363 . S
C792 C797 1.379 . S
C792 N799 1.356 . S
C793 C792 1.363 . S
C793 C796 1.363 . S
N794 C796 1.356 . S
N794 H806 0.984 . S
N794 H807 0.985 . S
N795 C797 1.356 . S
N795 H800 0.984 . S
N795 H801 0.985 . S
C796 C790 1.379 . S
C796 C793 1.363 . S
C796 N794 1.356 . S
C797 C791 1.363 . S
C797 C792 1.379 . S
C797 N795 1.356 . S
N798 C790 1.356 . S
N798 H804 0.984 . S
N798 H805 0.984 . S
N799 C792 1.356 . S
N799 H802 0.984 . S
N799 H803 0.985 . S
H800 N795 0.984 . S
H801 N795 0.985 . S
H802 N799 0.984 . S
H803 N799 0.985 . S
H804 N798 0.984 . S
H805 N798 0.984 . S
H806 N794 0.984 . S
H807 N794 0.985 . S
C808 C809 1.363 . S
C808 C814 1.379 . S
C808 N816 1.356 . S
C809 C808 1.363 . S
C809 C815 1.363 . S
C810 C811 1.363 . S
C810 C815 1.379 . S
C810 N817 1.356 . S
C811 C810 1.363 . S
C811 C814 1.363 . S
N812 C814 1.356 . S
N812 H824 0.984 . S
N812 H825 0.985 . S
N813 C815 1.356 . S
N813 H818 0.984 . S
N813 H819 0.985 . S
C814 C808 1.379 . S
C814 C811 1.363 . S
C814 N812 1.356 . S
C815 C809 1.363 . S
C815 C810 1.379 . S
C815 N813 1.356 . S
N816 C808 1.356 . S
N816 H822 0.984 . S
N816 H823 0.984 . S
N817 C810 1.356 . S
N817 H820 0.984 . S
N817 H821 0.985 . S
H818 N813 0.984 . S
H819 N813 0.985 . S
H820 N817 0.984 . S
H821 N817 0.985 . S
H822 N816 0.984 . S
H823 N816 0.984 . S
H824 N812 0.984 . S
H825 N812 0.985 . S
C826 C827 1.363 . S
C826 C832 1.379 1_554 S
C826 N834 1.356 . S
C827 C826 1.363 . S
C827 C833 1.363 . S
C828 C829 1.363 . S
C828 C833 1.379 1_556 S
C828 N835 1.356 . S
C829 C828 1.363 . S
C829 C832 1.363 . S
N830 C832 1.356 . S
N830 H842 0.984 . S
N830 H843 0.985 . S
N831 C833 1.356 . S
N831 H836 0.984 . S
N831 H837 0.985 . S
C832 C826 1.379 1_556 S
C832 C829 1.363 . S
C832 N830 1.356 . S
C833 C827 1.363 . S
C833 C828 1.379 1_554 S
C833 N831 1.356 . S
N834 C826 1.356 . S
N834 H840 0.984 . S
N834 H841 0.984 . S
N835 C828 1.356 . S
N835 H838 0.984 . S
N835 H839 0.985 . S
H836 N831 0.984 . S
H837 N831 0.985 . S
H838 N835 0.984 . S
H839 N835 0.985 . S
H840 N834 0.984 . S
H841 N834 0.984 . S
H842 N830 0.984 . S
H843 N830 0.985 . S
C844 C845 1.363 . S
C844 C850 1.379 . S
C844 N852 1.356 . S
C845 C844 1.363 . S
C845 C851 1.363 . S
C846 C847 1.363 . S
C846 C851 1.379 . S
C846 N853 1.356 . S
C847 C846 1.363 . S
C847 C850 1.363 . S
N848 C850 1.356 . S
N848 H860 0.984 . S
N848 H861 0.985 . S
N849 C851 1.356 . S
N849 H854 0.984 . S
N849 H855 0.985 . S
C850 C844 1.379 . S
C850 C847 1.363 . S
C850 N848 1.356 . S
C851 C845 1.363 . S
C851 C846 1.379 . S
C851 N849 1.356 . S
N852 C844 1.356 . S
N852 H858 0.984 . S
N852 H859 0.984 . S
N853 C846 1.356 . S
N853 H856 0.984 . S
N853 H857 0.985 . S
H854 N849 0.984 . S
H855 N849 0.985 . S
H856 N853 0.984 . S
H857 N853 0.985 . S
H858 N852 0.984 . S
H859 N852 0.984 . S
H860 N848 0.984 . S
H861 N848 0.985 . S
C862 C863 1.363 . S
C862 C868 1.379 . S
C862 N870 1.356 . S
C863 C862 1.363 . S
C863 C869 1.363 1_455 S
C864 C865 1.363 . S
C864 C869 1.379 . S
C864 N871 1.356 . S
C865 C864 1.363 . S
C865 C868 1.363 1_655 S
N866 C868 1.356 . S
N866 H878 0.984 . S
N866 H879 0.973 1_455 S
N867 C869 1.356 . S
N867 H872 0.984 1_655 S
N867 H873 0.985 . S
C868 C862 1.379 . S
C868 C865 1.363 1_455 S
C868 N866 1.356 . S
C869 C863 1.363 1_655 S
C869 C864 1.379 . S
C869 N867 1.356 . S
N870 C862 1.356 . S
N870 H876 0.984 . S
N870 H877 0.984 . S
N871 C864 1.356 . S
N871 H874 0.984 . S
N871 H875 0.985 . S
H872 N867 0.984 1_455 S
H873 N867 0.985 . S
H874 N871 0.984 . S
H875 N871 0.985 . S
H876 N870 0.984 . S
H877 N870 0.984 . S
H878 N866 0.984 . S
H879 N866 0.973 1_655 S
C880 C881 1.363 . S
C880 C886 1.379 . S
C880 N888 1.356 . S
C881 C880 1.363 . S
C881 C887 1.363 . S
C882 C883 1.363 . S
C882 C887 1.379 . S
C882 N889 1.356 . S
C883 C882 1.363 . S
C883 C886 1.363 . S
N884 C886 1.356 . S
N884 H896 0.984 . S
N884 H897 0.985 . S
N885 C887 1.356 . S
N885 H890 0.984 . S
N885 H891 0.985 . S
C886 C880 1.379 . S
C886 C883 1.363 . S
C886 N884 1.356 . S
C887 C881 1.363 . S
C887 C882 1.379 . S
C887 N885 1.356 . S
N888 C880 1.356 . S
N888 H894 0.984 . S
N888 H895 0.984 . S
N889 C882 1.356 . S
N889 H892 0.984 . S
N889 H893 0.985 . S
H890 N885 0.984 . S
H891 N885 0.985 . S
H892 N889 0.984 . S
H893 N889 0.985 . S
H894 N888 0.984 . S
H895 N888 0.984 . S
H896 N884 0.984 . S
H897 N884 0.985 . S
C898 C899 1.340 1_455 S
C898 C904 1.398 1_554 S
C898 N906 1.354 1_455 S
C899 C898 1.340 1_655 S
C899 C905 1.363 . S
C900 C901 1.363 1_655 S
C900 C905 1.379 1_556 S
C900 N907 1.356 . S
C901 C900 1.363 1_455 S
C901 C904 1.363 . S
N902 C904 1.356 . S
N902 H914 0.984 . S
N902 H915 0.985 . S
N903 C905 1.356 . S
N903 H908 0.984 . S
N903 H909 0.985 . S
C904 C898 1.398 1_556 S
C904 C901 1.363 . S
C904 N902 1.356 . S
C905 C899 1.363 . S
C905 C900 1.379 1_554 S
C905 N903 1.356 . S
N906 C898 1.354 1_655 S
N906 H912 0.974 1_655 S
N906 H913 0.997 . S
N907 C900 1.356 . S
N907 H910 0.984 1_655 S
N907 H911 0.985 . S
H908 N903 0.984 . S
H909 N903 0.985 . S
H910 N907 0.984 1_455 S
H911 N907 0.985 . S
H912 N906 0.974 1_455 S
H913 N906 0.997 . S
H914 N902 0.984 . S
H915 N902 0.985 . S
C916 C917 1.363 . S
C916 C922 1.379 . S
C916 N924 1.356 . S
C917 C916 1.363 . S
C917 C923 1.363 . S
C918 C919 1.363 . S
C918 C923 1.379 . S
C918 N925 1.356 . S
C919 C918 1.363 . S
C919 C922 1.363 . S
N920 C922 1.356 . S
N920 H932 0.984 . S
N920 H933 0.985 . S
N921 C923 1.356 . S
N921 H926 0.984 . S
N921 H927 0.985 . S
C922 C916 1.379 . S
C922 C919 1.363 . S
C922 N920 1.356 . S
C923 C917 1.363 . S
C923 C918 1.379 . S
C923 N921 1.356 . S
N924 C916 1.356 . S
N924 H930 0.984 . S
N924 H931 0.984 . S
N925 C918 1.356 . S
N925 H928 0.984 . S
N925 H929 0.985 . S
H926 N921 0.984 . S
H927 N921 0.985 . S
H928 N925 0.984 . S
H929 N925 0.985 . S
H930 N924 0.984 . S
H931 N924 0.984 . S
H932 N920 0.984 . S
H933 N920 0.985 . S
C934 C935 1.363 . S
C934 C940 1.379 . S
C934 N942 1.356 . S
C935 C934 1.363 . S
C935 C941 1.363 . S
C936 C937 1.363 . S
C936 C941 1.379 . S
C936 N943 1.356 . S
C937 C936 1.363 . S
C937 C940 1.363 . S
N938 C940 1.356 . S
N938 H950 0.984 . S
N938 H951 0.985 . S
N939 C941 1.356 . S
N939 H944 0.984 . S
N939 H945 0.985 . S
C940 C934 1.379 . S
C940 C937 1.363 . S
C940 N938 1.356 . S
C941 C935 1.363 . S
C941 C936 1.379 . S
C941 N939 1.356 . S
N942 C934 1.356 . S
N942 H948 0.984 . S
N942 H949 0.984 . S
N943 C936 1.356 . S
N943 H946 0.984 . S
N943 H947 0.985 . S
H944 N939 0.984 . S
H945 N939 0.985 . S
H946 N943 0.984 . S
H947 N943 0.985 . S
H948 N942 0.984 . S
H949 N942 0.984 . S
H950 N938 0.984 . S
H951 N938 0.985 . S
C952 C953 1.363 . S
C952 C958 1.379 . S
C952 N960 1.356 . S
C953 C952 1.363 . S
C953 C959 1.363 . S
C954 C955 1.363 . S
C954 C959 1.379 . S
C954 N961 1.356 . S
C955 C954 1.363 . S
C955 C958 1.363 . S
N956 C958 1.356 . S
N956 H968 0.984 . S
N956 H969 0.985 . S
N957 C959 1.356 . S
N957 H962 0.984 . S
N957 H963 0.985 . S
C958 C952 1.379 . S
C958 C955 1.363 . S
C958 N956 1.356 . S
C959 C953 1.363 . S
C959 C954 1.379 . S
C959 N957 1.356 . S
N960 C952 1.356 . S
N960 H966 0.984 . S
N960 H967 0.984 . S
N961 C954 1.356 . S
N961 H964 0.984 . S
N961 H965 0.985 . S
H962 N957 0.984 . S
H963 N957 0.985 . S
H964 N961 0.984 . S
H965 N961 0.985 . S
H966 N960 0.984 . S
H967 N960 0.984 . S
H968 N956 0.984 . S
H969 N956 0.985 . S
C970 C971 1.363 . S
C970 C976 1.379 1_554 S
C970 N978 1.356 . S
C971 C970 1.363 . S
C971 C977 1.363 . S
C972 C973 1.363 . S
C972 C977 1.379 1_556 S
C972 N979 1.356 . S
C973 C972 1.363 . S
C973 C976 1.363 . S
N974 C976 1.356 . S
N974 H986 0.984 . S
N974 H987 0.985 . S
N975 C977 1.356 . S
N975 H980 0.984 . S
N975 H981 0.985 . S
C976 C970 1.379 1_556 S
C976 C973 1.363 . S
C976 N974 1.356 . S
C977 C971 1.363 . S
C977 C972 1.379 1_554 S
C977 N975 1.356 . S
N978 C970 1.356 . S
N978 H984 0.984 . S
N978 H985 0.984 . S
N979 C972 1.356 . S
N979 H982 0.984 . S
N979 H983 0.985 . S
H980 N975 0.984 . S
H981 N975 0.985 . S
H982 N979 0.984 . S
H983 N979 0.985 . S
H984 N978 0.984 . S
H985 N978 0.984 . S
H986 N974 0.984 . S
H987 N974 0.985 . S
C988 C989 1.363 . S
C988 C994 1.379 . S
C988 N996 1.356 . S
C989 C988 1.363 . S
C989 C995 1.363 . S
C990 C991 1.363 . S
C990 C995 1.379 . S
C990 N997 1.356 . S
C991 C990 1.363 . S
C991 C994 1.363 . S
N992 C994 1.356 . S
N992 H1004 0.984 . S
N992 H1005 0.985 . S
N993 C995 1.356 . S
N993 H998 0.984 . S
N993 H999 0.985 . S
C994 C988 1.379 . S
C994 C991 1.363 . S
C994 N992 1.356 . S
C995 C989 1.363 . S
C995 C990 1.379 . S
C995 N993 1.356 . S
N996 C988 1.356 . S
N996 H1002 0.984 . S
N996 H1003 0.984 . S
N997 C990 1.356 . S
N997 H1000 0.984 . S
N997 H1001 0.985 . S
H998 N993 0.984 . S
H999 N993 0.985 . S
H1000 N997 0.984 . S
H1001 N997 0.985 . S
H1002 N996 0.984 . S
H1003 N996 0.984 . S
H1004 N992 0.984 . S
H1005 N992 0.985 . S
C1006 C1007 1.362 . S
C1006 C1012 1.380 1_655 S
C1006 N1014 1.356 . S
C1007 C1006 1.362 . S
C1007 C1013 1.363 . S
C1008 C1009 1.363 1_655 S
C1008 C1013 1.379 . S
C1008 N1015 1.358 . S
C1009 C1008 1.363 1_455 S
C1009 C1012 1.363 . S
N1010 C1012 1.356 . S
N1010 H1022 0.984 . S
N1010 H1023 0.985 . S
N1011 C1013 1.356 . S
N1011 H1016 0.984 . S
N1011 H1017 0.985 . S
C1012 C1006 1.380 1_455 S
C1012 C1009 1.363 . S
C1012 N1010 1.356 . S
C1013 C1007 1.363 . S
C1013 C1008 1.379 . S
C1013 N1011 1.356 . S
N1014 C1006 1.356 . S
N1014 H1020 0.984 1_655 S
N1014 H1021 0.984 . S
N1015 C1008 1.358 . S
N1015 H1018 0.976 1_655 S
N1015 H1019 0.992 . S
H1016 N1011 0.984 . S
H1017 N1011 0.985 . S
H1018 N1015 0.976 1_455 S
H1019 N1015 0.992 . S
H1020 N1014 0.984 1_455 S
H1021 N1014 0.984 . S
H1022 N1010 0.984 . S
H1023 N1010 0.985 . S
C1024 C1025 1.363 . S
C1024 C1030 1.379 . S
C1024 N1032 1.356 . S
C1025 C1024 1.363 . S
C1025 C1031 1.363 . S
C1026 C1027 1.363 . S
C1026 C1031 1.379 . S
C1026 N1033 1.356 . S
C1027 C1026 1.363 . S
C1027 C1030 1.363 . S
N1028 C1030 1.356 . S
N1028 H1040 0.984 . S
N1028 H1041 0.985 . S
N1029 C1031 1.356 . S
N1029 H1034 0.984 . S
N1029 H1035 0.985 . S
C1030 C1024 1.379 . S
C1030 C1027 1.363 . S
C1030 N1028 1.356 . S
C1031 C1025 1.363 . S
C1031 C1026 1.379 . S
C1031 N1029 1.356 . S
N1032 C1024 1.356 . S
N1032 H1038 0.984 . S
N1032 H1039 0.984 . S
N1033 C1026 1.356 . S
N1033 H1036 0.984 . S
N1033 H1037 0.985 . S
H1034 N1029 0.984 . S
H1035 N1029 0.985 . S
H1036 N1033 0.984 . S
H1037 N1033 0.985 . S
H1038 N1032 0.984 . S
H1039 N1032 0.984 . S
H1040 N1028 0.984 . S
H1041 N1028 0.985 . S
C1042 C1043 1.363 . S
C1042 C1048 1.379 . S
C1042 N1050 1.356 . S
C1043 C1042 1.363 . S
C1043 C1049 1.363 . S
C1044 C1045 1.363 . S
C1044 C1049 1.379 . S
C1044 N1051 1.356 . S
C1045 C1044 1.363 . S
C1045 C1048 1.363 . S
N1046 C1048 1.356 . S
N1046 H1058 0.984 . S
N1046 H1059 0.985 . S
N1047 C1049 1.356 . S
N1047 H1052 0.984 . S
N1047 H1053 0.985 . S
C1048 C1042 1.379 . S
C1048 C1045 1.363 . S
C1048 N1046 1.356 . S
C1049 C1043 1.363 . S
C1049 C1044 1.379 . S
C1049 N1047 1.356 . S
N1050 C1042 1.356 . S
N1050 H1056 0.984 . S
N1050 H1057 0.984 . S
N1051 C1044 1.356 . S
N1051 H1054 0.984 . S
N1051 H1055 0.985 . S
H1052 N1047 0.984 . S
H1053 N1047 0.985 . S
H1054 N1051 0.984 . S
H1055 N1051 0.985 . S
H1056 N1050 0.984 . S
H1057 N1050 0.984 . S
H1058 N1046 0.984 . S
H1059 N1046 0.985 . S
C1060 C1061 1.363 . S
C1060 C1066 1.379 . S
C1060 N1068 1.356 . S
C1061 C1060 1.363 . S
C1061 C1067 1.363 . S
C1062 C1063 1.363 . S
C1062 C1067 1.379 . S
C1062 N1069 1.356 . S
C1063 C1062 1.363 . S
C1063 C1066 1.363 . S
N1064 C1066 1.356 . S
N1064 H1076 0.984 . S
N1064 H1077 0.985 . S
N1065 C1067 1.356 . S
N1065 H1070 0.984 . S
N1065 H1071 0.985 . S
C1066 C1060 1.379 . S
C1066 C1063 1.363 . S
C1066 N1064 1.356 . S
C1067 C1061 1.363 . S
C1067 C1062 1.379 . S
C1067 N1065 1.356 . S
N1068 C1060 1.356 . S
N1068 H1074 0.984 . S
N1068 H1075 0.984 . S
N1069 C1062 1.356 . S
N1069 H1072 0.984 . S
N1069 H1073 0.985 . S
H1070 N1065 0.984 . S
H1071 N1065 0.985 . S
H1072 N1069 0.984 . S
H1073 N1069 0.985 . S
H1074 N1068 0.984 . S
H1075 N1068 0.984 . S
H1076 N1064 0.984 . S
H1077 N1064 0.985 . S
C1078 C1079 1.363 . S
C1078 C1084 1.379 1_554 S
C1078 N1086 1.356 . S
C1079 C1078 1.363 . S
C1079 C1085 1.363 1_455 S
C1080 C1081 1.363 . S
C1080 C1085 1.379 1_556 S
C1080 N1087 1.356 . S
C1081 C1080 1.363 . S
C1081 C1084 1.363 1_655 S
N1082 C1084 1.356 . S
N1082 H1094 0.984 . S
N1082 H1095 0.985 1_455 S
N1083 C1085 1.356 . S
N1083 H1088 0.984 1_655 S
N1083 H1089 0.985 . S
C1084 C1078 1.379 1_556 S
C1084 C1081 1.363 1_455 S
C1084 N1082 1.356 . S
C1085 C1079 1.363 1_655 S
C1085 C1080 1.379 1_554 S
C1085 N1083 1.356 . S
N1086 C1078 1.356 . S
N1086 H1092 0.984 . S
N1086 H1093 0.984 . S
N1087 C1080 1.356 . S
N1087 H1090 0.984 . S
N1087 H1091 0.985 . S
H1088 N1083 0.984 1_455 S
H1089 N1083 0.985 . S
H1090 N1087 0.984 . S
H1091 N1087 0.985 . S
H1092 N1086 0.984 . S
H1093 N1086 0.984 . S
H1094 N1082 0.984 . S
H1095 N1082 0.985 1_655 S
C1096 C1097 1.363 . S
C1096 C1102 1.379 . S
C1096 N1104 1.356 . S
C1097 C1096 1.363 . S
C1097 C1103 1.363 . S
C1098 C1099 1.363 . S
C1098 C1103 1.379 . S
C1098 N1105 1.356 . S
C1099 C1098 1.363 . S
C1099 C1102 1.363 . S
N1100 C1102 1.356 . S
N1100 H1112 0.984 . S
N1100 H1113 0.985 . S
N1101 C1103 1.356 . S
N1101 H1106 0.984 . S
N1101 H1107 0.985 . S
C1102 C1096 1.379 . S
C1102 C1099 1.363 . S
C1102 N1100 1.356 . S
C1103 C1097 1.363 . S
C1103 C1098 1.379 . S
C1103 N1101 1.356 . S
N1104 C1096 1.356 . S
N1104 H1110 0.984 . S
N1104 H1111 0.984 . S
N1105 C1098 1.356 . S
N1105 H1108 0.984 . S
N1105 H1109 0.985 . S
H1106 N1101 0.984 . S
H1107 N1101 0.985 . S
H1108 N1105 0.984 . S
H1109 N1105 0.985 . S
H1110 N1104 0.984 . S
H1111 N1104 0.984 . S
H1112 N1100 0.984 . S
H1113 N1100 0.985 . S
C1114 C1115 1.363 1_455 S
C1114 C1120 1.379 . S
C1114 N1122 1.356 . S
C1115 C1114 1.363 1_655 S
C1115 C1121 1.363 . S
C1116 C1117 1.363 1_655 S
C1116 C1121 1.379 . S
C1116 N1123 1.356 . S
C1117 C1116 1.363 1_455 S
C1117 C1120 1.363 . S
N1118 C1120 1.356 . S
N1118 H1130 0.984 . S
N1118 H1131 0.985 . S
N1119 C1121 1.356 . S
N1119 H1124 0.984 . S
N1119 H1125 0.985 . S
C1120 C1114 1.379 . S
C1120 C1117 1.363 . S
C1120 N1118 1.356 . S
C1121 C1115 1.363 . S
C1121 C1116 1.379 . S
C1121 N1119 1.356 . S
N1122 C1114 1.356 . S
N1122 H1128 0.984 . S
N1122 H1129 0.984 1_455 S
N1123 C1116 1.356 . S
N1123 H1126 0.984 1_655 S
N1123 H1127 0.985 . S
H1124 N1119 0.984 . S
H1125 N1119 0.985 . S
H1126 N1123 0.984 1_455 S
H1127 N1123 0.985 . S
H1128 N1122 0.984 . S
H1129 N1122 0.984 1_655 S
H1130 N1118 0.984 . S
H1131 N1118 0.985 . S
C1132 C1133 1.363 . S
C1132 C1138 1.379 . S
C1132 N1140 1.356 . S
C1133 C1132 1.363 . S
C1133 C1139 1.363 . S
C1134 C1135 1.363 . S
C1134 C1139 1.379 . S
C1134 N1141 1.356 . S
C1135 C1134 1.363 . S
C1135 C1138 1.363 . S
N1136 C1138 1.356 . S
N1136 H1148 0.984 . S
N1136 H1149 0.985 . S
N1137 C1139 1.356 . S
N1137 H1142 0.984 . S
N1137 H1143 0.985 . S
C1138 C1132 1.379 . S
C1138 C1135 1.363 . S
C1138 N1136 1.356 . S
C1139 C1133 1.363 . S
C1139 C1134 1.379 . S
C1139 N1137 1.356 . S
N1140 C1132 1.356 . S
N1140 H1146 0.984 . S
N1140 H1147 0.984 . S
N1141 C1134 1.356 . S
N1141 H1144 0.984 . S
N1141 H1145 0.985 . S
H1142 N1137 0.984 . S
H1143 N1137 0.985 . S
H1144 N1141 0.984 . S
H1145 N1141 0.985 . S
H1146 N1140 0.984 . S
H1147 N1140 0.984 . S
H1148 N1136 0.984 . S
H1149 N1136 0.985 . S
C1150 C1151 1.363 . S
C1150 C1156 1.379 1_554 S
C1150 N1158 1.356 . S
C1151 C1150 1.363 . S
C1151 C1157 1.363 . S
C1152 C1153 1.363 . S
C1152 C1157 1.379 1_556 S
C1152 N1159 1.356 . S
C1153 C1152 1.363 . S
C1153 C1156 1.363 . S
N1154 C1156 1.356 . S
N1154 H1166 0.984 . S
N1154 H1167 0.985 . S
N1155 C1157 1.356 . S
N1155 H1160 0.984 . S
N1155 H1161 0.985 . S
C1156 C1150 1.379 1_556 S
C1156 C1153 1.363 . S
C1156 N1154 1.356 . S
C1157 C1151 1.363 . S
C1157 C1152 1.379 1_554 S
C1157 N1155 1.356 . S
N1158 C1150 1.356 . S
N1158 H1164 0.984 . S
N1158 H1165 0.984 . S
N1159 C1152 1.356 . S
N1159 H1162 0.984 . S
N1159 H1163 0.985 . S
H1160 N1155 0.984 . S
H1161 N1155 0.985 . S
H1162 N1159 0.984 . S
H1163 N1159 0.985 . S
H1164 N1158 0.984 . S
H1165 N1158 0.984 . S
H1166 N1154 0.984 . S
H1167 N1154 0.985 . S
C1168 C1169 1.363 . S
C1168 C1174 1.379 . S
C1168 N1176 1.356 . S
C1169 C1168 1.363 . S
C1169 C1175 1.363 . S
C1170 C1171 1.363 . S
C1170 C1175 1.379 . S
C1170 N1177 1.356 . S
C1171 C1170 1.363 . S
C1171 C1174 1.363 . S
N1172 C1174 1.356 . S
N1172 H1184 0.984 . S
N1172 H1185 0.985 . S
N1173 C1175 1.356 . S
N1173 H1178 0.984 . S
N1173 H1179 0.985 . S
C1174 C1168 1.379 . S
C1174 C1171 1.363 . S
C1174 N1172 1.356 . S
C1175 C1169 1.363 . S
C1175 C1170 1.379 . S
C1175 N1173 1.356 . S
N1176 C1168 1.356 . S
N1176 H1182 0.984 . S
N1176 H1183 0.984 . S
N1177 C1170 1.356 . S
N1177 H1180 0.984 . S
N1177 H1181 0.985 . S
H1178 N1173 0.984 . S
H1179 N1173 0.985 . S
H1180 N1177 0.984 . S
H1181 N1177 0.985 . S
H1182 N1176 0.984 . S
H1183 N1176 0.984 . S
H1184 N1172 0.984 . S
H1185 N1172 0.985 . S
C1186 C1187 1.363 . S
C1186 C1192 1.379 . S
C1186 N1194 1.356 . S
C1187 C1186 1.363 . S
C1187 C1193 1.363 . S
C1188 C1189 1.363 . S
C1188 C1193 1.379 . S
C1188 N1195 1.356 . S
C1189 C1188 1.363 . S
C1189 C1192 1.363 . S
N1190 C1192 1.356 . S
N1190 H1202 0.984 . S
N1190 H1203 0.985 . S
N1191 C1193 1.356 . S
N1191 H1196 0.984 . S
N1191 H1197 0.985 . S
C1192 C1186 1.379 . S
C1192 C1189 1.363 . S
C1192 N1190 1.356 . S
C1193 C1187 1.363 . S
C1193 C1188 1.379 . S
C1193 N1191 1.356 . S
N1194 C1186 1.356 . S
N1194 H1200 0.984 . S
N1194 H1201 0.984 . S
N1195 C1188 1.356 . S
N1195 H1198 0.984 . S
N1195 H1199 0.985 . S
H1196 N1191 0.984 . S
H1197 N1191 0.985 . S
H1198 N1195 0.984 . S
H1199 N1195 0.985 . S
H1200 N1194 0.984 . S
H1201 N1194 0.984 . S
H1202 N1190 0.984 . S
H1203 N1190 0.985 . S
C1204 C1205 1.363 . S
C1204 C1210 1.379 . S
C1204 N1212 1.356 . S
C1205 C1204 1.363 . S
C1205 C1211 1.363 . S
C1206 C1207 1.363 . S
C1206 C1211 1.379 . S
C1206 N1213 1.356 . S
C1207 C1206 1.363 . S
C1207 C1210 1.363 . S
N1208 C1210 1.356 . S
N1208 H1220 0.984 . S
N1208 H1221 0.985 . S
N1209 C1211 1.356 . S
N1209 H1214 0.984 . S
N1209 H1215 0.985 . S
C1210 C1204 1.379 . S
C1210 C1207 1.363 . S
C1210 N1208 1.356 . S
C1211 C1205 1.363 . S
C1211 C1206 1.379 . S
C1211 N1209 1.356 . S
N1212 C1204 1.356 . S
N1212 H1218 0.984 . S
N1212 H1219 0.984 . S
N1213 C1206 1.356 . S
N1213 H1216 0.984 . S
N1213 H1217 0.985 . S
H1214 N1209 0.984 . S
H1215 N1209 0.985 . S
H1216 N1213 0.984 . S
H1217 N1213 0.985 . S
H1218 N1212 0.984 . S
H1219 N1212 0.984 . S
H1220 N1208 0.984 . S
H1221 N1208 0.985 . S
C1222 C1223 1.363 . S
C1222 C1228 1.379 1_556 S
C1222 N1230 1.356 . S
C1223 C1222 1.363 . S
C1223 C1229 1.363 1_655 S
C1224 C1225 1.363 . S
C1224 C1229 1.379 1_554 S
C1224 N1231 1.356 . S
C1225 C1224 1.363 . S
C1225 C1228 1.363 1_455 S
N1226 C1228 1.357 . S
N1226 H1238 0.988 . S
N1226 H1239 0.981 1_655 S
N1227 C1229 1.356 . S
N1227 H1232 0.984 1_455 S
N1227 H1233 0.985 . S
C1228 C1222 1.379 1_554 S
C1228 C1225 1.363 1_655 S
C1228 N1226 1.357 . S
C1229 C1223 1.363 1_455 S
C1229 C1224 1.379 1_556 S
C1229 N1227 1.356 . S
N1230 C1222 1.356 . S
N1230 H1236 0.984 . S
N1230 H1237 0.984 . S
N1231 C1224 1.356 . S
N1231 H1234 0.984 . S
N1231 H1235 0.985 . S
H1232 N1227 0.984 1_655 S
H1233 N1227 0.985 . S
H1234 N1231 0.984 . S
H1235 N1231 0.985 . S
H1236 N1230 0.984 . S
H1237 N1230 0.984 . S
H1238 N1226 0.988 . S
H1239 N1226 0.981 1_455 S
C1240 C1241 1.363 . S
C1240 C1246 1.379 . S
C1240 N1248 1.356 . S
C1241 C1240 1.363 . S
C1241 C1247 1.363 . S
C1242 C1243 1.363 . S
C1242 C1247 1.379 . S
C1242 N1249 1.356 . S
C1243 C1242 1.363 . S
C1243 C1246 1.363 . S
N1244 C1246 1.356 . S
N1244 H1256 0.984 . S
N1244 H1257 0.985 . S
N1245 C1247 1.356 . S
N1245 H1250 0.984 . S
N1245 H1251 0.985 . S
C1246 C1240 1.379 . S
C1246 C1243 1.363 . S
C1246 N1244 1.356 . S
C1247 C1241 1.363 . S
C1247 C1242 1.379 . S
C1247 N1245 1.356 . S
N1248 C1240 1.356 . S
N1248 H1254 0.984 . S
N1248 H1255 0.984 . S
N1249 C1242 1.356 . S
N1249 H1252 0.984 . S
N1249 H1253 0.985 . S
H1250 N1245 0.984 . S
H1251 N1245 0.985 . S
H1252 N1249 0.984 . S
H1253 N1249 0.985 . S
H1254 N1248 0.984 . S
H1255 N1248 0.984 . S
H1256 N1244 0.984 . S
H1257 N1244 0.985 . S
C1258 C1259 1.363 . S
C1258 C1264 1.379 1_655 S
C1258 N1266 1.356 . S
C1259 C1258 1.363 . S
C1259 C1265 1.363 . S
C1260 C1261 1.363 . S
C1260 C1265 1.379 1_455 S
C1260 N1267 1.356 . S
C1261 C1260 1.363 . S
C1261 C1264 1.363 . S
N1262 C1264 1.356 . S
N1262 H1274 0.984 . S
N1262 H1275 0.985 . S
N1263 C1265 1.356 . S
N1263 H1268 0.984 . S
N1263 H1269 0.985 . S
C1264 C1258 1.379 1_455 S
C1264 C1261 1.363 . S
C1264 N1262 1.356 . S
C1265 C1259 1.363 . S
C1265 C1260 1.379 1_655 S
C1265 N1263 1.356 . S
N1266 C1258 1.356 . S
N1266 H1272 0.984 . S
N1266 H1273 0.984 . S
N1267 C1260 1.356 . S
N1267 H1270 0.984 . S
N1267 H1271 0.985 . S
H1268 N1263 0.984 . S
H1269 N1263 0.985 . S
H1270 N1267 0.984 . S
H1271 N1267 0.985 . S
H1272 N1266 0.984 . S
H1273 N1266 0.984 . S
H1274 N1262 0.984 . S
H1275 N1262 0.985 . S
C1276 C1277 1.363 . S
C1276 C1282 1.379 . S
C1276 N1284 1.356 . S
C1277 C1276 1.363 . S
C1277 C1283 1.363 . S
C1278 C1279 1.363 . S
C1278 C1283 1.379 . S
C1278 N1285 1.356 . S
C1279 C1278 1.363 . S
C1279 C1282 1.363 . S
N1280 C1282 1.356 . S
N1280 H1292 0.984 . S
N1280 H1293 0.985 . S
N1281 C1283 1.356 . S
N1281 H1286 0.984 . S
N1281 H1287 0.985 . S
C1282 C1276 1.379 . S
C1282 C1279 1.363 . S
C1282 N1280 1.356 . S
C1283 C1277 1.363 . S
C1283 C1278 1.379 . S
C1283 N1281 1.356 . S
N1284 C1276 1.356 . S
N1284 H1290 0.984 . S
N1284 H1291 0.984 . S
N1285 C1278 1.356 . S
N1285 H1288 0.984 . S
N1285 H1289 0.985 . S
H1286 N1281 0.984 . S
H1287 N1281 0.985 . S
H1288 N1285 0.984 . S
H1289 N1285 0.985 . S
H1290 N1284 0.984 . S
H1291 N1284 0.984 . S
H1292 N1280 0.984 . S
H1293 N1280 0.985 . S
C1294 C1295 1.363 . S
C1294 C1300 1.379 1_554 S
C1294 N1302 1.356 . S
C1295 C1294 1.363 . S
C1295 C1301 1.363 . S
C1296 C1297 1.363 . S
C1296 C1301 1.379 1_556 S
C1296 N1303 1.356 . S
C1297 C1296 1.363 . S
C1297 C1300 1.363 . S
N1298 C1300 1.356 . S
N1298 H1310 0.984 . S
N1298 H1311 0.985 . S
N1299 C1301 1.356 . S
N1299 H1304 0.984 . S
N1299 H1305 0.985 . S
C1300 C1294 1.379 1_556 S
C1300 C1297 1.363 . S
C1300 N1298 1.356 . S
C1301 C1295 1.363 . S
C1301 C1296 1.379 1_554 S
C1301 N1299 1.356 . S
N1302 C1294 1.356 . S
N1302 H1308 0.984 . S
N1302 H1309 0.984 . S
N1303 C1296 1.356 . S
N1303 H1306 0.984 . S
N1303 H1307 0.985 . S
H1304 N1299 0.984 . S
H1305 N1299 0.985 . S
H1306 N1303 0.984 . S
H1307 N1303 0.985 . S
H1308 N1302 0.984 . S
H1309 N1302 0.984 . S
H1310 N1298 0.984 . S
H1311 N1298 0.985 . S
C1312 C1313 1.363 . S
C1312 C1318 1.379 . S
C1312 N1320 1.356 . S
C1313 C1312 1.363 . S
C1313 C1319 1.363 . S
C1314 C1315 1.363 . S
C1314 C1319 1.379 . S
C1314 N1321 1.356 . S
C1315 C1314 1.363 . S
C1315 C1318 1.363 . S
N1316 C1318 1.356 . S
N1316 H1328 0.984 . S
N1316 H1329 0.985 . S
N1317 C1319 1.356 . S
N1317 H1322 0.984 . S
N1317 H1323 0.985 . S
C1318 C1312 1.379 . S
C1318 C1315 1.363 . S
C1318 N1316 1.356 . S
C1319 C1313 1.363 . S
C1319 C1314 1.379 . S
C1319 N1317 1.356 . S
N1320 C1312 1.356 . S
N1320 H1326 0.984 1_554 S
N1320 H1327 0.984 . S
N1321 C1314 1.356 . S
N1321 H1324 0.984 . S
N1321 H1325 0.985 . S
H1322 N1317 0.984 . S
H1323 N1317 0.985 . S
H1324 N1321 0.984 . S
H1325 N1321 0.985 . S
H1326 N1320 0.984 1_556 S
H1327 N1320 0.984 . S
H1328 N1316 0.984 . S
H1329 N1316 0.985 . S
C1330 C1331 1.363 . S
C1330 C1336 1.379 . S
C1330 N1338 1.356 . S
C1331 C1330 1.363 . S
C1331 C1337 1.363 . S
C1332 C1333 1.363 . S
C1332 C1337 1.379 . S
C1332 N1339 1.356 . S
C1333 C1332 1.363 . S
C1333 C1336 1.363 . S
N1334 C1336 1.356 . S
N1334 H1346 0.984 . S
N1334 H1347 0.985 . S
N1335 C1337 1.356 . S
N1335 H1340 0.984 . S
N1335 H1341 0.985 . S
C1336 C1330 1.379 . S
C1336 C1333 1.363 . S
C1336 N1334 1.356 . S
C1337 C1331 1.363 . S
C1337 C1332 1.379 . S
C1337 N1335 1.356 . S
N1338 C1330 1.356 . S
N1338 H1344 0.984 . S
N1338 H1345 0.984 . S
N1339 C1332 1.356 . S
N1339 H1342 0.984 . S
N1339 H1343 0.985 . S
H1340 N1335 0.984 . S
H1341 N1335 0.985 . S
H1342 N1339 0.984 . S
H1343 N1339 0.985 . S
H1344 N1338 0.984 . S
H1345 N1338 0.984 . S
H1346 N1334 0.984 . S
H1347 N1334 0.985 . S
C1348 C1349 1.363 . S
C1348 C1354 1.379 . S
C1348 N1356 1.356 . S
C1349 C1348 1.363 . S
C1349 C1355 1.363 . S
C1350 C1351 1.363 . S
C1350 C1355 1.379 . S
C1350 N1357 1.356 . S
C1351 C1350 1.363 . S
C1351 C1354 1.363 . S
N1352 C1354 1.356 . S
N1352 H1364 0.984 . S
N1352 H1365 0.985 . S
N1353 C1355 1.356 . S
N1353 H1358 0.984 . S
N1353 H1359 0.985 . S
C1354 C1348 1.379 . S
C1354 C1351 1.363 . S
C1354 N1352 1.356 . S
C1355 C1349 1.363 . S
C1355 C1350 1.379 . S
C1355 N1353 1.356 . S
N1356 C1348 1.356 . S
N1356 H1362 0.984 . S
N1356 H1363 0.984 . S
N1357 C1350 1.356 . S
N1357 H1360 0.984 . S
N1357 H1361 0.985 . S
H1358 N1353 0.984 . S
H1359 N1353 0.985 . S
H1360 N1357 0.984 . S
H1361 N1357 0.985 . S
H1362 N1356 0.984 . S
H1363 N1356 0.984 . S
H1364 N1352 0.984 . S
H1365 N1352 0.985 . S
C1366 C1367 1.363 . S
C1366 C1372 1.379 . S
C1366 N1374 1.356 . S
C1367 C1366 1.363 . S
C1367 C1373 1.363 . S
C1368 C1369 1.363 . S
C1368 C1373 1.379 . S
C1368 N1375 1.356 . S
C1369 C1368 1.363 . S
C1369 C1372 1.363 . S
N1370 C1372 1.356 . S
N1370 H1382 0.984 . S
N1370 H1383 0.985 . S
N1371 C1373 1.356 . S
N1371 H1376 0.984 . S
N1371 H1377 0.985 . S
C1372 C1366 1.379 . S
C1372 C1369 1.363 . S
C1372 N1370 1.356 . S
C1373 C1367 1.363 . S
C1373 C1368 1.379 . S
C1373 N1371 1.356 . S
N1374 C1366 1.356 . S
N1374 H1380 0.984 . S
N1374 H1381 0.984 . S
N1375 C1368 1.356 . S
N1375 H1378 0.984 . S
N1375 H1379 0.985 . S
H1376 N1371 0.984 . S
H1377 N1371 0.985 . S
H1378 N1375 0.984 . S
H1379 N1375 0.985 . S
H1380 N1374 0.984 . S
H1381 N1374 0.984 . S
H1382 N1370 0.984 . S
H1383 N1370 0.985 . S
C1384 C1385 1.363 . S
C1384 C1390 1.379 . S
C1384 N1392 1.356 . S
C1385 C1384 1.363 . S
C1385 C1391 1.363 . S
C1386 C1387 1.363 . S
C1386 C1391 1.379 . S
C1386 N1393 1.356 . S
C1387 C1386 1.363 . S
C1387 C1390 1.363 . S
N1388 C1390 1.356 . S
N1388 H1400 0.984 . S
N1388 H1401 0.985 . S
N1389 C1391 1.356 . S
N1389 H1394 0.984 . S
N1389 H1395 0.985 . S
C1390 C1384 1.379 . S
C1390 C1387 1.363 . S
C1390 N1388 1.356 . S
C1391 C1385 1.363 . S
C1391 C1386 1.379 . S
C1391 N1389 1.356 . S
N1392 C1384 1.356 . S
N1392 H1398 0.984 . S
N1392 H1399 0.984 . S
N1393 C1386 1.356 . S
N1393 H1396 0.984 . S
N1393 H1397 0.985 . S
H1394 N1389 0.984 . S
H1395 N1389 0.985 . S
H1396 N1393 0.984 . S
H1397 N1393 0.985 . S
H1398 N1392 0.984 . S
H1399 N1392 0.984 . S
H1400 N1388 0.984 . S
H1401 N1388 0.985 . S
C1402 C1403 1.363 . S
C1402 C1408 1.379 . S
C1402 N1410 1.356 . S
C1403 C1402 1.363 . S
C1403 C1409 1.363 . S
C1404 C1405 1.363 . S
C1404 C1409 1.379 . S
C1404 N1411 1.356 . S
C1405 C1404 1.363 . S
C1405 C1408 1.363 . S
N1406 C1408 1.356 . S
N1406 H1418 0.984 . S
N1406 H1419 0.985 . S
N1407 C1409 1.356 . S
N1407 H1412 0.984 . S
N1407 H1413 0.985 . S
C1408 C1402 1.379 . S
C1408 C1405 1.363 . S
C1408 N1406 1.356 . S
C1409 C1403 1.363 . S
C1409 C1404 1.379 . S
C1409 N1407 1.356 . S
N1410 C1402 1.356 . S
N1410 H1416 0.984 . S
N1410 H1417 0.984 . S
N1411 C1404 1.356 . S
N1411 H1414 0.984 . S
N1411 H1415 0.985 . S
H1412 N1407 0.984 . S
H1413 N1407 0.985 . S
H1414 N1411 0.984 . S
H1415 N1411 0.985 . S
H1416 N1410 0.984 . S
H1417 N1410 0.984 . S
H1418 N1406 0.984 . S
H1419 N1406 0.985 . S
C1420 C1421 1.363 . S
C1420 C1426 1.379 . S
C1420 N1428 1.356 . S
C1421 C1420 1.363 . S
C1421 C1427 1.363 . S
C1422 C1423 1.363 . S
C1422 C1427 1.379 . S
C1422 N1429 1.356 . S
C1423 C1422 1.363 . S
C1423 C1426 1.363 . S
N1424 C1426 1.356 . S
N1424 H1436 0.984 1_556 S
N1424 H1437 0.986 . S
N1425 C1427 1.356 . S
N1425 H1430 0.984 . S
N1425 H1431 0.985 . S
C1426 C1420 1.379 . S
C1426 C1423 1.363 . S
C1426 N1424 1.356 . S
C1427 C1421 1.363 . S
C1427 C1422 1.379 . S
C1427 N1425 1.356 . S
N1428 C1420 1.356 . S
N1428 H1434 0.984 . S
N1428 H1435 0.984 . S
N1429 C1422 1.356 . S
N1429 H1432 0.984 . S
N1429 H1433 0.985 . S
H1430 N1425 0.984 . S
H1431 N1425 0.985 . S
H1432 N1429 0.984 . S
H1433 N1429 0.985 . S
H1434 N1428 0.984 . S
H1435 N1428 0.984 . S
H1436 N1424 0.984 1_554 S
H1437 N1424 0.986 . S
C1438 C1439 1.363 . S
C1438 C1444 1.379 . S
C1438 N1446 1.356 . S
C1439 C1438 1.363 . S
C1439 C1445 1.363 . S
C1440 C1441 1.363 . S
C1440 C1445 1.379 . S
C1440 N1447 1.356 . S
C1441 C1440 1.363 . S
C1441 C1444 1.363 . S
N1442 C1444 1.356 . S
N1442 H1454 0.984 . S
N1442 H1455 0.985 . S
N1443 C1445 1.356 . S
N1443 H1448 0.984 . S
N1443 H1449 0.985 . S
C1444 C1438 1.379 . S
C1444 C1441 1.363 . S
C1444 N1442 1.356 . S
C1445 C1439 1.363 . S
C1445 C1440 1.379 . S
C1445 N1443 1.356 . S
N1446 C1438 1.356 . S
N1446 H1452 0.984 1_554 S
N1446 H1453 0.984 . S
N1447 C1440 1.356 . S
N1447 H1450 0.984 . S
N1447 H1451 0.985 . S
H1448 N1443 0.984 . S
H1449 N1443 0.985 . S
H1450 N1447 0.984 . S
H1451 N1447 0.985 . S
H1452 N1446 0.984 1_556 S
H1453 N1446 0.984 . S
H1454 N1442 0.984 . S
H1455 N1442 0.985 . S
C1456 C1457 1.363 . S
C1456 C1462 1.379 . S
C1456 N1464 1.356 . S
C1457 C1456 1.363 . S
C1457 C1463 1.363 . S
C1458 C1459 1.363 . S
C1458 C1463 1.379 . S
C1458 N1465 1.356 . S
C1459 C1458 1.363 . S
C1459 C1462 1.363 . S
N1460 C1462 1.356 . S
N1460 H1472 0.984 . S
N1460 H1473 0.985 . S
N1461 C1463 1.356 . S
N1461 H1466 0.984 . S
N1461 H1467 0.985 1_556 S
C1462 C1456 1.379 . S
C1462 C1459 1.363 . S
C1462 N1460 1.356 . S
C1463 C1457 1.363 . S
C1463 C1458 1.379 . S
C1463 N1461 1.356 . S
N1464 C1456 1.356 . S
N1464 H1470 0.984 . S
N1464 H1471 0.984 . S
N1465 C1458 1.356 . S
N1465 H1468 0.984 . S
N1465 H1469 0.985 . S
H1466 N1461 0.984 . S
H1467 N1461 0.985 1_554 S
H1468 N1465 0.984 . S
H1469 N1465 0.985 . S
H1470 N1464 0.984 . S
H1471 N1464 0.984 . S
H1472 N1460 0.984 . S
H1473 N1460 0.985 . S
C1474 C1475 1.363 . S
C1474 C1480 1.379 . S
C1474 N1482 1.356 . S
C1475 C1474 1.363 . S
C1475 C1481 1.363 . S
C1476 C1477 1.363 . S
C1476 C1481 1.379 . S
C1476 N1483 1.356 . S
C1477 C1476 1.363 . S
C1477 C1480 1.363 . S
N1478 C1480 1.356 . S
N1478 H1490 0.984 . S
N1478 H1491 0.985 . S
N1479 C1481 1.356 . S
N1479 H1484 0.984 . S
N1479 H1485 0.985 . S
C1480 C1474 1.379 . S
C1480 C1477 1.363 . S
C1480 N1478 1.356 . S
C1481 C1475 1.363 . S
C1481 C1476 1.379 . S
C1481 N1479 1.356 . S
N1482 C1474 1.356 . S
N1482 H1488 0.984 . S
N1482 H1489 0.984 . S
N1483 C1476 1.356 . S
N1483 H1486 0.984 . S
N1483 H1487 0.985 . S
H1484 N1479 0.984 . S
H1485 N1479 0.985 . S
H1486 N1483 0.984 . S
H1487 N1483 0.985 . S
H1488 N1482 0.984 . S
H1489 N1482 0.984 . S
H1490 N1478 0.984 . S
H1491 N1478 0.985 . S
C1492 C1493 1.363 . S
C1492 C1498 1.379 . S
C1492 N1500 1.356 . S
C1493 C1492 1.363 . S
C1493 C1499 1.363 . S
C1494 C1495 1.363 . S
C1494 C1499 1.379 . S
C1494 N1501 1.356 . S
C1495 C1494 1.363 . S
C1495 C1498 1.363 . S
N1496 C1498 1.356 . S
N1496 H1508 0.984 . S
N1496 H1509 0.985 . S
N1497 C1499 1.356 . S
N1497 H1502 0.984 . S
N1497 H1503 0.985 . S
C1498 C1492 1.379 . S
C1498 C1495 1.363 . S
C1498 N1496 1.356 . S
C1499 C1493 1.363 . S
C1499 C1494 1.379 . S
C1499 N1497 1.356 . S
N1500 C1492 1.356 . S
N1500 H1506 0.984 . S
N1500 H1507 0.984 . S
N1501 C1494 1.356 . S
N1501 H1504 0.984 . S
N1501 H1505 0.985 . S
H1502 N1497 0.984 . S
H1503 N1497 0.985 . S
H1504 N1501 0.984 . S
H1505 N1501 0.985 . S
H1506 N1500 0.984 . S
H1507 N1500 0.984 . S
H1508 N1496 0.984 . S
H1509 N1496 0.985 . S
C1510 C1511 1.363 . S
C1510 C1516 1.379 . S
C1510 N1518 1.356 . S
C1511 C1510 1.363 . S
C1511 C1517 1.363 . S
C1512 C1513 1.363 . S
C1512 C1517 1.379 . S
C1512 N1519 1.356 . S
C1513 C1512 1.363 . S
C1513 C1516 1.363 . S
N1514 C1516 1.356 . S
N1514 H1526 0.984 . S
N1514 H1527 0.985 . S
N1515 C1517 1.356 . S
N1515 H1520 0.984 . S
N1515 H1521 0.985 . S
C1516 C1510 1.379 . S
C1516 C1513 1.363 . S
C1516 N1514 1.356 . S
C1517 C1511 1.363 . S
C1517 C1512 1.379 . S
C1517 N1515 1.356 . S
N1518 C1510 1.356 . S
N1518 H1524 0.984 . S
N1518 H1525 0.984 . S
N1519 C1512 1.356 . S
N1519 H1522 0.984 . S
N1519 H1523 0.985 . S
H1520 N1515 0.984 . S
H1521 N1515 0.985 . S
H1522 N1519 0.984 . S
H1523 N1519 0.985 . S
H1524 N1518 0.984 . S
H1525 N1518 0.984 . S
H1526 N1514 0.984 . S
H1527 N1514 0.985 . S
C1528 C1529 1.363 . S
C1528 C1534 1.379 . S
C1528 N1536 1.356 . S
C1529 C1528 1.363 . S
C1529 C1535 1.363 . S
C1530 C1531 1.363 . S
C1530 C1535 1.379 . S
C1530 N1537 1.356 . S
C1531 C1530 1.363 . S
C1531 C1534 1.363 . S
N1532 C1534 1.356 . S
N1532 H1544 0.984 . S
N1532 H1545 0.985 . S
N1533 C1535 1.356 . S
N1533 H1538 0.984 . S
N1533 H1539 0.985 . S
C1534 C1528 1.379 . S
C1534 C1531 1.363 . S
C1534 N1532 1.356 . S
C1535 C1529 1.363 . S
C1535 C1530 1.379 . S
C1535 N1533 1.356 . S
N1536 C1528 1.356 . S
N1536 H1542 0.984 . S
N1536 H1543 0.984 . S
N1537 C1530 1.356 . S
N1537 H1540 0.984 . S
N1537 H1541 0.985 . S
H1538 N1533 0.984 . S
H1539 N1533 0.985 . S
H1540 N1537 0.984 . S
H1541 N1537 0.985 . S
H1542 N1536 0.984 . S
H1543 N1536 0.984 . S
H1544 N1532 0.984 . S
H1545 N1532 0.985 . S
C1546 C1547 1.363 . S
C1546 C1552 1.379 . S
C1546 N1554 1.356 . S
C1547 C1546 1.363 . S
C1547 C1553 1.363 . S
C1548 C1549 1.363 . S
C1548 C1553 1.379 . S
C1548 N1555 1.356 . S
C1549 C1548 1.363 . S
C1549 C1552 1.363 . S
N1550 C1552 1.356 . S
N1550 H1562 0.984 . S
N1550 H1563 0.985 . S
N1551 C1553 1.356 . S
N1551 H1556 0.984 . S
N1551 H1557 0.985 . S
C1552 C1546 1.379 . S
C1552 C1549 1.363 . S
C1552 N1550 1.356 . S
C1553 C1547 1.363 . S
C1553 C1548 1.379 . S
C1553 N1551 1.356 . S
N1554 C1546 1.356 . S
N1554 H1560 0.984 . S
N1554 H1561 0.984 . S
N1555 C1548 1.356 . S
N1555 H1558 0.984 . S
N1555 H1559 0.985 . S
H1556 N1551 0.984 . S
H1557 N1551 0.985 . S
H1558 N1555 0.984 . S
H1559 N1555 0.985 . S
H1560 N1554 0.984 . S
H1561 N1554 0.984 . S
H1562 N1550 0.984 . S
H1563 N1550 0.985 . S
C1564 C1565 1.363 . S
C1564 C1570 1.379 . S
C1564 N1572 1.356 . S
C1565 C1564 1.363 . S
C1565 C1571 1.363 . S
C1566 C1567 1.363 . S
C1566 C1571 1.379 . S
C1566 N1573 1.356 . S
C1567 C1566 1.363 . S
C1567 C1570 1.363 . S
N1568 C1570 1.356 . S
N1568 H1580 0.984 . S
N1568 H1581 0.985 . S
N1569 C1571 1.356 . S
N1569 H1574 0.984 . S
N1569 H1575 0.985 . S
C1570 C1564 1.379 . S
C1570 C1567 1.363 . S
C1570 N1568 1.356 . S
C1571 C1565 1.363 . S
C1571 C1566 1.379 . S
C1571 N1569 1.356 . S
N1572 C1564 1.356 . S
N1572 H1578 0.984 . S
N1572 H1579 0.984 . S
N1573 C1566 1.356 . S
N1573 H1576 0.984 . S
N1573 H1577 0.985 . S
H1574 N1569 0.984 . S
H1575 N1569 0.985 . S
H1576 N1573 0.984 . S
H1577 N1573 0.985 . S
H1578 N1572 0.984 . S
H1579 N1572 0.984 . S
H1580 N1568 0.984 . S
H1581 N1568 0.985 . S
C1582 C1583 1.363 . S
C1582 C1588 1.379 . S
C1582 N1590 1.356 . S
C1583 C1582 1.363 . S
C1583 C1589 1.363 . S
C1584 C1585 1.363 . S
C1584 C1589 1.379 . S
C1584 N1591 1.356 . S
C1585 C1584 1.363 . S
C1585 C1588 1.363 . S
N1586 C1588 1.356 . S
N1586 H1598 0.984 . S
N1586 H1599 0.985 . S
N1587 C1589 1.356 . S
N1587 H1592 0.984 . S
N1587 H1593 0.985 . S
C1588 C1582 1.379 . S
C1588 C1585 1.363 . S
C1588 N1586 1.356 . S
C1589 C1583 1.363 . S
C1589 C1584 1.379 . S
C1589 N1587 1.356 . S
N1590 C1582 1.356 . S
N1590 H1596 0.984 . S
N1590 H1597 0.984 . S
N1591 C1584 1.356 . S
N1591 H1594 0.984 . S
N1591 H1595 0.985 . S
H1592 N1587 0.984 . S
H1593 N1587 0.985 . S
H1594 N1591 0.984 . S
H1595 N1591 0.985 . S
H1596 N1590 0.984 . S
H1597 N1590 0.984 . S
H1598 N1586 0.984 . S
H1599 N1586 0.985 . S
C449 C93 1.519 . S
C451 C9 1.519 . S
C467 C23 1.519 . S
C469 C107 1.519 . S
C485 C65 1.519 . S
C487 C37 1.519 . S
C503 C51 1.519 . S
C505 C79 1.519 . S
C521 C205 1.519 . S
C523 C121 1.519 . S
C539 C219 1.519 . S
C541 C135 1.519 . S
C557 C149 1.519 . S
C559 C177 1.519 . S
C575 C163 1.519 . S
C577 C191 1.519 . S
C593 C233 1.519 . S
C595 C317 1.519 . S
C611 C247 1.519 . S
C613 C331 1.519 . S
C629 C289 1.519 . S
C631 C261 1.519 . S
C647 C303 1.519 . S
C649 C275 1.519 . S
C665 C345 1.519 . S
C667 C429 1.519 . S
C683 C443 1.519 . S
C685 C359 1.519 . S
C701 C401 1.519 . S
C703 C373 1.519 . S
C719 C387 1.519 . S
C721 C415 1.519 . S
C737 C7 1.346 . S
C739 C428 1.376 . S
C755 C218 1.376 . S
C757 C21 1.346 . S
C773 C35 1.346 . S
C775 C400 1.376 . S
C791 C49 1.346 . S
C793 C190 1.375 . S
C809 C372 1.375 . S
C811 C63 1.346 . S
C827 C162 1.375 . S
C829 C77 1.346 . S
C845 C91 1.346 . S
C847 C344 1.375 . S
C863 C134 1.376 . S
C865 C105 1.346 . S
C881 C119 1.346 . S
C883 C316 1.376 . S
C899 C106 1.376 . S
C901 C133 1.346 . S
C917 C147 1.346 . S
C919 C288 1.376 . S
C935 C161 1.346 . S
C937 C78 1.375 . S
C953 C260 1.375 . S
C955 C175 1.346 . S
C971 C189 1.346 . S
C973 C50 1.375 . S
C989 C203 1.346 . S
C991 C232 1.375 . S
C1007 C22 1.376 . S
C1009 C217 1.346 . S
C1025 C231 1.346 . S
C1027 C204 1.376 . S
C1043 C245 1.346 . S
C1045 C442 1.375 . S
C1061 C176 1.376 . S
C1063 C259 1.346 . S
C1079 C273 1.346 . S
C1081 C414 1.376 . S
C1097 C148 1.375 . S
C1099 C287 1.346 . S
C1115 C386 1.376 . S
C1117 C301 1.346 . S
C1133 C120 1.375 . S
C1135 C315 1.346 . S
C1151 C358 1.375 . S
C1153 C329 1.346 . S
C1169 C343 1.346 . S
C1171 C92 1.376 . S
C1187 C330 1.375 . S
C1189 C357 1.346 . S
C1205 C64 1.376 . S
C1207 C371 1.346 . S
C1223 C385 1.346 . S
C1225 C302 1.376 . S
C1241 C399 1.346 . S
C1243 C36 1.375 . S
C1259 C413 1.346 . S
C1261 C274 1.376 . S
C1277 C8 1.375 . S
C1279 C427 1.346 . S
C1295 C441 1.346 . S
C1297 C246 1.375 . S
C1313 C6 1.485 . S
C1315 C300 1.485 . S
C1331 C314 1.485 . S
C1333 C20 1.485 . S
C1349 C34 1.485 . S
C1351 C328 1.485 . S
C1367 C286 1.485 . S
C1369 C48 1.485 . S
C1385 C272 1.485 . S
C1387 C62 1.485 . S
C1403 C230 1.485 . S
C1405 C76 1.485 . S
C1421 C244 1.485 . S
C1423 C90 1.485 . S
C1439 C258 1.485 . S
C1441 C104 1.485 . S
C1457 C118 1.485 . S
C1459 C412 1.485 . S
C1475 C426 1.485 . S
C1477 C132 1.485 . S
C1493 C440 1.485 . S
C1495 C146 1.485 . S
C1511 C398 1.485 . S
C1513 C160 1.485 . S
C1529 C384 1.485 . S
C1531 C174 1.485 . S
C1547 C342 1.485 . S
C1549 C188 1.485 . S
C1565 C202 1.485 . S
C1567 C356 1.485 . S
C1583 C216 1.485 . S
C1585 C370 1.485 . S
