# Generated by pormake.
# Topology snl, (6)-cn, num edge types: 1
# Building blocks:
#     Node 0, Type 0, BuildingBlock: KUMJIN_clean_sbu_1, # of connection points: 6
#     Node 1, Type 0, BuildingBlock: KUMJIN_clean_sbu_1, # of connection points: 6
#     Node 2, Type 0, BuildingBlock: KUMJIN_clean_sbu_1, # of connection points: 6
#     Node 3, Type 0, BuildingBlock: KUMJIN_clean_sbu_1, # of connection points: 6
#     Node 4, Type 0, BuildingBlock: KUMJIN_clean_sbu_1, # of connection points: 6
#     Node 5, Type 0, BuildingBlock: KUMJIN_clean_sbu_1, # of connection points: 6
#     Node 6, Type 0, BuildingBlock: KUMJIN_clean_sbu_1, # of connection points: 6
#     Node 7, Type 0, BuildingBlock: KUMJIN_clean_sbu_1, # of connection points: 6
#     Node 8, Type 0, BuildingBlock: KUMJIN_clean_sbu_1, # of connection points: 6
#     Node 9, Type 0, BuildingBlock: KUMJIN_clean_sbu_1, # of connection points: 6
#     Node 10, Type 0, BuildingBlock: KUMJIN_clean_sbu_1, # of connection points: 6
#     Node 11, Type 0, BuildingBlock: KUMJIN_clean_sbu_1, # of connection points: 6
#     Node 12, Type 0, BuildingBlock: KUMJIN_clean_sbu_1, # of connection points: 6
#     Node 13, Type 0, BuildingBlock: KUMJIN_clean_sbu_1, # of connection points: 6
#     Node 14, Type 0, BuildingBlock: KUMJIN_clean_sbu_1, # of connection points: 6
#     Node 15, Type 0, BuildingBlock: KUMJIN_clean_sbu_1, # of connection points: 6
#     Edge 16, Type (0, 0), BuildingBlock: AJUNOK_clean_linker_0, # of connection points: 2
#     Edge 17, Type (0, 0), BuildingBlock: AJUNOK_clean_linker_0, # of connection points: 2
#     Edge 18, Type (0, 0), BuildingBlock: AJUNOK_clean_linker_0, # of connection points: 2
#     Edge 19, Type (0, 0), BuildingBlock: AJUNOK_clean_linker_0, # of connection points: 2
#     Edge 20, Type (0, 0), BuildingBlock: AJUNOK_clean_linker_0, # of connection points: 2
#     Edge 21, Type (0, 0), BuildingBlock: AJUNOK_clean_linker_0, # of connection points: 2
#     Edge 22, Type (0, 0), BuildingBlock: AJUNOK_clean_linker_0, # of connection points: 2
#     Edge 23, Type (0, 0), BuildingBlock: AJUNOK_clean_linker_0, # of connection points: 2
#     Edge 24, Type (0, 0), BuildingBlock: AJUNOK_clean_linker_0, # of connection points: 2
#     Edge 25, Type (0, 0), BuildingBlock: AJUNOK_clean_linker_0, # of connection points: 2
#     Edge 26, Type (0, 0), BuildingBlock: AJUNOK_clean_linker_0, # of connection points: 2
#     Edge 27, Type (0, 0), BuildingBlock: AJUNOK_clean_linker_0, # of connection points: 2
#     Edge 28, Type (0, 0), BuildingBlock: AJUNOK_clean_linker_0, # of connection points: 2
#     Edge 29, Type (0, 0), BuildingBlock: AJUNOK_clean_linker_0, # of connection points: 2
#     Edge 30, Type (0, 0), BuildingBlock: AJUNOK_clean_linker_0, # of connection points: 2
#     Edge 31, Type (0, 0), BuildingBlock: AJUNOK_clean_linker_0, # of connection points: 2
#     Edge 32, Type (0, 0), BuildingBlock: AJUNOK_clean_linker_0, # of connection points: 2
#     Edge 33, Type (0, 0), BuildingBlock: AJUNOK_clean_linker_0, # of connection points: 2
#     Edge 34, Type (0, 0), BuildingBlock: AJUNOK_clean_linker_0, # of connection points: 2
#     Edge 35, Type (0, 0), BuildingBlock: AJUNOK_clean_linker_0, # of connection points: 2
#     Edge 36, Type (0, 0), BuildingBlock: AJUNOK_clean_linker_0, # of connection points: 2
#     Edge 37, Type (0, 0), BuildingBlock: AJUNOK_clean_linker_0, # of connection points: 2
#     Edge 38, Type (0, 0), BuildingBlock: AJUNOK_clean_linker_0, # of connection points: 2
#     Edge 39, Type (0, 0), BuildingBlock: AJUNOK_clean_linker_0, # of connection points: 2
#     Edge 40, Type (0, 0), BuildingBlock: AJUNOK_clean_linker_0, # of connection points: 2
#     Edge 41, Type (0, 0), BuildingBlock: AJUNOK_clean_linker_0, # of connection points: 2
#     Edge 42, Type (0, 0), BuildingBlock: AJUNOK_clean_linker_0, # of connection points: 2
#     Edge 43, Type (0, 0), BuildingBlock: AJUNOK_clean_linker_0, # of connection points: 2
#     Edge 44, Type (0, 0), BuildingBlock: AJUNOK_clean_linker_0, # of connection points: 2
#     Edge 45, Type (0, 0), BuildingBlock: AJUNOK_clean_linker_0, # of connection points: 2
#     Edge 46, Type (0, 0), BuildingBlock: AJUNOK_clean_linker_0, # of connection points: 2
#     Edge 47, Type (0, 0), BuildingBlock: AJUNOK_clean_linker_0, # of connection points: 2
#     Edge 48, Type (0, 0), BuildingBlock: AJUNOK_clean_linker_0, # of connection points: 2
#     Edge 49, Type (0, 0), BuildingBlock: AJUNOK_clean_linker_0, # of connection points: 2
#     Edge 50, Type (0, 0), BuildingBlock: AJUNOK_clean_linker_0, # of connection points: 2
#     Edge 51, Type (0, 0), BuildingBlock: AJUNOK_clean_linker_0, # of connection points: 2
#     Edge 52, Type (0, 0), BuildingBlock: AJUNOK_clean_linker_0, # of connection points: 2
#     Edge 53, Type (0, 0), BuildingBlock: AJUNOK_clean_linker_0, # of connection points: 2
#     Edge 54, Type (0, 0), BuildingBlock: AJUNOK_clean_linker_0, # of connection points: 2
#     Edge 55, Type (0, 0), BuildingBlock: AJUNOK_clean_linker_0, # of connection points: 2
#     Edge 56, Type (0, 0), BuildingBlock: AJUNOK_clean_linker_0, # of connection points: 2
#     Edge 57, Type (0, 0), BuildingBlock: AJUNOK_clean_linker_0, # of connection points: 2
#     Edge 58, Type (0, 0), BuildingBlock: AJUNOK_clean_linker_0, # of connection points: 2
#     Edge 59, Type (0, 0), BuildingBlock: AJUNOK_clean_linker_0, # of connection points: 2
#     Edge 60, Type (0, 0), BuildingBlock: AJUNOK_clean_linker_0, # of connection points: 2
#     Edge 61, Type (0, 0), BuildingBlock: AJUNOK_clean_linker_0, # of connection points: 2
#     Edge 62, Type (0, 0), BuildingBlock: AJUNOK_clean_linker_0, # of connection points: 2
#     Edge 63, Type (0, 0), BuildingBlock: AJUNOK_clean_linker_0, # of connection points: 2
# Relax obj value: 0.157
# Max RMSD: 0.239
# Mean RMSD: 0.237
data_MOF--net-snl--node1-KUMJIN_clean_sbu_1--edge1-AJUNOK_clean_linker_0
_symmetry_space_group_name_H-M    P1
_symmetry_Int_Tables_number       1
_symmetry_cell_setting            triclinic
loop_
_symmetry_equiv_pos_as_xyz
'x, y, z'
_cell_length_a     41.56986
_cell_length_b     41.678028
_cell_length_c     20.76508
_cell_angle_alpha  90.157059
_cell_angle_beta   90.061134
_cell_angle_gamma 90.022447
loop_
_atom_site_label
_atom_site_type_symbol
_atom_site_fract_x
_atom_site_fract_y
_atom_site_fract_z
_atom_type_partial_charge
Eu0 Eu 0.12532 0.61491 0.21885 0.0
C1 C 0.23023 0.67313 0.05422 0.0
N2 N 0.20007 0.68451 0.06537 0.0
C3 C 0.22087 0.73705 0.08532 0.0
C4 C 0.25701 0.69381 0.05738 0.0
C5 C 0.19491 0.71623 0.0772 0.0
C6 C 0.25206 0.72595 0.07444 0.0
C7 C 0.26553 0.62825 0.03026 0.0
C8 C 0.23446 0.64036 0.04287 0.0
C9 C 0.29207 0.64911 0.03071 0.0
C10 C 0.28787 0.6817 0.04491 0.0
Eu11 Eu 0.15849 0.64669 0.05698 0.0
N12 N 0.20851 0.62029 0.04597 0.0
C13 C 0.26918 0.59535 0.0191 0.0
C14 C 0.21193 0.58844 0.03251 0.0
C15 C 0.24225 0.57541 0.02005 0.0
H16 H 0.17083 0.72563 0.07924 0.0
H17 H 0.24472 0.55004 1.00988 0.0
H18 H 0.12896 0.53498 0.23024 0.0
H19 H 0.03296 0.70646 0.24428 0.0
H20 H 0.1915 0.57304 0.02832 0.0
H21 H 0.29264 0.58515 1.00937 0.0
H22 H 0.08318 0.68477 0.21477 0.0
H23 H 0.21669 0.76188 0.098 0.0
H24 H 0.31608 0.64014 0.02139 0.0
H25 H 0.30869 0.69732 0.0465 0.0
H26 H 0.09965 0.48998 0.27372 0.0
H27 H 0.27209 0.74244 0.07887 0.0
H28 H 0.99099 0.67671 0.2883 0.0
N29 N 0.09284 0.5696 0.24349 0.0
C30 C 0.06358 0.57674 0.26803 0.0
C31 C 0.08835 0.51338 0.27377 0.0
C32 C 0.04441 0.54684 0.30971 0.0
C33 C 0.10462 0.53902 0.2449 0.0
C34 C 0.05942 0.51719 0.3067 0.0
N35 N 0.07286 0.63609 0.233 0.0
C36 C 0.06597 0.66797 0.23104 0.0
C37 C 0.01664 0.62941 0.29082 0.0
C38 C 0.05163 0.61513 0.25843 0.0
C39 C 1.01213 0.66283 0.2766 0.0
C40 C 0.03653 0.68085 0.24941 0.0
H41 H 0.04868 0.49665 0.33013 0.0
H42 H 1.00007 0.52806 0.37493 0.0
H43 H 0.96559 0.58323 0.38332 0.0
O44 O 0.13428 0.64001 0.3109 0.0
O45 O 0.08741 0.61438 0.13976 0.0
O46 O 0.10338 0.65376 0.06808 0.0
O47 O 0.12666 0.58898 0.30865 0.0
O48 O 0.14068 0.66889 0.21293 0.0
O49 O 0.12928 0.6833 0.10893 0.0
O50 O 0.16056 0.63031 0.95713 0.0
O51 O 0.19202 0.64941 0.1475 0.0
O52 O 0.17863 0.60569 0.20738 0.0
O53 O 0.15813 0.68107 0.97837 0.0
O54 O 0.1357 0.59754 0.05111 0.0
O55 O 0.14494 0.57531 0.15034 0.0
C56 C 0.08103 0.63486 0.09338 0.0
C57 C 0.15455 0.60815 0.39735 0.0
C58 C 0.16489 0.61051 0.51229 0.0
C59 C 0.19293 0.59227 0.50337 0.0
C60 C 0.18215 0.58917 0.38899 0.0
C61 C 0.20144 0.58161 0.44187 0.0
C62 C 0.14602 0.61875 0.45888 0.0
C63 C 0.13568 0.69117 0.16844 0.0
C64 C 0.13212 0.61368 0.34445 0.0
C65 C 1.00932 0.54916 0.35106 0.0
C66 C 0.98791 0.58388 0.3554 0.0
C67 C 0.1989 0.62874 0.19371 0.0
C68 C 0.13686 0.66342 0.87894 0.0
C69 C 0.12621 0.65506 0.765 0.0
C70 C 0.09767 0.67286 0.77104 0.0
C71 C 0.10799 0.68061 0.88474 0.0
C72 C 0.14578 0.65055 0.81922 0.0
C73 C 0.0886 0.68544 0.83072 0.0
C74 C 0.13873 0.57223 0.08779 0.0
C75 C 0.15859 0.65916 0.93368 0.0
H76 H 0.20781 0.58572 0.5441 0.0
H77 H 0.18865 0.58018 0.34176 0.0
H78 H 0.22281 0.56715 0.43531 0.0
H79 H 0.12433 0.63288 0.46535 0.0
H80 H 0.08259 0.67737 0.72946 0.0
H81 H 0.1006 0.69049 0.93069 0.0
H82 H 0.16798 0.63701 0.81498 0.0
H83 H 0.06659 0.69912 0.83501 0.0
Eu84 Eu 0.63022 0.90597 0.30677 0.0
C85 C 0.73443 0.85402 0.47667 0.0
N86 N 0.70483 0.84149 0.46466 0.0
C87 C 0.72842 0.79106 0.43621 0.0
C88 C 0.76229 0.83506 0.46965 0.0
C89 C 0.70139 0.81008 0.44774 0.0
C90 C 0.75899 0.80334 0.44858 0.0
C91 C 0.76739 0.89998 0.50393 0.0
C92 C 0.73694 0.88643 0.49171 0.0
C93 C 0.79499 0.88099 0.49829 0.0
C94 C 0.79256 0.84865 0.48119 0.0
Eu95 Eu 0.66089 0.87687 0.47369 0.0
N96 N 0.70986 0.90477 0.49357 0.0
C97 C 0.76929 0.93228 0.52152 0.0
C98 C 0.71195 0.93622 0.51143 0.0
C99 C 0.74145 0.9505 0.52519 0.0
H100 H 0.67787 0.79961 0.44309 0.0
H101 H 0.74258 0.97544 0.53973 0.0
H102 H 0.58768 0.95874 0.40413 0.0
H103 H 0.60158 0.82798 0.10665 0.0
H104 H 0.69126 0.95041 0.51777 0.0
H105 H 0.79192 0.94323 0.53392 0.0
H106 H 0.63008 0.84566 0.20144 0.0
H107 H 0.72563 0.76665 0.41924 0.0
H108 H 0.81836 0.89133 0.50571 0.0
H109 H 0.81428 0.83451 0.47611 0.0
H110 H 0.53802 0.98547 0.40942 0.0
H111 H 0.77987 0.78823 0.44127 0.0
H112 H 0.55197 0.85299 0.06977 0.0
N113 N 0.57893 0.93109 0.32029 0.0
C114 C 0.55705 0.92297 0.27492 0.0
C115 C 0.54194 0.96889 0.36991 0.0
C116 C 0.52112 0.94298 0.2719 0.0
C117 C 0.57152 0.95332 0.36614 0.0
C118 C 0.51722 0.9641 0.32616 0.0
N119 N 0.59672 0.88157 0.22912 0.0
C120 C 0.60738 0.85708 0.19096 0.0
C121 C 0.54853 0.88581 0.14897 0.0
C122 C 0.56851 0.89665 0.21764 0.0
C123 C 0.56315 0.86167 0.1136 0.0
C124 C 0.5913 0.8472 0.13511 0.0
H125 H 0.49593 0.97809 0.33637 0.0
H126 H 0.4633 0.93783 0.14915 0.0
H127 H 0.49739 0.91307 0.13839 0.0
O128 O 0.65824 0.90036 0.21735 0.0
O129 O 0.59193 0.87916 0.36353 0.0
O130 O 0.60784 0.89386 0.46495 0.0
O131 O 0.62588 0.94171 0.23072 0.0
O132 O 0.6447 0.85178 0.31414 0.0
O133 O 0.63363 0.83884 0.41977 0.0
O134 O 0.66593 0.88543 0.57778 0.0
O135 O 0.6937 0.87086 0.38307 0.0
O136 O 0.68146 0.91755 0.33647 0.0
O137 O 0.64507 0.84056 0.54243 0.0
O138 O 0.64306 0.92769 0.47734 0.0
O139 O 0.6423 0.94929 0.37463 0.0
C140 C 0.58538 0.88341 0.42485 0.0
C141 C 0.65394 0.93854 0.12881 0.0
C142 C 0.65839 0.9332 1.01167 0.0
C143 C 0.66976 0.96495 1.00904 0.0
C144 C 0.66558 0.96996 0.12473 0.0
C145 C 0.67358 0.983 0.06519 0.0
C146 C 0.65038 0.92001 0.07225 0.0
C147 C 0.63791 0.83034 0.35951 0.0
C148 C 0.64506 0.92588 0.19231 0.0
C149 C 0.48943 0.92699 0.16555 0.0
C150 C 0.51246 0.89819 0.12141 0.0
C151 C 0.70182 0.894 0.34339 0.0
C152 C 0.64701 0.84759 0.65907 0.0
C153 C 0.64235 0.85874 0.77482 0.0
C154 C 0.63036 0.82753 0.7836 0.0
C155 C 0.63509 0.81656 0.66973 0.0
C156 C 0.65066 0.86875 0.71196 0.0
C157 C 0.62682 0.80669 0.73151 0.0
C158 C 0.64291 0.95249 0.43865 0.0
C159 C 0.6521 0.8584 0.59212 0.0
H160 H 0.67549 0.97599 0.96332 0.0
H161 H 0.66851 0.98443 0.16778 0.0
H162 H 0.68254 1.00733 0.06248 0.0
H163 H 0.6414 0.89563 0.07533 0.0
H164 H 0.62403 0.81901 0.83117 0.0
H165 H 0.63159 0.79999 0.63006 0.0
H166 H 0.65897 0.89308 0.70407 0.0
H167 H 0.61748 0.78276 0.73905 0.0
Eu168 Eu 0.39545 0.40966 0.7227 0.0
C169 C 0.30421 0.33785 0.52274 0.0
N170 N 0.33592 0.33159 0.53327 0.0
C171 C 0.32965 0.27803 0.49412 0.0
C172 C 0.2837 0.31365 0.49901 0.0
C173 C 0.3486 0.30185 0.52245 0.0
C174 C 0.29698 0.28382 0.483 0.0
C175 C 0.25922 0.375 0.5266 0.0
C176 C 0.29225 0.36874 0.53418 0.0
C177 C 0.23856 0.35049 0.50561 0.0
C178 C 0.25083 0.3201 0.49078 0.0
Eu179 Eu 0.36696 0.37668 0.55832 0.0
N180 N 0.31263 0.39235 0.55436 0.0
C181 C 0.24778 0.40572 0.54063 0.0
C182 C 0.30159 0.42262 0.5668 0.0
C183 C 0.26898 0.42969 0.5606 0.0
H184 H 0.37395 0.29757 0.53042 0.0
H185 H 0.2602 0.45352 0.57165 0.0
H186 H 0.39474 0.49067 0.73957 0.0
H187 H 0.49299 0.32394 0.76485 0.0
H188 H 0.31744 0.44114 0.58406 0.0
H189 H 0.22255 0.41092 0.5365 0.0
H190 H 0.44022 0.3408 0.72805 0.0
H191 H 0.3401 0.25508 0.48161 0.0
H192 H 0.21302 0.35483 0.5003 0.0
H193 H 0.23464 0.30165 0.47328 0.0
H194 H 0.42974 0.53248 0.78467 0.0
H195 H 0.28216 0.26494 0.46268 0.0
H196 H 0.52995 0.36347 0.81183 0.0
N197 N 0.42848 0.45279 0.75489 0.0
C198 C 0.45723 0.44425 0.78068 0.0
C199 C 0.43778 0.5078 0.78388 0.0
C200 C 0.477 0.4673 0.81109 0.0
C201 C 0.41835 0.48402 0.7568 0.0
C202 C 0.46712 0.49939 0.81168 0.0
N203 N 0.44691 0.39016 0.75033 0.0
C204 C 0.45574 0.35867 0.74738 0.0
C205 C 0.4968 0.40306 0.80342 0.0
C206 C 0.46681 0.41228 0.77772 0.0
C207 C 0.50653 0.37117 0.79659 0.0
C208 C 0.48584 0.34882 0.76911 0.0
H209 H 0.48188 0.51781 0.83379 0.0
H210 H 0.52125 0.47502 0.86411 0.0
H211 H 0.53881 0.41889 0.8566 0.0
O212 O 0.39522 0.39269 0.82391 0.0
O213 O 0.43297 0.41374 0.64405 0.0
O214 O 0.42095 0.36954 0.5821 0.0
O215 O 0.37246 0.43801 0.79638 0.0
O216 O 0.38231 0.35474 0.71586 0.0
O217 O 0.39635 0.34125 0.61243 0.0
O218 O 0.38351 0.40338 0.47367 0.0
O219 O 0.33072 0.37067 0.64383 0.0
O220 O 0.34362 0.41622 0.69536 0.0
O221 O 0.36413 0.35577 0.46257 0.0
O222 O 0.37326 0.4298 0.55683 0.0
O223 O 0.38797 0.45269 0.6536 0.0
C224 C 0.44171 0.39126 0.60337 0.0
C225 C 0.37151 0.426 0.90972 0.0
C226 C 0.37687 0.41747 0.02521 0.0
C227 C 0.35915 0.44557 0.03646 0.0
C228 C 0.35447 0.45444 0.92242 0.0
C229 C 0.34808 0.46393 0.98528 0.0
C230 C 0.38266 0.40728 0.9616 0.0
C231 C 0.38897 0.33273 0.67113 0.0
C232 C 0.38072 0.41883 0.84278 0.0
C233 C 0.50596 0.4577 0.83994 0.0
C234 C 0.51599 0.42574 0.83554 0.0
C235 C 0.3243 0.39174 0.68972 0.0
C236 C 0.40088 0.37205 0.38511 0.0
C237 C 0.41534 0.36991 0.27216 0.0
C238 C 0.44268 0.35186 0.28752 0.0
C239 C 0.42827 0.35397 0.4005 0.0
C240 C 0.39453 0.3801 0.32102 0.0
C241 C 0.44912 0.34395 0.35164 0.0
C242 C 0.38051 0.45487 0.59172 0.0
C243 C 0.37695 0.38006 0.43384 0.0
H244 H 0.35437 0.45363 0.08519 0.0
H245 H 0.34683 0.47001 0.88374 0.0
H246 H 0.33484 0.48582 0.99438 0.0
H247 H 0.39703 0.38602 0.95281 0.0
H248 H 0.45893 0.34393 0.24997 0.0
H249 H 0.43314 0.34718 0.44988 0.0
H250 H 0.3732 0.39386 0.30901 0.0
H251 H 0.47015 0.32984 0.3634 0.0
Eu252 Eu 0.87275 0.14955 0.97047 0.0
C253 C 0.91754 0.04049 0.80616 0.0
N254 N 0.93163 0.06881 0.8229 0.0
C255 C 0.97929 0.04124 0.85628 0.0
C256 C 0.93443 1.01135 0.81274 0.0
C257 C 0.96265 0.06969 0.84457 0.0
C258 C 0.96546 0.01198 0.83892 0.0
C259 C 0.87092 1.01145 0.7665 0.0
C260 C 0.88567 0.04059 0.78501 0.0
C261 C 0.88819 0.98256 0.77063 0.0
C262 C 0.91972 0.98249 0.79422 0.0
Eu263 Eu 0.90076 0.11516 0.80306 0.0
N264 N 0.86929 0.06893 0.78162 0.0
C265 C 0.83931 0.01214 0.74358 0.0
C266 C 0.83903 0.06972 0.75598 0.0
C267 C 0.82337 0.04142 0.73804 0.0
H268 H 0.97437 0.09225 0.85369 0.0
H269 H 0.79931 0.04232 0.71812 0.0
H270 H 0.81994 0.19158 0.8743 0.0
H271 H 0.95457 0.17887 0.16465 0.0
H272 H 0.82735 0.09203 0.74551 0.0
H273 H 0.82725 0.9903 0.72867 0.0
H274 H 0.93685 0.15112 0.06919 0.0
H275 H 1.00318 0.04194 0.87698 0.0
H276 H 0.87728 0.96005 0.75612 0.0
H277 H 0.9325 0.95993 0.79825 0.0
H278 H 0.7924 0.24117 0.87113 0.0
H279 H 0.97895 0.99004 0.84591 0.0
H280 H 0.92813 0.22686 0.20569 0.0
N281 N 0.84801 0.20062 0.9573 0.0
C282 C 0.8563 0.22226 1.00294 0.0
C283 C 0.80963 0.23734 0.90948 0.0
C284 C 0.83562 0.25763 1.00807 0.0
C285 C 0.82561 0.20799 0.91187 0.0
C286 C 0.8141 0.26162 0.95443 0.0
N287 N 0.89917 0.18331 0.04521 0.0
C288 C 0.92479 0.17327 0.0812 0.0
C289 C 0.89444 0.23033 0.12793 0.0
C290 C 0.88342 0.21086 0.05879 0.0
C291 C 0.91937 0.21602 0.16157 0.0
C292 C 0.93468 0.18884 0.13763 0.0
H293 H 0.7995 0.28263 0.94566 0.0
H294 H 0.84074 0.31437 0.13276 0.0
H295 H 0.8662 0.2807 0.1415 0.0
O296 O 0.88083 0.12467 0.0612 0.0
O297 O 0.8979 0.18673 0.90907 0.0
O298 O 0.8879 0.16985 0.8045 0.0
O299 O 0.83834 0.15503 0.05001 0.0
O300 O 0.92678 0.13519 0.95913 0.0
O301 O 0.93862 0.14403 0.85212 0.0
O302 O 0.89296 0.10778 0.69951 0.0
O303 O 0.90535 0.08475 0.89646 0.0
O304 O 0.85985 0.09818 0.94789 0.0
O305 O 0.94007 0.1206 0.73453 0.0
O306 O 0.85156 0.13666 0.80177 0.0
O307 O 0.82939 0.13585 0.90406 0.0
C308 C 0.89387 0.1929 0.84749 0.0
C309 C 0.84355 0.12524 0.14933 0.0
C310 C 0.84913 0.11836 0.26597 0.0
C311 C 0.82046 0.10041 0.26565 0.0
C312 C 0.81508 0.10743 0.15016 0.0
C313 C 0.80366 0.09501 0.2082 0.0
C314 C 0.86071 0.13041 0.20698 0.0
C315 C 0.94741 0.14262 0.91267 0.0
C316 C 0.85638 0.13826 0.08911 0.0
C317 C 0.85189 0.28861 0.1151 0.0
C318 C 0.88153 0.2658 0.15738 0.0
C319 C 0.88295 0.07764 0.93856 0.0
C320 C 0.92885 0.1319 0.62356 0.0
C321 C 0.91819 0.14056 0.50835 0.0
C322 C 0.94728 0.15768 0.50432 0.0
C323 C 0.95716 0.15006 0.6179 0.0
C324 C 0.90925 0.12731 0.56841 0.0
C325 C 0.96627 0.16271 0.55871 0.0
C326 C 0.82656 0.13587 0.84003 0.0
C327 C 0.92253 0.11417 0.68408 0.0
H328 H 0.81073 0.09095 0.31006 0.0
H329 H 0.80183 0.10307 0.10605 0.0
H330 H 0.78158 0.08126 0.20877 0.0
H331 H 0.88317 0.14365 0.20566 0.0
H332 H 0.95578 0.1668 0.45862 0.0
H333 H 0.973 0.15362 0.65876 0.0
H334 H 0.88748 0.11309 0.57194 0.0
H335 H 0.98858 0.17593 0.55465 0.0
Eu336 Eu 0.13209 0.4075 0.80212 0.0
C337 C 0.23081 0.34658 0.97393 0.0
N338 N 0.2009 0.33507 0.96059 0.0
C339 C 0.22197 0.28255 0.94247 0.0
C340 C 0.2576 0.3259 0.97314 0.0
C341 C 0.19591 0.30344 0.94767 0.0
C342 C 0.2529 0.29363 0.95662 0.0
C343 C 0.26584 0.39186 0.99618 0.0
C344 C 0.23492 0.37957 0.98347 0.0
C345 C 0.29232 0.37115 0.99761 0.0
C346 C 0.2883 0.33829 0.98602 0.0
Eu347 Eu 0.15931 0.37263 0.96637 0.0
N348 N 0.20917 0.39967 0.97744 0.0
C349 C 0.26948 0.4248 1.00618 0.0
C350 C 0.21303 0.43195 0.98552 0.0
C351 C 0.24301 0.44494 1.00058 0.0
H352 H 0.17184 0.29428 0.94228 0.0
H353 H 0.24568 0.47056 1.00762 0.0
H354 H 0.1325 0.48824 0.79588 0.0
H355 H 0.0383 0.32214 0.72917 0.0
H356 H 0.19354 0.44816 0.98133 0.0
H357 H 0.2926 0.43493 0.01801 0.0
H358 H 0.08981 0.33819 0.77473 0.0
H359 H 0.21804 0.2577 0.92943 0.0
H360 H 0.31612 0.38072 1.00546 0.0
H361 H 0.30919 0.32276 0.98573 0.0
H362 H 0.09761 0.53163 0.75652 0.0
H363 H 0.27298 0.27712 0.95429 0.0
H364 H 1.00036 0.3631 0.68964 0.0
N365 N 0.09879 0.45114 0.77483 0.0
C366 C 0.07018 0.44344 0.74722 0.0
C367 C 0.08949 0.50698 0.75402 0.0
C368 C 0.05031 0.46749 0.72069 0.0
C369 C 0.10887 0.48233 0.7777 0.0
C370 C 0.06012 0.49954 0.72518 0.0
N371 N 0.08126 0.38841 0.76694 0.0
C372 C 0.07355 0.3567 0.76056 0.0
C373 C 0.03145 0.40288 0.7147 0.0
C374 C 0.06101 0.41135 0.74376 0.0
C375 C 0.02291 0.37051 0.71121 0.0
C376 C 0.04422 0.34734 0.73361 0.0
H377 H 0.04535 0.51866 0.70593 0.0
H378 H 1.00585 0.47707 0.66972 0.0
H379 H 0.98932 0.42057 0.66472 0.0
O380 O 0.13637 0.39188 0.69998 0.0
O381 O 0.09088 0.40927 0.87297 0.0
O382 O 0.10407 0.37117 0.95029 0.0
O383 O 0.15495 0.43826 0.73217 0.0
O384 O 0.14407 0.35219 0.80751 0.0
O385 O 0.12888 0.33857 0.91001 0.0
O386 O 0.1629 0.38585 0.06798 0.0
O387 O 0.19318 0.36659 0.87751 0.0
O388 O 0.18336 0.41458 0.83392 0.0
O389 O 0.15414 0.33656 0.0416 0.0
O390 O 0.13872 0.42238 0.9771 0.0
O391 O 0.14124 0.44767 0.87838 0.0
C392 C 0.08313 0.39029 0.92087 0.0
C393 C 0.16002 0.42782 0.61839 0.0
C394 C 0.15773 0.42169 0.50148 0.0
C395 C 0.17578 0.44991 0.49469 0.0
C396 C 0.1785 0.45579 0.61018 0.0
C397 C 0.18614 0.46678 0.54881 0.0
C398 C 0.14958 0.41068 0.56353 0.0
C399 C 0.13606 0.33014 0.85112 0.0
C400 C 0.14931 0.41922 0.68391 0.0
C401 C 0.02133 0.45892 0.69048 0.0
C402 C 1.01181 0.42676 0.68801 0.0
C403 C 0.20191 0.38956 0.83802 0.0
C404 C 0.13402 0.35452 0.14255 0.0
C405 C 0.12154 0.36481 0.25588 0.0
C406 C 0.09363 0.346 0.24911 0.0
C407 C 0.10543 0.33689 0.13645 0.0
C408 C 0.14173 0.36885 0.20202 0.0
C409 C 0.08549 0.33255 0.18965 0.0
C410 C 0.13783 0.44849 0.94209 0.0
C411 C 0.15681 0.3571 0.08862 0.0
H412 H 0.18203 0.45877 0.44732 0.0
H413 H 0.18669 0.46961 0.65129 0.0
H414 H 0.20023 0.48843 0.54319 0.0
H415 H 0.13491 0.38934 0.56884 0.0
H416 H 0.07826 0.3412 0.29001 0.0
H417 H 0.09874 0.32603 0.09093 0.0
H418 H 0.16354 0.383 0.20628 0.0
H419 H 0.06383 0.31831 0.18503 0.0
Eu420 Eu 0.89649 0.90967 0.22118 0.0
C421 C 0.80016 0.84483 0.0321 0.0
N422 N 0.83129 0.83618 0.04277 0.0
C423 C 0.81959 0.78185 1.01461 0.0
C424 C 0.7772 0.82164 1.01399 0.0
C425 C 0.84104 0.80504 0.03695 0.0
C426 C 0.78743 0.79001 1.00396 0.0
C427 C 0.75857 0.88585 0.03276 0.0
C428 C 0.79111 0.87699 0.03939 0.0
C429 C 0.73564 0.86264 1.01548 0.0
C430 C 0.74499 0.83074 1.00533 0.0
Eu431 Eu 0.86684 0.87909 0.05804 0.0
N432 N 0.81379 0.89925 0.05571 0.0
C433 C 0.74991 0.91777 0.0444 0.0
C434 C 0.80548 0.93061 0.06536 0.0
C435 C 0.77343 0.94022 0.06057 0.0
H436 H 0.86605 0.79887 0.04337 0.0
H437 H 0.76686 0.96496 0.06955 0.0
H438 H 0.89668 0.9893 0.24583 0.0
H439 H 0.98802 0.81982 0.28117 0.0
H440 H 0.82306 0.94829 0.07871 0.0
H441 H 0.72509 0.92529 0.04151 0.0
H442 H 0.93649 0.8384 0.24149 0.0
H443 H 0.828 0.75778 1.00483 0.0
H444 H 0.71057 0.86912 1.0097 0.0
H445 H 0.72703 0.8132 0.99138 0.0
H446 H 0.93321 0.03065 0.28879 0.0
H447 H 0.77072 0.77175 0.98771 0.0
H448 H 0.02746 0.85863 0.3226 0.0
N449 N 0.93075 0.95142 0.25478 0.0
C450 C 0.95992 0.9423 0.2777 0.0
C451 C 0.94115 1.00597 0.28548 0.0
C452 C 0.98085 0.96501 0.306 0.0
C453 C 0.92076 0.98254 0.26002 0.0
C454 C 0.97143 0.99721 0.30829 0.0
N455 N 0.94695 0.88817 0.25201 0.0
C456 C 0.95363 0.85613 0.25513 0.0
C457 C 0.99788 0.89993 0.30255 0.0
C458 C 0.96829 0.90997 0.27605 0.0
C459 C 1.00522 0.86726 0.30254 0.0
C460 C 0.98296 0.84528 0.27917 0.0
H461 H 0.98701 0.01534 0.32904 0.0
H462 H 0.02637 0.97197 0.35498 0.0
H463 H 0.04101 0.91499 0.35274 0.0
O464 O 0.89611 0.89327 0.32263 0.0
O465 O 0.93575 0.91383 0.14554 0.0
O466 O 0.92204 0.87264 0.07658 0.0
O467 O 0.8722 0.93778 0.29366 0.0
O468 O 0.88267 0.85494 0.21176 0.0
O469 O 0.89766 0.84362 0.10857 0.0
O470 O 0.87645 0.90288 0.96579 0.0
O471 O 0.83095 0.87317 0.14521 0.0
O472 O 0.84441 0.91851 0.19652 0.0
O473 O 0.86464 0.85267 0.96797 0.0
O474 O 0.87748 0.93163 0.05283 0.0
O475 O 0.89084 0.95331 0.15178 0.0
C476 C 0.94377 0.89257 0.10166 0.0
C477 C 0.87099 0.9262 0.40709 0.0
C478 C 0.87577 0.91792 0.52256 0.0
C479 C 0.85798 0.94595 0.53346 0.0
C480 C 0.85301 0.95413 0.41913 0.0
C481 C 0.84663 0.96391 0.48186 0.0
C482 C 0.88235 0.90789 0.45927 0.0
C483 C 0.89047 0.83372 0.16632 0.0
C484 C 0.88077 0.91907 0.34059 0.0
C485 C 1.01012 0.95489 0.3327 0.0
C486 C 0.0186 0.92247 0.3309 0.0
C487 C 0.82426 0.89473 0.19021 0.0
C488 C 0.89674 0.86951 0.88305 0.0
C489 C 0.9114 0.86898 0.77012 0.0
C490 C 0.9392 0.85146 0.78498 0.0
C491 C 0.92459 0.85196 0.89778 0.0
C492 C 0.8902 0.87798 0.81929 0.0
C493 C 0.9457 0.84293 0.84868 0.0
C494 C 0.88505 0.95621 0.08904 0.0
C495 C 0.8728 0.87666 0.93233 0.0
H496 H 0.85288 0.95393 0.58211 0.0
H497 H 0.84467 0.9691 0.38007 0.0
H498 H 0.83292 0.98556 0.49053 0.0
H499 H 0.89692 0.88672 0.45098 0.0
H500 H 0.95569 0.84426 0.74725 0.0
H501 H 0.92966 0.84481 0.94688 0.0
H502 H 0.86857 0.89142 0.80786 0.0
H503 H 0.967 0.82913 0.85994 0.0
Eu504 Eu 0.36868 0.64496 0.47964 0.0
C505 C 0.42655 0.54486 0.30718 0.0
N506 N 0.43708 0.57497 0.32131 0.0
C507 C 0.49014 0.5551 0.34086 0.0
C508 C 0.44785 0.51856 0.30917 0.0
C509 C 0.46873 0.5806 0.33377 0.0
C510 C 0.47979 0.52393 0.32775 0.0
C511 C 0.38309 0.5093 0.27529 0.0
C512 C 0.39418 0.54022 0.29224 0.0
C513 C 0.40446 0.48325 0.2757 0.0
C514 C 0.43666 0.4878 0.29318 0.0
Eu515 Eu 0.3989 0.61615 0.31127 0.0
N516 N 0.37355 0.56566 0.29501 0.0
C517 C 0.35074 0.50534 0.25864 0.0
C518 C 0.34178 0.56147 0.2808 0.0
C519 C 0.32999 0.53153 0.26175 0.0
H520 H 0.47775 0.60474 0.33648 0.0
H521 H 0.30478 0.52863 0.24996 0.0
H522 H 0.28905 0.64378 0.49995 0.0
H523 H 0.45527 0.73139 0.5744 0.0
H524 H 0.32526 0.58087 0.28324 0.0
H525 H 0.34144 0.48206 0.2446 0.0
H526 H 0.43723 0.67982 0.52949 0.0
H527 H 0.51495 0.55967 0.35373 0.0
H528 H 0.39615 0.45938 0.26343 0.0
H529 H 0.45275 0.46737 0.29411 0.0
H530 H 0.24552 0.68093 0.53205 0.0
H531 H 0.49678 0.50429 0.3309 0.0
H532 H 0.41564 0.77419 0.59653 0.0
N533 N 0.32555 0.67934 0.50514 0.0
C534 C 0.33365 0.70916 0.52645 0.0
C535 C 0.27008 0.6894 0.52924 0.0
C536 C 0.30981 0.73052 0.54891 0.0
C537 C 0.2946 0.66869 0.50956 0.0
C538 C 0.27763 0.7207 0.54767 0.0
N539 N 0.3885 0.69458 0.51783 0.0
C540 C 0.41992 0.69876 0.53578 0.0
C541 C 0.37513 0.74626 0.56224 0.0
C542 C 0.36602 0.71695 0.53328 0.0
C543 C 0.40775 0.75195 0.57453 0.0
C544 C 0.43018 0.72784 0.56227 0.0
H545 H 0.25866 0.7365 0.56422 0.0
H546 H 0.30085 0.77674 0.59339 0.0
H547 H 0.35796 0.79014 0.60604 0.0
O548 O 0.39268 0.61915 0.55778 0.0
O549 O 0.39091 0.6842 0.42053 0.0
O550 O 0.38586 0.67048 0.3133 0.0
O551 O 0.3476 0.64347 0.57568 0.0
O552 O 0.42267 0.63135 0.46799 0.0
O553 O 0.43619 0.64535 0.36455 0.0
O554 O 0.38969 0.60697 0.20935 0.0
O555 O 0.40191 0.58329 0.40157 0.0
O556 O 0.35452 0.59544 0.44795 0.0
O557 O 0.43571 0.62589 0.23942 0.0
O558 O 0.34762 0.6334 0.30381 0.0
O559 O 0.32561 0.63689 0.40646 0.0
C560 C 0.38905 0.69218 0.35971 0.0
C561 C 0.36456 0.60649 0.65431 0.0
C562 C 0.36598 0.59859 0.77021 0.0
C563 C 0.35092 0.56868 0.76194 0.0
C564 C 0.34873 0.57711 0.64639 0.0
C565 C 0.34223 0.5581 0.70024 0.0
C566 C 0.37306 0.61716 0.71595 0.0
C567 C 0.44415 0.64087 0.42499 0.0
C568 C 0.3714 0.62769 0.60041 0.0
C569 C 0.31885 0.76012 0.57575 0.0
C570 C 0.3514 0.76794 0.58234 0.0
C571 C 0.37815 0.57525 0.44018 0.0
C572 C 0.41723 0.63924 0.13477 0.0
C573 C 0.40597 0.6468 0.02057 0.0
C574 C 0.41913 0.67783 0.02465 0.0
C575 C 0.42957 0.67055 0.13831 0.0
C576 C 0.40524 0.62757 0.07597 0.0
C577 C 0.43059 0.68964 0.08331 0.0
C578 C 0.32262 0.63644 0.34211 0.0
C579 C 0.41746 0.61793 0.19094 0.0
H580 H 0.34537 0.55385 0.8032 0.0
H581 H 0.34137 0.56903 0.599 0.0
H582 H 0.3302 0.53526 0.69425 0.0
H583 H 0.38517 0.64008 0.72174 0.0
H584 H 0.42095 0.69282 0.98231 0.0
H585 H 0.43875 0.68015 0.18325 0.0
H586 H 0.39538 0.60349 0.07339 0.0
H587 H 0.44059 0.71358 0.08599 0.0
Eu588 Eu 0.65945 0.14879 0.56044 0.0
C589 C 0.60065 0.04352 0.72714 0.0
N590 N 0.58966 0.07346 0.71336 0.0
C591 C 0.53698 0.05282 0.69283 0.0
C592 C 0.57957 0.01704 0.72629 0.0
C593 C 0.55807 0.07863 0.69929 0.0
C594 C 0.54755 0.02194 0.70776 0.0
C595 C 0.64522 1.00812 0.75306 0.0
C596 C 0.63347 0.03904 0.73838 0.0
C597 C 0.62384 0.98209 0.75623 0.0
C598 C 0.5912 0.98646 0.74206 0.0
Eu599 Eu 0.62801 0.11449 0.722 0.0
N600 N 0.65402 0.0643 0.73094 0.0
C601 C 0.67834 1.00397 0.76147 0.0
C602 C 0.68634 0.06012 0.73821 0.0
C603 C 0.69897 0.03004 0.75352 0.0
H604 H 0.54884 0.10259 0.69476 0.0
H605 H 0.72466 0.02702 0.75951 0.0
H606 H 0.73918 0.14273 0.53921 0.0
H607 H 0.56779 0.24069 0.53529 0.0
H608 H 0.70265 0.07969 0.7334 0.0
H609 H 0.68826 0.98062 0.77287 0.0
H610 H 0.5893 0.18987 0.55887 0.0
H611 H 0.51224 0.05695 0.67893 0.0
H612 H 0.63251 0.95823 0.7675 0.0
H613 H 0.57522 0.96593 0.74256 0.0
H614 H 0.7836 0.17145 0.49081 0.0
H615 H 0.53078 1.00208 0.70503 0.0
H616 H 0.59795 0.28314 0.49434 0.0
N617 N 0.70493 0.17999 0.53027 0.0
C618 C 0.69787 0.20976 0.50811 0.0
C619 C 0.76049 0.18331 0.49404 0.0
C620 C 0.72755 0.22891 0.46574 0.0
C621 C 0.73513 0.16724 0.5244 0.0
C622 C 0.75685 0.21309 0.46478 0.0
N623 N 0.63836 0.20082 0.54535 0.0
C624 C 0.60631 0.2074 0.54549 0.0
C625 C 0.64515 0.25716 0.48966 0.0
C626 C 0.6595 0.22198 0.52022 0.0
C627 C 0.61171 0.26179 0.50456 0.0
C628 C 0.59344 0.23707 0.52946 0.0
H629 H 0.77721 0.22374 0.44041 0.0
H630 H 0.7464 0.27351 0.40166 0.0
H631 H 0.69139 0.30865 0.39675 0.0
O632 O 0.63332 0.13544 0.4711 0.0
O633 O 0.65918 0.18679 0.63869 0.0
O634 O 0.62142 0.16959 0.71308 0.0
O635 O 0.68244 0.15068 0.468 0.0
O636 O 0.60501 0.13424 0.56772 0.0
O637 O 0.59145 0.14456 0.67255 0.0
O638 O 0.64455 0.11298 0.82191 0.0
O639 O 0.6252 0.08174 0.63083 0.0
O640 O 0.66921 0.09594 0.57224 0.0
O641 O 0.59363 0.11322 0.80059 0.0
O642 O 0.6775 0.13599 0.73109 0.0
O643 O 0.70095 0.13353 0.63035 0.0
C644 C 0.6398 0.19223 0.68738 0.0
C645 C 0.66644 0.12082 0.38082 0.0
C646 C 0.6661 0.11271 0.26513 0.0
C647 C 0.68907 0.08822 0.27201 0.0
C648 C 0.68995 0.09681 0.38723 0.0
C649 C 0.70087 0.08031 0.33292 0.0
C650 C 0.6545 0.12855 0.31999 0.0
C651 C 0.58301 0.13936 0.61292 0.0
C652 C 0.65812 0.14165 0.43474 0.0
C653 C 0.72539 0.26442 0.42628 0.0
C654 C 0.69084 0.28619 0.42396 0.0
C655 C 0.64552 0.07597 0.58325 0.0
C656 C 0.61015 0.13605 0.89925 0.0
C657 C 0.61688 0.14772 1.01338 0.0
C658 C 0.59556 0.17373 1.00699 0.0
C659 C 0.59023 0.16301 0.89298 0.0
C660 C 0.62394 0.1289 0.95902 0.0
C661 C 0.58271 0.18154 0.94692 0.0
C662 C 0.70303 0.13676 0.6943 0.0
C663 C 0.61554 0.11404 0.84528 0.0
H664 H 0.69835 0.07572 0.23018 0.0
H665 H 0.7 0.09112 0.43399 0.0
H666 H 0.71892 0.06178 0.33791 0.0
H667 H 0.63674 0.14748 0.31526 0.0
H668 H 0.58848 0.18782 0.04848 0.0
H669 H 0.58 0.16934 0.84674 0.0
H670 H 0.63995 0.10845 0.96318 0.0
H671 H 0.56654 0.20174 0.94234 0.0
Eu672 Eu 0.89917 0.4106 0.80889 0.0
C673 C 0.83039 0.31524 0.02215 0.0
N674 N 0.82324 0.34527 1.00144 0.0
C675 C 0.7676 0.34119 0.03635 0.0
C676 C 0.80064 0.2953 0.06286 0.0
C677 C 0.79311 0.35791 1.00776 0.0
C678 C 0.77121 0.31093 0.06384 0.0
C679 C 0.88369 0.26858 0.04212 0.0
C680 C 0.86904 0.30371 1.01166 0.0
C681 C 0.83828 0.23859 0.10493 0.0
C682 C 0.80327 0.25968 0.10187 0.0
Eu683 Eu 0.868 0.37687 0.97024 0.0
N684 N 0.88996 0.32535 0.98748 0.0
C685 C 0.91736 0.26472 0.02815 0.0
C686 C 0.92215 0.31969 0.98966 0.0
C687 C 0.93543 0.2901 1.00517 0.0
H688 H 0.78887 0.38238 0.99289 0.0
H689 H 0.96124 0.28713 1.0009 0.0
H690 H 0.97914 0.42045 0.82578 0.0
H691 H 0.80314 0.50017 0.78882 0.0
H692 H 0.93877 0.3382 0.97948 0.0
H693 H 0.93141 0.2435 0.03798 0.0
H694 H 0.82507 0.44639 0.80539 0.0
H695 H 0.74436 0.35279 0.03936 0.0
H696 H 0.83787 0.216 0.13172 0.0
H697 H 0.78227 0.25007 0.12574 0.0
H698 H 0.01739 0.46513 0.83804 0.0
H699 H 0.75077 0.29983 0.08715 0.0
H700 H 0.83986 0.54653 0.77824 0.0
N701 N 0.93847 0.4508 0.8155 0.0
C702 C 0.92762 0.48121 0.80593 0.0
C703 C 0.99228 0.47 0.82848 0.0
C704 C 0.94925 0.50725 0.80553 0.0
C705 C 0.97038 0.44475 0.82408 0.0
C706 C 0.98184 0.50135 0.81776 0.0
N707 N 0.87385 0.46127 0.80456 0.0
C708 C 0.84146 0.46597 0.80112 0.0
C709 C 0.88294 0.51795 0.78992 0.0
C710 C 0.89459 0.48652 0.79914 0.0
C711 C 0.8497 0.52275 0.78556 0.0
C712 C 0.8289 0.49667 0.79167 0.0
H713 H 0.99914 0.52079 0.819 0.0
H714 H 0.95404 0.55859 0.79292 0.0
H715 H 0.89612 0.56792 0.77835 0.0
O716 O 0.88167 0.41324 0.7098 0.0
O717 O 0.89913 0.4431 0.90097 0.0
O718 O 0.8532 0.42816 0.95115 0.0
O719 O 0.93281 0.41178 0.72903 0.0
O720 O 0.85038 0.38815 0.79971 0.0
O721 O 0.82652 0.39114 0.90008 0.0
O722 O 0.89393 0.39724 0.05383 0.0
O723 O 0.8713 0.33716 0.89525 0.0
O724 O 0.90549 0.3552 0.8148 0.0
O725 O 0.84871 0.37298 0.06648 0.0
O726 O 0.92164 0.39305 0.963 0.0
O727 O 0.93568 0.38121 0.8594 0.0
C728 C 0.8758 0.44965 0.94232 0.0
C729 C 0.91471 0.38843 0.63255 0.0
C730 C 0.9096 0.37641 0.5187 0.0
C731 C 0.92581 0.34728 0.52816 0.0
C732 C 0.93031 0.35892 0.64206 0.0
C733 C 0.93588 0.3385 0.58983 0.0
C734 C 0.90391 0.39682 0.57109 0.0
C735 C 0.82481 0.38781 0.83619 0.0
C736 C 0.91043 0.41134 0.68528 0.0
C737 C 0.93768 0.53837 0.79442 0.0
C738 C 0.90467 0.54368 0.78621 0.0
C739 C 0.88899 0.33206 0.84384 0.0
C740 C 0.86366 0.4069 0.14981 0.0
C741 C 0.86557 0.41489 0.26579 0.0
C742 C 0.84103 0.43793 0.2604 0.0
C743 C 0.83828 0.42879 0.1456 0.0
C744 C 0.87696 0.39963 0.2099 0.0
C745 C 0.82741 0.44472 0.20056 0.0
C746 C 0.94379 0.38791 0.91846 0.0
C747 C 0.87248 0.38701 0.09475 0.0
H748 H 0.93041 0.33132 0.48796 0.0
H749 H 0.93851 0.35189 0.6895 0.0
H750 H 0.94822 0.31593 0.59707 0.0
H751 H 0.89177 0.41957 0.56371 0.0
H752 H 0.83191 0.45019 0.30265 0.0
H753 H 0.82602 0.43222 0.10041 0.0
H754 H 0.8948 0.38072 0.21341 0.0
H755 H 0.80773 0.4616 0.19721 0.0
Eu756 Eu 0.36579 0.14935 0.56424 0.0
C757 C 0.46024 0.08033 0.77579 0.0
N758 N 0.43112 0.0729 0.74947 0.0
C759 C 0.44139 0.01678 0.7645 0.0
C760 C 0.48075 0.05592 0.79874 0.0
C761 C 0.42102 0.04173 0.74599 0.0
C762 C 0.47142 0.02389 0.79087 0.0
C763 C 0.49669 0.12061 0.81924 0.0
C764 C 0.46813 0.11247 0.78619 0.0
C765 C 0.51742 0.09633 0.84052 0.0
C766 C 0.50939 0.06411 0.8307 0.0
Eu767 Eu 0.39701 0.11703 0.72909 0.0
N768 N 0.44667 0.13559 0.76924 0.0
C769 C 0.50257 0.15285 0.83398 0.0
C770 C 0.45135 0.16678 0.7877 0.0
C771 C 0.47963 0.17596 0.81885 0.0
H772 H 0.39673 0.03601 0.73139 0.0
H773 H 0.48339 0.20077 0.83246 0.0
H774 H 0.35189 0.22684 0.59868 0.0
H775 H 0.27979 0.04986 0.5346 0.0
H776 H 0.43324 0.18471 0.7794 0.0
H777 H 0.52394 0.15997 0.85997 0.0
H778 H 0.33268 0.07345 0.55134 0.0
H779 H 0.43344 0.99212 0.76063 0.0
H780 H 0.53919 0.10219 0.86669 0.0
H781 H 0.52537 0.04564 0.84863 0.0
H782 H 0.30537 0.2621 0.61842 0.0
H783 H 0.48677 1.00451 0.80705 0.0
H784 H 0.23161 0.08449 0.53179 0.0
N785 N 0.32347 0.18566 0.57977 0.0
C786 C 0.29348 0.17389 0.56808 0.0
C787 C 0.30171 0.23742 0.60378 0.0
C788 C 0.26634 0.19405 0.57273 0.0
C789 C 0.32803 0.21712 0.59503 0.0
C790 C 0.2708 0.22614 0.59064 0.0
N791 N 0.31607 0.12153 0.55705 0.0
C792 C 0.31256 0.08917 0.54994 0.0
C793 C 0.25855 0.12826 0.54756 0.0
C794 C 0.28969 0.14107 0.55625 0.0
C795 C 0.25513 0.09518 0.53878 0.0
C796 C 0.28222 0.07556 0.54051 0.0
H797 H 0.25051 0.24224 0.59574 0.0
H798 H 0.21448 0.19652 0.56584 0.0
H799 H 0.20767 0.13907 0.54275 0.0
O800 O 0.35625 0.13961 0.46236 0.0
O801 O 0.33542 0.15091 0.65804 0.0
O802 O 0.34746 0.10261 0.69806 0.0
O803 O 0.3698 0.18732 0.49305 0.0
O804 O 0.38766 0.1008 0.55163 0.0
O805 O 0.38837 0.07642 0.65163 0.0
O806 O 0.36962 0.13766 0.81061 0.0
O807 O 0.43731 0.1374 0.67031 0.0
O808 O 0.42095 0.13944 0.56345 0.0
O809 O 0.3977 0.09435 0.82258 0.0
O810 O 0.38503 0.17176 0.72044 0.0
O811 O 0.39663 0.18525 0.61561 0.0
C812 C 0.32719 0.12636 0.69431 0.0
C813 C 0.38357 0.17208 0.38615 0.0
C814 C 0.39081 0.1624 0.27064 0.0
C815 C 0.41638 0.18457 0.27103 0.0
C816 C 0.40955 0.19361 0.38522 0.0
C817 C 0.42587 0.19965 0.32799 0.0
C818 C 0.37488 0.15587 0.32915 0.0
C819 C 0.39013 0.07514 0.58734 0.0
C820 C 0.36353 0.16859 0.44433 0.0
C821 C 0.23556 0.18133 0.56245 0.0
C822 C 0.23168 0.1486 0.54954 0.0
C823 C 0.44362 0.13853 0.60861 0.0
C824 C 0.36151 0.10576 0.90583 0.0
C825 C 0.35504 0.10678 0.02238 0.0
C826 C 0.33466 0.07996 0.01788 0.0
C827 C 0.34141 0.07885 0.90204 0.0
C828 C 0.36825 0.11968 0.9659 0.0
C829 C 0.32777 0.06623 0.95794 0.0
C830 C 0.39331 0.19323 0.67623 0.0
C831 C 0.38051 0.11615 0.8506 0.0
H832 H 0.42881 0.19075 0.22699 0.0
H833 H 0.41689 0.20634 0.42835 0.0
H834 H 0.44555 0.21665 0.32748 0.0
H835 H 0.3555 0.13851 0.33057 0.0
H836 H 0.32469 0.06916 0.06084 0.0
H837 H 0.33726 0.06697 0.85639 0.0
H838 H 0.38461 0.13993 0.96891 0.0
H839 H 0.31253 0.04522 0.95504 0.0
Eu840 Eu 0.65936 0.6444 0.47871 0.0
C841 C 0.56993 0.57824 0.26408 0.0
N842 N 0.59885 0.56996 0.2899 0.0
C843 C 0.5884 0.51439 0.26769 0.0
C844 C 0.54975 0.55471 0.23638 0.0
C845 C 0.60838 0.53855 0.29167 0.0
C846 C 0.55905 0.5225 0.23954 0.0
C847 C 0.53178 0.61962 0.23316 0.0
C848 C 0.56104 0.61049 0.26253 0.0
C849 C 0.51212 0.59627 0.20441 0.0
C850 C 0.52112 0.56396 0.20575 0.0
Eu851 Eu 0.63281 0.61347 0.31623 0.0
N852 N 0.58142 0.633 0.28724 0.0
C853 C 0.52367 0.65214 0.2311 0.0
C854 C 0.57427 0.66485 0.28195 0.0
C855 C 0.54514 0.67484 0.25516 0.0
H856 H 0.63217 0.53213 0.30791 0.0
H857 H 0.53964 0.70015 0.25165 0.0
H858 H 0.65727 0.72481 0.49736 0.0
H859 H 0.7596 0.55991 0.4921 0.0
H860 H 0.59096 0.68292 0.29677 0.0
H861 H 0.50135 0.66003 0.20929 0.0
H862 H 0.70471 0.57665 0.46504 0.0
H863 H 0.59615 0.48961 0.26891 0.0
H864 H 0.48994 0.60296 0.18063 0.0
H865 H 0.50553 0.54623 0.18369 0.0
H866 H 0.69269 0.76583 0.54507 0.0
H867 H 0.54396 0.50376 0.21953 0.0
H868 H 0.79963 0.60027 0.52579 0.0
N869 N 0.69313 0.68838 0.49889 0.0
C870 C 0.72412 0.68042 0.51295 0.0
C871 C 0.70213 0.74229 0.53395 0.0
C872 C 0.74568 0.70384 0.53624 0.0
C873 C 0.68223 0.71911 0.5063 0.0
C874 C 0.73418 0.7349 0.54756 0.0
N875 N 0.71257 0.62577 0.48706 0.0
C876 C 0.72141 0.5944 0.48169 0.0
C877 C 0.76611 0.63994 0.52127 0.0
C878 C 0.73408 0.64846 0.50687 0.0
C879 C 0.77527 0.60776 0.5155 0.0
C880 C 0.75274 0.58487 0.49641 0.0
H881 H 0.74972 0.75326 0.56763 0.0
H882 H 0.7945 0.71309 0.5677 0.0
H883 H 0.81255 0.6575 0.55287 0.0
O884 O 0.64723 0.61935 0.56834 0.0
O885 O 0.69725 0.64682 0.39361 0.0
O886 O 0.68483 0.60215 0.33621 0.0
O887 O 0.66136 0.66887 0.571 0.0
O888 O 0.6407 0.59339 0.48171 0.0
O889 O 0.65052 0.57175 0.38232 0.0
O890 O 0.64693 0.6393 0.22793 0.0
O891 O 0.59243 0.61294 0.39016 0.0
O892 O 0.60569 0.65485 0.4572 0.0
O893 O 0.63704 0.58803 0.22628 0.0
O894 O 0.64678 0.66815 0.32457 0.0
O895 O 0.63195 0.6821 0.42676 0.0
C896 C 0.70485 0.62558 0.34819 0.0
C897 C 0.62863 0.6517 0.65468 0.0
C898 C 0.61662 0.65333 0.76887 0.0
C899 C 0.58998 0.67295 0.75659 0.0
C900 C 0.60162 0.67093 0.64233 0.0
C901 C 0.58235 0.68144 0.69332 0.0
C902 C 0.63576 0.64253 0.71779 0.0
C903 C 0.64512 0.56824 0.44501 0.0
C904 C 0.65201 0.64451 0.60429 0.0
C905 C 0.77759 0.69532 0.55007 0.0
C906 C 0.78784 0.66358 0.54201 0.0
C907 C 0.58414 0.635 0.43212 0.0
C908 C 0.66189 0.60875 0.13428 0.0
C909 C 0.65953 0.60982 0.01776 0.0
C910 C 0.68285 0.58545 1.01566 0.0
C911 C 0.68684 0.58617 0.13176 0.0
C912 C 0.64917 0.62145 0.07739 0.0
C913 C 0.69735 0.57463 0.0723 0.0
C914 C 0.63954 0.6904 0.3682 0.0
C915 C 0.64352 0.61347 0.19297 0.0
H916 H 0.57508 0.68147 0.79582 0.0
H917 H 0.59603 0.67848 0.5937 0.0
H918 H 0.56174 0.69658 0.68389 0.0
H919 H 0.65685 0.62794 0.72747 0.0
H920 H 0.69034 0.57546 0.96995 0.0
H921 H 0.69673 0.57613 0.1756 0.0
H922 H 0.62958 0.63864 0.07949 0.0
H923 H 0.71597 0.55652 0.07017 0.0
Eu924 Eu 0.13055 0.90489 0.21891 0.0
C925 C 0.19733 0.81589 1.00695 0.0
N926 N 0.2056 0.84344 0.03795 0.0
C927 C 0.26154 0.83032 0.02768 0.0
C928 C 0.22118 0.79513 0.98246 0.0
C929 C 0.2372 0.85075 0.04918 0.0
C930 C 0.25355 0.80267 0.99325 0.0
C931 C 0.15587 0.77929 0.9695 0.0
C932 C 0.16491 0.80833 0.99967 0.0
C933 C 0.17954 0.75913 0.94342 0.0
C934 C 0.21208 0.76722 0.94914 0.0
Eu935 Eu 0.16295 0.87967 0.05568 0.0
N936 N 0.1423 0.82925 0.02185 0.0
C937 C 0.12322 0.77157 0.96527 0.0
C938 C 0.11037 0.82234 1.01478 0.0
C939 C 0.10039 0.79316 0.98829 0.0
H940 H 0.24399 0.87313 0.0715 0.0
H941 H 0.075 0.78776 0.98395 0.0
H942 H 0.05215 0.92036 0.19549 0.0
H943 H 0.22518 0.98172 0.31427 0.0
H944 H 0.09215 0.83916 0.02757 0.0
H945 H 0.11538 0.74932 0.94325 0.0
H946 H 0.20086 0.93139 0.27905 0.0
H947 H 0.2865 0.83636 0.03623 0.0
H948 H 0.17295 0.73713 0.91883 0.0
H949 H 0.23009 0.75114 0.92958 0.0
H950 H 0.0168 0.96762 0.18648 0.0
H951 H 0.27253 0.78714 0.97574 0.0
H952 H 0.19258 0.03075 0.31554 0.0
N953 N 0.09407 0.94771 0.21464 0.0
C954 C 0.10617 0.97676 0.23203 0.0
C955 C 0.04191 0.9706 0.19893 0.0
C956 C 0.08612 1.00398 0.23411 0.0
C957 C 0.06218 0.94396 0.20166 0.0
C958 C 0.05385 1.00077 0.21577 0.0
N959 N 0.15788 0.95264 0.24433 0.0
C960 C 0.188 0.95316 0.27034 0.0
C961 C 0.15101 1.00833 0.27148 0.0
C962 C 0.13877 0.97917 0.2478 0.0
C963 C 0.18272 1.00932 0.29404 0.0
C964 C 0.20128 0.9816 0.29355 0.0
H965 H 0.03778 0.02122 0.21608 0.0
H966 H 0.08363 0.05441 0.25864 0.0
H967 H 0.13979 0.05701 0.2955 0.0
O968 O 0.14611 0.90082 0.31916 0.0
O969 O 0.12737 0.94179 0.13312 0.0
O970 O 0.17423 0.93005 0.08683 0.0
O971 O 0.0954 0.90265 0.29616 0.0
O972 O 0.18115 0.8831 0.22201 0.0
O973 O 0.20128 0.90011 0.12618 0.0
O974 O 0.14465 0.89308 0.95791 0.0
O975 O 0.16454 0.83856 0.12739 0.0
O976 O 0.12366 0.85105 0.19824 0.0
O977 O 0.19598 0.88969 0.9793 0.0
O978 O 0.10765 0.89272 0.06173 0.0
O979 O 0.09284 0.87765 0.16387 0.0
C980 C 0.1507 0.95027 0.09358 0.0
C981 C 0.1102 0.87985 0.39651 0.0
C982 C 0.11385 0.87293 0.51286 0.0
C983 C 0.08982 0.84918 0.50879 0.0
C984 C 0.08765 0.85502 0.39295 0.0
C985 C 0.07733 0.83989 0.44907 0.0
C986 C 0.12446 0.8875 0.45565 0.0
C987 C 0.20603 0.89033 0.18602 0.0
C988 C 0.11693 0.90057 0.3414 0.0
C989 C 0.09873 0.03328 0.25549 0.0
C990 C 0.13082 0.0351 0.27543 0.0
C991 C 0.14343 0.83017 0.17121 0.0
C992 C 0.18401 0.9042 0.87105 0.0
C993 C 0.17652 0.90455 0.75477 0.0
C994 C 0.20797 0.91623 0.74731 0.0
C995 C 0.21534 0.91614 0.86228 0.0
C996 C 0.16447 0.89843 0.81694 0.0
C997 C 0.22712 0.92225 0.80089 0.0
C998 C 0.08504 0.88467 0.10446 0.0
C999 C 0.17409 0.89464 0.93623 0.0
H1000 H 0.08052 0.83778 0.55169 0.0
H1001 H 0.0779 0.84767 0.347 0.0
H1002 H 0.05922 0.82129 0.44642 0.0
H1003 H 0.14359 0.90514 0.4565 0.0
H1004 H 0.21778 0.92058 0.69979 0.0
H1005 H 0.23115 0.9202 0.90298 0.0
H1006 H 0.14049 0.88863 0.82289 0.0
H1007 H 0.25134 0.93126 0.79482 0.0
Eu1008 Eu 0.86578 0.64558 0.05601 0.0
C1009 C 0.96994 0.60157 0.25438 0.0
N1010 N 0.94761 0.59277 0.21042 0.0
C1011 C 0.98359 0.55382 0.16207 0.0
C1012 C 1.00564 0.58134 0.25741 0.0
C1013 C 0.95399 0.5693 0.16667 0.0
C1014 C 1.00898 0.55961 0.20387 0.0
C1015 C 0.97936 0.63981 0.37881 0.0
C1016 C 0.95898 0.62853 0.31088 0.0
C1017 C 0.01547 0.62734 0.40617 0.0
C1018 C 0.03804 0.59794 0.36259 0.0
Eu1019 Eu 0.8969 0.61819 0.22386 0.0
N1020 N 0.93081 0.64367 0.29938 0.0
C1021 C 0.96505 0.66436 0.41357 0.0
C1022 C 0.92052 0.66862 0.33674 0.0
C1023 C 0.93691 0.67886 0.39199 0.0
H1024 H 0.93662 0.56254 0.13179 0.0
H1025 H 0.92688 0.69837 0.41998 0.0
H1026 H 0.84369 0.71962 0.10733 0.0
H1027 H 0.79407 0.55011 0.94648 0.0
H1028 H 0.89784 0.68006 0.3262 0.0
H1029 H 0.97647 0.67333 0.45692 0.0
H1030 H 0.84295 0.57445 0.98944 0.0
H1031 H 0.9869 0.53638 0.12385 0.0
H1032 H 0.03035 0.61217 0.38947 0.0
H1033 H 0.06415 0.58699 0.37874 0.0
H1034 H 0.7939 0.75007 0.12353 0.0
H1035 H 0.0302 0.54559 0.19329 0.0
H1036 H 0.74388 0.58131 0.9438 0.0
N1037 N 0.82015 0.6778 0.07237 0.0
C1038 C 0.79229 0.66534 0.04885 0.0
C1039 C 0.79311 0.72635 0.10225 0.0
C1040 C 0.76396 0.6838 0.04922 0.0
C1041 C 0.82128 0.70856 0.09521 0.0
C1042 C 0.76437 0.7142 0.07792 0.0
N1043 N 0.81964 0.61629 0.02559 0.0
C1044 C 0.82061 0.58682 0.99665 0.0
C1045 C 0.764 0.62197 0.99504 0.0
C1046 C 0.7921 0.63405 0.02444 0.0
C1047 C 0.76468 0.5912 0.968 0.0
C1048 C 0.79301 0.57345 0.96941 0.0
H1049 H 0.74282 0.72877 0.08024 0.0
H1050 H 0.71507 0.68652 0.01744 0.0
H1051 H 0.71581 0.63373 0.9639 0.0
O1052 O 0.86055 0.63866 0.95176 0.0
O1053 O 0.8316 0.64885 0.14585 0.0
O1054 O 0.84655 0.60393 0.19531 0.0
O1055 O 0.87419 0.68495 0.98902 0.0
O1056 O 0.88562 0.59492 0.05446 0.0
O1057 O 0.88124 0.57511 0.15809 0.0
O1058 O 0.8703 0.62475 0.31449 0.0
O1059 O 0.93561 0.64268 0.16371 0.0
O1060 O 0.91944 0.63069 0.06006 0.0
O1061 O 0.90208 0.58291 0.30095 0.0
O1062 O 0.88219 0.67208 0.21353 0.0
O1063 O 0.89401 0.68378 0.10786 0.0
C1064 C 0.82493 0.62616 0.18776 0.0
C1065 C 0.88835 0.67335 0.87947 0.0
C1066 C 0.89848 0.66367 0.76423 0.0
C1067 C 0.91822 0.69112 0.76378 0.0
C1068 C 0.9094 0.69964 0.87752 0.0
C1069 C 0.92412 0.70841 0.82007 0.0
C1070 C 0.8833 0.65508 0.82273 0.0
C1071 C 0.88161 0.57087 0.09436 0.0
C1072 C 0.86846 0.66788 0.93761 0.0
C1073 C 0.73633 0.67183 0.01963 0.0
C1074 C 0.73663 0.64152 0.99072 0.0
C1075 C 0.94204 0.63876 0.10211 0.0
C1076 C 0.87592 0.588 0.40504 0.0
C1077 C 0.87341 0.59569 0.52192 0.0
C1078 C 0.86133 0.56437 0.52789 0.0
C1079 C 0.86473 0.55657 0.41267 0.0
C1080 C 0.88042 0.60765 0.45983 0.0
C1081 C 0.85709 0.54501 0.47365 0.0
C1082 C 0.89088 0.69282 0.16819 0.0
C1083 C 0.88365 0.59935 0.33985 0.0
H1084 H 0.9287 0.69988 0.71951 0.0
H1085 H 0.91364 0.71427 0.91987 0.0
H1086 H 0.93952 0.72934 0.81876 0.0
H1087 H 0.86713 0.63468 0.82395 0.0
H1088 H 0.85584 0.55458 0.57489 0.0
H1089 H 0.86159 0.54104 0.3712 0.0
H1090 H 0.88964 0.63182 0.45433 0.0
H1091 H 0.84813 0.52078 0.47898 0.0
Eu1092 Eu 0.13438 0.11391 0.80383 0.0
C1093 C 0.19821 0.20368 0.02088 0.0
N1094 N 0.20604 0.17495 0.99364 0.0
C1095 C 0.26213 0.1855 1.01087 0.0
C1096 C 0.22235 0.2239 0.04632 0.0
C1097 C 0.23746 0.16555 0.98884 0.0
C1098 C 0.25456 0.21473 0.03996 0.0
C1099 C 0.15726 0.24051 0.06009 0.0
C1100 C 0.16583 0.21195 0.02759 0.0
C1101 C 0.18131 0.26073 0.08463 0.0
C1102 C 0.21371 0.25233 0.0783 0.0
Eu1103 Eu 0.16198 0.14108 0.9705 0.0
N1104 N 0.14277 0.19113 1.00664 0.0
C1105 C 0.12472 0.24695 0.07087 0.0
C1106 C 0.11122 0.19627 0.0216 0.0
C1107 C 0.1017 0.22437 0.05291 0.0
H1108 H 0.24377 0.14208 0.97096 0.0
H1109 H 0.07658 0.22836 0.06406 0.0
H1110 H 0.05368 0.11406 0.79078 0.0
H1111 H 0.22082 0.0163 0.78302 0.0
H1112 H 0.09316 0.17854 1.01162 0.0
H1113 H 0.11724 0.26849 0.09593 0.0
H1114 H 0.20335 0.07264 0.79194 0.0
H1115 H 0.28694 0.17786 1.00723 0.0
H1116 H 0.17508 0.28257 0.11011 0.0
H1117 H 0.23196 0.26805 0.09824 0.0
H1118 H 1.01173 0.07576 0.75855 0.0
H1119 H 0.27374 0.22979 0.05839 0.0
H1120 H 0.17999 0.97337 0.77787 0.0
N1121 N 0.09055 0.07878 0.79423 0.0
C1122 C 0.09861 0.04739 0.78584 0.0
C1123 C 0.03568 0.06721 0.76912 0.0
C1124 C 0.07477 0.0243 0.77244 0.0
C1125 C 0.0595 0.08886 0.78767 0.0
C1126 C 0.04311 0.03466 0.763 0.0
N1127 N 0.15394 0.06135 0.79691 0.0
C1128 C 0.1857 0.05402 0.79212 0.0
C1129 C 0.13967 1.00594 0.7812 0.0
C1130 C 0.13098 0.03839 0.78825 0.0
C1131 C 0.17236 0.99798 0.78193 0.0
C1132 C 0.19549 0.02217 0.78543 0.0
H1133 H 0.02436 0.01783 0.74973 0.0
H1134 H 0.06529 0.97375 0.75697 0.0
H1135 H 0.12186 0.95754 0.76738 0.0
O1136 O 0.15831 0.11729 0.70985 0.0
O1137 O 0.12902 0.07882 0.89251 0.0
O1138 O 0.17454 0.08991 0.94757 0.0
O1139 O 0.10665 0.11403 0.71553 0.0
O1140 O 0.18503 0.13358 0.80757 0.0
O1141 O 0.2023 0.11916 0.9079 0.0
O1142 O 0.13623 0.1212 0.0543 0.0
O1143 O 0.16325 0.18285 0.89992 0.0
O1144 O 0.12872 0.16865 0.81717 0.0
O1145 O 0.1853 0.13925 0.0628 0.0
O1146 O 0.10725 0.13073 0.95488 0.0
O1147 O 0.09771 0.14483 0.85043 0.0
C1148 C 0.15086 0.07024 0.93576 0.0
C1149 C 0.12718 0.1425 0.62906 0.0
C1150 C 0.12809 0.15689 0.5163 0.0
C1151 C 0.11432 0.18668 0.53104 0.0
C1152 C 0.11333 0.17237 0.64388 0.0
C1153 C 0.1069 0.19434 0.59481 0.0
C1154 C 0.1345 0.13484 0.56529 0.0
C1155 C 0.2084 0.12768 0.84792 0.0
C1156 C 0.13121 0.11788 0.67823 0.0
C1157 C 0.08339 0.99188 0.76649 0.0
C1158 C 0.11566 0.98266 0.77204 0.0
C1159 C 0.14635 0.19014 0.84848 0.0
C1160 C 0.16641 0.10986 0.1503 0.0
C1161 C 0.16699 0.11297 0.2664 0.0
C1162 C 0.19286 0.09141 0.26775 0.0
C1163 C 0.19085 0.08671 0.15177 0.0
C1164 C 0.15361 0.12197 0.20763 0.0
C1165 C 0.20395 0.07742 0.21071 0.0
C1166 C 0.0874 0.14046 0.909 0.0
C1167 C 0.16024 0.12813 0.09243 0.0
H1168 H 0.10917 0.20378 0.49322 0.0
H1169 H 0.10692 0.1784 0.69298 0.0
H1170 H 0.09594 0.2172 0.60616 0.0
H1171 H 0.14488 0.11165 0.55364 0.0
H1172 H 0.20403 0.08513 0.31312 0.0
H1173 H 0.20113 0.07754 0.10745 0.0
H1174 H 0.13509 0.14032 0.20642 0.0
H1175 H 0.22348 0.06027 0.21205 0.0
Eu1176 Eu 0.62774 0.40432 0.72801 0.0
C1177 C 0.67358 0.3033 0.52581 0.0
N1178 N 0.68241 0.3251 0.5706 0.0
C1179 C 0.72161 0.28853 0.61668 0.0
C1180 C 0.69376 0.26762 0.52117 0.0
C1181 C 0.70586 0.31801 0.61415 0.0
C1182 C 0.71587 0.2637 0.57368 0.0
C1183 C 0.63468 0.29406 0.40192 0.0
C1184 C 0.64618 0.31443 0.46997 0.0
C1185 C 0.64784 0.25792 0.3753 0.0
C1186 C 0.67599 0.23664 0.41624 0.0
Eu1187 Eu 0.65647 0.37561 0.55814 0.0
N1188 N 0.63042 0.34196 0.48304 0.0
C1189 C 0.60958 0.30805 0.3682 0.0
C1190 C 0.60473 0.35175 0.44703 0.0
C1191 C 0.59455 0.33562 0.39132 0.0
H1192 H 0.71289 0.3347 0.64999 0.0
H1193 H 0.5745 0.34533 0.36442 0.0
H1194 H 0.54988 0.42102 0.70603 0.0
H1195 H 0.7266 0.48225 0.80772 0.0
H1196 H 0.5926 0.37388 0.45893 0.0
H1197 H 0.60048 0.29672 0.32488 0.0
H1198 H 0.70095 0.43115 0.7811 0.0
H1199 H 0.73964 0.28501 0.65369 0.0
H1200 H 0.63784 0.2478 0.33163 0.0
H1201 H 0.68316 0.21357 0.39539 0.0
H1202 H 0.51537 0.46884 0.69721 0.0
H1203 H 0.73018 0.24251 0.58246 0.0
H1204 H 0.6948 0.5323 0.8054 0.0
N1205 N 0.59209 0.44769 0.72686 0.0
C1206 C 0.60485 0.47671 0.74243 0.0
C1207 C 0.54049 0.47143 0.70982 0.0
C1208 C 0.58564 0.50452 0.74126 0.0
C1209 C 0.56022 0.44442 0.71342 0.0
C1210 C 0.55317 0.50162 0.72413 0.0
N1211 N 0.65593 0.45173 0.75531 0.0
C1212 C 0.68724 0.45267 0.77524 0.0
C1213 C 0.65105 0.50851 0.77465 0.0
C1214 C 0.63749 0.47871 0.7575 0.0
C1215 C 0.68356 0.50979 0.79201 0.0
C1216 C 0.70166 0.48168 0.79269 0.0
H1217 H 0.53764 0.52246 0.72228 0.0
H1218 H 0.58521 0.55601 0.75371 0.0
H1219 H 0.64302 0.55929 0.78204 0.0
O1220 O 0.63821 0.40789 0.83135 0.0
O1221 O 0.62422 0.44011 0.64113 0.0
O1222 O 0.6691 0.42602 0.58715 0.0
O1223 O 0.59324 0.38599 0.79841 0.0
O1224 O 0.67772 0.38509 0.72572 0.0
O1225 O 0.69984 0.38975 0.62431 0.0
O1226 O 0.64767 0.40182 0.46961 0.0
O1227 O 0.62976 0.3376 0.61547 0.0
O1228 O 0.64624 0.35249 0.71611 0.0
O1229 O 0.69045 0.37161 0.47742 0.0
O1230 O 0.60337 0.39226 0.56895 0.0
O1231 O 0.58856 0.37882 0.67239 0.0
C1232 C 0.64608 0.44664 0.59681 0.0
C1233 C 0.60313 0.38617 0.91447 0.0
C1234 C 0.61617 0.38553 0.02919 0.0
C1235 C 0.58933 0.36592 0.04029 0.0
C1236 C 0.57708 0.36572 0.92694 0.0
C1237 C 0.56987 0.35619 0.9894 0.0
C1238 C 0.62279 0.3962 0.96626 0.0
C1239 C 0.70266 0.38852 0.68825 0.0
C1240 C 0.61205 0.39275 0.84696 0.0
C1241 C 0.59951 0.53433 0.75575 0.0
C1242 C 0.63214 0.53625 0.77234 0.0
C1243 C 0.63527 0.33048 0.67605 0.0
C1244 C 0.68512 0.40522 0.38379 0.0
C1245 C 0.68222 0.41446 0.26799 0.0
C1246 C 0.70467 0.43943 0.27485 0.0
C1247 C 0.70752 0.43005 0.39003 0.0
C1248 C 0.67257 0.39738 0.32291 0.0
C1249 C 0.71737 0.44699 0.33548 0.0
C1250 C 0.58129 0.3837 0.61167 0.0
C1251 C 0.67202 0.38884 0.43996 0.0
H1252 H 0.58376 0.35769 0.08846 0.0
H1253 H 0.56308 0.35574 0.88829 0.0
H1254 H 0.54967 0.34041 0.99811 0.0
H1255 H 0.64382 0.41096 0.95753 0.0
H1256 H 0.71243 0.453 0.23327 0.0
H1257 H 0.71693 0.43659 0.43693 0.0
H1258 H 0.65454 0.37864 0.31863 0.0
H1259 H 0.73463 0.46628 0.34027 0.0
Eu1260 Eu 0.36846 0.87831 0.47091 0.0
C1261 C 0.46314 0.94719 0.26016 0.0
N1262 N 0.433 0.95351 0.28177 0.0
C1263 C 0.43626 1.00962 0.25067 0.0
C1264 C 0.48224 0.97758 0.21986 0.0
C1265 C 0.41996 0.98348 0.27763 0.0
C1266 C 0.46629 1.00677 0.22147 0.0
C1267 C 0.51075 0.89511 0.23666 0.0
C1268 C 0.47547 0.90881 0.2689 0.0
C1269 C 0.53939 0.94146 0.17425 0.0
C1270 C 0.51763 0.97594 0.17936 0.0
Eu1271 Eu 0.40167 0.90794 0.30931 0.0
N1272 N 0.45429 0.8874 0.29321 0.0
C1273 C 0.51542 0.86157 0.24948 0.0
C1274 C 0.46116 0.85548 0.29252 0.0
C1275 C 0.49079 0.84301 0.27422 0.0
H1276 H 0.3952 0.9869 0.29098 0.0
H1277 H 0.49433 0.81732 0.27729 0.0
H1278 H 0.35247 0.80033 0.44192 0.0
H1279 H 0.28718 0.97795 0.52585 0.0
H1280 H 0.44371 0.83825 0.30597 0.0
H1281 H 0.53676 0.84799 0.23782 0.0
H1282 H 0.33922 0.95263 0.50614 0.0
H1283 H 0.42425 0.03265 0.24938 0.0
H1284 H 0.56182 0.94253 0.14674 0.0
H1285 H 0.5267 0.99727 0.15606 0.0
H1286 H 0.30504 0.76567 0.42922 0.0
H1287 H 0.47696 0.0276 0.19894 0.0
H1288 H 0.2376 0.94525 0.52334 0.0
N1289 N 0.32526 0.84255 0.45948 0.0
C1290 C 0.29573 0.85517 0.4721 0.0
C1291 C 0.30206 0.79077 0.44122 0.0
C1292 C 0.26812 0.83553 0.47085 0.0
C1293 C 0.32891 0.8107 0.44637 0.0
C1294 C 0.27157 0.80308 0.45455 0.0
N1295 N 0.31984 0.90693 0.48289 0.0
C1296 C 0.31801 0.93855 0.49951 0.0
C1297 C 0.26256 0.90141 0.4982 0.0
C1298 C 0.29297 0.88808 0.48425 0.0
C1299 C 0.26049 0.93421 0.51197 0.0
C1300 C 0.28837 0.9528 0.51294 0.0
H1301 H 0.25089 0.7873 0.45241 0.0
H1302 H 0.21656 0.83403 0.4851 0.0
H1303 H 0.21174 0.89146 0.51021 0.0
O1304 O 0.36593 0.89386 0.57132 0.0
O1305 O 0.33609 0.87623 0.37853 0.0
O1306 O 0.34967 0.92181 0.32659 0.0
O1307 O 0.36744 0.84332 0.54819 0.0
O1308 O 0.39311 0.92652 0.47651 0.0
O1309 O 0.38366 0.94861 0.37736 0.0
O1310 O 0.38237 0.88232 0.2243 0.0
O1311 O 0.4408 0.90688 0.38556 0.0
O1312 O 0.42363 0.87093 0.46317 0.0
O1313 O 0.40602 0.92795 0.21395 0.0
O1314 O 0.38795 0.85355 0.3175 0.0
O1315 O 0.39768 0.84065 0.42283 0.0
C1316 C 0.32842 0.89922 0.33744 0.0
C1317 C 0.38964 0.8597 0.64743 0.0
C1318 C 0.40082 0.86509 0.76184 0.0
C1319 C 0.43077 0.85023 0.75246 0.0
C1320 C 0.41965 0.84494 0.63846 0.0
C1321 C 0.44006 0.84017 0.69101 0.0
C1322 C 0.38043 0.86992 0.70894 0.0
C1323 C 0.39045 0.95179 0.4397 0.0
C1324 C 0.36745 0.86478 0.59373 0.0
C1325 C 0.23797 0.84886 0.48501 0.0
C1326 C 0.23522 0.88162 0.49903 0.0
C1327 C 0.44648 0.88804 0.43483 0.0
C1328 C 0.37262 0.91332 0.12945 0.0
C1329 C 0.36397 0.91042 1.0142 0.0
C1330 C 0.34206 0.93587 0.01822 0.0
C1331 C 0.352 0.93987 0.13264 0.0
C1332 C 0.37888 0.89886 0.06994 0.0
C1333 C 0.33625 0.95067 0.07737 0.0
C1334 C 0.39326 0.83193 0.3631 0.0
C1335 C 0.39243 0.90431 0.18448 0.0
H1336 H 0.44682 0.84617 0.79275 0.0
H1337 H 0.42723 0.83709 0.59108 0.0
H1338 H 0.46312 0.82862 0.68414 0.0
H1339 H 0.35748 0.88189 0.71548 0.0
H1340 H 0.33055 0.94509 0.97525 0.0
H1341 H 0.34942 0.95303 0.17716 0.0
H1342 H 0.39639 0.87961 0.06648 0.0
H1343 H 0.32049 0.97128 0.07983 0.0
C1344 C 0.1672 0.6482 0.67813 0.0
C1345 C 0.13609 0.64208 0.70176 0.0
C1346 C 0.17649 0.63758 0.61691 0.0
C1347 C 0.15495 0.62055 0.57745 0.0
H1348 H 0.18423 0.66193 0.70656 0.0
H1349 H 0.20042 0.6433 0.59975 0.0
S1350 S 0.07214 0.59517 0.61998 0.0
N1351 N 0.0848 0.61556 0.68344 0.0
N1352 N 0.10207 0.59599 0.56775 0.0
C1353 C 0.12411 0.61348 0.60118 0.0
C1354 C 0.11474 0.62412 0.66358 0.0
C1355 C 0.62575 0.89843 0.93704 0.0
C1356 C 0.65472 0.91447 0.95079 0.0
C1357 C 0.6215 0.88171 0.87882 0.0
C1358 C 0.64616 0.88002 0.83226 0.0
H1359 H 0.60608 0.89909 0.9712 0.0
H1360 H 0.59875 0.86971 0.87041 0.0
S1361 S 0.72707 0.91692 0.84612 0.0
N1362 N 0.70863 0.92723 0.91338 0.0
N1363 N 0.70076 0.8955 0.80471 0.0
C1364 C 0.67513 0.89616 0.84526 0.0
C1365 C 0.67941 0.91331 0.90437 0.0
C1366 C 0.42169 0.40743 0.18097 0.0
C1367 C 0.40867 0.37894 0.20528 0.0
C1368 C 0.41289 0.41854 0.12003 0.0
C1369 C 0.3912 0.40121 0.08125 0.0
H1370 H 0.43776 0.4218 0.21031 0.0
H1371 H 0.42202 0.44156 0.10415 0.0
S1372 S 0.35255 0.32374 0.12187 0.0
N1373 N 0.37414 0.3329 0.18624 0.0
N1374 N 0.35901 0.35286 0.0696 0.0
C1375 C 0.37956 0.37166 0.10365 0.0
C1376 C 0.38788 0.36077 0.16648 0.0
C1377 C 0.88672 0.10511 0.43203 0.0
C1378 C 0.89851 0.13572 0.44869 0.0
C1379 C 0.87099 0.09969 0.37291 0.0
C1380 C 0.86641 0.12462 0.32798 0.0
H1381 H 0.89047 0.08497 0.464 0.0
H1382 H 0.86287 0.07561 0.36181 0.0
S1383 S 0.88998 0.20981 0.35102 0.0
N1384 N 0.9022 0.19179 0.41734 0.0
N1385 N 0.87337 0.18149 0.3063 0.0
C1386 C 0.87747 0.15545 0.34471 0.0
C1387 C 0.89319 0.16102 0.40501 0.0
C1388 C 0.16211 0.37788 0.34196 0.0
C1389 C 0.13012 0.37906 0.31957 0.0
C1390 C 0.17064 0.3908 0.40199 0.0
C1391 C 0.14742 0.40463 0.44259 0.0
H1392 H 0.18077 0.36692 0.31295 0.0
H1393 H 0.19569 0.39049 0.41633 0.0
S1394 S 0.06124 0.41665 0.40511 0.0
N1395 N 0.07574 0.39797 0.34121 0.0
N1396 N 0.09172 0.42045 0.45563 0.0
C1397 C 0.1155 0.40608 0.42119 0.0
C1398 C 0.10686 0.39372 0.35935 0.0
C1399 C 0.87704 0.86698 0.67186 0.0
C1400 C 0.90465 0.8785 0.70341 0.0
C1401 C 0.86906 0.87782 0.61011 0.0
C1402 C 0.8883 0.90069 0.57877 0.0
H1403 H 0.86122 0.8501 0.69567 0.0
H1404 H 0.84706 0.86926 0.5883 0.0
S1405 S 0.96247 0.93849 0.64184 0.0
N1406 N 0.9511 0.91365 0.69935 0.0
N1407 N 0.93583 0.93433 0.5833 0.0
C1408 C 0.91624 0.91173 0.60932 0.0
C1409 C 0.92447 0.90058 0.67183 0.0
C1410 C 0.39372 0.59193 0.87616 0.0
C1411 C 0.37447 0.6106 0.83516 0.0
C1412 C 0.4034 0.60356 0.93654 0.0
C1413 C 0.39396 0.6342 0.95813 0.0
H1414 H 0.40197 0.56849 0.86082 0.0
H1415 H 0.41902 0.58876 0.96584 0.0
S1416 S 0.34042 0.69084 0.87186 0.0
N1417 N 0.34454 0.66025 0.8218 0.0
N1418 N 0.36193 0.68171 0.93613 0.0
C1419 C 0.37373 0.65259 0.91846 0.0
C1420 C 0.36421 0.64091 0.85675 0.0
C1421 C 0.63148 0.10709 0.09703 0.0
C1422 C 0.6307 0.13935 0.077 0.0
C1423 C 0.64334 0.09865 0.15771 0.0
C1424 C 0.6546 0.12217 0.20067 0.0
H1425 H 0.62223 0.08822 0.06618 0.0
H1426 H 0.64304 0.07362 0.17167 0.0
S1427 S 0.66055 0.20961 0.16968 0.0
N1428 N 0.64459 0.19459 0.10329 0.0
N1429 N 0.66605 0.17878 0.21822 0.0
C1430 C 0.65457 0.15442 0.18102 0.0
C1431 C 0.64284 0.16299 0.11895 0.0
C1432 C 0.85557 0.39968 0.3803 0.0
C1433 C 0.87758 0.40521 0.33002 0.0
C1434 C 0.86613 0.39044 0.44146 0.0
C1435 C 0.89899 0.38592 0.45399 0.0
H1436 H 0.82994 0.40219 0.37221 0.0
H1437 H 0.84851 0.38646 0.47903 0.0
S1438 S 0.96647 0.39859 0.34073 0.0
N1439 N 0.93391 0.40664 0.29806 0.0
N1440 N 0.95355 0.38854 0.4131 0.0
C1441 C 0.92126 0.39134 0.40461 0.0
C1442 C 0.9106 0.40107 0.34248 0.0
C1443 C 0.40439 0.13779 0.16343 0.0
C1444 C 0.3808 0.14695 0.20872 0.0
C1445 C 0.39593 0.12514 0.10316 0.0
C1446 C 0.36352 0.12054 0.08609 0.0
H1447 H 0.42972 0.14034 0.17457 0.0
H1448 H 0.41492 0.11854 0.06997 0.0
S1449 S 0.29228 0.1411 0.18482 0.0
N1450 N 0.32329 0.15125 0.23029 0.0
N1451 N 0.30774 0.12647 0.11775 0.0
C1452 C 0.33969 0.12921 0.1306 0.0
C1453 C 0.34821 0.14253 0.19173 0.0
C1454 C 0.63157 0.60097 0.9132 0.0
C1455 C 0.64554 0.62232 0.95749 0.0
C1456 C 0.62059 0.61185 0.8535 0.0
C1457 C 0.62476 0.64382 0.83491 0.0
H1458 H 0.62908 0.57576 0.92486 0.0
H1459 H 0.60874 0.59534 0.82132 0.0
S1460 S 0.65739 0.70977 0.93488 0.0
N1461 N 0.65923 0.6778 0.98163 0.0
N1462 N 0.64217 0.69723 0.86574 0.0
C1463 C 0.63778 0.66564 0.87909 0.0
C1464 C 0.64738 0.65502 0.94133 0.0
C1465 C 0.13286 0.85873 0.62407 0.0
C1466 C 0.12778 0.88228 0.57643 0.0
C1467 C 0.14698 0.86645 0.68339 0.0
C1468 C 0.15734 0.8978 0.69655 0.0
H1469 H 0.1268 0.83387 0.61497 0.0
H1470 H 0.15117 0.84748 0.71798 0.0
S1471 S 0.14822 0.96895 0.59156 0.0
N1472 N 0.13192 0.93924 0.55016 0.0
N1473 N 0.16109 0.95273 0.65915 0.0
C1474 C 0.15216 0.92167 0.65024 0.0
C1475 C 0.13682 0.91417 0.59076 0.0
C1476 C 0.86181 0.63385 0.68734 0.0
C1477 C 0.89272 0.6455 0.70275 0.0
C1478 C 0.85565 0.61837 0.6284 0.0
C1479 C 0.87983 0.61464 0.5815 0.0
H1480 H 0.84202 0.63701 0.72061 0.0
H1481 H 0.83167 0.60928 0.61948 0.0
S1482 S 0.96552 0.63738 0.59983 0.0
N1483 N 0.94861 0.64883 0.66801 0.0
N1484 N 0.93624 0.62195 0.5558 0.0
C1485 C 0.91082 0.62583 0.5962 0.0
C1486 C 0.91743 0.64064 0.65704 0.0
C1487 C 0.11769 0.1257 0.41657 0.0
C1488 C 0.13613 0.14858 0.44979 0.0
C1489 C 0.12661 0.11573 0.3548 0.0
C1490 C 0.1551 0.12711 0.3265 0.0
H1491 H 0.09646 0.1154 0.43864 0.0
H1492 H 0.11149 0.09859 0.33001 0.0
S1493 S 0.20945 0.1895 0.39164 0.0
N1494 N 0.18179 0.18479 0.44789 0.0
N1495 N 0.1999 0.16425 0.3332 0.0
C1496 C 0.17294 0.15079 0.35833 0.0
C1497 C 0.16321 0.16183 0.42002 0.0
C1498 C 0.65322 0.4316 0.16791 0.0
C1499 C 0.66797 0.4071 0.20406 0.0
C1500 C 0.63804 0.42489 0.10893 0.0
C1501 C 0.63723 0.3935 0.08428 0.0
H1502 H 0.65246 0.4559 0.18647 0.0
H1503 H 0.62569 0.44405 0.08389 0.0
S1504 S 0.67494 0.32152 0.15657 0.0
N1505 N 0.6826 0.35066 0.20851 0.0
N1506 N 0.65432 0.33821 0.09745 0.0
C1507 C 0.65299 0.36909 0.1185 0.0
C1508 C 0.66822 0.37582 0.17857 0.0
C1509 C 0.40316 0.90605 0.92464 0.0
C1510 C 0.37324 0.89773 0.95104 0.0
C1511 C 0.41193 0.89534 0.86321 0.0
C1512 C 0.39106 0.87591 0.82669 0.0
H1513 H 0.41962 0.92129 0.9513 0.0
H1514 H 0.43497 0.90264 0.84378 0.0
S1515 S 0.31078 0.84632 0.87717 0.0
N1516 N 0.32328 0.86849 0.93831 0.0
N1517 N 0.33969 0.84787 0.8227 0.0
C1518 C 0.36119 0.86721 0.85325 0.0
C1519 C 0.35232 0.87821 0.91566 0.0
C1520 C 0.1102 0.74547 0.1592 0.0
C1521 C 0.13498 0.72617 0.18465 0.0
C1522 C 0.11207 0.77917 0.15968 0.0
C1523 C 0.13938 0.79515 0.1833 0.0
H1524 H 0.08973 0.73442 0.13608 0.0
H1525 H 0.0929 0.79267 0.13751 0.0
S1526 S 0.21121 0.75634 0.25491 0.0
N1527 N 0.1873 0.72595 0.23652 0.0
N1528 N 0.1918 0.78922 0.23335 0.0
C1529 C 0.16413 0.77635 0.21002 0.0
C1530 C 0.16163 0.74195 0.21197 0.0
C1531 C 0.53429 0.90924 0.46685 0.0
C1532 C 0.5506 0.88182 0.44434 0.0
C1533 C 0.5003 0.91069 0.46739 0.0
C1534 C 0.48126 0.88376 0.45164 0.0
H1535 H 0.54777 0.93051 0.47976 0.0
H1536 H 0.48881 0.93342 0.47805 0.0
S1537 S 0.51256 0.80308 0.4107 0.0
N1538 N 0.54511 0.82568 0.41582 0.0
N1539 N 0.48185 0.82692 0.42679 0.0
C1540 C 0.49748 0.85494 0.43829 0.0
C1541 C 0.53192 0.85425 0.43256 0.0
C1542 C 0.41692 0.28036 0.6541 0.0
C1543 C 0.39279 0.29778 0.6865 0.0
C1544 C 0.41818 0.24674 0.65581 0.0
C1545 C 0.39566 0.22849 0.69067 0.0
H1546 H 0.4343 0.29278 0.62434 0.0
H1547 H 0.43603 0.23487 0.62628 0.0
S1548 S 0.32736 0.2621 0.78397 0.0
N1549 N 0.34573 0.29414 0.75503 0.0
N1550 N 0.34839 0.23072 0.75929 0.0
C1551 C 0.37219 0.24554 0.726 0.0
C1552 C 0.3707 0.28014 0.72365 0.0
C1553 C 1.00036 0.12818 0.96789 0.0
C1554 C 0.98266 0.1472 0.92426 0.0
C1555 C 0.03451 0.12729 0.96599 0.0
C1556 C 0.05198 0.145 0.91977 0.0
H1557 H 0.98779 0.11244 1.0008 0.0
H1558 H 0.04712 0.11124 0.99824 0.0
S1559 S 0.01676 0.20071 0.79882 0.0
N1560 N 0.98555 0.18666 0.83856 0.0
N1561 N 0.04829 0.18331 0.83172 0.0
C1562 C 0.0343 0.16511 0.87822 0.0
C1563 C 1.0001 0.16668 0.8814 0.0
C1564 C 0.16155 0.27886 0.80567 0.0
C1565 C 0.13581 0.29455 0.8371 0.0
C1566 C 0.16453 0.24482 0.80663 0.0
C1567 C 0.14117 0.2252 0.83652 0.0
H1568 H 0.18068 0.29296 0.78448 0.0
H1569 H 0.1857 0.23391 0.78569 0.0
S1570 S 0.06898 0.25375 0.92305 0.0
N1571 N 0.08748 0.28675 0.90023 0.0
N1572 N 0.09122 0.22411 0.89533 0.0
C1573 C 0.11487 0.24054 0.86485 0.0
C1574 C 0.11265 0.27476 0.86671 0.0
C1575 C 0.0331 0.91256 0.07017 0.0
C1576 C 0.04943 0.88429 0.08836 0.0
C1577 C 0.99898 0.91476 0.07242 0.0
C1578 C 0.9794 0.88828 0.08914 0.0
H1579 H 0.04682 0.93397 0.05934 0.0
H1580 H 0.98783 0.93772 0.06266 0.0
S1581 S 1.00986 0.80789 0.135 0.0
N1582 N 0.0428 0.82909 0.1224 0.0
N1583 N 0.97944 0.83222 0.11985 0.0
C1584 C 0.9954 0.85935 0.10302 0.0
C1585 C 0.03005 0.85762 0.10415 0.0
C1586 C 0.41438 0.74439 0.38962 0.0
C1587 C 0.39464 0.72723 0.34641 0.0
C1588 C 0.41495 0.77793 0.39153 0.0
C1589 C 0.3965 0.79663 0.34892 0.0
H1590 H 0.42876 0.73176 0.42463 0.0
H1591 H 0.42909 0.78923 0.42907 0.0
S1592 S 0.34514 0.76417 0.21774 0.0
N1593 N 0.35899 0.73173 0.25416 0.0
N1594 N 0.36088 0.79528 0.25607 0.0
C1595 C 0.37893 0.78005 0.30105 0.0
C1596 C 0.37789 0.74535 0.29997 0.0
C1597 C 0.53071 0.11985 0.56134 0.0
C1598 C 0.54789 0.14309 0.59712 0.0
C1599 C 0.49651 0.11971 0.55988 0.0
C1600 C 0.47841 0.14325 0.59284 0.0
H1601 H 0.54361 0.1003 0.53861 0.0
H1602 H 0.48424 0.09992 0.53653 0.0
S1603 S 0.51181 0.21149 0.6864 0.0
N1604 N 0.54367 0.19116 0.66259 0.0
N1605 N 0.48063 0.19195 0.65664 0.0
C1606 C 0.49552 0.16766 0.62467 0.0
C1607 C 0.52984 0.16733 0.62757 0.0
C1608 C 0.92095 0.24669 0.85434 0.0
C1609 C 0.89588 0.22773 0.82887 0.0
C1610 C 0.92028 0.28047 0.85134 0.0
C1611 C 0.8938 0.2973 0.8263 0.0
H1612 H 0.94075 0.23534 0.87944 0.0
H1613 H 0.9397 0.29344 0.87323 0.0
S1614 S 0.82334 0.25954 0.74663 0.0
N1615 N 0.84558 0.22868 0.76937 0.0
N1616 N 0.84278 0.2921 0.77048 0.0
C1617 C 0.86922 0.27874 0.79787 0.0
C1618 C 0.87068 0.24411 0.79755 0.0
C1619 C 0.61271 0.77732 0.38136 0.0
C1620 C 0.63557 0.79497 0.34629 0.0
C1621 C 0.61354 0.74378 0.3846 0.0
C1622 C 0.63716 0.72555 0.35264 0.0
H1623 H 0.59503 0.78965 0.41034 0.0
H1624 H 0.59637 0.73218 0.41579 0.0
S1625 S 0.70477 0.75964 0.25852 0.0
N1626 N 0.68391 0.79151 0.28113 0.0
N1627 N 0.68525 0.72805 0.2866 0.0
C1628 C 0.66004 0.74261 0.31608 0.0
C1629 C 0.65927 0.77728 0.31296 0.0
C1630 C 0.91296 0.74629 0.13618 0.0
C1631 C 0.89448 0.72841 0.18024 0.0
C1632 C 0.91259 0.77991 0.13531 0.0
C1633 C 0.8935 0.79807 0.17812 0.0
H1634 H 0.92699 0.73418 0.09955 0.0
H1635 H 0.92658 0.79171 0.09832 0.0
S1636 S 0.842 0.76366 0.3065 0.0
N1637 N 0.85768 0.73178 0.27083 0.0
N1638 N 0.85694 0.79531 0.26911 0.0
C1639 C 0.87612 0.78079 0.22498 0.0
C1640 C 0.87659 0.74603 0.22602 0.0
C1641 C 0.60805 0.24333 0.68057 0.0
C1642 C 0.63514 0.22686 0.70387 0.0
C1643 C 0.6078 0.27694 0.67399 0.0
C1644 C 0.63386 0.29585 0.69473 0.0
H1645 H 0.5879 0.2301 0.66211 0.0
H1646 H 0.58742 0.28813 0.65046 0.0
S1647 S 0.7073 0.2651 0.77549 0.0
N1648 N 0.68719 0.23236 0.75536 0.0
N1649 N 0.68502 0.29568 0.75149 0.0
C1650 C 0.65942 0.27999 0.7259 0.0
C1651 C 0.6605 0.24553 0.72851 0.0
C1652 C 0.9958 0.41289 0.95858 0.0
C1653 C 0.97872 0.38614 0.93469 0.0
C1654 C 0.0299 0.41373 0.95708 0.0
C1655 C 0.04799 0.38734 0.93445 0.0
H1656 H 0.98281 0.43418 0.97343 0.0
H1657 H 0.04212 0.43558 0.97135 0.0
S1658 S 0.01436 0.31181 0.86843 0.0
N1659 N 0.98261 0.33325 0.88774 0.0
N1660 N 0.0456 0.33408 0.88879 0.0
C1661 C 0.03094 0.36025 0.91364 0.0
C1662 C 0.99665 0.35981 0.91301 0.0
C1663 C 0.49564 0.61449 0.46257 0.0
C1664 C 0.47929 0.64208 0.44105 0.0
C1665 C 0.52964 0.6128 0.46192 0.0
C1666 C 0.54875 0.63928 0.44381 0.0
H1667 H 0.48209 0.59314 0.47475 0.0
H1668 H 0.54107 0.59022 0.47384 0.0
S1669 S 0.51758 0.71835 0.39138 0.0
N1670 N 0.48485 0.69683 0.4039 0.0
N1671 N 0.54822 0.69479 0.40936 0.0
C1672 C 0.53257 0.66772 0.42724 0.0
C1673 C 0.49805 0.66886 0.42441 0.0
C1674 C 0.49298 0.35874 0.60714 0.0
C1675 C 0.47707 0.3876 0.59207 0.0
C1676 C 0.5269 0.35719 0.61039 0.0
C1677 C 0.54631 0.38387 0.59504 0.0
H1678 H 0.47916 0.33783 0.62091 0.0
H1679 H 0.53804 0.33521 0.62699 0.0
S1680 S 0.51659 0.46402 0.54622 0.0
N1681 N 0.48348 0.44311 0.55953 0.0
N1682 N 0.5469 0.43926 0.55954 0.0
C1683 C 0.5307 0.41208 0.57525 0.0
C1684 C 0.49623 0.41417 0.57531 0.0
C1685 C 0.02725 0.6113 0.06364 0.0
C1686 C 0.04608 0.6387 0.07697 0.0
C1687 C 0.99328 0.61253 0.06355 0.0
C1688 C 0.97672 0.64038 0.08268 0.0
H1689 H 0.03889 0.58842 0.05528 0.0
H1690 H 0.97997 0.59088 0.05268 0.0
S1691 S 1.01395 0.72013 0.10953 0.0
N1692 N 0.04489 0.69616 0.09598 0.0
N1693 N 0.98156 0.6972 0.10594 0.0
C1694 C 0.99508 0.66837 0.09205 0.0
C1695 C 0.02958 0.66776 0.08698 0.0
C1696 C 0.12916 0.5385 0.98673 0.0
C1697 C 0.13774 0.54002 0.053 0.0
C1698 C 0.12924 0.50943 0.95112 0.0
C1699 C 0.13707 0.47992 0.97994 0.0
H1700 H 0.12257 0.56018 0.96131 0.0
H1701 H 0.12277 0.51022 0.90076 0.0
S1702 S 0.16302 0.47017 0.15117 0.0
N1703 N 0.1571 0.50905 0.14345 0.0
N1704 N 0.15378 0.45458 0.08055 0.0
C1705 C 0.14524 0.48107 0.04655 0.0
C1706 C 0.1465 0.51087 0.08181 0.0
C1707 C 0.74296 0.86708 0.26731 0.0
C1708 C 0.73328 0.89355 0.30562 0.0
C1709 C 0.77168 0.86764 0.22947 0.0
C1710 C 0.79273 0.89445 0.22894 0.0
H1711 H 0.72786 0.84592 0.26547 0.0
H1712 H 0.77752 0.84673 0.20072 0.0
S1713 S 0.77876 0.9696 0.3228 0.0
N1714 N 0.74742 0.94705 0.34066 0.0
N1715 N 0.80084 0.94818 0.27251 0.0
C1716 C 0.78321 0.92084 0.26792 0.0
C1717 C 0.75382 0.92037 0.30521 0.0
C1718 C 0.39789 0.51353 0.57383 0.0
C1719 C 0.37916 0.48661 0.55606 0.0
C1720 C 0.39843 0.54185 0.53559 0.0
C1721 C 0.37933 0.54495 0.47941 0.0
H1722 H 0.4129 0.51244 0.61642 0.0
H1723 H 0.41375 0.56147 0.55057 0.0
S1724 S 0.3261 0.48237 0.41111 0.0
N1725 N 0.34186 0.46552 0.47546 0.0
N1726 N 0.34119 0.51892 0.40907 0.0
C1727 C 0.36035 0.51863 0.46202 0.0
C1728 C 0.36063 0.48959 0.49887 0.0
C1729 C 0.7654 0.128 0.83265 0.0
C1730 C 0.79436 0.13921 0.80602 0.0
C1731 C 0.73644 0.12764 0.79634 0.0
C1732 C 0.73486 0.13792 0.73099 0.0
H1733 H 0.76519 0.11863 0.88123 0.0
H1734 H 0.71511 0.11845 0.81979 0.0
S1735 S 0.8028 0.17465 0.64217 0.0
N1736 N 0.81849 0.16464 0.71211 0.0
N1737 N 0.76481 0.16348 0.64588 0.0
C1738 C 0.76336 0.15056 0.70543 0.0
C1739 C 0.7927 0.15135 0.74225 0.0
C1740 C 0.90696 0.52763 0.02381 0.0
C1741 C 0.88147 0.53759 0.06437 0.0
C1742 C 0.90511 0.49934 0.98563 0.0
C1743 C 0.87713 0.48001 0.98363 0.0
H1744 H 0.92849 0.54218 0.02066 0.0
H1745 H 0.92575 0.49293 0.95653 0.0
S1746 S 0.80124 0.49902 0.07067 0.0
N1747 N 0.82657 0.52684 0.09612 0.0
N1748 N 0.82168 0.47631 0.0198 0.0
C1749 C 0.851 0.4906 0.02186 0.0
C1750 C 0.85351 0.51853 0.06313 0.0
C1751 C 0.26102 0.1012 0.81448 0.0
C1752 C 0.24178 0.12889 0.82044 0.0
C1753 C 0.28842 0.10064 0.77391 0.0
C1754 C 0.29857 0.12801 0.73926 0.0
H1755 H 0.25396 0.07928 0.83849 0.0
H1756 H 0.30127 0.07823 0.76841 0.0
S1757 S 0.2595 0.20815 0.74854 0.0
N1758 N 0.23638 0.18501 0.79318 0.0
N1759 N 0.28878 0.18488 0.72185 0.0
C1760 C 0.28067 0.15641 0.7489 0.0
C1761 C 0.25227 0.15662 0.78834 0.0
C1762 C 0.6329 0.5074 0.45695 0.0
C1763 C 0.64693 0.5361 0.48039 0.0
C1764 C 0.63194 0.47881 0.49475 0.0
C1765 C 0.64529 0.47733 0.55759 0.0
H1766 H 0.62161 0.50715 0.41008 0.0
H1767 H 0.62036 0.45781 0.47463 0.0
S1768 S 0.68778 0.54396 0.6396 0.0
N1769 N 0.67557 0.55971 0.57117 0.0
N1770 N 0.67543 0.50636 0.63801 0.0
C1771 C 0.66023 0.50528 0.58024 0.0
C1772 C 0.66056 0.53438 0.543 0.0
C1773 C 0.27736 0.86981 0.29924 0.0
C1774 C 0.29748 0.89723 0.29725 0.0
C1775 C 0.24866 0.8674 0.26209 0.0
C1776 C 0.23896 0.89162 0.21852 0.0
H1777 H 0.2836 0.84996 0.33034 0.0
H1778 H 0.2338 0.84625 0.26775 0.0
S1779 S 0.27965 0.97022 0.20054 0.0
N1780 N 0.30227 0.95101 0.25335 0.0
N1781 N 0.25102 0.94488 0.17924 0.0
C1782 C 0.25883 0.91899 0.2156 0.0
C1783 C 0.28717 0.92218 0.25582 0.0
C1784 C 0.64407 0.98643 0.54078 0.0
C1785 C 0.64098 0.98495 0.47266 0.0
C1786 C 0.64616 0.01559 0.57481 0.0
C1787 C 0.64253 0.04527 0.54436 0.0
H1788 H 0.64612 0.9647 0.56894 0.0
H1789 H 0.65122 0.01466 0.62548 0.0
S1790 S 0.61964 0.05493 0.37212 0.0
N1791 N 0.62731 0.01624 0.37847 0.0
N1792 N 0.62614 0.07057 0.44428 0.0
C1793 C 0.6352 0.04425 0.47768 0.0
C1794 C 0.63527 0.01439 0.44176 0.0
C1795 C 0.24227 0.36383 0.76021 0.0
C1796 C 0.23367 0.38892 0.80278 0.0
C1797 C 0.27117 0.36485 0.72343 0.0
C1798 C 0.29313 0.39075 0.72832 0.0
H1799 H 0.22615 0.34363 0.75399 0.0
H1800 H 0.27627 0.34518 0.69082 0.0
S1801 S 0.2817 0.46208 0.83456 0.0
N1802 N 0.2494 0.44012 0.84744 0.0
N1803 N 0.30333 0.44197 0.78148 0.0
C1804 C 0.28466 0.41566 0.77171 0.0
C1805 C 0.25516 0.41476 0.8079 0.0
C1806 C 0.87075 0.99036 0.99179 0.0
C1807 C 0.88501 0.98834 0.05393 0.0
C1808 C 0.87048 0.01896 0.95537 0.0
C1809 C 0.88483 0.04729 0.97813 0.0
H1810 H 0.85919 0.9696 0.97055 0.0
H1811 H 0.85868 0.01884 0.90888 0.0
S1812 S 0.92752 0.05567 0.13483 0.0
N1813 N 0.91471 0.01816 0.13489 0.0
N1814 N 0.91569 0.07105 0.06554 0.0
C1815 C 0.89992 0.04573 0.03916 0.0
C1816 C 0.8996 0.01664 0.07711 0.0
C1817 C 0.25969 0.62472 0.20522 0.0
C1818 C 0.22976 0.63223 0.23248 0.0
C1819 C 0.28878 0.62752 0.24029 0.0
C1820 C 0.28994 0.63624 0.30667 0.0
H1821 H 0.26077 0.61598 0.15643 0.0
H1822 H 0.31067 0.62185 0.2145 0.0
S1823 S 0.21829 0.66382 0.39816 0.0
N1824 N 0.20345 0.65377 0.32714 0.0
N1825 N 0.25716 0.65591 0.39472 0.0
C1826 C 0.25995 0.6446 0.33394 0.0
C1827 C 0.23032 0.64315 0.2969 0.0
C1828 C 0.40178 0.98562 0.53998 0.0
C1829 C 0.39182 0.98399 0.47446 0.0
C1830 C 0.4011 0.01449 0.57635 0.0
C1831 C 0.39099 0.04369 0.54918 0.0
H1832 H 0.40993 0.96413 0.56423 0.0
H1833 H 0.40889 0.01378 0.62593 0.0
S1834 S 0.36112 0.05285 0.37999 0.0
N1835 N 0.3697 0.01438 0.38588 0.0
N1836 N 0.37055 0.0685 0.4505 0.0
C1837 C 0.38137 0.04239 0.48312 0.0
C1838 C 0.38123 0.0128 0.44696 0.0
C1839 C 0.77193 0.65206 0.22833 0.0
C1840 C 0.79475 0.62675 0.23048 0.0
C1841 C 0.74376 0.65234 0.26779 0.0
C1842 C 0.73652 0.62712 0.31104 0.0
H1843 H 0.77575 0.67188 0.19573 0.0
H1844 H 0.72703 0.6721 0.26298 0.0
S1845 S 0.78774 0.55545 0.33736 0.0
N1846 N 0.80779 0.57634 0.28322 0.0
N1847 N 0.75474 0.57609 0.35235 0.0
C1848 C 0.75894 0.60182 0.31337 0.0
C1849 C 0.78792 0.60187 0.27483 0.0
C1850 C 0.12361 0.03108 1.01478 0.0
C1851 C 0.14918 0.03875 0.97248 0.0
C1852 C 0.12404 1.0029 0.05392 0.0
C1853 C 0.14987 0.98068 0.05215 0.0
H1854 H 0.10349 0.04744 0.01909 0.0
H1855 H 0.10398 0.99861 0.08599 0.0
S1856 S 0.22235 0.98948 0.94796 0.0
N1857 N 0.20096 0.02183 0.93231 0.0
N1858 N 0.20135 0.96897 1.00125 0.0
C1859 C 0.17519 0.98813 1.00888 0.0
C1860 C 0.17497 0.01699 0.9706 0.0
C1861 C 0.76302 0.39941 0.69881 0.0
C1862 C 0.73473 0.38536 0.72254 0.0
C1863 C 0.79162 0.39999 0.73597 0.0
C1864 C 0.79336 0.38706 0.79927 0.0
H1865 H 0.7629 0.41084 0.65204 0.0
H1866 H 0.81254 0.41131 0.71491 0.0
S1867 S 0.72765 0.34281 0.88005 0.0
N1868 N 0.71163 0.35487 0.81161 0.0
N1869 N 0.76494 0.35628 0.87939 0.0
C1870 C 0.76571 0.37174 0.82208 0.0
C1871 C 0.73669 0.3708 0.78439 0.0
loop_
_geom_bond_atom_site_label_1
_geom_bond_atom_site_label_2
_geom_bond_distance
_geom_bond_site_symmetry_2
_ccdc_geom_bond_type
Eu0 N29 2.600 . S
Eu0 N35 2.562 . S
Eu0 O44 2.462 . S
Eu0 O45 2.373 . S
Eu0 O47 2.432 . S
Eu0 O48 2.291 . S
Eu0 O52 2.335 . S
Eu0 O55 2.372 . S
Eu0 C64 2.787 . S
C1 N2 1.363 1_556 S
C1 C4 1.406 . S
C1 C8 1.449 . S
N2 C1 1.363 1_554 S
N2 C5 1.319 . S
N2 Eu11 2.600 . S
C3 C5 1.397 . S
C3 C6 1.367 . S
C3 H23 0.931 . S
C4 C1 1.406 . S
C4 C6 1.403 1_556 S
C4 C10 1.439 . S
C5 N2 1.319 . S
C5 C3 1.397 . S
C5 H16 0.930 . S
C6 C3 1.367 . S
C6 C4 1.403 1_554 S
C6 H27 0.929 . S
C7 C8 1.430 . S
C7 C9 1.387 . S
C7 C13 1.404 . S
C8 C1 1.449 . S
C8 C7 1.430 . S
C8 N12 1.351 . S
C9 C7 1.387 . S
C9 C10 1.374 . S
C9 H24 0.931 . S
C10 C4 1.439 . S
C10 C9 1.374 . S
C10 H25 0.931 . S
Eu11 N2 2.600 . S
Eu11 N12 2.562 1_554 S
Eu11 O46 2.335 . S
Eu11 O49 2.372 . S
Eu11 O50 2.462 1_554 S
Eu11 O51 2.373 . S
Eu11 O53 2.432 1_554 S
Eu11 O54 2.291 . S
Eu11 C75 2.787 1_554 S
N12 C8 1.351 . S
N12 Eu11 2.562 1_556 S
N12 C14 1.325 . S
C13 C7 1.404 . S
C13 C15 1.366 . S
C13 H21 0.930 . S
C14 N12 1.325 . S
C14 C15 1.416 . S
C14 H20 0.929 . S
C15 C13 1.366 . S
C15 C14 1.416 . S
C15 H17 0.930 . S
H16 C5 0.930 . S
H17 C15 0.930 . S
H18 C33 0.930 . S
H19 C40 0.930 . S
H20 C14 0.929 . S
H21 C13 0.930 . S
H22 C36 0.929 . S
H23 C3 0.931 . S
H24 C9 0.931 . S
H25 C10 0.931 . S
H26 C31 0.931 . S
H27 C6 0.929 . S
H28 C39 0.930 1_655 S
N29 Eu0 2.600 . S
N29 C30 1.365 . S
N29 C33 1.319 . S
C30 N29 1.365 . S
C30 C32 1.405 . S
C30 C38 1.448 . S
C31 H26 0.931 . S
C31 C33 1.397 . S
C31 C34 1.367 . S
C32 C30 1.405 . S
C32 C34 1.403 . S
C32 C65 1.439 1_455 S
C33 H18 0.930 . S
C33 N29 1.319 . S
C33 C31 1.397 . S
C34 C31 1.367 . S
C34 C32 1.403 . S
C34 H41 0.929 . S
N35 Eu0 2.562 . S
N35 C36 1.325 . S
N35 C38 1.351 . S
C36 H22 0.929 . S
C36 N35 1.325 . S
C36 C40 1.416 . S
C37 C38 1.430 . S
C37 C39 1.404 . S
C37 C66 1.387 1_455 S
C38 C30 1.448 . S
C38 N35 1.351 . S
C38 C37 1.430 . S
C39 H28 0.930 1_455 S
C39 C37 1.404 . S
C39 C40 1.366 . S
C40 H19 0.930 . S
C40 C36 1.416 . S
C40 C39 1.366 . S
H41 C34 0.929 . S
H42 C65 0.931 . S
H43 C66 0.931 . S
O44 Eu0 2.462 . S
O44 C64 1.252 . S
O45 Eu0 2.373 . S
O45 C56 1.249 . S
O46 Eu11 2.335 . S
O46 C56 1.264 . S
O47 Eu0 2.432 . S
O47 C64 1.268 . S
O48 Eu0 2.291 . S
O48 C63 1.255 . S
O49 Eu11 2.372 . S
O49 C63 1.257 . S
O50 Eu11 2.462 1_556 S
O50 C75 1.252 . S
O51 Eu11 2.373 . S
O51 C67 1.249 . S
O52 Eu0 2.335 . S
O52 C67 1.264 . S
O53 Eu11 2.432 1_556 S
O53 C75 1.268 . S
O54 Eu11 2.291 . S
O54 C74 1.255 . S
O55 Eu0 2.372 . S
O55 C74 1.257 . S
C56 O45 1.249 . S
C56 O46 1.264 . S
C57 C60 1.382 . S
C57 C62 1.390 . S
C57 C64 1.506 . S
C58 C59 1.398 . S
C58 C62 1.392 . S
C59 C58 1.398 . S
C59 C61 1.372 . S
C59 H76 0.931 . S
C60 C57 1.382 . S
C60 C61 1.390 . S
C60 H77 0.931 . S
C61 C59 1.372 . S
C61 C60 1.390 . S
C61 H78 0.929 . S
C62 C57 1.390 . S
C62 C58 1.392 . S
C62 H79 0.930 . S
C63 O48 1.255 . S
C63 O49 1.257 . S
C64 Eu0 2.787 . S
C64 O44 1.252 . S
C64 O47 1.268 . S
C64 C57 1.506 . S
C65 C32 1.439 1_655 S
C65 H42 0.931 . S
C65 C66 1.374 . S
C66 C37 1.387 1_655 S
C66 H43 0.931 . S
C66 C65 1.374 . S
C67 O51 1.249 . S
C67 O52 1.264 . S
C68 C71 1.382 . S
C68 C72 1.390 . S
C68 C75 1.506 . S
C69 C70 1.398 . S
C69 C72 1.392 . S
C70 C69 1.398 . S
C70 C73 1.372 . S
C70 H80 0.931 . S
C71 C68 1.382 . S
C71 C73 1.390 . S
C71 H81 0.931 . S
C72 C68 1.390 . S
C72 C69 1.392 . S
C72 H82 0.930 . S
C73 C70 1.372 . S
C73 C71 1.390 . S
C73 H83 0.929 . S
C74 O54 1.255 . S
C74 O55 1.257 . S
C75 Eu11 2.787 1_556 S
C75 O50 1.252 . S
C75 O53 1.268 . S
C75 C68 1.506 . S
H76 C59 0.931 . S
H77 C60 0.931 . S
H78 C61 0.929 . S
H79 C62 0.930 . S
H80 C70 0.931 . S
H81 C71 0.931 . S
H82 C72 0.930 . S
H83 C73 0.929 . S
Eu84 N113 2.600 . S
Eu84 N119 2.562 . S
Eu84 O128 2.462 . S
Eu84 O129 2.373 . S
Eu84 O131 2.432 . S
Eu84 O132 2.291 . S
Eu84 O136 2.335 . S
Eu84 O139 2.372 . S
Eu84 C148 2.787 . S
C85 N86 1.365 . S
C85 C88 1.405 . S
C85 C92 1.448 . S
N86 C85 1.365 . S
N86 C89 1.319 . S
N86 Eu95 2.600 . S
C87 C89 1.397 . S
C87 C90 1.367 . S
C87 H107 0.931 . S
C88 C85 1.405 . S
C88 C90 1.403 . S
C88 C94 1.439 . S
C89 N86 1.319 . S
C89 C87 1.397 . S
C89 H100 0.930 . S
C90 C87 1.367 . S
C90 C88 1.403 . S
C90 H111 0.929 . S
C91 C92 1.430 . S
C91 C93 1.387 . S
C91 C97 1.404 . S
C92 C85 1.448 . S
C92 C91 1.430 . S
C92 N96 1.351 . S
C93 C91 1.387 . S
C93 C94 1.374 . S
C93 H108 0.931 . S
C94 C88 1.439 . S
C94 C93 1.374 . S
C94 H109 0.931 . S
Eu95 N86 2.600 . S
Eu95 N96 2.562 . S
Eu95 O130 2.335 . S
Eu95 O133 2.372 . S
Eu95 O134 2.462 . S
Eu95 O135 2.373 . S
Eu95 O137 2.432 . S
Eu95 O138 2.291 . S
Eu95 C159 2.787 . S
N96 C92 1.351 . S
N96 Eu95 2.562 . S
N96 C98 1.325 . S
C97 C91 1.404 . S
C97 C99 1.366 . S
C97 H105 0.930 . S
C98 N96 1.325 . S
C98 C99 1.416 . S
C98 H104 0.929 . S
C99 C97 1.366 . S
C99 C98 1.416 . S
C99 H101 0.930 . S
H100 C89 0.930 . S
H101 C99 0.930 . S
H102 C117 0.930 . S
H103 C124 0.930 . S
H104 C98 0.929 . S
H105 C97 0.930 . S
H106 C120 0.929 . S
H107 C87 0.931 . S
H108 C93 0.931 . S
H109 C94 0.931 . S
H110 C115 0.931 1_545 S
H111 C90 0.929 . S
H112 C123 0.930 . S
N113 Eu84 2.600 . S
N113 C114 1.365 . S
N113 C117 1.319 . S
C114 N113 1.365 . S
C114 C116 1.405 . S
C114 C122 1.448 . S
C115 H110 0.931 1_565 S
C115 C117 1.397 . S
C115 C118 1.367 . S
C116 C114 1.405 . S
C116 C118 1.403 . S
C116 C149 1.439 . S
C117 H102 0.930 . S
C117 N113 1.319 . S
C117 C115 1.397 . S
C118 C115 1.367 . S
C118 C116 1.403 . S
C118 H125 0.929 1_565 S
N119 Eu84 2.562 . S
N119 C120 1.325 . S
N119 C122 1.351 . S
C120 H106 0.929 . S
C120 N119 1.325 . S
C120 C124 1.416 . S
C121 C122 1.430 . S
C121 C123 1.404 . S
C121 C150 1.387 . S
C122 C114 1.448 . S
C122 N119 1.351 . S
C122 C121 1.430 . S
C123 H112 0.930 . S
C123 C121 1.404 . S
C123 C124 1.366 . S
C124 H103 0.930 . S
C124 C120 1.416 . S
C124 C123 1.366 . S
H125 C118 0.929 1_545 S
H126 C149 0.931 . S
H127 C150 0.931 . S
O128 Eu84 2.462 . S
O128 C148 1.252 . S
O129 Eu84 2.373 . S
O129 C140 1.249 . S
O130 Eu95 2.335 . S
O130 C140 1.264 . S
O131 Eu84 2.432 . S
O131 C148 1.268 . S
O132 Eu84 2.291 . S
O132 C147 1.255 . S
O133 Eu95 2.372 . S
O133 C147 1.257 . S
O134 Eu95 2.462 . S
O134 C159 1.252 . S
O135 Eu95 2.373 . S
O135 C151 1.249 . S
O136 Eu84 2.335 . S
O136 C151 1.264 . S
O137 Eu95 2.432 . S
O137 C159 1.268 . S
O138 Eu95 2.291 . S
O138 C158 1.255 . S
O139 Eu84 2.372 . S
O139 C158 1.257 . S
C140 O129 1.249 . S
C140 O130 1.264 . S
C141 C144 1.382 . S
C141 C146 1.390 . S
C141 C148 1.506 . S
C142 C143 1.398 1_554 S
C142 C146 1.392 . S
C143 C142 1.398 1_556 S
C143 C145 1.372 1_556 S
C143 H160 0.931 . S
C144 C141 1.382 . S
C144 C145 1.390 . S
C144 H161 0.931 . S
C145 C143 1.372 1_554 S
C145 C144 1.390 . S
C145 H162 0.929 1_554 S
C146 C141 1.390 . S
C146 C142 1.392 . S
C146 H163 0.930 . S
C147 O132 1.255 . S
C147 O133 1.257 . S
C148 Eu84 2.787 . S
C148 O128 1.252 . S
C148 O131 1.268 . S
C148 C141 1.506 . S
C149 C116 1.439 . S
C149 H126 0.931 . S
C149 C150 1.374 . S
C150 C121 1.387 . S
C150 H127 0.931 . S
C150 C149 1.374 . S
C151 O135 1.249 . S
C151 O136 1.264 . S
C152 C155 1.382 . S
C152 C156 1.390 . S
C152 C159 1.506 . S
C153 C154 1.398 . S
C153 C156 1.392 . S
C154 C153 1.398 . S
C154 C157 1.372 . S
C154 H164 0.931 . S
C155 C152 1.382 . S
C155 C157 1.390 . S
C155 H165 0.931 . S
C156 C152 1.390 . S
C156 C153 1.392 . S
C156 H166 0.930 . S
C157 C154 1.372 . S
C157 C155 1.390 . S
C157 H167 0.929 . S
C158 O138 1.255 . S
C158 O139 1.257 . S
C159 Eu95 2.787 . S
C159 O134 1.252 . S
C159 O137 1.268 . S
C159 C152 1.506 . S
H160 C143 0.931 . S
H161 C144 0.931 . S
H162 C145 0.929 1_556 S
H163 C146 0.930 . S
H164 C154 0.931 . S
H165 C155 0.931 . S
H166 C156 0.930 . S
H167 C157 0.929 . S
Eu168 N197 2.600 . S
Eu168 N203 2.562 . S
Eu168 O212 2.462 . S
Eu168 O213 2.373 . S
Eu168 O215 2.432 . S
Eu168 O216 2.291 . S
Eu168 O220 2.335 . S
Eu168 O223 2.372 . S
Eu168 C232 2.787 . S
C169 N170 1.365 . S
C169 C172 1.405 . S
C169 C176 1.448 . S
N170 C169 1.365 . S
N170 C173 1.319 . S
N170 Eu179 2.600 . S
C171 C173 1.397 . S
C171 C174 1.367 . S
C171 H191 0.931 . S
C172 C169 1.405 . S
C172 C174 1.403 . S
C172 C178 1.439 . S
C173 N170 1.319 . S
C173 C171 1.397 . S
C173 H184 0.930 . S
C174 C171 1.367 . S
C174 C172 1.403 . S
C174 H195 0.929 . S
C175 C176 1.430 . S
C175 C177 1.387 . S
C175 C181 1.404 . S
C176 C169 1.448 . S
C176 C175 1.430 . S
C176 N180 1.351 . S
C177 C175 1.387 . S
C177 C178 1.374 . S
C177 H192 0.931 . S
C178 C172 1.439 . S
C178 C177 1.374 . S
C178 H193 0.931 . S
Eu179 N170 2.600 . S
Eu179 N180 2.562 . S
Eu179 O214 2.335 . S
Eu179 O217 2.372 . S
Eu179 O218 2.462 . S
Eu179 O219 2.373 . S
Eu179 O221 2.432 . S
Eu179 O222 2.291 . S
Eu179 C243 2.787 . S
N180 C176 1.351 . S
N180 Eu179 2.562 . S
N180 C182 1.325 . S
C181 C175 1.404 . S
C181 C183 1.366 . S
C181 H189 0.930 . S
C182 N180 1.325 . S
C182 C183 1.416 . S
C182 H188 0.929 . S
C183 C181 1.366 . S
C183 C182 1.416 . S
C183 H185 0.930 . S
H184 C173 0.930 . S
H185 C183 0.930 . S
H186 C201 0.930 . S
H187 C208 0.930 . S
H188 C182 0.929 . S
H189 C181 0.930 . S
H190 C204 0.929 . S
H191 C171 0.931 . S
H192 C177 0.931 . S
H193 C178 0.931 . S
H194 C199 0.931 . S
H195 C174 0.929 . S
H196 C207 0.930 . S
N197 Eu168 2.600 . S
N197 C198 1.365 . S
N197 C201 1.319 . S
C198 N197 1.365 . S
C198 C200 1.405 . S
C198 C206 1.448 . S
C199 H194 0.931 . S
C199 C201 1.397 . S
C199 C202 1.367 . S
C200 C198 1.405 . S
C200 C202 1.403 . S
C200 C233 1.439 . S
C201 H186 0.930 . S
C201 N197 1.319 . S
C201 C199 1.397 . S
C202 C199 1.367 . S
C202 C200 1.403 . S
C202 H209 0.929 . S
N203 Eu168 2.562 . S
N203 C204 1.325 . S
N203 C206 1.351 . S
C204 H190 0.929 . S
C204 N203 1.325 . S
C204 C208 1.416 . S
C205 C206 1.430 . S
C205 C207 1.404 . S
C205 C234 1.387 . S
C206 C198 1.448 . S
C206 N203 1.351 . S
C206 C205 1.430 . S
C207 H196 0.930 . S
C207 C205 1.404 . S
C207 C208 1.366 . S
C208 H187 0.930 . S
C208 C204 1.416 . S
C208 C207 1.366 . S
H209 C202 0.929 . S
H210 C233 0.931 . S
H211 C234 0.931 . S
O212 Eu168 2.462 . S
O212 C232 1.252 . S
O213 Eu168 2.373 . S
O213 C224 1.249 . S
O214 Eu179 2.335 . S
O214 C224 1.264 . S
O215 Eu168 2.432 . S
O215 C232 1.268 . S
O216 Eu168 2.291 . S
O216 C231 1.255 . S
O217 Eu179 2.372 . S
O217 C231 1.257 . S
O218 Eu179 2.462 . S
O218 C243 1.252 . S
O219 Eu179 2.373 . S
O219 C235 1.249 . S
O220 Eu168 2.335 . S
O220 C235 1.264 . S
O221 Eu179 2.432 . S
O221 C243 1.268 . S
O222 Eu179 2.291 . S
O222 C242 1.255 . S
O223 Eu168 2.372 . S
O223 C242 1.257 . S
C224 O213 1.249 . S
C224 O214 1.264 . S
C225 C228 1.382 . S
C225 C230 1.390 . S
C225 C232 1.506 . S
C226 C227 1.405 . S
C226 C230 1.377 1_554 S
C227 C226 1.405 . S
C227 C229 1.372 1_554 S
C227 H244 0.931 . S
C228 C225 1.382 . S
C228 C229 1.390 . S
C228 H245 0.931 . S
C229 C227 1.372 1_556 S
C229 C228 1.390 . S
C229 H246 0.929 1_556 S
C230 C225 1.390 . S
C230 C226 1.377 1_556 S
C230 H247 0.930 . S
C231 O216 1.255 . S
C231 O217 1.257 . S
C232 Eu168 2.787 . S
C232 O212 1.252 . S
C232 O215 1.268 . S
C232 C225 1.506 . S
C233 C200 1.439 . S
C233 H210 0.931 . S
C233 C234 1.374 . S
C234 C205 1.387 . S
C234 H211 0.931 . S
C234 C233 1.374 . S
C235 O219 1.249 . S
C235 O220 1.264 . S
C236 C239 1.382 . S
C236 C240 1.390 . S
C236 C243 1.506 . S
C237 C238 1.398 . S
C237 C240 1.392 . S
C238 C237 1.398 . S
C238 C241 1.372 . S
C238 H248 0.931 . S
C239 C236 1.382 . S
C239 C241 1.390 . S
C239 H249 0.931 . S
C240 C236 1.390 . S
C240 C237 1.392 . S
C240 H250 0.930 . S
C241 C238 1.372 . S
C241 C239 1.390 . S
C241 H251 0.929 . S
C242 O222 1.255 . S
C242 O223 1.257 . S
C243 Eu179 2.787 . S
C243 O218 1.252 . S
C243 O221 1.268 . S
C243 C236 1.506 . S
H244 C227 0.931 . S
H245 C228 0.931 . S
H246 C229 0.929 1_554 S
H247 C230 0.930 . S
H248 C238 0.931 . S
H249 C239 0.931 . S
H250 C240 0.930 . S
H251 C241 0.929 . S
Eu252 N281 2.600 . S
Eu252 N287 2.562 1_556 S
Eu252 O296 2.462 1_556 S
Eu252 O297 2.373 . S
Eu252 O299 2.432 1_556 S
Eu252 O300 2.291 . S
Eu252 O304 2.335 . S
Eu252 O307 2.372 . S
Eu252 C316 2.787 1_556 S
C253 N254 1.365 . S
C253 C256 1.405 . S
C253 C260 1.448 . S
N254 C253 1.365 . S
N254 C257 1.319 . S
N254 Eu263 2.600 . S
C255 C257 1.397 . S
C255 C258 1.367 . S
C255 H275 0.931 1_655 S
C256 C253 1.405 . S
C256 C258 1.403 . S
C256 C262 1.439 1_545 S
C257 N254 1.319 . S
C257 C255 1.397 . S
C257 H268 0.930 . S
C258 C255 1.367 . S
C258 C256 1.403 . S
C258 H279 0.929 1_545 S
C259 C260 1.430 1_565 S
C259 C261 1.387 . S
C259 C265 1.404 . S
C260 C253 1.448 . S
C260 C259 1.430 1_545 S
C260 N264 1.351 . S
C261 C259 1.387 . S
C261 C262 1.374 . S
C261 H276 0.931 . S
C262 C256 1.439 1_565 S
C262 C261 1.374 . S
C262 H277 0.931 . S
Eu263 N254 2.600 . S
Eu263 N264 2.562 . S
Eu263 O298 2.335 . S
Eu263 O301 2.372 . S
Eu263 O302 2.462 . S
Eu263 O303 2.373 . S
Eu263 O305 2.432 . S
Eu263 O306 2.291 . S
Eu263 C327 2.787 . S
N264 C260 1.351 . S
N264 Eu263 2.562 . S
N264 C266 1.325 . S
C265 C259 1.404 . S
C265 C267 1.366 1_565 S
C265 H273 0.930 . S
C266 N264 1.325 . S
C266 C267 1.416 . S
C266 H272 0.929 . S
C267 C265 1.366 1_545 S
C267 C266 1.416 . S
C267 H269 0.930 . S
H268 C257 0.930 . S
H269 C267 0.930 . S
H270 C285 0.930 . S
H271 C292 0.930 . S
H272 C266 0.929 . S
H273 C265 0.930 . S
H274 C288 0.929 . S
H275 C255 0.931 1_455 S
H276 C261 0.931 . S
H277 C262 0.931 . S
H278 C283 0.931 . S
H279 C258 0.929 1_565 S
H280 C291 0.930 . S
N281 Eu252 2.600 . S
N281 C282 1.365 . S
N281 C285 1.319 . S
C282 N281 1.365 . S
C282 C284 1.405 1_556 S
C282 C290 1.448 1_556 S
C283 H278 0.931 . S
C283 C285 1.397 . S
C283 C286 1.367 . S
C284 C282 1.405 1_554 S
C284 C286 1.403 1_554 S
C284 C317 1.439 . S
C285 H270 0.930 . S
C285 N281 1.319 . S
C285 C283 1.397 . S
C286 C283 1.367 . S
C286 C284 1.403 1_556 S
C286 H293 0.929 . S
N287 Eu252 2.562 1_554 S
N287 C288 1.325 . S
N287 C290 1.351 . S
C288 H274 0.929 . S
C288 N287 1.325 . S
C288 C292 1.416 . S
C289 C290 1.430 . S
C289 C291 1.404 . S
C289 C318 1.387 . S
C290 C282 1.448 1_554 S
C290 N287 1.351 . S
C290 C289 1.430 . S
C291 H280 0.930 . S
C291 C289 1.404 . S
C291 C292 1.366 . S
C292 H271 0.930 . S
C292 C288 1.416 . S
C292 C291 1.366 . S
H293 C286 0.929 . S
H294 C317 0.931 . S
H295 C318 0.931 . S
O296 Eu252 2.462 1_554 S
O296 C316 1.252 . S
O297 Eu252 2.373 . S
O297 C308 1.249 . S
O298 Eu263 2.335 . S
O298 C308 1.264 . S
O299 Eu252 2.432 1_554 S
O299 C316 1.268 . S
O300 Eu252 2.291 . S
O300 C315 1.255 . S
O301 Eu263 2.372 . S
O301 C315 1.257 . S
O302 Eu263 2.462 . S
O302 C327 1.252 . S
O303 Eu263 2.373 . S
O303 C319 1.249 . S
O304 Eu252 2.335 . S
O304 C319 1.264 . S
O305 Eu263 2.432 . S
O305 C327 1.268 . S
O306 Eu263 2.291 . S
O306 C326 1.255 . S
O307 Eu252 2.372 . S
O307 C326 1.257 . S
C308 O297 1.249 . S
C308 O298 1.264 . S
C309 C312 1.382 . S
C309 C314 1.390 . S
C309 C316 1.506 . S
C310 C311 1.398 . S
C310 C314 1.392 . S
C311 C310 1.398 . S
C311 C313 1.372 . S
C311 H328 0.931 . S
C312 C309 1.382 . S
C312 C313 1.390 . S
C312 H329 0.931 . S
C313 C311 1.372 . S
C313 C312 1.390 . S
C313 H330 0.929 . S
C314 C309 1.390 . S
C314 C310 1.392 . S
C314 H331 0.930 . S
C315 O300 1.255 . S
C315 O301 1.257 . S
C316 Eu252 2.787 1_554 S
C316 O296 1.252 . S
C316 O299 1.268 . S
C316 C309 1.506 . S
C317 C284 1.439 . S
C317 H294 0.931 . S
C317 C318 1.374 . S
C318 C289 1.387 . S
C318 H295 0.931 . S
C318 C317 1.374 . S
C319 O303 1.249 . S
C319 O304 1.264 . S
C320 C323 1.382 . S
C320 C324 1.390 . S
C320 C327 1.506 . S
C321 C322 1.398 . S
C321 C324 1.392 . S
C322 C321 1.398 . S
C322 C325 1.372 . S
C322 H332 0.931 . S
C323 C320 1.382 . S
C323 C325 1.390 . S
C323 H333 0.931 . S
C324 C320 1.390 . S
C324 C321 1.392 . S
C324 H334 0.930 . S
C325 C322 1.372 . S
C325 C323 1.390 . S
C325 H335 0.929 . S
C326 O306 1.255 . S
C326 O307 1.257 . S
C327 Eu263 2.787 . S
C327 O302 1.252 . S
C327 O305 1.268 . S
C327 C320 1.506 . S
H328 C311 0.931 . S
H329 C312 0.931 . S
H330 C313 0.929 . S
H331 C314 0.930 . S
H332 C322 0.931 . S
H333 C323 0.931 . S
H334 C324 0.930 . S
H335 C325 0.929 . S
Eu336 N365 2.600 . S
Eu336 N371 2.562 . S
Eu336 O380 2.462 . S
Eu336 O381 2.373 . S
Eu336 O383 2.432 . S
Eu336 O384 2.291 . S
Eu336 O388 2.335 . S
Eu336 O391 2.372 . S
Eu336 C400 2.787 . S
C337 N338 1.365 1_554 S
C337 C340 1.405 . S
C337 C344 1.448 . S
N338 C337 1.365 1_556 S
N338 C341 1.319 . S
N338 Eu347 2.600 . S
C339 C341 1.397 . S
C339 C342 1.367 . S
C339 H359 0.931 . S
C340 C337 1.405 . S
C340 C342 1.403 1_554 S
C340 C346 1.439 . S
C341 N338 1.319 . S
C341 C339 1.397 . S
C341 H352 0.930 . S
C342 C339 1.367 . S
C342 C340 1.403 1_556 S
C342 H363 0.929 1_556 S
C343 C344 1.430 . S
C343 C345 1.387 . S
C343 C349 1.404 . S
C344 C337 1.448 . S
C344 C343 1.430 . S
C344 N348 1.351 . S
C345 C343 1.387 . S
C345 C346 1.374 . S
C345 H360 0.931 . S
C346 C340 1.439 . S
C346 C345 1.374 . S
C346 H361 0.931 . S
Eu347 N338 2.600 . S
Eu347 N348 2.562 1_556 S
Eu347 O382 2.335 . S
Eu347 O385 2.372 . S
Eu347 O386 2.462 1_556 S
Eu347 O387 2.373 . S
Eu347 O389 2.432 1_556 S
Eu347 O390 2.291 . S
Eu347 C411 2.787 1_556 S
N348 C344 1.351 . S
N348 Eu347 2.562 1_554 S
N348 C350 1.325 . S
C349 C343 1.404 . S
C349 C351 1.366 . S
C349 H357 0.930 . S
C350 N348 1.325 . S
C350 C351 1.416 . S
C350 H356 0.929 . S
C351 C349 1.366 . S
C351 C350 1.416 . S
C351 H353 0.930 . S
H352 C341 0.930 . S
H353 C351 0.930 . S
H354 C369 0.930 . S
H355 C376 0.930 . S
H356 C350 0.929 . S
H357 C349 0.930 . S
H358 C372 0.929 . S
H359 C339 0.931 . S
H360 C345 0.931 . S
H361 C346 0.931 . S
H362 C367 0.931 . S
H363 C342 0.929 1_554 S
H364 C375 0.930 1_655 S
N365 Eu336 2.600 . S
N365 C366 1.365 . S
N365 C369 1.319 . S
C366 N365 1.365 . S
C366 C368 1.405 . S
C366 C374 1.448 . S
C367 H362 0.931 . S
C367 C369 1.397 . S
C367 C370 1.367 . S
C368 C366 1.405 . S
C368 C370 1.403 . S
C368 C401 1.439 1_455 S
C369 H354 0.930 . S
C369 N365 1.319 . S
C369 C367 1.397 . S
C370 C367 1.367 . S
C370 C368 1.403 . S
C370 H377 0.929 . S
N371 Eu336 2.562 . S
N371 C372 1.325 . S
N371 C374 1.351 . S
C372 H358 0.929 . S
C372 N371 1.325 . S
C372 C376 1.416 . S
C373 C374 1.430 . S
C373 C375 1.404 . S
C373 C402 1.387 1_455 S
C374 C366 1.448 . S
C374 N371 1.351 . S
C374 C373 1.430 . S
C375 H364 0.930 1_455 S
C375 C373 1.404 . S
C375 C376 1.366 . S
C376 H355 0.930 . S
C376 C372 1.416 . S
C376 C375 1.366 . S
H377 C370 0.929 . S
H378 C401 0.931 . S
H379 C402 0.931 . S
O380 Eu336 2.462 . S
O380 C400 1.252 . S
O381 Eu336 2.373 . S
O381 C392 1.249 . S
O382 Eu347 2.335 . S
O382 C392 1.264 . S
O383 Eu336 2.432 . S
O383 C400 1.268 . S
O384 Eu336 2.291 . S
O384 C399 1.255 . S
O385 Eu347 2.372 . S
O385 C399 1.257 . S
O386 Eu347 2.462 1_554 S
O386 C411 1.252 . S
O387 Eu347 2.373 . S
O387 C403 1.249 . S
O388 Eu336 2.335 . S
O388 C403 1.264 . S
O389 Eu347 2.432 1_554 S
O389 C411 1.268 . S
O390 Eu347 2.291 . S
O390 C410 1.255 . S
O391 Eu336 2.372 . S
O391 C410 1.257 . S
C392 O381 1.249 . S
C392 O382 1.264 . S
C393 C396 1.382 . S
C393 C398 1.390 . S
C393 C400 1.506 . S
C394 C395 1.398 . S
C394 C398 1.392 . S
C395 C394 1.398 . S
C395 C397 1.372 . S
C395 H412 0.931 . S
C396 C393 1.382 . S
C396 C397 1.390 . S
C396 H413 0.931 . S
C397 C395 1.372 . S
C397 C396 1.390 . S
C397 H414 0.929 . S
C398 C393 1.390 . S
C398 C394 1.392 . S
C398 H415 0.930 . S
C399 O384 1.255 . S
C399 O385 1.257 . S
C400 Eu336 2.787 . S
C400 O380 1.252 . S
C400 O383 1.268 . S
C400 C393 1.506 . S
C401 C368 1.439 1_655 S
C401 H378 0.931 . S
C401 C402 1.374 . S
C402 C373 1.387 1_655 S
C402 H379 0.931 . S
C402 C401 1.374 . S
C403 O387 1.249 . S
C403 O388 1.264 . S
C404 C407 1.382 . S
C404 C408 1.390 . S
C404 C411 1.506 . S
C405 C406 1.398 . S
C405 C408 1.392 . S
C406 C405 1.398 . S
C406 C409 1.372 . S
C406 H416 0.931 . S
C407 C404 1.382 . S
C407 C409 1.390 . S
C407 H417 0.931 . S
C408 C404 1.390 . S
C408 C405 1.392 . S
C408 H418 0.930 . S
C409 C406 1.372 . S
C409 C407 1.390 . S
C409 H419 0.929 . S
C410 O390 1.255 . S
C410 O391 1.257 . S
C411 Eu347 2.787 1_554 S
C411 O386 1.252 . S
C411 O389 1.268 . S
C411 C404 1.506 . S
H412 C395 0.931 . S
H413 C396 0.931 . S
H414 C397 0.929 . S
H415 C398 0.930 . S
H416 C406 0.931 . S
H417 C407 0.931 . S
H418 C408 0.930 . S
H419 C409 0.929 . S
Eu420 N449 2.600 . S
Eu420 N455 2.562 . S
Eu420 O464 2.462 . S
Eu420 O465 2.373 . S
Eu420 O467 2.432 . S
Eu420 O468 2.291 . S
Eu420 O472 2.335 . S
Eu420 O475 2.372 . S
Eu420 C484 2.787 . S
C421 N422 1.365 1_556 S
C421 C424 1.405 . S
C421 C428 1.448 . S
N422 C421 1.365 1_554 S
N422 C425 1.319 . S
N422 Eu431 2.600 . S
C423 C425 1.397 . S
C423 C426 1.372 . S
C423 H443 0.931 . S
C424 C421 1.405 . S
C424 C426 1.400 1_556 S
C424 C430 1.439 . S
C425 N422 1.319 . S
C425 C423 1.397 . S
C425 H436 0.930 . S
C426 C423 1.372 . S
C426 C424 1.400 1_554 S
C426 H447 0.928 1_554 S
C427 C428 1.430 . S
C427 C429 1.387 . S
C427 C433 1.404 . S
C428 C421 1.448 . S
C428 C427 1.430 . S
C428 N432 1.351 . S
C429 C427 1.387 . S
C429 C430 1.374 . S
C429 H444 0.931 . S
C430 C424 1.439 . S
C430 C429 1.374 . S
C430 H445 0.931 . S
Eu431 N422 2.600 . S
Eu431 N432 2.562 1_554 S
Eu431 O466 2.335 . S
Eu431 O469 2.372 . S
Eu431 O470 2.462 1_554 S
Eu431 O471 2.373 . S
Eu431 O473 2.432 1_554 S
Eu431 O474 2.291 . S
Eu431 C495 2.787 1_554 S
N432 C428 1.351 . S
N432 Eu431 2.562 1_556 S
N432 C434 1.325 . S
C433 C427 1.404 . S
C433 C435 1.366 . S
C433 H441 0.930 . S
C434 N432 1.325 . S
C434 C435 1.416 . S
C434 H440 0.929 . S
C435 C433 1.366 . S
C435 C434 1.416 . S
C435 H437 0.930 . S
H436 C425 0.930 . S
H437 C435 0.930 . S
H438 C453 0.930 . S
H439 C460 0.930 . S
H440 C434 0.929 . S
H441 C433 0.930 . S
H442 C456 0.929 . S
H443 C423 0.931 . S
H444 C429 0.931 . S
H445 C430 0.931 . S
H446 C451 0.931 1_545 S
H447 C426 0.928 1_556 S
H448 C459 0.930 1_455 S
N449 Eu420 2.600 . S
N449 C450 1.365 . S
N449 C453 1.319 . S
C450 N449 1.365 . S
C450 C452 1.405 . S
C450 C458 1.448 . S
C451 H446 0.931 1_565 S
C451 C453 1.397 . S
C451 C454 1.367 . S
C452 C450 1.405 . S
C452 C454 1.403 . S
C452 C485 1.439 1_655 S
C453 H438 0.930 . S
C453 N449 1.319 . S
C453 C451 1.397 . S
C454 C451 1.367 . S
C454 C452 1.403 . S
C454 H461 0.929 1_565 S
N455 Eu420 2.562 . S
N455 C456 1.325 . S
N455 C458 1.351 . S
C456 H442 0.929 . S
C456 N455 1.325 . S
C456 C460 1.416 . S
C457 C458 1.430 . S
C457 C459 1.404 . S
C457 C486 1.387 1_655 S
C458 C450 1.448 . S
C458 N455 1.351 . S
C458 C457 1.430 . S
C459 H448 0.930 1_655 S
C459 C457 1.404 . S
C459 C460 1.366 . S
C460 H439 0.930 . S
C460 C456 1.416 . S
C460 C459 1.366 . S
H461 C454 0.929 1_545 S
H462 C485 0.931 . S
H463 C486 0.931 . S
O464 Eu420 2.462 . S
O464 C484 1.252 . S
O465 Eu420 2.373 . S
O465 C476 1.249 . S
O466 Eu431 2.335 . S
O466 C476 1.264 . S
O467 Eu420 2.432 . S
O467 C484 1.268 . S
O468 Eu420 2.291 . S
O468 C483 1.255 . S
O469 Eu431 2.372 . S
O469 C483 1.257 . S
O470 Eu431 2.462 1_556 S
O470 C495 1.252 . S
O471 Eu431 2.373 . S
O471 C487 1.249 . S
O472 Eu420 2.335 . S
O472 C487 1.264 . S
O473 Eu431 2.432 1_556 S
O473 C495 1.268 . S
O474 Eu431 2.291 . S
O474 C494 1.255 . S
O475 Eu420 2.372 . S
O475 C494 1.257 . S
C476 O465 1.249 . S
C476 O466 1.264 . S
C477 C480 1.382 . S
C477 C482 1.390 . S
C477 C484 1.506 . S
C478 C479 1.398 . S
C478 C482 1.392 . S
C479 C478 1.398 . S
C479 C481 1.372 . S
C479 H496 0.931 . S
C480 C477 1.382 . S
C480 C481 1.390 . S
C480 H497 0.931 . S
C481 C479 1.372 . S
C481 C480 1.390 . S
C481 H498 0.929 . S
C482 C477 1.390 . S
C482 C478 1.392 . S
C482 H499 0.930 . S
C483 O468 1.255 . S
C483 O469 1.257 . S
C484 Eu420 2.787 . S
C484 O464 1.252 . S
C484 O467 1.268 . S
C484 C477 1.506 . S
C485 C452 1.439 1_455 S
C485 H462 0.931 . S
C485 C486 1.374 . S
C486 C457 1.387 1_455 S
C486 H463 0.931 . S
C486 C485 1.374 . S
C487 O471 1.249 . S
C487 O472 1.264 . S
C488 C491 1.382 . S
C488 C492 1.390 . S
C488 C495 1.506 . S
C489 C490 1.398 . S
C489 C492 1.392 . S
C490 C489 1.398 . S
C490 C493 1.372 . S
C490 H500 0.931 . S
C491 C488 1.382 . S
C491 C493 1.390 . S
C491 H501 0.931 . S
C492 C488 1.390 . S
C492 C489 1.392 . S
C492 H502 0.930 . S
C493 C490 1.372 . S
C493 C491 1.390 . S
C493 H503 0.929 . S
C494 O474 1.255 . S
C494 O475 1.257 . S
C495 Eu431 2.787 1_556 S
C495 O470 1.252 . S
C495 O473 1.268 . S
C495 C488 1.506 . S
H496 C479 0.931 . S
H497 C480 0.931 . S
H498 C481 0.929 . S
H499 C482 0.930 . S
H500 C490 0.931 . S
H501 C491 0.931 . S
H502 C492 0.930 . S
H503 C493 0.929 . S
Eu504 N533 2.600 . S
Eu504 N539 2.562 . S
Eu504 O548 2.462 . S
Eu504 O549 2.373 . S
Eu504 O551 2.432 . S
Eu504 O552 2.291 . S
Eu504 O556 2.335 . S
Eu504 O559 2.372 . S
Eu504 C568 2.787 . S
C505 N506 1.365 . S
C505 C508 1.405 . S
C505 C512 1.448 . S
N506 C505 1.365 . S
N506 C509 1.319 . S
N506 Eu515 2.600 . S
C507 C509 1.397 . S
C507 C510 1.367 . S
C507 H527 0.931 . S
C508 C505 1.405 . S
C508 C510 1.403 . S
C508 C514 1.439 . S
C509 N506 1.319 . S
C509 C507 1.397 . S
C509 H520 0.930 . S
C510 C507 1.367 . S
C510 C508 1.403 . S
C510 H531 0.929 . S
C511 C512 1.430 . S
C511 C513 1.387 . S
C511 C517 1.404 . S
C512 C505 1.448 . S
C512 C511 1.430 . S
C512 N516 1.351 . S
C513 C511 1.387 . S
C513 C514 1.374 . S
C513 H528 0.931 . S
C514 C508 1.439 . S
C514 C513 1.374 . S
C514 H529 0.931 . S
Eu515 N506 2.600 . S
Eu515 N516 2.562 . S
Eu515 O550 2.335 . S
Eu515 O553 2.372 . S
Eu515 O554 2.462 . S
Eu515 O555 2.373 . S
Eu515 O557 2.432 . S
Eu515 O558 2.291 . S
Eu515 C579 2.787 . S
N516 C512 1.351 . S
N516 Eu515 2.562 . S
N516 C518 1.325 . S
C517 C511 1.404 . S
C517 C519 1.366 . S
C517 H525 0.930 . S
C518 N516 1.325 . S
C518 C519 1.416 . S
C518 H524 0.929 . S
C519 C517 1.366 . S
C519 C518 1.416 . S
C519 H521 0.930 . S
H520 C509 0.930 . S
H521 C519 0.930 . S
H522 C537 0.930 . S
H523 C544 0.930 . S
H524 C518 0.929 . S
H525 C517 0.930 . S
H526 C540 0.929 . S
H527 C507 0.931 . S
H528 C513 0.931 . S
H529 C514 0.931 . S
H530 C535 0.931 . S
H531 C510 0.929 . S
H532 C543 0.930 . S
N533 Eu504 2.600 . S
N533 C534 1.365 . S
N533 C537 1.319 . S
C534 N533 1.365 . S
C534 C536 1.405 . S
C534 C542 1.448 . S
C535 H530 0.931 . S
C535 C537 1.397 . S
C535 C538 1.367 . S
C536 C534 1.405 . S
C536 C538 1.403 . S
C536 C569 1.439 . S
C537 H522 0.930 . S
C537 N533 1.319 . S
C537 C535 1.397 . S
C538 C535 1.367 . S
C538 C536 1.403 . S
C538 H545 0.929 . S
N539 Eu504 2.562 . S
N539 C540 1.325 . S
N539 C542 1.351 . S
C540 H526 0.929 . S
C540 N539 1.325 . S
C540 C544 1.416 . S
C541 C542 1.430 . S
C541 C543 1.404 . S
C541 C570 1.387 . S
C542 C534 1.448 . S
C542 N539 1.351 . S
C542 C541 1.430 . S
C543 H532 0.930 . S
C543 C541 1.404 . S
C543 C544 1.366 . S
C544 H523 0.930 . S
C544 C540 1.416 . S
C544 C543 1.366 . S
H545 C538 0.929 . S
H546 C569 0.931 . S
H547 C570 0.931 . S
O548 Eu504 2.462 . S
O548 C568 1.252 . S
O549 Eu504 2.373 . S
O549 C560 1.249 . S
O550 Eu515 2.335 . S
O550 C560 1.264 . S
O551 Eu504 2.432 . S
O551 C568 1.268 . S
O552 Eu504 2.291 . S
O552 C567 1.255 . S
O553 Eu515 2.372 . S
O553 C567 1.257 . S
O554 Eu515 2.462 . S
O554 C579 1.252 . S
O555 Eu515 2.373 . S
O555 C571 1.249 . S
O556 Eu504 2.335 . S
O556 C571 1.264 . S
O557 Eu515 2.432 . S
O557 C579 1.268 . S
O558 Eu515 2.291 . S
O558 C578 1.255 . S
O559 Eu504 2.372 . S
O559 C578 1.257 . S
C560 O549 1.249 . S
C560 O550 1.264 . S
C561 C564 1.382 . S
C561 C566 1.390 . S
C561 C568 1.506 . S
C562 C563 1.398 . S
C562 C566 1.392 . S
C563 C562 1.398 . S
C563 C565 1.372 . S
C563 H580 0.931 . S
C564 C561 1.382 . S
C564 C565 1.390 . S
C564 H581 0.931 . S
C565 C563 1.372 . S
C565 C564 1.390 . S
C565 H582 0.929 . S
C566 C561 1.390 . S
C566 C562 1.392 . S
C566 H583 0.930 . S
C567 O552 1.255 . S
C567 O553 1.257 . S
C568 Eu504 2.787 . S
C568 O548 1.252 . S
C568 O551 1.268 . S
C568 C561 1.506 . S
C569 C536 1.439 . S
C569 H546 0.931 . S
C569 C570 1.374 . S
C570 C541 1.387 . S
C570 H547 0.931 . S
C570 C569 1.374 . S
C571 O555 1.249 . S
C571 O556 1.264 . S
C572 C575 1.382 . S
C572 C576 1.390 . S
C572 C579 1.506 . S
C573 C574 1.398 1_554 S
C573 C576 1.392 . S
C574 C573 1.398 1_556 S
C574 C577 1.372 1_556 S
C574 H584 0.931 . S
C575 C572 1.382 . S
C575 C577 1.390 . S
C575 H585 0.931 . S
C576 C572 1.390 . S
C576 C573 1.392 . S
C576 H586 0.930 . S
C577 C574 1.372 1_554 S
C577 C575 1.390 . S
C577 H587 0.929 1_554 S
C578 O558 1.255 . S
C578 O559 1.257 . S
C579 Eu515 2.787 . S
C579 O554 1.252 . S
C579 O557 1.268 . S
C579 C572 1.506 . S
H580 C563 0.931 . S
H581 C564 0.931 . S
H582 C565 0.929 . S
H583 C566 0.930 . S
H584 C574 0.931 . S
H585 C575 0.931 . S
H586 C576 0.930 . S
H587 C577 0.929 1_556 S
Eu588 N617 2.600 . S
Eu588 N623 2.562 . S
Eu588 O632 2.462 . S
Eu588 O633 2.373 . S
Eu588 O635 2.432 . S
Eu588 O636 2.291 . S
Eu588 O640 2.335 . S
Eu588 O643 2.372 . S
Eu588 C652 2.787 . S
C589 N590 1.365 . S
C589 C592 1.405 . S
C589 C596 1.448 . S
N590 C589 1.365 . S
N590 C593 1.319 . S
N590 Eu599 2.600 . S
C591 C593 1.397 . S
C591 C594 1.367 . S
C591 H611 0.931 . S
C592 C589 1.405 . S
C592 C594 1.403 . S
C592 C598 1.439 1_545 S
C593 N590 1.319 . S
C593 C591 1.397 . S
C593 H604 0.930 . S
C594 C591 1.367 . S
C594 C592 1.403 . S
C594 H615 0.929 1_545 S
C595 C596 1.430 1_565 S
C595 C597 1.387 . S
C595 C601 1.404 . S
C596 C589 1.448 . S
C596 C595 1.430 1_545 S
C596 N600 1.351 . S
C597 C595 1.387 . S
C597 C598 1.374 . S
C597 H612 0.931 . S
C598 C592 1.439 1_565 S
C598 C597 1.374 . S
C598 H613 0.931 . S
Eu599 N590 2.600 . S
Eu599 N600 2.562 . S
Eu599 O634 2.335 . S
Eu599 O637 2.372 . S
Eu599 O638 2.462 . S
Eu599 O639 2.373 . S
Eu599 O641 2.432 . S
Eu599 O642 2.291 . S
Eu599 C663 2.787 . S
N600 C596 1.351 . S
N600 Eu599 2.562 . S
N600 C602 1.325 . S
C601 C595 1.404 . S
C601 C603 1.366 1_565 S
C601 H609 0.930 . S
C602 N600 1.325 . S
C602 C603 1.416 . S
C602 H608 0.929 . S
C603 C601 1.366 1_545 S
C603 C602 1.416 . S
C603 H605 0.930 . S
H604 C593 0.930 . S
H605 C603 0.930 . S
H606 C621 0.930 . S
H607 C628 0.930 . S
H608 C602 0.929 . S
H609 C601 0.930 . S
H610 C624 0.929 . S
H611 C591 0.931 . S
H612 C597 0.931 . S
H613 C598 0.931 . S
H614 C619 0.931 . S
H615 C594 0.929 1_565 S
H616 C627 0.930 . S
N617 Eu588 2.600 . S
N617 C618 1.365 . S
N617 C621 1.319 . S
C618 N617 1.365 . S
C618 C620 1.405 . S
C618 C626 1.448 . S
C619 H614 0.931 . S
C619 C621 1.397 . S
C619 C622 1.367 . S
C620 C618 1.405 . S
C620 C622 1.403 . S
C620 C653 1.439 . S
C621 H606 0.930 . S
C621 N617 1.319 . S
C621 C619 1.397 . S
C622 C619 1.367 . S
C622 C620 1.403 . S
C622 H629 0.929 . S
N623 Eu588 2.562 . S
N623 C624 1.325 . S
N623 C626 1.351 . S
C624 H610 0.929 . S
C624 N623 1.325 . S
C624 C628 1.416 . S
C625 C626 1.430 . S
C625 C627 1.404 . S
C625 C654 1.387 . S
C626 C618 1.448 . S
C626 N623 1.351 . S
C626 C625 1.430 . S
C627 H616 0.930 . S
C627 C625 1.404 . S
C627 C628 1.366 . S
C628 H607 0.930 . S
C628 C624 1.416 . S
C628 C627 1.366 . S
H629 C622 0.929 . S
H630 C653 0.931 . S
H631 C654 0.931 . S
O632 Eu588 2.462 . S
O632 C652 1.252 . S
O633 Eu588 2.373 . S
O633 C644 1.249 . S
O634 Eu599 2.335 . S
O634 C644 1.264 . S
O635 Eu588 2.432 . S
O635 C652 1.268 . S
O636 Eu588 2.291 . S
O636 C651 1.255 . S
O637 Eu599 2.372 . S
O637 C651 1.257 . S
O638 Eu599 2.462 . S
O638 C663 1.252 . S
O639 Eu599 2.373 . S
O639 C655 1.249 . S
O640 Eu588 2.335 . S
O640 C655 1.264 . S
O641 Eu599 2.432 . S
O641 C663 1.268 . S
O642 Eu599 2.291 . S
O642 C662 1.255 . S
O643 Eu588 2.372 . S
O643 C662 1.257 . S
C644 O633 1.249 . S
C644 O634 1.264 . S
C645 C648 1.382 . S
C645 C650 1.390 . S
C645 C652 1.506 . S
C646 C647 1.398 . S
C646 C650 1.392 . S
C647 C646 1.398 . S
C647 C649 1.372 . S
C647 H664 0.931 . S
C648 C645 1.382 . S
C648 C649 1.390 . S
C648 H665 0.931 . S
C649 C647 1.372 . S
C649 C648 1.390 . S
C649 H666 0.929 . S
C650 C645 1.390 . S
C650 C646 1.392 . S
C650 H667 0.930 . S
C651 O636 1.255 . S
C651 O637 1.257 . S
C652 Eu588 2.787 . S
C652 O632 1.252 . S
C652 O635 1.268 . S
C652 C645 1.506 . S
C653 C620 1.439 . S
C653 H630 0.931 . S
C653 C654 1.374 . S
C654 C625 1.387 . S
C654 H631 0.931 . S
C654 C653 1.374 . S
C655 O639 1.249 . S
C655 O640 1.264 . S
C656 C659 1.382 . S
C656 C660 1.390 . S
C656 C663 1.506 . S
C657 C658 1.398 . S
C657 C660 1.392 1_554 S
C658 C657 1.398 . S
C658 C661 1.372 1_554 S
C658 H668 0.931 . S
C659 C656 1.382 . S
C659 C661 1.390 . S
C659 H669 0.931 . S
C660 C656 1.390 . S
C660 C657 1.392 1_556 S
C660 H670 0.930 . S
C661 C658 1.372 1_556 S
C661 C659 1.390 . S
C661 H671 0.929 1_556 S
C662 O642 1.255 . S
C662 O643 1.257 . S
C663 Eu599 2.787 . S
C663 O638 1.252 . S
C663 O641 1.268 . S
C663 C656 1.506 . S
H664 C647 0.931 . S
H665 C648 0.931 . S
H666 C649 0.929 . S
H667 C650 0.930 . S
H668 C658 0.931 . S
H669 C659 0.931 . S
H670 C660 0.930 . S
H671 C661 0.929 1_554 S
Eu672 N701 2.600 . S
Eu672 N707 2.562 . S
Eu672 O716 2.462 . S
Eu672 O717 2.373 . S
Eu672 O719 2.432 . S
Eu672 O720 2.291 . S
Eu672 O724 2.335 . S
Eu672 O727 2.372 . S
Eu672 C736 2.787 . S
C673 N674 1.365 . S
C673 C676 1.405 1_556 S
C673 C680 1.448 1_556 S
N674 C673 1.365 . S
N674 C677 1.319 . S
N674 Eu683 2.600 . S
C675 C677 1.397 . S
C675 C678 1.367 . S
C675 H695 0.931 . S
C676 C673 1.405 1_554 S
C676 C678 1.403 1_554 S
C676 C682 1.439 . S
C677 N674 1.319 . S
C677 C675 1.397 . S
C677 H688 0.930 . S
C678 C675 1.367 . S
C678 C676 1.403 1_556 S
C678 H699 0.929 . S
C679 C680 1.430 . S
C679 C681 1.387 . S
C679 C685 1.404 . S
C680 C673 1.448 1_554 S
C680 C679 1.430 . S
C680 N684 1.351 . S
C681 C679 1.387 . S
C681 C682 1.374 . S
C681 H696 0.931 . S
C682 C676 1.439 . S
C682 C681 1.374 . S
C682 H697 0.931 . S
Eu683 N674 2.600 . S
Eu683 N684 2.562 1_556 S
Eu683 O718 2.335 . S
Eu683 O721 2.372 . S
Eu683 O722 2.462 1_556 S
Eu683 O723 2.373 . S
Eu683 O725 2.432 1_556 S
Eu683 O726 2.291 . S
Eu683 C747 2.787 1_556 S
N684 C680 1.351 . S
N684 Eu683 2.562 1_554 S
N684 C686 1.325 . S
C685 C679 1.404 . S
C685 C687 1.366 . S
C685 H693 0.930 . S
C686 N684 1.325 . S
C686 C687 1.416 . S
C686 H692 0.929 . S
C687 C685 1.366 . S
C687 C686 1.416 . S
C687 H689 0.930 . S
H688 C677 0.930 . S
H689 C687 0.930 . S
H690 C705 0.930 . S
H691 C712 0.930 . S
H692 C686 0.929 . S
H693 C685 0.930 . S
H694 C708 0.929 . S
H695 C675 0.931 . S
H696 C681 0.931 . S
H697 C682 0.931 . S
H698 C703 0.931 1_455 S
H699 C678 0.929 . S
H700 C711 0.930 . S
N701 Eu672 2.600 . S
N701 C702 1.365 . S
N701 C705 1.319 . S
C702 N701 1.365 . S
C702 C704 1.405 . S
C702 C710 1.448 . S
C703 H698 0.931 1_655 S
C703 C705 1.397 . S
C703 C706 1.367 . S
C704 C702 1.405 . S
C704 C706 1.403 . S
C704 C737 1.439 . S
C705 H690 0.930 . S
C705 N701 1.319 . S
C705 C703 1.397 . S
C706 C703 1.367 . S
C706 C704 1.403 . S
C706 H713 0.929 . S
N707 Eu672 2.562 . S
N707 C708 1.325 . S
N707 C710 1.351 . S
C708 H694 0.929 . S
C708 N707 1.325 . S
C708 C712 1.416 . S
C709 C710 1.430 . S
C709 C711 1.404 . S
C709 C738 1.387 . S
C710 C702 1.448 . S
C710 N707 1.351 . S
C710 C709 1.430 . S
C711 H700 0.930 . S
C711 C709 1.404 . S
C711 C712 1.366 . S
C712 H691 0.930 . S
C712 C708 1.416 . S
C712 C711 1.366 . S
H713 C706 0.929 . S
H714 C737 0.931 . S
H715 C738 0.931 . S
O716 Eu672 2.462 . S
O716 C736 1.252 . S
O717 Eu672 2.373 . S
O717 C728 1.249 . S
O718 Eu683 2.335 . S
O718 C728 1.264 . S
O719 Eu672 2.432 . S
O719 C736 1.268 . S
O720 Eu672 2.291 . S
O720 C735 1.255 . S
O721 Eu683 2.372 . S
O721 C735 1.257 . S
O722 Eu683 2.462 1_554 S
O722 C747 1.252 . S
O723 Eu683 2.373 . S
O723 C739 1.249 . S
O724 Eu672 2.335 . S
O724 C739 1.264 . S
O725 Eu683 2.432 1_554 S
O725 C747 1.268 . S
O726 Eu683 2.291 . S
O726 C746 1.255 . S
O727 Eu672 2.372 . S
O727 C746 1.257 . S
C728 O717 1.249 . S
C728 O718 1.264 . S
C729 C732 1.382 . S
C729 C734 1.390 . S
C729 C736 1.506 . S
C730 C731 1.398 . S
C730 C734 1.392 . S
C731 C730 1.398 . S
C731 C733 1.372 . S
C731 H748 0.931 . S
C732 C729 1.382 . S
C732 C733 1.390 . S
C732 H749 0.931 . S
C733 C731 1.372 . S
C733 C732 1.390 . S
C733 H750 0.929 . S
C734 C729 1.390 . S
C734 C730 1.392 . S
C734 H751 0.930 . S
C735 O720 1.255 . S
C735 O721 1.257 . S
C736 Eu672 2.787 . S
C736 O716 1.252 . S
C736 O719 1.268 . S
C736 C729 1.506 . S
C737 C704 1.439 . S
C737 H714 0.931 . S
C737 C738 1.374 . S
C738 C709 1.387 . S
C738 H715 0.931 . S
C738 C737 1.374 . S
C739 O723 1.249 . S
C739 O724 1.264 . S
C740 C743 1.382 . S
C740 C744 1.390 . S
C740 C747 1.506 . S
C741 C742 1.398 . S
C741 C744 1.392 . S
C742 C741 1.398 . S
C742 C745 1.372 . S
C742 H752 0.931 . S
C743 C740 1.382 . S
C743 C745 1.390 . S
C743 H753 0.931 . S
C744 C740 1.390 . S
C744 C741 1.392 . S
C744 H754 0.930 . S
C745 C742 1.372 . S
C745 C743 1.390 . S
C745 H755 0.929 . S
C746 O726 1.255 . S
C746 O727 1.257 . S
C747 Eu683 2.787 1_554 S
C747 O722 1.252 . S
C747 O725 1.268 . S
C747 C740 1.506 . S
H748 C731 0.931 . S
H749 C732 0.931 . S
H750 C733 0.929 . S
H751 C734 0.930 . S
H752 C742 0.931 . S
H753 C743 0.931 . S
H754 C744 0.930 . S
H755 C745 0.929 . S
Eu756 N785 2.600 . S
Eu756 N791 2.562 . S
Eu756 O800 2.462 . S
Eu756 O801 2.373 . S
Eu756 O803 2.432 . S
Eu756 O804 2.291 . S
Eu756 O808 2.335 . S
Eu756 O811 2.372 . S
Eu756 C820 2.787 . S
C757 N758 1.365 . S
C757 C760 1.405 . S
C757 C764 1.448 . S
N758 C757 1.365 . S
N758 C761 1.319 . S
N758 Eu767 2.600 . S
C759 C761 1.397 . S
C759 C762 1.367 . S
C759 H779 0.931 1_545 S
C760 C757 1.405 . S
C760 C762 1.403 . S
C760 C766 1.439 . S
C761 N758 1.319 . S
C761 C759 1.397 . S
C761 H772 0.930 . S
C762 C759 1.367 . S
C762 C760 1.403 . S
C762 H783 0.929 1_545 S
C763 C764 1.430 . S
C763 C765 1.387 . S
C763 C769 1.404 . S
C764 C757 1.448 . S
C764 C763 1.430 . S
C764 N768 1.351 . S
C765 C763 1.387 . S
C765 C766 1.374 . S
C765 H780 0.931 . S
C766 C760 1.439 . S
C766 C765 1.374 . S
C766 H781 0.931 . S
Eu767 N758 2.600 . S
Eu767 N768 2.562 . S
Eu767 O802 2.335 . S
Eu767 O805 2.372 . S
Eu767 O806 2.462 . S
Eu767 O807 2.373 . S
Eu767 O809 2.432 . S
Eu767 O810 2.291 . S
Eu767 C831 2.787 . S
N768 C764 1.351 . S
N768 Eu767 2.562 . S
N768 C770 1.325 . S
C769 C763 1.404 . S
C769 C771 1.366 . S
C769 H777 0.930 . S
C770 N768 1.325 . S
C770 C771 1.416 . S
C770 H776 0.929 . S
C771 C769 1.366 . S
C771 C770 1.416 . S
C771 H773 0.930 . S
H772 C761 0.930 . S
H773 C771 0.930 . S
H774 C789 0.930 . S
H775 C796 0.930 . S
H776 C770 0.929 . S
H777 C769 0.930 . S
H778 C792 0.929 . S
H779 C759 0.931 1_565 S
H780 C765 0.931 . S
H781 C766 0.931 . S
H782 C787 0.931 . S
H783 C762 0.929 1_565 S
H784 C795 0.930 . S
N785 Eu756 2.600 . S
N785 C786 1.365 . S
N785 C789 1.319 . S
C786 N785 1.365 . S
C786 C788 1.405 . S
C786 C794 1.448 . S
C787 H782 0.931 . S
C787 C789 1.397 . S
C787 C790 1.367 . S
C788 C786 1.405 . S
C788 C790 1.403 . S
C788 C821 1.439 . S
C789 H774 0.930 . S
C789 N785 1.319 . S
C789 C787 1.397 . S
C790 C787 1.367 . S
C790 C788 1.403 . S
C790 H797 0.929 . S
N791 Eu756 2.562 . S
N791 C792 1.325 . S
N791 C794 1.351 . S
C792 H778 0.929 . S
C792 N791 1.325 . S
C792 C796 1.416 . S
C793 C794 1.430 . S
C793 C795 1.404 . S
C793 C822 1.387 . S
C794 C786 1.448 . S
C794 N791 1.351 . S
C794 C793 1.430 . S
C795 H784 0.930 . S
C795 C793 1.404 . S
C795 C796 1.366 . S
C796 H775 0.930 . S
C796 C792 1.416 . S
C796 C795 1.366 . S
H797 C790 0.929 . S
H798 C821 0.931 . S
H799 C822 0.931 . S
O800 Eu756 2.462 . S
O800 C820 1.252 . S
O801 Eu756 2.373 . S
O801 C812 1.249 . S
O802 Eu767 2.335 . S
O802 C812 1.264 . S
O803 Eu756 2.432 . S
O803 C820 1.268 . S
O804 Eu756 2.291 . S
O804 C819 1.255 . S
O805 Eu767 2.372 . S
O805 C819 1.257 . S
O806 Eu767 2.462 . S
O806 C831 1.252 . S
O807 Eu767 2.373 . S
O807 C823 1.249 . S
O808 Eu756 2.335 . S
O808 C823 1.264 . S
O809 Eu767 2.432 . S
O809 C831 1.268 . S
O810 Eu767 2.291 . S
O810 C830 1.255 . S
O811 Eu756 2.372 . S
O811 C830 1.257 . S
C812 O801 1.249 . S
C812 O802 1.264 . S
C813 C816 1.382 . S
C813 C818 1.390 . S
C813 C820 1.506 . S
C814 C815 1.398 . S
C814 C818 1.392 . S
C815 C814 1.398 . S
C815 C817 1.372 . S
C815 H832 0.931 . S
C816 C813 1.382 . S
C816 C817 1.390 . S
C816 H833 0.931 . S
C817 C815 1.372 . S
C817 C816 1.390 . S
C817 H834 0.929 . S
C818 C813 1.390 . S
C818 C814 1.392 . S
C818 H835 0.930 . S
C819 O804 1.255 . S
C819 O805 1.257 . S
C820 Eu756 2.787 . S
C820 O800 1.252 . S
C820 O803 1.268 . S
C820 C813 1.506 . S
C821 C788 1.439 . S
C821 H798 0.931 . S
C821 C822 1.374 . S
C822 C793 1.387 . S
C822 H799 0.931 . S
C822 C821 1.374 . S
C823 O807 1.249 . S
C823 O808 1.264 . S
C824 C827 1.382 . S
C824 C828 1.390 . S
C824 C831 1.506 . S
C825 C826 1.398 . S
C825 C828 1.392 1_554 S
C826 C825 1.398 . S
C826 C829 1.372 1_554 S
C826 H836 0.931 . S
C827 C824 1.382 . S
C827 C829 1.390 . S
C827 H837 0.931 . S
C828 C824 1.390 . S
C828 C825 1.392 1_556 S
C828 H838 0.930 . S
C829 C826 1.372 1_556 S
C829 C827 1.390 . S
C829 H839 0.929 1_556 S
C830 O810 1.255 . S
C830 O811 1.257 . S
C831 Eu767 2.787 . S
C831 O806 1.252 . S
C831 O809 1.268 . S
C831 C824 1.506 . S
H832 C815 0.931 . S
H833 C816 0.931 . S
H834 C817 0.929 . S
H835 C818 0.930 . S
H836 C826 0.931 . S
H837 C827 0.931 . S
H838 C828 0.930 . S
H839 C829 0.929 1_554 S
Eu840 N869 2.600 . S
Eu840 N875 2.562 . S
Eu840 O884 2.462 . S
Eu840 O885 2.373 . S
Eu840 O887 2.432 . S
Eu840 O888 2.291 . S
Eu840 O892 2.335 . S
Eu840 O895 2.372 . S
Eu840 C904 2.787 . S
C841 N842 1.365 . S
C841 C844 1.405 . S
C841 C848 1.448 . S
N842 C841 1.365 . S
N842 C845 1.319 . S
N842 Eu851 2.600 . S
C843 C845 1.397 . S
C843 C846 1.367 . S
C843 H863 0.931 . S
C844 C841 1.405 . S
C844 C846 1.403 . S
C844 C850 1.439 . S
C845 N842 1.319 . S
C845 C843 1.397 . S
C845 H856 0.930 . S
C846 C843 1.367 . S
C846 C844 1.403 . S
C846 H867 0.929 . S
C847 C848 1.430 . S
C847 C849 1.387 . S
C847 C853 1.404 . S
C848 C841 1.448 . S
C848 C847 1.430 . S
C848 N852 1.351 . S
C849 C847 1.387 . S
C849 C850 1.374 . S
C849 H864 0.931 . S
C850 C844 1.439 . S
C850 C849 1.374 . S
C850 H865 0.931 . S
Eu851 N842 2.600 . S
Eu851 N852 2.562 . S
Eu851 O886 2.335 . S
Eu851 O889 2.372 . S
Eu851 O890 2.462 . S
Eu851 O891 2.373 . S
Eu851 O893 2.432 . S
Eu851 O894 2.291 . S
Eu851 C915 2.787 . S
N852 C848 1.351 . S
N852 Eu851 2.562 . S
N852 C854 1.325 . S
C853 C847 1.404 . S
C853 C855 1.366 . S
C853 H861 0.930 . S
C854 N852 1.325 . S
C854 C855 1.416 . S
C854 H860 0.929 . S
C855 C853 1.366 . S
C855 C854 1.416 . S
C855 H857 0.930 . S
H856 C845 0.930 . S
H857 C855 0.930 . S
H858 C873 0.930 . S
H859 C880 0.930 . S
H860 C854 0.929 . S
H861 C853 0.930 . S
H862 C876 0.929 . S
H863 C843 0.931 . S
H864 C849 0.931 . S
H865 C850 0.931 . S
H866 C871 0.931 . S
H867 C846 0.929 . S
H868 C879 0.930 . S
N869 Eu840 2.600 . S
N869 C870 1.365 . S
N869 C873 1.319 . S
C870 N869 1.365 . S
C870 C872 1.405 . S
C870 C878 1.448 . S
C871 H866 0.931 . S
C871 C873 1.397 . S
C871 C874 1.367 . S
C872 C870 1.405 . S
C872 C874 1.403 . S
C872 C905 1.439 . S
C873 H858 0.930 . S
C873 N869 1.319 . S
C873 C871 1.397 . S
C874 C871 1.367 . S
C874 C872 1.403 . S
C874 H881 0.929 . S
N875 Eu840 2.562 . S
N875 C876 1.325 . S
N875 C878 1.351 . S
C876 H862 0.929 . S
C876 N875 1.325 . S
C876 C880 1.416 . S
C877 C878 1.430 . S
C877 C879 1.404 . S
C877 C906 1.387 . S
C878 C870 1.448 . S
C878 N875 1.351 . S
C878 C877 1.430 . S
C879 H868 0.930 . S
C879 C877 1.404 . S
C879 C880 1.366 . S
C880 H859 0.930 . S
C880 C876 1.416 . S
C880 C879 1.366 . S
H881 C874 0.929 . S
H882 C905 0.931 . S
H883 C906 0.931 . S
O884 Eu840 2.462 . S
O884 C904 1.252 . S
O885 Eu840 2.373 . S
O885 C896 1.249 . S
O886 Eu851 2.335 . S
O886 C896 1.264 . S
O887 Eu840 2.432 . S
O887 C904 1.268 . S
O888 Eu840 2.291 . S
O888 C903 1.255 . S
O889 Eu851 2.372 . S
O889 C903 1.257 . S
O890 Eu851 2.462 . S
O890 C915 1.252 . S
O891 Eu851 2.373 . S
O891 C907 1.249 . S
O892 Eu840 2.335 . S
O892 C907 1.264 . S
O893 Eu851 2.432 . S
O893 C915 1.268 . S
O894 Eu851 2.291 . S
O894 C914 1.255 . S
O895 Eu840 2.372 . S
O895 C914 1.257 . S
C896 O885 1.249 . S
C896 O886 1.264 . S
C897 C900 1.382 . S
C897 C902 1.390 . S
C897 C904 1.506 . S
C898 C899 1.398 . S
C898 C902 1.392 . S
C899 C898 1.398 . S
C899 C901 1.372 . S
C899 H916 0.931 . S
C900 C897 1.382 . S
C900 C901 1.390 . S
C900 H917 0.931 . S
C901 C899 1.372 . S
C901 C900 1.390 . S
C901 H918 0.929 . S
C902 C897 1.390 . S
C902 C898 1.392 . S
C902 H919 0.930 . S
C903 O888 1.255 . S
C903 O889 1.257 . S
C904 Eu840 2.787 . S
C904 O884 1.252 . S
C904 O887 1.268 . S
C904 C897 1.506 . S
C905 C872 1.439 . S
C905 H882 0.931 . S
C905 C906 1.374 . S
C906 C877 1.387 . S
C906 H883 0.931 . S
C906 C905 1.374 . S
C907 O891 1.249 . S
C907 O892 1.264 . S
C908 C911 1.382 . S
C908 C912 1.390 . S
C908 C915 1.506 . S
C909 C910 1.398 1_554 S
C909 C912 1.392 . S
C910 C909 1.398 1_556 S
C910 C913 1.372 1_556 S
C910 H920 0.931 . S
C911 C908 1.382 . S
C911 C913 1.390 . S
C911 H921 0.931 . S
C912 C908 1.390 . S
C912 C909 1.392 . S
C912 H922 0.930 . S
C913 C910 1.372 1_554 S
C913 C911 1.390 . S
C913 H923 0.929 1_554 S
C914 O894 1.255 . S
C914 O895 1.257 . S
C915 Eu851 2.787 . S
C915 O890 1.252 . S
C915 O893 1.268 . S
C915 C908 1.506 . S
H916 C899 0.931 . S
H917 C900 0.931 . S
H918 C901 0.929 . S
H919 C902 0.930 . S
H920 C910 0.931 . S
H921 C911 0.931 . S
H922 C912 0.930 . S
H923 C913 0.929 1_556 S
Eu924 N953 2.600 . S
Eu924 N959 2.562 . S
Eu924 O968 2.462 . S
Eu924 O969 2.373 . S
Eu924 O971 2.432 . S
Eu924 O972 2.291 . S
Eu924 O976 2.335 . S
Eu924 O979 2.372 . S
Eu924 C988 2.787 . S
C925 N926 1.365 1_556 S
C925 C928 1.405 . S
C925 C932 1.448 . S
N926 C925 1.365 1_554 S
N926 C929 1.319 . S
N926 Eu935 2.600 . S
C927 C929 1.397 . S
C927 C930 1.367 . S
C927 H947 0.931 . S
C928 C925 1.405 . S
C928 C930 1.403 1_556 S
C928 C934 1.439 . S
C929 N926 1.319 . S
C929 C927 1.397 . S
C929 H940 0.930 . S
C930 C927 1.367 . S
C930 C928 1.403 1_554 S
C930 H951 0.928 1_554 S
C931 C932 1.430 . S
C931 C933 1.387 . S
C931 C937 1.404 . S
C932 C925 1.448 . S
C932 C931 1.430 . S
C932 N936 1.351 . S
C933 C931 1.387 . S
C933 C934 1.374 . S
C933 H948 0.931 . S
C934 C928 1.439 . S
C934 C933 1.374 . S
C934 H949 0.931 . S
Eu935 N926 2.600 . S
Eu935 N936 2.562 1_554 S
Eu935 O970 2.335 . S
Eu935 O973 2.372 . S
Eu935 O974 2.462 1_554 S
Eu935 O975 2.373 . S
Eu935 O977 2.432 1_554 S
Eu935 O978 2.291 . S
Eu935 C999 2.787 1_554 S
N936 C932 1.351 . S
N936 Eu935 2.562 1_556 S
N936 C938 1.325 . S
C937 C931 1.404 . S
C937 C939 1.366 . S
C937 H945 0.930 . S
C938 N936 1.325 . S
C938 C939 1.416 . S
C938 H944 0.929 . S
C939 C937 1.366 . S
C939 C938 1.416 . S
C939 H941 0.930 . S
H940 C929 0.930 . S
H941 C939 0.930 . S
H942 C957 0.930 . S
H943 C964 0.930 . S
H944 C938 0.929 . S
H945 C937 0.930 . S
H946 C960 0.929 . S
H947 C927 0.931 . S
H948 C933 0.931 . S
H949 C934 0.931 . S
H950 C955 0.931 1_655 S
H951 C930 0.928 1_556 S
H952 C963 0.930 . S
N953 Eu924 2.600 . S
N953 C954 1.365 . S
N953 C957 1.319 . S
C954 N953 1.365 . S
C954 C956 1.405 . S
C954 C962 1.448 . S
C955 H950 0.931 1_455 S
C955 C957 1.397 . S
C955 C958 1.367 . S
C956 C954 1.405 . S
C956 C958 1.403 . S
C956 C989 1.439 1_565 S
C957 H942 0.930 . S
C957 N953 1.319 . S
C957 C955 1.397 . S
C958 C955 1.367 . S
C958 C956 1.403 . S
C958 H965 0.922 1_565 S
N959 Eu924 2.562 . S
N959 C960 1.325 . S
N959 C962 1.351 . S
C960 H946 0.929 . S
C960 N959 1.325 . S
C960 C964 1.416 . S
C961 C962 1.430 1_545 S
C961 C963 1.404 . S
C961 C990 1.387 . S
C962 C954 1.448 . S
C962 N959 1.351 . S
C962 C961 1.430 1_565 S
C963 H952 0.930 . S
C963 C961 1.404 . S
C963 C964 1.366 1_545 S
C964 H943 0.930 . S
C964 C960 1.416 . S
C964 C963 1.366 1_565 S
H965 C958 0.922 1_545 S
H966 C989 0.931 . S
H967 C990 0.931 . S
O968 Eu924 2.462 . S
O968 C988 1.252 . S
O969 Eu924 2.373 . S
O969 C980 1.249 . S
O970 Eu935 2.335 . S
O970 C980 1.264 . S
O971 Eu924 2.432 . S
O971 C988 1.268 . S
O972 Eu924 2.291 . S
O972 C987 1.255 . S
O973 Eu935 2.372 . S
O973 C987 1.257 . S
O974 Eu935 2.462 1_556 S
O974 C999 1.252 . S
O975 Eu935 2.373 . S
O975 C991 1.249 . S
O976 Eu924 2.335 . S
O976 C991 1.264 . S
O977 Eu935 2.432 1_556 S
O977 C999 1.268 . S
O978 Eu935 2.291 . S
O978 C998 1.255 . S
O979 Eu924 2.372 . S
O979 C998 1.257 . S
C980 O969 1.249 . S
C980 O970 1.264 . S
C981 C984 1.382 . S
C981 C986 1.390 . S
C981 C988 1.506 . S
C982 C983 1.398 . S
C982 C986 1.392 . S
C983 C982 1.398 . S
C983 C985 1.372 . S
C983 H1000 0.931 . S
C984 C981 1.382 . S
C984 C985 1.390 . S
C984 H1001 0.931 . S
C985 C983 1.372 . S
C985 C984 1.390 . S
C985 H1002 0.929 . S
C986 C981 1.390 . S
C986 C982 1.392 . S
C986 H1003 0.930 . S
C987 O972 1.255 . S
C987 O973 1.257 . S
C988 Eu924 2.787 . S
C988 O968 1.252 . S
C988 O971 1.268 . S
C988 C981 1.506 . S
C989 C956 1.439 1_545 S
C989 H966 0.931 . S
C989 C990 1.374 . S
C990 C961 1.387 . S
C990 H967 0.931 . S
C990 C989 1.374 . S
C991 O975 1.249 . S
C991 O976 1.264 . S
C992 C995 1.382 . S
C992 C996 1.390 . S
C992 C999 1.506 . S
C993 C994 1.398 . S
C993 C996 1.392 . S
C994 C993 1.398 . S
C994 C997 1.372 . S
C994 H1004 0.931 . S
C995 C992 1.382 . S
C995 C997 1.390 . S
C995 H1005 0.931 . S
C996 C992 1.390 . S
C996 C993 1.392 . S
C996 H1006 0.930 . S
C997 C994 1.372 . S
C997 C995 1.390 . S
C997 H1007 0.929 . S
C998 O978 1.255 . S
C998 O979 1.257 . S
C999 Eu935 2.787 1_556 S
C999 O974 1.252 . S
C999 O977 1.268 . S
C999 C992 1.506 . S
H1000 C983 0.931 . S
H1001 C984 0.931 . S
H1002 C985 0.929 . S
H1003 C986 0.930 . S
H1004 C994 0.931 . S
H1005 C995 0.931 . S
H1006 C996 0.930 . S
H1007 C997 0.929 . S
Eu1008 N1037 2.600 . S
Eu1008 N1043 2.562 1_554 S
Eu1008 O1052 2.462 1_554 S
Eu1008 O1053 2.373 . S
Eu1008 O1055 2.432 1_554 S
Eu1008 O1056 2.291 . S
Eu1008 O1060 2.335 . S
Eu1008 O1063 2.372 . S
Eu1008 C1072 2.787 1_554 S
C1009 N1010 1.365 . S
C1009 C1012 1.405 . S
C1009 C1016 1.448 . S
N1010 C1009 1.365 . S
N1010 C1013 1.319 . S
N1010 Eu1019 2.600 . S
C1011 C1013 1.397 . S
C1011 C1014 1.367 . S
C1011 H1031 0.931 . S
C1012 C1009 1.405 . S
C1012 C1014 1.403 . S
C1012 C1018 1.439 1_655 S
C1013 N1010 1.319 . S
C1013 C1011 1.397 . S
C1013 H1024 0.930 . S
C1014 C1011 1.367 . S
C1014 C1012 1.403 . S
C1014 H1035 0.929 . S
C1015 C1016 1.430 . S
C1015 C1017 1.387 1_655 S
C1015 C1021 1.404 . S
C1016 C1009 1.448 . S
C1016 C1015 1.430 . S
C1016 N1020 1.351 . S
C1017 C1015 1.387 1_455 S
C1017 C1018 1.374 . S
C1017 H1032 0.931 . S
C1018 C1012 1.439 1_455 S
C1018 C1017 1.374 . S
C1018 H1033 0.931 . S
Eu1019 N1010 2.600 . S
Eu1019 N1020 2.562 . S
Eu1019 O1054 2.335 . S
Eu1019 O1057 2.372 . S
Eu1019 O1058 2.462 . S
Eu1019 O1059 2.373 . S
Eu1019 O1061 2.432 . S
Eu1019 O1062 2.291 . S
Eu1019 C1083 2.787 . S
N1020 C1016 1.351 . S
N1020 Eu1019 2.562 . S
N1020 C1022 1.325 . S
C1021 C1015 1.404 . S
C1021 C1023 1.366 . S
C1021 H1029 0.930 1_655 S
C1022 N1020 1.325 . S
C1022 C1023 1.416 . S
C1022 H1028 0.929 . S
C1023 C1021 1.366 . S
C1023 C1022 1.416 . S
C1023 H1025 0.930 . S
H1024 C1013 0.930 . S
H1025 C1023 0.930 . S
H1026 C1041 0.930 . S
H1027 C1048 0.930 . S
H1028 C1022 0.929 . S
H1029 C1021 0.930 1_455 S
H1030 C1044 0.929 . S
H1031 C1011 0.931 . S
H1032 C1017 0.931 . S
H1033 C1018 0.931 . S
H1034 C1039 0.931 . S
H1035 C1014 0.929 . S
H1036 C1047 0.930 . S
N1037 Eu1008 2.600 . S
N1037 C1038 1.365 1_554 S
N1037 C1041 1.319 . S
C1038 N1037 1.365 1_556 S
C1038 C1040 1.405 . S
C1038 C1046 1.448 . S
C1039 H1034 0.931 . S
C1039 C1041 1.397 . S
C1039 C1042 1.367 . S
C1040 C1038 1.405 . S
C1040 C1042 1.403 1_556 S
C1040 C1073 1.439 . S
C1041 H1026 0.930 . S
C1041 N1037 1.319 . S
C1041 C1039 1.397 . S
C1042 C1039 1.367 . S
C1042 C1040 1.403 1_554 S
C1042 H1049 0.929 1_554 S
N1043 Eu1008 2.562 1_556 S
N1043 C1044 1.325 . S
N1043 C1046 1.351 . S
C1044 H1030 0.929 . S
C1044 N1043 1.325 . S
C1044 C1048 1.416 . S
C1045 C1046 1.430 . S
C1045 C1047 1.404 . S
C1045 C1074 1.387 . S
C1046 C1038 1.448 . S
C1046 N1043 1.351 . S
C1046 C1045 1.430 . S
C1047 H1036 0.930 . S
C1047 C1045 1.404 . S
C1047 C1048 1.366 . S
C1048 H1027 0.930 . S
C1048 C1044 1.416 . S
C1048 C1047 1.366 . S
H1049 C1042 0.929 1_556 S
H1050 C1073 0.931 . S
H1051 C1074 0.931 . S
O1052 Eu1008 2.462 1_556 S
O1052 C1072 1.252 . S
O1053 Eu1008 2.373 . S
O1053 C1064 1.249 . S
O1054 Eu1019 2.335 . S
O1054 C1064 1.264 . S
O1055 Eu1008 2.432 1_556 S
O1055 C1072 1.268 . S
O1056 Eu1008 2.291 . S
O1056 C1071 1.255 . S
O1057 Eu1019 2.372 . S
O1057 C1071 1.257 . S
O1058 Eu1019 2.462 . S
O1058 C1083 1.252 . S
O1059 Eu1019 2.373 . S
O1059 C1075 1.249 . S
O1060 Eu1008 2.335 . S
O1060 C1075 1.264 . S
O1061 Eu1019 2.432 . S
O1061 C1083 1.268 . S
O1062 Eu1019 2.291 . S
O1062 C1082 1.255 . S
O1063 Eu1008 2.372 . S
O1063 C1082 1.257 . S
C1064 O1053 1.249 . S
C1064 O1054 1.264 . S
C1065 C1068 1.382 . S
C1065 C1070 1.390 . S
C1065 C1072 1.506 . S
C1066 C1067 1.398 . S
C1066 C1070 1.392 . S
C1067 C1066 1.398 . S
C1067 C1069 1.372 . S
C1067 H1084 0.931 . S
C1068 C1065 1.382 . S
C1068 C1069 1.390 . S
C1068 H1085 0.931 . S
C1069 C1067 1.372 . S
C1069 C1068 1.390 . S
C1069 H1086 0.929 . S
C1070 C1065 1.390 . S
C1070 C1066 1.392 . S
C1070 H1087 0.930 . S
C1071 O1056 1.255 . S
C1071 O1057 1.257 . S
C1072 Eu1008 2.787 1_556 S
C1072 O1052 1.252 . S
C1072 O1055 1.268 . S
C1072 C1065 1.506 . S
C1073 C1040 1.439 . S
C1073 H1050 0.931 . S
C1073 C1074 1.374 . S
C1074 C1045 1.387 . S
C1074 H1051 0.931 . S
C1074 C1073 1.374 . S
C1075 O1059 1.249 . S
C1075 O1060 1.264 . S
C1076 C1079 1.382 . S
C1076 C1080 1.390 . S
C1076 C1083 1.506 . S
C1077 C1078 1.398 . S
C1077 C1080 1.392 . S
C1078 C1077 1.398 . S
C1078 C1081 1.372 . S
C1078 H1088 0.931 . S
C1079 C1076 1.382 . S
C1079 C1081 1.390 . S
C1079 H1089 0.931 . S
C1080 C1076 1.390 . S
C1080 C1077 1.392 . S
C1080 H1090 0.930 . S
C1081 C1078 1.372 . S
C1081 C1079 1.390 . S
C1081 H1091 0.929 . S
C1082 O1062 1.255 . S
C1082 O1063 1.257 . S
C1083 Eu1019 2.787 . S
C1083 O1058 1.252 . S
C1083 O1061 1.268 . S
C1083 C1076 1.506 . S
H1084 C1067 0.931 . S
H1085 C1068 0.931 . S
H1086 C1069 0.929 . S
H1087 C1070 0.930 . S
H1088 C1078 0.931 . S
H1089 C1079 0.931 . S
H1090 C1080 0.930 . S
H1091 C1081 0.929 . S
Eu1092 N1121 2.600 . S
Eu1092 N1127 2.562 . S
Eu1092 O1136 2.462 . S
Eu1092 O1137 2.373 . S
Eu1092 O1139 2.432 . S
Eu1092 O1140 2.291 . S
Eu1092 O1144 2.335 . S
Eu1092 O1147 2.372 . S
Eu1092 C1156 2.787 . S
C1093 N1094 1.365 1_554 S
C1093 C1096 1.405 . S
C1093 C1100 1.448 . S
N1094 C1093 1.365 1_556 S
N1094 C1097 1.319 . S
N1094 Eu1103 2.600 . S
C1095 C1097 1.397 . S
C1095 C1098 1.367 . S
C1095 H1115 0.931 . S
C1096 C1093 1.405 . S
C1096 C1098 1.403 1_554 S
C1096 C1102 1.439 . S
C1097 N1094 1.319 . S
C1097 C1095 1.397 . S
C1097 H1108 0.930 . S
C1098 C1095 1.367 . S
C1098 C1096 1.403 1_556 S
C1098 H1119 0.929 1_556 S
C1099 C1100 1.430 . S
C1099 C1101 1.387 . S
C1099 C1105 1.404 . S
C1100 C1093 1.448 . S
C1100 C1099 1.430 . S
C1100 N1104 1.351 . S
C1101 C1099 1.387 . S
C1101 C1102 1.374 . S
C1101 H1116 0.931 . S
C1102 C1096 1.439 . S
C1102 C1101 1.374 . S
C1102 H1117 0.931 . S
Eu1103 N1094 2.600 . S
Eu1103 N1104 2.562 1_556 S
Eu1103 O1138 2.335 . S
Eu1103 O1141 2.372 . S
Eu1103 O1142 2.462 1_556 S
Eu1103 O1143 2.373 . S
Eu1103 O1145 2.432 1_556 S
Eu1103 O1146 2.291 . S
Eu1103 C1167 2.787 1_556 S
N1104 C1100 1.351 . S
N1104 Eu1103 2.562 1_554 S
N1104 C1106 1.325 . S
C1105 C1099 1.404 . S
C1105 C1107 1.366 . S
C1105 H1113 0.930 . S
C1106 N1104 1.325 . S
C1106 C1107 1.416 . S
C1106 H1112 0.929 . S
C1107 C1105 1.366 . S
C1107 C1106 1.416 . S
C1107 H1109 0.930 . S
H1108 C1097 0.930 . S
H1109 C1107 0.930 . S
H1110 C1125 0.930 . S
H1111 C1132 0.930 . S
H1112 C1106 0.929 . S
H1113 C1105 0.930 . S
H1114 C1128 0.929 . S
H1115 C1095 0.931 . S
H1116 C1101 0.931 . S
H1117 C1102 0.931 . S
H1118 C1123 0.931 1_655 S
H1119 C1098 0.929 1_554 S
H1120 C1131 0.930 . S
N1121 Eu1092 2.600 . S
N1121 C1122 1.365 . S
N1121 C1125 1.319 . S
C1122 N1121 1.365 . S
C1122 C1124 1.405 . S
C1122 C1130 1.448 . S
C1123 H1118 0.931 1_455 S
C1123 C1125 1.397 . S
C1123 C1126 1.367 . S
C1124 C1122 1.405 . S
C1124 C1126 1.403 . S
C1124 C1157 1.439 1_545 S
C1125 H1110 0.930 . S
C1125 N1121 1.319 . S
C1125 C1123 1.397 . S
C1126 C1123 1.367 . S
C1126 C1124 1.403 . S
C1126 H1133 0.929 1_545 S
N1127 Eu1092 2.562 . S
N1127 C1128 1.325 . S
N1127 C1130 1.351 . S
C1128 H1114 0.929 . S
C1128 N1127 1.325 . S
C1128 C1132 1.416 . S
C1129 C1130 1.430 1_565 S
C1129 C1131 1.404 . S
C1129 C1158 1.387 . S
C1130 C1122 1.448 . S
C1130 N1127 1.351 . S
C1130 C1129 1.430 1_545 S
C1131 H1120 0.930 . S
C1131 C1129 1.404 . S
C1131 C1132 1.366 1_565 S
C1132 H1111 0.930 . S
C1132 C1128 1.416 . S
C1132 C1131 1.366 1_545 S
H1133 C1126 0.929 1_565 S
H1134 C1157 0.931 . S
H1135 C1158 0.931 . S
O1136 Eu1092 2.462 . S
O1136 C1156 1.252 . S
O1137 Eu1092 2.373 . S
O1137 C1148 1.249 . S
O1138 Eu1103 2.335 . S
O1138 C1148 1.264 . S
O1139 Eu1092 2.432 . S
O1139 C1156 1.268 . S
O1140 Eu1092 2.291 . S
O1140 C1155 1.255 . S
O1141 Eu1103 2.372 . S
O1141 C1155 1.257 . S
O1142 Eu1103 2.462 1_554 S
O1142 C1167 1.252 . S
O1143 Eu1103 2.373 . S
O1143 C1159 1.249 . S
O1144 Eu1092 2.335 . S
O1144 C1159 1.264 . S
O1145 Eu1103 2.432 1_554 S
O1145 C1167 1.268 . S
O1146 Eu1103 2.291 . S
O1146 C1166 1.255 . S
O1147 Eu1092 2.372 . S
O1147 C1166 1.257 . S
C1148 O1137 1.249 . S
C1148 O1138 1.264 . S
C1149 C1152 1.382 . S
C1149 C1154 1.390 . S
C1149 C1156 1.506 . S
C1150 C1151 1.398 . S
C1150 C1154 1.392 . S
C1151 C1150 1.398 . S
C1151 C1153 1.372 . S
C1151 H1168 0.931 . S
C1152 C1149 1.382 . S
C1152 C1153 1.390 . S
C1152 H1169 0.931 . S
C1153 C1151 1.372 . S
C1153 C1152 1.390 . S
C1153 H1170 0.929 . S
C1154 C1149 1.390 . S
C1154 C1150 1.392 . S
C1154 H1171 0.930 . S
C1155 O1140 1.255 . S
C1155 O1141 1.257 . S
C1156 Eu1092 2.787 . S
C1156 O1136 1.252 . S
C1156 O1139 1.268 . S
C1156 C1149 1.506 . S
C1157 C1124 1.439 1_565 S
C1157 H1134 0.931 . S
C1157 C1158 1.374 . S
C1158 C1129 1.387 . S
C1158 H1135 0.931 . S
C1158 C1157 1.374 . S
C1159 O1143 1.249 . S
C1159 O1144 1.264 . S
C1160 C1163 1.382 . S
C1160 C1164 1.390 . S
C1160 C1167 1.506 . S
C1161 C1162 1.398 . S
C1161 C1164 1.392 . S
C1162 C1161 1.398 . S
C1162 C1165 1.372 . S
C1162 H1172 0.931 . S
C1163 C1160 1.382 . S
C1163 C1165 1.390 . S
C1163 H1173 0.931 . S
C1164 C1160 1.390 . S
C1164 C1161 1.392 . S
C1164 H1174 0.930 . S
C1165 C1162 1.372 . S
C1165 C1163 1.390 . S
C1165 H1175 0.929 . S
C1166 O1146 1.255 . S
C1166 O1147 1.257 . S
C1167 Eu1103 2.787 1_554 S
C1167 O1142 1.252 . S
C1167 O1145 1.268 . S
C1167 C1160 1.506 . S
H1168 C1151 0.931 . S
H1169 C1152 0.931 . S
H1170 C1153 0.929 . S
H1171 C1154 0.930 . S
H1172 C1162 0.931 . S
H1173 C1163 0.931 . S
H1174 C1164 0.930 . S
H1175 C1165 0.929 . S
Eu1176 N1205 2.600 . S
Eu1176 N1211 2.562 . S
Eu1176 O1220 2.462 . S
Eu1176 O1221 2.373 . S
Eu1176 O1223 2.432 . S
Eu1176 O1224 2.291 . S
Eu1176 O1228 2.335 . S
Eu1176 O1231 2.372 . S
Eu1176 C1240 2.787 . S
C1177 N1178 1.365 . S
C1177 C1180 1.405 . S
C1177 C1184 1.448 . S
N1178 C1177 1.365 . S
N1178 C1181 1.319 . S
N1178 Eu1187 2.600 . S
C1179 C1181 1.397 . S
C1179 C1182 1.367 . S
C1179 H1199 0.931 . S
C1180 C1177 1.405 . S
C1180 C1182 1.403 . S
C1180 C1186 1.439 . S
C1181 N1178 1.319 . S
C1181 C1179 1.397 . S
C1181 H1192 0.930 . S
C1182 C1179 1.367 . S
C1182 C1180 1.403 . S
C1182 H1203 0.929 . S
C1183 C1184 1.430 . S
C1183 C1185 1.387 . S
C1183 C1189 1.404 . S
C1184 C1177 1.448 . S
C1184 C1183 1.430 . S
C1184 N1188 1.351 . S
C1185 C1183 1.387 . S
C1185 C1186 1.374 . S
C1185 H1200 0.931 . S
C1186 C1180 1.439 . S
C1186 C1185 1.374 . S
C1186 H1201 0.931 . S
Eu1187 N1178 2.600 . S
Eu1187 N1188 2.562 . S
Eu1187 O1222 2.335 . S
Eu1187 O1225 2.372 . S
Eu1187 O1226 2.462 . S
Eu1187 O1227 2.373 . S
Eu1187 O1229 2.432 . S
Eu1187 O1230 2.291 . S
Eu1187 C1251 2.787 . S
N1188 C1184 1.351 . S
N1188 Eu1187 2.562 . S
N1188 C1190 1.325 . S
C1189 C1183 1.404 . S
C1189 C1191 1.366 . S
C1189 H1197 0.930 . S
C1190 N1188 1.325 . S
C1190 C1191 1.416 . S
C1190 H1196 0.929 . S
C1191 C1189 1.366 . S
C1191 C1190 1.416 . S
C1191 H1193 0.930 . S
H1192 C1181 0.930 . S
H1193 C1191 0.930 . S
H1194 C1209 0.930 . S
H1195 C1216 0.930 . S
H1196 C1190 0.929 . S
H1197 C1189 0.930 . S
H1198 C1212 0.929 . S
H1199 C1179 0.931 . S
H1200 C1185 0.931 . S
H1201 C1186 0.931 . S
H1202 C1207 0.931 . S
H1203 C1182 0.929 . S
H1204 C1215 0.930 . S
N1205 Eu1176 2.600 . S
N1205 C1206 1.365 . S
N1205 C1209 1.319 . S
C1206 N1205 1.365 . S
C1206 C1208 1.405 . S
C1206 C1214 1.448 . S
C1207 H1202 0.931 . S
C1207 C1209 1.397 . S
C1207 C1210 1.367 . S
C1208 C1206 1.405 . S
C1208 C1210 1.403 . S
C1208 C1241 1.439 . S
C1209 H1194 0.930 . S
C1209 N1205 1.319 . S
C1209 C1207 1.397 . S
C1210 C1207 1.367 . S
C1210 C1208 1.403 . S
C1210 H1217 0.929 . S
N1211 Eu1176 2.562 . S
N1211 C1212 1.325 . S
N1211 C1214 1.351 . S
C1212 H1198 0.929 . S
C1212 N1211 1.325 . S
C1212 C1216 1.416 . S
C1213 C1214 1.430 . S
C1213 C1215 1.404 . S
C1213 C1242 1.387 . S
C1214 C1206 1.448 . S
C1214 N1211 1.351 . S
C1214 C1213 1.430 . S
C1215 H1204 0.930 . S
C1215 C1213 1.404 . S
C1215 C1216 1.366 . S
C1216 H1195 0.930 . S
C1216 C1212 1.416 . S
C1216 C1215 1.366 . S
H1217 C1210 0.929 . S
H1218 C1241 0.931 . S
H1219 C1242 0.931 . S
O1220 Eu1176 2.462 . S
O1220 C1240 1.252 . S
O1221 Eu1176 2.373 . S
O1221 C1232 1.249 . S
O1222 Eu1187 2.335 . S
O1222 C1232 1.264 . S
O1223 Eu1176 2.432 . S
O1223 C1240 1.268 . S
O1224 Eu1176 2.291 . S
O1224 C1239 1.255 . S
O1225 Eu1187 2.372 . S
O1225 C1239 1.257 . S
O1226 Eu1187 2.462 . S
O1226 C1251 1.252 . S
O1227 Eu1187 2.373 . S
O1227 C1243 1.249 . S
O1228 Eu1176 2.335 . S
O1228 C1243 1.264 . S
O1229 Eu1187 2.432 . S
O1229 C1251 1.268 . S
O1230 Eu1187 2.291 . S
O1230 C1250 1.255 . S
O1231 Eu1176 2.372 . S
O1231 C1250 1.257 . S
C1232 O1221 1.249 . S
C1232 O1222 1.264 . S
C1233 C1236 1.382 . S
C1233 C1238 1.390 . S
C1233 C1240 1.506 . S
C1234 C1235 1.398 . S
C1234 C1238 1.392 1_554 S
C1235 C1234 1.398 . S
C1235 C1237 1.372 1_554 S
C1235 H1252 0.931 . S
C1236 C1233 1.382 . S
C1236 C1237 1.390 . S
C1236 H1253 0.931 . S
C1237 C1235 1.372 1_556 S
C1237 C1236 1.390 . S
C1237 H1254 0.929 1_556 S
C1238 C1233 1.390 . S
C1238 C1234 1.392 1_556 S
C1238 H1255 0.930 . S
C1239 O1224 1.255 . S
C1239 O1225 1.257 . S
C1240 Eu1176 2.787 . S
C1240 O1220 1.252 . S
C1240 O1223 1.268 . S
C1240 C1233 1.506 . S
C1241 C1208 1.439 . S
C1241 H1218 0.931 . S
C1241 C1242 1.374 . S
C1242 C1213 1.387 . S
C1242 H1219 0.931 . S
C1242 C1241 1.374 . S
C1243 O1227 1.249 . S
C1243 O1228 1.264 . S
C1244 C1247 1.382 . S
C1244 C1248 1.390 . S
C1244 C1251 1.506 . S
C1245 C1246 1.398 . S
C1245 C1248 1.392 . S
C1246 C1245 1.398 . S
C1246 C1249 1.372 . S
C1246 H1256 0.931 . S
C1247 C1244 1.382 . S
C1247 C1249 1.390 . S
C1247 H1257 0.931 . S
C1248 C1244 1.390 . S
C1248 C1245 1.392 . S
C1248 H1258 0.930 . S
C1249 C1246 1.372 . S
C1249 C1247 1.390 . S
C1249 H1259 0.929 . S
C1250 O1230 1.255 . S
C1250 O1231 1.257 . S
C1251 Eu1187 2.787 . S
C1251 O1226 1.252 . S
C1251 O1229 1.268 . S
C1251 C1244 1.506 . S
H1252 C1235 0.931 . S
H1253 C1236 0.931 . S
H1254 C1237 0.929 1_554 S
H1255 C1238 0.930 . S
H1256 C1246 0.931 . S
H1257 C1247 0.931 . S
H1258 C1248 0.930 . S
H1259 C1249 0.929 . S
Eu1260 N1289 2.600 . S
Eu1260 N1295 2.562 . S
Eu1260 O1304 2.462 . S
Eu1260 O1305 2.373 . S
Eu1260 O1307 2.432 . S
Eu1260 O1308 2.291 . S
Eu1260 O1312 2.335 . S
Eu1260 O1315 2.372 . S
Eu1260 C1324 2.787 . S
C1261 N1262 1.365 . S
C1261 C1264 1.405 . S
C1261 C1268 1.448 . S
N1262 C1261 1.365 . S
N1262 C1265 1.319 . S
N1262 Eu1271 2.600 . S
C1263 C1265 1.397 . S
C1263 C1266 1.367 . S
C1263 H1283 0.931 1_565 S
C1264 C1261 1.405 . S
C1264 C1266 1.403 . S
C1264 C1270 1.439 . S
C1265 N1262 1.319 . S
C1265 C1263 1.397 . S
C1265 H1276 0.930 . S
C1266 C1263 1.367 . S
C1266 C1264 1.403 . S
C1266 H1287 0.929 1_565 S
C1267 C1268 1.430 . S
C1267 C1269 1.387 . S
C1267 C1273 1.404 . S
C1268 C1261 1.448 . S
C1268 C1267 1.430 . S
C1268 N1272 1.351 . S
C1269 C1267 1.387 . S
C1269 C1270 1.374 . S
C1269 H1284 0.931 . S
C1270 C1264 1.439 . S
C1270 C1269 1.374 . S
C1270 H1285 0.931 . S
Eu1271 N1262 2.600 . S
Eu1271 N1272 2.562 . S
Eu1271 O1306 2.335 . S
Eu1271 O1309 2.372 . S
Eu1271 O1310 2.462 . S
Eu1271 O1311 2.373 . S
Eu1271 O1313 2.432 . S
Eu1271 O1314 2.291 . S
Eu1271 C1335 2.787 . S
N1272 C1268 1.351 . S
N1272 Eu1271 2.562 . S
N1272 C1274 1.325 . S
C1273 C1267 1.404 . S
C1273 C1275 1.366 . S
C1273 H1281 0.930 . S
C1274 N1272 1.325 . S
C1274 C1275 1.416 . S
C1274 H1280 0.929 . S
C1275 C1273 1.366 . S
C1275 C1274 1.416 . S
C1275 H1277 0.930 . S
H1276 C1265 0.930 . S
H1277 C1275 0.930 . S
H1278 C1293 0.930 . S
H1279 C1300 0.930 . S
H1280 C1274 0.929 . S
H1281 C1273 0.930 . S
H1282 C1296 0.929 . S
H1283 C1263 0.931 1_545 S
H1284 C1269 0.931 . S
H1285 C1270 0.931 . S
H1286 C1291 0.931 . S
H1287 C1266 0.929 1_545 S
H1288 C1299 0.930 . S
N1289 Eu1260 2.600 . S
N1289 C1290 1.365 . S
N1289 C1293 1.319 . S
C1290 N1289 1.365 . S
C1290 C1292 1.405 . S
C1290 C1298 1.448 . S
C1291 H1286 0.931 . S
C1291 C1293 1.397 . S
C1291 C1294 1.367 . S
C1292 C1290 1.405 . S
C1292 C1294 1.403 . S
C1292 C1325 1.439 . S
C1293 H1278 0.930 . S
C1293 N1289 1.319 . S
C1293 C1291 1.397 . S
C1294 C1291 1.367 . S
C1294 C1292 1.403 . S
C1294 H1301 0.929 . S
N1295 Eu1260 2.562 . S
N1295 C1296 1.325 . S
N1295 C1298 1.351 . S
C1296 H1282 0.929 . S
C1296 N1295 1.325 . S
C1296 C1300 1.416 . S
C1297 C1298 1.430 . S
C1297 C1299 1.404 . S
C1297 C1326 1.387 . S
C1298 C1290 1.448 . S
C1298 N1295 1.351 . S
C1298 C1297 1.430 . S
C1299 H1288 0.930 . S
C1299 C1297 1.404 . S
C1299 C1300 1.366 . S
C1300 H1279 0.930 . S
C1300 C1296 1.416 . S
C1300 C1299 1.366 . S
H1301 C1294 0.929 . S
H1302 C1325 0.931 . S
H1303 C1326 0.931 . S
O1304 Eu1260 2.462 . S
O1304 C1324 1.252 . S
O1305 Eu1260 2.373 . S
O1305 C1316 1.249 . S
O1306 Eu1271 2.335 . S
O1306 C1316 1.264 . S
O1307 Eu1260 2.432 . S
O1307 C1324 1.268 . S
O1308 Eu1260 2.291 . S
O1308 C1323 1.255 . S
O1309 Eu1271 2.372 . S
O1309 C1323 1.257 . S
O1310 Eu1271 2.462 . S
O1310 C1335 1.252 . S
O1311 Eu1271 2.373 . S
O1311 C1327 1.249 . S
O1312 Eu1260 2.335 . S
O1312 C1327 1.264 . S
O1313 Eu1271 2.432 . S
O1313 C1335 1.268 . S
O1314 Eu1271 2.291 . S
O1314 C1334 1.255 . S
O1315 Eu1260 2.372 . S
O1315 C1334 1.257 . S
C1316 O1305 1.249 . S
C1316 O1306 1.264 . S
C1317 C1320 1.382 . S
C1317 C1322 1.390 . S
C1317 C1324 1.506 . S
C1318 C1319 1.398 . S
C1318 C1322 1.392 . S
C1319 C1318 1.398 . S
C1319 C1321 1.372 . S
C1319 H1336 0.931 . S
C1320 C1317 1.382 . S
C1320 C1321 1.390 . S
C1320 H1337 0.931 . S
C1321 C1319 1.372 . S
C1321 C1320 1.390 . S
C1321 H1338 0.929 . S
C1322 C1317 1.390 . S
C1322 C1318 1.392 . S
C1322 H1339 0.930 . S
C1323 O1308 1.255 . S
C1323 O1309 1.257 . S
C1324 Eu1260 2.787 . S
C1324 O1304 1.252 . S
C1324 O1307 1.268 . S
C1324 C1317 1.506 . S
C1325 C1292 1.439 . S
C1325 H1302 0.931 . S
C1325 C1326 1.374 . S
C1326 C1297 1.387 . S
C1326 H1303 0.931 . S
C1326 C1325 1.374 . S
C1327 O1311 1.249 . S
C1327 O1312 1.264 . S
C1328 C1331 1.382 . S
C1328 C1332 1.390 . S
C1328 C1335 1.506 . S
C1329 C1330 1.390 1_554 S
C1329 C1332 1.409 . S
C1330 C1329 1.390 1_556 S
C1330 C1333 1.372 1_556 S
C1330 H1340 0.931 . S
C1331 C1328 1.382 . S
C1331 C1333 1.390 . S
C1331 H1341 0.931 . S
C1332 C1328 1.390 . S
C1332 C1329 1.409 . S
C1332 H1342 0.930 . S
C1333 C1330 1.372 1_554 S
C1333 C1331 1.390 . S
C1333 H1343 0.929 1_554 S
C1334 O1314 1.255 . S
C1334 O1315 1.257 . S
C1335 Eu1271 2.787 . S
C1335 O1310 1.252 . S
C1335 O1313 1.268 . S
C1335 C1328 1.506 . S
H1336 C1319 0.931 . S
H1337 C1320 0.931 . S
H1338 C1321 0.929 . S
H1339 C1322 0.930 . S
H1340 C1330 0.931 . S
H1341 C1331 0.931 . S
H1342 C1332 0.930 . S
H1343 C1333 0.929 1_556 S
C1344 C1345 1.369 . S
C1344 C1346 1.419 . S
C1344 H1348 0.930 . S
C1345 C1344 1.369 . S
C1345 C1354 1.429 . S
C1346 C1344 1.419 . S
C1346 C1347 1.363 . S
C1346 H1349 0.929 . S
C1347 C1346 1.363 . S
C1347 C1353 1.428 . S
H1348 C1344 0.930 . S
H1349 C1346 0.929 . S
S1350 N1351 1.613 . S
S1350 N1352 1.610 . S
N1351 S1350 1.613 . S
N1351 C1354 1.350 . S
N1352 S1350 1.610 . S
N1352 C1353 1.351 . S
C1353 C1347 1.428 . S
C1353 N1352 1.351 . S
C1353 C1354 1.434 . S
C1354 C1345 1.429 . S
C1354 N1351 1.350 . S
C1354 C1353 1.434 . S
C1355 C1356 1.369 . S
C1355 C1357 1.419 . S
C1355 H1359 0.930 . S
C1356 C1355 1.369 . S
C1356 C1365 1.429 . S
C1357 C1355 1.419 . S
C1357 C1358 1.363 . S
C1357 H1360 0.929 . S
C1358 C1357 1.363 . S
C1358 C1364 1.428 . S
H1359 C1355 0.930 . S
H1360 C1357 0.929 . S
S1361 N1362 1.613 . S
S1361 N1363 1.610 . S
N1362 S1361 1.613 . S
N1362 C1365 1.350 . S
N1363 S1361 1.610 . S
N1363 C1364 1.351 . S
C1364 C1358 1.428 . S
C1364 N1363 1.351 . S
C1364 C1365 1.434 . S
C1365 C1356 1.429 . S
C1365 N1362 1.350 . S
C1365 C1364 1.434 . S
C1366 C1367 1.369 . S
C1366 C1368 1.419 . S
C1366 H1370 0.930 . S
C1367 C1366 1.369 . S
C1367 C1376 1.429 . S
C1368 C1366 1.419 . S
C1368 C1369 1.363 . S
C1368 H1371 0.929 . S
C1369 C1368 1.363 . S
C1369 C1375 1.428 . S
H1370 C1366 0.930 . S
H1371 C1368 0.929 . S
S1372 N1373 1.613 . S
S1372 N1374 1.610 . S
N1373 S1372 1.613 . S
N1373 C1376 1.350 . S
N1374 S1372 1.610 . S
N1374 C1375 1.351 . S
C1375 C1369 1.428 . S
C1375 N1374 1.351 . S
C1375 C1376 1.434 . S
C1376 C1367 1.429 . S
C1376 N1373 1.350 . S
C1376 C1375 1.434 . S
C1377 C1378 1.369 . S
C1377 C1379 1.419 . S
C1377 H1381 0.930 . S
C1378 C1377 1.369 . S
C1378 C1387 1.429 . S
C1379 C1377 1.419 . S
C1379 C1380 1.363 . S
C1379 H1382 0.929 . S
C1380 C1379 1.363 . S
C1380 C1386 1.428 . S
H1381 C1377 0.930 . S
H1382 C1379 0.929 . S
S1383 N1384 1.613 . S
S1383 N1385 1.610 . S
N1384 S1383 1.613 . S
N1384 C1387 1.350 . S
N1385 S1383 1.610 . S
N1385 C1386 1.351 . S
C1386 C1380 1.428 . S
C1386 N1385 1.351 . S
C1386 C1387 1.434 . S
C1387 C1378 1.429 . S
C1387 N1384 1.350 . S
C1387 C1386 1.434 . S
C1388 C1389 1.369 . S
C1388 C1390 1.419 . S
C1388 H1392 0.930 . S
C1389 C1388 1.369 . S
C1389 C1398 1.429 . S
C1390 C1388 1.419 . S
C1390 C1391 1.363 . S
C1390 H1393 0.929 . S
C1391 C1390 1.363 . S
C1391 C1397 1.428 . S
H1392 C1388 0.930 . S
H1393 C1390 0.929 . S
S1394 N1395 1.613 . S
S1394 N1396 1.610 . S
N1395 S1394 1.613 . S
N1395 C1398 1.350 . S
N1396 S1394 1.610 . S
N1396 C1397 1.351 . S
C1397 C1391 1.428 . S
C1397 N1396 1.351 . S
C1397 C1398 1.434 . S
C1398 C1389 1.429 . S
C1398 N1395 1.350 . S
C1398 C1397 1.434 . S
C1399 C1400 1.369 . S
C1399 C1401 1.419 . S
C1399 H1403 0.930 . S
C1400 C1399 1.369 . S
C1400 C1409 1.429 . S
C1401 C1399 1.419 . S
C1401 C1402 1.363 . S
C1401 H1404 0.929 . S
C1402 C1401 1.363 . S
C1402 C1408 1.428 . S
H1403 C1399 0.930 . S
H1404 C1401 0.929 . S
S1405 N1406 1.613 . S
S1405 N1407 1.610 . S
N1406 S1405 1.613 . S
N1406 C1409 1.350 . S
N1407 S1405 1.610 . S
N1407 C1408 1.351 . S
C1408 C1402 1.428 . S
C1408 N1407 1.351 . S
C1408 C1409 1.434 . S
C1409 C1400 1.429 . S
C1409 N1406 1.350 . S
C1409 C1408 1.434 . S
C1410 C1411 1.369 . S
C1410 C1412 1.419 . S
C1410 H1414 0.930 . S
C1411 C1410 1.369 . S
C1411 C1420 1.429 . S
C1412 C1410 1.419 . S
C1412 C1413 1.363 . S
C1412 H1415 0.929 . S
C1413 C1412 1.363 . S
C1413 C1419 1.428 . S
H1414 C1410 0.930 . S
H1415 C1412 0.929 . S
S1416 N1417 1.613 . S
S1416 N1418 1.610 . S
N1417 S1416 1.613 . S
N1417 C1420 1.350 . S
N1418 S1416 1.610 . S
N1418 C1419 1.351 . S
C1419 C1413 1.428 . S
C1419 N1418 1.351 . S
C1419 C1420 1.434 . S
C1420 C1411 1.429 . S
C1420 N1417 1.350 . S
C1420 C1419 1.434 . S
C1421 C1422 1.369 . S
C1421 C1423 1.419 . S
C1421 H1425 0.930 . S
C1422 C1421 1.369 . S
C1422 C1431 1.429 . S
C1423 C1421 1.419 . S
C1423 C1424 1.363 . S
C1423 H1426 0.929 . S
C1424 C1423 1.363 . S
C1424 C1430 1.428 . S
H1425 C1421 0.930 . S
H1426 C1423 0.929 . S
S1427 N1428 1.613 . S
S1427 N1429 1.610 . S
N1428 S1427 1.613 . S
N1428 C1431 1.350 . S
N1429 S1427 1.610 . S
N1429 C1430 1.351 . S
C1430 C1424 1.428 . S
C1430 N1429 1.351 . S
C1430 C1431 1.434 . S
C1431 C1422 1.429 . S
C1431 N1428 1.350 . S
C1431 C1430 1.434 . S
C1432 C1433 1.369 . S
C1432 C1434 1.419 . S
C1432 H1436 0.930 . S
C1433 C1432 1.369 . S
C1433 C1442 1.429 . S
C1434 C1432 1.419 . S
C1434 C1435 1.363 . S
C1434 H1437 0.929 . S
C1435 C1434 1.363 . S
C1435 C1441 1.428 . S
H1436 C1432 0.930 . S
H1437 C1434 0.929 . S
S1438 N1439 1.613 . S
S1438 N1440 1.610 . S
N1439 S1438 1.613 . S
N1439 C1442 1.350 . S
N1440 S1438 1.610 . S
N1440 C1441 1.351 . S
C1441 C1435 1.428 . S
C1441 N1440 1.351 . S
C1441 C1442 1.434 . S
C1442 C1433 1.429 . S
C1442 N1439 1.350 . S
C1442 C1441 1.434 . S
C1443 C1444 1.369 . S
C1443 C1445 1.419 . S
C1443 H1447 0.930 . S
C1444 C1443 1.369 . S
C1444 C1453 1.429 . S
C1445 C1443 1.419 . S
C1445 C1446 1.363 . S
C1445 H1448 0.929 . S
C1446 C1445 1.363 . S
C1446 C1452 1.428 . S
H1447 C1443 0.930 . S
H1448 C1445 0.929 . S
S1449 N1450 1.613 . S
S1449 N1451 1.610 . S
N1450 S1449 1.613 . S
N1450 C1453 1.350 . S
N1451 S1449 1.610 . S
N1451 C1452 1.351 . S
C1452 C1446 1.428 . S
C1452 N1451 1.351 . S
C1452 C1453 1.434 . S
C1453 C1444 1.429 . S
C1453 N1450 1.350 . S
C1453 C1452 1.434 . S
C1454 C1455 1.369 . S
C1454 C1456 1.419 . S
C1454 H1458 0.930 . S
C1455 C1454 1.369 . S
C1455 C1464 1.429 . S
C1456 C1454 1.419 . S
C1456 C1457 1.363 . S
C1456 H1459 0.929 . S
C1457 C1456 1.363 . S
C1457 C1463 1.428 . S
H1458 C1454 0.930 . S
H1459 C1456 0.929 . S
S1460 N1461 1.613 . S
S1460 N1462 1.610 . S
N1461 S1460 1.613 . S
N1461 C1464 1.350 . S
N1462 S1460 1.610 . S
N1462 C1463 1.351 . S
C1463 C1457 1.428 . S
C1463 N1462 1.351 . S
C1463 C1464 1.434 . S
C1464 C1455 1.429 . S
C1464 N1461 1.350 . S
C1464 C1463 1.434 . S
C1465 C1466 1.369 . S
C1465 C1467 1.419 . S
C1465 H1469 0.930 . S
C1466 C1465 1.369 . S
C1466 C1475 1.429 . S
C1467 C1465 1.419 . S
C1467 C1468 1.363 . S
C1467 H1470 0.929 . S
C1468 C1467 1.363 . S
C1468 C1474 1.428 . S
H1469 C1465 0.930 . S
H1470 C1467 0.929 . S
S1471 N1472 1.613 . S
S1471 N1473 1.610 . S
N1472 S1471 1.613 . S
N1472 C1475 1.350 . S
N1473 S1471 1.610 . S
N1473 C1474 1.351 . S
C1474 C1468 1.428 . S
C1474 N1473 1.351 . S
C1474 C1475 1.434 . S
C1475 C1466 1.429 . S
C1475 N1472 1.350 . S
C1475 C1474 1.434 . S
C1476 C1477 1.369 . S
C1476 C1478 1.419 . S
C1476 H1480 0.930 . S
C1477 C1476 1.369 . S
C1477 C1486 1.429 . S
C1478 C1476 1.419 . S
C1478 C1479 1.363 . S
C1478 H1481 0.929 . S
C1479 C1478 1.363 . S
C1479 C1485 1.428 . S
H1480 C1476 0.930 . S
H1481 C1478 0.929 . S
S1482 N1483 1.613 . S
S1482 N1484 1.610 . S
N1483 S1482 1.613 . S
N1483 C1486 1.350 . S
N1484 S1482 1.610 . S
N1484 C1485 1.351 . S
C1485 C1479 1.428 . S
C1485 N1484 1.351 . S
C1485 C1486 1.434 . S
C1486 C1477 1.429 . S
C1486 N1483 1.350 . S
C1486 C1485 1.434 . S
C1487 C1488 1.369 . S
C1487 C1489 1.419 . S
C1487 H1491 0.930 . S
C1488 C1487 1.369 . S
C1488 C1497 1.429 . S
C1489 C1487 1.419 . S
C1489 C1490 1.363 . S
C1489 H1492 0.929 . S
C1490 C1489 1.363 . S
C1490 C1496 1.428 . S
H1491 C1487 0.930 . S
H1492 C1489 0.929 . S
S1493 N1494 1.613 . S
S1493 N1495 1.610 . S
N1494 S1493 1.613 . S
N1494 C1497 1.350 . S
N1495 S1493 1.610 . S
N1495 C1496 1.351 . S
C1496 C1490 1.428 . S
C1496 N1495 1.351 . S
C1496 C1497 1.434 . S
C1497 C1488 1.429 . S
C1497 N1494 1.350 . S
C1497 C1496 1.434 . S
C1498 C1499 1.369 . S
C1498 C1500 1.419 . S
C1498 H1502 0.930 . S
C1499 C1498 1.369 . S
C1499 C1508 1.429 . S
C1500 C1498 1.419 . S
C1500 C1501 1.363 . S
C1500 H1503 0.929 . S
C1501 C1500 1.363 . S
C1501 C1507 1.428 . S
H1502 C1498 0.930 . S
H1503 C1500 0.929 . S
S1504 N1505 1.613 . S
S1504 N1506 1.610 . S
N1505 S1504 1.613 . S
N1505 C1508 1.350 . S
N1506 S1504 1.610 . S
N1506 C1507 1.351 . S
C1507 C1501 1.428 . S
C1507 N1506 1.351 . S
C1507 C1508 1.434 . S
C1508 C1499 1.429 . S
C1508 N1505 1.350 . S
C1508 C1507 1.434 . S
C1509 C1510 1.369 . S
C1509 C1511 1.419 . S
C1509 H1513 0.930 . S
C1510 C1509 1.369 . S
C1510 C1519 1.429 . S
C1511 C1509 1.419 . S
C1511 C1512 1.363 . S
C1511 H1514 0.929 . S
C1512 C1511 1.363 . S
C1512 C1518 1.428 . S
H1513 C1509 0.930 . S
H1514 C1511 0.929 . S
S1515 N1516 1.613 . S
S1515 N1517 1.610 . S
N1516 S1515 1.613 . S
N1516 C1519 1.350 . S
N1517 S1515 1.610 . S
N1517 C1518 1.351 . S
C1518 C1512 1.428 . S
C1518 N1517 1.351 . S
C1518 C1519 1.434 . S
C1519 C1510 1.429 . S
C1519 N1516 1.350 . S
C1519 C1518 1.434 . S
C1520 C1521 1.369 . S
C1520 C1522 1.419 . S
C1520 H1524 0.930 . S
C1521 C1520 1.369 . S
C1521 C1530 1.429 . S
C1522 C1520 1.419 . S
C1522 C1523 1.363 . S
C1522 H1525 0.929 . S
C1523 C1522 1.363 . S
C1523 C1529 1.428 . S
H1524 C1520 0.930 . S
H1525 C1522 0.929 . S
S1526 N1527 1.613 . S
S1526 N1528 1.610 . S
N1527 S1526 1.613 . S
N1527 C1530 1.350 . S
N1528 S1526 1.610 . S
N1528 C1529 1.351 . S
C1529 C1523 1.428 . S
C1529 N1528 1.351 . S
C1529 C1530 1.434 . S
C1530 C1521 1.429 . S
C1530 N1527 1.350 . S
C1530 C1529 1.434 . S
C1531 C1532 1.369 . S
C1531 C1533 1.419 . S
C1531 H1535 0.930 . S
C1532 C1531 1.369 . S
C1532 C1541 1.429 . S
C1533 C1531 1.419 . S
C1533 C1534 1.363 . S
C1533 H1536 0.929 . S
C1534 C1533 1.363 . S
C1534 C1540 1.428 . S
H1535 C1531 0.930 . S
H1536 C1533 0.929 . S
S1537 N1538 1.613 . S
S1537 N1539 1.610 . S
N1538 S1537 1.613 . S
N1538 C1541 1.350 . S
N1539 S1537 1.610 . S
N1539 C1540 1.351 . S
C1540 C1534 1.428 . S
C1540 N1539 1.351 . S
C1540 C1541 1.434 . S
C1541 C1532 1.429 . S
C1541 N1538 1.350 . S
C1541 C1540 1.434 . S
C1542 C1543 1.369 . S
C1542 C1544 1.419 . S
C1542 H1546 0.930 . S
C1543 C1542 1.369 . S
C1543 C1552 1.429 . S
C1544 C1542 1.419 . S
C1544 C1545 1.363 . S
C1544 H1547 0.929 . S
C1545 C1544 1.363 . S
C1545 C1551 1.428 . S
H1546 C1542 0.930 . S
H1547 C1544 0.929 . S
S1548 N1549 1.613 . S
S1548 N1550 1.610 . S
N1549 S1548 1.613 . S
N1549 C1552 1.350 . S
N1550 S1548 1.610 . S
N1550 C1551 1.351 . S
C1551 C1545 1.428 . S
C1551 N1550 1.351 . S
C1551 C1552 1.434 . S
C1552 C1543 1.429 . S
C1552 N1549 1.350 . S
C1552 C1551 1.434 . S
C1553 C1554 1.369 . S
C1553 C1555 1.419 1_655 S
C1553 H1557 0.930 1_556 S
C1554 C1553 1.369 . S
C1554 C1563 1.429 . S
C1555 C1553 1.419 1_455 S
C1555 C1556 1.363 . S
C1555 H1558 0.929 1_556 S
C1556 C1555 1.363 . S
C1556 C1562 1.428 . S
H1557 C1553 0.930 1_554 S
H1558 C1555 0.929 1_554 S
S1559 N1560 1.624 . S
S1559 N1561 1.599 1_655 S
N1560 S1559 1.624 . S
N1560 C1563 1.350 . S
N1561 S1559 1.599 1_455 S
N1561 C1562 1.351 . S
C1562 C1556 1.428 . S
C1562 N1561 1.351 . S
C1562 C1563 1.434 1_455 S
C1563 C1554 1.429 . S
C1563 N1560 1.350 . S
C1563 C1562 1.434 1_655 S
C1564 C1565 1.369 . S
C1564 C1566 1.419 . S
C1564 H1568 0.930 . S
C1565 C1564 1.369 . S
C1565 C1574 1.429 . S
C1566 C1564 1.419 . S
C1566 C1567 1.363 . S
C1566 H1569 0.929 . S
C1567 C1566 1.363 . S
C1567 C1573 1.428 . S
H1568 C1564 0.930 . S
H1569 C1566 0.929 . S
S1570 N1571 1.613 . S
S1570 N1572 1.610 . S
N1571 S1570 1.613 . S
N1571 C1574 1.350 . S
N1572 S1570 1.610 . S
N1572 C1573 1.351 . S
C1573 C1567 1.428 . S
C1573 N1572 1.351 . S
C1573 C1574 1.434 . S
C1574 C1565 1.429 . S
C1574 N1571 1.350 . S
C1574 C1573 1.434 . S
C1575 C1576 1.369 . S
C1575 C1577 1.419 1_455 S
C1575 H1579 0.930 . S
C1576 C1575 1.369 . S
C1576 C1585 1.429 . S
C1577 C1575 1.419 1_655 S
C1577 C1578 1.363 . S
C1577 H1580 0.929 . S
C1578 C1577 1.363 . S
C1578 C1584 1.428 . S
H1579 C1575 0.930 . S
H1580 C1577 0.929 . S
S1581 N1582 1.613 . S
S1581 N1583 1.610 1_455 S
N1582 S1581 1.613 . S
N1582 C1585 1.350 . S
N1583 S1581 1.610 1_655 S
N1583 C1584 1.351 . S
C1584 C1578 1.428 . S
C1584 N1583 1.351 . S
C1584 C1585 1.434 1_655 S
C1585 C1576 1.429 . S
C1585 N1582 1.350 . S
C1585 C1584 1.434 1_455 S
C1586 C1587 1.369 . S
C1586 C1588 1.419 . S
C1586 H1590 0.930 . S
C1587 C1586 1.369 . S
C1587 C1596 1.429 . S
C1588 C1586 1.419 . S
C1588 C1589 1.363 . S
C1588 H1591 0.929 . S
C1589 C1588 1.363 . S
C1589 C1595 1.428 . S
H1590 C1586 0.930 . S
H1591 C1588 0.929 . S
S1592 N1593 1.613 . S
S1592 N1594 1.610 . S
N1593 S1592 1.613 . S
N1593 C1596 1.350 . S
N1594 S1592 1.610 . S
N1594 C1595 1.351 . S
C1595 C1589 1.428 . S
C1595 N1594 1.351 . S
C1595 C1596 1.434 . S
C1596 C1587 1.429 . S
C1596 N1593 1.350 . S
C1596 C1595 1.434 . S
C1597 C1598 1.369 . S
C1597 C1599 1.419 . S
C1597 H1601 0.930 . S
C1598 C1597 1.369 . S
C1598 C1607 1.429 . S
C1599 C1597 1.419 . S
C1599 C1600 1.363 . S
C1599 H1602 0.929 . S
C1600 C1599 1.363 . S
C1600 C1606 1.428 . S
H1601 C1597 0.930 . S
H1602 C1599 0.929 . S
S1603 N1604 1.613 . S
S1603 N1605 1.610 . S
N1604 S1603 1.613 . S
N1604 C1607 1.350 . S
N1605 S1603 1.610 . S
N1605 C1606 1.351 . S
C1606 C1600 1.428 . S
C1606 N1605 1.351 . S
C1606 C1607 1.434 . S
C1607 C1598 1.429 . S
C1607 N1604 1.350 . S
C1607 C1606 1.434 . S
C1608 C1609 1.369 . S
C1608 C1610 1.419 . S
C1608 H1612 0.930 . S
C1609 C1608 1.369 . S
C1609 C1618 1.429 . S
C1610 C1608 1.419 . S
C1610 C1611 1.363 . S
C1610 H1613 0.929 . S
C1611 C1610 1.363 . S
C1611 C1617 1.428 . S
H1612 C1608 0.930 . S
H1613 C1610 0.929 . S
S1614 N1615 1.613 . S
S1614 N1616 1.610 . S
N1615 S1614 1.613 . S
N1615 C1618 1.350 . S
N1616 S1614 1.610 . S
N1616 C1617 1.351 . S
C1617 C1611 1.428 . S
C1617 N1616 1.351 . S
C1617 C1618 1.434 . S
C1618 C1609 1.429 . S
C1618 N1615 1.350 . S
C1618 C1617 1.434 . S
C1619 C1620 1.369 . S
C1619 C1621 1.419 . S
C1619 H1623 0.930 . S
C1620 C1619 1.369 . S
C1620 C1629 1.429 . S
C1621 C1619 1.419 . S
C1621 C1622 1.363 . S
C1621 H1624 0.929 . S
C1622 C1621 1.363 . S
C1622 C1628 1.428 . S
H1623 C1619 0.930 . S
H1624 C1621 0.929 . S
S1625 N1626 1.613 . S
S1625 N1627 1.610 . S
N1626 S1625 1.613 . S
N1626 C1629 1.350 . S
N1627 S1625 1.610 . S
N1627 C1628 1.351 . S
C1628 C1622 1.428 . S
C1628 N1627 1.351 . S
C1628 C1629 1.434 . S
C1629 C1620 1.429 . S
C1629 N1626 1.350 . S
C1629 C1628 1.434 . S
C1630 C1631 1.369 . S
C1630 C1632 1.419 . S
C1630 H1634 0.930 . S
C1631 C1630 1.369 . S
C1631 C1640 1.429 . S
C1632 C1630 1.419 . S
C1632 C1633 1.363 . S
C1632 H1635 0.929 . S
C1633 C1632 1.363 . S
C1633 C1639 1.428 . S
H1634 C1630 0.930 . S
H1635 C1632 0.929 . S
S1636 N1637 1.613 . S
S1636 N1638 1.610 . S
N1637 S1636 1.613 . S
N1637 C1640 1.350 . S
N1638 S1636 1.610 . S
N1638 C1639 1.351 . S
C1639 C1633 1.428 . S
C1639 N1638 1.351 . S
C1639 C1640 1.434 . S
C1640 C1631 1.429 . S
C1640 N1637 1.350 . S
C1640 C1639 1.434 . S
C1641 C1642 1.369 . S
C1641 C1643 1.419 . S
C1641 H1645 0.930 . S
C1642 C1641 1.369 . S
C1642 C1651 1.429 . S
C1643 C1641 1.419 . S
C1643 C1644 1.363 . S
C1643 H1646 0.929 . S
C1644 C1643 1.363 . S
C1644 C1650 1.428 . S
H1645 C1641 0.930 . S
H1646 C1643 0.929 . S
S1647 N1648 1.613 . S
S1647 N1649 1.610 . S
N1648 S1647 1.613 . S
N1648 C1651 1.350 . S
N1649 S1647 1.610 . S
N1649 C1650 1.351 . S
C1650 C1644 1.428 . S
C1650 N1649 1.351 . S
C1650 C1651 1.434 . S
C1651 C1642 1.429 . S
C1651 N1648 1.350 . S
C1651 C1650 1.434 . S
C1652 C1653 1.369 . S
C1652 C1654 1.419 1_655 S
C1652 H1656 0.930 . S
C1653 C1652 1.369 . S
C1653 C1662 1.429 . S
C1654 C1652 1.419 1_455 S
C1654 C1655 1.363 . S
C1654 H1657 0.929 . S
C1655 C1654 1.363 . S
C1655 C1661 1.428 . S
H1656 C1652 0.930 . S
H1657 C1654 0.929 . S
S1658 N1659 1.613 . S
S1658 N1660 1.610 1_655 S
N1659 S1658 1.613 . S
N1659 C1662 1.350 . S
N1660 S1658 1.610 1_455 S
N1660 C1661 1.351 . S
C1661 C1655 1.428 . S
C1661 N1660 1.351 . S
C1661 C1662 1.434 1_455 S
C1662 C1653 1.429 . S
C1662 N1659 1.350 . S
C1662 C1661 1.434 1_655 S
C1663 C1664 1.369 . S
C1663 C1665 1.419 . S
C1663 H1667 0.930 . S
C1664 C1663 1.369 . S
C1664 C1673 1.429 . S
C1665 C1663 1.419 . S
C1665 C1666 1.363 . S
C1665 H1668 0.929 . S
C1666 C1665 1.363 . S
C1666 C1672 1.428 . S
H1667 C1663 0.930 . S
H1668 C1665 0.929 . S
S1669 N1670 1.613 . S
S1669 N1671 1.610 . S
N1670 S1669 1.613 . S
N1670 C1673 1.350 . S
N1671 S1669 1.610 . S
N1671 C1672 1.351 . S
C1672 C1666 1.428 . S
C1672 N1671 1.351 . S
C1672 C1673 1.434 . S
C1673 C1664 1.429 . S
C1673 N1670 1.350 . S
C1673 C1672 1.434 . S
C1674 C1675 1.369 . S
C1674 C1676 1.419 . S
C1674 H1678 0.930 . S
C1675 C1674 1.369 . S
C1675 C1684 1.429 . S
C1676 C1674 1.419 . S
C1676 C1677 1.363 . S
C1676 H1679 0.929 . S
C1677 C1676 1.363 . S
C1677 C1683 1.428 . S
H1678 C1674 0.930 . S
H1679 C1676 0.929 . S
S1680 N1681 1.613 . S
S1680 N1682 1.610 . S
N1681 S1680 1.613 . S
N1681 C1684 1.350 . S
N1682 S1680 1.610 . S
N1682 C1683 1.351 . S
C1683 C1677 1.428 . S
C1683 N1682 1.351 . S
C1683 C1684 1.434 . S
C1684 C1675 1.429 . S
C1684 N1681 1.350 . S
C1684 C1683 1.434 . S
C1685 C1686 1.369 . S
C1685 C1687 1.419 1_455 S
C1685 H1689 0.930 . S
C1686 C1685 1.369 . S
C1686 C1695 1.429 . S
C1687 C1685 1.419 1_655 S
C1687 C1688 1.363 . S
C1687 H1690 0.929 . S
C1688 C1687 1.363 . S
C1688 C1694 1.428 . S
H1689 C1685 0.930 . S
H1690 C1687 0.929 . S
S1691 N1692 1.613 . S
S1691 N1693 1.610 1_455 S
N1692 S1691 1.613 . S
N1692 C1695 1.350 . S
N1693 S1691 1.610 1_655 S
N1693 C1694 1.351 . S
C1694 C1688 1.428 . S
C1694 N1693 1.351 . S
C1694 C1695 1.434 1_655 S
C1695 C1686 1.429 . S
C1695 N1692 1.350 . S
C1695 C1694 1.434 1_455 S
C1696 C1697 1.369 1_556 S
C1696 C1698 1.419 . S
C1696 H1700 0.930 . S
C1697 C1696 1.369 1_554 S
C1697 C1706 1.429 . S
C1698 C1696 1.419 . S
C1698 C1699 1.363 . S
C1698 H1701 0.929 . S
C1699 C1698 1.363 . S
C1699 C1705 1.428 1_556 S
H1700 C1696 0.930 . S
H1701 C1698 0.929 . S
S1702 N1703 1.613 . S
S1702 N1704 1.610 . S
N1703 S1702 1.613 . S
N1703 C1706 1.350 . S
N1704 S1702 1.610 . S
N1704 C1705 1.351 . S
C1705 C1699 1.428 1_554 S
C1705 N1704 1.351 . S
C1705 C1706 1.434 . S
C1706 C1697 1.429 . S
C1706 N1703 1.350 . S
C1706 C1705 1.434 . S
C1707 C1708 1.369 . S
C1707 C1709 1.419 . S
C1707 H1711 0.930 . S
C1708 C1707 1.369 . S
C1708 C1717 1.429 . S
C1709 C1707 1.419 . S
C1709 C1710 1.363 . S
C1709 H1712 0.929 . S
C1710 C1709 1.363 . S
C1710 C1716 1.428 . S
H1711 C1707 0.930 . S
H1712 C1709 0.929 . S
S1713 N1714 1.613 . S
S1713 N1715 1.610 . S
N1714 S1713 1.613 . S
N1714 C1717 1.350 . S
N1715 S1713 1.610 . S
N1715 C1716 1.351 . S
C1716 C1710 1.428 . S
C1716 N1715 1.351 . S
C1716 C1717 1.434 . S
C1717 C1708 1.429 . S
C1717 N1714 1.350 . S
C1717 C1716 1.434 . S
C1718 C1719 1.369 . S
C1718 C1720 1.419 . S
C1718 H1722 0.930 . S
C1719 C1718 1.369 . S
C1719 C1728 1.429 . S
C1720 C1718 1.419 . S
C1720 C1721 1.363 . S
C1720 H1723 0.929 . S
C1721 C1720 1.363 . S
C1721 C1727 1.428 . S
H1722 C1718 0.930 . S
H1723 C1720 0.929 . S
S1724 N1725 1.613 . S
S1724 N1726 1.610 . S
N1725 S1724 1.613 . S
N1725 C1728 1.350 . S
N1726 S1724 1.610 . S
N1726 C1727 1.351 . S
C1727 C1721 1.428 . S
C1727 N1726 1.351 . S
C1727 C1728 1.434 . S
C1728 C1719 1.429 . S
C1728 N1725 1.350 . S
C1728 C1727 1.434 . S
C1729 C1730 1.369 . S
C1729 C1731 1.419 . S
C1729 H1733 0.930 . S
C1730 C1729 1.369 . S
C1730 C1739 1.429 . S
C1731 C1729 1.419 . S
C1731 C1732 1.363 . S
C1731 H1734 0.929 . S
C1732 C1731 1.363 . S
C1732 C1738 1.428 . S
H1733 C1729 0.930 . S
H1734 C1731 0.929 . S
S1735 N1736 1.613 . S
S1735 N1737 1.610 . S
N1736 S1735 1.613 . S
N1736 C1739 1.350 . S
N1737 S1735 1.610 . S
N1737 C1738 1.351 . S
C1738 C1732 1.428 . S
C1738 N1737 1.351 . S
C1738 C1739 1.434 . S
C1739 C1730 1.429 . S
C1739 N1736 1.350 . S
C1739 C1738 1.434 . S
C1740 C1741 1.369 1_556 S
C1740 C1742 1.419 . S
C1740 H1744 0.930 . S
C1741 C1740 1.369 1_554 S
C1741 C1750 1.429 . S
C1742 C1740 1.419 . S
C1742 C1743 1.363 . S
C1742 H1745 0.929 . S
C1743 C1742 1.363 . S
C1743 C1749 1.428 1_556 S
H1744 C1740 0.930 . S
H1745 C1742 0.929 . S
S1746 N1747 1.613 . S
S1746 N1748 1.610 . S
N1747 S1746 1.613 . S
N1747 C1750 1.350 . S
N1748 S1746 1.610 . S
N1748 C1749 1.351 . S
C1749 C1743 1.428 1_554 S
C1749 N1748 1.351 . S
C1749 C1750 1.434 . S
C1750 C1741 1.429 . S
C1750 N1747 1.350 . S
C1750 C1749 1.434 . S
C1751 C1752 1.369 . S
C1751 C1753 1.419 . S
C1751 H1755 0.930 . S
C1752 C1751 1.369 . S
C1752 C1761 1.429 . S
C1753 C1751 1.419 . S
C1753 C1754 1.363 . S
C1753 H1756 0.929 . S
C1754 C1753 1.363 . S
C1754 C1760 1.428 . S
H1755 C1751 0.930 . S
H1756 C1753 0.929 . S
S1757 N1758 1.613 . S
S1757 N1759 1.610 . S
N1758 S1757 1.613 . S
N1758 C1761 1.350 . S
N1759 S1757 1.610 . S
N1759 C1760 1.351 . S
C1760 C1754 1.428 . S
C1760 N1759 1.351 . S
C1760 C1761 1.434 . S
C1761 C1752 1.429 . S
C1761 N1758 1.350 . S
C1761 C1760 1.434 . S
C1762 C1763 1.369 . S
C1762 C1764 1.419 . S
C1762 H1766 0.930 . S
C1763 C1762 1.369 . S
C1763 C1772 1.429 . S
C1764 C1762 1.419 . S
C1764 C1765 1.363 . S
C1764 H1767 0.929 . S
C1765 C1764 1.363 . S
C1765 C1771 1.428 . S
H1766 C1762 0.930 . S
H1767 C1764 0.929 . S
S1768 N1769 1.613 . S
S1768 N1770 1.610 . S
N1769 S1768 1.613 . S
N1769 C1772 1.350 . S
N1770 S1768 1.610 . S
N1770 C1771 1.351 . S
C1771 C1765 1.428 . S
C1771 N1770 1.351 . S
C1771 C1772 1.434 . S
C1772 C1763 1.429 . S
C1772 N1769 1.350 . S
C1772 C1771 1.434 . S
C1773 C1774 1.369 . S
C1773 C1775 1.419 . S
C1773 H1777 0.930 . S
C1774 C1773 1.369 . S
C1774 C1783 1.429 . S
C1775 C1773 1.419 . S
C1775 C1776 1.363 . S
C1775 H1778 0.929 . S
C1776 C1775 1.363 . S
C1776 C1782 1.428 . S
H1777 C1773 0.930 . S
H1778 C1775 0.929 . S
S1779 N1780 1.613 . S
S1779 N1781 1.610 . S
N1780 S1779 1.613 . S
N1780 C1783 1.350 . S
N1781 S1779 1.610 . S
N1781 C1782 1.351 . S
C1782 C1776 1.428 . S
C1782 N1781 1.351 . S
C1782 C1783 1.434 . S
C1783 C1774 1.429 . S
C1783 N1780 1.350 . S
C1783 C1782 1.434 . S
C1784 C1785 1.369 . S
C1784 C1786 1.419 . S
C1784 H1788 0.930 . S
C1785 C1784 1.369 . S
C1785 C1794 1.429 1_565 S
C1786 C1784 1.419 . S
C1786 C1787 1.363 1_565 S
C1786 H1789 0.929 . S
C1787 C1786 1.363 1_545 S
C1787 C1793 1.428 . S
H1788 C1784 0.930 . S
H1789 C1786 0.929 . S
S1790 N1791 1.613 . S
S1790 N1792 1.610 . S
N1791 S1790 1.613 . S
N1791 C1794 1.350 . S
N1792 S1790 1.610 . S
N1792 C1793 1.351 . S
C1793 C1787 1.428 . S
C1793 N1792 1.351 . S
C1793 C1794 1.434 . S
C1794 C1785 1.429 1_545 S
C1794 N1791 1.350 . S
C1794 C1793 1.434 . S
C1795 C1796 1.369 . S
C1795 C1797 1.419 . S
C1795 H1799 0.930 . S
C1796 C1795 1.369 . S
C1796 C1805 1.429 . S
C1797 C1795 1.419 . S
C1797 C1798 1.363 . S
C1797 H1800 0.929 . S
C1798 C1797 1.363 . S
C1798 C1804 1.428 . S
H1799 C1795 0.930 . S
H1800 C1797 0.929 . S
S1801 N1802 1.613 . S
S1801 N1803 1.610 . S
N1802 S1801 1.613 . S
N1802 C1805 1.350 . S
N1803 S1801 1.610 . S
N1803 C1804 1.351 . S
C1804 C1798 1.428 . S
C1804 N1803 1.351 . S
C1804 C1805 1.434 . S
C1805 C1796 1.429 . S
C1805 N1802 1.350 . S
C1805 C1804 1.434 . S
C1806 C1807 1.369 1_556 S
C1806 C1808 1.419 . S
C1806 H1810 0.930 . S
C1807 C1806 1.369 1_554 S
C1807 C1816 1.429 1_565 S
C1808 C1806 1.419 . S
C1808 C1809 1.363 1_565 S
C1808 H1811 0.929 . S
C1809 C1808 1.363 1_545 S
C1809 C1815 1.428 1_556 S
H1810 C1806 0.930 . S
H1811 C1808 0.929 . S
S1812 N1813 1.613 . S
S1812 N1814 1.610 . S
N1813 S1812 1.613 . S
N1813 C1816 1.350 . S
N1814 S1812 1.610 . S
N1814 C1815 1.351 . S
C1815 C1809 1.428 1_554 S
C1815 N1814 1.351 . S
C1815 C1816 1.434 . S
C1816 C1807 1.429 1_545 S
C1816 N1813 1.350 . S
C1816 C1815 1.434 . S
C1817 C1818 1.369 . S
C1817 C1819 1.419 . S
C1817 H1821 0.930 . S
C1818 C1817 1.369 . S
C1818 C1827 1.429 . S
C1819 C1817 1.419 . S
C1819 C1820 1.363 . S
C1819 H1822 0.929 . S
C1820 C1819 1.363 . S
C1820 C1826 1.428 . S
H1821 C1817 0.930 . S
H1822 C1819 0.929 . S
S1823 N1824 1.613 . S
S1823 N1825 1.610 . S
N1824 S1823 1.613 . S
N1824 C1827 1.350 . S
N1825 S1823 1.610 . S
N1825 C1826 1.351 . S
C1826 C1820 1.428 . S
C1826 N1825 1.351 . S
C1826 C1827 1.434 . S
C1827 C1818 1.429 . S
C1827 N1824 1.350 . S
C1827 C1826 1.434 . S
C1828 C1829 1.369 . S
C1828 C1830 1.419 1_565 S
C1828 H1832 0.930 . S
C1829 C1828 1.369 . S
C1829 C1838 1.429 1_565 S
C1830 C1828 1.419 1_545 S
C1830 C1831 1.363 . S
C1830 H1833 0.930 . S
C1831 C1830 1.363 . S
C1831 C1837 1.428 . S
H1832 C1828 0.930 . S
H1833 C1830 0.930 . S
S1834 N1835 1.613 . S
S1834 N1836 1.610 . S
N1835 S1834 1.613 . S
N1835 C1838 1.350 . S
N1836 S1834 1.610 . S
N1836 C1837 1.351 . S
C1837 C1831 1.428 . S
C1837 N1836 1.351 . S
C1837 C1838 1.434 . S
C1838 C1829 1.429 1_545 S
C1838 N1835 1.350 . S
C1838 C1837 1.434 . S
C1839 C1840 1.369 . S
C1839 C1841 1.419 . S
C1839 H1843 0.930 . S
C1840 C1839 1.369 . S
C1840 C1849 1.429 . S
C1841 C1839 1.419 . S
C1841 C1842 1.363 . S
C1841 H1844 0.929 . S
C1842 C1841 1.363 . S
C1842 C1848 1.428 . S
H1843 C1839 0.930 . S
H1844 C1841 0.929 . S
S1845 N1846 1.613 . S
S1845 N1847 1.610 . S
N1846 S1845 1.613 . S
N1846 C1849 1.350 . S
N1847 S1845 1.610 . S
N1847 C1848 1.351 . S
C1848 C1842 1.428 . S
C1848 N1847 1.351 . S
C1848 C1849 1.434 . S
C1849 C1840 1.429 . S
C1849 N1846 1.350 . S
C1849 C1848 1.434 . S
C1850 C1851 1.369 1_554 S
C1850 C1852 1.419 . S
C1850 H1854 0.930 . S
C1851 C1850 1.369 1_556 S
C1851 C1860 1.429 1_545 S
C1852 C1850 1.419 . S
C1852 C1853 1.363 1_545 S
C1852 H1855 0.929 . S
C1853 C1852 1.363 1_565 S
C1853 C1859 1.428 1_554 S
H1854 C1850 0.930 . S
H1855 C1852 0.929 . S
S1856 N1857 1.613 . S
S1856 N1858 1.610 . S
N1857 S1856 1.613 . S
N1857 C1860 1.350 . S
N1858 S1856 1.610 . S
N1858 C1859 1.351 . S
C1859 C1853 1.428 1_556 S
C1859 N1858 1.351 . S
C1859 C1860 1.434 . S
C1860 C1851 1.429 1_565 S
C1860 N1857 1.350 . S
C1860 C1859 1.434 . S
C1861 C1862 1.369 . S
C1861 C1863 1.419 . S
C1861 H1865 0.930 . S
C1862 C1861 1.369 . S
C1862 C1871 1.429 . S
C1863 C1861 1.419 . S
C1863 C1864 1.363 . S
C1863 H1866 0.929 . S
C1864 C1863 1.363 . S
C1864 C1870 1.428 . S
H1865 C1861 0.930 . S
H1866 C1863 0.929 . S
S1867 N1868 1.613 . S
S1867 N1869 1.610 . S
N1868 S1867 1.613 . S
N1868 C1871 1.350 . S
N1869 S1867 1.610 . S
N1869 C1870 1.351 . S
C1870 C1864 1.428 . S
C1870 N1869 1.351 . S
C1870 C1871 1.434 . S
C1871 C1862 1.429 . S
C1871 N1868 1.350 . S
C1871 C1870 1.434 . S
C1345 C69 1.501 . S
C1347 C58 1.485 . S
C1356 C142 1.472 1_556 S
C1358 C153 1.477 . S
C1367 C237 1.470 . S
C1369 C226 1.500 . S
C1378 C321 1.488 . S
C1380 C310 1.484 . S
C1389 C405 1.491 . S
C1391 C394 1.476 . S
C1400 C489 1.479 . S
C1402 C478 1.464 . S
C1411 C562 1.477 . S
C1413 C573 1.492 1_556 S
C1422 C657 1.507 . S
C1424 C646 1.495 . S
C1433 C741 1.501 . S
C1435 C730 1.491 . S
C1444 C814 1.486 . S
C1446 C825 1.481 . S
C1455 C909 1.474 1_556 S
C1457 C898 1.462 . S
C1466 C982 1.483 . S
C1468 C993 1.482 . S
C1477 C1066 1.474 . S
C1479 C1077 1.478 . S
C1488 C1150 1.491 . S
C1490 C1161 1.476 . S
C1499 C1245 1.477 . S
C1501 C1234 1.493 . S
C1510 C1329 1.487 1_556 S
C1512 C1318 1.490 . S
C1521 C63 1.710 . S
C1523 C991 1.761 . S
C1532 C140 1.760 . S
C1534 C1327 1.761 . S
C1543 C231 1.736 . S
C1545 C830 1.733 . S
C1554 C315 1.731 . S
C1556 C1166 1.735 . S
C1565 C399 1.715 . S
C1567 C1159 1.769 . S
C1576 C998 1.711 . S
C1578 C476 1.768 . S
C1587 C560 1.776 . S
C1589 C1334 1.720 . S
C1598 C651 1.735 . S
C1600 C823 1.792 . S
C1609 C308 1.772 . S
C1611 C739 1.772 . S
C1620 C147 1.710 . S
C1622 C914 1.712 . S
C1631 C1082 1.713 . S
C1633 C483 1.714 . S
C1642 C644 1.764 . S
C1644 C1243 1.765 . S
C1653 C746 1.722 . S
C1655 C392 1.776 . S
C1664 C567 1.710 . S
C1666 C907 1.771 . S
C1675 C224 1.773 . S
C1677 C1250 1.720 . S
C1686 C56 1.761 . S
C1688 C1075 1.760 . S
C1697 C74 1.721 . S
C1699 C410 1.719 . S
C1708 C151 1.679 . S
C1710 C487 1.676 . S
C1719 C242 1.716 . S
C1721 C571 1.682 . S
C1730 C326 1.719 . S
C1732 C662 1.719 . S
C1741 C1071 1.691 . S
C1743 C728 1.653 . S
C1752 C1155 1.746 . S
C1754 C812 1.705 . S
C1763 C903 1.717 . S
C1765 C1232 1.682 . S
C1774 C1316 1.659 . S
C1776 C987 1.698 . S
C1785 C158 1.688 . S
C1787 C655 1.649 . S
C1796 C403 1.675 . S
C1798 C235 1.673 . S
C1807 C494 1.732 . S
C1809 C319 1.689 . S
C1818 C67 1.663 . S
C1820 C578 1.706 . S
C1829 C1323 1.734 . S
C1831 C819 1.733 . S
C1840 C1064 1.672 . S
C1842 C896 1.675 . S
C1851 C1148 1.664 . S
C1853 C980 1.658 . S
C1862 C1239 1.709 . S
C1864 C735 1.709 . S
