# Generated by pormake.
# Topology rkf, (6)-cn, num edge types: 1
# Building blocks:
#     Node 0, Type 0, BuildingBlock: BETFEN_clean_sbu_0, # of connection points: 6
#     Node 1, Type 0, BuildingBlock: BETFEN_clean_sbu_0, # of connection points: 6
#     Node 2, Type 0, BuildingBlock: BETFEN_clean_sbu_0, # of connection points: 6
#     Node 3, Type 0, BuildingBlock: BETFEN_clean_sbu_0, # of connection points: 6
#     Node 4, Type 0, BuildingBlock: BETFEN_clean_sbu_0, # of connection points: 6
#     Node 5, Type 0, BuildingBlock: BETFEN_clean_sbu_0, # of connection points: 6
#     Edge 6, Type (0, 0), BuildingBlock: UVAHIK_clean_linker_0, # of connection points: 2
#     Edge 7, Type (0, 0), BuildingBlock: UVAHIK_clean_linker_0, # of connection points: 2
#     Edge 8, Type (0, 0), BuildingBlock: UVAHIK_clean_linker_0, # of connection points: 2
#     Edge 9, Type (0, 0), BuildingBlock: UVAHIK_clean_linker_0, # of connection points: 2
#     Edge 10, Type (0, 0), BuildingBlock: UVAHIK_clean_linker_0, # of connection points: 2
#     Edge 11, Type (0, 0), BuildingBlock: UVAHIK_clean_linker_0, # of connection points: 2
#     Edge 12, Type (0, 0), BuildingBlock: UVAHIK_clean_linker_0, # of connection points: 2
#     Edge 13, Type (0, 0), BuildingBlock: UVAHIK_clean_linker_0, # of connection points: 2
#     Edge 14, Type (0, 0), BuildingBlock: UVAHIK_clean_linker_0, # of connection points: 2
#     Edge 15, Type (0, 0), BuildingBlock: UVAHIK_clean_linker_0, # of connection points: 2
#     Edge 16, Type (0, 0), BuildingBlock: UVAHIK_clean_linker_0, # of connection points: 2
#     Edge 17, Type (0, 0), BuildingBlock: UVAHIK_clean_linker_0, # of connection points: 2
#     Edge 18, Type (0, 0), BuildingBlock: UVAHIK_clean_linker_0, # of connection points: 2
#     Edge 19, Type (0, 0), BuildingBlock: UVAHIK_clean_linker_0, # of connection points: 2
#     Edge 20, Type (0, 0), BuildingBlock: UVAHIK_clean_linker_0, # of connection points: 2
#     Edge 21, Type (0, 0), BuildingBlock: UVAHIK_clean_linker_0, # of connection points: 2
#     Edge 22, Type (0, 0), BuildingBlock: UVAHIK_clean_linker_0, # of connection points: 2
#     Edge 23, Type (0, 0), BuildingBlock: UVAHIK_clean_linker_0, # of connection points: 2
# Relax obj value: 0.547
# Max RMSD: 0.248
# Mean RMSD: 0.248
data_MOF--net-rkf--node1-BETFEN_clean_sbu_0--edge1-UVAHIK_clean_linker_0
_symmetry_space_group_name_H-M    P1
_symmetry_Int_Tables_number       1
_symmetry_cell_setting            triclinic
loop_
_symmetry_equiv_pos_as_xyz
'x, y, z'
_cell_length_a     31.915448
_cell_length_b     31.917671
_cell_length_c     58.957099
_cell_angle_alpha  90.34831
_cell_angle_beta   89.826838
_cell_angle_gamma 120.26147
loop_
_atom_site_label
_atom_site_type_symbol
_atom_site_fract_x
_atom_site_fract_y
_atom_site_fract_z
_atom_type_partial_charge
Pr0 Pr 0.28716 0.10684 0.10469 0.0
Pr1 Pr 0.34684 0.20857 1.09182 0.0
C2 C 0.25228 0.01172 0.11209 0.0
C3 C 0.24686 0.97845 0.13041 0.0
C4 C 0.23716 0.98666 0.15268 0.0
C5 C 0.22898 0.95303 0.16961 0.0
C6 C 0.2309 0.91079 0.16464 0.0
C7 C 0.24226 0.90361 0.14242 0.0
C8 C 0.25007 0.93716 0.12544 0.0
C9 C 0.23175 0.1455 1.08723 0.0
C10 C 0.30561 0.18265 0.14645 0.0
C11 C 0.38882 0.30421 1.08311 0.0
C12 C 0.39906 0.33478 1.06311 0.0
C13 C 0.42986 0.38509 1.06485 0.0
C14 C 0.44002 0.41434 1.04571 0.0
C15 C 0.41955 0.39351 1.02458 0.0
C16 C 0.38883 0.34288 1.02301 0.0
C17 C 0.3788 0.31377 1.0421 0.0
C18 C 0.40238 0.16672 0.10229 0.0
C19 C 0.31466 0.12931 1.04897 0.0
O20 O 0.29641 0.04094 0.10491 0.0
O21 O 0.22577 0.03228 0.11348 0.0
O22 O 0.27171 0.15275 1.07991 0.0
O23 O 0.21949 0.11807 0.1051 0.0
O24 O 0.32286 0.21523 0.12991 0.0
O25 O 0.29314 0.13725 0.14188 0.0
O26 O 0.34307 0.27717 1.08861 0.0
O27 O 0.41302 0.28135 1.08448 0.0
O28 O 0.36656 0.16114 0.11403 0.0
O29 O 0.41005 0.19441 1.08493 0.0
O30 O 0.30268 0.09769 1.0657 0.0
O31 O 0.32886 0.17523 1.0541 0.0
H32 H 0.2348 0.01851 0.15689 0.0
H33 H 0.21952 0.95943 0.18641 0.0
H34 H 0.24465 0.87186 0.13808 0.0
H35 H 0.25789 0.93051 0.10833 0.0
H36 H 0.446 0.4017 1.08099 0.0
H37 H 0.46398 0.45314 1.04741 0.0
H38 H 0.37164 0.32573 1.00712 0.0
H39 H 0.35497 0.2749 1.04051 0.0
Pr40 Pr 0.24567 0.28663 0.43783 0.0
Pr41 Pr 0.20518 0.34685 0.42617 0.0
C42 C 0.30539 0.25088 0.4438 0.0
C43 C 0.33892 0.25148 0.46085 0.0
C44 C 0.352 0.21572 0.46019 0.0
C45 C 0.38172 0.21406 0.47705 0.0
C46 C 0.39888 0.24827 0.49485 0.0
C47 C 0.38691 0.28511 0.49498 0.0
C48 C 0.35697 0.28657 0.47815 0.0
C49 C 0.15014 0.23137 0.42111 0.0
C50 C 0.19189 0.30627 0.48067 0.0
C51 C 0.15348 0.39145 0.4196 0.0
C52 C 0.134 0.40592 0.40074 0.0
C53 C 0.11502 0.43646 0.4047 0.0
C54 C 0.09633 0.45043 0.38673 0.0
C55 C 0.09656 0.43407 0.36456 0.0
C56 C 0.1161 0.40369 0.36076 0.0
C57 C 0.13479 0.38987 0.37869 0.0
C58 C 0.30396 0.40171 0.43522 0.0
C59 C 0.24825 0.31387 0.38213 0.0
O60 O 0.31855 0.29207 0.43372 0.0
O61 O 0.25932 0.22683 0.44906 0.0
O62 O 0.18286 0.27126 0.4137 0.0
O63 O 0.16615 0.21905 0.4386 0.0
O64 O 0.17545 0.32268 0.46433 0.0
O65 O 0.22483 0.29426 0.47558 0.0
O66 O 0.13355 0.34483 0.42313 0.0
O67 O 0.20066 0.41463 0.42133 0.0
O68 O 0.27407 0.36659 0.44742 0.0
O69 O 0.28297 0.40848 0.418 0.0
O70 O 0.2678 0.30091 0.3985 0.0
O71 O 0.21786 0.32926 0.38786 0.0
H72 H 0.33824 0.18836 0.44692 0.0
H73 H 0.38949 0.18473 0.47664 0.0
H74 H 0.3999 0.31223 0.50833 0.0
H75 H 0.34716 0.31447 0.47887 0.0
H76 H 0.11453 0.44935 0.42169 0.0
H77 H 0.08175 0.47399 0.39017 0.0
H78 H 0.1159 0.38955 0.34399 0.0
H79 H 0.14945 0.3663 0.37539 0.0
Pr80 Pr 0.03611 0.24948 0.77401 0.0
Pr81 Pr 0.93585 0.21612 0.76262 0.0
C82 C 0.13285 0.30431 0.77976 0.0
C83 C 0.16678 0.33868 0.79647 0.0
C84 C 0.2155 0.35094 0.79604 0.0
C85 C 0.24782 0.38257 0.81234 0.0
C86 C 0.23181 0.40248 0.8293 0.0
C87 C 0.18306 0.391 0.82922 0.0
C88 C 0.15076 0.35914 0.81301 0.0
C89 C -0.01223 0.15326 0.75745 0.0
C90 C 0.96215 0.20121 0.8173 0.0
C91 C 0.83899 0.16951 0.75625 0.0
C92 C 0.80438 0.14907 0.73754 0.0
C93 C 0.7547 0.12927 0.74168 0.0
C94 C 0.72139 0.10908 0.72388 0.0
C95 C 0.73752 0.10867 0.70171 0.0
C96 C 0.78761 0.12917 0.69771 0.0
C97 C 0.82075 0.14927 0.71547 0.0
C98 C -0.01296 0.31507 0.77147 0.0
C99 C 0.0118 0.25326 0.71826 0.0
O100 O 0.10712 0.31879 0.76862 0.0
O101 O 0.10777 0.25896 0.78605 0.0
O102 O -0.01594 0.18797 0.75017 0.0
O103 O 0.01754 0.16785 0.77455 0.0
O104 O 0.92852 0.18858 0.80132 0.0
O105 O 0.00825 0.22943 0.81183 0.0
O106 O 0.86274 0.14721 0.76113 0.0
O107 O 0.8663 0.21669 0.7565 0.0
O108 O -0.01017 0.28388 0.78367 0.0
O109 O 0.95798 0.29519 0.75442 0.0
O110 O 0.04504 0.27062 0.73455 0.0
O111 O 0.96535 0.22609 0.72416 0.0
H112 H 0.22834 0.33536 0.78335 0.0
H113 H 0.28488 0.38998 0.81214 0.0
H114 H 0.16968 0.40608 0.84189 0.0
H115 H 0.11316 0.34997 0.81353 0.0
H116 H 0.74168 0.12914 0.75869 0.0
H117 H 0.68312 0.09373 0.72745 0.0
H118 H 0.8012 0.12849 0.68094 0.0
H119 H 0.85909 0.16444 0.71206 0.0
Pr120 Pr 0.86003 0.05713 0.11023 0.0
Pr121 Pr 0.78492 0.95475 0.10019 0.0
C122 C 0.90893 0.15022 0.12426 0.0
C123 C 0.90779 0.18174 0.14238 0.0
C124 C 0.92327 0.18056 0.1645 0.0
C125 C 0.92251 0.21131 0.18123 0.0
C126 C 0.90612 0.24376 0.17623 0.0
C127 C 0.89059 0.24479 0.1541 0.0
C128 C 0.89162 0.21426 0.13734 0.0
C129 C 0.89851 0.00308 1.09196 0.0
C130 C 0.82598 0.97726 0.15342 0.0
C131 C 0.72483 0.86257 1.08651 0.0
C132 C 0.71534 0.8313 1.0667 0.0
C133 C 0.68328 0.78129 1.06855 0.0
C134 C 0.67582 0.75063 1.0501 0.0
C135 C 0.7004 0.7697 1.02955 0.0
C136 C 0.732 0.82013 1.02775 0.0
C137 C 0.73935 0.85068 1.04618 0.0
C138 C 0.74684 0.00909 0.11912 0.0
C139 C 0.83467 0.03423 1.05576 0.0
O140 O 0.87315 0.13331 0.10974 0.0
O141 O 0.9222 0.11873 0.12949 0.0
O142 O 0.86538 -0.01229 0.10656 0.0
O143 O 0.91579 0.04871 1.08769 0.0
O144 O 0.80459 0.94298 0.1377 0.0
O145 O 0.84437 0.02348 0.14769 0.0
O146 O 0.76582 0.8765 0.097 0.0
O147 O 0.71452 0.89714 1.0845 0.0
O148 O 0.77841 0.02345 0.10363 0.0
O149 O 0.73441 0.96556 0.12546 0.0
O150 O 0.85363 0.06899 1.07122 0.0
O151 O 0.80976 -0.01194 1.06233 0.0
H152 H 0.93631 0.15621 0.16888 0.0
H153 H 0.93575 0.2103 0.19799 0.0
H154 H 0.87746 0.26907 0.14973 0.0
H155 H 0.87976 0.21614 0.12036 0.0
H156 H 0.66451 0.76591 1.08436 0.0
H157 H 0.65108 0.71204 1.05194 0.0
H158 H 0.75222 0.8359 1.01232 0.0
H159 H 0.76434 0.88927 1.04455 0.0
Pr160 Pr 0.87617 0.86777 0.44562 0.0
Pr161 Pr 0.90048 0.79165 0.43278 0.0
C162 C 0.83305 0.91574 0.46184 0.0
C163 C 0.80066 0.91333 0.48037 0.0
C164 C 0.81919 0.93311 0.50185 0.0
C165 C 0.78827 0.93197 0.51894 0.0
C166 C 0.73819 0.91109 0.51492 0.0
C167 C 0.71969 0.89126 0.49345 0.0
C168 C 0.75062 0.89252 0.47634 0.0
C169 C 0.9691 0.90634 0.42776 0.0
C170 C 0.92185 0.82911 0.48676 0.0
C171 C 0.93051 0.73219 0.41617 0.0
C172 C 0.94701 0.72231 0.39468 0.0
C173 C 0.9612 0.68736 0.39374 0.0
C174 C -0.02075 0.67933 0.37356 0.0
C175 C -0.01642 0.70643 0.35406 0.0
C176 C 0.96838 0.74089 0.3551 0.0
C177 C 0.95001 0.74852 0.3752 0.0
C178 C 0.80842 0.75383 0.45205 0.0
C179 C 0.87264 0.84735 0.39044 0.0
O180 O 0.81366 0.88152 0.44646 0.0
O181 O 0.87782 0.92811 0.46685 0.0
O182 O 0.94973 0.8711 0.44116 0.0
O183 O 0.94208 0.92549 0.4246 0.0
O184 O 0.93235 0.8071 0.47039 0.0
O185 O 0.8957 0.84973 0.48205 0.0
O186 O 0.95966 0.77419 0.4256 0.0
O187 O 0.88495 0.72036 0.41711 0.0
O188 O 0.82619 0.78683 0.43725 0.0
O189 O 0.83893 0.74009 0.45757 0.0
O190 O 0.8606 0.86803 0.40664 0.0
O191 O 0.89004 0.81855 0.39589 0.0
H192 H 0.85762 0.94997 0.50542 0.0
H193 H 0.80385 0.94851 0.53516 0.0
H194 H 0.68129 0.87471 0.48987 0.0
H195 H 0.73531 0.8774 0.45987 0.0
H196 H 0.95883 0.66666 0.40869 0.0
H197 H -0.00994 0.65217 0.37328 0.0
H198 H 0.97197 0.76309 0.34059 0.0
H199 H 0.93889 0.77543 0.37563 0.0
Pr200 Pr 0.09296 0.87686 0.77459 0.0
Pr201 Pr 0.19621 0.91074 0.76244 0.0
C202 C 0.00142 0.8282 0.79037 0.0
C203 C 0.97241 0.799 0.80978 0.0
C204 C 0.97528 0.82015 0.83108 0.0
C205 C 0.94547 0.79207 0.84883 0.0
C206 C 0.91232 0.74226 0.84567 0.0
C207 C 0.91024 0.72104 0.82446 0.0
C208 C 0.93985 0.74918 0.80668 0.0
C209 C 0.13988 0.96824 0.75482 0.0
C210 C 0.17672 0.93062 0.81588 0.0
C211 C 0.28732 0.94782 0.74641 0.0
C212 C 0.31502 0.96967 0.72572 0.0
C213 C 0.36544 -0.01031 0.72579 0.0
C214 C 0.39258 0.0126 0.70644 0.0
C215 C 0.36955 0.01577 0.68677 0.0
C216 C 0.31876 -0.00508 0.68677 0.0
C217 C 0.29172 0.972 0.70609 0.0
C218 C 0.1481 0.81878 0.78217 0.0
C219 C 0.11165 0.87307 0.7199 0.0
O220 O 0.02023 0.80852 0.77743 0.0
O221 O 0.02994 0.87504 0.79325 0.0
O222 O 0.15887 0.95403 0.76925 0.0
O223 O 0.09437 0.93684 0.75158 0.0
O224 O 0.20969 0.94471 0.79955 0.0
O225 O 0.13043 0.89974 0.81114 0.0
O226 O 0.27243 0.9735 0.75747 0.0
O227 O 0.25465 0.90176 0.74525 0.0
O228 O 0.13081 0.83348 0.76703 0.0
O229 O 0.1917 0.85211 0.78766 0.0
O230 O 0.07835 0.85559 0.73596 0.0
O231 O 0.15845 0.89777 0.72551 0.0
H232 H -0.00013 0.8585 0.83398 0.0
H233 H 0.94738 0.80983 0.86482 0.0
H234 H 0.88546 0.68275 0.82153 0.0
H235 H 0.93686 0.73204 0.79038 0.0
H236 H 0.38385 -0.01194 0.74088 0.0
H237 H 0.43155 0.02797 0.7069 0.0
H238 H 0.29998 -0.00252 0.67204 0.0
H239 H 0.25277 0.95675 0.70583 0.0
C240 C 0.88745 0.95102 1.0586 0.0
C241 C 0.91237 0.97291 1.07878 0.0
C242 C 0.91214 0.94535 1.04031 0.0
C243 C 0.03594 0.97928 1.02164 0.0
H244 H 0.04695 0.10555 1.01751 0.0
C245 C 0.14627 0.11991 1.07702 0.0
C246 C 0.1951 0.14134 1.07073 0.0
C247 C 0.11027 0.10113 1.06038 0.0
C248 C 0.04467 0.07051 1.01721 0.0
H249 H 0.97823 -0.00421 0.09774 0.0
H250 H 0.02021 0.98245 1.06677 0.0
H251 H 0.96755 0.03315 1.01728 0.0
H252 H 0.24482 0.16655 1.04204 0.0
H253 H 0.18159 0.12995 1.01325 0.0
H254 H 0.11324 0.01743 1.02417 0.0
C255 C -0.01769 0.97121 1.06439 0.0
C256 C -0.00099 0.02862 1.017 0.0
C257 C 0.95845 0.97919 1.08224 0.0
C258 C 0.20739 0.14909 1.04748 0.0
C259 C 0.17137 0.12865 1.03088 0.0
C260 C 0.08177 0.021 1.02095 0.0
C261 C 0.96136 0.96 1.04256 0.0
C262 C -0.00524 0.98419 1.02342 0.0
C263 C 0.12268 0.10264 1.03734 0.0
C264 C 0.08563 0.06683 1.02197 0.0
H265 H 0.85111 0.94392 1.05586 0.0
H266 H 0.89499 0.93619 1.02378 0.0
H267 H 0.03352 0.94509 1.02576 0.0
H268 H 0.13575 0.11384 0.09472 0.0
H269 H 0.07264 0.0808 1.06567 0.0
C270 C 0.05129 0.96591 0.41537 0.0
C271 C 0.01154 0.91898 0.41357 0.0
C272 C 0.07973 -0.01179 0.39636 0.0
C273 C 0.0279 -0.0023 0.35135 0.0
H274 H 0.1528 0.11532 0.354 0.0
C275 C 0.11933 0.20699 0.38161 0.0
C276 C 0.11614 0.19476 0.40478 0.0
C277 C 0.10157 0.17087 0.36492 0.0
C278 C 0.1176 0.08285 0.35208 0.0
H279 H 0.97669 0.85482 0.39242 0.0
H280 H 0.02152 0.89588 0.35823 0.0
H281 H 0.14855 0.03726 0.35444 0.0
H282 H 0.08483 0.13551 0.42869 0.0
H283 H 0.05124 0.07229 0.39956 0.0
H284 H -0.00332 0.0432 0.35427 0.0
C285 C 0.03231 0.91497 0.37432 0.0
C286 C 0.11525 0.03792 0.35206 0.0
C287 C 0.00579 0.89183 0.3938 0.0
C288 C 0.08821 0.14599 0.41104 0.0
C289 C 0.06889 0.10991 0.39434 0.0
C290 C 0.03006 0.04247 0.35224 0.0
C291 C 0.06621 0.9648 0.37505 0.0
C292 C 0.07029 -0.00424 0.35567 0.0
C293 C 0.07817 0.12213 0.37123 0.0
C294 C 0.07497 0.08479 0.35542 0.0
H295 H 0.05665 0.9874 0.43054 0.0
H296 H 0.1061 0.02659 0.39762 0.0
H297 H -0.0075 0.96536 0.35293 0.0
H298 H 0.1398 0.24438 0.37619 0.0
H299 H 0.10938 0.18099 0.34724 0.0
C300 C 0.15736 0.05044 0.74579 0.0
C301 C 0.16576 0.01232 0.74119 0.0
C302 C 0.15878 0.08008 0.72819 0.0
C303 C 0.09171 0.03318 0.68342 0.0
H304 H 0.09794 0.15667 0.69022 0.0
C305 C 0.97389 0.12005 0.71815 0.0
C306 C -0.0142 0.11734 0.74094 0.0
C307 C -0.00948 0.10246 0.70068 0.0
C308 C 0.09555 0.12202 0.68711 0.0
H309 H 0.19208 0.98155 0.71602 0.0
H310 H 0.18889 0.02923 0.68476 0.0
H311 H 0.17248 0.15376 0.68963 0.0
H312 H 0.01559 0.08578 0.76353 0.0
H313 H 0.04192 0.05225 0.73309 0.0
H314 H 0.01464 0.00067 0.68628 0.0
C315 C 0.18287 0.03757 0.70189 0.0
C316 C 0.13851 0.12049 0.68658 0.0
C317 C 0.18357 0.00945 0.71978 0.0
C318 C 0.00648 0.08895 0.74618 0.0
C319 C 0.02138 0.06968 0.72873 0.0
C320 C 0.04875 0.03452 0.68489 0.0
C321 C 0.16591 0.06985 0.70567 0.0
C322 C 0.13617 0.07553 0.6882 0.0
C323 C 0.01669 0.07951 0.70592 0.0
C324 C 0.05096 0.07866 0.68948 0.0
H325 H 0.14366 0.05339 0.7622 0.0
H326 H 0.14572 0.1049 0.7317 0.0
H327 H 0.08899 -0.00207 0.68381 0.0
H328 H 0.95673 0.14065 0.71357 0.0
H329 H -0.01323 0.11057 0.68324 0.0
C330 C 0.42587 0.46705 1.00594 0.0
C331 C 0.42785 0.42411 1.00433 0.0
C332 C 0.42482 0.49093 0.98634 0.0
C333 C 0.37299 0.4987 0.94538 0.0
H334 H 0.41638 0.47903 0.88691 0.0
C335 C 0.24727 0.42259 0.87053 0.0
C336 C 0.26464 0.43129 0.84815 0.0
C337 C 0.27893 0.44429 0.88868 0.0
C338 C 0.40469 0.48618 0.903 0.0
H339 H 0.43584 0.37572 0.98109 0.0
H340 H 0.43176 0.41559 0.94709 0.0
H341 H 0.45904 0.47957 0.92107 0.0
H342 H 0.32841 0.47243 0.82719 0.0
H343 H 0.38409 0.51038 0.85909 0.0
H344 H 0.31807 0.50434 0.92735 0.0
C345 C 0.43157 0.43156 0.96331 0.0
C346 C 0.42882 0.48583 0.92266 0.0
C347 C 0.43305 0.40803 0.98286 0.0
C348 C 0.31409 0.4644 0.84429 0.0
C349 C 0.34592 0.48623 0.86253 0.0
C350 C 0.34936 0.49978 0.92572 0.0
C351 C 0.42533 0.47211 0.96476 0.0
C352 C 0.41111 0.48868 0.94416 0.0
C353 C 0.32886 0.47535 0.88496 0.0
C354 C 0.36283 0.49013 0.90447 0.0
H355 H 0.42205 0.48053 1.02226 0.0
H356 H 0.42096 0.52262 0.98809 0.0
H357 H 0.3583 0.50132 0.96155 0.0
H358 H 0.20961 0.39673 0.87417 0.0
H359 H 0.26451 0.43411 0.90569 0.0
C360 C 0.09489 0.45435 0.32383 0.0
C361 C 0.07403 0.44577 0.34551 0.0
C362 C 0.06891 0.4545 0.30493 0.0
C363 C 0.94135 0.39307 0.28856 0.0
H364 H 0.00295 0.43495 0.22986 0.0
C365 C 0.89527 0.26189 0.21647 0.0
C366 C 0.90706 0.27747 0.19394 0.0
C367 C 0.90264 0.2949 0.23373 0.0
C368 C -0.01573 0.42355 0.24597 0.0
H369 H 0.01198 0.43675 0.36475 0.0
H370 H 0.96723 0.43884 0.33179 0.0
H371 H 0.04481 0.48065 0.2635 0.0
H372 H 0.93216 0.33942 0.17162 0.0
H373 H 0.94355 0.39688 0.20173 0.0
H374 H 0.8809 0.33589 0.27104 0.0
C375 C 0.00304 0.44372 0.32927 0.0
C376 C 0.00874 0.44952 0.26539 0.0
C377 C 0.02891 0.44298 0.34822 0.0
C378 C 0.92279 0.3262 0.18883 0.0
C379 C 0.92974 0.35927 0.20612 0.0
C380 C 0.91641 0.36784 0.2691 0.0
C381 C 0.02155 0.44664 0.30727 0.0
C382 C -0.01069 0.43209 0.28703 0.0
C383 C 0.92149 0.34437 0.2289 0.0
C384 C 0.93928 0.38036 0.24781 0.0
H385 H 0.13022 0.45802 0.32128 0.0
H386 H 0.08471 0.45672 0.28839 0.0
H387 H 0.9246 0.37867 0.30482 0.0
H388 H 0.88199 0.22438 0.22091 0.0
H389 H 0.89635 0.28184 0.25101 0.0
C390 C 0.71378 0.10384 0.66101 0.0
C391 C 0.70267 0.08417 0.6829 0.0
C392 C 0.6876 0.07611 0.64236 0.0
C393 C 0.62595 0.9478 0.62745 0.0
H394 H 0.64032 0.00436 0.56797 0.0
C395 C 0.67031 0.92394 0.52779 0.0
C396 C 0.70598 0.91189 0.5329 0.0
C397 C 0.64447 0.93086 0.54518 0.0
C398 C 0.63457 0.98706 0.58432 0.0
H399 H 0.65149 0.02226 0.70275 0.0
H400 H 0.60459 0.97431 0.6702 0.0
H401 H 0.63556 0.04707 0.60112 0.0
H402 H 0.73946 0.89351 0.56002 0.0
H403 H 0.69641 0.90752 0.59023 0.0
H404 H 0.62553 0.88808 0.61068 0.0
C405 C 0.63463 0.01063 0.66735 0.0
C406 C 0.63251 0.012 0.60344 0.0
C407 C 0.66126 0.0383 0.68605 0.0
C408 C 0.71296 0.90378 0.55557 0.0
C409 C 0.68746 0.91097 0.57291 0.0
C410 C 0.62696 0.9224 0.60831 0.0
C411 C 0.64929 0.02812 0.64518 0.0
C412 C 0.63228 -0.00545 0.62532 0.0
C413 C 0.65395 0.92607 0.56801 0.0
C414 C 0.63528 0.9436 0.58673 0.0
H415 H 0.74471 0.13965 0.65813 0.0
H416 H 0.70038 0.09115 0.62566 0.0
H417 H 0.62515 0.93263 0.64392 0.0
H418 H 0.66406 0.93045 0.51046 0.0
H419 H 0.61853 0.94188 0.54078 0.0
C420 C 0.69468 0.75139 0.98802 0.0
C421 C 0.69576 0.73733 1.01041 0.0
C422 C 0.69915 0.72577 0.96987 0.0
C423 C 0.70609 0.66597 0.93245 0.0
H424 H 0.81527 0.64755 0.94379 0.0
C425 C 0.82906 0.68071 0.85927 0.0
C426 C 0.87815 0.71364 0.86408 0.0
C427 C 0.79542 0.65962 0.87684 0.0
C428 C 0.78455 0.65218 0.9403 0.0
H429 H 0.69791 0.68272 1.03131 0.0
H430 H 0.70444 0.6371 0.99952 0.0
H431 H 0.77114 0.6553 0.97554 0.0
H432 H 0.93115 0.74643 0.89105 0.0
H433 H 0.87268 0.71189 0.92155 0.0
H434 H 0.72284 0.66831 0.8973 0.0
C435 C 0.70125 0.66865 0.99601 0.0
C436 C 0.75865 0.65591 0.95856 0.0
C437 C 0.69709 0.69457 1.01423 0.0
C438 C 0.89342 0.72212 0.88678 0.0
C439 C 0.85982 0.70148 0.90432 0.0
C440 C 0.7325 0.66309 0.91421 0.0
C441 C 0.70443 0.68517 0.97367 0.0
C442 C 0.72104 0.6659 0.95484 0.0
C443 C 0.8101 0.67137 0.89957 0.0
C444 C 0.77391 0.65919 0.91801 0.0
H445 H 0.69265 0.78361 0.98453 0.0
H446 H 0.70188 0.74004 0.95298 0.0
H447 H 0.67631 0.67212 0.92898 0.0
H448 H 0.81602 0.67331 0.84194 0.0
H449 H 0.75757 0.63595 0.87258 0.0
C450 C 0.04749 0.6959 0.33418 0.0
C451 C 0.00638 0.7012 0.33305 0.0
C452 C 0.07334 0.69863 0.31452 0.0
C453 C 0.07241 0.71088 0.25119 0.0
H454 H 0.20998 0.79888 0.26018 0.0
C455 C 0.18882 0.82367 0.17699 0.0
C456 C 0.21788 0.87324 0.18233 0.0
C457 C 0.17009 0.78897 0.19418 0.0
C458 C 0.17167 0.77424 0.25732 0.0
H459 H 0.95756 0.70873 0.31015 0.0
H460 H 0.00368 0.71621 0.27626 0.0
H461 H 0.15847 0.76 0.29267 0.0
H462 H 0.25392 0.92457 0.20976 0.0
H463 H 0.21941 0.86501 0.23964 0.0
H464 H 0.0847 0.72915 0.21616 0.0
C465 C 0.01589 0.70913 0.29213 0.0
C466 C 0.14207 0.75117 0.27599 0.0
C467 C -0.01023 0.70576 0.31169 0.0
C468 C 0.23065 0.88686 0.20508 0.0
C469 C 0.21145 0.85235 0.22225 0.0
C470 C 0.10184 0.73472 0.23259 0.0
C471 C 0.05898 0.7073 0.29336 0.0
C472 C 0.09163 0.72115 0.27328 0.0
C473 C 0.17953 0.80312 0.2171 0.0
C474 C 0.15142 0.76866 0.23559 0.0
H475 H 0.06135 0.69232 0.35034 0.0
H476 H 0.10576 0.69604 0.31607 0.0
H477 H 0.03399 0.68675 0.24837 0.0
H478 H 0.17822 0.8118 0.15964 0.0
H479 H 0.1465 0.7513 0.18952 0.0
C480 C 0.38092 0.02558 0.64472 0.0
C481 C 0.39824 0.04283 0.66666 0.0
C482 C 0.40381 0.05424 0.62585 0.0
C483 C 0.47263 0.18262 0.61178 0.0
H484 H 0.46026 0.12925 0.55132 0.0
C485 C 0.4581 0.2263 0.51107 0.0
C486 C 0.42466 0.24223 0.51433 0.0
C487 C 0.47587 0.21281 0.52959 0.0
C488 C 0.46531 0.14536 0.56803 0.0
H489 H 0.45526 0.1023 0.68591 0.0
H490 H 0.49591 0.15201 0.65285 0.0
H491 H 0.45474 0.08079 0.58407 0.0
H492 H 0.3858 0.25897 0.5397 0.0
H493 H 0.41637 0.23551 0.57175 0.0
H494 H 0.48191 0.24668 0.59576 0.0
C495 C 0.46409 0.11661 0.65029 0.0
C496 C 0.4615 0.11727 0.58684 0.0
C497 C 0.44102 0.08794 0.66922 0.0
C498 C 0.41197 0.24749 0.53656 0.0
C499 C 0.42968 0.23407 0.55501 0.0
C500 C 0.47687 0.21085 0.59298 0.0
C501 C 0.44475 0.10078 0.62845 0.0
C502 C 0.46232 0.13456 0.60891 0.0
C503 C 0.46055 0.21505 0.55172 0.0
C504 C 0.47043 0.19147 0.57095 0.0
H505 H 0.34856 -0.00943 0.64218 0.0
H506 H 0.38749 0.04095 0.60935 0.0
H507 H 0.47353 0.19725 0.6285 0.0
H508 H 0.46923 0.22268 0.49414 0.0
H509 H 0.50012 0.1989 0.52654 0.0
C510 C 0.48134 0.17025 0.0971 0.0
C511 C 0.43734 0.15148 0.10899 0.0
C512 C 0.51525 0.15675 0.10272 0.0
C513 C 0.52819 0.05973 0.12766 0.0
H514 H 0.66492 0.15752 0.12785 0.0
C515 C 0.67655 0.00813 0.13856 0.0
C516 C 0.71614 0.0308 0.12362 0.0
C517 C 0.64393 0.02505 0.14084 0.0
C518 C 0.62695 0.12968 0.12774 0.0
H519 H 0.39405 0.1033 0.13604 0.0
H520 H 0.45367 0.07881 0.14578 0.0
H521 H 0.60415 0.18201 0.12459 0.0
H522 H 0.75388 0.09027 0.10011 0.0
H523 H 0.69679 0.11951 0.1038 0.0
H524 H 0.55093 0.00723 0.12997 0.0
C525 C 0.46178 0.10442 0.13217 0.0
C526 C 0.5921 0.14375 0.12595 0.0
C527 C 0.4278 0.11849 0.12667 0.0
C528 C 0.72368 0.07203 0.11175 0.0
C529 C 0.69101 0.08891 0.11398 0.0
C530 C 0.5631 0.04559 0.12934 0.0
C531 C 0.50603 0.12372 0.12029 0.0
C532 C 0.54236 0.1089 0.12536 0.0
C533 C 0.65015 0.06506 0.12822 0.0
C534 C 0.61299 0.08035 0.12889 0.0
H535 H 0.48979 0.19559 1.08332 0.0
H536 H 0.54847 0.17157 0.09295 0.0
H537 H 0.49019 0.032 0.12705 0.0
H538 H 0.67001 0.97646 0.14807 0.0
H539 H 0.61345 0.00634 0.15227 0.0
C540 C 0.37998 0.47997 0.42856 0.0
C541 C 0.35476 0.43739 0.44141 0.0
C542 C 0.42764 0.5148 0.43385 0.0
C543 C 0.5386 0.53241 0.46012 0.0
H544 H 0.5761 0.66839 0.4579 0.0
C545 C 0.73859 0.68369 0.47134 0.0
C546 C 0.75569 0.72292 0.45628 0.0
C547 C 0.68888 0.65055 0.47332 0.0
C548 C 0.56643 0.63065 0.45843 0.0
H549 H 0.36009 0.39767 0.46983 0.0
H550 H 0.44471 0.45875 0.47894 0.0
H551 H 0.49084 0.60618 0.45447 0.0
H552 H 0.73397 0.75941 0.43221 0.0
H553 H 0.64736 0.70129 0.43529 0.0
H554 H 0.61426 0.55668 0.46319 0.0
C555 C 0.42696 0.46504 0.46482 0.0
C556 C 0.51748 0.59497 0.45657 0.0
C557 C 0.37863 0.43017 0.45966 0.0
C558 C 0.7219 0.72955 0.44397 0.0
C559 C 0.67215 0.69624 0.44584 0.0
C560 C 0.5877 0.56814 0.46183 0.0
C561 C 0.45179 0.50795 0.45204 0.0
C562 C 0.50307 0.54543 0.45692 0.0
C563 C 0.65499 0.6557 0.46021 0.0
C564 C 0.60239 0.61778 0.46056 0.0
H565 H 0.36282 0.48667 0.41431 0.0
H566 H 0.44593 0.54693 0.4234 0.0
H567 H 0.52871 0.49458 0.46025 0.0
H568 H 0.76377 0.67785 0.48121 0.0
H569 H 0.67708 0.62047 0.48491 0.0
C570 C 0.03663 0.38913 0.79615 0.0
C571 C 0.00482 0.36626 0.77786 0.0
C572 C 0.05226 0.43784 0.80154 0.0
C573 C 0.0162 0.53 0.79509 0.0
H574 H 0.1531 0.62635 0.79645 0.0
C575 C 0.08552 0.73117 0.77708 0.0
C576 C 0.12806 0.76693 0.78765 0.0
C577 C 0.06936 0.68198 0.78038 0.0
C578 C 0.11468 0.59994 0.79661 0.0
H579 H 0.96459 0.37649 0.75092 0.0
H580 H -0.00915 0.46003 0.76053 0.0
H581 H 0.12773 0.54021 0.79472 0.0
H582 H 0.1858 0.77933 0.81085 0.0
H583 H 0.15712 0.6934 0.81698 0.0
H584 H 0.00276 0.58915 0.79665 0.0
C585 C 0.00376 0.44073 0.77076 0.0
C586 C 0.10024 0.55057 0.79561 0.0
C587 C -0.01106 0.39281 0.76519 0.0
C588 C 0.15303 0.75252 0.80234 0.0
C589 C 0.13678 0.70327 0.80573 0.0
C590 C 0.03054 0.57916 0.7963 0.0
C591 C 0.03541 0.46383 0.78899 0.0
C592 C 0.05088 0.51524 0.79413 0.0
C593 C 0.09518 0.66732 0.79448 0.0
C594 C 0.07999 0.61491 0.79635 0.0
H595 H 0.04935 0.3695 0.8062 0.0
H596 H 0.07684 0.45494 0.81566 0.0
H597 H 0.97783 0.50344 0.79428 0.0
H598 H 0.06551 0.74117 0.76565 0.0
H599 H 0.03757 0.65551 0.77116 0.0
C600 C 0.28123 0.16293 0.18823 0.0
C601 C 0.2998 0.19715 0.17048 0.0
C602 C 0.2756 0.1761 0.21056 0.0
C603 C 0.27198 0.27592 0.24507 0.0
H604 H 0.28515 0.20749 0.29603 0.0
C605 C 0.22988 0.30963 0.33936 0.0
C606 C 0.25577 0.30438 0.35746 0.0
C607 C 0.23508 0.29752 0.31668 0.0
C608 C 0.28167 0.22762 0.28218 0.0
H609 H 0.32687 0.27298 0.16321 0.0
H610 H 0.31768 0.29594 0.20176 0.0
H611 H 0.29541 0.18598 0.25761 0.0
H612 H 0.30809 0.2821 0.36498 0.0
H613 H 0.31768 0.26212 0.32612 0.0
H614 H 0.25919 0.31822 0.26977 0.0
C615 C 0.3067 0.2584 0.19847 0.0
C616 C 0.28695 0.2146 0.25977 0.0
C617 C 0.31238 0.2452 0.17612 0.0
C618 C 0.28732 0.28691 0.35182 0.0
C619 C 0.2925 0.27482 0.32925 0.0
C620 C 0.26657 0.28888 0.26752 0.0
C621 C 0.28821 0.2242 0.21631 0.0
C622 C 0.28233 0.23841 0.24059 0.0
C623 C 0.2663 0.27944 0.31107 0.0
C624 C 0.27145 0.26519 0.28669 0.0
H625 H 0.27075 0.1255 0.1849 0.0
H626 H 0.2605 0.14795 0.22328 0.0
H627 H 0.26739 0.29522 0.23117 0.0
H628 H 0.20479 0.32237 0.34273 0.0
H629 H 0.21355 0.30138 0.30361 0.0
C630 C 0.13771 0.31363 0.51104 0.0
C631 C 0.17268 0.30079 0.50496 0.0
C632 C 0.11977 0.30828 0.53356 0.0
C633 C 0.14526 0.28754 0.59468 0.0
H634 H 0.01558 0.2642 0.60571 0.0
C635 C 0.07774 0.28895 0.68769 0.0
C636 C 0.0282 0.25984 0.69347 0.0
C637 C 0.09422 0.2936 0.665 0.0
C638 C 0.05183 0.27031 0.6032 0.0
H639 H 0.21539 0.27161 0.51884 0.0
H640 H 0.18423 0.26179 0.55748 0.0
H641 H 0.04521 0.27169 0.56693 0.0
H642 H 0.95749 0.21247 0.67879 0.0
H643 H -0.01416 0.22015 0.6395 0.0
H644 H 0.15157 0.285 0.63086 0.0
C645 C 0.17087 0.27692 0.545 0.0
C646 C 0.06936 0.27534 0.58061 0.0
C647 C 0.18879 0.2823 0.52249 0.0
C648 C -0.0042 0.2357 0.67535 0.0
C649 C 0.01233 0.24031 0.65255 0.0
C650 C 0.12778 0.28255 0.61724 0.0
C651 C 0.13586 0.28979 0.5512 0.0
C652 C 0.11662 0.28416 0.5757 0.0
C653 C 0.06211 0.26922 0.64677 0.0
C654 C 0.08062 0.27394 0.62218 0.0
H655 H 0.12407 0.32811 0.49834 0.0
H656 H 0.09361 0.31953 0.53713 0.0
H657 H 0.18194 0.29478 0.59226 0.0
H658 H 0.10432 0.30834 0.70084 0.0
H659 H 0.13258 0.31703 0.66183 0.0
C660 C 0.90003 0.1638 0.84979 0.0
C661 C 0.94796 0.18295 0.84166 0.0
C662 C 0.88711 0.1472 0.87245 0.0
C663 C 0.92499 0.10214 0.92324 0.0
H664 H 0.83965 0.13247 0.95738 0.0
C665 C 0.84451 0.01686 1.0138 0.0
C666 C 0.84408 0.04827 1.0307 0.0
C667 C 0.85678 0.03204 0.99087 0.0
C668 C 0.86355 0.12345 0.94823 0.0
H669 H 0.01945 0.1983 0.85196 0.0
H670 H -0.00315 0.16833 0.89086 0.0
H671 H 0.86134 0.16062 0.91822 0.0
H672 H 0.85616 0.12081 1.03577 0.0
H673 H 0.87535 0.14621 0.99621 0.0
H674 H 0.92655 0.06432 0.9532 0.0
C675 C 0.96905 0.16652 0.87973 0.0
C676 C 0.87586 0.1395 0.92549 0.0
C677 C -0.0178 0.18412 0.85723 0.0
C678 C 0.85566 0.09511 1.02354 0.0
C679 C 0.86668 0.10981 1.0006 0.0
C680 C 0.91177 0.08512 0.94584 0.0
C681 C 0.92123 0.14786 0.88797 0.0
C682 C 0.90719 0.12959 0.91245 0.0
C683 C 0.86796 0.07888 0.98369 0.0
C684 C 0.88102 0.09569 0.95898 0.0
H685 H 0.87226 0.162 0.83864 0.0
H686 H 0.84986 0.13301 0.87772 0.0
H687 H 0.94887 0.09313 0.91408 0.0
H688 H 0.83638 0.98071 1.01835 0.0
H689 H 0.85698 0.00668 0.97865 0.0
C690 C 0.85545 -0.00062 0.19465 0.0
C691 C 0.83046 0.96372 0.17778 0.0
C692 C 0.8606 0.98682 0.21712 0.0
C693 C 0.84763 0.88144 0.25326 0.0
H694 H 0.85907 0.96592 0.30315 0.0
C695 C 0.88612 0.84411 0.34735 0.0
C696 C 0.86787 0.85875 0.36574 0.0
C697 C 0.88244 0.85657 0.3246 0.0
C698 C 0.85549 0.94124 0.28964 0.0
H699 H 0.79114 0.88598 0.17228 0.0
H700 H 0.79916 0.8642 0.211 0.0
H701 H 0.84957 0.98681 0.26471 0.0
H702 H 0.83109 0.89852 0.37366 0.0
H703 H 0.82391 0.919 0.3348 0.0
H704 H 0.85234 0.83525 0.27835 0.0
C705 C 0.81579 0.9023 0.20694 0.0
C706 C 0.85069 0.95383 0.26715 0.0
C707 C 0.81073 0.91489 0.18447 0.0
C708 C 0.84582 0.88629 0.36031 0.0
C709 C 0.84205 0.8986 0.33768 0.0
C710 C 0.85242 0.86882 0.27578 0.0
C711 C 0.84095 0.93791 0.22391 0.0
C712 C 0.84649 0.92426 0.24831 0.0
C713 C 0.86037 0.8843 0.31916 0.0
C714 C 0.85626 0.89827 0.29462 0.0
H715 H 0.87162 0.03743 0.19049 0.0
H716 H 0.88095 0.01598 0.22907 0.0
H717 H 0.84532 0.85746 0.23966 0.0
H718 H 0.90387 0.82339 0.35052 0.0
H719 H 0.89783 0.84499 0.31129 0.0
C720 C 0.94204 0.86599 0.52674 0.0
C721 C 0.94119 0.83243 0.51072 0.0
C722 C 0.96164 0.87055 0.54876 0.0
C723 C -0.00765 0.80465 0.59245 0.0
H724 H 0.07159 0.93172 0.61967 0.0
C725 C 0.0475 0.83143 0.68905 0.0
C726 C 0.09511 0.86721 0.69528 0.0
C727 C 0.03034 0.82704 0.66656 0.0
C728 C 0.04972 0.89583 0.61241 0.0
H729 H 0.96057 0.77692 0.50623 0.0
H730 H -0.00675 0.78384 0.54455 0.0
H731 H 0.03865 0.92435 0.58137 0.0
H732 H 0.16155 0.92687 0.68181 0.0
H733 H 0.13135 0.92015 0.64288 0.0
H734 H 0.00267 0.77607 0.62361 0.0
C735 C -0.02101 0.80708 0.54002 0.0
C736 C 0.03032 0.89154 0.59033 0.0
C737 C 0.96024 0.80318 0.51783 0.0
C738 C 0.12485 0.89862 0.67795 0.0
C739 C 0.10726 0.89492 0.65549 0.0
C740 C 0.01092 0.8089 0.61468 0.0
C741 C -0.01953 0.84112 0.55596 0.0
C742 C 0.0013 0.84584 0.57981 0.0
C743 C 0.05959 0.85892 0.64928 0.0
C744 C 0.04016 0.85458 0.62516 0.0
H745 H 0.92806 0.88946 0.52217 0.0
H746 H 0.96141 0.89693 0.56032 0.0
H747 H 0.9701 0.76872 0.58531 0.0
H748 H 0.02307 0.80653 0.70167 0.0
H749 H -0.00659 0.79909 0.66285 0.0
C750 C 0.24029 0.98507 0.84528 0.0
C751 C 0.19169 0.95071 0.83985 0.0
C752 C 0.25403 0.0047 0.86743 0.0
C753 C 0.21085 0.98467 0.92871 0.0
H754 H 0.31649 0.11652 0.93707 0.0
C755 C 0.28722 0.06153 1.01951 0.0
C756 C 0.30465 0.11093 1.02457 0.0
C757 C 0.27429 0.04296 0.9972 0.0
C758 C 0.28662 0.0797 0.93526 0.0
H759 H 0.11963 0.91066 0.85438 0.0
H760 H 0.14317 0.94461 0.89256 0.0
H761 H 0.2922 0.08324 0.89887 0.0
H762 H 0.32171 0.17917 1.00919 0.0
H763 H 0.29937 0.14714 0.97049 0.0
H764 H 0.20462 0.98136 0.96504 0.0
C765 C 0.1712 0.95622 0.87978 0.0
C766 C 0.27291 0.06015 0.91308 0.0
C767 C 0.15746 0.9367 0.85761 0.0
C768 C 0.30907 0.14111 1.00622 0.0
C769 C 0.29617 0.12251 0.98381 0.0
C770 C 0.22467 0.00415 0.95087 0.0
C771 C 0.21984 -0.00918 0.88526 0.0
C772 C 0.23468 0.0121 0.90923 0.0
C773 C 0.27808 0.07284 0.97878 0.0
C774 C 0.26297 0.05213 0.95473 0.0
H775 H 0.26806 -0.0029 0.83233 0.0
H776 H 0.29193 0.03047 0.8706 0.0
H777 H 0.18164 0.94751 0.92696 0.0
H778 H 0.28301 0.03668 1.03293 0.0
H779 H 0.26155 0.00485 0.99444 0.0
loop_
_geom_bond_atom_site_label_1
_geom_bond_atom_site_label_2
_geom_bond_distance
_geom_bond_site_symmetry_2
_ccdc_geom_bond_type
Pr0 C2 2.880 . S
Pr0 O20 2.562 . S
Pr0 O21 2.490 . S
Pr0 O22 2.695 1_554 S
Pr0 O23 2.512 . S
Pr0 O25 2.437 . S
Pr0 O28 2.436 . S
Pr0 O30 2.438 1_554 S
Pr1 C11 2.880 . S
Pr1 O22 2.436 . S
Pr1 O24 2.438 1_556 S
Pr1 O26 2.562 . S
Pr1 O27 2.490 . S
Pr1 O28 2.695 1_556 S
Pr1 O29 2.512 . S
Pr1 O31 2.437 . S
C2 Pr0 2.880 . S
C2 C3 1.491 . S
C2 O20 1.254 . S
C2 O21 1.225 . S
C3 C2 1.491 . S
C3 C4 1.392 . S
C3 C8 1.356 . S
C4 C3 1.392 . S
C4 C5 1.368 . S
C4 H32 0.929 . S
C5 C4 1.368 . S
C5 C6 1.386 . S
C5 H33 0.929 1_545 S
C6 C5 1.386 . S
C6 C7 1.373 . S
C7 C6 1.373 . S
C7 C8 1.409 . S
C7 H34 0.931 . S
C8 C3 1.356 . S
C8 C7 1.409 . S
C8 H35 0.930 . S
C9 O22 1.270 1_554 S
C9 O23 1.248 . S
C10 O24 1.267 . S
C10 O25 1.278 . S
C11 Pr1 2.880 . S
C11 C12 1.491 . S
C11 O26 1.254 . S
C11 O27 1.225 . S
C12 C11 1.491 . S
C12 C13 1.392 . S
C12 C17 1.356 . S
C13 C12 1.392 . S
C13 C14 1.368 . S
C13 H36 0.929 . S
C14 C13 1.368 . S
C14 C15 1.386 . S
C14 H37 0.929 . S
C15 C14 1.386 . S
C15 C16 1.373 . S
C16 C15 1.373 . S
C16 C17 1.409 . S
C16 H38 0.931 . S
C17 C12 1.356 . S
C17 C16 1.409 . S
C17 H39 0.930 . S
C18 O28 1.270 . S
C18 O29 1.248 1_554 S
C19 O30 1.267 . S
C19 O31 1.278 . S
O20 Pr0 2.562 . S
O20 C2 1.254 . S
O21 Pr0 2.490 . S
O21 C2 1.225 . S
O22 Pr0 2.695 1_556 S
O22 Pr1 2.436 . S
O22 C9 1.270 1_556 S
O23 Pr0 2.512 . S
O23 C9 1.248 . S
O24 Pr1 2.438 1_554 S
O24 C10 1.267 . S
O25 Pr0 2.437 . S
O25 C10 1.278 . S
O26 Pr1 2.562 . S
O26 C11 1.254 . S
O27 Pr1 2.490 . S
O27 C11 1.225 . S
O28 Pr0 2.436 . S
O28 Pr1 2.695 1_554 S
O28 C18 1.270 . S
O29 Pr1 2.512 . S
O29 C18 1.248 1_556 S
O30 Pr0 2.438 1_556 S
O30 C19 1.267 . S
O31 Pr1 2.437 . S
O31 C19 1.278 . S
H32 C4 0.929 . S
H33 C5 0.929 1_565 S
H34 C7 0.931 . S
H35 C8 0.930 . S
H36 C13 0.929 . S
H37 C14 0.929 . S
H38 C16 0.931 . S
H39 C17 0.930 . S
Pr40 C42 2.880 . S
Pr40 O60 2.562 . S
Pr40 O61 2.490 . S
Pr40 O62 2.695 . S
Pr40 O63 2.512 . S
Pr40 O65 2.437 . S
Pr40 O68 2.436 . S
Pr40 O70 2.438 . S
Pr41 C51 2.880 . S
Pr41 O62 2.436 . S
Pr41 O64 2.438 . S
Pr41 O66 2.562 . S
Pr41 O67 2.490 . S
Pr41 O68 2.695 . S
Pr41 O69 2.512 . S
Pr41 O71 2.437 . S
C42 Pr40 2.880 . S
C42 C43 1.491 . S
C42 O60 1.254 . S
C42 O61 1.225 . S
C43 C42 1.491 . S
C43 C44 1.392 . S
C43 C48 1.356 . S
C44 C43 1.392 . S
C44 C45 1.368 . S
C44 H72 0.929 . S
C45 C44 1.368 . S
C45 C46 1.386 . S
C45 H73 0.929 . S
C46 C45 1.386 . S
C46 C47 1.373 . S
C47 C46 1.373 . S
C47 C48 1.409 . S
C47 H74 0.931 . S
C48 C43 1.356 . S
C48 C47 1.409 . S
C48 H75 0.930 . S
C49 O62 1.270 . S
C49 O63 1.248 . S
C50 O64 1.267 . S
C50 O65 1.278 . S
C51 Pr41 2.880 . S
C51 C52 1.491 . S
C51 O66 1.254 . S
C51 O67 1.225 . S
C52 C51 1.491 . S
C52 C53 1.392 . S
C52 C57 1.356 . S
C53 C52 1.392 . S
C53 C54 1.368 . S
C53 H76 0.929 . S
C54 C53 1.368 . S
C54 C55 1.386 . S
C54 H77 0.929 . S
C55 C54 1.386 . S
C55 C56 1.373 . S
C56 C55 1.373 . S
C56 C57 1.409 . S
C56 H78 0.931 . S
C57 C52 1.356 . S
C57 C56 1.409 . S
C57 H79 0.930 . S
C58 O68 1.270 . S
C58 O69 1.248 . S
C59 O70 1.267 . S
C59 O71 1.278 . S
O60 Pr40 2.562 . S
O60 C42 1.254 . S
O61 Pr40 2.490 . S
O61 C42 1.225 . S
O62 Pr40 2.695 . S
O62 Pr41 2.436 . S
O62 C49 1.270 . S
O63 Pr40 2.512 . S
O63 C49 1.248 . S
O64 Pr41 2.438 . S
O64 C50 1.267 . S
O65 Pr40 2.437 . S
O65 C50 1.278 . S
O66 Pr41 2.562 . S
O66 C51 1.254 . S
O67 Pr41 2.490 . S
O67 C51 1.225 . S
O68 Pr40 2.436 . S
O68 Pr41 2.695 . S
O68 C58 1.270 . S
O69 Pr41 2.512 . S
O69 C58 1.248 . S
O70 Pr40 2.438 . S
O70 C59 1.267 . S
O71 Pr41 2.437 . S
O71 C59 1.278 . S
H72 C44 0.929 . S
H73 C45 0.929 . S
H74 C47 0.931 . S
H75 C48 0.930 . S
H76 C53 0.929 . S
H77 C54 0.929 . S
H78 C56 0.931 . S
H79 C57 0.930 . S
Pr80 C82 2.880 . S
Pr80 O100 2.562 . S
Pr80 O101 2.490 . S
Pr80 O102 2.695 . S
Pr80 O103 2.512 . S
Pr80 O105 2.437 1_455 S
Pr80 O108 2.452 . S
Pr80 O110 2.438 . S
Pr81 C91 2.880 . S
Pr81 O102 2.437 1_655 S
Pr81 O104 2.438 . S
Pr81 O106 2.562 . S
Pr81 O107 2.490 . S
Pr81 O108 2.690 1_655 S
Pr81 O109 2.512 . S
Pr81 O111 2.437 1_655 S
C82 Pr80 2.880 . S
C82 C83 1.491 . S
C82 O100 1.254 . S
C82 O101 1.225 . S
C83 C82 1.491 . S
C83 C84 1.392 . S
C83 C88 1.356 . S
C84 C83 1.392 . S
C84 C85 1.368 . S
C84 H112 0.929 . S
C85 C84 1.368 . S
C85 C86 1.386 . S
C85 H113 0.929 . S
C86 C85 1.386 . S
C86 C87 1.373 . S
C87 C86 1.373 . S
C87 C88 1.409 . S
C87 H114 0.931 . S
C88 C83 1.356 . S
C88 C87 1.409 . S
C88 H115 0.930 . S
C89 O102 1.269 . S
C89 O103 1.248 . S
C90 O104 1.267 . S
C90 O105 1.278 . S
C91 Pr81 2.880 . S
C91 C92 1.491 . S
C91 O106 1.254 . S
C91 O107 1.225 . S
C92 C91 1.491 . S
C92 C93 1.392 . S
C92 C97 1.356 . S
C93 C92 1.392 . S
C93 C94 1.368 . S
C93 H116 0.929 . S
C94 C93 1.368 . S
C94 C95 1.386 . S
C94 H117 0.929 . S
C95 C94 1.386 . S
C95 C96 1.373 . S
C96 C95 1.373 . S
C96 C97 1.409 . S
C96 H118 0.931 . S
C97 C92 1.356 . S
C97 C96 1.409 . S
C97 H119 0.930 . S
C98 O108 1.257 1_655 S
C98 O109 1.248 . S
C99 O110 1.267 . S
C99 O111 1.278 . S
O100 Pr80 2.562 . S
O100 C82 1.254 . S
O101 Pr80 2.490 . S
O101 C82 1.225 . S
O102 Pr80 2.695 . S
O102 Pr81 2.437 1_455 S
O102 C89 1.269 . S
O103 Pr80 2.512 . S
O103 C89 1.248 . S
O104 Pr81 2.438 . S
O104 C90 1.267 . S
O105 Pr80 2.437 1_655 S
O105 C90 1.278 . S
O106 Pr81 2.562 . S
O106 C91 1.254 . S
O107 Pr81 2.490 . S
O107 C91 1.225 . S
O108 Pr80 2.452 . S
O108 Pr81 2.690 1_455 S
O108 C98 1.257 1_455 S
O109 Pr81 2.512 . S
O109 C98 1.248 . S
O110 Pr80 2.438 . S
O110 C99 1.267 . S
O111 Pr81 2.437 1_455 S
O111 C99 1.278 . S
H112 C84 0.929 . S
H113 C85 0.929 . S
H114 C87 0.931 . S
H115 C88 0.930 . S
H116 C93 0.929 . S
H117 C94 0.929 . S
H118 C96 0.931 . S
H119 C97 0.930 . S
Pr120 C122 2.880 . S
Pr120 O140 2.562 . S
Pr120 O141 2.490 . S
Pr120 O142 2.693 1_554 S
Pr120 O143 2.512 . S
Pr120 O145 2.437 1_545 S
Pr120 O148 2.441 . S
Pr120 O150 2.438 1_554 S
Pr121 C131 2.880 . S
Pr121 O142 2.436 1_565 S
Pr121 O144 2.438 1_556 S
Pr121 O146 2.562 . S
Pr121 O147 2.490 . S
Pr121 O148 2.681 1_566 S
Pr121 O149 2.512 . S
Pr121 O151 2.437 1_565 S
C122 Pr120 2.880 . S
C122 C123 1.491 . S
C122 O140 1.254 . S
C122 O141 1.225 . S
C123 C122 1.491 . S
C123 C124 1.392 . S
C123 C128 1.356 . S
C124 C123 1.392 . S
C124 C125 1.368 . S
C124 H152 0.929 . S
C125 C124 1.368 . S
C125 C126 1.386 . S
C125 H153 0.929 . S
C126 C125 1.386 . S
C126 C127 1.373 . S
C127 C126 1.373 . S
C127 C128 1.409 . S
C127 H154 0.931 . S
C128 C123 1.356 . S
C128 C127 1.409 . S
C128 H155 0.930 . S
C129 O142 1.270 1_554 S
C129 O143 1.248 . S
C130 O144 1.267 . S
C130 O145 1.278 . S
C131 Pr121 2.880 . S
C131 C132 1.491 . S
C131 O146 1.254 . S
C131 O147 1.225 . S
C132 C131 1.491 . S
C132 C133 1.392 . S
C132 C137 1.356 . S
C133 C132 1.392 . S
C133 C134 1.368 . S
C133 H156 0.929 . S
C134 C133 1.368 . S
C134 C135 1.386 . S
C134 H157 0.929 . S
C135 C134 1.386 . S
C135 C136 1.373 . S
C136 C135 1.373 . S
C136 C137 1.409 . S
C136 H158 0.931 . S
C137 C132 1.356 . S
C137 C136 1.409 . S
C137 H159 0.930 . S
C138 O148 1.271 1_565 S
C138 O149 1.248 1_554 S
C139 O150 1.267 . S
C139 O151 1.278 . S
O140 Pr120 2.562 . S
O140 C122 1.254 . S
O141 Pr120 2.490 . S
O141 C122 1.225 . S
O142 Pr120 2.693 1_556 S
O142 Pr121 2.436 1_545 S
O142 C129 1.270 1_556 S
O143 Pr120 2.512 . S
O143 C129 1.248 . S
O144 Pr121 2.438 1_554 S
O144 C130 1.267 . S
O145 Pr120 2.437 1_565 S
O145 C130 1.278 . S
O146 Pr121 2.562 . S
O146 C131 1.254 . S
O147 Pr121 2.490 . S
O147 C131 1.225 . S
O148 Pr120 2.441 . S
O148 Pr121 2.681 1_544 S
O148 C138 1.271 1_545 S
O149 Pr121 2.512 . S
O149 C138 1.248 1_556 S
O150 Pr120 2.438 1_556 S
O150 C139 1.267 . S
O151 Pr121 2.437 1_545 S
O151 C139 1.278 . S
H152 C124 0.929 . S
H153 C125 0.929 . S
H154 C127 0.931 . S
H155 C128 0.930 . S
H156 C133 0.929 . S
H157 C134 0.929 . S
H158 C136 0.931 . S
H159 C137 0.930 . S
Pr160 C162 2.880 . S
Pr160 O180 2.562 . S
Pr160 O181 2.490 . S
Pr160 O182 2.695 . S
Pr160 O183 2.512 . S
Pr160 O185 2.437 . S
Pr160 O188 2.436 . S
Pr160 O190 2.438 . S
Pr161 C171 2.880 . S
Pr161 O182 2.436 . S
Pr161 O184 2.438 . S
Pr161 O186 2.562 . S
Pr161 O187 2.490 . S
Pr161 O188 2.695 . S
Pr161 O189 2.512 . S
Pr161 O191 2.437 . S
C162 Pr160 2.880 . S
C162 C163 1.491 . S
C162 O180 1.254 . S
C162 O181 1.225 . S
C163 C162 1.491 . S
C163 C164 1.392 . S
C163 C168 1.356 . S
C164 C163 1.392 . S
C164 C165 1.368 . S
C164 H192 0.929 . S
C165 C164 1.368 . S
C165 C166 1.386 . S
C165 H193 0.929 . S
C166 C165 1.386 . S
C166 C167 1.373 . S
C167 C166 1.373 . S
C167 C168 1.409 . S
C167 H194 0.931 . S
C168 C163 1.356 . S
C168 C167 1.409 . S
C168 H195 0.930 . S
C169 O182 1.270 . S
C169 O183 1.248 . S
C170 O184 1.267 . S
C170 O185 1.278 . S
C171 Pr161 2.880 . S
C171 C172 1.491 . S
C171 O186 1.254 . S
C171 O187 1.225 . S
C172 C171 1.491 . S
C172 C173 1.392 . S
C172 C177 1.356 1_655 S
C173 C172 1.392 . S
C173 C174 1.368 . S
C173 H196 0.929 . S
C174 C173 1.368 . S
C174 C175 1.386 . S
C174 H197 0.929 . S
C175 C174 1.386 . S
C175 C176 1.373 1_655 S
C176 C175 1.373 1_455 S
C176 C177 1.409 . S
C176 H198 0.931 . S
C177 C172 1.356 1_455 S
C177 C176 1.409 . S
C177 H199 0.930 . S
C178 O188 1.270 . S
C178 O189 1.248 . S
C179 O190 1.267 . S
C179 O191 1.278 . S
O180 Pr160 2.562 . S
O180 C162 1.254 . S
O181 Pr160 2.490 . S
O181 C162 1.225 . S
O182 Pr160 2.695 . S
O182 Pr161 2.436 . S
O182 C169 1.270 . S
O183 Pr160 2.512 . S
O183 C169 1.248 . S
O184 Pr161 2.438 . S
O184 C170 1.267 . S
O185 Pr160 2.437 . S
O185 C170 1.278 . S
O186 Pr161 2.562 . S
O186 C171 1.254 . S
O187 Pr161 2.490 . S
O187 C171 1.225 . S
O188 Pr160 2.436 . S
O188 Pr161 2.695 . S
O188 C178 1.270 . S
O189 Pr161 2.512 . S
O189 C178 1.248 . S
O190 Pr160 2.438 . S
O190 C179 1.267 . S
O191 Pr161 2.437 . S
O191 C179 1.278 . S
H192 C164 0.929 . S
H193 C165 0.929 . S
H194 C167 0.931 . S
H195 C168 0.930 . S
H196 C173 0.929 . S
H197 C174 0.929 . S
H198 C176 0.931 . S
H199 C177 0.930 . S
Pr200 C202 2.880 . S
Pr200 O220 2.562 . S
Pr200 O221 2.490 . S
Pr200 O222 2.695 . S
Pr200 O223 2.512 . S
Pr200 O225 2.437 . S
Pr200 O228 2.436 . S
Pr200 O230 2.438 . S
Pr201 C211 2.880 . S
Pr201 O222 2.436 . S
Pr201 O224 2.438 . S
Pr201 O226 2.562 . S
Pr201 O227 2.490 . S
Pr201 O228 2.695 . S
Pr201 O229 2.512 . S
Pr201 O231 2.437 . S
C202 Pr200 2.880 . S
C202 C203 1.491 . S
C202 O220 1.254 . S
C202 O221 1.225 . S
C203 C202 1.491 . S
C203 C204 1.392 . S
C203 C208 1.356 . S
C204 C203 1.392 . S
C204 C205 1.368 . S
C204 H232 0.929 . S
C205 C204 1.368 . S
C205 C206 1.386 . S
C205 H233 0.929 1_455 S
C206 C205 1.386 . S
C206 C207 1.373 . S
C207 C206 1.373 . S
C207 C208 1.409 . S
C207 H234 0.931 . S
C208 C203 1.356 . S
C208 C207 1.409 . S
C208 H235 0.930 . S
C209 O222 1.270 . S
C209 O223 1.248 . S
C210 O224 1.267 . S
C210 O225 1.278 . S
C211 Pr201 2.880 . S
C211 C212 1.491 . S
C211 O226 1.254 . S
C211 O227 1.225 . S
C212 C211 1.491 . S
C212 C213 1.392 . S
C212 C217 1.356 1_565 S
C213 C212 1.392 . S
C213 C214 1.368 . S
C213 H236 0.929 . S
C214 C213 1.368 . S
C214 C215 1.386 . S
C214 H237 0.929 . S
C215 C214 1.386 . S
C215 C216 1.373 1_565 S
C216 C215 1.373 1_545 S
C216 C217 1.409 . S
C216 H238 0.931 . S
C217 C212 1.356 1_545 S
C217 C216 1.409 . S
C217 H239 0.930 . S
C218 O228 1.270 . S
C218 O229 1.248 . S
C219 O230 1.267 . S
C219 O231 1.278 . S
O220 Pr200 2.562 . S
O220 C202 1.254 . S
O221 Pr200 2.490 . S
O221 C202 1.225 . S
O222 Pr200 2.695 . S
O222 Pr201 2.436 . S
O222 C209 1.270 . S
O223 Pr200 2.512 . S
O223 C209 1.248 . S
O224 Pr201 2.438 . S
O224 C210 1.267 . S
O225 Pr200 2.437 . S
O225 C210 1.278 . S
O226 Pr201 2.562 . S
O226 C211 1.254 . S
O227 Pr201 2.490 . S
O227 C211 1.225 . S
O228 Pr200 2.436 . S
O228 Pr201 2.695 . S
O228 C218 1.270 . S
O229 Pr201 2.512 . S
O229 C218 1.248 . S
O230 Pr200 2.438 . S
O230 C219 1.267 . S
O231 Pr201 2.437 . S
O231 C219 1.278 . S
H232 C204 0.929 . S
H233 C205 0.929 1_655 S
H234 C207 0.931 . S
H235 C208 0.930 . S
H236 C213 0.929 . S
H237 C214 0.929 . S
H238 C216 0.931 . S
H239 C217 0.930 . S
C240 C241 1.315 1_546 S
C240 C242 1.327 . S
C240 H265 0.950 . S
C241 C240 1.315 1_564 S
C241 C257 1.383 . S
C242 C240 1.327 . S
C242 C261 1.396 1_556 S
C242 H266 0.950 . S
C243 C260 1.574 . S
C243 C262 1.405 . S
C243 H267 0.949 . S
H244 C248 0.949 . S
C245 C246 1.384 . S
C245 C247 1.327 . S
C245 H268 0.950 . S
C246 C245 1.384 . S
C246 C258 1.315 1_554 S
C247 C245 1.327 . S
C247 C263 1.462 . S
C247 H269 0.950 . S
C248 H244 0.949 . S
C248 C256 1.574 . S
C248 C264 1.332 1_556 S
H249 C257 0.950 . S
H250 C255 0.950 . S
H251 C256 0.949 . S
H252 C258 0.950 . S
H253 C259 0.950 . S
H254 C260 0.949 . S
C255 H250 0.950 . S
C255 C257 1.327 . S
C255 C261 1.462 1_565 S
C256 C248 1.574 . S
C256 H251 0.949 . S
C256 C262 1.332 1_556 S
C257 C241 1.383 . S
C257 H249 0.950 . S
C257 C255 1.327 . S
C258 C246 1.315 1_556 S
C258 H252 0.950 . S
C258 C259 1.327 . S
C259 H253 0.950 . S
C259 C258 1.327 . S
C259 C263 1.396 1_556 S
C260 C243 1.574 . S
C260 H254 0.949 . S
C260 C264 1.405 . S
C261 C242 1.396 1_554 S
C261 C255 1.462 1_545 S
C261 C262 1.523 1_655 S
C262 C243 1.405 . S
C262 C256 1.332 1_554 S
C262 C261 1.523 1_455 S
C263 C247 1.462 . S
C263 C259 1.396 1_554 S
C263 C264 1.523 . S
C264 C248 1.332 1_554 S
C264 C260 1.405 . S
C264 C263 1.523 . S
H265 C240 0.950 . S
H266 C242 0.950 . S
H267 C243 0.949 . S
H268 C245 0.950 . S
H269 C247 0.950 . S
C270 C271 1.349 1_455 S
C270 C272 1.327 . S
C270 H295 0.950 . S
C271 C270 1.349 1_655 S
C271 C287 1.349 . S
C272 C270 1.327 . S
C272 C291 1.429 . S
C272 H296 0.950 . S
C273 C290 1.574 . S
C273 C292 1.368 . S
C273 H297 0.949 . S
H274 C278 0.949 . S
C275 C276 1.349 . S
C275 C277 1.327 . S
C275 H298 0.950 . S
C276 C275 1.349 . S
C276 C288 1.349 . S
C277 C275 1.327 . S
C277 C293 1.429 . S
C277 H299 0.950 . S
C278 H274 0.949 . S
C278 C286 1.574 . S
C278 C294 1.368 . S
H279 C287 0.950 . S
H280 C285 0.950 . S
H281 C286 0.949 . S
H282 C288 0.950 . S
H283 C289 0.950 . S
H284 C290 0.949 . S
C285 H280 0.950 . S
C285 C287 1.327 . S
C285 C291 1.429 1_655 S
C286 C278 1.574 . S
C286 H281 0.949 . S
C286 C292 1.368 . S
C287 C271 1.349 . S
C287 H279 0.950 . S
C287 C285 1.327 . S
C288 C276 1.349 . S
C288 H282 0.950 . S
C288 C289 1.327 . S
C289 H283 0.950 . S
C289 C288 1.327 . S
C289 C293 1.429 . S
C290 C273 1.574 . S
C290 H284 0.949 . S
C290 C294 1.368 . S
C291 C272 1.429 . S
C291 C285 1.429 1_455 S
C291 C292 1.523 1_565 S
C292 C273 1.368 . S
C292 C286 1.368 . S
C292 C291 1.523 1_545 S
C293 C277 1.429 . S
C293 C289 1.429 . S
C293 C294 1.523 . S
C294 C278 1.368 . S
C294 C290 1.368 . S
C294 C293 1.523 . S
H295 C270 0.950 . S
H296 C272 0.950 . S
H297 C273 0.949 . S
H298 C275 0.950 . S
H299 C277 0.950 . S
C300 C301 1.349 1_545 S
C300 C302 1.327 . S
C300 H325 0.950 . S
C301 C300 1.349 1_565 S
C301 C317 1.349 . S
C302 C300 1.327 . S
C302 C321 1.429 . S
C302 H326 0.950 . S
C303 C320 1.574 . S
C303 C322 1.368 . S
C303 H327 0.949 . S
H304 C308 0.949 . S
C305 C306 1.349 . S
C305 C307 1.327 . S
C305 H328 0.950 . S
C306 C305 1.349 . S
C306 C318 1.349 1_655 S
C307 C305 1.327 . S
C307 C323 1.429 1_655 S
C307 H329 0.950 . S
C308 H304 0.949 . S
C308 C316 1.574 . S
C308 C324 1.368 . S
H309 C317 0.950 . S
H310 C315 0.950 . S
H311 C316 0.949 . S
H312 C318 0.950 . S
H313 C319 0.950 . S
H314 C320 0.949 . S
C315 H310 0.950 . S
C315 C317 1.327 . S
C315 C321 1.429 1_565 S
C316 C308 1.574 . S
C316 H311 0.949 . S
C316 C322 1.368 . S
C317 C301 1.349 . S
C317 H309 0.950 . S
C317 C315 1.327 . S
C318 C306 1.349 1_455 S
C318 H312 0.950 . S
C318 C319 1.327 . S
C319 H313 0.950 . S
C319 C318 1.327 . S
C319 C323 1.429 . S
C320 C303 1.574 . S
C320 H314 0.949 . S
C320 C324 1.368 . S
C321 C302 1.429 . S
C321 C315 1.429 1_545 S
C321 C322 1.523 . S
C322 C303 1.368 . S
C322 C316 1.368 . S
C322 C321 1.523 . S
C323 C307 1.429 1_455 S
C323 C319 1.429 . S
C323 C324 1.523 . S
C324 C308 1.368 . S
C324 C320 1.368 . S
C324 C323 1.523 . S
H325 C300 0.950 . S
H326 C302 0.950 . S
H327 C303 0.949 . S
H328 C305 0.950 . S
H329 C307 0.950 . S
C330 C331 1.349 . S
C330 C332 1.327 . S
C330 H355 0.950 . S
C331 C330 1.349 . S
C331 C347 1.349 . S
C332 C330 1.327 . S
C332 C351 1.429 . S
C332 H356 0.950 . S
C333 C350 1.574 . S
C333 C352 1.368 . S
C333 H357 0.949 . S
H334 C338 0.949 . S
C335 C336 1.349 . S
C335 C337 1.327 . S
C335 H358 0.950 . S
C336 C335 1.349 . S
C336 C348 1.349 . S
C337 C335 1.327 . S
C337 C353 1.429 . S
C337 H359 0.950 . S
C338 H334 0.949 . S
C338 C346 1.574 . S
C338 C354 1.368 . S
H339 C347 0.950 . S
H340 C345 0.950 . S
H341 C346 0.949 . S
H342 C348 0.950 . S
H343 C349 0.950 . S
H344 C350 0.949 . S
C345 H340 0.950 . S
C345 C347 1.327 . S
C345 C351 1.429 . S
C346 C338 1.574 . S
C346 H341 0.949 . S
C346 C352 1.368 . S
C347 C331 1.349 . S
C347 H339 0.950 . S
C347 C345 1.327 . S
C348 C336 1.349 . S
C348 H342 0.950 . S
C348 C349 1.327 . S
C349 H343 0.950 . S
C349 C348 1.327 . S
C349 C353 1.429 . S
C350 C333 1.574 . S
C350 H344 0.949 . S
C350 C354 1.368 . S
C351 C332 1.429 . S
C351 C345 1.429 . S
C351 C352 1.523 . S
C352 C333 1.368 . S
C352 C346 1.368 . S
C352 C351 1.523 . S
C353 C337 1.429 . S
C353 C349 1.429 . S
C353 C354 1.523 . S
C354 C338 1.368 . S
C354 C350 1.368 . S
C354 C353 1.523 . S
H355 C330 0.950 . S
H356 C332 0.950 . S
H357 C333 0.949 . S
H358 C335 0.950 . S
H359 C337 0.950 . S
C360 C361 1.349 . S
C360 C362 1.327 . S
C360 H385 0.950 . S
C361 C360 1.349 . S
C361 C377 1.349 . S
C362 C360 1.327 . S
C362 C381 1.429 . S
C362 H386 0.950 . S
C363 C380 1.574 1_455 S
C363 C382 1.368 . S
C363 H387 0.949 . S
H364 C368 0.949 . S
C365 C366 1.349 . S
C365 C367 1.327 . S
C365 H388 0.950 . S
C366 C365 1.349 . S
C366 C378 1.349 . S
C367 C365 1.327 . S
C367 C383 1.429 . S
C367 H389 0.950 . S
C368 H364 0.949 . S
C368 C376 1.574 . S
C368 C384 1.368 1_455 S
H369 C377 0.950 . S
H370 C375 0.950 . S
H371 C376 0.949 . S
H372 C378 0.950 . S
H373 C379 0.950 . S
H374 C380 0.949 . S
C375 H370 0.950 . S
C375 C377 1.327 . S
C375 C381 1.429 . S
C376 C368 1.574 . S
C376 H371 0.949 . S
C376 C382 1.368 . S
C377 C361 1.349 . S
C377 H369 0.950 . S
C377 C375 1.327 . S
C378 C366 1.349 . S
C378 H372 0.950 . S
C378 C379 1.327 . S
C379 H373 0.950 . S
C379 C378 1.327 . S
C379 C383 1.429 . S
C380 C363 1.574 1_655 S
C380 H374 0.949 . S
C380 C384 1.368 . S
C381 C362 1.429 . S
C381 C375 1.429 . S
C381 C382 1.523 . S
C382 C363 1.368 . S
C382 C376 1.368 . S
C382 C381 1.523 . S
C383 C367 1.429 . S
C383 C379 1.429 . S
C383 C384 1.523 . S
C384 C368 1.368 1_655 S
C384 C380 1.368 . S
C384 C383 1.523 . S
H385 C360 0.950 . S
H386 C362 0.950 . S
H387 C363 0.949 . S
H388 C365 0.950 . S
H389 C367 0.950 . S
C390 C391 1.349 . S
C390 C392 1.327 . S
C390 H415 0.950 . S
C391 C390 1.349 . S
C391 C407 1.349 . S
C392 C390 1.327 . S
C392 C411 1.429 . S
C392 H416 0.950 . S
C393 C410 1.574 1_545 S
C393 C412 1.368 . S
C393 H417 0.949 . S
H394 C398 0.949 . S
C395 C396 1.349 . S
C395 C397 1.327 . S
C395 H418 0.950 . S
C396 C395 1.349 . S
C396 C408 1.349 . S
C397 C395 1.327 . S
C397 C413 1.429 . S
C397 H419 0.950 . S
C398 H394 0.949 . S
C398 C406 1.574 . S
C398 C414 1.368 1_545 S
H399 C407 0.950 . S
H400 C405 0.950 . S
H401 C406 0.949 . S
H402 C408 0.950 . S
H403 C409 0.950 . S
H404 C410 0.949 . S
C405 H400 0.950 . S
C405 C407 1.327 . S
C405 C411 1.429 . S
C406 C398 1.574 . S
C406 H401 0.949 . S
C406 C412 1.368 . S
C407 C391 1.349 . S
C407 H399 0.950 . S
C407 C405 1.327 . S
C408 C396 1.349 . S
C408 H402 0.950 . S
C408 C409 1.327 . S
C409 H403 0.950 . S
C409 C408 1.327 . S
C409 C413 1.429 . S
C410 C393 1.574 1_565 S
C410 H404 0.949 . S
C410 C414 1.368 . S
C411 C392 1.429 . S
C411 C405 1.429 . S
C411 C412 1.523 . S
C412 C393 1.368 . S
C412 C406 1.368 . S
C412 C411 1.523 . S
C413 C397 1.429 . S
C413 C409 1.429 . S
C413 C414 1.523 . S
C414 C398 1.368 1_565 S
C414 C410 1.368 . S
C414 C413 1.523 . S
H415 C390 0.950 . S
H416 C392 0.950 . S
H417 C393 0.949 . S
H418 C395 0.950 . S
H419 C397 0.950 . S
C420 C421 1.349 . S
C420 C422 1.327 . S
C420 H445 0.950 . S
C421 C420 1.349 . S
C421 C437 1.349 . S
C422 C420 1.327 . S
C422 C441 1.429 . S
C422 H446 0.950 . S
C423 C440 1.574 . S
C423 C442 1.368 . S
C423 H447 0.949 . S
H424 C428 0.949 . S
C425 C426 1.349 1_655 S
C425 C427 1.327 . S
C425 H448 0.950 . S
C426 C425 1.349 1_455 S
C426 C438 1.349 . S
C427 C425 1.327 . S
C427 C443 1.429 . S
C427 H449 0.950 . S
C428 H424 0.949 . S
C428 C436 1.574 . S
C428 C444 1.368 . S
H429 C437 0.950 . S
H430 C435 0.950 . S
H431 C436 0.949 . S
H432 C438 0.950 . S
H433 C439 0.950 . S
H434 C440 0.949 . S
C435 H430 0.950 . S
C435 C437 1.327 . S
C435 C441 1.429 . S
C436 C428 1.574 . S
C436 H431 0.949 . S
C436 C442 1.368 . S
C437 C421 1.349 . S
C437 H429 0.950 . S
C437 C435 1.327 . S
C438 C426 1.349 . S
C438 H432 0.950 . S
C438 C439 1.326 . S
C439 H433 0.950 . S
C439 C438 1.326 . S
C439 C443 1.429 1_455 S
C440 C423 1.574 . S
C440 H434 0.949 . S
C440 C444 1.368 . S
C441 C422 1.429 . S
C441 C435 1.429 . S
C441 C442 1.523 . S
C442 C423 1.368 . S
C442 C436 1.368 . S
C442 C441 1.523 . S
C443 C427 1.429 . S
C443 C439 1.429 1_655 S
C443 C444 1.523 . S
C444 C428 1.368 . S
C444 C440 1.368 . S
C444 C443 1.523 . S
H445 C420 0.950 . S
H446 C422 0.950 . S
H447 C423 0.949 . S
H448 C425 0.950 . S
H449 C427 0.950 . S
C450 C451 1.349 1_455 S
C450 C452 1.327 . S
C450 H475 0.950 . S
C451 C450 1.349 1_655 S
C451 C467 1.349 . S
C452 C450 1.327 . S
C452 C471 1.429 . S
C452 H476 0.950 . S
C453 C470 1.574 . S
C453 C472 1.368 . S
C453 H477 0.949 . S
H454 C458 0.949 . S
C455 C456 1.349 1_565 S
C455 C457 1.327 . S
C455 H478 0.950 . S
C456 C455 1.349 1_545 S
C456 C468 1.349 . S
C457 C455 1.327 . S
C457 C473 1.429 . S
C457 H479 0.950 . S
C458 H454 0.949 . S
C458 C466 1.574 . S
C458 C474 1.368 . S
H459 C467 0.950 . S
H460 C465 0.950 . S
H461 C466 0.949 . S
H462 C468 0.950 . S
H463 C469 0.950 . S
H464 C470 0.949 . S
C465 H460 0.950 . S
C465 C467 1.327 1_455 S
C465 C471 1.429 . S
C466 C458 1.574 . S
C466 H461 0.949 . S
C466 C472 1.368 . S
C467 C451 1.349 . S
C467 H459 0.950 . S
C467 C465 1.327 1_655 S
C468 C456 1.349 . S
C468 H462 0.950 . S
C468 C469 1.327 1_545 S
C469 H463 0.950 . S
C469 C468 1.327 1_565 S
C469 C473 1.429 . S
C470 C453 1.574 . S
C470 H464 0.949 . S
C470 C474 1.368 . S
C471 C452 1.429 . S
C471 C465 1.429 . S
C471 C472 1.523 . S
C472 C453 1.368 . S
C472 C466 1.368 . S
C472 C471 1.523 . S
C473 C457 1.429 . S
C473 C469 1.429 . S
C473 C474 1.523 . S
C474 C458 1.368 . S
C474 C470 1.368 . S
C474 C473 1.523 . S
H475 C450 0.950 . S
H476 C452 0.950 . S
H477 C453 0.949 . S
H478 C455 0.950 . S
H479 C457 0.950 . S
C480 C481 1.349 . S
C480 C482 1.327 1_565 S
C480 H505 0.950 . S
C481 C480 1.349 . S
C481 C497 1.349 1_565 S
C482 C480 1.327 1_545 S
C482 C501 1.429 . S
C482 H506 0.950 . S
C483 C500 1.574 . S
C483 C502 1.368 . S
C483 H507 0.949 . S
H484 C488 0.949 . S
C485 C486 1.349 . S
C485 C487 1.327 . S
C485 H508 0.950 . S
C486 C485 1.349 . S
C486 C498 1.349 . S
C487 C485 1.327 . S
C487 C503 1.429 . S
C487 H509 0.950 . S
C488 H484 0.949 . S
C488 C496 1.574 . S
C488 C504 1.368 . S
H489 C497 0.950 . S
H490 C495 0.950 . S
H491 C496 0.949 . S
H492 C498 0.950 . S
H493 C499 0.950 . S
H494 C500 0.949 . S
C495 H490 0.950 . S
C495 C497 1.327 . S
C495 C501 1.429 . S
C496 C488 1.574 . S
C496 H491 0.949 . S
C496 C502 1.368 . S
C497 C481 1.349 1_545 S
C497 H489 0.950 . S
C497 C495 1.327 . S
C498 C486 1.349 . S
C498 H492 0.950 . S
C498 C499 1.327 . S
C499 H493 0.950 . S
C499 C498 1.327 . S
C499 C503 1.429 . S
C500 C483 1.574 . S
C500 H494 0.949 . S
C500 C504 1.368 . S
C501 C482 1.429 . S
C501 C495 1.429 . S
C501 C502 1.523 . S
C502 C483 1.368 . S
C502 C496 1.368 . S
C502 C501 1.523 . S
C503 C487 1.429 . S
C503 C499 1.429 . S
C503 C504 1.523 . S
C504 C488 1.368 . S
C504 C500 1.368 . S
C504 C503 1.523 . S
H505 C480 0.950 . S
H506 C482 0.950 . S
H507 C483 0.949 . S
H508 C485 0.950 . S
H509 C487 0.950 . S
C510 C511 1.349 1_556 S
C510 C512 1.327 . S
C510 H535 0.950 . S
C511 C510 1.349 1_554 S
C511 C527 1.349 . S
C512 C510 1.327 . S
C512 C531 1.429 1_556 S
C512 H536 0.950 . S
C513 C530 1.574 . S
C513 C532 1.368 . S
C513 H537 0.949 . S
H514 C518 0.949 . S
C515 C516 1.349 . S
C515 C517 1.327 1_565 S
C515 H538 0.950 . S
C516 C515 1.349 . S
C516 C528 1.349 1_564 S
C517 C515 1.327 1_545 S
C517 C533 1.429 . S
C517 H539 0.950 1_545 S
C518 H514 0.949 . S
C518 C526 1.574 . S
C518 C534 1.368 1_556 S
H519 C527 0.950 . S
H520 C525 0.950 . S
H521 C526 0.949 . S
H522 C528 0.950 . S
H523 C529 0.950 . S
H524 C530 0.949 . S
C525 H520 0.950 . S
C525 C527 1.327 . S
C525 C531 1.429 . S
C526 C518 1.574 . S
C526 H521 0.949 . S
C526 C532 1.368 1_556 S
C527 C511 1.349 . S
C527 H519 0.950 . S
C527 C525 1.327 . S
C528 C516 1.349 1_546 S
C528 H522 0.950 . S
C528 C529 1.327 . S
C529 H523 0.950 . S
C529 C528 1.327 . S
C529 C533 1.429 1_556 S
C530 C513 1.574 . S
C530 H524 0.949 . S
C530 C534 1.368 . S
C531 C512 1.429 1_554 S
C531 C525 1.429 . S
C531 C532 1.523 . S
C532 C513 1.368 . S
C532 C526 1.368 1_554 S
C532 C531 1.523 . S
C533 C517 1.429 . S
C533 C529 1.429 1_554 S
C533 C534 1.523 . S
C534 C518 1.368 1_554 S
C534 C530 1.368 . S
C534 C533 1.523 . S
H535 C510 0.950 . S
H536 C512 0.950 . S
H537 C513 0.949 . S
H538 C515 0.950 . S
H539 C517 0.950 1_565 S
C540 C541 1.349 . S
C540 C542 1.327 . S
C540 H565 0.950 . S
C541 C540 1.349 . S
C541 C557 1.349 . S
C542 C540 1.327 . S
C542 C561 1.429 . S
C542 H566 0.950 . S
C543 C560 1.574 . S
C543 C562 1.368 . S
C543 H567 0.949 . S
H544 C548 0.949 . S
C545 C546 1.349 . S
C545 C547 1.327 . S
C545 H568 0.950 . S
C546 C545 1.349 . S
C546 C558 1.349 . S
C547 C545 1.327 . S
C547 C563 1.429 . S
C547 H569 0.950 . S
C548 H544 0.949 . S
C548 C556 1.574 . S
C548 C564 1.368 . S
H549 C557 0.950 . S
H550 C555 0.950 . S
H551 C556 0.949 . S
H552 C558 0.950 . S
H553 C559 0.950 . S
H554 C560 0.949 . S
C555 H550 0.950 . S
C555 C557 1.327 . S
C555 C561 1.429 . S
C556 C548 1.574 . S
C556 H551 0.949 . S
C556 C562 1.368 . S
C557 C541 1.349 . S
C557 H549 0.950 . S
C557 C555 1.327 . S
C558 C546 1.349 . S
C558 H552 0.950 . S
C558 C559 1.327 . S
C559 H553 0.950 . S
C559 C558 1.327 . S
C559 C563 1.429 . S
C560 C543 1.574 . S
C560 H554 0.949 . S
C560 C564 1.368 . S
C561 C542 1.429 . S
C561 C555 1.429 . S
C561 C562 1.523 . S
C562 C543 1.368 . S
C562 C556 1.368 . S
C562 C561 1.523 . S
C563 C547 1.429 . S
C563 C559 1.429 . S
C563 C564 1.523 . S
C564 C548 1.368 . S
C564 C560 1.368 . S
C564 C563 1.523 . S
H565 C540 0.950 . S
H566 C542 0.950 . S
H567 C543 0.949 . S
H568 C545 0.950 . S
H569 C547 0.950 . S
C570 C571 1.349 1_455 S
C570 C572 1.327 . S
C570 H595 0.950 . S
C571 C570 1.349 1_655 S
C571 C587 1.349 . S
C572 C570 1.327 . S
C572 C591 1.429 . S
C572 H596 0.950 . S
C573 C590 1.574 . S
C573 C592 1.368 . S
C573 H597 0.949 . S
H574 C578 0.949 . S
C575 C576 1.349 . S
C575 C577 1.327 . S
C575 H598 0.950 . S
C576 C575 1.349 . S
C576 C588 1.349 . S
C577 C575 1.327 . S
C577 C593 1.429 . S
C577 H599 0.950 . S
C578 H574 0.949 . S
C578 C586 1.574 . S
C578 C594 1.368 . S
H579 C587 0.950 . S
H580 C585 0.950 1_655 S
H581 C586 0.949 . S
H582 C588 0.950 . S
H583 C589 0.950 . S
H584 C590 0.949 . S
C585 H580 0.950 1_455 S
C585 C587 1.327 1_455 S
C585 C591 1.429 . S
C586 C578 1.574 . S
C586 H581 0.949 . S
C586 C592 1.368 . S
C587 C571 1.349 . S
C587 H579 0.950 . S
C587 C585 1.327 1_655 S
C588 C576 1.349 . S
C588 H582 0.950 . S
C588 C589 1.327 . S
C589 H583 0.950 . S
C589 C588 1.327 . S
C589 C593 1.429 . S
C590 C573 1.574 . S
C590 H584 0.949 . S
C590 C594 1.368 . S
C591 C572 1.429 . S
C591 C585 1.429 . S
C591 C592 1.523 . S
C592 C573 1.368 . S
C592 C586 1.368 . S
C592 C591 1.523 . S
C593 C577 1.429 . S
C593 C589 1.429 . S
C593 C594 1.523 . S
C594 C578 1.368 . S
C594 C590 1.368 . S
C594 C593 1.523 . S
H595 C570 0.950 . S
H596 C572 0.950 . S
H597 C573 0.949 . S
H598 C575 0.950 . S
H599 C577 0.950 . S
C600 C601 1.349 . S
C600 C602 1.327 . S
C600 H625 0.950 . S
C601 C600 1.349 . S
C601 C617 1.349 . S
C602 C600 1.327 . S
C602 C621 1.429 . S
C602 H626 0.950 . S
C603 C620 1.574 . S
C603 C622 1.368 . S
C603 H627 0.949 . S
H604 C608 0.949 . S
C605 C606 1.349 . S
C605 C607 1.327 . S
C605 H628 0.950 . S
C606 C605 1.349 . S
C606 C618 1.349 . S
C607 C605 1.327 . S
C607 C623 1.429 . S
C607 H629 0.950 . S
C608 H604 0.949 . S
C608 C616 1.574 . S
C608 C624 1.368 . S
H609 C617 0.950 . S
H610 C615 0.950 . S
H611 C616 0.949 . S
H612 C618 0.950 . S
H613 C619 0.950 . S
H614 C620 0.949 . S
C615 H610 0.950 . S
C615 C617 1.327 . S
C615 C621 1.429 . S
C616 C608 1.574 . S
C616 H611 0.949 . S
C616 C622 1.368 . S
C617 C601 1.349 . S
C617 H609 0.950 . S
C617 C615 1.327 . S
C618 C606 1.349 . S
C618 H612 0.950 . S
C618 C619 1.327 . S
C619 H613 0.950 . S
C619 C618 1.327 . S
C619 C623 1.429 . S
C620 C603 1.574 . S
C620 H614 0.949 . S
C620 C624 1.368 . S
C621 C602 1.429 . S
C621 C615 1.429 . S
C621 C622 1.523 . S
C622 C603 1.368 . S
C622 C616 1.368 . S
C622 C621 1.523 . S
C623 C607 1.429 . S
C623 C619 1.429 . S
C623 C624 1.523 . S
C624 C608 1.368 . S
C624 C620 1.368 . S
C624 C623 1.523 . S
H625 C600 0.950 . S
H626 C602 0.950 . S
H627 C603 0.949 . S
H628 C605 0.950 . S
H629 C607 0.950 . S
C630 C631 1.349 . S
C630 C632 1.327 . S
C630 H655 0.950 . S
C631 C630 1.349 . S
C631 C647 1.349 . S
C632 C630 1.327 . S
C632 C651 1.429 . S
C632 H656 0.950 . S
C633 C650 1.574 . S
C633 C652 1.368 . S
C633 H657 0.949 . S
H634 C638 0.949 . S
C635 C636 1.349 . S
C635 C637 1.327 . S
C635 H658 0.950 . S
C636 C635 1.349 . S
C636 C648 1.349 . S
C637 C635 1.327 . S
C637 C653 1.429 . S
C637 H659 0.950 . S
C638 H634 0.949 . S
C638 C646 1.574 . S
C638 C654 1.368 . S
H639 C647 0.950 . S
H640 C645 0.950 . S
H641 C646 0.949 . S
H642 C648 0.950 . S
H643 C649 0.950 . S
H644 C650 0.949 . S
C645 H640 0.950 . S
C645 C647 1.327 . S
C645 C651 1.429 . S
C646 C638 1.574 . S
C646 H641 0.949 . S
C646 C652 1.368 . S
C647 C631 1.349 . S
C647 H639 0.950 . S
C647 C645 1.327 . S
C648 C636 1.349 . S
C648 H642 0.950 . S
C648 C649 1.327 . S
C649 H643 0.950 . S
C649 C648 1.327 . S
C649 C653 1.429 . S
C650 C633 1.574 . S
C650 H644 0.949 . S
C650 C654 1.368 . S
C651 C632 1.429 . S
C651 C645 1.429 . S
C651 C652 1.523 . S
C652 C633 1.368 . S
C652 C646 1.368 . S
C652 C651 1.523 . S
C653 C637 1.429 . S
C653 C649 1.429 . S
C653 C654 1.523 . S
C654 C638 1.368 . S
C654 C650 1.368 . S
C654 C653 1.523 . S
H655 C630 0.950 . S
H656 C632 0.950 . S
H657 C633 0.949 . S
H658 C635 0.950 . S
H659 C637 0.950 . S
C660 C661 1.349 . S
C660 C662 1.327 . S
C660 H685 0.950 . S
C661 C660 1.349 . S
C661 C677 1.349 . S
C662 C660 1.327 . S
C662 C681 1.429 . S
C662 H686 0.950 . S
C663 C680 1.574 . S
C663 C682 1.368 . S
C663 H687 0.949 . S
H664 C668 0.949 . S
C665 C666 1.349 . S
C665 C667 1.327 . S
C665 H688 0.950 . S
C666 C665 1.349 . S
C666 C678 1.349 . S
C667 C665 1.327 . S
C667 C683 1.429 . S
C667 H689 0.950 . S
C668 H664 0.949 . S
C668 C676 1.574 . S
C668 C684 1.368 . S
H669 C677 0.950 . S
H670 C675 0.950 . S
H671 C676 0.949 . S
H672 C678 0.950 . S
H673 C679 0.950 . S
H674 C680 0.949 . S
C675 H670 0.950 . S
C675 C677 1.327 . S
C675 C681 1.429 . S
C676 C668 1.574 . S
C676 H671 0.949 . S
C676 C682 1.368 . S
C677 C661 1.349 . S
C677 H669 0.950 . S
C677 C675 1.327 . S
C678 C666 1.349 . S
C678 H672 0.950 . S
C678 C679 1.327 . S
C679 H673 0.950 . S
C679 C678 1.327 . S
C679 C683 1.429 . S
C680 C663 1.574 . S
C680 H674 0.949 . S
C680 C684 1.368 . S
C681 C662 1.429 . S
C681 C675 1.429 . S
C681 C682 1.523 . S
C682 C663 1.368 . S
C682 C676 1.368 . S
C682 C681 1.523 . S
C683 C667 1.429 . S
C683 C679 1.429 . S
C683 C684 1.523 . S
C684 C668 1.368 . S
C684 C680 1.368 . S
C684 C683 1.523 . S
H685 C660 0.950 . S
H686 C662 0.950 . S
H687 C663 0.949 . S
H688 C665 0.950 . S
H689 C667 0.950 . S
C690 C691 1.349 . S
C690 C692 1.327 . S
C690 H715 0.950 . S
C691 C690 1.349 . S
C691 C707 1.349 . S
C692 C690 1.327 . S
C692 C711 1.429 . S
C692 H716 0.950 . S
C693 C710 1.574 . S
C693 C712 1.368 . S
C693 H717 0.949 . S
H694 C698 0.949 . S
C695 C696 1.349 . S
C695 C697 1.327 . S
C695 H718 0.950 . S
C696 C695 1.349 . S
C696 C708 1.349 . S
C697 C695 1.327 . S
C697 C713 1.429 . S
C697 H719 0.950 . S
C698 H694 0.949 . S
C698 C706 1.574 . S
C698 C714 1.368 . S
H699 C707 0.950 . S
H700 C705 0.950 . S
H701 C706 0.949 . S
H702 C708 0.950 . S
H703 C709 0.950 . S
H704 C710 0.949 . S
C705 H700 0.950 . S
C705 C707 1.327 . S
C705 C711 1.429 . S
C706 C698 1.574 . S
C706 H701 0.949 . S
C706 C712 1.368 . S
C707 C691 1.349 . S
C707 H699 0.950 . S
C707 C705 1.327 . S
C708 C696 1.349 . S
C708 H702 0.950 . S
C708 C709 1.327 . S
C709 H703 0.950 . S
C709 C708 1.327 . S
C709 C713 1.429 . S
C710 C693 1.574 . S
C710 H704 0.949 . S
C710 C714 1.368 . S
C711 C692 1.429 . S
C711 C705 1.429 . S
C711 C712 1.523 . S
C712 C693 1.368 . S
C712 C706 1.368 . S
C712 C711 1.523 . S
C713 C697 1.429 . S
C713 C709 1.429 . S
C713 C714 1.523 . S
C714 C698 1.368 . S
C714 C710 1.368 . S
C714 C713 1.523 . S
H715 C690 0.950 . S
H716 C692 0.950 . S
H717 C693 0.949 . S
H718 C695 0.950 . S
H719 C697 0.950 . S
C720 C721 1.349 . S
C720 C722 1.327 . S
C720 H745 0.950 . S
C721 C720 1.349 . S
C721 C737 1.349 . S
C722 C720 1.327 . S
C722 C741 1.429 . S
C722 H746 0.950 . S
C723 C740 1.574 . S
C723 C742 1.368 . S
C723 H747 0.949 . S
H724 C728 0.949 . S
C725 C726 1.349 . S
C725 C727 1.327 . S
C725 H748 0.950 . S
C726 C725 1.349 . S
C726 C738 1.349 . S
C727 C725 1.327 . S
C727 C743 1.429 . S
C727 H749 0.950 . S
C728 H724 0.949 . S
C728 C736 1.574 . S
C728 C744 1.368 . S
H729 C737 0.950 . S
H730 C735 0.950 . S
H731 C736 0.947 . S
H732 C738 0.950 . S
H733 C739 0.950 . S
H734 C740 0.949 . S
C735 H730 0.950 . S
C735 C737 1.327 . S
C735 C741 1.429 . S
C736 C728 1.574 . S
C736 H731 0.947 . S
C736 C742 1.368 . S
C737 C721 1.349 . S
C737 H729 0.950 . S
C737 C735 1.327 . S
C738 C726 1.349 . S
C738 H732 0.950 . S
C738 C739 1.327 . S
C739 H733 0.950 . S
C739 C738 1.327 . S
C739 C743 1.429 . S
C740 C723 1.574 . S
C740 H734 0.949 . S
C740 C744 1.368 . S
C741 C722 1.429 . S
C741 C735 1.429 . S
C741 C742 1.523 1_655 S
C742 C723 1.368 . S
C742 C736 1.368 . S
C742 C741 1.523 1_455 S
C743 C727 1.429 . S
C743 C739 1.429 . S
C743 C744 1.523 . S
C744 C728 1.368 . S
C744 C740 1.368 . S
C744 C743 1.523 . S
H745 C720 0.950 . S
H746 C722 0.950 . S
H747 C723 0.949 . S
H748 C725 0.950 . S
H749 C727 0.950 . S
C750 C751 1.349 1_545 S
C750 C752 1.327 . S
C750 H775 0.950 . S
C751 C750 1.349 1_565 S
C751 C767 1.349 . S
C752 C750 1.327 . S
C752 C771 1.429 1_545 S
C752 H776 0.950 . S
C753 C770 1.574 . S
C753 C772 1.368 1_565 S
C753 H777 0.949 . S
H754 C758 0.949 . S
C755 C756 1.349 . S
C755 C757 1.327 . S
C755 H778 0.950 . S
C756 C755 1.349 . S
C756 C768 1.349 . S
C757 C755 1.327 . S
C757 C773 1.429 . S
C757 H779 0.950 1_545 S
C758 H754 0.949 . S
C758 C766 1.574 . S
C758 C774 1.368 . S
H759 C767 0.950 . S
H760 C765 0.950 . S
H761 C766 0.949 . S
H762 C768 0.950 . S
H763 C769 0.950 . S
H764 C770 0.949 . S
C765 H760 0.950 . S
C765 C767 1.327 . S
C765 C771 1.429 . S
C766 C758 1.574 . S
C766 H761 0.949 . S
C766 C772 1.368 . S
C767 C751 1.349 . S
C767 H759 0.950 . S
C767 C765 1.327 . S
C768 C756 1.349 . S
C768 H762 0.950 . S
C768 C769 1.327 . S
C769 H763 0.950 . S
C769 C768 1.327 . S
C769 C773 1.429 . S
C770 C753 1.574 . S
C770 H764 0.949 . S
C770 C774 1.368 1_565 S
C771 C752 1.429 1_565 S
C771 C765 1.429 . S
C771 C772 1.523 1_565 S
C772 C753 1.368 1_545 S
C772 C766 1.368 . S
C772 C771 1.523 1_545 S
C773 C757 1.429 . S
C773 C769 1.429 . S
C773 C774 1.523 . S
C774 C758 1.368 . S
C774 C770 1.368 1_545 S
C774 C773 1.523 . S
H775 C750 0.950 . S
H776 C752 0.950 . S
H777 C753 0.949 . S
H778 C755 0.950 . S
H779 C757 0.950 1_565 S
C241 C129 1.136 1_565 S
C246 C9 1.136 . S
C271 C169 1.126 . S
C276 C49 1.126 . S
C301 C209 1.125 . S
C306 C89 1.125 1_655 S
C331 C15 0.580 . S
C336 C86 0.546 . S
C361 C55 0.580 . S
C366 C126 0.546 . S
C391 C95 0.580 . S
C396 C166 0.546 . S
C421 C135 0.580 . S
C426 C206 0.546 . S
C451 C175 0.580 . S
C456 C6 0.546 . S
C481 C215 0.580 . S
C486 C46 0.546 . S
C511 C18 0.998 . S
C516 C138 0.998 . S
C541 C58 1.000 . S
C546 C178 1.000 . S
C571 C98 0.999 . S
C576 C218 0.999 . S
C601 C10 3.894 . S
C606 C59 3.946 . S
C631 C50 3.894 . S
C636 C99 3.946 . S
C661 C90 3.894 . S
C666 C139 3.946 . S
C691 C130 3.894 . S
C696 C179 3.947 . S
C721 C170 3.894 . S
C726 C219 3.946 . S
C751 C210 3.894 . S
C756 C19 3.946 . S
