# Generated by pormake.
# Topology wno, (7)-cn, num edge types: 1
# Building blocks:
#     Node 0, Type 0, BuildingBlock: OLANEW_clean_sbu_3, # of connection points: 7
#     Node 1, Type 0, BuildingBlock: OLANEW_clean_sbu_3, # of connection points: 7
#     Node 2, Type 0, BuildingBlock: OLANEW_clean_sbu_3, # of connection points: 7
#     Node 3, Type 0, BuildingBlock: OLANEW_clean_sbu_3, # of connection points: 7
#     Node 4, Type 0, BuildingBlock: OLANEW_clean_sbu_3, # of connection points: 7
#     Node 5, Type 0, BuildingBlock: OLANEW_clean_sbu_3, # of connection points: 7
#     Node 6, Type 0, BuildingBlock: OLANEW_clean_sbu_3, # of connection points: 7
#     Node 7, Type 0, BuildingBlock: OLANEW_clean_sbu_3, # of connection points: 7
#     Node 8, Type 0, BuildingBlock: OLANEW_clean_sbu_3, # of connection points: 7
#     Node 9, Type 0, BuildingBlock: OLANEW_clean_sbu_3, # of connection points: 7
#     Node 10, Type 0, BuildingBlock: OLANEW_clean_sbu_3, # of connection points: 7
#     Node 11, Type 0, BuildingBlock: OLANEW_clean_sbu_3, # of connection points: 7
#     Node 12, Type 0, BuildingBlock: OLANEW_clean_sbu_3, # of connection points: 7
#     Node 13, Type 0, BuildingBlock: OLANEW_clean_sbu_3, # of connection points: 7
#     Node 14, Type 0, BuildingBlock: OLANEW_clean_sbu_3, # of connection points: 7
#     Node 15, Type 0, BuildingBlock: OLANEW_clean_sbu_3, # of connection points: 7
#     Node 16, Type 0, BuildingBlock: OLANEW_clean_sbu_3, # of connection points: 7
#     Node 17, Type 0, BuildingBlock: OLANEW_clean_sbu_3, # of connection points: 7
#     Edge 18, Type (0, 0), BuildingBlock: XUDNAN_clean_linker_2, # of connection points: 2
#     Edge 19, Type (0, 0), BuildingBlock: XUDNAN_clean_linker_2, # of connection points: 2
#     Edge 20, Type (0, 0), BuildingBlock: XUDNAN_clean_linker_2, # of connection points: 2
#     Edge 21, Type (0, 0), BuildingBlock: XUDNAN_clean_linker_2, # of connection points: 2
#     Edge 22, Type (0, 0), BuildingBlock: XUDNAN_clean_linker_2, # of connection points: 2
#     Edge 23, Type (0, 0), BuildingBlock: XUDNAN_clean_linker_2, # of connection points: 2
#     Edge 24, Type (0, 0), BuildingBlock: XUDNAN_clean_linker_2, # of connection points: 2
#     Edge 25, Type (0, 0), BuildingBlock: XUDNAN_clean_linker_2, # of connection points: 2
#     Edge 26, Type (0, 0), BuildingBlock: XUDNAN_clean_linker_2, # of connection points: 2
#     Edge 27, Type (0, 0), BuildingBlock: XUDNAN_clean_linker_2, # of connection points: 2
#     Edge 28, Type (0, 0), BuildingBlock: XUDNAN_clean_linker_2, # of connection points: 2
#     Edge 29, Type (0, 0), BuildingBlock: XUDNAN_clean_linker_2, # of connection points: 2
#     Edge 30, Type (0, 0), BuildingBlock: XUDNAN_clean_linker_2, # of connection points: 2
#     Edge 31, Type (0, 0), BuildingBlock: XUDNAN_clean_linker_2, # of connection points: 2
#     Edge 32, Type (0, 0), BuildingBlock: XUDNAN_clean_linker_2, # of connection points: 2
#     Edge 33, Type (0, 0), BuildingBlock: XUDNAN_clean_linker_2, # of connection points: 2
#     Edge 34, Type (0, 0), BuildingBlock: XUDNAN_clean_linker_2, # of connection points: 2
#     Edge 35, Type (0, 0), BuildingBlock: XUDNAN_clean_linker_2, # of connection points: 2
#     Edge 36, Type (0, 0), BuildingBlock: XUDNAN_clean_linker_2, # of connection points: 2
#     Edge 37, Type (0, 0), BuildingBlock: XUDNAN_clean_linker_2, # of connection points: 2
#     Edge 38, Type (0, 0), BuildingBlock: XUDNAN_clean_linker_2, # of connection points: 2
#     Edge 39, Type (0, 0), BuildingBlock: XUDNAN_clean_linker_2, # of connection points: 2
#     Edge 40, Type (0, 0), BuildingBlock: XUDNAN_clean_linker_2, # of connection points: 2
#     Edge 41, Type (0, 0), BuildingBlock: XUDNAN_clean_linker_2, # of connection points: 2
#     Edge 42, Type (0, 0), BuildingBlock: XUDNAN_clean_linker_2, # of connection points: 2
#     Edge 43, Type (0, 0), BuildingBlock: XUDNAN_clean_linker_2, # of connection points: 2
#     Edge 44, Type (0, 0), BuildingBlock: XUDNAN_clean_linker_2, # of connection points: 2
#     Edge 45, Type (0, 0), BuildingBlock: XUDNAN_clean_linker_2, # of connection points: 2
#     Edge 46, Type (0, 0), BuildingBlock: XUDNAN_clean_linker_2, # of connection points: 2
#     Edge 47, Type (0, 0), BuildingBlock: XUDNAN_clean_linker_2, # of connection points: 2
#     Edge 48, Type (0, 0), BuildingBlock: XUDNAN_clean_linker_2, # of connection points: 2
#     Edge 49, Type (0, 0), BuildingBlock: XUDNAN_clean_linker_2, # of connection points: 2
#     Edge 50, Type (0, 0), BuildingBlock: XUDNAN_clean_linker_2, # of connection points: 2
#     Edge 51, Type (0, 0), BuildingBlock: XUDNAN_clean_linker_2, # of connection points: 2
#     Edge 52, Type (0, 0), BuildingBlock: XUDNAN_clean_linker_2, # of connection points: 2
#     Edge 53, Type (0, 0), BuildingBlock: XUDNAN_clean_linker_2, # of connection points: 2
#     Edge 54, Type (0, 0), BuildingBlock: XUDNAN_clean_linker_2, # of connection points: 2
#     Edge 55, Type (0, 0), BuildingBlock: XUDNAN_clean_linker_2, # of connection points: 2
#     Edge 56, Type (0, 0), BuildingBlock: XUDNAN_clean_linker_2, # of connection points: 2
#     Edge 57, Type (0, 0), BuildingBlock: XUDNAN_clean_linker_2, # of connection points: 2
#     Edge 58, Type (0, 0), BuildingBlock: XUDNAN_clean_linker_2, # of connection points: 2
#     Edge 59, Type (0, 0), BuildingBlock: XUDNAN_clean_linker_2, # of connection points: 2
#     Edge 60, Type (0, 0), BuildingBlock: XUDNAN_clean_linker_2, # of connection points: 2
#     Edge 61, Type (0, 0), BuildingBlock: XUDNAN_clean_linker_2, # of connection points: 2
#     Edge 62, Type (0, 0), BuildingBlock: XUDNAN_clean_linker_2, # of connection points: 2
#     Edge 63, Type (0, 0), BuildingBlock: XUDNAN_clean_linker_2, # of connection points: 2
#     Edge 64, Type (0, 0), BuildingBlock: XUDNAN_clean_linker_2, # of connection points: 2
#     Edge 65, Type (0, 0), BuildingBlock: XUDNAN_clean_linker_2, # of connection points: 2
#     Edge 66, Type (0, 0), BuildingBlock: XUDNAN_clean_linker_2, # of connection points: 2
#     Edge 67, Type (0, 0), BuildingBlock: XUDNAN_clean_linker_2, # of connection points: 2
#     Edge 68, Type (0, 0), BuildingBlock: XUDNAN_clean_linker_2, # of connection points: 2
#     Edge 69, Type (0, 0), BuildingBlock: XUDNAN_clean_linker_2, # of connection points: 2
#     Edge 70, Type (0, 0), BuildingBlock: XUDNAN_clean_linker_2, # of connection points: 2
#     Edge 71, Type (0, 0), BuildingBlock: XUDNAN_clean_linker_2, # of connection points: 2
#     Edge 72, Type (0, 0), BuildingBlock: XUDNAN_clean_linker_2, # of connection points: 2
#     Edge 73, Type (0, 0), BuildingBlock: XUDNAN_clean_linker_2, # of connection points: 2
#     Edge 74, Type (0, 0), BuildingBlock: XUDNAN_clean_linker_2, # of connection points: 2
#     Edge 75, Type (0, 0), BuildingBlock: XUDNAN_clean_linker_2, # of connection points: 2
#     Edge 76, Type (0, 0), BuildingBlock: XUDNAN_clean_linker_2, # of connection points: 2
#     Edge 77, Type (0, 0), BuildingBlock: XUDNAN_clean_linker_2, # of connection points: 2
#     Edge 78, Type (0, 0), BuildingBlock: XUDNAN_clean_linker_2, # of connection points: 2
#     Edge 79, Type (0, 0), BuildingBlock: XUDNAN_clean_linker_2, # of connection points: 2
#     Edge 80, Type (0, 0), BuildingBlock: XUDNAN_clean_linker_2, # of connection points: 2
# Relax obj value: 0.260
# Max RMSD: 0.261
# Mean RMSD: 0.261
data_MOF--net-wno--node1-OLANEW_clean_sbu_3--edge1-XUDNAN_clean_linker_2
_symmetry_space_group_name_H-M    P1
_symmetry_Int_Tables_number       1
_symmetry_cell_setting            triclinic
loop_
_symmetry_equiv_pos_as_xyz
'x, y, z'
_cell_length_a     66.181207
_cell_length_b     66.241734
_cell_length_c     46.75389
_cell_angle_alpha  89.964556
_cell_angle_beta   90.037426
_cell_angle_gamma 119.93221
loop_
_atom_site_label
_atom_site_type_symbol
_atom_site_fract_x
_atom_site_fract_y
_atom_site_fract_z
_atom_type_partial_charge
C0 C 0.16266 0.28775 0.13287 0.0
C1 C 0.15202 0.26514 0.12174 0.0
C2 C 0.16619 0.25822 0.10682 0.0
C3 C 0.19041 0.27373 0.10348 0.0
C4 C 0.19979 0.29604 0.11521 0.0
N5 N 0.18554 0.30149 0.12901 0.0
C6 C 0.22406 0.31545 0.11434 0.0
C7 C 0.24959 0.35706 0.12782 0.0
C8 C 0.26775 0.3574 0.1437 0.0
C9 C 0.28907 0.37804 0.14655 0.0
C10 C 0.29258 0.39838 0.13314 0.0
C11 C 0.27475 0.39809 0.11685 0.0
C12 C 0.25333 0.37753 0.1142 0.0
Cd13 Cd 0.2635 0.31426 0.06232 0.0
Cd14 Cd 0.23634 0.28777 0.02358 0.0
C15 C 0.16218 0.33205 0.18243 0.0
C16 C 0.13981 0.3505 0.19656 0.0
C17 C 0.14646 0.35053 0.22511 0.0
C18 C 0.15984 0.34036 0.23265 0.0
C19 C 0.16734 0.33075 0.21128 0.0
C20 C 0.14823 0.3417 0.1752 0.0
Co21 Co 0.19859 0.33084 0.14437 0.0
N22 N 0.20923 0.32302 0.17937 0.0
N23 N 0.21128 0.36027 0.15948 0.0
C24 C 0.22117 0.36356 0.18516 0.0
C25 C 0.22921 0.38513 0.19854 0.0
C26 C 0.22616 0.40221 0.18406 0.0
C27 C 0.21505 0.39741 0.15704 0.0
C28 C 0.20734 0.3754 0.14512 0.0
N29 N 0.18959 0.34347 0.11219 0.0
N30 N 0.22733 0.33616 0.12569 0.0
N31 N 0.16808 0.32046 0.16091 0.0
O32 O 0.26229 0.30467 0.98456 0.0
O33 O 0.2837 0.33079 0.01675 0.0
C34 C 0.30324 0.34943 0.09192 0.0
O35 O 0.29469 0.35422 0.07036 0.0
O36 O 0.29332 0.32823 0.09968 0.0
C37 C 0.25348 0.25714 0.044 0.0
O38 O 0.2662 0.27731 0.05504 0.0
O39 O 0.23434 0.25225 0.03219 0.0
C40 C 0.22065 0.3425 0.19621 0.0
O41 O 0.22946 0.34211 0.22128 0.0
O42 O 0.22826 0.31689 0.04962 0.0
O43 O 0.20285 0.29175 0.01923 0.0
C44 C 0.195 0.36586 0.1179 0.0
O45 O 0.19172 0.37869 0.09907 0.0
C46 C 0.18279 0.33324 0.08441 0.0
C47 C 0.19941 0.33226 0.06752 0.0
C48 C 0.19285 0.31704 0.04431 0.0
C49 C 0.1698 0.30675 0.0341 0.0
C50 C 0.15325 0.3103 0.04885 0.0
C51 C 0.15964 0.32271 0.07492 0.0
C52 C 0.28047 0.3235 0.99108 0.0
O53 O 0.24188 0.31176 0.10744 0.0
C54 C 0.20914 0.309 0.03577 0.0
C55 C 0.20861 0.30152 0.18595 0.0
C56 C 0.18731 0.28082 0.18902 0.0
C57 C 0.1868 0.26012 0.19604 0.0
C58 C 0.20751 0.25995 0.20084 0.0
C59 C 0.22906 0.28077 0.19937 0.0
C60 C 0.22942 0.30143 0.19157 0.0
C61 C 0.15252 0.2987 0.1509 0.0
O62 O 0.13071 0.28734 0.15951 0.0
H63 H 0.13359 0.25318 0.12469 0.0
H64 H 0.15845 0.24083 0.098 0.0
H65 H 0.20125 0.2685 0.09201 0.0
H66 H 0.26551 0.34179 0.15387 0.0
H67 H 0.30915 0.4143 0.1352 0.0
H68 H 0.23986 0.37763 0.10128 0.0
H69 H 0.13931 0.35635 0.24197 0.0
H70 H 0.17607 0.32126 0.21725 0.0
H71 H 0.14305 0.34128 0.15311 0.0
H72 H 0.2372 0.38859 0.2195 0.0
H73 H 0.23214 0.41903 0.19392 0.0
H74 H 0.21243 0.41034 0.14612 0.0
H75 H 0.21735 0.34166 0.07444 0.0
H76 H 0.16443 0.29509 0.01589 0.0
H77 H 0.14671 0.32387 0.08792 0.0
H78 H 0.17103 0.2807 0.18711 0.0
H79 H 0.20651 0.24375 0.2071 0.0
H80 H 0.24584 0.31758 0.19053 0.0
C81 C 0.71489 0.86826 0.12369 0.0
C82 C 0.73708 0.87976 0.11126 0.0
C83 C 0.7443 0.90141 0.09763 0.0
C84 C 0.72949 0.91112 0.09671 0.0
C85 C 0.70751 0.8986 0.10945 0.0
N86 N 0.70188 0.87846 0.12237 0.0
C87 C 0.68858 0.90429 0.11039 0.0
C88 C 0.64839 0.8899 0.12853 0.0
C89 C 0.65092 0.90843 0.14568 0.0
C90 C 0.63149 0.91048 0.15262 0.0
C91 C 0.60948 0.89424 0.14223 0.0
C92 C 0.60693 0.87607 0.12465 0.0
C93 C 0.62631 0.87391 0.11777 0.0
Cd94 Cd 0.68561 0.94533 0.0605 0.0
Cd95 Cd 0.71815 0.94889 0.03157 0.0
C96 C 0.67287 0.8249 0.17623 0.0
C97 C 0.64967 0.78574 0.19494 0.0
C98 C 0.65437 0.79468 0.22286 0.0
C99 C 0.66843 0.81869 0.2284 0.0
C100 C 0.67829 0.83343 0.20435 0.0
C101 C 0.65883 0.8009 0.17154 0.0
Co102 Co 0.67283 0.86229 0.13863 0.0
N103 N 0.68167 0.87942 0.17472 0.0
N104 N 0.64353 0.84542 0.1544 0.0
C105 C 0.64131 0.8503 0.18145 0.0
C106 C 0.62058 0.83555 0.19593 0.0
C107 C 0.60316 0.81596 0.1811 0.0
C108 C 0.60686 0.81129 0.15266 0.0
C109 C 0.6281 0.82675 0.13967 0.0
N110 N 0.65921 0.84196 0.10561 0.0
N111 N 0.66804 0.88702 0.12245 0.0
N112 N 0.68269 0.84078 0.15253 0.0
O113 O 0.70198 0.95197 0.98681 0.0
O114 O 0.67242 0.94823 0.01228 0.0
C115 C 0.64466 0.94273 0.08601 0.0
O116 O 0.64371 0.92964 0.06564 0.0
O117 O 0.66491 0.95747 0.09492 0.0
C118 C 0.74144 0.99786 0.0443 0.0
O119 O 0.71937 0.98759 0.04887 0.0
O120 O 0.75108 0.9855 0.04236 0.0
C121 C 0.66274 0.87005 0.19279 0.0
O122 O 0.66415 0.87698 0.21945 0.0
O123 O 0.68438 0.90831 0.04517 0.0
O124 O 0.71757 0.91312 0.02847 0.0
C125 C 0.63689 0.82498 0.11143 0.0
O126 O 0.62374 0.80931 0.09237 0.0
C127 C 0.6695 0.84583 0.07788 0.0
C128 C 0.67095 0.86411 0.06206 0.0
C129 C 0.68799 0.87469 0.04095 0.0
C130 C 0.6996 0.86308 0.03096 0.0
C131 C 0.69524 0.84202 0.04392 0.0
C132 C 0.68108 0.83418 0.06855 0.0
C133 C 0.6824 0.95095 0.98825 0.0
O134 O 0.69255 0.92613 0.10401 0.0
C135 C 0.69654 0.89963 0.0356 0.0
C136 C 0.70276 0.9008 0.18127 0.0
C137 C 0.72464 0.90237 0.17905 0.0
C138 C 0.74477 0.92237 0.18805 0.0
C139 C 0.74317 0.9405 0.20083 0.0
C140 C 0.72126 0.93844 0.20519 0.0
C141 C 0.70138 0.91934 0.19387 0.0
C142 C 0.70403 0.84677 0.14112 0.0
O143 O 0.71542 0.83601 0.14842 0.0
H144 H 0.74853 0.87252 0.11231 0.0
H145 H 0.76137 0.91068 0.08787 0.0
H146 H 0.73494 0.92758 0.08614 0.0
H147 H 0.66783 0.92117 0.15384 0.0
H148 H 0.59448 0.8959 0.14753 0.0
H149 H 0.62408 0.85989 0.10392 0.0
H150 H 0.64743 0.78218 0.24001 0.0
H151 H 0.69035 0.85172 0.20666 0.0
H152 H 0.65526 0.79414 0.14991 0.0
H153 H 0.61812 0.83867 0.21803 0.0
H154 H 0.58703 0.80414 0.19184 0.0
H155 H 0.59384 0.79594 0.14156 0.0
H156 H 0.66107 0.8721 0.06939 0.0
H157 H 0.71262 0.87083 0.01427 0.0
H158 H 0.67953 0.81956 0.08074 0.0
H159 H 0.72626 0.88776 0.17234 0.0
H160 H 0.75878 0.9552 0.20943 0.0
H161 H 0.68452 0.91782 0.19755 0.0
C162 C 0.131 0.8446 0.12896 0.0
C163 C 0.11935 0.85524 0.11675 0.0
C164 C 0.09804 0.84088 0.10235 0.0
C165 C 0.08882 0.81649 0.10048 0.0
C166 C 0.10136 0.80708 0.11333 0.0
N167 N 0.12115 0.82149 0.12697 0.0
C168 C 0.09661 0.7828 0.11273 0.0
C169 C 0.11335 0.75797 0.12706 0.0
C170 C 0.09675 0.74088 0.14523 0.0
C171 C 0.09763 0.72062 0.15097 0.0
C172 C 0.11486 0.71727 0.13832 0.0
C173 C 0.13099 0.73392 0.11962 0.0
C174 C 0.13018 0.75416 0.11388 0.0
Cd175 Cd 0.05355 0.74082 0.06173 0.0
Cd176 Cd 0.05385 0.76832 0.02604 0.0
C177 C 0.17486 0.84558 0.18079 0.0
C178 C 0.21509 0.86695 0.19797 0.0
C179 C 0.20688 0.86003 0.22599 0.0
C180 C 0.18315 0.84588 0.23165 0.0
C181 C 0.1671 0.83925 0.20911 0.0
C182 C 0.19885 0.85938 0.17533 0.0
Co183 Co 0.13809 0.80891 0.14178 0.0
N184 N 0.12031 0.79789 0.17745 0.0
N185 N 0.1557 0.79677 0.15598 0.0
C186 C 0.14973 0.78667 0.18156 0.0
C187 C 0.16384 0.77896 0.1942 0.0
C188 C 0.18395 0.78263 0.17919 0.0
C189 C 0.18963 0.79396 0.15231 0.0
C190 C 0.17471 0.80124 0.14111 0.0
N191 N 0.15917 0.81812 0.1088 0.0
N192 N 0.11445 0.77997 0.12378 0.0
N193 N 0.15834 0.83963 0.15784 0.0
O194 O 0.04986 0.74603 0.98496 0.0
O195 O 0.05212 0.72176 0.01502 0.0
C196 C 0.04362 0.70048 0.0948 0.0
O197 O 0.06067 0.7093 0.07742 0.0
O198 O 0.03158 0.71051 0.09673 0.0
C199 C 0.00596 0.75102 0.04237 0.0
O200 O 0.01393 0.73887 0.05394 0.0
O201 O 0.01985 0.76997 0.03001 0.0
C202 C 0.12923 0.78668 0.19347 0.0
O203 O 0.12156 0.7786 0.21929 0.0
O204 O 0.09182 0.77574 0.04872 0.0
O205 O 0.0899 0.80232 0.02241 0.0
C206 C 0.17671 0.8134 0.11402 0.0
O207 O 0.19249 0.81677 0.09465 0.0
C208 C 0.15457 0.82357 0.08079 0.0
C209 C 0.13617 0.80624 0.06571 0.0
C210 C 0.1265 0.81177 0.04273 0.0
C211 C 0.13908 0.83392 0.03029 0.0
C212 C 0.1608 0.85062 0.04184 0.0
C213 C 0.16777 0.84577 0.06844 0.0
C214 C 0.05018 0.72738 0.9895 0.0
O215 O 0.07517 0.7647 0.10574 0.0
C216 C 0.10193 0.79546 0.03596 0.0
C217 C 0.1001 0.79915 0.18643 0.0
C218 C 0.10037 0.82045 0.18644 0.0
C219 C 0.08183 0.82215 0.19776 0.0
C220 C 0.06343 0.803 0.21099 0.0
C221 C 0.06384 0.78209 0.21376 0.0
C222 C 0.08122 0.77975 0.19953 0.0
C223 C 0.1524 0.8551 0.14664 0.0
O224 O 0.16283 0.87704 0.15464 0.0
H225 H 0.12628 0.87384 0.11838 0.0
H226 H 0.08871 0.84865 0.09258 0.0
H227 H 0.07279 0.80558 0.08898 0.0
H228 H 0.08365 0.74353 0.15559 0.0
H229 H 0.11599 0.70198 0.14319 0.0
H230 H 0.14292 0.76696 0.09953 0.0
H231 H 0.21891 0.86584 0.24385 0.0
H232 H 0.14869 0.82977 0.21386 0.0
H233 H 0.20465 0.8644 0.15349 0.0
H234 H 0.15974 0.77072 0.21502 0.0
H235 H 0.19525 0.77694 0.1885 0.0
H236 H 0.20513 0.79701 0.14092 0.0
H237 H 0.12805 0.78865 0.07362 0.0
H238 H 0.13197 0.83815 0.01185 0.0
H239 H 0.18339 0.85874 0.07917 0.0
H240 H 0.11541 0.83624 0.17973 0.0
H241 H 0.04973 0.80504 0.22076 0.0
H242 H 0.08119 0.76342 0.20087 0.0
C243 C 0.84625 0.71964 0.87229 0.0
C244 C 0.85642 0.74297 0.88071 0.0
C245 C 0.84165 0.75083 0.89186 0.0
C246 C 0.81731 0.73554 0.89414 0.0
C247 C 0.80839 0.71251 0.88515 0.0
N248 N 0.82322 0.70616 0.8749 0.0
C249 C 0.78404 0.69319 0.88563 0.0
C250 C 0.759 0.65071 0.87598 0.0
C251 C 0.74066 0.64971 0.85972 0.0
C252 C 0.71979 0.62865 0.85652 0.0
C253 C 0.71686 0.60857 0.87004 0.0
C254 C 0.73454 0.60966 0.88741 0.0
C255 C 0.75546 0.63067 0.89052 0.0
Cd256 Cd 0.74292 0.69551 0.93425 0.0
Cd257 Cd 0.77848 0.73461 0.0106 0.0
C258 C 0.84845 0.67443 0.827 0.0
C259 C 0.86802 0.65347 0.81057 0.0
C260 C 0.86245 0.65592 0.78221 0.0
C261 C 0.85139 0.66866 0.77582 0.0
C262 C 0.84526 0.67865 0.79825 0.0
C263 C 0.8603 0.66223 0.83301 0.0
Co264 Co 0.81093 0.67586 0.86325 0.0
N265 N 0.80251 0.68102 0.82534 0.0
N266 N 0.79921 0.64547 0.8519 0.0
C267 C 0.7918 0.64055 0.82496 0.0
C268 C 0.78616 0.61874 0.81389 0.0
C269 C 0.78914 0.60322 0.83186 0.0
C270 C 0.798 0.60985 0.85994 0.0
C271 C 0.80339 0.63203 0.86939 0.0
N272 N 0.81782 0.6658 0.8994 0.0
N273 N 0.78119 0.6718 0.87756 0.0
N274 N 0.8424 0.68514 0.84985 0.0
O275 O 0.74249 0.70402 0.03049 0.0
O276 O 0.73284 0.69138 0.98626 0.0
C277 C 0.70279 0.65313 0.91596 0.0
O278 O 0.71817 0.65309 0.93218 0.0
O279 O 0.70585 0.67291 0.90861 0.0
C280 C 0.74936 0.742 0.95498 0.0
O281 O 0.73828 0.73163 0.93254 0.0
O282 O 0.76159 0.7342 0.96581 0.0
C283 C 0.7928 0.66056 0.81011 0.0
O284 O 0.78566 0.65915 0.78354 0.0
O285 O 0.7785 0.69976 0.9583 0.0
O286 O 0.80094 0.71647 0.99604 0.0
C287 C 0.81387 0.64355 0.89673 0.0
O288 O 0.81663 0.63234 0.91822 0.0
C289 C 0.82309 0.67779 0.92631 0.0
C290 C 0.8065 0.68181 0.93945 0.0
C291 C 0.81184 0.69533 0.96425 0.0
C292 C 0.83279 0.70155 0.97862 0.0
C293 C 0.84868 0.69549 0.9672 0.0
C294 C 0.84421 0.68444 0.94041 0.0
C295 C 0.72784 0.6894 0.01284 0.0
O296 O 0.76599 0.69702 0.89059 0.0
C297 C 0.7961 0.70387 0.97372 0.0
C298 C 0.80052 0.70061 0.81625 0.0
C299 C 0.82015 0.72279 0.81318 0.0
C300 C 0.81773 0.74109 0.80219 0.0
C301 C 0.79587 0.73721 0.7934 0.0
C302 C 0.77626 0.71476 0.79531 0.0
C303 C 0.77874 0.69697 0.80787 0.0
C304 C 0.85727 0.70769 0.85801 0.0
O305 O 0.87915 0.71904 0.84967 0.0
H306 H 0.87496 0.75477 0.87849 0.0
H307 H 0.84905 0.76878 0.89856 0.0
H308 H 0.80601 0.74151 0.90271 0.0
H309 H 0.74242 0.66508 0.84941 0.0
H310 H 0.70073 0.59228 0.86752 0.0
H311 H 0.76868 0.63126 0.90455 0.0
H312 H 0.86868 0.64982 0.76464 0.0
H313 H 0.83837 0.69 0.79323 0.0
H314 H 0.86429 0.66044 0.85502 0.0
H315 H 0.78027 0.61405 0.79204 0.0
H316 H 0.78509 0.58629 0.82382 0.0
H317 H 0.80089 0.59826 0.87344 0.0
H318 H 0.78928 0.6743 0.93047 0.0
H319 H 0.83691 0.71124 0.99849 0.0
H320 H 0.85675 0.68045 0.93092 0.0
H321 H 0.83736 0.72583 0.81814 0.0
H322 H 0.79468 0.75142 0.78373 0.0
H323 H 0.76384 0.67966 0.80974 0.0
C324 C 0.28357 0.12373 0.87064 0.0
C325 C 0.26095 0.11015 0.88137 0.0
C326 C 0.2553 0.08896 0.89524 0.0
C327 C 0.27203 0.08169 0.89794 0.0
C328 C 0.29425 0.0961 0.88656 0.0
N329 N 0.2985 0.11589 0.87379 0.0
C330 C 0.31481 0.09292 0.88704 0.0
C331 C 0.3566 0.11181 0.87302 0.0
C332 C 0.35808 0.09501 0.85632 0.0
C333 C 0.37966 0.09662 0.85149 0.0
C334 C 0.3998 0.11465 0.8639 0.0
C335 C 0.39832 0.13093 0.88141 0.0
C336 C 0.37679 0.12949 0.88603 0.0
Cd337 Cd 0.31582 0.0553 0.9431 0.0
Cd338 Cd 0.29244 0.06167 0.01144 0.0
C339 C 0.32575 0.17092 0.8216 0.0
C340 C 0.34415 0.21187 0.80732 0.0
C341 C 0.34259 0.20485 0.77866 0.0
C342 C 0.33336 0.18148 0.77133 0.0
C343 C 0.32448 0.16447 0.79277 0.0
C344 C 0.33559 0.19462 0.82885 0.0
Co345 Co 0.32767 0.13413 0.85852 0.0
N346 N 0.32091 0.11669 0.82272 0.0
N347 N 0.3569 0.15281 0.84351 0.0
C348 C 0.36076 0.14746 0.8174 0.0
C349 C 0.38212 0.16233 0.80424 0.0
C350 C 0.39828 0.18258 0.81923 0.0
C351 C 0.39281 0.18764 0.84659 0.0
C352 C 0.37111 0.17194 0.85835 0.0
N353 N 0.33925 0.15509 0.89144 0.0
N354 N 0.33489 0.11149 0.87593 0.0
N355 N 0.31544 0.15323 0.84327 0.0
O356 O 0.33292 0.07481 0.01325 0.0
O357 O 0.32777 0.04458 0.9887 0.0
C358 C 0.35241 0.05049 0.91953 0.0
O359 O 0.35701 0.06691 0.93713 0.0
O360 O 0.33128 0.03763 0.91202 0.0
C361 C 0.26663 0.00944 0.97145 0.0
O362 O 0.27913 0.01713 0.94894 0.0
O363 O 0.27004 0.0227 0.9927 0.0
C364 C 0.3405 0.12651 0.80581 0.0
O365 O 0.34088 0.11832 0.78032 0.0
O366 O 0.31184 0.08875 0.95813 0.0
O367 O 0.29241 0.09424 0.99257 0.0
C368 C 0.36106 0.1733 0.88585 0.0
O369 O 0.37315 0.18942 0.90499 0.0
C370 C 0.32871 0.15098 0.91912 0.0
C371 C 0.32599 0.13192 0.93448 0.0
C372 C 0.31277 0.12488 0.95937 0.0
C373 C 0.30616 0.13979 0.97212 0.0
C374 C 0.31184 0.16105 0.95906 0.0
C375 C 0.32208 0.16614 0.93162 0.0
C376 C 0.33582 0.05748 0.01061 0.0
O377 O 0.31325 0.0725 0.89545 0.0
C378 C 0.3059 0.10186 0.97122 0.0
C379 C 0.30116 0.09413 0.81674 0.0
C380 C 0.27845 0.0906 0.8168 0.0
C381 C 0.2594 0.06848 0.81174 0.0
C382 C 0.26288 0.04982 0.80556 0.0
C383 C 0.2856 0.05346 0.80337 0.0
C384 C 0.30458 0.07553 0.80925 0.0
C385 C 0.29325 0.14518 0.85324 0.0
O386 O 0.28053 0.15431 0.84508 0.0
H387 H 0.24802 0.11547 0.87882 0.0
H388 H 0.23794 0.07811 0.90373 0.0
H389 H 0.26775 0.06553 0.9086 0.0
H390 H 0.34267 0.08079 0.84689 0.0
H391 H 0.41648 0.11582 0.86023 0.0
H392 H 0.37591 0.1421 0.89983 0.0
H393 H 0.34852 0.21761 0.76159 0.0
H394 H 0.31614 0.14628 0.78691 0.0
H395 H 0.33636 0.19944 0.85112 0.0
H396 H 0.3861 0.1587 0.78306 0.0
H397 H 0.41489 0.19446 0.80952 0.0
H398 H 0.40501 0.20329 0.85792 0.0
H399 H 0.3342 0.12244 0.92692 0.0
H400 H 0.29699 0.13513 0.9924 0.0
H401 H 0.32554 0.18194 0.92059 0.0
H402 H 0.27536 0.10495 0.81981 0.0
H403 H 0.24793 0.03295 0.80092 0.0
H404 H 0.32207 0.07831 0.80729 0.0
C405 C 0.87342 0.15942 0.87505 0.0
C406 C 0.88379 0.14801 0.88856 0.0
C407 C 0.90519 0.1618 0.90301 0.0
C408 C 0.91572 0.18636 0.90363 0.0
C409 C 0.9043 0.19651 0.88963 0.0
N410 N 0.88436 0.18263 0.87606 0.0
C411 C 0.9107 0.2212 0.88862 0.0
C412 C 0.89738 0.24811 0.8712 0.0
C413 C 0.91567 0.26404 0.85375 0.0
C414 C 0.91837 0.28599 0.84826 0.0
C415 C 0.90305 0.2923 0.86044 0.0
C416 C 0.885 0.27664 0.87814 0.0
C417 C 0.88214 0.25461 0.8835 0.0
Cd418 Cd 0.95256 0.26002 0.94051 0.0
Cd419 Cd 0.95059 0.23171 0.97664 0.0
C420 C 0.83086 0.15937 0.8223 0.0
C421 C 0.79042 0.13838 0.80584 0.0
C422 C 0.79859 0.14157 0.77756 0.0
C423 C 0.82239 0.15307 0.77143 0.0
C424 C 0.83855 0.16159 0.79383 0.0
C425 C 0.80682 0.14775 0.82822 0.0
Co426 Co 0.86908 0.19643 0.85952 0.0
N427 N 0.88659 0.20456 0.82354 0.0
N428 N 0.853 0.20971 0.8435 0.0
C429 C 0.85812 0.21669 0.81644 0.0
C430 C 0.84395 0.22338 0.80179 0.0
C431 C 0.82459 0.22197 0.81643 0.0
C432 C 0.81955 0.21359 0.84485 0.0
C433 C 0.83444 0.20709 0.858 0.0
N434 N 0.84845 0.19018 0.89225 0.0
N435 N 0.89405 0.22532 0.87627 0.0
N436 N 0.84723 0.16543 0.84533 0.0
O437 O 0.9621 0.25843 0.01589 0.0
O438 O 0.95567 0.28 0.98574 0.0
C439 C 0.9576 0.29995 0.91049 0.0
O440 O 0.94389 0.29133 0.9317 0.0
O441 O 0.96921 0.29016 0.90343 0.0
C442 C 0.99777 0.24733 0.96009 0.0
O443 O 0.99238 0.26282 0.95335 0.0
O444 O 0.98153 0.22643 0.96288 0.0
C445 C 0.8775 0.21429 0.80526 0.0
O446 O 0.88442 0.21947 0.77855 0.0
O447 O 0.91403 0.2249 0.95359 0.0
O448 O 0.91296 0.19862 0.98318 0.0
C449 C 0.83201 0.19624 0.88615 0.0
O450 O 0.81615 0.19392 0.90484 0.0
C451 C 0.8511 0.18268 0.91992 0.0
C452 C 0.86951 0.19813 0.9365 0.0
C453 C 0.87769 0.19023 0.95889 0.0
C454 C 0.86391 0.16693 0.96841 0.0
C455 C 0.84273 0.15158 0.9542 0.0
C456 C 0.83697 0.15975 0.92919 0.0
C457 C 0.96088 0.27657 0.01076 0.0
O458 O 0.93269 0.2383 0.89525 0.0
C459 C 0.90233 0.20566 0.96715 0.0
C460 C 0.90797 0.20468 0.8171 0.0
C461 C 0.90951 0.18445 0.82014 0.0
C462 C 0.92946 0.18407 0.8114 0.0
C463 C 0.94761 0.20346 0.79809 0.0
C464 C 0.94569 0.22332 0.79282 0.0
C465 C 0.92653 0.22431 0.80386 0.0
C466 C 0.85222 0.14952 0.85725 0.0
O467 O 0.84062 0.12731 0.85041 0.0
H468 H 0.87581 0.12924 0.88789 0.0
H469 H 0.91357 0.15346 0.91375 0.0
H470 H 0.93188 0.1969 0.91507 0.0
H471 H 0.92777 0.25947 0.84433 0.0
H472 H 0.90525 0.30935 0.85631 0.0
H473 H 0.86823 0.24277 0.89746 0.0
H474 H 0.78645 0.13385 0.75995 0.0
H475 H 0.85689 0.16877 0.78922 0.0
H476 H 0.80109 0.14527 0.85028 0.0
H477 H 0.84733 0.22896 0.77969 0.0
H478 H 0.81322 0.22684 0.80556 0.0
H479 H 0.80433 0.21178 0.85579 0.0
H480 H 0.87898 0.21611 0.9296 0.0
H481 H 0.87004 0.1606 0.98583 0.0
H482 H 0.82172 0.14852 0.91659 0.0
H483 H 0.89496 0.16844 0.8275 0.0
H484 H 0.96248 0.20241 0.79041 0.0
H485 H 0.92515 0.23969 0.80001 0.0
C486 C 0.82642 0.61641 0.46871 0.0
C487 C 0.81592 0.59358 0.45831 0.0
C488 C 0.83007 0.58666 0.44334 0.0
C489 C 0.85415 0.60237 0.43924 0.0
C490 C 0.86345 0.62487 0.45031 0.0
N491 N 0.84921 0.63031 0.46427 0.0
C492 C 0.88762 0.64449 0.44864 0.0
C493 C 0.91293 0.6864 0.46094 0.0
C494 C 0.93202 0.68671 0.47453 0.0
C495 C 0.95339 0.70741 0.47636 0.0
C496 C 0.95604 0.72784 0.46421 0.0
C497 C 0.93732 0.72757 0.4501 0.0
C498 C 0.91585 0.70695 0.44843 0.0
Cd499 Cd 0.92897 0.64517 0.39602 0.0
Cd500 Cd 0.89414 0.61203 0.32201 0.0
C501 C 0.82594 0.66071 0.51848 0.0
C502 C 0.80768 0.68283 0.53454 0.0
C503 C 0.81611 0.68347 0.56217 0.0
C504 C 0.82868 0.67225 0.56864 0.0
C505 C 0.83286 0.66012 0.54693 0.0
C506 C 0.81277 0.6716 0.51256 0.0
Co507 Co 0.86192 0.66001 0.47831 0.0
N508 N 0.87353 0.65375 0.51362 0.0
N509 N 0.87409 0.68982 0.492 0.0
C510 C 0.88399 0.69403 0.51777 0.0
C511 C 0.89052 0.71544 0.5308 0.0
C512 C 0.8859 0.73134 0.51598 0.0
C513 C 0.87468 0.72552 0.48902 0.0
C514 C 0.8685 0.70371 0.47746 0.0
N515 N 0.85186 0.6711 0.44525 0.0
N516 N 0.89073 0.66531 0.45952 0.0
N517 N 0.83147 0.64952 0.49579 0.0
O518 O 0.92854 0.64188 0.29906 0.0
O519 O 0.93554 0.64906 0.34454 0.0
C520 C 0.97068 0.68218 0.42086 0.0
O521 O 0.96038 0.68634 0.40069 0.0
O522 O 0.96198 0.66109 0.42852 0.0
C523 C 0.92214 0.59214 0.37147 0.0
O524 O 0.93041 0.60812 0.39051 0.0
O525 O 0.91061 0.59296 0.35021 0.0
C526 C 0.88457 0.67377 0.52963 0.0
O527 O 0.8939 0.67446 0.55471 0.0
O528 O 0.89405 0.646 0.38222 0.0
O529 O 0.87226 0.62844 0.34425 0.0
C530 C 0.856 0.69316 0.45059 0.0
O531 O 0.85201 0.70524 0.43134 0.0
C532 C 0.84672 0.66123 0.41697 0.0
C533 C 0.86427 0.66035 0.40178 0.0
C534 C 0.85956 0.64777 0.37641 0.0
C535 C 0.83815 0.6404 0.36274 0.0
C536 C 0.82119 0.64435 0.37554 0.0
C537 C 0.82503 0.6537 0.40353 0.0
C538 C 0.94238 0.65404 0.31881 0.0
O539 O 0.90556 0.64117 0.44076 0.0
C540 C 0.87652 0.64104 0.36639 0.0
C541 C 0.87546 0.63353 0.51981 0.0
C542 C 0.85556 0.61141 0.52152 0.0
C543 C 0.85767 0.59177 0.52643 0.0
C544 C 0.87961 0.59409 0.53059 0.0
C545 C 0.89959 0.61628 0.53085 0.0
C546 C 0.8974 0.63589 0.52524 0.0
C547 C 0.8162 0.62736 0.48673 0.0
O548 O 0.7947 0.61563 0.49637 0.0
H549 H 0.7976 0.58145 0.46184 0.0
H550 H 0.82241 0.56911 0.43505 0.0
H551 H 0.86497 0.59712 0.42773 0.0
H552 H 0.93049 0.67104 0.48366 0.0
H553 H 0.97265 0.7438 0.46551 0.0
H554 H 0.90176 0.70703 0.43693 0.0
H555 H 0.81252 0.69253 0.579 0.0
H556 H 0.84171 0.65059 0.55211 0.0
H557 H 0.80672 0.67144 0.49098 0.0
H558 H 0.89836 0.71954 0.55185 0.0
H559 H 0.89062 0.74797 0.52561 0.0
H560 H 0.87069 0.73746 0.47794 0.0
H561 H 0.88175 0.66921 0.41 0.0
H562 H 0.83462 0.63163 0.34224 0.0
H563 H 0.81171 0.6558 0.41429 0.0
H564 H 0.83837 0.6093 0.51986 0.0
H565 H 0.88079 0.57867 0.5351 0.0
H566 H 0.91276 0.65302 0.52555 0.0
C567 C 0.38601 0.20744 0.4621 0.0
C568 C 0.40884 0.22038 0.45178 0.0
C569 C 0.41528 0.24154 0.43732 0.0
C570 C 0.39911 0.24942 0.43367 0.0
C571 C 0.37662 0.23561 0.4446 0.0
N572 N 0.37165 0.21587 0.45805 0.0
C573 C 0.35664 0.23969 0.44344 0.0
C574 C 0.31481 0.22235 0.45694 0.0
C575 C 0.3146 0.24097 0.47106 0.0
C576 C 0.29373 0.24116 0.4745 0.0
C577 C 0.27298 0.22303 0.46348 0.0
C578 C 0.27311 0.20473 0.44885 0.0
C579 C 0.29392 0.20439 0.44554 0.0
Cd580 Cd 0.35425 0.28185 0.39408 0.0
Cd581 Cd 0.38544 0.28489 0.36455 0.0
C582 C 0.34419 0.1652 0.51488 0.0
C583 C 0.3219 0.12826 0.54001 0.0
C584 C 0.3209 0.14081 0.56361 0.0
C585 C 0.33681 0.16451 0.56578 0.0
C586 C 0.34895 0.17668 0.54142 0.0
C587 C 0.33205 0.14056 0.51447 0.0
Co588 Co 0.3421 0.19831 0.4724 0.0
N589 N 0.34823 0.21605 0.50779 0.0
N590 N 0.3124 0.18003 0.48645 0.0
C591 C 0.30827 0.1853 0.51245 0.0
C592 C 0.28726 0.16987 0.52593 0.0
C593 C 0.2716 0.14922 0.51126 0.0
C594 C 0.27734 0.14423 0.48402 0.0
C595 C 0.29878 0.1604 0.47207 0.0
N596 N 0.33102 0.17716 0.4395 0.0
N597 N 0.33602 0.22154 0.45421 0.0
N598 N 0.35332 0.17869 0.48916 0.0
O599 O 0.36768 0.28759 0.32089 0.0
O600 O 0.3375 0.28147 0.34699 0.0
C601 C 0.31952 0.28638 0.42552 0.0
O602 O 0.31427 0.27334 0.40364 0.0
O603 O 0.34085 0.29722 0.43279 0.0
C604 C 0.4102 0.33301 0.37659 0.0
O605 O 0.38824 0.323 0.38137 0.0
O606 O 0.4197 0.32055 0.37447 0.0
C607 C 0.3283 0.20629 0.52418 0.0
O608 O 0.3277 0.21407 0.54987 0.0
O609 O 0.35137 0.2441 0.37909 0.0
O610 O 0.38423 0.24917 0.36071 0.0
C611 C 0.30925 0.15885 0.44499 0.0
O612 O 0.29733 0.14274 0.42577 0.0
C613 C 0.34062 0.18234 0.41126 0.0
C614 C 0.34049 0.20039 0.39663 0.0
C615 C 0.35541 0.21086 0.37361 0.0
C616 C 0.36535 0.19899 0.36013 0.0
C617 C 0.36132 0.17753 0.37128 0.0
C618 C 0.35028 0.17 0.39812 0.0
C619 C 0.34733 0.28475 0.32275 0.0
O620 O 0.35963 0.26107 0.43677 0.0
C621 C 0.36344 0.23563 0.36865 0.0
C622 C 0.368 0.23837 0.51478 0.0
C623 C 0.39041 0.24136 0.51748 0.0
C624 C 0.40853 0.26202 0.52876 0.0
C625 C 0.40433 0.27957 0.53835 0.0
C626 C 0.38175 0.2765 0.53683 0.0
C627 C 0.36418 0.25645 0.52342 0.0
C628 C 0.37561 0.18618 0.47996 0.0
O629 O 0.38817 0.17754 0.49032 0.0
H630 H 0.42134 0.21459 0.45506 0.0
H631 H 0.43283 0.25189 0.42913 0.0
H632 H 0.40401 0.26558 0.42262 0.0
H633 H 0.33048 0.25535 0.4794 0.0
H634 H 0.25687 0.22327 0.46606 0.0
H635 H 0.2937 0.19029 0.43373 0.0
H636 H 0.31194 0.13146 0.58288 0.0
H637 H 0.36198 0.1949 0.54314 0.0
H638 H 0.33183 0.13137 0.49521 0.0
H639 H 0.28329 0.1733 0.54722 0.0
H640 H 0.25528 0.13689 0.52122 0.0
H641 H 0.26564 0.12818 0.47306 0.0
H642 H 0.33042 0.20774 0.40498 0.0
H643 H 0.37602 0.20626 0.3412 0.0
H644 H 0.34873 0.15459 0.40826 0.0
H645 H 0.39377 0.22742 0.5126 0.0
H646 H 0.41845 0.29475 0.54846 0.0
H647 H 0.34682 0.25398 0.52158 0.0
C648 C 0.80203 0.18068 0.46183 0.0
C649 C 0.79097 0.19189 0.44954 0.0
C650 C 0.76949 0.178 0.43526 0.0
C651 C 0.75949 0.1535 0.43369 0.0
C652 C 0.77153 0.14354 0.44653 0.0
N653 N 0.79159 0.15753 0.45981 0.0
C654 C 0.76553 0.1189 0.4471 0.0
C655 C 0.78021 0.09244 0.46205 0.0
C656 C 0.76212 0.07549 0.47888 0.0
C657 C 0.76052 0.05389 0.48351 0.0
C658 C 0.77664 0.04887 0.47095 0.0
C659 C 0.79437 0.06545 0.45367 0.0
C660 C 0.79616 0.08715 0.44923 0.0
Cd661 Cd 0.7221 0.07793 0.39915 0.0
Cd662 Cd 0.72383 0.10045 0.34526 0.0
C663 C 0.84412 0.18007 0.5148 0.0
C664 C 0.88325 0.19619 0.5346 0.0
C665 C 0.87369 0.19066 0.56213 0.0
C666 C 0.84972 0.18007 0.56638 0.0
C667 C 0.83496 0.17532 0.54276 0.0
C668 C 0.86842 0.19096 0.51081 0.0
Co669 Co 0.80728 0.14392 0.4754 0.0
N670 N 0.78961 0.13466 0.511 0.0
N671 N 0.82373 0.13084 0.49047 0.0
C672 C 0.81784 0.12202 0.5167 0.0
C673 C 0.83131 0.11383 0.53002 0.0
C674 C 0.85082 0.11588 0.51502 0.0
C675 C 0.85652 0.12605 0.48745 0.0
C676 C 0.84221 0.13381 0.47554 0.0
N677 N 0.82764 0.15103 0.44238 0.0
N678 N 0.78269 0.11508 0.45829 0.0
N679 N 0.82879 0.17478 0.49063 0.0
O680 O 0.71695 0.06788 0.31659 0.0
O681 O 0.71759 0.05302 0.35837 0.0
C682 C 0.71647 0.03959 0.43282 0.0
O683 O 0.73017 0.04712 0.41147 0.0
O684 O 0.70549 0.05022 0.43899 0.0
C685 C 0.67527 0.08544 0.37337 0.0
O686 O 0.68311 0.07578 0.39033 0.0
O687 O 0.68865 0.09996 0.35486 0.0
C688 C 0.79799 0.12356 0.52813 0.0
O689 O 0.78945 0.11563 0.55371 0.0
O690 O 0.7592 0.11223 0.38312 0.0
O691 O 0.76218 0.13332 0.34543 0.0
C692 C 0.8444 0.14523 0.44778 0.0
O693 O 0.85968 0.14732 0.42835 0.0
C694 C 0.82326 0.15689 0.41452 0.0
C695 C 0.80488 0.13996 0.39872 0.0
C696 C 0.79576 0.14607 0.37547 0.0
C697 C 0.80824 0.1689 0.3646 0.0
C698 C 0.82854 0.18573 0.37871 0.0
C699 C 0.83546 0.17978 0.40437 0.0
C700 C 0.71553 0.05119 0.33135 0.0
O701 O 0.74339 0.10154 0.44205 0.0
C702 C 0.7716 0.12942 0.36666 0.0
C703 C 0.76783 0.13385 0.51668 0.0
C704 C 0.76602 0.15405 0.51532 0.0
C705 C 0.74532 0.15338 0.52299 0.0
C706 C 0.72663 0.13287 0.53357 0.0
C707 C 0.72881 0.11302 0.5369 0.0
C708 C 0.74874 0.11319 0.52689 0.0
C709 C 0.82327 0.19061 0.47967 0.0
O710 O 0.8341 0.21251 0.48786 0.0
H711 H 0.79845 0.21058 0.45109 0.0
H712 H 0.76058 0.18621 0.4255 0.0
H713 H 0.74318 0.14289 0.42259 0.0
H714 H 0.74928 0.07891 0.4884 0.0
H715 H 0.77527 0.03209 0.4744 0.0
H716 H 0.80986 0.09964 0.43557 0.0
H717 H 0.88503 0.19439 0.58052 0.0
H718 H 0.81646 0.16801 0.54624 0.0
H719 H 0.87563 0.19515 0.48941 0.0
H720 H 0.82719 0.10643 0.55129 0.0
H721 H 0.86164 0.10983 0.52486 0.0
H722 H 0.8716 0.12791 0.4761 0.0
H723 H 0.79638 0.12215 0.40617 0.0
H724 H 0.80158 0.17393 0.34641 0.0
H725 H 0.84994 0.19291 0.41668 0.0
H726 H 0.78085 0.17064 0.51009 0.0
H727 H 0.71139 0.13312 0.5415 0.0
H728 H 0.75029 0.09782 0.52999 0.0
C729 C 0.5156 0.05046 0.20754 0.0
C730 C 0.52616 0.07305 0.21875 0.0
C731 C 0.5117 0.08039 0.23206 0.0
C732 C 0.48729 0.06533 0.23376 0.0
C733 C 0.47798 0.04304 0.22197 0.0
N734 N 0.4925 0.03717 0.20963 0.0
C735 C 0.4535 0.02408 0.22144 0.0
C736 C 0.42754 0.9828 0.20724 0.0
C737 C 0.40948 0.98396 0.19285 0.0
C738 C 0.38754 0.96408 0.19001 0.0
C739 C 0.38327 0.94298 0.20189 0.0
C740 C 0.40091 0.9418 0.21687 0.0
C741 C 0.42293 0.96162 0.2196 0.0
Cd742 Cd 0.41185 0.02522 0.27133 0.0
Cd743 Cd 0.44496 0.05826 0.34751 0.0
C744 C 0.5168 0.00729 0.15747 0.0
C745 C 0.52888 0.98078 0.13825 0.0
C746 C 0.52614 0.98709 0.11054 0.0
C747 C 0.51978 0.00401 0.10593 0.0
C748 C 0.51571 0.01456 0.12949 0.0
C749 C 0.52406 0.99084 0.16187 0.0
Co750 Co 0.47976 0.00761 0.19495 0.0
N751 N 0.47163 0.01525 0.15795 0.0
N752 N 0.4676 0.97789 0.18063 0.0
C753 C 0.461 0.97495 0.1533 0.0
C754 C 0.45559 0.95398 0.13984 0.0
C755 C 0.45801 0.93718 0.15586 0.0
C756 C 0.46614 0.94178 0.18442 0.0
C757 C 0.47134 0.9632 0.19634 0.0
N758 N 0.4865 0.99519 0.22926 0.0
N759 N 0.45014 0.00321 0.2104 0.0
N760 N 0.51114 0.01724 0.18133 0.0
O761 O 0.40997 0.02757 0.36835 0.0
O762 O 0.40402 0.02056 0.32263 0.0
C763 C 0.3702 0.98944 0.24544 0.0
O764 O 0.38022 0.98437 0.26508 0.0
O765 O 0.37921 0.01079 0.23891 0.0
C766 C 0.41762 0.07729 0.29498 0.0
O767 O 0.41075 0.06231 0.2748 0.0
O768 O 0.42794 0.07521 0.31673 0.0
C769 C 0.46261 0.99597 0.1406 0.0
O770 O 0.45606 0.99632 0.11412 0.0
O771 O 0.44594 0.02441 0.28829 0.0
O772 O 0.46702 0.0415 0.32689 0.0
C773 C 0.48182 0.97292 0.22438 0.0
O774 O 0.48423 0.96032 0.24437 0.0
C775 C 0.49153 0.0055 0.25713 0.0
C776 C 0.47429 0.0076 0.27131 0.0
C777 C 0.47938 0.02118 0.29591 0.0
C778 C 0.50078 0.02869 0.30971 0.0
C779 C 0.51742 0.02396 0.2976 0.0
C780 C 0.51321 0.0133 0.27048 0.0
C781 C 0.39678 0.01522 0.34819 0.0
O782 O 0.43577 0.02813 0.22776 0.0
C783 C 0.46296 0.02888 0.3048 0.0
C784 C 0.46821 0.03459 0.1519 0.0
C785 C 0.48668 0.05758 0.15364 0.0
C786 C 0.48274 0.07615 0.14892 0.0
C787 C 0.46049 0.0719 0.14167 0.0
C788 C 0.44219 0.04893 0.13819 0.0
C789 C 0.44613 0.03043 0.14342 0.0
C790 C 0.52629 0.0392 0.19111 0.0
O791 O 0.54823 0.05066 0.18299 0.0
H792 H 0.54478 0.08467 0.21712 0.0
H793 H 0.51939 0.09775 0.24096 0.0
H794 H 0.47622 0.07087 0.24404 0.0
H795 H 0.41222 1.00019 0.18399 0.0
H796 H 0.36624 0.92764 0.1998 0.0
H797 H 0.43607 0.96047 0.23201 0.0
H798 H 0.53017 0.97961 0.09229 0.0
H799 H 0.51119 0.02801 0.12611 0.0
H800 H 0.52596 0.986 0.18342 0.0
H801 H 0.45035 0.95091 0.11761 0.0
H802 H 0.45418 0.9209 0.14593 0.0
H803 H 0.46881 0.9293 0.19637 0.0
H804 H 0.45694 0.99927 0.26247 0.0
H805 H 0.50467 0.03839 0.32956 0.0
H806 H 0.52638 0.01069 0.26015 0.0
H807 H 0.50419 0.06125 0.15804 0.0
H808 H 0.45782 0.0865 0.13766 0.0
H809 H 0.43195 0.01273 0.1408 0.0
C810 C 0.95119 0.46043 0.20457 0.0
C811 C 0.92864 0.44809 0.21589 0.0
C812 C 0.92227 0.42718 0.23089 0.0
C813 C 0.93823 0.41899 0.23408 0.0
C814 C 0.96046 0.43228 0.2222 0.0
N815 N 0.96542 0.45182 0.20834 0.0
C816 C 0.98011 0.42775 0.22268 0.0
C817 C 0.02147 0.44393 0.20771 0.0
C818 C 0.02063 0.42465 0.19397 0.0
C819 C 0.04103 0.42372 0.18963 0.0
C820 C 0.06237 0.44179 0.19937 0.0
C821 C 0.06329 0.46067 0.21379 0.0
C822 C 0.04293 0.46171 0.21804 0.0
Cd823 Cd 0.98023 0.38474 0.27154 0.0
Cd824 Cd 0.9522 0.38377 0.30312 0.0
C825 C 0.99547 0.50701 0.15656 0.0
C826 C 0.01435 0.54835 0.14597 0.0
C827 C 0.01632 0.54353 0.11732 0.0
C828 C 0.00566 0.52054 0.10723 0.0
C829 C 0.99539 0.50219 0.12714 0.0
C830 C 0.0043 0.53004 0.16568 0.0
Co831 Co 0.99483 0.46893 0.19322 0.0
N832 N 0.98774 0.45125 0.15777 0.0
N833 N 0.02434 0.48674 0.1784 0.0
C834 C 0.02773 0.48145 0.15202 0.0
C835 C 0.04876 0.49642 0.13824 0.0
C836 C 0.06516 0.5167 0.15296 0.0
C837 C 0.06013 0.52183 0.18053 0.0
C838 C 0.03865 0.50612 0.19281 0.0
N839 N 0.00673 0.49027 0.22593 0.0
N840 N 1.00072 0.4455 0.21132 0.0
N841 N 0.98364 0.48847 0.17682 0.0
O842 O 0.96409 0.36961 0.3431 0.0
O843 O 0.99689 0.38504 0.3189 0.0
C844 C 0.0129 0.37705 0.2402 0.0
O845 O 0.01938 0.39221 0.25992 0.0
O846 O 0.99116 0.36534 0.23515 0.0
C847 C 0.9216 0.33895 0.28703 0.0
O848 O 0.9431 0.345 0.28363 0.0
O849 O 0.91594 0.35461 0.28677 0.0
C850 C 0.00712 0.46087 0.14051 0.0
O851 O 0.00705 0.4527 0.11485 0.0
O852 O 0.98549 0.42367 0.2849 0.0
O853 O 0.95729 0.42067 0.31254 0.0
C854 C 0.02877 0.50801 0.22021 0.0
O855 O 0.04121 0.52406 0.23927 0.0
C856 C 0.99725 0.48558 0.25425 0.0
C857 C 0.99804 0.46813 0.26955 0.0
C858 C 0.98328 0.45778 0.29276 0.0
C859 C 0.97204 0.46887 0.30497 0.0
C860 C 0.97422 0.4893 0.29252 0.0
C861 C 0.98618 0.49708 0.26616 0.0
C862 C 0.98556 0.37602 0.34181 0.0
O863 O 0.97655 0.4061 0.22876 0.0
C864 C 0.97595 0.43327 0.29889 0.0
C865 C 0.96803 0.42866 0.1522 0.0
C866 C 0.94538 0.42527 0.15117 0.0
C867 C 0.92659 0.40355 0.14377 0.0
C868 C 0.93035 0.38524 0.13656 0.0
C869 C 0.95305 0.38871 0.13656 0.0
C870 C 0.97167 0.41019 0.14488 0.0
C871 C 0.9616 0.48148 0.18652 0.0
O872 O 0.94984 0.49162 0.17823 0.0
H873 H 0.91633 0.45416 0.21302 0.0
H874 H 0.90495 0.41726 0.23987 0.0
H875 H 0.9334 0.40301 0.24555 0.0
H876 H 0.0043 0.41032 0.18657 0.0
H877 H 0.07814 0.44106 0.19594 0.0
H878 H 0.04396 0.47623 0.22977 0.0
H879 H 0.02404 0.55784 0.10217 0.0
H880 H 0.98614 0.48435 0.11969 0.0
H881 H 1.00237 0.53355 0.18785 0.0
H882 H 0.05221 0.49291 0.11673 0.0
H883 H 0.08152 0.52866 0.14279 0.0
H884 H 0.07237 0.53766 0.1915 0.0
H885 H 0.00829 0.46091 0.26129 0.0
H886 H 0.96138 0.46137 0.32384 0.0
H887 H 0.98639 0.51141 0.25473 0.0
H888 H 0.94222 0.43954 0.15467 0.0
H889 H 0.91574 0.36876 0.12981 0.0
H890 H 0.98923 0.41302 0.14373 0.0
C891 C 0.54218 0.49363 0.20587 0.0
C892 C 0.55309 0.48251 0.21876 0.0
C893 C 0.575 0.49659 0.23199 0.0
C894 C 0.58549 0.52116 0.23203 0.0
C895 C 0.57355 0.53101 0.21864 0.0
N896 N 0.55311 0.51685 0.20628 0.0
C897 C 0.57969 0.55564 0.21744 0.0
C898 C 0.56538 0.58212 0.20127 0.0
C899 C 0.58333 0.59825 0.18359 0.0
C900 C 0.58488 0.61959 0.17719 0.0
C901 C 0.56872 0.62506 0.18866 0.0
C902 C 0.55127 0.60939 0.20702 0.0
C903 C 0.54967 0.58804 0.21343 0.0
Cd904 Cd 0.61883 0.59342 0.27004 0.0
Cd905 Cd 0.61816 0.55757 0.3445 0.0
C906 C 0.49847 0.49273 0.15476 0.0
C907 C 0.45824 0.47261 0.13741 0.0
C908 C 0.4668 0.47555 0.10933 0.0
C909 C 0.49064 0.48652 0.10375 0.0
C910 C 0.50646 0.49452 0.12649 0.0
C911 C 0.47437 0.48172 0.16015 0.0
Co912 Co 0.53705 0.53028 0.19102 0.0
N913 N 0.55291 0.53766 0.15412 0.0
N914 N 0.52018 0.5431 0.17617 0.0
C915 C 0.52413 0.54957 0.14884 0.0
C916 C 0.50916 0.55569 0.1351 0.0
C917 C 0.49026 0.55422 0.15093 0.0
C918 C 0.48646 0.54636 0.1796 0.0
C919 C 0.5021 0.54044 0.19181 0.0
N920 N 0.51821 0.5249 0.22517 0.0
N921 N 0.56256 0.55948 0.20616 0.0
N922 N 0.51459 0.49896 0.17815 0.0
O923 O 0.62173 0.59236 0.36557 0.0
O924 O 0.62242 0.60289 0.32098 0.0
C925 C 0.61714 0.63342 0.24948 0.0
O926 O 0.60129 0.61827 0.26547 0.0
O927 O 0.63419 0.63037 0.24373 0.0
C928 C 0.6656 0.58921 0.29344 0.0
O929 O 0.65836 0.59683 0.27304 0.0
O930 O 0.65195 0.57773 0.31377 0.0
C931 C 0.54319 0.54717 0.1365 0.0
O932 O 0.54946 0.55239 0.10959 0.0
O933 O 0.58635 0.55672 0.2883 0.0
O934 O 0.57941 0.53268 0.32431 0.0
C935 C 0.50109 0.53025 0.22009 0.0
O936 O 0.48581 0.52782 0.2397 0.0
C937 C 0.52177 0.51713 0.25221 0.0
C938 C 0.54152 0.53166 0.26776 0.0
C939 C 0.54872 0.52307 0.29048 0.0
C940 C 0.53385 0.50004 0.30011 0.0
C941 C 0.51224 0.48564 0.28626 0.0
C942 C 0.50663 0.49462 0.26196 0.0
C943 C 0.62428 0.60776 0.34748 0.0
O944 O 0.60151 0.57295 0.22396 0.0
C945 C 0.57251 0.5382 0.30187 0.0
C946 C 0.57425 0.53809 0.14686 0.0
C947 C 0.57599 0.51788 0.14862 0.0
C948 C 0.59581 0.51785 0.13851 0.0
C949 C 0.61369 0.53769 0.12549 0.0
C950 C 0.6117 0.55768 0.12236 0.0
C951 C 0.59257 0.55815 0.13423 0.0
C952 C 0.5202 0.48333 0.18957 0.0
O953 O 0.50857 0.46106 0.18306 0.0
H954 H 0.54511 0.46373 0.21859 0.0
H955 H 0.58379 0.48847 0.24229 0.0
H956 H 0.60203 0.53193 0.2426 0.0
H957 H 0.59593 0.59426 0.1745 0.0
H958 H 0.56992 0.64156 0.18367 0.0
H959 H 0.53625 0.57624 0.22792 0.0
H960 H 0.45492 0.46809 0.09142 0.0
H961 H 0.52478 0.50122 0.12224 0.0
H962 H 0.46835 0.47956 0.18207 0.0
H963 H 0.51157 0.56083 0.11283 0.0
H964 H 0.47828 0.55865 0.14079 0.0
H965 H 0.4716 0.54452 0.19147 0.0
H966 H 0.5519 0.5496 0.26107 0.0
H967 H 0.53936 0.49325 0.31767 0.0
H968 H 0.49063 0.48432 0.25016 0.0
H969 H 0.56163 0.50171 0.15606 0.0
H970 H 0.62838 0.53697 0.11644 0.0
H971 H 0.59097 0.57352 0.13133 0.0
C972 C 0.49452 0.95079 0.80356 0.0
C973 C 0.48405 0.92755 0.79468 0.0
C974 C 0.4982 0.92012 0.78069 0.0
C975 C 0.52225 0.93573 0.77612 0.0
C976 C 0.53148 0.95867 0.78565 0.0
N977 N 0.51724 0.96458 0.79861 0.0
C978 C 0.55557 0.97833 0.7833 0.0
C979 C 0.58043 0.02099 0.79222 0.0
C980 C 0.5992 0.02303 0.80846 0.0
C981 C 0.61992 0.04439 0.81029 0.0
C982 C 0.62226 0.06373 0.79545 0.0
C983 C 0.60386 0.06173 0.77875 0.0
C984 C 0.58302 0.04047 0.77714 0.0
Cd985 Cd 0.59617 0.97805 0.73375 0.0
Cd986 Cd 0.56721 0.94533 0.67302 0.0
C987 C 0.49515 0.99654 0.85143 0.0
C988 C 0.47294 0.01382 0.87008 0.0
C989 C 0.48623 0.01991 0.89514 0.0
C990 C 0.50197 0.01211 0.89992 0.0
C991 C 0.50545 0.99934 0.87858 0.0
C992 C 0.47805 0.003 0.84764 0.0
Co993 Co 0.53009 0.99474 0.81089 0.0
N994 N 0.54291 0.99001 0.8462 0.0
N995 N 0.5425 0.025 0.82281 0.0
C996 C 0.5545 0.03071 0.8472 0.0
C997 C 0.56289 0.0532 0.85798 0.0
C998 C 0.55812 0.06863 0.84225 0.0
C999 C 0.54513 0.06138 0.81651 0.0
C1000 C 0.53712 0.03855 0.80723 0.0
N1001 N 0.51918 0.00449 0.77734 0.0
N1002 N 0.55848 0.9996 0.7919 0.0
N1003 N 0.5 0.98474 0.82893 0.0
O1004 O 0.60215 0.97518 0.64972 0.0
O1005 O 0.61676 0.99438 0.68995 0.0
C1006 C 0.63509 0.01391 0.76363 0.0
O1007 O 0.62598 0.01852 0.74245 0.0
O1008 O 0.62579 0.99267 0.77114 0.0
C1009 C 0.59277 0.92454 0.71213 0.0
O1010 O 0.60246 0.94464 0.72372 0.0
O1011 O 0.57392 0.91722 0.69819 0.0
C1012 C 0.55566 0.011 0.85997 0.0
O1013 O 0.56628 0.0129 0.88444 0.0
O1014 O 0.56017 0.9765 0.71754 0.0
O1015 O 0.53746 0.95539 0.68233 0.0
C1016 C 0.52376 0.02688 0.7812 0.0
O1017 O 0.5196 0.03825 0.76114 0.0
C1018 C 0.51337 0.99335 0.74977 0.0
C1019 C 0.53045 0.99151 0.73487 0.0
C1020 C 0.52505 0.97718 0.71099 0.0
C1021 C 0.50315 0.96875 0.69799 0.0
C1022 C 0.48653 0.97377 0.70998 0.0
C1023 C 0.49136 0.98509 0.73694 0.0
C1024 C 0.61819 0.99235 0.66317 0.0
O1025 O 0.57363 0.97471 0.77779 0.0
C1026 C 0.542 0.96997 0.70226 0.0
C1027 C 0.54297 0.96919 0.85479 0.0
C1028 C 0.52199 0.94838 0.85924 0.0
C1029 C 0.52213 0.92805 0.86666 0.0
C1030 C 0.54321 0.92844 0.87056 0.0
C1031 C 0.56441 0.94946 0.86799 0.0
C1032 C 0.56413 0.96972 0.85992 0.0
C1033 C 0.48448 0.96239 0.82068 0.0
O1034 O 0.4632 0.9509 0.83105 0.0
H1035 H 0.46579 0.9155 0.79869 0.0
H1036 H 0.49057 0.90225 0.77358 0.0
H1037 H 0.53307 0.93009 0.76541 0.0
H1038 H 0.59787 0.00823 0.81977 0.0
H1039 H 0.63838 0.08019 0.79674 0.0
H1040 H 0.56903 0.03929 0.76405 0.0
H1041 H 0.48211 0.02811 0.91252 0.0
H1042 H 0.51534 0.99092 0.88366 0.0
H1043 H 0.46786 0.99831 0.82813 0.0
H1044 H 0.57246 0.05859 0.87792 0.0
H1045 H 0.56437 0.08613 0.85008 0.0
H1046 H 0.54146 0.07315 0.80449 0.0
H1047 H 0.54811 1.00081 0.74243 0.0
H1048 H 0.49902 0.95833 0.67874 0.0
H1049 H 0.47851 0.98807 0.74746 0.0
H1050 H 0.5055 0.94787 0.85785 0.0
H1051 H 0.54286 0.91256 0.87699 0.0
H1052 H 0.5804 0.98595 0.85807 0.0
C1053 C 0.05098 0.5385 0.79668 0.0
C1054 C 0.07327 0.54974 0.78452 0.0
C1055 C 0.08009 0.57039 0.76868 0.0
C1056 C 0.0648 0.57937 0.76541 0.0
C1057 C 0.04278 0.56716 0.7781 0.0
N1058 N 0.03744 0.54791 0.79293 0.0
C1059 C 0.02359 0.57241 0.77727 0.0
C1060 C 0.98258 0.55764 0.79278 0.0
C1061 C 0.98378 0.57701 0.80668 0.0
C1062 C 0.96364 0.5785 0.81063 0.0
C1063 C 0.94224 0.56094 0.80028 0.0
C1064 C 0.94099 0.54193 0.7858 0.0
C1065 C 0.96107 0.54028 0.78201 0.0
Cd1066 Cd 0.02331 0.61412 0.72567 0.0
Cd1067 Cd 0.05128 0.61267 0.6953 0.0
C1068 C 0.0081 0.49571 0.84925 0.0
C1069 C 0.98939 0.45558 0.86672 0.0
C1070 C 0.99171 0.46401 0.89489 0.0
C1071 C 1.00211 0.4879 0.90058 0.0
C1072 C 0.01087 0.50368 0.87757 0.0
C1073 C 0.99734 0.4717 0.84392 0.0
Co1074 Co 0.00829 0.53212 0.80901 0.0
N1075 N 0.01657 0.55128 0.84346 0.0
N1076 N 0.97899 0.51568 0.8247 0.0
C1077 C 0.97613 0.52249 0.85041 0.0
C1078 C 0.95495 0.50891 0.86462 0.0
C1079 C 0.9378 0.48839 0.85096 0.0
C1080 C 0.94217 0.48176 0.82392 0.0
C1081 C 0.96382 0.49617 0.81115 0.0
N1082 N 0.99518 0.50992 0.77751 0.0
N1083 N 0.003 0.55548 0.78963 0.0
N1084 N 0.01874 0.51207 0.82617 0.0
O1085 O 0.03499 0.61715 0.65174 0.0
O1086 O 0.00712 0.61567 0.67872 0.0
C1087 C 0.99031 0.62154 0.75755 0.0
O1088 O 0.98383 0.60683 0.73727 0.0
O1089 O 0.01204 0.63282 0.76285 0.0
C1090 C 0.081 0.66112 0.70499 0.0
O1091 O 0.05975 0.65438 0.71159 0.0
O1092 O 0.08726 0.64598 0.70286 0.0
C1093 C 0.99723 0.54328 0.86065 0.0
O1094 O 0.99744 0.55359 0.88477 0.0
O1095 O 0.01851 0.57424 0.71346 0.0
O1096 O 0.04921 0.57663 0.69191 0.0
C1097 C 0.97297 0.49294 0.7839 0.0
O1098 O 0.95991 0.47647 0.76561 0.0
C1099 C 0.00489 0.51309 0.74948 0.0
C1100 C 0.00511 0.53024 0.73241 0.0
C1101 C 0.02087 0.53965 0.70983 0.0
C1102 C 0.0321 0.52763 0.69992 0.0
C1103 C 0.02898 0.50758 0.7145 0.0
C1104 C 0.01624 0.50117 0.74033 0.0
C1105 C 0.01608 0.6174 0.65414 0.0
O1106 O 0.02756 0.59399 0.76971 0.0
C1107 C 0.02915 0.56428 0.70267 0.0
C1108 C 0.03721 0.57349 0.84805 0.0
C1109 C 0.05938 0.57563 0.84819 0.0
C1110 C 0.07921 0.59718 0.85351 0.0
C1111 C 0.07705 0.61663 0.85972 0.0
C1112 C 0.0549 0.6144 0.86125 0.0
C1113 C 0.03518 0.59305 0.85486 0.0
C1114 C 0.04033 0.51798 0.81569 0.0
O1115 O 0.05184 0.50773 0.82454 0.0
H1116 H 0.08508 0.54303 0.78735 0.0
H1117 H 0.09724 0.57945 0.75905 0.0
H1118 H 0.06994 0.59509 0.75319 0.0
H1119 H 1.00021 0.59095 0.81445 0.0
H1120 H 0.9267 0.56219 0.80326 0.0
H1121 H 0.9598 0.52563 0.77035 0.0
H1122 H 0.98573 0.45198 0.9127 0.0
H1123 H 0.02042 0.5222 0.88174 0.0
H1124 H 0.99577 0.46577 0.82202 0.0
H1125 H 0.95188 0.51366 0.88565 0.0
H1126 H 0.92129 0.47748 0.86149 0.0
H1127 H 0.92925 0.46587 0.81367 0.0
H1128 H 0.99521 0.53829 0.73925 0.0
H1129 H 0.04411 0.53445 0.68207 0.0
H1130 H 0.01539 0.48726 0.75343 0.0
H1131 H 0.06143 0.56061 0.84545 0.0
H1132 H 0.09251 0.633 0.86484 0.0
H1133 H 0.01815 0.59148 0.85649 0.0
C1134 C 0.46688 0.5137 0.79596 0.0
C1135 C 0.45487 0.52439 0.78496 0.0
C1136 C 0.43332 0.51017 0.77099 0.0
C1137 C 0.42416 0.48584 0.76852 0.0
C1138 C 0.4371 0.47637 0.78009 0.0
N1139 N 0.45728 0.49069 0.793 0.0
C1140 C 0.43161 0.45187 0.78015 0.0
C1141 C 0.44705 0.42592 0.79465 0.0
C1142 C 0.42798 0.40811 0.80943 0.0
C1143 C 0.42641 0.38649 0.81365 0.0
C1144 C 0.44358 0.38228 0.80276 0.0
C1145 C 0.46229 0.39966 0.78744 0.0
C1146 C 0.46401 0.42136 0.78335 0.0
Cd1147 Cd 0.38646 0.40818 0.73308 0.0
Cd1148 Cd 0.38733 0.43458 0.69793 0.0
C1149 C 0.51038 0.51405 0.84733 0.0
C1150 C 0.54979 0.53086 0.8664 0.0
C1151 C 0.54055 0.52468 0.89403 0.0
C1152 C 0.51659 0.51351 0.89868 0.0
C1153 C 0.50152 0.50875 0.87541 0.0
C1154 C 0.53466 0.52557 0.84293 0.0
Co1155 Co 0.4738 0.4777 0.80799 0.0
N1156 N 0.45651 0.46791 0.84378 0.0
N1157 N 0.49099 0.46523 0.82258 0.0
C1158 C 0.48525 0.45595 0.84862 0.0
C1159 C 0.49917 0.44814 0.86157 0.0
C1160 C 0.51902 0.45114 0.8465 0.0
C1161 C 0.52462 0.46189 0.81925 0.0
C1162 C 0.50984 0.46921 0.80769 0.0
N1163 N 0.49445 0.48585 0.77471 0.0
N1164 N 0.44923 0.44848 0.79095 0.0
N1165 N 0.49475 0.5086 0.82348 0.0
O1166 O 0.37756 0.40904 0.65782 0.0
O1167 O 0.38332 0.38726 0.68852 0.0
C1168 C 0.38057 0.36876 0.7654 0.0
O1169 O 0.39374 0.37627 0.74361 0.0
O1170 O 0.37001 0.37964 0.77241 0.0
C1171 C 0.34072 0.42039 0.71243 0.0
O1172 O 0.34618 0.40502 0.7196 0.0
O1173 O 0.35694 0.44126 0.70943 0.0
C1174 C 0.46511 0.45677 0.86039 0.0
O1175 O 0.45663 0.44837 0.88585 0.0
O1176 O 0.42571 0.44131 0.71758 0.0
O1177 O 0.42379 0.46694 0.68945 0.0
C1178 C 0.5118 0.48088 0.78018 0.0
O1179 O 0.52717 0.48337 0.76067 0.0
C1180 C 0.48934 0.49019 0.74636 0.0
C1181 C 0.4708 0.47218 0.73217 0.0
C1182 C 0.46072 0.4767 0.70877 0.0
C1183 C 0.47303 0.49838 0.69505 0.0
C1184 C 0.49476 0.51573 0.70588 0.0
C1185 C 0.50214 0.51199 0.73284 0.0
C1186 C 0.37895 0.39107 0.66328 0.0
O1187 O 0.40952 0.43418 0.77482 0.0
C1188 C 0.43588 0.46033 0.70327 0.0
C1189 C 0.43483 0.46699 0.85011 0.0
C1190 C 0.43332 0.48733 0.85134 0.0
C1191 C 0.41243 0.48622 0.85913 0.0
C1192 C 0.39309 0.46492 0.86659 0.0
C1193 C 0.39469 0.44457 0.86657 0.0
C1194 C 0.41537 0.44568 0.85771 0.0
C1195 C 0.48834 0.52402 0.8134 0.0
O1196 O 0.49856 0.54577 0.82216 0.0
H1197 H 0.46166 0.54292 0.78732 0.0
H1198 H 0.42367 0.51797 0.76228 0.0
H1199 H 0.4077 0.47495 0.75784 0.0
H1200 H 0.41428 0.4108 0.81763 0.0
H1201 H 0.44227 0.36549 0.80593 0.0
H1202 H 0.47837 0.43438 0.77096 0.0
H1203 H 0.55214 0.52845 0.91217 0.0
H1204 H 0.48302 0.50099 0.87925 0.0
H1205 H 0.54161 0.5302 0.82145 0.0
H1206 H 0.49514 0.44032 0.88262 0.0
H1207 H 0.53019 0.4454 0.85605 0.0
H1208 H 0.53996 0.46447 0.80785 0.0
H1209 H 0.46287 0.45491 0.74111 0.0
H1210 H 0.46561 0.50184 0.67629 0.0
H1211 H 0.51777 0.52552 0.74297 0.0
H1212 H 0.44841 0.50416 0.84761 0.0
H1213 H 0.37725 0.46449 0.87342 0.0
H1214 H 0.41684 0.43015 0.85861 0.0
C1215 C 0.17696 0.38589 0.54135 0.0
C1216 C 0.18745 0.40828 0.55312 0.0
C1217 C 0.17292 0.41537 0.56679 0.0
C1218 C 0.14851 0.40024 0.56831 0.0
C1219 C 0.13929 0.37813 0.55603 0.0
N1220 N 0.15385 0.37255 0.54331 0.0
C1221 C 0.11496 0.35892 0.55569 0.0
C1222 C 0.08961 0.31716 0.54257 0.0
C1223 C 0.07149 0.3173 0.52711 0.0
C1224 C 0.05036 0.29667 0.52298 0.0
C1225 C 0.04699 0.27584 0.53475 0.0
C1226 C 0.06456 0.27573 0.55117 0.0
C1227 C 0.08575 0.29632 0.55519 0.0
Cd1228 Cd 0.07552 0.35986 0.60541 0.0
Cd1229 Cd 0.11345 0.39912 0.6803 0.0
C1230 C 0.1789 0.34328 0.49076 0.0
C1231 C 0.20002 0.3243 0.47262 0.0
C1232 C 0.19408 0.32728 0.44467 0.0
C1233 C 0.18075 0.33786 0.43954 0.0
C1234 C 0.17415 0.34686 0.46245 0.0
C1235 C 0.19192 0.33208 0.49574 0.0
Co1236 Co 0.14126 0.34294 0.52892 0.0
N1237 N 0.13175 0.34987 0.49234 0.0
N1238 N 0.12938 0.31321 0.51503 0.0
C1239 C 0.12135 0.30954 0.48831 0.0
C1240 C 0.11515 0.28815 0.47544 0.0
C1241 C 0.11827 0.27175 0.49139 0.0
C1242 C 0.1277 0.27705 0.51936 0.0
C1243 C 0.13357 0.29883 0.53073 0.0
N1244 N 0.1488 0.33116 0.56314 0.0
N1245 N 0.11189 0.33799 0.54536 0.0
N1246 N 0.17257 0.35308 0.51427 0.0
O1247 O 0.07815 0.36851 0.70256 0.0
O1248 O 0.06948 0.35772 0.65785 0.0
C1249 C 0.03531 0.31721 0.5878 0.0
O1250 O 0.05138 0.3173 0.60273 0.0
O1251 O 0.03759 0.33691 0.58175 0.0
C1252 C 0.08241 0.40669 0.62613 0.0
O1253 O 0.07079 0.39594 0.60415 0.0
O1254 O 0.09508 0.39919 0.63648 0.0
C1255 C 0.12189 0.33012 0.4757 0.0
O1256 O 0.11436 0.32989 0.44959 0.0
O1257 O 0.11234 0.36412 0.62645 0.0
O1258 O 0.13592 0.38125 0.66324 0.0
C1259 C 0.14452 0.309 0.55845 0.0
O1260 O 0.14777 0.29688 0.57835 0.0
C1261 C 0.15535 0.34239 0.59051 0.0
C1262 C 0.13929 0.34565 0.60613 0.0
C1263 C 0.14625 0.36032 0.63006 0.0
C1264 C 0.16893 0.36874 0.64105 0.0
C1265 C 0.18476 0.36377 0.6269 0.0
C1266 C 0.17798 0.35112 0.6011 0.0
C1267 C 0.06401 0.35431 0.6842 0.0
O1268 O 0.09711 0.36289 0.56087 0.0
C1269 C 0.13052 0.36855 0.64092 0.0
C1270 C 0.12825 0.36927 0.48668 0.0
C1271 C 0.14668 0.39218 0.48911 0.0
C1272 C 0.14257 0.41079 0.4868 0.0
C1273 C 0.12026 0.40679 0.48052 0.0
C1274 C 0.1019 0.38404 0.47508 0.0
C1275 C 0.1061 0.36538 0.47875 0.0
C1276 C 0.18771 0.37486 0.52461 0.0
O1277 O 0.20972 0.38639 0.5168 0.0
H1278 H 0.20609 0.41992 0.5517 0.0
H1279 H 0.18056 0.43257 0.57616 0.0
H1280 H 0.1374 0.40553 0.579 0.0
H1281 H 0.07368 0.33327 0.5182 0.0
H1282 H 0.03064 0.25989 0.53157 0.0
H1283 H 0.09893 0.29596 0.56843 0.0
H1284 H 0.20003 0.32171 0.42633 0.0
H1285 H 0.16543 0.35663 0.4581 0.0
H1286 H 0.19594 0.32985 0.51756 0.0
H1287 H 0.10861 0.2844 0.45373 0.0
H1288 H 0.11379 0.25513 0.48191 0.0
H1289 H 0.13061 0.26474 0.53134 0.0
H1290 H 0.12145 0.33746 0.59886 0.0
H1291 H 0.17468 0.38003 0.65962 0.0
H1292 H 0.1904 0.34844 0.58896 0.0
H1293 H 0.16426 0.39577 0.49267 0.0
H1294 H 0.11771 0.42167 0.47906 0.0
H1295 H 0.09234 0.34776 0.47473 0.0
C1296 C 0.6211 0.79657 0.53615 0.0
C1297 C 0.59946 0.78547 0.54995 0.0
C1298 C 0.59287 0.76432 0.56449 0.0
C1299 C 0.60775 0.75469 0.56486 0.0
C1300 C 0.62911 0.76676 0.55058 0.0
N1301 N 0.63428 0.78657 0.53717 0.0
C1302 C 0.64797 0.7611 0.54887 0.0
C1303 C 0.68806 0.77558 0.53012 0.0
C1304 C 0.68569 0.75666 0.51394 0.0
C1305 C 0.70535 0.75506 0.50679 0.0
C1306 C 0.72742 0.77217 0.51599 0.0
C1307 C 0.72981 0.79065 0.53282 0.0
C1308 C 0.71019 0.7923 0.53998 0.0
Cd1309 Cd 0.64804 0.7211 0.60189 0.0
Cd1310 Cd 0.62426 0.72485 0.64462 0.0
C1311 C 0.66307 0.84186 0.4848 0.0
C1312 C 0.67874 0.88293 0.47353 0.0
C1313 C 0.67662 0.87719 0.44448 0.0
C1314 C 0.67118 0.85502 0.43498 0.0
C1315 C 0.66294 0.83697 0.45534 0.0
C1316 C 0.67165 0.86503 0.49381 0.0
Co1317 Co 0.66278 0.80239 0.51937 0.0
N1318 N 0.65273 0.78419 0.48424 0.0
N1319 N 0.69147 0.81877 0.50198 0.0
C1320 C 0.69303 0.81249 0.47542 0.0
C1321 C 0.71367 0.82607 0.46015 0.0
C1322 C 0.73174 0.84599 0.47377 0.0
C1323 C 0.72876 0.8521 0.50181 0.0
C1324 C 0.70756 0.83776 0.51559 0.0
N1325 N 0.67765 0.82386 0.5512 0.0
N1326 N 0.66821 0.77818 0.536 0.0
N1327 N 0.65214 0.82325 0.50532 0.0
O1328 O 0.64694 0.72557 0.68351 0.0
O1329 O 0.66108 0.71414 0.64852 0.0
C1330 C 0.68724 0.72004 0.57708 0.0
O1331 O 0.68953 0.73563 0.59472 0.0
O1332 O 0.6665 0.70475 0.57048 0.0
C1333 C 0.59372 0.67333 0.62681 0.0
O1334 O 0.61109 0.68085 0.60958 0.0
O1335 O 0.59179 0.6874 0.6434 0.0
C1336 C 0.67121 0.79242 0.46553 0.0
O1337 O 0.66903 0.78424 0.43939 0.0
O1338 O 0.64998 0.75872 0.61518 0.0
O1339 O 0.625 0.76061 0.64459 0.0
C1340 C 0.69974 0.84063 0.54396 0.0
O1341 O 0.71368 0.85678 0.56207 0.0
C1342 C 0.66859 0.82112 0.5795 0.0
C1343 C 0.66612 0.80252 0.59536 0.0
C1344 C 0.65173 0.79503 0.6193 0.0
C1345 C 0.64445 0.80977 0.6314 0.0
C1346 C 0.65044 0.83124 0.6181 0.0
C1347 C 0.66128 0.83598 0.5909 0.0
C1348 C 0.65954 0.71743 0.67501 0.0
O1349 O 0.64419 0.73948 0.55589 0.0
C1350 C 0.64256 0.77071 0.62826 0.0
C1351 C 0.63139 0.76272 0.47924 0.0
C1352 C 0.60969 0.76159 0.48106 0.0
C1353 C 0.58939 0.74151 0.47258 0.0
C1354 C 0.59066 0.72282 0.46087 0.0
C1355 C 0.61241 0.7243 0.45744 0.0
C1356 C 0.63239 0.74353 0.46827 0.0
C1357 C 0.6313 0.81758 0.51801 0.0
O1358 O 0.6201 0.82883 0.51226 0.0
H1359 H 0.58795 0.79268 0.54933 0.0
H1360 H 0.57626 0.75539 0.57539 0.0
H1361 H 0.60284 0.73865 0.5762 0.0
H1362 H 0.66876 0.7433 0.50661 0.0
H1363 H 0.74261 0.77092 0.51043 0.0
H1364 H 0.7123 0.80654 0.55332 0.0
H1365 H 0.67957 0.89048 0.42889 0.0
H1366 H 0.6559 0.81924 0.44833 0.0
H1367 H 0.67224 0.86886 0.51642 0.0
H1368 H 0.71564 0.82175 0.4384 0.0
H1369 H 0.74786 0.85687 0.46245 0.0
H1370 H 0.74238 0.86758 0.51207 0.0
H1371 H 0.67394 0.79273 0.58738 0.0
H1372 H 0.6347 0.80465 0.6512 0.0
H1373 H 0.66405 0.851 0.57859 0.0
H1374 H 0.60838 0.77654 0.4871 0.0
H1375 H 0.57496 0.708 0.45269 0.0
H1376 H 0.64914 0.74466 0.46521 0.0
C1377 C 0.2089 0.82603 0.5403 0.0
C1378 C 0.21989 0.81558 0.5546 0.0
C1379 C 0.24138 0.83028 0.56842 0.0
C1380 C 0.25135 0.8548 0.56779 0.0
C1381 C 0.23942 0.86399 0.55291 0.0
N1382 N 0.21952 0.84924 0.53977 0.0
C1383 C 0.24462 0.88836 0.5514 0.0
C1384 C 0.22886 0.91328 0.53414 0.0
C1385 C 0.24351 0.92816 0.51268 0.0
C1386 C 0.24341 0.9487 0.50625 0.0
C1387 C 0.22898 0.95465 0.52151 0.0
C1388 C 0.2147 0.9401 0.54329 0.0
C1389 C 0.21462 0.91944 0.54961 0.0
Cd1390 Cd 0.28049 0.9274 0.6055 0.0
Cd1391 Cd 0.27631 0.89285 0.68621 0.0
C1392 C 0.16533 0.82351 0.48747 0.0
C1393 C 0.12543 0.80439 0.46899 0.0
C1394 C 0.13442 0.80661 0.44127 0.0
C1395 C 0.15832 0.81678 0.43637 0.0
C1396 C 0.17377 0.82486 0.45951 0.0
C1397 C 0.14119 0.81328 0.49214 0.0
Co1398 Co 0.20273 0.86165 0.52394 0.0
N1399 N 0.21875 0.86924 0.48698 0.0
N1400 N 0.1853 0.87366 0.50874 0.0
C1401 C 0.18947 0.88051 0.48158 0.0
C1402 C 0.17477 0.88709 0.46807 0.0
C1403 C 0.15602 0.88584 0.48404 0.0
C1404 C 0.15216 0.87784 0.51266 0.0
C1405 C 0.16754 0.87144 0.52462 0.0
N1406 N 0.1837 0.85594 0.55799 0.0
N1407 N 0.22728 0.89123 0.53901 0.0
N1408 N 0.18106 0.83011 0.51135 0.0
O1409 O 0.2789 0.92529 0.66521 0.0
O1410 O 0.28367 0.95533 0.64294 0.0
C1411 C 0.28269 0.96632 0.57718 0.0
O1412 O 0.26529 0.95272 0.59264 0.0
O1413 O 0.29845 0.96084 0.57341 0.0
C1414 C 0.3263 0.92015 0.64191 0.0
O1415 O 0.31835 0.92834 0.62264 0.0
O1416 O 0.31356 0.90703 0.66222 0.0
C1417 C 0.20878 0.87848 0.4693 0.0
O1418 O 0.21476 0.88345 0.44229 0.0
O1419 O 0.24955 0.89025 0.62768 0.0
O1420 O 0.24025 0.86542 0.66343 0.0
C1421 C 0.16671 0.86148 0.55299 0.0
O1422 O 0.15157 0.85926 0.5727 0.0
C1423 C 0.18719 0.84833 0.58522 0.0
C1424 C 0.20597 0.86369 0.60193 0.0
C1425 C 0.21204 0.85598 0.62655 0.0
C1426 C 0.19717 0.83309 0.6364 0.0
C1427 C 0.17722 0.81774 0.62059 0.0
C1428 C 0.1726 0.82545 0.5946 0.0
C1429 C 0.2828 0.94582 0.66649 0.0
O1430 O 0.26574 0.9064 0.55897 0.0
C1431 C 0.2347 0.87154 0.64031 0.0
C1432 C 0.23915 0.86812 0.47867 0.0
C1433 C 0.23986 0.84741 0.48144 0.0
C1434 C 0.25873 0.84582 0.47098 0.0
C1435 C 0.27658 0.86446 0.45626 0.0
C1436 C 0.27538 0.88475 0.45127 0.0
C1437 C 0.25735 0.88692 0.4639 0.0
C1438 C 0.18699 0.815 0.52366 0.0
O1439 O 0.17589 0.79264 0.51761 0.0
H1440 H 0.21221 0.79683 0.55521 0.0
H1441 H 0.25017 0.82268 0.57987 0.0
H1442 H 0.2674 0.86602 0.57907 0.0
H1443 H 0.25468 0.92369 0.50068 0.0
H1444 H 0.22894 0.97057 0.51656 0.0
H1445 H 0.20337 0.90824 0.56639 0.0
H1446 H 0.12279 0.79929 0.42313 0.0
H1447 H 0.19213 0.83138 0.45582 0.0
H1448 H 0.13482 0.81165 0.51383 0.0
H1449 H 0.17736 0.89259 0.44592 0.0
H1450 H 0.14428 0.89069 0.4741 0.0
H1451 H 0.13753 0.87636 0.52472 0.0
H1452 H 0.21635 0.88159 0.59507 0.0
H1453 H 0.20159 0.82686 0.65552 0.0
H1454 H 0.15796 0.81362 0.58142 0.0
H1455 H 0.22535 0.8319 0.48988 0.0
H1456 H 0.29068 0.86253 0.44757 0.0
H1457 H 0.25648 0.90261 0.46033 0.0
H1458 H 0.19967 0.3706 0.3965 0.0
H1459 H 0.14312 0.30145 0.41662 0.0
H1460 H 0.13246 0.29444 0.36549 0.0
H1461 H 0.16815 0.38224 0.33821 0.0
H1462 H 0.19416 0.39801 0.31696 0.0
H1463 H 0.1962 0.39817 0.3554 0.0
H1464 H 0.22549 0.38316 0.35134 0.0
H1465 H 0.22308 0.38236 0.31293 0.0
H1466 H 0.21712 0.35645 0.33233 0.0
H1467 H 0.13066 0.29308 0.31255 0.0
H1468 H 0.1332 0.29997 0.26034 0.0
H1469 H 0.18928 0.37076 0.27345 0.0
C1470 C 0.18458 0.35436 0.39007 0.0
C1471 C 0.17184 0.33664 0.41031 0.0
C1472 C 0.15266 0.3153 0.40132 0.0
C1473 C 0.14667 0.31111 0.37237 0.0
C1474 C 0.15995 0.32855 0.35272 0.0
C1475 C 0.17814 0.34999 0.36111 0.0
C1476 C 0.18956 0.36556 0.33533 0.0
C1477 C 0.18684 0.38728 0.33655 0.0
C1478 C 0.21534 0.37227 0.33285 0.0
C1479 C 0.17517 0.34935 0.31125 0.0
C1480 C 0.15842 0.328 0.32186 0.0
C1481 C 0.14351 0.3098 0.30396 0.0
C1482 C 0.1452 0.31375 0.27442 0.0
C1483 C 0.16151 0.33574 0.26316 0.0
C1484 C 0.17682 0.35374 0.28172 0.0
H1485 H 0.64813 0.79511 0.28055 0.0
H1486 H 0.69832 0.8644 0.24815 0.0
H1487 H 0.7046 0.87904 0.29645 0.0
H1488 H 0.62273 0.81165 0.33311 0.0
H1489 H 0.62068 0.79079 0.35943 0.0
H1490 H 0.6204 0.78451 0.32195 0.0
H1491 H 0.65549 0.77795 0.32916 0.0
H1492 H 0.6558 0.78408 0.36679 0.0
H1493 H 0.68174 0.80046 0.34561 0.0
H1494 H 0.70814 0.88655 0.34806 0.0
H1495 H 0.70417 0.88796 0.39953 0.0
H1496 H 0.6491 0.8152 0.39958 0.0
C1497 C 0.66094 0.81326 0.28269 0.0
C1498 C 0.67281 0.82798 0.25883 0.0
C1499 C 0.68869 0.85194 0.26466 0.0
C1500 C 0.6927 0.86073 0.29257 0.0
C1501 C 0.68104 0.84555 0.31496 0.0
C1502 C 0.66544 0.82237 0.31048 0.0
C1503 C 0.65477 0.81 0.33861 0.0
C1504 C 0.62806 0.79858 0.33824 0.0
C1505 C 0.66239 0.79206 0.34544 0.0
C1506 C 0.66589 0.83034 0.35933 0.0
C1507 C 0.68161 0.85039 0.34511 0.0
C1508 C 0.69536 0.87116 0.35933 0.0
C1509 C 0.69257 0.87178 0.38878 0.0
C1510 C 0.67513 0.85212 0.40396 0.0
C1511 C 0.66211 0.83081 0.38893 0.0
H1512 H 0.18205 0.85489 0.40201 0.0
H1513 H 0.14979 0.77971 0.40372 0.0
H1514 H 0.15244 0.77907 0.35105 0.0
H1515 H 0.15358 0.8588 0.34272 0.0
H1516 H 0.17772 0.88435 0.32712 0.0
H1517 H 0.17672 0.87975 0.36517 0.0
H1518 H 0.2171 0.88239 0.36404 0.0
H1519 H 0.21866 0.88787 0.32612 0.0
H1520 H 0.22201 0.86421 0.33963 0.0
H1521 H 0.15375 0.78601 0.29853 0.0
H1522 H 0.15999 0.80085 0.24893 0.0
H1523 H 0.19172 0.87157 0.28072 0.0
C1524 C 0.1766 0.83848 0.39128 0.0
C1525 C 0.16612 0.81737 0.40671 0.0
C1526 C 0.15824 0.79604 0.39209 0.0
C1527 C 0.15949 0.79551 0.36224 0.0
C1528 C 0.16883 0.81651 0.34743 0.0
C1529 C 0.17784 0.83767 0.3614 0.0
C1530 C 0.18604 0.85757 0.3402 0.0
C1531 C 0.17271 0.87089 0.34404 0.0
C1532 C 0.21253 0.87398 0.34264 0.0
C1533 C 0.17963 0.84419 0.31225 0.0
C1534 C 0.16963 0.82052 0.31695 0.0
C1535 C 0.16172 0.80452 0.29454 0.0
C1536 C 0.16492 0.81302 0.26647 0.0
C1537 C 0.17588 0.8372 0.26112 0.0
C1538 C 0.18306 0.85295 0.28434 0.0
H1539 H 0.81547 0.63871 0.61068 0.0
H1540 H 0.86167 0.71198 0.59313 0.0
H1541 H 0.87187 0.71911 0.64441 0.0
H1542 H 0.79337 0.64638 0.67592 0.0
H1543 H 0.79204 0.62171 0.69402 0.0
H1544 H 0.78961 0.6216 0.65563 0.0
H1545 H 0.82432 0.61418 0.65031 0.0
H1546 H 0.82652 0.61374 0.68869 0.0
H1547 H 0.85158 0.63342 0.66779 0.0
H1548 H 0.87388 0.71917 0.69789 0.0
H1549 H 0.87242 0.711 0.74979 0.0
H1550 H 0.82634 0.63752 0.73332 0.0
C1551 C 0.82829 0.65605 0.61763 0.0
C1552 C 0.83808 0.6748 0.59803 0.0
C1553 C 0.85426 0.69742 0.60788 0.0
C1554 C 0.86 0.70164 0.63695 0.0
C1555 C 0.84944 0.68302 0.65598 0.0
C1556 C 0.83429 0.66058 0.64674 0.0
C1557 C 0.82507 0.64386 0.67192 0.0
C1558 C 0.79844 0.63273 0.67451 0.0
C1559 C 0.83232 0.6252 0.66953 0.0
C1560 C 0.83739 0.66042 0.69661 0.0
C1561 C 0.85107 0.68299 0.68693 0.0
C1562 C 0.86342 0.70153 0.70572 0.0
C1563 C 0.86232 0.6968 0.73514 0.0
C1564 C 0.84922 0.67372 0.74542 0.0
C1565 C 0.83644 0.65534 0.7259 0.0
H1566 H 0.31483 0.19098 0.72434 0.0
H1567 H 0.35619 0.16013 0.75074 0.0
H1568 H 0.36564 0.15758 0.70017 0.0
H1569 H 0.29036 0.1554 0.66077 0.0
H1570 H 0.29095 0.17882 0.64042 0.0
H1571 H 0.28789 0.17816 0.67871 0.0
H1572 H 0.32395 0.21973 0.68122 0.0
H1573 H 0.32758 0.2201 0.64297 0.0
H1574 H 0.35128 0.22502 0.66634 0.0
H1575 H 0.37305 0.16135 0.64767 0.0
H1576 H 0.36946 0.16079 0.59512 0.0
H1577 H 0.32039 0.18578 0.60197 0.0
C1578 C 0.32551 0.18331 0.7193 0.0
C1579 C 0.33479 0.17564 0.74123 0.0
C1580 C 0.34876 0.16579 0.73411 0.0
C1581 C 0.35448 0.16464 0.70554 0.0
C1582 C 0.34586 0.17323 0.68447 0.0
C1583 C 0.33107 0.18168 0.69085 0.0
C1584 C 0.32319 0.1886 0.66397 0.0
C1585 C 0.29652 0.17438 0.66078 0.0
C1586 C 0.33203 0.21492 0.66362 0.0
C1587 C 0.33542 0.18217 0.6414 0.0
C1588 C 0.34911 0.17421 0.65387 0.0
C1589 C 0.36232 0.16744 0.63765 0.0
C1590 C 0.36042 0.16747 0.60787 0.0
C1591 C 0.34491 0.17354 0.59476 0.0
C1592 C 0.33276 0.18164 0.6116 0.0
H1593 H 0.84376 0.19105 0.73604 0.0
H1594 H 0.81498 0.11626 0.73915 0.0
H1595 H 0.81744 0.11512 0.68652 0.0
H1596 H 0.81387 0.19211 0.67492 0.0
H1597 H 0.83739 0.21821 0.65947 0.0
H1598 H 0.83591 0.21403 0.69765 0.0
H1599 H 0.87741 0.2193 0.69825 0.0
H1600 H 0.87935 0.22432 0.66022 0.0
H1601 H 0.88411 0.20184 0.67481 0.0
H1602 H 0.81934 0.1213 0.63407 0.0
H1603 H 0.827 0.13551 0.58426 0.0
H1604 H 0.85478 0.20633 0.61405 0.0
C1605 C 0.83881 0.17464 0.72556 0.0
C1606 C 0.82946 0.15374 0.74139 0.0
C1607 C 0.82247 0.13241 0.72719 0.0
C1608 C 0.8236 0.13159 0.69737 0.0
C1609 C 0.83186 0.1523 0.68216 0.0
C1610 C 0.83989 0.17352 0.69568 0.0
C1611 C 0.84747 0.19304 0.674 0.0
C1612 C 0.83278 0.20505 0.67668 0.0
C1613 C 0.87364 0.21066 0.67699 0.0
C1614 C 0.8422 0.17939 0.6463 0.0
C1615 C 0.83296 0.15589 0.6516 0.0
C1616 C 0.82653 0.13966 0.6296 0.0
C1617 C 0.83049 0.14777 0.60137 0.0
C1618 C 0.84068 0.17178 0.59541 0.0
C1619 C 0.8464 0.18779 0.61815 0.0
H1620 H 0.48708 0.9789 0.94107 0.0
H1621 H 0.53652 0.05147 0.92432 0.0
H1622 H 0.54596 0.05796 0.97607 0.0
H1623 H 0.46451 0.98855 0.00404 0.0
H1624 H 0.4605 0.96291 0.0225 0.0
H1625 H 0.45947 0.9632 0.98401 0.0
H1626 H 0.49222 0.95264 0.98075 0.0
H1627 H 0.49282 0.95157 0.01922 0.0
H1628 H 0.51921 0.97012 0.99972 0.0
H1629 H 0.54724 0.05698 0.03028 0.0
H1630 H 0.54412 0.04739 0.08201 0.0
H1631 H 0.49337 0.97559 0.06278 0.0
C1632 C 0.50052 0.9959 0.9483 0.0
C1633 C 0.51158 0.01461 0.92895 0.0
C1634 C 0.52835 0.0369 0.93901 0.0
C1635 C 0.5336 0.04075 0.96829 0.0
C1636 C 0.52173 0.02211 0.98709 0.0
C1637 C 0.50579 1.00004 0.97743 0.0
C1638 C 0.49466 0.98322 0.00206 0.0
C1639 C 0.46822 0.97393 0.0032 0.0
C1640 C 0.50006 0.96321 1.00033 0.0
C1641 C 0.50696 0.99918 0.02706 0.0
C1642 C 0.5223 0.02162 0.01809 0.0
C1643 C 0.53538 0.03944 0.03753 0.0
C1644 C 0.53334 0.03394 0.06681 0.0
C1645 C 0.51849 0.01082 0.07617 0.0
C1646 C 0.50482 0.99341 0.05606 0.0
H1647 H 0.01116 0.48898 0.07299 0.0
H1648 H 0.99207 0.54292 0.07018 0.0
H1649 H 0.99069 0.541 0.0179 0.0
H1650 H 0.04695 0.50577 0.0108 0.0
H1651 H 0.03664 0.4767 0.99748 0.0
H1652 H 0.03594 0.48152 0.03529 0.0
H1653 H 0.9917 0.45183 0.03651 0.0
H1654 H 0.99231 0.44675 0.99872 0.0
H1655 H 0.97244 0.45553 0.01252 0.0
H1656 H 0.99258 0.53509 0.9667 0.0
H1657 H 0.99379 0.52218 0.91785 0.0
H1658 H 0.01118 0.47161 0.95123 0.0
C1659 C 0.00645 0.50014 0.0613 0.0
C1660 C 1.00243 0.51662 0.07576 0.0
C1661 C 0.99603 0.53074 0.05967 0.0
C1662 C 0.99504 0.52971 0.02989 0.0
C1663 C 0.99992 0.51405 0.01624 0.0
C1664 C 0.00504 0.49914 0.03119 0.0
C1665 C 0.00891 0.4836 0.01058 0.0
C1666 C 0.03359 0.48713 0.01373 0.0
C1667 C 0.99023 0.4579 0.01484 0.0
C1668 C 0.00582 0.49275 0.98198 0.0
C1669 C 1.00059 0.51025 0.98597 0.0
C1670 C 0.99672 0.52142 0.96319 0.0
C1671 C 0.99779 0.51422 0.93542 0.0
C1672 C 0.00291 0.4962 0.93043 0.0
C1673 C 0.00713 0.48542 0.95419 0.0
H1674 H 0.50889 0.52412 0.06798 0.0
H1675 H 0.48682 0.45066 0.07219 0.0
H1676 H 0.48959 0.44944 0.01952 0.0
H1677 H 0.4772 0.52102 0.00658 0.0
H1678 H 0.49891 0.54818 0.99103 0.0
H1679 H 0.49768 0.54427 0.02925 0.0
H1680 H 0.54083 0.55422 0.03028 0.0
H1681 H 0.54244 0.55895 0.9922 0.0
H1682 H 0.55011 0.53859 0.00718 0.0
H1683 H 0.49075 0.45514 0.96677 0.0
H1684 H 0.49699 0.46905 0.91676 0.0
H1685 H 0.51909 0.53902 0.94605 0.0
C1686 C 0.50553 0.50807 0.05774 0.0
C1687 C 0.49809 0.48755 0.07387 0.0
C1688 C 0.49299 0.46657 0.05998 0.0
C1689 C 0.49428 0.4657 0.03016 0.0
C1690 C 0.5007 0.48597 0.01465 0.0
C1691 C 0.50678 0.50691 0.0279 0.0
C1692 C 0.51253 0.52595 0.00605 0.0
C1693 C 0.49557 0.53541 0.00838 0.0
C1694 C 0.538 0.54559 0.0091 0.0
C1695 C 0.50869 0.51242 0.97851 0.0
C1696 C 0.50152 0.48931 0.98403 0.0
C1697 C 0.49644 0.47321 0.96214 0.0
C1698 C 0.49965 0.48113 0.93383 0.0
C1699 C 0.50794 0.50486 0.92772 0.0
C1700 C 0.51227 0.52066 0.9503 0.0
H1701 H 0.33196 0.31447 0.30824 0.0
H1702 H 0.33343 0.25296 0.28015 0.0
H1703 H 0.30717 0.24841 0.23983 0.0
H1704 H 0.27533 0.29661 0.29688 0.0
H1705 H 0.27877 0.3235 0.28281 0.0
H1706 H 0.30056 0.32405 0.3062 0.0
H1707 H 0.3323 0.34656 0.2679 0.0
H1708 H 0.31049 0.34606 0.24428 0.0
H1709 H 0.32875 0.33468 0.23238 0.0
H1710 H 0.27595 0.24686 0.20838 0.0
H1711 H 0.24311 0.24918 0.18676 0.0
H1712 H 0.26337 0.31286 0.23393 0.0
C1713 C 0.32719 0.30048 0.29302 0.0
C1714 C 0.33456 0.28407 0.29688 0.0
C1715 C 0.32801 0.26578 0.27705 0.0
C1716 C 0.31321 0.26313 0.25415 0.0
C1717 C 0.30579 0.27937 0.25108 0.0
C1718 C 0.31295 0.298 0.26961 0.0
C1719 C 0.30133 0.31213 0.26264 0.0
C1720 C 0.28821 0.31415 0.28868 0.0
C1721 C 0.31929 0.33629 0.25112 0.0
C1722 C 0.28483 0.29723 0.2392 0.0
C1723 C 0.28813 0.27879 0.23227 0.0
C1724 C 0.27354 0.26151 0.21311 0.0
C1725 C 0.25483 0.26286 0.20113 0.0
C1726 C 0.25075 0.28124 0.20856 0.0
C1727 C 0.26637 0.29892 0.22727 0.0
H1728 H 0.70118 0.03603 0.27624 0.0
H1729 H 0.72189 0.0177 0.35596 0.0
H1730 H 0.72027 0.98376 0.33283 0.0
H1731 H 0.66197 0.97192 0.25289 0.0
H1732 H 0.66945 0.97955 0.21587 0.0
H1733 H 0.66766 0.99989 0.2399 0.0
H1734 H 0.70971 0.03103 0.22606 0.0
H1735 H 0.71188 0.01077 0.20251 0.0
H1736 H 0.73308 0.02473 0.2306 0.0
H1737 H 0.72468 0.95781 0.30053 0.0
H1738 H 0.73043 0.93708 0.26054 0.0
H1739 H 0.70471 0.96929 0.20097 0.0
C1740 C 0.7049 0.02455 0.28886 0.0
C1741 C 0.712 0.02966 0.31773 0.0
C1742 C 0.71655 0.01422 0.33376 0.0
C1743 C 0.71554 0.99478 0.32088 0.0
C1744 C 0.70939 0.9907 0.29217 0.0
C1745 C 0.7035 0.00467 0.27641 0.0
C1746 C 0.69898 0.99696 0.24536 0.0
C1747 C 0.67297 0.98646 0.23808 0.0
C1748 C 0.71435 0.01707 0.22495 0.0
C1749 C 0.7059 0.97831 0.24569 0.0
C1750 C 0.71119 0.97466 0.27316 0.0
C1751 C 0.72008 0.96002 0.27901 0.0
C1752 C 0.72363 0.94865 0.25619 0.0
C1753 C 0.71833 0.95201 0.22793 0.0
C1754 C 0.70894 0.96665 0.22253 0.0
H1755 H 0.96961 0.65819 0.27304 0.0
H1756 H 0.96592 0.69476 0.34783 0.0
H1757 H 1.00136 0.73028 0.33227 0.0
H1758 H 0.03735 0.69286 0.2685 0.0
H1759 H 0.036 0.6918 0.22999 0.0
H1760 H 0.01426 0.66782 0.25074 0.0
H1761 H 0.98198 0.67152 0.22419 0.0
H1762 H 0.00346 0.69576 0.20389 0.0
H1763 H 0.98231 0.69892 0.22481 0.0
H1764 H 0.03054 0.7629 0.30431 0.0
H1765 H 0.05474 0.79094 0.2674 0.0
H1766 H 0.04011 0.73401 0.20946 0.0
C1767 C 0.97681 0.67354 0.2865 0.0
C1768 C 0.96533 0.67386 0.31178 0.0
C1769 C 0.97489 0.69411 0.32887 0.0
C1770 C 0.99495 0.71435 0.3201 0.0
C1771 C 0.00536 0.71381 0.29444 0.0
C1772 C 0.99702 0.69381 0.27816 0.0
C1773 C 0.01011 0.69862 0.25007 0.0
C1774 C 0.02534 0.6871 0.24982 0.0
C1775 C 0.99346 0.69076 0.22424 0.0
C1776 C 0.02504 0.72489 0.2517 0.0
C1777 C 0.02258 0.73308 0.27792 0.0
C1778 C 0.033 0.75673 0.2839 0.0
C1779 C 0.04634 0.77252 0.26257 0.0
C1780 C 0.04895 0.76466 0.23538 0.0
C1781 C 0.03845 0.74049 0.23007 0.0
H1782 H 0.75478 0.74125 0.79187 0.0
H1783 H 0.74792 0.67522 0.7653 0.0
H1784 H 0.71277 0.66613 0.7384 0.0
H1785 H 0.69055 0.72157 0.79334 0.0
H1786 H 0.69553 0.74875 0.77835 0.0
H1787 H 0.71727 0.74816 0.80104 0.0
H1788 H 0.7481 0.76815 0.76101 0.0
H1789 H 0.72648 0.76863 0.73818 0.0
H1790 H 0.74259 0.75493 0.72607 0.0
H1791 H 0.68399 0.66707 0.70716 0.0
H1792 H 0.66134 0.67767 0.67469 0.0
H1793 H 0.68548 0.7426 0.72052 0.0
C1794 C 0.74558 0.7247 0.78087 0.0
C1795 C 0.75393 0.70882 0.78126 0.0
C1796 C 0.74155 0.68741 0.76626 0.0
C1797 C 0.72153 0.68205 0.75073 0.0
C1798 C 0.71409 0.69827 0.75023 0.0
C1799 C 0.72556 0.7191 0.76499 0.0
C1800 C 0.71554 0.73464 0.75786 0.0
C1801 C 0.70403 0.7385 0.78423 0.0
C1802 C 0.73429 0.75795 0.74501 0.0
C1803 C 0.69753 0.71972 0.73578 0.0
C1804 C 0.69684 0.69869 0.732 0.0
C1805 C 0.68379 0.68315 0.71041 0.0
C1806 C 0.6712 0.68936 0.69198 0.0
C1807 C 0.67166 0.71074 0.6956 0.0
C1808 C 0.68454 0.7259 0.71802 0.0
H1809 H 0.30745 0.99278 0.67392 0.0
H1810 H 0.26875 0.92756 0.71985 0.0
H1811 H 0.27192 0.94927 0.76419 0.0
H1812 H 0.34603 0.02703 0.73803 0.0
H1813 H 0.34583 0.05292 0.72661 0.0
H1814 H 0.34506 0.03256 0.70044 0.0
H1815 H 0.30756 0.02926 0.67863 0.0
H1816 H 0.30805 0.04934 0.70471 0.0
H1817 H 0.28254 0.02091 0.70125 0.0
H1818 H 0.27067 0.97693 0.79903 0.0
H1819 H 0.2684 0.00899 0.82324 0.0
H1820 H 0.31052 0.05651 0.75619 0.0
C1821 C 0.30021 0.98314 0.69354 0.0
C1822 C 0.28759 0.95859 0.69361 0.0
C1823 C 0.27842 0.94643 0.71951 0.0
C1824 C 0.28027 0.95861 0.74477 0.0
C1825 C 0.29198 0.98288 0.74381 0.0
C1826 C 0.30239 0.99506 0.71901 0.0
C1827 C 0.31203 0.02095 0.72288 0.0
C1828 C 0.33883 0.03414 0.72194 0.0
C1829 C 0.30192 0.03065 0.70056 0.0
C1830 C 0.30332 0.02114 0.75272 0.0
C1831 C 0.29228 0.99911 0.76473 0.0
C1832 C 0.27998 0.99441 0.79039 0.0
C1833 C 0.27861 0.01259 0.80387 0.0
C1834 C 0.2896 0.0351 0.79168 0.0
C1835 C 0.3026 0.03953 0.76627 0.0
H1836 H 0.96832 0.27144 0.79688 0.0
H1837 H 0.95736 0.21466 0.74072 0.0
H1838 H 0.98205 0.24285 0.70411 0.0
H1839 H 0.9712 0.31155 0.73762 0.0
H1840 H 0.99355 0.33708 0.75544 0.0
H1841 H 0.97222 0.31278 0.77614 0.0
H1842 H 0.00522 0.31045 0.80291 0.0
H1843 H 0.02657 0.33479 0.78252 0.0
H1844 H 0.02697 0.30776 0.78268 0.0
H1845 H 0.00933 0.27595 0.67497 0.0
H1846 H 0.04217 0.31264 0.65719 0.0
H1847 H 0.03777 0.34881 0.73214 0.0
C1848 C 0.97102 0.26505 0.77674 0.0
C1849 C 0.96122 0.24089 0.77172 0.0
C1850 C 0.96511 0.2331 0.7452 0.0
C1851 C 0.97878 0.24895 0.72409 0.0
C1852 C 0.98838 0.27258 0.72969 0.0
C1853 C 0.98487 0.28075 0.75536 0.0
C1854 C 0.9991 0.30715 0.75662 0.0
C1855 C 0.98306 0.31776 0.75644 0.0
C1856 C 0.01544 0.31551 0.78273 0.0
C1857 C 0.01251 0.31218 0.72873 0.0
C1858 C 0.00514 0.29205 0.71301 0.0
C1859 C 0.01516 0.29191 0.6869 0.0
C1860 C 0.03376 0.31283 0.67692 0.0
C1861 C 0.04247 0.33341 0.69333 0.0
C1862 C 0.03142 0.33321 0.71928 0.0
H1863 H 0.9937 0.64222 0.64866 0.0
H1864 H 0.01186 0.59681 0.60248 0.0
H1865 H 0.98824 0.59653 0.56126 0.0
H1866 H 0.93734 0.61801 0.6298 0.0
H1867 H 0.93642 0.64454 0.6249 0.0
H1868 H 0.95763 0.6442 0.64852 0.0
H1869 H 0.99081 0.67823 0.62018 0.0
H1870 H 0.96959 0.67867 0.59637 0.0
H1871 H 0.99313 0.67547 0.58214 0.0
H1872 H 0.9568 0.59483 0.53008 0.0
H1873 H 0.92204 0.5943 0.50953 0.0
H1874 H 0.92701 0.64361 0.57387 0.0
C1875 C 0.99304 0.63266 0.62956 0.0
C1876 C 0.00429 0.61937 0.62858 0.0
C1877 C 0.00331 0.60712 0.60341 0.0
C1878 C 0.99005 0.60695 0.57993 0.0
C1879 C 0.97863 0.61979 0.58175 0.0
C1880 C 0.98049 0.63292 0.60566 0.0
C1881 C 0.96546 0.64408 0.60291 0.0
C1882 C 0.94819 0.63728 0.62801 0.0
C1883 C 0.98066 0.67069 0.60024 0.0
C1884 C 0.95318 0.6334 0.57501 0.0
C1885 C 0.96136 0.61983 0.56281 0.0
C1886 C 0.95073 0.60596 0.53888 0.0
C1887 C 0.93096 0.60563 0.52747 0.0
C1888 C 0.92221 0.61914 0.53997 0.0
C1889 C 0.93385 0.63365 0.56349 0.0
H1890 H 0.40692 0.39173 0.62018 0.0
H1891 H 0.33889 0.35032 0.65893 0.0
H1892 H 0.33035 0.31787 0.62588 0.0
H1893 H 0.38991 0.36868 0.54553 0.0
H1894 H 0.4169 0.36881 0.53972 0.0
H1895 H 0.41619 0.39005 0.56316 0.0
H1896 H 0.43375 0.37713 0.604 0.0
H1897 H 0.43436 0.35577 0.58084 0.0
H1898 H 0.41923 0.34692 0.61457 0.0
H1899 H 0.33138 0.28882 0.59441 0.0
H1900 H 0.3412 0.26412 0.56576 0.0
H1901 H 0.40851 0.32422 0.54512 0.0
C1902 C 0.39001 0.37604 0.62092 0.0
C1903 C 0.37329 0.37336 0.64143 0.0
C1904 C 0.35163 0.35251 0.64287 0.0
C1905 C 0.34667 0.33412 0.62422 0.0
C1906 C 0.36365 0.33701 0.60445 0.0
C1907 C 0.38486 0.35742 0.60254 0.0
C1908 C 0.40087 0.35502 0.58139 0.0
C1909 C 0.40628 0.37163 0.55593 0.0
C1910 C 0.42337 0.35894 0.59609 0.0
C1911 C 0.38563 0.32985 0.57246 0.0
C1912 C 0.36416 0.31996 0.58581 0.0
C1913 C 0.34783 0.29648 0.5831 0.0
C1914 C 0.35359 0.2826 0.56646 0.0
C1915 C 0.37549 0.29222 0.55236 0.0
C1916 C 0.39158 0.31629 0.55529 0.0
H1917 H 0.62901 0.99521 0.60568 0.0
H1918 H 0.65509 0.02988 0.68748 0.0
H1919 H 0.68854 0.06184 0.66345 0.0
H1920 H 0.69005 0.01712 0.57376 0.0
H1921 H 0.68028 0.01998 0.5388 0.0
H1922 H 0.66053 0.99732 0.5627 0.0
H1923 H 0.6313 0.01229 0.55763 0.0
H1924 H 0.65104 0.0352 0.53419 0.0
H1925 H 0.64058 0.04223 0.56616 0.0
H1926 H 0.71414 0.09269 0.63186 0.0
H1927 H 0.73407 0.1206 0.59285 0.0
H1928 H 0.69401 0.06705 0.53019 0.0
C1929 C 0.64205 0.00931 0.61851 0.0
C1930 C 0.63922 0.01018 0.64837 0.0
C1931 C 0.65665 0.02888 0.66452 0.0
C1932 C 0.67589 0.04709 0.65113 0.0
C1933 C 0.67771 0.0462 0.62164 0.0
C1934 C 0.66165 0.02767 0.60542 0.0
C1935 C 0.66713 0.03224 0.57375 0.0
C1936 C 0.67497 0.01568 0.56153 0.0
C1937 C 0.64627 0.03039 0.55696 0.0
C1938 C 0.68728 0.0571 0.57482 0.0
C1939 C 0.69334 0.06442 0.60281 0.0
C1940 C 0.70997 0.08712 0.60983 0.0
C1941 C 0.72089 0.10289 0.58766 0.0
C1942 C 0.71512 0.09589 0.5589 0.0
C1943 C 0.69841 0.07266 0.55219 0.0
H1944 H 0.35741 0.03104 0.01215 0.0
H1945 H 0.33252 0.06759 0.06571 0.0
H1946 H 0.35028 0.06062 0.10767 0.0
H1947 H 0.35423 0.98865 0.07284 0.0
H1948 H 0.38034 0.98974 0.05965 0.0
H1949 H 0.36017 0.99128 0.03499 0.0
H1950 H 0.39355 0.02985 0.01454 0.0
H1951 H 0.41374 0.02853 0.03902 0.0
H1952 H 0.41036 0.05391 0.03841 0.0
H1953 H 0.37805 0.05963 0.14007 0.0
H1954 H 0.41352 0.06274 0.16176 0.0
H1955 H 0.42051 0.02557 0.08975 0.0
C1956 C 0.35507 0.03677 0.03295 0.0
C1957 C 0.34388 0.05006 0.03571 0.0
C1958 C 0.34135 0.05766 0.06307 0.0
C1959 C 0.35109 0.0535 0.08716 0.0
C1960 C 0.3631 0.04145 0.08372 0.0
C1961 C 0.36484 0.03275 0.05746 0.0
C1962 C 0.38154 0.02337 0.05914 0.0
C1963 C 0.36827 0.99668 0.0565 0.0
C1964 C 0.40094 0.03461 0.03645 0.0
C1965 C 0.3909 0.03083 0.08924 0.0
C1966 C 0.37929 0.04036 0.10338 0.0
C1967 C 0.3868 0.05148 0.12976 0.0
C1968 C 0.40703 0.05341 0.14179 0.0
C1969 C 0.41938 0.04423 0.1274 0.0
C1970 C 0.41086 0.03219 0.10132 0.0
H1971 H 0.95024 0.37914 0.08055 0.0
H1972 H 0.96825 0.36143 0.16216 0.0
H1973 H 0.97686 0.33314 0.13791 0.0
H1974 H 0.92145 0.32454 0.05056 0.0
H1975 H 0.93276 0.33374 0.01493 0.0
H1976 H 0.93042 0.35375 0.03874 0.0
H1977 H 0.97449 0.38321 0.03191 0.0
H1978 H 0.9769 0.36313 0.0081 0.0
H1979 H 0.99556 0.37416 0.03904 0.0
H1980 H 0.97868 0.30368 0.10488 0.0
H1981 H 0.97447 0.2763 0.0663 0.0
H1982 H 0.95717 0.31557 0.00651 0.0
C1983 C 0.956 0.36924 0.09319 0.0
C1984 C 0.95803 0.37171 0.12306 0.0
C1985 C 0.9662 0.35917 0.1392 0.0
C1986 C 0.9713 0.34334 0.1256 0.0
C1987 C 0.96872 0.34095 0.09593 0.0
C1988 C 0.96159 0.35386 0.07994 0.0
C1989 C 0.95937 0.34767 0.04862 0.0
C1990 C 0.93452 0.33942 0.03759 0.0
C1991 C 0.97767 0.36826 0.03087 0.0
C1992 C 0.96469 0.32803 0.04966 0.0
C1993 C 0.97053 0.32467 0.07696 0.0
C1994 C 0.97446 0.30636 0.08336 0.0
C1995 C 0.97188 0.29082 0.06137 0.0
C1996 C 0.9653 0.2937 0.0335 0.0
C1997 C 0.96224 0.31289 0.02758 0.0
H1998 H 0.64159 0.6044 0.13229 0.0
H1999 H 0.61414 0.55164 0.06597 0.0
H2000 H 0.63668 0.58151 0.0296 0.0
H2001 H 0.64533 0.65301 0.08773 0.0
H2002 H 0.67247 0.67436 0.10367 0.0
H2003 H 0.65172 0.64971 0.12435 0.0
H2004 H 0.68332 0.63858 0.13529 0.0
H2005 H 0.70414 0.66331 0.11495 0.0
H2006 H 0.69876 0.63455 0.1061 0.0
H2007 H 0.66329 0.6156 1.00107 0.0
H2008 H 0.69677 0.65134 0.98239 0.0
H2009 H 0.70938 0.68234 0.06702 0.0
C2010 C 0.64039 0.59933 0.11005 0.0
C2011 C 0.62647 0.57584 0.1017 0.0
C2012 C 0.62509 0.56958 0.07259 0.0
C2013 C 0.63752 0.58643 0.05182 0.0
C2014 C 0.65127 0.60944 0.06058 0.0
C2015 C 0.65305 0.61597 0.08898 0.0
C2016 C 0.67103 0.64152 0.09276 0.0
C2017 C 0.65944 0.65546 0.10271 0.0
C2018 C 0.69046 0.64465 0.11349 0.0
C2019 C 0.67991 0.6478 0.0623 0.0
C2020 C 0.66761 0.62924 0.04401 0.0
C2021 C 0.67304 0.63034 0.01509 0.0
C2022 C 0.69215 0.6507 0.00469 0.0
C2023 C 0.70588 0.66948 0.02329 0.0
C2024 C 0.69925 0.66821 0.05231 0.0
H2025 H 0.66536 0.97993 0.97775 0.0
H2026 H 0.67232 0.92368 0.94116 0.0
H2027 H 0.64685 0.92106 0.90079 0.0
H2028 H 0.60882 0.95999 0.96499 0.0
H2029 H 0.61073 0.98711 0.95465 0.0
H2030 H 0.6326 0.98731 0.97753 0.0
H2031 H 0.66483 0.01435 0.94192 0.0
H2032 H 0.64293 0.01429 0.91886 0.0
H2033 H 0.66297 0.00576 0.905 0.0
H2034 H 0.61476 0.9193 0.87087 0.0
H2035 H 0.58073 0.92062 0.85116 0.0
H2036 H 0.59703 0.98015 0.90485 0.0
C2037 C 0.66202 0.96759 0.96069 0.0
C2038 C 0.67063 0.952 0.96222 0.0
C2039 C 0.66596 0.93588 0.93993 0.0
C2040 C 0.65159 0.93433 0.917 0.0
C2041 C 0.6428 0.94958 0.91636 0.0
C2042 C 0.64834 0.96635 0.93722 0.0
C2043 C 0.63549 0.97963 0.93253 0.0
C2044 C 0.62105 0.9784 0.95899 0.0
C2045 C 0.65257 0.00501 0.92407 0.0
C2046 C 0.62014 0.96617 0.90753 0.0
C2047 C 0.62498 0.94925 0.89807 0.0
C2048 C 0.61127 0.93292 0.87744 0.0
C2049 C 0.59192 0.93367 0.86653 0.0
C2050 C 0.58652 0.95064 0.8763 0.0
C2051 C 0.60119 0.96742 0.89647 0.0
H2052 H 0.04222 0.61588 0.91542 0.0
H2053 H 0.06114 0.65432 0.83574 0.0
H2054 H 0.05766 0.68617 0.85907 0.0
H2055 H 1.00122 0.63499 0.94119 0.0
H2056 H 0.01052 0.63651 0.97776 0.0
H2057 H 0.01112 0.61562 0.95361 0.0
H2058 H 0.05496 0.63209 0.96481 0.0
H2059 H 0.05454 0.65307 0.98881 0.0
H2060 H 0.07509 0.66272 0.95966 0.0
H2061 H 0.05521 0.71476 0.89225 0.0
H2062 H 0.05599 0.73897 0.9328 0.0
H2063 H 0.04039 0.68207 0.99124 0.0
C2064 C 0.04523 0.6309 0.90289 0.0
C2065 C 0.0519 0.63295 0.87399 0.0
C2066 C 0.05604 0.65273 0.858 0.0
C2067 C 0.05395 0.6707 0.87101 0.0
C2068 C 0.04775 0.6684 0.89987 0.0
C2069 C 0.04344 0.64896 0.91559 0.0
C2070 C 0.03913 0.65154 0.94678 0.0
C2071 C 0.014 0.6336 0.95533 0.0
C2072 C 0.057 0.64976 0.96614 0.0
C2073 C 0.04276 0.67593 0.9465 0.0
C2074 C 0.0471 0.68513 0.91915 0.0
C2075 C 0.05168 0.70769 0.91371 0.0
C2076 C 0.05215 0.72131 0.93689 0.0
C2077 C 0.04846 0.71244 0.96517 0.0
C2078 C 0.04342 0.68936 0.96988 0.0
H2079 H 0.31271 0.36948 0.99342 0.0
H2080 H 0.28722 0.30837 0.93929 0.0
H2081 H 0.31534 0.33236 0.90164 0.0
H2082 H 0.31708 0.40755 0.94003 0.0
H2083 H 0.34313 0.43235 0.95364 0.0
H2084 H 0.32353 0.40996 0.97777 0.0
H2085 H 0.35711 0.40388 0.99606 0.0
H2086 H 0.37701 0.42662 0.97242 0.0
H2087 H 0.37415 0.39812 0.97074 0.0
H2088 H 0.34512 0.36386 0.86911 0.0
H2089 H 0.37328 0.40034 0.84427 0.0
H2090 H 0.37652 0.44022 0.91935 0.0
C2091 C 0.31327 0.36105 0.97382 0.0
C2092 C 0.29782 0.33718 0.9691 0.0
C2093 C 0.29886 0.32677 0.94311 0.0
C2094 C 0.31483 0.34019 0.92174 0.0
C2095 C 0.32942 0.3639 0.9268 0.0
C2096 C 0.32877 0.37419 0.95226 0.0
C2097 C 0.34489 0.40021 0.95176 0.0
C2098 C 0.33134 0.41327 0.95604 0.0
C2099 C 0.36445 0.40763 0.97406 0.0
C2100 C 0.35421 0.40312 0.92171 0.0
C2101 C 0.34552 0.382 0.90777 0.0
C2102 C 0.35195 0.3805 0.87978 0.0
C2103 C 0.36775 0.40121 0.86581 0.0
C2104 C 0.37644 0.42296 0.87978 0.0
C2105 C 0.36955 0.42383 0.90799 0.0
H2106 H 0.02833 0.40761 0.3608 0.0
H2107 H 0.96983 0.33902 0.3785 0.0
H2108 H 0.99179 0.33456 0.4188 0.0
H2109 H 0.07307 0.39648 0.37288 0.0
H2110 H 0.09206 0.42388 0.39016 0.0
H2111 H 0.07071 0.42186 0.36485 0.0
H2112 H 0.05373 0.43766 0.4032 0.0
H2113 H 0.07495 0.43945 0.42881 0.0
H2114 H 0.0443 0.42294 0.43713 0.0
H2115 H 0.02208 0.33704 0.45469 0.0
H2116 H 0.05736 0.34567 0.48192 0.0
H2117 H 0.09516 0.41273 0.43918 0.0
C2118 C 0.0201 0.39177 0.3734 0.0
C2119 C 0.99758 0.37363 0.36678 0.0
C2120 C 0.98712 0.35315 0.38363 0.0
C2121 C 0.99941 0.35051 0.40648 0.0
C2122 C 0.02179 0.36881 0.41244 0.0
C2123 C 0.03184 0.38913 0.39653 0.0
C2124 C 0.05622 0.40598 0.40652 0.0
C2125 C 0.07405 0.4124 0.38216 0.0
C2126 C 0.05736 0.4278 0.41969 0.0
C2127 C 0.05906 0.3914 0.4292 0.0
C2128 C 0.0389 0.37025 0.43292 0.0
C2129 C 0.03789 0.35364 0.45205 0.0
C2130 C 0.05819 0.35867 0.46726 0.0
C2131 C 0.07936 0.37995 0.4628 0.0
C2132 C 0.07938 0.39657 0.44387 0.0
H2133 H 0.63103 0.69579 0.46602 0.0
H2134 H 0.6017 0.72089 0.40166 0.0
H2135 H 0.60974 0.69956 0.3644 0.0
H2136 H 0.67596 0.69405 0.41757 0.0
H2137 H 0.67207 0.6676 0.43362 0.0
H2138 H 0.66835 0.68823 0.45486 0.0
H2139 H 0.62676 0.65602 0.46913 0.0
H2140 H 0.63059 0.63532 0.44849 0.0
H2141 H 0.60605 0.63938 0.44149 0.0
H2142 H 0.61727 0.67352 0.33515 0.0
H2143 H 0.61739 0.63881 0.31679 0.0
H2144 H 0.63961 0.62799 0.39996 0.0
C2145 C 0.6264 0.69669 0.44402 0.0
C2146 C 0.61541 0.70951 0.43652 0.0
C2147 C 0.60966 0.71064 0.40769 0.0
C2148 C 0.61459 0.69902 0.38637 0.0
C2149 C 0.6253 0.68636 0.3943 0.0
C2150 C 0.6309 0.68483 0.42244 0.0
C2151 C 0.63945 0.66756 0.4255 0.0
C2152 C 0.6655 0.68011 0.43335 0.0
C2153 C 0.62482 0.64843 0.44743 0.0
C2154 C 0.63558 0.65812 0.39524 0.0
C2155 C 0.6287 0.67019 0.37734 0.0
C2156 C 0.62279 0.66398 0.34883 0.0
C2157 C 0.6228 0.64417 0.33863 0.0
C2158 C 0.62803 0.63052 0.35714 0.0
C2159 C 0.63532 0.63806 0.38547 0.0
H2160 H 0.2974 0.93268 0.45452 0.0
H2161 H 0.28774 0.87581 0.39939 0.0
H2162 H 0.31295 0.90399 0.36303 0.0
H2163 H 0.3007 0.97231 0.39384 0.0
H2164 H 0.32233 0.99791 0.41229 0.0
H2165 H 0.30049 0.97348 0.43234 0.0
H2166 H 0.33287 0.97148 0.46123 0.0
H2167 H 0.35465 0.99595 0.4415 0.0
H2168 H 0.35538 0.9691 0.44239 0.0
H2169 H 0.34179 0.93738 0.33492 0.0
H2170 H 0.37607 0.97414 0.31943 0.0
H2171 H 0.3677 0.00968 0.39233 0.0
C2172 C 0.30032 0.92621 0.43459 0.0
C2173 C 0.29086 0.90208 0.4299 0.0
C2174 C 0.29523 0.89424 0.40369 0.0
C2175 C 0.30916 0.91008 0.38267 0.0
C2176 C 0.31839 0.93372 0.388 0.0
C2177 C 0.31422 0.94184 0.4133 0.0
C2178 C 0.32816 0.96819 0.41469 0.0
C2179 C 0.31195 0.97858 0.4132 0.0
C2180 C 0.34369 0.97665 0.44153 0.0
C2181 C 0.34236 0.9733 0.38752 0.0
C2182 C 0.33562 0.95327 0.37179 0.0
C2183 C 0.34701 0.95328 0.34673 0.0
C2184 C 0.36637 0.97421 0.338 0.0
C2185 C 0.37429 0.99456 0.35465 0.0
C2186 C 0.36181 0.99425 0.37926 0.0
H2187 H 0.28368 0.17869 0.9441 0.0
H2188 H 0.3297 0.17986 0.0108 0.0
H2189 H 0.31962 0.20428 0.0409 0.0
H2190 H 0.29461 0.2381 0.95523 0.0
H2191 H 0.26472 0.23 0.94818 0.0
H2192 H 0.27721 0.21429 0.93134 0.0
H2193 H 0.2438 0.17564 0.952 0.0
H2194 H 0.2314 0.19124 0.96928 0.0
H2195 H 0.23876 0.17288 0.99006 0.0
H2196 H 0.30436 0.22892 0.06361 0.0
H2197 H 0.28452 0.25098 0.07707 0.0
H2198 H 0.24621 0.23045 0.9971 0.0
C2199 C 0.29193 0.18454 0.9648 0.0
C2200 C 0.30763 0.17776 0.97513 0.0
C2201 C 0.31775 0.18515 0.00257 0.0
C2202 C 0.3121 0.19895 0.01979 0.0
C2203 C 0.29612 0.20498 0.00932 0.0
C2204 C 0.2862 0.19802 0.98246 0.0
C2205 C 0.26883 0.20603 0.97672 0.0
C2206 C 0.27682 0.22312 0.95137 0.0
C2207 C 0.24424 0.1852 0.97173 0.0
C2208 C 0.27025 0.21823 0.00464 0.0
C2209 C 0.28635 0.21781 0.02305 0.0
C2210 C 0.2915 0.22912 0.0495 0.0
C2211 C 0.2801 0.24148 0.05706 0.0
C2212 C 0.26339 0.24186 0.03852 0.0
C2213 C 0.25832 0.22983 0.01218 0.0
H2214 H 0.83328 0.13334 0.00983 0.0
H2215 H 0.8172 0.11293 0.92063 0.0
H2216 H 0.78781 0.07369 0.93543 0.0
H2217 H 0.8289 0.07814 0.03175 0.0
H2218 H 0.81663 0.07774 0.06631 0.0
H2219 H 0.83578 0.10512 0.04913 0.0
H2220 H 0.80399 0.11678 0.05351 0.0
H2221 H 0.78458 0.08929 0.07032 0.0
H2222 H 0.77548 0.09807 0.03859 0.0
H2223 H 0.7585 0.03755 0.95862 0.0
H2224 H 0.73603 0.0031 0.98906 0.0
H2225 H 0.77328 0.04304 0.06391 0.0
C2226 C 0.82376 0.12058 0.99338 0.0
C2227 C 0.82713 0.12687 0.96391 0.0
C2228 C 0.81437 0.1093 0.94329 0.0
C2229 C 0.79764 0.08672 0.95148 0.0
C2230 C 0.79411 0.08142 0.98047 0.0
C2231 C 0.80721 0.09751 1.00119 0.0
C2232 C 0.80066 0.08634 0.03081 0.0
C2233 C 0.82175 0.08686 0.04536 0.0
C2234 C 0.79058 0.09834 0.04941 0.0
C2235 C 0.78194 0.0615 0.02327 0.0
C2236 C 0.77819 0.05947 0.99406 0.0
C2237 C 0.76143 0.0388 0.98148 0.0
C2238 C 0.74863 0.01936 0.99898 0.0
C2239 C 0.75281 0.02039 0.02875 0.0
C2240 C 0.76961 0.04183 0.04121 0.0
H2241 H 0.89373 0.72577 0.9525 0.0
H2242 H 0.851 0.67724 0.01838 0.0
H2243 H 0.88655 0.68628 0.04609 0.0
H2244 H 0.94166 0.71469 0.95612 0.0
H2245 H 0.96347 0.74475 0.95057 0.0
H2246 H 0.93467 0.73358 0.93591 0.0
H2247 H 0.93083 0.76597 0.9622 0.0
H2248 H 0.95957 0.77717 0.97711 0.0
H2249 H 0.93499 0.76906 1.0004 0.0
H2250 H 0.92757 0.69982 0.06531 0.0
H2251 H 0.96996 0.71841 0.07562 0.0
H2252 H 0.98467 0.76037 0.99895 0.0
C2253 C 0.89198 0.71703 0.97271 0.0
C2254 C 0.86987 0.70075 0.98339 0.0
C2255 C 0.86797 0.68976 0.01001 0.0
C2256 C 0.888 0.69477 0.0258 0.0
C2257 C 0.90969 0.71108 0.0148 0.0
C2258 C 0.91172 0.72218 0.98897 0.0
C2259 C 0.93687 0.73952 0.98222 0.0
C2260 C 0.94462 0.73272 0.95457 0.0
C2261 C 0.94078 0.7644 0.98038 0.0
C2262 C 0.94872 0.7365 0.00821 0.0
C2263 C 0.93288 0.71982 0.02664 0.0
C2264 C 0.9401 0.71319 0.05125 0.0
C2265 C 0.96415 0.72385 0.057 0.0
C2266 C 0.98056 0.74124 0.03852 0.0
C2267 C 0.97257 0.74766 0.01401 0.0
H2268 H 0.6882 0.81798 0.99357 0.0
H2269 H 0.72852 0.83718 0.07195 0.0
H2270 H 0.74775 0.81515 0.05641 0.0
H2271 H 0.67795 0.75932 0.99148 0.0
H2272 H 0.67978 0.75827 0.95309 0.0
H2273 H 0.67031 0.77679 0.96933 0.0
H2274 H 0.70279 0.81242 0.94255 0.0
H2275 H 0.71238 0.79403 0.92616 0.0
H2276 H 0.73268 0.81932 0.94627 0.0
H2277 H 0.76274 0.79161 0.03249 0.0
H2278 H 0.77083 0.7655 0.00379 0.0
H2279 H 0.71888 0.75831 0.94166 0.0
C2280 C 0.7013 0.8177 0.00719 0.0
C2281 C 0.70722 0.82949 0.03378 0.0
C2282 C 0.724 0.82841 0.05143 0.0
C2283 C 0.73497 0.81597 0.04275 0.0
C2284 C 0.72874 0.80443 0.01649 0.0
C2285 C 0.71216 0.80495 0.99904 0.0
C2286 C 0.70788 0.78995 0.97258 0.0
C2287 C 0.68247 0.76989 0.97157 0.0
C2288 C 0.71432 0.80482 0.94527 0.0
C2289 C 0.72469 0.78094 0.97789 0.0
C2290 C 0.73666 0.78979 0.00323 0.0
C2291 C 0.75332 0.78441 0.01275 0.0
C2292 C 0.75773 0.76937 0.99625 0.0
C2293 C 0.74531 0.75938 0.97058 0.0
C2294 C 0.72867 0.76552 0.96118 0.0
H2295 H 0.24905 0.98661 0.02166 0.0
H2296 H 0.24646 0.97509 0.93001 0.0
H2297 H 0.21905 0.93293 0.93802 0.0
H2298 H 0.24862 0.93395 0.04147 0.0
H2299 H 0.23154 0.9297 0.07324 0.0
H2300 H 0.25049 0.9587 0.05996 0.0
H2301 H 0.21556 0.96611 0.05787 0.0
H2302 H 0.19651 0.93715 0.07116 0.0
H2303 H 0.18983 0.94641 0.03795 0.0
H2304 H 0.19165 0.892 0.95676 0.0
H2305 H 0.16734 0.85593 0.98393 0.0
H2306 H 0.18857 0.8951 0.06333 0.0
C2307 C 0.24258 0.97537 0.0031 0.0
C2308 C 0.24962 0.98426 0.97509 0.0
C2309 C 0.24114 0.96872 0.9516 0.0
C2310 C 0.22563 0.94478 0.95599 0.0
C2311 C 0.21909 0.93671 0.98399 0.0
C2312 C 0.22747 0.95159 0.00711 0.0
C2313 C 0.21838 0.9387 0.03513 0.0
C2314 C 0.23845 0.94037 0.05353 0.0
C2315 C 0.20423 0.94762 0.05148 0.0
C2316 C 0.20298 0.91418 0.02426 0.0
C2317 C 0.20372 0.91334 0.99472 0.0
C2318 C 0.19091 0.89254 0.97986 0.0
C2319 C 0.17699 0.87215 0.99553 0.0
C2320 C 0.17579 0.87261 0.02585 0.0
C2321 C 0.18914 0.89401 0.04027 0.0
H2322 H 0.04384 0.28148 0.94604 0.0
H2323 H 1.00196 0.2288 0.00905 0.0
H2324 H 0.03674 0.23985 0.03798 0.0
H2325 H 0.09375 0.27161 0.9518 0.0
H2326 H 0.11548 0.30186 0.94748 0.0
H2327 H 0.08721 0.29063 0.93113 0.0
H2328 H 0.08185 0.32219 0.95698 0.0
H2329 H 0.11008 0.33346 0.97343 0.0
H2330 H 0.08466 0.32473 0.99537 0.0
H2331 H 0.07456 0.25699 0.06192 0.0
H2332 H 0.11573 0.27737 0.07741 0.0
H2333 H 0.13559 0.31714 0.99852 0.0
C2334 C 0.04215 0.27222 0.96579 0.0
C2335 C 0.02009 0.25403 0.97504 0.0
C2336 C 0.01861 0.24243 1.00112 0.0
C2337 C 0.03828 0.2487 0.01795 0.0
C2338 C 0.05965 0.26645 0.00838 0.0
C2339 C 0.06199 0.27787 0.98276 0.0
C2340 C 0.08756 0.2957 0.97746 0.0
C2341 C 0.09652 0.28958 0.95036 0.0
C2342 C 0.09124 0.32049 0.97571 0.0
C2343 C 0.09883 0.29253 0.00426 0.0
C2344 C 0.08221 0.27572 0.02185 0.0
C2345 C 0.08785 0.27004 0.04825 0.0
C2346 C 0.1112 0.2817 0.05692 0.0
C2347 C 0.12869 0.29861 0.03911 0.0
C2348 C 0.12246 0.30407 0.01237 0.0
H2349 H 0.9921 0.53657 0.30059 0.0
H2350 H 0.9307 0.46931 0.31638 0.0
H2351 H 0.9132 0.48839 0.34392 0.0
H2352 H 0.9932 0.56247 0.36949 0.0
H2353 H 1.00186 0.59086 0.35495 0.0
H2354 H 0.01032 0.57207 0.3372 0.0
H2355 H 0.99121 0.57495 0.29018 0.0
H2356 H 0.98313 0.59409 0.30764 0.0
H2357 H 0.96115 0.56791 0.29047 0.0
H2358 H 0.90144 0.51439 0.36822 0.0
H2359 H 0.8947 0.54629 0.38358 0.0
H2360 H 0.9633 0.59702 0.3529 0.0
C2361 C 0.97491 0.52591 0.30968 0.0
C2362 C 0.96294 0.50136 0.30662 0.0
C2363 C 0.94047 0.48806 0.3189 0.0
C2364 C 0.93035 0.49874 0.33461 0.0
C2365 C 0.94282 0.52283 0.33792 0.0
C2366 C 0.96449 0.53634 0.32554 0.0
C2367 C 0.97363 0.56203 0.33139 0.0
C2368 C 0.99609 0.57246 0.34933 0.0
C2369 C 0.97749 0.57553 0.30325 0.0
C2370 C 0.95351 0.5608 0.34852 0.0
C2371 C 0.93607 0.53796 0.35231 0.0
C2372 C 0.91511 0.53233 0.36584 0.0
C2373 C 0.91149 0.55051 0.37479 0.0
C2374 C 0.9288 0.57399 0.37047 0.0
C2375 C 0.95024 0.57917 0.35765 0.0
H2376 H 0.44522 0.37679 0.39535 0.0
H2377 H 0.40114 0.33949 0.32315 0.0
H2378 H 0.42286 0.37412 0.29273 0.0
H2379 H 0.44899 0.43359 0.37579 0.0
H2380 H 0.47868 0.45072 0.388 0.0
H2381 H 0.45934 0.42321 0.40482 0.0
H2382 H 0.48891 0.40936 0.39443 0.0
H2383 H 0.50814 0.43667 0.37717 0.0
H2384 H 0.49834 0.40969 0.35817 0.0
H2385 H 0.45229 0.40952 0.2686 0.0
H2386 H 0.48267 0.44797 0.25305 0.0
H2387 H 0.50488 0.46669 0.34144 0.0
C2388 C 0.43995 0.37624 0.37331 0.0
C2389 C 0.42149 0.35555 0.36146 0.0
C2390 C 0.41511 0.35526 0.33255 0.0
C2391 C 0.42743 0.37477 0.31507 0.0
C2392 C 0.44583 0.39472 0.32698 0.0
C2393 C 0.4517 0.39603 0.35557 0.0
C2394 C 0.47191 0.42021 0.3626 0.0
C2395 C 0.46427 0.43267 0.38408 0.0
C2396 C 0.49308 0.41889 0.37376 0.0
C2397 C 0.4768 0.43178 0.3333 0.0
C2398 C 0.46168 0.41647 0.31317 0.0
C2399 C 0.46365 0.42207 0.28429 0.0
C2400 C 0.48096 0.44425 0.27573 0.0
C2401 C 0.49576 0.46119 0.29599 0.0
C2402 C 0.49383 0.45452 0.32524 0.0
H2403 H 0.56186 0.05776 0.2846 0.0
H2404 H 0.52099 0.00455 0.34703 0.0
H2405 H 0.55664 0.01595 0.37571 0.0
H2406 H 0.61311 0.05247 0.28759 0.0
H2407 H 0.63292 0.08333 0.28414 0.0
H2408 H 0.60417 0.07052 0.26888 0.0
H2409 H 0.5965 0.09952 0.29762 0.0
H2410 H 0.62515 0.11222 0.3133 0.0
H2411 H 0.59979 0.10095 0.33597 0.0
H2412 H 0.59747 0.03262 0.39649 0.0
H2413 H 0.63977 0.05261 0.40705 0.0
H2414 H 0.65294 0.09655 0.33245 0.0
C2415 C 0.56057 0.04849 0.30422 0.0
C2416 C 0.53894 0.03019 0.31364 0.0
C2417 C 0.5376 0.01855 0.33957 0.0
C2418 C 0.55768 0.02496 0.35597 0.0
C2419 C 0.57885 0.04331 0.34632 0.0
C2420 C 0.58037 0.05494 0.32109 0.0
C2421 C 0.60509 0.07414 0.31555 0.0
C2422 C 0.61437 0.06985 0.28738 0.0
C2423 C 0.60672 0.09812 0.31562 0.0
C2424 C 0.61734 0.07127 0.34127 0.0
C2425 C 0.60197 0.05343 0.35884 0.0
C2426 C 0.60962 0.04683 0.38306 0.0
C2427 C 0.63368 0.05838 0.38901 0.0
C2428 C 0.64977 0.0764 0.37086 0.0
C2429 C 0.64121 0.08318 0.34714 0.0
H2430 H 0.43181 0.11286 0.33332 0.0
H2431 H 0.38438 0.08011 0.26212 0.0
H2432 H 0.36602 0.104 0.27244 0.0
H2433 H 0.39126 0.1121 0.38019 0.0
H2434 H 0.41056 0.13973 0.39675 0.0
H2435 H 0.42222 0.12286 0.3812 0.0
H2436 H 0.44967 0.15774 0.34891 0.0
H2437 H 0.43833 0.17488 0.36471 0.0
H2438 H 0.43753 0.17117 0.32646 0.0
H2439 H 0.35072 0.12926 0.29356 0.0
H2440 H 0.34049 0.15411 0.32279 0.0
H2441 H 0.39665 0.16823 0.3815 0.0
C2442 C 0.41798 0.11108 0.31932 0.0
C2443 C 0.40971 0.09469 0.29669 0.0
C2444 C 0.39132 0.09279 0.27925 0.0
C2445 C 0.38067 0.10619 0.28509 0.0
C2446 C 0.38871 0.12147 0.30834 0.0
C2447 C 0.40711 0.12411 0.32498 0.0
C2448 C 0.41154 0.14042 0.3499 0.0
C2449 C 0.40872 0.12802 0.3787 0.0
C2450 C 0.4357 0.16235 0.34733 0.0
C2451 C 0.39233 0.14611 0.34529 0.0
C2452 C 0.37954 0.13531 0.32095 0.0
C2453 C 0.36074 0.13787 0.31249 0.0
C2454 C 0.35502 0.15192 0.3292 0.0
C2455 C 0.3678 0.16288 0.35426 0.0
C2456 C 0.38663 0.1599 0.36244 0.0
H2457 H 0.84988 0.20224 0.32668 0.0
H2458 H 0.83575 0.22394 0.40817 0.0
H2459 H 0.8573 0.26499 0.39239 0.0
H2460 H 0.90869 0.25041 0.31984 0.0
H2461 H 0.90715 0.25319 0.28166 0.0
H2462 H 0.88968 0.22529 0.29859 0.0
H2463 H 0.85241 0.22222 0.27641 0.0
H2464 H 0.86974 0.25011 0.25936 0.0
H2465 H 0.84591 0.24526 0.28243 0.0
H2466 H 0.87894 0.3028 0.36818 0.0
H2467 H 0.90277 0.33699 0.33807 0.0
H2468 H 0.90642 0.29252 0.27258 0.0
C2469 C 0.85126 0.21573 0.34099 0.0
C2470 C 0.8411 0.2101 0.36855 0.0
C2471 C 0.84344 0.22804 0.387 0.0
C2472 C 0.85557 0.25132 0.37819 0.0
C2473 C 0.86549 0.25637 0.35099 0.0
C2474 C 0.86374 0.23922 0.33269 0.0
C2475 C 0.87694 0.24978 0.30502 0.0
C2476 C 0.8968 0.24434 0.30105 0.0
C2477 C 0.86025 0.24134 0.27928 0.0
C2478 C 0.88634 0.27555 0.3107 0.0
C2479 C 0.87912 0.27871 0.33726 0.0
C2480 C 0.88474 0.3006 0.34738 0.0
C2481 C 0.89814 0.31988 0.33001 0.0
C2482 C 0.90617 0.31735 0.30291 0.0
C2483 C 0.90039 0.29488 0.29315 0.0
H2484 H 0.68581 0.5779 0.33694 0.0
H2485 H 0.7029 0.62012 0.26008 0.0
H2486 H 0.74486 0.63832 0.27223 0.0
H2487 H 0.72599 0.62147 0.3815 0.0
H2488 H 0.73315 0.60279 0.40192 0.0
H2489 H 0.70489 0.59096 0.38545 0.0
H2490 H 0.71118 0.56032 0.35853 0.0
H2491 H 0.7393 0.57176 0.37536 0.0
H2492 H 0.73693 0.56985 0.33693 0.0
H2493 H 0.78504 0.65349 0.29479 0.0
H2494 H 0.81963 0.66353 0.32487 0.0
H2495 H 0.77547 0.61296 0.3882 0.0
C2496 C 0.6983 0.5906 0.32219 0.0
C2497 C 0.69091 0.59742 0.29735 0.0
C2498 C 0.70802 0.61436 0.27902 0.0
C2499 C 0.73191 0.62489 0.28586 0.0
C2500 C 0.7384 0.6183 0.3111 0.0
C2501 C 0.72204 0.60139 0.32884 0.0
C2502 C 0.73323 0.59823 0.35552 0.0
C2503 C 0.72375 0.6037 0.38269 0.0
C2504 C 0.72996 0.57358 0.35664 0.0
C2505 C 0.75847 0.61633 0.35043 0.0
C2506 C 0.76118 0.62755 0.32452 0.0
C2507 C 0.78303 0.64478 0.31505 0.0
C2508 C 0.80254 0.65042 0.33229 0.0
C2509 C 0.80007 0.63916 0.35889 0.0
C2510 C 0.77773 0.62204 0.36814 0.0
H2511 H 0.61431 0.82387 0.65494 0.0
H2512 H 0.67697 0.87884 0.61478 0.0
H2513 H 0.67083 0.90819 0.63909 0.0
H2514 H 0.57977 0.84948 0.65204 0.0
H2515 H 0.56714 0.84036 0.68714 0.0
H2516 H 0.57724 0.82353 0.66805 0.0
H2517 H 0.60382 0.82736 0.71083 0.0
H2518 H 0.59393 0.84443 0.73003 0.0
H2519 H 0.62462 0.85588 0.72397 0.0
H2520 H 0.65812 0.93176 0.66713 0.0
H2521 H 0.63657 0.94804 0.69173 0.0
H2522 H 0.58155 0.87831 0.71312 0.0
C2523 C 0.62701 0.84203 0.65151 0.0
C2524 C 0.64611 0.84883 0.63263 0.0
C2525 C 0.66192 0.87295 0.62855 0.0
C2526 C 0.65882 0.88986 0.64267 0.0
C2527 C 0.64003 0.88251 0.66127 0.0
C2528 C 0.62433 0.8592 0.6657 0.0
C2529 C 0.60513 0.85611 0.68609 0.0
C2530 C 0.58089 0.84152 0.67249 0.0
C2531 C 0.60698 0.8453 0.7144 0.0
C2532 C 0.61146 0.88129 0.69049 0.0
C2533 C 0.63227 0.89621 0.67702 0.0
C2534 C 0.64192 0.92028 0.67797 0.0
C2535 C 0.62963 0.92936 0.69226 0.0
C2536 C 0.60757 0.91443 0.7047 0.0
C2537 C 0.59854 0.89008 0.70417 0.0
H2538 H 0.09595 0.70738 0.72201 0.0
H2539 H 0.0981 0.66507 0.65249 0.0
H2540 H 0.12158 0.70016 0.62384 0.0
H2541 H 0.09386 0.75186 0.67724 0.0
H2542 H 0.11311 0.776 0.69968 0.0
H2543 H 0.09522 0.74754 0.71512 0.0
H2544 H 0.13202 0.74894 0.73639 0.0
H2545 H 0.14998 0.77738 0.72096 0.0
H2546 H 0.15583 0.75416 0.71304 0.0
H2547 H 0.14412 0.73853 0.60192 0.0
H2548 H 0.16754 0.77997 0.58866 0.0
H2549 H 0.15437 0.79974 0.67206 0.0
C2550 C 0.10139 0.70566 0.70076 0.0
C2551 C 0.09531 0.68343 0.68954 0.0
C2552 C 0.10279 0.68187 0.66167 0.0
C2553 C 0.11604 0.70171 0.6451 0.0
C2554 C 0.12204 0.72328 0.65664 0.0
C2555 C 0.11526 0.72562 0.68386 0.0
C2556 C 0.12529 0.75135 0.69099 0.0
C2557 C 0.1057 0.75701 0.69606 0.0
C2558 C 0.14176 0.75836 0.71689 0.0
C2559 C 0.13867 0.76276 0.66361 0.0
C2560 C 0.13616 0.74606 0.64406 0.0
C2561 C 0.14631 0.75185 0.61702 0.0
C2562 C 0.15952 0.7754 0.60963 0.0
C2563 C 0.16275 0.79298 0.62927 0.0
C2564 C 0.15225 0.78658 0.65671 0.0
H2565 H 0.29419 0.38776 0.72772 0.0
H2566 H 0.33685 0.43751 0.66235 0.0
H2567 H 0.302 0.42778 0.63428 0.0
H2568 H 0.25065 0.34462 0.6793 0.0
H2569 H 0.22604 0.33773 0.70202 0.0
H2570 H 0.25437 0.34754 0.71756 0.0
H2571 H 0.252 0.38086 0.74335 0.0
H2572 H 0.22368 0.37113 0.72783 0.0
H2573 H 0.24671 0.40077 0.72273 0.0
H2574 H 0.264 0.41307 0.61203 0.0
H2575 H 0.22269 0.39505 0.59783 0.0
H2576 H 0.20207 0.35615 0.67736 0.0
C2577 C 0.29605 0.39656 0.70755 0.0
C2578 C 0.31837 0.41367 0.69747 0.0
C2579 C 0.32004 0.42473 0.67089 0.0
C2580 C 0.30032 0.41921 0.65457 0.0
C2581 C 0.27869 0.40268 0.66503 0.0
C2582 C 0.27617 0.39158 0.69095 0.0
C2583 C 0.25036 0.37509 0.69708 0.0
C2584 C 0.24505 0.34974 0.69911 0.0
C2585 C 0.24274 0.38241 0.72438 0.0
C2586 C 0.23915 0.37882 0.67055 0.0
C2587 C 0.25604 0.39465 0.65234 0.0
C2588 C 0.25053 0.40074 0.62614 0.0
C2589 C 0.22707 0.39044 0.61823 0.0
C2590 C 0.20932 0.37442 0.63654 0.0
C2591 C 0.21539 0.36857 0.66315 0.0
H2592 H 0.025 0.48665 0.66215 0.0
H2593 H 0.05901 0.49904 0.74475 0.0
H2594 H 0.07734 0.4761 0.7299 0.0
H2595 H 0.01174 0.42736 0.65567 0.0
H2596 H 0.01678 0.4286 0.61766 0.0
H2597 H 0.00753 0.44735 0.63373 0.0
H2598 H 0.04342 0.48344 0.6123 0.0
H2599 H 0.05278 0.4648 0.59608 0.0
H2600 H 0.07222 0.48812 0.61941 0.0
H2601 H 0.09177 0.45203 0.70683 0.0
H2602 H 0.09999 0.42603 0.67818 0.0
H2603 H 0.05517 0.42631 0.61051 0.0
C2604 C 0.03657 0.48472 0.67687 0.0
C2605 C 0.04076 0.49473 0.70458 0.0
C2606 C 0.05561 0.49153 0.7235 0.0
C2607 C 0.06613 0.47859 0.7152 0.0
C2608 C 0.06151 0.46875 0.68794 0.0
C2609 C 0.04699 0.47148 0.66905 0.0
C2610 C 0.04416 0.45797 0.64155 0.0
C2611 C 0.01853 0.4392 0.63689 0.0
C2612 C 0.05371 0.47457 0.61581 0.0
C2613 C 0.05923 0.44712 0.6481 0.0
C2614 C 0.06923 0.45391 0.67487 0.0
C2615 C 0.08398 0.44652 0.68587 0.0
C2616 C 0.08854 0.43164 0.66932 0.0
C2617 C 0.07818 0.42381 0.64205 0.0
C2618 C 0.06337 0.43186 0.63126 0.0
H2619 H 0.52096 0.56127 0.72496 0.0
H2620 H 0.50152 0.51908 0.64799 0.0
H2621 H 0.52471 0.55438 0.61895 0.0
H2622 H 0.51874 0.60948 0.69571 0.0
H2623 H 0.54385 0.63112 0.71497 0.0
H2624 H 0.52641 0.60239 0.72978 0.0
H2625 H 0.56307 0.59796 0.73363 0.0
H2626 H 0.58067 0.62672 0.71888 0.0
H2627 H 0.58053 0.60212 0.70223 0.0
H2628 H 0.55116 0.5949 0.59807 0.0
H2629 H 0.57654 0.63713 0.58766 0.0
H2630 H 0.57691 0.65232 0.6779 0.0
C2631 C 0.52175 0.5594 0.70205 0.0
C2632 C 0.50925 0.53732 0.68883 0.0
C2633 C 0.51062 0.5358 0.65866 0.0
C2634 C 0.5239 0.55576 0.64194 0.0
C2635 C 0.53586 0.57726 0.6556 0.0
C2636 C 0.53487 0.57918 0.68498 0.0
C2637 C 0.549 0.60435 0.69437 0.0
C2638 C 0.53357 0.61229 0.7096 0.0
C2639 C 0.56953 0.608 0.7134 0.0
C2640 C 0.55749 0.61631 0.66567 0.0
C2641 C 0.55019 0.60043 0.64354 0.0
C2642 C 0.55679 0.60752 0.61523 0.0
C2643 C 0.57115 0.63148 0.60946 0.0
C2644 C 0.5782 0.64802 0.63181 0.0
C2645 C 0.57125 0.64016 0.6602 0.0
H2646 H 0.34966 0.92193 0.69056 0.0
H2647 H 0.36114 0.93966 0.60041 0.0
H2648 H 0.40368 0.95536 0.60767 0.0
H2649 H 0.40038 0.97327 0.71541 0.0
H2650 H 0.40539 0.95837 0.74441 0.0
H2651 H 0.37621 0.94804 0.73148 0.0
H2652 H 0.3713 0.90719 0.72249 0.0
H2653 H 0.40044 0.91737 0.73544 0.0
H2654 H 0.39217 0.90457 0.70034 0.0
H2655 H 0.4454 0.9684 0.62586 0.0
H2656 H 0.4816 0.97913 0.6527 0.0
H2657 H 0.44168 0.95393 0.73109 0.0
C2658 C 0.36094 0.92878 0.67207 0.0
C2659 C 0.35186 0.92907 0.64468 0.0
C2660 C 0.36756 0.93896 0.62148 0.0
C2661 C 0.39174 0.94793 0.62547 0.0
C2662 C 0.39995 0.94726 0.65289 0.0
C2663 C 0.3849 0.93809 0.67577 0.0
C2664 C 0.39779 0.94005 0.70336 0.0
C2665 C 0.39476 0.95587 0.72493 0.0
C2666 C 0.38996 0.91585 0.71615 0.0
C2667 C 0.42259 0.95136 0.69255 0.0
C2668 C 0.42357 0.95538 0.66338 0.0
C2669 C 0.4447 0.96533 0.64867 0.0
C2670 C 0.46518 0.97125 0.66412 0.0
C2671 C 0.46454 0.96735 0.69407 0.0
C2672 C 0.44286 0.95736 0.70833 0.0
H2673 H 0.33334 0.39368 0.07351 0.0
H2674 H 0.32011 0.34619 0.14417 0.0
H2675 H 0.35576 0.37616 0.16835 0.0
H2676 H 0.3932 0.41485 0.07135 0.0
H2677 H 0.4009 0.44412 0.06145 0.0
H2678 H 0.3728 0.42018 0.05187 0.0
H2679 H 0.35281 0.44022 0.07765 0.0
H2680 H 0.38092 0.46421 0.08751 0.0
H2681 H 0.35939 0.44846 0.1147 0.0
H2682 H 0.39548 0.40907 0.18137 0.0
H2683 H 0.4363 0.44096 0.18087 0.0
H2684 H 0.42223 0.46857 0.10384 0.0
C2685 C 0.33768 0.38975 0.09435 0.0
C2686 C 0.32395 0.36766 0.10703 0.0
C2687 C 0.33046 0.363 0.13403 0.0
C2688 C 0.35055 0.37998 0.14804 0.0
C2689 C 0.36392 0.40152 0.13476 0.0
C2690 C 0.35773 0.40643 0.10849 0.0
C2691 C 0.37628 0.42985 0.0973 0.0
C2692 C 0.38638 0.42707 0.06883 0.0
C2693 C 0.36677 0.44668 0.09412 0.0
C2694 C 0.394 0.43728 0.12122 0.0
C2695 C 0.38659 0.42076 0.14267 0.0
C2696 C 0.40128 0.42241 0.16506 0.0
C2697 C 0.42447 0.44079 0.16475 0.0
C2698 C 0.4327 0.45735 0.14224 0.0
C2699 C 0.41671 0.45615 0.12124 0.0
H2700 H 0.57041 0.99091 0.16231 0.0
H2701 H 0.5107 0.93699 0.11726 0.0
H2702 H 0.53305 0.91748 0.10539 0.0
H2703 H 0.61067 0.99933 0.11643 0.0
H2704 H 0.63376 0.0028 0.14002 0.0
H2705 H 0.61176 0.00884 0.15284 0.0
H2706 H 0.60144 0.97929 0.19414 0.0
H2707 H 0.62398 0.97356 0.18203 0.0
H2708 H 0.59454 0.94989 0.1863 0.0
H2709 H 0.56379 0.90977 0.0882 0.0
H2710 H 0.59983 0.9116 0.07114 0.0
H2711 H 0.64054 0.97011 0.12762 0.0
C2712 C 0.5617 0.9742 0.15159 0.0
C2713 C 0.53877 0.96518 0.14108 0.0
C2714 C 0.5281 0.94385 0.12593 0.0
C2715 C 0.54072 0.93272 0.119 0.0
C2716 C 0.56387 0.9429 0.12789 0.0
C2717 C 0.57412 0.96278 0.14463 0.0
C2718 C 0.60001 0.9716 0.14841 0.0
C2719 C 0.6149 0.99714 0.13882 0.0
C2720 C 0.60531 0.9684 0.17957 0.0
C2721 C 0.60313 0.95514 0.12871 0.0
C2722 C 0.58191 0.93829 0.11784 0.0
C2723 C 0.58042 0.92244 0.09721 0.0
C2724 C 0.60106 0.92378 0.08744 0.0
C2725 C 0.62306 0.94096 0.09806 0.0
C2726 C 0.62399 0.95662 0.11931 0.0
H2727 H 0.07008 0.67963 0.10397 0.0
H2728 H 1.00244 0.6724 0.12176 0.0
H2729 H 0.99014 0.63483 0.1456 0.0
H2730 H 0.05196 0.62348 0.08569 0.0
H2731 H 0.07513 0.62123 0.10298 0.0
H2732 H 0.07989 0.64919 0.09174 0.0
H2733 H 0.09259 0.66361 0.14285 0.0
H2734 H 0.08591 0.63552 0.15605 0.0
H2735 H 0.07258 0.6507 0.17228 0.0
H2736 H 0.98338 0.59613 0.16199 0.0
H2737 H 0.98191 0.55824 0.16594 0.0
H2738 H 0.05375 0.59032 0.13803 0.0
C2739 C 0.05289 0.67036 0.11347 0.0
C2740 C 0.03726 0.67898 0.11115 0.0
C2741 C 0.0148 0.66626 0.12356 0.0
C2742 C 0.00768 0.64495 0.1373 0.0
C2743 C 0.02339 0.6368 0.13903 0.0
C2744 C 0.04562 0.64918 0.12767 0.0
C2745 C 0.05831 0.6355 0.13024 0.0
C2746 C 0.06679 0.63213 0.10091 0.0
C2747 C 0.07853 0.64704 0.15167 0.0
C2748 C 0.03911 0.61284 0.14234 0.0
C2749 C 0.01941 0.61425 0.14839 0.0
C2750 C 0.9989 0.595 0.15803 0.0
C2751 C 0.99828 0.57361 0.16049 0.0
C2752 C 0.01789 0.57161 0.15284 0.0
C2753 C 0.03877 0.59164 0.14467 0.0
H2754 H 0.66784 0.64799 0.87968 0.0
H2755 H 0.69162 0.60869 0.92985 0.0
H2756 H 0.65794 0.57203 0.91308 0.0
H2757 H 0.60939 0.61393 0.89593 0.0
H2758 H 0.59866 0.61596 0.86121 0.0
H2759 H 0.62656 0.63876 0.87327 0.0
H2760 H 0.64568 0.63348 0.8276 0.0
H2761 H 0.61774 0.61028 0.81572 0.0
H2762 H 0.64198 0.60524 0.81939 0.0
H2763 H 0.62051 0.54004 0.89479 0.0
H2764 H 0.57882 0.51538 0.8831 0.0
H2765 H 0.57793 0.57493 0.84629 0.0
C2766 C 0.66614 0.63166 0.88678 0.0
C2767 C 0.68253 0.6312 0.90581 0.0
C2768 C 0.67942 0.60948 0.91509 0.0
C2769 C 0.66046 0.58855 0.90544 0.0
C2770 C 0.64472 0.58959 0.88652 0.0
C2771 C 0.64718 0.61057 0.87753 0.0
C2772 C 0.62629 0.60686 0.86002 0.0
C2773 C 0.61453 0.61962 0.87343 0.0
C2774 C 0.63335 0.61442 0.82883 0.0
C2775 C 0.61104 0.58062 0.86217 0.0
C2776 C 0.62248 0.57096 0.87656 0.0
C2777 C 0.61151 0.54732 0.88312 0.0
C2778 C 0.58789 0.53342 0.87627 0.0
C2779 C 0.57541 0.54329 0.86353 0.0
C2780 C 0.58734 0.56692 0.85524 0.0
H2781 H 0.39074 0.06917 0.88352 0.0
H2782 H 0.35118 0.01364 0.94398 0.0
H2783 H 0.37578 0.99631 0.93332 0.0
H2784 H 0.39881 0.03278 0.83142 0.0
H2785 H 0.42802 0.05471 0.82185 0.0
H2786 H 0.40738 0.06318 0.83369 0.0
H2787 H 0.43566 0.08862 0.87378 0.0
H2788 H 0.45657 0.0807 0.86161 0.0
H2789 H 0.44707 0.07578 0.89837 0.0
H2790 H 0.40247 0.98398 0.91527 0.0
H2791 H 0.43595 0.98107 0.89763 0.0
H2792 H 0.46034 0.04521 0.84986 0.0
C2793 C 0.38741 0.05344 0.89439 0.0
C2794 C 0.36902 0.04245 0.91425 0.0
C2795 C 0.36511 0.02201 0.92845 0.0
C2796 C 0.37885 0.01201 0.92243 0.0
C2797 C 0.39628 0.02265 0.90194 0.0
C2798 C 0.40098 0.04311 0.88844 0.0
C2799 C 0.42138 0.05111 0.86795 0.0
C2800 C 0.41342 0.05041 0.83688 0.0
C2801 C 0.44135 0.07549 0.87593 0.0
C2802 C 0.4279 0.03244 0.87307 0.0
C2803 C 0.41256 0.01583 0.89204 0.0
C2804 C 0.41459 0.99678 0.90034 0.0
C2805 C 0.43346 0.99514 0.88999 0.0
C2806 C 0.4503 0.01271 0.87214 0.0
C2807 C 0.4473 0.03134 0.86296 0.0
H2808 H 0.94023 0.32827 0.92592 0.0
H2809 H 0.98118 0.31868 0.86052 0.0
H2810 H 0.9879 0.35482 0.83674 0.0
H2811 H 0.91465 0.35557 0.87883 0.0
H2812 H 0.91687 0.37545 0.90661 0.0
H2813 H 0.91208 0.34695 0.91583 0.0
H2814 H 0.94864 0.3658 0.94849 0.0
H2815 H 0.95346 0.39424 0.93944 0.0
H2816 H 0.97625 0.38732 0.93368 0.0
H2817 H 0.99549 0.39484 0.82474 0.0
H2818 H 0.00395 0.43544 0.82618 0.0
H2819 H 0.95567 0.4181 0.89714 0.0
C2820 C 0.9502 0.33351 0.90626 0.0
C2821 C 0.96024 0.32069 0.89511 0.0
C2822 C 0.97343 0.3283 0.86955 0.0
C2823 C 0.97718 0.3487 0.85575 0.0
C2824 C 0.9675 0.36125 0.86767 0.0
C2825 C 0.95414 0.35386 0.89227 0.0
C2826 C 0.94774 0.37167 0.90237 0.0
C2827 C 0.92126 0.36182 0.9008 0.0
C2828 C 0.95709 0.38025 0.93278 0.0
C2829 C 0.96044 0.39066 0.88034 0.0
C2830 C 0.97147 0.38422 0.86028 0.0
C2831 C 0.98647 0.3999 0.8399 0.0
C2832 C 0.99107 0.423 0.84078 0.0
C2833 C 0.98065 0.43025 0.86188 0.0
C2834 C 0.96427 0.41341 0.88094 0.0
H2835 H 1.00126 0.7265 0.4015 0.0
H2836 H 0.98695 0.67981 0.47339 0.0
H2837 H 0.02197 0.70995 0.49805 0.0
H2838 H 0.0613 0.74783 0.40131 0.0
H2839 H 0.0694 0.77714 0.39107 0.0
H2840 H 0.04139 0.75331 0.38094 0.0
H2841 H 0.02131 0.77377 0.40544 0.0
H2842 H 0.04935 0.79758 0.41593 0.0
H2843 H 0.02723 0.78203 0.44257 0.0
H2844 H 0.06085 0.74244 0.51207 0.0
H2845 H 0.10189 0.77364 0.51258 0.0
H2846 H 0.09054 0.80125 0.43368 0.0
C2847 C 0.00528 0.72285 0.42268 0.0
C2848 C 0.99136 0.70085 0.43559 0.0
C2849 C 0.99745 0.6965 0.46304 0.0
C2850 C 0.01717 0.7136 0.47737 0.0
C2851 C 0.03073 0.73501 0.464 0.0
C2852 C 0.02513 0.73971 0.43722 0.0
C2853 C 0.04411 0.76308 0.42625 0.0
C2854 C 0.05467 0.76015 0.39825 0.0
C2855 C 0.03494 0.78013 0.42233 0.0
C2856 C 0.0614 0.77046 0.45076 0.0
C2857 C 0.05326 0.75413 0.47243 0.0
C2858 C 0.06727 0.75566 0.49557 0.0
C2859 C 0.09061 0.77366 0.49583 0.0
C2860 C 0.0997 0.78995 0.4731 0.0
C2861 C 0.08434 0.78898 0.45127 0.0
H2862 H 0.27486 0.27274 0.40878 0.0
H2863 H 0.32433 0.30729 0.47755 0.0
H2864 H 0.29593 0.31535 0.50181 0.0
H2865 H 0.25604 0.31302 0.40508 0.0
H2866 H 0.22614 0.29225 0.39665 0.0
H2867 H 0.24891 0.28625 0.38699 0.0
H2868 H 0.22803 0.24732 0.41506 0.0
H2869 H 0.20514 0.25322 0.4248 0.0
H2870 H 0.22078 0.24744 0.4522 0.0
H2871 H 0.26472 0.32508 0.51442 0.0
H2872 H 0.23378 0.33547 0.51406 0.0
H2873 H 0.20286 0.29117 0.43972 0.0
C2874 C 0.27951 0.28151 0.42927 0.0
C2875 C 0.3018 0.28941 0.44127 0.0
C2876 C 0.30738 0.30119 0.46789 0.0
C2877 C 0.29131 0.30571 0.48192 0.0
C2878 C 0.26967 0.29822 0.46915 0.0
C2879 C 0.26371 0.28622 0.44349 0.0
C2880 C 0.24038 0.28212 0.43279 0.0
C2881 C 0.24304 0.29412 0.40367 0.0
C2882 C 0.22252 0.25596 0.43114 0.0
C2883 C 0.23429 0.29396 0.4562 0.0
C2884 C 0.25137 0.30319 0.47697 0.0
C2885 C 0.25094 0.31745 0.49865 0.0
C2886 C 0.23311 0.32313 0.4984 0.0
C2887 C 0.21581 0.31443 0.47671 0.0
C2888 C 0.21594 0.29865 0.45635 0.0
H2889 H 0.73185 0.00983 0.41813 0.0
H2890 H 0.69252 0.02205 0.48321 0.0
H2891 H 0.68396 0.98525 0.5072 0.0
H2892 H 0.69258 0.95075 0.41175 0.0
H2893 H 0.7144 0.94273 0.40462 0.0
H2894 H 0.71985 0.97136 0.39539 0.0
H2895 H 0.75766 0.98965 0.42591 0.0
H2896 H 0.7522 0.96097 0.43535 0.0
H2897 H 0.75623 0.98162 0.46302 0.0
H2898 H 0.6739 0.94348 0.51856 0.0
H2899 H 0.66417 0.90218 0.51586 0.0
H2900 H 0.71434 0.92022 0.44719 0.0
C2901 C 0.72191 0.0051 0.43782 0.0
C2902 C 0.71285 0.01877 0.44883 0.0
C2903 C 0.69955 0.01174 0.47436 0.0
C2904 C 0.69474 0.99095 0.48821 0.0
C2905 C 0.70349 0.97754 0.47635 0.0
C2906 C 0.71698 0.98453 0.45181 0.0
C2907 C 0.72232 0.96613 0.44145 0.0
C2908 C 0.71166 0.95723 0.41156 0.0
C2909 C 0.74868 0.97514 0.44146 0.0
C2910 C 0.70986 0.94768 0.46402 0.0
C2911 C 0.69876 0.95426 0.48383 0.0
C2912 C 0.68302 0.93835 0.50364 0.0
C2913 C 0.67768 0.91494 0.50214 0.0
C2914 C 0.68828 0.90789 0.48113 0.0
C2915 C 0.70573 0.92496 0.46336 0.0
H2916 H 0.25239 0.86929 0.22726 0.0
H2917 H 0.23519 0.90301 0.15935 0.0
H2918 H 0.27572 0.93532 0.15941 0.0
H2919 H 0.28173 0.9186 0.26687 0.0
H2920 H 0.30351 0.91257 0.28105 0.0
H2921 H 0.27549 0.88895 0.27058 0.0
H2922 H 0.29516 0.87326 0.23626 0.0
H2923 H 0.32339 0.89666 0.24693 0.0
H2924 H 0.31542 0.89231 0.20964 0.0
H2925 H 0.31515 0.96699 0.17259 0.0
H2926 H 0.35108 0.99556 0.19706 0.0
H2927 H 0.34191 0.94319 0.25963 0.0
C2928 C 0.25714 0.88324 0.212 0.0
C2929 C 0.24038 0.88355 0.1934 0.0
C2930 C 0.24762 0.90203 0.17351 0.0
C2931 C 0.27065 0.9206 0.17351 0.0
C2932 C 0.28621 0.92049 0.19355 0.0
C2933 C 0.27982 0.90221 0.21235 0.0
C2934 C 0.29859 0.90785 0.2346 0.0
C2935 C 0.28927 0.90694 0.26506 0.0
C2936 C 0.30875 0.89155 0.23167 0.0
C2937 C 0.31622 0.93254 0.226 0.0
C2938 C 0.30889 0.93927 0.20194 0.0
C2939 C 0.32126 0.96181 0.19114 0.0
C2940 C 0.34155 0.97797 0.20537 0.0
C2941 C 0.34925 0.97161 0.2303 0.0
C2942 C 0.33656 0.94848 0.24047 0.0
H2943 H 0.13589 0.38721 0.21645 0.0
H2944 H 0.1005 0.32468 0.16485 0.0
H2945 H 0.06505 0.32808 0.16454 0.0
H2946 H 0.09194 0.37425 0.26164 0.0
H2947 H 0.09609 0.40315 0.26569 0.0
H2948 H 0.12031 0.39945 0.25607 0.0
H2949 H 0.12776 0.42447 0.21025 0.0
H2950 H 0.10412 0.42898 0.22079 0.0
H2951 H 0.10401 0.41735 0.18588 0.0
H2952 H 0.03165 0.33411 0.17724 0.0
H2953 H 0.00353 0.34314 0.20037 0.0
H2954 H 0.06046 0.40116 0.24482 0.0
C2955 C 0.12093 0.37477 0.2042 0.0
C2956 C 0.121 0.35585 0.19043 0.0
C2957 C 0.10102 0.33963 0.17499 0.0
C2958 C 0.08074 0.34135 0.17483 0.0
C2959 C 0.08085 0.35957 0.18988 0.0
C2960 C 0.10058 0.37624 0.20387 0.0
C2961 C 0.09549 0.39251 0.22113 0.0
C2962 C 0.10129 0.3923 0.25301 0.0
C2963 C 0.10862 0.4173 0.20876 0.0
C2964 C 0.0695 0.38145 0.21626 0.0
C2965 C 0.06147 0.36284 0.1976 0.0
C2966 C 0.03781 0.34894 0.19142 0.0
C2967 C 0.02195 0.35412 0.20478 0.0
C2968 C 0.02981 0.37281 0.22446 0.0
C2969 C 0.05393 0.3868 0.22983 0.0
H2970 H 0.6478 0.6678 0.21319 0.0
H2971 H 0.58318 0.64449 0.25975 0.0
H2972 H 0.58058 0.67789 0.24089 0.0
H2973 H 0.6715 0.72627 0.22784 0.0
H2974 H 0.68527 0.7366 0.19352 0.0
H2975 H 0.67984 0.70885 0.20666 0.0
H2976 H 0.65684 0.68926 0.1603 0.0
H2977 H 0.66187 0.71704 0.1473 0.0
H2978 H 0.63254 0.69285 0.15015 0.0
H2979 H 0.58689 0.71551 0.22178 0.0
H2980 H 0.60461 0.75725 0.20987 0.0
H2981 H 0.66552 0.75721 0.17637 0.0
C2982 C 0.63291 0.66953 0.21905 0.0
C2983 C 0.61559 0.65341 0.2378 0.0
C2984 C 0.5966 0.65653 0.24533 0.0
C2985 C 0.59485 0.67533 0.23448 0.0
C2986 C 0.61217 0.69088 0.216 0.0
C2987 C 0.63096 0.68831 0.2085 0.0
C2988 C 0.64861 0.709 0.19115 0.0
C2989 C 0.67271 0.72088 0.20568 0.0
C2990 C 0.65004 0.70159 0.1604 0.0
C2991 C 0.63756 0.7243 0.19172 0.0
C2992 C 0.61609 0.71308 0.20521 0.0
C2993 C 0.60344 0.72431 0.21068 0.0
C2994 C 0.61352 0.74795 0.20367 0.0
C2995 C 0.63614 0.76016 0.1917 0.0
C2996 C 0.64786 0.74797 0.18453 0.0
H2997 H 0.75355 0.13381 0.77373 0.0
H2998 H 0.76979 0.10612 0.84899 0.0
H2999 H 0.72917 0.0738 0.85037 0.0
H3000 H 0.69085 0.11297 0.78772 0.0
H3001 H 0.68342 0.10521 0.75069 0.0
H3002 H 0.71168 0.12923 0.76004 0.0
H3003 H 0.73135 0.11001 0.7318 0.0
H3004 H 0.70327 0.08582 0.72268 0.0
H3005 H 0.72442 0.08078 0.74071 0.0
H3006 H 0.68917 0.04077 0.83842 0.0
H3007 H 0.65307 0.01074 0.8151 0.0
H3008 H 0.66427 0.0585 0.74541 0.0
C3009 C 0.74853 0.12127 0.79094 0.0
C3010 C 0.76505 0.1226 0.81121 0.0
C3011 C 0.75752 0.10586 0.83348 0.0
C3012 C 0.73445 0.08726 0.83429 0.0
C3013 C 0.71915 0.08559 0.81267 0.0
C3014 C 0.72588 0.10227 0.79149 0.0
C3015 C 0.70753 0.09485 0.76831 0.0
C3016 C 0.69779 0.11156 0.76661 0.0
C3017 C 0.71722 0.09274 0.73917 0.0
C3018 C 0.68949 0.07121 0.77952 0.0
C3019 C 0.69638 0.06625 0.80527 0.0
C3020 C 0.68344 0.04464 0.81852 0.0
C3021 C 0.66306 0.02763 0.80501 0.0
C3022 C 0.65587 0.03232 0.77849 0.0
C3023 C 0.66915 0.05452 0.76588 0.0
H3024 H 0.94299 0.60134 0.74937 0.0
H3025 H 0.99955 0.65102 0.80297 0.0
H3026 H 0.97204 0.65944 0.82874 0.0
H3027 H 0.91572 0.63359 0.73982 0.0
H3028 H 0.88632 0.60935 0.74101 0.0
H3029 H 0.90973 0.60483 0.72982 0.0
H3030 H 0.89835 0.57332 0.76914 0.0
H3031 H 0.87495 0.57794 0.78057 0.0
H3032 H 0.89668 0.58056 0.80589 0.0
H3033 H 0.93959 0.66624 0.84437 0.0
H3034 H 0.90586 0.67245 0.8463 0.0
H3035 H 0.86974 0.61725 0.78414 0.0
C3036 C 0.94952 0.61371 0.76684 0.0
C3037 C 0.97347 0.62556 0.77407 0.0
C3038 C 0.98131 0.64174 0.79697 0.0
C3039 C 0.96577 0.64651 0.8119 0.0
C3040 C 0.94233 0.63478 0.80397 0.0
C3041 C 0.93421 0.61861 0.78205 0.0
C3042 C 0.90865 0.6099 0.77607 0.0
C3043 C 0.9049 0.61472 0.74484 0.0
C3044 C 0.89378 0.58388 0.78335 0.0
C3045 C 0.90402 0.62468 0.79687 0.0
C3046 C 0.9235 0.63852 0.81326 0.0
C3047 C 0.92408 0.65514 0.83209 0.0
C3048 C 0.90469 0.65842 0.83324 0.0
C3049 C 0.88505 0.6453 0.81547 0.0
C3050 C 0.88444 0.62751 0.79808 0.0
H3051 H 0.37961 0.24946 0.77966 0.0
H3052 H 0.32934 0.23164 0.84828 0.0
H3053 H 0.33868 0.27264 0.85041 0.0
H3054 H 0.42106 0.31138 0.79795 0.0
H3055 H 0.4239 0.31989 0.76089 0.0
H3056 H 0.41841 0.2912 0.77034 0.0
H3057 H 0.38207 0.273 0.73741 0.0
H3058 H 0.3872 0.3015 0.72812 0.0
H3059 H 0.35951 0.28028 0.74299 0.0
H3060 H 0.34799 0.31374 0.83896 0.0
H3061 H 0.35623 0.35048 0.81526 0.0
H3062 H 0.39708 0.33965 0.75091 0.0
C3063 C 0.37076 0.25413 0.79554 0.0
C3064 C 0.35349 0.23709 0.81359 0.0
C3065 C 0.3428 0.24426 0.83438 0.0
C3066 C 0.34792 0.26756 0.83563 0.0
C3067 C 0.36367 0.28345 0.8159 0.0
C3068 C 0.37501 0.27698 0.79631 0.0
C3069 C 0.38804 0.29588 0.77429 0.0
C3070 C 0.41442 0.30514 0.77599 0.0
C3071 C 0.37864 0.28714 0.74393 0.0
C3072 C 0.38198 0.31394 0.78421 0.0
C3073 C 0.36823 0.30667 0.80849 0.0
C3074 C 0.359 0.31972 0.82019 0.0
C3075 C 0.36365 0.34049 0.80648 0.0
C3076 C 0.37721 0.34789 0.78117 0.0
C3077 C 0.38681 0.33458 0.77034 0.0
H3078 H 1.00164 0.31208 0.5495 0.0
H3079 H 0.0235 0.27274 0.60273 0.0
H3080 H 0.99002 0.23608 0.58543 0.0
H3081 H 0.94285 0.27908 0.56243 0.0
H3082 H 0.93352 0.28081 0.52671 0.0
H3083 H 0.96115 0.30346 0.53968 0.0
H3084 H 0.98156 0.29705 0.49611 0.0
H3085 H 0.95387 0.27397 0.48335 0.0
H3086 H 0.9776 0.2685 0.48946 0.0
H3087 H 0.95266 0.20422 0.56649 0.0
H3088 H 0.9112 0.18002 0.55348 0.0
H3089 H 0.91253 0.23962 0.51346 0.0
C3090 C 0.99953 0.29573 0.55723 0.0
C3091 C 0.01524 0.29525 0.57735 0.0
C3092 C 0.01177 0.27353 0.58719 0.0
C3093 C 0.99293 0.25261 0.57726 0.0
C3094 C 0.97782 0.25367 0.55731 0.0
C3095 C 0.98081 0.27468 0.54753 0.0
C3096 C 0.96068 0.27106 0.52854 0.0
C3097 C 0.94885 0.28437 0.54006 0.0
C3098 C 0.96892 0.27807 0.49753 0.0
C3099 C 0.94501 0.2449 0.53105 0.0
C3100 C 0.95575 0.23513 0.5467 0.0
C3101 C 0.94423 0.21158 0.55382 0.0
C3102 C 0.92074 0.19794 0.54621 0.0
C3103 C 0.90889 0.20799 0.53224 0.0
C3104 C 0.92144 0.23146 0.52338 0.0
H3105 H 0.68928 0.68329 0.55236 0.0
H3106 H 0.73208 0.75579 0.57678 0.0
H3107 H 0.76708 0.75544 0.55956 0.0
H3108 H 0.72825 0.66639 0.57799 0.0
H3109 H 0.72255 0.64518 0.55042 0.0
H3110 H 0.70043 0.65213 0.56004 0.0
H3111 H 0.69788 0.66247 0.50716 0.0
H3112 H 0.72027 0.65579 0.4975 0.0
H3113 H 0.72384 0.68395 0.48912 0.0
H3114 H 0.79773 0.74673 0.54425 0.0
H3115 H 0.82244 0.72888 0.53745 0.0
H3116 H 0.76077 0.66151 0.52486 0.0
C3117 C 0.70596 0.69922 0.55342 0.0
C3118 C 0.70789 0.71973 0.56537 0.0
C3119 C 0.73014 0.73997 0.5674 0.0
C3120 C 0.75012 0.73999 0.55749 0.0
C3121 C 0.7477 0.71952 0.54593 0.0
C3122 C 0.72624 0.69939 0.54418 0.0
C3123 C 0.72893 0.67899 0.53438 0.0
C3124 C 0.71949 0.65954 0.55706 0.0
C3125 C 0.71702 0.66976 0.50531 0.0
C3126 C 0.75527 0.69069 0.53171 0.0
C3127 C 0.76566 0.71422 0.5378 0.0
C3128 C 0.78982 0.72845 0.53893 0.0
C3129 C 0.80372 0.71823 0.53487 0.0
C3130 C 0.79345 0.69403 0.52992 0.0
C3131 C 0.76897 0.68021 0.52753 0.0
H3132 H 0.2997 0.08618 0.50821 0.0
H3133 H 0.33904 0.11749 0.58607 0.0
H3134 H 0.33024 0.07952 0.60356 0.0
H3135 H 0.25558 0.03143 0.53743 0.0
H3136 H 0.25628 0.01353 0.50886 0.0
H3137 H 0.26411 0.04331 0.50191 0.0
H3138 H 0.30394 0.05135 0.48174 0.0
H3139 H 0.29603 0.02153 0.48874 0.0
H3140 H 0.32256 0.04497 0.50351 0.0
H3141 H 0.31485 0.03958 0.61606 0.0
H3142 H 0.30166 0.99782 0.61805 0.0
H3143 H 0.27755 0.98987 0.53025 0.0
C3144 C 0.3065 0.08493 0.52878 0.0
C3145 C 0.31884 0.10482 0.54647 0.0
C3146 C 0.32832 0.10252 0.57276 0.0
C3147 C 0.32355 0.08096 0.58299 0.0
C3148 C 0.31029 0.06164 0.56613 0.0
C3149 C 0.30268 0.06321 0.53912 0.0
C3150 C 0.29069 0.03926 0.52497 0.0
C3151 C 0.26514 0.03143 0.51789 0.0
C3152 C 0.30411 0.03929 0.49814 0.0
C3153 C 0.29248 0.02436 0.5487 0.0
C3154 C 0.30346 0.0379 0.57233 0.0
C3155 C 0.30664 0.02873 0.59755 0.0
C3156 C 0.29905 0.00502 0.59852 0.0
C3157 C 0.28873 0.99077 0.57437 0.0
C3158 C 0.28527 1.00043 0.54903 0.0
loop_
_geom_bond_atom_site_label_1
_geom_bond_atom_site_label_2
_geom_bond_distance
_geom_bond_site_symmetry_2
_ccdc_geom_bond_type
C0 C1 1.359 . S
C0 N5 1.330 . S
C0 C61 1.504 . S
C1 C0 1.359 . S
C1 C2 1.366 . S
C1 H63 0.929 . S
C2 C1 1.366 . S
C2 C3 1.415 . S
C2 H64 0.932 . S
C3 C2 1.415 . S
C3 C4 1.366 . S
C3 H65 0.931 . S
C4 C3 1.366 . S
C4 N5 1.325 . S
C4 C6 1.516 . S
N5 C0 1.330 . S
N5 C4 1.325 . S
N5 Co21 1.869 . S
C6 C4 1.516 . S
C6 N30 1.316 . S
C6 O53 1.263 . S
C7 C8 1.421 . S
C7 C12 1.360 . S
C7 N30 1.436 . S
C8 C7 1.421 . S
C8 C9 1.379 . S
C8 H66 0.929 . S
C9 C8 1.379 . S
C9 C10 1.417 . S
C10 C9 1.417 . S
C10 C11 1.352 . S
C10 H67 0.929 . S
C11 C10 1.352 . S
C11 C12 1.393 . S
C12 C7 1.360 . S
C12 C11 1.393 . S
C12 H68 0.931 . S
Cd13 O33 2.329 . S
Cd13 O35 2.350 . S
Cd13 O36 2.277 . S
Cd13 O38 2.173 . S
Cd13 O42 2.263 . S
Cd13 O53 2.366 . S
Cd14 O32 2.352 . S
Cd14 O39 2.250 1_556 S
Cd14 O43 2.308 1_556 S
C15 C19 1.403 . S
C15 C20 1.370 . S
C15 N31 1.423 . S
C16 C17 1.389 . S
C16 C20 1.389 . S
C17 C16 1.389 . S
C17 C18 1.379 . S
C17 H69 0.929 . S
C18 C17 1.379 . S
C18 C19 1.405 . S
C19 C15 1.403 . S
C19 C18 1.405 . S
C19 H70 0.932 . S
C20 C15 1.370 . S
C20 C16 1.389 . S
C20 H71 0.931 . S
Co21 N5 1.869 . S
Co21 N22 1.955 . S
Co21 N23 1.864 . S
Co21 N29 1.958 . S
Co21 N30 1.953 . S
Co21 N31 1.974 . S
N22 Co21 1.955 . S
N22 C40 1.329 . S
N22 C55 1.432 . S
N23 Co21 1.864 . S
N23 C24 1.327 . S
N23 C28 1.342 . S
C24 N23 1.327 . S
C24 C25 1.407 . S
C24 C40 1.481 . S
C25 C24 1.407 . S
C25 C26 1.364 . S
C25 H72 0.930 . S
C26 C25 1.364 . S
C26 C27 1.390 . S
C26 H73 0.931 . S
C27 C26 1.390 . S
C27 C28 1.346 . S
C27 H74 0.930 . S
C28 N23 1.342 . S
C28 C27 1.346 . S
C28 C44 1.516 . S
N29 Co21 1.958 . S
N29 C44 1.324 . S
N29 C46 1.427 . S
N30 C6 1.316 . S
N30 C7 1.436 . S
N30 Co21 1.953 . S
N31 C15 1.423 . S
N31 Co21 1.974 . S
N31 C61 1.309 . S
O32 Cd14 2.352 . S
O32 C52 1.235 1_556 S
O33 Cd13 2.329 . S
O33 C52 1.270 . S
C34 O35 1.270 . S
C34 O36 1.248 . S
O35 Cd13 2.350 . S
O35 C34 1.270 . S
O36 Cd13 2.277 . S
O36 C34 1.248 . S
C37 O38 1.277 . S
C37 O39 1.230 . S
O38 Cd13 2.173 . S
O38 C37 1.277 . S
O39 Cd14 2.250 1_554 S
O39 C37 1.230 . S
C40 N22 1.329 . S
C40 C24 1.481 . S
C40 O41 1.246 . S
O41 C40 1.246 . S
O42 Cd13 2.263 . S
O42 C54 1.258 . S
O43 Cd14 2.308 1_554 S
O43 C54 1.274 . S
C44 C28 1.516 . S
C44 N29 1.324 . S
C44 O45 1.238 . S
O45 C44 1.238 . S
C46 N29 1.427 . S
C46 C47 1.394 . S
C46 C51 1.395 . S
C47 C46 1.394 . S
C47 C48 1.380 . S
C47 H75 0.929 . S
C48 C47 1.380 . S
C48 C49 1.384 . S
C48 C54 1.495 . S
C49 C48 1.384 . S
C49 C50 1.382 . S
C49 H76 0.930 . S
C50 C49 1.382 . S
C50 C51 1.398 . S
C51 C46 1.395 . S
C51 C50 1.398 . S
C51 H77 0.930 . S
C52 O32 1.235 1_554 S
C52 O33 1.270 . S
O53 C6 1.263 . S
O53 Cd13 2.366 . S
C54 O42 1.258 . S
C54 O43 1.274 . S
C54 C48 1.495 . S
C55 N22 1.432 . S
C55 C56 1.381 . S
C55 C60 1.385 . S
C56 C55 1.381 . S
C56 C57 1.371 . S
C56 H78 0.932 . S
C57 C56 1.371 . S
C57 C58 1.400 . S
C58 C57 1.400 . S
C58 C59 1.351 . S
C58 H79 0.930 . S
C59 C58 1.351 . S
C59 C60 1.388 . S
C60 C55 1.385 . S
C60 C59 1.388 . S
C60 H80 0.929 . S
C61 C0 1.504 . S
C61 N31 1.309 . S
C61 O62 1.258 . S
O62 C61 1.258 . S
H63 C1 0.929 . S
H64 C2 0.932 . S
H65 C3 0.931 . S
H66 C8 0.929 . S
H67 C10 0.929 . S
H68 C12 0.931 . S
H69 C17 0.929 . S
H70 C19 0.932 . S
H71 C20 0.931 . S
H72 C25 0.930 . S
H73 C26 0.931 . S
H74 C27 0.930 . S
H75 C47 0.929 . S
H76 C49 0.930 . S
H77 C51 0.930 . S
H78 C56 0.932 . S
H79 C58 0.930 . S
H80 C60 0.929 . S
C81 C82 1.359 . S
C81 N86 1.330 . S
C81 C142 1.504 . S
C82 C81 1.359 . S
C82 C83 1.366 . S
C82 H144 0.929 . S
C83 C82 1.366 . S
C83 C84 1.415 . S
C83 H145 0.932 . S
C84 C83 1.415 . S
C84 C85 1.366 . S
C84 H146 0.931 . S
C85 C84 1.366 . S
C85 N86 1.325 . S
C85 C87 1.516 . S
N86 C81 1.330 . S
N86 C85 1.325 . S
N86 Co102 1.869 . S
C87 C85 1.516 . S
C87 N111 1.316 . S
C87 O134 1.263 . S
C88 C89 1.421 . S
C88 C93 1.360 . S
C88 N111 1.436 . S
C89 C88 1.421 . S
C89 C90 1.379 . S
C89 H147 0.929 . S
C90 C89 1.379 . S
C90 C91 1.417 . S
C91 C90 1.417 . S
C91 C92 1.352 . S
C91 H148 0.929 . S
C92 C91 1.352 . S
C92 C93 1.393 . S
C93 C88 1.360 . S
C93 C92 1.393 . S
C93 H149 0.931 . S
Cd94 O114 2.329 . S
Cd94 O116 2.350 . S
Cd94 O117 2.277 . S
Cd94 O119 2.173 . S
Cd94 O123 2.263 . S
Cd94 O134 2.366 . S
Cd95 O113 2.352 . S
Cd95 O120 2.250 1_556 S
Cd95 O124 2.308 1_556 S
C96 C100 1.403 . S
C96 C101 1.370 . S
C96 N112 1.423 . S
C97 C98 1.389 . S
C97 C101 1.389 . S
C98 C97 1.389 . S
C98 C99 1.379 . S
C98 H150 0.929 . S
C99 C98 1.379 . S
C99 C100 1.405 . S
C100 C96 1.403 . S
C100 C99 1.405 . S
C100 H151 0.932 . S
C101 C96 1.370 . S
C101 C97 1.389 . S
C101 H152 0.931 . S
Co102 N86 1.869 . S
Co102 N103 1.955 . S
Co102 N104 1.864 . S
Co102 N110 1.958 . S
Co102 N111 1.953 . S
Co102 N112 1.974 . S
N103 Co102 1.955 . S
N103 C121 1.329 . S
N103 C136 1.432 . S
N104 Co102 1.864 . S
N104 C105 1.327 . S
N104 C109 1.342 . S
C105 N104 1.327 . S
C105 C106 1.407 . S
C105 C121 1.481 . S
C106 C105 1.407 . S
C106 C107 1.364 . S
C106 H153 0.930 . S
C107 C106 1.364 . S
C107 C108 1.390 . S
C107 H154 0.931 . S
C108 C107 1.390 . S
C108 C109 1.346 . S
C108 H155 0.930 . S
C109 N104 1.342 . S
C109 C108 1.346 . S
C109 C125 1.516 . S
N110 Co102 1.958 . S
N110 C125 1.324 . S
N110 C127 1.427 . S
N111 C87 1.316 . S
N111 C88 1.436 . S
N111 Co102 1.953 . S
N112 C96 1.423 . S
N112 Co102 1.974 . S
N112 C142 1.309 . S
O113 Cd95 2.352 . S
O113 C133 1.235 1_556 S
O114 Cd94 2.329 . S
O114 C133 1.270 . S
C115 O116 1.270 . S
C115 O117 1.248 . S
O116 Cd94 2.350 . S
O116 C115 1.270 . S
O117 Cd94 2.277 . S
O117 C115 1.248 . S
C118 O119 1.277 . S
C118 O120 1.230 . S
O119 Cd94 2.173 . S
O119 C118 1.277 . S
O120 Cd95 2.250 1_554 S
O120 C118 1.230 . S
C121 N103 1.329 . S
C121 C105 1.481 . S
C121 O122 1.246 . S
O122 C121 1.246 . S
O123 Cd94 2.263 . S
O123 C135 1.258 . S
O124 Cd95 2.308 1_554 S
O124 C135 1.274 . S
C125 C109 1.516 . S
C125 N110 1.324 . S
C125 O126 1.238 . S
O126 C125 1.238 . S
C127 N110 1.427 . S
C127 C128 1.394 . S
C127 C132 1.395 . S
C128 C127 1.394 . S
C128 C129 1.380 . S
C128 H156 0.929 . S
C129 C128 1.380 . S
C129 C130 1.384 . S
C129 C135 1.495 . S
C130 C129 1.384 . S
C130 C131 1.382 . S
C130 H157 0.930 . S
C131 C130 1.382 . S
C131 C132 1.398 . S
C132 C127 1.395 . S
C132 C131 1.398 . S
C132 H158 0.930 . S
C133 O113 1.235 1_554 S
C133 O114 1.270 . S
O134 C87 1.263 . S
O134 Cd94 2.366 . S
C135 O123 1.258 . S
C135 O124 1.274 . S
C135 C129 1.495 . S
C136 N103 1.432 . S
C136 C137 1.381 . S
C136 C141 1.385 . S
C137 C136 1.381 . S
C137 C138 1.371 . S
C137 H159 0.932 . S
C138 C137 1.371 . S
C138 C139 1.400 . S
C139 C138 1.400 . S
C139 C140 1.351 . S
C139 H160 0.930 . S
C140 C139 1.351 . S
C140 C141 1.388 . S
C141 C136 1.385 . S
C141 C140 1.388 . S
C141 H161 0.929 . S
C142 C81 1.504 . S
C142 N112 1.309 . S
C142 O143 1.258 . S
O143 C142 1.258 . S
H144 C82 0.929 . S
H145 C83 0.932 . S
H146 C84 0.931 . S
H147 C89 0.929 . S
H148 C91 0.929 . S
H149 C93 0.931 . S
H150 C98 0.929 . S
H151 C100 0.932 . S
H152 C101 0.931 . S
H153 C106 0.930 . S
H154 C107 0.931 . S
H155 C108 0.930 . S
H156 C128 0.929 . S
H157 C130 0.930 . S
H158 C132 0.930 . S
H159 C137 0.932 . S
H160 C139 0.930 . S
H161 C141 0.929 . S
C162 C163 1.359 . S
C162 N167 1.330 . S
C162 C223 1.504 . S
C163 C162 1.359 . S
C163 C164 1.366 . S
C163 H225 0.929 . S
C164 C163 1.366 . S
C164 C165 1.415 . S
C164 H226 0.932 . S
C165 C164 1.415 . S
C165 C166 1.366 . S
C165 H227 0.931 . S
C166 C165 1.366 . S
C166 N167 1.325 . S
C166 C168 1.516 . S
N167 C162 1.330 . S
N167 C166 1.325 . S
N167 Co183 1.869 . S
C168 C166 1.516 . S
C168 N192 1.316 . S
C168 O215 1.263 . S
C169 C170 1.421 . S
C169 C174 1.360 . S
C169 N192 1.436 . S
C170 C169 1.421 . S
C170 C171 1.379 . S
C170 H228 0.929 . S
C171 C170 1.379 . S
C171 C172 1.417 . S
C172 C171 1.417 . S
C172 C173 1.352 . S
C172 H229 0.929 . S
C173 C172 1.352 . S
C173 C174 1.393 . S
C174 C169 1.360 . S
C174 C173 1.393 . S
C174 H230 0.931 . S
Cd175 O195 2.329 . S
Cd175 O197 2.350 . S
Cd175 O198 2.277 . S
Cd175 O200 2.173 . S
Cd175 O204 2.263 . S
Cd175 O215 2.366 . S
Cd176 O194 2.352 . S
Cd176 O201 2.250 1_556 S
Cd176 O205 2.308 1_556 S
C177 C181 1.403 . S
C177 C182 1.370 . S
C177 N193 1.423 . S
C178 C179 1.389 . S
C178 C182 1.389 . S
C179 C178 1.389 . S
C179 C180 1.379 . S
C179 H231 0.929 . S
C180 C179 1.379 . S
C180 C181 1.405 . S
C181 C177 1.403 . S
C181 C180 1.405 . S
C181 H232 0.932 . S
C182 C177 1.370 . S
C182 C178 1.389 . S
C182 H233 0.931 . S
Co183 N167 1.869 . S
Co183 N184 1.955 . S
Co183 N185 1.864 . S
Co183 N191 1.958 . S
Co183 N192 1.953 . S
Co183 N193 1.974 . S
N184 Co183 1.955 . S
N184 C202 1.329 . S
N184 C217 1.432 . S
N185 Co183 1.864 . S
N185 C186 1.327 . S
N185 C190 1.342 . S
C186 N185 1.327 . S
C186 C187 1.407 . S
C186 C202 1.481 . S
C187 C186 1.407 . S
C187 C188 1.364 . S
C187 H234 0.930 . S
C188 C187 1.364 . S
C188 C189 1.390 . S
C188 H235 0.931 . S
C189 C188 1.390 . S
C189 C190 1.346 . S
C189 H236 0.930 . S
C190 N185 1.342 . S
C190 C189 1.346 . S
C190 C206 1.516 . S
N191 Co183 1.958 . S
N191 C206 1.324 . S
N191 C208 1.427 . S
N192 C168 1.316 . S
N192 C169 1.436 . S
N192 Co183 1.953 . S
N193 C177 1.423 . S
N193 Co183 1.974 . S
N193 C223 1.309 . S
O194 Cd176 2.352 . S
O194 C214 1.235 1_556 S
O195 Cd175 2.329 . S
O195 C214 1.270 . S
C196 O197 1.270 . S
C196 O198 1.248 . S
O197 Cd175 2.350 . S
O197 C196 1.270 . S
O198 Cd175 2.277 . S
O198 C196 1.248 . S
C199 O200 1.277 . S
C199 O201 1.230 . S
O200 Cd175 2.173 . S
O200 C199 1.277 . S
O201 Cd176 2.250 1_554 S
O201 C199 1.230 . S
C202 N184 1.329 . S
C202 C186 1.481 . S
C202 O203 1.246 . S
O203 C202 1.246 . S
O204 Cd175 2.263 . S
O204 C216 1.258 . S
O205 Cd176 2.308 1_554 S
O205 C216 1.274 . S
C206 C190 1.516 . S
C206 N191 1.324 . S
C206 O207 1.238 . S
O207 C206 1.238 . S
C208 N191 1.427 . S
C208 C209 1.394 . S
C208 C213 1.395 . S
C209 C208 1.394 . S
C209 C210 1.380 . S
C209 H237 0.929 . S
C210 C209 1.380 . S
C210 C211 1.384 . S
C210 C216 1.495 . S
C211 C210 1.384 . S
C211 C212 1.382 . S
C211 H238 0.930 . S
C212 C211 1.382 . S
C212 C213 1.398 . S
C213 C208 1.395 . S
C213 C212 1.398 . S
C213 H239 0.930 . S
C214 O194 1.235 1_554 S
C214 O195 1.270 . S
O215 C168 1.263 . S
O215 Cd175 2.366 . S
C216 O204 1.258 . S
C216 O205 1.274 . S
C216 C210 1.495 . S
C217 N184 1.432 . S
C217 C218 1.381 . S
C217 C222 1.385 . S
C218 C217 1.381 . S
C218 C219 1.371 . S
C218 H240 0.932 . S
C219 C218 1.371 . S
C219 C220 1.400 . S
C220 C219 1.400 . S
C220 C221 1.351 . S
C220 H241 0.930 . S
C221 C220 1.351 . S
C221 C222 1.388 . S
C222 C217 1.385 . S
C222 C221 1.388 . S
C222 H242 0.929 . S
C223 C162 1.504 . S
C223 N193 1.309 . S
C223 O224 1.258 . S
O224 C223 1.258 . S
H225 C163 0.929 . S
H226 C164 0.932 . S
H227 C165 0.931 . S
H228 C170 0.929 . S
H229 C172 0.929 . S
H230 C174 0.931 . S
H231 C179 0.929 . S
H232 C181 0.932 . S
H233 C182 0.931 . S
H234 C187 0.930 . S
H235 C188 0.931 . S
H236 C189 0.930 . S
H237 C209 0.929 . S
H238 C211 0.930 . S
H239 C213 0.930 . S
H240 C218 0.932 . S
H241 C220 0.930 . S
H242 C222 0.929 . S
C243 C244 1.359 . S
C243 N248 1.330 . S
C243 C304 1.504 . S
C244 C243 1.359 . S
C244 C245 1.366 . S
C244 H306 0.929 . S
C245 C244 1.366 . S
C245 C246 1.415 . S
C245 H307 0.932 . S
C246 C245 1.415 . S
C246 C247 1.366 . S
C246 H308 0.931 . S
C247 C246 1.366 . S
C247 N248 1.325 . S
C247 C249 1.516 . S
N248 C243 1.330 . S
N248 C247 1.325 . S
N248 Co264 1.869 . S
C249 C247 1.516 . S
C249 N273 1.316 . S
C249 O296 1.263 . S
C250 C251 1.421 . S
C250 C255 1.360 . S
C250 N273 1.436 . S
C251 C250 1.421 . S
C251 C252 1.379 . S
C251 H309 0.929 . S
C252 C251 1.379 . S
C252 C253 1.417 . S
C253 C252 1.417 . S
C253 C254 1.352 . S
C253 H310 0.929 . S
C254 C253 1.352 . S
C254 C255 1.393 . S
C255 C250 1.360 . S
C255 C254 1.393 . S
C255 H311 0.931 . S
Cd256 O276 2.329 . S
Cd256 O278 2.350 . S
Cd256 O279 2.277 . S
Cd256 O281 2.173 . S
Cd256 O285 2.263 . S
Cd256 O296 2.366 . S
Cd257 O275 2.352 . S
Cd257 O282 2.250 1_554 S
Cd257 O286 2.308 1_554 S
C258 C262 1.403 . S
C258 C263 1.370 . S
C258 N274 1.423 . S
C259 C260 1.389 . S
C259 C263 1.389 . S
C260 C259 1.389 . S
C260 C261 1.379 . S
C260 H312 0.929 . S
C261 C260 1.379 . S
C261 C262 1.405 . S
C262 C258 1.403 . S
C262 C261 1.405 . S
C262 H313 0.932 . S
C263 C258 1.370 . S
C263 C259 1.389 . S
C263 H314 0.931 . S
Co264 N248 1.869 . S
Co264 N265 1.955 . S
Co264 N266 1.864 . S
Co264 N272 1.958 . S
Co264 N273 1.953 . S
Co264 N274 1.974 . S
N265 Co264 1.955 . S
N265 C283 1.329 . S
N265 C298 1.432 . S
N266 Co264 1.864 . S
N266 C267 1.327 . S
N266 C271 1.342 . S
C267 N266 1.327 . S
C267 C268 1.407 . S
C267 C283 1.481 . S
C268 C267 1.407 . S
C268 C269 1.364 . S
C268 H315 0.930 . S
C269 C268 1.364 . S
C269 C270 1.390 . S
C269 H316 0.931 . S
C270 C269 1.390 . S
C270 C271 1.346 . S
C270 H317 0.930 . S
C271 N266 1.342 . S
C271 C270 1.346 . S
C271 C287 1.516 . S
N272 Co264 1.958 . S
N272 C287 1.324 . S
N272 C289 1.427 . S
N273 C249 1.316 . S
N273 C250 1.436 . S
N273 Co264 1.953 . S
N274 C258 1.423 . S
N274 Co264 1.974 . S
N274 C304 1.309 . S
O275 Cd257 2.352 . S
O275 C295 1.235 1_554 S
O276 Cd256 2.329 . S
O276 C295 1.270 . S
C277 O278 1.270 . S
C277 O279 1.248 . S
O278 Cd256 2.350 . S
O278 C277 1.270 . S
O279 Cd256 2.277 . S
O279 C277 1.248 . S
C280 O281 1.277 . S
C280 O282 1.230 . S
O281 Cd256 2.173 . S
O281 C280 1.277 . S
O282 Cd257 2.250 1_556 S
O282 C280 1.230 . S
C283 N265 1.329 . S
C283 C267 1.481 . S
C283 O284 1.246 . S
O284 C283 1.246 . S
O285 Cd256 2.263 . S
O285 C297 1.258 . S
O286 Cd257 2.308 1_556 S
O286 C297 1.274 . S
C287 C271 1.516 . S
C287 N272 1.324 . S
C287 O288 1.238 . S
O288 C287 1.238 . S
C289 N272 1.427 . S
C289 C290 1.394 . S
C289 C294 1.395 . S
C290 C289 1.394 . S
C290 C291 1.380 . S
C290 H318 0.929 . S
C291 C290 1.380 . S
C291 C292 1.384 . S
C291 C297 1.495 . S
C292 C291 1.384 . S
C292 C293 1.382 . S
C292 H319 0.930 . S
C293 C292 1.382 . S
C293 C294 1.398 . S
C294 C289 1.395 . S
C294 C293 1.398 . S
C294 H320 0.930 . S
C295 O275 1.235 1_556 S
C295 O276 1.270 . S
O296 C249 1.263 . S
O296 Cd256 2.366 . S
C297 O285 1.258 . S
C297 O286 1.274 . S
C297 C291 1.495 . S
C298 N265 1.432 . S
C298 C299 1.381 . S
C298 C303 1.385 . S
C299 C298 1.381 . S
C299 C300 1.371 . S
C299 H321 0.932 . S
C300 C299 1.371 . S
C300 C301 1.400 . S
C301 C300 1.400 . S
C301 C302 1.351 . S
C301 H322 0.930 . S
C302 C301 1.351 . S
C302 C303 1.388 . S
C303 C298 1.385 . S
C303 C302 1.388 . S
C303 H323 0.929 . S
C304 C243 1.504 . S
C304 N274 1.309 . S
C304 O305 1.258 . S
O305 C304 1.258 . S
H306 C244 0.929 . S
H307 C245 0.932 . S
H308 C246 0.931 . S
H309 C251 0.929 . S
H310 C253 0.929 . S
H311 C255 0.931 . S
H312 C260 0.929 . S
H313 C262 0.932 . S
H314 C263 0.931 . S
H315 C268 0.930 . S
H316 C269 0.931 . S
H317 C270 0.930 . S
H318 C290 0.929 . S
H319 C292 0.930 . S
H320 C294 0.930 . S
H321 C299 0.932 . S
H322 C301 0.930 . S
H323 C303 0.929 . S
C324 C325 1.359 . S
C324 N329 1.330 . S
C324 C385 1.504 . S
C325 C324 1.359 . S
C325 C326 1.366 . S
C325 H387 0.929 . S
C326 C325 1.366 . S
C326 C327 1.415 . S
C326 H388 0.932 . S
C327 C326 1.415 . S
C327 C328 1.366 . S
C327 H389 0.931 . S
C328 C327 1.366 . S
C328 N329 1.325 . S
C328 C330 1.516 . S
N329 C324 1.330 . S
N329 C328 1.325 . S
N329 Co345 1.869 . S
C330 C328 1.516 . S
C330 N354 1.316 . S
C330 O377 1.263 . S
C331 C332 1.421 . S
C331 C336 1.360 . S
C331 N354 1.436 . S
C332 C331 1.421 . S
C332 C333 1.379 . S
C332 H390 0.929 . S
C333 C332 1.379 . S
C333 C334 1.417 . S
C334 C333 1.417 . S
C334 C335 1.352 . S
C334 H391 0.929 . S
C335 C334 1.352 . S
C335 C336 1.393 . S
C336 C331 1.360 . S
C336 C335 1.393 . S
C336 H392 0.931 . S
Cd337 O357 2.329 . S
Cd337 O359 2.350 . S
Cd337 O360 2.277 . S
Cd337 O362 2.173 . S
Cd337 O366 2.263 . S
Cd337 O377 2.366 . S
Cd338 O356 2.352 . S
Cd338 O363 2.250 1_554 S
Cd338 O367 2.308 1_554 S
C339 C343 1.403 . S
C339 C344 1.370 . S
C339 N355 1.423 . S
C340 C341 1.389 . S
C340 C344 1.389 . S
C341 C340 1.389 . S
C341 C342 1.379 . S
C341 H393 0.929 . S
C342 C341 1.379 . S
C342 C343 1.405 . S
C343 C339 1.403 . S
C343 C342 1.405 . S
C343 H394 0.932 . S
C344 C339 1.370 . S
C344 C340 1.389 . S
C344 H395 0.931 . S
Co345 N329 1.869 . S
Co345 N346 1.955 . S
Co345 N347 1.864 . S
Co345 N353 1.958 . S
Co345 N354 1.953 . S
Co345 N355 1.974 . S
N346 Co345 1.955 . S
N346 C364 1.329 . S
N346 C379 1.432 . S
N347 Co345 1.864 . S
N347 C348 1.327 . S
N347 C352 1.342 . S
C348 N347 1.327 . S
C348 C349 1.407 . S
C348 C364 1.481 . S
C349 C348 1.407 . S
C349 C350 1.364 . S
C349 H396 0.930 . S
C350 C349 1.364 . S
C350 C351 1.390 . S
C350 H397 0.931 . S
C351 C350 1.390 . S
C351 C352 1.346 . S
C351 H398 0.930 . S
C352 N347 1.342 . S
C352 C351 1.346 . S
C352 C368 1.516 . S
N353 Co345 1.958 . S
N353 C368 1.324 . S
N353 C370 1.427 . S
N354 C330 1.316 . S
N354 C331 1.436 . S
N354 Co345 1.953 . S
N355 C339 1.423 . S
N355 Co345 1.974 . S
N355 C385 1.309 . S
O356 Cd338 2.352 . S
O356 C376 1.235 1_554 S
O357 Cd337 2.329 . S
O357 C376 1.270 . S
C358 O359 1.270 . S
C358 O360 1.248 . S
O359 Cd337 2.350 . S
O359 C358 1.270 . S
O360 Cd337 2.277 . S
O360 C358 1.248 . S
C361 O362 1.277 . S
C361 O363 1.230 . S
O362 Cd337 2.173 . S
O362 C361 1.277 . S
O363 Cd338 2.250 1_556 S
O363 C361 1.230 . S
C364 N346 1.329 . S
C364 C348 1.481 . S
C364 O365 1.246 . S
O365 C364 1.246 . S
O366 Cd337 2.263 . S
O366 C378 1.258 . S
O367 Cd338 2.308 1_556 S
O367 C378 1.274 . S
C368 C352 1.516 . S
C368 N353 1.324 . S
C368 O369 1.238 . S
O369 C368 1.238 . S
C370 N353 1.427 . S
C370 C371 1.394 . S
C370 C375 1.395 . S
C371 C370 1.394 . S
C371 C372 1.380 . S
C371 H399 0.929 . S
C372 C371 1.380 . S
C372 C373 1.384 . S
C372 C378 1.495 . S
C373 C372 1.384 . S
C373 C374 1.382 . S
C373 H400 0.930 . S
C374 C373 1.382 . S
C374 C375 1.398 . S
C375 C370 1.395 . S
C375 C374 1.398 . S
C375 H401 0.930 . S
C376 O356 1.235 1_556 S
C376 O357 1.270 . S
O377 C330 1.263 . S
O377 Cd337 2.366 . S
C378 O366 1.258 . S
C378 O367 1.274 . S
C378 C372 1.495 . S
C379 N346 1.432 . S
C379 C380 1.381 . S
C379 C384 1.385 . S
C380 C379 1.381 . S
C380 C381 1.371 . S
C380 H402 0.932 . S
C381 C380 1.371 . S
C381 C382 1.400 . S
C382 C381 1.400 . S
C382 C383 1.351 . S
C382 H403 0.930 . S
C383 C382 1.351 . S
C383 C384 1.388 . S
C384 C379 1.385 . S
C384 C383 1.388 . S
C384 H404 0.929 . S
C385 C324 1.504 . S
C385 N355 1.309 . S
C385 O386 1.258 . S
O386 C385 1.258 . S
H387 C325 0.929 . S
H388 C326 0.932 . S
H389 C327 0.931 . S
H390 C332 0.929 . S
H391 C334 0.929 . S
H392 C336 0.931 . S
H393 C341 0.929 . S
H394 C343 0.932 . S
H395 C344 0.931 . S
H396 C349 0.930 . S
H397 C350 0.931 . S
H398 C351 0.930 . S
H399 C371 0.929 . S
H400 C373 0.930 . S
H401 C375 0.930 . S
H402 C380 0.932 . S
H403 C382 0.930 . S
H404 C384 0.929 . S
C405 C406 1.359 . S
C405 N410 1.330 . S
C405 C466 1.504 . S
C406 C405 1.359 . S
C406 C407 1.366 . S
C406 H468 0.929 . S
C407 C406 1.366 . S
C407 C408 1.415 . S
C407 H469 0.932 . S
C408 C407 1.415 . S
C408 C409 1.366 . S
C408 H470 0.931 . S
C409 C408 1.366 . S
C409 N410 1.325 . S
C409 C411 1.516 . S
N410 C405 1.330 . S
N410 C409 1.325 . S
N410 Co426 1.869 . S
C411 C409 1.516 . S
C411 N435 1.316 . S
C411 O458 1.263 . S
C412 C413 1.421 . S
C412 C417 1.360 . S
C412 N435 1.436 . S
C413 C412 1.421 . S
C413 C414 1.379 . S
C413 H471 0.929 . S
C414 C413 1.379 . S
C414 C415 1.417 . S
C415 C414 1.417 . S
C415 C416 1.352 . S
C415 H472 0.929 . S
C416 C415 1.352 . S
C416 C417 1.393 . S
C417 C412 1.360 . S
C417 C416 1.393 . S
C417 H473 0.931 . S
Cd418 O438 2.329 . S
Cd418 O440 2.350 . S
Cd418 O441 2.277 . S
Cd418 O443 2.173 . S
Cd418 O447 2.263 . S
Cd418 O458 2.366 . S
Cd419 O437 2.352 . S
Cd419 O444 2.250 1_554 S
Cd419 O448 2.308 1_554 S
C420 C424 1.403 . S
C420 C425 1.370 . S
C420 N436 1.423 . S
C421 C422 1.389 . S
C421 C425 1.389 . S
C422 C421 1.389 . S
C422 C423 1.379 . S
C422 H474 0.929 . S
C423 C422 1.379 . S
C423 C424 1.405 . S
C424 C420 1.403 . S
C424 C423 1.405 . S
C424 H475 0.932 . S
C425 C420 1.370 . S
C425 C421 1.389 . S
C425 H476 0.931 . S
Co426 N410 1.869 . S
Co426 N427 1.955 . S
Co426 N428 1.864 . S
Co426 N434 1.958 . S
Co426 N435 1.953 . S
Co426 N436 1.974 . S
N427 Co426 1.955 . S
N427 C445 1.329 . S
N427 C460 1.432 . S
N428 Co426 1.864 . S
N428 C429 1.327 . S
N428 C433 1.342 . S
C429 N428 1.327 . S
C429 C430 1.407 . S
C429 C445 1.481 . S
C430 C429 1.407 . S
C430 C431 1.364 . S
C430 H477 0.930 . S
C431 C430 1.364 . S
C431 C432 1.390 . S
C431 H478 0.931 . S
C432 C431 1.390 . S
C432 C433 1.346 . S
C432 H479 0.930 . S
C433 N428 1.342 . S
C433 C432 1.346 . S
C433 C449 1.516 . S
N434 Co426 1.958 . S
N434 C449 1.324 . S
N434 C451 1.427 . S
N435 C411 1.316 . S
N435 C412 1.436 . S
N435 Co426 1.953 . S
N436 C420 1.423 . S
N436 Co426 1.974 . S
N436 C466 1.309 . S
O437 Cd419 2.352 . S
O437 C457 1.235 1_554 S
O438 Cd418 2.329 . S
O438 C457 1.270 . S
C439 O440 1.270 . S
C439 O441 1.248 . S
O440 Cd418 2.350 . S
O440 C439 1.270 . S
O441 Cd418 2.277 . S
O441 C439 1.248 . S
C442 O443 1.277 . S
C442 O444 1.230 . S
O443 Cd418 2.173 . S
O443 C442 1.277 . S
O444 Cd419 2.250 1_556 S
O444 C442 1.230 . S
C445 N427 1.329 . S
C445 C429 1.481 . S
C445 O446 1.246 . S
O446 C445 1.246 . S
O447 Cd418 2.263 . S
O447 C459 1.258 . S
O448 Cd419 2.308 1_556 S
O448 C459 1.274 . S
C449 C433 1.516 . S
C449 N434 1.324 . S
C449 O450 1.238 . S
O450 C449 1.238 . S
C451 N434 1.427 . S
C451 C452 1.394 . S
C451 C456 1.395 . S
C452 C451 1.394 . S
C452 C453 1.380 . S
C452 H480 0.929 . S
C453 C452 1.380 . S
C453 C454 1.384 . S
C453 C459 1.495 . S
C454 C453 1.384 . S
C454 C455 1.382 . S
C454 H481 0.930 . S
C455 C454 1.382 . S
C455 C456 1.398 . S
C456 C451 1.395 . S
C456 C455 1.398 . S
C456 H482 0.930 . S
C457 O437 1.235 1_556 S
C457 O438 1.270 . S
O458 C411 1.263 . S
O458 Cd418 2.366 . S
C459 O447 1.258 . S
C459 O448 1.274 . S
C459 C453 1.495 . S
C460 N427 1.432 . S
C460 C461 1.381 . S
C460 C465 1.385 . S
C461 C460 1.381 . S
C461 C462 1.371 . S
C461 H483 0.932 . S
C462 C461 1.371 . S
C462 C463 1.400 . S
C463 C462 1.400 . S
C463 C464 1.351 . S
C463 H484 0.930 . S
C464 C463 1.351 . S
C464 C465 1.388 . S
C465 C460 1.385 . S
C465 C464 1.388 . S
C465 H485 0.929 . S
C466 C405 1.504 . S
C466 N436 1.309 . S
C466 O467 1.258 . S
O467 C466 1.258 . S
H468 C406 0.929 . S
H469 C407 0.932 . S
H470 C408 0.931 . S
H471 C413 0.929 . S
H472 C415 0.929 . S
H473 C417 0.931 . S
H474 C422 0.929 . S
H475 C424 0.932 . S
H476 C425 0.931 . S
H477 C430 0.930 . S
H478 C431 0.931 . S
H479 C432 0.930 . S
H480 C452 0.929 . S
H481 C454 0.930 . S
H482 C456 0.930 . S
H483 C461 0.932 . S
H484 C463 0.930 . S
H485 C465 0.929 . S
C486 C487 1.359 . S
C486 N491 1.330 . S
C486 C547 1.504 . S
C487 C486 1.359 . S
C487 C488 1.366 . S
C487 H549 0.929 . S
C488 C487 1.366 . S
C488 C489 1.415 . S
C488 H550 0.932 . S
C489 C488 1.415 . S
C489 C490 1.366 . S
C489 H551 0.931 . S
C490 C489 1.366 . S
C490 N491 1.325 . S
C490 C492 1.516 . S
N491 C486 1.330 . S
N491 C490 1.325 . S
N491 Co507 1.869 . S
C492 C490 1.516 . S
C492 N516 1.316 . S
C492 O539 1.263 . S
C493 C494 1.421 . S
C493 C498 1.360 . S
C493 N516 1.436 . S
C494 C493 1.421 . S
C494 C495 1.379 . S
C494 H552 0.929 . S
C495 C494 1.379 . S
C495 C496 1.417 . S
C496 C495 1.417 . S
C496 C497 1.352 . S
C496 H553 0.929 . S
C497 C496 1.352 . S
C497 C498 1.393 . S
C498 C493 1.360 . S
C498 C497 1.393 . S
C498 H554 0.931 . S
Cd499 O519 2.329 . S
Cd499 O521 2.350 . S
Cd499 O522 2.277 . S
Cd499 O524 2.173 . S
Cd499 O528 2.263 . S
Cd499 O539 2.366 . S
Cd500 O518 2.352 . S
Cd500 O525 2.250 . S
Cd500 O529 2.308 . S
C501 C505 1.403 . S
C501 C506 1.370 . S
C501 N517 1.423 . S
C502 C503 1.389 . S
C502 C506 1.389 . S
C503 C502 1.389 . S
C503 C504 1.379 . S
C503 H555 0.929 . S
C504 C503 1.379 . S
C504 C505 1.405 . S
C505 C501 1.403 . S
C505 C504 1.405 . S
C505 H556 0.932 . S
C506 C501 1.370 . S
C506 C502 1.389 . S
C506 H557 0.931 . S
Co507 N491 1.869 . S
Co507 N508 1.955 . S
Co507 N509 1.864 . S
Co507 N515 1.958 . S
Co507 N516 1.953 . S
Co507 N517 1.974 . S
N508 Co507 1.955 . S
N508 C526 1.329 . S
N508 C541 1.432 . S
N509 Co507 1.864 . S
N509 C510 1.327 . S
N509 C514 1.342 . S
C510 N509 1.327 . S
C510 C511 1.407 . S
C510 C526 1.481 . S
C511 C510 1.407 . S
C511 C512 1.364 . S
C511 H558 0.930 . S
C512 C511 1.364 . S
C512 C513 1.390 . S
C512 H559 0.931 . S
C513 C512 1.390 . S
C513 C514 1.346 . S
C513 H560 0.930 . S
C514 N509 1.342 . S
C514 C513 1.346 . S
C514 C530 1.516 . S
N515 Co507 1.958 . S
N515 C530 1.324 . S
N515 C532 1.427 . S
N516 C492 1.316 . S
N516 C493 1.436 . S
N516 Co507 1.953 . S
N517 C501 1.423 . S
N517 Co507 1.974 . S
N517 C547 1.309 . S
O518 Cd500 2.352 . S
O518 C538 1.235 . S
O519 Cd499 2.329 . S
O519 C538 1.270 . S
C520 O521 1.270 . S
C520 O522 1.248 . S
O521 Cd499 2.350 . S
O521 C520 1.270 . S
O522 Cd499 2.277 . S
O522 C520 1.248 . S
C523 O524 1.277 . S
C523 O525 1.230 . S
O524 Cd499 2.173 . S
O524 C523 1.277 . S
O525 Cd500 2.250 . S
O525 C523 1.230 . S
C526 N508 1.329 . S
C526 C510 1.481 . S
C526 O527 1.246 . S
O527 C526 1.246 . S
O528 Cd499 2.263 . S
O528 C540 1.258 . S
O529 Cd500 2.308 . S
O529 C540 1.274 . S
C530 C514 1.516 . S
C530 N515 1.324 . S
C530 O531 1.238 . S
O531 C530 1.238 . S
C532 N515 1.427 . S
C532 C533 1.394 . S
C532 C537 1.395 . S
C533 C532 1.394 . S
C533 C534 1.380 . S
C533 H561 0.929 . S
C534 C533 1.380 . S
C534 C535 1.384 . S
C534 C540 1.495 . S
C535 C534 1.384 . S
C535 C536 1.382 . S
C535 H562 0.930 . S
C536 C535 1.382 . S
C536 C537 1.398 . S
C537 C532 1.395 . S
C537 C536 1.398 . S
C537 H563 0.930 . S
C538 O518 1.235 . S
C538 O519 1.270 . S
O539 C492 1.263 . S
O539 Cd499 2.366 . S
C540 O528 1.258 . S
C540 O529 1.274 . S
C540 C534 1.495 . S
C541 N508 1.432 . S
C541 C542 1.381 . S
C541 C546 1.385 . S
C542 C541 1.381 . S
C542 C543 1.371 . S
C542 H564 0.932 . S
C543 C542 1.371 . S
C543 C544 1.400 . S
C544 C543 1.400 . S
C544 C545 1.351 . S
C544 H565 0.930 . S
C545 C544 1.351 . S
C545 C546 1.388 . S
C546 C541 1.385 . S
C546 C545 1.388 . S
C546 H566 0.929 . S
C547 C486 1.504 . S
C547 N517 1.309 . S
C547 O548 1.258 . S
O548 C547 1.258 . S
H549 C487 0.929 . S
H550 C488 0.932 . S
H551 C489 0.931 . S
H552 C494 0.929 . S
H553 C496 0.929 . S
H554 C498 0.931 . S
H555 C503 0.929 . S
H556 C505 0.932 . S
H557 C506 0.931 . S
H558 C511 0.930 . S
H559 C512 0.931 . S
H560 C513 0.930 . S
H561 C533 0.929 . S
H562 C535 0.930 . S
H563 C537 0.930 . S
H564 C542 0.932 . S
H565 C544 0.930 . S
H566 C546 0.929 . S
C567 C568 1.359 . S
C567 N572 1.330 . S
C567 C628 1.504 . S
C568 C567 1.359 . S
C568 C569 1.366 . S
C568 H630 0.929 . S
C569 C568 1.366 . S
C569 C570 1.415 . S
C569 H631 0.932 . S
C570 C569 1.415 . S
C570 C571 1.366 . S
C570 H632 0.931 . S
C571 C570 1.366 . S
C571 N572 1.325 . S
C571 C573 1.516 . S
N572 C567 1.330 . S
N572 C571 1.325 . S
N572 Co588 1.869 . S
C573 C571 1.516 . S
C573 N597 1.316 . S
C573 O620 1.263 . S
C574 C575 1.421 . S
C574 C579 1.360 . S
C574 N597 1.436 . S
C575 C574 1.421 . S
C575 C576 1.379 . S
C575 H633 0.929 . S
C576 C575 1.379 . S
C576 C577 1.417 . S
C577 C576 1.417 . S
C577 C578 1.352 . S
C577 H634 0.929 . S
C578 C577 1.352 . S
C578 C579 1.393 . S
C579 C574 1.360 . S
C579 C578 1.393 . S
C579 H635 0.931 . S
Cd580 O600 2.329 . S
Cd580 O602 2.350 . S
Cd580 O603 2.277 . S
Cd580 O605 2.173 . S
Cd580 O609 2.263 . S
Cd580 O620 2.366 . S
Cd581 O599 2.352 . S
Cd581 O606 2.250 . S
Cd581 O610 2.308 . S
C582 C586 1.403 . S
C582 C587 1.370 . S
C582 N598 1.423 . S
C583 C584 1.389 . S
C583 C587 1.389 . S
C584 C583 1.389 . S
C584 C585 1.379 . S
C584 H636 0.929 . S
C585 C584 1.379 . S
C585 C586 1.405 . S
C586 C582 1.403 . S
C586 C585 1.405 . S
C586 H637 0.932 . S
C587 C582 1.370 . S
C587 C583 1.389 . S
C587 H638 0.931 . S
Co588 N572 1.869 . S
Co588 N589 1.955 . S
Co588 N590 1.864 . S
Co588 N596 1.958 . S
Co588 N597 1.953 . S
Co588 N598 1.974 . S
N589 Co588 1.955 . S
N589 C607 1.329 . S
N589 C622 1.432 . S
N590 Co588 1.864 . S
N590 C591 1.327 . S
N590 C595 1.342 . S
C591 N590 1.327 . S
C591 C592 1.407 . S
C591 C607 1.481 . S
C592 C591 1.407 . S
C592 C593 1.364 . S
C592 H639 0.930 . S
C593 C592 1.364 . S
C593 C594 1.390 . S
C593 H640 0.931 . S
C594 C593 1.390 . S
C594 C595 1.346 . S
C594 H641 0.930 . S
C595 N590 1.342 . S
C595 C594 1.346 . S
C595 C611 1.516 . S
N596 Co588 1.958 . S
N596 C611 1.324 . S
N596 C613 1.427 . S
N597 C573 1.316 . S
N597 C574 1.436 . S
N597 Co588 1.953 . S
N598 C582 1.423 . S
N598 Co588 1.974 . S
N598 C628 1.309 . S
O599 Cd581 2.352 . S
O599 C619 1.235 . S
O600 Cd580 2.329 . S
O600 C619 1.270 . S
C601 O602 1.270 . S
C601 O603 1.248 . S
O602 Cd580 2.350 . S
O602 C601 1.270 . S
O603 Cd580 2.277 . S
O603 C601 1.248 . S
C604 O605 1.277 . S
C604 O606 1.230 . S
O605 Cd580 2.173 . S
O605 C604 1.277 . S
O606 Cd581 2.250 . S
O606 C604 1.230 . S
C607 N589 1.329 . S
C607 C591 1.481 . S
C607 O608 1.246 . S
O608 C607 1.246 . S
O609 Cd580 2.263 . S
O609 C621 1.258 . S
O610 Cd581 2.308 . S
O610 C621 1.274 . S
C611 C595 1.516 . S
C611 N596 1.324 . S
C611 O612 1.238 . S
O612 C611 1.238 . S
C613 N596 1.427 . S
C613 C614 1.394 . S
C613 C618 1.395 . S
C614 C613 1.394 . S
C614 C615 1.380 . S
C614 H642 0.929 . S
C615 C614 1.380 . S
C615 C616 1.384 . S
C615 C621 1.495 . S
C616 C615 1.384 . S
C616 C617 1.382 . S
C616 H643 0.930 . S
C617 C616 1.382 . S
C617 C618 1.398 . S
C618 C613 1.395 . S
C618 C617 1.398 . S
C618 H644 0.930 . S
C619 O599 1.235 . S
C619 O600 1.270 . S
O620 C573 1.263 . S
O620 Cd580 2.366 . S
C621 O609 1.258 . S
C621 O610 1.274 . S
C621 C615 1.495 . S
C622 N589 1.432 . S
C622 C623 1.381 . S
C622 C627 1.385 . S
C623 C622 1.381 . S
C623 C624 1.371 . S
C623 H645 0.932 . S
C624 C623 1.371 . S
C624 C625 1.400 . S
C625 C624 1.400 . S
C625 C626 1.351 . S
C625 H646 0.930 . S
C626 C625 1.351 . S
C626 C627 1.388 . S
C627 C622 1.385 . S
C627 C626 1.388 . S
C627 H647 0.929 . S
C628 C567 1.504 . S
C628 N598 1.309 . S
C628 O629 1.258 . S
O629 C628 1.258 . S
H630 C568 0.929 . S
H631 C569 0.932 . S
H632 C570 0.931 . S
H633 C575 0.929 . S
H634 C577 0.929 . S
H635 C579 0.931 . S
H636 C584 0.929 . S
H637 C586 0.932 . S
H638 C587 0.931 . S
H639 C592 0.930 . S
H640 C593 0.931 . S
H641 C594 0.930 . S
H642 C614 0.929 . S
H643 C616 0.930 . S
H644 C618 0.930 . S
H645 C623 0.932 . S
H646 C625 0.930 . S
H647 C627 0.929 . S
C648 C649 1.359 . S
C648 N653 1.330 . S
C648 C709 1.504 . S
C649 C648 1.359 . S
C649 C650 1.366 . S
C649 H711 0.929 . S
C650 C649 1.366 . S
C650 C651 1.415 . S
C650 H712 0.932 . S
C651 C650 1.415 . S
C651 C652 1.366 . S
C651 H713 0.931 . S
C652 C651 1.366 . S
C652 N653 1.325 . S
C652 C654 1.516 . S
N653 C648 1.330 . S
N653 C652 1.325 . S
N653 Co669 1.869 . S
C654 C652 1.516 . S
C654 N678 1.316 . S
C654 O701 1.263 . S
C655 C656 1.421 . S
C655 C660 1.360 . S
C655 N678 1.436 . S
C656 C655 1.421 . S
C656 C657 1.379 . S
C656 H714 0.929 . S
C657 C656 1.379 . S
C657 C658 1.417 . S
C658 C657 1.417 . S
C658 C659 1.352 . S
C658 H715 0.929 . S
C659 C658 1.352 . S
C659 C660 1.393 . S
C660 C655 1.360 . S
C660 C659 1.393 . S
C660 H716 0.931 . S
Cd661 O681 2.329 . S
Cd661 O683 2.350 . S
Cd661 O684 2.277 . S
Cd661 O686 2.173 . S
Cd661 O690 2.263 . S
Cd661 O701 2.366 . S
Cd662 O680 2.352 . S
Cd662 O687 2.250 . S
Cd662 O691 2.308 . S
C663 C667 1.403 . S
C663 C668 1.370 . S
C663 N679 1.423 . S
C664 C665 1.389 . S
C664 C668 1.389 . S
C665 C664 1.389 . S
C665 C666 1.379 . S
C665 H717 0.929 . S
C666 C665 1.379 . S
C666 C667 1.405 . S
C667 C663 1.403 . S
C667 C666 1.405 . S
C667 H718 0.932 . S
C668 C663 1.370 . S
C668 C664 1.389 . S
C668 H719 0.931 . S
Co669 N653 1.869 . S
Co669 N670 1.955 . S
Co669 N671 1.864 . S
Co669 N677 1.958 . S
Co669 N678 1.953 . S
Co669 N679 1.974 . S
N670 Co669 1.955 . S
N670 C688 1.329 . S
N670 C703 1.432 . S
N671 Co669 1.864 . S
N671 C672 1.327 . S
N671 C676 1.342 . S
C672 N671 1.327 . S
C672 C673 1.407 . S
C672 C688 1.481 . S
C673 C672 1.407 . S
C673 C674 1.364 . S
C673 H720 0.930 . S
C674 C673 1.364 . S
C674 C675 1.390 . S
C674 H721 0.931 . S
C675 C674 1.390 . S
C675 C676 1.346 . S
C675 H722 0.930 . S
C676 N671 1.342 . S
C676 C675 1.346 . S
C676 C692 1.516 . S
N677 Co669 1.958 . S
N677 C692 1.324 . S
N677 C694 1.427 . S
N678 C654 1.316 . S
N678 C655 1.436 . S
N678 Co669 1.953 . S
N679 C663 1.423 . S
N679 Co669 1.974 . S
N679 C709 1.309 . S
O680 Cd662 2.352 . S
O680 C700 1.235 . S
O681 Cd661 2.329 . S
O681 C700 1.270 . S
C682 O683 1.270 . S
C682 O684 1.248 . S
O683 Cd661 2.350 . S
O683 C682 1.270 . S
O684 Cd661 2.277 . S
O684 C682 1.248 . S
C685 O686 1.277 . S
C685 O687 1.230 . S
O686 Cd661 2.173 . S
O686 C685 1.277 . S
O687 Cd662 2.250 . S
O687 C685 1.230 . S
C688 N670 1.329 . S
C688 C672 1.481 . S
C688 O689 1.246 . S
O689 C688 1.246 . S
O690 Cd661 2.263 . S
O690 C702 1.258 . S
O691 Cd662 2.308 . S
O691 C702 1.274 . S
C692 C676 1.516 . S
C692 N677 1.324 . S
C692 O693 1.238 . S
O693 C692 1.238 . S
C694 N677 1.427 . S
C694 C695 1.394 . S
C694 C699 1.395 . S
C695 C694 1.394 . S
C695 C696 1.380 . S
C695 H723 0.929 . S
C696 C695 1.380 . S
C696 C697 1.384 . S
C696 C702 1.495 . S
C697 C696 1.384 . S
C697 C698 1.382 . S
C697 H724 0.930 . S
C698 C697 1.382 . S
C698 C699 1.398 . S
C699 C694 1.395 . S
C699 C698 1.398 . S
C699 H725 0.930 . S
C700 O680 1.235 . S
C700 O681 1.270 . S
O701 C654 1.263 . S
O701 Cd661 2.366 . S
C702 O690 1.258 . S
C702 O691 1.274 . S
C702 C696 1.495 . S
C703 N670 1.432 . S
C703 C704 1.381 . S
C703 C708 1.385 . S
C704 C703 1.381 . S
C704 C705 1.371 . S
C704 H726 0.932 . S
C705 C704 1.371 . S
C705 C706 1.400 . S
C706 C705 1.400 . S
C706 C707 1.351 . S
C706 H727 0.930 . S
C707 C706 1.351 . S
C707 C708 1.388 . S
C708 C703 1.385 . S
C708 C707 1.388 . S
C708 H728 0.929 . S
C709 C648 1.504 . S
C709 N679 1.309 . S
C709 O710 1.258 . S
O710 C709 1.258 . S
H711 C649 0.929 . S
H712 C650 0.932 . S
H713 C651 0.931 . S
H714 C656 0.929 . S
H715 C658 0.929 . S
H716 C660 0.931 . S
H717 C665 0.929 . S
H718 C667 0.932 . S
H719 C668 0.931 . S
H720 C673 0.930 . S
H721 C674 0.931 . S
H722 C675 0.930 . S
H723 C695 0.929 . S
H724 C697 0.930 . S
H725 C699 0.930 . S
H726 C704 0.932 . S
H727 C706 0.930 . S
H728 C708 0.929 . S
C729 C730 1.359 . S
C729 N734 1.330 . S
C729 C790 1.504 . S
C730 C729 1.359 . S
C730 C731 1.366 . S
C730 H792 0.929 . S
C731 C730 1.366 . S
C731 C732 1.415 . S
C731 H793 0.932 . S
C732 C731 1.415 . S
C732 C733 1.366 . S
C732 H794 0.931 . S
C733 C732 1.366 . S
C733 N734 1.325 . S
C733 C735 1.536 . S
N734 C729 1.330 . S
N734 C733 1.325 . S
N734 Co750 1.869 1_545 S
C735 C733 1.536 . S
C735 N759 1.287 1_545 S
C735 O782 1.273 1_545 S
C736 C737 1.421 . S
C736 C741 1.360 . S
C736 N759 1.436 . S
C737 C736 1.421 . S
C737 C738 1.379 . S
C737 H795 0.929 . S
C738 C737 1.379 . S
C738 C739 1.417 . S
C739 C738 1.417 . S
C739 C740 1.352 . S
C739 H796 0.929 . S
C740 C739 1.352 . S
C740 C741 1.393 . S
C741 C736 1.360 . S
C741 C740 1.393 . S
C741 H797 0.931 . S
Cd742 O762 2.329 . S
Cd742 O764 2.350 . S
Cd742 O765 2.277 . S
Cd742 O767 2.173 1_565 S
Cd742 O771 2.263 . S
Cd742 O782 2.366 . S
Cd743 O761 2.352 . S
Cd743 O768 2.250 . S
Cd743 O772 2.308 . S
C744 C748 1.403 . S
C744 C749 1.344 1_545 S
C744 N760 1.423 . S
C745 C746 1.389 1_565 S
C745 C749 1.405 . S
C746 C745 1.389 1_545 S
C746 C747 1.379 . S
C746 H798 0.929 1_545 S
C747 C746 1.379 . S
C747 C748 1.405 . S
C748 C744 1.403 . S
C748 C747 1.405 . S
C748 H799 0.932 . S
C749 C744 1.344 1_565 S
C749 C745 1.405 . S
C749 H800 0.941 . S
Co750 N734 1.869 1_565 S
Co750 N751 1.955 1_565 S
Co750 N752 1.864 . S
Co750 N758 1.958 . S
Co750 N759 1.953 . S
Co750 N760 1.974 1_565 S
N751 Co750 1.955 1_545 S
N751 C769 1.329 1_545 S
N751 C784 1.432 . S
N752 Co750 1.864 . S
N752 C753 1.327 . S
N752 C757 1.342 . S
C753 N752 1.327 . S
C753 C754 1.407 . S
C753 C769 1.481 . S
C754 C753 1.407 . S
C754 C755 1.364 . S
C754 H801 0.930 . S
C755 C754 1.364 . S
C755 C756 1.390 . S
C755 H802 0.931 . S
C756 C755 1.390 . S
C756 C757 1.346 . S
C756 H803 0.930 . S
C757 N752 1.342 . S
C757 C756 1.346 . S
C757 C773 1.516 . S
N758 Co750 1.958 . S
N758 C773 1.324 . S
N758 C775 1.427 . S
N759 C735 1.287 1_565 S
N759 C736 1.436 . S
N759 Co750 1.953 . S
N760 C744 1.423 . S
N760 Co750 1.974 1_545 S
N760 C790 1.309 . S
O761 Cd743 2.352 . S
O761 C781 1.235 1_545 S
O762 Cd742 2.329 . S
O762 C781 1.270 . S
C763 O764 1.270 . S
C763 O765 1.248 . S
O764 Cd742 2.350 . S
O764 C763 1.270 . S
O765 Cd742 2.277 . S
O765 C763 1.248 . S
C766 O767 1.277 . S
C766 O768 1.230 . S
O767 Cd742 2.173 1_545 S
O767 C766 1.277 . S
O768 Cd743 2.250 . S
O768 C766 1.230 . S
C769 N751 1.329 1_565 S
C769 C753 1.481 . S
C769 O770 1.246 . S
O770 C769 1.246 . S
O771 Cd742 2.263 . S
O771 C783 1.258 1_565 S
O772 Cd743 2.308 . S
O772 C783 1.274 . S
C773 C757 1.516 . S
C773 N758 1.324 . S
C773 O774 1.238 . S
O774 C773 1.238 . S
C775 N758 1.427 . S
C775 C776 1.394 . S
C775 C780 1.395 1_565 S
C776 C775 1.394 . S
C776 C777 1.380 1_565 S
C776 H804 0.929 . S
C777 C776 1.380 1_545 S
C777 C778 1.384 . S
C777 C783 1.495 . S
C778 C777 1.384 . S
C778 C779 1.382 . S
C778 H805 0.930 . S
C779 C778 1.382 . S
C779 C780 1.398 . S
C780 C775 1.395 1_545 S
C780 C779 1.398 . S
C780 H806 0.930 . S
C781 O761 1.235 1_565 S
C781 O762 1.270 . S
O782 C735 1.273 1_565 S
O782 Cd742 2.366 . S
C783 O771 1.258 1_545 S
C783 O772 1.274 . S
C783 C777 1.495 . S
C784 N751 1.432 . S
C784 C785 1.381 . S
C784 C789 1.385 . S
C785 C784 1.381 . S
C785 C786 1.371 . S
C785 H807 0.932 . S
C786 C785 1.371 . S
C786 C787 1.400 . S
C787 C786 1.400 . S
C787 C788 1.351 . S
C787 H808 0.930 . S
C788 C787 1.351 . S
C788 C789 1.388 . S
C789 C784 1.385 . S
C789 C788 1.388 . S
C789 H809 0.962 . S
C790 C729 1.504 . S
C790 N760 1.309 . S
C790 O791 1.258 . S
O791 C790 1.258 . S
H792 C730 0.929 . S
H793 C731 0.932 . S
H794 C732 0.931 . S
H795 C737 0.929 . S
H796 C739 0.929 . S
H797 C741 0.931 . S
H798 C746 0.929 1_565 S
H799 C748 0.932 . S
H800 C749 0.941 . S
H801 C754 0.930 . S
H802 C755 0.931 . S
H803 C756 0.930 . S
H804 C776 0.929 . S
H805 C778 0.930 . S
H806 C780 0.930 . S
H807 C785 0.932 . S
H808 C787 0.930 . S
H809 C789 0.962 . S
C810 C811 1.359 . S
C810 N815 1.330 . S
C810 C871 1.504 . S
C811 C810 1.359 . S
C811 C812 1.366 . S
C811 H873 0.929 . S
C812 C811 1.366 . S
C812 C813 1.415 . S
C812 H874 0.932 . S
C813 C812 1.415 . S
C813 C814 1.366 . S
C813 H875 0.931 . S
C814 C813 1.366 . S
C814 N815 1.325 . S
C814 C816 1.549 . S
N815 C810 1.330 . S
N815 C814 1.325 . S
N815 Co831 1.869 1_655 S
C816 C814 1.549 . S
C816 N840 1.307 1_655 S
C816 O863 1.243 1_655 S
C817 C818 1.421 . S
C817 C822 1.360 . S
C817 N840 1.436 . S
C818 C817 1.421 . S
C818 C819 1.379 . S
C818 H876 0.929 . S
C819 C818 1.379 . S
C819 C820 1.417 . S
C820 C819 1.417 . S
C820 C821 1.352 . S
C820 H877 0.929 . S
C821 C820 1.352 . S
C821 C822 1.393 . S
C822 C817 1.360 . S
C822 C821 1.393 . S
C822 H878 0.931 . S
Cd823 O843 2.329 . S
Cd823 O845 2.350 . S
Cd823 O846 2.277 . S
Cd823 O848 2.173 1_455 S
Cd823 O852 2.263 . S
Cd823 O863 2.366 . S
Cd824 O842 2.352 . S
Cd824 O849 2.250 . S
Cd824 O853 2.308 . S
C825 C829 1.403 . S
C825 C830 1.364 1_655 S
C825 N841 1.423 . S
C826 C827 1.389 1_455 S
C826 C830 1.386 . S
C827 C826 1.389 1_655 S
C827 C828 1.379 . S
C827 H879 0.929 1_655 S
C828 C827 1.379 . S
C828 C829 1.405 . S
C829 C825 1.403 . S
C829 C828 1.405 . S
C829 H880 0.932 . S
C830 C825 1.364 1_455 S
C830 C826 1.386 . S
C830 H881 0.940 . S
Co831 N815 1.869 1_455 S
Co831 N832 1.955 1_455 S
Co831 N833 1.864 . S
Co831 N839 1.958 . S
Co831 N840 1.953 . S
Co831 N841 1.974 1_455 S
N832 Co831 1.955 1_655 S
N832 C850 1.329 1_655 S
N832 C865 1.432 . S
N833 Co831 1.864 . S
N833 C834 1.327 . S
N833 C838 1.342 . S
C834 N833 1.327 . S
C834 C835 1.407 . S
C834 C850 1.481 . S
C835 C834 1.407 . S
C835 C836 1.364 . S
C835 H882 0.930 . S
C836 C835 1.364 . S
C836 C837 1.390 . S
C836 H883 0.931 . S
C837 C836 1.390 . S
C837 C838 1.346 . S
C837 H884 0.930 . S
C838 N833 1.342 . S
C838 C837 1.346 . S
C838 C854 1.516 . S
N839 Co831 1.958 . S
N839 C854 1.324 . S
N839 C856 1.427 . S
N840 C816 1.307 1_455 S
N840 C817 1.436 . S
N840 Co831 1.953 . S
N841 C825 1.423 . S
N841 Co831 1.974 1_655 S
N841 C871 1.309 . S
O842 Cd824 2.352 . S
O842 C862 1.235 1_655 S
O843 Cd823 2.329 . S
O843 C862 1.270 . S
C844 O845 1.270 . S
C844 O846 1.248 . S
O845 Cd823 2.350 . S
O845 C844 1.270 . S
O846 Cd823 2.277 . S
O846 C844 1.248 . S
C847 O848 1.277 . S
C847 O849 1.230 . S
O848 Cd823 2.173 1_655 S
O848 C847 1.277 . S
O849 Cd824 2.250 . S
O849 C847 1.230 . S
C850 N832 1.329 1_455 S
C850 C834 1.481 . S
C850 O851 1.246 . S
O851 C850 1.246 . S
O852 Cd823 2.263 . S
O852 C864 1.258 1_455 S
O853 Cd824 2.308 . S
O853 C864 1.274 . S
C854 C838 1.516 . S
C854 N839 1.324 . S
C854 O855 1.238 . S
O855 C854 1.238 . S
C856 N839 1.427 . S
C856 C857 1.394 . S
C856 C861 1.395 1_455 S
C857 C856 1.394 . S
C857 C858 1.380 1_455 S
C857 H885 0.929 . S
C858 C857 1.380 1_655 S
C858 C859 1.384 . S
C858 C864 1.495 . S
C859 C858 1.384 . S
C859 C860 1.382 . S
C859 H886 0.930 . S
C860 C859 1.382 . S
C860 C861 1.398 . S
C861 C856 1.395 1_655 S
C861 C860 1.398 . S
C861 H887 0.930 . S
C862 O842 1.235 1_455 S
C862 O843 1.270 . S
O863 C816 1.243 1_455 S
O863 Cd823 2.366 . S
C864 O852 1.258 1_655 S
C864 O853 1.274 . S
C864 C858 1.495 . S
C865 N832 1.432 . S
C865 C866 1.381 . S
C865 C870 1.385 . S
C866 C865 1.381 . S
C866 C867 1.371 . S
C866 H888 0.932 . S
C867 C866 1.371 . S
C867 C868 1.400 . S
C868 C867 1.400 . S
C868 C869 1.351 . S
C868 H889 0.930 . S
C869 C868 1.351 . S
C869 C870 1.388 . S
C870 C865 1.385 . S
C870 C869 1.388 . S
C870 H890 0.975 . S
C871 C810 1.504 . S
C871 N841 1.309 . S
C871 O872 1.258 . S
O872 C871 1.258 . S
H873 C811 0.929 . S
H874 C812 0.932 . S
H875 C813 0.931 . S
H876 C818 0.929 . S
H877 C820 0.929 . S
H878 C822 0.931 . S
H879 C827 0.929 1_455 S
H880 C829 0.932 . S
H881 C830 0.940 . S
H882 C835 0.930 . S
H883 C836 0.931 . S
H884 C837 0.930 . S
H885 C857 0.929 . S
H886 C859 0.930 . S
H887 C861 0.930 . S
H888 C866 0.932 . S
H889 C868 0.930 . S
H890 C870 0.975 . S
C891 C892 1.359 . S
C891 N896 1.330 . S
C891 C952 1.504 . S
C892 C891 1.359 . S
C892 C893 1.366 . S
C892 H954 0.929 . S
C893 C892 1.366 . S
C893 C894 1.415 . S
C893 H955 0.932 . S
C894 C893 1.415 . S
C894 C895 1.366 . S
C894 H956 0.931 . S
C895 C894 1.366 . S
C895 N896 1.325 . S
C895 C897 1.516 . S
N896 C891 1.330 . S
N896 C895 1.325 . S
N896 Co912 1.869 . S
C897 C895 1.516 . S
C897 N921 1.316 . S
C897 O944 1.263 . S
C898 C899 1.421 . S
C898 C903 1.360 . S
C898 N921 1.436 . S
C899 C898 1.421 . S
C899 C900 1.379 . S
C899 H957 0.929 . S
C900 C899 1.379 . S
C900 C901 1.417 . S
C901 C900 1.417 . S
C901 C902 1.352 . S
C901 H958 0.929 . S
C902 C901 1.352 . S
C902 C903 1.393 . S
C903 C898 1.360 . S
C903 C902 1.393 . S
C903 H959 0.931 . S
Cd904 O924 2.329 . S
Cd904 O926 2.350 . S
Cd904 O927 2.277 . S
Cd904 O929 2.173 . S
Cd904 O933 2.263 . S
Cd904 O944 2.366 . S
Cd905 O923 2.352 . S
Cd905 O930 2.250 . S
Cd905 O934 2.308 . S
C906 C910 1.403 . S
C906 C911 1.370 . S
C906 N922 1.423 . S
C907 C908 1.389 . S
C907 C911 1.389 . S
C908 C907 1.389 . S
C908 C909 1.379 . S
C908 H960 0.929 . S
C909 C908 1.379 . S
C909 C910 1.405 . S
C910 C906 1.403 . S
C910 C909 1.405 . S
C910 H961 0.932 . S
C911 C906 1.370 . S
C911 C907 1.389 . S
C911 H962 0.931 . S
Co912 N896 1.869 . S
Co912 N913 1.955 . S
Co912 N914 1.864 . S
Co912 N920 1.958 . S
Co912 N921 1.953 . S
Co912 N922 1.974 . S
N913 Co912 1.955 . S
N913 C931 1.329 . S
N913 C946 1.432 . S
N914 Co912 1.864 . S
N914 C915 1.327 . S
N914 C919 1.342 . S
C915 N914 1.327 . S
C915 C916 1.407 . S
C915 C931 1.481 . S
C916 C915 1.407 . S
C916 C917 1.364 . S
C916 H963 0.930 . S
C917 C916 1.364 . S
C917 C918 1.390 . S
C917 H964 0.931 . S
C918 C917 1.390 . S
C918 C919 1.346 . S
C918 H965 0.930 . S
C919 N914 1.342 . S
C919 C918 1.346 . S
C919 C935 1.516 . S
N920 Co912 1.958 . S
N920 C935 1.324 . S
N920 C937 1.427 . S
N921 C897 1.316 . S
N921 C898 1.436 . S
N921 Co912 1.953 . S
N922 C906 1.423 . S
N922 Co912 1.974 . S
N922 C952 1.309 . S
O923 Cd905 2.352 . S
O923 C943 1.235 . S
O924 Cd904 2.329 . S
O924 C943 1.270 . S
C925 O926 1.270 . S
C925 O927 1.248 . S
O926 Cd904 2.350 . S
O926 C925 1.270 . S
O927 Cd904 2.277 . S
O927 C925 1.248 . S
C928 O929 1.277 . S
C928 O930 1.230 . S
O929 Cd904 2.173 . S
O929 C928 1.277 . S
O930 Cd905 2.250 . S
O930 C928 1.230 . S
C931 N913 1.329 . S
C931 C915 1.481 . S
C931 O932 1.246 . S
O932 C931 1.246 . S
O933 Cd904 2.263 . S
O933 C945 1.258 . S
O934 Cd905 2.308 . S
O934 C945 1.274 . S
C935 C919 1.516 . S
C935 N920 1.324 . S
C935 O936 1.238 . S
O936 C935 1.238 . S
C937 N920 1.427 . S
C937 C938 1.394 . S
C937 C942 1.395 . S
C938 C937 1.394 . S
C938 C939 1.380 . S
C938 H966 0.929 . S
C939 C938 1.380 . S
C939 C940 1.384 . S
C939 C945 1.495 . S
C940 C939 1.384 . S
C940 C941 1.382 . S
C940 H967 0.930 . S
C941 C940 1.382 . S
C941 C942 1.398 . S
C942 C937 1.395 . S
C942 C941 1.398 . S
C942 H968 0.930 . S
C943 O923 1.235 . S
C943 O924 1.270 . S
O944 C897 1.263 . S
O944 Cd904 2.366 . S
C945 O933 1.258 . S
C945 O934 1.274 . S
C945 C939 1.495 . S
C946 N913 1.432 . S
C946 C947 1.381 . S
C946 C951 1.385 . S
C947 C946 1.381 . S
C947 C948 1.371 . S
C947 H969 0.932 . S
C948 C947 1.371 . S
C948 C949 1.400 . S
C949 C948 1.400 . S
C949 C950 1.351 . S
C949 H970 0.930 . S
C950 C949 1.351 . S
C950 C951 1.388 . S
C951 C946 1.385 . S
C951 C950 1.388 . S
C951 H971 0.929 . S
C952 C891 1.504 . S
C952 N922 1.309 . S
C952 O953 1.258 . S
O953 C952 1.258 . S
H954 C892 0.929 . S
H955 C893 0.932 . S
H956 C894 0.931 . S
H957 C899 0.929 . S
H958 C901 0.929 . S
H959 C903 0.931 . S
H960 C908 0.929 . S
H961 C910 0.932 . S
H962 C911 0.931 . S
H963 C916 0.930 . S
H964 C917 0.931 . S
H965 C918 0.930 . S
H966 C938 0.929 . S
H967 C940 0.930 . S
H968 C942 0.930 . S
H969 C947 0.932 . S
H970 C949 0.930 . S
H971 C951 0.929 . S
C972 C973 1.359 . S
C972 N977 1.330 . S
C972 C1033 1.504 . S
C973 C972 1.359 . S
C973 C974 1.366 . S
C973 H1035 0.929 . S
C974 C973 1.366 . S
C974 C975 1.415 . S
C974 H1036 0.932 . S
C975 C974 1.415 . S
C975 C976 1.366 . S
C975 H1037 0.931 . S
C976 C975 1.366 . S
C976 N977 1.325 . S
C976 C978 1.536 . S
N977 C972 1.330 . S
N977 C976 1.325 . S
N977 Co993 1.869 1_565 S
C978 C976 1.536 . S
C978 N1002 1.287 1_565 S
C978 O1025 1.273 1_565 S
C979 C980 1.421 . S
C979 C984 1.360 . S
C979 N1002 1.436 . S
C980 C979 1.421 . S
C980 C981 1.379 . S
C980 H1038 0.929 . S
C981 C980 1.379 . S
C981 C982 1.417 . S
C982 C981 1.417 . S
C982 C983 1.352 . S
C982 H1039 0.929 . S
C983 C982 1.352 . S
C983 C984 1.393 . S
C984 C979 1.360 . S
C984 C983 1.393 . S
C984 H1040 0.931 . S
Cd985 O1005 2.329 . S
Cd985 O1007 2.350 . S
Cd985 O1008 2.277 . S
Cd985 O1010 2.173 1_545 S
Cd985 O1014 2.263 . S
Cd985 O1025 2.366 . S
Cd986 O1004 2.352 . S
Cd986 O1011 2.250 . S
Cd986 O1015 2.308 . S
C987 C991 1.403 . S
C987 C992 1.344 1_565 S
C987 N1003 1.423 . S
C988 C989 1.389 1_545 S
C988 C992 1.405 . S
C989 C988 1.389 1_565 S
C989 C990 1.379 . S
C989 H1041 0.929 1_565 S
C990 C989 1.379 . S
C990 C991 1.405 . S
C991 C987 1.403 . S
C991 C990 1.405 . S
C991 H1042 0.932 . S
C992 C987 1.344 1_545 S
C992 C988 1.405 . S
C992 H1043 0.941 . S
Co993 N977 1.869 1_545 S
Co993 N994 1.955 1_545 S
Co993 N995 1.864 . S
Co993 N1001 1.958 . S
Co993 N1002 1.953 . S
Co993 N1003 1.974 1_545 S
N994 Co993 1.955 1_565 S
N994 C1012 1.329 1_565 S
N994 C1027 1.432 . S
N995 Co993 1.864 . S
N995 C996 1.327 . S
N995 C1000 1.342 . S
C996 N995 1.327 . S
C996 C997 1.407 . S
C996 C1012 1.481 . S
C997 C996 1.407 . S
C997 C998 1.364 . S
C997 H1044 0.930 . S
C998 C997 1.364 . S
C998 C999 1.390 . S
C998 H1045 0.931 . S
C999 C998 1.390 . S
C999 C1000 1.346 . S
C999 H1046 0.930 . S
C1000 N995 1.342 . S
C1000 C999 1.346 . S
C1000 C1016 1.516 . S
N1001 Co993 1.958 . S
N1001 C1016 1.324 . S
N1001 C1018 1.427 . S
N1002 C978 1.287 1_545 S
N1002 C979 1.436 . S
N1002 Co993 1.953 . S
N1003 C987 1.423 . S
N1003 Co993 1.974 1_565 S
N1003 C1033 1.309 . S
O1004 Cd986 2.352 . S
O1004 C1024 1.235 1_565 S
O1005 Cd985 2.329 . S
O1005 C1024 1.270 . S
C1006 O1007 1.270 . S
C1006 O1008 1.248 . S
O1007 Cd985 2.350 . S
O1007 C1006 1.270 . S
O1008 Cd985 2.277 . S
O1008 C1006 1.248 . S
C1009 O1010 1.277 . S
C1009 O1011 1.230 . S
O1010 Cd985 2.173 1_565 S
O1010 C1009 1.277 . S
O1011 Cd986 2.250 . S
O1011 C1009 1.230 . S
C1012 N994 1.329 1_545 S
C1012 C996 1.481 . S
C1012 O1013 1.246 . S
O1013 C1012 1.246 . S
O1014 Cd985 2.263 . S
O1014 C1026 1.258 1_545 S
O1015 Cd986 2.308 . S
O1015 C1026 1.274 . S
C1016 C1000 1.516 . S
C1016 N1001 1.324 . S
C1016 O1017 1.238 . S
O1017 C1016 1.238 . S
C1018 N1001 1.427 . S
C1018 C1019 1.394 . S
C1018 C1023 1.395 1_545 S
C1019 C1018 1.394 . S
C1019 C1020 1.380 1_545 S
C1019 H1047 0.929 . S
C1020 C1019 1.380 1_565 S
C1020 C1021 1.384 . S
C1020 C1026 1.495 . S
C1021 C1020 1.384 . S
C1021 C1022 1.382 . S
C1021 H1048 0.930 . S
C1022 C1021 1.382 . S
C1022 C1023 1.398 . S
C1023 C1018 1.395 1_565 S
C1023 C1022 1.398 . S
C1023 H1049 0.930 . S
C1024 O1004 1.235 1_545 S
C1024 O1005 1.270 . S
O1025 C978 1.273 1_545 S
O1025 Cd985 2.366 . S
C1026 O1014 1.258 1_565 S
C1026 O1015 1.274 . S
C1026 C1020 1.495 . S
C1027 N994 1.432 . S
C1027 C1028 1.381 . S
C1027 C1032 1.385 . S
C1028 C1027 1.381 . S
C1028 C1029 1.371 . S
C1028 H1050 0.932 . S
C1029 C1028 1.371 . S
C1029 C1030 1.400 . S
C1030 C1029 1.400 . S
C1030 C1031 1.351 . S
C1030 H1051 0.930 . S
C1031 C1030 1.351 . S
C1031 C1032 1.388 . S
C1032 C1027 1.385 . S
C1032 C1031 1.388 . S
C1032 H1052 0.962 . S
C1033 C972 1.504 . S
C1033 N1003 1.309 . S
C1033 O1034 1.258 . S
O1034 C1033 1.258 . S
H1035 C973 0.929 . S
H1036 C974 0.932 . S
H1037 C975 0.931 . S
H1038 C980 0.929 . S
H1039 C982 0.929 . S
H1040 C984 0.931 . S
H1041 C989 0.929 1_545 S
H1042 C991 0.932 . S
H1043 C992 0.941 . S
H1044 C997 0.930 . S
H1045 C998 0.931 . S
H1046 C999 0.930 . S
H1047 C1019 0.929 . S
H1048 C1021 0.930 . S
H1049 C1023 0.930 . S
H1050 C1028 0.932 . S
H1051 C1030 0.930 . S
H1052 C1032 0.962 . S
C1053 C1054 1.359 . S
C1053 N1058 1.330 . S
C1053 C1114 1.504 . S
C1054 C1053 1.359 . S
C1054 C1055 1.366 . S
C1054 H1116 0.929 . S
C1055 C1054 1.366 . S
C1055 C1056 1.415 . S
C1055 H1117 0.932 . S
C1056 C1055 1.415 . S
C1056 C1057 1.366 . S
C1056 H1118 0.931 . S
C1057 C1056 1.366 . S
C1057 N1058 1.325 . S
C1057 C1059 1.549 . S
N1058 C1053 1.330 . S
N1058 C1057 1.325 . S
N1058 Co1074 1.869 1_455 S
C1059 C1057 1.549 . S
C1059 N1083 1.307 1_455 S
C1059 O1106 1.243 1_455 S
C1060 C1061 1.421 . S
C1060 C1065 1.360 . S
C1060 N1083 1.436 . S
C1061 C1060 1.421 . S
C1061 C1062 1.379 . S
C1061 H1119 0.929 . S
C1062 C1061 1.379 . S
C1062 C1063 1.417 . S
C1063 C1062 1.417 . S
C1063 C1064 1.352 . S
C1063 H1120 0.929 . S
C1064 C1063 1.352 . S
C1064 C1065 1.393 . S
C1065 C1060 1.360 . S
C1065 C1064 1.393 . S
C1065 H1121 0.931 . S
Cd1066 O1086 2.329 . S
Cd1066 O1088 2.350 . S
Cd1066 O1089 2.277 . S
Cd1066 O1091 2.173 1_655 S
Cd1066 O1095 2.263 . S
Cd1066 O1106 2.366 . S
Cd1067 O1085 2.352 . S
Cd1067 O1092 2.250 . S
Cd1067 O1096 2.308 . S
C1068 C1072 1.403 . S
C1068 C1073 1.364 1_455 S
C1068 N1084 1.423 . S
C1069 C1070 1.389 1_655 S
C1069 C1073 1.386 . S
C1070 C1069 1.389 1_455 S
C1070 C1071 1.379 . S
C1070 H1122 0.929 1_455 S
C1071 C1070 1.379 . S
C1071 C1072 1.405 . S
C1072 C1068 1.403 . S
C1072 C1071 1.405 . S
C1072 H1123 0.932 . S
C1073 C1068 1.364 1_655 S
C1073 C1069 1.386 . S
C1073 H1124 0.940 . S
Co1074 N1058 1.869 1_655 S
Co1074 N1075 1.955 1_655 S
Co1074 N1076 1.864 . S
Co1074 N1082 1.958 . S
Co1074 N1083 1.953 . S
Co1074 N1084 1.974 1_655 S
N1075 Co1074 1.955 1_455 S
N1075 C1093 1.329 1_455 S
N1075 C1108 1.432 . S
N1076 Co1074 1.864 . S
N1076 C1077 1.327 . S
N1076 C1081 1.342 . S
C1077 N1076 1.327 . S
C1077 C1078 1.407 . S
C1077 C1093 1.481 . S
C1078 C1077 1.407 . S
C1078 C1079 1.364 . S
C1078 H1125 0.930 . S
C1079 C1078 1.364 . S
C1079 C1080 1.390 . S
C1079 H1126 0.931 . S
C1080 C1079 1.390 . S
C1080 C1081 1.346 . S
C1080 H1127 0.930 . S
C1081 N1076 1.342 . S
C1081 C1080 1.346 . S
C1081 C1097 1.516 . S
N1082 Co1074 1.958 . S
N1082 C1097 1.324 . S
N1082 C1099 1.427 . S
N1083 C1059 1.307 1_655 S
N1083 C1060 1.436 . S
N1083 Co1074 1.953 . S
N1084 C1068 1.423 . S
N1084 Co1074 1.974 1_455 S
N1084 C1114 1.309 . S
O1085 Cd1067 2.352 . S
O1085 C1105 1.235 1_455 S
O1086 Cd1066 2.329 . S
O1086 C1105 1.270 . S
C1087 O1088 1.270 . S
C1087 O1089 1.248 . S
O1088 Cd1066 2.350 . S
O1088 C1087 1.270 . S
O1089 Cd1066 2.277 . S
O1089 C1087 1.248 . S
C1090 O1091 1.277 . S
C1090 O1092 1.230 . S
O1091 Cd1066 2.173 1_455 S
O1091 C1090 1.277 . S
O1092 Cd1067 2.250 . S
O1092 C1090 1.230 . S
C1093 N1075 1.329 1_655 S
C1093 C1077 1.481 . S
C1093 O1094 1.246 . S
O1094 C1093 1.246 . S
O1095 Cd1066 2.263 . S
O1095 C1107 1.258 1_655 S
O1096 Cd1067 2.308 . S
O1096 C1107 1.274 . S
C1097 C1081 1.516 . S
C1097 N1082 1.324 . S
C1097 O1098 1.238 . S
O1098 C1097 1.238 . S
C1099 N1082 1.427 . S
C1099 C1100 1.394 . S
C1099 C1104 1.395 1_655 S
C1100 C1099 1.394 . S
C1100 C1101 1.380 1_655 S
C1100 H1128 0.929 . S
C1101 C1100 1.380 1_455 S
C1101 C1102 1.384 . S
C1101 C1107 1.495 . S
C1102 C1101 1.384 . S
C1102 C1103 1.382 . S
C1102 H1129 0.930 . S
C1103 C1102 1.382 . S
C1103 C1104 1.398 . S
C1104 C1099 1.395 1_455 S
C1104 C1103 1.398 . S
C1104 H1130 0.930 . S
C1105 O1085 1.235 1_655 S
C1105 O1086 1.270 . S
O1106 C1059 1.243 1_655 S
O1106 Cd1066 2.366 . S
C1107 O1095 1.258 1_455 S
C1107 O1096 1.274 . S
C1107 C1101 1.495 . S
C1108 N1075 1.432 . S
C1108 C1109 1.381 . S
C1108 C1113 1.385 . S
C1109 C1108 1.381 . S
C1109 C1110 1.371 . S
C1109 H1131 0.932 . S
C1110 C1109 1.371 . S
C1110 C1111 1.400 . S
C1111 C1110 1.400 . S
C1111 C1112 1.351 . S
C1111 H1132 0.930 . S
C1112 C1111 1.351 . S
C1112 C1113 1.388 . S
C1113 C1108 1.385 . S
C1113 C1112 1.388 . S
C1113 H1133 0.975 . S
C1114 C1053 1.504 . S
C1114 N1084 1.309 . S
C1114 O1115 1.258 . S
O1115 C1114 1.258 . S
H1116 C1054 0.929 . S
H1117 C1055 0.932 . S
H1118 C1056 0.931 . S
H1119 C1061 0.929 . S
H1120 C1063 0.929 . S
H1121 C1065 0.931 . S
H1122 C1070 0.929 1_655 S
H1123 C1072 0.932 . S
H1124 C1073 0.940 . S
H1125 C1078 0.930 . S
H1126 C1079 0.931 . S
H1127 C1080 0.930 . S
H1128 C1100 0.929 . S
H1129 C1102 0.930 . S
H1130 C1104 0.930 . S
H1131 C1109 0.932 . S
H1132 C1111 0.930 . S
H1133 C1113 0.975 . S
C1134 C1135 1.359 . S
C1134 N1139 1.330 . S
C1134 C1195 1.504 . S
C1135 C1134 1.359 . S
C1135 C1136 1.366 . S
C1135 H1197 0.929 . S
C1136 C1135 1.366 . S
C1136 C1137 1.415 . S
C1136 H1198 0.932 . S
C1137 C1136 1.415 . S
C1137 C1138 1.366 . S
C1137 H1199 0.931 . S
C1138 C1137 1.366 . S
C1138 N1139 1.325 . S
C1138 C1140 1.516 . S
N1139 C1134 1.330 . S
N1139 C1138 1.325 . S
N1139 Co1155 1.869 . S
C1140 C1138 1.516 . S
C1140 N1164 1.316 . S
C1140 O1187 1.263 . S
C1141 C1142 1.421 . S
C1141 C1146 1.360 . S
C1141 N1164 1.436 . S
C1142 C1141 1.421 . S
C1142 C1143 1.379 . S
C1142 H1200 0.929 . S
C1143 C1142 1.379 . S
C1143 C1144 1.417 . S
C1144 C1143 1.417 . S
C1144 C1145 1.352 . S
C1144 H1201 0.929 . S
C1145 C1144 1.352 . S
C1145 C1146 1.393 . S
C1146 C1141 1.360 . S
C1146 C1145 1.393 . S
C1146 H1202 0.931 . S
Cd1147 O1167 2.329 . S
Cd1147 O1169 2.350 . S
Cd1147 O1170 2.277 . S
Cd1147 O1172 2.173 . S
Cd1147 O1176 2.263 . S
Cd1147 O1187 2.366 . S
Cd1148 O1166 2.352 . S
Cd1148 O1173 2.250 . S
Cd1148 O1177 2.308 . S
C1149 C1153 1.403 . S
C1149 C1154 1.370 . S
C1149 N1165 1.423 . S
C1150 C1151 1.389 . S
C1150 C1154 1.389 . S
C1151 C1150 1.389 . S
C1151 C1152 1.379 . S
C1151 H1203 0.929 . S
C1152 C1151 1.379 . S
C1152 C1153 1.405 . S
C1153 C1149 1.403 . S
C1153 C1152 1.405 . S
C1153 H1204 0.932 . S
C1154 C1149 1.370 . S
C1154 C1150 1.389 . S
C1154 H1205 0.931 . S
Co1155 N1139 1.869 . S
Co1155 N1156 1.955 . S
Co1155 N1157 1.864 . S
Co1155 N1163 1.958 . S
Co1155 N1164 1.953 . S
Co1155 N1165 1.974 . S
N1156 Co1155 1.955 . S
N1156 C1174 1.329 . S
N1156 C1189 1.432 . S
N1157 Co1155 1.864 . S
N1157 C1158 1.327 . S
N1157 C1162 1.342 . S
C1158 N1157 1.327 . S
C1158 C1159 1.407 . S
C1158 C1174 1.481 . S
C1159 C1158 1.407 . S
C1159 C1160 1.364 . S
C1159 H1206 0.930 . S
C1160 C1159 1.364 . S
C1160 C1161 1.390 . S
C1160 H1207 0.931 . S
C1161 C1160 1.390 . S
C1161 C1162 1.346 . S
C1161 H1208 0.930 . S
C1162 N1157 1.342 . S
C1162 C1161 1.346 . S
C1162 C1178 1.516 . S
N1163 Co1155 1.958 . S
N1163 C1178 1.324 . S
N1163 C1180 1.427 . S
N1164 C1140 1.316 . S
N1164 C1141 1.436 . S
N1164 Co1155 1.953 . S
N1165 C1149 1.423 . S
N1165 Co1155 1.974 . S
N1165 C1195 1.309 . S
O1166 Cd1148 2.352 . S
O1166 C1186 1.235 . S
O1167 Cd1147 2.329 . S
O1167 C1186 1.270 . S
C1168 O1169 1.270 . S
C1168 O1170 1.248 . S
O1169 Cd1147 2.350 . S
O1169 C1168 1.270 . S
O1170 Cd1147 2.277 . S
O1170 C1168 1.248 . S
C1171 O1172 1.277 . S
C1171 O1173 1.230 . S
O1172 Cd1147 2.173 . S
O1172 C1171 1.277 . S
O1173 Cd1148 2.250 . S
O1173 C1171 1.230 . S
C1174 N1156 1.329 . S
C1174 C1158 1.481 . S
C1174 O1175 1.246 . S
O1175 C1174 1.246 . S
O1176 Cd1147 2.263 . S
O1176 C1188 1.258 . S
O1177 Cd1148 2.308 . S
O1177 C1188 1.274 . S
C1178 C1162 1.516 . S
C1178 N1163 1.324 . S
C1178 O1179 1.238 . S
O1179 C1178 1.238 . S
C1180 N1163 1.427 . S
C1180 C1181 1.394 . S
C1180 C1185 1.395 . S
C1181 C1180 1.394 . S
C1181 C1182 1.380 . S
C1181 H1209 0.929 . S
C1182 C1181 1.380 . S
C1182 C1183 1.384 . S
C1182 C1188 1.495 . S
C1183 C1182 1.384 . S
C1183 C1184 1.382 . S
C1183 H1210 0.930 . S
C1184 C1183 1.382 . S
C1184 C1185 1.398 . S
C1185 C1180 1.395 . S
C1185 C1184 1.398 . S
C1185 H1211 0.930 . S
C1186 O1166 1.235 . S
C1186 O1167 1.270 . S
O1187 C1140 1.263 . S
O1187 Cd1147 2.366 . S
C1188 O1176 1.258 . S
C1188 O1177 1.274 . S
C1188 C1182 1.495 . S
C1189 N1156 1.432 . S
C1189 C1190 1.381 . S
C1189 C1194 1.385 . S
C1190 C1189 1.381 . S
C1190 C1191 1.371 . S
C1190 H1212 0.932 . S
C1191 C1190 1.371 . S
C1191 C1192 1.400 . S
C1192 C1191 1.400 . S
C1192 C1193 1.351 . S
C1192 H1213 0.930 . S
C1193 C1192 1.351 . S
C1193 C1194 1.388 . S
C1194 C1189 1.385 . S
C1194 C1193 1.388 . S
C1194 H1214 0.929 . S
C1195 C1134 1.504 . S
C1195 N1165 1.309 . S
C1195 O1196 1.258 . S
O1196 C1195 1.258 . S
H1197 C1135 0.929 . S
H1198 C1136 0.932 . S
H1199 C1137 0.931 . S
H1200 C1142 0.929 . S
H1201 C1144 0.929 . S
H1202 C1146 0.931 . S
H1203 C1151 0.929 . S
H1204 C1153 0.932 . S
H1205 C1154 0.931 . S
H1206 C1159 0.930 . S
H1207 C1160 0.931 . S
H1208 C1161 0.930 . S
H1209 C1181 0.929 . S
H1210 C1183 0.930 . S
H1211 C1185 0.930 . S
H1212 C1190 0.932 . S
H1213 C1192 0.930 . S
H1214 C1194 0.929 . S
C1215 C1216 1.359 . S
C1215 N1220 1.330 . S
C1215 C1276 1.504 . S
C1216 C1215 1.359 . S
C1216 C1217 1.366 . S
C1216 H1278 0.929 . S
C1217 C1216 1.366 . S
C1217 C1218 1.415 . S
C1217 H1279 0.932 . S
C1218 C1217 1.415 . S
C1218 C1219 1.366 . S
C1218 H1280 0.931 . S
C1219 C1218 1.366 . S
C1219 N1220 1.325 . S
C1219 C1221 1.516 . S
N1220 C1215 1.330 . S
N1220 C1219 1.325 . S
N1220 Co1236 1.869 . S
C1221 C1219 1.516 . S
C1221 N1245 1.316 . S
C1221 O1268 1.263 . S
C1222 C1223 1.421 . S
C1222 C1227 1.360 . S
C1222 N1245 1.436 . S
C1223 C1222 1.421 . S
C1223 C1224 1.379 . S
C1223 H1281 0.929 . S
C1224 C1223 1.379 . S
C1224 C1225 1.417 . S
C1225 C1224 1.417 . S
C1225 C1226 1.352 . S
C1225 H1282 0.929 . S
C1226 C1225 1.352 . S
C1226 C1227 1.393 . S
C1227 C1222 1.360 . S
C1227 C1226 1.393 . S
C1227 H1283 0.931 . S
Cd1228 O1248 2.329 . S
Cd1228 O1250 2.350 . S
Cd1228 O1251 2.277 . S
Cd1228 O1253 2.173 . S
Cd1228 O1257 2.263 . S
Cd1228 O1268 2.366 . S
Cd1229 O1247 2.352 . S
Cd1229 O1254 2.250 . S
Cd1229 O1258 2.308 . S
C1230 C1234 1.403 . S
C1230 C1235 1.370 . S
C1230 N1246 1.423 . S
C1231 C1232 1.389 . S
C1231 C1235 1.389 . S
C1232 C1231 1.389 . S
C1232 C1233 1.379 . S
C1232 H1284 0.929 . S
C1233 C1232 1.379 . S
C1233 C1234 1.405 . S
C1234 C1230 1.403 . S
C1234 C1233 1.405 . S
C1234 H1285 0.932 . S
C1235 C1230 1.370 . S
C1235 C1231 1.389 . S
C1235 H1286 0.931 . S
Co1236 N1220 1.869 . S
Co1236 N1237 1.955 . S
Co1236 N1238 1.864 . S
Co1236 N1244 1.958 . S
Co1236 N1245 1.953 . S
Co1236 N1246 1.974 . S
N1237 Co1236 1.955 . S
N1237 C1255 1.329 . S
N1237 C1270 1.432 . S
N1238 Co1236 1.864 . S
N1238 C1239 1.327 . S
N1238 C1243 1.342 . S
C1239 N1238 1.327 . S
C1239 C1240 1.407 . S
C1239 C1255 1.481 . S
C1240 C1239 1.407 . S
C1240 C1241 1.364 . S
C1240 H1287 0.930 . S
C1241 C1240 1.364 . S
C1241 C1242 1.390 . S
C1241 H1288 0.931 . S
C1242 C1241 1.390 . S
C1242 C1243 1.346 . S
C1242 H1289 0.930 . S
C1243 N1238 1.342 . S
C1243 C1242 1.346 . S
C1243 C1259 1.516 . S
N1244 Co1236 1.958 . S
N1244 C1259 1.324 . S
N1244 C1261 1.427 . S
N1245 C1221 1.316 . S
N1245 C1222 1.436 . S
N1245 Co1236 1.953 . S
N1246 C1230 1.423 . S
N1246 Co1236 1.974 . S
N1246 C1276 1.309 . S
O1247 Cd1229 2.352 . S
O1247 C1267 1.235 . S
O1248 Cd1228 2.329 . S
O1248 C1267 1.270 . S
C1249 O1250 1.270 . S
C1249 O1251 1.248 . S
O1250 Cd1228 2.350 . S
O1250 C1249 1.270 . S
O1251 Cd1228 2.277 . S
O1251 C1249 1.248 . S
C1252 O1253 1.277 . S
C1252 O1254 1.230 . S
O1253 Cd1228 2.173 . S
O1253 C1252 1.277 . S
O1254 Cd1229 2.250 . S
O1254 C1252 1.230 . S
C1255 N1237 1.329 . S
C1255 C1239 1.481 . S
C1255 O1256 1.246 . S
O1256 C1255 1.246 . S
O1257 Cd1228 2.263 . S
O1257 C1269 1.258 . S
O1258 Cd1229 2.308 . S
O1258 C1269 1.274 . S
C1259 C1243 1.516 . S
C1259 N1244 1.324 . S
C1259 O1260 1.238 . S
O1260 C1259 1.238 . S
C1261 N1244 1.427 . S
C1261 C1262 1.394 . S
C1261 C1266 1.395 . S
C1262 C1261 1.394 . S
C1262 C1263 1.380 . S
C1262 H1290 0.929 . S
C1263 C1262 1.380 . S
C1263 C1264 1.384 . S
C1263 C1269 1.495 . S
C1264 C1263 1.384 . S
C1264 C1265 1.382 . S
C1264 H1291 0.930 . S
C1265 C1264 1.382 . S
C1265 C1266 1.398 . S
C1266 C1261 1.395 . S
C1266 C1265 1.398 . S
C1266 H1292 0.930 . S
C1267 O1247 1.235 . S
C1267 O1248 1.270 . S
O1268 C1221 1.263 . S
O1268 Cd1228 2.366 . S
C1269 O1257 1.258 . S
C1269 O1258 1.274 . S
C1269 C1263 1.495 . S
C1270 N1237 1.432 . S
C1270 C1271 1.381 . S
C1270 C1275 1.385 . S
C1271 C1270 1.381 . S
C1271 C1272 1.371 . S
C1271 H1293 0.932 . S
C1272 C1271 1.371 . S
C1272 C1273 1.400 . S
C1273 C1272 1.400 . S
C1273 C1274 1.351 . S
C1273 H1294 0.930 . S
C1274 C1273 1.351 . S
C1274 C1275 1.388 . S
C1275 C1270 1.385 . S
C1275 C1274 1.388 . S
C1275 H1295 0.929 . S
C1276 C1215 1.504 . S
C1276 N1246 1.309 . S
C1276 O1277 1.258 . S
O1277 C1276 1.258 . S
H1278 C1216 0.929 . S
H1279 C1217 0.932 . S
H1280 C1218 0.931 . S
H1281 C1223 0.929 . S
H1282 C1225 0.929 . S
H1283 C1227 0.931 . S
H1284 C1232 0.929 . S
H1285 C1234 0.932 . S
H1286 C1235 0.931 . S
H1287 C1240 0.930 . S
H1288 C1241 0.931 . S
H1289 C1242 0.930 . S
H1290 C1262 0.929 . S
H1291 C1264 0.930 . S
H1292 C1266 0.930 . S
H1293 C1271 0.932 . S
H1294 C1273 0.930 . S
H1295 C1275 0.929 . S
C1296 C1297 1.359 . S
C1296 N1301 1.330 . S
C1296 C1357 1.504 . S
C1297 C1296 1.359 . S
C1297 C1298 1.366 . S
C1297 H1359 0.929 . S
C1298 C1297 1.366 . S
C1298 C1299 1.415 . S
C1298 H1360 0.932 . S
C1299 C1298 1.415 . S
C1299 C1300 1.366 . S
C1299 H1361 0.931 . S
C1300 C1299 1.366 . S
C1300 N1301 1.325 . S
C1300 C1302 1.516 . S
N1301 C1296 1.330 . S
N1301 C1300 1.325 . S
N1301 Co1317 1.869 . S
C1302 C1300 1.516 . S
C1302 N1326 1.316 . S
C1302 O1349 1.263 . S
C1303 C1304 1.421 . S
C1303 C1308 1.360 . S
C1303 N1326 1.436 . S
C1304 C1303 1.421 . S
C1304 C1305 1.379 . S
C1304 H1362 0.929 . S
C1305 C1304 1.379 . S
C1305 C1306 1.417 . S
C1306 C1305 1.417 . S
C1306 C1307 1.352 . S
C1306 H1363 0.929 . S
C1307 C1306 1.352 . S
C1307 C1308 1.393 . S
C1308 C1303 1.360 . S
C1308 C1307 1.393 . S
C1308 H1364 0.931 . S
Cd1309 O1329 2.329 . S
Cd1309 O1331 2.350 . S
Cd1309 O1332 2.277 . S
Cd1309 O1334 2.173 . S
Cd1309 O1338 2.263 . S
Cd1309 O1349 2.366 . S
Cd1310 O1328 2.352 . S
Cd1310 O1335 2.250 . S
Cd1310 O1339 2.308 . S
C1311 C1315 1.403 . S
C1311 C1316 1.370 . S
C1311 N1327 1.423 . S
C1312 C1313 1.389 . S
C1312 C1316 1.389 . S
C1313 C1312 1.389 . S
C1313 C1314 1.379 . S
C1313 H1365 0.929 . S
C1314 C1313 1.379 . S
C1314 C1315 1.405 . S
C1315 C1311 1.403 . S
C1315 C1314 1.405 . S
C1315 H1366 0.932 . S
C1316 C1311 1.370 . S
C1316 C1312 1.389 . S
C1316 H1367 0.931 . S
Co1317 N1301 1.869 . S
Co1317 N1318 1.955 . S
Co1317 N1319 1.864 . S
Co1317 N1325 1.958 . S
Co1317 N1326 1.953 . S
Co1317 N1327 1.974 . S
N1318 Co1317 1.955 . S
N1318 C1336 1.329 . S
N1318 C1351 1.432 . S
N1319 Co1317 1.864 . S
N1319 C1320 1.327 . S
N1319 C1324 1.342 . S
C1320 N1319 1.327 . S
C1320 C1321 1.407 . S
C1320 C1336 1.481 . S
C1321 C1320 1.407 . S
C1321 C1322 1.364 . S
C1321 H1368 0.930 . S
C1322 C1321 1.364 . S
C1322 C1323 1.390 . S
C1322 H1369 0.931 . S
C1323 C1322 1.390 . S
C1323 C1324 1.346 . S
C1323 H1370 0.930 . S
C1324 N1319 1.342 . S
C1324 C1323 1.346 . S
C1324 C1340 1.516 . S
N1325 Co1317 1.958 . S
N1325 C1340 1.324 . S
N1325 C1342 1.427 . S
N1326 C1302 1.316 . S
N1326 C1303 1.436 . S
N1326 Co1317 1.953 . S
N1327 C1311 1.423 . S
N1327 Co1317 1.974 . S
N1327 C1357 1.309 . S
O1328 Cd1310 2.352 . S
O1328 C1348 1.235 . S
O1329 Cd1309 2.329 . S
O1329 C1348 1.270 . S
C1330 O1331 1.270 . S
C1330 O1332 1.248 . S
O1331 Cd1309 2.350 . S
O1331 C1330 1.270 . S
O1332 Cd1309 2.277 . S
O1332 C1330 1.248 . S
C1333 O1334 1.277 . S
C1333 O1335 1.230 . S
O1334 Cd1309 2.173 . S
O1334 C1333 1.277 . S
O1335 Cd1310 2.250 . S
O1335 C1333 1.230 . S
C1336 N1318 1.329 . S
C1336 C1320 1.481 . S
C1336 O1337 1.246 . S
O1337 C1336 1.246 . S
O1338 Cd1309 2.263 . S
O1338 C1350 1.258 . S
O1339 Cd1310 2.308 . S
O1339 C1350 1.274 . S
C1340 C1324 1.516 . S
C1340 N1325 1.324 . S
C1340 O1341 1.238 . S
O1341 C1340 1.238 . S
C1342 N1325 1.427 . S
C1342 C1343 1.394 . S
C1342 C1347 1.395 . S
C1343 C1342 1.394 . S
C1343 C1344 1.380 . S
C1343 H1371 0.929 . S
C1344 C1343 1.380 . S
C1344 C1345 1.384 . S
C1344 C1350 1.495 . S
C1345 C1344 1.384 . S
C1345 C1346 1.382 . S
C1345 H1372 0.930 . S
C1346 C1345 1.382 . S
C1346 C1347 1.398 . S
C1347 C1342 1.395 . S
C1347 C1346 1.398 . S
C1347 H1373 0.930 . S
C1348 O1328 1.235 . S
C1348 O1329 1.270 . S
O1349 C1302 1.263 . S
O1349 Cd1309 2.366 . S
C1350 O1338 1.258 . S
C1350 O1339 1.274 . S
C1350 C1344 1.495 . S
C1351 N1318 1.432 . S
C1351 C1352 1.381 . S
C1351 C1356 1.385 . S
C1352 C1351 1.381 . S
C1352 C1353 1.371 . S
C1352 H1374 0.932 . S
C1353 C1352 1.371 . S
C1353 C1354 1.400 . S
C1354 C1353 1.400 . S
C1354 C1355 1.351 . S
C1354 H1375 0.930 . S
C1355 C1354 1.351 . S
C1355 C1356 1.388 . S
C1356 C1351 1.385 . S
C1356 C1355 1.388 . S
C1356 H1376 0.929 . S
C1357 C1296 1.504 . S
C1357 N1327 1.309 . S
C1357 O1358 1.258 . S
O1358 C1357 1.258 . S
H1359 C1297 0.929 . S
H1360 C1298 0.932 . S
H1361 C1299 0.931 . S
H1362 C1304 0.929 . S
H1363 C1306 0.929 . S
H1364 C1308 0.931 . S
H1365 C1313 0.929 . S
H1366 C1315 0.932 . S
H1367 C1316 0.931 . S
H1368 C1321 0.930 . S
H1369 C1322 0.931 . S
H1370 C1323 0.930 . S
H1371 C1343 0.929 . S
H1372 C1345 0.930 . S
H1373 C1347 0.930 . S
H1374 C1352 0.932 . S
H1375 C1354 0.930 . S
H1376 C1356 0.929 . S
C1377 C1378 1.359 . S
C1377 N1382 1.330 . S
C1377 C1438 1.504 . S
C1378 C1377 1.359 . S
C1378 C1379 1.366 . S
C1378 H1440 0.929 . S
C1379 C1378 1.366 . S
C1379 C1380 1.415 . S
C1379 H1441 0.932 . S
C1380 C1379 1.415 . S
C1380 C1381 1.366 . S
C1380 H1442 0.931 . S
C1381 C1380 1.366 . S
C1381 N1382 1.325 . S
C1381 C1383 1.516 . S
N1382 C1377 1.330 . S
N1382 C1381 1.325 . S
N1382 Co1398 1.869 . S
C1383 C1381 1.516 . S
C1383 N1407 1.316 . S
C1383 O1430 1.263 . S
C1384 C1385 1.421 . S
C1384 C1389 1.360 . S
C1384 N1407 1.436 . S
C1385 C1384 1.421 . S
C1385 C1386 1.379 . S
C1385 H1443 0.929 . S
C1386 C1385 1.379 . S
C1386 C1387 1.417 . S
C1387 C1386 1.417 . S
C1387 C1388 1.352 . S
C1387 H1444 0.929 . S
C1388 C1387 1.352 . S
C1388 C1389 1.393 . S
C1389 C1384 1.360 . S
C1389 C1388 1.393 . S
C1389 H1445 0.931 . S
Cd1390 O1410 2.329 . S
Cd1390 O1412 2.350 . S
Cd1390 O1413 2.277 . S
Cd1390 O1415 2.173 . S
Cd1390 O1419 2.263 . S
Cd1390 O1430 2.366 . S
Cd1391 O1409 2.352 . S
Cd1391 O1416 2.250 . S
Cd1391 O1420 2.308 . S
C1392 C1396 1.403 . S
C1392 C1397 1.370 . S
C1392 N1408 1.423 . S
C1393 C1394 1.389 . S
C1393 C1397 1.389 . S
C1394 C1393 1.389 . S
C1394 C1395 1.379 . S
C1394 H1446 0.929 . S
C1395 C1394 1.379 . S
C1395 C1396 1.405 . S
C1396 C1392 1.403 . S
C1396 C1395 1.405 . S
C1396 H1447 0.932 . S
C1397 C1392 1.370 . S
C1397 C1393 1.389 . S
C1397 H1448 0.931 . S
Co1398 N1382 1.869 . S
Co1398 N1399 1.955 . S
Co1398 N1400 1.864 . S
Co1398 N1406 1.958 . S
Co1398 N1407 1.953 . S
Co1398 N1408 1.974 . S
N1399 Co1398 1.955 . S
N1399 C1417 1.329 . S
N1399 C1432 1.432 . S
N1400 Co1398 1.864 . S
N1400 C1401 1.327 . S
N1400 C1405 1.342 . S
C1401 N1400 1.327 . S
C1401 C1402 1.407 . S
C1401 C1417 1.481 . S
C1402 C1401 1.407 . S
C1402 C1403 1.364 . S
C1402 H1449 0.930 . S
C1403 C1402 1.364 . S
C1403 C1404 1.390 . S
C1403 H1450 0.931 . S
C1404 C1403 1.390 . S
C1404 C1405 1.346 . S
C1404 H1451 0.930 . S
C1405 N1400 1.342 . S
C1405 C1404 1.346 . S
C1405 C1421 1.516 . S
N1406 Co1398 1.958 . S
N1406 C1421 1.324 . S
N1406 C1423 1.427 . S
N1407 C1383 1.316 . S
N1407 C1384 1.436 . S
N1407 Co1398 1.953 . S
N1408 C1392 1.423 . S
N1408 Co1398 1.974 . S
N1408 C1438 1.309 . S
O1409 Cd1391 2.352 . S
O1409 C1429 1.235 . S
O1410 Cd1390 2.329 . S
O1410 C1429 1.270 . S
C1411 O1412 1.270 . S
C1411 O1413 1.248 . S
O1412 Cd1390 2.350 . S
O1412 C1411 1.270 . S
O1413 Cd1390 2.277 . S
O1413 C1411 1.248 . S
C1414 O1415 1.277 . S
C1414 O1416 1.230 . S
O1415 Cd1390 2.173 . S
O1415 C1414 1.277 . S
O1416 Cd1391 2.250 . S
O1416 C1414 1.230 . S
C1417 N1399 1.329 . S
C1417 C1401 1.481 . S
C1417 O1418 1.246 . S
O1418 C1417 1.246 . S
O1419 Cd1390 2.263 . S
O1419 C1431 1.258 . S
O1420 Cd1391 2.308 . S
O1420 C1431 1.274 . S
C1421 C1405 1.516 . S
C1421 N1406 1.324 . S
C1421 O1422 1.238 . S
O1422 C1421 1.238 . S
C1423 N1406 1.427 . S
C1423 C1424 1.394 . S
C1423 C1428 1.395 . S
C1424 C1423 1.394 . S
C1424 C1425 1.380 . S
C1424 H1452 0.929 . S
C1425 C1424 1.380 . S
C1425 C1426 1.384 . S
C1425 C1431 1.495 . S
C1426 C1425 1.384 . S
C1426 C1427 1.382 . S
C1426 H1453 0.930 . S
C1427 C1426 1.382 . S
C1427 C1428 1.398 . S
C1428 C1423 1.395 . S
C1428 C1427 1.398 . S
C1428 H1454 0.930 . S
C1429 O1409 1.235 . S
C1429 O1410 1.270 . S
O1430 C1383 1.263 . S
O1430 Cd1390 2.366 . S
C1431 O1419 1.258 . S
C1431 O1420 1.274 . S
C1431 C1425 1.495 . S
C1432 N1399 1.432 . S
C1432 C1433 1.381 . S
C1432 C1437 1.385 . S
C1433 C1432 1.381 . S
C1433 C1434 1.371 . S
C1433 H1455 0.932 . S
C1434 C1433 1.371 . S
C1434 C1435 1.400 . S
C1435 C1434 1.400 . S
C1435 C1436 1.351 . S
C1435 H1456 0.930 . S
C1436 C1435 1.351 . S
C1436 C1437 1.388 . S
C1437 C1432 1.385 . S
C1437 C1436 1.388 . S
C1437 H1457 0.929 . S
C1438 C1377 1.504 . S
C1438 N1408 1.309 . S
C1438 O1439 1.258 . S
O1439 C1438 1.258 . S
H1440 C1378 0.929 . S
H1441 C1379 0.932 . S
H1442 C1380 0.931 . S
H1443 C1385 0.929 . S
H1444 C1387 0.929 . S
H1445 C1389 0.931 . S
H1446 C1394 0.929 . S
H1447 C1396 0.932 . S
H1448 C1397 0.931 . S
H1449 C1402 0.930 . S
H1450 C1403 0.931 . S
H1451 C1404 0.930 . S
H1452 C1424 0.929 . S
H1453 C1426 0.930 . S
H1454 C1428 0.930 . S
H1455 C1433 0.932 . S
H1456 C1435 0.930 . S
H1457 C1437 0.929 . S
H1458 C1470 0.930 . S
H1459 C1472 0.930 . S
H1460 C1473 0.930 . S
H1461 C1477 0.959 . S
H1462 C1477 0.959 . S
H1463 C1477 0.961 . S
H1464 C1478 0.960 . S
H1465 C1478 0.961 . S
H1466 C1478 0.959 . S
H1467 C1481 0.929 . S
H1468 C1482 0.931 . S
H1469 C1484 0.930 . S
C1470 H1458 0.930 . S
C1470 C1471 1.399 . S
C1470 C1475 1.399 . S
C1471 C1470 1.399 . S
C1471 C1472 1.376 . S
C1472 H1459 0.930 . S
C1472 C1471 1.376 . S
C1472 C1473 1.388 . S
C1473 H1460 0.930 . S
C1473 C1472 1.388 . S
C1473 C1474 1.390 . S
C1474 C1473 1.390 . S
C1474 C1475 1.394 . S
C1474 C1480 1.465 . S
C1475 C1470 1.399 . S
C1475 C1474 1.394 . S
C1475 C1476 1.516 . S
C1476 C1475 1.516 . S
C1476 C1477 1.502 . S
C1476 C1478 1.561 . S
C1476 C1479 1.526 . S
C1477 H1461 0.959 . S
C1477 H1462 0.959 . S
C1477 H1463 0.961 . S
C1477 C1476 1.502 . S
C1478 H1464 0.960 . S
C1478 H1465 0.961 . S
C1478 H1466 0.959 . S
C1478 C1476 1.561 . S
C1479 C1476 1.526 . S
C1479 C1480 1.396 . S
C1479 C1484 1.390 . S
C1480 C1474 1.465 . S
C1480 C1479 1.396 . S
C1480 C1481 1.399 . S
C1481 H1467 0.929 . S
C1481 C1480 1.399 . S
C1481 C1482 1.385 . S
C1482 H1468 0.931 . S
C1482 C1481 1.385 . S
C1482 C1483 1.389 . S
C1483 C1482 1.389 . S
C1483 C1484 1.387 . S
C1484 H1469 0.930 . S
C1484 C1479 1.390 . S
C1484 C1483 1.387 . S
H1485 C1497 0.930 . S
H1486 C1499 0.930 . S
H1487 C1500 0.930 . S
H1488 C1504 0.959 . S
H1489 C1504 0.959 . S
H1490 C1504 0.961 . S
H1491 C1505 0.960 . S
H1492 C1505 0.961 . S
H1493 C1505 0.959 . S
H1494 C1508 0.929 . S
H1495 C1509 0.931 . S
H1496 C1511 0.930 . S
C1497 H1485 0.930 . S
C1497 C1498 1.399 . S
C1497 C1502 1.399 . S
C1498 C1497 1.399 . S
C1498 C1499 1.376 . S
C1499 H1486 0.930 . S
C1499 C1498 1.376 . S
C1499 C1500 1.388 . S
C1500 H1487 0.930 . S
C1500 C1499 1.388 . S
C1500 C1501 1.390 . S
C1501 C1500 1.390 . S
C1501 C1502 1.394 . S
C1501 C1507 1.465 . S
C1502 C1497 1.399 . S
C1502 C1501 1.394 . S
C1502 C1503 1.516 . S
C1503 C1502 1.516 . S
C1503 C1504 1.502 . S
C1503 C1505 1.561 . S
C1503 C1506 1.526 . S
C1504 H1488 0.959 . S
C1504 H1489 0.959 . S
C1504 H1490 0.961 . S
C1504 C1503 1.502 . S
C1505 H1491 0.960 . S
C1505 H1492 0.961 . S
C1505 H1493 0.959 . S
C1505 C1503 1.561 . S
C1506 C1503 1.526 . S
C1506 C1507 1.396 . S
C1506 C1511 1.390 . S
C1507 C1501 1.465 . S
C1507 C1506 1.396 . S
C1507 C1508 1.399 . S
C1508 H1494 0.929 . S
C1508 C1507 1.399 . S
C1508 C1509 1.385 . S
C1509 H1495 0.931 . S
C1509 C1508 1.385 . S
C1509 C1510 1.389 . S
C1510 C1509 1.389 . S
C1510 C1511 1.387 . S
C1511 H1496 0.930 . S
C1511 C1506 1.390 . S
C1511 C1510 1.387 . S
H1512 C1524 0.930 . S
H1513 C1526 0.930 . S
H1514 C1527 0.930 . S
H1515 C1531 0.959 . S
H1516 C1531 0.959 . S
H1517 C1531 0.961 . S
H1518 C1532 0.960 . S
H1519 C1532 0.961 . S
H1520 C1532 0.959 . S
H1521 C1535 0.929 . S
H1522 C1536 0.931 . S
H1523 C1538 0.930 . S
C1524 H1512 0.930 . S
C1524 C1525 1.399 . S
C1524 C1529 1.399 . S
C1525 C1524 1.399 . S
C1525 C1526 1.376 . S
C1526 H1513 0.930 . S
C1526 C1525 1.376 . S
C1526 C1527 1.388 . S
C1527 H1514 0.930 . S
C1527 C1526 1.388 . S
C1527 C1528 1.390 . S
C1528 C1527 1.390 . S
C1528 C1529 1.394 . S
C1528 C1534 1.465 . S
C1529 C1524 1.399 . S
C1529 C1528 1.394 . S
C1529 C1530 1.516 . S
C1530 C1529 1.516 . S
C1530 C1531 1.502 . S
C1530 C1532 1.561 . S
C1530 C1533 1.526 . S
C1531 H1515 0.959 . S
C1531 H1516 0.959 . S
C1531 H1517 0.961 . S
C1531 C1530 1.502 . S
C1532 H1518 0.960 . S
C1532 H1519 0.961 . S
C1532 H1520 0.959 . S
C1532 C1530 1.561 . S
C1533 C1530 1.526 . S
C1533 C1534 1.396 . S
C1533 C1538 1.390 . S
C1534 C1528 1.465 . S
C1534 C1533 1.396 . S
C1534 C1535 1.399 . S
C1535 H1521 0.929 . S
C1535 C1534 1.399 . S
C1535 C1536 1.385 . S
C1536 H1522 0.931 . S
C1536 C1535 1.385 . S
C1536 C1537 1.389 . S
C1537 C1536 1.389 . S
C1537 C1538 1.387 . S
C1538 H1523 0.930 . S
C1538 C1533 1.390 . S
C1538 C1537 1.387 . S
H1539 C1551 0.930 . S
H1540 C1553 0.930 . S
H1541 C1554 0.930 . S
H1542 C1558 0.959 . S
H1543 C1558 0.959 . S
H1544 C1558 0.961 . S
H1545 C1559 0.960 . S
H1546 C1559 0.961 . S
H1547 C1559 0.959 . S
H1548 C1562 0.929 . S
H1549 C1563 0.931 . S
H1550 C1565 0.930 . S
C1551 H1539 0.930 . S
C1551 C1552 1.399 . S
C1551 C1556 1.399 . S
C1552 C1551 1.399 . S
C1552 C1553 1.376 . S
C1553 H1540 0.930 . S
C1553 C1552 1.376 . S
C1553 C1554 1.388 . S
C1554 H1541 0.930 . S
C1554 C1553 1.388 . S
C1554 C1555 1.390 . S
C1555 C1554 1.390 . S
C1555 C1556 1.394 . S
C1555 C1561 1.465 . S
C1556 C1551 1.399 . S
C1556 C1555 1.394 . S
C1556 C1557 1.516 . S
C1557 C1556 1.516 . S
C1557 C1558 1.502 . S
C1557 C1559 1.561 . S
C1557 C1560 1.526 . S
C1558 H1542 0.959 . S
C1558 H1543 0.959 . S
C1558 H1544 0.961 . S
C1558 C1557 1.502 . S
C1559 H1545 0.960 . S
C1559 H1546 0.961 . S
C1559 H1547 0.959 . S
C1559 C1557 1.561 . S
C1560 C1557 1.526 . S
C1560 C1561 1.396 . S
C1560 C1565 1.390 . S
C1561 C1555 1.465 . S
C1561 C1560 1.396 . S
C1561 C1562 1.399 . S
C1562 H1548 0.929 . S
C1562 C1561 1.399 . S
C1562 C1563 1.385 . S
C1563 H1549 0.931 . S
C1563 C1562 1.385 . S
C1563 C1564 1.389 . S
C1564 C1563 1.389 . S
C1564 C1565 1.387 . S
C1565 H1550 0.930 . S
C1565 C1560 1.390 . S
C1565 C1564 1.387 . S
H1566 C1578 0.930 . S
H1567 C1580 0.930 . S
H1568 C1581 0.930 . S
H1569 C1585 0.959 . S
H1570 C1585 0.959 . S
H1571 C1585 0.961 . S
H1572 C1586 0.960 . S
H1573 C1586 0.961 . S
H1574 C1586 0.959 . S
H1575 C1589 0.929 . S
H1576 C1590 0.931 . S
H1577 C1592 0.930 . S
C1578 H1566 0.930 . S
C1578 C1579 1.399 . S
C1578 C1583 1.399 . S
C1579 C1578 1.399 . S
C1579 C1580 1.376 . S
C1580 H1567 0.930 . S
C1580 C1579 1.376 . S
C1580 C1581 1.388 . S
C1581 H1568 0.930 . S
C1581 C1580 1.388 . S
C1581 C1582 1.390 . S
C1582 C1581 1.390 . S
C1582 C1583 1.394 . S
C1582 C1588 1.465 . S
C1583 C1578 1.399 . S
C1583 C1582 1.394 . S
C1583 C1584 1.516 . S
C1584 C1583 1.516 . S
C1584 C1585 1.502 . S
C1584 C1586 1.561 . S
C1584 C1587 1.526 . S
C1585 H1569 0.959 . S
C1585 H1570 0.959 . S
C1585 H1571 0.961 . S
C1585 C1584 1.502 . S
C1586 H1572 0.960 . S
C1586 H1573 0.961 . S
C1586 H1574 0.959 . S
C1586 C1584 1.561 . S
C1587 C1584 1.526 . S
C1587 C1588 1.396 . S
C1587 C1592 1.390 . S
C1588 C1582 1.465 . S
C1588 C1587 1.396 . S
C1588 C1589 1.399 . S
C1589 H1575 0.929 . S
C1589 C1588 1.399 . S
C1589 C1590 1.385 . S
C1590 H1576 0.931 . S
C1590 C1589 1.385 . S
C1590 C1591 1.389 . S
C1591 C1590 1.389 . S
C1591 C1592 1.387 . S
C1592 H1577 0.930 . S
C1592 C1587 1.390 . S
C1592 C1591 1.387 . S
H1593 C1605 0.930 . S
H1594 C1607 0.930 . S
H1595 C1608 0.930 . S
H1596 C1612 0.959 . S
H1597 C1612 0.959 . S
H1598 C1612 0.961 . S
H1599 C1613 0.960 . S
H1600 C1613 0.961 . S
H1601 C1613 0.959 . S
H1602 C1616 0.929 . S
H1603 C1617 0.931 . S
H1604 C1619 0.930 . S
C1605 H1593 0.930 . S
C1605 C1606 1.399 . S
C1605 C1610 1.399 . S
C1606 C1605 1.399 . S
C1606 C1607 1.376 . S
C1607 H1594 0.930 . S
C1607 C1606 1.376 . S
C1607 C1608 1.388 . S
C1608 H1595 0.930 . S
C1608 C1607 1.388 . S
C1608 C1609 1.390 . S
C1609 C1608 1.390 . S
C1609 C1610 1.394 . S
C1609 C1615 1.465 . S
C1610 C1605 1.399 . S
C1610 C1609 1.394 . S
C1610 C1611 1.516 . S
C1611 C1610 1.516 . S
C1611 C1612 1.502 . S
C1611 C1613 1.561 . S
C1611 C1614 1.526 . S
C1612 H1596 0.959 . S
C1612 H1597 0.959 . S
C1612 H1598 0.961 . S
C1612 C1611 1.502 . S
C1613 H1599 0.960 . S
C1613 H1600 0.961 . S
C1613 H1601 0.959 . S
C1613 C1611 1.561 . S
C1614 C1611 1.526 . S
C1614 C1615 1.396 . S
C1614 C1619 1.390 . S
C1615 C1609 1.465 . S
C1615 C1614 1.396 . S
C1615 C1616 1.399 . S
C1616 H1602 0.929 . S
C1616 C1615 1.399 . S
C1616 C1617 1.385 . S
C1617 H1603 0.931 . S
C1617 C1616 1.385 . S
C1617 C1618 1.389 . S
C1618 C1617 1.389 . S
C1618 C1619 1.387 . S
C1619 H1604 0.930 . S
C1619 C1614 1.390 . S
C1619 C1618 1.387 . S
H1620 C1632 0.930 . S
H1621 C1634 0.930 . S
H1622 C1635 0.930 . S
H1623 C1639 0.959 . S
H1624 C1639 0.959 . S
H1625 C1639 0.961 . S
H1626 C1640 0.960 . S
H1627 C1640 0.961 . S
H1628 C1640 0.959 . S
H1629 C1643 0.929 . S
H1630 C1644 0.931 . S
H1631 C1646 0.930 . S
C1632 H1620 0.930 . S
C1632 C1633 1.399 . S
C1632 C1637 1.399 . S
C1633 C1632 1.399 . S
C1633 C1634 1.376 1_565 S
C1634 H1621 0.930 . S
C1634 C1633 1.376 1_545 S
C1634 C1635 1.388 . S
C1635 H1622 0.930 . S
C1635 C1634 1.388 . S
C1635 C1636 1.390 . S
C1636 C1635 1.390 . S
C1636 C1637 1.394 1_545 S
C1636 C1642 1.465 1_556 S
C1637 C1632 1.399 . S
C1637 C1636 1.394 1_565 S
C1637 C1638 1.516 1_556 S
C1638 C1637 1.516 1_554 S
C1638 C1639 1.502 . S
C1638 C1640 1.561 . S
C1638 C1641 1.526 . S
C1639 H1623 0.959 . S
C1639 H1624 0.959 . S
C1639 H1625 0.961 . S
C1639 C1638 1.502 . S
C1640 H1626 0.960 . S
C1640 H1627 0.961 . S
C1640 H1628 0.959 . S
C1640 C1638 1.561 . S
C1641 C1638 1.526 . S
C1641 C1642 1.396 1_565 S
C1641 C1646 1.390 . S
C1642 C1636 1.465 1_554 S
C1642 C1641 1.396 1_545 S
C1642 C1643 1.399 . S
C1643 H1629 0.929 . S
C1643 C1642 1.399 . S
C1643 C1644 1.385 . S
C1644 H1630 0.931 . S
C1644 C1643 1.385 . S
C1644 C1645 1.389 . S
C1645 C1644 1.389 . S
C1645 C1646 1.387 1_545 S
C1646 H1631 0.930 . S
C1646 C1641 1.390 . S
C1646 C1645 1.387 1_565 S
H1647 C1659 0.930 . S
H1648 C1661 0.930 . S
H1649 C1662 0.930 . S
H1650 C1666 0.959 . S
H1651 C1666 0.959 1_556 S
H1652 C1666 0.961 . S
H1653 C1667 0.960 1_554 S
H1654 C1667 0.961 . S
H1655 C1667 0.959 . S
H1656 C1670 0.929 . S
H1657 C1671 0.931 . S
H1658 C1673 0.930 . S
C1659 H1647 0.930 . S
C1659 C1660 1.399 . S
C1659 C1664 1.399 . S
C1660 C1659 1.399 . S
C1660 C1661 1.376 . S
C1661 H1648 0.930 . S
C1661 C1660 1.376 . S
C1661 C1662 1.388 . S
C1662 H1649 0.930 . S
C1662 C1661 1.388 . S
C1662 C1663 1.390 . S
C1663 C1662 1.390 . S
C1663 C1664 1.394 . S
C1663 C1669 1.465 1_654 S
C1664 C1659 1.399 . S
C1664 C1663 1.394 . S
C1664 C1665 1.534 . S
C1665 C1664 1.534 . S
C1665 C1666 1.508 1_655 S
C1665 C1667 1.555 1_554 S
C1665 C1668 1.507 1_654 S
C1666 H1650 0.959 . S
C1666 H1651 0.959 1_554 S
C1666 H1652 0.961 . S
C1666 C1665 1.508 1_455 S
C1667 H1653 0.960 1_556 S
C1667 H1654 0.961 . S
C1667 H1655 0.959 . S
C1667 C1665 1.555 1_556 S
C1668 C1665 1.507 1_456 S
C1668 C1669 1.396 . S
C1668 C1673 1.390 . S
C1669 C1663 1.465 1_456 S
C1669 C1668 1.396 . S
C1669 C1670 1.399 . S
C1670 H1656 0.929 . S
C1670 C1669 1.399 . S
C1670 C1671 1.385 . S
C1671 H1657 0.931 . S
C1671 C1670 1.385 . S
C1671 C1672 1.389 . S
C1672 C1671 1.389 . S
C1672 C1673 1.387 . S
C1673 H1658 0.930 . S
C1673 C1668 1.390 . S
C1673 C1672 1.387 . S
H1674 C1686 0.930 . S
H1675 C1688 0.930 . S
H1676 C1689 0.930 . S
H1677 C1693 0.959 . S
H1678 C1693 0.959 . S
H1679 C1693 0.961 . S
H1680 C1694 0.960 . S
H1681 C1694 0.961 . S
H1682 C1694 0.959 . S
H1683 C1697 0.929 . S
H1684 C1698 0.931 . S
H1685 C1700 0.930 . S
C1686 H1674 0.930 . S
C1686 C1687 1.399 . S
C1686 C1691 1.399 . S
C1687 C1686 1.399 . S
C1687 C1688 1.376 . S
C1688 H1675 0.930 . S
C1688 C1687 1.376 . S
C1688 C1689 1.388 . S
C1689 H1676 0.930 . S
C1689 C1688 1.388 . S
C1689 C1690 1.390 . S
C1690 C1689 1.390 . S
C1690 C1691 1.394 . S
C1690 C1696 1.465 1_554 S
C1691 C1686 1.399 . S
C1691 C1690 1.394 . S
C1691 C1692 1.516 . S
C1692 C1691 1.516 . S
C1692 C1693 1.502 . S
C1692 C1694 1.561 . S
C1692 C1695 1.526 1_554 S
C1693 H1677 0.959 . S
C1693 H1678 0.959 . S
C1693 H1679 0.961 . S
C1693 C1692 1.502 . S
C1694 H1680 0.960 . S
C1694 H1681 0.961 . S
C1694 H1682 0.959 . S
C1694 C1692 1.561 . S
C1695 C1692 1.526 1_556 S
C1695 C1696 1.396 . S
C1695 C1700 1.390 . S
C1696 C1690 1.465 1_556 S
C1696 C1695 1.396 . S
C1696 C1697 1.399 . S
C1697 H1683 0.929 . S
C1697 C1696 1.399 . S
C1697 C1698 1.385 . S
C1698 H1684 0.931 . S
C1698 C1697 1.385 . S
C1698 C1699 1.389 . S
C1699 C1698 1.389 . S
C1699 C1700 1.387 . S
C1700 H1685 0.930 . S
C1700 C1695 1.390 . S
C1700 C1699 1.387 . S
H1701 C1713 0.930 . S
H1702 C1715 0.930 . S
H1703 C1716 0.930 . S
H1704 C1720 0.959 . S
H1705 C1720 0.959 . S
H1706 C1720 0.961 . S
H1707 C1721 0.960 . S
H1708 C1721 0.961 . S
H1709 C1721 0.959 . S
H1710 C1724 0.929 . S
H1711 C1725 0.931 . S
H1712 C1727 0.930 . S
C1713 H1701 0.930 . S
C1713 C1714 1.399 . S
C1713 C1718 1.399 . S
C1714 C1713 1.399 . S
C1714 C1715 1.376 . S
C1715 H1702 0.930 . S
C1715 C1714 1.376 . S
C1715 C1716 1.388 . S
C1716 H1703 0.930 . S
C1716 C1715 1.388 . S
C1716 C1717 1.390 . S
C1717 C1716 1.390 . S
C1717 C1718 1.394 . S
C1717 C1723 1.465 . S
C1718 C1713 1.399 . S
C1718 C1717 1.394 . S
C1718 C1719 1.516 . S
C1719 C1718 1.516 . S
C1719 C1720 1.502 . S
C1719 C1721 1.561 . S
C1719 C1722 1.526 . S
C1720 H1704 0.959 . S
C1720 H1705 0.959 . S
C1720 H1706 0.961 . S
C1720 C1719 1.502 . S
C1721 H1707 0.960 . S
C1721 H1708 0.961 . S
C1721 H1709 0.959 . S
C1721 C1719 1.561 . S
C1722 C1719 1.526 . S
C1722 C1723 1.396 . S
C1722 C1727 1.390 . S
C1723 C1717 1.465 . S
C1723 C1722 1.396 . S
C1723 C1724 1.399 . S
C1724 H1710 0.929 . S
C1724 C1723 1.399 . S
C1724 C1725 1.385 . S
C1725 H1711 0.931 . S
C1725 C1724 1.385 . S
C1725 C1726 1.389 . S
C1726 C1725 1.389 . S
C1726 C1727 1.387 . S
C1727 H1712 0.930 . S
C1727 C1722 1.390 . S
C1727 C1726 1.387 . S
H1728 C1740 0.930 . S
H1729 C1742 0.930 . S
H1730 C1743 0.930 . S
H1731 C1747 0.959 . S
H1732 C1747 0.959 . S
H1733 C1747 0.961 . S
H1734 C1748 0.960 . S
H1735 C1748 0.961 . S
H1736 C1748 0.959 . S
H1737 C1751 0.929 . S
H1738 C1752 0.931 . S
H1739 C1754 0.930 . S
C1740 H1728 0.930 . S
C1740 C1741 1.399 . S
C1740 C1745 1.399 . S
C1741 C1740 1.399 . S
C1741 C1742 1.376 . S
C1742 H1729 0.930 . S
C1742 C1741 1.376 . S
C1742 C1743 1.388 1_545 S
C1743 H1730 0.930 . S
C1743 C1742 1.388 1_565 S
C1743 C1744 1.390 . S
C1744 C1743 1.390 . S
C1744 C1745 1.394 1_565 S
C1744 C1750 1.465 . S
C1745 C1740 1.399 . S
C1745 C1744 1.394 1_545 S
C1745 C1746 1.516 1_545 S
C1746 C1745 1.516 1_565 S
C1746 C1747 1.502 . S
C1746 C1748 1.561 1_565 S
C1746 C1749 1.526 . S
C1747 H1731 0.959 . S
C1747 H1732 0.959 . S
C1747 H1733 0.961 . S
C1747 C1746 1.502 . S
C1748 H1734 0.960 . S
C1748 H1735 0.961 . S
C1748 H1736 0.959 . S
C1748 C1746 1.561 1_545 S
C1749 C1746 1.526 . S
C1749 C1750 1.396 . S
C1749 C1754 1.390 . S
C1750 C1744 1.465 . S
C1750 C1749 1.396 . S
C1750 C1751 1.399 . S
C1751 H1737 0.929 . S
C1751 C1750 1.399 . S
C1751 C1752 1.385 . S
C1752 H1738 0.931 . S
C1752 C1751 1.385 . S
C1752 C1753 1.389 . S
C1753 C1752 1.389 . S
C1753 C1754 1.387 . S
C1754 H1739 0.930 . S
C1754 C1749 1.390 . S
C1754 C1753 1.387 . S
H1755 C1767 0.930 . S
H1756 C1769 0.930 . S
H1757 C1770 0.930 . S
H1758 C1774 0.959 . S
H1759 C1774 0.959 . S
H1760 C1774 0.961 . S
H1761 C1775 0.960 . S
H1762 C1775 0.961 . S
H1763 C1775 0.959 . S
H1764 C1778 0.929 . S
H1765 C1779 0.931 . S
H1766 C1781 0.930 . S
C1767 H1755 0.930 . S
C1767 C1768 1.399 . S
C1767 C1772 1.398 1_655 S
C1768 C1767 1.399 . S
C1768 C1769 1.376 . S
C1769 H1756 0.930 . S
C1769 C1768 1.376 . S
C1769 C1770 1.388 1_655 S
C1770 H1757 0.930 . S
C1770 C1769 1.388 1_455 S
C1770 C1771 1.390 . S
C1771 C1770 1.390 . S
C1771 C1772 1.387 . S
C1771 C1777 1.465 . S
C1772 C1767 1.398 1_455 S
C1772 C1771 1.387 . S
C1772 C1773 1.524 . S
C1773 C1772 1.524 . S
C1773 C1774 1.502 . S
C1773 C1775 1.561 1_455 S
C1773 C1776 1.526 . S
C1774 H1758 0.959 . S
C1774 H1759 0.959 . S
C1774 H1760 0.961 . S
C1774 C1773 1.502 . S
C1775 H1761 0.960 . S
C1775 H1762 0.961 . S
C1775 H1763 0.959 . S
C1775 C1773 1.561 1_655 S
C1776 C1773 1.526 . S
C1776 C1777 1.396 . S
C1776 C1781 1.390 . S
C1777 C1771 1.465 . S
C1777 C1776 1.396 . S
C1777 C1778 1.399 . S
C1778 H1764 0.929 . S
C1778 C1777 1.399 . S
C1778 C1779 1.385 . S
C1779 H1765 0.931 . S
C1779 C1778 1.385 . S
C1779 C1780 1.389 . S
C1780 C1779 1.389 . S
C1780 C1781 1.387 . S
C1781 H1766 0.930 . S
C1781 C1776 1.390 . S
C1781 C1780 1.387 . S
H1782 C1794 0.930 . S
H1783 C1796 0.930 . S
H1784 C1797 0.930 . S
H1785 C1801 0.959 . S
H1786 C1801 0.959 . S
H1787 C1801 0.961 . S
H1788 C1802 0.960 . S
H1789 C1802 0.961 . S
H1790 C1802 0.959 . S
H1791 C1805 0.929 . S
H1792 C1806 0.931 . S
H1793 C1808 0.930 . S
C1794 H1782 0.930 . S
C1794 C1795 1.399 . S
C1794 C1799 1.399 . S
C1795 C1794 1.399 . S
C1795 C1796 1.376 . S
C1796 H1783 0.930 . S
C1796 C1795 1.376 . S
C1796 C1797 1.388 . S
C1797 H1784 0.930 . S
C1797 C1796 1.388 . S
C1797 C1798 1.390 . S
C1798 C1797 1.390 . S
C1798 C1799 1.394 . S
C1798 C1804 1.465 . S
C1799 C1794 1.399 . S
C1799 C1798 1.394 . S
C1799 C1800 1.516 . S
C1800 C1799 1.516 . S
C1800 C1801 1.502 . S
C1800 C1802 1.561 . S
C1800 C1803 1.526 . S
C1801 H1785 0.959 . S
C1801 H1786 0.959 . S
C1801 H1787 0.961 . S
C1801 C1800 1.502 . S
C1802 H1788 0.960 . S
C1802 H1789 0.961 . S
C1802 H1790 0.959 . S
C1802 C1800 1.561 . S
C1803 C1800 1.526 . S
C1803 C1804 1.396 . S
C1803 C1808 1.390 . S
C1804 C1798 1.465 . S
C1804 C1803 1.396 . S
C1804 C1805 1.399 . S
C1805 H1791 0.929 . S
C1805 C1804 1.399 . S
C1805 C1806 1.385 . S
C1806 H1792 0.931 . S
C1806 C1805 1.385 . S
C1806 C1807 1.389 . S
C1807 C1806 1.389 . S
C1807 C1808 1.387 . S
C1808 H1793 0.930 . S
C1808 C1803 1.390 . S
C1808 C1807 1.387 . S
H1809 C1821 0.930 . S
H1810 C1823 0.930 . S
H1811 C1824 0.930 . S
H1812 C1828 0.959 . S
H1813 C1828 0.959 . S
H1814 C1828 0.961 . S
H1815 C1829 0.960 . S
H1816 C1829 0.961 . S
H1817 C1829 0.959 . S
H1818 C1832 0.929 . S
H1819 C1833 0.931 . S
H1820 C1835 0.930 . S
C1821 H1809 0.930 . S
C1821 C1822 1.399 1_545 S
C1821 C1826 1.399 . S
C1822 C1821 1.399 1_565 S
C1822 C1823 1.376 . S
C1823 H1810 0.930 . S
C1823 C1822 1.376 . S
C1823 C1824 1.388 . S
C1824 H1811 0.930 . S
C1824 C1823 1.388 . S
C1824 C1825 1.390 . S
C1825 C1824 1.390 . S
C1825 C1826 1.394 1_565 S
C1825 C1831 1.465 1_565 S
C1826 C1821 1.399 . S
C1826 C1825 1.394 1_545 S
C1826 C1827 1.516 . S
C1827 C1826 1.516 . S
C1827 C1828 1.502 . S
C1827 C1829 1.561 . S
C1827 C1830 1.526 . S
C1828 H1812 0.959 . S
C1828 H1813 0.959 . S
C1828 H1814 0.961 . S
C1828 C1827 1.502 . S
C1829 H1815 0.960 . S
C1829 H1816 0.961 . S
C1829 H1817 0.959 . S
C1829 C1827 1.561 . S
C1830 C1827 1.526 . S
C1830 C1831 1.396 . S
C1830 C1835 1.390 . S
C1831 C1825 1.465 1_545 S
C1831 C1830 1.396 . S
C1831 C1832 1.399 1_545 S
C1832 H1818 0.929 . S
C1832 C1831 1.399 1_565 S
C1832 C1833 1.385 1_565 S
C1833 H1819 0.931 . S
C1833 C1832 1.385 1_545 S
C1833 C1834 1.389 . S
C1834 C1833 1.389 . S
C1834 C1835 1.387 . S
C1835 H1820 0.930 . S
C1835 C1830 1.390 . S
C1835 C1834 1.387 . S
H1836 C1848 0.930 . S
H1837 C1850 0.930 . S
H1838 C1851 0.930 . S
H1839 C1855 0.959 . S
H1840 C1855 0.959 . S
H1841 C1855 0.961 . S
H1842 C1856 0.960 . S
H1843 C1856 0.961 . S
H1844 C1856 0.959 . S
H1845 C1859 0.929 1_655 S
H1846 C1860 0.931 . S
H1847 C1862 0.930 . S
C1848 H1836 0.930 . S
C1848 C1849 1.399 . S
C1848 C1853 1.399 . S
C1849 C1848 1.399 . S
C1849 C1850 1.376 . S
C1850 H1837 0.930 . S
C1850 C1849 1.376 . S
C1850 C1851 1.388 . S
C1851 H1838 0.930 . S
C1851 C1850 1.388 . S
C1851 C1852 1.390 . S
C1852 C1851 1.390 . S
C1852 C1853 1.394 . S
C1852 C1858 1.465 . S
C1853 C1848 1.399 . S
C1853 C1852 1.394 . S
C1853 C1854 1.516 . S
C1854 C1853 1.516 . S
C1854 C1855 1.502 . S
C1854 C1856 1.561 1_655 S
C1854 C1857 1.526 . S
C1855 H1839 0.959 . S
C1855 H1840 0.959 . S
C1855 H1841 0.961 . S
C1855 C1854 1.502 . S
C1856 H1842 0.960 . S
C1856 H1843 0.961 . S
C1856 H1844 0.959 . S
C1856 C1854 1.561 1_455 S
C1857 C1854 1.526 . S
C1857 C1858 1.396 . S
C1857 C1862 1.390 1_655 S
C1858 C1852 1.465 . S
C1858 C1857 1.396 . S
C1858 C1859 1.399 1_655 S
C1859 H1845 0.929 1_455 S
C1859 C1858 1.399 1_455 S
C1859 C1860 1.385 . S
C1860 H1846 0.931 . S
C1860 C1859 1.385 . S
C1860 C1861 1.389 . S
C1861 C1860 1.389 . S
C1861 C1862 1.387 . S
C1862 H1847 0.930 . S
C1862 C1857 1.390 1_455 S
C1862 C1861 1.387 . S
H1863 C1875 0.930 . S
H1864 C1877 0.930 . S
H1865 C1878 0.930 . S
H1866 C1882 0.959 . S
H1867 C1882 0.959 . S
H1868 C1882 0.961 . S
H1869 C1883 0.960 . S
H1870 C1883 0.961 . S
H1871 C1883 0.959 . S
H1872 C1886 0.929 . S
H1873 C1887 0.931 . S
H1874 C1889 0.930 . S
C1875 H1863 0.930 . S
C1875 C1876 1.399 . S
C1875 C1880 1.399 . S
C1876 C1875 1.399 . S
C1876 C1877 1.376 . S
C1877 H1864 0.930 . S
C1877 C1876 1.376 . S
C1877 C1878 1.388 . S
C1878 H1865 0.930 . S
C1878 C1877 1.388 . S
C1878 C1879 1.390 . S
C1879 C1878 1.390 . S
C1879 C1880 1.394 . S
C1879 C1885 1.465 . S
C1880 C1875 1.399 . S
C1880 C1879 1.394 . S
C1880 C1881 1.516 . S
C1881 C1880 1.516 . S
C1881 C1882 1.502 . S
C1881 C1883 1.561 . S
C1881 C1884 1.526 . S
C1882 H1866 0.959 . S
C1882 H1867 0.959 . S
C1882 H1868 0.961 . S
C1882 C1881 1.502 . S
C1883 H1869 0.960 . S
C1883 H1870 0.961 . S
C1883 H1871 0.959 . S
C1883 C1881 1.561 . S
C1884 C1881 1.526 . S
C1884 C1885 1.396 . S
C1884 C1889 1.390 . S
C1885 C1879 1.465 . S
C1885 C1884 1.396 . S
C1885 C1886 1.399 . S
C1886 H1872 0.929 . S
C1886 C1885 1.399 . S
C1886 C1887 1.385 . S
C1887 H1873 0.931 . S
C1887 C1886 1.385 . S
C1887 C1888 1.389 . S
C1888 C1887 1.389 . S
C1888 C1889 1.387 . S
C1889 H1874 0.930 . S
C1889 C1884 1.390 . S
C1889 C1888 1.387 . S
H1890 C1902 0.930 . S
H1891 C1904 0.930 . S
H1892 C1905 0.930 . S
H1893 C1909 0.959 . S
H1894 C1909 0.959 . S
H1895 C1909 0.961 . S
H1896 C1910 0.960 . S
H1897 C1910 0.961 . S
H1898 C1910 0.959 . S
H1899 C1913 0.929 . S
H1900 C1914 0.931 . S
H1901 C1916 0.930 . S
C1902 H1890 0.930 . S
C1902 C1903 1.399 . S
C1902 C1907 1.399 . S
C1903 C1902 1.399 . S
C1903 C1904 1.376 . S
C1904 H1891 0.930 . S
C1904 C1903 1.376 . S
C1904 C1905 1.388 . S
C1905 H1892 0.930 . S
C1905 C1904 1.388 . S
C1905 C1906 1.390 . S
C1906 C1905 1.390 . S
C1906 C1907 1.394 . S
C1906 C1912 1.465 . S
C1907 C1902 1.399 . S
C1907 C1906 1.394 . S
C1907 C1908 1.516 . S
C1908 C1907 1.516 . S
C1908 C1909 1.502 . S
C1908 C1910 1.561 . S
C1908 C1911 1.526 . S
C1909 H1893 0.959 . S
C1909 H1894 0.959 . S
C1909 H1895 0.961 . S
C1909 C1908 1.502 . S
C1910 H1896 0.960 . S
C1910 H1897 0.961 . S
C1910 H1898 0.959 . S
C1910 C1908 1.561 . S
C1911 C1908 1.526 . S
C1911 C1912 1.396 . S
C1911 C1916 1.390 . S
C1912 C1906 1.465 . S
C1912 C1911 1.396 . S
C1912 C1913 1.399 . S
C1913 H1899 0.929 . S
C1913 C1912 1.399 . S
C1913 C1914 1.385 . S
C1914 H1900 0.931 . S
C1914 C1913 1.385 . S
C1914 C1915 1.389 . S
C1915 C1914 1.389 . S
C1915 C1916 1.387 . S
C1916 H1901 0.930 . S
C1916 C1911 1.390 . S
C1916 C1915 1.387 . S
H1917 C1929 0.930 1_565 S
H1918 C1931 0.930 . S
H1919 C1932 0.930 . S
H1920 C1936 0.955 . S
H1921 C1936 0.959 . S
H1922 C1936 0.961 . S
H1923 C1937 0.960 1_565 S
H1924 C1937 0.961 . S
H1925 C1937 0.959 . S
H1926 C1940 0.929 . S
H1927 C1941 0.931 . S
H1928 C1943 0.930 . S
C1929 H1917 0.930 1_545 S
C1929 C1930 1.399 . S
C1929 C1934 1.399 . S
C1930 C1929 1.399 . S
C1930 C1931 1.376 . S
C1931 H1918 0.930 . S
C1931 C1930 1.376 . S
C1931 C1932 1.388 . S
C1932 H1919 0.930 . S
C1932 C1931 1.388 . S
C1932 C1933 1.390 . S
C1933 C1932 1.390 . S
C1933 C1934 1.394 . S
C1933 C1939 1.465 . S
C1934 C1929 1.399 . S
C1934 C1933 1.394 . S
C1934 C1935 1.516 . S
C1935 C1934 1.516 . S
C1935 C1936 1.502 1_545 S
C1935 C1937 1.561 . S
C1935 C1938 1.526 . S
C1936 H1920 0.955 . S
C1936 H1921 0.959 . S
C1936 H1922 0.961 . S
C1936 C1935 1.502 1_565 S
C1937 H1923 0.960 1_545 S
C1937 H1924 0.961 . S
C1937 H1925 0.959 . S
C1937 C1935 1.561 . S
C1938 C1935 1.526 . S
C1938 C1939 1.396 . S
C1938 C1943 1.390 . S
C1939 C1933 1.465 . S
C1939 C1938 1.396 . S
C1939 C1940 1.399 . S
C1940 H1926 0.929 . S
C1940 C1939 1.399 . S
C1940 C1941 1.385 . S
C1941 H1927 0.931 . S
C1941 C1940 1.385 . S
C1941 C1942 1.389 . S
C1942 C1941 1.389 . S
C1942 C1943 1.387 . S
C1943 H1928 0.930 . S
C1943 C1938 1.390 . S
C1943 C1942 1.387 . S
H1944 C1956 0.965 1_556 S
H1945 C1958 0.930 . S
H1946 C1959 0.930 . S
H1947 C1963 0.959 . S
H1948 C1963 0.959 . S
H1949 C1963 0.961 . S
H1950 C1964 0.960 . S
H1951 C1964 0.961 . S
H1952 C1964 0.959 . S
H1953 C1967 0.929 . S
H1954 C1968 0.931 . S
H1955 C1970 0.930 . S
C1956 H1944 0.965 1_554 S
C1956 C1957 1.399 1_554 S
C1956 C1961 1.399 . S
C1957 C1956 1.399 1_556 S
C1957 C1958 1.376 1_556 S
C1958 H1945 0.930 . S
C1958 C1957 1.376 1_554 S
C1958 C1959 1.388 . S
C1959 H1946 0.930 . S
C1959 C1958 1.388 . S
C1959 C1960 1.390 . S
C1960 C1959 1.390 . S
C1960 C1961 1.394 . S
C1960 C1966 1.465 . S
C1961 C1956 1.399 . S
C1961 C1960 1.394 . S
C1961 C1962 1.516 . S
C1962 C1961 1.516 . S
C1962 C1963 1.502 1_545 S
C1962 C1964 1.561 . S
C1962 C1965 1.526 . S
C1963 H1947 0.959 . S
C1963 H1948 0.959 . S
C1963 H1949 0.961 . S
C1963 C1962 1.502 1_565 S
C1964 H1950 0.960 . S
C1964 H1951 0.961 . S
C1964 H1952 0.959 . S
C1964 C1962 1.561 . S
C1965 C1962 1.526 . S
C1965 C1966 1.396 . S
C1965 C1970 1.390 . S
C1966 C1960 1.465 . S
C1966 C1965 1.396 . S
C1966 C1967 1.399 . S
C1967 H1953 0.929 . S
C1967 C1966 1.399 . S
C1967 C1968 1.385 . S
C1968 H1954 0.931 . S
C1968 C1967 1.385 . S
C1968 C1969 1.389 . S
C1969 C1968 1.389 . S
C1969 C1970 1.387 . S
C1970 H1955 0.930 . S
C1970 C1965 1.390 . S
C1970 C1969 1.387 . S
H1971 C1983 0.930 . S
H1972 C1985 0.930 . S
H1973 C1986 0.930 . S
H1974 C1990 0.959 . S
H1975 C1990 0.959 . S
H1976 C1990 0.961 . S
H1977 C1991 0.960 . S
H1978 C1991 0.961 . S
H1979 C1991 0.959 . S
H1980 C1994 0.929 . S
H1981 C1995 0.931 . S
H1982 C1997 0.930 1_556 S
C1983 H1971 0.930 . S
C1983 C1984 1.399 . S
C1983 C1988 1.399 . S
C1984 C1983 1.399 . S
C1984 C1985 1.376 . S
C1985 H1972 0.930 . S
C1985 C1984 1.376 . S
C1985 C1986 1.388 . S
C1986 H1973 0.930 . S
C1986 C1985 1.388 . S
C1986 C1987 1.390 . S
C1987 C1986 1.390 . S
C1987 C1988 1.394 . S
C1987 C1993 1.465 . S
C1988 C1983 1.399 . S
C1988 C1987 1.394 . S
C1988 C1989 1.516 . S
C1989 C1988 1.516 . S
C1989 C1990 1.502 . S
C1989 C1991 1.561 . S
C1989 C1992 1.526 . S
C1990 H1974 0.959 . S
C1990 H1975 0.959 . S
C1990 H1976 0.961 . S
C1990 C1989 1.502 . S
C1991 H1977 0.960 . S
C1991 H1978 0.961 . S
C1991 H1979 0.959 . S
C1991 C1989 1.561 . S
C1992 C1989 1.526 . S
C1992 C1993 1.396 . S
C1992 C1997 1.390 . S
C1993 C1987 1.465 . S
C1993 C1992 1.396 . S
C1993 C1994 1.399 . S
C1994 H1980 0.929 . S
C1994 C1993 1.399 . S
C1994 C1995 1.385 . S
C1995 H1981 0.931 . S
C1995 C1994 1.385 . S
C1995 C1996 1.389 1_554 S
C1996 C1995 1.389 1_556 S
C1996 C1997 1.387 1_556 S
C1997 H1982 0.930 1_554 S
C1997 C1992 1.390 . S
C1997 C1996 1.387 1_554 S
H1998 C2010 0.930 . S
H1999 C2012 0.930 . S
H2000 C2013 0.930 . S
H2001 C2017 0.959 . S
H2002 C2017 0.959 . S
H2003 C2017 0.961 . S
H2004 C2018 0.960 . S
H2005 C2018 0.961 . S
H2006 C2018 0.959 . S
H2007 C2021 0.929 . S
H2008 C2022 0.931 . S
H2009 C2024 0.930 . S
C2010 H1998 0.930 . S
C2010 C2011 1.399 . S
C2010 C2015 1.399 . S
C2011 C2010 1.399 . S
C2011 C2012 1.376 . S
C2012 H1999 0.930 . S
C2012 C2011 1.376 . S
C2012 C2013 1.388 . S
C2013 H2000 0.930 . S
C2013 C2012 1.388 . S
C2013 C2014 1.390 . S
C2014 C2013 1.390 . S
C2014 C2015 1.394 . S
C2014 C2020 1.465 . S
C2015 C2010 1.399 . S
C2015 C2014 1.394 . S
C2015 C2016 1.516 . S
C2016 C2015 1.516 . S
C2016 C2017 1.502 . S
C2016 C2018 1.561 . S
C2016 C2019 1.526 . S
C2017 H2001 0.959 . S
C2017 H2002 0.959 . S
C2017 H2003 0.961 . S
C2017 C2016 1.502 . S
C2018 H2004 0.960 . S
C2018 H2005 0.961 . S
C2018 H2006 0.959 . S
C2018 C2016 1.561 . S
C2019 C2016 1.526 . S
C2019 C2020 1.396 . S
C2019 C2024 1.390 . S
C2020 C2014 1.465 . S
C2020 C2019 1.396 . S
C2020 C2021 1.399 . S
C2021 H2007 0.929 . S
C2021 C2020 1.399 . S
C2021 C2022 1.385 1_554 S
C2022 H2008 0.931 . S
C2022 C2021 1.385 1_556 S
C2022 C2023 1.389 . S
C2023 C2022 1.389 . S
C2023 C2024 1.387 1_556 S
C2024 H2009 0.930 . S
C2024 C2019 1.390 . S
C2024 C2023 1.387 1_554 S
H2025 C2037 0.930 1_545 S
H2026 C2039 0.930 1_554 S
H2027 C2040 0.930 . S
H2028 C2044 0.959 . S
H2029 C2044 0.959 . S
H2030 C2044 0.961 . S
H2031 C2045 0.960 . S
H2032 C2045 0.961 . S
H2033 C2045 0.959 . S
H2034 C2048 0.929 . S
H2035 C2049 0.931 . S
H2036 C2051 0.943 . S
C2037 H2025 0.930 1_565 S
C2037 C2038 1.399 1_556 S
C2037 C2042 1.399 . S
C2038 C2037 1.399 1_554 S
C2038 C2039 1.376 1_554 S
C2039 H2026 0.930 1_556 S
C2039 C2038 1.376 1_556 S
C2039 C2040 1.388 . S
C2040 H2027 0.930 . S
C2040 C2039 1.388 . S
C2040 C2041 1.390 . S
C2041 C2040 1.390 . S
C2041 C2042 1.394 . S
C2041 C2047 1.465 . S
C2042 C2037 1.399 . S
C2042 C2041 1.394 . S
C2042 C2043 1.516 1_565 S
C2043 C2042 1.516 1_545 S
C2043 C2044 1.502 . S
C2043 C2045 1.561 . S
C2043 C2046 1.526 1_545 S
C2044 H2028 0.959 . S
C2044 H2029 0.959 . S
C2044 H2030 0.961 . S
C2044 C2043 1.502 . S
C2045 H2031 0.960 . S
C2045 H2032 0.961 . S
C2045 H2033 0.959 . S
C2045 C2043 1.561 . S
C2046 C2043 1.526 1_565 S
C2046 C2047 1.396 . S
C2046 C2051 1.390 . S
C2047 C2041 1.465 . S
C2047 C2046 1.396 . S
C2047 C2048 1.399 . S
C2048 H2034 0.929 . S
C2048 C2047 1.399 . S
C2048 C2049 1.385 . S
C2049 H2035 0.931 . S
C2049 C2048 1.385 . S
C2049 C2050 1.389 . S
C2050 C2049 1.389 . S
C2050 C2051 1.387 . S
C2051 H2036 0.943 . S
C2051 C2046 1.390 . S
C2051 C2050 1.387 . S
H2052 C2064 0.930 . S
H2053 C2066 0.930 . S
H2054 C2067 0.930 . S
H2055 C2071 0.959 . S
H2056 C2071 0.959 . S
H2057 C2071 0.961 . S
H2058 C2072 0.960 . S
H2059 C2072 0.961 . S
H2060 C2072 0.959 . S
H2061 C2075 0.929 . S
H2062 C2076 0.931 . S
H2063 C2078 0.930 1_554 S
C2064 H2052 0.930 . S
C2064 C2065 1.399 . S
C2064 C2069 1.399 . S
C2065 C2064 1.399 . S
C2065 C2066 1.376 . S
C2066 H2053 0.930 . S
C2066 C2065 1.376 . S
C2066 C2067 1.388 . S
C2067 H2054 0.930 . S
C2067 C2066 1.388 . S
C2067 C2068 1.390 . S
C2068 C2067 1.390 . S
C2068 C2069 1.394 . S
C2068 C2074 1.465 . S
C2069 C2064 1.399 . S
C2069 C2068 1.394 . S
C2069 C2070 1.516 . S
C2070 C2069 1.516 . S
C2070 C2071 1.502 1_455 S
C2070 C2072 1.561 . S
C2070 C2073 1.526 . S
C2071 H2055 0.959 . S
C2071 H2056 0.959 . S
C2071 H2057 0.961 . S
C2071 C2070 1.502 1_655 S
C2072 H2058 0.960 . S
C2072 H2059 0.961 . S
C2072 H2060 0.959 . S
C2072 C2070 1.561 . S
C2073 C2070 1.526 . S
C2073 C2074 1.396 . S
C2073 C2078 1.390 . S
C2074 C2068 1.465 . S
C2074 C2073 1.396 . S
C2074 C2075 1.399 . S
C2075 H2061 0.929 . S
C2075 C2074 1.399 . S
C2075 C2076 1.385 . S
C2076 H2062 0.931 . S
C2076 C2075 1.385 . S
C2076 C2077 1.389 1_556 S
C2077 C2076 1.389 1_554 S
C2077 C2078 1.387 1_554 S
C2078 H2063 0.930 1_556 S
C2078 C2073 1.390 . S
C2078 C2077 1.387 1_556 S
H2079 C2091 0.930 1_554 S
H2080 C2093 0.930 . S
H2081 C2094 0.930 . S
H2082 C2098 0.959 . S
H2083 C2098 0.959 . S
H2084 C2098 0.961 . S
H2085 C2099 0.960 . S
H2086 C2099 0.961 . S
H2087 C2099 0.959 . S
H2088 C2102 0.929 . S
H2089 C2103 0.931 . S
H2090 C2105 0.930 . S
C2091 H2079 0.930 1_556 S
C2091 C2092 1.399 1_556 S
C2091 C2096 1.399 . S
C2092 C2091 1.399 1_554 S
C2092 C2093 1.376 1_554 S
C2093 H2080 0.930 . S
C2093 C2092 1.376 1_556 S
C2093 C2094 1.388 . S
C2094 H2081 0.930 . S
C2094 C2093 1.388 . S
C2094 C2095 1.390 . S
C2095 C2094 1.390 . S
C2095 C2096 1.394 . S
C2095 C2101 1.465 . S
C2096 C2091 1.399 . S
C2096 C2095 1.394 . S
C2096 C2097 1.516 . S
C2097 C2096 1.516 . S
C2097 C2098 1.502 . S
C2097 C2099 1.561 . S
C2097 C2100 1.526 . S
C2098 H2082 0.959 . S
C2098 H2083 0.959 . S
C2098 H2084 0.961 . S
C2098 C2097 1.502 . S
C2099 H2085 0.960 . S
C2099 H2086 0.961 . S
C2099 H2087 0.959 . S
C2099 C2097 1.561 . S
C2100 C2097 1.526 . S
C2100 C2101 1.396 . S
C2100 C2105 1.390 . S
C2101 C2095 1.465 . S
C2101 C2100 1.396 . S
C2101 C2102 1.399 . S
C2102 H2088 0.929 . S
C2102 C2101 1.399 . S
C2102 C2103 1.385 . S
C2103 H2089 0.931 . S
C2103 C2102 1.385 . S
C2103 C2104 1.389 . S
C2104 C2103 1.389 . S
C2104 C2105 1.387 . S
C2105 H2090 0.930 . S
C2105 C2100 1.390 . S
C2105 C2104 1.387 . S
H2106 C2118 0.930 . S
H2107 C2120 0.930 1_655 S
H2108 C2121 0.930 . S
H2109 C2125 0.959 . S
H2110 C2125 0.959 . S
H2111 C2125 0.961 . S
H2112 C2126 0.960 . S
H2113 C2126 0.961 . S
H2114 C2126 0.959 . S
H2115 C2129 0.929 . S
H2116 C2130 0.931 . S
H2117 C2132 0.930 . S
C2118 H2106 0.930 . S
C2118 C2119 1.399 . S
C2118 C2123 1.399 . S
C2119 C2118 1.399 . S
C2119 C2120 1.376 . S
C2120 H2107 0.930 1_455 S
C2120 C2119 1.376 . S
C2120 C2121 1.388 . S
C2121 H2108 0.930 . S
C2121 C2120 1.388 . S
C2121 C2122 1.390 . S
C2122 C2121 1.390 . S
C2122 C2123 1.394 . S
C2122 C2128 1.465 . S
C2123 C2118 1.399 . S
C2123 C2122 1.394 . S
C2123 C2124 1.516 . S
C2124 C2123 1.516 . S
C2124 C2125 1.502 . S
C2124 C2126 1.561 . S
C2124 C2127 1.526 . S
C2125 H2109 0.959 . S
C2125 H2110 0.959 . S
C2125 H2111 0.961 . S
C2125 C2124 1.502 . S
C2126 H2112 0.960 . S
C2126 H2113 0.961 . S
C2126 H2114 0.959 . S
C2126 C2124 1.561 . S
C2127 C2124 1.526 . S
C2127 C2128 1.396 . S
C2127 C2132 1.390 . S
C2128 C2122 1.465 . S
C2128 C2127 1.396 . S
C2128 C2129 1.399 . S
C2129 H2115 0.929 . S
C2129 C2128 1.399 . S
C2129 C2130 1.385 . S
C2130 H2116 0.931 . S
C2130 C2129 1.385 . S
C2130 C2131 1.389 . S
C2131 C2130 1.389 . S
C2131 C2132 1.387 . S
C2132 H2117 0.930 . S
C2132 C2127 1.390 . S
C2132 C2131 1.387 . S
H2133 C2145 0.930 . S
H2134 C2147 0.930 . S
H2135 C2148 0.930 . S
H2136 C2152 0.959 . S
H2137 C2152 0.959 . S
H2138 C2152 0.961 . S
H2139 C2153 0.960 . S
H2140 C2153 0.961 . S
H2141 C2153 0.959 . S
H2142 C2156 0.929 . S
H2143 C2157 0.931 . S
H2144 C2159 0.930 . S
C2145 H2133 0.930 . S
C2145 C2146 1.399 . S
C2145 C2150 1.399 . S
C2146 C2145 1.399 . S
C2146 C2147 1.376 . S
C2147 H2134 0.930 . S
C2147 C2146 1.376 . S
C2147 C2148 1.388 . S
C2148 H2135 0.930 . S
C2148 C2147 1.388 . S
C2148 C2149 1.390 . S
C2149 C2148 1.390 . S
C2149 C2150 1.394 . S
C2149 C2155 1.465 . S
C2150 C2145 1.399 . S
C2150 C2149 1.394 . S
C2150 C2151 1.516 . S
C2151 C2150 1.516 . S
C2151 C2152 1.502 . S
C2151 C2153 1.561 . S
C2151 C2154 1.526 . S
C2152 H2136 0.959 . S
C2152 H2137 0.959 . S
C2152 H2138 0.961 . S
C2152 C2151 1.502 . S
C2153 H2139 0.960 . S
C2153 H2140 0.961 . S
C2153 H2141 0.959 . S
C2153 C2151 1.561 . S
C2154 C2151 1.526 . S
C2154 C2155 1.396 . S
C2154 C2159 1.390 . S
C2155 C2149 1.465 . S
C2155 C2154 1.396 . S
C2155 C2156 1.399 . S
C2156 H2142 0.929 . S
C2156 C2155 1.399 . S
C2156 C2157 1.385 . S
C2157 H2143 0.931 . S
C2157 C2156 1.385 . S
C2157 C2158 1.389 . S
C2158 C2157 1.389 . S
C2158 C2159 1.387 . S
C2159 H2144 0.930 . S
C2159 C2154 1.390 . S
C2159 C2158 1.387 . S
H2160 C2172 0.930 . S
H2161 C2174 0.930 . S
H2162 C2175 0.930 . S
H2163 C2179 0.959 . S
H2164 C2179 0.959 1_545 S
H2165 C2179 0.961 . S
H2166 C2180 0.960 . S
H2167 C2180 0.961 . S
H2168 C2180 0.959 . S
H2169 C2183 0.929 . S
H2170 C2184 0.931 . S
H2171 C2186 0.930 1_545 S
C2172 H2160 0.930 . S
C2172 C2173 1.399 . S
C2172 C2177 1.399 . S
C2173 C2172 1.399 . S
C2173 C2174 1.376 . S
C2174 H2161 0.930 . S
C2174 C2173 1.376 . S
C2174 C2175 1.388 . S
C2175 H2162 0.930 . S
C2175 C2174 1.388 . S
C2175 C2176 1.390 . S
C2176 C2175 1.390 . S
C2176 C2177 1.394 . S
C2176 C2182 1.465 . S
C2177 C2172 1.399 . S
C2177 C2176 1.394 . S
C2177 C2178 1.516 . S
C2178 C2177 1.516 . S
C2178 C2179 1.502 . S
C2178 C2180 1.561 1_565 S
C2178 C2181 1.526 . S
C2179 H2163 0.959 . S
C2179 H2164 0.959 1_565 S
C2179 H2165 0.961 . S
C2179 C2178 1.502 . S
C2180 H2166 0.960 . S
C2180 H2167 0.961 . S
C2180 H2168 0.959 . S
C2180 C2178 1.561 1_545 S
C2181 C2178 1.526 . S
C2181 C2182 1.396 . S
C2181 C2186 1.390 . S
C2182 C2176 1.465 . S
C2182 C2181 1.396 . S
C2182 C2183 1.399 . S
C2183 H2169 0.929 . S
C2183 C2182 1.399 . S
C2183 C2184 1.385 . S
C2184 H2170 0.931 . S
C2184 C2183 1.385 . S
C2184 C2185 1.389 . S
C2185 C2184 1.389 . S
C2185 C2186 1.387 . S
C2186 H2171 0.930 1_565 S
C2186 C2181 1.390 . S
C2186 C2185 1.387 . S
H2187 C2199 0.930 . S
H2188 C2201 0.930 . S
H2189 C2202 0.930 . S
H2190 C2206 0.959 . S
H2191 C2206 0.959 . S
H2192 C2206 0.961 . S
H2193 C2207 0.960 . S
H2194 C2207 0.961 . S
H2195 C2207 0.959 . S
H2196 C2210 0.929 . S
H2197 C2211 0.931 . S
H2198 C2213 0.930 1_556 S
C2199 H2187 0.930 . S
C2199 C2200 1.399 . S
C2199 C2204 1.399 . S
C2200 C2199 1.399 . S
C2200 C2201 1.376 1_556 S
C2201 H2188 0.930 . S
C2201 C2200 1.376 1_554 S
C2201 C2202 1.388 . S
C2202 H2189 0.930 . S
C2202 C2201 1.388 . S
C2202 C2203 1.390 . S
C2203 C2202 1.390 . S
C2203 C2204 1.394 1_554 S
C2203 C2209 1.465 . S
C2204 C2199 1.399 . S
C2204 C2203 1.394 1_556 S
C2204 C2205 1.516 . S
C2205 C2204 1.516 . S
C2205 C2206 1.502 . S
C2205 C2207 1.561 . S
C2205 C2208 1.526 . S
C2206 H2190 0.959 . S
C2206 H2191 0.959 . S
C2206 H2192 0.961 . S
C2206 C2205 1.502 . S
C2207 H2193 0.960 . S
C2207 H2194 0.961 . S
C2207 H2195 0.959 . S
C2207 C2205 1.561 . S
C2208 C2205 1.526 . S
C2208 C2209 1.396 1_556 S
C2208 C2213 1.390 1_556 S
C2209 C2203 1.465 . S
C2209 C2208 1.396 1_554 S
C2209 C2210 1.399 . S
C2210 H2196 0.929 . S
C2210 C2209 1.399 . S
C2210 C2211 1.385 . S
C2211 H2197 0.931 . S
C2211 C2210 1.385 . S
C2211 C2212 1.389 . S
C2212 C2211 1.389 . S
C2212 C2213 1.387 . S
C2213 H2198 0.930 1_554 S
C2213 C2208 1.390 1_554 S
C2213 C2212 1.387 . S
H2214 C2226 0.930 1_554 S
H2215 C2228 0.930 . S
H2216 C2229 0.930 . S
H2217 C2233 0.959 . S
H2218 C2233 0.959 . S
H2219 C2233 0.961 . S
H2220 C2234 0.960 . S
H2221 C2234 0.961 . S
H2222 C2234 0.959 . S
H2223 C2237 0.929 . S
H2224 C2238 0.901 1_565 S
H2225 C2240 0.930 . S
C2226 H2214 0.930 1_556 S
C2226 C2227 1.399 . S
C2226 C2231 1.399 1_556 S
C2227 C2226 1.399 . S
C2227 C2228 1.376 . S
C2228 H2215 0.930 . S
C2228 C2227 1.376 . S
C2228 C2229 1.388 . S
C2229 H2216 0.930 . S
C2229 C2228 1.388 . S
C2229 C2230 1.390 . S
C2230 C2229 1.390 . S
C2230 C2231 1.394 1_556 S
C2230 C2236 1.465 . S
C2231 C2226 1.399 1_554 S
C2231 C2230 1.394 1_554 S
C2231 C2232 1.516 . S
C2232 C2231 1.516 . S
C2232 C2233 1.502 . S
C2232 C2234 1.561 . S
C2232 C2235 1.526 . S
C2233 H2217 0.959 . S
C2233 H2218 0.959 . S
C2233 H2219 0.961 . S
C2233 C2232 1.502 . S
C2234 H2220 0.960 . S
C2234 H2221 0.961 . S
C2234 H2222 0.959 . S
C2234 C2232 1.561 . S
C2235 C2232 1.526 . S
C2235 C2236 1.396 1_554 S
C2235 C2240 1.390 . S
C2236 C2230 1.465 . S
C2236 C2235 1.396 1_556 S
C2236 C2237 1.399 . S
C2237 H2223 0.929 . S
C2237 C2236 1.399 . S
C2237 C2238 1.385 . S
C2238 H2224 0.901 1_545 S
C2238 C2237 1.385 . S
C2238 C2239 1.389 1_556 S
C2239 C2238 1.389 1_554 S
C2239 C2240 1.387 . S
C2240 H2225 0.930 . S
C2240 C2235 1.390 . S
C2240 C2239 1.387 . S
H2241 C2253 0.930 . S
H2242 C2255 0.925 1_554 S
H2243 C2256 0.930 . S
H2244 C2260 0.959 . S
H2245 C2260 0.959 . S
H2246 C2260 0.961 . S
H2247 C2261 0.960 . S
H2248 C2261 0.961 . S
H2249 C2261 0.952 1_554 S
H2250 C2264 0.929 . S
H2251 C2265 0.931 . S
H2252 C2267 0.930 1_556 S
C2253 H2241 0.930 . S
C2253 C2254 1.399 . S
C2253 C2258 1.399 . S
C2254 C2253 1.399 . S
C2254 C2255 1.391 . S
C2255 H2242 0.925 1_556 S
C2255 C2254 1.391 . S
C2255 C2256 1.379 1_556 S
C2256 H2243 0.930 . S
C2256 C2255 1.379 1_554 S
C2256 C2257 1.390 . S
C2257 C2256 1.390 . S
C2257 C2258 1.394 1_554 S
C2257 C2263 1.465 . S
C2258 C2253 1.399 . S
C2258 C2257 1.394 1_556 S
C2258 C2259 1.516 . S
C2259 C2258 1.516 . S
C2259 C2260 1.502 . S
C2259 C2261 1.561 . S
C2259 C2262 1.509 1_556 S
C2260 H2244 0.959 . S
C2260 H2245 0.959 . S
C2260 H2246 0.961 . S
C2260 C2259 1.502 . S
C2261 H2247 0.960 . S
C2261 H2248 0.961 . S
C2261 H2249 0.952 1_556 S
C2261 C2259 1.561 . S
C2262 C2259 1.509 1_554 S
C2262 C2263 1.410 . S
C2262 C2267 1.395 . S
C2263 C2257 1.465 . S
C2263 C2262 1.410 . S
C2263 C2264 1.399 . S
C2264 H2250 0.929 . S
C2264 C2263 1.399 . S
C2264 C2265 1.385 . S
C2265 H2251 0.931 . S
C2265 C2264 1.385 . S
C2265 C2266 1.389 . S
C2266 C2265 1.389 . S
C2266 C2267 1.387 . S
C2267 H2252 0.930 1_554 S
C2267 C2262 1.395 . S
C2267 C2266 1.387 . S
H2268 C2280 0.930 1_556 S
H2269 C2282 0.930 . S
H2270 C2283 0.930 . S
H2271 C2287 0.959 . S
H2272 C2287 0.959 . S
H2273 C2287 0.961 . S
H2274 C2288 0.960 . S
H2275 C2288 0.961 . S
H2276 C2288 0.959 . S
H2277 C2291 0.929 . S
H2278 C2292 0.922 1_554 S
H2279 C2294 0.930 . S
C2280 H2268 0.930 1_554 S
C2280 C2281 1.399 . S
C2280 C2285 1.399 1_554 S
C2281 C2280 1.399 . S
C2281 C2282 1.376 . S
C2282 H2269 0.930 . S
C2282 C2281 1.376 . S
C2282 C2283 1.388 . S
C2283 H2270 0.930 . S
C2283 C2282 1.388 . S
C2283 C2284 1.390 . S
C2284 C2283 1.390 . S
C2284 C2285 1.394 1_554 S
C2284 C2290 1.465 . S
C2285 C2280 1.399 1_556 S
C2285 C2284 1.394 1_556 S
C2285 C2286 1.516 . S
C2286 C2285 1.516 . S
C2286 C2287 1.502 . S
C2286 C2288 1.561 . S
C2286 C2289 1.526 . S
C2287 H2271 0.959 . S
C2287 H2272 0.959 . S
C2287 H2273 0.961 . S
C2287 C2286 1.502 . S
C2288 H2274 0.960 . S
C2288 H2275 0.961 . S
C2288 H2276 0.959 . S
C2288 C2286 1.561 . S
C2289 C2286 1.526 . S
C2289 C2290 1.396 1_556 S
C2289 C2294 1.390 . S
C2290 C2284 1.465 . S
C2290 C2289 1.396 1_554 S
C2290 C2291 1.399 . S
C2291 H2277 0.929 . S
C2291 C2290 1.399 . S
C2291 C2292 1.372 1_554 S
C2292 H2278 0.922 1_556 S
C2292 C2291 1.372 1_556 S
C2292 C2293 1.411 . S
C2293 C2292 1.411 . S
C2293 C2294 1.387 . S
C2294 H2279 0.930 . S
C2294 C2289 1.390 . S
C2294 C2293 1.387 . S
H2295 C2307 0.930 1_554 S
H2296 C2309 0.930 . S
H2297 C2310 0.930 . S
H2298 C2314 0.959 . S
H2299 C2314 0.959 . S
H2300 C2314 0.961 . S
H2301 C2315 0.960 . S
H2302 C2315 0.961 . S
H2303 C2315 0.959 . S
H2304 C2318 0.929 . S
H2305 C2319 0.931 . S
H2306 C2321 0.930 . S
C2307 H2295 0.930 1_556 S
C2307 C2308 1.399 . S
C2307 C2312 1.399 1_556 S
C2308 C2307 1.399 . S
C2308 C2309 1.376 . S
C2309 H2296 0.930 . S
C2309 C2308 1.376 . S
C2309 C2310 1.388 . S
C2310 H2297 0.930 . S
C2310 C2309 1.388 . S
C2310 C2311 1.390 . S
C2311 C2310 1.390 . S
C2311 C2312 1.394 1_556 S
C2311 C2317 1.465 . S
C2312 C2307 1.399 1_554 S
C2312 C2311 1.394 1_554 S
C2312 C2313 1.516 . S
C2313 C2312 1.516 . S
C2313 C2314 1.502 . S
C2313 C2315 1.561 . S
C2313 C2316 1.526 . S
C2314 H2298 0.959 . S
C2314 H2299 0.959 . S
C2314 H2300 0.961 . S
C2314 C2313 1.502 . S
C2315 H2301 0.960 . S
C2315 H2302 0.961 . S
C2315 H2303 0.959 . S
C2315 C2313 1.561 . S
C2316 C2313 1.526 . S
C2316 C2317 1.396 1_554 S
C2316 C2321 1.390 . S
C2317 C2311 1.465 . S
C2317 C2316 1.396 1_556 S
C2317 C2318 1.399 . S
C2318 H2304 0.929 . S
C2318 C2317 1.399 . S
C2318 C2319 1.385 . S
C2319 H2305 0.931 . S
C2319 C2318 1.385 . S
C2319 C2320 1.389 1_556 S
C2320 C2319 1.389 1_554 S
C2320 C2321 1.387 . S
C2321 H2306 0.930 . S
C2321 C2316 1.390 . S
C2321 C2320 1.387 . S
H2322 C2334 0.930 . S
H2323 C2336 0.930 1_655 S
H2324 C2337 0.930 . S
H2325 C2341 0.959 . S
H2326 C2341 0.959 . S
H2327 C2341 0.961 . S
H2328 C2342 0.960 . S
H2329 C2342 0.961 . S
H2330 C2342 0.959 . S
H2331 C2345 0.929 . S
H2332 C2346 0.931 . S
H2333 C2348 0.930 1_556 S
C2334 H2322 0.930 . S
C2334 C2335 1.399 . S
C2334 C2339 1.399 . S
C2335 C2334 1.399 . S
C2335 C2336 1.376 1_556 S
C2336 H2323 0.930 1_455 S
C2336 C2335 1.376 1_554 S
C2336 C2337 1.388 . S
C2337 H2324 0.930 . S
C2337 C2336 1.388 . S
C2337 C2338 1.390 . S
C2338 C2337 1.390 . S
C2338 C2339 1.394 1_554 S
C2338 C2344 1.465 . S
C2339 C2334 1.399 . S
C2339 C2338 1.394 1_556 S
C2339 C2340 1.516 . S
C2340 C2339 1.516 . S
C2340 C2341 1.502 . S
C2340 C2342 1.561 . S
C2340 C2343 1.540 . S
C2341 H2325 0.959 . S
C2341 H2326 0.959 . S
C2341 H2327 0.961 . S
C2341 C2340 1.502 . S
C2342 H2328 0.960 . S
C2342 H2329 0.961 . S
C2342 H2330 0.959 . S
C2342 C2340 1.561 . S
C2343 C2340 1.540 . S
C2343 C2344 1.384 1_556 S
C2343 C2348 1.386 1_556 S
C2344 C2338 1.465 . S
C2344 C2343 1.384 1_554 S
C2344 C2345 1.399 . S
C2345 H2331 0.929 . S
C2345 C2344 1.399 . S
C2345 C2346 1.385 . S
C2346 H2332 0.931 . S
C2346 C2345 1.385 . S
C2346 C2347 1.389 . S
C2347 C2346 1.389 . S
C2347 C2348 1.387 . S
C2348 H2333 0.930 1_554 S
C2348 C2343 1.386 1_554 S
C2348 C2347 1.387 . S
H2349 C2361 0.930 . S
H2350 C2363 0.930 . S
H2351 C2364 0.930 . S
H2352 C2368 0.959 . S
H2353 C2368 0.966 1_455 S
H2354 C2368 0.961 1_455 S
H2355 C2369 0.960 . S
H2356 C2369 0.961 . S
H2357 C2369 0.959 . S
H2358 C2372 0.929 . S
H2359 C2373 0.931 . S
H2360 C2375 0.930 . S
C2361 H2349 0.930 . S
C2361 C2362 1.399 . S
C2361 C2366 1.399 . S
C2362 C2361 1.399 . S
C2362 C2363 1.376 . S
C2363 H2350 0.930 . S
C2363 C2362 1.376 . S
C2363 C2364 1.388 . S
C2364 H2351 0.930 . S
C2364 C2363 1.388 . S
C2364 C2365 1.390 . S
C2365 C2364 1.390 . S
C2365 C2366 1.394 . S
C2365 C2371 1.465 . S
C2366 C2361 1.399 . S
C2366 C2365 1.394 . S
C2366 C2367 1.516 . S
C2367 C2366 1.516 . S
C2367 C2368 1.502 . S
C2367 C2369 1.561 . S
C2367 C2370 1.526 . S
C2368 H2352 0.959 . S
C2368 H2353 0.966 1_655 S
C2368 H2354 0.961 1_655 S
C2368 C2367 1.502 . S
C2369 H2355 0.960 . S
C2369 H2356 0.961 . S
C2369 H2357 0.959 . S
C2369 C2367 1.561 . S
C2370 C2367 1.526 . S
C2370 C2371 1.396 . S
C2370 C2375 1.390 . S
C2371 C2365 1.465 . S
C2371 C2370 1.396 . S
C2371 C2372 1.399 . S
C2372 H2358 0.929 . S
C2372 C2371 1.399 . S
C2372 C2373 1.385 . S
C2373 H2359 0.931 . S
C2373 C2372 1.385 . S
C2373 C2374 1.389 . S
C2374 C2373 1.389 . S
C2374 C2375 1.387 . S
C2375 H2360 0.930 . S
C2375 C2370 1.390 . S
C2375 C2374 1.387 . S
H2376 C2388 0.930 . S
H2377 C2390 0.930 . S
H2378 C2391 0.930 . S
H2379 C2395 0.959 . S
H2380 C2395 0.959 . S
H2381 C2395 0.961 . S
H2382 C2396 0.960 . S
H2383 C2396 0.961 . S
H2384 C2396 0.959 . S
H2385 C2399 0.929 . S
H2386 C2400 0.931 . S
H2387 C2402 0.930 . S
C2388 H2376 0.930 . S
C2388 C2389 1.399 . S
C2388 C2393 1.399 . S
C2389 C2388 1.399 . S
C2389 C2390 1.376 . S
C2390 H2377 0.930 . S
C2390 C2389 1.376 . S
C2390 C2391 1.388 . S
C2391 H2378 0.930 . S
C2391 C2390 1.388 . S
C2391 C2392 1.390 . S
C2392 C2391 1.390 . S
C2392 C2393 1.394 . S
C2392 C2398 1.465 . S
C2393 C2388 1.399 . S
C2393 C2392 1.394 . S
C2393 C2394 1.516 . S
C2394 C2393 1.516 . S
C2394 C2395 1.502 . S
C2394 C2396 1.561 . S
C2394 C2397 1.526 . S
C2395 H2379 0.959 . S
C2395 H2380 0.959 . S
C2395 H2381 0.961 . S
C2395 C2394 1.502 . S
C2396 H2382 0.960 . S
C2396 H2383 0.961 . S
C2396 H2384 0.959 . S
C2396 C2394 1.561 . S
C2397 C2394 1.526 . S
C2397 C2398 1.396 . S
C2397 C2402 1.390 . S
C2398 C2392 1.465 . S
C2398 C2397 1.396 . S
C2398 C2399 1.399 . S
C2399 H2385 0.929 . S
C2399 C2398 1.399 . S
C2399 C2400 1.385 . S
C2400 H2386 0.931 . S
C2400 C2399 1.385 . S
C2400 C2401 1.389 . S
C2401 C2400 1.389 . S
C2401 C2402 1.387 . S
C2402 H2387 0.930 . S
C2402 C2397 1.390 . S
C2402 C2401 1.387 . S
H2403 C2415 0.930 . S
H2404 C2417 0.930 . S
H2405 C2418 0.930 . S
H2406 C2422 0.959 . S
H2407 C2422 0.959 . S
H2408 C2422 0.961 . S
H2409 C2423 0.960 . S
H2410 C2423 0.961 . S
H2411 C2423 0.959 . S
H2412 C2426 0.929 . S
H2413 C2427 0.931 . S
H2414 C2429 0.930 . S
C2415 H2403 0.930 . S
C2415 C2416 1.399 . S
C2415 C2420 1.399 . S
C2416 C2415 1.399 . S
C2416 C2417 1.376 . S
C2417 H2404 0.930 . S
C2417 C2416 1.376 . S
C2417 C2418 1.388 . S
C2418 H2405 0.930 . S
C2418 C2417 1.388 . S
C2418 C2419 1.390 . S
C2419 C2418 1.390 . S
C2419 C2420 1.394 . S
C2419 C2425 1.465 . S
C2420 C2415 1.399 . S
C2420 C2419 1.394 . S
C2420 C2421 1.516 . S
C2421 C2420 1.516 . S
C2421 C2422 1.502 . S
C2421 C2423 1.561 . S
C2421 C2424 1.526 . S
C2422 H2406 0.959 . S
C2422 H2407 0.959 . S
C2422 H2408 0.961 . S
C2422 C2421 1.502 . S
C2423 H2409 0.960 . S
C2423 H2410 0.961 . S
C2423 H2411 0.959 . S
C2423 C2421 1.561 . S
C2424 C2421 1.526 . S
C2424 C2425 1.396 . S
C2424 C2429 1.390 . S
C2425 C2419 1.465 . S
C2425 C2424 1.396 . S
C2425 C2426 1.399 . S
C2426 H2412 0.929 . S
C2426 C2425 1.399 . S
C2426 C2427 1.385 . S
C2427 H2413 0.931 . S
C2427 C2426 1.385 . S
C2427 C2428 1.389 . S
C2428 C2427 1.389 . S
C2428 C2429 1.387 . S
C2429 H2414 0.930 . S
C2429 C2424 1.390 . S
C2429 C2428 1.387 . S
H2430 C2442 0.930 . S
H2431 C2444 0.930 . S
H2432 C2445 0.930 . S
H2433 C2449 0.959 . S
H2434 C2449 0.959 . S
H2435 C2449 0.961 . S
H2436 C2450 0.960 . S
H2437 C2450 0.961 . S
H2438 C2450 0.959 . S
H2439 C2453 0.929 . S
H2440 C2454 0.931 . S
H2441 C2456 0.930 . S
C2442 H2430 0.930 . S
C2442 C2443 1.399 . S
C2442 C2447 1.399 . S
C2443 C2442 1.399 . S
C2443 C2444 1.376 . S
C2444 H2431 0.930 . S
C2444 C2443 1.376 . S
C2444 C2445 1.388 . S
C2445 H2432 0.930 . S
C2445 C2444 1.388 . S
C2445 C2446 1.390 . S
C2446 C2445 1.390 . S
C2446 C2447 1.394 . S
C2446 C2452 1.465 . S
C2447 C2442 1.399 . S
C2447 C2446 1.394 . S
C2447 C2448 1.516 . S
C2448 C2447 1.516 . S
C2448 C2449 1.502 . S
C2448 C2450 1.561 . S
C2448 C2451 1.526 . S
C2449 H2433 0.959 . S
C2449 H2434 0.959 . S
C2449 H2435 0.961 . S
C2449 C2448 1.502 . S
C2450 H2436 0.960 . S
C2450 H2437 0.961 . S
C2450 H2438 0.959 . S
C2450 C2448 1.561 . S
C2451 C2448 1.526 . S
C2451 C2452 1.396 . S
C2451 C2456 1.390 . S
C2452 C2446 1.465 . S
C2452 C2451 1.396 . S
C2452 C2453 1.399 . S
C2453 H2439 0.929 . S
C2453 C2452 1.399 . S
C2453 C2454 1.385 . S
C2454 H2440 0.931 . S
C2454 C2453 1.385 . S
C2454 C2455 1.389 . S
C2455 C2454 1.389 . S
C2455 C2456 1.387 . S
C2456 H2441 0.930 . S
C2456 C2451 1.390 . S
C2456 C2455 1.387 . S
H2457 C2469 0.930 . S
H2458 C2471 0.930 . S
H2459 C2472 0.930 . S
H2460 C2476 0.959 . S
H2461 C2476 0.959 . S
H2462 C2476 0.961 . S
H2463 C2477 0.960 . S
H2464 C2477 0.961 . S
H2465 C2477 0.959 . S
H2466 C2480 0.929 . S
H2467 C2481 0.931 . S
H2468 C2483 0.930 . S
C2469 H2457 0.930 . S
C2469 C2470 1.399 . S
C2469 C2474 1.399 . S
C2470 C2469 1.399 . S
C2470 C2471 1.376 . S
C2471 H2458 0.930 . S
C2471 C2470 1.376 . S
C2471 C2472 1.388 . S
C2472 H2459 0.930 . S
C2472 C2471 1.388 . S
C2472 C2473 1.390 . S
C2473 C2472 1.390 . S
C2473 C2474 1.394 . S
C2473 C2479 1.465 . S
C2474 C2469 1.399 . S
C2474 C2473 1.394 . S
C2474 C2475 1.516 . S
C2475 C2474 1.516 . S
C2475 C2476 1.502 . S
C2475 C2477 1.561 . S
C2475 C2478 1.526 . S
C2476 H2460 0.959 . S
C2476 H2461 0.959 . S
C2476 H2462 0.961 . S
C2476 C2475 1.502 . S
C2477 H2463 0.960 . S
C2477 H2464 0.961 . S
C2477 H2465 0.959 . S
C2477 C2475 1.561 . S
C2478 C2475 1.526 . S
C2478 C2479 1.396 . S
C2478 C2483 1.390 . S
C2479 C2473 1.465 . S
C2479 C2478 1.396 . S
C2479 C2480 1.399 . S
C2480 H2466 0.929 . S
C2480 C2479 1.399 . S
C2480 C2481 1.385 . S
C2481 H2467 0.931 . S
C2481 C2480 1.385 . S
C2481 C2482 1.389 . S
C2482 C2481 1.389 . S
C2482 C2483 1.387 . S
C2483 H2468 0.930 . S
C2483 C2478 1.390 . S
C2483 C2482 1.387 . S
H2484 C2496 0.930 . S
H2485 C2498 0.930 . S
H2486 C2499 0.930 . S
H2487 C2503 0.959 . S
H2488 C2503 0.959 . S
H2489 C2503 0.961 . S
H2490 C2504 0.960 . S
H2491 C2504 0.961 . S
H2492 C2504 0.959 . S
H2493 C2507 0.929 . S
H2494 C2508 0.931 . S
H2495 C2510 0.930 . S
C2496 H2484 0.930 . S
C2496 C2497 1.399 . S
C2496 C2501 1.399 . S
C2497 C2496 1.399 . S
C2497 C2498 1.376 . S
C2498 H2485 0.930 . S
C2498 C2497 1.376 . S
C2498 C2499 1.388 . S
C2499 H2486 0.930 . S
C2499 C2498 1.388 . S
C2499 C2500 1.390 . S
C2500 C2499 1.390 . S
C2500 C2501 1.394 . S
C2500 C2506 1.465 . S
C2501 C2496 1.399 . S
C2501 C2500 1.394 . S
C2501 C2502 1.516 . S
C2502 C2501 1.516 . S
C2502 C2503 1.502 . S
C2502 C2504 1.561 . S
C2502 C2505 1.526 . S
C2503 H2487 0.959 . S
C2503 H2488 0.959 . S
C2503 H2489 0.961 . S
C2503 C2502 1.502 . S
C2504 H2490 0.960 . S
C2504 H2491 0.961 . S
C2504 H2492 0.959 . S
C2504 C2502 1.561 . S
C2505 C2502 1.526 . S
C2505 C2506 1.396 . S
C2505 C2510 1.390 . S
C2506 C2500 1.465 . S
C2506 C2505 1.396 . S
C2506 C2507 1.399 . S
C2507 H2493 0.929 . S
C2507 C2506 1.399 . S
C2507 C2508 1.385 . S
C2508 H2494 0.931 . S
C2508 C2507 1.385 . S
C2508 C2509 1.389 . S
C2509 C2508 1.389 . S
C2509 C2510 1.387 . S
C2510 H2495 0.930 . S
C2510 C2505 1.390 . S
C2510 C2509 1.387 . S
H2511 C2523 0.930 . S
H2512 C2525 0.930 . S
H2513 C2526 0.930 . S
H2514 C2530 0.959 . S
H2515 C2530 0.959 . S
H2516 C2530 0.961 . S
H2517 C2531 0.960 . S
H2518 C2531 0.961 . S
H2519 C2531 0.959 . S
H2520 C2534 0.929 . S
H2521 C2535 0.931 . S
H2522 C2537 0.930 . S
C2523 H2511 0.930 . S
C2523 C2524 1.399 . S
C2523 C2528 1.399 . S
C2524 C2523 1.399 . S
C2524 C2525 1.376 . S
C2525 H2512 0.930 . S
C2525 C2524 1.376 . S
C2525 C2526 1.388 . S
C2526 H2513 0.930 . S
C2526 C2525 1.388 . S
C2526 C2527 1.390 . S
C2527 C2526 1.390 . S
C2527 C2528 1.394 . S
C2527 C2533 1.465 . S
C2528 C2523 1.399 . S
C2528 C2527 1.394 . S
C2528 C2529 1.516 . S
C2529 C2528 1.516 . S
C2529 C2530 1.502 . S
C2529 C2531 1.561 . S
C2529 C2532 1.526 . S
C2530 H2514 0.959 . S
C2530 H2515 0.959 . S
C2530 H2516 0.961 . S
C2530 C2529 1.502 . S
C2531 H2517 0.960 . S
C2531 H2518 0.961 . S
C2531 H2519 0.959 . S
C2531 C2529 1.561 . S
C2532 C2529 1.526 . S
C2532 C2533 1.396 . S
C2532 C2537 1.390 . S
C2533 C2527 1.465 . S
C2533 C2532 1.396 . S
C2533 C2534 1.399 . S
C2534 H2520 0.929 . S
C2534 C2533 1.399 . S
C2534 C2535 1.385 . S
C2535 H2521 0.931 . S
C2535 C2534 1.385 . S
C2535 C2536 1.389 . S
C2536 C2535 1.389 . S
C2536 C2537 1.387 . S
C2537 H2522 0.930 . S
C2537 C2532 1.390 . S
C2537 C2536 1.387 . S
H2538 C2550 0.930 . S
H2539 C2552 0.930 . S
H2540 C2553 0.930 . S
H2541 C2557 0.959 . S
H2542 C2557 0.959 . S
H2543 C2557 0.961 . S
H2544 C2558 0.960 . S
H2545 C2558 0.961 . S
H2546 C2558 0.959 . S
H2547 C2561 0.929 . S
H2548 C2562 0.931 . S
H2549 C2564 0.930 . S
C2550 H2538 0.930 . S
C2550 C2551 1.399 . S
C2550 C2555 1.399 . S
C2551 C2550 1.399 . S
C2551 C2552 1.376 . S
C2552 H2539 0.930 . S
C2552 C2551 1.376 . S
C2552 C2553 1.388 . S
C2553 H2540 0.930 . S
C2553 C2552 1.388 . S
C2553 C2554 1.390 . S
C2554 C2553 1.390 . S
C2554 C2555 1.394 . S
C2554 C2560 1.465 . S
C2555 C2550 1.399 . S
C2555 C2554 1.394 . S
C2555 C2556 1.516 . S
C2556 C2555 1.516 . S
C2556 C2557 1.502 . S
C2556 C2558 1.561 . S
C2556 C2559 1.526 . S
C2557 H2541 0.959 . S
C2557 H2542 0.959 . S
C2557 H2543 0.961 . S
C2557 C2556 1.502 . S
C2558 H2544 0.960 . S
C2558 H2545 0.961 . S
C2558 H2546 0.959 . S
C2558 C2556 1.561 . S
C2559 C2556 1.526 . S
C2559 C2560 1.396 . S
C2559 C2564 1.390 . S
C2560 C2554 1.465 . S
C2560 C2559 1.396 . S
C2560 C2561 1.399 . S
C2561 H2547 0.929 . S
C2561 C2560 1.399 . S
C2561 C2562 1.385 . S
C2562 H2548 0.931 . S
C2562 C2561 1.385 . S
C2562 C2563 1.389 . S
C2563 C2562 1.389 . S
C2563 C2564 1.387 . S
C2564 H2549 0.930 . S
C2564 C2559 1.390 . S
C2564 C2563 1.387 . S
H2565 C2577 0.930 . S
H2566 C2579 0.930 . S
H2567 C2580 0.930 . S
H2568 C2584 0.959 . S
H2569 C2584 0.959 . S
H2570 C2584 0.961 . S
H2571 C2585 0.960 . S
H2572 C2585 0.961 . S
H2573 C2585 0.959 . S
H2574 C2588 0.929 . S
H2575 C2589 0.931 . S
H2576 C2591 0.930 . S
C2577 H2565 0.930 . S
C2577 C2578 1.399 . S
C2577 C2582 1.399 . S
C2578 C2577 1.399 . S
C2578 C2579 1.376 . S
C2579 H2566 0.930 . S
C2579 C2578 1.376 . S
C2579 C2580 1.388 . S
C2580 H2567 0.930 . S
C2580 C2579 1.388 . S
C2580 C2581 1.390 . S
C2581 C2580 1.390 . S
C2581 C2582 1.394 . S
C2581 C2587 1.465 . S
C2582 C2577 1.399 . S
C2582 C2581 1.394 . S
C2582 C2583 1.516 . S
C2583 C2582 1.516 . S
C2583 C2584 1.502 . S
C2583 C2585 1.561 . S
C2583 C2586 1.526 . S
C2584 H2568 0.959 . S
C2584 H2569 0.959 . S
C2584 H2570 0.961 . S
C2584 C2583 1.502 . S
C2585 H2571 0.960 . S
C2585 H2572 0.961 . S
C2585 H2573 0.959 . S
C2585 C2583 1.561 . S
C2586 C2583 1.526 . S
C2586 C2587 1.396 . S
C2586 C2591 1.390 . S
C2587 C2581 1.465 . S
C2587 C2586 1.396 . S
C2587 C2588 1.399 . S
C2588 H2574 0.929 . S
C2588 C2587 1.399 . S
C2588 C2589 1.385 . S
C2589 H2575 0.931 . S
C2589 C2588 1.385 . S
C2589 C2590 1.389 . S
C2590 C2589 1.389 . S
C2590 C2591 1.387 . S
C2591 H2576 0.930 . S
C2591 C2586 1.390 . S
C2591 C2590 1.387 . S
H2592 C2604 0.930 . S
H2593 C2606 0.930 . S
H2594 C2607 0.930 . S
H2595 C2611 0.959 . S
H2596 C2611 0.959 . S
H2597 C2611 0.961 . S
H2598 C2612 0.960 . S
H2599 C2612 0.961 . S
H2600 C2612 0.959 . S
H2601 C2615 0.929 . S
H2602 C2616 0.931 . S
H2603 C2618 0.930 . S
C2604 H2592 0.930 . S
C2604 C2605 1.399 . S
C2604 C2609 1.399 . S
C2605 C2604 1.399 . S
C2605 C2606 1.376 . S
C2606 H2593 0.930 . S
C2606 C2605 1.376 . S
C2606 C2607 1.388 . S
C2607 H2594 0.930 . S
C2607 C2606 1.388 . S
C2607 C2608 1.390 . S
C2608 C2607 1.390 . S
C2608 C2609 1.394 . S
C2608 C2614 1.465 . S
C2609 C2604 1.399 . S
C2609 C2608 1.394 . S
C2609 C2610 1.516 . S
C2610 C2609 1.516 . S
C2610 C2611 1.502 . S
C2610 C2612 1.561 . S
C2610 C2613 1.526 . S
C2611 H2595 0.959 . S
C2611 H2596 0.959 . S
C2611 H2597 0.961 . S
C2611 C2610 1.502 . S
C2612 H2598 0.960 . S
C2612 H2599 0.961 . S
C2612 H2600 0.959 . S
C2612 C2610 1.561 . S
C2613 C2610 1.526 . S
C2613 C2614 1.396 . S
C2613 C2618 1.390 . S
C2614 C2608 1.465 . S
C2614 C2613 1.396 . S
C2614 C2615 1.399 . S
C2615 H2601 0.929 . S
C2615 C2614 1.399 . S
C2615 C2616 1.385 . S
C2616 H2602 0.931 . S
C2616 C2615 1.385 . S
C2616 C2617 1.389 . S
C2617 C2616 1.389 . S
C2617 C2618 1.387 . S
C2618 H2603 0.930 . S
C2618 C2613 1.390 . S
C2618 C2617 1.387 . S
H2619 C2631 0.930 . S
H2620 C2633 0.930 . S
H2621 C2634 0.930 . S
H2622 C2638 0.959 . S
H2623 C2638 0.959 . S
H2624 C2638 0.961 . S
H2625 C2639 0.960 . S
H2626 C2639 0.961 . S
H2627 C2639 0.959 . S
H2628 C2642 0.929 . S
H2629 C2643 0.931 . S
H2630 C2645 0.930 . S
C2631 H2619 0.930 . S
C2631 C2632 1.399 . S
C2631 C2636 1.399 . S
C2632 C2631 1.399 . S
C2632 C2633 1.376 . S
C2633 H2620 0.930 . S
C2633 C2632 1.376 . S
C2633 C2634 1.388 . S
C2634 H2621 0.930 . S
C2634 C2633 1.388 . S
C2634 C2635 1.390 . S
C2635 C2634 1.390 . S
C2635 C2636 1.394 . S
C2635 C2641 1.465 . S
C2636 C2631 1.399 . S
C2636 C2635 1.394 . S
C2636 C2637 1.516 . S
C2637 C2636 1.516 . S
C2637 C2638 1.502 . S
C2637 C2639 1.561 . S
C2637 C2640 1.526 . S
C2638 H2622 0.959 . S
C2638 H2623 0.959 . S
C2638 H2624 0.961 . S
C2638 C2637 1.502 . S
C2639 H2625 0.960 . S
C2639 H2626 0.961 . S
C2639 H2627 0.959 . S
C2639 C2637 1.561 . S
C2640 C2637 1.526 . S
C2640 C2641 1.396 . S
C2640 C2645 1.390 . S
C2641 C2635 1.465 . S
C2641 C2640 1.396 . S
C2641 C2642 1.399 . S
C2642 H2628 0.929 . S
C2642 C2641 1.399 . S
C2642 C2643 1.385 . S
C2643 H2629 0.931 . S
C2643 C2642 1.385 . S
C2643 C2644 1.389 . S
C2644 C2643 1.389 . S
C2644 C2645 1.387 . S
C2645 H2630 0.930 . S
C2645 C2640 1.390 . S
C2645 C2644 1.387 . S
H2646 C2658 0.930 . S
H2647 C2660 0.930 . S
H2648 C2661 0.930 . S
H2649 C2665 0.959 . S
H2650 C2665 0.959 . S
H2651 C2665 0.961 . S
H2652 C2666 0.960 . S
H2653 C2666 0.961 . S
H2654 C2666 0.959 . S
H2655 C2669 0.929 . S
H2656 C2670 0.931 . S
H2657 C2672 0.930 . S
C2658 H2646 0.930 . S
C2658 C2659 1.399 . S
C2658 C2663 1.399 . S
C2659 C2658 1.399 . S
C2659 C2660 1.376 . S
C2660 H2647 0.930 . S
C2660 C2659 1.376 . S
C2660 C2661 1.388 . S
C2661 H2648 0.930 . S
C2661 C2660 1.388 . S
C2661 C2662 1.390 . S
C2662 C2661 1.390 . S
C2662 C2663 1.394 . S
C2662 C2668 1.465 . S
C2663 C2658 1.399 . S
C2663 C2662 1.394 . S
C2663 C2664 1.516 . S
C2664 C2663 1.516 . S
C2664 C2665 1.502 . S
C2664 C2666 1.561 . S
C2664 C2667 1.526 . S
C2665 H2649 0.959 . S
C2665 H2650 0.959 . S
C2665 H2651 0.961 . S
C2665 C2664 1.502 . S
C2666 H2652 0.960 . S
C2666 H2653 0.961 . S
C2666 H2654 0.959 . S
C2666 C2664 1.561 . S
C2667 C2664 1.526 . S
C2667 C2668 1.396 . S
C2667 C2672 1.390 . S
C2668 C2662 1.465 . S
C2668 C2667 1.396 . S
C2668 C2669 1.399 . S
C2669 H2655 0.929 . S
C2669 C2668 1.399 . S
C2669 C2670 1.385 . S
C2670 H2656 0.931 . S
C2670 C2669 1.385 . S
C2670 C2671 1.389 . S
C2671 C2670 1.389 . S
C2671 C2672 1.387 . S
C2672 H2657 0.930 . S
C2672 C2667 1.390 . S
C2672 C2671 1.387 . S
H2673 C2685 0.930 . S
H2674 C2687 0.930 . S
H2675 C2688 0.930 . S
H2676 C2692 0.959 . S
H2677 C2692 0.959 . S
H2678 C2692 0.961 . S
H2679 C2693 0.960 . S
H2680 C2693 0.961 . S
H2681 C2693 0.959 . S
H2682 C2696 0.929 . S
H2683 C2697 0.931 . S
H2684 C2699 0.930 . S
C2685 H2673 0.930 . S
C2685 C2686 1.399 . S
C2685 C2690 1.399 . S
C2686 C2685 1.399 . S
C2686 C2687 1.376 . S
C2687 H2674 0.930 . S
C2687 C2686 1.376 . S
C2687 C2688 1.388 . S
C2688 H2675 0.930 . S
C2688 C2687 1.388 . S
C2688 C2689 1.390 . S
C2689 C2688 1.390 . S
C2689 C2690 1.394 . S
C2689 C2695 1.465 . S
C2690 C2685 1.399 . S
C2690 C2689 1.394 . S
C2690 C2691 1.516 . S
C2691 C2690 1.516 . S
C2691 C2692 1.502 . S
C2691 C2693 1.561 . S
C2691 C2694 1.526 . S
C2692 H2676 0.959 . S
C2692 H2677 0.959 . S
C2692 H2678 0.961 . S
C2692 C2691 1.502 . S
C2693 H2679 0.960 . S
C2693 H2680 0.961 . S
C2693 H2681 0.959 . S
C2693 C2691 1.561 . S
C2694 C2691 1.526 . S
C2694 C2695 1.396 . S
C2694 C2699 1.390 . S
C2695 C2689 1.465 . S
C2695 C2694 1.396 . S
C2695 C2696 1.399 . S
C2696 H2682 0.929 . S
C2696 C2695 1.399 . S
C2696 C2697 1.385 . S
C2697 H2683 0.931 . S
C2697 C2696 1.385 . S
C2697 C2698 1.389 . S
C2698 C2697 1.389 . S
C2698 C2699 1.387 . S
C2699 H2684 0.930 . S
C2699 C2694 1.390 . S
C2699 C2698 1.387 . S
H2700 C2712 0.930 . S
H2701 C2714 0.930 . S
H2702 C2715 0.930 . S
H2703 C2719 0.959 . S
H2704 C2719 0.959 . S
H2705 C2719 0.961 . S
H2706 C2720 0.960 . S
H2707 C2720 0.961 . S
H2708 C2720 0.959 . S
H2709 C2723 0.929 . S
H2710 C2724 0.931 . S
H2711 C2726 0.930 . S
C2712 H2700 0.930 . S
C2712 C2713 1.399 . S
C2712 C2717 1.399 . S
C2713 C2712 1.399 . S
C2713 C2714 1.376 . S
C2714 H2701 0.930 . S
C2714 C2713 1.376 . S
C2714 C2715 1.388 . S
C2715 H2702 0.930 . S
C2715 C2714 1.388 . S
C2715 C2716 1.390 . S
C2716 C2715 1.390 . S
C2716 C2717 1.394 . S
C2716 C2722 1.465 . S
C2717 C2712 1.399 . S
C2717 C2716 1.394 . S
C2717 C2718 1.516 . S
C2718 C2717 1.516 . S
C2718 C2719 1.502 . S
C2718 C2720 1.561 . S
C2718 C2721 1.526 . S
C2719 H2703 0.959 . S
C2719 H2704 0.959 . S
C2719 H2705 0.961 . S
C2719 C2718 1.502 . S
C2720 H2706 0.960 . S
C2720 H2707 0.961 . S
C2720 H2708 0.959 . S
C2720 C2718 1.561 . S
C2721 C2718 1.526 . S
C2721 C2722 1.396 . S
C2721 C2726 1.390 . S
C2722 C2716 1.465 . S
C2722 C2721 1.396 . S
C2722 C2723 1.399 . S
C2723 H2709 0.929 . S
C2723 C2722 1.399 . S
C2723 C2724 1.385 . S
C2724 H2710 0.931 . S
C2724 C2723 1.385 . S
C2724 C2725 1.389 . S
C2725 C2724 1.389 . S
C2725 C2726 1.387 . S
C2726 H2711 0.930 . S
C2726 C2721 1.390 . S
C2726 C2725 1.387 . S
H2727 C2739 0.930 . S
H2728 C2741 0.930 . S
H2729 C2742 0.930 . S
H2730 C2746 0.959 . S
H2731 C2746 0.959 . S
H2732 C2746 0.961 . S
H2733 C2747 0.960 . S
H2734 C2747 0.961 . S
H2735 C2747 0.959 . S
H2736 C2750 0.929 1_655 S
H2737 C2751 0.931 1_655 S
H2738 C2753 0.930 . S
C2739 H2727 0.930 . S
C2739 C2740 1.399 . S
C2739 C2744 1.399 . S
C2740 C2739 1.399 . S
C2740 C2741 1.376 . S
C2741 H2728 0.930 . S
C2741 C2740 1.376 . S
C2741 C2742 1.388 . S
C2742 H2729 0.930 . S
C2742 C2741 1.388 . S
C2742 C2743 1.390 . S
C2743 C2742 1.390 . S
C2743 C2744 1.394 . S
C2743 C2749 1.465 . S
C2744 C2739 1.399 . S
C2744 C2743 1.394 . S
C2744 C2745 1.516 . S
C2745 C2744 1.516 . S
C2745 C2746 1.502 . S
C2745 C2747 1.561 . S
C2745 C2748 1.526 . S
C2746 H2730 0.959 . S
C2746 H2731 0.959 . S
C2746 H2732 0.961 . S
C2746 C2745 1.502 . S
C2747 H2733 0.960 . S
C2747 H2734 0.961 . S
C2747 H2735 0.959 . S
C2747 C2745 1.561 . S
C2748 C2745 1.526 . S
C2748 C2749 1.396 . S
C2748 C2753 1.390 . S
C2749 C2743 1.465 . S
C2749 C2748 1.396 . S
C2749 C2750 1.399 . S
C2750 H2736 0.929 1_455 S
C2750 C2749 1.399 . S
C2750 C2751 1.385 . S
C2751 H2737 0.931 1_455 S
C2751 C2750 1.385 . S
C2751 C2752 1.389 . S
C2752 C2751 1.389 . S
C2752 C2753 1.387 . S
C2753 H2738 0.930 . S
C2753 C2748 1.390 . S
C2753 C2752 1.387 . S
H2754 C2766 0.930 . S
H2755 C2768 0.930 . S
H2756 C2769 0.930 . S
H2757 C2773 0.959 . S
H2758 C2773 0.959 . S
H2759 C2773 0.961 . S
H2760 C2774 0.960 . S
H2761 C2774 0.961 . S
H2762 C2774 0.959 . S
H2763 C2777 0.929 . S
H2764 C2778 0.931 . S
H2765 C2780 0.930 . S
C2766 H2754 0.930 . S
C2766 C2767 1.399 . S
C2766 C2771 1.399 . S
C2767 C2766 1.399 . S
C2767 C2768 1.376 . S
C2768 H2755 0.930 . S
C2768 C2767 1.376 . S
C2768 C2769 1.388 . S
C2769 H2756 0.930 . S
C2769 C2768 1.388 . S
C2769 C2770 1.390 . S
C2770 C2769 1.390 . S
C2770 C2771 1.394 . S
C2770 C2776 1.465 . S
C2771 C2766 1.399 . S
C2771 C2770 1.394 . S
C2771 C2772 1.516 . S
C2772 C2771 1.516 . S
C2772 C2773 1.502 . S
C2772 C2774 1.561 . S
C2772 C2775 1.526 . S
C2773 H2757 0.959 . S
C2773 H2758 0.959 . S
C2773 H2759 0.961 . S
C2773 C2772 1.502 . S
C2774 H2760 0.960 . S
C2774 H2761 0.961 . S
C2774 H2762 0.959 . S
C2774 C2772 1.561 . S
C2775 C2772 1.526 . S
C2775 C2776 1.396 . S
C2775 C2780 1.390 . S
C2776 C2770 1.465 . S
C2776 C2775 1.396 . S
C2776 C2777 1.399 . S
C2777 H2763 0.929 . S
C2777 C2776 1.399 . S
C2777 C2778 1.385 . S
C2778 H2764 0.931 . S
C2778 C2777 1.385 . S
C2778 C2779 1.389 . S
C2779 C2778 1.389 . S
C2779 C2780 1.387 . S
C2780 H2765 0.930 . S
C2780 C2775 1.390 . S
C2780 C2779 1.387 . S
H2781 C2793 0.930 . S
H2782 C2795 0.930 . S
H2783 C2796 0.930 . S
H2784 C2800 0.959 . S
H2785 C2800 0.959 . S
H2786 C2800 0.961 . S
H2787 C2801 0.960 . S
H2788 C2801 0.961 . S
H2789 C2801 0.959 . S
H2790 C2804 0.929 . S
H2791 C2805 0.931 . S
H2792 C2807 0.930 . S
C2793 H2781 0.930 . S
C2793 C2794 1.399 . S
C2793 C2798 1.399 . S
C2794 C2793 1.399 . S
C2794 C2795 1.376 . S
C2795 H2782 0.930 . S
C2795 C2794 1.376 . S
C2795 C2796 1.388 . S
C2796 H2783 0.930 . S
C2796 C2795 1.388 . S
C2796 C2797 1.390 . S
C2797 C2796 1.390 . S
C2797 C2798 1.394 . S
C2797 C2803 1.465 . S
C2798 C2793 1.399 . S
C2798 C2797 1.394 . S
C2798 C2799 1.516 . S
C2799 C2798 1.516 . S
C2799 C2800 1.502 . S
C2799 C2801 1.561 . S
C2799 C2802 1.526 . S
C2800 H2784 0.959 . S
C2800 H2785 0.959 . S
C2800 H2786 0.961 . S
C2800 C2799 1.502 . S
C2801 H2787 0.960 . S
C2801 H2788 0.961 . S
C2801 H2789 0.959 . S
C2801 C2799 1.561 . S
C2802 C2799 1.526 . S
C2802 C2803 1.396 . S
C2802 C2807 1.390 . S
C2803 C2797 1.465 . S
C2803 C2802 1.396 . S
C2803 C2804 1.399 . S
C2804 H2790 0.929 . S
C2804 C2803 1.399 . S
C2804 C2805 1.385 . S
C2805 H2791 0.931 . S
C2805 C2804 1.385 . S
C2805 C2806 1.389 . S
C2806 C2805 1.389 . S
C2806 C2807 1.387 . S
C2807 H2792 0.930 . S
C2807 C2802 1.390 . S
C2807 C2806 1.387 . S
H2808 C2820 0.930 . S
H2809 C2822 0.930 . S
H2810 C2823 0.930 . S
H2811 C2827 0.959 . S
H2812 C2827 0.959 . S
H2813 C2827 0.961 . S
H2814 C2828 0.960 . S
H2815 C2828 0.961 . S
H2816 C2828 0.959 . S
H2817 C2831 0.929 . S
H2818 C2832 0.931 . S
H2819 C2834 0.930 . S
C2820 H2808 0.930 . S
C2820 C2821 1.399 . S
C2820 C2825 1.399 . S
C2821 C2820 1.399 . S
C2821 C2822 1.376 . S
C2822 H2809 0.930 . S
C2822 C2821 1.376 . S
C2822 C2823 1.388 . S
C2823 H2810 0.930 . S
C2823 C2822 1.388 . S
C2823 C2824 1.390 . S
C2824 C2823 1.390 . S
C2824 C2825 1.394 . S
C2824 C2830 1.465 . S
C2825 C2820 1.399 . S
C2825 C2824 1.394 . S
C2825 C2826 1.516 . S
C2826 C2825 1.516 . S
C2826 C2827 1.502 . S
C2826 C2828 1.561 . S
C2826 C2829 1.526 . S
C2827 H2811 0.959 . S
C2827 H2812 0.959 . S
C2827 H2813 0.961 . S
C2827 C2826 1.502 . S
C2828 H2814 0.960 . S
C2828 H2815 0.961 . S
C2828 H2816 0.959 . S
C2828 C2826 1.561 . S
C2829 C2826 1.526 . S
C2829 C2830 1.396 . S
C2829 C2834 1.390 . S
C2830 C2824 1.465 . S
C2830 C2829 1.396 . S
C2830 C2831 1.399 . S
C2831 H2817 0.929 . S
C2831 C2830 1.399 . S
C2831 C2832 1.385 . S
C2832 H2818 0.931 . S
C2832 C2831 1.385 . S
C2832 C2833 1.389 . S
C2833 C2832 1.389 . S
C2833 C2834 1.387 . S
C2834 H2819 0.930 . S
C2834 C2829 1.390 . S
C2834 C2833 1.387 . S
H2835 C2847 0.930 . S
H2836 C2849 0.930 1_655 S
H2837 C2850 0.930 . S
H2838 C2854 0.959 . S
H2839 C2854 0.959 . S
H2840 C2854 0.961 . S
H2841 C2855 0.960 . S
H2842 C2855 0.961 . S
H2843 C2855 0.959 . S
H2844 C2858 0.929 . S
H2845 C2859 0.931 . S
H2846 C2861 0.930 . S
C2847 H2835 0.930 . S
C2847 C2848 1.399 . S
C2847 C2852 1.399 . S
C2848 C2847 1.399 . S
C2848 C2849 1.376 . S
C2849 H2836 0.930 1_455 S
C2849 C2848 1.376 . S
C2849 C2850 1.388 . S
C2850 H2837 0.930 . S
C2850 C2849 1.388 . S
C2850 C2851 1.390 . S
C2851 C2850 1.390 . S
C2851 C2852 1.394 . S
C2851 C2857 1.465 . S
C2852 C2847 1.399 . S
C2852 C2851 1.394 . S
C2852 C2853 1.516 . S
C2853 C2852 1.516 . S
C2853 C2854 1.502 . S
C2853 C2855 1.561 . S
C2853 C2856 1.526 . S
C2854 H2838 0.959 . S
C2854 H2839 0.959 . S
C2854 H2840 0.961 . S
C2854 C2853 1.502 . S
C2855 H2841 0.960 . S
C2855 H2842 0.961 . S
C2855 H2843 0.959 . S
C2855 C2853 1.561 . S
C2856 C2853 1.526 . S
C2856 C2857 1.396 . S
C2856 C2861 1.390 . S
C2857 C2851 1.465 . S
C2857 C2856 1.396 . S
C2857 C2858 1.399 . S
C2858 H2844 0.929 . S
C2858 C2857 1.399 . S
C2858 C2859 1.385 . S
C2859 H2845 0.931 . S
C2859 C2858 1.385 . S
C2859 C2860 1.389 . S
C2860 C2859 1.389 . S
C2860 C2861 1.387 . S
C2861 H2846 0.930 . S
C2861 C2856 1.390 . S
C2861 C2860 1.387 . S
H2862 C2874 0.930 . S
H2863 C2876 0.930 . S
H2864 C2877 0.930 . S
H2865 C2881 0.959 . S
H2866 C2881 0.959 . S
H2867 C2881 0.961 . S
H2868 C2882 0.960 . S
H2869 C2882 0.961 . S
H2870 C2882 0.959 . S
H2871 C2885 0.929 . S
H2872 C2886 0.931 . S
H2873 C2888 0.930 . S
C2874 H2862 0.930 . S
C2874 C2875 1.399 . S
C2874 C2879 1.399 . S
C2875 C2874 1.399 . S
C2875 C2876 1.376 . S
C2876 H2863 0.930 . S
C2876 C2875 1.376 . S
C2876 C2877 1.388 . S
C2877 H2864 0.930 . S
C2877 C2876 1.388 . S
C2877 C2878 1.390 . S
C2878 C2877 1.390 . S
C2878 C2879 1.394 . S
C2878 C2884 1.465 . S
C2879 C2874 1.399 . S
C2879 C2878 1.394 . S
C2879 C2880 1.516 . S
C2880 C2879 1.516 . S
C2880 C2881 1.502 . S
C2880 C2882 1.561 . S
C2880 C2883 1.526 . S
C2881 H2865 0.959 . S
C2881 H2866 0.959 . S
C2881 H2867 0.961 . S
C2881 C2880 1.502 . S
C2882 H2868 0.960 . S
C2882 H2869 0.961 . S
C2882 H2870 0.959 . S
C2882 C2880 1.561 . S
C2883 C2880 1.526 . S
C2883 C2884 1.396 . S
C2883 C2888 1.390 . S
C2884 C2878 1.465 . S
C2884 C2883 1.396 . S
C2884 C2885 1.399 . S
C2885 H2871 0.929 . S
C2885 C2884 1.399 . S
C2885 C2886 1.385 . S
C2886 H2872 0.931 . S
C2886 C2885 1.385 . S
C2886 C2887 1.389 . S
C2887 C2886 1.389 . S
C2887 C2888 1.387 . S
C2888 H2873 0.930 . S
C2888 C2883 1.390 . S
C2888 C2887 1.387 . S
H2889 C2901 0.930 . S
H2890 C2903 0.930 1_545 S
H2891 C2904 0.930 . S
H2892 C2908 0.959 . S
H2893 C2908 0.959 . S
H2894 C2908 0.961 . S
H2895 C2909 0.960 . S
H2896 C2909 0.961 . S
H2897 C2909 0.959 . S
H2898 C2912 0.929 . S
H2899 C2913 0.931 . S
H2900 C2915 0.930 . S
C2901 H2889 0.930 . S
C2901 C2902 1.399 . S
C2901 C2906 1.399 . S
C2902 C2901 1.399 . S
C2902 C2903 1.376 . S
C2903 H2890 0.930 1_565 S
C2903 C2902 1.376 . S
C2903 C2904 1.388 . S
C2904 H2891 0.930 . S
C2904 C2903 1.388 . S
C2904 C2905 1.390 . S
C2905 C2904 1.390 . S
C2905 C2906 1.394 . S
C2905 C2911 1.465 . S
C2906 C2901 1.399 . S
C2906 C2905 1.394 . S
C2906 C2907 1.516 . S
C2907 C2906 1.516 . S
C2907 C2908 1.502 . S
C2907 C2909 1.561 . S
C2907 C2910 1.526 . S
C2908 H2892 0.959 . S
C2908 H2893 0.959 . S
C2908 H2894 0.961 . S
C2908 C2907 1.502 . S
C2909 H2895 0.960 . S
C2909 H2896 0.961 . S
C2909 H2897 0.959 . S
C2909 C2907 1.561 . S
C2910 C2907 1.526 . S
C2910 C2911 1.396 . S
C2910 C2915 1.390 . S
C2911 C2905 1.465 . S
C2911 C2910 1.396 . S
C2911 C2912 1.399 . S
C2912 H2898 0.929 . S
C2912 C2911 1.399 . S
C2912 C2913 1.385 . S
C2913 H2899 0.931 . S
C2913 C2912 1.385 . S
C2913 C2914 1.389 . S
C2914 C2913 1.389 . S
C2914 C2915 1.387 . S
C2915 H2900 0.930 . S
C2915 C2910 1.390 . S
C2915 C2914 1.387 . S
H2916 C2928 0.930 . S
H2917 C2930 0.930 . S
H2918 C2931 0.930 . S
H2919 C2935 0.959 . S
H2920 C2935 0.959 . S
H2921 C2935 0.961 . S
H2922 C2936 0.960 . S
H2923 C2936 0.961 . S
H2924 C2936 0.959 . S
H2925 C2939 0.929 . S
H2926 C2940 0.931 . S
H2927 C2942 0.930 . S
C2928 H2916 0.930 . S
C2928 C2929 1.399 . S
C2928 C2933 1.399 . S
C2929 C2928 1.399 . S
C2929 C2930 1.376 . S
C2930 H2917 0.930 . S
C2930 C2929 1.376 . S
C2930 C2931 1.388 . S
C2931 H2918 0.930 . S
C2931 C2930 1.388 . S
C2931 C2932 1.390 . S
C2932 C2931 1.390 . S
C2932 C2933 1.394 . S
C2932 C2938 1.465 . S
C2933 C2928 1.399 . S
C2933 C2932 1.394 . S
C2933 C2934 1.516 . S
C2934 C2933 1.516 . S
C2934 C2935 1.502 . S
C2934 C2936 1.561 . S
C2934 C2937 1.526 . S
C2935 H2919 0.959 . S
C2935 H2920 0.959 . S
C2935 H2921 0.961 . S
C2935 C2934 1.502 . S
C2936 H2922 0.960 . S
C2936 H2923 0.961 . S
C2936 H2924 0.959 . S
C2936 C2934 1.561 . S
C2937 C2934 1.526 . S
C2937 C2938 1.396 . S
C2937 C2942 1.390 . S
C2938 C2932 1.465 . S
C2938 C2937 1.396 . S
C2938 C2939 1.399 . S
C2939 H2925 0.929 . S
C2939 C2938 1.399 . S
C2939 C2940 1.385 . S
C2940 H2926 0.931 . S
C2940 C2939 1.385 . S
C2940 C2941 1.389 . S
C2941 C2940 1.389 . S
C2941 C2942 1.387 . S
C2942 H2927 0.930 . S
C2942 C2937 1.390 . S
C2942 C2941 1.387 . S
H2943 C2955 0.930 . S
H2944 C2957 0.930 . S
H2945 C2958 0.930 . S
H2946 C2962 0.959 . S
H2947 C2962 0.959 . S
H2948 C2962 0.961 . S
H2949 C2963 0.960 . S
H2950 C2963 0.961 . S
H2951 C2963 0.959 . S
H2952 C2966 0.929 . S
H2953 C2967 0.931 . S
H2954 C2969 0.930 . S
C2955 H2943 0.930 . S
C2955 C2956 1.399 . S
C2955 C2960 1.399 . S
C2956 C2955 1.399 . S
C2956 C2957 1.376 . S
C2957 H2944 0.930 . S
C2957 C2956 1.376 . S
C2957 C2958 1.388 . S
C2958 H2945 0.930 . S
C2958 C2957 1.388 . S
C2958 C2959 1.390 . S
C2959 C2958 1.390 . S
C2959 C2960 1.394 . S
C2959 C2965 1.465 . S
C2960 C2955 1.399 . S
C2960 C2959 1.394 . S
C2960 C2961 1.516 . S
C2961 C2960 1.516 . S
C2961 C2962 1.502 . S
C2961 C2963 1.561 . S
C2961 C2964 1.526 . S
C2962 H2946 0.959 . S
C2962 H2947 0.959 . S
C2962 H2948 0.961 . S
C2962 C2961 1.502 . S
C2963 H2949 0.960 . S
C2963 H2950 0.961 . S
C2963 H2951 0.959 . S
C2963 C2961 1.561 . S
C2964 C2961 1.526 . S
C2964 C2965 1.396 . S
C2964 C2969 1.390 . S
C2965 C2959 1.465 . S
C2965 C2964 1.396 . S
C2965 C2966 1.399 . S
C2966 H2952 0.929 . S
C2966 C2965 1.399 . S
C2966 C2967 1.385 . S
C2967 H2953 0.931 . S
C2967 C2966 1.385 . S
C2967 C2968 1.389 . S
C2968 C2967 1.389 . S
C2968 C2969 1.387 . S
C2969 H2954 0.930 . S
C2969 C2964 1.390 . S
C2969 C2968 1.387 . S
H2970 C2982 0.930 . S
H2971 C2984 0.930 . S
H2972 C2985 0.930 . S
H2973 C2989 0.959 . S
H2974 C2989 0.959 . S
H2975 C2989 0.961 . S
H2976 C2990 0.960 . S
H2977 C2990 0.961 . S
H2978 C2990 0.959 . S
H2979 C2993 0.929 . S
H2980 C2994 0.931 . S
H2981 C2996 0.930 . S
C2982 H2970 0.930 . S
C2982 C2983 1.399 . S
C2982 C2987 1.399 . S
C2983 C2982 1.399 . S
C2983 C2984 1.376 . S
C2984 H2971 0.930 . S
C2984 C2983 1.376 . S
C2984 C2985 1.388 . S
C2985 H2972 0.930 . S
C2985 C2984 1.388 . S
C2985 C2986 1.390 . S
C2986 C2985 1.390 . S
C2986 C2987 1.394 . S
C2986 C2992 1.465 . S
C2987 C2982 1.399 . S
C2987 C2986 1.394 . S
C2987 C2988 1.516 . S
C2988 C2987 1.516 . S
C2988 C2989 1.502 . S
C2988 C2990 1.561 . S
C2988 C2991 1.526 . S
C2989 H2973 0.959 . S
C2989 H2974 0.959 . S
C2989 H2975 0.961 . S
C2989 C2988 1.502 . S
C2990 H2976 0.960 . S
C2990 H2977 0.961 . S
C2990 H2978 0.959 . S
C2990 C2988 1.561 . S
C2991 C2988 1.526 . S
C2991 C2992 1.396 . S
C2991 C2996 1.390 . S
C2992 C2986 1.465 . S
C2992 C2991 1.396 . S
C2992 C2993 1.399 . S
C2993 H2979 0.929 . S
C2993 C2992 1.399 . S
C2993 C2994 1.385 . S
C2994 H2980 0.931 . S
C2994 C2993 1.385 . S
C2994 C2995 1.389 . S
C2995 C2994 1.389 . S
C2995 C2996 1.387 . S
C2996 H2981 0.930 . S
C2996 C2991 1.390 . S
C2996 C2995 1.387 . S
H2997 C3009 0.930 . S
H2998 C3011 0.930 . S
H2999 C3012 0.930 . S
H3000 C3016 0.959 . S
H3001 C3016 0.959 . S
H3002 C3016 0.961 . S
H3003 C3017 0.960 . S
H3004 C3017 0.961 . S
H3005 C3017 0.959 . S
H3006 C3020 0.929 . S
H3007 C3021 0.931 . S
H3008 C3023 0.930 . S
C3009 H2997 0.930 . S
C3009 C3010 1.399 . S
C3009 C3014 1.399 . S
C3010 C3009 1.399 . S
C3010 C3011 1.376 . S
C3011 H2998 0.930 . S
C3011 C3010 1.376 . S
C3011 C3012 1.388 . S
C3012 H2999 0.930 . S
C3012 C3011 1.388 . S
C3012 C3013 1.390 . S
C3013 C3012 1.390 . S
C3013 C3014 1.394 . S
C3013 C3019 1.465 . S
C3014 C3009 1.399 . S
C3014 C3013 1.394 . S
C3014 C3015 1.516 . S
C3015 C3014 1.516 . S
C3015 C3016 1.502 . S
C3015 C3017 1.561 . S
C3015 C3018 1.526 . S
C3016 H3000 0.959 . S
C3016 H3001 0.959 . S
C3016 H3002 0.961 . S
C3016 C3015 1.502 . S
C3017 H3003 0.960 . S
C3017 H3004 0.961 . S
C3017 H3005 0.959 . S
C3017 C3015 1.561 . S
C3018 C3015 1.526 . S
C3018 C3019 1.396 . S
C3018 C3023 1.390 . S
C3019 C3013 1.465 . S
C3019 C3018 1.396 . S
C3019 C3020 1.399 . S
C3020 H3006 0.929 . S
C3020 C3019 1.399 . S
C3020 C3021 1.385 . S
C3021 H3007 0.931 . S
C3021 C3020 1.385 . S
C3021 C3022 1.389 . S
C3022 C3021 1.389 . S
C3022 C3023 1.387 . S
C3023 H3008 0.930 . S
C3023 C3018 1.390 . S
C3023 C3022 1.387 . S
H3024 C3036 0.930 . S
H3025 C3038 0.930 . S
H3026 C3039 0.930 . S
H3027 C3043 0.959 . S
H3028 C3043 0.959 . S
H3029 C3043 0.961 . S
H3030 C3044 0.960 . S
H3031 C3044 0.961 . S
H3032 C3044 0.959 . S
H3033 C3047 0.929 . S
H3034 C3048 0.931 . S
H3035 C3050 0.930 . S
C3036 H3024 0.930 . S
C3036 C3037 1.399 . S
C3036 C3041 1.399 . S
C3037 C3036 1.399 . S
C3037 C3038 1.376 . S
C3038 H3025 0.930 . S
C3038 C3037 1.376 . S
C3038 C3039 1.388 . S
C3039 H3026 0.930 . S
C3039 C3038 1.388 . S
C3039 C3040 1.390 . S
C3040 C3039 1.390 . S
C3040 C3041 1.394 . S
C3040 C3046 1.465 . S
C3041 C3036 1.399 . S
C3041 C3040 1.394 . S
C3041 C3042 1.516 . S
C3042 C3041 1.516 . S
C3042 C3043 1.502 . S
C3042 C3044 1.561 . S
C3042 C3045 1.526 . S
C3043 H3027 0.959 . S
C3043 H3028 0.959 . S
C3043 H3029 0.961 . S
C3043 C3042 1.502 . S
C3044 H3030 0.960 . S
C3044 H3031 0.961 . S
C3044 H3032 0.959 . S
C3044 C3042 1.561 . S
C3045 C3042 1.526 . S
C3045 C3046 1.396 . S
C3045 C3050 1.390 . S
C3046 C3040 1.465 . S
C3046 C3045 1.396 . S
C3046 C3047 1.399 . S
C3047 H3033 0.929 . S
C3047 C3046 1.399 . S
C3047 C3048 1.385 . S
C3048 H3034 0.931 . S
C3048 C3047 1.385 . S
C3048 C3049 1.389 . S
C3049 C3048 1.389 . S
C3049 C3050 1.387 . S
C3050 H3035 0.930 . S
C3050 C3045 1.390 . S
C3050 C3049 1.387 . S
H3051 C3063 0.930 . S
H3052 C3065 0.930 . S
H3053 C3066 0.930 . S
H3054 C3070 0.959 . S
H3055 C3070 0.959 . S
H3056 C3070 0.961 . S
H3057 C3071 0.960 . S
H3058 C3071 0.961 . S
H3059 C3071 0.959 . S
H3060 C3074 0.929 . S
H3061 C3075 0.931 . S
H3062 C3077 0.930 . S
C3063 H3051 0.930 . S
C3063 C3064 1.399 . S
C3063 C3068 1.399 . S
C3064 C3063 1.399 . S
C3064 C3065 1.376 . S
C3065 H3052 0.930 . S
C3065 C3064 1.376 . S
C3065 C3066 1.388 . S
C3066 H3053 0.930 . S
C3066 C3065 1.388 . S
C3066 C3067 1.390 . S
C3067 C3066 1.390 . S
C3067 C3068 1.394 . S
C3067 C3073 1.465 . S
C3068 C3063 1.399 . S
C3068 C3067 1.394 . S
C3068 C3069 1.516 . S
C3069 C3068 1.516 . S
C3069 C3070 1.502 . S
C3069 C3071 1.561 . S
C3069 C3072 1.526 . S
C3070 H3054 0.959 . S
C3070 H3055 0.959 . S
C3070 H3056 0.961 . S
C3070 C3069 1.502 . S
C3071 H3057 0.960 . S
C3071 H3058 0.961 . S
C3071 H3059 0.959 . S
C3071 C3069 1.561 . S
C3072 C3069 1.526 . S
C3072 C3073 1.396 . S
C3072 C3077 1.390 . S
C3073 C3067 1.465 . S
C3073 C3072 1.396 . S
C3073 C3074 1.399 . S
C3074 H3060 0.929 . S
C3074 C3073 1.399 . S
C3074 C3075 1.385 . S
C3075 H3061 0.931 . S
C3075 C3074 1.385 . S
C3075 C3076 1.389 . S
C3076 C3075 1.389 . S
C3076 C3077 1.387 . S
C3077 H3062 0.930 . S
C3077 C3072 1.390 . S
C3077 C3076 1.387 . S
H3078 C3090 0.930 . S
H3079 C3092 0.930 . S
H3080 C3093 0.930 . S
H3081 C3097 0.959 . S
H3082 C3097 0.959 . S
H3083 C3097 0.961 . S
H3084 C3098 0.960 . S
H3085 C3098 0.961 . S
H3086 C3098 0.959 . S
H3087 C3101 0.929 . S
H3088 C3102 0.931 . S
H3089 C3104 0.930 . S
C3090 H3078 0.930 . S
C3090 C3091 1.399 . S
C3090 C3095 1.399 . S
C3091 C3090 1.399 . S
C3091 C3092 1.376 . S
C3092 H3079 0.930 . S
C3092 C3091 1.376 . S
C3092 C3093 1.388 . S
C3093 H3080 0.930 . S
C3093 C3092 1.388 . S
C3093 C3094 1.390 . S
C3094 C3093 1.390 . S
C3094 C3095 1.394 . S
C3094 C3100 1.465 . S
C3095 C3090 1.399 . S
C3095 C3094 1.394 . S
C3095 C3096 1.516 . S
C3096 C3095 1.516 . S
C3096 C3097 1.502 . S
C3096 C3098 1.561 . S
C3096 C3099 1.526 . S
C3097 H3081 0.959 . S
C3097 H3082 0.959 . S
C3097 H3083 0.961 . S
C3097 C3096 1.502 . S
C3098 H3084 0.960 . S
C3098 H3085 0.961 . S
C3098 H3086 0.959 . S
C3098 C3096 1.561 . S
C3099 C3096 1.526 . S
C3099 C3100 1.396 . S
C3099 C3104 1.390 . S
C3100 C3094 1.465 . S
C3100 C3099 1.396 . S
C3100 C3101 1.399 . S
C3101 H3087 0.929 . S
C3101 C3100 1.399 . S
C3101 C3102 1.385 . S
C3102 H3088 0.931 . S
C3102 C3101 1.385 . S
C3102 C3103 1.389 . S
C3103 C3102 1.389 . S
C3103 C3104 1.387 . S
C3104 H3089 0.930 . S
C3104 C3099 1.390 . S
C3104 C3103 1.387 . S
H3105 C3117 0.930 . S
H3106 C3119 0.930 . S
H3107 C3120 0.930 . S
H3108 C3124 0.959 . S
H3109 C3124 0.959 . S
H3110 C3124 0.961 . S
H3111 C3125 0.960 . S
H3112 C3125 0.961 . S
H3113 C3125 0.959 . S
H3114 C3128 0.929 . S
H3115 C3129 0.931 . S
H3116 C3131 0.930 . S
C3117 H3105 0.930 . S
C3117 C3118 1.399 . S
C3117 C3122 1.399 . S
C3118 C3117 1.399 . S
C3118 C3119 1.376 . S
C3119 H3106 0.930 . S
C3119 C3118 1.376 . S
C3119 C3120 1.388 . S
C3120 H3107 0.930 . S
C3120 C3119 1.388 . S
C3120 C3121 1.390 . S
C3121 C3120 1.390 . S
C3121 C3122 1.394 . S
C3121 C3127 1.465 . S
C3122 C3117 1.399 . S
C3122 C3121 1.394 . S
C3122 C3123 1.516 . S
C3123 C3122 1.516 . S
C3123 C3124 1.502 . S
C3123 C3125 1.561 . S
C3123 C3126 1.526 . S
C3124 H3108 0.959 . S
C3124 H3109 0.959 . S
C3124 H3110 0.961 . S
C3124 C3123 1.502 . S
C3125 H3111 0.960 . S
C3125 H3112 0.961 . S
C3125 H3113 0.959 . S
C3125 C3123 1.561 . S
C3126 C3123 1.526 . S
C3126 C3127 1.396 . S
C3126 C3131 1.390 . S
C3127 C3121 1.465 . S
C3127 C3126 1.396 . S
C3127 C3128 1.399 . S
C3128 H3114 0.929 . S
C3128 C3127 1.399 . S
C3128 C3129 1.385 . S
C3129 H3115 0.931 . S
C3129 C3128 1.385 . S
C3129 C3130 1.389 . S
C3130 C3129 1.389 . S
C3130 C3131 1.387 . S
C3131 H3116 0.930 . S
C3131 C3126 1.390 . S
C3131 C3130 1.387 . S
H3132 C3144 0.930 . S
H3133 C3146 0.930 . S
H3134 C3147 0.930 . S
H3135 C3151 0.959 . S
H3136 C3151 0.959 . S
H3137 C3151 0.961 . S
H3138 C3152 0.960 . S
H3139 C3152 0.961 . S
H3140 C3152 0.959 . S
H3141 C3155 0.929 . S
H3142 C3156 0.931 . S
H3143 C3158 0.930 . S
C3144 H3132 0.930 . S
C3144 C3145 1.399 . S
C3144 C3149 1.399 . S
C3145 C3144 1.399 . S
C3145 C3146 1.376 . S
C3146 H3133 0.930 . S
C3146 C3145 1.376 . S
C3146 C3147 1.388 . S
C3147 H3134 0.930 . S
C3147 C3146 1.388 . S
C3147 C3148 1.390 . S
C3148 C3147 1.390 . S
C3148 C3149 1.394 . S
C3148 C3154 1.465 . S
C3149 C3144 1.399 . S
C3149 C3148 1.394 . S
C3149 C3150 1.516 . S
C3150 C3149 1.516 . S
C3150 C3151 1.502 . S
C3150 C3152 1.561 . S
C3150 C3153 1.526 . S
C3151 H3135 0.959 . S
C3151 H3136 0.959 . S
C3151 H3137 0.961 . S
C3151 C3150 1.502 . S
C3152 H3138 0.960 . S
C3152 H3139 0.961 . S
C3152 H3140 0.959 . S
C3152 C3150 1.561 . S
C3153 C3150 1.526 . S
C3153 C3154 1.396 . S
C3153 C3158 1.390 . S
C3154 C3148 1.465 . S
C3154 C3153 1.396 . S
C3154 C3155 1.399 . S
C3155 H3141 0.929 . S
C3155 C3154 1.399 . S
C3155 C3156 1.385 . S
C3156 H3142 0.931 . S
C3156 C3155 1.385 . S
C3156 C3157 1.389 . S
C3157 C3156 1.389 . S
C3157 C3158 1.387 . S
C3158 H3143 0.930 . S
C3158 C3153 1.390 . S
C3158 C3157 1.387 . S
C1471 C1233 1.799 . S
C1483 C18 1.880 . S
C1498 C99 1.872 . S
C1510 C1314 1.815 . S
C1525 C1395 1.877 . S
C1537 C180 1.808 . S
C1552 C504 1.799 . S
C1564 C261 1.881 . S
C1579 C342 1.808 . S
C1591 C585 1.858 . S
C1606 C423 1.881 . S
C1618 C666 1.802 . S
C1633 C990 1.798 . S
C1645 C747 1.881 . S
C1660 C828 1.858 . S
C1672 C1071 1.832 . S
C1687 C909 1.882 . S
C1699 C1152 1.797 . S
C1714 C619 0.616 . S
C1726 C59 0.803 . S
C1741 C700 0.723 . S
C1753 C140 0.708 . S
C1768 C538 0.701 . S
C1780 C221 0.717 . S
C1795 C302 0.731 . S
C1807 C1348 0.899 . S
C1822 C1429 0.619 . S
C1834 C383 0.846 . S
C1849 C464 0.750 . S
C1861 C1267 0.728 . S
C1876 C1105 0.627 . S
C1888 C545 0.843 . S
C1903 C1186 0.899 . S
C1915 C626 0.760 . S
C1930 C1024 0.769 . S
C1942 C707 0.696 . S
C1957 C376 0.624 . S
C1969 C788 0.838 . S
C1984 C869 0.873 . S
C1996 C457 0.745 . S
C2011 C950 0.705 . S
C2023 C295 0.809 . S
C2038 C133 0.615 . S
C2050 C1031 0.813 . S
C2065 C1112 0.850 . S
C2077 C214 0.634 . S
C2092 C52 0.855 . S
C2104 C1193 0.858 . S
C2119 C862 0.853 . S
C2131 C1274 0.809 . S
C2146 C1355 0.718 . S
C2158 C943 0.782 . S
C2173 C1436 0.759 . S
C2185 C781 0.715 . S
C2200 C374 3.139 . S
C2212 C37 2.947 . S
C2227 C455 3.138 . S
C2239 C118 2.913 1_545 S
C2254 C293 3.137 . S
C2266 C199 2.941 1_655 S
C2281 C131 3.147 . S
C2293 C280 2.936 . S
C2308 C361 2.963 1_565 S
C2320 C212 3.141 . S
C2335 C442 2.917 1_455 S
C2347 C50 3.145 . S
C2362 C860 3.148 . S
C2374 C523 2.956 . S
C2389 C604 2.923 . S
C2401 C941 3.142 . S
C2416 C779 3.136 . S
C2428 C685 2.937 . S
C2443 C766 2.941 . S
C2455 C617 3.135 . S
C2470 C698 3.147 . S
C2482 C847 2.933 . S
C2497 C928 2.949 . S
C2509 C536 3.136 . S
C2524 C1346 3.136 . S
C2536 C1009 2.909 . S
C2551 C1090 2.944 . S
C2563 C1427 3.147 . S
C2578 C1171 2.944 . S
C2590 C1265 3.147 . S
C2605 C1103 3.147 . S
C2617 C1252 2.932 . S
C2632 C1184 3.136 . S
C2644 C1333 2.951 . S
C2659 C1414 2.959 . S
C2671 C1022 3.139 . S
C2686 C34 1.582 . S
C2698 C907 1.562 . S
C2713 C745 1.515 . S
C2725 C115 1.547 . S
C2740 C196 1.513 . S
C2752 C826 1.483 . S
C2767 C277 1.580 . S
C2779 C1150 1.530 . S
C2794 C358 1.529 . S
C2806 C988 1.480 . S
C2821 C439 1.535 . S
C2833 C1069 1.538 . S
C2848 C520 1.583 1_455 S
C2860 C1393 1.563 . S
C2875 C601 1.584 . S
C2887 C1231 1.564 . S
C2902 C682 1.587 1_565 S
C2914 C1312 1.567 . S
C2929 C178 1.551 . S
C2941 C763 1.548 . S
C2956 C16 1.511 . S
C2968 C844 1.518 . S
C2983 C925 1.580 . S
C2995 C97 1.530 . S
C3010 C421 1.527 . S
C3022 C1006 1.550 . S
C3037 C1087 1.540 . S
C3049 C259 1.516 . S
C3064 C340 1.530 . S
C3076 C1168 1.553 . S
C3091 C1249 1.573 1_655 S
C3103 C664 1.520 . S
C3118 C1330 1.590 . S
C3130 C502 1.557 . S
C3145 C583 1.477 . S
C3157 C1411 1.519 1_545 S
