# Generated by pormake.
# Topology uni, (4)-cn, num edge types: 1
# Building blocks:
#     Node 0, Type 0, BuildingBlock: UXUYUI_clean_sbu_0, # of connection points: 4
#     Node 1, Type 0, BuildingBlock: UXUYUI_clean_sbu_0, # of connection points: 4
#     Node 2, Type 0, BuildingBlock: UXUYUI_clean_sbu_0, # of connection points: 4
#     Node 3, Type 0, BuildingBlock: UXUYUI_clean_sbu_0, # of connection points: 4
#     Node 4, Type 0, BuildingBlock: UXUYUI_clean_sbu_0, # of connection points: 4
#     Node 5, Type 0, BuildingBlock: UXUYUI_clean_sbu_0, # of connection points: 4
#     Edge 6, Type (0, 0), BuildingBlock: AJUNOK_clean_linker_0, # of connection points: 2
#     Edge 7, Type (0, 0), BuildingBlock: AJUNOK_clean_linker_0, # of connection points: 2
#     Edge 8, Type (0, 0), BuildingBlock: AJUNOK_clean_linker_0, # of connection points: 2
#     Edge 9, Type (0, 0), BuildingBlock: AJUNOK_clean_linker_0, # of connection points: 2
#     Edge 10, Type (0, 0), BuildingBlock: AJUNOK_clean_linker_0, # of connection points: 2
#     Edge 11, Type (0, 0), BuildingBlock: AJUNOK_clean_linker_0, # of connection points: 2
#     Edge 12, Type (0, 0), BuildingBlock: AJUNOK_clean_linker_0, # of connection points: 2
#     Edge 13, Type (0, 0), BuildingBlock: AJUNOK_clean_linker_0, # of connection points: 2
#     Edge 14, Type (0, 0), BuildingBlock: AJUNOK_clean_linker_0, # of connection points: 2
#     Edge 15, Type (0, 0), BuildingBlock: AJUNOK_clean_linker_0, # of connection points: 2
#     Edge 16, Type (0, 0), BuildingBlock: AJUNOK_clean_linker_0, # of connection points: 2
#     Edge 17, Type (0, 0), BuildingBlock: AJUNOK_clean_linker_0, # of connection points: 2
# Relax obj value: 0.104
# Max RMSD: 0.125
# Mean RMSD: 0.125
data_MOF--net-uni--node1-UXUYUI_clean_sbu_0--edge1-AJUNOK_clean_linker_0
_symmetry_space_group_name_H-M    P1
_symmetry_Int_Tables_number       1
_symmetry_cell_setting            triclinic
loop_
_symmetry_equiv_pos_as_xyz
'x, y, z'
_cell_length_a     46.525514
_cell_length_b     46.506062
_cell_length_c     27.998784
_cell_angle_alpha  89.97754
_cell_angle_beta   89.946715
_cell_angle_gamma 119.95143
loop_
_atom_site_label
_atom_site_type_symbol
_atom_site_fract_x
_atom_site_fract_y
_atom_site_fract_z
_atom_type_partial_charge
Li0 Li 0.6814 0.05127 0.04916 0.0
Li1 Li 0.63045 0.02637 0.09813 0.0
Li2 Li 0.6522 0.99078 0.06431 0.0
Li3 Li 0.62496 0.01374 0.01345 0.0
C4 C 0.70126 0.03856 0.13775 0.0
N5 N 0.75843 0.06038 0.19085 0.0
C6 C 0.70694 0.05878 0.1776 0.0
C7 C 0.7244 0.02904 0.12528 0.0
C8 C 0.73608 0.06968 0.20388 0.0
C9 C 0.75321 0.04043 0.15248 0.0
C10 C 0.63386 0.08033 0.05996 0.0
C11 C 0.59201 0.09463 0.07921 0.0
N12 N 0.61616 0.12514 0.09375 0.0
C13 C 0.65828 0.11187 0.0748 0.0
C14 C 0.60047 0.07167 0.06185 0.0
C15 C 0.64881 0.13417 0.09185 0.0
C16 C 0.73173 0.09529 0.98843 0.0
N17 N 0.72321 0.08971 0.03538 0.0
C18 C 0.77259 0.1397 0.05713 0.0
C19 C 0.74288 0.11126 0.06967 0.0
C20 C 0.78188 0.14618 0.00882 0.0
C21 C 0.76114 0.12338 0.97431 0.0
H22 H 0.71538 0.07807 0.96179 0.0
H23 H 0.73533 0.10676 0.10663 0.0
C24 C 0.57837 1.00475 0.16361 0.0
N25 N 0.60796 0.03158 0.15177 0.0
C26 C 0.55907 1.0068 0.20006 0.0
C27 C 0.6015 0.06384 0.21298 0.0
C28 C 0.62015 0.06062 0.17627 0.0
C29 C 0.57023 0.03683 0.2246 0.0
H30 H 0.56961 0.98168 0.14459 0.0
H31 H 0.64405 0.08143 0.16685 0.0
C32 C 0.68454 1.00392 0.97451 0.0
N33 N 0.71913 0.98256 0.91848 0.0
C34 C 0.66924 0.9835 0.93511 0.0
C35 C 0.71756 0.01386 0.98505 0.0
C36 C 0.68711 0.97286 0.90732 0.0
C37 C 0.73459 1.00269 0.9564 0.0
C38 C 0.57587 0.95767 0.05076 0.0
C39 C 0.57171 0.92688 0.03737 0.0
C40 C 0.54928 0.96354 0.04681 0.0
C41 C 0.54102 0.90251 0.01976 0.0
C42 C 0.519 0.93855 0.02896 0.0
N43 N 0.51554 0.90882 0.0159 0.0
C44 C 0.65652 0.94649 0.12663 0.0
C45 C 0.66032 0.93399 0.04566 0.0
C46 C 0.65879 0.91909 0.14181 0.0
N47 N 0.65738 0.95346 0.07931 0.0
C48 C 0.66286 0.90641 0.05928 0.0
C49 C 0.66213 0.89866 0.10795 0.0
H50 H 0.65357 0.96203 0.15261 0.0
H51 H 0.66012 0.93938 0.00826 0.0
C52 C 0.59616 0.03474 0.94454 0.0
N53 N 0.59811 1.00777 0.9585 0.0
C54 C 0.57585 0.03254 0.90652 0.0
C55 C 0.5604 0.97498 0.89675 0.0
C56 C 0.58124 0.97836 0.93493 0.0
C57 C 0.5574 1.00231 0.88233 0.0
H58 H 0.6103 0.05804 0.96308 0.0
H59 H 0.58355 0.95738 0.94614 0.0
O60 O 0.67288 0.02772 0.11166 0.0
O61 O 0.64262 0.05808 0.04349 0.0
O62 O 0.66739 0.01457 1.00202 0.0
O63 O 0.60574 0.98185 0.06801 0.0
H64 H 0.68914 0.06617 0.1879 0.0
H65 H 0.72006 0.01285 0.09515 0.0
H66 H 0.74092 0.08553 0.23463 0.0
H67 H 0.77139 0.03333 0.14316 0.0
H68 H 0.56625 0.08819 0.08117 0.0
H69 H 0.68423 0.11901 0.07341 0.0
H70 H 0.58129 0.04739 0.05031 0.0
H71 H 0.66743 0.15862 0.10366 0.0
H72 H 0.78809 0.15644 0.08493 0.0
H73 H 0.76725 0.12759 0.93668 0.0
H74 H 0.53563 0.98505 0.20902 0.0
H75 H 0.61112 0.08732 0.23143 0.0
H76 H 0.64377 0.97578 0.92627 0.0
H77 H 0.72999 0.03021 0.0148 0.0
H78 H 0.67553 0.95688 0.87688 0.0
H79 H 0.76013 0.01011 0.96421 0.0
H80 H 0.59198 0.92188 0.04033 0.0
H81 H 0.55205 0.9872 0.05716 0.0
H82 H 0.53748 0.8786 0.00909 0.0
H83 H 0.49827 0.94281 0.02546 0.0
H84 H 0.65715 0.91352 0.17961 0.0
H85 H 0.66524 0.89123 0.032 0.0
H86 H 0.57463 0.05434 0.89607 0.0
H87 H 0.54633 0.95112 0.87937 0.0
Li88 Li 0.65087 0.67583 0.20894 0.0
Li89 Li 0.62503 0.62718 0.26289 0.0
Li90 Li 0.67987 0.64575 0.23041 0.0
Li91 Li 0.62958 0.6196 0.18007 0.0
C92 C 0.69336 0.70003 0.2864 0.0
N93 N 0.7483 0.75933 0.31235 0.0
C94 C 0.69701 0.7113 0.33346 0.0
C95 C 0.71769 0.71887 0.25252 0.0
C96 C 0.72496 0.74135 0.34588 0.0
C97 C 0.74526 0.74879 0.26635 0.0
C98 C 0.5778 0.6292 0.18082 0.0
C99 C 0.52504 0.58687 0.15 0.0
N100 N 0.5251 0.60919 0.11856 0.0
C101 C 0.57712 0.6518 0.14855 0.0
C102 C 0.55134 0.59655 0.18193 0.0
C103 C 0.55034 0.64119 0.11726 0.0
C104 C 0.66316 0.72834 0.14726 0.0
N105 N 0.65649 0.71822 0.19351 0.0
C106 C 0.65549 0.76747 0.21496 0.0
C107 C 0.65278 0.73708 0.22737 0.0
C108 C 0.66182 0.77828 0.16725 0.0
C109 C 0.66576 0.75836 0.13322 0.0
H110 H 0.66567 0.71266 0.12106 0.0
H111 H 0.64726 0.72828 0.26383 0.0
C112 C 0.61263 0.60214 0.35681 0.0
N113 N 0.59861 0.60841 0.31857 0.0
C114 C 0.59322 0.58481 0.39615 0.0
C115 C 0.54569 0.58228 0.3571 0.0
C116 C 0.56596 0.59936 0.31827 0.0
C117 C 0.55921 0.57447 0.39652 0.0
H118 H 0.63866 0.60953 0.35592 0.0
H119 H 0.55549 0.60478 0.28748 0.0
C120 C 0.6901 0.65335 0.13075 0.0
N121 N 0.72365 0.6401 0.06053 0.0
C122 C 0.68726 0.62199 0.12791 0.0
C123 C 0.70997 0.67792 0.09783 0.0
C124 C 0.70441 0.6158 0.09214 0.0
C125 C 0.72677 0.67075 0.06263 0.0
C126 C 0.62921 0.57191 0.26047 0.0
C127 C 0.65011 0.56558 0.28894 0.0
C128 C 0.59506 0.54962 0.26095 0.0
C129 C 0.6364 0.53753 0.31831 0.0
C130 C 0.58229 0.52189 0.29087 0.0
N131 N 0.60305 0.51649 0.31876 0.0
C132 C 0.72567 0.64699 0.29508 0.0
C133 C 0.7471 0.65757 0.21629 0.0
C134 C 0.75452 0.64848 0.31236 0.0
N135 N 0.72211 0.65073 0.24766 0.0
C136 C 0.77639 0.65919 0.23203 0.0
C137 C 0.78008 0.65396 0.28051 0.0
H138 H 0.70573 0.6423 0.31947 0.0
H139 H 0.74448 0.66161 0.17905 0.0
C140 C 0.60428 0.60587 0.08633 0.0
N141 N 0.60864 0.59175 0.12613 0.0
C142 C 0.58716 0.58629 0.04712 0.0
C143 C 0.58099 0.53823 0.08947 0.0
C144 C 0.59783 0.5587 0.12817 0.0
C145 C 0.57524 0.55194 0.04835 0.0
H146 H 0.6135 0.63231 0.08551 0.0
H147 H 0.60214 0.54817 0.15987 0.0
O148 O 0.66614 0.67057 0.27392 0.0
O149 O 0.60413 0.63902 0.2112 0.0
O150 O 0.67315 0.65997 0.16488 0.0
O151 O 0.64214 0.59964 0.23216 0.0
H152 H 0.67842 0.69692 0.3601 0.0
H153 H 0.71539 0.71055 0.21596 0.0
H154 H 0.72811 0.75039 0.38218 0.0
H155 H 0.76427 0.76364 0.24052 0.0
H156 H 0.50458 0.5616 0.15021 0.0
H157 H 0.5971 0.67722 0.14741 0.0
H158 H 0.55116 0.57877 0.20689 0.0
H159 H 0.54964 0.65838 0.09191 0.0
H160 H 0.65181 0.78194 0.24207 0.0
H161 H 0.67066 0.76589 0.09611 0.0
H162 H 0.60453 0.57862 0.42518 0.0
H163 H 0.51964 0.57492 0.35609 0.0
H164 H 0.67216 0.60266 0.1531 0.0
H165 H 0.71245 0.7023 0.09952 0.0
H166 H 0.70246 0.59168 0.08956 0.0
H167 H 0.74227 0.68956 0.03696 0.0
H168 H 0.67662 0.58203 0.2883 0.0
H169 H 0.57855 0.55389 0.2389 0.0
H170 H 0.6523 0.53247 0.34071 0.0
H171 H 0.55586 0.50469 0.29197 0.0
H172 H 0.75675 0.64529 0.35024 0.0
H173 H 0.79567 0.66379 0.20638 0.0
H174 H 0.58264 0.59785 0.0167 0.0
H175 H 0.57247 0.51193 0.09174 0.0
Li176 Li 0.99276 0.64566 0.3838 0.0
Li177 Li 0.01487 0.61892 0.4332 0.0
Li178 Li 0.05182 0.67416 0.40336 0.0
Li179 Li 0.02779 0.62429 0.34856 0.0
C180 C 1.00759 0.68305 0.46692 0.0
N181 N 0.99416 0.72986 0.50497 0.0
C182 C 0.9908 0.67701 0.51042 0.0
C183 C 0.01762 0.71287 0.44279 0.0
C184 C 0.98421 0.70099 0.52906 0.0
C185 C 1.01061 0.73625 0.46262 0.0
C186 C 0.95141 0.578 0.39291 0.0
C187 C 0.89679 0.53217 0.37617 0.0
N188 N 0.88613 0.53662 0.41931 0.0
C189 C 0.93992 0.58212 0.4371 0.0
C190 C 0.92972 0.55284 0.36217 0.0
C191 C 0.90683 0.56095 0.44978 0.0
C192 C 0.95093 0.65557 0.32254 0.0
N193 N 0.95558 0.6509 0.3692 0.0
C194 C 0.90537 0.64985 0.3911 0.0
C195 C 0.93366 0.64831 0.40347 0.0
C196 C 0.89963 0.65404 0.34303 0.0
C197 C 0.92307 0.65742 0.30862 0.0
H198 H 0.96858 0.65721 0.29597 0.0
H199 H 0.93775 0.64441 0.44029 0.0
C200 C 0.02028 0.60514 0.52951 0.0
N201 N 1.00785 0.59071 0.48655 0.0
C202 C 0.01965 0.58588 0.56817 0.0
C203 C 0.99195 0.53708 0.51824 0.0
C204 C 0.99342 0.55733 0.48037 0.0
C205 C 1.00586 0.5515 0.56243 0.0
H206 H 0.0318 0.63179 0.53317 0.0
H207 H 0.98415 0.54661 0.44558 0.0
C208 C 0.04727 0.69267 0.30673 0.0
N209 N 0.08163 0.74256 0.24082 0.0
C210 C 0.0705 0.69133 0.2765 0.0
C211 C 0.04114 0.7191 0.30296 0.0
C212 C 0.08771 0.71687 0.24353 0.0
C213 C 0.05889 0.74417 0.26957 0.0
C214 C 0.07232 0.62109 0.42984 0.0
C215 C 0.09214 0.63794 0.46909 0.0
C216 C 0.06476 0.58854 0.42038 0.0
C217 C 0.10378 0.62175 0.49865 0.0
C218 C 0.07688 0.57322 0.4508 0.0
N219 N 0.09593 0.58999 0.48901 0.0
C220 C 0.09445 0.72395 0.4667 0.0
C221 C 0.11345 0.73508 0.38666 0.0
C222 C 0.12244 0.75294 0.48221 0.0
N223 N 0.0904 0.71559 0.41963 0.0
C224 C 0.14177 0.76442 0.40058 0.0
C225 C 0.14664 0.77346 0.44897 0.0
H226 H 0.0761 0.70781 0.49241 0.0
H227 H 0.11033 0.7277 0.34971 0.0
C228 C 1.0077 0.58842 0.26351 0.0
N229 N 0.03349 0.60312 0.29454 0.0
C230 C 1.0089 0.56969 0.22543 0.0
C231 C 0.0636 0.58239 0.25119 0.0
C232 C 0.06134 0.60089 0.28886 0.0
C233 C 0.03684 0.56595 0.21951 0.0
H234 H 0.98592 0.59073 0.26898 0.0
H235 H 0.08144 0.61286 0.3142 0.0
O236 O 0.01367 0.65953 0.44792 0.0
O237 O 0.98357 0.59871 0.37928 0.0
O238 O 0.02994 0.66774 0.33888 0.0
O239 O 0.0597 0.63608 0.4015 0.0
H240 H 0.98279 0.65394 0.5294 0.0
H241 H 0.03071 0.71791 0.4092 0.0
H242 H 0.97114 0.69662 0.56264 0.0
H243 H 0.01822 0.75946 0.44433 0.0
H244 H 0.87971 0.51261 0.3527 0.0
H245 H 0.95628 0.60156 0.46127 0.0
H246 H 0.93822 0.54938 0.32779 0.0
H247 H 0.89759 0.56391 0.48382 0.0
H248 H 0.88807 0.64759 0.41875 0.0
H249 H 0.91942 0.66052 0.27118 0.0
H250 H 0.0303 0.59775 0.60195 0.0
H251 H 0.98126 0.51065 0.51258 0.0
H252 H 0.07547 0.67101 0.27882 0.0
H253 H 0.02275 0.72018 0.32537 0.0
H254 H 0.10593 0.71629 0.22013 0.0
H255 H 0.05451 0.76485 0.26639 0.0
H256 H 0.09812 0.66309 0.47698 0.0
H257 H 0.04919 0.57506 0.39038 0.0
H258 H 0.11891 0.63438 0.52939 0.0
H259 H 0.07098 0.54794 0.44419 0.0
H260 H 0.12513 0.75924 0.5198 0.0
H261 H 0.16005 0.77947 0.37395 0.0
H262 H 0.98807 0.55799 0.20113 0.0
H263 H 0.08557 0.58012 0.24768 0.0
Li264 Li 0.41596 0.01186 0.59766 0.0
Li265 Li 0.36633 0.98968 0.5466 0.0
Li266 Li 0.42232 0.02706 0.51308 0.0
Li267 Li 0.39627 0.04859 0.56676 0.0
C268 C 0.4103 0.95674 0.54387 0.0
N269 N 0.42179 0.904 0.54933 0.0
C270 C 0.38496 0.92548 0.55833 0.0
C271 C 0.44134 0.96106 0.53154 0.0
C272 C 0.3913 0.89915 0.56101 0.0
C273 C 0.4467 0.93412 0.53475 0.0
C274 C 0.34443 1.00857 0.62742 0.0
C275 C 0.29403 0.00975 0.61199 0.0
N276 N 0.28725 1.00646 0.65959 0.0
C277 C 0.33699 1.00525 0.67616 0.0
C278 C 0.32282 0.01088 0.59501 0.0
C279 C 0.30794 1.0042 0.69173 0.0
C280 C 0.45669 0.03239 0.67777 0.0
N281 N 0.43733 1.00495 0.65119 0.0
C282 C 0.4524 0.97232 0.70003 0.0
C283 C 0.4344 0.97508 0.66209 0.0
C284 C 0.47335 1.00052 0.7271 0.0
C285 C 0.47503 0.03075 0.71601 0.0
H286 H 0.45827 0.05576 0.66877 0.0
H287 H 0.41825 0.95338 0.64149 0.0
C288 C 0.31798 0.94346 0.48513 0.0
N289 N 0.32489 0.95137 0.53203 0.0
C290 C 0.28881 0.91485 0.47172 0.0
C291 C 0.27416 0.90328 0.55517 0.0
C292 C 0.30373 0.93203 0.56699 0.0
C293 C 0.26659 0.89415 0.50698 0.0
H294 H 0.33544 0.95919 0.45815 0.0
H295 H 0.30996 0.93871 0.60406 0.0
C296 C 0.47581 0.07402 0.56789 0.0
N297 N 0.54428 0.10934 0.56466 0.0
C298 C 0.4926 0.10865 0.56528 0.0
C299 C 0.49381 0.05735 0.56919 0.0
C300 C 0.52723 0.12606 0.56357 0.0
C301 C 0.52842 0.07565 0.56746 0.0
C302 C 0.38582 0.05175 0.46856 0.0
C303 C 0.41402 0.08325 0.47114 0.0
C304 C 0.36336 0.04424 0.4311 0.0
C305 C 0.41928 0.10676 0.43608 0.0
C306 C 0.36951 0.06844 0.39672 0.0
N307 N 0.39711 0.09894 0.3999 0.0
C308 C 0.44017 1.00673 0.4305 0.0
C309 C 0.47632 0.06371 0.44713 0.0
C310 C 0.45913 1.00846 0.39083 0.0
N311 N 0.44922 0.03398 0.45803 0.0
C312 C 0.49613 0.06652 0.40782 0.0
C313 C 0.48759 0.03861 0.37923 0.0
H314 H 0.41844 0.98345 0.4399 0.0
H315 H 0.48275 0.0852 0.46896 0.0
C316 C 0.41327 0.10582 0.61901 0.0
N317 N 0.39259 0.08626 0.58394 0.0
C318 C 0.41208 0.13371 0.6346 0.0
C319 C 0.36825 0.12085 0.57769 0.0
C320 C 0.3703 0.09315 0.56315 0.0
C321 C 0.38919 0.14139 0.61412 0.0
H322 H 0.43073 0.09969 0.63486 0.0
H323 H 0.35401 0.07708 0.53546 0.0
O324 O 0.40448 0.98274 0.54076 0.0
O325 O 0.37296 0.00994 0.61181 0.0
O326 O 0.44191 0.05665 0.56906 0.0
O327 O 0.3801 0.02819 0.50228 0.0
H328 H 0.36077 0.92165 0.56784 0.0
H329 H 0.46105 0.98489 0.51937 0.0
H330 H 0.37199 0.87488 0.57244 0.0
H331 H 0.47064 0.93715 0.5255 0.0
H332 H 0.27709 0.01151 0.58732 0.0
H333 H 0.35354 1.00353 0.70169 0.0
H334 H 0.32816 0.01351 0.55716 0.0
H335 H 0.30187 1.00163 0.72936 0.0
H336 H 0.44986 0.9484 0.70823 0.0
H337 H 0.49087 0.05305 0.73612 0.0
H338 H 0.28401 0.90862 0.43421 0.0
H339 H 0.25742 0.8884 0.58343 0.0
H340 H 0.47899 0.12191 0.56426 0.0
H341 H 0.4812 0.03062 0.57169 0.0
H342 H 0.54056 0.15286 0.56133 0.0
H343 H 0.54268 0.06307 0.56838 0.0
H344 H 0.43162 0.08955 0.49991 0.0
H345 H 0.34142 0.01994 0.42863 0.0
H346 H 0.441 0.13124 0.43765 0.0
H347 H 0.35234 0.06297 0.36751 0.0
H348 H 0.452 0.98626 0.37005 0.0
H349 H 0.51783 0.09022 0.39977 0.0
H350 H 0.42915 0.1493 0.66203 0.0
H351 H 0.35026 0.12594 0.56105 0.0
Li352 Li 0.42471 0.4127 0.7625 0.0
Li353 Li 0.39742 0.36366 0.71044 0.0
Li354 Li 0.41779 0.41969 0.67856 0.0
Li355 Li 0.36856 0.39294 0.73101 0.0
C356 C 0.47015 0.41126 0.67844 0.0
N357 N 0.52222 0.43283 0.61458 0.0
C358 C 0.47101 0.38917 0.64539 0.0
C359 C 0.4959 0.44426 0.67921 0.0
C360 C 0.49755 0.40056 0.6134 0.0
C361 C 0.52194 0.45471 0.64653 0.0
C362 C 0.37663 0.34115 0.79658 0.0
C363 C 0.34065 0.28232 0.80788 0.0
N364 N 0.36383 0.28164 0.8367 0.0
C365 C 0.40004 0.33994 0.82646 0.0
C366 C 0.34661 0.3122 0.78736 0.0
C367 C 0.39311 0.30958 0.84638 0.0
C368 C 0.43895 0.43797 0.85626 0.0
N369 N 0.45243 0.43241 0.8167 0.0
C370 C 0.50629 0.46001 0.85216 0.0
C371 C 0.48525 0.44228 0.81443 0.0
C372 C 0.49344 0.46795 0.89229 0.0
C373 C 0.45914 0.45603 0.89449 0.0
H374 H 0.41265 0.42937 0.85735 0.0
H375 H 0.49519 0.43686 0.78302 0.0
C376 C 0.37011 0.30123 0.66403 0.0
N377 N 0.39302 0.32145 0.6965 0.0
C378 C 0.36766 0.27097 0.65167 0.0
C379 C 0.41235 0.28287 0.70648 0.0
C380 C 0.41403 0.31295 0.71764 0.0
C381 C 0.38895 0.26148 0.67302 0.0
H382 H 0.35407 0.30879 0.64719 0.0
H383 H 0.43249 0.32984 0.74256 0.0
C384 C 0.41663 0.46548 0.76254 0.0
N385 N 0.43803 0.51761 0.82614 0.0
C386 C 0.39417 0.46707 0.7941 0.0
C387 C 0.44992 0.49056 0.76304 0.0
C388 C 0.40549 0.49362 0.82601 0.0
C389 C 0.46027 0.51663 0.79559 0.0
C390 C 0.3464 0.37213 0.64308 0.0
C391 C 0.34697 0.39395 0.60826 0.0
C392 C 0.31643 0.34378 0.65481 0.0
C393 C 0.31738 0.38712 0.58593 0.0
C394 C 0.28737 0.33788 0.63173 0.0
N395 N 0.28845 0.35949 0.59806 0.0
C396 C 0.44334 0.43479 0.58446 0.0
C397 C 0.44885 0.48083 0.62836 0.0
C398 C 0.46181 0.4555 0.54678 0.0
N399 N 0.4381 0.44786 0.62473 0.0
C400 C 0.46712 0.50241 0.59134 0.0
C401 C 0.4746 0.48991 0.55041 0.0
H402 H 0.43409 0.40839 0.58229 0.0
H403 H 0.44373 0.49049 0.66032 0.0
C404 C 0.31187 0.37319 0.788 0.0
N405 N 0.32696 0.38937 0.74695 0.0
C406 C 0.28283 0.37217 0.80354 0.0
C407 C 0.28492 0.40378 0.73374 0.0
C408 C 0.31431 0.40479 0.72002 0.0
C409 C 0.26917 0.38764 0.77624 0.0
H410 H 0.32282 0.36177 0.80929 0.0
H411 H 0.32734 0.4184 0.6884 0.0
O412 O 0.44406 0.40073 0.70946 0.0
O413 O 0.38325 0.37044 0.77586 0.0
O414 O 0.40615 0.43935 0.73164 0.0
O415 O 0.37507 0.37845 0.66548 0.0
H416 H 0.45122 0.36361 0.64405 0.0
H417 H 0.49553 0.46174 0.7043 0.0
H418 H 0.49846 0.38379 0.58749 0.0
H419 H 0.54187 0.48024 0.64645 0.0
H420 H 0.31763 0.25966 0.80082 0.0
H421 H 0.42343 0.36214 0.83382 0.0
H422 H 0.32828 0.31276 0.76422 0.0
H423 H 0.41105 0.30822 0.86939 0.0
H424 H 0.53237 0.46767 0.84972 0.0
H425 H 0.44816 0.46147 0.92479 0.0
H426 H 0.34936 0.25519 0.62562 0.0
H427 H 0.42971 0.2768 0.72293 0.0
H428 H 0.36834 0.44791 0.79429 0.0
H429 H 0.46768 0.48962 0.73909 0.0
H430 H 0.38841 0.49509 0.85078 0.0
H431 H 0.48602 0.53602 0.79669 0.0
H432 H 0.36996 0.416 0.59877 0.0
H433 H 0.31556 0.32672 0.68183 0.0
H434 H 0.31741 0.40384 0.55902 0.0
H435 H 0.26396 0.31615 0.64065 0.0
H436 H 0.46689 0.44483 0.51577 0.0
H437 H 0.47554 0.52861 0.59491 0.0
H438 H 0.27128 0.35965 0.83666 0.0
H439 H 0.27512 0.41627 0.71221 0.0
Li440 Li 0.03178 0.41733 0.93544 0.0
Li441 Li 0.05478 0.39249 0.88169 0.0
Li442 Li 0.01889 0.41142 0.8457 0.0
Li443 Li 0.99722 0.36373 0.89891 0.0
C444 C 0.09569 0.45675 0.87949 0.0
N445 N 0.16418 0.49063 0.87758 0.0
C446 C 0.11359 0.4614 0.92161 0.0
C447 C 0.11257 0.46948 0.83645 0.0
C448 C 0.14823 0.47857 0.91988 0.0
C449 C 0.14723 0.48651 0.83623 0.0
C450 C 0.03702 0.34997 0.95965 0.0
C451 C 0.03324 0.29736 0.94263 0.0
N452 N 0.04308 0.29634 0.98803 0.0
C453 C 0.04703 0.34838 0.00614 0.0
C454 C 0.03003 0.32426 0.92763 0.0
C455 C 0.04997 0.32107 0.0198 0.0
C456 C 0.03284 0.43194 0.03365 0.0
N457 N 0.03808 0.4448 0.98881 0.0
C458 C 0.04732 0.4968 0.01889 0.0
C459 C 0.04563 0.47664 0.98079 0.0
C460 C 0.04088 0.48387 0.06548 0.0
C461 C 0.0342 0.45121 0.07279 0.0
H462 H 0.0267 0.40645 0.03881 0.0
H463 H 0.04948 0.48605 0.94462 0.0
C464 C 0.10162 0.39253 0.81941 0.0
N465 N 0.0933 0.38964 0.8664 0.0
C466 C 0.13022 0.39231 0.8049 0.0
C467 C 0.14067 0.38507 0.88731 0.0
C468 C 0.11215 0.38604 0.90034 0.0
C469 C 0.15032 0.3887 0.83904 0.0
H470 H 0.08628 0.39564 0.79325 0.0
H471 H 0.10524 0.38415 0.93754 0.0
C472 C 0.95636 0.38624 0.91511 0.0
N473 N 0.89063 0.35196 0.94312 0.0
C474 C 0.93125 0.37161 0.88092 0.0
C475 C 0.94804 0.38384 0.9635 0.0
C476 C 0.89817 0.35428 0.89582 0.0
C477 C 0.91467 0.36631 0.97695 0.0
C478 C 1.00152 0.34722 0.80035 0.0
C479 C 0.97664 0.34916 0.77508 0.0
C480 C 1.00946 0.32282 0.78842 0.0
C481 C 0.95959 0.32616 0.73896 0.0
C482 C 0.99181 0.30025 0.75209 0.0
N483 N 0.96743 0.30236 0.72835 0.0
C484 C 0.03235 0.43792 0.75301 0.0
C485 C 0.99194 0.44504 0.79475 0.0
C486 C 0.03097 0.45615 0.71433 0.0
N487 N 0.01332 0.43317 0.79231 0.0
C488 C 0.98959 0.46322 0.7567 0.0
C489 C 1.00974 0.46945 0.71627 0.0
H490 H 0.04899 0.42799 0.75213 0.0
H491 H 0.97722 0.44095 0.82662 0.0
C492 C 0.95322 0.3158 0.96266 0.0
N493 N 0.95892 0.32158 0.915 0.0
C494 C 0.92509 0.28734 0.97916 0.0
C495 C 0.90935 0.27059 0.8973 0.0
C496 C 0.93775 0.29953 0.88233 0.0
C497 C 0.90255 0.2645 0.94627 0.0
H498 H 0.97024 0.33377 0.988 0.0
H499 H 0.94231 0.30451 0.84473 0.0
O500 O 0.06181 0.43887 0.88024 0.0
O501 O 0.03411 0.37663 0.94586 0.0
O502 O 0.98894 0.40225 0.90139 0.0
O503 O 0.019 0.36986 0.83523 0.0
H504 H 0.10084 0.45142 0.95513 0.0
H505 H 0.09905 0.46594 0.80353 0.0
H506 H 0.16242 0.48218 0.95213 0.0
H507 H 0.16064 0.49634 0.80315 0.0
H508 H 0.02789 0.27729 0.9182 0.0
H509 H 0.05256 0.36811 0.03136 0.0
H510 H 0.02209 0.325 0.8917 0.0
H511 H 0.05774 0.31954 0.05566 0.0
H512 H 0.05246 0.52183 0.01185 0.0
H513 H 0.02965 0.44055 0.1083 0.0
H514 H 0.13679 0.39545 0.76738 0.0
H515 H 0.15485 0.38134 0.91477 0.0
H516 H 0.93723 0.37336 0.84334 0.0
H517 H 0.96716 0.39496 0.99042 0.0
H518 H 0.87849 0.3426 0.86977 0.0
H519 H 0.90788 0.36397 0.0143 0.0
H520 H 0.97037 0.36804 0.78339 0.0
H521 H 0.02916 0.32141 0.80684 0.0
H522 H 0.94013 0.32724 0.71934 0.0
H523 H 0.99759 0.28115 0.74264 0.0
H524 H 0.04647 0.46 0.68337 0.0
H525 H 0.97296 0.47314 0.7594 0.0
H526 H 0.92095 0.28329 0.01725 0.0
H527 H 0.89244 0.25356 0.87087 0.0
C528 C 0.56293 0.05269 0.30752 0.0
C529 C 0.54934 0.03956 0.26247 0.0
C530 C 0.54297 0.05316 0.3448 0.0
C531 C 0.50873 0.04047 0.33832 0.0
H532 H 0.58896 0.06172 0.31447 0.0
H533 H 0.55421 0.06255 0.37936 0.0
S534 S 0.46197 1.00746 0.22552 0.0
N535 N 0.50019 0.01656 0.21225 0.0
N536 N 0.46272 0.0172 0.28239 0.0
C537 C 0.49513 0.02851 0.29296 0.0
C538 C 0.51542 0.02813 0.25503 0.0
C539 C 0.50718 0.52528 0.42686 0.0
C540 C 0.53755 0.55418 0.43661 0.0
C541 C 0.48688 0.50485 0.4638 0.0
C542 C 0.49609 0.51254 0.51198 0.0
H543 H 0.4993 0.51799 0.39031 0.0
H544 H 0.46377 0.48283 0.45452 0.0
S545 S 0.57296 0.5856 0.55674 0.0
N546 N 0.5754 0.58993 0.4981 0.0
N547 N 0.53783 0.55097 0.56744 0.0
C548 C 0.52629 0.54149 0.52227 0.0
C549 C 0.5469 0.56237 0.48464 0.0
C550 C 0.97903 0.48323 0.65533 0.0
C551 C 1.00923 0.49051 0.67688 0.0
C552 C 0.97809 0.50293 0.61805 0.0
C553 C 1.00724 0.53091 0.60173 0.0
H554 H 0.95603 0.46196 0.66705 0.0
H555 H 0.95438 0.49646 0.6022 0.0
S556 S 0.09251 0.56071 0.6464 0.0
N557 N 0.06892 0.52767 0.67932 0.0
N558 N 0.0671 0.56468 0.60937 0.0
C559 C 0.03754 0.5385 0.62306 0.0
C560 C 0.03855 0.51829 0.66058 0.0
C561 C 0.5136 0.01277 0.84885 0.0
C562 C 0.53486 0.99964 0.84286 0.0
C563 C 0.49339 0.01239 0.81153 0.0
C564 C 0.49353 0.99875 0.76679 0.0
H565 H 0.51266 0.02357 0.88268 0.0
H566 H 0.47759 0.02297 0.81771 0.0
S567 S 0.54532 0.96209 0.73204 0.0
N568 N 0.55522 0.97312 0.78835 0.0
N569 N 0.517 0.97221 0.71823 0.0
C570 C 0.51431 0.98514 0.76041 0.0
C571 C 0.53501 0.98561 0.79842 0.0
C572 C 0.52605 0.50047 0.01682 0.0
C573 C 0.55575 0.53029 0.00783 0.0
C574 C 0.50635 0.48029 0.97936 0.0
C575 C 0.51556 0.48908 0.93135 0.0
H576 H 0.51754 0.49296 0.05314 0.0
H577 H 0.48366 0.45762 0.9881 0.0
S578 S 0.59139 0.56429 0.88851 0.0
N579 N 0.59406 0.56697 0.9473 0.0
N580 N 0.55639 0.52979 0.87688 0.0
C581 C 0.54537 0.51867 0.92183 0.0
C582 C 0.56556 0.53911 0.96001 0.0
C583 C 0.06606 0.53671 0.11279 0.0
C584 C 0.03987 0.50406 0.10583 0.0
C585 C 0.06513 0.55647 0.14997 0.0
C586 C 0.03776 0.54444 0.18108 0.0
H587 H 0.08749 0.547 0.0894 0.0
H588 H 0.08573 0.58152 0.15392 0.0
S589 S 0.96291 0.46065 0.17817 0.0
N590 N 0.98578 0.46066 0.13304 0.0
N591 N 0.98421 0.4976 0.20317 0.0
C592 C 1.01151 0.51179 0.17464 0.0
C593 C 1.01254 0.49165 0.13701 0.0
C594 C 0.64327 0.80917 0.11411 0.0
C595 C 0.66294 0.80949 0.15245 0.0
C596 C 0.64338 0.83812 0.09981 0.0
C597 C 0.6633 0.86858 0.12312 0.0
H598 H 0.62719 0.78621 0.09554 0.0
H599 H 0.62725 0.83648 0.07078 0.0
S600 S 0.72156 0.88315 0.22284 0.0
N601 N 0.70416 0.843 0.21187 0.0
N602 N 0.7048 0.89759 0.18462 0.0
C603 C 0.68361 0.86934 0.16093 0.0
C604 C 0.68332 0.83978 0.17567 0.0
C605 C 0.87077 0.67928 0.29876 0.0
C606 C 0.86892 0.65399 0.32847 0.0
C607 C 0.84199 0.67924 0.28365 0.0
C608 C 0.81029 0.65385 0.29759 0.0
H609 H 0.89468 0.69937 0.28734 0.0
H610 H 0.8446 0.69935 0.26113 0.0
S611 S 0.79192 0.58047 0.37183 0.0
N612 N 0.83282 0.60205 0.36926 0.0
N613 N 0.77877 0.60181 0.34068 0.0
C614 C 0.80812 0.62823 0.32687 0.0
C615 C 0.8374 0.62834 0.34233 0.0
C616 C 0.18696 0.83443 0.4419 0.0
C617 C 0.17709 0.80393 0.4647 0.0
C618 C 0.21575 0.86347 0.456 0.0
C619 C 0.23585 0.8631 0.49331 0.0
H620 H 0.17213 0.83591 0.41323 0.0
H621 H 0.22218 0.88647 0.43777 0.0
S622 S 0.22231 0.78894 0.56167 0.0
N623 N 0.19048 0.77472 0.52473 0.0
N624 N 0.24474 0.82914 0.5509 0.0
C625 C 0.22645 0.83263 0.51596 0.0
C626 C 0.19706 0.80311 0.50173 0.0
C627 C 0.38801 0.22255 0.61034 0.0
C628 C 0.38764 0.23004 0.65897 0.0
C629 C 0.38803 0.19364 0.59615 0.0
C630 C 0.38768 0.17111 0.63004 0.0
H631 H 0.38901 0.23954 0.58304 0.0
H632 H 0.38908 0.18926 0.55835 0.0
S633 S 0.38309 0.17751 0.76163 0.0
N634 N 0.38457 0.21148 0.7409 0.0
N635 N 0.3845 0.15708 0.71429 0.0
C636 C 0.38643 0.17788 0.67874 0.0
C637 C 0.38644 0.20734 0.69318 0.0
C638 C 0.18074 0.37096 0.78286 0.0
C639 C 0.18102 0.38859 0.82401 0.0
C640 C 0.20938 0.37085 0.76744 0.0
C641 C 0.23921 0.38797 0.79296 0.0
H642 H 0.15812 0.3569 0.76253 0.0
H643 H 0.20814 0.35702 0.73562 0.0
S644 S 0.25424 0.43964 0.90078 0.0
N645 N 0.21471 0.4253 0.88817 0.0
N646 N 0.26805 0.42385 0.85998 0.0
C647 C 0.24005 0.40573 0.8339 0.0
C648 C 0.21108 0.40631 0.84928 0.0
C649 C 0.86355 0.20305 0.94588 0.0
C650 C 0.87183 0.23468 0.96298 0.0
C651 C 0.83461 0.17457 0.96121 0.0
C652 C 0.81281 0.17668 0.99408 0.0
H653 H 0.87974 0.20025 0.92081 0.0
H654 H 0.82937 0.15067 0.94744 0.0
S655 S 0.82185 0.2541 0.04632 0.0
N656 N 0.85514 0.26672 0.01255 0.0
N657 N 0.80065 0.2133 0.04111 0.0
C658 C 0.82063 0.20826 0.01096 0.0
C659 C 0.85013 0.23722 0.99545 0.0
loop_
_geom_bond_atom_site_label_1
_geom_bond_atom_site_label_2
_geom_bond_distance
_geom_bond_site_symmetry_2
_ccdc_geom_bond_type
Li0 N17 1.990 . S
Li0 O60 1.956 . S
Li0 O61 1.970 . S
Li0 O62 1.972 . S
Li1 N25 1.990 . S
Li1 O60 1.970 . S
Li1 O61 1.956 . S
Li1 O63 1.961 1_545 S
Li2 N47 1.990 . S
Li2 O60 1.961 1_565 S
Li2 O62 1.970 1_565 S
Li2 O63 1.970 . S
Li3 N53 1.990 1_544 S
Li3 O61 1.961 . S
Li3 O62 1.972 . S
Li3 O63 1.956 1_545 S
C4 C6 1.348 . S
C4 C7 1.356 . S
C4 O60 1.325 . S
N5 C8 1.314 . S
N5 C9 1.279 . S
C6 C4 1.348 . S
C6 C8 1.353 . S
C6 H64 0.929 . S
C7 C4 1.356 . S
C7 C9 1.358 . S
C7 H65 0.930 . S
C8 N5 1.314 . S
C8 C6 1.353 . S
C8 H66 0.930 . S
C9 N5 1.279 . S
C9 C7 1.358 . S
C9 H67 0.930 . S
C10 C13 1.348 . S
C10 C14 1.356 . S
C10 O61 1.325 . S
C11 N12 1.279 . S
C11 C14 1.358 . S
C11 H68 0.930 . S
N12 C11 1.279 . S
N12 C15 1.314 . S
C13 C10 1.348 . S
C13 C15 1.353 . S
C13 H69 0.929 . S
C14 C10 1.356 . S
C14 C11 1.358 . S
C14 H70 0.930 . S
C15 N12 1.314 . S
C15 C13 1.353 . S
C15 H71 0.930 . S
C16 N17 1.314 1_556 S
C16 C21 1.353 . S
C16 H22 0.930 . S
N17 Li0 1.990 . S
N17 C16 1.314 1_554 S
N17 C19 1.279 . S
C18 C19 1.358 . S
C18 C20 1.356 . S
C18 H72 0.930 . S
C19 N17 1.279 . S
C19 C18 1.358 . S
C19 H23 0.930 . S
C20 C18 1.356 . S
C20 C21 1.348 1_554 S
C21 C16 1.353 . S
C21 C20 1.348 1_556 S
C21 H73 0.929 . S
H22 C16 0.930 . S
H23 C19 0.930 . S
C24 N25 1.314 1_565 S
C24 C26 1.343 1_565 S
C24 H30 0.930 . S
N25 Li1 1.990 . S
N25 C24 1.314 1_545 S
N25 C28 1.279 . S
C26 C24 1.343 1_545 S
C26 C29 1.381 . S
C26 H74 0.908 1_545 S
C27 C28 1.358 . S
C27 C29 1.356 . S
C27 H75 0.930 . S
C28 N25 1.279 . S
C28 C27 1.358 . S
C28 H31 0.930 . S
C29 C26 1.381 . S
C29 C27 1.356 . S
H30 C24 0.930 . S
H31 C28 0.930 . S
C32 C34 1.341 1_545 S
C32 C35 1.345 . S
C32 O62 1.326 1_556 S
N33 C36 1.314 . S
N33 C37 1.279 1_565 S
C34 C32 1.341 1_565 S
C34 C36 1.353 . S
C34 H76 0.929 . S
C35 C32 1.345 . S
C35 C37 1.358 . S
C35 H77 0.930 . S
C36 N33 1.314 . S
C36 C34 1.353 . S
C36 H78 0.930 . S
C37 N33 1.279 1_545 S
C37 C35 1.358 . S
C37 H79 0.930 . S
C38 C39 1.348 . S
C38 C40 1.356 . S
C38 O63 1.325 . S
C39 C38 1.348 . S
C39 C41 1.353 . S
C39 H80 0.929 . S
C40 C38 1.356 . S
C40 C42 1.358 . S
C40 H81 0.930 . S
C41 C39 1.353 . S
C41 N43 1.314 . S
C41 H82 0.930 . S
C42 C40 1.358 . S
C42 N43 1.279 . S
C42 H83 0.930 . S
N43 C41 1.314 . S
N43 C42 1.279 . S
C44 C46 1.353 . S
C44 N47 1.314 . S
C44 H50 0.930 . S
C45 N47 1.279 . S
C45 C48 1.358 . S
C45 H51 0.930 . S
C46 C44 1.353 . S
C46 C49 1.348 . S
C46 H84 0.929 . S
N47 Li2 1.990 . S
N47 C44 1.314 . S
N47 C45 1.279 . S
C48 C45 1.358 . S
C48 C49 1.356 . S
C48 H85 0.930 . S
C49 C46 1.348 . S
C49 C48 1.356 . S
H50 C44 0.930 . S
H51 C45 0.930 . S
C52 N53 1.314 1_545 S
C52 C54 1.353 . S
C52 H58 0.930 . S
N53 Li3 1.990 1_566 S
N53 C52 1.314 1_565 S
N53 C56 1.279 . S
C54 C52 1.353 . S
C54 C57 1.348 1_545 S
C54 H86 0.929 . S
C55 C56 1.358 . S
C55 C57 1.356 . S
C55 H87 0.930 . S
C56 N53 1.279 . S
C56 C55 1.358 . S
C56 H59 0.930 . S
C57 C54 1.348 1_565 S
C57 C55 1.356 . S
H58 C52 0.930 . S
H59 C56 0.930 . S
O60 Li0 1.956 . S
O60 Li1 1.970 . S
O60 Li2 1.961 1_545 S
O60 C4 1.325 . S
O61 Li0 1.970 . S
O61 Li1 1.956 . S
O61 Li3 1.961 . S
O61 C10 1.325 . S
O62 Li0 1.972 . S
O62 Li2 1.970 1_545 S
O62 Li3 1.972 . S
O62 C32 1.326 1_554 S
O63 Li1 1.961 1_565 S
O63 Li2 1.970 . S
O63 Li3 1.956 1_565 S
O63 C38 1.325 . S
H64 C6 0.929 . S
H65 C7 0.930 . S
H66 C8 0.930 . S
H67 C9 0.930 . S
H68 C11 0.930 . S
H69 C13 0.929 . S
H70 C14 0.930 . S
H71 C15 0.930 . S
H72 C18 0.930 . S
H73 C21 0.929 . S
H74 C26 0.908 1_565 S
H75 C27 0.930 . S
H76 C34 0.929 . S
H77 C35 0.930 . S
H78 C36 0.930 . S
H79 C37 0.930 . S
H80 C39 0.929 . S
H81 C40 0.930 . S
H82 C41 0.930 . S
H83 C42 0.930 . S
H84 C46 0.929 . S
H85 C48 0.930 . S
H86 C54 0.929 . S
H87 C55 0.930 . S
Li88 N105 1.990 . S
Li88 O148 1.956 . S
Li88 O149 1.970 . S
Li88 O150 1.961 . S
Li89 N113 1.990 . S
Li89 O148 1.970 . S
Li89 O149 1.956 . S
Li89 O151 1.961 . S
Li90 N135 1.990 . S
Li90 O148 1.961 . S
Li90 O150 1.956 . S
Li90 O151 1.970 . S
Li91 N141 1.990 . S
Li91 O149 1.961 . S
Li91 O150 1.970 . S
Li91 O151 1.956 . S
C92 C94 1.348 . S
C92 C95 1.356 . S
C92 O148 1.325 . S
N93 C96 1.314 . S
N93 C97 1.279 . S
C94 C92 1.348 . S
C94 C96 1.353 . S
C94 H152 0.929 . S
C95 C92 1.356 . S
C95 C97 1.358 . S
C95 H153 0.930 . S
C96 N93 1.314 . S
C96 C94 1.353 . S
C96 H154 0.930 . S
C97 N93 1.279 . S
C97 C95 1.358 . S
C97 H155 0.930 . S
C98 C101 1.348 . S
C98 C102 1.356 . S
C98 O149 1.325 . S
C99 N100 1.279 . S
C99 C102 1.358 . S
C99 H156 0.930 . S
N100 C99 1.279 . S
N100 C103 1.314 . S
C101 C98 1.348 . S
C101 C103 1.353 . S
C101 H157 0.929 . S
C102 C98 1.356 . S
C102 C99 1.358 . S
C102 H158 0.930 . S
C103 N100 1.314 . S
C103 C101 1.353 . S
C103 H159 0.930 . S
C104 N105 1.314 . S
C104 C109 1.353 . S
C104 H110 0.930 . S
N105 Li88 1.990 . S
N105 C104 1.314 . S
N105 C107 1.279 . S
C106 C107 1.358 . S
C106 C108 1.356 . S
C106 H160 0.930 . S
C107 N105 1.279 . S
C107 C106 1.358 . S
C107 H111 0.930 . S
C108 C106 1.356 . S
C108 C109 1.348 . S
C109 C104 1.353 . S
C109 C108 1.348 . S
C109 H161 0.929 . S
H110 C104 0.930 . S
H111 C107 0.930 . S
C112 N113 1.314 . S
C112 C114 1.353 . S
C112 H118 0.930 . S
N113 Li89 1.990 . S
N113 C112 1.314 . S
N113 C116 1.279 . S
C114 C112 1.353 . S
C114 C117 1.348 . S
C114 H162 0.929 . S
C115 C116 1.358 . S
C115 C117 1.356 . S
C115 H163 0.930 . S
C116 N113 1.279 . S
C116 C115 1.358 . S
C116 H119 0.930 . S
C117 C114 1.348 . S
C117 C115 1.356 . S
H118 C112 0.930 . S
H119 C116 0.930 . S
C120 C122 1.348 . S
C120 C123 1.356 . S
C120 O150 1.325 . S
N121 C124 1.314 . S
N121 C125 1.279 . S
C122 C120 1.348 . S
C122 C124 1.353 . S
C122 H164 0.929 . S
C123 C120 1.356 . S
C123 C125 1.358 . S
C123 H165 0.930 . S
C124 N121 1.314 . S
C124 C122 1.353 . S
C124 H166 0.930 . S
C125 N121 1.279 . S
C125 C123 1.358 . S
C125 H167 0.930 . S
C126 C127 1.348 . S
C126 C128 1.356 . S
C126 O151 1.325 . S
C127 C126 1.348 . S
C127 C129 1.353 . S
C127 H168 0.929 . S
C128 C126 1.356 . S
C128 C130 1.358 . S
C128 H169 0.930 . S
C129 C127 1.353 . S
C129 N131 1.314 . S
C129 H170 0.930 . S
C130 C128 1.358 . S
C130 N131 1.279 . S
C130 H171 0.930 . S
N131 C129 1.314 . S
N131 C130 1.279 . S
C132 C134 1.353 . S
C132 N135 1.314 . S
C132 H138 0.930 . S
C133 N135 1.279 . S
C133 C136 1.358 . S
C133 H139 0.930 . S
C134 C132 1.353 . S
C134 C137 1.348 . S
C134 H172 0.929 . S
N135 Li90 1.990 . S
N135 C132 1.314 . S
N135 C133 1.279 . S
C136 C133 1.358 . S
C136 C137 1.356 . S
C136 H173 0.930 . S
C137 C134 1.348 . S
C137 C136 1.356 . S
H138 C132 0.930 . S
H139 C133 0.930 . S
C140 N141 1.314 . S
C140 C142 1.353 . S
C140 H146 0.930 . S
N141 Li91 1.990 . S
N141 C140 1.314 . S
N141 C144 1.279 . S
C142 C140 1.353 . S
C142 C145 1.348 . S
C142 H174 0.929 . S
C143 C144 1.358 . S
C143 C145 1.356 . S
C143 H175 0.930 . S
C144 N141 1.279 . S
C144 C143 1.358 . S
C144 H147 0.930 . S
C145 C142 1.348 . S
C145 C143 1.356 . S
H146 C140 0.930 . S
H147 C144 0.930 . S
O148 Li88 1.956 . S
O148 Li89 1.970 . S
O148 Li90 1.961 . S
O148 C92 1.325 . S
O149 Li88 1.970 . S
O149 Li89 1.956 . S
O149 Li91 1.961 . S
O149 C98 1.325 . S
O150 Li88 1.961 . S
O150 Li90 1.956 . S
O150 Li91 1.970 . S
O150 C120 1.325 . S
O151 Li89 1.961 . S
O151 Li90 1.970 . S
O151 Li91 1.956 . S
O151 C126 1.325 . S
H152 C94 0.929 . S
H153 C95 0.930 . S
H154 C96 0.930 . S
H155 C97 0.930 . S
H156 C99 0.930 . S
H157 C101 0.929 . S
H158 C102 0.930 . S
H159 C103 0.930 . S
H160 C106 0.930 . S
H161 C109 0.929 . S
H162 C114 0.929 . S
H163 C115 0.930 . S
H164 C122 0.929 . S
H165 C123 0.930 . S
H166 C124 0.930 . S
H167 C125 0.930 . S
H168 C127 0.929 . S
H169 C128 0.930 . S
H170 C129 0.930 . S
H171 C130 0.930 . S
H172 C134 0.929 . S
H173 C136 0.930 . S
H174 C142 0.929 . S
H175 C143 0.930 . S
Li176 N193 1.990 . S
Li176 O236 1.956 1_655 S
Li176 O237 1.970 . S
Li176 O238 1.961 1_655 S
Li177 N201 1.995 1_455 S
Li177 O236 1.970 . S
Li177 O237 1.956 1_455 S
Li177 O239 1.961 . S
Li178 N223 1.990 . S
Li178 O236 1.961 . S
Li178 O238 1.956 . S
Li178 O239 1.970 . S
Li179 N229 1.990 . S
Li179 O237 1.961 1_455 S
Li179 O238 1.970 . S
Li179 O239 1.956 . S
C180 C182 1.348 1_455 S
C180 C183 1.356 . S
C180 O236 1.325 . S
N181 C184 1.314 . S
N181 C185 1.279 1_655 S
C182 C180 1.348 1_655 S
C182 C184 1.353 . S
C182 H240 0.929 . S
C183 C180 1.356 . S
C183 C185 1.358 . S
C183 H241 0.930 . S
C184 N181 1.314 . S
C184 C182 1.353 . S
C184 H242 0.930 . S
C185 N181 1.279 1_455 S
C185 C183 1.358 . S
C185 H243 0.930 . S
C186 C189 1.348 . S
C186 C190 1.356 . S
C186 O237 1.325 . S
C187 N188 1.279 . S
C187 C190 1.358 . S
C187 H244 0.930 . S
N188 C187 1.279 . S
N188 C191 1.314 . S
C189 C186 1.348 . S
C189 C191 1.353 . S
C189 H245 0.929 . S
C190 C186 1.356 . S
C190 C187 1.358 . S
C190 H246 0.930 . S
C191 N188 1.314 . S
C191 C189 1.353 . S
C191 H247 0.930 . S
C192 N193 1.314 . S
C192 C197 1.353 . S
C192 H198 0.930 . S
N193 Li176 1.990 . S
N193 C192 1.314 . S
N193 C195 1.279 . S
C194 C195 1.358 . S
C194 C196 1.356 . S
C194 H248 0.930 . S
C195 N193 1.279 . S
C195 C194 1.358 . S
C195 H199 0.930 . S
C196 C194 1.356 . S
C196 C197 1.348 . S
C197 C192 1.353 . S
C197 C196 1.348 . S
C197 H249 0.929 . S
H198 C192 0.930 . S
H199 C195 0.930 . S
C200 N201 1.299 1_455 S
C200 C202 1.353 . S
C200 H206 0.930 . S
N201 Li177 1.995 1_655 S
N201 C200 1.299 1_655 S
N201 C204 1.290 . S
C202 C200 1.353 . S
C202 C205 1.348 1_455 S
C202 H250 0.929 . S
C203 C204 1.358 . S
C203 C205 1.356 . S
C203 H251 0.930 . S
C204 N201 1.290 . S
C204 C203 1.358 . S
C204 H207 0.930 . S
C205 C202 1.348 1_655 S
C205 C203 1.356 . S
H206 C200 0.930 . S
H207 C204 0.930 . S
C208 C210 1.348 . S
C208 C211 1.356 . S
C208 O238 1.325 . S
N209 C212 1.314 . S
N209 C213 1.279 . S
C210 C208 1.348 . S
C210 C212 1.353 . S
C210 H252 0.929 . S
C211 C208 1.356 . S
C211 C213 1.358 . S
C211 H253 0.930 . S
C212 N209 1.314 . S
C212 C210 1.353 . S
C212 H254 0.930 . S
C213 N209 1.279 . S
C213 C211 1.358 . S
C213 H255 0.930 . S
C214 C215 1.348 . S
C214 C216 1.356 . S
C214 O239 1.325 . S
C215 C214 1.348 . S
C215 C217 1.353 . S
C215 H256 0.929 . S
C216 C214 1.356 . S
C216 C218 1.358 . S
C216 H257 0.930 . S
C217 C215 1.353 . S
C217 N219 1.314 . S
C217 H258 0.930 . S
C218 C216 1.358 . S
C218 N219 1.279 . S
C218 H259 0.930 . S
N219 C217 1.314 . S
N219 C218 1.279 . S
C220 C222 1.353 . S
C220 N223 1.314 . S
C220 H226 0.930 . S
C221 N223 1.279 . S
C221 C224 1.358 . S
C221 H227 0.930 . S
C222 C220 1.353 . S
C222 C225 1.348 . S
C222 H260 0.929 . S
N223 Li178 1.990 . S
N223 C220 1.314 . S
N223 C221 1.279 . S
C224 C221 1.358 . S
C224 C225 1.356 . S
C224 H261 0.930 . S
C225 C222 1.348 . S
C225 C224 1.356 . S
H226 C220 0.930 . S
H227 C221 0.930 . S
C228 N229 1.323 . S
C228 C230 1.358 . S
C228 H234 0.913 1_455 S
N229 Li179 1.990 . S
N229 C228 1.323 . S
N229 C232 1.279 . S
C230 C228 1.358 . S
C230 C233 1.348 . S
C230 H262 0.929 1_455 S
C231 C232 1.358 . S
C231 C233 1.356 . S
C231 H263 0.930 . S
C232 N229 1.279 . S
C232 C231 1.358 . S
C232 H235 0.930 . S
C233 C230 1.348 . S
C233 C231 1.356 . S
H234 C228 0.913 1_655 S
H235 C232 0.930 . S
O236 Li176 1.956 1_455 S
O236 Li177 1.970 . S
O236 Li178 1.961 . S
O236 C180 1.325 . S
O237 Li176 1.970 . S
O237 Li177 1.956 1_655 S
O237 Li179 1.961 1_655 S
O237 C186 1.325 . S
O238 Li176 1.961 1_455 S
O238 Li178 1.956 . S
O238 Li179 1.970 . S
O238 C208 1.325 . S
O239 Li177 1.961 . S
O239 Li178 1.970 . S
O239 Li179 1.956 . S
O239 C214 1.325 . S
H240 C182 0.929 . S
H241 C183 0.930 . S
H242 C184 0.930 . S
H243 C185 0.930 . S
H244 C187 0.930 . S
H245 C189 0.929 . S
H246 C190 0.930 . S
H247 C191 0.930 . S
H248 C194 0.930 . S
H249 C197 0.929 . S
H250 C202 0.929 . S
H251 C203 0.930 . S
H252 C210 0.929 . S
H253 C211 0.930 . S
H254 C212 0.930 . S
H255 C213 0.930 . S
H256 C215 0.929 . S
H257 C216 0.930 . S
H258 C217 0.930 . S
H259 C218 0.930 . S
H260 C222 0.929 . S
H261 C224 0.930 . S
H262 C230 0.929 1_655 S
H263 C231 0.930 . S
Li264 N281 1.990 1_545 S
Li264 O324 1.956 1_545 S
Li264 O325 1.970 . S
Li264 O326 1.961 . S
Li265 N289 1.990 . S
Li265 O324 1.970 . S
Li265 O325 1.956 1_565 S
Li265 O327 1.961 1_565 S
Li266 N311 1.990 . S
Li266 O324 1.961 1_545 S
Li266 O326 1.956 . S
Li266 O327 1.970 . S
Li267 N317 1.990 . S
Li267 O325 1.961 . S
Li267 O326 1.970 . S
Li267 O327 1.956 . S
C268 C270 1.348 . S
C268 C271 1.356 . S
C268 O324 1.325 . S
N269 C272 1.314 . S
N269 C273 1.279 . S
C270 C268 1.348 . S
C270 C272 1.353 . S
C270 H328 0.929 . S
C271 C268 1.356 . S
C271 C273 1.358 . S
C271 H329 0.930 . S
C272 N269 1.314 . S
C272 C270 1.353 . S
C272 H330 0.930 . S
C273 N269 1.279 . S
C273 C271 1.358 . S
C273 H331 0.930 . S
C274 C277 1.331 1_545 S
C274 C278 1.378 . S
C274 O325 1.319 . S
C275 N276 1.279 1_545 S
C275 C278 1.358 . S
C275 H332 0.930 . S
N276 C275 1.279 1_565 S
N276 C279 1.314 . S
C277 C274 1.331 1_565 S
C277 C279 1.353 . S
C277 H333 0.929 . S
C278 C274 1.378 . S
C278 C275 1.358 . S
C278 H334 0.930 . S
C279 N276 1.314 . S
C279 C277 1.353 . S
C279 H335 0.930 . S
C280 N281 1.314 1_545 S
C280 C285 1.353 . S
C280 H286 0.930 . S
N281 Li264 1.990 1_565 S
N281 C280 1.314 1_565 S
N281 C283 1.279 . S
C282 C283 1.358 . S
C282 C284 1.356 . S
C282 H336 0.930 . S
C283 N281 1.279 . S
C283 C282 1.358 . S
C283 H287 0.930 . S
C284 C282 1.356 . S
C284 C285 1.348 1_565 S
C285 C280 1.353 . S
C285 C284 1.348 1_545 S
C285 H337 0.929 . S
H286 C280 0.930 . S
H287 C283 0.930 . S
C288 N289 1.314 . S
C288 C290 1.353 . S
C288 H294 0.930 . S
N289 Li265 1.990 . S
N289 C288 1.314 . S
N289 C292 1.279 . S
C290 C288 1.353 . S
C290 C293 1.348 . S
C290 H338 0.929 . S
C291 C292 1.358 . S
C291 C293 1.356 . S
C291 H339 0.930 . S
C292 N289 1.279 . S
C292 C291 1.358 . S
C292 H295 0.930 . S
C293 C290 1.348 . S
C293 C291 1.356 . S
H294 C288 0.930 . S
H295 C292 0.930 . S
C296 C298 1.348 . S
C296 C299 1.356 . S
C296 O326 1.325 . S
N297 C300 1.314 . S
N297 C301 1.279 . S
C298 C296 1.348 . S
C298 C300 1.353 . S
C298 H340 0.929 . S
C299 C296 1.356 . S
C299 C301 1.358 . S
C299 H341 0.930 . S
C300 N297 1.314 . S
C300 C298 1.353 . S
C300 H342 0.930 . S
C301 N297 1.279 . S
C301 C299 1.358 . S
C301 H343 0.930 . S
C302 C303 1.348 . S
C302 C304 1.356 . S
C302 O327 1.325 . S
C303 C302 1.348 . S
C303 C305 1.353 . S
C303 H344 0.929 . S
C304 C302 1.356 . S
C304 C306 1.358 . S
C304 H345 0.930 . S
C305 C303 1.353 . S
C305 N307 1.314 . S
C305 H346 0.930 . S
C306 C304 1.358 . S
C306 N307 1.279 . S
C306 H347 0.930 . S
N307 C305 1.314 . S
N307 C306 1.279 . S
C308 C310 1.361 1_565 S
C308 N311 1.314 1_565 S
C308 H314 0.930 . S
C309 N311 1.279 . S
C309 C312 1.358 . S
C309 H315 0.930 . S
C310 C308 1.361 1_545 S
C310 C313 1.366 . S
C310 H348 0.904 1_545 S
N311 Li266 1.990 . S
N311 C308 1.314 1_545 S
N311 C309 1.279 . S
C312 C309 1.358 . S
C312 C313 1.356 . S
C312 H349 0.930 . S
C313 C310 1.366 . S
C313 C312 1.356 . S
H314 C308 0.930 . S
H315 C309 0.930 . S
C316 N317 1.314 . S
C316 C318 1.353 . S
C316 H322 0.930 . S
N317 Li267 1.990 . S
N317 C316 1.314 . S
N317 C320 1.279 . S
C318 C316 1.353 . S
C318 C321 1.348 . S
C318 H350 0.929 . S
C319 C320 1.358 . S
C319 C321 1.356 . S
C319 H351 0.930 . S
C320 N317 1.279 . S
C320 C319 1.358 . S
C320 H323 0.930 . S
C321 C318 1.348 . S
C321 C319 1.356 . S
H322 C316 0.930 . S
H323 C320 0.930 . S
O324 Li264 1.956 1_565 S
O324 Li265 1.970 . S
O324 Li266 1.961 1_565 S
O324 C268 1.325 . S
O325 Li264 1.970 . S
O325 Li265 1.956 1_545 S
O325 Li267 1.961 . S
O325 C274 1.319 . S
O326 Li264 1.961 . S
O326 Li266 1.956 . S
O326 Li267 1.970 . S
O326 C296 1.325 . S
O327 Li265 1.961 1_545 S
O327 Li266 1.970 . S
O327 Li267 1.956 . S
O327 C302 1.325 . S
H328 C270 0.929 . S
H329 C271 0.930 . S
H330 C272 0.930 . S
H331 C273 0.930 . S
H332 C275 0.930 . S
H333 C277 0.929 . S
H334 C278 0.930 . S
H335 C279 0.930 . S
H336 C282 0.930 . S
H337 C285 0.929 . S
H338 C290 0.929 . S
H339 C291 0.930 . S
H340 C298 0.929 . S
H341 C299 0.930 . S
H342 C300 0.930 . S
H343 C301 0.930 . S
H344 C303 0.929 . S
H345 C304 0.930 . S
H346 C305 0.930 . S
H347 C306 0.930 . S
H348 C310 0.904 1_565 S
H349 C312 0.930 . S
H350 C318 0.929 . S
H351 C319 0.930 . S
Li352 N369 1.990 . S
Li352 O412 1.956 . S
Li352 O413 1.970 . S
Li352 O414 1.961 . S
Li353 N377 1.990 . S
Li353 O412 1.970 . S
Li353 O413 1.956 . S
Li353 O415 1.961 . S
Li354 N399 1.990 . S
Li354 O412 1.961 . S
Li354 O414 1.956 . S
Li354 O415 1.970 . S
Li355 N405 1.990 . S
Li355 O413 1.961 . S
Li355 O414 1.970 . S
Li355 O415 1.956 . S
C356 C358 1.348 . S
C356 C359 1.356 . S
C356 O412 1.325 . S
N357 C360 1.314 . S
N357 C361 1.279 . S
C358 C356 1.348 . S
C358 C360 1.353 . S
C358 H416 0.929 . S
C359 C356 1.356 . S
C359 C361 1.358 . S
C359 H417 0.930 . S
C360 N357 1.314 . S
C360 C358 1.353 . S
C360 H418 0.930 . S
C361 N357 1.279 . S
C361 C359 1.358 . S
C361 H419 0.930 . S
C362 C365 1.348 . S
C362 C366 1.356 . S
C362 O413 1.325 . S
C363 N364 1.279 . S
C363 C366 1.358 . S
C363 H420 0.930 . S
N364 C363 1.279 . S
N364 C367 1.314 . S
C365 C362 1.348 . S
C365 C367 1.353 . S
C365 H421 0.929 . S
C366 C362 1.356 . S
C366 C363 1.358 . S
C366 H422 0.930 . S
C367 N364 1.314 . S
C367 C365 1.353 . S
C367 H423 0.930 . S
C368 N369 1.314 . S
C368 C373 1.353 . S
C368 H374 0.930 . S
N369 Li352 1.990 . S
N369 C368 1.314 . S
N369 C371 1.279 . S
C370 C371 1.358 . S
C370 C372 1.356 . S
C370 H424 0.930 . S
C371 N369 1.279 . S
C371 C370 1.358 . S
C371 H375 0.930 . S
C372 C370 1.356 . S
C372 C373 1.348 . S
C373 C368 1.353 . S
C373 C372 1.348 . S
C373 H425 0.929 . S
H374 C368 0.930 . S
H375 C371 0.930 . S
C376 N377 1.314 . S
C376 C378 1.353 . S
C376 H382 0.930 . S
N377 Li353 1.990 . S
N377 C376 1.314 . S
N377 C380 1.279 . S
C378 C376 1.353 . S
C378 C381 1.348 . S
C378 H426 0.929 . S
C379 C380 1.358 . S
C379 C381 1.356 . S
C379 H427 0.930 . S
C380 N377 1.279 . S
C380 C379 1.358 . S
C380 H383 0.930 . S
C381 C378 1.348 . S
C381 C379 1.356 . S
H382 C376 0.930 . S
H383 C380 0.930 . S
C384 C386 1.348 . S
C384 C387 1.356 . S
C384 O414 1.325 . S
N385 C388 1.314 . S
N385 C389 1.279 . S
C386 C384 1.348 . S
C386 C388 1.353 . S
C386 H428 0.929 . S
C387 C384 1.356 . S
C387 C389 1.358 . S
C387 H429 0.930 . S
C388 N385 1.314 . S
C388 C386 1.353 . S
C388 H430 0.930 . S
C389 N385 1.279 . S
C389 C387 1.358 . S
C389 H431 0.930 . S
C390 C391 1.348 . S
C390 C392 1.356 . S
C390 O415 1.325 . S
C391 C390 1.348 . S
C391 C393 1.353 . S
C391 H432 0.929 . S
C392 C390 1.356 . S
C392 C394 1.358 . S
C392 H433 0.930 . S
C393 C391 1.353 . S
C393 N395 1.314 . S
C393 H434 0.930 . S
C394 C392 1.358 . S
C394 N395 1.279 . S
C394 H435 0.930 . S
N395 C393 1.314 . S
N395 C394 1.279 . S
C396 C398 1.353 . S
C396 N399 1.314 . S
C396 H402 0.930 . S
C397 N399 1.279 . S
C397 C400 1.358 . S
C397 H403 0.930 . S
C398 C396 1.353 . S
C398 C401 1.348 . S
C398 H436 0.929 . S
N399 Li354 1.990 . S
N399 C396 1.314 . S
N399 C397 1.279 . S
C400 C397 1.358 . S
C400 C401 1.356 . S
C400 H437 0.930 . S
C401 C398 1.348 . S
C401 C400 1.356 . S
H402 C396 0.930 . S
H403 C397 0.930 . S
C404 N405 1.314 . S
C404 C406 1.353 . S
C404 H410 0.930 . S
N405 Li355 1.990 . S
N405 C404 1.314 . S
N405 C408 1.279 . S
C406 C404 1.353 . S
C406 C409 1.348 . S
C406 H438 0.929 . S
C407 C408 1.358 . S
C407 C409 1.356 . S
C407 H439 0.930 . S
C408 N405 1.279 . S
C408 C407 1.358 . S
C408 H411 0.930 . S
C409 C406 1.348 . S
C409 C407 1.356 . S
H410 C404 0.930 . S
H411 C408 0.930 . S
O412 Li352 1.956 . S
O412 Li353 1.970 . S
O412 Li354 1.961 . S
O412 C356 1.325 . S
O413 Li352 1.970 . S
O413 Li353 1.956 . S
O413 Li355 1.961 . S
O413 C362 1.325 . S
O414 Li352 1.961 . S
O414 Li354 1.956 . S
O414 Li355 1.970 . S
O414 C384 1.325 . S
O415 Li353 1.961 . S
O415 Li354 1.970 . S
O415 Li355 1.956 . S
O415 C390 1.325 . S
H416 C358 0.929 . S
H417 C359 0.930 . S
H418 C360 0.930 . S
H419 C361 0.930 . S
H420 C363 0.930 . S
H421 C365 0.929 . S
H422 C366 0.930 . S
H423 C367 0.930 . S
H424 C370 0.930 . S
H425 C373 0.929 . S
H426 C378 0.929 . S
H427 C379 0.930 . S
H428 C386 0.929 . S
H429 C387 0.930 . S
H430 C388 0.930 . S
H431 C389 0.930 . S
H432 C391 0.929 . S
H433 C392 0.930 . S
H434 C393 0.930 . S
H435 C394 0.930 . S
H436 C398 0.929 . S
H437 C400 0.930 . S
H438 C406 0.929 . S
H439 C407 0.930 . S
Li440 N457 1.990 . S
Li440 O500 1.956 . S
Li440 O501 1.970 . S
Li440 O502 1.961 1_455 S
Li441 N465 1.990 . S
Li441 O500 1.970 . S
Li441 O501 1.956 . S
Li441 O503 1.961 . S
Li442 N487 1.981 1_455 S
Li442 O500 1.961 . S
Li442 O502 1.956 1_455 S
Li442 O503 1.970 . S
Li443 N493 1.990 . S
Li443 O501 1.961 1_655 S
Li443 O502 1.970 . S
Li443 O503 1.956 1_655 S
C444 C446 1.348 . S
C444 C447 1.356 . S
C444 O500 1.325 . S
N445 C448 1.314 . S
N445 C449 1.279 . S
C446 C444 1.348 . S
C446 C448 1.353 . S
C446 H504 0.929 . S
C447 C444 1.356 . S
C447 C449 1.358 . S
C447 H505 0.930 . S
C448 N445 1.314 . S
C448 C446 1.353 . S
C448 H506 0.930 . S
C449 N445 1.279 . S
C449 C447 1.358 . S
C449 H507 0.930 . S
C450 C453 1.348 1_556 S
C450 C454 1.356 . S
C450 O501 1.325 . S
C451 N452 1.279 . S
C451 C454 1.358 1_554 S
C451 H508 0.930 . S
N452 C451 1.279 . S
N452 C455 1.314 . S
C453 C450 1.348 1_554 S
C453 C455 1.353 . S
C453 H509 0.929 . S
C454 C450 1.356 . S
C454 C451 1.358 1_556 S
C454 H510 0.930 . S
C455 N452 1.314 . S
C455 C453 1.353 . S
C455 H511 0.930 . S
C456 N457 1.325 1_554 S
C456 C461 1.350 . S
C456 H462 0.921 1_455 S
N457 Li440 1.990 . S
N457 C456 1.325 1_556 S
N457 C459 1.279 . S
C458 C459 1.358 1_554 S
C458 C460 1.356 . S
C458 H512 0.930 . S
C459 N457 1.279 . S
C459 C458 1.358 1_556 S
C459 H463 0.930 . S
C460 C458 1.356 . S
C460 C461 1.348 . S
C461 C456 1.350 . S
C461 C460 1.348 . S
C461 H513 0.929 1_455 S
H462 C456 0.921 1_655 S
H463 C459 0.930 . S
C464 N465 1.314 . S
C464 C466 1.353 . S
C464 H470 0.930 . S
N465 Li441 1.990 . S
N465 C464 1.314 . S
N465 C468 1.279 . S
C466 C464 1.353 . S
C466 C469 1.348 . S
C466 H514 0.929 . S
C467 C468 1.358 . S
C467 C469 1.356 . S
C467 H515 0.930 . S
C468 N465 1.279 . S
C468 C467 1.358 . S
C468 H471 0.930 . S
C469 C466 1.348 . S
C469 C467 1.356 . S
H470 C464 0.930 . S
H471 C468 0.930 . S
C472 C474 1.348 . S
C472 C475 1.356 . S
C472 O502 1.325 . S
N473 C476 1.314 . S
N473 C477 1.279 . S
C474 C472 1.348 . S
C474 C476 1.353 . S
C474 H516 0.929 . S
C475 C472 1.356 . S
C475 C477 1.358 . S
C475 H517 0.930 . S
C476 N473 1.314 . S
C476 C474 1.353 . S
C476 H518 0.930 . S
C477 N473 1.279 . S
C477 C475 1.358 . S
C477 H519 0.930 . S
C478 C479 1.348 1_455 S
C478 C480 1.356 . S
C478 O503 1.325 . S
C479 C478 1.348 1_655 S
C479 C481 1.353 . S
C479 H520 0.929 . S
C480 C478 1.356 . S
C480 C482 1.358 . S
C480 H521 0.930 . S
C481 C479 1.353 . S
C481 N483 1.314 . S
C481 H522 0.930 . S
C482 C480 1.358 . S
C482 N483 1.279 1_455 S
C482 H523 0.930 . S
N483 C481 1.314 . S
N483 C482 1.279 1_655 S
C484 C486 1.353 . S
C484 N487 1.302 1_455 S
C484 H490 0.930 . S
C485 N487 1.301 . S
C485 C488 1.358 . S
C485 H491 0.930 . S
C486 C484 1.353 . S
C486 C489 1.348 1_455 S
C486 H524 0.929 . S
N487 Li442 1.981 1_655 S
N487 C484 1.302 1_655 S
N487 C485 1.301 . S
C488 C485 1.358 . S
C488 C489 1.356 . S
C488 H525 0.930 . S
C489 C486 1.348 1_655 S
C489 C488 1.356 . S
H490 C484 0.930 . S
H491 C485 0.930 . S
C492 N493 1.314 . S
C492 C494 1.353 . S
C492 H498 0.930 . S
N493 Li443 1.990 . S
N493 C492 1.314 . S
N493 C496 1.279 . S
C494 C492 1.353 . S
C494 C497 1.348 . S
C494 H526 0.929 . S
C495 C496 1.358 . S
C495 C497 1.356 . S
C495 H527 0.930 . S
C496 N493 1.279 . S
C496 C495 1.358 . S
C496 H499 0.930 . S
C497 C494 1.348 . S
C497 C495 1.356 . S
H498 C492 0.930 . S
H499 C496 0.930 . S
O500 Li440 1.956 . S
O500 Li441 1.970 . S
O500 Li442 1.961 . S
O500 C444 1.325 . S
O501 Li440 1.970 . S
O501 Li441 1.956 . S
O501 Li443 1.961 1_455 S
O501 C450 1.325 . S
O502 Li440 1.961 1_655 S
O502 Li442 1.956 1_655 S
O502 Li443 1.970 . S
O502 C472 1.325 . S
O503 Li441 1.961 . S
O503 Li442 1.970 . S
O503 Li443 1.956 1_455 S
O503 C478 1.325 . S
H504 C446 0.929 . S
H505 C447 0.930 . S
H506 C448 0.930 . S
H507 C449 0.930 . S
H508 C451 0.930 . S
H509 C453 0.929 . S
H510 C454 0.930 . S
H511 C455 0.930 . S
H512 C458 0.930 . S
H513 C461 0.929 1_655 S
H514 C466 0.929 . S
H515 C467 0.930 . S
H516 C474 0.929 . S
H517 C475 0.930 . S
H518 C476 0.930 . S
H519 C477 0.930 . S
H520 C479 0.929 . S
H521 C480 0.930 . S
H522 C481 0.930 . S
H523 C482 0.930 . S
H524 C486 0.929 . S
H525 C488 0.930 . S
H526 C494 0.929 . S
H527 C495 0.930 . S
C528 C529 1.369 . S
C528 C530 1.419 . S
C528 H532 0.930 . S
C529 C528 1.369 . S
C529 C538 1.429 . S
C530 C528 1.419 . S
C530 C531 1.363 . S
C530 H533 0.929 . S
C531 C530 1.363 . S
C531 C537 1.428 . S
H532 C528 0.930 . S
H533 C530 0.929 . S
S534 N535 1.613 . S
S534 N536 1.610 . S
N535 S534 1.613 . S
N535 C538 1.350 . S
N536 S534 1.610 . S
N536 C537 1.351 . S
C537 C531 1.428 . S
C537 N536 1.351 . S
C537 C538 1.434 . S
C538 C529 1.429 . S
C538 N535 1.350 . S
C538 C537 1.434 . S
C539 C540 1.369 . S
C539 C541 1.419 . S
C539 H543 0.930 . S
C540 C539 1.369 . S
C540 C549 1.429 . S
C541 C539 1.419 . S
C541 C542 1.363 . S
C541 H544 0.929 . S
C542 C541 1.363 . S
C542 C548 1.428 . S
H543 C539 0.930 . S
H544 C541 0.929 . S
S545 N546 1.613 . S
S545 N547 1.610 . S
N546 S545 1.613 . S
N546 C549 1.350 . S
N547 S545 1.610 . S
N547 C548 1.351 . S
C548 C542 1.428 . S
C548 N547 1.351 . S
C548 C549 1.434 . S
C549 C540 1.429 . S
C549 N546 1.350 . S
C549 C548 1.434 . S
C550 C551 1.369 . S
C550 C552 1.419 . S
C550 H554 0.930 . S
C551 C550 1.369 . S
C551 C560 1.429 1_655 S
C552 C550 1.419 . S
C552 C553 1.363 . S
C552 H555 0.929 . S
C553 C552 1.363 . S
C553 C559 1.428 1_655 S
H554 C550 0.930 . S
H555 C552 0.929 . S
S556 N557 1.613 . S
S556 N558 1.610 . S
N557 S556 1.613 . S
N557 C560 1.350 . S
N558 S556 1.610 . S
N558 C559 1.351 . S
C559 C553 1.428 1_455 S
C559 N558 1.351 . S
C559 C560 1.434 . S
C560 C551 1.429 1_455 S
C560 N557 1.350 . S
C560 C559 1.434 . S
C561 C562 1.369 . S
C561 C563 1.419 . S
C561 H565 0.930 1_565 S
C562 C561 1.369 . S
C562 C571 1.429 . S
C563 C561 1.419 . S
C563 C564 1.363 . S
C563 H566 0.929 1_565 S
C564 C563 1.363 . S
C564 C570 1.428 . S
H565 C561 0.930 1_545 S
H566 C563 0.929 1_545 S
S567 N568 1.613 . S
S567 N569 1.610 . S
N568 S567 1.613 . S
N568 C571 1.350 . S
N569 S567 1.610 . S
N569 C570 1.351 . S
C570 C564 1.428 . S
C570 N569 1.351 . S
C570 C571 1.434 . S
C571 C562 1.429 . S
C571 N568 1.350 . S
C571 C570 1.434 . S
C572 C573 1.369 1_554 S
C572 C574 1.419 1_554 S
C572 H576 0.930 . S
C573 C572 1.369 1_556 S
C573 C582 1.429 . S
C574 C572 1.419 1_556 S
C574 C575 1.363 . S
C574 H577 0.933 . S
C575 C574 1.363 . S
C575 C581 1.428 . S
H576 C572 0.930 . S
H577 C574 0.933 . S
S578 N579 1.613 . S
S578 N580 1.610 . S
N579 S578 1.613 . S
N579 C582 1.350 . S
N580 S578 1.610 . S
N580 C581 1.351 . S
C581 C575 1.428 . S
C581 N580 1.351 . S
C581 C582 1.434 . S
C582 C573 1.429 . S
C582 N579 1.350 . S
C582 C581 1.434 . S
C583 C584 1.369 . S
C583 C585 1.419 . S
C583 H587 0.930 . S
C584 C583 1.369 . S
C584 C593 1.429 . S
C585 C583 1.419 . S
C585 C586 1.363 . S
C585 H588 0.929 . S
C586 C585 1.363 . S
C586 C592 1.428 . S
H587 C583 0.930 . S
H588 C585 0.929 . S
S589 N590 1.613 . S
S589 N591 1.610 . S
N590 S589 1.613 . S
N590 C593 1.350 1_655 S
N591 S589 1.610 . S
N591 C592 1.351 1_655 S
C592 C586 1.428 . S
C592 N591 1.351 1_455 S
C592 C593 1.434 . S
C593 C584 1.429 . S
C593 N590 1.350 1_455 S
C593 C592 1.434 . S
C594 C595 1.369 . S
C594 C596 1.419 . S
C594 H598 0.930 . S
C595 C594 1.369 . S
C595 C604 1.429 . S
C596 C594 1.419 . S
C596 C597 1.363 . S
C596 H599 0.929 . S
C597 C596 1.363 . S
C597 C603 1.428 . S
H598 C594 0.930 . S
H599 C596 0.929 . S
S600 N601 1.613 . S
S600 N602 1.610 . S
N601 S600 1.613 . S
N601 C604 1.350 . S
N602 S600 1.610 . S
N602 C603 1.351 . S
C603 C597 1.428 . S
C603 N602 1.351 . S
C603 C604 1.434 . S
C604 C595 1.429 . S
C604 N601 1.350 . S
C604 C603 1.434 . S
C605 C606 1.369 . S
C605 C607 1.419 . S
C605 H609 0.930 . S
C606 C605 1.369 . S
C606 C615 1.429 . S
C607 C605 1.419 . S
C607 C608 1.363 . S
C607 H610 0.929 . S
C608 C607 1.363 . S
C608 C614 1.428 . S
H609 C605 0.930 . S
H610 C607 0.929 . S
S611 N612 1.613 . S
S611 N613 1.610 . S
N612 S611 1.613 . S
N612 C615 1.350 . S
N613 S611 1.610 . S
N613 C614 1.351 . S
C614 C608 1.428 . S
C614 N613 1.351 . S
C614 C615 1.434 . S
C615 C606 1.429 . S
C615 N612 1.350 . S
C615 C614 1.434 . S
C616 C617 1.369 . S
C616 C618 1.419 . S
C616 H620 0.930 . S
C617 C616 1.369 . S
C617 C626 1.429 . S
C618 C616 1.419 . S
C618 C619 1.363 . S
C618 H621 0.929 . S
C619 C618 1.363 . S
C619 C625 1.428 . S
H620 C616 0.930 . S
H621 C618 0.929 . S
S622 N623 1.613 . S
S622 N624 1.610 . S
N623 S622 1.613 . S
N623 C626 1.350 . S
N624 S622 1.610 . S
N624 C625 1.351 . S
C625 C619 1.428 . S
C625 N624 1.351 . S
C625 C626 1.434 . S
C626 C617 1.429 . S
C626 N623 1.350 . S
C626 C625 1.434 . S
C627 C628 1.369 . S
C627 C629 1.419 . S
C627 H631 0.930 . S
C628 C627 1.369 . S
C628 C637 1.429 . S
C629 C627 1.419 . S
C629 C630 1.363 . S
C629 H632 0.929 . S
C630 C629 1.363 . S
C630 C636 1.428 . S
H631 C627 0.930 . S
H632 C629 0.929 . S
S633 N634 1.613 . S
S633 N635 1.610 . S
N634 S633 1.613 . S
N634 C637 1.350 . S
N635 S633 1.610 . S
N635 C636 1.351 . S
C636 C630 1.428 . S
C636 N635 1.351 . S
C636 C637 1.434 . S
C637 C628 1.429 . S
C637 N634 1.350 . S
C637 C636 1.434 . S
C638 C639 1.369 . S
C638 C640 1.419 . S
C638 H642 0.930 . S
C639 C638 1.369 . S
C639 C648 1.429 . S
C640 C638 1.419 . S
C640 C641 1.363 . S
C640 H643 0.929 . S
C641 C640 1.363 . S
C641 C647 1.428 . S
H642 C638 0.930 . S
H643 C640 0.929 . S
S644 N645 1.613 . S
S644 N646 1.610 . S
N645 S644 1.613 . S
N645 C648 1.350 . S
N646 S644 1.610 . S
N646 C647 1.351 . S
C647 C641 1.428 . S
C647 N646 1.351 . S
C647 C648 1.434 . S
C648 C639 1.429 . S
C648 N645 1.350 . S
C648 C647 1.434 . S
C649 C650 1.369 . S
C649 C651 1.419 . S
C649 H653 0.930 . S
C650 C649 1.369 . S
C650 C659 1.429 . S
C651 C649 1.419 . S
C651 C652 1.353 1_556 S
C651 H654 0.929 . S
C652 C651 1.353 1_554 S
C652 C658 1.424 1_554 S
H653 C649 0.930 . S
H654 C651 0.929 . S
S655 N656 1.613 . S
S655 N657 1.610 1_556 S
N656 S655 1.613 . S
N656 C659 1.350 . S
N657 S655 1.610 1_554 S
N657 C658 1.351 1_554 S
C658 C652 1.424 1_556 S
C658 N657 1.351 1_556 S
C658 C659 1.434 . S
C659 C650 1.429 . S
C659 N656 1.350 . S
C659 C658 1.434 . S
C529 C29 1.361 . S
C531 C313 1.367 . S
C540 C117 1.368 . S
C542 C401 1.362 . S
C551 C489 1.363 . S
C553 C205 1.365 . S
C562 C57 1.368 . S
C564 C284 1.362 . S
C573 C145 1.367 1_556 S
C575 C372 1.362 . S
C584 C460 1.363 . S
C586 C233 1.364 . S
C595 C108 1.587 . S
C597 C49 1.582 . S
C606 C196 1.582 . S
C608 C137 1.583 . S
C617 C225 1.579 . S
C619 C293 1.586 . S
C628 C381 1.587 . S
C630 C321 1.580 . S
C639 C469 1.585 . S
C641 C409 1.580 . S
C650 C497 1.581 . S
C652 C20 1.594 . S
