# Generated by pormake.
# Topology sxb, (6)-cn, num edge types: 1
# Building blocks:
#     Node 0, Type 0, BuildingBlock: HISSIN_clean_sbu_0, # of connection points: 6
#     Node 1, Type 0, BuildingBlock: HISSIN_clean_sbu_0, # of connection points: 6
#     Node 2, Type 0, BuildingBlock: HISSIN_clean_sbu_0, # of connection points: 6
#     Node 3, Type 0, BuildingBlock: HISSIN_clean_sbu_0, # of connection points: 6
#     Edge 4, Type (0, 0), BuildingBlock: XIVTED_clean_linker_0, # of connection points: 2
#     Edge 5, Type (0, 0), BuildingBlock: XIVTED_clean_linker_0, # of connection points: 2
#     Edge 6, Type (0, 0), BuildingBlock: XIVTED_clean_linker_0, # of connection points: 2
#     Edge 7, Type (0, 0), BuildingBlock: XIVTED_clean_linker_0, # of connection points: 2
#     Edge 8, Type (0, 0), BuildingBlock: XIVTED_clean_linker_0, # of connection points: 2
#     Edge 9, Type (0, 0), BuildingBlock: XIVTED_clean_linker_0, # of connection points: 2
#     Edge 10, Type (0, 0), BuildingBlock: XIVTED_clean_linker_0, # of connection points: 2
#     Edge 11, Type (0, 0), BuildingBlock: XIVTED_clean_linker_0, # of connection points: 2
#     Edge 12, Type (0, 0), BuildingBlock: XIVTED_clean_linker_0, # of connection points: 2
#     Edge 13, Type (0, 0), BuildingBlock: XIVTED_clean_linker_0, # of connection points: 2
#     Edge 14, Type (0, 0), BuildingBlock: XIVTED_clean_linker_0, # of connection points: 2
#     Edge 15, Type (0, 0), BuildingBlock: XIVTED_clean_linker_0, # of connection points: 2
# Relax obj value: 0.414
# Max RMSD: 0.120
# Mean RMSD: 0.091
data_MOF--net-sxb--node1-HISSIN_clean_sbu_0--edge1-XIVTED_clean_linker_0
_symmetry_space_group_name_H-M    P1
_symmetry_Int_Tables_number       1
_symmetry_cell_setting            triclinic
loop_
_symmetry_equiv_pos_as_xyz
'x, y, z'
_cell_length_a     15.914386
_cell_length_b     36.213427
_cell_length_c     31.11527
_cell_angle_alpha  99.242791
_cell_angle_beta   94.972445
_cell_angle_gamma 59.646902
loop_
_atom_site_label
_atom_site_type_symbol
_atom_site_fract_x
_atom_site_fract_y
_atom_site_fract_z
_atom_type_partial_charge
Eu0 Eu 1.01299 1.072 0.00177 0.0
Eu1 Eu 0.21235 1.07338 0.01848 0.0
C2 C 0.09841 1.07582 0.10066 0.0
C3 C 0.80688 0.09064 0.93064 0.0
C4 C 0.83741 0.11373 0.91004 0.0
C5 C 0.69197 0.0977 0.8719 0.0
C6 C 0.79315 0.13002 0.87142 0.0
C7 C 0.73549 1.08187 0.91087 0.0
C8 C 0.71908 0.12265 0.85225 0.0
C9 C 0.85362 1.07458 0.97165 0.0
O10 O 0.25597 1.00202 0.00763 0.0
O11 O 0.11232 1.00792 0.02506 0.0
C12 C 0.2063 0.98448 0.01774 0.0
O13 O 0.09634 1.04747 0.93895 0.0
O14 O 0.35833 1.04794 -0.00617 0.0
O15 O 0.30483 0.09924 0.04841 0.0
O16 O 0.15524 0.09278 0.95203 0.0
C17 C 0.12775 1.06995 0.92417 0.0
O18 O 0.97714 0.13986 -0.00616 0.0
O19 O 0.09634 0.14252 0.03761 0.0
O20 O 0.18214 1.06662 0.08501 0.0
O21 O 0.93838 1.03949 0.96687 0.0
O22 O 0.85436 0.10358 0.00246 0.0
O23 O 1.02162 1.08282 0.07562 0.0
C24 C 0.36503 0.10955 -0.01293 0.0
C25 C 0.42948 0.09149 0.95192 0.0
C26 C 0.26874 0.17506 0.95286 0.0
C27 C 0.41155 0.11419 0.91684 0.0
C28 C 0.28602 0.15214 -0.01219 0.0
C29 C 0.32921 0.15556 0.91636 0.0
C30 C 0.36412 1.08068 0.0153 0.0
C31 C 1.01336 0.16226 0.01701 0.0
H32 H 0.89423 0.11995 0.92433 0.0
H33 H 0.63312 0.09246 0.85846 0.0
H34 H 0.8145 0.14949 0.85729 0.0
H35 H 0.71202 1.06365 0.92595 0.0
H36 H 0.48999 1.05867 0.95022 0.0
H37 H 0.20602 0.20722 0.95357 0.0
H38 H 0.46139 0.09903 0.88963 0.0
H39 H 0.23396 0.16689 0.01412 0.0
Eu40 Eu 0.16264 1.02679 0.50336 0.0
Eu41 Eu 1.04389 0.1326 0.51988 0.0
C42 C 0.10329 1.07866 0.60185 0.0
C43 C 0.21061 0.91564 0.50039 0.0
C44 C 0.14743 0.93052 0.53583 0.0
C45 C 0.16589 0.86088 0.47533 0.0
C46 C 0.09153 0.91171 0.54016 0.0
C47 C 0.22217 0.87976 0.47103 0.0
C48 C 0.09705 0.87796 0.50891 0.0
C49 C 0.24744 0.94279 0.48949 0.0
O50 O 0.20287 0.11532 0.52827 0.0
O51 O 0.27998 1.04421 0.49703 0.0
C52 C 0.28224 1.07976 0.51303 0.0
O53 O 0.09511 1.05024 0.4394 0.0
O54 O 1.00473 0.19505 0.55794 0.0
O55 O 0.93971 0.19238 0.49429 0.0
O56 O 0.1029 0.11182 0.45157 0.0
C57 C 0.09695 1.0816 0.42454 0.0
O58 O 1.00974 1.04288 0.5189 0.0
O59 O 0.9247 0.11434 0.50865 0.0
O60 O 1.04843 0.11569 0.5869 0.0
O61 O 0.19589 0.96741 0.46014 0.0
O62 O 0.26933 0.96381 0.5223 0.0
O63 O 0.15697 1.04252 0.57642 0.0
C64 C 0.98802 0.24439 0.51366 0.0
C65 C 1.06564 0.22652 0.48447 0.0
C66 C 0.9995 0.30946 0.52972 0.0
C67 C 0.11154 0.24945 0.47878 0.0
C68 C 0.95323 0.28643 0.53531 0.0
C69 C 1.08114 0.29056 0.50245 0.0
C70 C 0.95483 0.21658 0.5262 0.0
C71 C 0.92663 1.07849 0.51417 0.0
H72 H 0.13648 0.9585 0.55869 0.0
H73 H 0.17147 0.83496 0.45069 0.0
H74 H 1.04044 0.92499 0.56682 0.0
H75 H 0.26972 0.86822 0.44322 0.0
H76 H 0.09446 0.19381 0.46794 0.0
H77 H 0.97402 0.34128 0.54802 0.0
H78 H 0.175 0.23371 0.45806 0.0
H79 H 0.89369 0.30055 0.55813 0.0
Eu80 Eu 0.50062 0.57899 0.00574 0.0
Eu81 Eu 0.71458 0.56615 0.01147 0.0
C82 C 0.60493 0.57595 0.09945 0.0
C83 C 0.27536 0.61014 0.94563 0.0
C84 C 0.27624 0.64606 0.9341 0.0
C85 C 0.20615 0.60127 0.87496 0.0
C86 C 0.24159 0.65963 0.89333 0.0
C87 C 0.23926 0.58817 0.91581 0.0
C88 C 0.20818 0.63675 0.86307 0.0
C89 C 0.32961 0.59035 -0.01585 0.0
O90 O 0.73916 0.5041 0.03055 0.0
O91 O 0.60568 0.50634 -0.00534 0.0
C92 C 0.69095 0.48467 0.01351 0.0
O93 O 0.5274 0.59479 0.94318 0.0
O94 O 0.86907 0.52614 -0.00426 0.0
O95 O 0.81127 0.59331 0.02274 0.0
O96 O 0.6869 0.5455 0.94175 0.0
C97 C 0.60729 0.56977 0.92114 0.0
O98 O 0.47758 0.64568 0.02984 0.0
O99 O 0.61295 0.6351 -0.00166 0.0
O100 O 0.669 0.58223 0.08222 0.0
O101 O 0.40896 0.5535 0.9747 0.0
O102 O 0.34303 0.61543 0.01569 0.0
O103 O 0.54167 0.56819 0.07547 0.0
C104 C 0.89847 0.56965 0.95726 0.0
C105 C 0.89491 0.54561 0.9174 0.0
C106 C 0.8916 0.62322 0.91689 0.0
C107 C 0.88724 0.56078 0.8779 0.0
C108 C 0.89924 0.60807 0.95641 0.0
C109 C 0.88288 0.60033 0.87722 0.0
C110 C 0.87888 0.56014 -0.00139 0.0
C111 C 0.52677 0.66135 0.01567 0.0
H112 H 0.3062 0.66297 0.95608 0.0
H113 H 0.1774 0.58396 0.85279 0.0
H114 H 0.24192 0.68755 0.88524 0.0
H115 H 0.23959 0.55998 0.92361 0.0
H116 H 0.89334 0.51596 0.91662 0.0
H117 H 0.89246 0.65302 0.91749 0.0
H118 H 0.88219 0.54203 0.848 0.0
H119 H 0.90123 0.62742 -0.01352 0.0
Eu120 Eu 0.6578 0.52962 0.50489 0.0
Eu121 Eu 0.54012 0.63457 0.51884 0.0
C122 C 0.60077 0.5829 0.6002 0.0
C123 C 0.69364 0.42053 0.50443 0.0
C124 C 0.61777 0.43876 0.53466 0.0
C125 C 0.6591 0.36245 0.48001 0.0
C126 C 0.56159 0.41963 0.53687 0.0
C127 C 0.71567 0.38169 0.47785 0.0
C128 C 0.5798 0.38195 0.50875 0.0
C129 C 0.73799 0.44574 0.49631 0.0
O130 O 0.70071 0.61575 0.52789 0.0
O131 O 0.77623 0.54518 0.49516 0.0
C132 C 0.77947 0.58042 0.5115 0.0
O133 O 0.60169 0.55004 0.43866 0.0
O134 O 0.50722 0.69553 0.55864 0.0
O135 O 0.43568 0.69581 0.49601 0.0
O136 O 0.59799 0.6145 0.45046 0.0
C137 C 0.60049 0.58214 0.42373 0.0
O138 O 0.50218 0.54795 0.51968 0.0
O139 O 0.42039 0.61725 0.50313 0.0
O140 O 0.52952 0.61533 0.58266 0.0
O141 O 0.69949 0.46803 0.46397 0.0
O142 O 0.75069 0.4685 0.53041 0.0
O143 O 0.67109 0.55091 0.57606 0.0
C144 C 0.49246 0.74508 0.515 0.0
C145 C 0.55394 0.72963 0.47885 0.0
C146 C 0.53574 0.80075 0.53679 0.0
C147 C 0.60828 0.74867 0.47253 0.0
C148 C 0.48093 0.7817 0.54304 0.0
C149 C 0.60301 0.78318 0.5025 0.0
C150 C 0.45636 0.71834 0.52778 0.0
C151 C 0.42012 0.58264 0.51124 0.0
H152 H 0.59848 0.46909 0.5551 0.0
H153 H 0.67542 0.33313 0.4583 0.0
H154 H 0.50028 0.43587 0.55887 0.0
H155 H 0.77353 0.36737 0.45413 0.0
H156 H 0.56469 0.70117 0.4569 0.0
H157 H 0.53036 0.82725 0.5605 0.0
H158 H 0.65808 0.735 0.44534 0.0
H159 H 0.43454 0.79376 0.57133 0.0
H160 H 0.60868 0.70614 -0.00839 0.0
H161 H 0.12848 0.93847 0.04195 0.0
H162 H 0.34392 0.72571 0.0432 0.0
H163 H 0.39667 0.92168 -0.00246 0.0
H164 H 0.20715 0.86071 0.04255 0.0
H165 H 0.5336 0.78441 -0.00666 0.0
C166 C 0.53485 0.72681 0.0034 0.0
C167 C 0.48279 0.70904 0.01733 0.0
C168 C 0.2491 0.87392 0.03276 0.0
C169 C 0.396 0.79911 0.01927 0.0
C170 C 0.2041 0.91852 0.03239 0.0
C171 C 0.2557 0.93701 0.0196 0.0
C172 C 0.34684 0.84707 0.02011 0.0
C173 C 0.35375 0.9091 0.00768 0.0
C174 C 0.492 0.77161 0.00439 0.0
C175 C 0.38723 0.73771 0.03222 0.0
N176 N 0.3959 0.86565 0.00809 0.0
N177 N 0.34711 0.78111 0.0327 0.0
H178 H 0.61982 0.431 0.97763 0.0
H179 H 1.07313 0.21814 0.05809 0.0
H180 H 0.86328 0.42983 0.05154 0.0
H181 H 0.84036 0.21586 0.97769 0.0
H182 H 0.99403 0.29598 0.05762 0.0
H183 H 0.69571 0.35304 0.97891 0.0
C184 C 0.68907 0.41448 -0.00579 0.0
C185 C 0.73501 0.4373 0.01447 0.0
C186 C 0.95995 0.27857 0.04012 0.0
C187 C 0.82258 0.34766 0.01606 0.0
C188 C 1.00517 0.23394 0.0404 0.0
C189 C 0.96359 0.2101 0.01791 0.0
C190 C 0.87191 0.3 0.01727 0.0
C191 C 0.87526 0.23273 -0.00443 0.0
C192 C 0.73247 0.36986 -0.00512 0.0
C193 C 0.82487 0.41385 0.0354 0.0
N194 N 0.8325 0.27629 -0.00418 0.0
N195 N 0.86543 0.37054 0.03563 0.0
H196 H 0.13716 0.32916 0.57256 0.0
H197 H 0.50662 0.35343 0.43654 0.0
H198 H 0.16758 0.29608 0.43302 0.0
H199 H 0.49244 0.37518 0.57691 0.0
H200 H 0.37883 0.33459 0.43405 0.0
H201 H 0.2581 0.35179 0.57397 0.0
C202 C 0.16785 0.32747 0.54208 0.0
C203 C 0.14241 0.31062 0.5026 0.0
C204 C 0.40397 0.34331 0.4654 0.0
C205 C 0.2829 0.3354 0.50411 0.0
C206 C 0.47773 0.35358 0.46687 0.0
C207 C 0.51037 0.36584 0.50701 0.0
C208 C 0.36238 0.3454 0.50435 0.0
C209 C 0.46876 0.36636 0.54524 0.0
C210 C 0.23787 0.33988 0.54298 0.0
C211 C 0.18595 0.30844 0.46422 0.0
N212 N 0.39675 0.35643 0.54295 0.0
N213 N 0.25451 0.32045 0.46595 0.0
H214 H 0.90188 0.92902 0.52319 0.0
H215 H 0.79758 0.73233 0.48656 0.0
H216 H 0.12558 0.79556 0.49323 0.0
H217 H 0.57339 0.86581 0.51583 0.0
H218 H 0.91801 0.75504 0.48747 0.0
H219 H 0.78068 0.90651 0.52061 0.0
C220 C 0.9257 0.89486 0.51659 0.0
C221 C 1.02421 0.86401 0.50886 0.0
C222 C 0.84247 0.77943 0.49346 0.0
C223 C 0.88527 0.83811 0.50502 0.0
C224 C 0.77341 0.76654 0.49255 0.0
C225 C 0.67503 0.79731 0.50075 0.0
C226 C 0.81324 0.82345 0.50277 0.0
C227 C 0.64848 0.84104 0.50953 0.0
C228 C 0.85624 0.88208 0.51475 0.0
C229 C 1.05041 0.82037 0.49927 0.0
N230 N 0.7173 0.85282 0.51031 0.0
N231 N 0.98128 0.80869 0.4977 0.0
H232 H 0.29751 0.23719 0.91558 0.0
H233 H 0.66007 0.09355 0.77468 0.0
H234 H 0.31837 0.12686 0.83026 0.0
H235 H 0.63152 0.20971 0.85028 0.0
H236 H 0.49343 0.13477 0.74898 0.0
H237 H 0.34455 0.25852 0.85556 0.0
C238 C 0.30858 0.21828 0.88371 0.0
C239 C 0.3119 0.17843 0.87841 0.0
C240 C 0.52422 0.15193 0.76995 0.0
C241 C 0.37216 0.20079 0.8109 0.0
C242 C 0.61999 0.12817 0.7845 0.0
C243 C 0.65582 0.14764 0.81777 0.0
C244 C 0.46379 0.19332 0.79253 0.0
C245 C 0.60342 0.19278 0.8272 0.0
C246 C 0.33549 0.23042 0.84921 0.0
C247 C 0.32216 0.15628 0.83619 0.0
N248 N 0.50777 0.21421 0.81593 0.0
N249 N 0.35491 0.16702 0.80411 0.0
H250 H 0.31269 0.14954 0.52791 0.0
H251 H 0.89863 1.00882 0.51349 0.0
H252 H 0.46983 1.01061 0.4991 0.0
H253 H 0.73718 0.1471 0.51561 0.0
H254 H 0.74426 1.00887 0.51315 0.0
H255 H 0.46724 0.14928 0.52837 0.0
C256 C 0.37949 0.11888 0.5218 0.0
C257 C 0.37704 1.08001 0.51347 0.0
C258 C 0.74245 1.03924 0.51368 0.0
C259 C 0.55646 1.07953 0.5142 0.0
C260 C 0.83101 1.0393 0.51398 0.0
C261 C 0.83215 1.07806 0.51452 0.0
C262 C 0.65309 1.07828 0.51438 0.0
C263 C 0.741 0.11633 0.51508 0.0
C264 C 0.46813 0.1188 0.52195 0.0
C265 C 0.46708 1.04147 0.50557 0.0
N266 N 0.65598 0.11546 0.51514 0.0
N267 N 0.5524 1.04222 0.50633 0.0
H268 H 0.97096 0.55323 0.79925 0.0
H269 H 0.24754 0.59243 0.77982 0.0
H270 H 0.77908 0.68372 0.85751 0.0
H271 H 1.06168 0.71786 0.84981 0.0
H272 H 0.11383 0.6021 0.72977 0.0
H273 H 1.01274 0.58087 0.74396 0.0
C274 C 0.93593 0.58789 0.80004 0.0
C275 C 0.87838 0.61621 0.83545 0.0
C276 C 0.10185 0.62802 0.75568 0.0
C277 C 0.93324 0.64808 0.7744 0.0
C278 C 0.17921 0.62269 0.78386 0.0
C279 C 0.1618 0.65252 0.82157 0.0
C280 C 1.00719 0.66071 0.76886 0.0
C281 C 1.07521 0.69227 0.82323 0.0
C282 C 0.96049 0.60396 0.76831 0.0
C283 C 0.83085 0.66063 0.8329 0.0
N284 N 0.99899 0.69492 0.79786 0.0
N285 N 0.86152 0.67533 0.80369 0.0
H286 H 0.23187 0.65165 0.50927 0.0
H287 H 0.96588 0.51081 0.49749 0.0
H288 H 0.38864 0.51428 0.51335 0.0
H289 H 0.81212 0.6498 0.52519 0.0
H290 H 0.11965 0.51126 0.4977 0.0
H291 H 1.07794 0.65139 0.50965 0.0
C292 C 0.23439 0.62134 0.51015 0.0
C293 C 0.32468 0.58292 0.51129 0.0
C294 C 1.05238 0.5417 0.50378 0.0
C295 C 0.14639 0.58241 0.51142 0.0
C296 C 0.96401 0.54151 0.50356 0.0
C297 C 0.87468 0.58032 0.51147 0.0
C298 C 1.05271 0.58104 0.51137 0.0
C299 C 0.87842 0.61895 0.51918 0.0
C300 C 0.14593 0.62127 0.51049 0.0
C301 C 0.3217 0.54481 0.51254 0.0
N302 N 0.96519 0.61831 0.51871 0.0
N303 N 0.23476 0.54552 0.51236 0.0
H304 H 0.1502 0.12619 0.38053 0.0
H305 H 0.97591 1.06316 0.14592 0.0
H306 H 1.03428 1.03966 0.36016 0.0
H307 H 0.2057 0.09454 0.16412 0.0
H308 H 0.97161 1.0657 0.22525 0.0
H309 H 0.14607 0.12638 0.30167 0.0
C310 C 0.1235 0.10737 0.35951 0.0
C311 C 0.09305 1.08267 0.37695 0.0
C312 C 1.02276 1.07206 0.21171 0.0
C313 C 0.08699 1.08323 0.28677 0.0
C314 C 1.02493 1.07083 0.16657 0.0
C315 C 0.09157 1.07844 0.14838 0.0
C316 C 0.08613 1.08193 0.23881 0.0
C317 C 0.15372 1.08808 0.17667 0.0
C318 C 0.12147 0.1074 0.31453 0.0
C319 C 1.05917 1.05889 0.34809 0.0
N320 N 0.14911 0.08979 0.22041 0.0
N321 N 1.05656 1.05992 0.30442 0.0
H322 H 0.15447 0.12479 0.88287 0.0
H323 H 0.14546 1.00997 0.64307 0.0
H324 H 0.09799 1.01852 0.85741 0.0
H325 H 1.0673 0.14417 0.66871 0.0
H326 H 0.15212 1.00784 0.72162 0.0
H327 H 0.147 0.12766 0.8043 0.0
C328 C 0.14089 0.10196 0.86081 0.0
C329 C 0.1268 1.07134 0.87676 0.0
C330 C 0.13336 1.03775 0.71002 0.0
C331 C 0.11907 1.0743 0.78698 0.0
C332 C 0.12988 1.03897 0.66523 0.0
C333 C 0.10561 1.07734 0.64932 0.0
C334 C 0.11449 1.0749 0.73922 0.0
C335 C 1.08566 0.114 0.67958 0.0
C336 C 0.13622 0.10378 0.81603 0.0
C337 C 0.10928 1.04264 0.84661 0.0
N338 N 0.09135 0.1118 0.7231 0.0
N339 N 0.10649 1.04465 0.8032 0.0
H340 H 0.63693 0.63298 0.38062 0.0
H341 H 0.52203 0.54377 0.14465 0.0
H342 H 0.56746 0.5306 0.35811 0.0
H343 H 0.68682 0.61007 0.1634 0.0
H344 H 0.52149 0.54532 0.22339 0.0
H345 H 0.63932 0.63159 0.30171 0.0
C346 C 0.62201 0.61026 0.35913 0.0
C347 C 0.60202 0.58182 0.37607 0.0
C348 C 0.55791 0.55948 0.21029 0.0
C349 C 0.604 0.58035 0.28576 0.0
C350 C 0.55792 0.55878 0.16531 0.0
C351 C 0.60458 0.57683 0.14729 0.0
C352 C 0.60366 0.57889 0.23773 0.0
C353 C 0.65031 0.59561 0.17581 0.0
C354 C 0.62378 0.6094 0.31411 0.0
C355 C 0.58354 0.55301 0.34659 0.0
N356 N 0.64823 0.59639 0.21963 0.0
N357 N 0.58444 0.55319 0.30295 0.0
H358 H 0.46075 0.63973 0.66021 0.0
H359 H 0.75503 0.517 0.86299 0.0
H360 H 0.7426 0.52376 0.64876 0.0
H361 H 0.46052 0.6244 0.87106 0.0
H362 H 0.75504 0.5207 0.78513 0.0
H363 H 0.46256 0.63648 0.73817 0.0
C364 C 0.52318 0.61364 0.67405 0.0
C365 C 0.60161 0.58196 0.64776 0.0
C366 C 0.69034 0.54341 0.80392 0.0
C367 C 0.60414 0.57804 0.73721 0.0
C368 C 0.69042 0.54138 0.84843 0.0
C369 C 0.6079 0.57055 0.87369 0.0
C370 C 0.60704 0.57483 0.78445 0.0
C371 C 0.52586 0.60122 0.85292 0.0
C372 C 0.52407 0.61175 0.71861 0.0
C373 C 0.6804 0.54888 0.66765 0.0
N374 N 0.52761 0.6026 0.80962 0.0
N375 N 0.67967 0.54782 0.71111 0.0
loop_
_geom_bond_atom_site_label_1
_geom_bond_atom_site_label_2
_geom_bond_distance
_geom_bond_site_symmetry_2
_ccdc_geom_bond_type
Eu0 C9 2.828 . S
Eu0 O11 2.392 1_655 S
Eu0 O13 2.418 . S
Eu0 O18 2.373 1_565 S
Eu0 O21 2.488 . S
Eu0 O22 2.471 1_556 S
Eu0 O23 2.349 1_556 S
Eu1 O10 2.373 1_545 S
Eu1 O14 2.488 . S
Eu1 O15 2.471 1_554 S
Eu1 O16 2.349 1_554 S
Eu1 O19 2.392 1_455 S
Eu1 O20 2.418 . S
Eu1 C30 2.828 . S
C2 O20 1.244 . S
C2 O23 1.265 1_445 S
C3 C4 1.379 1_556 S
C3 C7 1.373 . S
C3 C9 1.505 1_545 S
C4 C3 1.379 1_554 S
C4 C6 1.369 . S
C4 H32 0.930 . S
C5 C7 1.383 . S
C5 C8 1.382 1_556 S
C5 H33 0.930 . S
C6 C4 1.369 . S
C6 C8 1.392 . S
C6 H34 0.930 . S
C7 C3 1.373 . S
C7 C5 1.383 . S
C7 H35 0.931 1_545 S
C8 C5 1.382 1_554 S
C8 C6 1.392 . S
C9 Eu0 2.828 . S
C9 C3 1.505 1_565 S
C9 O21 1.249 . S
C9 O22 1.244 1_556 S
O10 Eu1 2.373 1_565 S
O10 C12 1.258 . S
O11 Eu0 2.392 1_455 S
O11 C12 1.241 1_556 S
C12 O10 1.258 . S
C12 O11 1.241 1_554 S
O13 Eu0 2.418 . S
O13 C17 1.244 . S
O14 Eu1 2.488 . S
O14 C30 1.249 . S
O15 Eu1 2.471 1_556 S
O15 C30 1.244 1_556 S
O16 Eu1 2.349 1_556 S
O16 C17 1.265 1_445 S
C17 O13 1.244 . S
C17 O16 1.265 1_665 S
O18 Eu0 2.373 1_545 S
O18 C31 1.258 1_556 S
O19 Eu1 2.392 1_655 S
O19 C31 1.241 . S
O20 Eu1 2.418 . S
O20 C2 1.244 . S
O21 Eu0 2.488 . S
O21 C9 1.249 . S
O22 Eu0 2.471 1_554 S
O22 C9 1.244 1_554 S
O23 Eu0 2.349 1_554 S
O23 C2 1.265 1_665 S
C24 C25 1.379 1_554 S
C24 C28 1.382 . S
C24 C30 1.505 1_565 S
C25 C24 1.379 1_556 S
C25 C27 1.369 . S
C25 H36 0.930 . S
C26 C28 1.385 . S
C26 C29 1.382 1_554 S
C26 H37 0.930 . S
C27 C25 1.369 . S
C27 C29 1.392 . S
C27 H38 0.930 . S
C28 C24 1.382 . S
C28 C26 1.385 . S
C28 H39 0.921 1_565 S
C29 C26 1.382 1_556 S
C29 C27 1.392 . S
C30 Eu1 2.828 . S
C30 O14 1.249 . S
C30 O15 1.244 1_554 S
C30 C24 1.505 1_545 S
C31 O18 1.258 1_554 S
C31 O19 1.241 . S
H32 C4 0.930 . S
H33 C5 0.930 . S
H34 C6 0.930 . S
H35 C7 0.931 1_565 S
H36 C25 0.930 . S
H37 C26 0.930 . S
H38 C27 0.930 . S
H39 C28 0.921 1_545 S
Eu40 C49 2.828 1_455 S
Eu40 O51 2.392 . S
Eu40 O53 2.418 1_455 S
Eu40 O58 2.373 1_455 S
Eu40 O61 2.488 1_455 S
Eu40 O62 2.471 1_455 S
Eu40 O63 2.349 . S
Eu41 O50 2.373 1_655 S
Eu41 O54 2.488 1_655 S
Eu41 O55 2.471 1_655 S
Eu41 O56 2.349 . S
Eu41 O59 2.392 . S
Eu41 O60 2.418 1_655 S
Eu41 C70 2.828 1_655 S
C42 O60 1.241 . S
C42 O63 1.265 1_545 S
C43 C44 1.379 . S
C43 C47 1.373 . S
C43 C49 1.505 . S
C44 C43 1.379 . S
C44 C46 1.369 . S
C44 H72 0.930 . S
C45 C47 1.383 . S
C45 C48 1.382 . S
C45 H73 0.930 . S
C46 C44 1.369 . S
C46 C48 1.392 . S
C46 H74 0.930 . S
C47 C43 1.373 . S
C47 C45 1.383 . S
C47 H75 0.931 . S
C48 C45 1.382 . S
C48 C46 1.392 . S
C49 Eu40 2.828 1_655 S
C49 C43 1.505 . S
C49 O61 1.249 . S
C49 O62 1.244 . S
O50 Eu41 2.373 1_455 S
O50 C52 1.258 1_545 S
O51 Eu40 2.392 . S
O51 C52 1.242 . S
C52 O50 1.258 1_565 S
C52 O51 1.242 . S
O53 Eu40 2.418 1_655 S
O53 C57 1.242 . S
O54 Eu41 2.488 1_455 S
O54 C70 1.249 . S
O55 Eu41 2.471 1_455 S
O55 C70 1.244 . S
O56 Eu41 2.349 . S
O56 C57 1.265 1_545 S
C57 O53 1.242 . S
C57 O56 1.265 1_565 S
O58 Eu40 2.373 1_655 S
O58 C71 1.258 1_565 S
O59 Eu41 2.392 . S
O59 C71 1.242 . S
O60 Eu41 2.418 1_455 S
O60 C42 1.241 . S
O61 Eu40 2.488 1_655 S
O61 C49 1.249 . S
O62 Eu40 2.471 1_655 S
O62 C49 1.244 . S
O63 Eu40 2.349 . S
O63 C42 1.265 1_565 S
C64 C65 1.379 . S
C64 C68 1.373 . S
C64 C70 1.505 . S
C65 C64 1.379 . S
C65 C67 1.369 . S
C65 H76 0.930 . S
C66 C68 1.383 . S
C66 C69 1.382 . S
C66 H77 0.930 . S
C67 C65 1.369 . S
C67 C69 1.392 . S
C67 H78 0.930 . S
C68 C64 1.373 . S
C68 C66 1.383 . S
C68 H79 0.931 . S
C69 C66 1.382 . S
C69 C67 1.392 . S
C70 Eu41 2.828 1_455 S
C70 O54 1.249 . S
C70 O55 1.244 . S
C70 C64 1.505 . S
C71 O58 1.258 1_545 S
C71 O59 1.242 . S
H72 C44 0.930 . S
H73 C45 0.930 . S
H74 C46 0.930 . S
H75 C47 0.931 . S
H76 C65 0.930 . S
H77 C66 0.930 . S
H78 C67 0.930 . S
H79 C68 0.931 . S
Eu80 C89 2.828 . S
Eu80 O91 2.392 . S
Eu80 O93 2.418 . S
Eu80 O98 2.373 . S
Eu80 O101 2.488 . S
Eu80 O102 2.471 1_556 S
Eu80 O103 2.349 1_556 S
Eu81 O90 2.373 . S
Eu81 O94 2.488 . S
Eu81 O95 2.471 1_554 S
Eu81 O96 2.349 1_554 S
Eu81 O99 2.392 . S
Eu81 O100 2.418 . S
Eu81 C110 2.828 . S
C82 O100 1.244 . S
C82 O103 1.265 . S
C83 C84 1.379 1_556 S
C83 C87 1.373 . S
C83 C89 1.505 . S
C84 C83 1.379 1_554 S
C84 C86 1.369 . S
C84 H112 0.930 . S
C85 C87 1.383 . S
C85 C88 1.382 1_556 S
C85 H113 0.930 . S
C86 C84 1.369 . S
C86 C88 1.392 . S
C86 H114 0.930 . S
C87 C83 1.373 . S
C87 C85 1.383 . S
C87 H115 0.931 . S
C88 C85 1.382 1_554 S
C88 C86 1.392 . S
C89 Eu80 2.828 . S
C89 C83 1.505 . S
C89 O101 1.249 . S
C89 O102 1.244 1_556 S
O90 Eu81 2.373 . S
O90 C92 1.258 . S
O91 Eu80 2.392 . S
O91 C92 1.241 1_556 S
C92 O90 1.258 . S
C92 O91 1.241 1_554 S
O93 Eu80 2.418 . S
O93 C97 1.244 . S
O94 Eu81 2.488 . S
O94 C110 1.249 . S
O95 Eu81 2.471 1_556 S
O95 C110 1.244 1_556 S
O96 Eu81 2.349 1_556 S
O96 C97 1.265 . S
C97 O93 1.244 . S
C97 O96 1.265 . S
O98 Eu80 2.373 . S
O98 C111 1.258 1_556 S
O99 Eu81 2.392 . S
O99 C111 1.241 . S
O100 Eu81 2.418 . S
O100 C82 1.244 . S
O101 Eu80 2.488 . S
O101 C89 1.249 . S
O102 Eu80 2.471 1_554 S
O102 C89 1.244 1_554 S
O103 Eu80 2.349 1_554 S
O103 C82 1.265 . S
C104 C105 1.379 1_554 S
C104 C108 1.373 . S
C104 C110 1.505 . S
C105 C104 1.379 1_556 S
C105 C107 1.369 . S
C105 H116 0.930 . S
C106 C108 1.383 . S
C106 C109 1.382 1_554 S
C106 H117 0.930 . S
C107 C105 1.369 . S
C107 C109 1.392 . S
C107 H118 0.930 . S
C108 C104 1.373 . S
C108 C106 1.383 . S
C108 H119 0.931 . S
C109 C106 1.382 1_556 S
C109 C107 1.392 . S
C110 Eu81 2.828 . S
C110 O94 1.249 . S
C110 O95 1.244 1_554 S
C110 C104 1.505 . S
C111 O98 1.258 1_554 S
C111 O99 1.241 . S
H112 C84 0.930 . S
H113 C85 0.930 . S
H114 C86 0.930 . S
H115 C87 0.931 . S
H116 C105 0.930 . S
H117 C106 0.930 . S
H118 C107 0.930 . S
H119 C108 0.931 . S
Eu120 C129 2.828 . S
Eu120 O131 2.392 . S
Eu120 O133 2.418 . S
Eu120 O138 2.373 . S
Eu120 O141 2.488 . S
Eu120 O142 2.471 . S
Eu120 O143 2.349 . S
Eu121 O130 2.373 . S
Eu121 O134 2.488 . S
Eu121 O135 2.471 . S
Eu121 O136 2.349 . S
Eu121 O139 2.392 . S
Eu121 O140 2.418 . S
Eu121 C150 2.828 . S
C122 O140 1.244 . S
C122 O143 1.265 . S
C123 C124 1.379 . S
C123 C127 1.373 . S
C123 C129 1.505 . S
C124 C123 1.379 . S
C124 C126 1.369 . S
C124 H152 0.930 . S
C125 C127 1.383 . S
C125 C128 1.382 . S
C125 H153 0.930 . S
C126 C124 1.369 . S
C126 C128 1.392 . S
C126 H154 0.930 . S
C127 C123 1.373 . S
C127 C125 1.383 . S
C127 H155 0.931 . S
C128 C125 1.382 . S
C128 C126 1.392 . S
C129 Eu120 2.828 . S
C129 C123 1.505 . S
C129 O141 1.249 . S
C129 O142 1.244 . S
O130 Eu121 2.373 . S
O130 C132 1.258 . S
O131 Eu120 2.392 . S
O131 C132 1.242 . S
C132 O130 1.258 . S
C132 O131 1.242 . S
O133 Eu120 2.418 . S
O133 C137 1.244 . S
O134 Eu121 2.488 . S
O134 C150 1.249 . S
O135 Eu121 2.471 . S
O135 C150 1.244 . S
O136 Eu121 2.349 . S
O136 C137 1.265 . S
C137 O133 1.244 . S
C137 O136 1.265 . S
O138 Eu120 2.373 . S
O138 C151 1.258 . S
O139 Eu121 2.392 . S
O139 C151 1.242 . S
O140 Eu121 2.418 . S
O140 C122 1.244 . S
O141 Eu120 2.488 . S
O141 C129 1.249 . S
O142 Eu120 2.471 . S
O142 C129 1.244 . S
O143 Eu120 2.349 . S
O143 C122 1.265 . S
C144 C145 1.379 . S
C144 C148 1.373 . S
C144 C150 1.505 . S
C145 C144 1.379 . S
C145 C147 1.369 . S
C145 H156 0.930 . S
C146 C148 1.383 . S
C146 C149 1.382 . S
C146 H157 0.930 . S
C147 C145 1.369 . S
C147 C149 1.392 . S
C147 H158 0.930 . S
C148 C144 1.373 . S
C148 C146 1.383 . S
C148 H159 0.931 . S
C149 C146 1.382 . S
C149 C147 1.392 . S
C150 Eu121 2.828 . S
C150 O134 1.249 . S
C150 O135 1.244 . S
C150 C144 1.505 . S
C151 O138 1.258 . S
C151 O139 1.242 . S
H152 C124 0.930 . S
H153 C125 0.930 . S
H154 C126 0.930 . S
H155 C127 0.931 . S
H156 C145 0.930 . S
H157 C146 0.930 . S
H158 C147 0.930 . S
H159 C148 0.931 . S
H160 C166 0.930 . S
H161 C170 0.930 . S
H162 C175 0.929 . S
H163 C173 0.929 . S
H164 C168 0.929 . S
H165 C174 0.929 . S
C166 H160 0.930 . S
C166 C167 1.367 . S
C166 C174 1.378 . S
C167 C166 1.367 . S
C167 C175 1.433 1_554 S
C168 H164 0.929 . S
C168 C170 1.378 . S
C168 C172 1.350 . S
C169 C172 1.463 1_554 S
C169 C174 1.350 . S
C169 N177 1.427 1_554 S
C170 H161 0.930 . S
C170 C168 1.378 . S
C170 C171 1.383 . S
C171 C170 1.383 . S
C171 C173 1.415 1_556 S
C172 C168 1.350 . S
C172 C169 1.463 1_556 S
C172 N176 1.427 1_556 S
C173 H163 0.929 . S
C173 C171 1.415 1_554 S
C173 N176 1.384 . S
C174 H165 0.929 . S
C174 C166 1.378 . S
C174 C169 1.350 . S
C175 H162 0.929 . S
C175 C167 1.433 1_556 S
C175 N177 1.384 . S
N176 C172 1.427 1_554 S
N176 C173 1.384 . S
N177 C169 1.427 1_556 S
N177 C175 1.384 . S
H178 C184 0.930 . S
H179 C188 0.930 . S
H180 C193 0.929 . S
H181 C191 0.929 . S
H182 C186 0.929 . S
H183 C192 0.929 . S
C184 H178 0.930 . S
C184 C185 1.378 . S
C184 C192 1.378 . S
C185 C184 1.378 . S
C185 C193 1.421 1_556 S
C186 H182 0.929 . S
C186 C188 1.378 . S
C186 C190 1.350 . S
C187 C190 1.463 1_556 S
C187 C192 1.350 . S
C187 N195 1.427 1_556 S
C188 H179 0.930 . S
C188 C186 1.378 . S
C188 C189 1.382 . S
C189 C188 1.382 . S
C189 C191 1.417 1_554 S
C190 C186 1.350 . S
C190 C187 1.463 1_554 S
C190 N194 1.427 1_554 S
C191 H181 0.929 . S
C191 C189 1.417 1_556 S
C191 N194 1.384 . S
C192 H183 0.929 . S
C192 C184 1.378 . S
C192 C187 1.350 . S
C193 H180 0.929 . S
C193 C185 1.421 1_554 S
C193 N195 1.384 . S
N194 C190 1.427 1_556 S
N194 C191 1.384 . S
N195 C187 1.427 1_554 S
N195 C193 1.384 . S
H196 C202 0.930 . S
H197 C206 0.930 . S
H198 C211 0.929 . S
H199 C209 0.929 . S
H200 C204 0.929 . S
H201 C210 0.929 . S
C202 H196 0.930 . S
C202 C203 1.367 . S
C202 C210 1.378 . S
C203 C202 1.367 . S
C203 C211 1.433 . S
C204 H200 0.929 . S
C204 C206 1.378 . S
C204 C208 1.350 . S
C205 C208 1.463 . S
C205 C210 1.350 . S
C205 N213 1.427 . S
C206 H197 0.930 . S
C206 C204 1.378 . S
C206 C207 1.367 . S
C207 C206 1.367 . S
C207 C209 1.433 . S
C208 C204 1.350 . S
C208 C205 1.463 . S
C208 N212 1.427 . S
C209 H199 0.929 . S
C209 C207 1.433 . S
C209 N212 1.384 . S
C210 H201 0.929 . S
C210 C202 1.378 . S
C210 C205 1.350 . S
C211 H198 0.929 . S
C211 C203 1.433 . S
C211 N213 1.384 . S
N212 C208 1.427 . S
N212 C209 1.384 . S
N213 C205 1.427 . S
N213 C211 1.384 . S
H214 C220 0.930 . S
H215 C224 0.930 . S
H216 C229 0.929 . S
H217 C227 0.929 . S
H218 C222 0.929 . S
H219 C228 0.929 . S
C220 H214 0.930 . S
C220 C221 1.367 . S
C220 C228 1.378 . S
C221 C220 1.367 . S
C221 C229 1.433 . S
C222 H218 0.929 . S
C222 C224 1.378 . S
C222 C226 1.350 . S
C223 C226 1.463 . S
C223 C228 1.350 . S
C223 N231 1.427 . S
C224 H215 0.930 . S
C224 C222 1.378 . S
C224 C225 1.367 . S
C225 C224 1.367 . S
C225 C227 1.433 . S
C226 C222 1.350 . S
C226 C223 1.463 . S
C226 N230 1.427 . S
C227 H217 0.929 . S
C227 C225 1.433 . S
C227 N230 1.384 . S
C228 H219 0.929 . S
C228 C220 1.378 . S
C228 C223 1.350 . S
C229 H216 0.929 . S
C229 C221 1.433 . S
C229 N231 1.384 . S
N230 C226 1.427 . S
N230 C227 1.384 . S
N231 C223 1.427 . S
N231 C229 1.384 . S
H232 C238 0.930 . S
H233 C242 0.930 . S
H234 C247 0.929 . S
H235 C245 0.929 . S
H236 C240 0.929 . S
H237 C246 0.929 . S
C238 H232 0.930 . S
C238 C239 1.367 1_554 S
C238 C246 1.378 . S
C239 C238 1.367 1_556 S
C239 C247 1.433 . S
C240 H236 0.929 . S
C240 C242 1.378 . S
C240 C244 1.350 1_556 S
C241 C244 1.463 1_566 S
C241 C246 1.350 1_556 S
C241 N249 1.427 1_565 S
C242 H233 0.930 . S
C242 C240 1.378 . S
C242 C243 1.367 1_556 S
C243 C242 1.367 1_554 S
C243 C245 1.433 . S
C244 C240 1.350 1_554 S
C244 C241 1.463 1_544 S
C244 N248 1.428 . S
C245 H235 0.929 . S
C245 C243 1.433 . S
C245 N248 1.386 . S
C246 H237 0.929 . S
C246 C238 1.378 . S
C246 C241 1.350 1_554 S
C247 H234 0.929 . S
C247 C239 1.433 . S
C247 N249 1.382 1_565 S
N248 C244 1.428 . S
N248 C245 1.386 . S
N249 C241 1.427 1_545 S
N249 C247 1.382 1_545 S
H250 C256 0.934 1_545 S
H251 C260 0.934 1_565 S
H252 C265 0.929 . S
H253 C263 0.929 . S
H254 C258 0.930 . S
H255 C264 0.932 . S
C256 H250 0.934 1_565 S
C256 C257 1.366 . S
C256 C264 1.372 1_565 S
C257 C256 1.366 . S
C257 C265 1.433 . S
C258 H254 0.930 . S
C258 C260 1.372 1_565 S
C258 C262 1.355 1_565 S
C259 C262 1.457 1_565 S
C259 C264 1.355 1_565 S
C259 N267 1.428 . S
C260 H251 0.934 1_545 S
C260 C258 1.372 1_545 S
C260 C261 1.368 . S
C261 C260 1.368 . S
C261 C263 1.433 . S
C262 C258 1.355 1_545 S
C262 C259 1.457 1_545 S
C262 N266 1.429 . S
C263 H253 0.929 . S
C263 C261 1.433 . S
C263 N266 1.384 . S
C264 H255 0.932 . S
C264 C256 1.372 1_545 S
C264 C259 1.355 1_545 S
C265 H252 0.929 . S
C265 C257 1.433 . S
C265 N267 1.384 . S
N266 C262 1.429 . S
N266 C263 1.384 . S
N267 C259 1.428 . S
N267 C265 1.384 . S
H268 C274 0.930 . S
H269 C278 0.930 . S
H270 C283 0.929 . S
H271 C281 0.929 . S
H272 C276 0.929 . S
H273 C282 0.929 . S
C274 H268 0.930 . S
C274 C275 1.367 1_554 S
C274 C282 1.378 . S
C275 C274 1.367 1_556 S
C275 C283 1.433 . S
C276 H272 0.929 . S
C276 C278 1.378 . S
C276 C280 1.350 1_556 S
C277 C280 1.463 1_656 S
C277 C282 1.350 1_556 S
C277 N285 1.427 . S
C278 H269 0.930 . S
C278 C276 1.378 . S
C278 C279 1.367 1_556 S
C279 C278 1.367 1_554 S
C279 C281 1.433 . S
C280 C276 1.350 1_554 S
C280 C277 1.463 1_454 S
C280 N284 1.427 . S
C281 H271 0.929 . S
C281 C279 1.433 . S
C281 N284 1.384 . S
C282 H273 0.929 . S
C282 C274 1.378 . S
C282 C277 1.350 1_554 S
C283 H270 0.929 . S
C283 C275 1.433 . S
C283 N285 1.384 . S
N284 C280 1.427 . S
N284 C281 1.384 . S
N285 C277 1.427 . S
N285 C283 1.384 . S
H286 C292 0.930 . S
H287 C296 0.930 . S
H288 C301 0.929 . S
H289 C299 0.929 . S
H290 C294 0.929 . S
H291 C300 0.929 . S
C292 H286 0.930 . S
C292 C293 1.367 . S
C292 C300 1.378 . S
C293 C292 1.367 . S
C293 C301 1.433 . S
C294 H290 0.929 . S
C294 C296 1.378 . S
C294 C298 1.350 . S
C295 C298 1.463 1_455 S
C295 C300 1.350 . S
C295 N303 1.427 . S
C296 H287 0.930 . S
C296 C294 1.378 . S
C296 C297 1.367 . S
C297 C296 1.367 . S
C297 C299 1.433 . S
C298 C294 1.350 . S
C298 C295 1.463 1_655 S
C298 N302 1.427 . S
C299 H289 0.929 . S
C299 C297 1.433 . S
C299 N302 1.384 . S
C300 H291 0.929 . S
C300 C292 1.378 . S
C300 C295 1.350 . S
C301 H288 0.929 . S
C301 C293 1.433 . S
C301 N303 1.384 . S
N302 C298 1.427 . S
N302 C299 1.384 . S
N303 C295 1.427 . S
N303 C301 1.384 . S
H304 C310 0.930 . S
H305 C314 0.930 . S
H306 C319 0.929 . S
H307 C317 0.929 . S
H308 C312 0.929 . S
H309 C318 0.929 . S
C310 H304 0.930 . S
C310 C311 1.367 1_455 S
C310 C318 1.378 . S
C311 C310 1.367 1_655 S
C311 C319 1.433 1_545 S
C312 H308 0.929 . S
C312 C314 1.378 . S
C312 C316 1.349 1_565 S
C313 C316 1.462 . S
C313 C318 1.350 1_655 S
C313 N321 1.427 1_545 S
C314 H305 0.930 . S
C314 C312 1.378 . S
C314 C315 1.370 . S
C315 C314 1.370 . S
C315 C317 1.431 1_665 S
C316 C312 1.349 1_545 S
C316 C313 1.462 . S
C316 N320 1.428 1_655 S
C317 H307 0.929 . S
C317 C315 1.431 1_445 S
C317 N320 1.384 . S
C318 H309 0.929 . S
C318 C310 1.378 . S
C318 C313 1.350 1_455 S
C319 H306 0.929 . S
C319 C311 1.433 1_565 S
C319 N321 1.384 . S
N320 C316 1.428 1_455 S
N320 C317 1.384 . S
N321 C313 1.427 1_565 S
N321 C319 1.384 . S
H322 C328 0.930 . S
H323 C332 0.930 . S
H324 C337 0.929 . S
H325 C335 0.929 . S
H326 C330 0.929 . S
H327 C336 0.929 . S
C328 H322 0.930 . S
C328 C329 1.369 . S
C328 C336 1.378 . S
C329 C328 1.369 . S
C329 C337 1.432 1_445 S
C330 H326 0.929 . S
C330 C332 1.378 . S
C330 C334 1.350 1_655 S
C331 C334 1.462 . S
C331 C336 1.347 1_565 S
C331 N339 1.430 1_455 S
C332 H323 0.930 . S
C332 C330 1.378 . S
C332 C333 1.367 1_655 S
C333 C332 1.367 1_455 S
C333 C335 1.433 1_565 S
C334 C330 1.350 1_455 S
C334 C331 1.462 . S
C334 N338 1.427 1_565 S
C335 H325 0.929 . S
C335 C333 1.433 1_545 S
C335 N338 1.384 . S
C336 H327 0.929 . S
C336 C328 1.378 . S
C336 C331 1.347 1_545 S
C337 H324 0.929 . S
C337 C329 1.432 1_665 S
C337 N339 1.384 . S
N338 C334 1.427 1_545 S
N338 C335 1.384 . S
N339 C331 1.430 1_655 S
N339 C337 1.384 . S
H340 C346 0.930 . S
H341 C350 0.930 . S
H342 C355 0.929 . S
H343 C353 0.929 . S
H344 C348 0.929 . S
H345 C354 0.929 . S
C346 H340 0.930 . S
C346 C347 1.367 . S
C346 C354 1.378 . S
C347 C346 1.367 . S
C347 C355 1.433 . S
C348 H344 0.929 . S
C348 C350 1.378 . S
C348 C352 1.350 . S
C349 C352 1.463 . S
C349 C354 1.350 . S
C349 N357 1.427 . S
C350 H341 0.930 . S
C350 C348 1.378 . S
C350 C351 1.367 . S
C351 C350 1.367 . S
C351 C353 1.433 . S
C352 C348 1.350 . S
C352 C349 1.463 . S
C352 N356 1.427 . S
C353 H343 0.929 . S
C353 C351 1.433 . S
C353 N356 1.384 . S
C354 H345 0.929 . S
C354 C346 1.378 . S
C354 C349 1.350 . S
C355 H342 0.929 . S
C355 C347 1.433 . S
C355 N357 1.384 . S
N356 C352 1.427 . S
N356 C353 1.384 . S
N357 C349 1.427 . S
N357 C355 1.384 . S
H358 C364 0.930 . S
H359 C368 0.930 . S
H360 C373 0.929 . S
H361 C371 0.929 . S
H362 C366 0.929 . S
H363 C372 0.929 . S
C364 H358 0.930 . S
C364 C365 1.367 . S
C364 C372 1.378 . S
C365 C364 1.367 . S
C365 C373 1.433 . S
C366 H362 0.929 . S
C366 C368 1.378 . S
C366 C370 1.350 . S
C367 C370 1.463 . S
C367 C372 1.350 . S
C367 N375 1.427 . S
C368 H359 0.930 . S
C368 C366 1.378 . S
C368 C369 1.367 . S
C369 C368 1.367 . S
C369 C371 1.433 . S
C370 C366 1.350 . S
C370 C367 1.463 . S
C370 N374 1.427 . S
C371 H361 0.929 . S
C371 C369 1.433 . S
C371 N374 1.384 . S
C372 H363 0.929 . S
C372 C364 1.378 . S
C372 C367 1.350 . S
C373 H360 0.929 . S
C373 C365 1.433 . S
C373 N375 1.384 . S
N374 C370 1.427 . S
N374 C371 1.384 . S
N375 C367 1.427 . S
N375 C373 1.384 . S
C167 C111 3.577 . S
C171 C12 3.578 1_556 S
C185 C92 3.578 1_556 S
C189 C31 3.578 . S
C203 C69 0.188 . S
C207 C128 0.188 . S
C221 C48 0.212 . S
C225 C149 0.212 . S
C239 C29 1.058 . S
C243 C8 1.058 . S
C257 C52 4.817 . S
C261 C71 4.817 . S
C275 C109 1.036 . S
C279 C88 1.036 . S
C293 C151 4.817 . S
C297 C132 4.817 . S
C311 C57 1.469 1_545 S
C315 C2 1.469 1_665 S
C329 C17 1.470 1_445 S
C333 C42 1.468 1_565 S
C347 C137 1.469 . S
C351 C82 1.470 . S
C365 C122 1.459 . S
C369 C97 1.466 . S
