# Generated by pormake.
# Topology zfa, (5)-cn, num edge types: 1
# Building blocks:
#     Node 0, Type 0, BuildingBlock: XOMCOT_clean_sbu_0, # of connection points: 5
#     Node 1, Type 0, BuildingBlock: XOMCOT_clean_sbu_0, # of connection points: 5
#     Node 2, Type 0, BuildingBlock: XOMCOT_clean_sbu_0, # of connection points: 5
#     Node 3, Type 0, BuildingBlock: XOMCOT_clean_sbu_0, # of connection points: 5
#     Node 4, Type 0, BuildingBlock: XOMCOT_clean_sbu_0, # of connection points: 5
#     Node 5, Type 0, BuildingBlock: XOMCOT_clean_sbu_0, # of connection points: 5
#     Node 6, Type 0, BuildingBlock: XOMCOT_clean_sbu_0, # of connection points: 5
#     Node 7, Type 0, BuildingBlock: XOMCOT_clean_sbu_0, # of connection points: 5
#     Edge 8, Type (0, 0), None
#     Edge 9, Type (0, 0), None
#     Edge 10, Type (0, 0), None
#     Edge 11, Type (0, 0), None
#     Edge 12, Type (0, 0), None
#     Edge 13, Type (0, 0), None
#     Edge 14, Type (0, 0), None
#     Edge 15, Type (0, 0), None
#     Edge 16, Type (0, 0), None
#     Edge 17, Type (0, 0), None
#     Edge 18, Type (0, 0), None
#     Edge 19, Type (0, 0), None
#     Edge 20, Type (0, 0), None
#     Edge 21, Type (0, 0), None
#     Edge 22, Type (0, 0), None
#     Edge 23, Type (0, 0), None
#     Edge 24, Type (0, 0), None
#     Edge 25, Type (0, 0), None
#     Edge 26, Type (0, 0), None
#     Edge 27, Type (0, 0), None
# Relax obj value: 0.268
# Max RMSD: 0.212
# Mean RMSD: 0.212
data_MOF--net-zfa--node1-XOMCOT_clean_sbu_0--edge1-none
_symmetry_space_group_name_H-M    P1
_symmetry_Int_Tables_number       1
_symmetry_cell_setting            triclinic
loop_
_symmetry_equiv_pos_as_xyz
'x, y, z'
_cell_length_a     16.089336
_cell_length_b     16.089306
_cell_length_c     19.270346
_cell_angle_alpha  89.995572
_cell_angle_beta   90.00439
_cell_angle_gamma 89.998074
loop_
_atom_site_label
_atom_site_type_symbol
_atom_site_fract_x
_atom_site_fract_y
_atom_site_fract_z
_atom_type_partial_charge
Co0 Co 0.14997 0.28077 0.36555 0.0
C1 C 0.08998 0.44559 0.39055 0.0
C2 C 0.17125 0.44234 0.30227 0.0
C3 C 0.12096 0.51112 0.29694 0.0
N4 N 0.14985 0.39985 0.35993 0.0
N5 N 0.06919 0.51154 0.35183 0.0
H6 H 0.05182 0.42311 0.43281 0.0
H7 H 0.2098 0.41812 0.26104 0.0
C8 C 0.23266 0.23402 0.49735 0.0
O9 O 0.27313 0.17644 0.46282 0.0
N10 N 0.14506 0.16103 0.3721 0.0
C11 C 0.17222 0.10305 0.32682 0.0
C12 C 0.12517 0.03243 0.3351 0.0
C13 C 0.08442 0.12328 0.40871 0.0
N14 N 0.06911 0.04646 0.38563 0.0
C15 C 0.28322 0.25559 0.26571 0.0
C16 C 0.41299 0.30957 0.3487 0.0
C17 C 0.43175 0.27926 0.28245 0.0
C18 C 0.36503 0.25364 0.24036 0.0
C19 C 0.32991 0.31186 0.37155 0.0
N20 N 0.26638 0.27998 0.33208 0.0
H21 H 0.233 0.23761 0.23163 0.0
H22 H 0.31725 0.34083 0.42088 0.0
H23 H 0.21523 0.11286 0.28494 0.0
H24 H 0.04362 0.15525 0.44443 0.0
O25 O 0.08558 0.27543 0.27817 0.0
O26 O 0.03076 0.28401 0.38237 0.0
O27 O 0.18544 0.28556 0.46576 0.0
C28 C 1.01842 0.27936 0.31621 0.0
H29 H 0.11491 0.55081 0.25185 0.0
H30 H 0.12395 0.97984 0.30008 0.0
H31 H 0.46167 0.33383 0.38182 0.0
H32 H 0.37574 0.23226 0.18782 0.0
Co33 Co 0.27743 0.64995 0.86558 0.0
C34 C 0.11261 0.58995 0.89058 0.0
C35 C 0.11586 0.67126 0.80231 0.0
C36 C 0.04708 0.62097 0.79698 0.0
N37 N 0.15835 0.64984 0.85996 0.0
N38 N 0.04667 0.56918 0.85187 0.0
H39 H 0.1351 0.55178 0.93284 0.0
H40 H 0.14007 0.70983 0.76109 0.0
C41 C 0.3242 0.73261 0.99737 0.0
O42 O 0.38178 0.77308 0.96283 0.0
N43 N 0.39717 0.64503 0.87211 0.0
C44 C 0.45514 0.67221 0.82682 0.0
C45 C 0.52577 0.62516 0.8351 0.0
C46 C 0.43493 0.58438 0.90871 0.0
N47 N 0.51175 0.56908 0.88562 0.0
C48 C 0.30259 0.78321 0.76573 0.0
C49 C 0.24863 0.91298 0.84873 0.0
C50 C 0.27893 0.93174 0.78247 0.0
C51 C 0.30454 0.86503 0.74038 0.0
C52 C 0.24634 0.82989 0.87158 0.0
N53 N 0.27822 0.76637 0.83211 0.0
H54 H 0.32057 0.733 0.73165 0.0
H55 H 0.21738 0.81723 0.92091 0.0
H56 H 0.44533 0.71524 0.78496 0.0
H57 H 0.40298 0.54356 0.94443 0.0
O58 O 0.28275 0.58558 0.77819 0.0
O59 O 0.2742 0.53073 0.8824 0.0
O60 O 0.27266 0.6854 0.96578 0.0
C61 C 0.27883 0.51841 0.81623 0.0
H62 H 1.00738 0.61494 0.75189 0.0
H63 H 0.57836 0.62396 0.80007 0.0
H64 H 0.22438 0.96165 0.88184 0.0
H65 H 0.32591 0.87575 0.68784 0.0
Co66 Co 0.90828 0.77745 0.36557 0.0
C67 C 0.96846 0.61275 0.39061 0.0
C68 C 0.88723 0.6159 0.30227 0.0
C69 C 0.93777 0.5473 0.29686 0.0
N70 N 0.90847 0.65837 0.35999 0.0
N71 N 0.98953 0.54704 0.35175 0.0
H72 H 1.00649 0.63525 0.43294 0.0
H73 H 0.84862 0.64007 0.26105 0.0
C74 C 0.8256 0.82423 0.49735 0.0
O75 O 0.78512 0.8818 0.4628 0.0
N76 N 0.91314 0.8972 0.37206 0.0
C77 C 0.88632 0.95509 0.32653 0.0
C78 C 0.93353 1.02563 0.33474 0.0
C79 C 0.97373 0.93491 0.40876 0.0
N80 N 0.98936 1.01155 0.38543 0.0
C81 C 0.77502 0.80254 0.26571 0.0
C82 C 0.64527 0.7486 0.34874 0.0
C83 C 0.62649 0.77888 0.28247 0.0
C84 C 0.6932 0.80447 0.24037 0.0
C85 C 0.72836 0.74632 0.37158 0.0
N86 N 0.79187 0.77819 0.3321 0.0
H87 H 0.82522 0.82047 0.23161 0.0
H88 H 0.74102 0.71738 0.42092 0.0
H89 H 0.84349 0.94523 0.28453 0.0
H90 H 1.01431 0.90296 0.44468 0.0
O91 O 0.97266 0.78279 0.27818 0.0
O92 O 1.0275 0.7743 0.38239 0.0
O93 O 0.87282 0.77269 0.46577 0.0
C94 C 0.03983 0.77892 0.31622 0.0
H95 H 0.94395 0.50768 0.25174 0.0
H96 H 0.93504 0.07811 0.2996 0.0
H97 H 0.5966 0.72436 0.38186 0.0
H98 H 0.68247 0.82582 0.18782 0.0
Co99 Co 0.78077 0.40826 0.86555 0.0
C100 C 0.94547 0.46842 0.89062 0.0
C101 C 0.94233 0.38724 0.80227 0.0
C102 C 1.01093 0.43777 0.79687 0.0
N103 N 0.89986 0.40845 0.85998 0.0
N104 N 1.01118 0.48952 0.85176 0.0
H105 H 0.92296 0.50644 0.93296 0.0
H106 H 0.91817 0.34863 0.76104 0.0
C107 C 0.73399 0.32557 0.99733 0.0
O108 O 0.67642 0.28509 0.96279 0.0
N109 N 0.66103 0.41312 0.87203 0.0
C110 C 0.60314 0.38632 0.82649 0.0
C111 C 0.5326 0.43352 0.8347 0.0
C112 C 0.62331 0.47369 0.90874 0.0
N113 N 0.54667 0.48933 0.88541 0.0
C114 C 0.7557 0.27502 0.76569 0.0
C115 C 0.80963 0.14525 0.84872 0.0
C116 C 0.77935 0.12649 0.78245 0.0
C117 C 0.75377 0.19321 0.74034 0.0
C118 C 0.81191 0.22833 0.87157 0.0
N119 N 0.78005 0.29185 0.83208 0.0
H120 H 0.73778 0.32523 0.73159 0.0
H121 H 0.84084 0.24099 0.92091 0.0
H122 H 0.61302 0.3435 0.78449 0.0
H123 H 0.65525 0.51426 0.94467 0.0
O124 O 0.77544 0.47266 0.77816 0.0
O125 O 0.78391 0.52748 0.88238 0.0
O126 O 0.78553 0.37279 0.96576 0.0
C127 C 0.77931 0.53982 0.81621 0.0
H128 H 0.05056 0.44398 0.75176 0.0
H129 H 0.48012 0.43505 0.79956 0.0
H130 H 0.83386 0.09657 0.88185 0.0
H131 H 0.73243 0.1825 0.68779 0.0
Co132 Co 0.64996 0.27742 0.20503 0.0
C133 C 0.58996 0.11261 0.18002 0.0
C134 C 0.67126 0.11585 0.26829 0.0
C135 C 0.62097 0.04707 0.27363 0.0
N136 N 0.64984 0.15834 0.21064 0.0
N137 N 0.56919 0.04666 0.21874 0.0
H138 H 0.55179 0.1351 0.13777 0.0
H139 H 0.70983 0.14006 0.30952 0.0
C140 C 0.73263 0.3242 0.07325 0.0
O141 O 0.77309 0.38178 0.10778 0.0
N142 N 0.64504 0.39717 0.1985 0.0
C143 C 0.67222 0.45513 0.24379 0.0
C144 C 0.62517 0.52576 0.23552 0.0
C145 C 0.58438 0.43492 0.16191 0.0
N146 N 0.56909 0.51175 0.18499 0.0
C147 C 0.78322 0.30259 0.30488 0.0
C148 C 0.91298 0.24862 0.22188 0.0
C149 C 0.93175 0.27892 0.28814 0.0
C150 C 0.86503 0.30453 0.33023 0.0
C151 C 0.82989 0.24633 0.19903 0.0
N152 N 0.76637 0.27821 0.2385 0.0
H153 H 0.73301 0.32056 0.33896 0.0
H154 H 0.81723 0.21737 0.1497 0.0
H155 H 0.71525 0.44532 0.28566 0.0
H156 H 0.54357 0.40297 0.12618 0.0
O157 O 0.58558 0.28274 0.29242 0.0
O158 O 0.53074 0.27419 0.18821 0.0
O159 O 0.68541 0.27266 0.10483 0.0
C160 C 0.51842 0.27883 0.25438 0.0
H161 H 0.61494 1.00737 0.31871 0.0
H162 H 0.62396 0.57835 0.27054 0.0
H163 H 0.96166 0.22437 0.18876 0.0
H164 H 0.87575 0.32591 0.38277 0.0
Co165 Co 0.28078 0.14997 0.70505 0.0
C166 C 0.4456 0.08997 0.68005 0.0
C167 C 0.44234 0.17124 0.76833 0.0
C168 C 0.51112 0.12095 0.77366 0.0
N169 N 0.39986 0.14985 0.71068 0.0
N170 N 0.51155 0.06919 0.71877 0.0
H171 H 0.42311 0.05182 0.63779 0.0
H172 H 0.41813 0.2098 0.80957 0.0
C173 C 0.23402 0.23266 0.57326 0.0
O174 O 0.17644 0.27313 0.60779 0.0
N175 N 0.16104 0.14506 0.69851 0.0
C176 C 0.10306 0.17221 0.7438 0.0
C177 C 0.03244 0.12517 0.73551 0.0
C178 C 0.12329 0.08441 0.6619 0.0
N179 N 0.04646 0.06911 0.68498 0.0
C180 C 0.25559 0.28321 0.8049 0.0
C181 C 0.30958 0.41298 0.72191 0.0
C182 C 0.27927 0.43174 0.78816 0.0
C183 C 0.25365 0.36502 0.83025 0.0
C184 C 0.31187 0.3299 0.69906 0.0
N185 N 0.27998 0.26638 0.73853 0.0
H186 H 0.23761 0.233 0.83898 0.0
H187 H 0.34083 0.31725 0.64973 0.0
H188 H 0.11286 0.21523 0.78567 0.0
H189 H 0.15525 0.04361 0.62618 0.0
O190 O 0.27544 0.08558 0.79244 0.0
O191 O 0.28402 0.03075 0.68823 0.0
O192 O 0.28556 0.18544 0.60485 0.0
C193 C 0.27937 1.01842 0.7544 0.0
H194 H 0.55082 0.1149 0.81875 0.0
H195 H 0.97984 0.12394 0.77053 0.0
H196 H 0.33384 0.46166 0.68879 0.0
H197 H 0.23227 0.37574 0.88279 0.0
Co198 Co 0.40826 0.78077 0.20506 0.0
C199 C 0.46843 0.94546 0.17999 0.0
C200 C 0.38724 0.94233 0.26834 0.0
C201 C 0.43778 1.01093 0.27374 0.0
N202 N 0.40845 0.89985 0.21062 0.0
N203 N 0.48952 1.01117 0.21884 0.0
H204 H 0.50645 0.92295 0.13765 0.0
H205 H 0.34864 0.91817 0.30957 0.0
C206 C 0.32556 0.73399 0.07328 0.0
O207 O 0.28509 0.67641 0.10782 0.0
N208 N 0.41312 0.66102 0.19858 0.0
C209 C 0.38633 0.60314 0.24412 0.0
C210 C 0.43353 0.5326 0.23591 0.0
C211 C 0.4737 0.6233 0.16187 0.0
N212 N 0.48934 0.54667 0.18521 0.0
C213 C 0.27502 0.7557 0.30492 0.0
C214 C 0.14525 0.80963 0.22189 0.0
C215 C 0.12649 0.77936 0.28816 0.0
C216 C 0.19321 0.75377 0.33027 0.0
C217 C 0.22834 0.81191 0.19904 0.0
N218 N 0.29186 0.78005 0.23853 0.0
H219 H 0.32523 0.73778 0.33902 0.0
H220 H 0.24099 0.84084 0.1497 0.0
H221 H 0.34351 0.61301 0.28613 0.0
H222 H 0.51427 0.65524 0.12595 0.0
O223 O 0.47266 0.77544 0.29245 0.0
O224 O 0.52749 0.78391 0.18823 0.0
O225 O 0.37279 0.78552 0.10485 0.0
C226 C 0.53982 0.7793 0.2544 0.0
H227 H 0.44398 0.05056 0.31885 0.0
H228 H 0.43505 0.48012 0.27105 0.0
H229 H 0.09657 0.83386 0.18876 0.0
H230 H 0.1825 0.73243 0.38282 0.0
Co231 Co 0.77746 0.90828 0.70504 0.0
C232 C 0.61275 0.96845 0.68 0.0
C233 C 0.6159 0.88723 0.76833 0.0
C234 C 0.5473 0.93776 0.77375 0.0
N235 N 0.65837 0.90847 0.71062 0.0
N236 N 0.54705 0.98953 0.71886 0.0
H237 H 0.63525 1.00649 0.63766 0.0
H238 H 0.64007 0.84861 0.80955 0.0
C239 C 0.82423 0.82559 0.57326 0.0
O240 O 0.88181 0.78512 0.60781 0.0
N241 N 0.8972 0.91313 0.69855 0.0
C242 C 0.9551 0.88632 0.74408 0.0
C243 C 1.02563 0.93352 0.73587 0.0
C244 C 0.93492 0.97372 0.66185 0.0
N245 N 1.01155 0.98936 0.68518 0.0
C246 C 0.80254 0.77501 0.8049 0.0
C247 C 0.7486 0.64526 0.72187 0.0
C248 C 0.77887 0.62649 0.78814 0.0
C249 C 0.80447 0.6932 0.83024 0.0
C250 C 0.74632 0.72835 0.69903 0.0
N251 N 0.77819 0.79186 0.73851 0.0
H252 H 0.82048 0.82522 0.839 0.0
H253 H 0.71738 0.74102 0.64968 0.0
H254 H 0.94523 0.84348 0.78608 0.0
H255 H 0.90297 1.01431 0.62593 0.0
O256 O 0.78279 0.97265 0.79243 0.0
O257 O 0.77431 1.0275 0.68822 0.0
O258 O 0.7727 0.87282 0.60483 0.0
C259 C 0.77892 0.03982 0.75438 0.0
H260 H 0.50768 0.94395 0.81886 0.0
H261 H 0.07812 0.93504 0.77101 0.0
H262 H 0.72436 0.59659 0.68875 0.0
H263 H 0.82582 0.68247 0.88279 0.0
loop_
_geom_bond_atom_site_label_1
_geom_bond_atom_site_label_2
_geom_bond_distance
_geom_bond_site_symmetry_2
_ccdc_geom_bond_type
Co0 N4 2.148 . S
Co0 N10 2.128 . S
Co0 N20 2.194 . S
Co0 O25 2.351 1_455 S
Co0 O26 2.155 1_455 S
Co0 O27 2.096 . S
C1 N4 1.301 . S
C1 N5 1.328 . S
C1 H6 0.930 . S
C2 C3 1.333 . S
C2 N4 1.317 . S
C2 H7 0.930 . S
C3 C2 1.333 . S
C3 N5 1.350 . S
C3 H29 0.931 . S
N4 Co0 2.148 . S
N4 C1 1.301 . S
N4 C2 1.317 . S
N5 C1 1.328 . S
N5 C3 1.350 . S
H6 C1 0.930 . S
H7 C2 0.930 . S
C8 O9 1.224 . S
C8 O27 1.247 . S
O9 C8 1.224 . S
N10 Co0 2.128 . S
N10 C11 1.355 . S
N10 C13 1.311 . S
C11 N10 1.355 . S
C11 C12 1.374 . S
C11 H23 0.929 . S
C12 C11 1.374 . S
C12 N14 1.372 1_545 S
C12 H30 0.924 1_545 S
C13 N10 1.311 . S
C13 N14 1.347 1_545 S
C13 H24 0.929 . S
N14 C12 1.372 1_565 S
N14 C13 1.347 1_565 S
C15 C18 1.365 . S
C15 N20 1.328 . S
C15 H21 0.929 . S
C16 C17 1.362 . S
C16 C19 1.378 . S
C16 H31 0.929 . S
C17 C16 1.362 . S
C17 C18 1.366 . S
C18 C15 1.365 . S
C18 C17 1.366 . S
C18 H32 0.930 . S
C19 C16 1.378 . S
C19 N20 1.315 . S
C19 H22 0.930 . S
N20 Co0 2.194 . S
N20 C15 1.328 . S
N20 C19 1.315 . S
H21 C15 0.929 . S
H22 C19 0.930 . S
H23 C11 0.929 . S
H24 C13 0.929 . S
O25 Co0 2.351 1_655 S
O25 C28 1.244 . S
O26 Co0 2.155 1_655 S
O26 C28 1.240 . S
O27 Co0 2.096 . S
O27 C8 1.247 . S
C28 O25 1.244 . S
C28 O26 1.240 . S
H29 C3 0.931 . S
H30 C12 0.924 1_565 S
H31 C16 0.929 . S
H32 C18 0.930 . S
Co33 N37 2.148 . S
Co33 N43 2.128 . S
Co33 N53 2.194 . S
Co33 O58 2.351 . S
Co33 O59 2.155 . S
Co33 O60 2.096 . S
C34 N37 1.301 . S
C34 N38 1.328 . S
C34 H39 0.930 . S
C35 C36 1.333 . S
C35 N37 1.317 . S
C35 H40 0.930 . S
C36 C35 1.333 . S
C36 N38 1.350 . S
C36 H62 0.931 . S
N37 Co33 2.148 . S
N37 C34 1.301 . S
N37 C35 1.317 . S
N38 C34 1.328 . S
N38 C36 1.350 . S
H39 C34 0.930 . S
H40 C35 0.930 . S
C41 O42 1.224 . S
C41 O60 1.247 . S
O42 C41 1.224 . S
N43 Co33 2.128 . S
N43 C44 1.355 . S
N43 C46 1.311 . S
C44 N43 1.355 . S
C44 C45 1.363 . S
C44 H56 0.929 . S
C45 C44 1.363 . S
C45 N47 1.375 . S
C45 H63 0.931 . S
C46 N43 1.311 . S
C46 N47 1.347 . S
C46 H57 0.929 . S
N47 C45 1.375 . S
N47 C46 1.347 . S
C48 C51 1.365 . S
C48 N53 1.328 . S
C48 H54 0.929 . S
C49 C50 1.362 . S
C49 C52 1.378 . S
C49 H64 0.929 . S
C50 C49 1.362 . S
C50 C51 1.366 . S
C51 C48 1.365 . S
C51 C50 1.366 . S
C51 H65 0.930 . S
C52 C49 1.378 . S
C52 N53 1.315 . S
C52 H55 0.930 . S
N53 Co33 2.194 . S
N53 C48 1.328 . S
N53 C52 1.315 . S
H54 C48 0.929 . S
H55 C52 0.930 . S
H56 C44 0.929 . S
H57 C46 0.929 . S
O58 Co33 2.351 . S
O58 C61 1.244 . S
O59 Co33 2.155 . S
O59 C61 1.240 . S
O60 Co33 2.096 . S
O60 C41 1.247 . S
C61 O58 1.244 . S
C61 O59 1.240 . S
H62 C36 0.931 . S
H63 C45 0.931 . S
H64 C49 0.929 . S
H65 C51 0.930 . S
Co66 N70 2.148 . S
Co66 N76 2.128 . S
Co66 N86 2.194 . S
Co66 O91 2.351 1_655 S
Co66 O92 2.155 1_655 S
Co66 O93 2.096 . S
C67 N70 1.301 . S
C67 N71 1.328 . S
C67 H72 0.930 . S
C68 C69 1.333 . S
C68 N70 1.317 . S
C68 H73 0.930 . S
C69 C68 1.333 . S
C69 N71 1.350 . S
C69 H95 0.931 . S
N70 Co66 2.148 . S
N70 C67 1.301 . S
N70 C68 1.317 . S
N71 C67 1.328 . S
N71 C69 1.350 . S
H72 C67 0.930 . S
H73 C68 0.930 . S
C74 O75 1.224 . S
C74 O93 1.247 . S
O75 C74 1.224 . S
N76 Co66 2.128 . S
N76 C77 1.355 . S
N76 C79 1.311 . S
C77 N76 1.355 . S
C77 C78 1.374 . S
C77 H89 0.929 . S
C78 C77 1.374 . S
C78 N80 1.372 1_565 S
C78 H96 0.924 1_565 S
C79 N76 1.311 . S
C79 N80 1.347 1_565 S
C79 H90 0.929 . S
N80 C78 1.372 1_545 S
N80 C79 1.347 1_545 S
C81 C84 1.365 . S
C81 N86 1.328 . S
C81 H87 0.929 . S
C82 C83 1.362 . S
C82 C85 1.378 . S
C82 H97 0.929 . S
C83 C82 1.362 . S
C83 C84 1.366 . S
C84 C81 1.365 . S
C84 C83 1.366 . S
C84 H98 0.930 . S
C85 C82 1.378 . S
C85 N86 1.315 . S
C85 H88 0.930 . S
N86 Co66 2.194 . S
N86 C81 1.328 . S
N86 C85 1.315 . S
H87 C81 0.929 . S
H88 C85 0.930 . S
H89 C77 0.929 . S
H90 C79 0.929 . S
O91 Co66 2.351 1_455 S
O91 C94 1.244 . S
O92 Co66 2.155 1_455 S
O92 C94 1.240 . S
O93 Co66 2.096 . S
O93 C74 1.247 . S
C94 O91 1.244 . S
C94 O92 1.240 . S
H95 C69 0.931 . S
H96 C78 0.924 1_545 S
H97 C82 0.929 . S
H98 C84 0.930 . S
Co99 N103 2.148 . S
Co99 N109 2.128 . S
Co99 N119 2.194 . S
Co99 O124 2.351 . S
Co99 O125 2.155 . S
Co99 O126 2.096 . S
C100 N103 1.301 . S
C100 N104 1.328 . S
C100 H105 0.930 . S
C101 C102 1.333 . S
C101 N103 1.317 . S
C101 H106 0.930 . S
C102 C101 1.333 . S
C102 N104 1.350 . S
C102 H128 0.931 . S
N103 Co99 2.148 . S
N103 C100 1.301 . S
N103 C101 1.317 . S
N104 C100 1.328 . S
N104 C102 1.350 . S
H105 C100 0.930 . S
H106 C101 0.930 . S
C107 O108 1.224 . S
C107 O126 1.247 . S
O108 C107 1.224 . S
N109 Co99 2.128 . S
N109 C110 1.355 . S
N109 C112 1.311 . S
C110 N109 1.355 . S
C110 C111 1.363 . S
C110 H122 0.929 . S
C111 C110 1.363 . S
C111 N113 1.375 . S
C111 H129 0.931 . S
C112 N109 1.311 . S
C112 N113 1.347 . S
C112 H123 0.929 . S
N113 C111 1.375 . S
N113 C112 1.347 . S
C114 C117 1.365 . S
C114 N119 1.328 . S
C114 H120 0.929 . S
C115 C116 1.362 . S
C115 C118 1.378 . S
C115 H130 0.929 . S
C116 C115 1.362 . S
C116 C117 1.366 . S
C117 C114 1.365 . S
C117 C116 1.366 . S
C117 H131 0.930 . S
C118 C115 1.378 . S
C118 N119 1.315 . S
C118 H121 0.930 . S
N119 Co99 2.194 . S
N119 C114 1.328 . S
N119 C118 1.315 . S
H120 C114 0.929 . S
H121 C118 0.930 . S
H122 C110 0.929 . S
H123 C112 0.929 . S
O124 Co99 2.351 . S
O124 C127 1.244 . S
O125 Co99 2.155 . S
O125 C127 1.240 . S
O126 Co99 2.096 . S
O126 C107 1.247 . S
C127 O124 1.244 . S
C127 O125 1.240 . S
H128 C102 0.931 . S
H129 C111 0.931 . S
H130 C115 0.929 . S
H131 C117 0.930 . S
Co132 N136 2.148 . S
Co132 N142 2.128 . S
Co132 N152 2.194 . S
Co132 O157 2.351 . S
Co132 O158 2.155 . S
Co132 O159 2.096 . S
C133 N136 1.301 . S
C133 N137 1.328 . S
C133 H138 0.930 . S
C134 C135 1.333 . S
C134 N136 1.317 . S
C134 H139 0.930 . S
C135 C134 1.333 . S
C135 N137 1.350 . S
C135 H161 0.931 . S
N136 Co132 2.148 . S
N136 C133 1.301 . S
N136 C134 1.317 . S
N137 C133 1.328 . S
N137 C135 1.350 . S
H138 C133 0.930 . S
H139 C134 0.930 . S
C140 O141 1.224 . S
C140 O159 1.247 . S
O141 C140 1.224 . S
N142 Co132 2.128 . S
N142 C143 1.355 . S
N142 C145 1.311 . S
C143 N142 1.355 . S
C143 C144 1.363 . S
C143 H155 0.929 . S
C144 C143 1.363 . S
C144 N146 1.375 . S
C144 H162 0.931 . S
C145 N142 1.311 . S
C145 N146 1.347 . S
C145 H156 0.929 . S
N146 C144 1.375 . S
N146 C145 1.347 . S
C147 C150 1.365 . S
C147 N152 1.328 . S
C147 H153 0.929 . S
C148 C149 1.362 . S
C148 C151 1.378 . S
C148 H163 0.929 . S
C149 C148 1.362 . S
C149 C150 1.366 . S
C150 C147 1.365 . S
C150 C149 1.366 . S
C150 H164 0.930 . S
C151 C148 1.378 . S
C151 N152 1.315 . S
C151 H154 0.930 . S
N152 Co132 2.194 . S
N152 C147 1.328 . S
N152 C151 1.315 . S
H153 C147 0.929 . S
H154 C151 0.930 . S
H155 C143 0.929 . S
H156 C145 0.929 . S
O157 Co132 2.351 . S
O157 C160 1.244 . S
O158 Co132 2.155 . S
O158 C160 1.240 . S
O159 Co132 2.096 . S
O159 C140 1.247 . S
C160 O157 1.244 . S
C160 O158 1.240 . S
H161 C135 0.931 . S
H162 C144 0.931 . S
H163 C148 0.929 . S
H164 C150 0.930 . S
Co165 N169 2.148 . S
Co165 N175 2.128 . S
Co165 N185 2.194 . S
Co165 O190 2.351 1_545 S
Co165 O191 2.155 1_545 S
Co165 O192 2.096 . S
C166 N169 1.301 . S
C166 N170 1.328 . S
C166 H171 0.930 . S
C167 C168 1.333 . S
C167 N169 1.317 . S
C167 H172 0.930 . S
C168 C167 1.333 . S
C168 N170 1.350 . S
C168 H194 0.931 . S
N169 Co165 2.148 . S
N169 C166 1.301 . S
N169 C167 1.317 . S
N170 C166 1.328 . S
N170 C168 1.350 . S
H171 C166 0.930 . S
H172 C167 0.930 . S
C173 O174 1.224 . S
C173 O192 1.247 . S
O174 C173 1.224 . S
N175 Co165 2.128 . S
N175 C176 1.355 . S
N175 C178 1.311 . S
C176 N175 1.355 . S
C176 C177 1.374 . S
C176 H188 0.929 . S
C177 C176 1.374 . S
C177 N179 1.372 1_455 S
C177 H195 0.924 1_455 S
C178 N175 1.311 . S
C178 N179 1.347 1_455 S
C178 H189 0.929 . S
N179 C177 1.372 1_655 S
N179 C178 1.347 1_655 S
C180 C183 1.365 . S
C180 N185 1.328 . S
C180 H186 0.929 . S
C181 C182 1.362 . S
C181 C184 1.378 . S
C181 H196 0.929 . S
C182 C181 1.362 . S
C182 C183 1.366 . S
C183 C180 1.365 . S
C183 C182 1.366 . S
C183 H197 0.930 . S
C184 C181 1.378 . S
C184 N185 1.315 . S
C184 H187 0.930 . S
N185 Co165 2.194 . S
N185 C180 1.328 . S
N185 C184 1.315 . S
H186 C180 0.929 . S
H187 C184 0.930 . S
H188 C176 0.929 . S
H189 C178 0.929 . S
O190 Co165 2.351 1_565 S
O190 C193 1.244 . S
O191 Co165 2.155 1_565 S
O191 C193 1.240 . S
O192 Co165 2.096 . S
O192 C173 1.247 . S
C193 O190 1.244 . S
C193 O191 1.240 . S
H194 C168 0.931 . S
H195 C177 0.924 1_655 S
H196 C181 0.929 . S
H197 C183 0.930 . S
Co198 N202 2.148 . S
Co198 N208 2.128 . S
Co198 N218 2.194 . S
Co198 O223 2.351 . S
Co198 O224 2.155 . S
Co198 O225 2.096 . S
C199 N202 1.301 . S
C199 N203 1.328 . S
C199 H204 0.930 . S
C200 C201 1.333 . S
C200 N202 1.317 . S
C200 H205 0.930 . S
C201 C200 1.333 . S
C201 N203 1.350 . S
C201 H227 0.931 . S
N202 Co198 2.148 . S
N202 C199 1.301 . S
N202 C200 1.317 . S
N203 C199 1.328 . S
N203 C201 1.350 . S
H204 C199 0.930 . S
H205 C200 0.930 . S
C206 O207 1.224 . S
C206 O225 1.247 . S
O207 C206 1.224 . S
N208 Co198 2.128 . S
N208 C209 1.355 . S
N208 C211 1.311 . S
C209 N208 1.355 . S
C209 C210 1.363 . S
C209 H221 0.929 . S
C210 C209 1.363 . S
C210 N212 1.375 . S
C210 H228 0.931 . S
C211 N208 1.311 . S
C211 N212 1.347 . S
C211 H222 0.929 . S
N212 C210 1.375 . S
N212 C211 1.347 . S
C213 C216 1.365 . S
C213 N218 1.328 . S
C213 H219 0.929 . S
C214 C215 1.362 . S
C214 C217 1.378 . S
C214 H229 0.929 . S
C215 C214 1.362 . S
C215 C216 1.366 . S
C216 C213 1.365 . S
C216 C215 1.366 . S
C216 H230 0.930 . S
C217 C214 1.378 . S
C217 N218 1.315 . S
C217 H220 0.930 . S
N218 Co198 2.194 . S
N218 C213 1.328 . S
N218 C217 1.315 . S
H219 C213 0.929 . S
H220 C217 0.930 . S
H221 C209 0.929 . S
H222 C211 0.929 . S
O223 Co198 2.351 . S
O223 C226 1.244 . S
O224 Co198 2.155 . S
O224 C226 1.240 . S
O225 Co198 2.096 . S
O225 C206 1.247 . S
C226 O223 1.244 . S
C226 O224 1.240 . S
H227 C201 0.931 . S
H228 C210 0.931 . S
H229 C214 0.929 . S
H230 C216 0.930 . S
Co231 N235 2.148 . S
Co231 N241 2.128 . S
Co231 N251 2.194 . S
Co231 O256 2.351 1_565 S
Co231 O257 2.155 1_565 S
Co231 O258 2.096 . S
C232 N235 1.301 . S
C232 N236 1.328 . S
C232 H237 0.930 . S
C233 C234 1.333 . S
C233 N235 1.317 . S
C233 H238 0.930 . S
C234 C233 1.333 . S
C234 N236 1.350 . S
C234 H260 0.931 . S
N235 Co231 2.148 . S
N235 C232 1.301 . S
N235 C233 1.317 . S
N236 C232 1.328 . S
N236 C234 1.350 . S
H237 C232 0.930 . S
H238 C233 0.930 . S
C239 O240 1.224 . S
C239 O258 1.247 . S
O240 C239 1.224 . S
N241 Co231 2.128 . S
N241 C242 1.355 . S
N241 C244 1.311 . S
C242 N241 1.355 . S
C242 C243 1.374 . S
C242 H254 0.929 . S
C243 C242 1.374 . S
C243 N245 1.372 1_655 S
C243 H261 0.924 1_655 S
C244 N241 1.311 . S
C244 N245 1.347 1_655 S
C244 H255 0.929 . S
N245 C243 1.372 1_455 S
N245 C244 1.347 1_455 S
C246 C249 1.365 . S
C246 N251 1.328 . S
C246 H252 0.929 . S
C247 C248 1.362 . S
C247 C250 1.378 . S
C247 H262 0.929 . S
C248 C247 1.362 . S
C248 C249 1.366 . S
C249 C246 1.365 . S
C249 C248 1.366 . S
C249 H263 0.930 . S
C250 C247 1.378 . S
C250 N251 1.315 . S
C250 H253 0.930 . S
N251 Co231 2.194 . S
N251 C246 1.328 . S
N251 C250 1.315 . S
H252 C246 0.929 . S
H253 C250 0.930 . S
H254 C242 0.929 . S
H255 C244 0.929 . S
O256 Co231 2.351 1_545 S
O256 C259 1.244 . S
O257 Co231 2.155 1_545 S
O257 C259 1.240 . S
O258 Co231 2.096 . S
O258 C239 1.247 . S
C259 O256 1.244 . S
C259 O257 1.240 . S
H260 C234 0.931 . S
H261 C243 0.924 1_455 S
H262 C247 0.929 . S
H263 C249 0.930 . S
N71 N5 1.192 1_655 S
N104 N38 1.192 1_655 S
N203 N137 1.192 1_565 S
N236 N170 1.192 1_565 S
C160 C17 2.259 . S
C193 C50 2.259 . S
C226 C83 2.259 . S
C116 C259 2.259 . S
C28 C149 2.259 . S
C61 C182 2.259 . S
C94 C215 2.259 . S
C248 C127 2.259 . S
C8 C173 2.670 . S
C206 C41 2.670 1_554 S
C239 C74 2.670 . S
C140 C107 2.670 1_554 S
N80 N14 1.628 1_645 S
N47 N113 1.628 . S
N212 N146 1.628 . S
N179 N245 1.628 1_645 S
