# Generated by pormake.
# Topology umw, (4)-cn, num edge types: 1
# Building blocks:
#     Node 0, Type 0, BuildingBlock: QUQFOY_clean_sbu_3, # of connection points: 4
#     Node 1, Type 0, BuildingBlock: QUQFOY_clean_sbu_3, # of connection points: 4
#     Node 2, Type 0, BuildingBlock: QUQFOY_clean_sbu_3, # of connection points: 4
#     Node 3, Type 0, BuildingBlock: QUQFOY_clean_sbu_3, # of connection points: 4
#     Node 4, Type 0, BuildingBlock: QUQFOY_clean_sbu_3, # of connection points: 4
#     Node 5, Type 0, BuildingBlock: QUQFOY_clean_sbu_3, # of connection points: 4
#     Node 6, Type 0, BuildingBlock: QUQFOY_clean_sbu_3, # of connection points: 4
#     Node 7, Type 0, BuildingBlock: QUQFOY_clean_sbu_3, # of connection points: 4
#     Edge 8, Type (0, 0), BuildingBlock: CIFDUS_clean_linker_0, # of connection points: 2
#     Edge 9, Type (0, 0), BuildingBlock: CIFDUS_clean_linker_0, # of connection points: 2
#     Edge 10, Type (0, 0), BuildingBlock: CIFDUS_clean_linker_0, # of connection points: 2
#     Edge 11, Type (0, 0), BuildingBlock: CIFDUS_clean_linker_0, # of connection points: 2
#     Edge 12, Type (0, 0), BuildingBlock: CIFDUS_clean_linker_0, # of connection points: 2
#     Edge 13, Type (0, 0), BuildingBlock: CIFDUS_clean_linker_0, # of connection points: 2
#     Edge 14, Type (0, 0), BuildingBlock: CIFDUS_clean_linker_0, # of connection points: 2
#     Edge 15, Type (0, 0), BuildingBlock: CIFDUS_clean_linker_0, # of connection points: 2
#     Edge 16, Type (0, 0), BuildingBlock: CIFDUS_clean_linker_0, # of connection points: 2
#     Edge 17, Type (0, 0), BuildingBlock: CIFDUS_clean_linker_0, # of connection points: 2
#     Edge 18, Type (0, 0), BuildingBlock: CIFDUS_clean_linker_0, # of connection points: 2
#     Edge 19, Type (0, 0), BuildingBlock: CIFDUS_clean_linker_0, # of connection points: 2
#     Edge 20, Type (0, 0), BuildingBlock: CIFDUS_clean_linker_0, # of connection points: 2
#     Edge 21, Type (0, 0), BuildingBlock: CIFDUS_clean_linker_0, # of connection points: 2
#     Edge 22, Type (0, 0), BuildingBlock: CIFDUS_clean_linker_0, # of connection points: 2
#     Edge 23, Type (0, 0), BuildingBlock: CIFDUS_clean_linker_0, # of connection points: 2
# Relax obj value: 0.124
# Max RMSD: 0.103
# Mean RMSD: 0.103
data_MOF--net-umw--node1-QUQFOY_clean_sbu_3--edge1-CIFDUS_clean_linker_0
_symmetry_space_group_name_H-M    P1
_symmetry_Int_Tables_number       1
_symmetry_cell_setting            triclinic
loop_
_symmetry_equiv_pos_as_xyz
'x, y, z'
_cell_length_a     37.628117
_cell_length_b     37.786364
_cell_length_c     23.203655
_cell_angle_alpha  90.111523
_cell_angle_beta   90.155966
_cell_angle_gamma 90.131533
loop_
_atom_site_label
_atom_site_type_symbol
_atom_site_fract_x
_atom_site_fract_y
_atom_site_fract_z
_atom_type_partial_charge
C0 C 0.46293 0.19773 0.19042 0.0
O1 O 0.48805 0.1902 0.22494 0.0
Cd2 Cd 0.48545 0.17705 0.32447 0.0
O3 O 0.43075 0.19973 0.20799 0.0
Cd4 Cd 0.4002 0.19233 0.30371 0.0
C5 C 0.42741 0.10669 0.31234 0.0
O6 O 0.44681 0.22195 0.35687 0.0
O7 O 0.40646 0.19813 0.40891 0.0
O8 O 0.35535 0.2377 0.28337 0.0
C9 C 0.43434 0.21676 0.40654 0.0
O10 O 0.45825 0.11841 0.32488 0.0
C11 C 0.33088 0.22115 0.30986 0.0
O12 O 0.40208 0.12775 0.30041 0.0
O13 O 0.33784 0.19008 0.32702 0.0
C14 C 0.7847 0.4407 0.45716 0.0
O15 O 0.78411 0.46662 0.49211 0.0
Cd16 Cd 0.79445 0.46746 0.59283 0.0
O17 O 0.79031 0.40912 0.47482 0.0
Cd18 Cd 0.80184 0.37991 0.56999 0.0
C19 C 0.87754 0.42937 0.5856 0.0
O20 O 0.76208 0.41765 0.62355 0.0
O21 O 0.7923 0.38128 0.67429 0.0
O22 O 0.76823 0.32668 0.54479 0.0
C23 C 0.76941 0.40566 0.67292 0.0
O24 O 0.85793 0.45588 0.59718 0.0
C25 C 0.78944 0.30601 0.57105 0.0
O26 O 0.86401 0.39948 0.57216 0.0
O27 O 0.81817 0.31932 0.59006 0.0
C28 C 0.51931 0.78155 0.70083 0.0
O29 O 0.49464 0.79106 0.73472 0.0
Cd30 Cd 0.50052 0.81176 0.83018 0.0
O31 O 0.55175 0.78089 0.71759 0.0
Cd32 Cd 0.58552 0.79236 0.80952 0.0
C33 C 0.56197 0.87848 0.80173 0.0
O34 O 0.53909 0.76897 0.86826 0.0
O35 O 0.58065 0.7951 0.91549 0.0
O36 O 0.62096 0.73987 0.79356 0.0
C37 C 0.55217 0.77726 0.9165 0.0
O38 O 0.53097 0.86798 0.81574 0.0
C39 C 0.64936 0.75277 0.81471 0.0
O40 O 0.58733 0.85658 0.79484 0.0
O41 O 0.6492 0.78558 0.82667 0.0
C42 C 0.21648 0.54793 0.93685 0.0
O43 O 0.21731 0.52192 0.97134 0.0
Cd44 Cd 0.20025 0.52078 0.06899 0.0
O45 O 0.20786 0.57888 0.95442 0.0
Cd46 Cd 0.19138 0.60652 0.04942 0.0
C47 C 0.11643 0.55732 0.04876 0.0
O48 O 0.22895 0.57022 0.10992 0.0
O49 O 0.18728 0.59785 0.15325 0.0
O50 O 0.22746 0.65973 0.03562 0.0
C51 C 0.21435 0.57826 0.15706 0.0
O52 O 0.13623 0.53131 0.06258 0.0
C53 C 0.205 0.68021 0.05923 0.0
O54 O 0.12965 0.58772 0.03826 0.0
O55 O 0.175 0.66706 0.07201 0.0
C56 C 0.44301 0.79241 0.38424 0.0
O57 O 0.46969 0.79526 0.35113 0.0
Cd58 Cd 0.47158 0.81513 0.25495 0.0
O59 O 0.41166 0.79996 0.36662 0.0
Cd60 Cd 0.38431 0.82 0.27314 0.0
C61 C 0.4317 0.89647 0.27855 0.0
O62 O 0.42313 0.78348 0.21663 0.0
O63 O 0.39074 0.81905 0.16761 0.0
O64 O 0.33216 0.7828 0.28971 0.0
C65 C 0.41312 0.79416 0.16782 0.0
O66 O 0.4587 0.87799 0.26498 0.0
C67 C 0.31108 0.80315 0.26269 0.0
O68 O 0.40144 0.88206 0.2865 0.0
O69 O 0.32318 0.83305 0.24743 0.0
C70 C 0.193 0.46955 0.62386 0.0
O71 O 0.1808 0.49436 0.59287 0.0
Cd72 Cd 0.15408 0.48841 0.50185 0.0
O73 O 0.19209 0.43742 0.60627 0.0
Cd74 Cd 0.17196 0.4068 0.51493 0.0
C75 C 0.08713 0.42969 0.53752 0.0
O76 O 0.19604 0.45226 0.45369 0.0
O77 O 0.15904 0.41711 0.41233 0.0
O78 O 0.22149 0.36499 0.52164 0.0
C79 C 0.18219 0.44125 0.40744 0.0
O80 O 0.09672 0.46049 0.52153 0.0
C81 C 0.20469 0.33995 0.49711 0.0
O82 O 0.10965 0.40479 0.54204 0.0
O83 O 0.17218 0.34505 0.48564 0.0
C84 C 0.53951 0.18537 0.87217 0.0
O85 O 0.51338 0.18318 0.83757 0.0
Cd86 Cd 0.51414 0.16863 0.73847 0.0
O87 O 0.57134 0.17994 0.85488 0.0
Cd88 Cd 0.60015 0.16494 0.76 0.0
C89 C 0.555 0.0873 0.75268 0.0
O90 O 0.56182 0.20413 0.7066 0.0
O91 O 0.59481 0.17088 0.65459 0.0
O92 O 0.65252 0.20082 0.7831 0.0
C93 C 0.57264 0.19591 0.65698 0.0
O94 O 0.52781 0.10559 0.73934 0.0
C95 C 0.67371 0.18123 0.75485 0.0
O96 O 0.58446 0.10221 0.76497 0.0
O97 O 0.66137 0.15229 0.73546 0.0
C98 C 0.80695 0.51722 0.14122 0.0
O99 O 0.81796 0.49211 0.10958 0.0
Cd100 Cd 0.83645 0.4947 0.0127 0.0
O101 O 0.80502 0.54887 0.12192 0.0
Cd102 Cd 0.81742 0.57721 0.02605 0.0
C103 C 0.90466 0.55502 0.02559 0.0
O104 O 0.79056 0.52953 0.97302 0.0
O105 O 0.81828 0.56755 0.92085 0.0
O106 O 0.76454 0.61297 0.02551 0.0
C107 C 0.79745 0.54123 0.92346 0.0
O108 O 0.89412 0.52363 0.0151 0.0
C109 C 0.77986 0.64136 0.01018 0.0
O110 O 0.8824 0.57985 0.03395 0.0
O111 O 0.8136 0.64145 0.01015 0.0
H112 H 0.50585 0.21785 0.41272 0.0
H113 H 0.41114 0.22738 0.51584 0.0
H114 H 0.44718 0.22753 0.60383 0.0
H115 H 0.50448 0.21718 0.65079 0.0
H116 H 0.59796 0.19941 0.54762 0.0
H117 H 0.56365 0.21058 0.45974 0.0
C118 C 0.49321 0.22065 0.45444 0.0
C119 C 0.45605 0.2225 0.45825 0.0
C120 C 0.51387 0.21886 0.50455 0.0
C121 C 0.4398 0.22577 0.51232 0.0
C122 C 0.46034 0.22576 0.56243 0.0
C123 C 0.51744 0.21642 0.60909 0.0
C124 C 0.55351 0.20742 0.60522 0.0
C125 C 0.49725 0.22114 0.55903 0.0
C126 C 0.57007 0.20612 0.55119 0.0
C127 C 0.5505 0.21244 0.50114 0.0
H128 H 0.76282 0.47668 0.68101 0.0
H129 H 0.7627 0.38094 0.78186 0.0
H130 H 0.76674 0.41584 0.87056 0.0
H131 H 0.77951 0.47247 0.91725 0.0
H132 H 0.78925 0.56716 0.81486 0.0
H133 H 0.77304 0.53372 0.7281 0.0
C134 C 0.76314 0.46349 0.72238 0.0
C135 C 0.76288 0.4264 0.72522 0.0
C136 C 0.7681 0.48351 0.7725 0.0
C137 C 0.76301 0.40956 0.77903 0.0
C138 C 0.76564 0.42944 0.82951 0.0
C139 C 0.77767 0.48583 0.876 0.0
C140 C 0.7858 0.52199 0.8719 0.0
C141 C 0.76974 0.46627 0.82646 0.0
C142 C 0.78352 0.53914 0.81849 0.0
C143 C 0.77411 0.52011 0.76915 0.0
H144 H 0.48275 0.77868 0.16161 0.0
H145 H 0.38821 0.79108 0.05816 0.0
H146 H 0.42307 0.78235 0.97029 0.0
H147 H 0.48089 0.7765 0.9236 0.0
H148 H 0.57636 0.77229 0.02668 0.0
H149 H 0.54063 0.77236 0.11481 0.0
C150 C 0.46977 0.77899 0.11982 0.0
C151 C 0.43314 0.78538 0.11582 0.0
C152 C 0.49016 0.77571 0.06986 0.0
C153 C 0.4165 0.78622 0.06173 0.0
C154 C 0.43637 0.7813 0.01175 0.0
C155 C 0.49382 0.77517 0.96538 0.0
C156 C 0.53103 0.77436 0.96914 0.0
C157 C 0.4733 0.77683 0.01536 0.0
C158 C 0.54765 0.77305 0.02323 0.0
C159 C 0.52729 0.7731 0.07338 0.0
H160 H 0.22914 0.49404 0.38775 0.0
H161 H 0.14671 0.43188 0.30593 0.0
H162 H 0.15125 0.46821 0.21936 0.0
H163 H 0.17535 0.52024 0.17033 0.0
H164 H 0.25728 0.58284 0.25125 0.0
H165 H 0.25626 0.54369 0.33576 0.0
C166 C 0.21236 0.48828 0.3508 0.0
C167 C 0.18732 0.46066 0.3533 0.0
C168 C 0.21492 0.5094 0.30156 0.0
C169 C 0.16602 0.45317 0.30503 0.0
C170 C 0.16853 0.47395 0.25567 0.0
C171 C 0.19334 0.5248 0.20621 0.0
C172 C 0.21647 0.55387 0.20535 0.0
C173 C 0.19239 0.50246 0.25399 0.0
C174 C 0.23944 0.56029 0.2517 0.0
C175 C 0.23876 0.53805 0.2997 0.0
H176 H 0.30689 0.21847 0.41798 0.0
H177 H 0.28734 0.26761 0.25349 0.0
H178 H 0.24196 0.30564 0.29738 0.0
H179 H 0.21304 0.32902 0.38455 0.0
H180 H 0.24036 0.28652 0.55092 0.0
H181 H 0.27765 0.24138 0.50474 0.0
C182 C 0.292 0.23693 0.39155 0.0
C183 C 0.29974 0.23998 0.3325 0.0
C184 C 0.26782 0.26002 0.41778 0.0
C185 C 0.28133 0.26468 0.29887 0.0
C186 C 0.25565 0.28646 0.32405 0.0
C187 C 0.22672 0.30935 0.41037 0.0
C188 C 0.22383 0.31039 0.47069 0.0
C189 C 0.24941 0.28496 0.38369 0.0
C190 C 0.24217 0.2857 0.50434 0.0
C191 C 0.26344 0.2601 0.47795 0.0
H192 H 0.7946 0.28368 0.6798 0.0
H193 H 0.75304 0.25416 0.51326 0.0
H194 H 0.71925 0.20572 0.55737 0.0
H195 H 0.6935 0.17971 0.64451 0.0
H196 H 0.72559 0.2183 0.81162 0.0
H197 H 0.77171 0.25496 0.76674 0.0
C198 C 0.7791 0.26579 0.65302 0.0
C199 C 0.77658 0.27192 0.59335 0.0
C200 C 0.75774 0.24003 0.67926 0.0
C201 C 0.75557 0.24951 0.55914 0.0
C202 C 0.7361 0.2221 0.58447 0.0
C203 C 0.71148 0.19524 0.67113 0.0
C204 C 0.70674 0.19607 0.73124 0.0
C205 C 0.73582 0.21816 0.6447 0.0
C206 C 0.72921 0.21708 0.76536 0.0
C207 C 0.75529 0.23817 0.73962 0.0
H208 H 0.73369 0.62837 0.92617 0.0
H209 H 0.78348 0.71395 0.0192 0.0
H210 H 0.75029 0.75713 0.96075 0.0
H211 H 0.70422 0.76957 0.88705 0.0
H212 H 0.65736 0.68266 0.79218 0.0
H213 H 0.6935 0.64079 0.84619 0.0
C214 C 0.73698 0.65653 0.93398 0.0
C215 C 0.75982 0.66821 0.97801 0.0
C216 C 0.71897 0.68078 0.89914 0.0
C217 C 0.76524 0.70459 0.98631 0.0
C218 C 0.74652 0.72912 0.95267 0.0
C219 C 0.70257 0.74155 0.8772 0.0
C220 C 0.67782 0.72922 0.83599 0.0
C221 C 0.72304 0.71745 0.90925 0.0
C222 C 0.67603 0.69284 0.82378 0.0
C223 C 0.69642 0.66883 0.85504 0.0
H224 H 0.1954 0.70017 0.16851 0.0
H225 H 0.24317 0.73338 0.00892 0.0
H226 H 0.27423 0.78149 0.05941 0.0
H227 H 0.29573 0.80646 0.15063 0.0
H228 H 0.25761 0.76441 0.31151 0.0
H229 H 0.21418 0.72774 0.25947 0.0
C230 C 0.21169 0.71877 0.14462 0.0
C231 C 0.21671 0.71383 0.0851 0.0
C232 C 0.23143 0.74442 0.17464 0.0
C233 C 0.23872 0.73713 0.05464 0.0
C234 C 0.25661 0.76437 0.0836 0.0
C235 C 0.27697 0.79018 0.17426 0.0
C236 C 0.27921 0.78843 0.23471 0.0
C237 C 0.25428 0.76727 0.14388 0.0
C238 C 0.25584 0.7664 0.26502 0.0
C239 C 0.23133 0.74529 0.23521 0.0
H240 H 0.37992 0.94676 0.2878 0.0
H241 H 0.49388 0.93301 0.287 0.0
H242 H 0.50227 -0.00361 0.29967 0.0
H243 H 0.47774 0.05569 0.30926 0.0
H244 H 0.36407 0.07079 0.30671 0.0
H245 H 0.35516 0.00687 0.29734 0.0
C246 C 0.40657 0.95764 0.29055 0.0
C247 C 0.43619 0.9351 0.28636 0.0
C248 C 0.41132 -0.00567 0.29729 0.0
C249 C 0.47056 0.94968 0.28974 0.0
C250 C 0.47545 0.98596 0.29715 0.0
C251 C 0.45096 0.04507 0.30706 0.0
C252 C 0.42163 0.06799 0.30886 0.0
C253 C 0.44606 0.00851 0.30077 0.0
C254 C 0.38714 0.05372 0.30535 0.0
C255 C 0.38202 0.01718 0.29998 0.0
H256 H 0.92874 0.37889 0.57223 0.0
H257 H 0.91409 0.49147 0.59465 0.0
H258 H 0.97761 0.50113 0.58337 0.0
H259 H 0.0368 0.47831 0.56235 0.0
H260 H 0.05258 0.36592 0.54177 0.0
H261 H 0.98912 0.35555 0.55738 0.0
C262 C 0.93947 0.40551 0.57502 0.0
C263 C 0.91655 0.43439 0.58378 0.0
C264 C 0.97618 0.41098 0.56854 0.0
C265 C 0.931 0.46869 0.58781 0.0
C266 C 0.96736 0.47432 0.58119 0.0
C267 C 0.0264 0.45152 0.56135 0.0
C268 C 0.04926 0.42298 0.55029 0.0
C269 C 0.99009 0.44575 0.57069 0.0
C270 C 0.03548 0.38837 0.55009 0.0
C271 C -0.0008 0.38243 0.55888 0.0
H272 H 0.51173 0.92727 0.77896 0.0
H273 H 0.62499 0.91533 0.80058 0.0
H274 H 0.63316 0.97907 0.7859 0.0
H275 H 0.60754 0.03839 0.76953 0.0
H276 H 0.49407 0.04858 0.74564 0.0
H277 H 0.48671 0.98517 0.75837 0.0
C278 C 0.53825 0.93855 0.78065 0.0
C279 C 0.56767 0.91668 0.7915 0.0
C280 C 0.54272 0.97489 0.77165 0.0
C281 C 0.60189 0.93165 0.79247 0.0
C282 C 0.60656 0.96806 0.78415 0.0
C283 C 0.58123 0.02671 0.76689 0.0
C284 C 0.55141 0.04836 0.75697 0.0
C285 C 0.57709 0.98999 0.77407 0.0
C286 C 0.51754 0.03269 0.75324 0.0
C287 C 0.51323 -0.00362 0.76067 0.0
H288 H 0.95733 0.5066 0.03151 0.0
H289 H 0.93886 0.61929 0.02843 0.0
H290 H 0.00295 0.63011 0.03444 0.0
H291 H 0.06424 0.60726 0.04088 0.0
H292 H 0.08134 0.49429 0.04662 0.0
H293 H 0.01765 0.484 0.0392 0.0
C294 C 0.96722 0.53359 0.03194 0.0
C295 C 0.94331 0.56208 0.02927 0.0
C296 C 0.00387 0.53957 0.03595 0.0
C297 C 0.95668 0.59686 0.03047 0.0
C298 C 0.99332 0.60305 0.03384 0.0
C299 C 0.05402 0.58041 0.04036 0.0
C300 C 0.07761 0.55162 0.04421 0.0
C301 C 0.01717 0.57458 0.03662 0.0
C302 C 0.06387 0.51698 0.0439 0.0
C303 C 0.02741 0.51101 0.03956 0.0
H304 H 0.47539 0.19946 0.92019 0.0
H305 H 0.58651 0.18694 0.96275 0.0
H306 H 0.57251 0.19282 0.06511 0.0
H307 H 0.52844 0.1969 0.14198 0.0
H308 H 0.41706 0.20724 0.0996 0.0
H309 H 0.43169 0.20715 -0.003 0.0
C310 C 0.4967 0.19825 0.95168 0.0
C311 C 0.53198 0.19238 0.93374 0.0
C312 C 0.4884 0.20113 0.01032 0.0
C313 C 0.55916 0.19125 0.97528 0.0
C314 C 0.55114 0.19453 0.03382 0.0
C315 C 0.50726 0.19942 0.11046 0.0
C316 C 0.47159 0.2017 0.12856 0.0
C317 C 0.51579 0.19876 0.05176 0.0
C318 C 0.44467 0.20529 0.08695 0.0
C319 C 0.45302 0.20513 0.0283 0.0
H320 H 0.80044 0.45218 0.18872 0.0
H321 H 0.79091 0.56346 0.22873 0.0
H322 H 0.77927 0.5489 0.32963 0.0
H323 H 0.77673 0.50502 0.4069 0.0
H324 H 0.78859 0.39391 0.367 0.0
H325 H 0.79389 0.40814 0.26476 0.0
C326 C 0.79568 0.47336 0.21932 0.0
C327 C 0.79705 0.50893 0.20132 0.0
C328 C 0.78942 0.46484 0.27707 0.0
C329 C 0.79026 0.53591 0.24149 0.0
C330 C 0.78364 0.52759 0.29915 0.0
C331 C 0.78007 0.48377 0.37592 0.0
C332 C 0.78265 0.44841 0.39477 0.0
C333 C 0.78387 0.49219 0.3175 0.0
C334 C 0.7867 0.42132 0.3538 0.0
C335 C 0.78988 0.42946 0.29537 0.0
H336 H 0.45339 0.7813 0.65324 0.0
H337 H 0.56414 0.76604 0.61135 0.0
H338 H 0.549 0.76349 0.50898 0.0
H339 H 0.50566 0.77263 0.432 0.0
H340 H 0.39546 0.79148 0.4737 0.0
H341 H 0.40916 0.78508 0.57617 0.0
C342 C 0.47428 0.777 0.62189 0.0
C343 C 0.50998 0.77445 0.63994 0.0
C344 C 0.46552 0.77645 0.56323 0.0
C345 C 0.53653 0.7684 0.59867 0.0
C346 C 0.52789 0.76705 0.54013 0.0
C347 C 0.48445 0.77499 0.46332 0.0
C348 C 0.44964 0.78315 0.44521 0.0
C349 C 0.49266 0.77218 0.52198 0.0
C350 C 0.4225 0.78552 0.48644 0.0
C351 C 0.43035 0.78199 0.54503 0.0
H352 H 0.22934 0.48429 0.88682 0.0
H353 H 0.2126 0.59465 0.84669 0.0
H354 H 0.20821 0.57992 0.74435 0.0
H355 H 0.2015 0.53521 0.66897 0.0
H356 H 0.21414 0.42445 0.70997 0.0
H357 H 0.22804 0.44005 0.80987 0.0
C358 C 0.22526 0.50532 0.85576 0.0
C359 C 0.22074 0.54053 0.8746 0.0
C360 C 0.22159 0.49653 0.79739 0.0
C361 C 0.21588 0.56734 0.83351 0.0
C362 C 0.21319 0.5589 0.77503 0.0
C363 C 0.2076 0.51437 0.69949 0.0
C364 C 0.20616 0.47861 0.6822 0.0
C365 C 0.21473 0.52346 0.75688 0.0
C366 C 0.21474 0.45212 0.72221 0.0
C367 C 0.22261 0.46104 0.77934 0.0
loop_
_geom_bond_atom_site_label_1
_geom_bond_atom_site_label_2
_geom_bond_distance
_geom_bond_site_symmetry_2
_ccdc_geom_bond_type
C0 O1 1.306 . S
C0 O3 1.160 . S
O1 C0 1.306 . S
O1 Cd2 2.228 . S
Cd2 O1 2.228 . S
Cd2 O6 2.273 . S
Cd2 O10 2.277 . S
O3 C0 1.160 . S
O3 Cd4 2.203 . S
Cd4 O3 2.203 . S
Cd4 O6 2.411 . S
Cd4 O7 2.333 . S
Cd4 O8 2.352 . S
Cd4 O12 2.277 . S
Cd4 O13 2.356 . S
C5 O10 1.209 . S
C5 O12 1.226 . S
O6 Cd2 2.273 . S
O6 Cd4 2.411 . S
O6 C9 1.320 . S
O7 Cd4 2.333 . S
O7 C9 1.214 . S
O8 Cd4 2.352 . S
O8 C11 1.258 . S
C9 O6 1.320 . S
C9 O7 1.214 . S
O10 Cd2 2.277 . S
O10 C5 1.209 . S
C11 O8 1.258 . S
C11 O13 1.282 . S
O12 Cd4 2.277 . S
O12 C5 1.226 . S
O13 Cd4 2.356 . S
O13 C11 1.282 . S
C14 O15 1.306 . S
C14 O17 1.160 . S
O15 C14 1.306 . S
O15 Cd16 2.228 . S
Cd16 O15 2.228 . S
Cd16 O20 2.273 . S
Cd16 O24 2.277 . S
O17 C14 1.160 . S
O17 Cd18 2.203 . S
Cd18 O17 2.203 . S
Cd18 O20 2.411 . S
Cd18 O21 2.333 . S
Cd18 O22 2.352 . S
Cd18 O26 2.277 . S
Cd18 O27 2.356 . S
C19 O24 1.209 . S
C19 O26 1.226 . S
O20 Cd16 2.273 . S
O20 Cd18 2.411 . S
O20 C23 1.320 . S
O21 Cd18 2.333 . S
O21 C23 1.214 . S
O22 Cd18 2.352 . S
O22 C25 1.258 . S
C23 O20 1.320 . S
C23 O21 1.214 . S
O24 Cd16 2.277 . S
O24 C19 1.209 . S
C25 O22 1.258 . S
C25 O27 1.282 . S
O26 Cd18 2.277 . S
O26 C19 1.226 . S
O27 Cd18 2.356 . S
O27 C25 1.282 . S
C28 O29 1.306 . S
C28 O31 1.160 . S
O29 C28 1.306 . S
O29 Cd30 2.228 . S
Cd30 O29 2.228 . S
Cd30 O34 2.273 . S
Cd30 O38 2.277 . S
O31 C28 1.160 . S
O31 Cd32 2.203 . S
Cd32 O31 2.203 . S
Cd32 O34 2.411 . S
Cd32 O35 2.333 . S
Cd32 O36 2.352 . S
Cd32 O40 2.277 . S
Cd32 O41 2.356 . S
C33 O38 1.209 . S
C33 O40 1.226 . S
O34 Cd30 2.273 . S
O34 Cd32 2.411 . S
O34 C37 1.320 . S
O35 Cd32 2.333 . S
O35 C37 1.214 . S
O36 Cd32 2.352 . S
O36 C39 1.258 . S
C37 O34 1.320 . S
C37 O35 1.214 . S
O38 Cd30 2.277 . S
O38 C33 1.209 . S
C39 O36 1.258 . S
C39 O41 1.282 . S
O40 Cd32 2.277 . S
O40 C33 1.226 . S
O41 Cd32 2.356 . S
O41 C39 1.282 . S
C42 O43 1.306 . S
C42 O45 1.160 . S
O43 C42 1.306 . S
O43 Cd44 2.228 1_556 S
Cd44 O43 2.228 1_554 S
Cd44 O48 2.273 . S
Cd44 O52 2.277 . S
O45 C42 1.160 . S
O45 Cd46 2.203 1_556 S
Cd46 O45 2.203 1_554 S
Cd46 O48 2.411 . S
Cd46 O49 2.333 . S
Cd46 O50 2.352 . S
Cd46 O54 2.277 . S
Cd46 O55 2.356 . S
C47 O52 1.209 . S
C47 O54 1.226 . S
O48 Cd44 2.273 . S
O48 Cd46 2.411 . S
O48 C51 1.320 . S
O49 Cd46 2.333 . S
O49 C51 1.214 . S
O50 Cd46 2.352 . S
O50 C53 1.258 . S
C51 O48 1.320 . S
C51 O49 1.214 . S
O52 Cd44 2.277 . S
O52 C47 1.209 . S
C53 O50 1.258 . S
C53 O55 1.282 . S
O54 Cd46 2.277 . S
O54 C47 1.226 . S
O55 Cd46 2.356 . S
O55 C53 1.282 . S
C56 O57 1.306 . S
C56 O59 1.160 . S
O57 C56 1.306 . S
O57 Cd58 2.228 . S
Cd58 O57 2.228 . S
Cd58 O62 2.273 . S
Cd58 O66 2.277 . S
O59 C56 1.160 . S
O59 Cd60 2.203 . S
Cd60 O59 2.203 . S
Cd60 O62 2.411 . S
Cd60 O63 2.333 . S
Cd60 O64 2.352 . S
Cd60 O68 2.277 . S
Cd60 O69 2.356 . S
C61 O66 1.209 . S
C61 O68 1.226 . S
O62 Cd58 2.273 . S
O62 Cd60 2.411 . S
O62 C65 1.320 . S
O63 Cd60 2.333 . S
O63 C65 1.214 . S
O64 Cd60 2.352 . S
O64 C67 1.258 . S
C65 O62 1.320 . S
C65 O63 1.214 . S
O66 Cd58 2.277 . S
O66 C61 1.209 . S
C67 O64 1.258 . S
C67 O69 1.282 . S
O68 Cd60 2.277 . S
O68 C61 1.226 . S
O69 Cd60 2.356 . S
O69 C67 1.282 . S
C70 O71 1.306 . S
C70 O73 1.160 . S
O71 C70 1.306 . S
O71 Cd72 2.228 . S
Cd72 O71 2.228 . S
Cd72 O76 2.273 . S
Cd72 O80 2.277 . S
O73 C70 1.160 . S
O73 Cd74 2.203 . S
Cd74 O73 2.203 . S
Cd74 O76 2.411 . S
Cd74 O77 2.333 . S
Cd74 O78 2.352 . S
Cd74 O82 2.277 . S
Cd74 O83 2.356 . S
C75 O80 1.209 . S
C75 O82 1.226 . S
O76 Cd72 2.273 . S
O76 Cd74 2.411 . S
O76 C79 1.320 . S
O77 Cd74 2.333 . S
O77 C79 1.214 . S
O78 Cd74 2.352 . S
O78 C81 1.258 . S
C79 O76 1.320 . S
C79 O77 1.214 . S
O80 Cd72 2.277 . S
O80 C75 1.209 . S
C81 O78 1.258 . S
C81 O83 1.282 . S
O82 Cd74 2.277 . S
O82 C75 1.226 . S
O83 Cd74 2.356 . S
O83 C81 1.282 . S
C84 O85 1.306 . S
C84 O87 1.160 . S
O85 C84 1.306 . S
O85 Cd86 2.228 . S
Cd86 O85 2.228 . S
Cd86 O90 2.273 . S
Cd86 O94 2.277 . S
O87 C84 1.160 . S
O87 Cd88 2.203 . S
Cd88 O87 2.203 . S
Cd88 O90 2.411 . S
Cd88 O91 2.333 . S
Cd88 O92 2.352 . S
Cd88 O96 2.277 . S
Cd88 O97 2.356 . S
C89 O94 1.209 . S
C89 O96 1.226 . S
O90 Cd86 2.273 . S
O90 Cd88 2.411 . S
O90 C93 1.320 . S
O91 Cd88 2.333 . S
O91 C93 1.214 . S
O92 Cd88 2.352 . S
O92 C95 1.258 . S
C93 O90 1.320 . S
C93 O91 1.214 . S
O94 Cd86 2.277 . S
O94 C89 1.209 . S
C95 O92 1.258 . S
C95 O97 1.282 . S
O96 Cd88 2.277 . S
O96 C89 1.226 . S
O97 Cd88 2.356 . S
O97 C95 1.282 . S
C98 O99 1.306 . S
C98 O101 1.160 . S
O99 C98 1.306 . S
O99 Cd100 2.228 . S
Cd100 O99 2.228 . S
Cd100 O104 2.273 1_554 S
Cd100 O108 2.277 . S
O101 C98 1.160 . S
O101 Cd102 2.203 . S
Cd102 O101 2.203 . S
Cd102 O104 2.411 1_554 S
Cd102 O105 2.333 1_554 S
Cd102 O106 2.352 . S
Cd102 O110 2.277 . S
Cd102 O111 2.356 . S
C103 O108 1.209 . S
C103 O110 1.226 . S
O104 Cd100 2.273 1_556 S
O104 Cd102 2.411 1_556 S
O104 C107 1.320 . S
O105 Cd102 2.333 1_556 S
O105 C107 1.214 . S
O106 Cd102 2.352 . S
O106 C109 1.258 . S
C107 O104 1.320 . S
C107 O105 1.214 . S
O108 Cd100 2.277 . S
O108 C103 1.209 . S
C109 O106 1.258 . S
C109 O111 1.282 . S
O110 Cd102 2.277 . S
O110 C103 1.226 . S
O111 Cd102 2.356 . S
O111 C109 1.282 . S
H112 C118 0.930 . S
H113 C121 0.930 . S
H114 C122 0.930 . S
H115 C123 0.930 . S
H116 C126 0.930 . S
H117 C127 0.930 . S
C118 H112 0.930 . S
C118 C119 1.355 . S
C118 C120 1.415 . S
C119 C118 1.355 . S
C119 C121 1.419 . S
C120 C118 1.415 . S
C120 C125 1.425 . S
C120 C127 1.409 . S
C121 H113 0.930 . S
C121 C119 1.419 . S
C121 C122 1.362 . S
C122 H114 0.930 . S
C122 C121 1.362 . S
C122 C125 1.409 . S
C123 H115 0.930 . S
C123 C124 1.355 . S
C123 C125 1.415 . S
C124 C123 1.355 . S
C124 C126 1.419 . S
C125 C120 1.425 . S
C125 C122 1.409 . S
C125 C123 1.415 . S
C126 H116 0.930 . S
C126 C124 1.419 . S
C126 C127 1.362 . S
C127 H117 0.930 . S
C127 C120 1.409 . S
C127 C126 1.362 . S
H128 C134 0.930 . S
H129 C137 0.930 . S
H130 C138 0.930 . S
H131 C139 0.930 . S
H132 C142 0.930 . S
H133 C143 0.930 . S
C134 H128 0.930 . S
C134 C135 1.355 . S
C134 C136 1.415 . S
C135 C134 1.355 . S
C135 C137 1.419 . S
C136 C134 1.415 . S
C136 C141 1.425 . S
C136 C143 1.409 . S
C137 H129 0.930 . S
C137 C135 1.419 . S
C137 C138 1.362 . S
C138 H130 0.930 . S
C138 C137 1.362 . S
C138 C141 1.409 . S
C139 H131 0.930 . S
C139 C140 1.355 . S
C139 C141 1.415 . S
C140 C139 1.355 . S
C140 C142 1.419 . S
C141 C136 1.425 . S
C141 C138 1.409 . S
C141 C139 1.415 . S
C142 H132 0.930 . S
C142 C140 1.419 . S
C142 C143 1.362 . S
C143 H133 0.930 . S
C143 C136 1.409 . S
C143 C142 1.362 . S
H144 C150 0.930 . S
H145 C153 0.930 . S
H146 C154 0.930 . S
H147 C155 0.930 . S
H148 C158 0.930 . S
H149 C159 0.930 . S
C150 H144 0.930 . S
C150 C151 1.355 . S
C150 C152 1.415 . S
C151 C150 1.355 . S
C151 C153 1.419 . S
C152 C150 1.415 . S
C152 C157 1.425 . S
C152 C159 1.409 . S
C153 H145 0.930 . S
C153 C151 1.419 . S
C153 C154 1.362 . S
C154 H146 0.930 . S
C154 C153 1.362 . S
C154 C157 1.409 . S
C155 H147 0.930 . S
C155 C156 1.355 . S
C155 C157 1.415 1_556 S
C156 C155 1.355 . S
C156 C158 1.419 . S
C157 C152 1.425 . S
C157 C154 1.409 . S
C157 C155 1.415 1_554 S
C158 H148 0.930 . S
C158 C156 1.419 . S
C158 C159 1.362 1_556 S
C159 H149 0.930 . S
C159 C152 1.409 . S
C159 C158 1.362 1_554 S
H160 C166 0.930 . S
H161 C169 0.930 . S
H162 C170 0.930 . S
H163 C171 0.930 . S
H164 C174 0.930 . S
H165 C175 0.930 . S
C166 H160 0.930 . S
C166 C167 1.355 . S
C166 C168 1.415 . S
C167 C166 1.355 . S
C167 C169 1.419 . S
C168 C166 1.415 . S
C168 C173 1.425 . S
C168 C175 1.409 . S
C169 H161 0.930 . S
C169 C167 1.419 . S
C169 C170 1.362 . S
C170 H162 0.930 . S
C170 C169 1.362 . S
C170 C173 1.409 . S
C171 H163 0.930 . S
C171 C172 1.355 . S
C171 C173 1.415 . S
C172 C171 1.355 . S
C172 C174 1.419 . S
C173 C168 1.425 . S
C173 C170 1.409 . S
C173 C171 1.415 . S
C174 H164 0.930 . S
C174 C172 1.419 . S
C174 C175 1.362 . S
C175 H165 0.930 . S
C175 C168 1.409 . S
C175 C174 1.362 . S
H176 C182 0.930 . S
H177 C185 0.930 . S
H178 C186 0.930 . S
H179 C187 0.930 . S
H180 C190 0.930 . S
H181 C191 0.930 . S
C182 H176 0.930 . S
C182 C183 1.355 . S
C182 C184 1.415 . S
C183 C182 1.355 . S
C183 C185 1.419 . S
C184 C182 1.415 . S
C184 C189 1.425 . S
C184 C191 1.409 . S
C185 H177 0.930 . S
C185 C183 1.419 . S
C185 C186 1.362 . S
C186 H178 0.930 . S
C186 C185 1.362 . S
C186 C189 1.409 . S
C187 H179 0.930 . S
C187 C188 1.355 . S
C187 C189 1.415 . S
C188 C187 1.355 . S
C188 C190 1.419 . S
C189 C184 1.425 . S
C189 C186 1.409 . S
C189 C187 1.415 . S
C190 H180 0.930 . S
C190 C188 1.419 . S
C190 C191 1.362 . S
C191 H181 0.930 . S
C191 C184 1.409 . S
C191 C190 1.362 . S
H192 C198 0.930 . S
H193 C201 0.930 . S
H194 C202 0.930 . S
H195 C203 0.930 . S
H196 C206 0.930 . S
H197 C207 0.930 . S
C198 H192 0.930 . S
C198 C199 1.355 . S
C198 C200 1.415 . S
C199 C198 1.355 . S
C199 C201 1.419 . S
C200 C198 1.415 . S
C200 C205 1.425 . S
C200 C207 1.409 . S
C201 H193 0.930 . S
C201 C199 1.419 . S
C201 C202 1.362 . S
C202 H194 0.930 . S
C202 C201 1.362 . S
C202 C205 1.409 . S
C203 H195 0.930 . S
C203 C204 1.355 . S
C203 C205 1.415 . S
C204 C203 1.355 . S
C204 C206 1.419 . S
C205 C200 1.425 . S
C205 C202 1.409 . S
C205 C203 1.415 . S
C206 H196 0.930 . S
C206 C204 1.419 . S
C206 C207 1.362 . S
C207 H197 0.930 . S
C207 C200 1.409 . S
C207 C206 1.362 . S
H208 C214 0.930 1_554 S
H209 C217 0.930 . S
H210 C218 0.930 . S
H211 C219 0.930 . S
H212 C222 0.930 . S
H213 C223 0.930 1_554 S
C214 H208 0.930 1_556 S
C214 C215 1.355 . S
C214 C216 1.415 . S
C215 C214 1.355 . S
C215 C217 1.419 . S
C216 C214 1.415 . S
C216 C221 1.425 . S
C216 C223 1.409 . S
C217 H209 0.930 . S
C217 C215 1.419 . S
C217 C218 1.362 . S
C218 H210 0.930 . S
C218 C217 1.362 . S
C218 C221 1.409 . S
C219 H211 0.930 . S
C219 C220 1.355 . S
C219 C221 1.415 . S
C220 C219 1.355 . S
C220 C222 1.419 . S
C221 C216 1.425 . S
C221 C218 1.409 . S
C221 C219 1.415 . S
C222 H212 0.930 . S
C222 C220 1.419 . S
C222 C223 1.362 . S
C223 H213 0.930 1_556 S
C223 C216 1.409 . S
C223 C222 1.362 . S
H224 C230 0.930 . S
H225 C233 0.930 . S
H226 C234 0.930 . S
H227 C235 0.930 . S
H228 C238 0.930 . S
H229 C239 0.930 . S
C230 H224 0.930 . S
C230 C231 1.355 . S
C230 C232 1.415 . S
C231 C230 1.355 . S
C231 C233 1.419 . S
C232 C230 1.415 . S
C232 C237 1.425 . S
C232 C239 1.409 . S
C233 H225 0.930 . S
C233 C231 1.419 . S
C233 C234 1.362 . S
C234 H226 0.930 . S
C234 C233 1.362 . S
C234 C237 1.409 . S
C235 H227 0.930 . S
C235 C236 1.355 . S
C235 C237 1.415 . S
C236 C235 1.355 . S
C236 C238 1.419 . S
C237 C232 1.425 . S
C237 C234 1.409 . S
C237 C235 1.415 . S
C238 H228 0.930 . S
C238 C236 1.419 . S
C238 C239 1.362 . S
C239 H229 0.930 . S
C239 C232 1.409 . S
C239 C238 1.362 . S
H240 C246 0.930 . S
H241 C249 0.930 . S
H242 C250 0.930 . S
H243 C251 0.930 . S
H244 C254 0.930 . S
H245 C255 0.930 . S
C246 H240 0.930 . S
C246 C247 1.355 . S
C246 C248 1.415 . S
C247 C246 1.355 . S
C247 C249 1.419 . S
C248 C246 1.415 . S
C248 C253 1.425 1_565 S
C248 C255 1.409 1_565 S
C249 H241 0.930 . S
C249 C247 1.419 . S
C249 C250 1.362 . S
C250 H242 0.930 . S
C250 C249 1.362 . S
C250 C253 1.409 1_565 S
C251 H243 0.930 . S
C251 C252 1.355 . S
C251 C253 1.415 . S
C252 C251 1.355 . S
C252 C254 1.419 . S
C253 C248 1.425 1_545 S
C253 C250 1.409 1_545 S
C253 C251 1.415 . S
C254 H244 0.930 . S
C254 C252 1.419 . S
C254 C255 1.362 . S
C255 H245 0.930 . S
C255 C248 1.409 1_545 S
C255 C254 1.362 . S
H256 C262 0.930 . S
H257 C265 0.930 . S
H258 C266 0.930 . S
H259 C267 0.930 . S
H260 C270 0.930 . S
H261 C271 0.930 . S
C262 H256 0.930 . S
C262 C263 1.355 . S
C262 C264 1.415 . S
C263 C262 1.355 . S
C263 C265 1.419 . S
C264 C262 1.415 . S
C264 C269 1.425 1_655 S
C264 C271 1.409 1_655 S
C265 H257 0.930 . S
C265 C263 1.419 . S
C265 C266 1.362 . S
C266 H258 0.930 . S
C266 C265 1.362 . S
C266 C269 1.409 1_655 S
C267 H259 0.930 . S
C267 C268 1.355 . S
C267 C269 1.415 . S
C268 C267 1.355 . S
C268 C270 1.419 . S
C269 C264 1.425 1_455 S
C269 C266 1.409 1_455 S
C269 C267 1.415 . S
C270 H260 0.930 . S
C270 C268 1.419 . S
C270 C271 1.362 . S
C271 H261 0.930 . S
C271 C264 1.409 1_455 S
C271 C270 1.362 . S
H272 C278 0.930 . S
H273 C281 0.930 . S
H274 C282 0.930 . S
H275 C283 0.930 . S
H276 C286 0.930 . S
H277 C287 0.930 . S
C278 H272 0.930 . S
C278 C279 1.355 . S
C278 C280 1.415 . S
C279 C278 1.355 . S
C279 C281 1.419 . S
C280 C278 1.415 . S
C280 C285 1.425 1_565 S
C280 C287 1.409 1_565 S
C281 H273 0.930 . S
C281 C279 1.419 . S
C281 C282 1.362 . S
C282 H274 0.930 . S
C282 C281 1.362 . S
C282 C285 1.409 1_565 S
C283 H275 0.930 . S
C283 C284 1.355 . S
C283 C285 1.415 . S
C284 C283 1.355 . S
C284 C286 1.419 . S
C285 C280 1.425 1_545 S
C285 C282 1.409 1_545 S
C285 C283 1.415 . S
C286 H276 0.930 . S
C286 C284 1.419 . S
C286 C287 1.362 . S
C287 H277 0.930 . S
C287 C280 1.409 1_545 S
C287 C286 1.362 . S
H288 C294 0.930 . S
H289 C297 0.930 . S
H290 C298 0.930 . S
H291 C299 0.930 1_556 S
H292 C302 0.930 . S
H293 C303 0.930 . S
C294 H288 0.930 . S
C294 C295 1.355 . S
C294 C296 1.415 . S
C295 C294 1.355 . S
C295 C297 1.419 1_554 S
C296 C294 1.415 . S
C296 C301 1.425 1_655 S
C296 C303 1.409 1_655 S
C297 H289 0.930 . S
C297 C295 1.419 1_556 S
C297 C298 1.362 . S
C298 H290 0.930 . S
C298 C297 1.362 . S
C298 C301 1.409 1_656 S
C299 H291 0.930 1_554 S
C299 C300 1.355 . S
C299 C301 1.415 . S
C300 C299 1.355 . S
C300 C302 1.419 . S
C301 C296 1.425 1_455 S
C301 C298 1.409 1_454 S
C301 C299 1.415 . S
C302 H292 0.930 . S
C302 C300 1.419 . S
C302 C303 1.362 . S
C303 H293 0.930 . S
C303 C296 1.409 1_455 S
C303 C302 1.362 . S
H304 C310 0.930 . S
H305 C313 0.930 1_556 S
H306 C314 0.930 . S
H307 C315 0.930 . S
H308 C318 0.930 . S
H309 C319 0.930 . S
C310 H304 0.930 . S
C310 C311 1.355 . S
C310 C312 1.415 1_556 S
C311 C310 1.355 . S
C311 C313 1.419 1_556 S
C312 C310 1.415 1_554 S
C312 C317 1.425 . S
C312 C319 1.409 . S
C313 H305 0.930 1_554 S
C313 C311 1.419 1_554 S
C313 C314 1.362 . S
C314 H306 0.930 . S
C314 C313 1.362 . S
C314 C317 1.409 . S
C315 H307 0.930 . S
C315 C316 1.355 . S
C315 C317 1.415 . S
C316 C315 1.355 . S
C316 C318 1.419 . S
C317 C312 1.425 . S
C317 C314 1.409 . S
C317 C315 1.415 . S
C318 H308 0.930 . S
C318 C316 1.419 . S
C318 C319 1.362 . S
C319 H309 0.930 . S
C319 C312 1.409 . S
C319 C318 1.362 . S
H320 C326 0.930 . S
H321 C329 0.930 . S
H322 C330 0.930 . S
H323 C331 0.930 . S
H324 C334 0.930 . S
H325 C335 0.930 . S
C326 H320 0.930 . S
C326 C327 1.355 . S
C326 C328 1.415 . S
C327 C326 1.355 . S
C327 C329 1.419 . S
C328 C326 1.415 . S
C328 C333 1.425 . S
C328 C335 1.409 . S
C329 H321 0.930 . S
C329 C327 1.419 . S
C329 C330 1.362 . S
C330 H322 0.930 . S
C330 C329 1.362 . S
C330 C333 1.409 . S
C331 H323 0.930 . S
C331 C332 1.355 . S
C331 C333 1.415 . S
C332 C331 1.355 . S
C332 C334 1.419 . S
C333 C328 1.425 . S
C333 C330 1.409 . S
C333 C331 1.415 . S
C334 H324 0.930 . S
C334 C332 1.419 . S
C334 C335 1.362 . S
C335 H325 0.930 . S
C335 C328 1.409 . S
C335 C334 1.362 . S
H336 C342 0.930 . S
H337 C345 0.930 . S
H338 C346 0.930 . S
H339 C347 0.930 . S
H340 C350 0.930 . S
H341 C351 0.930 . S
C342 H336 0.930 . S
C342 C343 1.355 . S
C342 C344 1.415 . S
C343 C342 1.355 . S
C343 C345 1.419 . S
C344 C342 1.415 . S
C344 C349 1.425 . S
C344 C351 1.409 . S
C345 H337 0.930 . S
C345 C343 1.419 . S
C345 C346 1.362 . S
C346 H338 0.930 . S
C346 C345 1.362 . S
C346 C349 1.409 . S
C347 H339 0.930 . S
C347 C348 1.355 . S
C347 C349 1.415 . S
C348 C347 1.355 . S
C348 C350 1.419 . S
C349 C344 1.425 . S
C349 C346 1.409 . S
C349 C347 1.415 . S
C350 H340 0.930 . S
C350 C348 1.419 . S
C350 C351 1.362 . S
C351 H341 0.930 . S
C351 C344 1.409 . S
C351 C350 1.362 . S
H352 C358 0.930 . S
H353 C361 0.930 . S
H354 C362 0.930 . S
H355 C363 0.930 . S
H356 C366 0.930 . S
H357 C367 0.930 . S
C358 H352 0.930 . S
C358 C359 1.355 . S
C358 C360 1.415 . S
C359 C358 1.355 . S
C359 C361 1.419 . S
C360 C358 1.415 . S
C360 C365 1.425 . S
C360 C367 1.409 . S
C361 H353 0.930 . S
C361 C359 1.419 . S
C361 C362 1.362 . S
C362 H354 0.930 . S
C362 C361 1.362 . S
C362 C365 1.409 . S
C363 H355 0.930 . S
C363 C364 1.355 . S
C363 C365 1.415 . S
C364 C363 1.355 . S
C364 C366 1.419 . S
C365 C360 1.425 . S
C365 C362 1.409 . S
C365 C363 1.415 . S
C366 H356 0.930 . S
C366 C364 1.419 . S
C366 C367 1.362 . S
C367 H357 0.930 . S
C367 C360 1.409 . S
C367 C366 1.362 . S
C119 C9 0.785 . S
C124 C93 0.785 . S
C135 C23 0.834 . S
C140 C107 0.838 . S
C151 C65 0.825 . S
C156 C37 0.829 . S
C167 C79 0.827 . S
C172 C51 0.831 . S
C183 C11 1.517 . S
C188 C81 1.531 . S
C199 C25 1.552 . S
C204 C95 1.559 . S
C215 C109 1.496 1_556 S
C220 C39 1.495 . S
C231 C53 1.550 . S
C236 C67 1.539 . S
C247 C61 1.489 . S
C252 C5 1.504 . S
C263 C19 1.494 . S
C268 C75 1.492 . S
C279 C33 1.496 . S
C284 C89 1.501 . S
C295 C103 1.497 . S
C300 C47 1.490 . S
C311 C84 1.520 . S
C316 C0 1.515 . S
C327 C98 1.498 . S
C332 C14 1.526 . S
C343 C28 1.514 . S
C348 C56 1.473 . S
C359 C42 1.524 . S
C364 C70 1.485 . S
