# Generated by pormake.
# Topology wip, (6)-cn, num edge types: 1
# Building blocks:
#     Node 0, Type 0, BuildingBlock: BETDEL_clean_sbu_0, # of connection points: 6
#     Node 1, Type 0, BuildingBlock: BETDEL_clean_sbu_0, # of connection points: 6
#     Node 2, Type 0, BuildingBlock: BETDEL_clean_sbu_0, # of connection points: 6
#     Node 3, Type 0, BuildingBlock: BETDEL_clean_sbu_0, # of connection points: 6
#     Node 4, Type 0, BuildingBlock: BETDEL_clean_sbu_0, # of connection points: 6
#     Node 5, Type 0, BuildingBlock: BETDEL_clean_sbu_0, # of connection points: 6
#     Node 6, Type 0, BuildingBlock: BETDEL_clean_sbu_0, # of connection points: 6
#     Node 7, Type 0, BuildingBlock: BETDEL_clean_sbu_0, # of connection points: 6
#     Node 8, Type 0, BuildingBlock: BETDEL_clean_sbu_0, # of connection points: 6
#     Node 9, Type 0, BuildingBlock: BETDEL_clean_sbu_0, # of connection points: 6
#     Node 10, Type 0, BuildingBlock: BETDEL_clean_sbu_0, # of connection points: 6
#     Node 11, Type 0, BuildingBlock: BETDEL_clean_sbu_0, # of connection points: 6
#     Node 12, Type 0, BuildingBlock: BETDEL_clean_sbu_0, # of connection points: 6
#     Node 13, Type 0, BuildingBlock: BETDEL_clean_sbu_0, # of connection points: 6
#     Node 14, Type 0, BuildingBlock: BETDEL_clean_sbu_0, # of connection points: 6
#     Node 15, Type 0, BuildingBlock: BETDEL_clean_sbu_0, # of connection points: 6
#     Node 16, Type 0, BuildingBlock: BETDEL_clean_sbu_0, # of connection points: 6
#     Node 17, Type 0, BuildingBlock: BETDEL_clean_sbu_0, # of connection points: 6
#     Node 18, Type 0, BuildingBlock: BETDEL_clean_sbu_0, # of connection points: 6
#     Node 19, Type 0, BuildingBlock: BETDEL_clean_sbu_0, # of connection points: 6
#     Node 20, Type 0, BuildingBlock: BETDEL_clean_sbu_0, # of connection points: 6
#     Node 21, Type 0, BuildingBlock: BETDEL_clean_sbu_0, # of connection points: 6
#     Node 22, Type 0, BuildingBlock: BETDEL_clean_sbu_0, # of connection points: 6
#     Node 23, Type 0, BuildingBlock: BETDEL_clean_sbu_0, # of connection points: 6
#     Node 24, Type 0, BuildingBlock: BETDEL_clean_sbu_0, # of connection points: 6
#     Node 25, Type 0, BuildingBlock: BETDEL_clean_sbu_0, # of connection points: 6
#     Node 26, Type 0, BuildingBlock: BETDEL_clean_sbu_0, # of connection points: 6
#     Node 27, Type 0, BuildingBlock: BETDEL_clean_sbu_0, # of connection points: 6
#     Node 28, Type 0, BuildingBlock: BETDEL_clean_sbu_0, # of connection points: 6
#     Node 29, Type 0, BuildingBlock: BETDEL_clean_sbu_0, # of connection points: 6
#     Node 30, Type 0, BuildingBlock: BETDEL_clean_sbu_0, # of connection points: 6
#     Node 31, Type 0, BuildingBlock: BETDEL_clean_sbu_0, # of connection points: 6
#     Edge 32, Type (0, 0), None
#     Edge 33, Type (0, 0), None
#     Edge 34, Type (0, 0), None
#     Edge 35, Type (0, 0), None
#     Edge 36, Type (0, 0), None
#     Edge 37, Type (0, 0), None
#     Edge 38, Type (0, 0), None
#     Edge 39, Type (0, 0), None
#     Edge 40, Type (0, 0), None
#     Edge 41, Type (0, 0), None
#     Edge 42, Type (0, 0), None
#     Edge 43, Type (0, 0), None
#     Edge 44, Type (0, 0), None
#     Edge 45, Type (0, 0), None
#     Edge 46, Type (0, 0), None
#     Edge 47, Type (0, 0), None
#     Edge 48, Type (0, 0), None
#     Edge 49, Type (0, 0), None
#     Edge 50, Type (0, 0), None
#     Edge 51, Type (0, 0), None
#     Edge 52, Type (0, 0), None
#     Edge 53, Type (0, 0), None
#     Edge 54, Type (0, 0), None
#     Edge 55, Type (0, 0), None
#     Edge 56, Type (0, 0), None
#     Edge 57, Type (0, 0), None
#     Edge 58, Type (0, 0), None
#     Edge 59, Type (0, 0), None
#     Edge 60, Type (0, 0), None
#     Edge 61, Type (0, 0), None
#     Edge 62, Type (0, 0), None
#     Edge 63, Type (0, 0), None
#     Edge 64, Type (0, 0), None
#     Edge 65, Type (0, 0), None
#     Edge 66, Type (0, 0), None
#     Edge 67, Type (0, 0), None
#     Edge 68, Type (0, 0), None
#     Edge 69, Type (0, 0), None
#     Edge 70, Type (0, 0), None
#     Edge 71, Type (0, 0), None
#     Edge 72, Type (0, 0), None
#     Edge 73, Type (0, 0), None
#     Edge 74, Type (0, 0), None
#     Edge 75, Type (0, 0), None
#     Edge 76, Type (0, 0), None
#     Edge 77, Type (0, 0), None
#     Edge 78, Type (0, 0), None
#     Edge 79, Type (0, 0), None
#     Edge 80, Type (0, 0), None
#     Edge 81, Type (0, 0), None
#     Edge 82, Type (0, 0), None
#     Edge 83, Type (0, 0), None
#     Edge 84, Type (0, 0), None
#     Edge 85, Type (0, 0), None
#     Edge 86, Type (0, 0), None
#     Edge 87, Type (0, 0), None
#     Edge 88, Type (0, 0), None
#     Edge 89, Type (0, 0), None
#     Edge 90, Type (0, 0), None
#     Edge 91, Type (0, 0), None
#     Edge 92, Type (0, 0), None
#     Edge 93, Type (0, 0), None
#     Edge 94, Type (0, 0), None
#     Edge 95, Type (0, 0), None
#     Edge 96, Type (0, 0), None
#     Edge 97, Type (0, 0), None
#     Edge 98, Type (0, 0), None
#     Edge 99, Type (0, 0), None
#     Edge 100, Type (0, 0), None
#     Edge 101, Type (0, 0), None
#     Edge 102, Type (0, 0), None
#     Edge 103, Type (0, 0), None
#     Edge 104, Type (0, 0), None
#     Edge 105, Type (0, 0), None
#     Edge 106, Type (0, 0), None
#     Edge 107, Type (0, 0), None
#     Edge 108, Type (0, 0), None
#     Edge 109, Type (0, 0), None
#     Edge 110, Type (0, 0), None
#     Edge 111, Type (0, 0), None
#     Edge 112, Type (0, 0), None
#     Edge 113, Type (0, 0), None
#     Edge 114, Type (0, 0), None
#     Edge 115, Type (0, 0), None
#     Edge 116, Type (0, 0), None
#     Edge 117, Type (0, 0), None
#     Edge 118, Type (0, 0), None
#     Edge 119, Type (0, 0), None
#     Edge 120, Type (0, 0), None
#     Edge 121, Type (0, 0), None
#     Edge 122, Type (0, 0), None
#     Edge 123, Type (0, 0), None
#     Edge 124, Type (0, 0), None
#     Edge 125, Type (0, 0), None
#     Edge 126, Type (0, 0), None
#     Edge 127, Type (0, 0), None
# Relax obj value: 0.402
# Max RMSD: 0.266
# Mean RMSD: 0.220
data_MOF--net-wip--node1-BETDEL_clean_sbu_0--edge1-none
_symmetry_space_group_name_H-M    P1
_symmetry_Int_Tables_number       1
_symmetry_cell_setting            triclinic
loop_
_symmetry_equiv_pos_as_xyz
'x, y, z'
_cell_length_a     29.949548
_cell_length_b     29.950073
_cell_length_c     12.499987
_cell_angle_alpha  94.897618
_cell_angle_beta   90.054701
_cell_angle_gamma 90.40802
loop_
_atom_site_label
_atom_site_type_symbol
_atom_site_fract_x
_atom_site_fract_y
_atom_site_fract_z
_atom_type_partial_charge
Dy0 Dy 0.01448 0.3743 0.19222 0.0
C1 C 0.08567 0.4981 0.89848 0.0
C2 C -0.02424 0.31403 0.32052 0.0
Dy3 Dy 0.07417 0.43533 1.04786 0.0
O4 O 0.95491 0.34242 0.26596 0.0
O5 O 0.01761 0.31571 0.29501 0.0
O6 O -0.02745 0.43129 0.25206 0.0
O7 O 0.0033 0.42969 0.09704 0.0
C8 C -0.01958 0.4525 0.16778 0.0
C9 C 0.11804 0.38332 0.18502 0.0
O10 O 0.07567 0.47871 0.19755 0.0
O11 O 0.04955 0.42452 0.30817 0.0
O12 O 0.10547 0.45907 0.89425 0.0
O13 O 0.06239 0.50272 0.9866 0.0
O14 O 0.13587 0.41869 0.14653 0.0
O15 O 0.08236 0.3744 0.13179 0.0
O16 O -0.00886 0.35229 1.02474 0.0
O17 O 0.04575 0.3853 0.92337 0.0
C18 C 0.07085 0.46254 0.29151 0.0
C19 C 0.00831 0.36229 0.93145 0.0
Dy20 Dy 0.83067 0.72444 0.46708 0.0
C21 C 0.75311 0.83599 0.15775 0.0
C22 C 0.87048 0.67223 0.60862 0.0
Dy23 Dy 0.80315 0.79878 0.31408 0.0
O24 O 0.84395 0.65793 0.53056 0.0
O25 O 0.87828 0.71463 0.60186 0.0
O26 O 0.76056 0.71171 0.51336 0.0
O27 O 0.77567 0.73428 0.36 0.0
C28 C 0.74488 0.7253 0.42493 0.0
C29 C 0.86936 0.82053 0.45999 0.0
O30 O 0.76546 0.82285 0.45777 0.0
O31 O 0.80396 0.7806 0.57685 0.0
O32 O 0.79679 0.83506 0.16003 0.0
O33 O 0.73816 0.81822 0.24225 0.0
O34 O 0.84603 0.84931 0.41123 0.0
O35 O 0.86215 0.78244 0.41012 0.0
O36 O 0.84035 0.68965 0.30132 0.0
O37 O 0.83661 0.75055 0.1975 0.0
C38 C 0.77837 0.81469 0.55482 0.0
C39 C 0.83931 0.70726 0.20699 0.0
Dy40 Dy 0.40317 0.55442 0.58178 0.0
C41 C 0.29931 0.45536 0.85687 0.0
C42 C 0.4588 0.57519 0.42516 0.0
Dy43 Dy 0.36144 0.4841 0.7194 0.0
O44 O 0.41577 0.58179 0.42261 0.0
O45 O 0.47116 0.56334 0.51792 0.0
O46 O 0.37176 0.6116 0.68125 0.0
O47 O 0.34187 0.54852 0.67315 0.0
C48 C 0.3426 0.58657 0.72672 0.0
C49 C 0.44731 0.47292 0.67262 0.0
O50 O 0.34642 0.44995 0.55384 0.0
O51 O 0.36379 0.51089 0.45774 0.0
O52 O 0.32865 0.43009 0.80379 0.0
O53 O 0.30061 0.49455 0.82058 0.0
O54 O 0.42987 0.46033 0.76109 0.0
O55 O 0.41736 0.48654 0.61281 0.0
O56 O 0.44373 0.56944 0.73251 0.0
O57 O 0.39871 0.52901 0.84309 0.0
C58 C 0.35039 0.46865 0.46127 0.0
C59 C 0.43084 0.55882 0.8288 0.0
Dy60 Dy 0.62336 0.18203 0.80402 0.0
C61 C 0.6933 0.05374 1.06828 0.0
C62 C 0.62049 0.24086 0.65312 0.0
Dy63 Dy 0.6777 0.12202 0.94367 0.0
O64 O 0.60137 0.20143 0.64196 0.0
O65 O 0.6355 0.2495 0.75008 0.0
O66 O 0.55875 0.17044 0.88972 0.0
O67 O 0.60953 0.123 0.88922 0.0
C68 C 0.57386 0.1363 0.93719 0.0
C69 C 0.71499 0.20085 0.91687 0.0
O70 O 0.70378 0.0969 0.77976 0.0
O71 O 0.65077 0.13055 0.67842 0.0
O72 O 0.72376 0.07623 1.02062 0.0
O73 O 0.6546 0.06516 1.03384 0.0
O74 O 0.72161 0.18002 1.00302 0.0
O75 O 0.69281 0.17646 0.84802 0.0
O76 O 0.62269 0.22542 0.95985 0.0
O77 O 0.64638 0.17018 1.06821 0.0
C78 C 0.68677 0.10538 0.68539 0.0
C79 C 0.62846 0.20986 1.0552 0.0
Dy80 Dy 0.00963 0.59573 0.70266 0.0
C81 C 0.08688 0.48877 0.38402 0.0
C82 C -0.01921 0.63979 0.89183 0.0
Dy83 Dy 0.0551 0.53098 0.56355 0.0
O84 O 0.02212 0.63408 0.86286 0.0
O85 O 0.95547 0.62442 0.8121 0.0
O86 O 0.02614 0.64993 0.59496 0.0
O87 O 0.07208 0.59885 0.60837 0.0
C88 C 0.06126 0.63062 0.55255 0.0
C89 C -0.00922 0.48856 0.65636 0.0
O90 O 0.09569 0.51999 0.71201 0.0
O91 O 0.03904 0.54962 0.81659 0.0
O92 O 0.08531 0.47191 0.47539 0.0
O93 O 0.07794 0.53086 0.39492 0.0
O94 O 0.02832 0.47047 0.62837 0.0
O95 O -0.01219 0.52856 0.63028 0.0
O96 O 0.95596 0.59639 0.57962 0.0
O97 O 0.00231 0.55834 0.45598 0.0
C98 C 0.07561 0.52551 0.80651 0.0
C99 C 0.96618 0.58282 0.47933 0.0
Dy100 Dy 0.63173 0.80981 0.94189 0.0
C101 C 0.75989 0.84044 0.6447 0.0
C102 C 0.57689 0.79399 0.10996 0.0
Dy103 Dy 0.70924 0.82382 0.81233 0.0
O104 O 0.59852 0.83111 0.09916 0.0
O105 O 0.58312 0.76694 1.02443 0.0
O106 O 0.59014 0.85076 0.84233 0.0
O107 O 0.65653 0.86808 0.85777 0.0
C108 C 0.62182 0.87303 0.80161 0.0
C109 C 0.71828 0.74732 0.89978 0.0
O110 O 0.73765 0.85433 0.97076 0.0
O111 O 0.68565 0.81761 1.06545 0.0
O112 O 0.77502 0.8337 0.73866 0.0
O113 O 0.71723 0.84504 0.64781 0.0
O114 O 0.75166 0.7713 0.87261 0.0
O115 O 0.68147 0.76241 0.8686 0.0
O116 O 0.60627 0.76462 0.80522 0.0
O117 O 0.66007 0.78992 0.69205 0.0
C118 C 0.72394 0.83907 1.06179 0.0
C119 C 0.62165 0.76893 0.70771 0.0
Dy120 Dy 0.42918 0.37513 0.2355 0.0
C121 C 0.30019 0.4543 0.97227 0.0
C122 C 0.48808 0.37151 0.3977 0.0
Dy123 Dy 0.36896 0.43324 0.10107 0.0
O124 O 0.44891 0.35194 0.39594 0.0
O125 O 0.4966 0.38675 0.30575 0.0
O126 O 0.41645 0.31223 0.12268 0.0
O127 O 0.37 0.36412 0.1369 0.0
C128 C 0.38162 0.32928 1.07812 0.0
C129 C 0.44789 0.46851 0.15138 0.0
O130 O 0.3459 0.45824 0.26727 0.0
O131 O 0.37874 0.40296 0.35957 0.0
O132 O 0.32792 0.48274 1.02177 0.0
O133 O 0.30626 0.41581 1.00937 0.0
O134 O 0.42675 0.47694 1.06418 0.0
O135 O 0.42385 0.44559 0.20982 0.0
O136 O 0.47197 0.37608 0.08906 0.0
O137 O 0.41678 0.40206 0.97724 0.0
C138 C 0.35421 0.43976 0.35806 0.0
C139 C 0.45611 0.383 0.99275 0.0
Dy140 Dy 0.80084 0.15525 0.49726 0.0
C141 C 0.69854 0.05291 0.18283 0.0
C142 C 0.82325 0.21041 0.66993 0.0
Dy143 Dy 0.73113 0.11369 0.33698 0.0
O144 O 0.82855 0.16707 0.66473 0.0
O145 O 0.81137 0.22311 0.57757 0.0
O146 O 0.85813 0.12463 0.40295 0.0
O147 O 0.79562 0.09381 0.39098 0.0
C148 C 0.83358 0.09525 0.34567 0.0
C149 C 0.71973 0.20005 0.39689 0.0
O150 O 0.69781 0.09739 0.49163 0.0
O151 O 0.75798 0.11557 0.60473 0.0
O152 O 0.67477 0.08186 0.24197 0.0
O153 O 0.73896 0.05398 0.21983 0.0
O154 O 0.70711 0.18201 0.30285 0.0
O155 O 0.7332 0.17031 0.45475 0.0
O156 O 0.81532 0.19634 0.35876 0.0
O157 O 0.7756 0.15084 0.23004 0.0
C158 C 0.71624 0.10129 0.58889 0.0
C159 C 0.80487 0.1834 0.25757 0.0
Dy160 Dy 0.86856 0.51311 0.27494 0.0
C161 C 0.96692 0.63445 1.00254 0.0
C162 C 0.85711 0.45041 0.42441 0.0
Dy163 Dy 0.92826 0.57427 0.13086 0.0
O164 O 0.83729 0.48942 0.4286 0.0
O165 O 0.88036 0.44574 0.33627 0.0
O166 O 0.80685 0.52974 0.17649 0.0
O167 O 0.86034 0.57419 0.19125 0.0
C168 C 0.82465 0.56515 0.13813 0.0
C169 C 0.96219 0.49594 0.15512 0.0
O170 O 0.95162 0.5962 0.29833 0.0
O171 O 0.89703 0.56305 0.39959 0.0
O172 O -0.01217 0.60605 1.05691 0.0
O173 O 0.92508 0.63291 1.02825 0.0
O174 O 0.97013 0.51718 1.07089 0.0
O175 O 0.93937 0.51887 0.2257 0.0
O176 O 0.86708 0.46979 0.12519 0.0
O177 O 0.89316 0.52407 1.01477 0.0
C178 C 0.93441 0.58616 0.39155 0.0
C179 C 0.87189 0.48602 1.0313 0.0
Dy180 Dy 0.13969 0.14967 1.00894 0.0
C181 C 0.07226 0.27623 0.71456 0.0
C182 C 0.18972 0.11252 0.16534 0.0
Dy183 Dy 0.11203 0.22402 0.85613 0.0
O184 O 0.14604 0.11344 0.16303 0.0
O185 O 0.20469 0.13026 0.08082 0.0
O186 O 0.09686 0.09907 0.91216 0.0
O187 O 0.08053 0.16598 0.91306 0.0
C188 C 0.07348 0.1278 0.86343 0.0
C189 C 0.19789 0.22301 0.89808 0.0
O190 O 0.10241 0.25882 1.02188 0.0
O191 O 0.10631 0.19791 0.12565 0.0
O192 O 0.09878 0.29053 0.79261 0.0
O193 O 0.06443 0.23384 0.72136 0.0
O194 O 0.18221 0.23664 0.80968 0.0
O195 O 0.16702 0.21415 0.96285 0.0
O196 O 0.17732 0.12562 0.86515 0.0
O197 O 0.1387 0.16786 0.74623 0.0
C198 C 0.10353 0.2412 0.11618 0.0
C199 C 0.16434 0.13378 0.76815 0.0
Dy200 Dy 0.58119 0.46434 0.60392 0.0
C201 C 0.48394 0.3733 0.89828 0.0
C202 C 0.64337 0.49305 0.46651 0.0
Dy203 Dy 0.5396 0.39398 0.74175 0.0
O204 O 0.61401 0.51832 0.51951 0.0
O205 O 0.64206 0.45388 0.50288 0.0
O206 O 0.51283 0.48815 0.56229 0.0
O207 O 0.52525 0.46186 0.71075 0.0
C208 C 0.49538 0.47554 0.65074 0.0
C209 C 0.60032 0.36201 0.59664 0.0
O210 O 0.49904 0.37887 0.59101 0.0
O211 O 0.54392 0.41941 0.48033 0.0
O212 O 0.52696 0.36657 0.90085 0.0
O213 O 0.47159 0.38514 0.80552 0.0
O214 O 0.57122 0.33689 0.64205 0.0
O215 O 0.60078 0.4 0.65041 0.0
O216 O 0.59621 0.49849 0.76954 0.0
O217 O 0.57901 0.43751 0.86568 0.0
C218 C 0.51185 0.38953 0.49468 0.0
C219 C 0.59233 0.47977 0.86213 0.0
Dy220 Dy 0.26501 0.82653 0.37937 0.0
C221 C 0.32224 0.70768 0.66994 0.0
C222 C 0.24942 0.89485 0.25487 0.0
Dy223 Dy 0.31936 0.76657 0.51922 0.0
O224 O 0.21896 0.87237 0.30254 0.0
O225 O 0.28811 0.88341 0.28928 0.0
O226 O 0.22104 0.76864 0.32009 0.0
O227 O 0.24987 0.77207 0.47526 0.0
C228 C 0.22762 0.74781 0.40625 0.0
C229 C 0.36881 0.81236 0.38583 0.0
O230 O 0.32003 0.72317 0.36336 0.0
O231 O 0.29632 0.77838 0.25489 0.0
O232 O 0.34139 0.74709 0.68115 0.0
O233 O 0.30719 0.69908 0.57301 0.0
O234 O 0.38397 0.77825 0.43331 0.0
O235 O 0.33312 0.82549 0.43397 0.0
O236 O 0.23894 0.85166 0.54334 0.0
O237 O 0.29198 0.81808 0.64477 0.0
C238 C 0.31424 0.73871 0.26797 0.0
C239 C 0.25597 0.84322 0.63775 0.0
Dy240 Dy 0.88776 0.41751 0.75926 0.0
C241 C 0.96182 0.30883 0.43127 0.0
C242 C 0.85595 0.45976 0.93872 0.0
Dy243 Dy 0.93302 0.35282 0.62044 0.0
O244 O 0.85752 0.4766 0.84733 0.0
O245 O 0.86492 0.41767 0.9279 0.0
O246 O 0.91454 0.47815 0.69518 0.0
O247 O 0.95516 0.41999 0.69249 0.0
C248 C 0.95212 0.46014 0.66734 0.0
C249 C 0.8814 0.31805 0.77047 0.0
O250 O -0.01327 0.35205 0.74338 0.0
O251 O 0.94043 0.39012 0.86703 0.0
O252 O 0.92048 0.31455 0.46013 0.0
O253 O -0.01282 0.32407 0.51105 0.0
O254 O 0.91652 0.2987 0.72818 0.0
O255 O 0.87049 0.34974 0.71444 0.0
O256 O 0.84713 0.42857 0.61093 0.0
O257 O 0.90379 0.39898 0.50644 0.0
C258 C -0.02347 0.36562 0.84367 0.0
C259 C 0.86721 0.42306 0.51645 0.0
Dy260 Dy 0.23359 0.12472 0.51074 0.0
C261 C 0.36587 0.15442 0.2132 0.0
C262 C 0.18286 0.10808 0.67823 0.0
Dy263 Dy 0.31102 0.13863 0.38132 0.0
O264 O 0.16778 0.11486 0.58426 0.0
O265 O 0.22553 0.10349 0.67522 0.0
O266 O 0.19111 0.17732 0.45095 0.0
O267 O 0.26132 0.1862 0.45436 0.0
C268 C 0.22445 0.20134 0.42373 0.0
C269 C 0.32084 0.07554 0.52163 0.0
O270 O 0.33651 0.18384 0.51793 0.0
O271 O 0.28275 0.15856 0.63113 0.0
O272 O 0.34421 0.11732 0.224 0.0
O273 O 0.35969 0.18146 0.29878 0.0
O274 O 0.35255 0.09781 0.48106 0.0
O275 O 0.28615 0.08033 0.46521 0.0
O276 O 0.20514 0.09424 0.35236 0.0
O277 O 0.25714 0.13094 0.25771 0.0
C278 C 0.32116 0.17955 0.61545 0.0
C279 C 0.21886 0.10948 0.26134 0.0
Dy280 Dy 0.57369 0.51511 0.22243 0.0
C281 C 0.45466 0.57678 0.92577 0.0
C282 C 0.64251 0.49406 0.35109 0.0
Dy283 Dy 0.51355 0.57323 0.08783 0.0
O284 O 0.61476 0.46562 0.30169 0.0
O285 O 0.63645 0.53253 0.3139 0.0
O286 O 0.516 0.47136 0.25931 0.0
O287 O 0.51878 0.50273 0.11346 0.0
C288 C 0.49485 0.47977 0.17211 0.0
C289 C 0.56114 0.61899 0.2454 0.0
O290 O 0.47076 0.57231 0.23434 0.0
O291 O 0.52592 0.54633 0.34624 0.0
O292 O 0.49377 0.59646 0.92749 0.0
O293 O 0.44613 0.56153 1.0177 0.0
O294 O 0.52634 0.63612 0.20085 0.0
O295 O 0.57261 0.58417 0.18644 0.0
O296 O 0.59675 0.49012 1.05617 0.0
O297 O 0.56404 0.54547 0.96386 0.0
C298 C 0.4866 0.5654 0.33067 0.0
C299 C 0.58851 0.50864 0.96537 0.0
Dy300 Dy 0.21159 0.83485 0.98622 0.0
C301 C 0.11945 0.73816 0.65323 0.0
C302 C 0.24417 0.89568 0.14032 0.0
Dy303 Dy 0.14188 0.79337 0.82577 0.0
O304 O 0.26794 0.86675 0.08117 0.0
O305 O 0.20374 0.89457 0.10336 0.0
O306 O 0.2357 0.76661 1.02032 0.0
O307 O 0.20954 0.77821 0.86821 0.0
C308 C 0.22311 0.74856 0.92627 0.0
C309 C 0.10924 0.85346 0.97761 0.0
O310 O 0.12739 0.75225 0.96427 0.0
O311 O 0.16714 0.79767 0.09308 0.0
O312 O 0.11411 0.78149 0.65839 0.0
O313 O 0.13137 0.72549 0.74559 0.0
O314 O 0.08464 0.82412 0.92035 0.0
O315 O 0.14715 0.85469 0.93204 0.0
O316 O 0.24492 0.85117 0.83154 0.0
O317 O 0.18474 0.83307 0.71838 0.0
C318 C 0.13786 0.76514 1.06548 0.0
C319 C 0.22649 0.84731 0.73425 0.0
Dy320 Dy 0.51445 0.87428 0.6922 0.0
C321 C 0.58567 -0.00193 0.39848 0.0
C322 C 0.47574 0.81401 0.82051 0.0
Dy323 Dy 0.57417 0.9353 0.54785 0.0
O324 O 0.45488 0.84238 0.76591 0.0
O325 O 0.5176 0.81571 0.79504 0.0
O326 O 0.4725 0.93126 0.75202 0.0
O327 O 0.50329 0.92968 0.59703 0.0
C328 C 0.4804 0.95249 0.66775 0.0
C329 C 0.61799 0.88336 0.6851 0.0
O330 O 0.57565 -0.02131 0.69753 0.0
O331 O 0.54948 0.92452 0.80816 0.0
O332 O 0.60547 0.95904 0.39424 0.0
O333 O 0.56239 0.00269 0.48659 0.0
O334 O 0.63588 0.91868 0.64652 0.0
O335 O 0.58233 0.87438 0.63185 0.0
O336 O 0.49112 0.85228 0.52471 0.0
O337 O 0.54575 0.88527 0.42336 0.0
C338 C 0.5708 0.96253 0.79149 0.0
C339 C 0.5083 0.86228 0.43143 0.0
Dy340 Dy 0.33067 0.2244 0.96701 0.0
C341 C 0.25315 0.33601 0.65776 0.0
C342 C 0.3704 0.17224 0.10856 0.0
Dy343 Dy 0.30318 0.29877 0.81404 0.0
O344 O 0.34387 0.15789 1.03056 0.0
O345 O 0.37828 0.21462 0.1018 0.0
O346 O 0.26056 0.21168 1.01321 0.0
O347 O 0.27569 0.23425 0.85985 0.0
C348 C 0.2449 0.22524 0.92473 0.0
C349 C 0.36929 0.32051 0.96008 0.0
O350 O 0.26546 0.32282 0.95772 0.0
O351 O 0.30392 0.28053 1.0768 0.0
O352 O 0.29683 0.33508 0.66003 0.0
O353 O 0.23819 0.31823 0.74223 0.0
O354 O 0.34602 0.34932 0.91127 0.0
O355 O 0.36216 0.28242 0.91016 0.0
O356 O 0.3404 0.18963 0.80125 0.0
O357 O 0.33665 0.25055 0.69744 0.0
C358 C 0.27835 0.31463 1.05477 0.0
C359 C 0.33943 0.20727 0.70695 0.0
Dy360 Dy 0.90315 0.05443 0.08178 0.0
C361 C 0.79931 0.95535 0.35684 0.0
C362 C 0.95878 0.07518 0.92514 0.0
Dy363 Dy 0.86145 -0.01591 0.21937 0.0
O364 O 0.91575 0.08179 0.92259 0.0
O365 O 0.97114 0.06334 1.01791 0.0
O366 O 0.87177 0.11163 0.18131 0.0
O367 O 0.84186 0.04851 0.17318 0.0
C368 C 0.84266 0.08655 0.2268 0.0
C369 C 0.94731 0.97292 0.1726 0.0
O370 O 0.84642 0.94994 1.05381 0.0
O371 O 0.86376 0.01091 0.95774 0.0
O372 O 0.82865 0.93008 0.30376 0.0
O373 O 0.80061 -0.00546 0.32054 0.0
O374 O 0.92987 0.96031 0.26106 0.0
O375 O 0.91736 -0.01345 0.11279 0.0
O376 O 0.94373 0.06944 0.23249 0.0
O377 O 0.89873 0.02897 0.34307 0.0
C378 C 0.85038 0.96866 0.96125 0.0
C379 C 0.93086 0.0588 0.32878 0.0
Dy380 Dy 0.12335 0.68203 0.30402 0.0
C381 C 0.1933 0.55376 0.56831 0.0
C382 C 0.12057 0.74082 0.15312 0.0
Dy383 Dy 0.17773 0.62204 0.44369 0.0
O384 O 0.10137 0.70143 0.14195 0.0
O385 O 0.13554 0.74949 0.25009 0.0
O386 O 0.05873 0.67044 0.38972 0.0
O387 O 0.10955 0.62301 0.38929 0.0
C388 C 0.0739 0.63636 0.43728 0.0
C389 C 0.21497 0.70089 0.4169 0.0
O390 O 0.20381 0.59693 0.27979 0.0
O391 O 0.15076 0.63053 0.17846 0.0
O392 O 0.22377 0.57625 0.52068 0.0
O393 O 0.15461 0.56518 0.53383 0.0
O394 O 0.22163 0.68005 0.50301 0.0
O395 O 0.1928 0.67649 0.34803 0.0
O396 O 0.12266 0.72542 0.45985 0.0
O397 O 0.14642 0.67021 0.56824 0.0
C398 C 0.18678 0.60539 0.18542 0.0
C399 C 0.12846 0.70987 0.55521 0.0
Dy400 Dy 0.50966 0.09573 0.20266 0.0
C401 C 0.58685 -0.01125 0.884 0.0
C402 C 0.48082 0.13979 0.39184 0.0
Dy403 Dy 0.5551 0.03096 1.06356 0.0
O404 O 0.52215 0.13407 0.36287 0.0
O405 O 0.4555 0.12442 0.31209 0.0
O406 O 0.52616 0.14995 0.09498 0.0
O407 O 0.57209 0.09883 0.10831 0.0
C408 C 0.56123 0.13058 1.05247 0.0
C409 C 0.49078 -0.01145 0.15638 0.0
O410 O 0.59569 0.01996 0.212 0.0
O411 O 0.53907 0.04962 0.3166 0.0
O412 O 0.58528 0.97188 0.97537 0.0
O413 O 0.57793 0.03085 0.89492 0.0
O414 O 0.52831 0.97046 0.1284 0.0
O415 O 0.48782 0.02856 0.13031 0.0
O416 O 0.45597 0.0964 0.07964 0.0
O417 O 0.5023 0.0583 0.956 0.0
C418 C 0.57563 0.02549 0.30651 0.0
C419 C 0.46619 0.08281 0.97935 0.0
Dy420 Dy 0.13177 0.30983 0.44188 0.0
C421 C 0.25992 0.34043 0.14465 0.0
C422 C 0.07701 0.29396 0.60988 0.0
Dy423 Dy 0.2093 0.32386 0.31237 0.0
O424 O 0.09855 0.33113 0.59914 0.0
O425 O 0.08322 0.26688 0.52439 0.0
O426 O 0.09015 0.35074 0.34231 0.0
O427 O 0.15657 0.36809 0.35772 0.0
C428 C 0.12186 0.37295 0.30151 0.0
C429 C 0.21834 0.24735 0.39968 0.0
O430 O 0.23769 0.35437 0.47079 0.0
O431 O 0.18569 0.31763 0.56543 0.0
O432 O 0.27506 0.33369 0.2386 0.0
O433 O 0.21726 0.34507 0.14784 0.0
O434 O 0.25173 0.27136 0.37272 0.0
O435 O 0.18152 0.26244 0.36857 0.0
O436 O 0.10633 0.26464 0.30518 0.0
O437 O 0.16015 0.28993 0.19206 0.0
C438 C 0.22398 0.3391 0.5618 0.0
C439 C 0.12172 0.26896 0.20769 0.0
Dy440 Dy 0.92917 0.87514 0.73549 0.0
C441 C 0.80019 0.9543 0.47224 0.0
C442 C -0.01194 0.87154 0.8977 0.0
Dy443 Dy 0.86896 0.93326 0.60104 0.0
O444 O 0.94889 0.85196 0.89595 0.0
O445 O -0.00342 0.88676 0.80575 0.0
O446 O 0.91645 0.81222 0.6227 0.0
O447 O 0.87 0.86414 0.63682 0.0
C448 C 0.88167 0.82932 0.57803 0.0
C449 C 0.94789 0.96852 0.65137 0.0
O450 O 0.8459 0.95827 0.76724 0.0
O451 O 0.87872 0.90297 0.85953 0.0
O452 O 0.82791 -0.01725 0.52173 0.0
O453 O 0.80626 0.91582 0.50934 0.0
O454 O 0.92675 -0.02304 0.56418 0.0
O455 O 0.92384 0.94559 0.7098 0.0
O456 O -0.02803 0.87609 0.58906 0.0
O457 O 0.91679 0.9021 0.47722 0.0
C458 C 0.8542 0.93977 0.85803 0.0
C459 C 0.95613 0.88304 0.49275 0.0
Dy460 Dy 0.30086 0.65524 0.99727 0.0
C461 C 0.19852 0.55293 0.68286 0.0
C462 C 0.32316 0.71039 0.16993 0.0
Dy463 Dy 0.23111 0.61372 0.837 0.0
O464 O 0.32856 0.66707 0.16475 0.0
O465 O 0.31131 0.72311 1.07756 0.0
O466 O 0.35815 0.62462 0.90291 0.0
O467 O 0.29559 0.59381 0.89093 0.0
C468 C 0.33354 0.59531 0.8456 0.0
C469 C 0.21977 0.70009 0.89691 0.0
O470 O 0.19779 0.59743 0.99165 0.0
O471 O 0.258 0.61554 0.1047 0.0
O472 O 0.17475 0.58189 0.74196 0.0
O473 O 0.23893 0.55399 0.7199 0.0
O474 O 0.2071 0.68205 0.8029 0.0
O475 O 0.23322 0.67034 0.95477 0.0
O476 O 0.31535 0.69633 0.85876 0.0
O477 O 0.27557 0.65088 0.73005 0.0
C478 C 0.21624 0.6013 0.0889 0.0
C479 C 0.30488 0.6834 0.75758 0.0
Dy480 Dy 0.36855 0.01313 0.77494 0.0
C481 C 0.46693 0.13446 0.50254 0.0
C482 C 0.3571 0.95043 0.92442 0.0
Dy483 Dy 0.42828 0.07427 0.63087 0.0
O484 O 0.33728 -0.01056 0.92861 0.0
O485 O 0.38035 0.94576 0.83627 0.0
O486 O 0.30683 0.02974 0.6765 0.0
O487 O 0.36036 0.0742 0.6912 0.0
C488 C 0.32468 0.06511 0.63806 0.0
C489 C 0.4622 -0.00406 0.65514 0.0
O490 O 0.45163 0.0962 0.79836 0.0
O491 O 0.39703 0.06307 0.89959 0.0
O492 O 0.48785 0.10608 0.55696 0.0
O493 O 0.42509 0.13289 0.5282 0.0
O494 O 0.47016 0.01719 0.57092 0.0
O495 O 0.43937 0.01887 0.72571 0.0
O496 O 0.3671 0.9698 0.62521 0.0
O497 O 0.39322 0.02406 0.51477 0.0
C498 C 0.43441 0.08617 0.89157 0.0
C499 C 0.37193 -0.01398 0.5313 0.0
Dy500 Dy 0.63967 0.64967 0.50897 0.0
C501 C 0.57233 0.7762 0.21462 0.0
C502 C 0.68969 0.6125 0.66533 0.0
Dy503 Dy 0.61203 0.72405 0.3562 0.0
O504 O 0.64601 0.61342 0.66303 0.0
O505 O 0.70466 0.63026 0.58084 0.0
O506 O 0.59688 0.59905 0.41213 0.0
O507 O 0.58053 0.66599 0.41302 0.0
C508 C 0.57355 0.62781 0.36334 0.0
C509 C 0.69787 0.72306 0.39827 0.0
O510 O 0.60236 0.75882 0.52195 0.0
O511 O 0.60628 0.6979 0.62571 0.0
O512 O 0.59886 0.79056 0.29261 0.0
O513 O 0.56442 0.73383 0.22142 0.0
O514 O 0.68222 0.73667 0.30983 0.0
O515 O 0.667 0.71418 0.463 0.0
O516 O 0.67733 0.62565 0.3652 0.0
O517 O 0.63874 0.66791 0.24629 0.0
C518 C 0.60341 0.74118 0.61622 0.0
C519 C 0.66437 0.63382 0.2682 0.0
Dy520 Dy 0.08119 0.96437 0.10393 0.0
C521 C -0.01604 0.87332 0.39829 0.0
C522 C 0.14338 -0.00693 0.96653 0.0
Dy523 Dy 0.03962 0.89398 0.24173 0.0
O524 O 0.11402 0.01835 1.01952 0.0
O525 O 0.14206 0.9539 1.0029 0.0
O526 O 0.01283 -0.01182 1.06231 0.0
O527 O 0.02526 0.96187 0.21075 0.0
C528 C -0.00461 -0.02444 0.15074 0.0
C529 C 0.10025 0.86204 0.09656 0.0
O530 O -0.00096 0.87889 0.09101 0.0
O531 O 0.0439 0.91945 0.98033 0.0
O532 O 0.02697 0.86659 0.40086 0.0
O533 O -0.02839 0.88516 0.30551 0.0
O534 O 0.0712 0.83687 0.14199 0.0
O535 O 0.10079 0.90002 0.15036 0.0
O536 O 0.0962 -0.00149 0.26955 0.0
O537 O 0.07904 0.93751 0.36566 0.0
C538 C 0.01183 0.88957 0.99468 0.0
C539 C 0.09234 -0.02022 0.36213 0.0
Dy540 Dy 0.76498 0.32651 0.87935 0.0
C541 C 0.82216 0.20773 0.16995 0.0
C542 C 0.74941 0.39483 0.75484 0.0
Dy543 Dy 0.81937 0.26658 1.01922 0.0
O544 O 0.71895 0.37235 0.80248 0.0
O545 O 0.7881 0.38339 0.78929 0.0
O546 O 0.72102 0.26861 0.82009 0.0
O547 O 0.74988 0.27204 0.97524 0.0
C548 C 0.72764 0.24777 0.90622 0.0
C549 C 0.86876 0.31231 0.88574 0.0
O550 O 0.82006 0.22317 0.86336 0.0
O551 O 0.79629 0.27835 0.75487 0.0
O552 O 0.84139 0.2471 0.18117 0.0
O553 O 0.80714 0.1991 1.07299 0.0
O554 O 0.88399 0.27825 0.93331 0.0
O555 O 0.8331 0.32549 0.9339 0.0
O556 O 0.73891 0.35162 1.04331 0.0
O557 O 0.79199 0.31811 0.14473 0.0
C558 C 0.81425 0.2387 0.76796 0.0
C559 C 0.75595 0.34322 0.13771 0.0
Dy560 Dy 0.38776 0.91752 0.25925 0.0
C561 C 0.46179 0.80883 0.93126 0.0
C562 C 0.35597 0.95977 0.43874 0.0
Dy563 Dy 0.43299 0.85281 0.12042 0.0
O564 O 0.35754 -0.02339 0.34735 0.0
O565 O 0.36492 0.91768 0.42789 0.0
O566 O 0.41453 -0.02184 0.19515 0.0
O567 O 0.45515 0.91999 0.19245 0.0
C568 C 0.45211 0.96014 0.16732 0.0
C569 C 0.38142 0.81809 0.27055 0.0
O570 O 0.48671 0.85203 0.24335 0.0
O571 O 0.44044 0.89015 0.367 0.0
O572 O 0.42045 0.81455 0.9601 0.0
O573 O 0.48715 0.82406 1.01104 0.0
O574 O 0.4165 0.79868 0.22816 0.0
O575 O 0.37048 0.84975 0.21449 0.0
O576 O 0.34712 0.92859 0.11093 0.0
O577 O 0.40376 0.89897 1.00642 0.0
C578 C 0.47652 0.86562 0.34365 0.0
C579 C 0.36719 0.92307 1.01644 0.0
Dy580 Dy 0.73354 0.62469 1.01071 0.0
C581 C 0.86576 0.65447 0.71329 0.0
C582 C 0.68284 0.60809 0.17828 0.0
Dy583 Dy 0.81099 0.63863 0.88133 0.0
O584 O 0.66774 0.61486 0.08432 0.0
O585 O 0.7255 0.60345 0.17519 0.0
O586 O 0.69105 0.67727 0.95085 0.0
O587 O 0.76128 0.68618 0.9544 0.0
C588 C 0.7244 0.70132 0.92383 0.0
C589 C 0.82082 0.57562 1.02173 0.0
O590 O 0.83646 0.68383 1.01798 0.0
O591 O 0.78267 0.65855 0.13112 0.0
O592 O 0.84419 0.61731 0.72402 0.0
O593 O 0.85959 0.68153 0.79883 0.0
O594 O 0.85255 0.59783 0.98108 0.0
O595 O 0.78613 0.58033 0.96526 0.0
O596 O 0.7051 0.59419 0.85233 0.0
O597 O 0.75711 0.63092 0.75773 0.0
C598 C 0.82109 0.67952 0.11547 0.0
C599 C 0.71883 0.60945 0.76133 0.0
Dy600 Dy 0.07369 0.0151 0.72244 0.0
C601 C 0.95467 0.07676 0.42574 0.0
C602 C 0.14251 -0.00593 0.85111 0.0
Dy603 Dy 0.01356 0.07324 0.58783 0.0
O604 O 0.11477 0.96562 0.80172 0.0
O605 O 0.13645 0.03254 0.81391 0.0
O606 O 0.016 0.97135 0.75929 0.0
O607 O 0.01878 0.00274 0.61346 0.0
C608 C -0.00515 -0.02023 0.6721 0.0
C609 C 0.06109 0.11897 0.74547 0.0
O610 O 0.97076 0.07231 0.73432 0.0
O611 O 0.0259 0.0463 0.84624 0.0
O612 O -0.00621 0.09644 0.42746 0.0
O613 O 0.94615 0.06153 0.51769 0.0
O614 O 0.02634 0.13614 0.70083 0.0
O615 O 0.07261 0.08417 0.68651 0.0
O616 O 0.09674 -0.00988 0.55618 0.0
O617 O 0.06406 0.04548 0.46389 0.0
C618 C -0.01342 0.06538 0.83065 0.0
C619 C 0.08852 0.00864 0.46538 0.0
Dy620 Dy 0.71161 0.33482 0.4862 0.0
C621 C 0.61954 0.23817 0.15324 0.0
C622 C 0.74418 0.39565 0.64029 0.0
Dy623 Dy 0.64186 0.29338 0.32576 0.0
O624 O 0.76796 0.36671 0.58117 0.0
O625 O 0.70376 0.39455 0.60329 0.0
O626 O 0.73571 0.26657 0.52026 0.0
O627 O 0.70952 0.27818 0.36818 0.0
C628 C 0.72307 0.24853 0.42625 0.0
C629 C 0.60928 0.3534 0.47769 0.0
O630 O 0.62736 0.25226 0.46426 0.0
O631 O 0.66718 0.29762 0.59307 0.0
O632 O 0.6141 0.28149 0.15837 0.0
O633 O 0.63143 0.22548 0.24559 0.0
O634 O 0.58462 0.32411 0.4204 0.0
O635 O 0.64718 0.35468 0.43208 0.0
O636 O 0.74493 0.35113 0.33151 0.0
O637 O 0.68472 0.3331 0.2184 0.0
C638 C 0.63786 0.26513 0.56547 0.0
C639 C 0.72649 0.3473 0.23425 0.0
loop_
_geom_bond_atom_site_label_1
_geom_bond_atom_site_label_2
_geom_bond_distance
_geom_bond_site_symmetry_2
_ccdc_geom_bond_type
Dy0 O4 2.398 1_455 S
Dy0 O5 2.491 . S
Dy0 O6 2.403 1_455 S
Dy0 O7 2.664 . S
Dy0 O11 2.326 . S
Dy0 O15 2.310 . S
Dy0 O16 2.351 1_554 S
C1 O12 1.185 . S
C1 O13 1.355 . S
C2 O4 1.185 . S
C2 O5 1.355 1_655 S
Dy3 O7 2.310 1_556 S
Dy3 O10 2.351 1_556 S
Dy3 O12 2.398 . S
Dy3 O13 2.491 . S
Dy3 O14 2.403 . S
Dy3 O15 2.664 1_556 S
Dy3 O17 2.326 . S
O4 Dy0 2.398 1_655 S
O4 C2 1.185 . S
O5 Dy0 2.491 . S
O5 C2 1.355 1_455 S
O6 Dy0 2.403 1_655 S
O6 C8 1.254 . S
O7 Dy0 2.664 . S
O7 Dy3 2.310 1_554 S
O7 C8 1.268 1_455 S
C8 O6 1.254 . S
C8 O7 1.268 1_655 S
C9 O14 1.254 1_554 S
C9 O15 1.268 . S
O10 Dy3 2.351 1_554 S
O10 C18 1.249 . S
O11 Dy0 2.326 . S
O11 C18 1.267 . S
O12 C1 1.185 . S
O12 Dy3 2.398 . S
O13 C1 1.355 . S
O13 Dy3 2.491 . S
O14 Dy3 2.403 . S
O14 C9 1.254 1_556 S
O15 Dy0 2.310 . S
O15 Dy3 2.664 1_554 S
O15 C9 1.268 . S
O16 Dy0 2.351 1_556 S
O16 C19 1.249 . S
O17 Dy3 2.326 . S
O17 C19 1.267 . S
C18 O10 1.249 . S
C18 O11 1.267 . S
C19 O16 1.249 . S
C19 O17 1.267 . S
Dy20 O24 2.398 . S
Dy20 O25 2.491 . S
Dy20 O26 2.403 . S
Dy20 O27 2.664 . S
Dy20 O31 2.326 . S
Dy20 O35 2.310 . S
Dy20 O36 2.351 . S
C21 O32 1.185 . S
C21 O33 1.355 . S
C22 O24 1.185 . S
C22 O25 1.355 . S
Dy23 O27 2.310 . S
Dy23 O30 2.351 . S
Dy23 O32 2.398 . S
Dy23 O33 2.491 . S
Dy23 O34 2.403 . S
Dy23 O35 2.664 . S
Dy23 O37 2.326 . S
O24 Dy20 2.398 . S
O24 C22 1.185 . S
O25 Dy20 2.491 . S
O25 C22 1.355 . S
O26 Dy20 2.403 . S
O26 C28 1.254 . S
O27 Dy20 2.664 . S
O27 Dy23 2.310 . S
O27 C28 1.268 . S
C28 O26 1.254 . S
C28 O27 1.268 . S
C29 O34 1.254 . S
C29 O35 1.268 . S
O30 Dy23 2.351 . S
O30 C38 1.249 . S
O31 Dy20 2.326 . S
O31 C38 1.267 . S
O32 C21 1.185 . S
O32 Dy23 2.398 . S
O33 C21 1.355 . S
O33 Dy23 2.491 . S
O34 Dy23 2.403 . S
O34 C29 1.254 . S
O35 Dy20 2.310 . S
O35 Dy23 2.664 . S
O35 C29 1.268 . S
O36 Dy20 2.351 . S
O36 C39 1.249 . S
O37 Dy23 2.326 . S
O37 C39 1.267 . S
C38 O30 1.249 . S
C38 O31 1.267 . S
C39 O36 1.249 . S
C39 O37 1.267 . S
Dy40 O44 2.398 . S
Dy40 O45 2.491 . S
Dy40 O46 2.403 . S
Dy40 O47 2.664 . S
Dy40 O51 2.326 . S
Dy40 O55 2.310 . S
Dy40 O56 2.351 . S
C41 O52 1.185 . S
C41 O53 1.355 . S
C42 O44 1.185 . S
C42 O45 1.355 . S
Dy43 O47 2.310 . S
Dy43 O50 2.351 . S
Dy43 O52 2.398 . S
Dy43 O53 2.491 . S
Dy43 O54 2.403 . S
Dy43 O55 2.664 . S
Dy43 O57 2.326 . S
O44 Dy40 2.398 . S
O44 C42 1.185 . S
O45 Dy40 2.491 . S
O45 C42 1.355 . S
O46 Dy40 2.403 . S
O46 C48 1.254 . S
O47 Dy40 2.664 . S
O47 Dy43 2.310 . S
O47 C48 1.268 . S
C48 O46 1.254 . S
C48 O47 1.268 . S
C49 O54 1.254 . S
C49 O55 1.268 . S
O50 Dy43 2.351 . S
O50 C58 1.249 . S
O51 Dy40 2.326 . S
O51 C58 1.267 . S
O52 C41 1.185 . S
O52 Dy43 2.398 . S
O53 C41 1.355 . S
O53 Dy43 2.491 . S
O54 Dy43 2.403 . S
O54 C49 1.254 . S
O55 Dy40 2.310 . S
O55 Dy43 2.664 . S
O55 C49 1.268 . S
O56 Dy40 2.351 . S
O56 C59 1.249 . S
O57 Dy43 2.326 . S
O57 C59 1.267 . S
C58 O50 1.249 . S
C58 O51 1.267 . S
C59 O56 1.249 . S
C59 O57 1.267 . S
Dy60 O64 2.398 . S
Dy60 O65 2.491 . S
Dy60 O66 2.403 . S
Dy60 O67 2.664 . S
Dy60 O71 2.326 . S
Dy60 O75 2.310 . S
Dy60 O76 2.351 . S
C61 O72 1.185 . S
C61 O73 1.355 . S
C62 O64 1.185 . S
C62 O65 1.355 . S
Dy63 O67 2.310 . S
Dy63 O70 2.351 . S
Dy63 O72 2.398 1_556 S
Dy63 O73 2.491 1_556 S
Dy63 O74 2.403 . S
Dy63 O75 2.664 . S
Dy63 O77 2.326 . S
O64 Dy60 2.398 . S
O64 C62 1.185 . S
O65 Dy60 2.491 . S
O65 C62 1.355 . S
O66 Dy60 2.403 . S
O66 C68 1.254 . S
O67 Dy60 2.664 . S
O67 Dy63 2.310 . S
O67 C68 1.268 . S
C68 O66 1.254 . S
C68 O67 1.268 . S
C69 O74 1.254 . S
C69 O75 1.268 . S
O70 Dy63 2.351 . S
O70 C78 1.249 . S
O71 Dy60 2.326 . S
O71 C78 1.267 . S
O72 C61 1.185 . S
O72 Dy63 2.398 1_554 S
O73 C61 1.355 . S
O73 Dy63 2.491 1_554 S
O74 Dy63 2.403 . S
O74 C69 1.254 . S
O75 Dy60 2.310 . S
O75 Dy63 2.664 . S
O75 C69 1.268 . S
O76 Dy60 2.351 . S
O76 C79 1.249 . S
O77 Dy63 2.326 . S
O77 C79 1.267 . S
C78 O70 1.249 . S
C78 O71 1.267 . S
C79 O76 1.249 . S
C79 O77 1.267 . S
Dy80 O84 2.398 . S
Dy80 O85 2.491 . S
Dy80 O86 2.403 . S
Dy80 O87 2.664 . S
Dy80 O91 2.326 . S
Dy80 O95 2.310 . S
Dy80 O96 2.351 . S
C81 O92 1.185 . S
C81 O93 1.355 . S
C82 O84 1.185 . S
C82 O85 1.355 . S
Dy83 O87 2.310 . S
Dy83 O90 2.351 . S
Dy83 O92 2.398 . S
Dy83 O93 2.491 . S
Dy83 O94 2.403 . S
Dy83 O95 2.664 . S
Dy83 O97 2.326 . S
O84 Dy80 2.398 . S
O84 C82 1.185 . S
O85 Dy80 2.491 . S
O85 C82 1.355 . S
O86 Dy80 2.403 . S
O86 C88 1.254 . S
O87 Dy80 2.664 . S
O87 Dy83 2.310 . S
O87 C88 1.268 . S
C88 O86 1.254 . S
C88 O87 1.268 . S
C89 O94 1.254 . S
C89 O95 1.268 . S
O90 Dy83 2.351 . S
O90 C98 1.249 . S
O91 Dy80 2.326 . S
O91 C98 1.267 . S
O92 C81 1.185 . S
O92 Dy83 2.398 . S
O93 C81 1.355 . S
O93 Dy83 2.491 . S
O94 Dy83 2.403 . S
O94 C89 1.254 . S
O95 Dy80 2.310 . S
O95 Dy83 2.664 . S
O95 C89 1.268 . S
O96 Dy80 2.351 . S
O96 C99 1.249 . S
O97 Dy83 2.326 . S
O97 C99 1.267 . S
C98 O90 1.249 . S
C98 O91 1.267 . S
C99 O96 1.249 . S
C99 O97 1.267 . S
Dy100 O104 2.398 . S
Dy100 O105 2.491 . S
Dy100 O106 2.403 . S
Dy100 O107 2.664 . S
Dy100 O111 2.326 . S
Dy100 O115 2.310 . S
Dy100 O116 2.351 . S
C101 O112 1.185 . S
C101 O113 1.355 . S
C102 O104 1.185 1_554 S
C102 O105 1.355 1_554 S
Dy103 O107 2.310 . S
Dy103 O110 2.351 . S
Dy103 O112 2.398 . S
Dy103 O113 2.491 . S
Dy103 O114 2.403 . S
Dy103 O115 2.664 . S
Dy103 O117 2.326 . S
O104 Dy100 2.398 . S
O104 C102 1.185 1_556 S
O105 Dy100 2.491 . S
O105 C102 1.355 1_556 S
O106 Dy100 2.403 . S
O106 C108 1.254 . S
O107 Dy100 2.664 . S
O107 Dy103 2.310 . S
O107 C108 1.268 . S
C108 O106 1.254 . S
C108 O107 1.268 . S
C109 O114 1.254 . S
C109 O115 1.268 . S
O110 Dy103 2.351 . S
O110 C118 1.249 . S
O111 Dy100 2.326 . S
O111 C118 1.267 . S
O112 C101 1.185 . S
O112 Dy103 2.398 . S
O113 C101 1.355 . S
O113 Dy103 2.491 . S
O114 Dy103 2.403 . S
O114 C109 1.254 . S
O115 Dy100 2.310 . S
O115 Dy103 2.664 . S
O115 C109 1.268 . S
O116 Dy100 2.351 . S
O116 C119 1.249 . S
O117 Dy103 2.326 . S
O117 C119 1.267 . S
C118 O110 1.249 . S
C118 O111 1.267 . S
C119 O116 1.249 . S
C119 O117 1.267 . S
Dy120 O124 2.398 . S
Dy120 O125 2.491 . S
Dy120 O126 2.403 . S
Dy120 O127 2.664 . S
Dy120 O131 2.326 . S
Dy120 O135 2.310 . S
Dy120 O136 2.351 1_554 S
C121 O132 1.185 . S
C121 O133 1.355 . S
C122 O124 1.185 . S
C122 O125 1.355 . S
Dy123 O127 2.310 . S
Dy123 O130 2.351 . S
Dy123 O132 2.398 1_554 S
Dy123 O133 2.491 1_554 S
Dy123 O134 2.403 . S
Dy123 O135 2.664 . S
Dy123 O137 2.326 1_554 S
O124 Dy120 2.398 . S
O124 C122 1.185 . S
O125 Dy120 2.491 . S
O125 C122 1.355 . S
O126 Dy120 2.403 . S
O126 C128 1.254 . S
O127 Dy120 2.664 . S
O127 Dy123 2.310 . S
O127 C128 1.268 . S
C128 O126 1.254 . S
C128 O127 1.268 . S
C129 O134 1.254 . S
C129 O135 1.268 . S
O130 Dy123 2.351 . S
O130 C138 1.249 . S
O131 Dy120 2.326 . S
O131 C138 1.267 . S
O132 C121 1.185 . S
O132 Dy123 2.398 1_556 S
O133 C121 1.355 . S
O133 Dy123 2.491 1_556 S
O134 Dy123 2.403 . S
O134 C129 1.254 . S
O135 Dy120 2.310 . S
O135 Dy123 2.664 . S
O135 C129 1.268 . S
O136 Dy120 2.351 1_556 S
O136 C139 1.249 . S
O137 Dy123 2.326 1_556 S
O137 C139 1.267 . S
C138 O130 1.249 . S
C138 O131 1.267 . S
C139 O136 1.249 . S
C139 O137 1.267 . S
Dy140 O144 2.398 . S
Dy140 O145 2.491 . S
Dy140 O146 2.403 . S
Dy140 O147 2.664 . S
Dy140 O151 2.326 . S
Dy140 O155 2.310 . S
Dy140 O156 2.351 . S
C141 O152 1.185 . S
C141 O153 1.355 . S
C142 O144 1.185 . S
C142 O145 1.355 . S
Dy143 O147 2.310 . S
Dy143 O150 2.351 . S
Dy143 O152 2.398 . S
Dy143 O153 2.491 . S
Dy143 O154 2.403 . S
Dy143 O155 2.664 . S
Dy143 O157 2.326 . S
O144 Dy140 2.398 . S
O144 C142 1.185 . S
O145 Dy140 2.491 . S
O145 C142 1.355 . S
O146 Dy140 2.403 . S
O146 C148 1.254 . S
O147 Dy140 2.664 . S
O147 Dy143 2.310 . S
O147 C148 1.268 . S
C148 O146 1.254 . S
C148 O147 1.268 . S
C149 O154 1.254 . S
C149 O155 1.268 . S
O150 Dy143 2.351 . S
O150 C158 1.249 . S
O151 Dy140 2.326 . S
O151 C158 1.267 . S
O152 C141 1.185 . S
O152 Dy143 2.398 . S
O153 C141 1.355 . S
O153 Dy143 2.491 . S
O154 Dy143 2.403 . S
O154 C149 1.254 . S
O155 Dy140 2.310 . S
O155 Dy143 2.664 . S
O155 C149 1.268 . S
O156 Dy140 2.351 . S
O156 C159 1.249 . S
O157 Dy143 2.326 . S
O157 C159 1.267 . S
C158 O150 1.249 . S
C158 O151 1.267 . S
C159 O156 1.249 . S
C159 O157 1.267 . S
Dy160 O164 2.398 . S
Dy160 O165 2.491 . S
Dy160 O166 2.403 . S
Dy160 O167 2.664 . S
Dy160 O171 2.326 . S
Dy160 O175 2.310 . S
Dy160 O176 2.351 . S
C161 O172 1.185 . S
C161 O173 1.355 1_455 S
C162 O164 1.185 . S
C162 O165 1.355 . S
Dy163 O167 2.310 . S
Dy163 O170 2.351 . S
Dy163 O172 2.398 1_654 S
Dy163 O173 2.491 1_554 S
Dy163 O174 2.403 1_655 S
Dy163 O175 2.664 . S
Dy163 O177 2.326 1_554 S
O164 Dy160 2.398 . S
O164 C162 1.185 . S
O165 Dy160 2.491 . S
O165 C162 1.355 . S
O166 Dy160 2.403 . S
O166 C168 1.254 . S
O167 Dy160 2.664 . S
O167 Dy163 2.310 . S
O167 C168 1.268 . S
C168 O166 1.254 . S
C168 O167 1.268 . S
C169 O174 1.254 . S
C169 O175 1.268 1_455 S
O170 Dy163 2.351 . S
O170 C178 1.249 . S
O171 Dy160 2.326 . S
O171 C178 1.267 . S
O172 C161 1.185 . S
O172 Dy163 2.398 1_456 S
O173 C161 1.355 1_655 S
O173 Dy163 2.491 1_556 S
O174 Dy163 2.403 1_455 S
O174 C169 1.254 . S
O175 Dy160 2.310 . S
O175 Dy163 2.664 . S
O175 C169 1.268 1_655 S
O176 Dy160 2.351 . S
O176 C179 1.249 1_554 S
O177 Dy163 2.326 1_556 S
O177 C179 1.267 . S
C178 O170 1.249 . S
C178 O171 1.267 . S
C179 O176 1.249 1_556 S
C179 O177 1.267 . S
Dy180 O184 2.398 1_556 S
Dy180 O185 2.491 1_556 S
Dy180 O186 2.403 . S
Dy180 O187 2.664 . S
Dy180 O191 2.326 . S
Dy180 O195 2.310 . S
Dy180 O196 2.351 . S
C181 O192 1.185 . S
C181 O193 1.355 . S
C182 O184 1.185 . S
C182 O185 1.355 . S
Dy183 O187 2.310 . S
Dy183 O190 2.351 . S
Dy183 O192 2.398 . S
Dy183 O193 2.491 . S
Dy183 O194 2.403 . S
Dy183 O195 2.664 . S
Dy183 O197 2.326 . S
O184 Dy180 2.398 1_554 S
O184 C182 1.185 . S
O185 Dy180 2.491 1_554 S
O185 C182 1.355 . S
O186 Dy180 2.403 . S
O186 C188 1.254 . S
O187 Dy180 2.664 . S
O187 Dy183 2.310 . S
O187 C188 1.268 . S
C188 O186 1.254 . S
C188 O187 1.268 . S
C189 O194 1.254 . S
C189 O195 1.268 . S
O190 Dy183 2.351 . S
O190 C198 1.249 1_556 S
O191 Dy180 2.326 . S
O191 C198 1.267 1_556 S
O192 C181 1.185 . S
O192 Dy183 2.398 . S
O193 C181 1.355 . S
O193 Dy183 2.491 . S
O194 Dy183 2.403 . S
O194 C189 1.254 . S
O195 Dy180 2.310 . S
O195 Dy183 2.664 . S
O195 C189 1.268 . S
O196 Dy180 2.351 . S
O196 C199 1.249 . S
O197 Dy183 2.326 . S
O197 C199 1.267 . S
C198 O190 1.249 1_554 S
C198 O191 1.267 1_554 S
C199 O196 1.249 . S
C199 O197 1.267 . S
Dy200 O204 2.398 . S
Dy200 O205 2.491 . S
Dy200 O206 2.403 . S
Dy200 O207 2.664 . S
Dy200 O211 2.326 . S
Dy200 O215 2.310 . S
Dy200 O216 2.351 . S
C201 O212 1.185 . S
C201 O213 1.355 . S
C202 O204 1.185 . S
C202 O205 1.355 . S
Dy203 O207 2.310 . S
Dy203 O210 2.351 . S
Dy203 O212 2.398 . S
Dy203 O213 2.491 . S
Dy203 O214 2.403 . S
Dy203 O215 2.664 . S
Dy203 O217 2.326 . S
O204 Dy200 2.398 . S
O204 C202 1.185 . S
O205 Dy200 2.491 . S
O205 C202 1.355 . S
O206 Dy200 2.403 . S
O206 C208 1.254 . S
O207 Dy200 2.664 . S
O207 Dy203 2.310 . S
O207 C208 1.268 . S
C208 O206 1.254 . S
C208 O207 1.268 . S
C209 O214 1.254 . S
C209 O215 1.268 . S
O210 Dy203 2.351 . S
O210 C218 1.249 . S
O211 Dy200 2.326 . S
O211 C218 1.267 . S
O212 C201 1.185 . S
O212 Dy203 2.398 . S
O213 C201 1.355 . S
O213 Dy203 2.491 . S
O214 Dy203 2.403 . S
O214 C209 1.254 . S
O215 Dy200 2.310 . S
O215 Dy203 2.664 . S
O215 C209 1.268 . S
O216 Dy200 2.351 . S
O216 C219 1.249 . S
O217 Dy203 2.326 . S
O217 C219 1.267 . S
C218 O210 1.249 . S
C218 O211 1.267 . S
C219 O216 1.249 . S
C219 O217 1.267 . S
Dy220 O224 2.398 . S
Dy220 O225 2.491 . S
Dy220 O226 2.403 . S
Dy220 O227 2.664 . S
Dy220 O231 2.326 . S
Dy220 O235 2.310 . S
Dy220 O236 2.351 . S
C221 O232 1.185 . S
C221 O233 1.355 . S
C222 O224 1.185 . S
C222 O225 1.355 . S
Dy223 O227 2.310 . S
Dy223 O230 2.351 . S
Dy223 O232 2.398 . S
Dy223 O233 2.491 . S
Dy223 O234 2.403 . S
Dy223 O235 2.664 . S
Dy223 O237 2.326 . S
O224 Dy220 2.398 . S
O224 C222 1.185 . S
O225 Dy220 2.491 . S
O225 C222 1.355 . S
O226 Dy220 2.403 . S
O226 C228 1.254 . S
O227 Dy220 2.664 . S
O227 Dy223 2.310 . S
O227 C228 1.268 . S
C228 O226 1.254 . S
C228 O227 1.268 . S
C229 O234 1.254 . S
C229 O235 1.268 . S
O230 Dy223 2.351 . S
O230 C238 1.249 . S
O231 Dy220 2.326 . S
O231 C238 1.267 . S
O232 C221 1.185 . S
O232 Dy223 2.398 . S
O233 C221 1.355 . S
O233 Dy223 2.491 . S
O234 Dy223 2.403 . S
O234 C229 1.254 . S
O235 Dy220 2.310 . S
O235 Dy223 2.664 . S
O235 C229 1.268 . S
O236 Dy220 2.351 . S
O236 C239 1.249 . S
O237 Dy223 2.326 . S
O237 C239 1.267 . S
C238 O230 1.249 . S
C238 O231 1.267 . S
C239 O236 1.249 . S
C239 O237 1.267 . S
Dy240 O244 2.398 . S
Dy240 O245 2.491 . S
Dy240 O246 2.403 . S
Dy240 O247 2.664 . S
Dy240 O251 2.326 . S
Dy240 O255 2.310 . S
Dy240 O256 2.351 . S
C241 O252 1.185 . S
C241 O253 1.355 . S
C242 O244 1.185 . S
C242 O245 1.355 . S
Dy243 O247 2.310 . S
Dy243 O250 2.351 . S
Dy243 O252 2.398 . S
Dy243 O253 2.491 . S
Dy243 O254 2.403 . S
Dy243 O255 2.664 . S
Dy243 O257 2.326 . S
O244 Dy240 2.398 . S
O244 C242 1.185 . S
O245 Dy240 2.491 . S
O245 C242 1.355 . S
O246 Dy240 2.403 . S
O246 C248 1.254 . S
O247 Dy240 2.664 . S
O247 Dy243 2.310 . S
O247 C248 1.268 . S
C248 O246 1.254 . S
C248 O247 1.268 . S
C249 O254 1.254 . S
C249 O255 1.268 . S
O250 Dy243 2.351 . S
O250 C258 1.249 . S
O251 Dy240 2.326 . S
O251 C258 1.267 . S
O252 C241 1.185 . S
O252 Dy243 2.398 . S
O253 C241 1.355 . S
O253 Dy243 2.491 . S
O254 Dy243 2.403 . S
O254 C249 1.254 . S
O255 Dy240 2.310 . S
O255 Dy243 2.664 . S
O255 C249 1.268 . S
O256 Dy240 2.351 . S
O256 C259 1.249 . S
O257 Dy243 2.326 . S
O257 C259 1.267 . S
C258 O250 1.249 . S
C258 O251 1.267 . S
C259 O256 1.249 . S
C259 O257 1.267 . S
Dy260 O264 2.398 . S
Dy260 O265 2.491 . S
Dy260 O266 2.403 . S
Dy260 O267 2.664 . S
Dy260 O271 2.326 . S
Dy260 O275 2.310 . S
Dy260 O276 2.351 . S
C261 O272 1.185 . S
C261 O273 1.355 . S
C262 O264 1.185 . S
C262 O265 1.355 . S
Dy263 O267 2.310 . S
Dy263 O270 2.351 . S
Dy263 O272 2.398 . S
Dy263 O273 2.491 . S
Dy263 O274 2.403 . S
Dy263 O275 2.664 . S
Dy263 O277 2.326 . S
O264 Dy260 2.398 . S
O264 C262 1.185 . S
O265 Dy260 2.491 . S
O265 C262 1.355 . S
O266 Dy260 2.403 . S
O266 C268 1.254 . S
O267 Dy260 2.664 . S
O267 Dy263 2.310 . S
O267 C268 1.268 . S
C268 O266 1.254 . S
C268 O267 1.268 . S
C269 O274 1.254 . S
C269 O275 1.268 . S
O270 Dy263 2.351 . S
O270 C278 1.249 . S
O271 Dy260 2.326 . S
O271 C278 1.267 . S
O272 C261 1.185 . S
O272 Dy263 2.398 . S
O273 C261 1.355 . S
O273 Dy263 2.491 . S
O274 Dy263 2.403 . S
O274 C269 1.254 . S
O275 Dy260 2.310 . S
O275 Dy263 2.664 . S
O275 C269 1.268 . S
O276 Dy260 2.351 . S
O276 C279 1.249 . S
O277 Dy263 2.326 . S
O277 C279 1.267 . S
C278 O270 1.249 . S
C278 O271 1.267 . S
C279 O276 1.249 . S
C279 O277 1.267 . S
Dy280 O284 2.398 . S
Dy280 O285 2.491 . S
Dy280 O286 2.403 . S
Dy280 O287 2.664 . S
Dy280 O291 2.326 . S
Dy280 O295 2.310 . S
Dy280 O296 2.351 1_554 S
C281 O292 1.185 . S
C281 O293 1.355 . S
C282 O284 1.185 . S
C282 O285 1.355 . S
Dy283 O287 2.310 . S
Dy283 O290 2.351 . S
Dy283 O292 2.398 1_554 S
Dy283 O293 2.491 1_554 S
Dy283 O294 2.403 . S
Dy283 O295 2.664 . S
Dy283 O297 2.326 1_554 S
O284 Dy280 2.398 . S
O284 C282 1.185 . S
O285 Dy280 2.491 . S
O285 C282 1.355 . S
O286 Dy280 2.403 . S
O286 C288 1.254 . S
O287 Dy280 2.664 . S
O287 Dy283 2.310 . S
O287 C288 1.268 . S
C288 O286 1.254 . S
C288 O287 1.268 . S
C289 O294 1.254 . S
C289 O295 1.268 . S
O290 Dy283 2.351 . S
O290 C298 1.249 . S
O291 Dy280 2.326 . S
O291 C298 1.267 . S
O292 C281 1.185 . S
O292 Dy283 2.398 1_556 S
O293 C281 1.355 . S
O293 Dy283 2.491 1_556 S
O294 Dy283 2.403 . S
O294 C289 1.254 . S
O295 Dy280 2.310 . S
O295 Dy283 2.664 . S
O295 C289 1.268 . S
O296 Dy280 2.351 1_556 S
O296 C299 1.249 . S
O297 Dy283 2.326 1_556 S
O297 C299 1.267 . S
C298 O290 1.249 . S
C298 O291 1.267 . S
C299 O296 1.249 . S
C299 O297 1.267 . S
Dy300 O304 2.398 1_556 S
Dy300 O305 2.491 1_556 S
Dy300 O306 2.403 . S
Dy300 O307 2.664 . S
Dy300 O311 2.326 . S
Dy300 O315 2.310 . S
Dy300 O316 2.351 . S
C301 O312 1.185 . S
C301 O313 1.355 . S
C302 O304 1.185 . S
C302 O305 1.355 . S
Dy303 O307 2.310 . S
Dy303 O310 2.351 . S
Dy303 O312 2.398 . S
Dy303 O313 2.491 . S
Dy303 O314 2.403 . S
Dy303 O315 2.664 . S
Dy303 O317 2.326 . S
O304 Dy300 2.398 1_554 S
O304 C302 1.185 . S
O305 Dy300 2.491 1_554 S
O305 C302 1.355 . S
O306 Dy300 2.403 . S
O306 C308 1.254 . S
O307 Dy300 2.664 . S
O307 Dy303 2.310 . S
O307 C308 1.268 . S
C308 O306 1.254 . S
C308 O307 1.268 . S
C309 O314 1.254 . S
C309 O315 1.268 . S
O310 Dy303 2.351 . S
O310 C318 1.249 . S
O311 Dy300 2.326 . S
O311 C318 1.267 . S
O312 C301 1.185 . S
O312 Dy303 2.398 . S
O313 C301 1.355 . S
O313 Dy303 2.491 . S
O314 Dy303 2.403 . S
O314 C309 1.254 . S
O315 Dy300 2.310 . S
O315 Dy303 2.664 . S
O315 C309 1.268 . S
O316 Dy300 2.351 . S
O316 C319 1.249 . S
O317 Dy303 2.326 . S
O317 C319 1.267 . S
C318 O310 1.249 . S
C318 O311 1.267 . S
C319 O316 1.249 . S
C319 O317 1.267 . S
Dy320 O324 2.398 . S
Dy320 O325 2.491 . S
Dy320 O326 2.403 . S
Dy320 O327 2.664 . S
Dy320 O331 2.326 . S
Dy320 O335 2.310 . S
Dy320 O336 2.351 . S
C321 O332 1.185 . S
C321 O333 1.355 . S
C322 O324 1.185 . S
C322 O325 1.355 . S
Dy323 O327 2.310 . S
Dy323 O330 2.351 . S
Dy323 O332 2.398 . S
Dy323 O333 2.491 . S
Dy323 O334 2.403 . S
Dy323 O335 2.664 . S
Dy323 O337 2.326 . S
O324 Dy320 2.398 . S
O324 C322 1.185 . S
O325 Dy320 2.491 . S
O325 C322 1.355 . S
O326 Dy320 2.403 . S
O326 C328 1.254 . S
O327 Dy320 2.664 . S
O327 Dy323 2.310 . S
O327 C328 1.268 . S
C328 O326 1.254 . S
C328 O327 1.268 . S
C329 O334 1.254 . S
C329 O335 1.268 . S
O330 Dy323 2.351 . S
O330 C338 1.249 . S
O331 Dy320 2.326 . S
O331 C338 1.267 . S
O332 C321 1.185 . S
O332 Dy323 2.398 . S
O333 C321 1.355 . S
O333 Dy323 2.491 . S
O334 Dy323 2.403 . S
O334 C329 1.254 . S
O335 Dy320 2.310 . S
O335 Dy323 2.664 . S
O335 C329 1.268 . S
O336 Dy320 2.351 . S
O336 C339 1.249 . S
O337 Dy323 2.326 . S
O337 C339 1.267 . S
C338 O330 1.249 . S
C338 O331 1.267 . S
C339 O336 1.249 . S
C339 O337 1.267 . S
Dy340 O344 2.398 1_556 S
Dy340 O345 2.491 1_556 S
Dy340 O346 2.403 . S
Dy340 O347 2.664 . S
Dy340 O351 2.326 . S
Dy340 O355 2.310 . S
Dy340 O356 2.351 . S
C341 O352 1.185 . S
C341 O353 1.355 . S
C342 O344 1.185 . S
C342 O345 1.355 . S
Dy343 O347 2.310 . S
Dy343 O350 2.351 . S
Dy343 O352 2.398 . S
Dy343 O353 2.491 . S
Dy343 O354 2.403 . S
Dy343 O355 2.664 . S
Dy343 O357 2.326 . S
O344 Dy340 2.398 1_554 S
O344 C342 1.185 . S
O345 Dy340 2.491 1_554 S
O345 C342 1.355 . S
O346 Dy340 2.403 . S
O346 C348 1.254 . S
O347 Dy340 2.664 . S
O347 Dy343 2.310 . S
O347 C348 1.268 . S
C348 O346 1.254 . S
C348 O347 1.268 . S
C349 O354 1.254 . S
C349 O355 1.268 . S
O350 Dy343 2.351 . S
O350 C358 1.249 . S
O351 Dy340 2.326 . S
O351 C358 1.267 . S
O352 C341 1.185 . S
O352 Dy343 2.398 . S
O353 C341 1.355 . S
O353 Dy343 2.491 . S
O354 Dy343 2.403 . S
O354 C349 1.254 . S
O355 Dy340 2.310 . S
O355 Dy343 2.664 . S
O355 C349 1.268 . S
O356 Dy340 2.351 . S
O356 C359 1.249 . S
O357 Dy343 2.326 . S
O357 C359 1.267 . S
C358 O350 1.249 . S
C358 O351 1.267 . S
C359 O356 1.249 . S
C359 O357 1.267 . S
Dy360 O364 2.398 1_554 S
Dy360 O365 2.490 1_654 S
Dy360 O366 2.403 . S
Dy360 O367 2.664 . S
Dy360 O371 2.326 1_554 S
Dy360 O375 2.310 . S
Dy360 O376 2.351 . S
C361 O372 1.199 . S
C361 O373 1.334 1_565 S
C362 O364 1.185 . S
C362 O365 1.354 1_655 S
Dy363 O367 2.310 . S
Dy363 O370 2.351 1_554 S
Dy363 O372 2.398 1_545 S
Dy363 O373 2.491 . S
Dy363 O374 2.403 1_545 S
Dy363 O375 2.664 . S
Dy363 O377 2.326 . S
O364 Dy360 2.398 1_556 S
O364 C362 1.185 . S
O365 Dy360 2.490 1_456 S
O365 C362 1.354 1_455 S
O366 Dy360 2.403 . S
O366 C368 1.254 . S
O367 Dy360 2.664 . S
O367 Dy363 2.310 . S
O367 C368 1.268 . S
C368 O366 1.254 . S
C368 O367 1.268 . S
C369 O374 1.254 . S
C369 O375 1.268 1_565 S
O370 Dy363 2.351 1_556 S
O370 C378 1.249 . S
O371 Dy360 2.326 1_556 S
O371 C378 1.267 . S
O372 C361 1.199 . S
O372 Dy363 2.398 1_565 S
O373 C361 1.334 1_545 S
O373 Dy363 2.491 . S
O374 Dy363 2.403 1_565 S
O374 C369 1.254 . S
O375 Dy360 2.310 . S
O375 Dy363 2.664 . S
O375 C369 1.268 1_545 S
O376 Dy360 2.351 . S
O376 C379 1.249 . S
O377 Dy363 2.326 . S
O377 C379 1.267 . S
C378 O370 1.249 . S
C378 O371 1.267 . S
C379 O376 1.249 . S
C379 O377 1.267 . S
Dy380 O384 2.398 . S
Dy380 O385 2.491 . S
Dy380 O386 2.403 . S
Dy380 O387 2.664 . S
Dy380 O391 2.326 . S
Dy380 O395 2.310 . S
Dy380 O396 2.351 . S
C381 O392 1.185 . S
C381 O393 1.355 . S
C382 O384 1.185 . S
C382 O385 1.355 . S
Dy383 O387 2.310 . S
Dy383 O390 2.351 . S
Dy383 O392 2.398 . S
Dy383 O393 2.491 . S
Dy383 O394 2.403 . S
Dy383 O395 2.664 . S
Dy383 O397 2.326 . S
O384 Dy380 2.398 . S
O384 C382 1.185 . S
O385 Dy380 2.491 . S
O385 C382 1.355 . S
O386 Dy380 2.403 . S
O386 C388 1.254 . S
O387 Dy380 2.664 . S
O387 Dy383 2.310 . S
O387 C388 1.268 . S
C388 O386 1.254 . S
C388 O387 1.268 . S
C389 O394 1.254 . S
C389 O395 1.268 . S
O390 Dy383 2.351 . S
O390 C398 1.249 . S
O391 Dy380 2.326 . S
O391 C398 1.267 . S
O392 C381 1.185 . S
O392 Dy383 2.398 . S
O393 C381 1.355 . S
O393 Dy383 2.491 . S
O394 Dy383 2.403 . S
O394 C389 1.254 . S
O395 Dy380 2.310 . S
O395 Dy383 2.664 . S
O395 C389 1.268 . S
O396 Dy380 2.351 . S
O396 C399 1.249 . S
O397 Dy383 2.326 . S
O397 C399 1.267 . S
C398 O390 1.249 . S
C398 O391 1.267 . S
C399 O396 1.249 . S
C399 O397 1.267 . S
Dy400 O404 2.398 . S
Dy400 O405 2.491 . S
Dy400 O406 2.403 . S
Dy400 O407 2.664 1_554 S
Dy400 O411 2.326 . S
Dy400 O415 2.310 . S
Dy400 O416 2.351 1_554 S
C401 O412 1.185 . S
C401 O413 1.355 1_565 S
C402 O404 1.185 . S
C402 O405 1.355 . S
Dy403 O407 2.299 1_565 S
Dy403 O410 2.353 1_566 S
Dy403 O412 2.403 . S
Dy403 O413 2.488 1_565 S
Dy403 O414 2.409 . S
Dy403 O415 2.662 1_566 S
Dy403 O417 2.321 1_565 S
O404 Dy400 2.398 . S
O404 C402 1.185 . S
O405 Dy400 2.491 . S
O405 C402 1.355 . S
O406 Dy400 2.403 . S
O406 C408 1.254 1_554 S
O407 Dy400 2.664 1_556 S
O407 Dy403 2.299 1_545 S
O407 C408 1.268 . S
C408 O406 1.254 1_556 S
C408 O407 1.268 . S
C409 O414 1.254 1_554 S
C409 O415 1.268 1_565 S
O410 Dy403 2.353 1_544 S
O410 C418 1.257 . S
O411 Dy400 2.326 . S
O411 C418 1.267 . S
O412 C401 1.185 . S
O412 Dy403 2.403 . S
O413 C401 1.355 1_545 S
O413 Dy403 2.488 1_545 S
O414 Dy403 2.409 . S
O414 C409 1.254 1_556 S
O415 Dy400 2.310 . S
O415 Dy403 2.662 1_544 S
O415 C409 1.268 1_545 S
O416 Dy400 2.351 1_556 S
O416 C419 1.249 . S
O417 Dy403 2.321 1_545 S
O417 C419 1.267 . S
C418 O410 1.257 . S
C418 O411 1.267 . S
C419 O416 1.249 . S
C419 O417 1.267 . S
Dy420 O424 2.398 . S
Dy420 O425 2.491 . S
Dy420 O426 2.403 . S
Dy420 O427 2.664 . S
Dy420 O431 2.326 . S
Dy420 O435 2.310 . S
Dy420 O436 2.351 . S
C421 O432 1.185 . S
C421 O433 1.355 . S
C422 O424 1.185 . S
C422 O425 1.355 . S
Dy423 O427 2.310 . S
Dy423 O430 2.351 . S
Dy423 O432 2.398 . S
Dy423 O433 2.491 . S
Dy423 O434 2.403 . S
Dy423 O435 2.664 . S
Dy423 O437 2.326 . S
O424 Dy420 2.398 . S
O424 C422 1.185 . S
O425 Dy420 2.491 . S
O425 C422 1.355 . S
O426 Dy420 2.403 . S
O426 C428 1.254 . S
O427 Dy420 2.664 . S
O427 Dy423 2.310 . S
O427 C428 1.268 . S
C428 O426 1.254 . S
C428 O427 1.268 . S
C429 O434 1.254 . S
C429 O435 1.268 . S
O430 Dy423 2.351 . S
O430 C438 1.249 . S
O431 Dy420 2.326 . S
O431 C438 1.267 . S
O432 C421 1.185 . S
O432 Dy423 2.398 . S
O433 C421 1.355 . S
O433 Dy423 2.491 . S
O434 Dy423 2.403 . S
O434 C429 1.254 . S
O435 Dy420 2.310 . S
O435 Dy423 2.664 . S
O435 C429 1.268 . S
O436 Dy420 2.351 . S
O436 C439 1.249 . S
O437 Dy423 2.326 . S
O437 C439 1.267 . S
C438 O430 1.249 . S
C438 O431 1.267 . S
C439 O436 1.249 . S
C439 O437 1.267 . S
Dy440 O444 2.398 . S
Dy440 O445 2.491 1_655 S
Dy440 O446 2.403 . S
Dy440 O447 2.664 . S
Dy440 O451 2.326 . S
Dy440 O455 2.310 . S
Dy440 O456 2.351 . S
C441 O452 1.185 1_565 S
C441 O453 1.355 . S
C442 O444 1.185 . S
C442 O445 1.355 1_655 S
Dy443 O447 2.310 . S
Dy443 O450 2.351 . S
Dy443 O452 2.398 1_565 S
Dy443 O453 2.491 . S
Dy443 O454 2.403 1_565 S
Dy443 O455 2.664 . S
Dy443 O457 2.326 . S
O444 Dy440 2.398 . S
O444 C442 1.185 . S
O445 Dy440 2.491 1_455 S
O445 C442 1.355 1_455 S
O446 Dy440 2.403 . S
O446 C448 1.254 . S
O447 Dy440 2.664 . S
O447 Dy443 2.310 . S
O447 C448 1.268 . S
C448 O446 1.254 . S
C448 O447 1.268 . S
C449 O454 1.254 . S
C449 O455 1.268 1_545 S
O450 Dy443 2.351 . S
O450 C458 1.249 . S
O451 Dy440 2.326 . S
O451 C458 1.267 . S
O452 C441 1.185 1_545 S
O452 Dy443 2.398 1_545 S
O453 C441 1.355 . S
O453 Dy443 2.491 . S
O454 Dy443 2.403 1_545 S
O454 C449 1.254 . S
O455 Dy440 2.310 . S
O455 Dy443 2.664 . S
O455 C449 1.268 1_565 S
O456 Dy440 2.351 . S
O456 C459 1.249 . S
O457 Dy443 2.326 . S
O457 C459 1.267 . S
C458 O450 1.249 . S
C458 O451 1.267 . S
C459 O456 1.249 . S
C459 O457 1.267 . S
Dy460 O464 2.398 1_556 S
Dy460 O465 2.491 1_556 S
Dy460 O466 2.403 . S
Dy460 O467 2.664 . S
Dy460 O471 2.326 . S
Dy460 O475 2.310 . S
Dy460 O476 2.351 . S
C461 O472 1.185 . S
C461 O473 1.355 . S
C462 O464 1.185 . S
C462 O465 1.355 . S
Dy463 O467 2.310 . S
Dy463 O470 2.351 . S
Dy463 O472 2.398 . S
Dy463 O473 2.491 . S
Dy463 O474 2.403 . S
Dy463 O475 2.664 . S
Dy463 O477 2.326 . S
O464 Dy460 2.398 1_554 S
O464 C462 1.185 . S
O465 Dy460 2.491 1_554 S
O465 C462 1.355 . S
O466 Dy460 2.403 . S
O466 C468 1.254 . S
O467 Dy460 2.664 . S
O467 Dy463 2.310 . S
O467 C468 1.268 . S
C468 O466 1.254 . S
C468 O467 1.268 . S
C469 O474 1.254 . S
C469 O475 1.268 . S
O470 Dy463 2.351 . S
O470 C478 1.249 . S
O471 Dy460 2.326 . S
O471 C478 1.267 . S
O472 C461 1.185 . S
O472 Dy463 2.398 . S
O473 C461 1.355 . S
O473 Dy463 2.491 . S
O474 Dy463 2.403 . S
O474 C469 1.254 . S
O475 Dy460 2.310 . S
O475 Dy463 2.664 . S
O475 C469 1.268 . S
O476 Dy460 2.351 . S
O476 C479 1.249 . S
O477 Dy463 2.326 . S
O477 C479 1.267 . S
C478 O470 1.249 . S
C478 O471 1.267 . S
C479 O476 1.249 . S
C479 O477 1.267 . S
Dy480 O484 2.398 . S
Dy480 O485 2.491 . S
Dy480 O486 2.403 . S
Dy480 O487 2.664 . S
Dy480 O491 2.326 . S
Dy480 O495 2.310 . S
Dy480 O496 2.351 . S
C481 O492 1.185 . S
C481 O493 1.355 . S
C482 O484 1.185 . S
C482 O485 1.355 . S
Dy483 O487 2.310 . S
Dy483 O490 2.351 . S
Dy483 O492 2.398 . S
Dy483 O493 2.491 . S
Dy483 O494 2.403 . S
Dy483 O495 2.664 . S
Dy483 O497 2.326 . S
O484 Dy480 2.398 . S
O484 C482 1.185 . S
O485 Dy480 2.491 . S
O485 C482 1.355 . S
O486 Dy480 2.403 . S
O486 C488 1.254 . S
O487 Dy480 2.664 . S
O487 Dy483 2.310 . S
O487 C488 1.268 . S
C488 O486 1.254 . S
C488 O487 1.268 . S
C489 O494 1.254 . S
C489 O495 1.268 . S
O490 Dy483 2.351 . S
O490 C498 1.249 . S
O491 Dy480 2.326 . S
O491 C498 1.267 . S
O492 C481 1.185 . S
O492 Dy483 2.398 . S
O493 C481 1.355 . S
O493 Dy483 2.491 . S
O494 Dy483 2.403 . S
O494 C489 1.254 . S
O495 Dy480 2.310 . S
O495 Dy483 2.664 . S
O495 C489 1.268 . S
O496 Dy480 2.351 . S
O496 C499 1.249 . S
O497 Dy483 2.326 . S
O497 C499 1.267 . S
C498 O490 1.249 . S
C498 O491 1.267 . S
C499 O496 1.249 . S
C499 O497 1.267 . S
Dy500 O504 2.398 . S
Dy500 O505 2.491 . S
Dy500 O506 2.403 . S
Dy500 O507 2.664 . S
Dy500 O511 2.326 . S
Dy500 O515 2.310 . S
Dy500 O516 2.351 . S
C501 O512 1.185 . S
C501 O513 1.355 . S
C502 O504 1.185 . S
C502 O505 1.355 . S
Dy503 O507 2.310 . S
Dy503 O510 2.351 . S
Dy503 O512 2.398 . S
Dy503 O513 2.491 . S
Dy503 O514 2.403 . S
Dy503 O515 2.664 . S
Dy503 O517 2.326 . S
O504 Dy500 2.398 . S
O504 C502 1.185 . S
O505 Dy500 2.491 . S
O505 C502 1.355 . S
O506 Dy500 2.403 . S
O506 C508 1.254 . S
O507 Dy500 2.664 . S
O507 Dy503 2.310 . S
O507 C508 1.268 . S
C508 O506 1.254 . S
C508 O507 1.268 . S
C509 O514 1.254 . S
C509 O515 1.268 . S
O510 Dy503 2.351 . S
O510 C518 1.249 . S
O511 Dy500 2.326 . S
O511 C518 1.267 . S
O512 C501 1.185 . S
O512 Dy503 2.398 . S
O513 C501 1.355 . S
O513 Dy503 2.491 . S
O514 Dy503 2.403 . S
O514 C509 1.254 . S
O515 Dy500 2.310 . S
O515 Dy503 2.664 . S
O515 C509 1.268 . S
O516 Dy500 2.351 . S
O516 C519 1.249 . S
O517 Dy503 2.326 . S
O517 C519 1.267 . S
C518 O510 1.249 . S
C518 O511 1.267 . S
C519 O516 1.249 . S
C519 O517 1.267 . S
Dy520 O524 2.398 1_564 S
Dy520 O525 2.491 1_554 S
Dy520 O526 2.403 1_565 S
Dy520 O527 2.664 . S
Dy520 O531 2.326 1_554 S
Dy520 O535 2.310 . S
Dy520 O536 2.351 . S
C521 O532 1.185 . S
C521 O533 1.354 1_455 S
C522 O524 1.199 . S
C522 O525 1.334 1_545 S
Dy523 O527 2.310 . S
Dy523 O530 2.351 1_554 S
Dy523 O532 2.398 . S
Dy523 O533 2.490 1_455 S
Dy523 O534 2.403 . S
Dy523 O535 2.664 . S
Dy523 O537 2.326 . S
O524 Dy520 2.398 1_546 S
O524 C522 1.199 . S
O525 Dy520 2.491 1_556 S
O525 C522 1.334 1_565 S
O526 Dy520 2.403 1_545 S
O526 C528 1.254 . S
O527 Dy520 2.664 . S
O527 Dy523 2.310 . S
O527 C528 1.268 1_565 S
C528 O526 1.254 . S
C528 O527 1.268 1_545 S
C529 O534 1.254 . S
C529 O535 1.268 . S
O530 Dy523 2.351 1_556 S
O530 C538 1.249 . S
O531 Dy520 2.326 1_556 S
O531 C538 1.267 . S
O532 C521 1.185 . S
O532 Dy523 2.398 . S
O533 C521 1.354 1_655 S
O533 Dy523 2.490 1_655 S
O534 Dy523 2.403 . S
O534 C529 1.254 . S
O535 Dy520 2.310 . S
O535 Dy523 2.664 . S
O535 C529 1.268 . S
O536 Dy520 2.351 . S
O536 C539 1.249 . S
O537 Dy523 2.326 . S
O537 C539 1.267 . S
C538 O530 1.249 . S
C538 O531 1.267 . S
C539 O536 1.249 . S
C539 O537 1.267 . S
Dy540 O544 2.398 . S
Dy540 O545 2.491 . S
Dy540 O546 2.403 . S
Dy540 O547 2.664 . S
Dy540 O551 2.326 . S
Dy540 O555 2.310 . S
Dy540 O556 2.351 . S
C541 O552 1.185 . S
C541 O553 1.355 . S
C542 O544 1.185 . S
C542 O545 1.355 . S
Dy543 O547 2.310 . S
Dy543 O550 2.351 . S
Dy543 O552 2.398 1_556 S
Dy543 O553 2.491 1_556 S
Dy543 O554 2.403 . S
Dy543 O555 2.664 . S
Dy543 O557 2.326 1_556 S
O544 Dy540 2.398 . S
O544 C542 1.185 . S
O545 Dy540 2.491 . S
O545 C542 1.355 . S
O546 Dy540 2.403 . S
O546 C548 1.254 . S
O547 Dy540 2.664 . S
O547 Dy543 2.310 . S
O547 C548 1.268 . S
C548 O546 1.254 . S
C548 O547 1.268 . S
C549 O554 1.254 . S
C549 O555 1.268 . S
O550 Dy543 2.351 . S
O550 C558 1.249 . S
O551 Dy540 2.326 . S
O551 C558 1.267 . S
O552 C541 1.185 . S
O552 Dy543 2.398 1_554 S
O553 C541 1.355 . S
O553 Dy543 2.491 1_554 S
O554 Dy543 2.403 . S
O554 C549 1.254 . S
O555 Dy540 2.310 . S
O555 Dy543 2.664 . S
O555 C549 1.268 . S
O556 Dy540 2.351 . S
O556 C559 1.249 1_556 S
O557 Dy543 2.326 1_554 S
O557 C559 1.267 . S
C558 O550 1.249 . S
C558 O551 1.267 . S
C559 O556 1.249 1_554 S
C559 O557 1.267 . S
Dy560 O564 2.403 . S
Dy560 O565 2.488 1_545 S
Dy560 O566 2.409 . S
Dy560 O567 2.662 1_545 S
Dy560 O571 2.321 1_545 S
Dy560 O575 2.299 1_545 S
Dy560 O576 2.353 1_545 S
C561 O572 1.185 . S
C561 O573 1.355 . S
C562 O564 1.185 . S
C562 O565 1.355 1_545 S
Dy563 O567 2.310 . S
Dy563 O570 2.351 . S
Dy563 O572 2.398 1_554 S
Dy563 O573 2.491 1_554 S
Dy563 O574 2.403 . S
Dy563 O575 2.664 . S
Dy563 O577 2.326 1_554 S
O564 Dy560 2.403 . S
O564 C562 1.185 . S
O565 Dy560 2.488 1_565 S
O565 C562 1.355 1_565 S
O566 Dy560 2.409 . S
O566 C568 1.254 . S
O567 Dy560 2.662 1_565 S
O567 Dy563 2.310 . S
O567 C568 1.268 1_565 S
C568 O566 1.254 . S
C568 O567 1.268 1_545 S
C569 O574 1.254 . S
C569 O575 1.268 . S
O570 Dy563 2.351 . S
O570 C578 1.249 . S
O571 Dy560 2.321 1_565 S
O571 C578 1.267 . S
O572 C561 1.185 . S
O572 Dy563 2.398 1_556 S
O573 C561 1.355 . S
O573 Dy563 2.491 1_556 S
O574 Dy563 2.403 . S
O574 C569 1.254 . S
O575 Dy560 2.299 1_565 S
O575 Dy563 2.664 . S
O575 C569 1.268 . S
O576 Dy560 2.353 1_565 S
O576 C579 1.257 . S
O577 Dy563 2.326 1_556 S
O577 C579 1.267 1_556 S
C578 O570 1.249 . S
C578 O571 1.267 . S
C579 O576 1.257 . S
C579 O577 1.267 1_554 S
Dy580 O584 2.398 1_556 S
Dy580 O585 2.491 1_556 S
Dy580 O586 2.403 . S
Dy580 O587 2.664 . S
Dy580 O591 2.326 1_556 S
Dy580 O595 2.310 . S
Dy580 O596 2.351 . S
C581 O592 1.185 . S
C581 O593 1.355 . S
C582 O584 1.185 . S
C582 O585 1.355 . S
Dy583 O587 2.310 . S
Dy583 O590 2.351 . S
Dy583 O592 2.398 . S
Dy583 O593 2.491 . S
Dy583 O594 2.403 . S
Dy583 O595 2.664 . S
Dy583 O597 2.326 . S
O584 Dy580 2.398 1_554 S
O584 C582 1.185 . S
O585 Dy580 2.491 1_554 S
O585 C582 1.355 . S
O586 Dy580 2.403 . S
O586 C588 1.254 . S
O587 Dy580 2.664 . S
O587 Dy583 2.310 . S
O587 C588 1.268 . S
C588 O586 1.254 . S
C588 O587 1.268 . S
C589 O594 1.254 . S
C589 O595 1.268 . S
O590 Dy583 2.351 . S
O590 C598 1.249 1_556 S
O591 Dy580 2.326 1_554 S
O591 C598 1.267 . S
O592 C581 1.185 . S
O592 Dy583 2.398 . S
O593 C581 1.355 . S
O593 Dy583 2.491 . S
O594 Dy583 2.403 . S
O594 C589 1.254 . S
O595 Dy580 2.310 . S
O595 Dy583 2.664 . S
O595 C589 1.268 . S
O596 Dy580 2.351 . S
O596 C599 1.249 . S
O597 Dy583 2.326 . S
O597 C599 1.267 . S
C598 O590 1.249 1_554 S
C598 O591 1.267 . S
C599 O596 1.249 . S
C599 O597 1.267 . S
Dy600 O604 2.398 1_545 S
Dy600 O605 2.491 . S
Dy600 O606 2.403 1_545 S
Dy600 O607 2.664 . S
Dy600 O611 2.326 . S
Dy600 O615 2.310 . S
Dy600 O616 2.351 . S
C601 O612 1.185 . S
C601 O613 1.355 1_455 S
C602 O604 1.185 1_545 S
C602 O605 1.355 . S
Dy603 O607 2.310 . S
Dy603 O610 2.351 . S
Dy603 O612 2.398 . S
Dy603 O613 2.491 1_455 S
Dy603 O614 2.403 . S
Dy603 O615 2.664 . S
Dy603 O617 2.326 . S
O604 Dy600 2.398 1_565 S
O604 C602 1.185 1_565 S
O605 Dy600 2.491 . S
O605 C602 1.355 . S
O606 Dy600 2.403 1_565 S
O606 C608 1.254 . S
O607 Dy600 2.664 . S
O607 Dy603 2.310 . S
O607 C608 1.268 1_545 S
C608 O606 1.254 . S
C608 O607 1.268 1_565 S
C609 O614 1.254 . S
C609 O615 1.268 . S
O610 Dy603 2.351 . S
O610 C618 1.249 . S
O611 Dy600 2.326 . S
O611 C618 1.267 . S
O612 C601 1.185 . S
O612 Dy603 2.398 . S
O613 C601 1.355 1_655 S
O613 Dy603 2.491 1_655 S
O614 Dy603 2.403 . S
O614 C609 1.254 . S
O615 Dy600 2.310 . S
O615 Dy603 2.664 . S
O615 C609 1.268 . S
O616 Dy600 2.351 . S
O616 C619 1.249 . S
O617 Dy603 2.326 . S
O617 C619 1.267 . S
C618 O610 1.249 . S
C618 O611 1.267 . S
C619 O616 1.249 . S
C619 O617 1.267 . S
Dy620 O624 2.398 . S
Dy620 O625 2.491 . S
Dy620 O626 2.403 . S
Dy620 O627 2.664 . S
Dy620 O631 2.326 . S
Dy620 O635 2.310 . S
Dy620 O636 2.351 . S
C621 O632 1.185 . S
C621 O633 1.355 . S
C622 O624 1.185 . S
C622 O625 1.355 . S
Dy623 O627 2.310 . S
Dy623 O630 2.351 . S
Dy623 O632 2.398 . S
Dy623 O633 2.491 . S
Dy623 O634 2.403 . S
Dy623 O635 2.664 . S
Dy623 O637 2.326 . S
O624 Dy620 2.398 . S
O624 C622 1.185 . S
O625 Dy620 2.491 . S
O625 C622 1.355 . S
O626 Dy620 2.403 . S
O626 C628 1.254 . S
O627 Dy620 2.664 . S
O627 Dy623 2.310 . S
O627 C628 1.268 . S
C628 O626 1.254 . S
C628 O627 1.268 . S
C629 O634 1.254 . S
C629 O635 1.268 . S
O630 Dy623 2.351 . S
O630 C638 1.249 . S
O631 Dy620 2.326 . S
O631 C638 1.267 . S
O632 C621 1.185 . S
O632 Dy623 2.398 . S
O633 C621 1.355 . S
O633 Dy623 2.491 . S
O634 Dy623 2.403 . S
O634 C629 1.254 . S
O635 Dy620 2.310 . S
O635 Dy623 2.664 . S
O635 C629 1.268 . S
O636 Dy620 2.351 . S
O636 C639 1.249 . S
O637 Dy623 2.326 . S
O637 C639 1.267 . S
C638 O630 1.249 . S
C638 O631 1.267 . S
C639 O636 1.249 . S
C639 O637 1.267 . S
C18 C81 0.570 . S
C101 C38 0.686 . S
C41 C121 0.296 . S
C141 C61 0.297 . S
C179 C242 0.570 . S
C199 C262 0.686 . S
C282 C202 0.296 . S
C222 C302 0.297 . S
C401 C338 0.570 . S
C358 C421 0.686 1_556 S
C361 C441 0.301 . S
C381 C461 0.297 . S
C499 C562 0.570 . S
C582 C519 0.686 . S
C522 C602 0.301 . S
C622 C542 0.297 . S
C428 C9 2.838 . S
C448 C29 3.241 . S
C468 C48 3.233 . S
C68 C408 2.822 . S
C88 C388 2.821 . S
C329 C108 2.838 . S
C128 C349 3.241 1_554 S
C148 C368 3.232 . S
C168 C589 2.837 1_554 S
C609 C188 3.241 . S
C629 C209 3.233 . S
C229 C569 2.822 . S
C249 C549 2.822 . S
C269 C488 2.837 . S
C289 C508 3.241 . S
C309 C529 3.232 1_556 S
C169 C8 1.363 1_455 S
C28 C509 1.337 . S
C208 C49 1.209 . S
C69 C548 1.154 . S
C248 C89 1.568 1_655 S
C588 C109 1.754 . S
C129 C288 1.237 . S
C149 C628 1.158 . S
C348 C189 1.337 . S
C389 C228 1.154 . S
C268 C429 1.754 . S
C469 C308 1.158 . S
C489 C328 1.363 1_545 S
C528 C369 1.209 1_445 S
C568 C409 1.568 1_545 S
C449 C608 1.237 1_645 S
C19 C258 2.221 1_455 S
C598 C39 2.239 . S
C298 C42 1.891 . S
C62 C638 1.913 . S
C161 C82 1.327 . S
C501 C102 1.269 . S
C218 C122 1.865 . S
C558 C142 1.897 . S
C99 C178 2.221 1_455 S
C439 C198 2.240 . S
C139 C201 1.891 . S
C221 C479 1.913 . S
C2 C241 1.328 . S
C342 C261 1.269 . S
C281 C59 1.865 . S
C301 C399 1.897 . S
C578 C339 2.221 . S
C278 C359 2.239 . S
C362 C618 1.891 1_655 S
C318 C382 1.913 1_556 S
C402 C481 1.328 . S
C422 C181 1.269 . S
C538 C442 1.865 1_455 S
C238 C462 1.897 . S
C498 C419 2.221 . S
C518 C119 2.240 . S
C521 C459 1.891 1_455 S
C541 C159 1.913 . S
C322 C561 1.327 . S
C22 C581 1.269 . S
C601 C379 1.865 1_455 S
C79 C621 1.897 1_556 S
C98 C1 2.492 . S
C118 C21 2.490 1_556 S
C58 C138 3.051 . S
C158 C78 3.050 . S
C259 C162 2.492 . S
C182 C279 2.490 . S
C219 C299 3.051 . S
C319 C239 3.050 . S
C321 C418 2.492 1_565 S
C438 C341 2.490 . S
C378 C458 3.051 1_545 S
C398 C478 3.050 1_554 S
C579 C482 2.493 1_564 S
C599 C502 2.490 . S
C539 C619 3.051 1_565 S
C639 C559 3.050 . S
