# Generated by pormake.
# Topology fcd, (5)-cn, num edge types: 1
# Building blocks:
#     Node 0, Type 0, BuildingBlock: XOMCOT_clean_sbu_0, # of connection points: 5
#     Node 1, Type 0, BuildingBlock: XOMCOT_clean_sbu_0, # of connection points: 5
#     Node 2, Type 0, BuildingBlock: XOMCOT_clean_sbu_0, # of connection points: 5
#     Node 3, Type 0, BuildingBlock: XOMCOT_clean_sbu_0, # of connection points: 5
#     Node 4, Type 0, BuildingBlock: XOMCOT_clean_sbu_0, # of connection points: 5
#     Node 5, Type 0, BuildingBlock: XOMCOT_clean_sbu_0, # of connection points: 5
#     Node 6, Type 0, BuildingBlock: XOMCOT_clean_sbu_0, # of connection points: 5
#     Node 7, Type 0, BuildingBlock: XOMCOT_clean_sbu_0, # of connection points: 5
#     Node 8, Type 0, BuildingBlock: XOMCOT_clean_sbu_0, # of connection points: 5
#     Node 9, Type 0, BuildingBlock: XOMCOT_clean_sbu_0, # of connection points: 5
#     Node 10, Type 0, BuildingBlock: XOMCOT_clean_sbu_0, # of connection points: 5
#     Node 11, Type 0, BuildingBlock: XOMCOT_clean_sbu_0, # of connection points: 5
#     Node 12, Type 0, BuildingBlock: XOMCOT_clean_sbu_0, # of connection points: 5
#     Node 13, Type 0, BuildingBlock: XOMCOT_clean_sbu_0, # of connection points: 5
#     Node 14, Type 0, BuildingBlock: XOMCOT_clean_sbu_0, # of connection points: 5
#     Node 15, Type 0, BuildingBlock: XOMCOT_clean_sbu_0, # of connection points: 5
#     Node 16, Type 0, BuildingBlock: XOMCOT_clean_sbu_0, # of connection points: 5
#     Node 17, Type 0, BuildingBlock: XOMCOT_clean_sbu_0, # of connection points: 5
#     Node 18, Type 0, BuildingBlock: XOMCOT_clean_sbu_0, # of connection points: 5
#     Node 19, Type 0, BuildingBlock: XOMCOT_clean_sbu_0, # of connection points: 5
#     Node 20, Type 0, BuildingBlock: XOMCOT_clean_sbu_0, # of connection points: 5
#     Node 21, Type 0, BuildingBlock: XOMCOT_clean_sbu_0, # of connection points: 5
#     Node 22, Type 0, BuildingBlock: XOMCOT_clean_sbu_0, # of connection points: 5
#     Node 23, Type 0, BuildingBlock: XOMCOT_clean_sbu_0, # of connection points: 5
#     Node 24, Type 0, BuildingBlock: XOMCOT_clean_sbu_0, # of connection points: 5
#     Node 25, Type 0, BuildingBlock: XOMCOT_clean_sbu_0, # of connection points: 5
#     Node 26, Type 0, BuildingBlock: XOMCOT_clean_sbu_0, # of connection points: 5
#     Node 27, Type 0, BuildingBlock: XOMCOT_clean_sbu_0, # of connection points: 5
#     Node 28, Type 0, BuildingBlock: XOMCOT_clean_sbu_0, # of connection points: 5
#     Node 29, Type 0, BuildingBlock: XOMCOT_clean_sbu_0, # of connection points: 5
#     Node 30, Type 0, BuildingBlock: XOMCOT_clean_sbu_0, # of connection points: 5
#     Node 31, Type 0, BuildingBlock: XOMCOT_clean_sbu_0, # of connection points: 5
#     Node 32, Type 0, BuildingBlock: XOMCOT_clean_sbu_0, # of connection points: 5
#     Node 33, Type 0, BuildingBlock: XOMCOT_clean_sbu_0, # of connection points: 5
#     Node 34, Type 0, BuildingBlock: XOMCOT_clean_sbu_0, # of connection points: 5
#     Node 35, Type 0, BuildingBlock: XOMCOT_clean_sbu_0, # of connection points: 5
#     Node 36, Type 0, BuildingBlock: XOMCOT_clean_sbu_0, # of connection points: 5
#     Node 37, Type 0, BuildingBlock: XOMCOT_clean_sbu_0, # of connection points: 5
#     Node 38, Type 0, BuildingBlock: XOMCOT_clean_sbu_0, # of connection points: 5
#     Node 39, Type 0, BuildingBlock: XOMCOT_clean_sbu_0, # of connection points: 5
#     Node 40, Type 0, BuildingBlock: XOMCOT_clean_sbu_0, # of connection points: 5
#     Node 41, Type 0, BuildingBlock: XOMCOT_clean_sbu_0, # of connection points: 5
#     Node 42, Type 0, BuildingBlock: XOMCOT_clean_sbu_0, # of connection points: 5
#     Node 43, Type 0, BuildingBlock: XOMCOT_clean_sbu_0, # of connection points: 5
#     Node 44, Type 0, BuildingBlock: XOMCOT_clean_sbu_0, # of connection points: 5
#     Node 45, Type 0, BuildingBlock: XOMCOT_clean_sbu_0, # of connection points: 5
#     Node 46, Type 0, BuildingBlock: XOMCOT_clean_sbu_0, # of connection points: 5
#     Node 47, Type 0, BuildingBlock: XOMCOT_clean_sbu_0, # of connection points: 5
#     Edge 48, Type (0, 0), BuildingBlock: CIFDUS_clean_linker_0, # of connection points: 2
#     Edge 49, Type (0, 0), BuildingBlock: CIFDUS_clean_linker_0, # of connection points: 2
#     Edge 50, Type (0, 0), BuildingBlock: CIFDUS_clean_linker_0, # of connection points: 2
#     Edge 51, Type (0, 0), BuildingBlock: CIFDUS_clean_linker_0, # of connection points: 2
#     Edge 52, Type (0, 0), BuildingBlock: CIFDUS_clean_linker_0, # of connection points: 2
#     Edge 53, Type (0, 0), BuildingBlock: CIFDUS_clean_linker_0, # of connection points: 2
#     Edge 54, Type (0, 0), BuildingBlock: CIFDUS_clean_linker_0, # of connection points: 2
#     Edge 55, Type (0, 0), BuildingBlock: CIFDUS_clean_linker_0, # of connection points: 2
#     Edge 56, Type (0, 0), BuildingBlock: CIFDUS_clean_linker_0, # of connection points: 2
#     Edge 57, Type (0, 0), BuildingBlock: CIFDUS_clean_linker_0, # of connection points: 2
#     Edge 58, Type (0, 0), BuildingBlock: CIFDUS_clean_linker_0, # of connection points: 2
#     Edge 59, Type (0, 0), BuildingBlock: CIFDUS_clean_linker_0, # of connection points: 2
#     Edge 60, Type (0, 0), BuildingBlock: CIFDUS_clean_linker_0, # of connection points: 2
#     Edge 61, Type (0, 0), BuildingBlock: CIFDUS_clean_linker_0, # of connection points: 2
#     Edge 62, Type (0, 0), BuildingBlock: CIFDUS_clean_linker_0, # of connection points: 2
#     Edge 63, Type (0, 0), BuildingBlock: CIFDUS_clean_linker_0, # of connection points: 2
#     Edge 64, Type (0, 0), BuildingBlock: CIFDUS_clean_linker_0, # of connection points: 2
#     Edge 65, Type (0, 0), BuildingBlock: CIFDUS_clean_linker_0, # of connection points: 2
#     Edge 66, Type (0, 0), BuildingBlock: CIFDUS_clean_linker_0, # of connection points: 2
#     Edge 67, Type (0, 0), BuildingBlock: CIFDUS_clean_linker_0, # of connection points: 2
#     Edge 68, Type (0, 0), BuildingBlock: CIFDUS_clean_linker_0, # of connection points: 2
#     Edge 69, Type (0, 0), BuildingBlock: CIFDUS_clean_linker_0, # of connection points: 2
#     Edge 70, Type (0, 0), BuildingBlock: CIFDUS_clean_linker_0, # of connection points: 2
#     Edge 71, Type (0, 0), BuildingBlock: CIFDUS_clean_linker_0, # of connection points: 2
#     Edge 72, Type (0, 0), BuildingBlock: CIFDUS_clean_linker_0, # of connection points: 2
#     Edge 73, Type (0, 0), BuildingBlock: CIFDUS_clean_linker_0, # of connection points: 2
#     Edge 74, Type (0, 0), BuildingBlock: CIFDUS_clean_linker_0, # of connection points: 2
#     Edge 75, Type (0, 0), BuildingBlock: CIFDUS_clean_linker_0, # of connection points: 2
#     Edge 76, Type (0, 0), BuildingBlock: CIFDUS_clean_linker_0, # of connection points: 2
#     Edge 77, Type (0, 0), BuildingBlock: CIFDUS_clean_linker_0, # of connection points: 2
#     Edge 78, Type (0, 0), BuildingBlock: CIFDUS_clean_linker_0, # of connection points: 2
#     Edge 79, Type (0, 0), BuildingBlock: CIFDUS_clean_linker_0, # of connection points: 2
#     Edge 80, Type (0, 0), BuildingBlock: CIFDUS_clean_linker_0, # of connection points: 2
#     Edge 81, Type (0, 0), BuildingBlock: CIFDUS_clean_linker_0, # of connection points: 2
#     Edge 82, Type (0, 0), BuildingBlock: CIFDUS_clean_linker_0, # of connection points: 2
#     Edge 83, Type (0, 0), BuildingBlock: CIFDUS_clean_linker_0, # of connection points: 2
#     Edge 84, Type (0, 0), BuildingBlock: CIFDUS_clean_linker_0, # of connection points: 2
#     Edge 85, Type (0, 0), BuildingBlock: CIFDUS_clean_linker_0, # of connection points: 2
#     Edge 86, Type (0, 0), BuildingBlock: CIFDUS_clean_linker_0, # of connection points: 2
#     Edge 87, Type (0, 0), BuildingBlock: CIFDUS_clean_linker_0, # of connection points: 2
#     Edge 88, Type (0, 0), BuildingBlock: CIFDUS_clean_linker_0, # of connection points: 2
#     Edge 89, Type (0, 0), BuildingBlock: CIFDUS_clean_linker_0, # of connection points: 2
#     Edge 90, Type (0, 0), BuildingBlock: CIFDUS_clean_linker_0, # of connection points: 2
#     Edge 91, Type (0, 0), BuildingBlock: CIFDUS_clean_linker_0, # of connection points: 2
#     Edge 92, Type (0, 0), BuildingBlock: CIFDUS_clean_linker_0, # of connection points: 2
#     Edge 93, Type (0, 0), BuildingBlock: CIFDUS_clean_linker_0, # of connection points: 2
#     Edge 94, Type (0, 0), BuildingBlock: CIFDUS_clean_linker_0, # of connection points: 2
#     Edge 95, Type (0, 0), BuildingBlock: CIFDUS_clean_linker_0, # of connection points: 2
#     Edge 96, Type (0, 0), BuildingBlock: CIFDUS_clean_linker_0, # of connection points: 2
#     Edge 97, Type (0, 0), BuildingBlock: CIFDUS_clean_linker_0, # of connection points: 2
#     Edge 98, Type (0, 0), BuildingBlock: CIFDUS_clean_linker_0, # of connection points: 2
#     Edge 99, Type (0, 0), BuildingBlock: CIFDUS_clean_linker_0, # of connection points: 2
#     Edge 100, Type (0, 0), BuildingBlock: CIFDUS_clean_linker_0, # of connection points: 2
#     Edge 101, Type (0, 0), BuildingBlock: CIFDUS_clean_linker_0, # of connection points: 2
#     Edge 102, Type (0, 0), BuildingBlock: CIFDUS_clean_linker_0, # of connection points: 2
#     Edge 103, Type (0, 0), BuildingBlock: CIFDUS_clean_linker_0, # of connection points: 2
#     Edge 104, Type (0, 0), BuildingBlock: CIFDUS_clean_linker_0, # of connection points: 2
#     Edge 105, Type (0, 0), BuildingBlock: CIFDUS_clean_linker_0, # of connection points: 2
#     Edge 106, Type (0, 0), BuildingBlock: CIFDUS_clean_linker_0, # of connection points: 2
#     Edge 107, Type (0, 0), BuildingBlock: CIFDUS_clean_linker_0, # of connection points: 2
#     Edge 108, Type (0, 0), BuildingBlock: CIFDUS_clean_linker_0, # of connection points: 2
#     Edge 109, Type (0, 0), BuildingBlock: CIFDUS_clean_linker_0, # of connection points: 2
#     Edge 110, Type (0, 0), BuildingBlock: CIFDUS_clean_linker_0, # of connection points: 2
#     Edge 111, Type (0, 0), BuildingBlock: CIFDUS_clean_linker_0, # of connection points: 2
#     Edge 112, Type (0, 0), BuildingBlock: CIFDUS_clean_linker_0, # of connection points: 2
#     Edge 113, Type (0, 0), BuildingBlock: CIFDUS_clean_linker_0, # of connection points: 2
#     Edge 114, Type (0, 0), BuildingBlock: CIFDUS_clean_linker_0, # of connection points: 2
#     Edge 115, Type (0, 0), BuildingBlock: CIFDUS_clean_linker_0, # of connection points: 2
#     Edge 116, Type (0, 0), BuildingBlock: CIFDUS_clean_linker_0, # of connection points: 2
#     Edge 117, Type (0, 0), BuildingBlock: CIFDUS_clean_linker_0, # of connection points: 2
#     Edge 118, Type (0, 0), BuildingBlock: CIFDUS_clean_linker_0, # of connection points: 2
#     Edge 119, Type (0, 0), BuildingBlock: CIFDUS_clean_linker_0, # of connection points: 2
#     Edge 120, Type (0, 0), BuildingBlock: CIFDUS_clean_linker_0, # of connection points: 2
#     Edge 121, Type (0, 0), BuildingBlock: CIFDUS_clean_linker_0, # of connection points: 2
#     Edge 122, Type (0, 0), BuildingBlock: CIFDUS_clean_linker_0, # of connection points: 2
#     Edge 123, Type (0, 0), BuildingBlock: CIFDUS_clean_linker_0, # of connection points: 2
#     Edge 124, Type (0, 0), BuildingBlock: CIFDUS_clean_linker_0, # of connection points: 2
#     Edge 125, Type (0, 0), BuildingBlock: CIFDUS_clean_linker_0, # of connection points: 2
#     Edge 126, Type (0, 0), BuildingBlock: CIFDUS_clean_linker_0, # of connection points: 2
#     Edge 127, Type (0, 0), BuildingBlock: CIFDUS_clean_linker_0, # of connection points: 2
#     Edge 128, Type (0, 0), BuildingBlock: CIFDUS_clean_linker_0, # of connection points: 2
#     Edge 129, Type (0, 0), BuildingBlock: CIFDUS_clean_linker_0, # of connection points: 2
#     Edge 130, Type (0, 0), BuildingBlock: CIFDUS_clean_linker_0, # of connection points: 2
#     Edge 131, Type (0, 0), BuildingBlock: CIFDUS_clean_linker_0, # of connection points: 2
#     Edge 132, Type (0, 0), BuildingBlock: CIFDUS_clean_linker_0, # of connection points: 2
#     Edge 133, Type (0, 0), BuildingBlock: CIFDUS_clean_linker_0, # of connection points: 2
#     Edge 134, Type (0, 0), BuildingBlock: CIFDUS_clean_linker_0, # of connection points: 2
#     Edge 135, Type (0, 0), BuildingBlock: CIFDUS_clean_linker_0, # of connection points: 2
#     Edge 136, Type (0, 0), BuildingBlock: CIFDUS_clean_linker_0, # of connection points: 2
#     Edge 137, Type (0, 0), BuildingBlock: CIFDUS_clean_linker_0, # of connection points: 2
#     Edge 138, Type (0, 0), BuildingBlock: CIFDUS_clean_linker_0, # of connection points: 2
#     Edge 139, Type (0, 0), BuildingBlock: CIFDUS_clean_linker_0, # of connection points: 2
#     Edge 140, Type (0, 0), BuildingBlock: CIFDUS_clean_linker_0, # of connection points: 2
#     Edge 141, Type (0, 0), BuildingBlock: CIFDUS_clean_linker_0, # of connection points: 2
#     Edge 142, Type (0, 0), BuildingBlock: CIFDUS_clean_linker_0, # of connection points: 2
#     Edge 143, Type (0, 0), BuildingBlock: CIFDUS_clean_linker_0, # of connection points: 2
#     Edge 144, Type (0, 0), BuildingBlock: CIFDUS_clean_linker_0, # of connection points: 2
#     Edge 145, Type (0, 0), BuildingBlock: CIFDUS_clean_linker_0, # of connection points: 2
#     Edge 146, Type (0, 0), BuildingBlock: CIFDUS_clean_linker_0, # of connection points: 2
#     Edge 147, Type (0, 0), BuildingBlock: CIFDUS_clean_linker_0, # of connection points: 2
#     Edge 148, Type (0, 0), BuildingBlock: CIFDUS_clean_linker_0, # of connection points: 2
#     Edge 149, Type (0, 0), BuildingBlock: CIFDUS_clean_linker_0, # of connection points: 2
#     Edge 150, Type (0, 0), BuildingBlock: CIFDUS_clean_linker_0, # of connection points: 2
#     Edge 151, Type (0, 0), BuildingBlock: CIFDUS_clean_linker_0, # of connection points: 2
#     Edge 152, Type (0, 0), BuildingBlock: CIFDUS_clean_linker_0, # of connection points: 2
#     Edge 153, Type (0, 0), BuildingBlock: CIFDUS_clean_linker_0, # of connection points: 2
#     Edge 154, Type (0, 0), BuildingBlock: CIFDUS_clean_linker_0, # of connection points: 2
#     Edge 155, Type (0, 0), BuildingBlock: CIFDUS_clean_linker_0, # of connection points: 2
#     Edge 156, Type (0, 0), BuildingBlock: CIFDUS_clean_linker_0, # of connection points: 2
#     Edge 157, Type (0, 0), BuildingBlock: CIFDUS_clean_linker_0, # of connection points: 2
#     Edge 158, Type (0, 0), BuildingBlock: CIFDUS_clean_linker_0, # of connection points: 2
#     Edge 159, Type (0, 0), BuildingBlock: CIFDUS_clean_linker_0, # of connection points: 2
#     Edge 160, Type (0, 0), BuildingBlock: CIFDUS_clean_linker_0, # of connection points: 2
#     Edge 161, Type (0, 0), BuildingBlock: CIFDUS_clean_linker_0, # of connection points: 2
#     Edge 162, Type (0, 0), BuildingBlock: CIFDUS_clean_linker_0, # of connection points: 2
#     Edge 163, Type (0, 0), BuildingBlock: CIFDUS_clean_linker_0, # of connection points: 2
#     Edge 164, Type (0, 0), BuildingBlock: CIFDUS_clean_linker_0, # of connection points: 2
#     Edge 165, Type (0, 0), BuildingBlock: CIFDUS_clean_linker_0, # of connection points: 2
#     Edge 166, Type (0, 0), BuildingBlock: CIFDUS_clean_linker_0, # of connection points: 2
#     Edge 167, Type (0, 0), BuildingBlock: CIFDUS_clean_linker_0, # of connection points: 2
# Relax obj value: 0.303
# Max RMSD: 0.256
# Mean RMSD: 0.256
data_MOF--net-fcd--node1-XOMCOT_clean_sbu_0--edge1-CIFDUS_clean_linker_0
_symmetry_space_group_name_H-M    P1
_symmetry_Int_Tables_number       1
_symmetry_cell_setting            triclinic
loop_
_symmetry_equiv_pos_as_xyz
'x, y, z'
_cell_length_a     61.96915
_cell_length_b     61.984038
_cell_length_c     61.937646
_cell_angle_alpha  90.016
_cell_angle_beta   89.994212
_cell_angle_gamma 90.044537
loop_
_atom_site_label
_atom_site_type_symbol
_atom_site_fract_x
_atom_site_fract_y
_atom_site_fract_z
_atom_type_partial_charge
Co0 Co 0.10943 0.19242 0.38422 0.0
C1 C 0.07101 0.21944 0.39464 0.0
C2 C 0.09407 0.21901 0.4204 0.0
C3 C 0.07703 0.2319 0.42649 0.0
N4 N 0.08994 0.21057 0.40072 0.0
N5 N 0.06273 0.23216 0.41016 0.0
H6 H 0.06336 0.21711 0.37922 0.0
H7 H 0.10855 0.21605 0.42968 0.0
C8 C 0.10548 0.17018 0.42711 0.0
O9 O 0.08454 0.17347 0.42647 0.0
N10 N 0.12931 0.17498 0.36805 0.0
C11 C 0.12644 0.16609 0.34841 0.0
C12 C 0.14519 0.1556 0.34262 0.0
C13 C 0.14961 0.17006 0.37388 0.0
N14 N 0.15973 0.15823 0.35863 0.0
C15 C 0.07147 0.17908 0.36201 0.0
C16 C 0.06782 0.13824 0.37938 0.0
C17 C 0.05122 0.14616 0.3662 0.0
C18 C 0.05371 0.1665 0.35681 0.0
C19 C 0.08555 0.15151 0.38414 0.0
N20 N 0.08631 0.17233 0.3768 0.0
H21 H 0.07312 0.1944 0.354 0.0
H22 H 0.09853 0.14495 0.39368 0.0
H23 H 0.1119 0.16739 0.33886 0.0
H24 H 0.15678 0.17505 0.38902 0.0
O25 O 0.10672 0.21161 0.35999 0.0
O26 O 0.13076 0.21531 0.38617 0.0
O27 O 0.11744 0.17606 0.41132 0.0
C28 C 0.12228 0.22278 0.36842 0.0
H29 H 0.07541 0.2407 0.44151 0.0
H30 H 0.14807 0.14716 0.3276 0.0
H31 H 0.06697 0.12218 0.38621 0.0
H32 H 0.04198 0.17273 0.34544 0.0
Co33 Co 0.89651 0.31254 0.3914 0.0
C34 C 0.93479 0.28726 0.40439 0.0
C35 C 0.91281 0.29215 0.43072 0.0
C36 C 0.93057 0.28128 0.4383 0.0
N37 N 0.91564 0.29609 0.40957 0.0
N38 N 0.9445 0.27825 0.42177 0.0
H39 H 0.94151 0.2879 0.38829 0.0
H40 H 0.89901 0.29727 0.4401 0.0
C41 C 0.89002 0.35174 0.41926 0.0
O42 O 0.89631 0.36443 0.40349 0.0
N43 N 0.87597 0.32855 0.37381 0.0
C44 C 0.8727 0.32754 0.35222 0.0
C45 C 0.85238 0.33528 0.3475 0.0
C46 C 0.85716 0.33617 0.38175 0.0
N47 N 0.84256 0.34041 0.36617 0.0
C48 C 0.92613 0.33252 0.36162 0.0
C49 C 0.95585 0.34504 0.3924 0.0
C50 C 0.96176 0.34628 0.37052 0.0
C51 C 0.94603 0.34083 0.3551 0.0
C52 C 0.93535 0.3375 0.39821 0.0
N53 N 0.92092 0.33071 0.38292 0.0
H54 H 0.91568 0.32619 0.34939 0.0
H55 H 0.93179 0.33546 0.41517 0.0
H56 H 0.88286 0.3192 0.34081 0.0
H57 H 0.85337 0.33651 0.39878 0.0
O58 O 0.89891 0.29072 0.36938 0.0
O59 O 0.87465 0.29073 0.39576 0.0
O60 O 0.88949 0.3313 0.41685 0.0
C61 C 0.88285 0.28111 0.37896 0.0
H62 H 0.93316 0.27665 0.45492 0.0
H63 H 0.84458 0.33479 0.33186 0.0
H64 H 0.96724 0.34861 0.40514 0.0
H65 H 0.94924 0.34199 0.33798 0.0
Co66 Co 0.10303 0.80764 0.1166 0.0
C67 C 0.06373 0.78253 0.10426 0.0
C68 C 0.08939 0.77907 0.08139 0.0
C69 C 0.07235 0.76638 0.07481 0.0
N70 N 0.08383 0.78952 0.09967 0.0
N71 N 0.05627 0.76858 0.08929 0.0
H72 H 0.05464 0.78716 0.11828 0.0
H73 H 0.10493 0.78036 0.07354 0.0
C74 C 0.10037 0.8288 0.07329 0.0
O75 O 0.07938 0.82576 0.07369 0.0
N76 N 0.12259 0.82502 0.13323 0.0
C77 C 0.119 0.83459 0.15244 0.0
C78 C 0.13789 0.84423 0.15918 0.0
C79 C 0.14348 0.82865 0.12864 0.0
N80 N 0.15324 0.84031 0.14424 0.0
C81 C 0.06494 0.82166 0.13819 0.0
C82 C 0.06109 0.86163 0.11889 0.0
C83 C 0.0445 0.85398 0.13215 0.0
C84 C 0.0469 0.83418 0.14248 0.0
C85 C 0.07911 0.84849 0.11513 0.0
N86 N 0.07991 0.82797 0.12329 0.0
H87 H 0.06637 0.80646 0.14649 0.0
H88 H 0.09218 0.85483 0.10555 0.0
H89 H 0.10389 0.83424 0.16115 0.0
H90 H 0.15135 0.82279 0.11418 0.0
O91 O 0.09958 0.78861 0.14087 0.0
O92 O 0.12425 0.78472 0.11528 0.0
O93 O 0.11196 0.82347 0.08953 0.0
C94 C 0.11534 0.77741 0.13286 0.0
H95 H 0.07207 0.75595 0.06081 0.0
H96 H 0.14031 0.85294 0.17414 0.0
H97 H 0.06 0.87737 0.11137 0.0
H98 H 0.03464 0.82819 0.15343 0.0
Co99 Co 0.88893 0.68902 0.09825 0.0
C100 C 0.93032 0.70844 0.08565 0.0
C101 C 0.90789 0.70809 0.05925 0.0
C102 C 0.92685 0.71741 0.05232 0.0
N103 N 0.91021 0.70245 0.08009 0.0
N104 N 0.94096 0.7176 0.06896 0.0
H105 H 0.937 0.70588 0.10157 0.0
H106 H 0.89337 0.70576 0.04983 0.0
C107 C 0.87372 0.65074 0.07294 0.0
O108 O 0.87257 0.63946 0.09085 0.0
N109 N 0.86687 0.67591 0.11626 0.0
C110 C 0.86786 0.66767 0.13643 0.0
C111 C 0.84735 0.66233 0.14306 0.0
C112 C 0.84573 0.67564 0.11113 0.0
N113 N 0.83345 0.66745 0.12715 0.0
C114 C 0.91914 0.67142 0.12812 0.0
C115 C 0.93974 0.64401 0.09963 0.0
C116 C 0.94781 0.64621 0.12063 0.0
C117 C 0.93715 0.65996 0.13499 0.0
C118 C 0.92136 0.65557 0.09349 0.0
N119 N 0.91096 0.66878 0.10783 0.0
H120 H 0.9124 0.68324 0.13896 0.0
H121 H 0.91647 0.65488 0.07679 0.0
H122 H 0.88207 0.66587 0.14619 0.0
H123 H 0.83955 0.68133 0.09582 0.0
O124 O 0.89314 0.71116 0.11963 0.0
O125 O 0.86961 0.71294 0.09274 0.0
O126 O 0.88019 0.67029 0.07329 0.0
C127 C 0.87824 0.72198 0.10963 0.0
H128 H 0.92981 0.7239 0.03638 0.0
H129 H 0.843 0.65571 0.15863 0.0
H130 H 0.94792 0.63397 0.08789 0.0
H131 H 0.94339 0.6628 0.15108 0.0
Co132 Co 0.39042 0.10214 0.18308 0.0
C133 C 0.4006 0.06397 0.21021 0.0
C134 C 0.42527 0.0881 0.21213 0.0
C135 C 0.43085 0.07125 0.22553 0.0
N136 N 0.40652 0.08326 0.20213 0.0
N137 N 0.4152 0.05621 0.22429 0.0
H138 H 0.38588 0.05569 0.20626 0.0
H139 H 0.43418 0.10295 0.20992 0.0
C140 C 0.43359 0.09618 0.16214 0.0
O141 O 0.43298 0.07561 0.16727 0.0
N142 N 0.37449 0.1214 0.16472 0.0
C143 C 0.35528 0.11808 0.15505 0.0
C144 C 0.34911 0.13692 0.14493 0.0
C145 C 0.37966 0.14205 0.16061 0.0
N146 N 0.36441 0.15195 0.14865 0.0
C147 C 0.36584 0.06475 0.17165 0.0
C148 C 0.38616 0.05578 0.133 0.0
C149 C 0.37145 0.04081 0.14143 0.0
C150 C 0.36063 0.04592 0.16059 0.0
C151 C 0.39067 0.07467 0.14454 0.0
N152 N 0.38195 0.07802 0.16456 0.0
H153 H 0.35742 0.06813 0.18649 0.0
H154 H 0.40126 0.0864 0.13728 0.0
H155 H 0.34608 0.10328 0.15579 0.0
H156 H 0.39418 0.14974 0.16657 0.0
O157 O 0.36673 0.10168 0.20337 0.0
O158 O 0.39388 0.1249 0.20414 0.0
O159 O 0.41741 0.10838 0.16601 0.0
C160 C 0.37627 0.11771 0.213 0.0
H161 H 0.44501 0.07033 0.23572 0.0
H162 H 0.33419 0.13961 0.13626 0.0
H163 H 0.3941 0.05288 0.1177 0.0
H164 H 0.34882 0.03504 0.16751 0.0
Co165 Co 0.61686 0.38818 0.18554 0.0
C166 C 0.59955 0.42821 0.20688 0.0
C167 C 0.58739 0.39914 0.22106 0.0
C168 C 0.57934 0.41635 0.23251 0.0
N169 N 0.6004 0.40649 0.20513 0.0
N170 N 0.58693 0.43449 0.22338 0.0
H171 H 0.60774 0.43951 0.19655 0.0
H172 H 0.58402 0.38235 0.22434 0.0
C173 C 0.57299 0.39228 0.16602 0.0
O174 O 0.5734 0.41294 0.1707 0.0
N175 N 0.6328 0.36941 0.16675 0.0
C176 C 0.65198 0.3729 0.15709 0.0
C177 C 0.65867 0.35385 0.14766 0.0
C178 C 0.62814 0.34855 0.1633 0.0
N179 N 0.64372 0.33859 0.15185 0.0
C180 C 0.63813 0.42694 0.17334 0.0
C181 C 0.61966 0.43171 0.13302 0.0
C182 C 0.63291 0.44814 0.14118 0.0
C183 C 0.64282 0.44517 0.16123 0.0
C184 C 0.61536 0.41357 0.1458 0.0
N185 N 0.62336 0.41217 0.16633 0.0
H186 H 0.64545 0.42545 0.18906 0.0
H187 H 0.60557 0.4008 0.13914 0.0
H188 H 0.66088 0.3879 0.1576 0.0
H189 H 0.61387 0.3407 0.16963 0.0
O190 O 0.64163 0.39042 0.2042 0.0
O191 O 0.61611 0.36558 0.20716 0.0
O192 O 0.58942 0.38042 0.16987 0.0
C193 C 0.63385 0.37402 0.21463 0.0
H194 H 0.56872 0.41567 0.24638 0.0
H195 H 0.67379 0.35118 0.13932 0.0
H196 H 0.61233 0.43309 0.11721 0.0
H197 H 0.65387 0.45707 0.16772 0.0
Co198 Co 0.3956 0.89365 0.31059 0.0
C199 C 0.40995 0.93172 0.28621 0.0
C200 C 0.43325 0.90618 0.28471 0.0
C201 C 0.4412 0.92366 0.27351 0.0
N202 N 0.41376 0.9114 0.29273 0.0
N203 N 0.42653 0.93974 0.27455 0.0
H204 H 0.39555 0.9406 0.29046 0.0
H205 H 0.44114 0.89079 0.28696 0.0
C206 C 0.42512 0.88055 0.34698 0.0
O207 O 0.40918 0.88154 0.36092 0.0
N208 N 0.37762 0.875 0.32834 0.0
C209 C 0.35936 0.87922 0.33949 0.0
C210 C 0.35189 0.86041 0.34858 0.0
C211 C 0.38078 0.85358 0.33074 0.0
N212 N 0.36535 0.84428 0.34303 0.0
C213 C 0.37072 0.92848 0.32769 0.0
C214 C 0.40406 0.94954 0.34845 0.0
C215 C 0.38374 0.95955 0.34757 0.0
C216 C 0.36685 0.94834 0.33746 0.0
C217 C 0.40707 0.92922 0.339 0.0
N218 N 0.39041 0.91874 0.32896 0.0
H219 H 0.3579 0.9213 0.31834 0.0
H220 H 0.42324 0.92284 0.33842 0.0
H221 H 0.35148 0.89456 0.34108 0.0
H222 H 0.39433 0.84508 0.32377 0.0
O223 O 0.37228 0.89744 0.29026 0.0
O224 O 0.39666 0.87137 0.28873 0.0
O225 O 0.42197 0.88488 0.32711 0.0
C226 C 0.38004 0.88082 0.28007 0.0
H227 H 0.45652 0.92438 0.26517 0.0
H228 H 0.33742 0.85873 0.35821 0.0
H229 H 0.41786 0.95772 0.35535 0.0
H230 H 0.35076 0.95502 0.33646 0.0
Co231 Co 0.60626 0.60039 0.31252 0.0
C232 C 0.59737 0.55861 0.29148 0.0
C233 C 0.57363 0.58253 0.28345 0.0
C234 C 0.5683 0.5636 0.27312 0.0
N235 N 0.59181 0.5793 0.29494 0.0
N236 N 0.58316 0.54865 0.2784 0.0
H237 H 0.61153 0.55097 0.29827 0.0
H238 H 0.56485 0.59759 0.28276 0.0
C239 C 0.57272 0.61172 0.34573 0.0
O240 O 0.58758 0.61239 0.36085 0.0
N241 N 0.6203 0.62247 0.32979 0.0
C242 C 0.63985 0.6227 0.33938 0.0
C243 C 0.64337 0.64282 0.34813 0.0
C244 C 0.61253 0.64262 0.33243 0.0
N245 N 0.62615 0.65536 0.34376 0.0
C246 C 0.6337 0.57048 0.33426 0.0
C247 C 0.60152 0.5464 0.35358 0.0
C248 C 0.62286 0.53902 0.35463 0.0
C249 C 0.63906 0.55155 0.34511 0.0
C250 C 0.59685 0.5657 0.34279 0.0
N251 N 0.6129 0.57767 0.33337 0.0
H252 H 0.64622 0.57835 0.32514 0.0
H253 H 0.58013 0.56992 0.34058 0.0
H254 H 0.65133 0.60971 0.33963 0.0
H255 H 0.59708 0.64775 0.32615 0.0
O256 O 0.6315 0.59796 0.29447 0.0
O257 O 0.60446 0.6206 0.28876 0.0
O258 O 0.57772 0.60707 0.32631 0.0
C259 C 0.62278 0.61262 0.28228 0.0
H260 H 0.5544 0.56086 0.26288 0.0
H261 H 0.65782 0.64794 0.35649 0.0
H262 H 0.58845 0.53696 0.36034 0.0
H263 H 0.65565 0.54606 0.34475 0.0
Co264 Co 0.19469 0.39525 0.11018 0.0
C265 C 0.21981 0.40787 0.07165 0.0
C266 C 0.22142 0.43186 0.09659 0.0
C267 C 0.23278 0.43919 0.07895 0.0
N268 N 0.2132 0.41232 0.09189 0.0
N269 N 0.23166 0.42412 0.06322 0.0
H270 H 0.21541 0.39332 0.06307 0.0
H271 H 0.21908 0.44027 0.11171 0.0
C272 C 0.15826 0.42524 0.12081 0.0
O273 O 0.14439 0.40923 0.11976 0.0
N274 N 0.17633 0.37845 0.12932 0.0
C275 C 0.16579 0.35967 0.12599 0.0
C276 C 0.15557 0.35371 0.14482 0.0
C277 C 0.1726 0.38337 0.15023 0.0
N278 N 0.15987 0.36863 0.16007 0.0
C279 C 0.17796 0.36932 0.07568 0.0
C280 C 0.15714 0.40225 0.054 0.0
C281 C 0.15813 0.38183 0.04443 0.0
C282 C 0.16852 0.36518 0.05564 0.0
C283 C 0.16685 0.40572 0.07404 0.0
N284 N 0.1767 0.38925 0.08499 0.0
H285 H 0.18723 0.35666 0.0832 0.0
H286 H 0.16773 0.4221 0.07979 0.0
H287 H 0.16552 0.35049 0.11126 0.0
H288 H 0.17888 0.39772 0.15795 0.0
O289 O 0.2147 0.37152 0.10801 0.0
O290 O 0.21592 0.39724 0.13286 0.0
O291 O 0.17829 0.42205 0.11742 0.0
C292 C 0.22453 0.38001 0.12454 0.0
H293 H 0.2412 0.45445 0.07785 0.0
H294 H 0.14605 0.33926 0.14717 0.0
H295 H 0.15002 0.41577 0.04553 0.0
H296 H 0.16988 0.34918 0.04874 0.0
Co297 Co 0.18789 0.61815 0.39198 0.0
C298 C 0.21072 0.61037 0.43377 0.0
C299 C 0.21696 0.58593 0.41008 0.0
C300 C 0.22843 0.58101 0.4284 0.0
N301 N 0.20555 0.60412 0.41356 0.0
N302 N 0.22447 0.5964 0.44324 0.0
H303 H 0.2048 0.62474 0.44154 0.0
H304 H 0.21697 0.57691 0.39513 0.0
C305 C 0.16808 0.57396 0.39749 0.0
O306 O 0.17115 0.57476 0.41847 0.0
N307 N 0.17083 0.63135 0.36979 0.0
C308 C 0.15881 0.64943 0.37005 0.0
C309 C 0.14847 0.65119 0.35033 0.0
C310 C 0.16791 0.62257 0.35022 0.0
N311 N 0.15418 0.63414 0.33796 0.0
C312 C 0.17166 0.6443 0.42619 0.0
C313 C 0.13418 0.62153 0.43422 0.0
C314 C 0.14047 0.6379 0.44844 0.0
C315 C 0.15891 0.64996 0.44375 0.0
C316 C 0.14718 0.61681 0.41632 0.0
N317 N 0.16665 0.62691 0.41361 0.0
H318 H 0.18626 0.65337 0.42354 0.0
H319 H 0.14154 0.60493 0.40498 0.0
H320 H 0.15733 0.6603 0.38362 0.0
H321 H 0.17582 0.60785 0.34523 0.0
O322 O 0.20646 0.6431 0.39298 0.0
O323 O 0.21148 0.61482 0.37175 0.0
O324 O 0.17296 0.59004 0.38555 0.0
C325 C 0.21828 0.63345 0.37863 0.0
H326 H 0.23917 0.56741 0.4305 0.0
H327 H 0.13721 0.66372 0.34577 0.0
H328 H 0.11951 0.61244 0.43699 0.0
H329 H 0.16405 0.66299 0.45423 0.0
Co330 Co 0.79993 0.90142 0.39477 0.0
C331 C 0.77695 0.91097 0.43576 0.0
C332 C 0.77311 0.93596 0.41206 0.0
C333 C 0.76242 0.94203 0.43051 0.0
N334 N 0.78243 0.91668 0.41548 0.0
N335 N 0.76502 0.92641 0.4455 0.0
H336 H 0.78234 0.89624 0.44341 0.0
H337 H 0.77416 0.94505 0.3972 0.0
C338 C 0.83409 0.93565 0.38822 0.0
O339 O 0.84965 0.92187 0.39237 0.0
N340 N 0.81675 0.88642 0.37277 0.0
C341 C 0.81659 0.86501 0.3685 0.0
C342 C 0.82611 0.86132 0.34885 0.0
C343 C 0.82551 0.89542 0.35491 0.0
N344 N 0.83159 0.88047 0.34022 0.0
C345 C 0.82571 0.87322 0.42061 0.0
C346 C 0.83556 0.90283 0.45243 0.0
C347 C 0.8395 0.88085 0.45629 0.0
C348 C 0.83572 0.86628 0.43941 0.0
C349 C 0.82636 0.90929 0.43276 0.0
N350 N 0.82062 0.89437 0.41749 0.0
H351 H 0.82056 0.86107 0.4095 0.0
H352 H 0.82202 0.92605 0.43071 0.0
H353 H 0.80826 0.85286 0.37781 0.0
H354 H 0.82604 0.91258 0.35197 0.0
O355 O 0.78129 0.87682 0.39777 0.0
O356 O 0.77648 0.90358 0.37441 0.0
O357 O 0.81445 0.92952 0.38803 0.0
C358 C 0.76954 0.88555 0.38271 0.0
H359 H 0.75349 0.95686 0.43267 0.0
H360 H 0.82709 0.8459 0.3407 0.0
H361 H 0.83814 0.91479 0.4649 0.0
H362 H 0.83916 0.84925 0.44115 0.0
Co363 Co 0.31267 0.60942 0.60596 0.0
C364 C 0.28583 0.5983 0.5682 0.0
C365 C 0.2833 0.57469 0.59345 0.0
C366 C 0.27091 0.568 0.57628 0.0
N367 N 0.29276 0.59354 0.58823 0.0
N368 N 0.27259 0.58285 0.56043 0.0
H369 H 0.29091 0.61242 0.55928 0.0
H370 H 0.28545 0.56632 0.60861 0.0
C371 C 0.34611 0.57634 0.61771 0.0
O372 O 0.36138 0.59103 0.61698 0.0
N373 N 0.33237 0.62496 0.62474 0.0
C374 C 0.34561 0.64183 0.62089 0.0
C375 C 0.35541 0.64778 0.63996 0.0
C376 C 0.33426 0.62106 0.64608 0.0
N377 N 0.34818 0.63472 0.65581 0.0
C378 C 0.33125 0.63291 0.57106 0.0
C379 C 0.34744 0.59779 0.5489 0.0
C380 C 0.34743 0.61801 0.53879 0.0
C381 C 0.3395 0.63575 0.55035 0.0
C382 C 0.33896 0.59563 0.56972 0.0
N383 N 0.33109 0.61311 0.5807 0.0
H384 H 0.32373 0.64657 0.5788 0.0
H385 H 0.33723 0.57955 0.57609 0.0
H386 H 0.34815 0.64966 0.6056 0.0
H387 H 0.32572 0.60819 0.65421 0.0
O388 O 0.29513 0.63488 0.60282 0.0
O389 O 0.29095 0.61017 0.62835 0.0
O390 O 0.32652 0.58134 0.61395 0.0
C391 C 0.28416 0.62783 0.61924 0.0
H392 H 0.26142 0.55336 0.57552 0.0
H393 H 0.36667 0.66097 0.64202 0.0
H394 H 0.35317 0.58357 0.54051 0.0
H395 H 0.33841 0.65157 0.54302 0.0
Co396 Co 0.89835 0.80696 0.59544 0.0
C397 C 0.93824 0.78621 0.58103 0.0
C398 C 0.91704 0.79225 0.55428 0.0
C399 C 0.93608 0.78378 0.54646 0.0
N400 N 0.9186 0.79387 0.57591 0.0
N401 N 0.9493 0.78003 0.56335 0.0
H402 H 0.94464 0.78603 0.59729 0.0
H403 H 0.90328 0.7973 0.54482 0.0
C404 C 0.88388 0.84683 0.57241 0.0
O405 O 0.88682 0.85804 0.59017 0.0
N406 N 0.87742 0.81987 0.61473 0.0
C407 C 0.87908 0.82645 0.63545 0.0
C408 C 0.85892 0.83248 0.64268 0.0
C409 C 0.85632 0.82172 0.60986 0.0
N410 N 0.84464 0.82935 0.62657 0.0
C411 C 0.93057 0.82343 0.62423 0.0
C412 C 0.94952 0.8517 0.59539 0.0
C413 C 0.95877 0.84903 0.6158 0.0
C414 C 0.94911 0.83467 0.63031 0.0
C415 C 0.93115 0.83987 0.58984 0.0
N416 N 0.9213 0.82656 0.60447 0.0
H417 H 0.92429 0.81142 0.63515 0.0
H418 H 0.92569 0.84061 0.57333 0.0
H419 H 0.89349 0.82647 0.64512 0.0
H420 H 0.84969 0.81743 0.59428 0.0
O421 O 0.90307 0.78397 0.61592 0.0
O422 O 0.87834 0.78357 0.59007 0.0
O423 O 0.88835 0.82673 0.57175 0.0
C424 C 0.88744 0.7738 0.60627 0.0
H425 H 0.93995 0.78075 0.52969 0.0
H426 H 0.85501 0.83809 0.65876 0.0
H427 H 0.95706 0.862 0.58343 0.0
H428 H 0.95609 0.8318 0.64608 0.0
Co429 Co 0.11179 0.68937 0.60322 0.0
C430 C 0.07589 0.71887 0.59462 0.0
C431 C 0.09627 0.71559 0.56683 0.0
C432 C 0.07837 0.72747 0.56116 0.0
N433 N 0.09442 0.70995 0.5877 0.0
N434 N 0.06539 0.72932 0.57862 0.0
H435 H 0.06983 0.71675 0.61084 0.0
H436 H 0.10913 0.71051 0.5562 0.0
C437 C 0.1157 0.6522 0.57237 0.0
O438 O 0.11401 0.63843 0.58838 0.0
N439 N 0.12976 0.66871 0.61875 0.0
C440 C 0.12423 0.65338 0.63325 0.0
C441 C 0.14253 0.64307 0.64027 0.0
C442 C 0.15144 0.66713 0.61702 0.0
N443 N 0.15968 0.65173 0.63009 0.0
C444 C 0.07846 0.67585 0.63191 0.0
C445 C 0.05015 0.66173 0.60048 0.0
C446 C 0.04297 0.66288 0.62195 0.0
C447 C 0.05773 0.66951 0.63781 0.0
C448 C 0.07132 0.66755 0.59537 0.0
N449 N 0.08528 0.67444 0.61101 0.0
H450 H 0.08906 0.68223 0.64421 0.0
H451 H 0.07576 0.66821 0.57854 0.0
H452 H 0.10817 0.6491 0.63823 0.0
H453 H 0.16094 0.67676 0.606 0.0
O454 O 0.11342 0.70906 0.62719 0.0
O455 O 0.13631 0.7084 0.5997 0.0
O456 O 0.11519 0.67247 0.57585 0.0
C457 C 0.13009 0.71747 0.6176 0.0
H458 H 0.07472 0.73313 0.54505 0.0
H459 H 0.14304 0.63014 0.65198 0.0
H460 H 0.03928 0.65747 0.58749 0.0
H461 H 0.05328 0.67034 0.65468 0.0
Co462 Co 0.89323 0.18818 0.89045 0.0
C463 C 0.93447 0.21189 0.89759 0.0
C464 C 0.91422 0.21055 0.92571 0.0
C465 C 0.93266 0.22156 0.93091 0.0
N466 N 0.91542 0.20435 0.90496 0.0
N467 N 0.94543 0.22254 0.91325 0.0
H468 H 0.94001 0.2097 0.88118 0.0
H469 H 0.90081 0.20725 0.93639 0.0
C470 C 0.88442 0.15165 0.92098 0.0
O471 O 0.88166 0.13826 0.90478 0.0
N472 N 0.86976 0.17217 0.87699 0.0
C473 C 0.86922 0.1577 0.86068 0.0
C474 C 0.84846 0.14995 0.85864 0.0
C475 C 0.84934 0.17287 0.88449 0.0
N476 N 0.83594 0.15949 0.87369 0.0
C477 C 0.91946 0.16865 0.85814 0.0
C478 C 0.94615 0.14588 0.88566 0.0
C479 C 0.94995 0.1451 0.8634 0.0
C480 C 0.93637 0.15661 0.84958 0.0
C481 C 0.92863 0.15773 0.89355 0.0
N482 N 0.91513 0.16844 0.87975 0.0
H483 H 0.90976 0.1782 0.84728 0.0
H484 H 0.92658 0.15905 0.9108 0.0
H485 H 0.8827 0.1522 0.85125 0.0
H486 H 0.84457 0.1828 0.898 0.0
O487 O 0.89352 0.20843 0.86698 0.0
O488 O 0.87343 0.21158 0.89642 0.0
O489 O 0.88902 0.17141 0.91768 0.0
C490 C 0.87962 0.21959 0.878 0.0
H491 H 0.9364 0.22795 0.94672 0.0
H492 H 0.84331 0.13762 0.8474 0.0
H493 H 0.95675 0.13762 0.89683 0.0
H494 H 0.93925 0.15688 0.83232 0.0
Co495 Co 0.1102 0.30852 0.89967 0.0
C496 C 0.06924 0.28814 0.91173 0.0
C497 C 0.08924 0.29354 0.93957 0.0
C498 C 0.07001 0.28463 0.94628 0.0
N499 N 0.08858 0.29585 0.91796 0.0
N500 N 0.05758 0.28124 0.92873 0.0
H501 H 0.06361 0.28813 0.89519 0.0
H502 H 0.10264 0.29815 0.94976 0.0
C503 C 0.12741 0.34571 0.92525 0.0
O504 O 0.12648 0.35821 0.90816 0.0
N505 N 0.1325 0.32094 0.8816 0.0
C506 C 0.13178 0.33012 0.86185 0.0
C507 C 0.15244 0.33586 0.85586 0.0
C508 C 0.15352 0.32097 0.8871 0.0
N509 N 0.16605 0.33 0.87178 0.0
C510 C 0.08005 0.32771 0.87077 0.0
C511 C 0.06165 0.35608 0.89986 0.0
C512 C 0.05259 0.35397 0.87926 0.0
C513 C 0.06214 0.33974 0.86459 0.0
C514 C 0.07951 0.34348 0.90551 0.0
N515 N 0.08888 0.32986 0.89085 0.0
H516 H 0.08623 0.31591 0.85957 0.0
H517 H 0.08485 0.34382 0.92207 0.0
H518 H 0.11759 0.33258 0.85215 0.0
H519 H 0.15942 0.31486 0.90236 0.0
O520 O 0.10445 0.28677 0.87817 0.0
O521 O 0.12857 0.2838 0.90447 0.0
O522 O 0.12079 0.32626 0.92462 0.0
C523 C 0.11903 0.27523 0.88785 0.0
H524 H 0.06553 0.28086 0.96275 0.0
H525 H 0.15706 0.34354 0.84087 0.0
H526 H 0.05425 0.36642 0.91185 0.0
H527 H 0.05542 0.33747 0.84859 0.0
Co528 Co 0.60061 0.89645 0.82104 0.0
C529 C 0.59376 0.9327 0.79173 0.0
C530 C 0.56609 0.91183 0.79229 0.0
C531 C 0.5621 0.92856 0.77818 0.0
N532 N 0.58586 0.91466 0.8008 0.0
N533 N 0.57958 0.94161 0.77788 0.0
H534 H 0.60944 0.93936 0.79556 0.0
H535 H 0.55539 0.89855 0.79603 0.0
C536 C 0.56786 0.88846 0.85575 0.0
O537 O 0.58269 0.89196 0.8705 0.0
N538 N 0.61537 0.87752 0.84117 0.0
C539 C 0.63237 0.88112 0.85435 0.0
C540 C 0.63804 0.86207 0.86416 0.0
C541 C 0.61102 0.8563 0.84328 0.0
N542 N 0.62467 0.84646 0.8571 0.0
C543 C 0.627 0.92985 0.83837 0.0
C544 C 0.59438 0.95446 0.85614 0.0
C545 C 0.61567 0.96204 0.85709 0.0
C546 C 0.63204 0.94946 0.84801 0.0
C547 C 0.59005 0.93446 0.84652 0.0
N548 N 0.60641 0.92201 0.83845 0.0
H549 H 0.63978 0.92114 0.83038 0.0
H550 H 0.57344 0.92963 0.84464 0.0
H551 H 0.64061 0.89616 0.85684 0.0
H552 H 0.59805 0.84829 0.83477 0.0
O553 O 0.6258 0.89733 0.80284 0.0
O554 O 0.59953 0.87323 0.80015 0.0
O555 O 0.57238 0.89028 0.83574 0.0
C556 C 0.61757 0.88095 0.79265 0.0
H557 H 0.54755 0.93085 0.7688 0.0
H558 H 0.65139 0.85985 0.8752 0.0
H559 H 0.58118 0.96404 0.8624 0.0
H560 H 0.64858 0.95513 0.84757 0.0
Co561 Co 0.38332 0.60501 0.81207 0.0
C562 C 0.40188 0.56388 0.79407 0.0
C563 C 0.41655 0.59223 0.7808 0.0
C564 C 0.42544 0.57446 0.77088 0.0
N565 N 0.40152 0.58567 0.7952 0.0
N566 N 0.41626 0.55677 0.77942 0.0
H567 H 0.39185 0.55313 0.80328 0.0
H568 H 0.42066 0.60886 0.77751 0.0
C569 C 0.42595 0.60385 0.83456 0.0
O570 O 0.42631 0.58284 0.83181 0.0
N571 N 0.36566 0.62475 0.82829 0.0
C572 C 0.34604 0.62117 0.83696 0.0
C573 C 0.33887 0.64007 0.84626 0.0
C574 C 0.37008 0.64566 0.83214 0.0
N575 N 0.35398 0.65544 0.84308 0.0
C576 C 0.36177 0.56685 0.82608 0.0
C577 C 0.37943 0.56427 0.86693 0.0
C578 C 0.367 0.54701 0.85916 0.0
C579 C 0.35735 0.54897 0.83885 0.0
C580 C 0.38344 0.58204 0.8535 0.0
N581 N 0.37608 0.58227 0.83267 0.0
H582 H 0.35474 0.56745 0.81017 0.0
H583 H 0.39265 0.59538 0.85986 0.0
H584 H 0.33741 0.60602 0.83629 0.0
H585 H 0.38481 0.65352 0.82699 0.0
O586 O 0.36 0.60069 0.79188 0.0
O587 O 0.38512 0.62589 0.7888 0.0
O588 O 0.40948 0.61483 0.82876 0.0
C589 C 0.36816 0.61646 0.78076 0.0
H590 H 0.43762 0.5745 0.75834 0.0
H591 H 0.32353 0.64246 0.85426 0.0
H592 H 0.38648 0.56377 0.88292 0.0
H593 H 0.34681 0.53648 0.83261 0.0
Co594 Co 0.60562 0.10526 0.69092 0.0
C595 C 0.59188 0.06568 0.7143 0.0
C596 C 0.56973 0.09205 0.718 0.0
C597 C 0.56155 0.0745 0.72875 0.0
N598 N 0.58858 0.08645 0.70882 0.0
N599 N 0.57539 0.05788 0.72629 0.0
H600 H 0.60567 0.05635 0.70902 0.0
H601 H 0.56236 0.10782 0.71678 0.0
C602 C 0.57408 0.11719 0.6565 0.0
O603 O 0.58793 0.11132 0.64158 0.0
N604 N 0.62167 0.12569 0.67319 0.0
C605 C 0.63365 0.1234 0.65508 0.0
C606 C 0.63763 0.14355 0.64643 0.0
C607 C 0.61853 0.14714 0.67499 0.0
N608 N 0.62788 0.15844 0.65892 0.0
C609 C 0.63066 0.07394 0.66872 0.0
C610 C 0.59662 0.049 0.65426 0.0
C611 C 0.6177 0.0409 0.65236 0.0
C612 C 0.63484 0.05413 0.65899 0.0
C613 C 0.59316 0.06929 0.6636 0.0
N614 N 0.6101 0.08148 0.67085 0.0
H615 H 0.64404 0.08301 0.67527 0.0
H616 H 0.57676 0.07436 0.66661 0.0
H617 H 0.63793 0.10843 0.64738 0.0
H618 H 0.60844 0.15425 0.6873 0.0
O619 O 0.63041 0.10032 0.70909 0.0
O620 O 0.60591 0.12575 0.71452 0.0
O621 O 0.57847 0.11515 0.67649 0.0
C622 C 0.62337 0.11605 0.72102 0.0
H623 H 0.5466 0.0741 0.73776 0.0
H624 H 0.64568 0.14677 0.63126 0.0
H625 H 0.58279 0.03927 0.64985 0.0
H626 H 0.65144 0.04893 0.65751 0.0
Co627 Co 0.3917 0.39337 0.6902 0.0
C628 C 0.40422 0.43323 0.71279 0.0
C629 C 0.42534 0.40703 0.72094 0.0
C630 C 0.43213 0.42527 0.73183 0.0
N631 N 0.4079 0.41217 0.709 0.0
N632 N 0.4189 0.44163 0.72639 0.0
H633 H 0.3911 0.44234 0.70578 0.0
H634 H 0.43268 0.39122 0.72153 0.0
C635 C 0.4243 0.37964 0.65706 0.0
O636 O 0.4096 0.38126 0.64186 0.0
N637 N 0.3755 0.3739 0.67163 0.0
C638 C 0.35673 0.37717 0.66107 0.0
C639 C 0.35101 0.35852 0.65051 0.0
C640 C 0.38054 0.35305 0.66776 0.0
N641 N 0.36601 0.34336 0.65466 0.0
C642 C 0.36882 0.42765 0.66965 0.0
C643 C 0.40429 0.44781 0.65167 0.0
C644 C 0.38431 0.45832 0.65116 0.0
C645 C 0.36637 0.44777 0.65998 0.0
C646 C 0.40604 0.42758 0.66149 0.0
N647 N 0.38838 0.41754 0.67023 0.0
H648 H 0.35521 0.42117 0.67832 0.0
H649 H 0.42202 0.42112 0.66367 0.0
H650 H 0.34731 0.39171 0.6611 0.0
H651 H 0.39481 0.34529 0.67414 0.0
O652 O 0.36649 0.39798 0.70789 0.0
O653 O 0.39064 0.37216 0.71304 0.0
O654 O 0.41959 0.38395 0.67666 0.0
C655 C 0.37329 0.38199 0.71963 0.0
H656 H 0.44595 0.42658 0.74243 0.0
H657 H 0.33664 0.35621 0.64085 0.0
H658 H 0.41866 0.45553 0.64539 0.0
H659 H 0.35078 0.4556 0.66082 0.0
Co660 Co 0.80313 0.60137 0.88976 0.0
C661 C 0.7804 0.59536 0.93114 0.0
C662 C 0.77266 0.5703 0.90849 0.0
C663 C 0.76257 0.56576 0.92781 0.0
N664 N 0.78391 0.58877 0.91073 0.0
N665 N 0.76774 0.58143 0.94199 0.0
H666 H 0.7874 0.60972 0.93816 0.0
H667 H 0.77244 0.56047 0.89406 0.0
C668 C 0.83579 0.56639 0.88231 0.0
O669 O 0.8515 0.58063 0.88245 0.0
N670 N 0.82234 0.61352 0.86804 0.0
C671 C 0.83786 0.62873 0.86974 0.0
C672 C 0.84777 0.63118 0.85004 0.0
C673 C 0.82314 0.60704 0.84723 0.0
N674 N 0.83853 0.61754 0.83582 0.0
C675 C 0.82362 0.63005 0.9194 0.0
C676 C 0.84198 0.59896 0.94554 0.0
C677 C 0.84345 0.62068 0.95164 0.0
C678 C 0.83426 0.63631 0.93818 0.0
C679 C 0.83137 0.59339 0.9264 0.0
N680 N 0.82269 0.6089 0.91329 0.0
H681 H 0.81563 0.6423 0.90994 0.0
H682 H 0.82892 0.5765 0.92308 0.0
H683 H 0.84248 0.63729 0.88409 0.0
H684 H 0.8127 0.59466 0.84072 0.0
O685 O 0.78548 0.62707 0.88944 0.0
O686 O 0.78073 0.59865 0.86829 0.0
O687 O 0.81634 0.57224 0.88545 0.0
C688 C 0.77403 0.61747 0.87467 0.0
H689 H 0.75307 0.55156 0.93147 0.0
H690 H 0.86126 0.64178 0.84677 0.0
H691 H 0.84845 0.58634 0.95574 0.0
H692 H 0.83439 0.65321 0.94263 0.0
Co693 Co 0.80665 0.3912 0.60165 0.0
C694 C 0.77995 0.39734 0.56284 0.0
C695 C 0.77994 0.42545 0.58318 0.0
C696 C 0.76814 0.42996 0.56493 0.0
N697 N 0.78754 0.40515 0.58164 0.0
N698 N 0.7682 0.41226 0.5523 0.0
H699 H 0.78365 0.38145 0.55662 0.0
H700 H 0.78304 0.43632 0.59648 0.0
C701 C 0.84028 0.42477 0.61072 0.0
O702 O 0.85519 0.40973 0.61014 0.0
N703 N 0.82553 0.37766 0.62268 0.0
C704 C 0.83829 0.36004 0.62153 0.0
C705 C 0.84727 0.35635 0.64151 0.0
C706 C 0.82696 0.38428 0.64337 0.0
N707 N 0.84009 0.3716 0.65526 0.0
C708 C 0.82707 0.36415 0.57069 0.0
C709 C 0.84185 0.39662 0.54398 0.0
C710 C 0.84268 0.3752 0.53668 0.0
C711 C 0.83599 0.35887 0.55081 0.0
C712 C 0.83335 0.4012 0.56446 0.0
N713 N 0.82597 0.38502 0.57759 0.0
H714 H 0.81965 0.35136 0.57986 0.0
H715 H 0.83095 0.41789 0.56877 0.0
H716 H 0.84105 0.3501 0.6076 0.0
H717 H 0.81855 0.3983 0.64946 0.0
O718 O 0.7893 0.36549 0.60022 0.0
O719 O 0.78389 0.39237 0.62315 0.0
O720 O 0.8205 0.41994 0.60757 0.0
C721 C 0.77765 0.37379 0.61551 0.0
H722 H 0.76027 0.44507 0.56112 0.0
H723 H 0.85789 0.34313 0.64562 0.0
H724 H 0.84633 0.40986 0.53349 0.0
H725 H 0.8365 0.34204 0.54613 0.0
Co726 Co 0.1869 0.10778 0.60368 0.0
C727 C 0.21327 0.0934 0.56576 0.0
C728 C 0.2149 0.07156 0.59249 0.0
C729 C 0.22801 0.06385 0.57632 0.0
N730 N 0.20539 0.08994 0.58576 0.0
N731 N 0.22697 0.07766 0.55956 0.0
H732 H 0.2093 0.10701 0.55579 0.0
H733 H 0.21257 0.06434 0.60821 0.0
C734 C 0.16401 0.06563 0.59843 0.0
O735 O 0.16911 0.0661 0.57784 0.0
N736 N 0.16911 0.12514 0.62237 0.0
C737 C 0.16 0.14445 0.61827 0.0
C738 C 0.15015 0.15172 0.63688 0.0
C739 C 0.16498 0.12104 0.6433 0.0
N740 N 0.15349 0.13704 0.6526 0.0
C741 C 0.17725 0.13094 0.56498 0.0
C742 C 0.1361 0.1153 0.55824 0.0
C743 C 0.14537 0.12885 0.54261 0.0
C744 C 0.16598 0.13719 0.5466 0.0
C745 C 0.14804 0.10948 0.57659 0.0
N746 N 0.16895 0.11615 0.57905 0.0
H747 H 0.19301 0.13784 0.56757 0.0
H748 H 0.1403 0.09974 0.58877 0.0
H749 H 0.16088 0.15292 0.60304 0.0
H750 H 0.17049 0.1067 0.65161 0.0
O751 O 0.2079 0.13071 0.60228 0.0
O752 O 0.20795 0.10466 0.62667 0.0
O753 O 0.16866 0.08164 0.61066 0.0
C754 C 0.21731 0.12168 0.61867 0.0
H755 H 0.23789 0.04948 0.57705 0.0
H756 H 0.14182 0.16693 0.6389 0.0
H757 H 0.11991 0.10902 0.55623 0.0
H758 H 0.1734 0.14861 0.53564 0.0
Co759 Co 0.68877 0.38878 0.38728 0.0
C760 C 0.71561 0.40281 0.42365 0.0
C761 C 0.71017 0.42864 0.40125 0.0
C762 C 0.72167 0.43654 0.41852 0.0
N763 N 0.70621 0.40759 0.40471 0.0
N764 N 0.72502 0.42029 0.4327 0.0
H765 H 0.7151 0.38688 0.43071 0.0
H766 H 0.70459 0.43773 0.38744 0.0
C767 C 0.64939 0.41544 0.3774 0.0
O768 O 0.63712 0.39819 0.37831 0.0
N769 N 0.67129 0.37012 0.36898 0.0
C770 C 0.65772 0.35375 0.37392 0.0
C771 C 0.64869 0.34591 0.35522 0.0
C772 C 0.67007 0.37198 0.34731 0.0
N773 N 0.65651 0.35737 0.33849 0.0
C774 C 0.67559 0.36122 0.42143 0.0
C775 C 0.65702 0.39263 0.447 0.0
C776 C 0.66042 0.372 0.45576 0.0
C777 C 0.66908 0.35604 0.44226 0.0
C778 C 0.66317 0.39699 0.42565 0.0
N779 N 0.6725 0.38137 0.41314 0.0
H780 H 0.68379 0.34901 0.41208 0.0
H781 H 0.66209 0.4134 0.41995 0.0
H782 H 0.65367 0.34805 0.3898 0.0
H783 H 0.67836 0.38439 0.33826 0.0
O784 O 0.71059 0.36687 0.3894 0.0
O785 O 0.70972 0.39205 0.3641 0.0
O786 O 0.6697 0.41408 0.38045 0.0
C787 C 0.71978 0.37577 0.37282 0.0
H788 H 0.72645 0.45318 0.42069 0.0
H789 H 0.63707 0.33291 0.3541 0.0
H790 H 0.65083 0.40567 0.45683 0.0
H791 H 0.67157 0.3397 0.4479 0.0
Co792 Co 0.59973 0.69027 0.89191 0.0
C793 C 0.55832 0.71124 0.9036 0.0
C794 C 0.58328 0.71651 0.9271 0.0
C795 C 0.56482 0.72645 0.93418 0.0
N796 N 0.57913 0.70689 0.90806 0.0
N797 N 0.54913 0.72306 0.91946 0.0
H798 H 0.55001 0.70554 0.88933 0.0
H799 H 0.59871 0.71629 0.93525 0.0
C800 C 0.61396 0.65757 0.92543 0.0
O801 O 0.61367 0.6415 0.91159 0.0
N802 N 0.62144 0.67397 0.87644 0.0
C803 C 0.62114 0.66528 0.85647 0.0
C804 C 0.6416 0.65812 0.85147 0.0
C805 C 0.64209 0.67229 0.88305 0.0
N806 N 0.65479 0.66265 0.8682 0.0
C807 C 0.56883 0.66861 0.86558 0.0
C808 C 0.54872 0.64551 0.89802 0.0
C809 C 0.53993 0.64523 0.87721 0.0
C810 C 0.55031 0.65678 0.86086 0.0
C811 C 0.56717 0.6579 0.90216 0.0
N812 N 0.57732 0.66895 0.88593 0.0
H813 H 0.57552 0.67854 0.85299 0.0
H814 H 0.57226 0.65963 0.9187 0.0
H815 H 0.60753 0.66487 0.84568 0.0
H816 H 0.64771 0.67843 0.89841 0.0
O817 O 0.59552 0.70886 0.86726 0.0
O818 O 0.61936 0.71432 0.89338 0.0
O819 O 0.6085 0.67651 0.9197 0.0
C820 C 0.61034 0.7211 0.8757 0.0
H821 H 0.56315 0.73568 0.94892 0.0
H822 H 0.64651 0.65095 0.83632 0.0
H823 H 0.54069 0.63727 0.91119 0.0
H824 H 0.54376 0.65722 0.84465 0.0
Co825 Co 0.38258 0.80942 0.88617 0.0
C826 C 0.42219 0.78425 0.89371 0.0
C827 C 0.40026 0.78242 0.92052 0.0
C828 C 0.41799 0.7699 0.92504 0.0
N829 N 0.40307 0.79151 0.90101 0.0
N830 N 0.43178 0.77112 0.90819 0.0
H831 H 0.429 0.78883 0.87828 0.0
H832 H 0.38617 0.78454 0.93061 0.0
C833 C 0.37489 0.84409 0.91857 0.0
O834 O 0.37879 0.85826 0.90328 0.0
N835 N 0.36064 0.82653 0.87166 0.0
C836 C 0.35685 0.82849 0.85025 0.0
C837 C 0.33605 0.83572 0.84714 0.0
C838 C 0.3417 0.8318 0.88105 0.0
N839 N 0.32649 0.83754 0.86657 0.0
C840 C 0.41015 0.83588 0.85951 0.0
C841 C 0.43989 0.84484 0.89153 0.0
C842 C 0.44518 0.84995 0.87008 0.0
C843 C 0.42941 0.84627 0.85418 0.0
C844 C 0.42006 0.83517 0.89628 0.0
N845 N 0.40566 0.83015 0.88028 0.0
H846 H 0.3997 0.83114 0.84657 0.0
H847 H 0.41708 0.83009 0.9127 0.0
H848 H 0.3672 0.82263 0.83753 0.0
H849 H 0.3385 0.82967 0.89806 0.0
O850 O 0.38587 0.7916 0.86095 0.0
O851 O 0.36231 0.78567 0.88727 0.0
O852 O 0.37544 0.82389 0.91445 0.0
C853 C 0.37095 0.77932 0.86915 0.0
H854 H 0.42036 0.7604 0.9395 0.0
H855 H 0.32798 0.8374 0.83173 0.0
H856 H 0.45141 0.84691 0.90448 0.0
H857 H 0.43226 0.85036 0.83744 0.0
Co858 Co 0.60758 0.30958 0.60193 0.0
C859 C 0.57135 0.28294 0.58701 0.0
C860 C 0.59621 0.28491 0.56296 0.0
C861 C 0.57955 0.27249 0.55497 0.0
N862 N 0.59089 0.2915 0.58295 0.0
N863 N 0.56391 0.27132 0.57014 0.0
H864 H 0.56258 0.28571 0.60184 0.0
H865 H 0.6111 0.28892 0.55476 0.0
C866 C 0.61806 0.34804 0.57485 0.0
O867 O 0.61195 0.36069 0.59073 0.0
N868 N 0.62511 0.3276 0.62073 0.0
C869 C 0.62007 0.33922 0.63851 0.0
C870 C 0.63838 0.34947 0.64586 0.0
C871 C 0.64641 0.33092 0.61774 0.0
N872 N 0.65492 0.34416 0.63281 0.0
C873 C 0.57167 0.32435 0.62661 0.0
C874 C 0.55012 0.34491 0.59347 0.0
C875 C 0.54008 0.34326 0.6137 0.0
C876 C 0.55121 0.33279 0.63036 0.0
C877 C 0.57067 0.33611 0.59038 0.0
N878 N 0.58158 0.32657 0.60706 0.0
H879 H 0.57921 0.31521 0.63937 0.0
H880 H 0.57718 0.33594 0.57423 0.0
H881 H 0.60443 0.34062 0.64587 0.0
H882 H 0.65538 0.32416 0.60435 0.0
O883 O 0.60393 0.28866 0.62458 0.0
O884 O 0.63072 0.28852 0.60092 0.0
O885 O 0.61673 0.32756 0.57656 0.0
C886 C 0.62107 0.2792 0.6171 0.0
H887 H 0.57909 0.26489 0.53926 0.0
H888 H 0.63944 0.35993 0.65982 0.0
H889 H 0.54198 0.35246 0.57997 0.0
H890 H 0.54381 0.3302 0.64599 0.0
Co891 Co 0.39405 0.18955 0.60524 0.0
C892 C 0.43585 0.21012 0.59605 0.0
C893 C 0.41397 0.21317 0.56934 0.0
C894 C 0.43309 0.2232 0.56404 0.0
N895 N 0.41585 0.20494 0.58934 0.0
N896 N 0.44685 0.22124 0.58085 0.0
H897 H 0.44222 0.20558 0.61166 0.0
H898 H 0.39965 0.21214 0.55942 0.0
C899 C 0.37915 0.15514 0.5752 0.0
O900 O 0.37899 0.14195 0.59181 0.0
N901 N 0.37128 0.17467 0.62093 0.0
C902 C 0.3712 0.16472 0.64033 0.0
C903 C 0.35046 0.1582 0.645 0.0
C904 C 0.35051 0.17437 0.61441 0.0
N905 N 0.33744 0.16431 0.62867 0.0
C906 C 0.42344 0.16598 0.63178 0.0
C907 C 0.4458 0.14673 0.59835 0.0
C908 C 0.45432 0.14566 0.61928 0.0
C909 C 0.44234 0.1547 0.6362 0.0
C910 C 0.42648 0.15776 0.59468 0.0
N911 N 0.41549 0.16735 0.61128 0.0
H912 H 0.41638 0.17522 0.64469 0.0
H913 H 0.42168 0.16033 0.57814 0.0
H914 H 0.38477 0.16253 0.65088 0.0
H915 H 0.3452 0.18132 0.5993 0.0
O916 O 0.39929 0.20782 0.62984 0.0
O917 O 0.37578 0.21495 0.60387 0.0
O918 O 0.38476 0.17484 0.57768 0.0
C919 C 0.38511 0.22094 0.62177 0.0
H920 H 0.43638 0.23166 0.54912 0.0
H921 H 0.34534 0.15005 0.65958 0.0
H922 H 0.45474 0.14059 0.58465 0.0
H923 H 0.44816 0.15426 0.65268 0.0
Co924 Co 0.89941 0.60439 0.68387 0.0
C925 C 0.91504 0.5656 0.70635 0.0
C926 C 0.9406 0.58833 0.70063 0.0
C927 C 0.94933 0.57016 0.70992 0.0
N928 N 0.91919 0.5853 0.69823 0.0
N929 N 0.9332 0.55602 0.71349 0.0
H930 H 0.89923 0.55816 0.70636 0.0
H931 H 0.94935 0.60259 0.69566 0.0
C932 C 0.92457 0.61905 0.64555 0.0
O933 O 0.90815 0.61425 0.63303 0.0
N934 N 0.88048 0.62479 0.66956 0.0
C935 C 0.86271 0.62266 0.65709 0.0
C936 C 0.85709 0.64277 0.64921 0.0
C937 C 0.88519 0.646 0.66909 0.0
N938 N 0.87131 0.65739 0.65685 0.0
C939 C 0.8729 0.57179 0.66518 0.0
C940 C 0.9053 0.5507 0.64298 0.0
C941 C 0.88492 0.54093 0.64444 0.0
C942 C 0.86854 0.55199 0.65544 0.0
C943 C 0.909 0.57058 0.65302 0.0
N944 N 0.89283 0.58107 0.66379 0.0
H945 H 0.86047 0.57905 0.67498 0.0
H946 H 0.92531 0.57669 0.65337 0.0
H947 H 0.85461 0.60782 0.65314 0.0
H948 H 0.89942 0.65273 0.67666 0.0
O949 O 0.8777 0.59808 0.70524 0.0
O950 O 0.90186 0.62429 0.70794 0.0
O951 O 0.9238 0.61559 0.66583 0.0
C952 C 0.88576 0.61381 0.71649 0.0
H953 H 0.96615 0.56753 0.71382 0.0
H954 H 0.84382 0.64624 0.63841 0.0
H955 H 0.91854 0.54269 0.63486 0.0
H956 H 0.85276 0.54483 0.65773 0.0
Co957 Co 0.11337 0.88951 0.68453 0.0
C958 C 0.09807 0.93025 0.70521 0.0
C959 C 0.07501 0.90459 0.70742 0.0
C960 C 0.06646 0.92248 0.71737 0.0
N961 N 0.09462 0.90962 0.69934 0.0
N962 N 0.08107 0.93849 0.71597 0.0
H963 H 0.11257 0.93923 0.70199 0.0
H964 H 0.06744 0.88891 0.70611 0.0
C965 C 0.07265 0.89099 0.65854 0.0
O966 O 0.07269 0.91212 0.66033 0.0
N967 N 0.13128 0.86857 0.67041 0.0
C968 C 0.15142 0.87041 0.6624 0.0
C969 C 0.15832 0.85013 0.65609 0.0
C970 C 0.12628 0.84755 0.66908 0.0
N971 N 0.1425 0.83585 0.66061 0.0
C972 C 0.13703 0.92675 0.6713 0.0
C973 C 0.12122 0.93018 0.62981 0.0
C974 C 0.13337 0.94728 0.63841 0.0
C975 C 0.14218 0.9448 0.65904 0.0
C976 C 0.1165 0.91217 0.64277 0.0
N977 N 0.1228 0.91161 0.66394 0.0
H978 H 0.14379 0.92567 0.68728 0.0
H979 H 0.10746 0.89903 0.63581 0.0
H980 H 0.16063 0.88522 0.66177 0.0
H981 H 0.11108 0.84092 0.6746 0.0
O982 O 0.13527 0.89378 0.70614 0.0
O983 O 0.10905 0.86964 0.70842 0.0
O984 O 0.0883 0.87989 0.66612 0.0
C985 C 0.12586 0.8787 0.71719 0.0
H986 H 0.05098 0.92354 0.72538 0.0
H987 H 0.17397 0.84609 0.64946 0.0
H988 H 0.11486 0.93097 0.61355 0.0
H989 H 0.1527 0.95697 0.6659 0.0
Co990 Co 0.8993 0.3925 0.80639 0.0
C991 C 0.90998 0.43367 0.78469 0.0
C992 C 0.93633 0.4114 0.78343 0.0
C993 C 0.94231 0.43001 0.77286 0.0
N994 N 0.91626 0.414 0.79139 0.0
N995 N 0.92567 0.44405 0.77372 0.0
H996 H 0.89394 0.43989 0.7868 0.0
H997 H 0.94594 0.39695 0.78516 0.0
C998 C 0.94065 0.39566 0.8318 0.0
O999 O 0.94045 0.41676 0.82976 0.0
N1000 N 0.88263 0.37073 0.82077 0.0
C1001 C 0.86245 0.37206 0.82875 0.0
C1002 C 0.85641 0.3519 0.83604 0.0
C1003 C 0.88854 0.35003 0.82305 0.0
N1004 N 0.87283 0.33813 0.83223 0.0
C1005 C 0.87285 0.42746 0.82035 0.0
C1006 C 0.89122 0.4337 0.86046 0.0
C1007 C 0.87673 0.44907 0.85244 0.0
C1008 C 0.8668 0.44524 0.83255 0.0
C1009 C 0.89648 0.41573 0.84776 0.0
N1010 N 0.88887 0.41394 0.8271 0.0
H1011 H 0.86523 0.42532 0.80487 0.0
H1012 H 0.90687 0.4036 0.85458 0.0
H1013 H 0.8526 0.38645 0.82878 0.0
H1014 H 0.90401 0.3438 0.81786 0.0
O1015 O 0.87704 0.39526 0.78484 0.0
O1016 O 0.90471 0.37282 0.78268 0.0
O1017 O 0.92504 0.38428 0.82453 0.0
C1018 C 0.88737 0.38071 0.77388 0.0
H1019 H 0.95772 0.43282 0.76518 0.0
H1020 H 0.84095 0.34756 0.84293 0.0
H1021 H 0.89849 0.43564 0.87625 0.0
H1022 H 0.85519 0.45648 0.8259 0.0
Co1023 Co 0.10907 0.1046 0.8039 0.0
C1024 C 0.10184 0.06436 0.77944 0.0
C1025 C 0.08362 0.09064 0.76625 0.0
C1026 C 0.08011 0.07268 0.75366 0.0
N1027 N 0.0968 0.08522 0.78276 0.0
N1028 N 0.09168 0.05631 0.76202 0.0
H1029 H 0.11284 0.05518 0.78934 0.0
H1030 H 0.07697 0.10655 0.7636 0.0
C1031 C 0.06111 0.10279 0.81493 0.0
O1032 O 0.05807 0.08589 0.80255 0.0
N1033 N 0.12124 0.12462 0.82441 0.0
C1034 C 0.13878 0.12326 0.8372 0.0
C1035 C 0.14059 0.14216 0.8488 0.0
C1036 C 0.11285 0.14426 0.82823 0.0
N1037 N 0.12423 0.15537 0.84312 0.0
C1038 C 0.13568 0.07235 0.82319 0.0
C1039 C 0.10314 0.04788 0.84123 0.0
C1040 C 0.12395 0.03902 0.83997 0.0
C1041 C 0.14052 0.05222 0.83194 0.0
C1042 C 0.09914 0.06856 0.83307 0.0
N1043 N 0.11508 0.08016 0.8231 0.0
H1044 H 0.14855 0.0811 0.8154 0.0
H1045 H 0.08289 0.07428 0.8338 0.0
H1046 H 0.14973 0.10982 0.83818 0.0
H1047 H 0.09884 0.15033 0.81979 0.0
O1048 O 0.13548 0.1043 0.78743 0.0
O1049 O 0.10869 0.12728 0.78227 0.0
O1050 O 0.08001 0.11064 0.81766 0.0
C1051 C 0.12742 0.12 0.77615 0.0
H1052 H 0.07027 0.07182 0.73924 0.0
H1053 H 0.153 0.14573 0.86055 0.0
H1054 H 0.08966 0.0386 0.84733 0.0
H1055 H 0.15709 0.04678 0.83145 0.0
Co1056 Co 0.69416 0.88868 0.61879 0.0
C1057 C 0.71712 0.89669 0.57782 0.0
C1058 C 0.71921 0.92377 0.59939 0.0
C1059 C 0.72995 0.92881 0.58061 0.0
N1060 N 0.71099 0.90378 0.59745 0.0
N1061 N 0.72849 0.91182 0.56702 0.0
H1062 H 0.7126 0.88111 0.57135 0.0
H1063 H 0.71741 0.93399 0.61343 0.0
C1064 C 0.65918 0.92155 0.6263 0.0
O1065 O 0.6443 0.90732 0.62127 0.0
N1066 N 0.67806 0.87378 0.64129 0.0
C1067 C 0.6778 0.8524 0.6457 0.0
C1068 C 0.66948 0.84917 0.66604 0.0
C1069 C 0.6708 0.88315 0.65959 0.0
N1070 N 0.66529 0.86857 0.67479 0.0
C1071 C 0.66812 0.86015 0.59312 0.0
C1072 C 0.65794 0.89012 0.56175 0.0
C1073 C 0.65395 0.8682 0.55759 0.0
C1074 C 0.65799 0.8534 0.57424 0.0
C1075 C 0.66727 0.89634 0.58138 0.0
N1076 N 0.67313 0.8813 0.59646 0.0
H1077 H 0.67337 0.84795 0.60414 0.0
H1078 H 0.67159 0.9131 0.58357 0.0
H1079 H 0.68522 0.83997 0.636 0.0
H1080 H 0.6711 0.90034 0.66244 0.0
O1081 O 0.71312 0.86429 0.61562 0.0
O1082 O 0.71801 0.89139 0.63858 0.0
O1083 O 0.67916 0.91653 0.62597 0.0
C1084 C 0.72512 0.87345 0.63026 0.0
H1085 H 0.73815 0.94385 0.57727 0.0
H1086 H 0.66848 0.83389 0.67445 0.0
H1087 H 0.65532 0.90229 0.54951 0.0
H1088 H 0.65457 0.83638 0.57231 0.0
Co1089 Co 0.68081 0.11151 0.89532 0.0
C1090 C 0.69961 0.09673 0.9364 0.0
C1091 C 0.70526 0.07392 0.91092 0.0
C1092 C 0.71487 0.06632 0.92953 0.0
N1093 N 0.69575 0.09297 0.91533 0.0
N1094 N 0.71103 0.08065 0.94543 0.0
H1095 H 0.6946 0.11108 0.94495 0.0
H1096 H 0.70534 0.06623 0.89524 0.0
C1097 C 0.6428 0.08519 0.88059 0.0
O1098 O 0.63073 0.1026 0.88014 0.0
N1099 N 0.66619 0.12995 0.87468 0.0
C1100 C 0.65781 0.1499 0.87705 0.0
C1101 C 0.64967 0.15662 0.85749 0.0
C1102 C 0.66348 0.12512 0.85362 0.0
N1103 N 0.65325 0.14099 0.84279 0.0
C1104 C 0.66386 0.13908 0.92823 0.0
C1105 C 0.63681 0.10899 0.94704 0.0
C1106 C 0.63968 0.12898 0.95706 0.0
C1107 C 0.65322 0.14421 0.94739 0.0
C1108 C 0.64806 0.10435 0.92808 0.0
N1109 N 0.66109 0.11946 0.91856 0.0
H1110 H 0.67532 0.15054 0.92189 0.0
H1111 H 0.64741 0.08802 0.92222 0.0
H1112 H 0.6576 0.1593 0.89165 0.0
H1113 H 0.66845 0.10994 0.84656 0.0
O1114 O 0.70281 0.13321 0.89953 0.0
O1115 O 0.7038 0.10752 0.87464 0.0
O1116 O 0.66255 0.08625 0.88637 0.0
C1117 C 0.71314 0.12394 0.88378 0.0
H1118 H 0.72382 0.05144 0.93133 0.0
H1119 H 0.64193 0.17194 0.85432 0.0
H1120 H 0.62705 0.09656 0.95454 0.0
H1121 H 0.6561 0.15972 0.95494 0.0
Co1122 Co 0.31644 0.38687 0.89563 0.0
C1123 C 0.29252 0.39695 0.93623 0.0
C1124 C 0.28951 0.42205 0.91268 0.0
C1125 C 0.27756 0.42768 0.93059 0.0
N1126 N 0.29928 0.40296 0.9164 0.0
N1127 N 0.27946 0.41179 0.94532 0.0
H1128 H 0.29667 0.38202 0.94397 0.0
H1129 H 0.29085 0.43117 0.89785 0.0
C1130 C 0.33936 0.42911 0.90137 0.0
O1131 O 0.33554 0.42817 0.92221 0.0
N1132 N 0.33286 0.37094 0.87463 0.0
C1133 C 0.34069 0.35077 0.87663 0.0
C1134 C 0.34979 0.34476 0.85726 0.0
C1135 C 0.33703 0.37687 0.85413 0.0
N1136 N 0.34737 0.36114 0.84312 0.0
C1137 C 0.32949 0.361 0.93148 0.0
C1138 C 0.36997 0.37868 0.93738 0.0
C1139 C 0.36188 0.36425 0.95281 0.0
C1140 C 0.34177 0.35468 0.94914 0.0
C1141 C 0.35702 0.38457 0.9198 0.0
N1142 N 0.33632 0.37708 0.91806 0.0
H1143 H 0.31403 0.35337 0.92912 0.0
H1144 H 0.36376 0.39519 0.90779 0.0
H1145 H 0.33935 0.34088 0.89093 0.0
H1146 H 0.33236 0.39229 0.84741 0.0
O1147 O 0.29567 0.36373 0.89683 0.0
O1148 O 0.29398 0.39159 0.8745 0.0
O1149 O 0.33396 0.41347 0.88901 0.0
C1150 C 0.28532 0.37386 0.88166 0.0
H1151 H 0.26782 0.44206 0.93241 0.0
H1152 H 0.35697 0.32926 0.85366 0.0
H1153 H 0.38584 0.38578 0.93915 0.0
H1154 H 0.3354 0.34257 0.96003 0.0
Co1155 Co 0.8099 0.10745 0.10322 0.0
C1156 C 0.78339 0.09541 0.06555 0.0
C1157 C 0.77533 0.07629 0.0933 0.0
C1158 C 0.76266 0.06966 0.07618 0.0
N1159 N 0.78833 0.09237 0.08651 0.0
N1160 N 0.76803 0.08163 0.05885 0.0
H1161 H 0.79094 0.10729 0.05523 0.0
H1162 H 0.77531 0.06966 0.10945 0.0
C1163 C 0.8419 0.07326 0.11502 0.0
O1164 O 0.85772 0.08724 0.11307 0.0
N1165 N 0.8313 0.12262 0.12054 0.0
C1166 C 0.84518 0.13851 0.115 0.0
C1167 C 0.85663 0.14474 0.13296 0.0
C1168 C 0.83442 0.11969 0.14192 0.0
N1169 N 0.84983 0.13293 0.14988 0.0
C1170 C 0.82857 0.12872 0.06683 0.0
C1171 C 0.84411 0.09215 0.04656 0.0
C1172 C 0.84579 0.11206 0.03611 0.0
C1173 C 0.83802 0.13052 0.04653 0.0
C1174 C 0.8348 0.09111 0.06707 0.0
N1175 N 0.82757 0.10935 0.07725 0.0
H1176 H 0.8213 0.14291 0.07384 0.0
H1177 H 0.83206 0.07535 0.07385 0.0
H1178 H 0.84714 0.14556 0.09929 0.0
H1179 H 0.82575 0.10782 0.15136 0.0
O1180 O 0.79335 0.13369 0.10033 0.0
O1181 O 0.78963 0.10973 0.12664 0.0
O1182 O 0.82244 0.07891 0.11154 0.0
C1183 C 0.78309 0.12746 0.11758 0.0
H1184 H 0.75098 0.05667 0.07623 0.0
H1185 H 0.86875 0.1573 0.13356 0.0
H1186 H 0.84941 0.07745 0.03874 0.0
H1187 H 0.83828 0.1461 0.03862 0.0
Co1188 Co 0.39805 0.30663 0.11221 0.0
C1189 C 0.44053 0.2877 0.09862 0.0
C1190 C 0.41376 0.27571 0.08028 0.0
C1191 C 0.43216 0.26561 0.07313 0.0
N1192 N 0.41894 0.28948 0.09638 0.0
N1193 N 0.44887 0.27334 0.08461 0.0
H1194 H 0.45019 0.29622 0.11027 0.0
H1195 H 0.39763 0.27314 0.07412 0.0
C1196 C 0.40289 0.32766 0.06893 0.0
O1197 O 0.42369 0.32369 0.06944 0.0
N1198 N 0.3765 0.323 0.12723 0.0
C1199 C 0.37664 0.33069 0.14756 0.0
C1200 C 0.35621 0.3383 0.1523 0.0
C1201 C 0.3563 0.32586 0.11995 0.0
N1202 N 0.34345 0.335 0.13492 0.0
C1203 C 0.43356 0.3212 0.13754 0.0
C1204 C 0.43982 0.3606 0.11771 0.0
C1205 C 0.45531 0.35305 0.13239 0.0
C1206 C 0.45141 0.33358 0.14308 0.0
C1207 C 0.42199 0.34759 0.11264 0.0
N1208 N 0.42005 0.32736 0.12125 0.0
H1209 H 0.43166 0.30583 0.14541 0.0
H1210 H 0.41008 0.35378 0.10158 0.0
H1211 H 0.39027 0.32996 0.15844 0.0
H1212 H 0.35104 0.3207 0.10411 0.0
O1213 O 0.40005 0.28705 0.13622 0.0
O1214 O 0.37744 0.28322 0.10885 0.0
O1215 O 0.3909 0.32289 0.08503 0.0
C1216 C 0.38514 0.2757 0.12689 0.0
H1217 H 0.43324 0.25362 0.06047 0.0
H1218 H 0.35095 0.34481 0.16764 0.0
H1219 H 0.44182 0.37601 0.10972 0.0
H1220 H 0.46246 0.32759 0.15523 0.0
Co1221 Co 0.6107 0.18376 0.11934 0.0
C1222 C 0.56969 0.20357 0.10245 0.0
C1223 C 0.59807 0.21545 0.08669 0.0
C1224 C 0.58049 0.22595 0.07818 0.0
N1225 N 0.59138 0.20153 0.10212 0.0
N1226 N 0.56278 0.21826 0.08804 0.0
H1227 H 0.55887 0.19488 0.11286 0.0
H1228 H 0.61468 0.21786 0.08191 0.0
C1229 C 0.60671 0.16226 0.07666 0.0
O1230 O 0.58576 0.16523 0.07788 0.0
N1231 N 0.63059 0.16682 0.13588 0.0
C1232 C 0.62827 0.15892 0.15601 0.0
C1233 C 0.64781 0.15043 0.1625 0.0
C1234 C 0.65126 0.16328 0.13046 0.0
N1235 N 0.66224 0.15343 0.14644 0.0
C1236 C 0.57264 0.17043 0.14158 0.0
C1237 C 0.56934 0.12959 0.12402 0.0
C1238 C 0.55231 0.1376 0.13658 0.0
C1239 C 0.55461 0.1579 0.14619 0.0
C1240 C 0.58721 0.1428 0.11979 0.0
N1241 N 0.58773 0.16364 0.12704 0.0
H1242 H 0.57362 0.18632 0.14862 0.0
H1243 H 0.60035 0.13632 0.11038 0.0
H1244 H 0.61369 0.15996 0.16554 0.0
H1245 H 0.65818 0.16829 0.11521 0.0
O1246 O 0.60783 0.20356 0.14315 0.0
O1247 O 0.63218 0.20632 0.1171 0.0
O1248 O 0.61888 0.16739 0.09251 0.0
C1249 C 0.62365 0.2143 0.13454 0.0
H1250 H 0.58064 0.23815 0.06567 0.0
H1251 H 0.65132 0.14339 0.1781 0.0
H1252 H 0.56857 0.11361 0.11698 0.0
H1253 H 0.54229 0.1643 0.15682 0.0
Co1254 Co 0.39055 0.69135 0.38735 0.0
C1255 C 0.42706 0.71897 0.3999 0.0
C1256 C 0.40204 0.71888 0.42393 0.0
C1257 C 0.41893 0.73117 0.43146 0.0
N1258 N 0.40738 0.71102 0.40435 0.0
N1259 N 0.43446 0.73119 0.41627 0.0
H1260 H 0.43608 0.71528 0.3854 0.0
H1261 H 0.38704 0.71568 0.43224 0.0
C1262 C 0.37703 0.65775 0.41984 0.0
O1263 O 0.37834 0.64246 0.40521 0.0
N1264 N 0.37266 0.67185 0.37065 0.0
C1265 C 0.37729 0.65867 0.35391 0.0
C1266 C 0.35856 0.64869 0.34722 0.0
C1267 C 0.35123 0.66981 0.37367 0.0
N1268 N 0.34221 0.65582 0.35965 0.0
C1269 C 0.42642 0.67219 0.36572 0.0
C1270 C 0.44581 0.65451 0.40177 0.0
C1271 C 0.45656 0.6534 0.38189 0.0
C1272 C 0.44651 0.66233 0.36372 0.0
C1273 C 0.42562 0.66452 0.40306 0.0
N1274 N 0.41585 0.67277 0.38505 0.0
H1275 H 0.41979 0.68016 0.35175 0.0
H1276 H 0.41868 0.66676 0.41885 0.0
H1277 H 0.39289 0.65623 0.3467 0.0
H1278 H 0.34252 0.6782 0.38628 0.0
O1279 O 0.39534 0.70899 0.36218 0.0
O1280 O 0.36842 0.71329 0.38532 0.0
O1281 O 0.38088 0.67735 0.4149 0.0
C1282 C 0.37865 0.7201 0.36826 0.0
H1283 H 0.41983 0.73936 0.44687 0.0
H1284 H 0.35709 0.6373 0.33406 0.0
H1285 H 0.45316 0.64822 0.41633 0.0
H1286 H 0.45454 0.66267 0.34819 0.0
Co1287 Co 0.60228 0.803 0.41046 0.0
C1288 C 0.56447 0.77807 0.42252 0.0
C1289 C 0.58453 0.78363 0.45018 0.0
C1290 C 0.56581 0.77363 0.45687 0.0
N1291 N 0.58341 0.78653 0.42868 0.0
N1292 N 0.55313 0.77034 0.43942 0.0
H1293 H 0.55896 0.77831 0.40597 0.0
H1294 H 0.59755 0.7892 0.4604 0.0
C1295 C 0.61398 0.84108 0.43774 0.0
O1296 O 0.60996 0.85386 0.4213 0.0
N1297 N 0.62189 0.81936 0.39244 0.0
C1298 C 0.61941 0.82829 0.37271 0.0
C1299 C 0.63898 0.83652 0.36606 0.0
C1300 C 0.64288 0.82209 0.3973 0.0
N1301 N 0.65371 0.83246 0.38153 0.0
C1302 C 0.56864 0.81997 0.38392 0.0
C1303 C 0.54666 0.84152 0.41618 0.0
C1304 C 0.53741 0.84028 0.39558 0.0
C1305 C 0.54877 0.82942 0.37933 0.0
C1306 C 0.56669 0.83187 0.42008 0.0
N1307 N 0.57779 0.82169 0.40389 0.0
H1308 H 0.57594 0.81007 0.37163 0.0
H1309 H 0.57247 0.83144 0.43649 0.0
H1310 H 0.60486 0.82861 0.36328 0.0
H1311 H 0.65004 0.8165 0.41222 0.0
O1312 O 0.59848 0.78211 0.38771 0.0
O1313 O 0.62381 0.78047 0.41288 0.0
O1314 O 0.61128 0.82073 0.43608 0.0
C1315 C 0.61467 0.77176 0.39606 0.0
H1316 H 0.56152 0.77003 0.47342 0.0
H1317 H 0.6422 0.84433 0.35078 0.0
H1318 H 0.53825 0.84935 0.42935 0.0
H1319 H 0.54185 0.82717 0.36343 0.0
Co1320 Co 0.11362 0.39812 0.31453 0.0
C1321 C 0.10074 0.43786 0.29226 0.0
C1322 C 0.07611 0.4136 0.29002 0.0
C1323 C 0.06917 0.43179 0.27927 0.0
N1324 N 0.09583 0.41757 0.29816 0.0
N1325 N 0.0847 0.44704 0.28073 0.0
H1326 H 0.1157 0.44575 0.29657 0.0
H1327 H 0.06748 0.39852 0.29163 0.0
C1328 C 0.08418 0.38317 0.34993 0.0
O1329 O 0.09986 0.3862 0.36389 0.0
N1330 N 0.13134 0.37799 0.33076 0.0
C1331 C 0.15051 0.38092 0.34076 0.0
C1332 C 0.15705 0.36166 0.34962 0.0
C1333 C 0.12684 0.35684 0.33332 0.0
N1334 N 0.14217 0.34656 0.34489 0.0
C1335 C 0.13834 0.43116 0.33488 0.0
C1336 C 0.10547 0.44945 0.35881 0.0
C1337 C 0.12585 0.45916 0.3588 0.0
C1338 C 0.14239 0.44977 0.34673 0.0
C1339 C 0.10201 0.43085 0.34642 0.0
N1340 N 0.11859 0.42138 0.33525 0.0
H1341 H 0.15101 0.42531 0.32452 0.0
H1342 H 0.08572 0.42495 0.3449 0.0
H1343 H 0.15963 0.39564 0.34153 0.0
H1344 H 0.11241 0.34924 0.32706 0.0
O1345 O 0.1374 0.40391 0.2953 0.0
O1346 O 0.11322 0.37809 0.29038 0.0
O1347 O 0.08701 0.38741 0.32995 0.0
C1348 C 0.13017 0.38833 0.2833 0.0
H1349 H 0.05403 0.43344 0.27073 0.0
H1350 H 0.17184 0.35891 0.35849 0.0
H1351 H 0.09209 0.45684 0.36729 0.0
H1352 H 0.1582 0.45719 0.34588 0.0
Co1353 Co 0.89402 0.10871 0.30418 0.0
C1354 C 0.9086 0.06759 0.28275 0.0
C1355 C 0.9275 0.09527 0.27426 0.0
C1356 C 0.93582 0.07769 0.26369 0.0
N1357 N 0.91049 0.08898 0.28633 0.0
N1358 N 0.92394 0.06031 0.26908 0.0
H1359 H 0.8967 0.05733 0.29011 0.0
H1360 H 0.93359 0.1116 0.27338 0.0
C1361 C 0.93721 0.10458 0.32526 0.0
O1362 O 0.93681 0.08379 0.32116 0.0
N1363 N 0.87864 0.1295 0.32123 0.0
C1364 C 0.85891 0.1285 0.33031 0.0
C1365 C 0.85396 0.14871 0.33849 0.0
C1366 C 0.88533 0.14993 0.32384 0.0
N1367 N 0.87058 0.16213 0.33413 0.0
C1368 C 0.87105 0.07157 0.31841 0.0
C1369 C 0.89019 0.06692 0.3584 0.0
C1370 C 0.87593 0.05095 0.35105 0.0
C1371 C 0.86586 0.05384 0.33107 0.0
C1372 C 0.89468 0.08479 0.34522 0.0
N1373 N 0.88638 0.08606 0.32478 0.0
H1374 H 0.86349 0.07281 0.3028 0.0
H1375 H 0.90491 0.09738 0.35152 0.0
H1376 H 0.8486 0.11441 0.3303 0.0
H1377 H 0.90062 0.15583 0.31778 0.0
O1378 O 0.86958 0.10586 0.28528 0.0
O1379 O 0.89587 0.1296 0.28074 0.0
O1380 O 0.92122 0.11656 0.32013 0.0
C1381 C 0.87793 0.12115 0.27373 0.0
H1382 H 0.94938 0.07778 0.25268 0.0
H1383 H 0.83899 0.15335 0.34619 0.0
H1384 H 0.89769 0.06563 0.37414 0.0
H1385 H 0.85463 0.042 0.32478 0.0
Co1386 Co 0.09547 0.60539 0.18833 0.0
C1387 C 0.08175 0.5693 0.21535 0.0
C1388 C 0.05628 0.59252 0.21226 0.0
C1389 C 0.04908 0.5757 0.22498 0.0
N1390 N 0.0767 0.5883 0.20621 0.0
N1391 N 0.06519 0.56113 0.22689 0.0
H1392 H 0.09716 0.56146 0.21314 0.0
H1393 H 0.04729 0.60677 0.20774 0.0
C1394 C 0.06899 0.61654 0.1496 0.0
O1395 O 0.08616 0.6143 0.13736 0.0
N1396 N 0.11441 0.62308 0.17061 0.0
C1397 C 0.13195 0.61789 0.15871 0.0
C1398 C 0.14014 0.63635 0.14945 0.0
C1399 C 0.11234 0.64462 0.16841 0.0
N1400 N 0.12783 0.65312 0.15567 0.0
C1401 C 0.12081 0.56981 0.17421 0.0
C1402 C 0.08847 0.54831 0.15224 0.0
C1403 C 0.10872 0.53854 0.15437 0.0
C1404 C 0.12498 0.54957 0.16552 0.0
C1405 C 0.08499 0.56873 0.16115 0.0
N1406 N 0.10127 0.57955 0.17147 0.0
H1407 H 0.13328 0.57745 0.18368 0.0
H1408 H 0.06882 0.57513 0.16078 0.0
H1409 H 0.13862 0.60206 0.15645 0.0
H1410 H 0.09941 0.65381 0.17568 0.0
O1411 O 0.11785 0.60239 0.20959 0.0
O1412 O 0.09359 0.62867 0.20915 0.0
O1413 O 0.07013 0.61349 0.16994 0.0
C1414 C 0.10989 0.61951 0.21869 0.0
H1415 H 0.0333 0.57441 0.23234 0.0
H1416 H 0.15418 0.63735 0.1391 0.0
H1417 H 0.07531 0.54008 0.14418 0.0
H1418 H 0.14061 0.54228 0.1683 0.0
Co1419 Co 0.89315 0.89199 0.18945 0.0
C1420 C 0.9031 0.93086 0.2139 0.0
C1421 C 0.93079 0.91012 0.21223 0.0
C1422 C 0.93615 0.92819 0.22408 0.0
N1423 N 0.91012 0.91204 0.20584 0.0
N1424 N 0.91863 0.94108 0.22513 0.0
H1425 H 0.88699 0.93705 0.21132 0.0
H1426 H 0.94113 0.89653 0.20869 0.0
C1427 C 0.92181 0.87837 0.15327 0.0
O1428 O 0.90503 0.87864 0.14032 0.0
N1429 N 0.87626 0.87115 0.17341 0.0
C1430 C 0.85781 0.87306 0.16198 0.0
C1431 C 0.85236 0.85307 0.15381 0.0
C1432 C 0.88149 0.85011 0.17227 0.0
N1433 N 0.8673 0.83869 0.16037 0.0
C1434 C 0.86717 0.92462 0.16984 0.0
C1435 C 0.90058 0.94557 0.149 0.0
C1436 C 0.88035 0.95557 0.14997 0.0
C1437 C 0.8634 0.94458 0.16018 0.0
C1438 C 0.90373 0.92574 0.15911 0.0
N1439 N 0.8871 0.91528 0.16923 0.0
H1440 H 0.85434 0.91747 0.1792 0.0
H1441 H 0.92006 0.91991 0.16025 0.0
H1442 H 0.84875 0.88765 0.15948 0.0
H1443 H 0.8959 0.84347 0.17957 0.0
O1444 O 0.86953 0.89642 0.20916 0.0
O1445 O 0.89506 0.87172 0.21315 0.0
O1446 O 0.91977 0.88312 0.17323 0.0
C1447 C 0.87797 0.88122 0.22084 0.0
H1448 H 0.95159 0.93144 0.23159 0.0
H1449 H 0.83842 0.84942 0.14394 0.0
H1450 H 0.91421 0.95347 0.14143 0.0
H1451 H 0.84766 0.95193 0.16202 0.0
Co1452 Co 0.31282 0.11115 0.39148 0.0
C1453 C 0.29144 0.1029 0.43314 0.0
C1454 C 0.28895 0.07579 0.41167 0.0
C1455 C 0.27852 0.07078 0.43062 0.0
N1456 N 0.2971 0.09583 0.4134 0.0
N1457 N 0.28014 0.08783 0.4441 0.0
H1458 H 0.29574 0.11864 0.43937 0.0
H1459 H 0.29028 0.06564 0.39752 0.0
C1460 C 0.34695 0.07895 0.37957 0.0
O1461 O 0.36197 0.09357 0.38274 0.0
N1462 N 0.32805 0.12598 0.36843 0.0
C1463 C 0.33267 0.14713 0.3658 0.0
C1464 C 0.33903 0.1506 0.34474 0.0
C1465 C 0.33096 0.11721 0.34872 0.0
N1466 N 0.33774 0.13174 0.33402 0.0
C1467 C 0.33713 0.13906 0.41897 0.0
C1468 C 0.35469 0.10718 0.44464 0.0
C1469 C 0.35684 0.12879 0.45103 0.0
C1470 C 0.34833 0.1448 0.43759 0.0
C1471 C 0.34349 0.10212 0.42566 0.0
N1472 N 0.33483 0.11799 0.41298 0.0
H1473 H 0.32854 0.15158 0.41068 0.0
H1474 H 0.34037 0.08534 0.42215 0.0
H1475 H 0.32991 0.15974 0.37741 0.0
H1476 H 0.32702 0.10065 0.34494 0.0
O1477 O 0.29453 0.13585 0.39583 0.0
O1478 O 0.28782 0.10923 0.37286 0.0
O1479 O 0.32709 0.08329 0.38281 0.0
C1480 C 0.28168 0.12734 0.38159 0.0
H1481 H 0.27 0.05591 0.43398 0.0
H1482 H 0.34278 0.16606 0.33755 0.0
H1483 H 0.36075 0.09424 0.4547 0.0
H1484 H 0.34878 0.16164 0.44228 0.0
Co1485 Co 0.30255 0.88566 0.10495 0.0
C1486 C 0.27606 0.88981 0.06507 0.0
C1487 C 0.27035 0.91517 0.08803 0.0
C1488 C 0.25805 0.91907 0.07004 0.0
N1489 N 0.28177 0.897 0.08481 0.0
N1490 N 0.26179 0.90325 0.05555 0.0
H1491 H 0.28284 0.87559 0.05754 0.0
H1492 H 0.27119 0.92506 0.10239 0.0
C1493 C 0.33361 0.92234 0.10977 0.0
O1494 O 0.34986 0.90887 0.10797 0.0
N1495 N 0.32307 0.87524 0.1264 0.0
C1496 C 0.34118 0.86319 0.12467 0.0
C1497 C 0.35068 0.86152 0.14473 0.0
C1498 C 0.32218 0.88088 0.14744 0.0
N1499 N 0.3387 0.8727 0.15902 0.0
C1500 C 0.3247 0.85759 0.07623 0.0
C1501 C 0.33478 0.88827 0.04551 0.0
C1502 C 0.33763 0.86635 0.04039 0.0
C1503 C 0.33333 0.85107 0.05653 0.0
C1504 C 0.32679 0.89419 0.06582 0.0
N1505 N 0.32155 0.87888 0.08083 0.0
H1506 H 0.31977 0.84533 0.0876 0.0
H1507 H 0.32292 0.91094 0.0686 0.0
H1508 H 0.34796 0.85676 0.11003 0.0
H1509 H 0.30976 0.89115 0.15409 0.0
O1510 O 0.28687 0.85882 0.10594 0.0
O1511 O 0.28046 0.88703 0.12695 0.0
O1512 O 0.31425 0.91555 0.10845 0.0
C1513 C 0.2751 0.86765 0.12089 0.0
H1514 H 0.24728 0.93263 0.06777 0.0
H1515 H 0.36575 0.85345 0.14827 0.0
H1516 H 0.3373 0.90074 0.03354 0.0
H1517 H 0.33572 0.83399 0.05378 0.0
Co1518 Co 0.68479 0.60988 0.10901 0.0
C1519 C 0.70518 0.59347 0.0682 0.0
C1520 C 0.72319 0.58437 0.09623 0.0
C1521 C 0.73413 0.57726 0.07823 0.0
N1522 N 0.70509 0.59488 0.09 0.0
N1523 N 0.7226 0.5829 0.06076 0.0
H1524 H 0.69279 0.59959 0.05769 0.0
H1525 H 0.7284 0.5821 0.11272 0.0
C1526 C 0.66622 0.56561 0.10287 0.0
O1527 O 0.67203 0.56603 0.08251 0.0
N1528 N 0.66525 0.62457 0.12816 0.0
C1529 C 0.6551 0.64352 0.12505 0.0
C1530 C 0.64446 0.649 0.14383 0.0
C1531 C 0.66088 0.61885 0.14866 0.0
N1532 N 0.64828 0.63352 0.15867 0.0
C1533 C 0.67362 0.63301 0.07095 0.0
C1534 C 0.63597 0.61104 0.06139 0.0
C1535 C 0.64465 0.62526 0.04608 0.0
C1536 C 0.66324 0.63694 0.05146 0.0
C1537 C 0.64681 0.60778 0.08096 0.0
N1538 N 0.66632 0.61739 0.08468 0.0
H1539 H 0.68861 0.64127 0.07401 0.0
H1540 H 0.63966 0.5972 0.09277 0.0
H1541 H 0.65591 0.65303 0.11044 0.0
H1542 H 0.66715 0.60437 0.15615 0.0
O1543 O 0.70338 0.6348 0.10874 0.0
O1544 O 0.7056 0.60802 0.13224 0.0
O1545 O 0.66919 0.58203 0.11499 0.0
C1546 C 0.71338 0.62612 0.12497 0.0
H1547 H 0.74928 0.56859 0.07797 0.0
H1548 H 0.63533 0.66362 0.14661 0.0
H1549 H 0.62111 0.60241 0.05819 0.0
H1550 H 0.6705 0.64817 0.04021 0.0
Co1551 Co 0.17415 0.88876 0.89306 0.0
C1552 C 0.19998 0.90136 0.93084 0.0
C1553 C 0.19918 0.92639 0.90687 0.0
C1554 C 0.21136 0.93343 0.92407 0.0
N1555 N 0.19199 0.90639 0.91128 0.0
N1556 N 0.21179 0.91768 0.93913 0.0
H1557 H 0.19677 0.88627 0.939 0.0
H1558 H 0.19579 0.9352 0.89219 0.0
C1559 C 0.13689 0.91798 0.88236 0.0
O1560 O 0.1229 0.90255 0.88632 0.0
N1561 N 0.15634 0.87146 0.87395 0.0
C1562 C 0.14455 0.85345 0.87745 0.0
C1563 C 0.1354 0.84699 0.8582 0.0
C1564 C 0.15416 0.87557 0.8527 0.0
N1565 N 0.14161 0.86088 0.84267 0.0
C1566 C 0.15848 0.86195 0.92712 0.0
C1567 C 0.13518 0.89315 0.94882 0.0
C1568 C 0.13687 0.8725 0.9578 0.0
C1569 C 0.14873 0.85682 0.94674 0.0
C1570 C 0.14555 0.89773 0.92928 0.0
N1571 N 0.15638 0.882 0.9182 0.0
H1572 H 0.16818 0.84979 0.9193 0.0
H1573 H 0.14568 0.91422 0.92374 0.0
H1574 H 0.1426 0.8452 0.8926 0.0
H1575 H 0.16154 0.88928 0.84479 0.0
O1576 O 0.19503 0.86571 0.89536 0.0
O1577 O 0.19549 0.89135 0.87047 0.0
O1578 O 0.15704 0.91502 0.88517 0.0
C1579 C 0.20467 0.8745 0.8789 0.0
H1580 H 0.21935 0.94892 0.92531 0.0
H1581 H 0.12534 0.83291 0.85577 0.0
H1582 H 0.12674 0.90589 0.95731 0.0
H1583 H 0.15063 0.84073 0.9533 0.0
H1584 H 0.12568 0.31312 0.32275 0.0
H1585 H 0.15944 0.32974 0.38129 0.0
H1586 H 0.1584 0.29208 0.39293 0.0
H1587 H 0.14545 0.25484 0.38762 0.0
H1588 H 0.11095 0.23872 0.32927 0.0
H1589 H 0.11484 0.27565 0.31637 0.0
C1590 C 0.13275 0.30849 0.33807 0.0
C1591 C 0.14242 0.32421 0.35122 0.0
C1592 C 0.132 0.28686 0.34468 0.0
C1593 C 0.15197 0.31791 0.37082 0.0
C1594 C 0.15131 0.2964 0.37753 0.0
C1595 C 0.13915 0.25935 0.37192 0.0
C1596 C 0.12786 0.24411 0.35947 0.0
C1597 C 0.14111 0.28077 0.36472 0.0
C1598 C 0.11965 0.25019 0.33921 0.0
C1599 C 0.12178 0.27133 0.33183 0.0
H1600 H 0.85275 0.18452 0.3671 0.0
H1601 H 0.89193 0.19138 0.30992 0.0
H1602 H 0.89805 0.22924 0.31817 0.0
H1603 H 0.89437 0.25981 0.34269 0.0
H1604 H 0.85513 0.2538 0.3999 0.0
H1605 H 0.84659 0.21642 0.39037 0.0
C1606 C 0.86236 0.19441 0.35633 0.0
C1607 C 0.87223 0.18498 0.33818 0.0
C1608 C 0.86584 0.21633 0.36117 0.0
C1609 C 0.88465 0.19802 0.32434 0.0
C1610 C 0.88805 0.21975 0.32895 0.0
C1611 C 0.88378 0.2504 0.35299 0.0
C1612 C 0.87556 0.25949 0.37204 0.0
C1613 C 0.87911 0.22896 0.34753 0.0
C1614 C 0.86171 0.24715 0.38512 0.0
C1615 C 0.85688 0.22575 0.37973 0.0
H1616 H 0.11658 0.68769 0.1792 0.0
H1617 H 0.14461 0.66866 0.1184 0.0
H1618 H 0.14601 0.70635 0.10693 0.0
H1619 H 0.13585 0.7443 0.11284 0.0
H1620 H 0.10605 0.76274 0.17304 0.0
H1621 H 0.10884 0.72574 0.18615 0.0
C1622 C 0.12295 0.69179 0.16343 0.0
C1623 C 0.13019 0.67539 0.14957 0.0
C1624 C 0.12339 0.7134 0.15685 0.0
C1625 C 0.13897 0.68099 0.1294 0.0
C1626 C 0.13968 0.70253 0.12279 0.0
C1627 C 0.13041 0.74027 0.12899 0.0
C1628 C 0.12069 0.75614 0.14193 0.0
C1629 C 0.13152 0.71883 0.13621 0.0
C1630 C 0.11351 0.75073 0.16275 0.0
C1631 C 0.11502 0.72958 0.17023 0.0
H1632 H 0.88899 0.74107 0.14726 0.0
H1633 H 0.85375 0.75175 0.08816 0.0
H1634 H 0.84612 0.78889 0.09925 0.0
H1635 H 0.85158 0.8189 0.1248 0.0
H1636 H 0.88635 0.80748 0.18409 0.0
H1637 H 0.89214 0.77003 0.17378 0.0
C1638 C 0.87954 0.75148 0.13684 0.0
C1639 C 0.87211 0.74379 0.11686 0.0
C1640 C 0.87527 0.77271 0.14329 0.0
C1641 C 0.85969 0.75736 0.10363 0.0
C1642 C 0.85537 0.77859 0.10993 0.0
C1643 C 0.86011 0.80814 0.13562 0.0
C1644 C 0.86879 0.81612 0.15505 0.0
C1645 C 0.86335 0.78653 0.12961 0.0
C1646 C 0.87993 0.80194 0.16881 0.0
C1647 C 0.88316 0.78047 0.16299 0.0
H1648 H 0.34468 0.10078 0.238 0.0
H1649 H 0.39218 0.15168 0.23616 0.0
H1650 H 0.38362 0.16132 0.27346 0.0
H1651 H 0.36458 0.15338 0.30748 0.0
H1652 H 0.31758 0.10201 0.30907 0.0
H1653 H 0.32419 0.09433 0.27112 0.0
C1654 C 0.35294 0.1142 0.24564 0.0
C1655 C 0.36907 0.12546 0.23436 0.0
C1656 C 0.34827 0.11935 0.26719 0.0
C1657 C 0.3797 0.14273 0.24452 0.0
C1658 C 0.37488 0.1482 0.26588 0.0
C1659 C 0.35561 0.1407 0.29944 0.0
C1660 C 0.34085 0.12812 0.31124 0.0
C1661 C 0.35951 0.13633 0.27751 0.0
C1662 C 0.32943 0.11162 0.30059 0.0
C1663 C 0.33306 0.10732 0.27879 0.0
H1664 H 0.61363 0.35279 0.24706 0.0
H1665 H 0.67441 0.38177 0.2293 0.0
H1666 H 0.68761 0.37737 0.26619 0.0
H1667 H 0.68053 0.36861 0.30408 0.0
H1668 H 0.61881 0.34201 0.32234 0.0
H1669 H 0.60747 0.3418 0.28466 0.0
C1670 C 0.62993 0.35768 0.25118 0.0
C1671 C 0.64303 0.36762 0.23557 0.0
C1672 C 0.63715 0.35575 0.27257 0.0
C1673 C 0.66403 0.37412 0.24112 0.0
C1674 C 0.67154 0.3717 0.26221 0.0
C1675 C 0.66459 0.3628 0.29984 0.0
C1676 C 0.65048 0.3556 0.31609 0.0
C1677 C 0.65799 0.36317 0.27819 0.0
C1678 C 0.63007 0.34757 0.31021 0.0
C1679 C 0.6235 0.34755 0.28865 0.0
H1680 H 0.35257 0.9033 0.25461 0.0
H1681 H 0.39007 0.84474 0.2568 0.0
H1682 H 0.37994 0.83661 0.21949 0.0
H1683 H 0.36177 0.84709 0.18573 0.0
H1684 H 0.32592 0.90673 0.18342 0.0
H1685 H 0.33388 0.91333 0.22129 0.0
C1686 C 0.3583 0.8886 0.24704 0.0
C1687 C 0.37202 0.87462 0.25846 0.0
C1688 C 0.3528 0.88428 0.22548 0.0
C1689 C 0.37947 0.85576 0.24834 0.0
C1690 C 0.37375 0.85114 0.22699 0.0
C1691 C 0.35579 0.86158 0.19346 0.0
C1692 C 0.34322 0.87633 0.18161 0.0
C1693 C 0.36071 0.86548 0.21528 0.0
C1694 C 0.33534 0.89488 0.19208 0.0
C1695 C 0.34 0.89877 0.21378 0.0
H1696 H 0.60406 0.6356 0.24986 0.0
H1697 H 0.66195 0.60068 0.26651 0.0
H1698 H 0.67531 0.60474 0.22968 0.0
H1699 H 0.66964 0.61629 0.1923 0.0
H1700 H 0.61154 0.65042 0.17514 0.0
H1701 H 0.59925 0.64879 0.21264 0.0
C1702 C 0.61974 0.62917 0.2455 0.0
C1703 C 0.63197 0.6178 0.26088 0.0
C1704 C 0.6272 0.63125 0.22416 0.0
C1705 C 0.6522 0.60947 0.25497 0.0
C1706 C 0.65983 0.6117 0.23388 0.0
C1707 C 0.65423 0.62325 0.19673 0.0
C1708 C 0.6414 0.63323 0.1809 0.0
C1709 C 0.64726 0.62216 0.21826 0.0
C1710 C 0.62173 0.64269 0.18703 0.0
C1711 C 0.61467 0.6417 0.20846 0.0
H1712 H 0.24626 0.34524 0.1095 0.0
H1713 H 0.25062 0.39722 0.15565 0.0
H1714 H 0.28779 0.38707 0.16398 0.0
H1715 H 0.32006 0.36531 0.15576 0.0
H1716 H 0.31516 0.31333 0.10963 0.0
H1717 H 0.27735 0.32174 0.10359 0.0
C1718 C 0.25524 0.35418 0.12159 0.0
C1719 C 0.24575 0.37203 0.13182 0.0
C1720 C 0.27666 0.34846 0.12608 0.0
C1721 C 0.25757 0.38341 0.14751 0.0
C1722 C 0.27887 0.37768 0.15222 0.0
C1723 C 0.31064 0.35565 0.14463 0.0
C1724 C 0.32063 0.33901 0.13287 0.0
C1725 C 0.28874 0.36053 0.14124 0.0
C1726 C 0.30814 0.32665 0.11846 0.0
C1727 C 0.28641 0.33132 0.1151 0.0
H1728 H 0.25093 0.61227 0.35853 0.0
H1729 H 0.23349 0.67397 0.38568 0.0
H1730 H 0.27033 0.68694 0.38064 0.0
H1731 H 0.30798 0.67979 0.37125 0.0
H1732 H 0.32606 0.61757 0.34588 0.0
H1733 H 0.28842 0.60587 0.34711 0.0
C1734 C 0.25513 0.62867 0.36298 0.0
C1735 C 0.23957 0.64212 0.37254 0.0
C1736 C 0.27648 0.63586 0.36051 0.0
C1737 C 0.24523 0.66329 0.37837 0.0
C1738 C 0.2663 0.67069 0.37555 0.0
C1739 C 0.30372 0.66365 0.36605 0.0
C1740 C 0.31986 0.64949 0.35876 0.0
C1741 C 0.28215 0.65693 0.36716 0.0
C1742 C 0.31396 0.62882 0.35151 0.0
C1743 C 0.29245 0.62207 0.35232 0.0
H1744 H 0.75207 0.84837 0.39728 0.0
H1745 H 0.73918 0.90272 0.35572 0.0
H1746 H 0.70212 0.89019 0.35052 0.0
H1747 H 0.6726 0.86558 0.36053 0.0
H1748 H 0.68583 0.81145 0.40228 0.0
H1749 H 0.72352 0.82227 0.40484 0.0
C1750 C 0.74124 0.85735 0.38687 0.0
C1751 C 0.74827 0.87652 0.37704 0.0
C1752 C 0.71994 0.85027 0.38425 0.0
C1753 C 0.73412 0.88791 0.3635 0.0
C1754 C 0.7129 0.88082 0.3606 0.0
C1755 C 0.6838 0.85596 0.3699 0.0
C1756 C 0.67629 0.83793 0.38147 0.0
C1757 C 0.70551 0.86228 0.3713 0.0
C1758 C 0.69102 0.82571 0.39365 0.0
C1759 C 0.71263 0.83179 0.39501 0.0
H1760 H 0.19501 0.67546 0.62034 0.0
H1761 H 0.1749 0.61332 0.64468 0.0
H1762 H 0.2123 0.60176 0.64671 0.0
H1763 H 0.25044 0.60789 0.63834 0.0
H1764 H 0.27038 0.66868 0.61097 0.0
H1765 H 0.23339 0.68219 0.61344 0.0
C1766 C 0.19873 0.65935 0.62598 0.0
C1767 C 0.18198 0.64529 0.63216 0.0
C1768 C 0.22032 0.65255 0.62662 0.0
C1769 C 0.18731 0.62464 0.63995 0.0
C1770 C 0.20877 0.61792 0.64103 0.0
C1771 C 0.24676 0.62427 0.6334 0.0
C1772 C 0.26305 0.63732 0.62457 0.0
C1773 C 0.22536 0.63159 0.63406 0.0
C1774 C 0.25805 0.65838 0.61787 0.0
C1775 C 0.2369 0.66605 0.61915 0.0
H1776 H 0.89617 0.75447 0.64438 0.0
H1777 H 0.86348 0.74439 0.58375 0.0
H1778 H 0.85432 0.7075 0.59455 0.0
H1779 H 0.85764 0.67743 0.62047 0.0
H1780 H 0.88931 0.68849 0.68155 0.0
H1781 H 0.89681 0.72564 0.67131 0.0
C1782 C 0.88697 0.74422 0.63356 0.0
C1783 C 0.8807 0.75203 0.61323 0.0
C1784 C 0.88166 0.72317 0.63992 0.0
C1785 C 0.86853 0.7387 0.59949 0.0
C1786 C 0.86333 0.7176 0.60564 0.0
C1787 C 0.86584 0.68806 0.63169 0.0
C1788 C 0.87321 0.67999 0.65161 0.0
C1789 C 0.87004 0.70956 0.62573 0.0
C1790 C 0.88391 0.69405 0.6659 0.0
C1791 C 0.88814 0.71537 0.66011 0.0
H1792 H 0.12182 0.7377 0.65527 0.0
H1793 H 0.15867 0.74374 0.5965 0.0
H1794 H 0.16794 0.78096 0.60587 0.0
H1795 H 0.16143 0.8132 0.62859 0.0
H1796 H 0.12374 0.80668 0.68675 0.0
H1797 H 0.11894 0.7683 0.67983 0.0
C1798 C 0.1322 0.74703 0.64468 0.0
C1799 C 0.13932 0.7381 0.62511 0.0
C1800 C 0.13704 0.76847 0.64992 0.0
C1801 C 0.15292 0.75029 0.61165 0.0
C1802 C 0.15811 0.77163 0.61693 0.0
C1803 C 0.15255 0.80323 0.6399 0.0
C1804 C 0.14255 0.81281 0.65788 0.0
C1805 C 0.14964 0.78112 0.63568 0.0
C1806 C 0.13109 0.79976 0.67249 0.0
C1807 C 0.12842 0.7778 0.66861 0.0
H1808 H 0.85382 0.31696 0.8651 0.0
H1809 H 0.89329 0.30806 0.80844 0.0
H1810 H 0.89722 0.26984 0.81677 0.0
H1811 H 0.89163 0.23969 0.84134 0.0
H1812 H 0.85309 0.24819 0.89874 0.0
H1813 H 0.84617 0.28576 0.8887 0.0
C1814 C 0.86299 0.30654 0.85446 0.0
C1815 C 0.87349 0.31533 0.83637 0.0
C1816 C 0.86535 0.28457 0.85947 0.0
C1817 C 0.88545 0.30173 0.82272 0.0
C1818 C 0.88761 0.27987 0.8274 0.0
C1819 C 0.8815 0.24966 0.85155 0.0
C1820 C 0.87301 0.24126 0.87081 0.0
C1821 C 0.87799 0.27123 0.84594 0.0
C1822 C 0.85986 0.25435 0.88383 0.0
C1823 C 0.85597 0.27583 0.87815 0.0
H1824 H 0.1519 0.18222 0.86387 0.0
H1825 H 0.08652 0.17756 0.83993 0.0
H1826 H 0.07971 0.21452 0.85078 0.0
H1827 H 0.09207 0.24832 0.86699 0.0
H1828 H 0.15621 0.25246 0.89365 0.0
H1829 H 0.16364 0.2154 0.88206 0.0
C1830 C 0.13608 0.1891 0.8612 0.0
C1831 C 0.11993 0.17699 0.8507 0.0
C1832 C 0.13202 0.21034 0.86796 0.0
C1833 C 0.09955 0.18647 0.84739 0.0
C1834 C 0.09551 0.20765 0.85375 0.0
C1835 C 0.10772 0.24111 0.87014 0.0
C1836 C 0.12367 0.25304 0.8809 0.0
C1837 C 0.11166 0.21976 0.86389 0.0
C1838 C 0.14372 0.24349 0.88532 0.0
C1839 C 0.14795 0.22236 0.87869 0.0
H1840 H 0.64755 0.90141 0.76866 0.0
H1841 H 0.6073 0.8446 0.76976 0.0
H1842 H 0.61926 0.83522 0.73325 0.0
H1843 H 0.63952 0.84456 0.70019 0.0
H1844 H 0.67851 0.90224 0.69924 0.0
H1845 H 0.66844 0.91006 0.73643 0.0
C1846 C 0.64163 0.88679 0.76106 0.0
C1847 C 0.62664 0.87366 0.77189 0.0
C1848 C 0.64808 0.88187 0.73996 0.0
C1849 C 0.6189 0.85493 0.76173 0.0
C1850 C 0.62566 0.84962 0.74084 0.0
C1851 C 0.64591 0.85872 0.70823 0.0
C1852 C 0.65953 0.8729 0.69689 0.0
C1853 C 0.63996 0.86319 0.72966 0.0
C1854 C 0.66762 0.89131 0.70742 0.0
C1855 C 0.66202 0.8957 0.72876 0.0
H1856 H 0.3244 0.62042 0.68936 0.0
H1857 H 0.38533 0.65006 0.67324 0.0
H1858 H 0.39601 0.6492 0.71115 0.0
H1859 H 0.38911 0.63759 0.74855 0.0
H1860 H 0.32899 0.60604 0.76404 0.0
H1861 H 0.31696 0.61004 0.72672 0.0
C1862 C 0.34008 0.62657 0.69406 0.0
C1863 C 0.35409 0.6351 0.67835 0.0
C1864 C 0.34627 0.62569 0.71583 0.0
C1865 C 0.37413 0.64351 0.68493 0.0
C1866 C 0.38032 0.64293 0.70663 0.0
C1867 C 0.37324 0.63193 0.74381 0.0
C1868 C 0.35995 0.62155 0.759 0.0
C1869 C 0.36663 0.63379 0.72218 0.0
C1870 C 0.33952 0.61406 0.75261 0.0
C1871 C 0.33266 0.61627 0.73127 0.0
H1872 H 0.67203 0.11934 0.81009 0.0
H1873 H 0.6192 0.16203 0.82523 0.0
H1874 H 0.60636 0.15969 0.78807 0.0
H1875 H 0.6086 0.1434 0.75197 0.0
H1876 H 0.66071 0.09961 0.7373 0.0
H1877 H 0.67532 0.10447 0.77356 0.0
C1878 C 0.65768 0.12808 0.80529 0.0
C1879 C 0.64652 0.14069 0.82051 0.0
C1880 C 0.65021 0.12642 0.78397 0.0
C1881 C 0.62821 0.15232 0.81385 0.0
C1882 C 0.62077 0.15089 0.79261 0.0
C1883 C 0.62331 0.13514 0.75662 0.0
C1884 C 0.6335 0.1211 0.742 0.0
C1885 C 0.63145 0.13773 0.77762 0.0
C1886 C 0.65251 0.11047 0.74827 0.0
C1887 C 0.66086 0.11318 0.76903 0.0
H1888 H 0.32796 0.38241 0.81054 0.0
H1889 H 0.38122 0.34019 0.82532 0.0
H1890 H 0.39276 0.3411 0.78763 0.0
H1891 H 0.38898 0.35568 0.75096 0.0
H1892 H 0.33625 0.39873 0.73641 0.0
H1893 H 0.32316 0.3956 0.77346 0.0
C1894 C 0.34215 0.37351 0.80553 0.0
C1895 C 0.35382 0.3614 0.82077 0.0
C1896 C 0.34874 0.37419 0.78385 0.0
C1897 C 0.3719 0.34955 0.8139 0.0
C1898 C 0.37854 0.35012 0.79236 0.0
C1899 C 0.37443 0.3641 0.7558 0.0
C1900 C 0.36363 0.37744 0.74096 0.0
C1901 C 0.36721 0.36256 0.77724 0.0
C1902 C 0.34487 0.38835 0.74752 0.0
C1903 C 0.33742 0.38666 0.76874 0.0
H1904 H 0.75299 0.65247 0.8905 0.0
H1905 H 0.74709 0.6009 0.84404 0.0
H1906 H 0.70968 0.61111 0.83706 0.0
H1907 H 0.67777 0.63252 0.84665 0.0
H1908 H 0.68379 0.68403 0.8932 0.0
H1909 H 0.72188 0.67577 0.89784 0.0
C1910 C 0.74364 0.64369 0.87857 0.0
C1911 C 0.75278 0.6259 0.86789 0.0
C1912 C 0.72201 0.64937 0.87494 0.0
C1913 C 0.74042 0.61465 0.85253 0.0
C1914 C 0.71899 0.62041 0.8486 0.0
C1915 C 0.68744 0.64218 0.85756 0.0
C1916 C 0.6777 0.65866 0.86977 0.0
C1917 C 0.70946 0.6374 0.86011 0.0
C1918 C 0.69059 0.67088 0.88396 0.0
C1919 C 0.71249 0.66629 0.88651 0.0
H1920 H 0.74388 0.3924 0.6366 0.0
H1921 H 0.76471 0.3328 0.60724 0.0
H1922 H 0.72855 0.3178 0.61125 0.0
H1923 H 0.69038 0.32267 0.62019 0.0
H1924 H 0.66895 0.38255 0.64833 0.0
H1925 H 0.70594 0.39628 0.64798 0.0
C1926 C 0.74058 0.37598 0.6315 0.0
C1927 C 0.7569 0.36376 0.62155 0.0
C1928 C 0.71958 0.36759 0.63341 0.0
C1929 C 0.75238 0.34257 0.61486 0.0
C1930 C 0.73169 0.334 0.61706 0.0
C1931 C 0.69381 0.33873 0.62622 0.0
C1932 C 0.6769 0.35165 0.63402 0.0
C1933 C 0.71504 0.34657 0.62576 0.0
C1934 C 0.68168 0.37224 0.64229 0.0
C1935 C 0.70282 0.38014 0.642 0.0
H1936 H 0.31378 0.1332 0.64819 0.0
H1937 H 0.30907 0.18736 0.60462 0.0
H1938 H 0.27095 0.17978 0.59899 0.0
H1939 H 0.23947 0.15665 0.60472 0.0
H1940 H 0.24378 0.10257 0.64837 0.0
H1941 H 0.2814 0.11168 0.65618 0.0
C1942 C 0.3044 0.14358 0.63773 0.0
C1943 C 0.31451 0.16066 0.62663 0.0
C1944 C 0.28236 0.1392 0.63463 0.0
C1945 C 0.30197 0.17379 0.61299 0.0
C1946 C 0.28007 0.16958 0.60988 0.0
C1947 C 0.24854 0.147 0.61617 0.0
C1948 C 0.23888 0.12889 0.62586 0.0
C1949 C 0.27019 0.15213 0.62033 0.0
C1950 C 0.25083 0.11661 0.6407 0.0
C1951 C 0.27238 0.12174 0.64508 0.0
H1952 H 0.74587 0.3482 0.39386 0.0
H1953 H 0.74357 0.38962 0.33796 0.0
H1954 H 0.78164 0.38172 0.33039 0.0
H1955 H 0.8162 0.36433 0.34108 0.0
H1956 H 0.81765 0.32435 0.39805 0.0
H1957 H 0.77937 0.3306 0.40393 0.0
C1958 C 0.75356 0.35534 0.37984 0.0
C1959 C 0.74188 0.36942 0.36644 0.0
C1960 C 0.77543 0.35122 0.37599 0.0
C1961 C 0.7522 0.37866 0.34848 0.0
C1962 C 0.77398 0.37422 0.34422 0.0
C1963 C 0.80802 0.35699 0.35469 0.0
C1964 C 0.81984 0.34418 0.36928 0.0
C1965 C 0.78586 0.36076 0.35808 0.0
C1966 C 0.80911 0.3347 0.38689 0.0
C1967 C 0.78714 0.3381 0.39016 0.0
H1968 H 0.63094 0.75354 0.89627 0.0
H1969 H 0.59825 0.73781 0.83679 0.0
H1970 H 0.60068 0.77547 0.82527 0.0
H1971 H 0.61016 0.81307 0.83315 0.0
H1972 H 0.64071 0.82891 0.89377 0.0
H1973 H 0.64125 0.7909 0.90369 0.0
C1974 C 0.62466 0.75828 0.88062 0.0
C1975 C 0.61446 0.74296 0.86737 0.0
C1976 C 0.62555 0.77999 0.87441 0.0
C1977 C 0.60619 0.74935 0.84726 0.0
C1978 C 0.60748 0.77087 0.84072 0.0
C1979 C 0.61678 0.80827 0.84861 0.0
C1980 C 0.62525 0.82392 0.86273 0.0
C1981 C 0.61671 0.7864 0.85438 0.0
C1982 C 0.63424 0.81726 0.88248 0.0
C1983 C 0.63447 0.79551 0.88823 0.0
H1984 H 0.37122 0.68937 0.8223 0.0
H1985 H 0.33444 0.67162 0.87863 0.0
H1986 H 0.3345 0.70918 0.89083 0.0
H1987 H 0.34734 0.74661 0.88669 0.0
H1988 H 0.3847 0.76389 0.83046 0.0
H1989 H 0.38199 0.72704 0.81697 0.0
C1990 C 0.36328 0.69372 0.83728 0.0
C1991 C 0.35307 0.67771 0.84968 0.0
C1992 C 0.36346 0.71528 0.84418 0.0
C1993 C 0.34238 0.68367 0.86878 0.0
C1994 C 0.34248 0.70512 0.87579 0.0
C1995 C 0.35457 0.74239 0.87132 0.0
C1996 C 0.36629 0.75795 0.85966 0.0
C1997 C 0.35323 0.72102 0.86377 0.0
C1998 C 0.37564 0.7522 0.8398 0.0
C1999 C 0.37418 0.7311 0.83209 0.0
H2000 H 0.6538 0.18436 0.635 0.0
H2001 H 0.59484 0.18388 0.67228 0.0
H2002 H 0.58915 0.22166 0.66441 0.0
H2003 H 0.59938 0.25437 0.64544 0.0
H2004 H 0.65668 0.25534 0.60591 0.0
H2005 H 0.66451 0.21794 0.61615 0.0
C2006 C 0.63971 0.19252 0.64136 0.0
C2007 C 0.62496 0.18113 0.65443 0.0
C2008 C 0.63617 0.21439 0.63636 0.0
C2009 C 0.60683 0.19211 0.66264 0.0
C2010 C 0.6034 0.2138 0.65799 0.0
C2011 C 0.61375 0.24654 0.63924 0.0
C2012 C 0.62744 0.25762 0.62497 0.0
C2013 C 0.61782 0.22502 0.64475 0.0
C2014 C 0.6459 0.24715 0.61698 0.0
C2015 C 0.65032 0.22575 0.62275 0.0
H2016 H 0.36272 0.25491 0.60509 0.0
H2017 H 0.39943 0.23494 0.66081 0.0
H2018 H 0.39638 0.27102 0.67619 0.0
H2019 H 0.38449 0.30864 0.67328 0.0
H2020 H 0.34865 0.32899 0.61718 0.0
H2021 H 0.34997 0.29244 0.60266 0.0
C2022 C 0.36983 0.25841 0.6207 0.0
C2023 C 0.3813 0.24227 0.63175 0.0
C2024 C 0.36827 0.27932 0.62938 0.0
C2025 C 0.39054 0.24708 0.65192 0.0
C2026 C 0.38886 0.26774 0.66074 0.0
C2027 C 0.37708 0.30512 0.65783 0.0
C2028 C 0.36654 0.32161 0.64636 0.0
C2029 C 0.37803 0.28407 0.64947 0.0
C2030 C 0.35667 0.31661 0.62651 0.0
C2031 C 0.35751 0.2957 0.61811 0.0
H2032 H 0.85985 0.58863 0.74098 0.0
H2033 H 0.8939 0.64937 0.74133 0.0
H2034 H 0.88149 0.65629 0.77822 0.0
H2035 H 0.86149 0.64473 0.81035 0.0
H2036 H 0.82941 0.5828 0.81051 0.0
H2037 H 0.84022 0.57695 0.77324 0.0
C2038 C 0.86444 0.60347 0.74906 0.0
C2039 C 0.87771 0.61852 0.73843 0.0
C2040 C 0.85757 0.60714 0.77033 0.0
C2041 C 0.8837 0.63754 0.74919 0.0
C2042 C 0.87661 0.64149 0.77026 0.0
C2043 C 0.85697 0.62984 0.80242 0.0
C2044 C 0.84458 0.61427 0.8135 0.0
C2045 C 0.86367 0.62631 0.78104 0.0
C2046 C 0.83864 0.59527 0.80254 0.0
C2047 C 0.84496 0.59181 0.78117 0.0
H2048 H 0.16625 0.87512 0.81001 0.0
H2049 H 0.10524 0.84486 0.82431 0.0
H2050 H 0.09561 0.84571 0.78599 0.0
H2051 H 0.10359 0.85758 0.74873 0.0
H2052 H 0.16425 0.88912 0.73532 0.0
H2053 H 0.17495 0.88527 0.77297 0.0
C2054 C 0.1508 0.86882 0.80478 0.0
C2055 C 0.13637 0.86022 0.82002 0.0
C2056 C 0.14531 0.8696 0.78286 0.0
C2057 C 0.11665 0.85154 0.81289 0.0
C2058 C 0.11111 0.85211 0.791 0.0
C2059 C 0.11927 0.86329 0.75403 0.0
C2060 C 0.13307 0.87369 0.73931 0.0
C2061 C 0.12519 0.8614 0.77587 0.0
C2062 C 0.15329 0.88115 0.74638 0.0
C2063 C 0.15942 0.87901 0.76791 0.0
H2064 H 0.85073 0.39288 0.75362 0.0
H2065 H 0.90887 0.35567 0.74461 0.0
H2066 H 0.89904 0.34908 0.70693 0.0
H2067 H 0.87497 0.35576 0.67616 0.0
H2068 H 0.81646 0.39236 0.68574 0.0
H2069 H 0.82565 0.3976 0.72354 0.0
C2070 C 0.86118 0.38317 0.74347 0.0
C2071 C 0.88054 0.37485 0.75183 0.0
C2072 C 0.85552 0.37958 0.72186 0.0
C2073 C 0.89386 0.36224 0.73853 0.0
C2074 C 0.8883 0.35855 0.71697 0.0
C2075 C 0.86405 0.36463 0.68652 0.0
C2076 C 0.84515 0.37384 0.67789 0.0
C2077 C 0.8693 0.3674 0.70839 0.0
C2078 C 0.83135 0.38548 0.69167 0.0
C2079 C 0.8365 0.38836 0.7134 0.0
H2080 H 0.10904 0.14283 0.74339 0.0
H2081 H 0.16764 0.11007 0.76182 0.0
H2082 H 0.18141 0.11344 0.72509 0.0
H2083 H 0.17542 0.1226 0.68705 0.0
H2084 H 0.11681 0.15479 0.66815 0.0
H2085 H 0.10446 0.15491 0.70572 0.0
C2086 C 0.12502 0.13688 0.73947 0.0
C2087 C 0.13725 0.12613 0.75529 0.0
C2088 C 0.13269 0.13848 0.71816 0.0
C2089 C 0.15787 0.11836 0.74993 0.0
C2090 C 0.16572 0.12016 0.72889 0.0
C2091 C 0.15995 0.12962 0.69119 0.0
C2092 C 0.14689 0.13837 0.67485 0.0
C2093 C 0.153 0.12959 0.71275 0.0
C2094 C 0.12712 0.14794 0.68047 0.0
C2095 C 0.12004 0.14795 0.70192 0.0
H2096 H 0.74527 0.83936 0.61186 0.0
H2097 H 0.75415 0.88969 0.65921 0.0
H2098 H 0.79203 0.8795 0.66327 0.0
H2099 H 0.82329 0.85842 0.6509 0.0
H2100 H 0.81422 0.80853 0.60315 0.0
H2101 H 0.77579 0.81659 0.60156 0.0
C2102 C 0.7554 0.84791 0.62332 0.0
C2103 C 0.74696 0.86532 0.63513 0.0
C2104 C 0.77721 0.84227 0.62524 0.0
C2105 C 0.76029 0.87624 0.64989 0.0
C2106 C 0.78197 0.87049 0.65215 0.0
C2107 C 0.81285 0.8491 0.64041 0.0
C2108 C 0.82171 0.83311 0.62695 0.0
C2109 C 0.79072 0.85385 0.63953 0.0
C2110 C 0.80795 0.82127 0.61331 0.0
C2111 C 0.78592 0.82576 0.6125 0.0
H2112 H 0.80667 0.14027 0.84739 0.0
H2113 H 0.81384 0.16938 0.91043 0.0
H2114 H 0.77612 0.16256 0.91813 0.0
H2115 H 0.74127 0.14701 0.90787 0.0
H2116 H 0.73447 0.11532 0.84625 0.0
H2117 H 0.77187 0.12431 0.83724 0.0
C2118 C 0.80014 0.14502 0.86289 0.0
C2119 C 0.81338 0.15546 0.87817 0.0
C2120 C 0.77839 0.14055 0.86754 0.0
C2121 C 0.80425 0.16168 0.89806 0.0
C2122 C 0.78258 0.15765 0.90262 0.0
C2123 C 0.74792 0.14228 0.89237 0.0
C2124 C 0.73516 0.13064 0.87769 0.0
C2125 C 0.76953 0.14701 0.88755 0.0
C2126 C 0.74403 0.12432 0.8578 0.0
C2127 C 0.7654 0.12943 0.85267 0.0
H2128 H 0.26409 0.33783 0.89416 0.0
H2129 H 0.25807 0.39402 0.85349 0.0
H2130 H 0.22063 0.38446 0.84549 0.0
H2131 H 0.18878 0.36187 0.85273 0.0
H2132 H 0.19506 0.30589 0.89363 0.0
H2133 H 0.23322 0.31373 0.89897 0.0
C2134 C 0.25468 0.34786 0.88333 0.0
C2135 C 0.26376 0.36668 0.87456 0.0
C2136 C 0.23314 0.34244 0.87906 0.0
C2137 C 0.25141 0.37946 0.86049 0.0
C2138 C 0.22998 0.37405 0.85597 0.0
C2139 C 0.19858 0.35118 0.86248 0.0
C2140 C 0.18899 0.3335 0.87301 0.0
C2141 C 0.22055 0.35582 0.86555 0.0
C2142 C 0.20191 0.31988 0.88574 0.0
C2143 C 0.22377 0.32428 0.88871 0.0
H2144 H 0.75454 0.11285 0.14728 0.0
H2145 H 0.76614 0.16534 0.10296 0.0
H2146 H 0.72983 0.17917 0.10961 0.0
H2147 H 0.69386 0.17424 0.12518 0.0
H2148 H 0.68152 0.12059 0.16777 0.0
H2149 H 0.71927 0.10947 0.16493 0.0
C2150 C 0.74928 0.12755 0.13937 0.0
C2151 C 0.76293 0.13799 0.12453 0.0
C2152 C 0.72821 0.13504 0.1428 0.0
C2153 C 0.75588 0.15698 0.11439 0.0
C2154 C 0.73511 0.16483 0.11811 0.0
C2155 C 0.69939 0.16007 0.13378 0.0
C2156 C 0.68481 0.14801 0.14635 0.0
C2157 C 0.72094 0.15359 0.13175 0.0
C2158 C 0.69241 0.13011 0.15798 0.0
C2159 C 0.71396 0.12371 0.15627 0.0
H2160 H 0.36277 0.24385 0.10641 0.0
H2161 H 0.39478 0.25945 0.16633 0.0
H2162 H 0.39014 0.22248 0.17881 0.0
H2163 H 0.37954 0.18521 0.17168 0.0
H2164 H 0.34816 0.16882 0.11182 0.0
H2165 H 0.34974 0.20665 0.10037 0.0
C2166 C 0.36838 0.23921 0.12234 0.0
C2167 C 0.37922 0.25429 0.13537 0.0
C2168 C 0.36597 0.21777 0.12931 0.0
C2169 C 0.38649 0.24809 0.15594 0.0
C2170 C 0.38391 0.22694 0.16307 0.0
C2171 C 0.37312 0.18993 0.1561 0.0
C2172 C 0.36408 0.17428 0.14244 0.0
C2173 C 0.37418 0.21155 0.14968 0.0
C2174 C 0.35523 0.18065 0.12256 0.0
C2175 C 0.3562 0.20223 0.11601 0.0
H2176 H 0.64718 0.24501 0.11396 0.0
H2177 H 0.61288 0.23192 0.17319 0.0
H2178 H 0.61755 0.26934 0.18448 0.0
H2179 H 0.62855 0.30622 0.17616 0.0
H2180 H 0.66149 0.32013 0.11649 0.0
H2181 H 0.66052 0.2818 0.10679 0.0
C2182 C 0.6411 0.25028 0.12951 0.0
C2183 C 0.6296 0.23581 0.14269 0.0
C2184 C 0.64341 0.27195 0.13568 0.0
C2185 C 0.62169 0.24282 0.16273 0.0
C2186 C 0.62428 0.26421 0.16917 0.0
C2187 C 0.63544 0.30087 0.161 0.0
C2188 C 0.64471 0.31597 0.14685 0.0
C2189 C 0.63457 0.279 0.1555 0.0
C2190 C 0.65422 0.30876 0.12758 0.0
C2191 C 0.65358 0.2869 0.12202 0.0
H2192 H 0.35555 0.75297 0.38552 0.0
H2193 H 0.39225 0.73484 0.32919 0.0
H2194 H 0.39035 0.77182 0.31568 0.0
H2195 H 0.38085 0.80983 0.32139 0.0
H2196 H 0.34598 0.82823 0.37881 0.0
H2197 H 0.34439 0.79066 0.39024 0.0
C2198 C 0.36272 0.75702 0.37007 0.0
C2199 C 0.37401 0.74123 0.35836 0.0
C2200 C 0.36214 0.77844 0.36272 0.0
C2201 C 0.38346 0.74675 0.33849 0.0
C2202 C 0.3825 0.76791 0.33082 0.0
C2203 C 0.37298 0.80565 0.33644 0.0
C2204 C 0.36371 0.82192 0.34927 0.0
C2205 C 0.37239 0.784 0.3431 0.0
C2206 C 0.35313 0.81609 0.36851 0.0
C2207 C 0.35229 0.79458 0.37513 0.0
H2208 H 0.59889 0.7513 0.36083 0.0
H2209 H 0.64471 0.7441 0.41278 0.0
H2210 H 0.6528 0.7074 0.40073 0.0
H2211 H 0.64526 0.67678 0.37668 0.0
H2212 H 0.59979 0.6845 0.32442 0.0
H2213 H 0.59294 0.72149 0.33561 0.0
C2214 C 0.61078 0.74178 0.36943 0.0
C2215 C 0.62112 0.75038 0.38772 0.0
C2216 C 0.61522 0.72069 0.36253 0.0
C2217 C 0.63653 0.73786 0.39864 0.0
C2218 C 0.6411 0.71684 0.39181 0.0
C2219 C 0.63408 0.68658 0.36752 0.0
C2220 C 0.62293 0.67763 0.34982 0.0
C2221 C 0.63032 0.708 0.37393 0.0
C2222 C 0.6083 0.69067 0.33836 0.0
C2223 C 0.60447 0.71194 0.34465 0.0
H2224 H 0.17926 0.38739 0.19427 0.0
H2225 H 0.12334 0.35027 0.17574 0.0
H2226 H 0.10998 0.35144 0.21279 0.0
H2227 H 0.1132 0.36473 0.2502 0.0
H2228 H 0.1686 0.40296 0.26813 0.0
H2229 H 0.18306 0.39967 0.23166 0.0
C2230 C 0.16409 0.37967 0.19827 0.0
C2231 C 0.15231 0.36887 0.18213 0.0
C2232 C 0.15638 0.38059 0.21958 0.0
C2233 C 0.13288 0.35855 0.1878 0.0
C2234 C 0.12515 0.3593 0.20901 0.0
C2235 C 0.12857 0.37208 0.24618 0.0
C2236 C 0.13979 0.38408 0.26186 0.0
C2237 C 0.13667 0.37044 0.22501 0.0
C2238 C 0.15961 0.39367 0.25636 0.0
C2239 C 0.16788 0.39185 0.23548 0.0
H2240 H 0.89839 0.13794 0.23873 0.0
H2241 H 0.8365 0.11532 0.26119 0.0
H2242 H 0.8219 0.11791 0.2247 0.0
H2243 H 0.82748 0.12392 0.18603 0.0
H2244 H 0.88975 0.14489 0.16308 0.0
H2245 H 0.90338 0.14582 0.20004 0.0
C2246 C 0.8816 0.13405 0.23566 0.0
C2247 C 0.86852 0.12647 0.25256 0.0
C2248 C 0.87345 0.13501 0.2145 0.0
C2249 C 0.84687 0.12116 0.24838 0.0
C2250 C 0.83854 0.12254 0.22752 0.0
C2251 C 0.84404 0.12861 0.1891 0.0
C2252 C 0.85759 0.13415 0.17178 0.0
C2253 C 0.85184 0.12889 0.21037 0.0
C2254 C 0.87892 0.14066 0.17611 0.0
C2255 C 0.88676 0.14112 0.19725 0.0
H2256 H 0.12942 0.59484 0.24823 0.0
H2257 H 0.107 0.65969 0.23704 0.0
H2258 H 0.11905 0.67029 0.27331 0.0
H2259 H 0.13598 0.6607 0.3082 0.0
H2260 H 0.15506 0.59453 0.31933 0.0
H2261 H 0.14445 0.585 0.28303 0.0
C2262 C 0.12736 0.61137 0.25364 0.0
C2263 C 0.11764 0.62656 0.24 0.0
C2264 C 0.13373 0.6171 0.27452 0.0
C2265 C 0.11457 0.64777 0.24733 0.0
C2266 C 0.12143 0.65379 0.26803 0.0
C2267 C 0.13768 0.64418 0.30278 0.0
C2268 C 0.1468 0.62856 0.31656 0.0
C2269 C 0.13096 0.63852 0.28182 0.0
C2270 C 0.1488 0.60718 0.30909 0.0
C2271 C 0.14254 0.60158 0.28828 0.0
H2272 H 0.85664 0.85406 0.31662 0.0
H2273 H 0.82266 0.91475 0.31455 0.0
H2274 H 0.83341 0.91977 0.27703 0.0
H2275 H 0.85213 0.90685 0.24474 0.0
H2276 H 0.88681 0.84655 0.24663 0.0
H2277 H 0.87568 0.84116 0.2842 0.0
C2278 C 0.85153 0.86833 0.3079 0.0
C2279 C 0.83889 0.884 0.31842 0.0
C2280 C 0.85766 0.87104 0.28626 0.0
C2281 C 0.83265 0.90258 0.30702 0.0
C2282 C 0.83861 0.90537 0.28547 0.0
C2283 C 0.85705 0.89239 0.25328 0.0
C2284 C 0.87007 0.87698 0.2429 0.0
C2285 C 0.85101 0.88966 0.27492 0.0
C2286 C 0.87667 0.85855 0.25428 0.0
C2287 C 0.87039 0.85552 0.27575 0.0
H2288 H 0.19335 0.17711 0.37844 0.0
H2289 H 0.1754 0.12194 0.34004 0.0
H2290 H 0.21226 0.10803 0.34241 0.0
H2291 H 0.24913 0.11069 0.35714 0.0
H2292 H 0.26647 0.16578 0.39614 0.0
H2293 H 0.23031 0.18055 0.39183 0.0
C2294 C 0.19747 0.16198 0.3707 0.0
C2295 C 0.18161 0.15047 0.35928 0.0
C2296 C 0.21859 0.15408 0.37224 0.0
C2297 C 0.18734 0.13115 0.34886 0.0
C2298 C 0.20838 0.12315 0.35029 0.0
C2299 C 0.24504 0.12603 0.36449 0.0
C2300 C 0.26043 0.13706 0.37701 0.0
C2301 C 0.22409 0.13437 0.36214 0.0
C2302 C 0.2549 0.15691 0.38647 0.0
C2303 C 0.23421 0.16537 0.38407 0.0
H2304 H 0.24349 0.88559 0.14536 0.0
H2305 H 0.26083 0.82716 0.11163 0.0
H2306 H 0.22459 0.81285 0.11724 0.0
H2307 H 0.1871 0.81841 0.12854 0.0
H2308 H 0.16929 0.8771 0.16132 0.0
H2309 H 0.20665 0.88978 0.1595 0.0
C2310 C 0.23946 0.86955 0.13962 0.0
C2311 C 0.25475 0.85753 0.12794 0.0
C2312 C 0.21844 0.86159 0.1425 0.0
C2313 C 0.2493 0.83678 0.12058 0.0
C2314 C 0.22855 0.82862 0.12368 0.0
C2315 C 0.19143 0.83397 0.13528 0.0
C2316 C 0.17546 0.84696 0.14474 0.0
C2317 C 0.21284 0.84117 0.13402 0.0
C2318 C 0.18134 0.86683 0.15395 0.0
C2319 C 0.20266 0.87411 0.15283 0.0
H2320 H 0.73427 0.66134 0.10992 0.0
H2321 H 0.74042 0.60876 0.15516 0.0
H2322 H 0.7783 0.61805 0.16107 0.0
H2323 H 0.81049 0.63838 0.15004 0.0
H2324 H 0.80423 0.6905 0.10427 0.0
H2325 H 0.76558 0.68386 0.10165 0.0
C2326 C 0.74377 0.65214 0.12138 0.0
C2327 C 0.73462 0.63429 0.13195 0.0
C2328 C 0.76562 0.6572 0.12425 0.0
C2329 C 0.74711 0.62258 0.1468 0.0
C2330 C 0.76881 0.62778 0.15006 0.0
C2331 C 0.80065 0.64855 0.13979 0.0
C2332 C 0.81037 0.66468 0.1271 0.0
C2333 C 0.77839 0.64463 0.13835 0.0
C2334 C 0.79731 0.6776 0.11379 0.0
C2335 C 0.77515 0.67394 0.11241 0.0
H2336 H 0.29907 0.86182 0.84316 0.0
H2337 H 0.30276 0.82089 0.89938 0.0
H2338 H 0.26491 0.82759 0.90722 0.0
H2339 H 0.23105 0.84611 0.89904 0.0
H2340 H 0.22702 0.88751 0.84321 0.0
H2341 H 0.26446 0.87917 0.83399 0.0
C2342 C 0.29152 0.85424 0.857 0.0
C2343 C 0.30389 0.84114 0.8708 0.0
C2344 C 0.26961 0.85812 0.86142 0.0
C2345 C 0.29387 0.83149 0.88876 0.0
C2346 C 0.27211 0.83514 0.89317 0.0
C2347 C 0.23825 0.85307 0.88468 0.0
C2348 C 0.22629 0.86739 0.87183 0.0
C2349 C 0.25988 0.84858 0.87974 0.0
C2350 C 0.23591 0.87643 0.85337 0.0
C2351 C 0.25735 0.87173 0.84814 0.0
H2352 H 0.03276 0.23209 0.44108 0.0
H2353 H 0.0471 0.25598 0.37746 0.0
H2354 H 0.01149 0.27311 0.37548 0.0
H2355 H 0.97641 0.28067 0.39179 0.0
H2356 H 0.96099 0.25381 0.45437 0.0
H2357 H 0.99697 0.23868 0.45691 0.0
C2358 C 0.02804 0.24126 0.42694 0.0
C2359 C 0.04236 0.24303 0.40952 0.0
C2360 C 0.0074 0.25044 0.42572 0.0
C2361 C 0.03616 0.25452 0.39101 0.0
C2362 C 0.01587 0.26424 0.38991 0.0
C2363 C 0.98065 0.27134 0.40592 0.0
C2364 C 0.96572 0.26863 0.42288 0.0
C2365 C 0.00129 0.26214 0.40712 0.0
C2366 C 0.972 0.25661 0.44114 0.0
C2367 C 0.99264 0.24778 0.44261 0.0
H2368 H 0.96407 0.73009 0.10375 0.0
H2369 H 0.96708 0.72432 0.03434 0.0
H2370 H 0.00343 0.7394 0.03451 0.0
H2371 H 0.03414 0.75488 0.05438 0.0
H2372 H 0.03135 0.75891 0.12389 0.0
H2373 H 0.99519 0.74359 0.12362 0.0
C2374 C 0.97268 0.73178 0.08864 0.0
C2375 C 0.96267 0.72607 0.06906 0.0
C2376 C 0.99367 0.74021 0.08886 0.0
C2377 C 0.97414 0.72885 0.04965 0.0
C2378 C 0.99504 0.73735 0.04973 0.0
C2379 C 0.02574 0.75215 0.06947 0.0
C2380 C 0.03542 0.75828 0.08909 0.0
C2381 C 0.00492 0.74317 0.06924 0.0
C2382 C 0.02417 0.75481 0.10851 0.0
C2383 C 0.00351 0.74591 0.1084 0.0
H2384 H 0.44848 0.03061 0.23528 0.0
H2385 H 0.37915 0.03599 0.23794 0.0
H2386 H 0.37658 3e-05 0.25363 0.0
H2387 H 0.3938 0.96672 0.26514 0.0
H2388 H 0.46323 0.96127 0.26384 0.0
H2389 H 0.46598 0.99752 0.24874 0.0
C2390 C 0.43288 0.02399 0.2396 0.0
C2391 C 0.41404 0.03583 0.23529 0.0
C2392 C 0.43151 0.00323 0.24857 0.0
C2393 C 0.39386 0.02701 0.24075 0.0
C2394 C 0.39238 0.00649 0.24978 0.0
C2395 C 0.40958 0.97347 0.2619 0.0
C2396 C 0.42825 0.96116 0.26565 0.0
C2397 C 0.41107 0.99438 0.25351 0.0
C2398 C 0.44854 0.97018 0.26084 0.0
C2399 C 0.45015 0.99101 0.25236 0.0
H2400 H 0.57502 0.53345 0.23889 0.0
H2401 H 0.59247 0.51446 0.30343 0.0
H2402 H 0.59362 0.47654 0.29232 0.0
H2403 H 0.59074 0.449 0.26374 0.0
H2404 H 0.57638 0.46837 0.19861 0.0
H2405 H 0.57271 0.50602 0.21024 0.0
C2406 C 0.57889 0.5209 0.25045 0.0
C2407 C 0.58358 0.5265 0.27187 0.0
C2408 C 0.58003 0.49933 0.24379 0.0
C2409 C 0.58895 0.51034 0.2868 0.0
C2410 C 0.58952 0.48874 0.28048 0.0
C2411 C 0.58654 0.46153 0.25228 0.0
C2412 C 0.58359 0.45618 0.23049 0.0
C2413 C 0.58522 0.48308 0.25898 0.0
C2414 C 0.57864 0.47237 0.21548 0.0
C2415 C 0.57658 0.49378 0.22212 0.0
H2416 H 0.26935 0.44512 0.97136 0.0
H2417 H 0.26756 0.3757 0.96683 0.0
H2418 H 0.25284 0.37339 0.00324 0.0
H2419 H 0.24117 0.39097 0.03659 0.0
H2420 H 0.24179 0.46048 0.04092 0.0
H2421 H 0.25642 0.46283 0.00448 0.0
C2422 C 0.2655 0.42952 0.97826 0.0
C2423 C 0.2697 0.41063 0.96641 0.0
C2424 C 0.25699 0.42829 0.99925 0.0
C2425 C 0.26486 0.39049 0.9757 0.0
C2426 C 0.25633 0.38915 0.9965 0.0
C2427 C 0.24425 0.40666 0.02955 0.0
C2428 C 0.24038 0.42549 0.04165 0.0
C2429 C 0.25246 0.40793 0.00848 0.0
C2430 C 0.24489 0.44567 0.03223 0.0
C2431 C 0.25312 0.44706 0.01128 0.0
H2432 H 0.23468 0.56304 0.46881 0.0
H2433 H 0.23343 0.63253 0.46607 0.0
H2434 H 0.24801 0.63452 0.50268 0.0
H2435 H 0.26134 0.6164 0.53531 0.0
H2436 H 0.26295 0.54687 0.53773 0.0
H2437 H 0.24791 0.54496 0.50139 0.0
C2438 C 0.23779 0.5786 0.47617 0.0
C2439 C 0.23307 0.59759 0.46476 0.0
C2440 C 0.24614 0.5796 0.49716 0.0
C2441 C 0.23675 0.61768 0.47463 0.0
C2442 C 0.24518 0.61882 0.4955 0.0
C2443 C 0.25853 0.60085 0.52782 0.0
C2444 C 0.26326 0.58182 0.5392 0.0
C2445 C 0.24997 0.59988 0.50689 0.0
C2446 C 0.25919 0.56176 0.52943 0.0
C2447 C 0.25073 0.56065 0.50859 0.0
H2448 H 0.75861 0.89245 0.4722 0.0
H2449 H 0.75588 0.96201 0.46917 0.0
H2450 H 0.74425 0.96347 0.50657 0.0
H2451 H 0.73475 0.94525 0.54008 0.0
H2452 H 0.73867 0.87588 0.54414 0.0
H2453 H 0.75004 0.87414 0.5064 0.0
C2454 C 0.75565 0.90794 0.47973 0.0
C2455 C 0.75801 0.92706 0.46769 0.0
C2456 C 0.7492 0.90873 0.50146 0.0
C2457 C 0.75382 0.94697 0.47777 0.0
C2458 C 0.74732 0.94787 0.49928 0.0
C2459 C 0.73839 0.92975 0.53287 0.0
C2460 C 0.73591 0.91075 0.545 0.0
C2461 C 0.74498 0.92888 0.51126 0.0
C2462 C 0.74023 0.89076 0.53514 0.0
C2463 C 0.74682 0.88976 0.51358 0.0
H2464 H 0.96849 0.75519 0.59304 0.0
H2465 H 0.97912 0.7875 0.53237 0.0
H2466 H 0.01665 0.77522 0.53208 0.0
H2467 H 0.04635 0.75569 0.54939 0.0
H2468 H 0.03464 0.72169 0.60924 0.0
H2469 H 0.9979 0.73486 0.60982 0.0
C2470 C 0.97909 0.75961 0.57983 0.0
C2471 C 0.97113 0.77224 0.56279 0.0
C2472 C 0.00052 0.75242 0.57974 0.0
C2473 C 0.98487 0.77759 0.54556 0.0
C2474 C 0.00633 0.7707 0.54547 0.0
C2475 C 0.03583 0.75097 0.56251 0.0
C2476 C 0.04365 0.73776 0.57928 0.0
C2477 C 0.01433 0.75811 0.56251 0.0
C2478 C 0.02956 0.73215 0.59626 0.0
C2479 C 0.00832 0.73951 0.59655 0.0
H2480 H 0.96194 0.25222 0.94056 0.0
H2481 H 0.97669 0.21573 0.883 0.0
H2482 H 0.01272 0.23166 0.88211 0.0
H2483 H 0.04067 0.2548 0.89878 0.0
H2484 H 0.02621 0.28879 0.95773 0.0
H2485 H 0.98948 0.27442 0.95736 0.0
C2486 C 0.97298 0.2474 0.92793 0.0
C2487 C 0.96646 0.23255 0.912 0.0
C2488 C 0.99384 0.25607 0.92789 0.0
C2489 C 0.98105 0.2272 0.89542 0.0
C2490 C 0.00176 0.23619 0.89498 0.0
C2491 C 0.02936 0.2591 0.91142 0.0
C2492 C 0.03602 0.27276 0.92829 0.0
C2493 C 0.00839 0.25049 0.91126 0.0
C2494 C 0.02143 0.27809 0.94476 0.0
C2495 C 0.00045 0.26998 0.94448 0.0
H2496 H 0.60672 0.02899 0.73504 0.0
H2497 H 0.53764 0.03789 0.7355 0.0
H2498 H 0.5328 0.00209 0.75086 0.0
H2499 H 0.54819 0.96888 0.7656 0.0
H2500 H 0.61713 0.95941 0.76436 0.0
H2501 H 0.62199 0.99473 0.74766 0.0
C2502 C 0.5906 0.02301 0.73823 0.0
C2503 C 0.57262 0.03627 0.73435 0.0
C2504 C 0.58789 0.00231 0.74698 0.0
C2505 C 0.55183 0.02827 0.73877 0.0
C2506 C 0.549 0.00771 0.74742 0.0
C2507 C 0.56424 0.97437 0.76136 0.0
C2508 C 0.58225 0.9616 0.76639 0.0
C2509 C 0.56692 0.99469 0.7518 0.0
C2510 C 0.603 0.9691 0.76102 0.0
C2511 C 0.6058 0.98925 0.75139 0.0
H2512 H 0.41783 0.54175 0.73905 0.0
H2513 H 0.42123 0.52266 0.80575 0.0
H2514 H 0.42427 0.48466 0.79507 0.0
H2515 H 0.42393 0.45679 0.76654 0.0
H2516 H 0.41684 0.47592 0.70012 0.0
H2517 H 0.41737 0.51402 0.71062 0.0
C2518 C 0.41956 0.52921 0.75112 0.0
C2519 C 0.41952 0.53477 0.77307 0.0
C2520 C 0.42051 0.5075 0.74485 0.0
C2521 C 0.42127 0.51854 0.78875 0.0
C2522 C 0.42299 0.49691 0.78265 0.0
C2523 C 0.42278 0.46941 0.75448 0.0
C2524 C 0.42047 0.46381 0.73267 0.0
C2525 C 0.42235 0.49118 0.76075 0.0
C2526 C 0.41859 0.48008 0.71702 0.0
C2527 C 0.4189 0.50177 0.72301 0.0
H2528 H 0.73027 0.57076 0.9607 0.0
H2529 H 0.79475 0.59316 0.97397 0.0
H2530 H 0.78687 0.59414 0.01265 0.0
H2531 H 0.76115 0.58959 0.04262 0.0
H2532 H 0.69598 0.56964 0.02919 0.0
H2533 H 0.70447 0.56647 0.99067 0.0
C2534 C 0.74254 0.57571 0.97216 0.0
C2535 C 0.76297 0.58192 0.96465 0.0
C2536 C 0.73775 0.5766 0.99428 0.0
C2537 C 0.7788 0.58857 0.97947 0.0
C2538 C 0.77435 0.58901 0.00155 0.0
C2539 C 0.74899 0.58427 0.0312 0.0
C2540 C 0.72808 0.57965 0.03852 0.0
C2541 C 0.75385 0.58317 0.00912 0.0
C2542 C 0.71218 0.57323 0.02372 0.0
C2543 C 0.71703 0.57146 0.00178 0.0
H2544 H 0.72267 0.39089 0.46512 0.0
H2545 H 0.74997 0.45291 0.44831 0.0
H2546 H 0.76508 0.45614 0.48434 0.0
H2547 H 0.77061 0.44144 0.52075 0.0
H2548 H 0.74586 0.37852 0.53662 0.0
H2549 H 0.72991 0.37533 0.50051 0.0
C2550 C 0.73215 0.40502 0.46901 0.0
C2551 C 0.73493 0.42168 0.45376 0.0
C2552 C 0.74126 0.40661 0.48964 0.0
C2553 C 0.74713 0.43994 0.45962 0.0
C2554 C 0.75593 0.44179 0.48026 0.0
C2555 C 0.76162 0.42713 0.51622 0.0
C2556 C 0.75911 0.41032 0.53115 0.0
C2557 C 0.75299 0.42529 0.49541 0.0
C2558 C 0.74789 0.39159 0.5252 0.0
C2559 C 0.7388 0.38982 0.50465 0.0
H2560 H 0.27166 0.0553 0.47164 0.0
H2561 H 0.26866 0.12453 0.46492 0.0
H2562 H 0.25278 0.12754 0.5008 0.0
H2563 H 0.23882 0.11046 0.53357 0.0
H2564 H 0.24024 0.04113 0.53966 0.0
H2565 H 0.25779 0.03821 0.50451 0.0
C2566 C 0.26737 0.07103 0.47792 0.0
C2567 C 0.27126 0.08963 0.46551 0.0
C2568 C 0.258 0.07263 0.49845 0.0
C2569 C 0.26605 0.10995 0.47416 0.0
C2570 C 0.25684 0.11169 0.49464 0.0
C2571 C 0.24276 0.09469 0.52715 0.0
C2572 C 0.23805 0.07603 0.53919 0.0
C2573 C 0.25258 0.09312 0.50684 0.0
C2574 C 0.24383 0.05576 0.53083 0.0
C2575 C 0.25374 0.05406 0.51067 0.0
H2576 H 0.45757 0.75925 0.94096 0.0
H2577 H 0.45333 0.76081 0.87144 0.0
H2578 H 0.4895 0.74544 0.86869 0.0
H2579 H 0.52273 0.7325 0.88619 0.0
H2580 H 0.52614 0.73031 0.95573 0.0
H2581 H 0.48972 0.7448 0.95831 0.0
C2582 C 0.46435 0.75594 0.92519 0.0
C2583 C 0.45272 0.76123 0.90647 0.0
C2584 C 0.48505 0.74705 0.92373 0.0
C2585 C 0.46203 0.75718 0.88615 0.0
C2586 C 0.48267 0.74828 0.88455 0.0
C2587 C 0.51539 0.73495 0.90188 0.0
C2588 C 0.52721 0.73052 0.92073 0.0
C2589 C 0.49439 0.74329 0.90325 0.0
C2590 C 0.51756 0.73398 0.94098 0.0
C2591 C 0.49668 0.74216 0.94247 0.0
H2592 H 0.47367 0.23106 0.54788 0.0
H2593 H 0.46923 0.23018 0.61746 0.0
H2594 H 0.50571 0.24447 0.62019 0.0
H2595 H 0.53848 0.25803 0.60295 0.0
H2596 H 0.54225 0.26105 0.53341 0.0
H2597 H 0.50646 0.24495 0.53061 0.0
C2598 C 0.48055 0.23417 0.56366 0.0
C2599 C 0.46856 0.22953 0.58241 0.0
C2600 C 0.50148 0.24272 0.56514 0.0
C2601 C 0.47804 0.23329 0.60271 0.0
C2602 C 0.49891 0.24161 0.60431 0.0
C2603 C 0.53147 0.2554 0.58715 0.0
C2604 C 0.54313 0.26093 0.56844 0.0
C2605 C 0.51071 0.24652 0.58564 0.0
C2606 C 0.53385 0.25681 0.54812 0.0
C2607 C 0.51327 0.24773 0.54648 0.0
H2608 H 0.95255 0.46198 0.74415 0.0
H2609 H 0.89617 0.47522 0.78314 0.0
H2610 H 0.89312 0.51066 0.76708 0.0
H2611 H 0.90643 0.53833 0.74214 0.0
H2612 H 0.9642 0.52669 0.70538 0.0
H2613 H 0.967 0.49034 0.72071 0.0
C2614 C 0.93969 0.47257 0.74936 0.0
C2615 C 0.92444 0.46548 0.76465 0.0
C2616 C 0.9383 0.49335 0.74049 0.0
C2617 C 0.90787 0.4797 0.77101 0.0
C2618 C 0.90616 0.5002 0.76196 0.0
C2619 C 0.91953 0.52771 0.7375 0.0
C2620 C 0.93501 0.53491 0.72267 0.0
C2621 C 0.92121 0.50714 0.74665 0.0
C2622 C 0.95219 0.52135 0.7169 0.0
C2623 C 0.95373 0.50062 0.72559 0.0
H2624 H 0.05958 0.03277 0.74522 0.0
H2625 H 0.12721 0.03143 0.76133 0.0
H2626 H 0.12983 0.9942 0.74863 0.0
H2627 H 0.11283 0.96217 0.73303 0.0
H2628 H 0.04507 0.96289 0.7175 0.0
H2629 H 0.04233 0.00025 0.73013 0.0
C2630 C 0.07487 0.0243 0.74572 0.0
C2631 C 0.09319 0.03469 0.75404 0.0
C2632 C 0.07615 0.00286 0.73868 0.0
C2633 C 0.1129 0.02359 0.75508 0.0
C2634 C 0.1144 0.00238 0.7478 0.0
C2635 C 0.09753 0.9706 0.7323 0.0
C2636 C 0.07921 0.96 0.72425 0.0
C2637 C 0.09613 0.99189 0.7396 0.0
C2638 C 0.05932 0.9708 0.7238 0.0
C2639 C 0.0578 0.99214 0.73087 0.0
H2640 H 0.7271 0.0833 0.04533 0.0
H2641 H 0.79262 0.07501 0.02395 0.0
H2642 H 0.78048 0.07214 0.98637 0.0
H2643 H 0.75113 0.0735 0.95951 0.0
H2644 H 0.68613 0.08596 0.98045 0.0
H2645 H 0.69782 0.08568 0.01831 0.0
C2646 C 0.73854 0.08065 0.03235 0.0
C2647 C 0.76059 0.07913 0.03712 0.0
C2648 C 0.73148 0.07984 0.01082 0.0
C2649 C 0.77554 0.07613 0.02038 0.0
C2650 C 0.76861 0.07451 0.99901 0.0
C2651 C 0.73962 0.07589 0.97248 0.0
C2652 C 0.71786 0.07949 0.96749 0.0
C2653 C 0.74663 0.07651 0.99401 0.0
C2654 C 0.70297 0.08308 0.98417 0.0
C2655 C 0.70964 0.08293 0.00571 0.0
H2656 H 0.54876 0.25887 0.08559 0.0
H2657 H 0.52811 0.19258 0.0841 0.0
H2658 H 0.49036 0.20397 0.08112 0.0
H2659 H 0.46328 0.23295 0.08095 0.0
H2660 H 0.48372 0.29916 0.08577 0.0
H2661 H 0.52163 0.28789 0.08541 0.0
C2662 C 0.53592 0.24705 0.0843 0.0
C2663 C 0.54094 0.22501 0.08489 0.0
C2664 C 0.51436 0.25375 0.08333 0.0
C2665 C 0.52437 0.20964 0.08367 0.0
C2666 C 0.5029 0.21614 0.08198 0.0
C2667 C 0.47612 0.24482 0.08162 0.0
C2668 C 0.47097 0.26677 0.08325 0.0
C2669 C 0.4977 0.23815 0.08207 0.0
C2670 C 0.48754 0.28216 0.08457 0.0
C2671 C 0.5091 0.27573 0.08433 0.0
H2672 H 0.52371 0.77625 0.40776 0.0
H2673 H 0.5329 0.74633 0.4701 0.0
H2674 H 0.49597 0.73273 0.46905 0.0
H2675 H 0.46147 0.72819 0.44967 0.0
H2676 H 0.45403 0.75515 0.38608 0.0
H2677 H 0.49031 0.77083 0.38809 0.0
C2678 C 0.51798 0.76645 0.42102 0.0
C2679 C 0.53134 0.76222 0.43891 0.0
C2680 C 0.49704 0.75816 0.42003 0.0
C2681 C 0.52304 0.75002 0.45618 0.0
C2682 C 0.50194 0.74212 0.45555 0.0
C2683 C 0.46788 0.73767 0.43642 0.0
C2684 C 0.45535 0.74079 0.41782 0.0
C2685 C 0.48886 0.746 0.4375 0.0
C2686 C 0.46364 0.75268 0.40047 0.0
C2687 C 0.48425 0.76158 0.40166 0.0
H2688 H 0.09954 0.53909 0.24184 0.0
H2689 H 0.03007 0.53696 0.23731 0.0
H2690 H 0.0299 0.50146 0.25441 0.0
H2691 H 0.04965 0.47054 0.26948 0.0
H2692 H 0.11932 0.47219 0.27145 0.0
H2693 H 0.11916 0.50834 0.25634 0.0
C2694 C 0.08433 0.53085 0.24432 0.0
C2695 C 0.06487 0.5407 0.23805 0.0
C2696 C 0.08438 0.51029 0.25369 0.0
C2697 C 0.0453 0.52991 0.24207 0.0
C2698 C 0.0452 0.50951 0.25171 0.0
C2699 C 0.06482 0.47868 0.26644 0.0
C2700 C 0.08446 0.4685 0.27169 0.0
C2701 C 0.06467 0.49944 0.25736 0.0
C2702 C 0.10392 0.47959 0.26794 0.0
C2703 C 0.10388 0.50028 0.25914 0.0
H2704 H 0.95015 0.97036 0.23101 0.0
H2705 H 0.88256 0.95821 0.2425 0.0
H2706 H 0.87829 0.99432 0.25744 0.0
H2707 H 0.89334 0.0297 0.26575 0.0
H2708 H 0.96113 0.04185 0.25536 0.0
H2709 H 0.96573 0.00535 0.24135 0.0
C2710 C 0.93459 0.97552 0.23709 0.0
C2711 C 0.91668 0.96173 0.23547 0.0
C2712 C 0.93224 0.99633 0.24566 0.0
C2713 C 0.89652 0.9687 0.24319 0.0
C2714 C 0.89407 0.98929 0.25182 0.0
C2715 C 0.9092 0.02431 0.26077 0.0
C2716 C 0.92683 0.03855 0.26155 0.0
C2717 C 0.91176 0.00331 0.25289 0.0
C2718 C 0.9472 0.03135 0.25461 0.0
C2719 C 0.94989 0.01043 0.24673 0.0
H2720 H 0.2258 0.88396 0.96286 0.0
H2721 H 0.2201 0.95337 0.96285 0.0
H2722 H 0.23576 0.95492 0.99886 0.0
H2723 H 0.25026 0.93668 0.03055 0.0
H2724 H 0.25508 0.86728 0.03154 0.0
H2725 H 0.24055 0.86558 0.99483 0.0
C2726 C 0.22783 0.89941 0.97079 0.0
C2727 C 0.22172 0.91851 0.96013 0.0
C2728 C 0.23665 0.90018 0.99164 0.0
C2729 C 0.22489 0.93843 0.9705 0.0
C2730 C 0.23371 0.93934 0.99118 0.0
C2731 C 0.2479 0.92115 0.02288 0.0
C2732 C 0.25351 0.90212 0.03387 0.0
C2733 C 0.23948 0.92032 0.00194 0.0
C2734 C 0.25095 0.88216 0.0234 0.0
C2735 C 0.24257 0.88119 0.00247 0.0
H2736 H 0.08643 0.16167 0.46592 0.0
H2737 H 0.147 0.15632 0.43182 0.0
H2738 H 0.16413 0.14186 0.46415 0.0
H2739 H 0.16239 0.13208 0.50236 0.0
H2740 H 0.10247 0.13877 0.5372 0.0
H2741 H 0.0845 0.15086 0.50418 0.0
C2742 C 0.10334 0.15719 0.4655 0.0
C2743 C 0.11541 0.16019 0.44645 0.0
C2744 C 0.1132 0.14908 0.48427 0.0
C2745 C 0.13732 0.15432 0.44625 0.0
C2746 C 0.14715 0.14603 0.46475 0.0
C2747 C 0.14541 0.13629 0.5028 0.0
C2748 C 0.13387 0.13471 0.52233 0.0
C2749 C 0.13533 0.14362 0.4839 0.0
C2750 C 0.11174 0.1397 0.52241 0.0
C2751 C 0.10149 0.14677 0.50355 0.0
H2752 H 0.85799 0.33642 0.44388 0.0
H2753 H 0.90541 0.38719 0.44086 0.0
H2754 H 0.89482 0.39947 0.47709 0.0
H2755 H 0.8733 0.39406 0.51047 0.0
H2756 H 0.82409 0.34457 0.51112 0.0
H2757 H 0.83439 0.33337 0.4751 0.0
C2758 C 0.86595 0.35025 0.45113 0.0
C2759 C 0.88259 0.36076 0.43997 0.0
C2760 C 0.85964 0.35726 0.47164 0.0
C2761 C 0.89253 0.37888 0.44926 0.0
C2762 C 0.88654 0.3858 0.46997 0.0
C2763 C 0.86468 0.38099 0.50265 0.0
C2764 C 0.84841 0.36976 0.51395 0.0
C2765 C 0.87029 0.37489 0.48147 0.0
C2766 C 0.83731 0.35297 0.50336 0.0
C2767 C 0.84299 0.34666 0.48258 0.0
H2768 H 0.15667 0.85497 0.99255 0.0
H2769 H 0.09518 0.87869 0.97041 0.0
H2770 H 0.07842 0.86786 0.00459 0.0
H2771 H 0.08107 0.85006 0.04005 0.0
H2772 H 0.143 0.82747 0.0625 0.0
H2773 H 0.15982 0.83953 0.02896 0.0
C2774 C 0.13961 0.85778 0.99528 0.0
C2775 C 0.12707 0.86737 0.97899 0.0
C2776 C 0.1302 0.85169 0.01497 0.0
C2777 C 0.10509 0.87132 0.98278 0.0
C2778 C 0.09553 0.86506 0.00225 0.0
C2779 C 0.09826 0.84787 0.03764 0.0
C2780 C 0.11072 0.8377 0.05368 0.0
C2781 C 0.10788 0.85499 0.01836 0.0
C2782 C 0.13303 0.83523 0.05042 0.0
C2783 C 0.14266 0.84205 0.03122 0.0
H2784 H 0.83724 0.60218 0.99106 0.0
H2785 H 0.87107 0.654 0.95909 0.0
H2786 H 0.88398 0.66736 0.99384 0.0
H2787 H 0.88409 0.6655 0.03319 0.0
H2788 H 0.85056 0.61379 0.06563 0.0
H2789 H 0.83931 0.599 0.03073 0.0
C2790 C 0.84777 0.61614 0.99169 0.0
C2791 C 0.85312 0.62715 0.97255 0.0
C2792 C 0.85505 0.62382 0.01177 0.0
C2793 C 0.86654 0.64541 0.97363 0.0
C2794 C 0.87395 0.65303 0.99347 0.0
C2795 C 0.87436 0.65095 0.03267 0.0
C2796 C 0.86799 0.64087 0.05198 0.0
C2797 C 0.86799 0.6426 0.01264 0.0
C2798 C 0.85565 0.62187 0.05099 0.0
C2799 C 0.84918 0.61344 0.03104 0.0
H2800 H 0.47325 0.0774 0.15901 0.0
H2801 H 0.43901 0.13665 0.14585 0.0
H2802 H 0.47269 0.15406 0.13542 0.0
H2803 H 0.51199 0.15334 0.13249 0.0
H2804 H 0.5468 0.09479 0.1465 0.0
H2805 H 0.51269 0.07608 0.15382 0.0
C2806 C 0.47311 0.09404 0.15359 0.0
C2807 C 0.45364 0.10574 0.15338 0.0
C2808 C 0.49263 0.1041 0.14789 0.0
C2809 C 0.45376 0.12729 0.14632 0.0
C2810 C 0.47303 0.1373 0.14037 0.0
C2811 C 0.51211 0.13647 0.13718 0.0
C2812 C 0.53185 0.12552 0.13931 0.0
C2813 C 0.49257 0.126 0.14156 0.0
C2814 C 0.53178 0.10355 0.14481 0.0
C2815 C 0.5123 0.0929 0.14908 0.0
H2816 H 0.49518 0.33571 0.1333 0.0
H2817 H 0.46162 0.39626 0.13998 0.0
H2818 H 0.49558 0.41419 0.14962 0.0
H2819 H 0.53427 0.41186 0.15868 0.0
H2820 H 0.56719 0.35073 0.15271 0.0
H2821 H 0.53392 0.33378 0.14035 0.0
C2822 C 0.4953 0.35285 0.1369 0.0
C2823 C 0.47591 0.36461 0.13628 0.0
C2824 C 0.51472 0.36288 0.14266 0.0
C2825 C 0.47635 0.38688 0.14039 0.0
C2826 C 0.49573 0.39708 0.14601 0.0
C2827 C 0.53423 0.39487 0.1545 0.0
C2828 C 0.5532 0.38256 0.15681 0.0
C2829 C 0.51494 0.38513 0.14757 0.0
C2830 C 0.55283 0.36058 0.15124 0.0
C2831 C 0.5338 0.35084 0.14417 0.0
H2832 H 0.52414 0.86185 0.35997 0.0
H2833 H 0.50128 0.8376 0.4211 0.0
H2834 H 0.46454 0.84889 0.41209 0.0
H2835 H 0.43849 0.86377 0.3857 0.0
H2836 H 0.46201 0.88644 0.32408 0.0
H2837 H 0.49871 0.87737 0.33433 0.0
C2838 C 0.51112 0.85901 0.37133 0.0
C2839 C 0.51546 0.84884 0.39112 0.0
C2840 C 0.49005 0.86509 0.36587 0.0
C2841 C 0.49846 0.84563 0.40584 0.0
C2842 C 0.47739 0.85191 0.40061 0.0
C2843 C 0.45167 0.86682 0.37459 0.0
C2844 C 0.4474 0.87561 0.35408 0.0
C2845 C 0.47293 0.86138 0.38052 0.0
C2846 C 0.46471 0.87947 0.33988 0.0
C2847 C 0.48578 0.87436 0.34573 0.0
H2848 H 0.55604 0.63075 0.38191 0.0
H2849 H 0.53783 0.60215 0.32097 0.0
H2850 H 0.50019 0.61093 0.32773 0.0
H2851 H 0.47263 0.62833 0.3498 0.0
H2852 H 0.49048 0.65871 0.40989 0.0
H2853 H 0.52786 0.64714 0.40487 0.0
C2854 C 0.5438 0.62628 0.37022 0.0
C2855 C 0.54981 0.61597 0.3509 0.0
C2856 C 0.52206 0.63163 0.37406 0.0
C2857 C 0.53373 0.61031 0.33589 0.0
C2858 C 0.51215 0.61527 0.33974 0.0
C2859 C 0.48469 0.63244 0.36181 0.0
C2860 C 0.47875 0.64448 0.3801 0.0
C2861 C 0.50619 0.62623 0.35857 0.0
C2862 C 0.49452 0.64927 0.39574 0.0
C2863 C 0.51596 0.64283 0.39279 0.0
H2864 H 0.14416 0.52477 0.13327 0.0
H2865 H 0.08269 0.50285 0.15746 0.0
H2866 H 0.09195 0.46564 0.14792 0.0
H2867 H 0.11897 0.43906 0.13539 0.0
H2868 H 0.18102 0.46181 0.11308 0.0
H2869 H 0.17019 0.49887 0.11953 0.0
C2870 C 0.13277 0.51185 0.13642 0.0
C2871 C 0.1129 0.51649 0.14621 0.0
C2872 C 0.13842 0.49059 0.13149 0.0
C2873 C 0.09807 0.49968 0.14979 0.0
C2874 C 0.10344 0.47839 0.14454 0.0
C2875 C 0.13003 0.45216 0.13184 0.0
C2876 C 0.15084 0.44763 0.12402 0.0
C2877 C 0.12378 0.4736 0.1358 0.0
C2878 C 0.165 0.46477 0.11941 0.0
C2879 C 0.15882 0.48603 0.123 0.0
H2880 H 0.13887 0.4957 0.33971 0.0
H2881 H 0.12168 0.46915 0.40161 0.0
H2882 H 0.13264 0.50289 0.41939 0.0
H2883 H 0.14945 0.53908 0.41719 0.0
H2884 H 0.16583 0.56515 0.35459 0.0
H2885 H 0.15282 0.53248 0.33722 0.0
C2886 C 0.13739 0.49744 0.35709 0.0
C2887 C 0.12975 0.48009 0.36945 0.0
C2888 C 0.14371 0.5167 0.36704 0.0
C2889 C 0.12755 0.48243 0.39187 0.0
C2890 C 0.13392 0.50162 0.40199 0.0
C2891 C 0.15008 0.53762 0.39976 0.0
C2892 C 0.15884 0.55447 0.38727 0.0
C2893 C 0.14242 0.51873 0.38975 0.0
C2894 C 0.15928 0.55244 0.36465 0.0
C2895 C 0.15186 0.53374 0.35465 0.0
H2896 H 0.87333 0.95639 0.3882 0.0
H2897 H 0.8052 0.9667 0.37734 0.0
H2898 H 0.81204 0.00398 0.36773 0.0
H2899 H 0.83724 0.03303 0.35975 0.0
H2900 H 0.90546 0.02351 0.3691 0.0
H2901 H 0.89867 0.9869 0.38259 0.0
C2902 C 0.86 0.96683 0.38381 0.0
C2903 C 0.83883 0.95856 0.38326 0.0
C2904 C 0.86401 0.98849 0.37818 0.0
C2905 C 0.82171 0.97244 0.37776 0.0
C2906 C 0.82556 0.99386 0.37228 0.0
C2907 C 0.8506 0.02301 0.36499 0.0
C2908 C 0.87179 0.03082 0.36327 0.0
C2909 C 0.84662 0.00194 0.37209 0.0
C2910 C 0.88896 0.01785 0.3704 0.0
C2911 C 0.8851 0.99685 0.37786 0.0
H2912 H 0.35168 0.47551 0.62768 0.0
H2913 H 0.41216 0.4921 0.65796 0.0
H2914 H 0.40646 0.53009 0.64908 0.0
H2915 H 0.3828 0.55903 0.6351 0.0
H2916 H 0.32131 0.54187 0.60708 0.0
H2917 H 0.32875 0.50386 0.61305 0.0
C2918 C 0.36364 0.48743 0.63233 0.0
C2919 C 0.38225 0.48095 0.64351 0.0
C2920 C 0.35995 0.50925 0.62783 0.0
C2921 C 0.39779 0.49657 0.64907 0.0
C2922 C 0.39444 0.51835 0.64421 0.0
C2923 C 0.37112 0.54693 0.63021 0.0
C2924 C 0.35146 0.55332 0.62087 0.0
C2925 C 0.37536 0.52494 0.63395 0.0
C2926 C 0.33646 0.53746 0.6146 0.0
C2927 C 0.34072 0.51567 0.6179 0.0
H2928 H 0.86494 0.89994 0.48756 0.0
H2929 H 0.82622 0.84322 0.47498 0.0
H2930 H 0.83685 0.82794 0.50927 0.0
H2931 H 0.85759 0.82987 0.54259 0.0
H2932 H 0.89342 0.88745 0.55788 0.0
H2933 H 0.88301 0.90341 0.52311 0.0
C2934 C 0.85864 0.88435 0.49237 0.0
C2935 C 0.8454 0.87252 0.47812 0.0
C2936 C 0.86419 0.8758 0.51271 0.0
C2937 C 0.83727 0.85239 0.48494 0.0
C2938 C 0.84309 0.84365 0.50477 0.0
C2939 C 0.86303 0.84596 0.53831 0.0
C2940 C 0.87637 0.85743 0.55253 0.0
C2941 C 0.85671 0.85507 0.51864 0.0
C2942 C 0.88308 0.87838 0.54709 0.0
C2943 C 0.87721 0.88743 0.5272 0.0
H2944 H 0.13668 0.61035 0.48194 0.0
H2945 H 0.12051 0.67465 0.46109 0.0
H2946 H 0.10945 0.68412 0.49781 0.0
H2947 H 0.10855 0.6754 0.53615 0.0
H2948 H 0.12655 0.61178 0.55792 0.0
H2949 H 0.13261 0.60059 0.52047 0.0
C2950 C 0.13011 0.6262 0.48543 0.0
C2951 C 0.12919 0.6418 0.469 0.0
C2952 C 0.12456 0.63171 0.50672 0.0
C2953 C 0.12114 0.66243 0.47358 0.0
C2954 C 0.11501 0.66786 0.49455 0.0
C2955 C 0.11373 0.65904 0.53276 0.0
C2956 C 0.11749 0.64456 0.54982 0.0
C2957 C 0.11738 0.65286 0.51133 0.0
C2958 C 0.12371 0.62329 0.54508 0.0
C2959 C 0.1272 0.6169 0.52368 0.0
H2960 H 0.86271 0.11635 0.93595 0.0
H2961 H 0.9012 0.17068 0.95658 0.0
H2962 H 0.89429 0.16181 0.99418 0.0
H2963 H 0.87478 0.14078 0.02113 0.0
H2964 H 0.83516 0.08717 0.00124 0.0
H2965 H 0.84537 0.09326 0.96351 0.0
C2966 C 0.86982 0.12601 0.94871 0.0
C2967 C 0.88216 0.14431 0.9435 0.0
C2968 C 0.86554 0.12099 0.97043 0.0
C2969 C 0.89131 0.15671 0.96017 0.0
C2970 C 0.88743 0.15165 0.9817 0.0
C2971 C 0.86855 0.13034 0.00852 0.0
C2972 C 0.85417 0.1137 0.01383 0.0
C2973 C 0.87413 0.1342 0.98698 0.0
C2974 C 0.84639 0.10003 0.99748 0.0
C2975 C 0.85208 0.10361 0.97592 0.0
H2976 H 0.10967 0.37236 0.95489 0.0
H2977 H 0.16654 0.33515 0.94053 0.0
H2978 H 0.18156 0.34366 0.9761 0.0
H2979 H 0.17761 0.36009 0.01181 0.0
H2980 H 0.12005 0.39607 0.02716 0.0
H2981 H 0.1062 0.38986 0.99067 0.0
C2982 C 0.1255 0.36653 0.95954 0.0
C2983 C 0.13723 0.35345 0.94529 0.0
C2984 C 0.13374 0.37106 0.98021 0.0
C2985 C 0.15748 0.34546 0.95137 0.0
C2986 C 0.16596 0.35021 0.97168 0.0
C2987 C 0.16194 0.36642 0.00724 0.0
C2988 C 0.14975 0.37829 0.02225 0.0
C2989 C 0.15406 0.36266 0.98636 0.0
C2990 C 0.12975 0.38688 0.01588 0.0
C2991 C 0.1218 0.3833 0.99505 0.0
H2992 H 0.47445 0.87363 0.894 0.0
H2993 H 0.46707 0.8413 0.8325 0.0
H2994 H 0.50347 0.85136 0.8226 0.0
H2995 H 0.53802 0.86799 0.8315 0.0
H2996 H 0.54743 0.897 0.89409 0.0
H2997 H 0.50991 0.88887 0.90367 0.0
C2998 C 0.48075 0.86854 0.87851 0.0
C2999 C 0.46752 0.85694 0.864 0.0
C3000 C 0.50227 0.87355 0.87314 0.0
C3001 C 0.47626 0.85085 0.84387 0.0
C3002 C 0.49733 0.85632 0.83822 0.0
C3003 C 0.53186 0.87259 0.84724 0.0
C3004 C 0.54544 0.88316 0.86203 0.0
C3005 C 0.5105 0.86754 0.85274 0.0
C3006 C 0.53731 0.88877 0.88245 0.0
C3007 C 0.51584 0.8842 0.88788 0.0
H3008 H 0.50413 0.66347 0.86068 0.0
H3009 H 0.52936 0.60296 0.88371 0.0
H3010 H 0.49576 0.58472 0.87329 0.0
H3011 H 0.46004 0.58587 0.85573 0.0
H3012 H 0.43469 0.64693 0.8338 0.0
H3013 H 0.46746 0.66513 0.84582 0.0
C3014 C 0.50217 0.64629 0.86346 0.0
C3015 C 0.51915 0.63444 0.87266 0.0
C3016 C 0.48285 0.63606 0.8576 0.0
C3017 C 0.51643 0.61231 0.87659 0.0
C3018 C 0.4973 0.60192 0.87057 0.0
C3019 C 0.46164 0.60317 0.8537 0.0
C3020 C 0.44502 0.61497 0.84368 0.0
C3021 C 0.48052 0.61359 0.86077 0.0
C3022 C 0.44723 0.63743 0.84142 0.0
C3023 C 0.466 0.64787 0.84822 0.0
H3024 H 0.54681 0.10225 0.62555 0.0
H3025 H 0.55392 0.15112 0.67459 0.0
H3026 H 0.51773 0.16464 0.66685 0.0
H3027 H 0.48413 0.16218 0.6468 0.0
H3028 H 0.475 0.11136 0.59998 0.0
H3029 H 0.51208 0.09916 0.60591 0.0
C3030 C 0.54041 0.11598 0.63432 0.0
C3031 C 0.55288 0.12583 0.65049 0.0
C3032 C 0.51928 0.1232 0.63027 0.0
C3033 C 0.54447 0.14335 0.66208 0.0
C3034 C 0.52382 0.15105 0.65768 0.0
C3035 C 0.48997 0.14813 0.63817 0.0
C3036 C 0.47659 0.13755 0.62316 0.0
C3037 C 0.51102 0.14092 0.64202 0.0
C3038 C 0.48492 0.11988 0.61158 0.0
C3039 C 0.5061 0.11285 0.61502 0.0
H3040 H 0.44029 0.36446 0.61882 0.0
H3041 H 0.45944 0.38405 0.68297 0.0
H3042 H 0.4969 0.37602 0.67458 0.0
H3043 H 0.5242 0.36277 0.64957 0.0
H3044 H 0.50543 0.34104 0.58607 0.0
H3045 H 0.46806 0.35121 0.59346 0.0
C3046 C 0.45268 0.36702 0.63092 0.0
C3047 C 0.44699 0.37474 0.65152 0.0
C3048 C 0.47433 0.36217 0.62607 0.0
C3049 C 0.46327 0.37795 0.66704 0.0
C3050 C 0.48476 0.37344 0.66225 0.0
C3051 C 0.51194 0.36012 0.63735 0.0
C3052 C 0.51767 0.35105 0.61734 0.0
C3053 C 0.49044 0.3654 0.6419 0.0
C3054 C 0.50159 0.34824 0.60154 0.0
C3055 C 0.48015 0.35385 0.60582 0.0
H3056 H 0.83808 0.46722 0.861 0.0
H3057 H 0.90649 0.47753 0.86806 0.0
H3058 H 0.9 0.51497 0.879 0.0
H3059 H 0.87486 0.54575 0.88275 0.0
H3060 H 0.80645 0.53473 0.87487 0.0
H3061 H 0.81299 0.49675 0.86783 0.0
C3062 C 0.85153 0.47761 0.86528 0.0
C3063 C 0.8727 0.46977 0.86361 0.0
C3064 C 0.8477 0.49911 0.871 0.0
C3065 C 0.89002 0.48322 0.8694 0.0
C3066 C 0.88632 0.50468 0.87538 0.0
C3067 C 0.86141 0.53501 0.87957 0.0
C3068 C 0.84024 0.54318 0.87906 0.0
C3069 C 0.86524 0.51299 0.87558 0.0
C3070 C 0.82294 0.52897 0.87523 0.0
C3071 C 0.82663 0.50718 0.87123 0.0
H3072 H 0.87898 0.44102 0.6243 0.0
H3073 H 0.8148 0.4601 0.60505 0.0
H3074 H 0.82356 0.49771 0.61209 0.0
H3075 H 0.84879 0.52514 0.62504 0.0
H3076 H 0.91237 0.50625 0.64624 0.0
H3077 H 0.90471 0.46887 0.63649 0.0
C3078 C 0.86697 0.45342 0.62153 0.0
C3079 C 0.84621 0.44765 0.61431 0.0
C3080 C 0.87203 0.47515 0.62582 0.0
C3081 C 0.83084 0.46397 0.61081 0.0
C3082 C 0.83584 0.48555 0.61476 0.0
C3083 C 0.86099 0.51286 0.62757 0.0
C3084 C 0.88109 0.51859 0.63643 0.0
C3085 C 0.85628 0.4913 0.62252 0.0
C3086 C 0.89684 0.50246 0.63918 0.0
C3087 C 0.8924 0.48098 0.63382 0.0
H3088 H 0.13078 0.98774 0.65461 0.0
H3089 H 0.14357 0.9531 0.59558 0.0
H3090 H 0.15239 0.9871 0.5774 0.0
H3091 H 0.15927 0.02627 0.57926 0.0
H3092 H 0.14776 0.06028 0.63904 0.0
H3093 H 0.13575 0.02685 0.65598 0.0
C3094 C 0.13555 0.9876 0.63776 0.0
C3095 C 0.13684 0.96786 0.62655 0.0
C3096 C 0.14093 0.00708 0.62759 0.0
C3097 C 0.14245 0.96804 0.60457 0.0
C3098 C 0.14761 0.98747 0.59422 0.0
C3099 C 0.15389 0.02644 0.59592 0.0
C3100 C 0.15455 0.04579 0.60788 0.0
C3101 C 0.1473 0.00704 0.6057 0.0
C3102 C 0.14754 0.04565 0.62947 0.0
C3103 C 0.14069 0.02652 0.63919 0.0
H3104 H 0.60199 0.50076 0.34808 0.0
H3105 H 0.65646 0.529 0.38108 0.0
H3106 H 0.66895 0.4932 0.39164 0.0
H3107 H 0.66584 0.45398 0.38942 0.0
H3108 H 0.6114 0.42518 0.35696 0.0
H3109 H 0.59726 0.46113 0.34849 0.0
C3110 C 0.61631 0.49909 0.358 0.0
C3111 C 0.62836 0.51752 0.36369 0.0
C3112 C 0.62351 0.47838 0.36391 0.0
C3113 C 0.64705 0.51505 0.3763 0.0
C3114 C 0.6542 0.4946 0.38234 0.0
C3115 C 0.65085 0.45554 0.38052 0.0
C3116 C 0.63983 0.43696 0.37355 0.0
C3117 C 0.64284 0.47616 0.37581 0.0
C3118 C 0.6202 0.43925 0.36244 0.0
C3119 C 0.61215 0.4598 0.35756 0.0
H3120 H 0.61569 0.61962 0.94836 0.0
H3121 H 0.62467 0.68852 0.95423 0.0
H3122 H 0.63272 0.68469 0.99231 0.0
H3123 H 0.63814 0.66213 0.02385 0.0
H3124 H 0.63078 0.59315 0.01897 0.0
H3125 H 0.62051 0.5967 0.98091 0.0
C3126 C 0.61951 0.63372 0.95799 0.0
C3127 C 0.61958 0.65429 0.94839 0.0
C3128 C 0.62413 0.63147 0.98015 0.0
C3129 C 0.62438 0.67247 0.96115 0.0
C3130 C 0.62898 0.67035 0.98299 0.0
C3131 C 0.63425 0.64786 0.01447 0.0
C3132 C 0.63535 0.62744 0.02414 0.0
C3133 C 0.62896 0.64998 0.99263 0.0
C3134 C 0.62985 0.60911 0.01192 0.0
C3135 C 0.62423 0.61111 0.9901 0.0
H3136 H 0.36314 0.88692 0.01033 0.0
H3137 H 0.32396 0.82985 0.01934 0.0
H3138 H 0.33295 0.81766 0.98329 0.0
H3139 H 0.35125 0.82318 0.94873 0.0
H3140 H 0.3873 0.88169 0.93785 0.0
H3141 H 0.37971 0.89353 0.9748 0.0
C3142 C 0.35635 0.87192 0.00442 0.0
C3143 C 0.34322 0.85922 0.018 0.0
C3144 C 0.36088 0.86527 0.98316 0.0
C3145 C 0.33476 0.83973 0.00982 0.0
C3146 C 0.33965 0.83279 0.98898 0.0
C3147 C 0.35747 0.8385 0.95448 0.0
C3148 C 0.3699 0.85149 0.94068 0.0
C3149 C 0.35268 0.84539 0.97552 0.0
C3150 C 0.37762 0.87144 0.9482 0.0
C3151 C 0.37334 0.87818 0.96933 0.0
H3152 H 0.65158 0.33551 0.55054 0.0
H3153 H 0.59902 0.38085 0.5526 0.0
H3154 H 0.60758 0.39284 0.51579 0.0
H3155 H 0.62861 0.38829 0.48219 0.0
H3156 H 0.68358 0.34536 0.4823 0.0
H3157 H 0.67532 0.33444 0.51896 0.0
C3158 C 0.64219 0.34818 0.54294 0.0
C3159 C 0.62466 0.35722 0.55399 0.0
C3160 C 0.64743 0.35518 0.52208 0.0
C3161 C 0.61267 0.37378 0.54428 0.0
C3162 C 0.61748 0.38051 0.52324 0.0
C3163 C 0.63901 0.37681 0.49028 0.0
C3164 C 0.65625 0.36715 0.479 0.0
C3165 C 0.63465 0.37105 0.51183 0.0
C3166 C 0.66957 0.35239 0.49003 0.0
C3167 C 0.66506 0.34627 0.51118 0.0
H3168 H 0.39067 0.17255 0.53661 0.0
H3169 H 0.35676 0.1187 0.5649 0.0
H3170 H 0.3482 0.10489 0.52894 0.0
H3171 H 0.34888 0.10907 0.4895 0.0
H3172 H 0.38354 0.16244 0.4612 0.0
H3173 H 0.39336 0.1754 0.49713 0.0
C3174 C 0.38138 0.15781 0.5349 0.0
C3175 C 0.37418 0.14678 0.55339 0.0
C3176 C 0.37672 0.14983 0.51418 0.0
C3177 C 0.36245 0.12752 0.55092 0.0
C3178 C 0.35755 0.11961 0.53036 0.0
C3179 C 0.35899 0.12325 0.49115 0.0
C3180 C 0.36542 0.13478 0.47265 0.0
C3181 C 0.3645 0.13069 0.51187 0.0
C3182 C 0.37821 0.15337 0.47517 0.0
C3183 C 0.38382 0.16081 0.49571 0.0
H3184 H 0.94994 0.65016 0.66162 0.0
H3185 H 0.94472 0.60485 0.60912 0.0
H3186 H 0.98115 0.61448 0.59688 0.0
H3187 H 0.01526 0.63386 0.60304 0.0
H3188 H 0.01851 0.68194 0.65357 0.0
H3189 H 0.98219 0.67276 0.66492 0.0
C3190 C 0.95676 0.64261 0.64735 0.0
C3191 C 0.94495 0.62678 0.63631 0.0
C3192 C 0.97743 0.64842 0.64032 0.0
C3193 C 0.95363 0.61719 0.61774 0.0
C3194 C 0.97446 0.62258 0.61087 0.0
C3195 C 0.00799 0.64267 0.61628 0.0
C3196 C 0.02008 0.65818 0.62774 0.0
C3197 C 0.98665 0.63792 0.62229 0.0
C3198 C 0.01014 0.66928 0.64493 0.0
C3199 C 0.98918 0.66426 0.65131 0.0
H3200 H 0.99509 0.83084 0.6317 0.0
H3201 H 0.96811 0.89187 0.6122 0.0
H3202 H 0.00149 0.91029 0.62274 0.0
H3203 H 0.03773 0.90907 0.63893 0.0
H3204 H 0.06477 0.84768 0.65773 0.0
H3205 H 0.03203 0.82935 0.64588 0.0
C3206 C 0.99655 0.84819 0.62984 0.0
C3207 C 0.97916 0.86008 0.62149 0.0
C3208 C 0.01578 0.85856 0.63575 0.0
C3209 C 0.98133 0.88245 0.61867 0.0
C3210 C 0.00036 0.89295 0.62472 0.0
C3211 C 0.03653 0.89167 0.6403 0.0
C3212 C 0.05364 0.87982 0.64936 0.0
C3213 C 0.01762 0.88119 0.63346 0.0
C3214 C 0.05186 0.85724 0.65085 0.0
C3215 C 0.0331 0.84672 0.64416 0.0
H3216 H 0.97499 0.41417 0.85238 0.0
H3217 H 0.94836 0.35246 0.83376 0.0
H3218 H 0.98029 0.33426 0.84755 0.0
H3219 H 0.0165 0.33583 0.8632 0.0
H3220 H 0.04337 0.39699 0.88254 0.0
H3221 H 0.01053 0.41547 0.87035 0.0
C3222 C 0.97612 0.39673 0.85146 0.0
C3223 C 0.95935 0.38475 0.84186 0.0
C3224 C 0.99458 0.38628 0.85948 0.0
C3225 C 0.96101 0.36213 0.84099 0.0
C3226 C 0.9793 0.35167 0.84883 0.0
C3227 C 0.01512 0.35322 0.86473 0.0
C3228 C 0.03233 0.36513 0.87343 0.0
C3229 C 0.99629 0.3636 0.8578 0.0
C3230 C 0.03027 0.38756 0.87581 0.0
C3231 C 0.01157 0.39808 0.86879 0.0
H3232 H 0.01871 0.09314 0.80996 0.0
H3233 H 0.06214 0.13279 0.8474 0.0
H3234 H 0.03157 0.1481 0.86702 0.0
H3235 H 0.99223 0.15134 0.87248 0.0
H3236 H 0.94903 0.11318 0.83354 0.0
H3237 H 0.97977 0.09594 0.81572 0.0
C3238 C 0.02154 0.10503 0.8225 0.0
C3239 C 0.04269 0.11177 0.82719 0.0
C3240 C 0.0039 0.11397 0.8335 0.0
C3241 C 0.04602 0.12732 0.84341 0.0
C3242 C 0.02855 0.13607 0.85468 0.0
C3243 C 0.98967 0.139 0.86032 0.0
C3244 C 0.96855 0.13333 0.85436 0.0
C3245 C 0.0074 0.12963 0.84975 0.0
C3246 C 0.96524 0.11766 0.83834 0.0
C3247 C 0.98277 0.10789 0.82814 0.0
H3248 H 0.64837 0.01345 0.66752 0.0
H3249 H 0.59614 0.01699 0.62151 0.0
H3250 H 0.60328 0.97979 0.61041 0.0
H3251 H 0.62544 0.94651 0.61292 0.0
H3252 H 0.67953 0.94517 0.65675 0.0
H3253 H 0.67084 0.98144 0.66921 0.0
C3254 C 0.63875 0.00638 0.65472 0.0
C3255 C 0.62189 0.01828 0.64522 0.0
C3256 C 0.64332 0.9853 0.648 0.0
C3257 C 0.60915 0.00829 0.62925 0.0
C3258 C 0.61331 0.98702 0.6228 0.0
C3259 C 0.63519 0.9542 0.62527 0.0
C3260 C 0.65307 0.94324 0.63394 0.0
C3261 C 0.63044 0.97539 0.63198 0.0
C3262 C 0.66576 0.95337 0.64976 0.0
C3263 C 0.66079 0.97408 0.65692 0.0
H3264 H 0.65836 0.04653 0.89312 0.0
H3265 H 0.60581 0.07589 0.85817 0.0
H3266 H 0.5915 0.0401 0.84927 0.0
H3267 H 0.59555 0.00039 0.84943 0.0
H3268 H 0.64826 0.97171 0.88472 0.0
H3269 H 0.66083 0.00739 0.89563 0.0
C3270 C 0.64375 0.04514 0.88357 0.0
C3271 C 0.63331 0.0638 0.87606 0.0
C3272 C 0.63565 0.02464 0.87862 0.0
C3273 C 0.61418 0.06173 0.86406 0.0
C3274 C 0.60602 0.04129 0.85896 0.0
C3275 C 0.60951 0.00199 0.85987 0.0
C3276 C 0.62107 0.98349 0.86615 0.0
C3277 C 0.61679 0.02261 0.86592 0.0
C3278 C 0.63927 0.98576 0.8795 0.0
C3279 C 0.64646 0.00612 0.88572 0.0
H3280 H 0.34356 0.46875 0.92006 0.0
H3281 H 0.35559 0.43398 0.86083 0.0
H3282 H 0.36686 0.4673 0.84326 0.0
H3283 H 0.37072 0.50648 0.84381 0.0
H3284 H 0.35745 0.54197 0.9022 0.0
H3285 H 0.34965 0.50812 0.92118 0.0
C3286 C 0.34893 0.46842 0.90341 0.0
C3287 C 0.34857 0.44891 0.89174 0.0
C3288 C 0.35507 0.48776 0.89324 0.0
C3289 C 0.35554 0.44878 0.87014 0.0
C3290 C 0.36198 0.46783 0.86006 0.0
C3291 C 0.3661 0.50681 0.8607 0.0
C3292 C 0.36431 0.52669 0.87151 0.0
C3293 C 0.36132 0.48744 0.8713 0.0
C3294 C 0.3589 0.52686 0.89354 0.0
C3295 C 0.35433 0.50753 0.90433 0.0
H3296 H 0.8792 0.05557 0.1301 0.0
H3297 H 0.81464 0.0393 0.10943 0.0
H3298 H 0.82141 0.00137 0.11693 0.0
H3299 H 0.84517 0.97289 0.13021 0.0
H3300 H 0.9089 0.98923 0.15322 0.0
H3301 H 0.90314 0.02682 0.14334 0.0
C3302 C 0.86667 0.0437 0.12717 0.0
C3303 C 0.84645 0.05029 0.11934 0.0
C3304 C 0.87055 0.02185 0.13175 0.0
C3305 C 0.83033 0.03472 0.11565 0.0
C3306 C 0.83418 0.01298 0.11985 0.0
C3307 C 0.85778 0.98466 0.13316 0.0
C3308 C 0.87742 0.97813 0.14241 0.0
C3309 C 0.85415 0.00639 0.12809 0.0
C3310 C 0.89373 0.99362 0.14575 0.0
C3311 C 0.89038 0.01523 0.14033 0.0
H3312 H 0.34544 0.36282 0.99305 0.0
H3313 H 0.40493 0.35495 0.95781 0.0
H3314 H 0.42341 0.34432 0.99115 0.0
H3315 H 0.42182 0.33492 0.02983 0.0
H3316 H 0.36163 0.34205 0.06433 0.0
H3317 H 0.34423 0.3552 0.03166 0.0
C3318 C 0.36245 0.35871 0.99265 0.0
C3319 C 0.37375 0.35935 0.97299 0.0
C3320 C 0.37279 0.3524 0.0117 0.0
C3321 C 0.3959 0.35456 0.97277 0.0
C3322 C 0.40642 0.34838 0.99179 0.0
C3323 C 0.40495 0.33954 0.03025 0.0
C3324 C 0.39303 0.33734 0.04948 0.0
C3325 C 0.39492 0.34691 0.01129 0.0
C3326 C 0.37118 0.34342 0.04973 0.0
C3327 C 0.36118 0.35095 0.03105 0.0
H3328 H 0.58574 0.14658 0.04145 0.0
H3329 H 0.64943 0.16063 0.06607 0.0
H3330 H 0.66518 0.15134 0.0312 0.0
H3331 H 0.66073 0.14091 0.99321 0.0
H3332 H 0.59738 0.12601 0.96867 0.0
H3333 H 0.58154 0.13397 0.00407 0.0
C3334 C 0.60308 0.14747 0.03925 0.0
C3335 C 0.61636 0.15445 0.0563 0.0
C3336 C 0.61204 0.14214 0.01914 0.0
C3337 C 0.63882 0.15532 0.05322 0.0
C3338 C 0.64785 0.15011 0.03326 0.0
C3339 C 0.64345 0.1395 0.99568 0.0
C3340 C 0.63012 0.13326 0.97845 0.0
C3341 C 0.63459 0.14384 0.01603 0.0
C3342 C 0.60784 0.13094 0.98179 0.0
C3343 C 0.59883 0.13549 0.00197 0.0
H3344 H 0.35982 0.62095 0.43733 0.0
H3345 H 0.38789 0.68244 0.45432 0.0
H3346 H 0.38286 0.67472 0.49238 0.0
H3347 H 0.36961 0.65128 0.52095 0.0
H3348 H 0.33941 0.59065 0.50479 0.0
H3349 H 0.34681 0.59691 0.46653 0.0
C3350 C 0.36486 0.63259 0.44939 0.0
C3351 C 0.37395 0.65235 0.4429 0.0
C3352 C 0.36175 0.62813 0.47147 0.0
C3353 C 0.38047 0.66727 0.45875 0.0
C3354 C 0.37775 0.66282 0.4806 0.0
C3355 C 0.36456 0.63943 0.50909 0.0
C3356 C 0.35389 0.62059 0.51579 0.0
C3357 C 0.36821 0.64344 0.48713 0.0
C3358 C 0.34791 0.6052 0.50017 0.0
C3359 C 0.35192 0.60887 0.47823 0.0
H3360 H 0.63759 0.82141 0.46836 0.0
H3361 H 0.60442 0.88089 0.45441 0.0
H3362 H 0.61313 0.89445 0.4906 0.0
H3363 H 0.62937 0.88871 0.52656 0.0
H3364 H 0.66563 0.83022 0.53819 0.0
H3365 H 0.65591 0.81683 0.50285 0.0
C3366 C 0.63229 0.83737 0.47324 0.0
C3367 C 0.62029 0.85009 0.45887 0.0
C3368 C 0.63761 0.84512 0.4938 0.0
C3369 C 0.61378 0.87084 0.46523 0.0
C3370 C 0.61865 0.87853 0.48593 0.0
C3371 C 0.63536 0.87313 0.52138 0.0
C3372 C 0.64779 0.86039 0.53558 0.0
C3373 C 0.63048 0.86573 0.50043 0.0
C3374 C 0.65528 0.84018 0.52828 0.0
C3375 C 0.65002 0.83253 0.50781 0.0
H3376 H 0.0545 0.35914 0.32885 0.0
H3377 H 0.06492 0.39442 0.3879 0.0
H3378 H 0.02774 0.38702 0.39917 0.0
H3379 H 0.99202 0.37149 0.39157 0.0
H3380 H 0.9836 0.33222 0.33438 0.0
H3381 H 0.01989 0.34084 0.32288 0.0
C3382 C 0.04862 0.36511 0.34423 0.0
C3383 C 0.06233 0.37735 0.35749 0.0
C3384 C 0.02743 0.3604 0.3508 0.0
C3385 C 0.05466 0.38483 0.37748 0.0
C3386 C 0.03337 0.38071 0.38386 0.0
C3387 C 0.99806 0.36448 0.37674 0.0
C3388 C 0.98444 0.35156 0.36377 0.0
C3389 C 0.01955 0.36859 0.37058 0.0
C3390 C 0.99298 0.34294 0.34447 0.0
C3391 C 0.01402 0.34758 0.33793 0.0
H3392 H 0.01047 0.1612 0.3666 0.0
H3393 H 0.04736 0.10324 0.35573 0.0
H3394 H 0.01464 0.08453 0.34361 0.0
H3395 H 0.97631 0.08596 0.33288 0.0
H3396 H 0.94043 0.14499 0.34217 0.0
H3397 H 0.97215 0.16208 0.35789 0.0
C3398 C 0.01135 0.14444 0.36161 0.0
C3399 C 0.03131 0.13369 0.36172 0.0
C3400 C 0.99273 0.1341 0.35415 0.0
C3401 C 0.03215 0.11184 0.35578 0.0
C3402 C 0.0135 0.10122 0.34869 0.0
C3403 C 0.97538 0.1025 0.33852 0.0
C3404 C 0.95609 0.11424 0.33615 0.0
C3405 C 0.99381 0.11238 0.3473 0.0
C3406 C 0.95513 0.13564 0.34358 0.0
C3407 C 0.97325 0.14544 0.35262 0.0
H3408 H 0.98586 0.64619 0.09886 0.0
H3409 H 0.95576 0.62409 0.15764 0.0
H3410 H 0.99071 0.61218 0.1714 0.0
H3411 H 0.02986 0.61048 0.16784 0.0
H3412 H 0.0605 0.63274 0.10936 0.0
H3413 H 0.0252 0.64203 0.09423 0.0
C3414 C 0.98694 0.63832 0.11446 0.0
C3415 C 0.96834 0.63604 0.12728 0.0
C3416 C 0.00714 0.63182 0.1224 0.0
C3417 C 0.96993 0.62612 0.1476 0.0
C3418 C 0.98988 0.61936 0.15547 0.0
C3419 C 0.02886 0.61735 0.15176 0.0
C3420 C 0.04777 0.6212 0.13984 0.0
C3421 C 0.00862 0.62261 0.14323 0.0
C3422 C 0.04616 0.62973 0.11889 0.0
C3423 C 0.026 0.63505 0.11025 0.0
H3424 H 0.00822 0.84782 0.10957 0.0
H3425 H 0.03519 0.88442 0.16214 0.0
H3426 H 0.99898 0.89633 0.17282 0.0
H3427 H 0.95968 0.89281 0.16946 0.0
H3428 H 0.93256 0.85565 0.11716 0.0
H3429 H 0.96886 0.84739 0.10395 0.0
C3430 C 0.00608 0.85897 0.12292 0.0
C3431 C 0.02408 0.86559 0.13495 0.0
C3432 C 0.98527 0.86518 0.12922 0.0
C3433 C 0.02141 0.87956 0.15252 0.0
C3434 C 0.00076 0.8861 0.15874 0.0
C3435 C 0.96173 0.88295 0.15513 0.0
C3436 C 0.94356 0.87449 0.14449 0.0
C3437 C 0.98256 0.87841 0.14762 0.0
C3438 C 0.94636 0.86218 0.12568 0.0
C3439 C 0.96708 0.85747 0.11813 0.0
H3440 H 0.37787 0.05112 0.39361 0.0
H3441 H 0.32819 0.05933 0.34561 0.0
H3442 H 0.3362 0.02378 0.33064 0.0
H3443 H 0.35679 0.99046 0.33146 0.0
H3444 H 0.4033 0.97962 0.38228 0.0
H3445 H 0.39751 0.01627 0.3955 0.0
C3446 C 0.36896 0.04506 0.37981 0.0
C3447 C 0.3526 0.05774 0.37057 0.0
C3448 C 0.3731 0.02421 0.37179 0.0
C3449 C 0.34086 0.04976 0.35292 0.0
C3450 C 0.34543 0.02947 0.34437 0.0
C3451 C 0.36539 0.99575 0.34574 0.0
C3452 C 0.38034 0.98195 0.35589 0.0
C3453 C 0.36135 0.01648 0.35381 0.0
C3454 C 0.39185 0.98978 0.37388 0.0
C3455 C 0.38843 0.01075 0.3816 0.0
H3456 H 0.33323 0.02104 0.13376 0.0
H3457 H 0.4019 0.01271 0.1265 0.0
H3458 H 0.39637 0.97533 0.11494 0.0
H3459 H 0.37204 0.94414 0.10999 0.0
H3460 H 0.30334 0.95303 0.11792 0.0
H3461 H 0.30891 0.99092 0.1263 0.0
C3462 C 0.34696 0.01107 0.12949 0.0
C3463 C 0.36792 0.01951 0.13116 0.0
C3464 C 0.34368 0.98959 0.12324 0.0
C3465 C 0.38558 0.00658 0.12521 0.0
C3466 C 0.38243 0.98516 0.11881 0.0
C3467 C 0.3583 0.95439 0.11344 0.0
C3468 C 0.33735 0.94562 0.11355 0.0
C3469 C 0.36157 0.97633 0.11827 0.0
C3470 C 0.31969 0.95924 0.11784 0.0
C3471 C 0.32282 0.98097 0.12263 0.0
H3472 H 0.63034 0.48822 0.15764 0.0
H3473 H 0.64315 0.45385 0.09848 0.0
H3474 H 0.653 0.48781 0.08069 0.0
H3475 H 0.66102 0.52666 0.08318 0.0
H3476 H 0.64928 0.56034 0.14314 0.0
H3477 H 0.63605 0.52713 0.15946 0.0
C3478 C 0.63525 0.48819 0.14082 0.0
C3479 C 0.63637 0.46862 0.12943 0.0
C3480 C 0.64123 0.50757 0.13094 0.0
C3481 C 0.64221 0.46878 0.10754 0.0
C3482 C 0.64796 0.48814 0.09744 0.0
C3483 C 0.65537 0.52679 0.09975 0.0
C3484 C 0.65636 0.54592 0.11198 0.0
C3485 C 0.648 0.50755 0.10916 0.0
C3486 C 0.64889 0.54582 0.1334 0.0
C3487 C 0.6413 0.52684 0.14277 0.0
H3488 H 0.15547 0.94278 0.85232 0.0
H3489 H 0.10264 0.94144 0.89748 0.0
H3490 H 0.09408 0.97919 0.88884 0.0
H3491 H 0.10321 0.01298 0.86978 0.0
H3492 H 0.15381 0.01204 0.82159 0.0
H3493 H 0.16198 0.97499 0.8306 0.0
C3494 C 0.14195 0.95075 0.86011 0.0
C3495 C 0.12975 0.93957 0.87555 0.0
C3496 C 0.13701 0.97215 0.85484 0.0
C3497 C 0.11214 0.94982 0.88542 0.0
C3498 C 0.10738 0.97139 0.8806 0.0
C3499 C 0.11583 0.00471 0.86097 0.0
C3500 C 0.12823 0.01588 0.84542 0.0
C3501 C 0.11992 0.98282 0.8655 0.0
C3502 C 0.14454 0.00452 0.83434 0.0
C3503 C 0.14908 0.98307 0.83921 0.0
loop_
_geom_bond_atom_site_label_1
_geom_bond_atom_site_label_2
_geom_bond_distance
_geom_bond_site_symmetry_2
_ccdc_geom_bond_type
Co0 N4 2.148 . S
Co0 N10 2.128 . S
Co0 N20 2.194 . S
Co0 O25 2.351 . S
Co0 O26 2.155 . S
Co0 O27 2.096 . S
C1 N4 1.301 . S
C1 N5 1.328 . S
C1 H6 0.930 . S
C2 C3 1.333 . S
C2 N4 1.317 . S
C2 H7 0.930 . S
C3 C2 1.333 . S
C3 N5 1.350 . S
C3 H29 0.931 . S
N4 Co0 2.148 . S
N4 C1 1.301 . S
N4 C2 1.317 . S
N5 C1 1.328 . S
N5 C3 1.350 . S
H6 C1 0.930 . S
H7 C2 0.930 . S
C8 O9 1.224 . S
C8 O27 1.247 . S
O9 C8 1.224 . S
N10 Co0 2.128 . S
N10 C11 1.355 . S
N10 C13 1.311 . S
C11 N10 1.355 . S
C11 C12 1.363 . S
C11 H23 0.929 . S
C12 C11 1.363 . S
C12 N14 1.375 . S
C12 H30 0.931 . S
C13 N10 1.311 . S
C13 N14 1.347 . S
C13 H24 0.929 . S
N14 C12 1.375 . S
N14 C13 1.347 . S
C15 C18 1.365 . S
C15 N20 1.328 . S
C15 H21 0.929 . S
C16 C17 1.362 . S
C16 C19 1.378 . S
C16 H31 0.929 . S
C17 C16 1.362 . S
C17 C18 1.366 . S
C18 C15 1.365 . S
C18 C17 1.366 . S
C18 H32 0.930 . S
C19 C16 1.378 . S
C19 N20 1.315 . S
C19 H22 0.930 . S
N20 Co0 2.194 . S
N20 C15 1.328 . S
N20 C19 1.315 . S
H21 C15 0.929 . S
H22 C19 0.930 . S
H23 C11 0.929 . S
H24 C13 0.929 . S
O25 Co0 2.351 . S
O25 C28 1.244 . S
O26 Co0 2.155 . S
O26 C28 1.240 . S
O27 Co0 2.096 . S
O27 C8 1.247 . S
C28 O25 1.244 . S
C28 O26 1.240 . S
H29 C3 0.931 . S
H30 C12 0.931 . S
H31 C16 0.929 . S
H32 C18 0.930 . S
Co33 N37 2.148 . S
Co33 N43 2.128 . S
Co33 N53 2.194 . S
Co33 O58 2.351 . S
Co33 O59 2.155 . S
Co33 O60 2.096 . S
C34 N37 1.301 . S
C34 N38 1.328 . S
C34 H39 0.930 . S
C35 C36 1.333 . S
C35 N37 1.317 . S
C35 H40 0.930 . S
C36 C35 1.333 . S
C36 N38 1.350 . S
C36 H62 0.931 . S
N37 Co33 2.148 . S
N37 C34 1.301 . S
N37 C35 1.317 . S
N38 C34 1.328 . S
N38 C36 1.350 . S
H39 C34 0.930 . S
H40 C35 0.930 . S
C41 O42 1.224 . S
C41 O60 1.247 . S
O42 C41 1.224 . S
N43 Co33 2.128 . S
N43 C44 1.355 . S
N43 C46 1.311 . S
C44 N43 1.355 . S
C44 C45 1.363 . S
C44 H56 0.929 . S
C45 C44 1.363 . S
C45 N47 1.375 . S
C45 H63 0.931 . S
C46 N43 1.311 . S
C46 N47 1.347 . S
C46 H57 0.929 . S
N47 C45 1.375 . S
N47 C46 1.347 . S
C48 C51 1.365 . S
C48 N53 1.328 . S
C48 H54 0.929 . S
C49 C50 1.362 . S
C49 C52 1.378 . S
C49 H64 0.929 . S
C50 C49 1.362 . S
C50 C51 1.366 . S
C51 C48 1.365 . S
C51 C50 1.366 . S
C51 H65 0.930 . S
C52 C49 1.378 . S
C52 N53 1.315 . S
C52 H55 0.930 . S
N53 Co33 2.194 . S
N53 C48 1.328 . S
N53 C52 1.315 . S
H54 C48 0.929 . S
H55 C52 0.930 . S
H56 C44 0.929 . S
H57 C46 0.929 . S
O58 Co33 2.351 . S
O58 C61 1.244 . S
O59 Co33 2.155 . S
O59 C61 1.240 . S
O60 Co33 2.096 . S
O60 C41 1.247 . S
C61 O58 1.244 . S
C61 O59 1.240 . S
H62 C36 0.931 . S
H63 C45 0.931 . S
H64 C49 0.929 . S
H65 C51 0.930 . S
Co66 N70 2.148 . S
Co66 N76 2.128 . S
Co66 N86 2.194 . S
Co66 O91 2.351 . S
Co66 O92 2.155 . S
Co66 O93 2.096 . S
C67 N70 1.301 . S
C67 N71 1.328 . S
C67 H72 0.930 . S
C68 C69 1.333 . S
C68 N70 1.317 . S
C68 H73 0.930 . S
C69 C68 1.333 . S
C69 N71 1.350 . S
C69 H95 0.931 . S
N70 Co66 2.148 . S
N70 C67 1.301 . S
N70 C68 1.317 . S
N71 C67 1.328 . S
N71 C69 1.350 . S
H72 C67 0.930 . S
H73 C68 0.930 . S
C74 O75 1.224 . S
C74 O93 1.247 . S
O75 C74 1.224 . S
N76 Co66 2.128 . S
N76 C77 1.355 . S
N76 C79 1.311 . S
C77 N76 1.355 . S
C77 C78 1.363 . S
C77 H89 0.929 . S
C78 C77 1.363 . S
C78 N80 1.375 . S
C78 H96 0.931 . S
C79 N76 1.311 . S
C79 N80 1.347 . S
C79 H90 0.929 . S
N80 C78 1.375 . S
N80 C79 1.347 . S
C81 C84 1.365 . S
C81 N86 1.328 . S
C81 H87 0.929 . S
C82 C83 1.362 . S
C82 C85 1.378 . S
C82 H97 0.929 . S
C83 C82 1.362 . S
C83 C84 1.366 . S
C84 C81 1.365 . S
C84 C83 1.366 . S
C84 H98 0.930 . S
C85 C82 1.378 . S
C85 N86 1.315 . S
C85 H88 0.930 . S
N86 Co66 2.194 . S
N86 C81 1.328 . S
N86 C85 1.315 . S
H87 C81 0.929 . S
H88 C85 0.930 . S
H89 C77 0.929 . S
H90 C79 0.929 . S
O91 Co66 2.351 . S
O91 C94 1.244 . S
O92 Co66 2.155 . S
O92 C94 1.240 . S
O93 Co66 2.096 . S
O93 C74 1.247 . S
C94 O91 1.244 . S
C94 O92 1.240 . S
H95 C69 0.931 . S
H96 C78 0.931 . S
H97 C82 0.929 . S
H98 C84 0.930 . S
Co99 N103 2.148 . S
Co99 N109 2.128 . S
Co99 N119 2.194 . S
Co99 O124 2.351 . S
Co99 O125 2.155 . S
Co99 O126 2.096 . S
C100 N103 1.301 . S
C100 N104 1.328 . S
C100 H105 0.930 . S
C101 C102 1.333 . S
C101 N103 1.317 . S
C101 H106 0.930 . S
C102 C101 1.333 . S
C102 N104 1.350 . S
C102 H128 0.931 . S
N103 Co99 2.148 . S
N103 C100 1.301 . S
N103 C101 1.317 . S
N104 C100 1.328 . S
N104 C102 1.350 . S
H105 C100 0.930 . S
H106 C101 0.930 . S
C107 O108 1.224 . S
C107 O126 1.247 . S
O108 C107 1.224 . S
N109 Co99 2.128 . S
N109 C110 1.355 . S
N109 C112 1.311 . S
C110 N109 1.355 . S
C110 C111 1.363 . S
C110 H122 0.929 . S
C111 C110 1.363 . S
C111 N113 1.375 . S
C111 H129 0.931 . S
C112 N109 1.311 . S
C112 N113 1.347 . S
C112 H123 0.929 . S
N113 C111 1.375 . S
N113 C112 1.347 . S
C114 C117 1.365 . S
C114 N119 1.328 . S
C114 H120 0.929 . S
C115 C116 1.362 . S
C115 C118 1.378 . S
C115 H130 0.929 . S
C116 C115 1.362 . S
C116 C117 1.366 . S
C117 C114 1.365 . S
C117 C116 1.366 . S
C117 H131 0.930 . S
C118 C115 1.378 . S
C118 N119 1.315 . S
C118 H121 0.930 . S
N119 Co99 2.194 . S
N119 C114 1.328 . S
N119 C118 1.315 . S
H120 C114 0.929 . S
H121 C118 0.930 . S
H122 C110 0.929 . S
H123 C112 0.929 . S
O124 Co99 2.351 . S
O124 C127 1.244 . S
O125 Co99 2.155 . S
O125 C127 1.240 . S
O126 Co99 2.096 . S
O126 C107 1.247 . S
C127 O124 1.244 . S
C127 O125 1.240 . S
H128 C102 0.931 . S
H129 C111 0.931 . S
H130 C115 0.929 . S
H131 C117 0.930 . S
Co132 N136 2.148 . S
Co132 N142 2.128 . S
Co132 N152 2.194 . S
Co132 O157 2.351 . S
Co132 O158 2.155 . S
Co132 O159 2.096 . S
C133 N136 1.301 . S
C133 N137 1.328 . S
C133 H138 0.930 . S
C134 C135 1.333 . S
C134 N136 1.317 . S
C134 H139 0.930 . S
C135 C134 1.333 . S
C135 N137 1.350 . S
C135 H161 0.931 . S
N136 Co132 2.148 . S
N136 C133 1.301 . S
N136 C134 1.317 . S
N137 C133 1.328 . S
N137 C135 1.350 . S
H138 C133 0.930 . S
H139 C134 0.930 . S
C140 O141 1.224 . S
C140 O159 1.247 . S
O141 C140 1.224 . S
N142 Co132 2.128 . S
N142 C143 1.355 . S
N142 C145 1.311 . S
C143 N142 1.355 . S
C143 C144 1.363 . S
C143 H155 0.929 . S
C144 C143 1.363 . S
C144 N146 1.375 . S
C144 H162 0.931 . S
C145 N142 1.311 . S
C145 N146 1.347 . S
C145 H156 0.929 . S
N146 C144 1.375 . S
N146 C145 1.347 . S
C147 C150 1.365 . S
C147 N152 1.328 . S
C147 H153 0.929 . S
C148 C149 1.362 . S
C148 C151 1.378 . S
C148 H163 0.929 . S
C149 C148 1.362 . S
C149 C150 1.366 . S
C150 C147 1.365 . S
C150 C149 1.366 . S
C150 H164 0.930 . S
C151 C148 1.378 . S
C151 N152 1.315 . S
C151 H154 0.930 . S
N152 Co132 2.194 . S
N152 C147 1.328 . S
N152 C151 1.315 . S
H153 C147 0.929 . S
H154 C151 0.930 . S
H155 C143 0.929 . S
H156 C145 0.929 . S
O157 Co132 2.351 . S
O157 C160 1.244 . S
O158 Co132 2.155 . S
O158 C160 1.240 . S
O159 Co132 2.096 . S
O159 C140 1.247 . S
C160 O157 1.244 . S
C160 O158 1.240 . S
H161 C135 0.931 . S
H162 C144 0.931 . S
H163 C148 0.929 . S
H164 C150 0.930 . S
Co165 N169 2.148 . S
Co165 N175 2.128 . S
Co165 N185 2.194 . S
Co165 O190 2.351 . S
Co165 O191 2.155 . S
Co165 O192 2.096 . S
C166 N169 1.301 . S
C166 N170 1.328 . S
C166 H171 0.930 . S
C167 C168 1.333 . S
C167 N169 1.317 . S
C167 H172 0.930 . S
C168 C167 1.333 . S
C168 N170 1.350 . S
C168 H194 0.931 . S
N169 Co165 2.148 . S
N169 C166 1.301 . S
N169 C167 1.317 . S
N170 C166 1.328 . S
N170 C168 1.350 . S
H171 C166 0.930 . S
H172 C167 0.930 . S
C173 O174 1.224 . S
C173 O192 1.247 . S
O174 C173 1.224 . S
N175 Co165 2.128 . S
N175 C176 1.355 . S
N175 C178 1.311 . S
C176 N175 1.355 . S
C176 C177 1.363 . S
C176 H188 0.929 . S
C177 C176 1.363 . S
C177 N179 1.375 . S
C177 H195 0.931 . S
C178 N175 1.311 . S
C178 N179 1.347 . S
C178 H189 0.929 . S
N179 C177 1.375 . S
N179 C178 1.347 . S
C180 C183 1.365 . S
C180 N185 1.328 . S
C180 H186 0.929 . S
C181 C182 1.362 . S
C181 C184 1.378 . S
C181 H196 0.929 . S
C182 C181 1.362 . S
C182 C183 1.366 . S
C183 C180 1.365 . S
C183 C182 1.366 . S
C183 H197 0.930 . S
C184 C181 1.378 . S
C184 N185 1.315 . S
C184 H187 0.930 . S
N185 Co165 2.194 . S
N185 C180 1.328 . S
N185 C184 1.315 . S
H186 C180 0.929 . S
H187 C184 0.930 . S
H188 C176 0.929 . S
H189 C178 0.929 . S
O190 Co165 2.351 . S
O190 C193 1.244 . S
O191 Co165 2.155 . S
O191 C193 1.240 . S
O192 Co165 2.096 . S
O192 C173 1.247 . S
C193 O190 1.244 . S
C193 O191 1.240 . S
H194 C168 0.931 . S
H195 C177 0.931 . S
H196 C181 0.929 . S
H197 C183 0.930 . S
Co198 N202 2.148 . S
Co198 N208 2.128 . S
Co198 N218 2.194 . S
Co198 O223 2.351 . S
Co198 O224 2.155 . S
Co198 O225 2.096 . S
C199 N202 1.301 . S
C199 N203 1.328 . S
C199 H204 0.930 . S
C200 C201 1.333 . S
C200 N202 1.317 . S
C200 H205 0.930 . S
C201 C200 1.333 . S
C201 N203 1.350 . S
C201 H227 0.931 . S
N202 Co198 2.148 . S
N202 C199 1.301 . S
N202 C200 1.317 . S
N203 C199 1.328 . S
N203 C201 1.350 . S
H204 C199 0.930 . S
H205 C200 0.930 . S
C206 O207 1.224 . S
C206 O225 1.247 . S
O207 C206 1.224 . S
N208 Co198 2.128 . S
N208 C209 1.355 . S
N208 C211 1.311 . S
C209 N208 1.355 . S
C209 C210 1.363 . S
C209 H221 0.929 . S
C210 C209 1.363 . S
C210 N212 1.375 . S
C210 H228 0.931 . S
C211 N208 1.311 . S
C211 N212 1.347 . S
C211 H222 0.929 . S
N212 C210 1.375 . S
N212 C211 1.347 . S
C213 C216 1.365 . S
C213 N218 1.328 . S
C213 H219 0.929 . S
C214 C215 1.362 . S
C214 C217 1.378 . S
C214 H229 0.929 . S
C215 C214 1.362 . S
C215 C216 1.366 . S
C216 C213 1.365 . S
C216 C215 1.366 . S
C216 H230 0.930 . S
C217 C214 1.378 . S
C217 N218 1.315 . S
C217 H220 0.930 . S
N218 Co198 2.194 . S
N218 C213 1.328 . S
N218 C217 1.315 . S
H219 C213 0.929 . S
H220 C217 0.930 . S
H221 C209 0.929 . S
H222 C211 0.929 . S
O223 Co198 2.351 . S
O223 C226 1.244 . S
O224 Co198 2.155 . S
O224 C226 1.240 . S
O225 Co198 2.096 . S
O225 C206 1.247 . S
C226 O223 1.244 . S
C226 O224 1.240 . S
H227 C201 0.931 . S
H228 C210 0.931 . S
H229 C214 0.929 . S
H230 C216 0.930 . S
Co231 N235 2.148 . S
Co231 N241 2.128 . S
Co231 N251 2.194 . S
Co231 O256 2.351 . S
Co231 O257 2.155 . S
Co231 O258 2.096 . S
C232 N235 1.301 . S
C232 N236 1.328 . S
C232 H237 0.930 . S
C233 C234 1.333 . S
C233 N235 1.317 . S
C233 H238 0.930 . S
C234 C233 1.333 . S
C234 N236 1.350 . S
C234 H260 0.931 . S
N235 Co231 2.148 . S
N235 C232 1.301 . S
N235 C233 1.317 . S
N236 C232 1.328 . S
N236 C234 1.350 . S
H237 C232 0.930 . S
H238 C233 0.930 . S
C239 O240 1.224 . S
C239 O258 1.247 . S
O240 C239 1.224 . S
N241 Co231 2.128 . S
N241 C242 1.355 . S
N241 C244 1.311 . S
C242 N241 1.355 . S
C242 C243 1.363 . S
C242 H254 0.929 . S
C243 C242 1.363 . S
C243 N245 1.375 . S
C243 H261 0.931 . S
C244 N241 1.311 . S
C244 N245 1.347 . S
C244 H255 0.929 . S
N245 C243 1.375 . S
N245 C244 1.347 . S
C246 C249 1.365 . S
C246 N251 1.328 . S
C246 H252 0.929 . S
C247 C248 1.362 . S
C247 C250 1.378 . S
C247 H262 0.929 . S
C248 C247 1.362 . S
C248 C249 1.366 . S
C249 C246 1.365 . S
C249 C248 1.366 . S
C249 H263 0.930 . S
C250 C247 1.378 . S
C250 N251 1.315 . S
C250 H253 0.930 . S
N251 Co231 2.194 . S
N251 C246 1.328 . S
N251 C250 1.315 . S
H252 C246 0.929 . S
H253 C250 0.930 . S
H254 C242 0.929 . S
H255 C244 0.929 . S
O256 Co231 2.351 . S
O256 C259 1.244 . S
O257 Co231 2.155 . S
O257 C259 1.240 . S
O258 Co231 2.096 . S
O258 C239 1.247 . S
C259 O256 1.244 . S
C259 O257 1.240 . S
H260 C234 0.931 . S
H261 C243 0.931 . S
H262 C247 0.929 . S
H263 C249 0.930 . S
Co264 N268 2.148 . S
Co264 N274 2.128 . S
Co264 N284 2.194 . S
Co264 O289 2.351 . S
Co264 O290 2.155 . S
Co264 O291 2.096 . S
C265 N268 1.301 . S
C265 N269 1.328 . S
C265 H270 0.930 . S
C266 C267 1.333 . S
C266 N268 1.317 . S
C266 H271 0.930 . S
C267 C266 1.333 . S
C267 N269 1.350 . S
C267 H293 0.931 . S
N268 Co264 2.148 . S
N268 C265 1.301 . S
N268 C266 1.317 . S
N269 C265 1.328 . S
N269 C267 1.350 . S
H270 C265 0.930 . S
H271 C266 0.930 . S
C272 O273 1.224 . S
C272 O291 1.247 . S
O273 C272 1.224 . S
N274 Co264 2.128 . S
N274 C275 1.355 . S
N274 C277 1.311 . S
C275 N274 1.355 . S
C275 C276 1.363 . S
C275 H287 0.929 . S
C276 C275 1.363 . S
C276 N278 1.375 . S
C276 H294 0.931 . S
C277 N274 1.311 . S
C277 N278 1.347 . S
C277 H288 0.929 . S
N278 C276 1.375 . S
N278 C277 1.347 . S
C279 C282 1.365 . S
C279 N284 1.328 . S
C279 H285 0.929 . S
C280 C281 1.362 . S
C280 C283 1.378 . S
C280 H295 0.929 . S
C281 C280 1.362 . S
C281 C282 1.366 . S
C282 C279 1.365 . S
C282 C281 1.366 . S
C282 H296 0.930 . S
C283 C280 1.378 . S
C283 N284 1.315 . S
C283 H286 0.930 . S
N284 Co264 2.194 . S
N284 C279 1.328 . S
N284 C283 1.315 . S
H285 C279 0.929 . S
H286 C283 0.930 . S
H287 C275 0.929 . S
H288 C277 0.929 . S
O289 Co264 2.351 . S
O289 C292 1.244 . S
O290 Co264 2.155 . S
O290 C292 1.240 . S
O291 Co264 2.096 . S
O291 C272 1.247 . S
C292 O289 1.244 . S
C292 O290 1.240 . S
H293 C267 0.931 . S
H294 C276 0.931 . S
H295 C280 0.929 . S
H296 C282 0.930 . S
Co297 N301 2.148 . S
Co297 N307 2.128 . S
Co297 N317 2.194 . S
Co297 O322 2.351 . S
Co297 O323 2.155 . S
Co297 O324 2.096 . S
C298 N301 1.301 . S
C298 N302 1.328 . S
C298 H303 0.930 . S
C299 C300 1.333 . S
C299 N301 1.317 . S
C299 H304 0.930 . S
C300 C299 1.333 . S
C300 N302 1.350 . S
C300 H326 0.931 . S
N301 Co297 2.148 . S
N301 C298 1.301 . S
N301 C299 1.317 . S
N302 C298 1.328 . S
N302 C300 1.350 . S
H303 C298 0.930 . S
H304 C299 0.930 . S
C305 O306 1.224 . S
C305 O324 1.247 . S
O306 C305 1.224 . S
N307 Co297 2.128 . S
N307 C308 1.355 . S
N307 C310 1.311 . S
C308 N307 1.355 . S
C308 C309 1.363 . S
C308 H320 0.929 . S
C309 C308 1.363 . S
C309 N311 1.375 . S
C309 H327 0.931 . S
C310 N307 1.311 . S
C310 N311 1.347 . S
C310 H321 0.929 . S
N311 C309 1.375 . S
N311 C310 1.347 . S
C312 C315 1.365 . S
C312 N317 1.328 . S
C312 H318 0.929 . S
C313 C314 1.362 . S
C313 C316 1.378 . S
C313 H328 0.929 . S
C314 C313 1.362 . S
C314 C315 1.366 . S
C315 C312 1.365 . S
C315 C314 1.366 . S
C315 H329 0.930 . S
C316 C313 1.378 . S
C316 N317 1.315 . S
C316 H319 0.930 . S
N317 Co297 2.194 . S
N317 C312 1.328 . S
N317 C316 1.315 . S
H318 C312 0.929 . S
H319 C316 0.930 . S
H320 C308 0.929 . S
H321 C310 0.929 . S
O322 Co297 2.351 . S
O322 C325 1.244 . S
O323 Co297 2.155 . S
O323 C325 1.240 . S
O324 Co297 2.096 . S
O324 C305 1.247 . S
C325 O322 1.244 . S
C325 O323 1.240 . S
H326 C300 0.931 . S
H327 C309 0.931 . S
H328 C313 0.929 . S
H329 C315 0.930 . S
Co330 N334 2.148 . S
Co330 N340 2.128 . S
Co330 N350 2.194 . S
Co330 O355 2.351 . S
Co330 O356 2.155 . S
Co330 O357 2.096 . S
C331 N334 1.301 . S
C331 N335 1.328 . S
C331 H336 0.930 . S
C332 C333 1.333 . S
C332 N334 1.317 . S
C332 H337 0.930 . S
C333 C332 1.333 . S
C333 N335 1.350 . S
C333 H359 0.931 . S
N334 Co330 2.148 . S
N334 C331 1.301 . S
N334 C332 1.317 . S
N335 C331 1.328 . S
N335 C333 1.350 . S
H336 C331 0.930 . S
H337 C332 0.930 . S
C338 O339 1.224 . S
C338 O357 1.247 . S
O339 C338 1.224 . S
N340 Co330 2.128 . S
N340 C341 1.355 . S
N340 C343 1.311 . S
C341 N340 1.355 . S
C341 C342 1.363 . S
C341 H353 0.929 . S
C342 C341 1.363 . S
C342 N344 1.375 . S
C342 H360 0.931 . S
C343 N340 1.311 . S
C343 N344 1.347 . S
C343 H354 0.929 . S
N344 C342 1.375 . S
N344 C343 1.347 . S
C345 C348 1.365 . S
C345 N350 1.328 . S
C345 H351 0.929 . S
C346 C347 1.362 . S
C346 C349 1.378 . S
C346 H361 0.929 . S
C347 C346 1.362 . S
C347 C348 1.366 . S
C348 C345 1.365 . S
C348 C347 1.366 . S
C348 H362 0.930 . S
C349 C346 1.378 . S
C349 N350 1.315 . S
C349 H352 0.930 . S
N350 Co330 2.194 . S
N350 C345 1.328 . S
N350 C349 1.315 . S
H351 C345 0.929 . S
H352 C349 0.930 . S
H353 C341 0.929 . S
H354 C343 0.929 . S
O355 Co330 2.351 . S
O355 C358 1.244 . S
O356 Co330 2.155 . S
O356 C358 1.240 . S
O357 Co330 2.096 . S
O357 C338 1.247 . S
C358 O355 1.244 . S
C358 O356 1.240 . S
H359 C333 0.931 . S
H360 C342 0.931 . S
H361 C346 0.929 . S
H362 C348 0.930 . S
Co363 N367 2.148 . S
Co363 N373 2.128 . S
Co363 N383 2.194 . S
Co363 O388 2.351 . S
Co363 O389 2.155 . S
Co363 O390 2.096 . S
C364 N367 1.301 . S
C364 N368 1.328 . S
C364 H369 0.930 . S
C365 C366 1.333 . S
C365 N367 1.317 . S
C365 H370 0.930 . S
C366 C365 1.333 . S
C366 N368 1.350 . S
C366 H392 0.931 . S
N367 Co363 2.148 . S
N367 C364 1.301 . S
N367 C365 1.317 . S
N368 C364 1.328 . S
N368 C366 1.350 . S
H369 C364 0.930 . S
H370 C365 0.930 . S
C371 O372 1.224 . S
C371 O390 1.247 . S
O372 C371 1.224 . S
N373 Co363 2.128 . S
N373 C374 1.355 . S
N373 C376 1.311 . S
C374 N373 1.355 . S
C374 C375 1.363 . S
C374 H386 0.929 . S
C375 C374 1.363 . S
C375 N377 1.375 . S
C375 H393 0.931 . S
C376 N373 1.311 . S
C376 N377 1.347 . S
C376 H387 0.929 . S
N377 C375 1.375 . S
N377 C376 1.347 . S
C378 C381 1.365 . S
C378 N383 1.328 . S
C378 H384 0.929 . S
C379 C380 1.362 . S
C379 C382 1.378 . S
C379 H394 0.929 . S
C380 C379 1.362 . S
C380 C381 1.366 . S
C381 C378 1.365 . S
C381 C380 1.366 . S
C381 H395 0.930 . S
C382 C379 1.378 . S
C382 N383 1.315 . S
C382 H385 0.930 . S
N383 Co363 2.194 . S
N383 C378 1.328 . S
N383 C382 1.315 . S
H384 C378 0.929 . S
H385 C382 0.930 . S
H386 C374 0.929 . S
H387 C376 0.929 . S
O388 Co363 2.351 . S
O388 C391 1.244 . S
O389 Co363 2.155 . S
O389 C391 1.240 . S
O390 Co363 2.096 . S
O390 C371 1.247 . S
C391 O388 1.244 . S
C391 O389 1.240 . S
H392 C366 0.931 . S
H393 C375 0.931 . S
H394 C379 0.929 . S
H395 C381 0.930 . S
Co396 N400 2.148 . S
Co396 N406 2.128 . S
Co396 N416 2.194 . S
Co396 O421 2.351 . S
Co396 O422 2.155 . S
Co396 O423 2.096 . S
C397 N400 1.301 . S
C397 N401 1.328 . S
C397 H402 0.930 . S
C398 C399 1.333 . S
C398 N400 1.317 . S
C398 H403 0.930 . S
C399 C398 1.333 . S
C399 N401 1.350 . S
C399 H425 0.931 . S
N400 Co396 2.148 . S
N400 C397 1.301 . S
N400 C398 1.317 . S
N401 C397 1.328 . S
N401 C399 1.350 . S
H402 C397 0.930 . S
H403 C398 0.930 . S
C404 O405 1.224 . S
C404 O423 1.247 . S
O405 C404 1.224 . S
N406 Co396 2.128 . S
N406 C407 1.355 . S
N406 C409 1.311 . S
C407 N406 1.355 . S
C407 C408 1.363 . S
C407 H419 0.929 . S
C408 C407 1.363 . S
C408 N410 1.375 . S
C408 H426 0.931 . S
C409 N406 1.311 . S
C409 N410 1.347 . S
C409 H420 0.929 . S
N410 C408 1.375 . S
N410 C409 1.347 . S
C411 C414 1.365 . S
C411 N416 1.328 . S
C411 H417 0.929 . S
C412 C413 1.362 . S
C412 C415 1.378 . S
C412 H427 0.929 . S
C413 C412 1.362 . S
C413 C414 1.366 . S
C414 C411 1.365 . S
C414 C413 1.366 . S
C414 H428 0.930 . S
C415 C412 1.378 . S
C415 N416 1.315 . S
C415 H418 0.930 . S
N416 Co396 2.194 . S
N416 C411 1.328 . S
N416 C415 1.315 . S
H417 C411 0.929 . S
H418 C415 0.930 . S
H419 C407 0.929 . S
H420 C409 0.929 . S
O421 Co396 2.351 . S
O421 C424 1.244 . S
O422 Co396 2.155 . S
O422 C424 1.240 . S
O423 Co396 2.096 . S
O423 C404 1.247 . S
C424 O421 1.244 . S
C424 O422 1.240 . S
H425 C399 0.931 . S
H426 C408 0.931 . S
H427 C412 0.929 . S
H428 C414 0.930 . S
Co429 N433 2.148 . S
Co429 N439 2.128 . S
Co429 N449 2.194 . S
Co429 O454 2.351 . S
Co429 O455 2.155 . S
Co429 O456 2.096 . S
C430 N433 1.301 . S
C430 N434 1.328 . S
C430 H435 0.930 . S
C431 C432 1.333 . S
C431 N433 1.317 . S
C431 H436 0.930 . S
C432 C431 1.333 . S
C432 N434 1.350 . S
C432 H458 0.931 . S
N433 Co429 2.148 . S
N433 C430 1.301 . S
N433 C431 1.317 . S
N434 C430 1.328 . S
N434 C432 1.350 . S
H435 C430 0.930 . S
H436 C431 0.930 . S
C437 O438 1.224 . S
C437 O456 1.247 . S
O438 C437 1.224 . S
N439 Co429 2.128 . S
N439 C440 1.355 . S
N439 C442 1.311 . S
C440 N439 1.355 . S
C440 C441 1.363 . S
C440 H452 0.929 . S
C441 C440 1.363 . S
C441 N443 1.375 . S
C441 H459 0.931 . S
C442 N439 1.311 . S
C442 N443 1.347 . S
C442 H453 0.929 . S
N443 C441 1.375 . S
N443 C442 1.347 . S
C444 C447 1.365 . S
C444 N449 1.328 . S
C444 H450 0.929 . S
C445 C446 1.362 . S
C445 C448 1.378 . S
C445 H460 0.929 . S
C446 C445 1.362 . S
C446 C447 1.366 . S
C447 C444 1.365 . S
C447 C446 1.366 . S
C447 H461 0.930 . S
C448 C445 1.378 . S
C448 N449 1.315 . S
C448 H451 0.930 . S
N449 Co429 2.194 . S
N449 C444 1.328 . S
N449 C448 1.315 . S
H450 C444 0.929 . S
H451 C448 0.930 . S
H452 C440 0.929 . S
H453 C442 0.929 . S
O454 Co429 2.351 . S
O454 C457 1.244 . S
O455 Co429 2.155 . S
O455 C457 1.240 . S
O456 Co429 2.096 . S
O456 C437 1.247 . S
C457 O454 1.244 . S
C457 O455 1.240 . S
H458 C432 0.931 . S
H459 C441 0.931 . S
H460 C445 0.929 . S
H461 C447 0.930 . S
Co462 N466 2.148 . S
Co462 N472 2.128 . S
Co462 N482 2.194 . S
Co462 O487 2.351 . S
Co462 O488 2.155 . S
Co462 O489 2.096 . S
C463 N466 1.301 . S
C463 N467 1.328 . S
C463 H468 0.930 . S
C464 C465 1.333 . S
C464 N466 1.317 . S
C464 H469 0.930 . S
C465 C464 1.333 . S
C465 N467 1.350 . S
C465 H491 0.931 . S
N466 Co462 2.148 . S
N466 C463 1.301 . S
N466 C464 1.317 . S
N467 C463 1.328 . S
N467 C465 1.350 . S
H468 C463 0.930 . S
H469 C464 0.930 . S
C470 O471 1.224 . S
C470 O489 1.247 . S
O471 C470 1.224 . S
N472 Co462 2.128 . S
N472 C473 1.355 . S
N472 C475 1.311 . S
C473 N472 1.355 . S
C473 C474 1.363 . S
C473 H485 0.929 . S
C474 C473 1.363 . S
C474 N476 1.375 . S
C474 H492 0.931 . S
C475 N472 1.311 . S
C475 N476 1.347 . S
C475 H486 0.929 . S
N476 C474 1.375 . S
N476 C475 1.347 . S
C477 C480 1.365 . S
C477 N482 1.328 . S
C477 H483 0.929 . S
C478 C479 1.362 . S
C478 C481 1.378 . S
C478 H493 0.929 . S
C479 C478 1.362 . S
C479 C480 1.366 . S
C480 C477 1.365 . S
C480 C479 1.366 . S
C480 H494 0.930 . S
C481 C478 1.378 . S
C481 N482 1.315 . S
C481 H484 0.930 . S
N482 Co462 2.194 . S
N482 C477 1.328 . S
N482 C481 1.315 . S
H483 C477 0.929 . S
H484 C481 0.930 . S
H485 C473 0.929 . S
H486 C475 0.929 . S
O487 Co462 2.351 . S
O487 C490 1.244 . S
O488 Co462 2.155 . S
O488 C490 1.240 . S
O489 Co462 2.096 . S
O489 C470 1.247 . S
C490 O487 1.244 . S
C490 O488 1.240 . S
H491 C465 0.931 . S
H492 C474 0.931 . S
H493 C478 0.929 . S
H494 C480 0.930 . S
Co495 N499 2.148 . S
Co495 N505 2.128 . S
Co495 N515 2.194 . S
Co495 O520 2.351 . S
Co495 O521 2.155 . S
Co495 O522 2.096 . S
C496 N499 1.301 . S
C496 N500 1.328 . S
C496 H501 0.930 . S
C497 C498 1.333 . S
C497 N499 1.317 . S
C497 H502 0.930 . S
C498 C497 1.333 . S
C498 N500 1.350 . S
C498 H524 0.931 . S
N499 Co495 2.148 . S
N499 C496 1.301 . S
N499 C497 1.317 . S
N500 C496 1.328 . S
N500 C498 1.350 . S
H501 C496 0.930 . S
H502 C497 0.930 . S
C503 O504 1.224 . S
C503 O522 1.247 . S
O504 C503 1.224 . S
N505 Co495 2.128 . S
N505 C506 1.355 . S
N505 C508 1.311 . S
C506 N505 1.355 . S
C506 C507 1.363 . S
C506 H518 0.929 . S
C507 C506 1.363 . S
C507 N509 1.375 . S
C507 H525 0.931 . S
C508 N505 1.311 . S
C508 N509 1.347 . S
C508 H519 0.929 . S
N509 C507 1.375 . S
N509 C508 1.347 . S
C510 C513 1.365 . S
C510 N515 1.328 . S
C510 H516 0.929 . S
C511 C512 1.362 . S
C511 C514 1.378 . S
C511 H526 0.929 . S
C512 C511 1.362 . S
C512 C513 1.366 . S
C513 C510 1.365 . S
C513 C512 1.366 . S
C513 H527 0.930 . S
C514 C511 1.378 . S
C514 N515 1.315 . S
C514 H517 0.930 . S
N515 Co495 2.194 . S
N515 C510 1.328 . S
N515 C514 1.315 . S
H516 C510 0.929 . S
H517 C514 0.930 . S
H518 C506 0.929 . S
H519 C508 0.929 . S
O520 Co495 2.351 . S
O520 C523 1.244 . S
O521 Co495 2.155 . S
O521 C523 1.240 . S
O522 Co495 2.096 . S
O522 C503 1.247 . S
C523 O520 1.244 . S
C523 O521 1.240 . S
H524 C498 0.931 . S
H525 C507 0.931 . S
H526 C511 0.929 . S
H527 C513 0.930 . S
Co528 N532 2.148 . S
Co528 N538 2.128 . S
Co528 N548 2.194 . S
Co528 O553 2.351 . S
Co528 O554 2.155 . S
Co528 O555 2.096 . S
C529 N532 1.301 . S
C529 N533 1.328 . S
C529 H534 0.930 . S
C530 C531 1.333 . S
C530 N532 1.317 . S
C530 H535 0.930 . S
C531 C530 1.333 . S
C531 N533 1.350 . S
C531 H557 0.931 . S
N532 Co528 2.148 . S
N532 C529 1.301 . S
N532 C530 1.317 . S
N533 C529 1.328 . S
N533 C531 1.350 . S
H534 C529 0.930 . S
H535 C530 0.930 . S
C536 O537 1.224 . S
C536 O555 1.247 . S
O537 C536 1.224 . S
N538 Co528 2.128 . S
N538 C539 1.355 . S
N538 C541 1.311 . S
C539 N538 1.355 . S
C539 C540 1.363 . S
C539 H551 0.929 . S
C540 C539 1.363 . S
C540 N542 1.375 . S
C540 H558 0.931 . S
C541 N538 1.311 . S
C541 N542 1.347 . S
C541 H552 0.929 . S
N542 C540 1.375 . S
N542 C541 1.347 . S
C543 C546 1.365 . S
C543 N548 1.328 . S
C543 H549 0.929 . S
C544 C545 1.362 . S
C544 C547 1.378 . S
C544 H559 0.929 . S
C545 C544 1.362 . S
C545 C546 1.366 . S
C546 C543 1.365 . S
C546 C545 1.366 . S
C546 H560 0.930 . S
C547 C544 1.378 . S
C547 N548 1.315 . S
C547 H550 0.930 . S
N548 Co528 2.194 . S
N548 C543 1.328 . S
N548 C547 1.315 . S
H549 C543 0.929 . S
H550 C547 0.930 . S
H551 C539 0.929 . S
H552 C541 0.929 . S
O553 Co528 2.351 . S
O553 C556 1.244 . S
O554 Co528 2.155 . S
O554 C556 1.240 . S
O555 Co528 2.096 . S
O555 C536 1.247 . S
C556 O553 1.244 . S
C556 O554 1.240 . S
H557 C531 0.931 . S
H558 C540 0.931 . S
H559 C544 0.929 . S
H560 C546 0.930 . S
Co561 N565 2.148 . S
Co561 N571 2.128 . S
Co561 N581 2.194 . S
Co561 O586 2.351 . S
Co561 O587 2.155 . S
Co561 O588 2.096 . S
C562 N565 1.301 . S
C562 N566 1.328 . S
C562 H567 0.930 . S
C563 C564 1.333 . S
C563 N565 1.317 . S
C563 H568 0.930 . S
C564 C563 1.333 . S
C564 N566 1.350 . S
C564 H590 0.931 . S
N565 Co561 2.148 . S
N565 C562 1.301 . S
N565 C563 1.317 . S
N566 C562 1.328 . S
N566 C564 1.350 . S
H567 C562 0.930 . S
H568 C563 0.930 . S
C569 O570 1.224 . S
C569 O588 1.247 . S
O570 C569 1.224 . S
N571 Co561 2.128 . S
N571 C572 1.355 . S
N571 C574 1.311 . S
C572 N571 1.355 . S
C572 C573 1.363 . S
C572 H584 0.929 . S
C573 C572 1.363 . S
C573 N575 1.375 . S
C573 H591 0.931 . S
C574 N571 1.311 . S
C574 N575 1.347 . S
C574 H585 0.929 . S
N575 C573 1.375 . S
N575 C574 1.347 . S
C576 C579 1.365 . S
C576 N581 1.328 . S
C576 H582 0.929 . S
C577 C578 1.362 . S
C577 C580 1.378 . S
C577 H592 0.929 . S
C578 C577 1.362 . S
C578 C579 1.366 . S
C579 C576 1.365 . S
C579 C578 1.366 . S
C579 H593 0.930 . S
C580 C577 1.378 . S
C580 N581 1.315 . S
C580 H583 0.930 . S
N581 Co561 2.194 . S
N581 C576 1.328 . S
N581 C580 1.315 . S
H582 C576 0.929 . S
H583 C580 0.930 . S
H584 C572 0.929 . S
H585 C574 0.929 . S
O586 Co561 2.351 . S
O586 C589 1.244 . S
O587 Co561 2.155 . S
O587 C589 1.240 . S
O588 Co561 2.096 . S
O588 C569 1.247 . S
C589 O586 1.244 . S
C589 O587 1.240 . S
H590 C564 0.931 . S
H591 C573 0.931 . S
H592 C577 0.929 . S
H593 C579 0.930 . S
Co594 N598 2.148 . S
Co594 N604 2.128 . S
Co594 N614 2.194 . S
Co594 O619 2.351 . S
Co594 O620 2.155 . S
Co594 O621 2.096 . S
C595 N598 1.301 . S
C595 N599 1.328 . S
C595 H600 0.930 . S
C596 C597 1.333 . S
C596 N598 1.317 . S
C596 H601 0.930 . S
C597 C596 1.333 . S
C597 N599 1.350 . S
C597 H623 0.931 . S
N598 Co594 2.148 . S
N598 C595 1.301 . S
N598 C596 1.317 . S
N599 C595 1.328 . S
N599 C597 1.350 . S
H600 C595 0.930 . S
H601 C596 0.930 . S
C602 O603 1.224 . S
C602 O621 1.247 . S
O603 C602 1.224 . S
N604 Co594 2.128 . S
N604 C605 1.355 . S
N604 C607 1.311 . S
C605 N604 1.355 . S
C605 C606 1.363 . S
C605 H617 0.929 . S
C606 C605 1.363 . S
C606 N608 1.375 . S
C606 H624 0.931 . S
C607 N604 1.311 . S
C607 N608 1.347 . S
C607 H618 0.929 . S
N608 C606 1.375 . S
N608 C607 1.347 . S
C609 C612 1.365 . S
C609 N614 1.328 . S
C609 H615 0.929 . S
C610 C611 1.362 . S
C610 C613 1.378 . S
C610 H625 0.929 . S
C611 C610 1.362 . S
C611 C612 1.366 . S
C612 C609 1.365 . S
C612 C611 1.366 . S
C612 H626 0.930 . S
C613 C610 1.378 . S
C613 N614 1.315 . S
C613 H616 0.930 . S
N614 Co594 2.194 . S
N614 C609 1.328 . S
N614 C613 1.315 . S
H615 C609 0.929 . S
H616 C613 0.930 . S
H617 C605 0.929 . S
H618 C607 0.929 . S
O619 Co594 2.351 . S
O619 C622 1.244 . S
O620 Co594 2.155 . S
O620 C622 1.240 . S
O621 Co594 2.096 . S
O621 C602 1.247 . S
C622 O619 1.244 . S
C622 O620 1.240 . S
H623 C597 0.931 . S
H624 C606 0.931 . S
H625 C610 0.929 . S
H626 C612 0.930 . S
Co627 N631 2.148 . S
Co627 N637 2.128 . S
Co627 N647 2.194 . S
Co627 O652 2.351 . S
Co627 O653 2.155 . S
Co627 O654 2.096 . S
C628 N631 1.301 . S
C628 N632 1.328 . S
C628 H633 0.930 . S
C629 C630 1.333 . S
C629 N631 1.317 . S
C629 H634 0.930 . S
C630 C629 1.333 . S
C630 N632 1.350 . S
C630 H656 0.931 . S
N631 Co627 2.148 . S
N631 C628 1.301 . S
N631 C629 1.317 . S
N632 C628 1.328 . S
N632 C630 1.350 . S
H633 C628 0.930 . S
H634 C629 0.930 . S
C635 O636 1.224 . S
C635 O654 1.247 . S
O636 C635 1.224 . S
N637 Co627 2.128 . S
N637 C638 1.355 . S
N637 C640 1.311 . S
C638 N637 1.355 . S
C638 C639 1.363 . S
C638 H650 0.929 . S
C639 C638 1.363 . S
C639 N641 1.375 . S
C639 H657 0.931 . S
C640 N637 1.311 . S
C640 N641 1.347 . S
C640 H651 0.929 . S
N641 C639 1.375 . S
N641 C640 1.347 . S
C642 C645 1.365 . S
C642 N647 1.328 . S
C642 H648 0.929 . S
C643 C644 1.362 . S
C643 C646 1.378 . S
C643 H658 0.929 . S
C644 C643 1.362 . S
C644 C645 1.366 . S
C645 C642 1.365 . S
C645 C644 1.366 . S
C645 H659 0.930 . S
C646 C643 1.378 . S
C646 N647 1.315 . S
C646 H649 0.930 . S
N647 Co627 2.194 . S
N647 C642 1.328 . S
N647 C646 1.315 . S
H648 C642 0.929 . S
H649 C646 0.930 . S
H650 C638 0.929 . S
H651 C640 0.929 . S
O652 Co627 2.351 . S
O652 C655 1.244 . S
O653 Co627 2.155 . S
O653 C655 1.240 . S
O654 Co627 2.096 . S
O654 C635 1.247 . S
C655 O652 1.244 . S
C655 O653 1.240 . S
H656 C630 0.931 . S
H657 C639 0.931 . S
H658 C643 0.929 . S
H659 C645 0.930 . S
Co660 N664 2.148 . S
Co660 N670 2.128 . S
Co660 N680 2.194 . S
Co660 O685 2.351 . S
Co660 O686 2.155 . S
Co660 O687 2.096 . S
C661 N664 1.301 . S
C661 N665 1.328 . S
C661 H666 0.930 . S
C662 C663 1.333 . S
C662 N664 1.317 . S
C662 H667 0.930 . S
C663 C662 1.333 . S
C663 N665 1.350 . S
C663 H689 0.931 . S
N664 Co660 2.148 . S
N664 C661 1.301 . S
N664 C662 1.317 . S
N665 C661 1.328 . S
N665 C663 1.350 . S
H666 C661 0.930 . S
H667 C662 0.930 . S
C668 O669 1.224 . S
C668 O687 1.247 . S
O669 C668 1.224 . S
N670 Co660 2.128 . S
N670 C671 1.355 . S
N670 C673 1.311 . S
C671 N670 1.355 . S
C671 C672 1.363 . S
C671 H683 0.929 . S
C672 C671 1.363 . S
C672 N674 1.375 . S
C672 H690 0.931 . S
C673 N670 1.311 . S
C673 N674 1.347 . S
C673 H684 0.929 . S
N674 C672 1.375 . S
N674 C673 1.347 . S
C675 C678 1.365 . S
C675 N680 1.328 . S
C675 H681 0.929 . S
C676 C677 1.362 . S
C676 C679 1.378 . S
C676 H691 0.929 . S
C677 C676 1.362 . S
C677 C678 1.366 . S
C678 C675 1.365 . S
C678 C677 1.366 . S
C678 H692 0.930 . S
C679 C676 1.378 . S
C679 N680 1.315 . S
C679 H682 0.930 . S
N680 Co660 2.194 . S
N680 C675 1.328 . S
N680 C679 1.315 . S
H681 C675 0.929 . S
H682 C679 0.930 . S
H683 C671 0.929 . S
H684 C673 0.929 . S
O685 Co660 2.351 . S
O685 C688 1.244 . S
O686 Co660 2.155 . S
O686 C688 1.240 . S
O687 Co660 2.096 . S
O687 C668 1.247 . S
C688 O685 1.244 . S
C688 O686 1.240 . S
H689 C663 0.931 . S
H690 C672 0.931 . S
H691 C676 0.929 . S
H692 C678 0.930 . S
Co693 N697 2.148 . S
Co693 N703 2.128 . S
Co693 N713 2.194 . S
Co693 O718 2.351 . S
Co693 O719 2.155 . S
Co693 O720 2.096 . S
C694 N697 1.301 . S
C694 N698 1.328 . S
C694 H699 0.930 . S
C695 C696 1.333 . S
C695 N697 1.317 . S
C695 H700 0.930 . S
C696 C695 1.333 . S
C696 N698 1.350 . S
C696 H722 0.931 . S
N697 Co693 2.148 . S
N697 C694 1.301 . S
N697 C695 1.317 . S
N698 C694 1.328 . S
N698 C696 1.350 . S
H699 C694 0.930 . S
H700 C695 0.930 . S
C701 O702 1.224 . S
C701 O720 1.247 . S
O702 C701 1.224 . S
N703 Co693 2.128 . S
N703 C704 1.355 . S
N703 C706 1.311 . S
C704 N703 1.355 . S
C704 C705 1.363 . S
C704 H716 0.929 . S
C705 C704 1.363 . S
C705 N707 1.375 . S
C705 H723 0.931 . S
C706 N703 1.311 . S
C706 N707 1.347 . S
C706 H717 0.929 . S
N707 C705 1.375 . S
N707 C706 1.347 . S
C708 C711 1.365 . S
C708 N713 1.328 . S
C708 H714 0.929 . S
C709 C710 1.362 . S
C709 C712 1.378 . S
C709 H724 0.929 . S
C710 C709 1.362 . S
C710 C711 1.366 . S
C711 C708 1.365 . S
C711 C710 1.366 . S
C711 H725 0.930 . S
C712 C709 1.378 . S
C712 N713 1.315 . S
C712 H715 0.930 . S
N713 Co693 2.194 . S
N713 C708 1.328 . S
N713 C712 1.315 . S
H714 C708 0.929 . S
H715 C712 0.930 . S
H716 C704 0.929 . S
H717 C706 0.929 . S
O718 Co693 2.351 . S
O718 C721 1.244 . S
O719 Co693 2.155 . S
O719 C721 1.240 . S
O720 Co693 2.096 . S
O720 C701 1.247 . S
C721 O718 1.244 . S
C721 O719 1.240 . S
H722 C696 0.931 . S
H723 C705 0.931 . S
H724 C709 0.929 . S
H725 C711 0.930 . S
Co726 N730 2.148 . S
Co726 N736 2.128 . S
Co726 N746 2.194 . S
Co726 O751 2.351 . S
Co726 O752 2.155 . S
Co726 O753 2.096 . S
C727 N730 1.301 . S
C727 N731 1.328 . S
C727 H732 0.930 . S
C728 C729 1.333 . S
C728 N730 1.317 . S
C728 H733 0.930 . S
C729 C728 1.333 . S
C729 N731 1.350 . S
C729 H755 0.931 . S
N730 Co726 2.148 . S
N730 C727 1.301 . S
N730 C728 1.317 . S
N731 C727 1.328 . S
N731 C729 1.350 . S
H732 C727 0.930 . S
H733 C728 0.930 . S
C734 O735 1.224 . S
C734 O753 1.247 . S
O735 C734 1.224 . S
N736 Co726 2.128 . S
N736 C737 1.355 . S
N736 C739 1.311 . S
C737 N736 1.355 . S
C737 C738 1.363 . S
C737 H749 0.929 . S
C738 C737 1.363 . S
C738 N740 1.375 . S
C738 H756 0.931 . S
C739 N736 1.311 . S
C739 N740 1.347 . S
C739 H750 0.929 . S
N740 C738 1.375 . S
N740 C739 1.347 . S
C741 C744 1.365 . S
C741 N746 1.328 . S
C741 H747 0.929 . S
C742 C743 1.362 . S
C742 C745 1.378 . S
C742 H757 0.929 . S
C743 C742 1.362 . S
C743 C744 1.366 . S
C744 C741 1.365 . S
C744 C743 1.366 . S
C744 H758 0.930 . S
C745 C742 1.378 . S
C745 N746 1.315 . S
C745 H748 0.930 . S
N746 Co726 2.194 . S
N746 C741 1.328 . S
N746 C745 1.315 . S
H747 C741 0.929 . S
H748 C745 0.930 . S
H749 C737 0.929 . S
H750 C739 0.929 . S
O751 Co726 2.351 . S
O751 C754 1.244 . S
O752 Co726 2.155 . S
O752 C754 1.240 . S
O753 Co726 2.096 . S
O753 C734 1.247 . S
C754 O751 1.244 . S
C754 O752 1.240 . S
H755 C729 0.931 . S
H756 C738 0.931 . S
H757 C742 0.929 . S
H758 C744 0.930 . S
Co759 N763 2.148 . S
Co759 N769 2.128 . S
Co759 N779 2.194 . S
Co759 O784 2.351 . S
Co759 O785 2.155 . S
Co759 O786 2.096 . S
C760 N763 1.301 . S
C760 N764 1.328 . S
C760 H765 0.930 . S
C761 C762 1.333 . S
C761 N763 1.317 . S
C761 H766 0.930 . S
C762 C761 1.333 . S
C762 N764 1.350 . S
C762 H788 0.931 . S
N763 Co759 2.148 . S
N763 C760 1.301 . S
N763 C761 1.317 . S
N764 C760 1.328 . S
N764 C762 1.350 . S
H765 C760 0.930 . S
H766 C761 0.930 . S
C767 O768 1.224 . S
C767 O786 1.247 . S
O768 C767 1.224 . S
N769 Co759 2.128 . S
N769 C770 1.355 . S
N769 C772 1.311 . S
C770 N769 1.355 . S
C770 C771 1.363 . S
C770 H782 0.929 . S
C771 C770 1.363 . S
C771 N773 1.375 . S
C771 H789 0.931 . S
C772 N769 1.311 . S
C772 N773 1.347 . S
C772 H783 0.929 . S
N773 C771 1.375 . S
N773 C772 1.347 . S
C774 C777 1.365 . S
C774 N779 1.328 . S
C774 H780 0.929 . S
C775 C776 1.362 . S
C775 C778 1.378 . S
C775 H790 0.929 . S
C776 C775 1.362 . S
C776 C777 1.366 . S
C777 C774 1.365 . S
C777 C776 1.366 . S
C777 H791 0.930 . S
C778 C775 1.378 . S
C778 N779 1.315 . S
C778 H781 0.930 . S
N779 Co759 2.194 . S
N779 C774 1.328 . S
N779 C778 1.315 . S
H780 C774 0.929 . S
H781 C778 0.930 . S
H782 C770 0.929 . S
H783 C772 0.929 . S
O784 Co759 2.351 . S
O784 C787 1.244 . S
O785 Co759 2.155 . S
O785 C787 1.240 . S
O786 Co759 2.096 . S
O786 C767 1.247 . S
C787 O784 1.244 . S
C787 O785 1.240 . S
H788 C762 0.931 . S
H789 C771 0.931 . S
H790 C775 0.929 . S
H791 C777 0.930 . S
Co792 N796 2.148 . S
Co792 N802 2.128 . S
Co792 N812 2.194 . S
Co792 O817 2.351 . S
Co792 O818 2.155 . S
Co792 O819 2.096 . S
C793 N796 1.301 . S
C793 N797 1.328 . S
C793 H798 0.930 . S
C794 C795 1.333 . S
C794 N796 1.317 . S
C794 H799 0.930 . S
C795 C794 1.333 . S
C795 N797 1.350 . S
C795 H821 0.931 . S
N796 Co792 2.148 . S
N796 C793 1.301 . S
N796 C794 1.317 . S
N797 C793 1.328 . S
N797 C795 1.350 . S
H798 C793 0.930 . S
H799 C794 0.930 . S
C800 O801 1.224 . S
C800 O819 1.247 . S
O801 C800 1.224 . S
N802 Co792 2.128 . S
N802 C803 1.355 . S
N802 C805 1.311 . S
C803 N802 1.355 . S
C803 C804 1.363 . S
C803 H815 0.929 . S
C804 C803 1.363 . S
C804 N806 1.375 . S
C804 H822 0.931 . S
C805 N802 1.311 . S
C805 N806 1.347 . S
C805 H816 0.929 . S
N806 C804 1.375 . S
N806 C805 1.347 . S
C807 C810 1.365 . S
C807 N812 1.328 . S
C807 H813 0.929 . S
C808 C809 1.362 . S
C808 C811 1.378 . S
C808 H823 0.929 . S
C809 C808 1.362 . S
C809 C810 1.366 . S
C810 C807 1.365 . S
C810 C809 1.366 . S
C810 H824 0.930 . S
C811 C808 1.378 . S
C811 N812 1.315 . S
C811 H814 0.930 . S
N812 Co792 2.194 . S
N812 C807 1.328 . S
N812 C811 1.315 . S
H813 C807 0.929 . S
H814 C811 0.930 . S
H815 C803 0.929 . S
H816 C805 0.929 . S
O817 Co792 2.351 . S
O817 C820 1.244 . S
O818 Co792 2.155 . S
O818 C820 1.240 . S
O819 Co792 2.096 . S
O819 C800 1.247 . S
C820 O817 1.244 . S
C820 O818 1.240 . S
H821 C795 0.931 . S
H822 C804 0.931 . S
H823 C808 0.929 . S
H824 C810 0.930 . S
Co825 N829 2.148 . S
Co825 N835 2.128 . S
Co825 N845 2.194 . S
Co825 O850 2.351 . S
Co825 O851 2.155 . S
Co825 O852 2.096 . S
C826 N829 1.301 . S
C826 N830 1.328 . S
C826 H831 0.930 . S
C827 C828 1.333 . S
C827 N829 1.317 . S
C827 H832 0.930 . S
C828 C827 1.333 . S
C828 N830 1.350 . S
C828 H854 0.931 . S
N829 Co825 2.148 . S
N829 C826 1.301 . S
N829 C827 1.317 . S
N830 C826 1.328 . S
N830 C828 1.350 . S
H831 C826 0.930 . S
H832 C827 0.930 . S
C833 O834 1.224 . S
C833 O852 1.247 . S
O834 C833 1.224 . S
N835 Co825 2.128 . S
N835 C836 1.355 . S
N835 C838 1.311 . S
C836 N835 1.355 . S
C836 C837 1.363 . S
C836 H848 0.929 . S
C837 C836 1.363 . S
C837 N839 1.375 . S
C837 H855 0.931 . S
C838 N835 1.311 . S
C838 N839 1.347 . S
C838 H849 0.929 . S
N839 C837 1.375 . S
N839 C838 1.347 . S
C840 C843 1.365 . S
C840 N845 1.328 . S
C840 H846 0.929 . S
C841 C842 1.362 . S
C841 C844 1.378 . S
C841 H856 0.929 . S
C842 C841 1.362 . S
C842 C843 1.366 . S
C843 C840 1.365 . S
C843 C842 1.366 . S
C843 H857 0.930 . S
C844 C841 1.378 . S
C844 N845 1.315 . S
C844 H847 0.930 . S
N845 Co825 2.194 . S
N845 C840 1.328 . S
N845 C844 1.315 . S
H846 C840 0.929 . S
H847 C844 0.930 . S
H848 C836 0.929 . S
H849 C838 0.929 . S
O850 Co825 2.351 . S
O850 C853 1.244 . S
O851 Co825 2.155 . S
O851 C853 1.240 . S
O852 Co825 2.096 . S
O852 C833 1.247 . S
C853 O850 1.244 . S
C853 O851 1.240 . S
H854 C828 0.931 . S
H855 C837 0.931 . S
H856 C841 0.929 . S
H857 C843 0.930 . S
Co858 N862 2.148 . S
Co858 N868 2.128 . S
Co858 N878 2.194 . S
Co858 O883 2.351 . S
Co858 O884 2.155 . S
Co858 O885 2.096 . S
C859 N862 1.301 . S
C859 N863 1.328 . S
C859 H864 0.930 . S
C860 C861 1.333 . S
C860 N862 1.317 . S
C860 H865 0.930 . S
C861 C860 1.333 . S
C861 N863 1.350 . S
C861 H887 0.931 . S
N862 Co858 2.148 . S
N862 C859 1.301 . S
N862 C860 1.317 . S
N863 C859 1.328 . S
N863 C861 1.350 . S
H864 C859 0.930 . S
H865 C860 0.930 . S
C866 O867 1.224 . S
C866 O885 1.247 . S
O867 C866 1.224 . S
N868 Co858 2.128 . S
N868 C869 1.355 . S
N868 C871 1.311 . S
C869 N868 1.355 . S
C869 C870 1.363 . S
C869 H881 0.929 . S
C870 C869 1.363 . S
C870 N872 1.375 . S
C870 H888 0.931 . S
C871 N868 1.311 . S
C871 N872 1.347 . S
C871 H882 0.929 . S
N872 C870 1.375 . S
N872 C871 1.347 . S
C873 C876 1.365 . S
C873 N878 1.328 . S
C873 H879 0.929 . S
C874 C875 1.362 . S
C874 C877 1.378 . S
C874 H889 0.929 . S
C875 C874 1.362 . S
C875 C876 1.366 . S
C876 C873 1.365 . S
C876 C875 1.366 . S
C876 H890 0.930 . S
C877 C874 1.378 . S
C877 N878 1.315 . S
C877 H880 0.930 . S
N878 Co858 2.194 . S
N878 C873 1.328 . S
N878 C877 1.315 . S
H879 C873 0.929 . S
H880 C877 0.930 . S
H881 C869 0.929 . S
H882 C871 0.929 . S
O883 Co858 2.351 . S
O883 C886 1.244 . S
O884 Co858 2.155 . S
O884 C886 1.240 . S
O885 Co858 2.096 . S
O885 C866 1.247 . S
C886 O883 1.244 . S
C886 O884 1.240 . S
H887 C861 0.931 . S
H888 C870 0.931 . S
H889 C874 0.929 . S
H890 C876 0.930 . S
Co891 N895 2.148 . S
Co891 N901 2.128 . S
Co891 N911 2.194 . S
Co891 O916 2.351 . S
Co891 O917 2.155 . S
Co891 O918 2.096 . S
C892 N895 1.301 . S
C892 N896 1.328 . S
C892 H897 0.930 . S
C893 C894 1.333 . S
C893 N895 1.317 . S
C893 H898 0.930 . S
C894 C893 1.333 . S
C894 N896 1.350 . S
C894 H920 0.931 . S
N895 Co891 2.148 . S
N895 C892 1.301 . S
N895 C893 1.317 . S
N896 C892 1.328 . S
N896 C894 1.350 . S
H897 C892 0.930 . S
H898 C893 0.930 . S
C899 O900 1.224 . S
C899 O918 1.247 . S
O900 C899 1.224 . S
N901 Co891 2.128 . S
N901 C902 1.355 . S
N901 C904 1.311 . S
C902 N901 1.355 . S
C902 C903 1.363 . S
C902 H914 0.929 . S
C903 C902 1.363 . S
C903 N905 1.375 . S
C903 H921 0.931 . S
C904 N901 1.311 . S
C904 N905 1.347 . S
C904 H915 0.929 . S
N905 C903 1.375 . S
N905 C904 1.347 . S
C906 C909 1.365 . S
C906 N911 1.328 . S
C906 H912 0.929 . S
C907 C908 1.362 . S
C907 C910 1.378 . S
C907 H922 0.929 . S
C908 C907 1.362 . S
C908 C909 1.366 . S
C909 C906 1.365 . S
C909 C908 1.366 . S
C909 H923 0.930 . S
C910 C907 1.378 . S
C910 N911 1.315 . S
C910 H913 0.930 . S
N911 Co891 2.194 . S
N911 C906 1.328 . S
N911 C910 1.315 . S
H912 C906 0.929 . S
H913 C910 0.930 . S
H914 C902 0.929 . S
H915 C904 0.929 . S
O916 Co891 2.351 . S
O916 C919 1.244 . S
O917 Co891 2.155 . S
O917 C919 1.240 . S
O918 Co891 2.096 . S
O918 C899 1.247 . S
C919 O916 1.244 . S
C919 O917 1.240 . S
H920 C894 0.931 . S
H921 C903 0.931 . S
H922 C907 0.929 . S
H923 C909 0.930 . S
Co924 N928 2.148 . S
Co924 N934 2.128 . S
Co924 N944 2.194 . S
Co924 O949 2.351 . S
Co924 O950 2.155 . S
Co924 O951 2.096 . S
C925 N928 1.301 . S
C925 N929 1.328 . S
C925 H930 0.930 . S
C926 C927 1.333 . S
C926 N928 1.317 . S
C926 H931 0.930 . S
C927 C926 1.333 . S
C927 N929 1.350 . S
C927 H953 0.931 . S
N928 Co924 2.148 . S
N928 C925 1.301 . S
N928 C926 1.317 . S
N929 C925 1.328 . S
N929 C927 1.350 . S
H930 C925 0.930 . S
H931 C926 0.930 . S
C932 O933 1.224 . S
C932 O951 1.247 . S
O933 C932 1.224 . S
N934 Co924 2.128 . S
N934 C935 1.355 . S
N934 C937 1.311 . S
C935 N934 1.355 . S
C935 C936 1.363 . S
C935 H947 0.929 . S
C936 C935 1.363 . S
C936 N938 1.375 . S
C936 H954 0.931 . S
C937 N934 1.311 . S
C937 N938 1.347 . S
C937 H948 0.929 . S
N938 C936 1.375 . S
N938 C937 1.347 . S
C939 C942 1.365 . S
C939 N944 1.328 . S
C939 H945 0.929 . S
C940 C941 1.362 . S
C940 C943 1.378 . S
C940 H955 0.929 . S
C941 C940 1.362 . S
C941 C942 1.366 . S
C942 C939 1.365 . S
C942 C941 1.366 . S
C942 H956 0.930 . S
C943 C940 1.378 . S
C943 N944 1.315 . S
C943 H946 0.930 . S
N944 Co924 2.194 . S
N944 C939 1.328 . S
N944 C943 1.315 . S
H945 C939 0.929 . S
H946 C943 0.930 . S
H947 C935 0.929 . S
H948 C937 0.929 . S
O949 Co924 2.351 . S
O949 C952 1.244 . S
O950 Co924 2.155 . S
O950 C952 1.240 . S
O951 Co924 2.096 . S
O951 C932 1.247 . S
C952 O949 1.244 . S
C952 O950 1.240 . S
H953 C927 0.931 . S
H954 C936 0.931 . S
H955 C940 0.929 . S
H956 C942 0.930 . S
Co957 N961 2.148 . S
Co957 N967 2.128 . S
Co957 N977 2.194 . S
Co957 O982 2.351 . S
Co957 O983 2.155 . S
Co957 O984 2.096 . S
C958 N961 1.301 . S
C958 N962 1.328 . S
C958 H963 0.930 . S
C959 C960 1.333 . S
C959 N961 1.317 . S
C959 H964 0.930 . S
C960 C959 1.333 . S
C960 N962 1.350 . S
C960 H986 0.931 . S
N961 Co957 2.148 . S
N961 C958 1.301 . S
N961 C959 1.317 . S
N962 C958 1.328 . S
N962 C960 1.350 . S
H963 C958 0.930 . S
H964 C959 0.930 . S
C965 O966 1.224 . S
C965 O984 1.247 . S
O966 C965 1.224 . S
N967 Co957 2.128 . S
N967 C968 1.355 . S
N967 C970 1.311 . S
C968 N967 1.355 . S
C968 C969 1.363 . S
C968 H980 0.929 . S
C969 C968 1.363 . S
C969 N971 1.375 . S
C969 H987 0.931 . S
C970 N967 1.311 . S
C970 N971 1.347 . S
C970 H981 0.929 . S
N971 C969 1.375 . S
N971 C970 1.347 . S
C972 C975 1.365 . S
C972 N977 1.328 . S
C972 H978 0.929 . S
C973 C974 1.362 . S
C973 C976 1.378 . S
C973 H988 0.929 . S
C974 C973 1.362 . S
C974 C975 1.366 . S
C975 C972 1.365 . S
C975 C974 1.366 . S
C975 H989 0.930 . S
C976 C973 1.378 . S
C976 N977 1.315 . S
C976 H979 0.930 . S
N977 Co957 2.194 . S
N977 C972 1.328 . S
N977 C976 1.315 . S
H978 C972 0.929 . S
H979 C976 0.930 . S
H980 C968 0.929 . S
H981 C970 0.929 . S
O982 Co957 2.351 . S
O982 C985 1.244 . S
O983 Co957 2.155 . S
O983 C985 1.240 . S
O984 Co957 2.096 . S
O984 C965 1.247 . S
C985 O982 1.244 . S
C985 O983 1.240 . S
H986 C960 0.931 . S
H987 C969 0.931 . S
H988 C973 0.929 . S
H989 C975 0.930 . S
Co990 N994 2.148 . S
Co990 N1000 2.128 . S
Co990 N1010 2.194 . S
Co990 O1015 2.351 . S
Co990 O1016 2.155 . S
Co990 O1017 2.096 . S
C991 N994 1.301 . S
C991 N995 1.328 . S
C991 H996 0.930 . S
C992 C993 1.333 . S
C992 N994 1.317 . S
C992 H997 0.930 . S
C993 C992 1.333 . S
C993 N995 1.350 . S
C993 H1019 0.931 . S
N994 Co990 2.148 . S
N994 C991 1.301 . S
N994 C992 1.317 . S
N995 C991 1.328 . S
N995 C993 1.350 . S
H996 C991 0.930 . S
H997 C992 0.930 . S
C998 O999 1.224 . S
C998 O1017 1.247 . S
O999 C998 1.224 . S
N1000 Co990 2.128 . S
N1000 C1001 1.355 . S
N1000 C1003 1.311 . S
C1001 N1000 1.355 . S
C1001 C1002 1.363 . S
C1001 H1013 0.929 . S
C1002 C1001 1.363 . S
C1002 N1004 1.375 . S
C1002 H1020 0.931 . S
C1003 N1000 1.311 . S
C1003 N1004 1.347 . S
C1003 H1014 0.929 . S
N1004 C1002 1.375 . S
N1004 C1003 1.347 . S
C1005 C1008 1.365 . S
C1005 N1010 1.328 . S
C1005 H1011 0.929 . S
C1006 C1007 1.362 . S
C1006 C1009 1.378 . S
C1006 H1021 0.929 . S
C1007 C1006 1.362 . S
C1007 C1008 1.366 . S
C1008 C1005 1.365 . S
C1008 C1007 1.366 . S
C1008 H1022 0.930 . S
C1009 C1006 1.378 . S
C1009 N1010 1.315 . S
C1009 H1012 0.930 . S
N1010 Co990 2.194 . S
N1010 C1005 1.328 . S
N1010 C1009 1.315 . S
H1011 C1005 0.929 . S
H1012 C1009 0.930 . S
H1013 C1001 0.929 . S
H1014 C1003 0.929 . S
O1015 Co990 2.351 . S
O1015 C1018 1.244 . S
O1016 Co990 2.155 . S
O1016 C1018 1.240 . S
O1017 Co990 2.096 . S
O1017 C998 1.247 . S
C1018 O1015 1.244 . S
C1018 O1016 1.240 . S
H1019 C993 0.931 . S
H1020 C1002 0.931 . S
H1021 C1006 0.929 . S
H1022 C1008 0.930 . S
Co1023 N1027 2.148 . S
Co1023 N1033 2.128 . S
Co1023 N1043 2.194 . S
Co1023 O1048 2.351 . S
Co1023 O1049 2.155 . S
Co1023 O1050 2.096 . S
C1024 N1027 1.301 . S
C1024 N1028 1.328 . S
C1024 H1029 0.930 . S
C1025 C1026 1.333 . S
C1025 N1027 1.317 . S
C1025 H1030 0.930 . S
C1026 C1025 1.333 . S
C1026 N1028 1.350 . S
C1026 H1052 0.931 . S
N1027 Co1023 2.148 . S
N1027 C1024 1.301 . S
N1027 C1025 1.317 . S
N1028 C1024 1.328 . S
N1028 C1026 1.350 . S
H1029 C1024 0.930 . S
H1030 C1025 0.930 . S
C1031 O1032 1.224 . S
C1031 O1050 1.247 . S
O1032 C1031 1.224 . S
N1033 Co1023 2.128 . S
N1033 C1034 1.355 . S
N1033 C1036 1.311 . S
C1034 N1033 1.355 . S
C1034 C1035 1.363 . S
C1034 H1046 0.929 . S
C1035 C1034 1.363 . S
C1035 N1037 1.375 . S
C1035 H1053 0.931 . S
C1036 N1033 1.311 . S
C1036 N1037 1.347 . S
C1036 H1047 0.929 . S
N1037 C1035 1.375 . S
N1037 C1036 1.347 . S
C1038 C1041 1.365 . S
C1038 N1043 1.328 . S
C1038 H1044 0.929 . S
C1039 C1040 1.362 . S
C1039 C1042 1.378 . S
C1039 H1054 0.929 . S
C1040 C1039 1.362 . S
C1040 C1041 1.366 . S
C1041 C1038 1.365 . S
C1041 C1040 1.366 . S
C1041 H1055 0.930 . S
C1042 C1039 1.378 . S
C1042 N1043 1.315 . S
C1042 H1045 0.930 . S
N1043 Co1023 2.194 . S
N1043 C1038 1.328 . S
N1043 C1042 1.315 . S
H1044 C1038 0.929 . S
H1045 C1042 0.930 . S
H1046 C1034 0.929 . S
H1047 C1036 0.929 . S
O1048 Co1023 2.351 . S
O1048 C1051 1.244 . S
O1049 Co1023 2.155 . S
O1049 C1051 1.240 . S
O1050 Co1023 2.096 . S
O1050 C1031 1.247 . S
C1051 O1048 1.244 . S
C1051 O1049 1.240 . S
H1052 C1026 0.931 . S
H1053 C1035 0.931 . S
H1054 C1039 0.929 . S
H1055 C1041 0.930 . S
Co1056 N1060 2.148 . S
Co1056 N1066 2.128 . S
Co1056 N1076 2.194 . S
Co1056 O1081 2.351 . S
Co1056 O1082 2.155 . S
Co1056 O1083 2.096 . S
C1057 N1060 1.301 . S
C1057 N1061 1.328 . S
C1057 H1062 0.930 . S
C1058 C1059 1.333 . S
C1058 N1060 1.317 . S
C1058 H1063 0.930 . S
C1059 C1058 1.333 . S
C1059 N1061 1.350 . S
C1059 H1085 0.931 . S
N1060 Co1056 2.148 . S
N1060 C1057 1.301 . S
N1060 C1058 1.317 . S
N1061 C1057 1.328 . S
N1061 C1059 1.350 . S
H1062 C1057 0.930 . S
H1063 C1058 0.930 . S
C1064 O1065 1.224 . S
C1064 O1083 1.247 . S
O1065 C1064 1.224 . S
N1066 Co1056 2.128 . S
N1066 C1067 1.355 . S
N1066 C1069 1.311 . S
C1067 N1066 1.355 . S
C1067 C1068 1.363 . S
C1067 H1079 0.929 . S
C1068 C1067 1.363 . S
C1068 N1070 1.375 . S
C1068 H1086 0.931 . S
C1069 N1066 1.311 . S
C1069 N1070 1.347 . S
C1069 H1080 0.929 . S
N1070 C1068 1.375 . S
N1070 C1069 1.347 . S
C1071 C1074 1.365 . S
C1071 N1076 1.328 . S
C1071 H1077 0.929 . S
C1072 C1073 1.362 . S
C1072 C1075 1.378 . S
C1072 H1087 0.929 . S
C1073 C1072 1.362 . S
C1073 C1074 1.366 . S
C1074 C1071 1.365 . S
C1074 C1073 1.366 . S
C1074 H1088 0.930 . S
C1075 C1072 1.378 . S
C1075 N1076 1.315 . S
C1075 H1078 0.930 . S
N1076 Co1056 2.194 . S
N1076 C1071 1.328 . S
N1076 C1075 1.315 . S
H1077 C1071 0.929 . S
H1078 C1075 0.930 . S
H1079 C1067 0.929 . S
H1080 C1069 0.929 . S
O1081 Co1056 2.351 . S
O1081 C1084 1.244 . S
O1082 Co1056 2.155 . S
O1082 C1084 1.240 . S
O1083 Co1056 2.096 . S
O1083 C1064 1.247 . S
C1084 O1081 1.244 . S
C1084 O1082 1.240 . S
H1085 C1059 0.931 . S
H1086 C1068 0.931 . S
H1087 C1072 0.929 . S
H1088 C1074 0.930 . S
Co1089 N1093 2.148 . S
Co1089 N1099 2.128 . S
Co1089 N1109 2.194 . S
Co1089 O1114 2.351 . S
Co1089 O1115 2.155 . S
Co1089 O1116 2.096 . S
C1090 N1093 1.301 . S
C1090 N1094 1.328 . S
C1090 H1095 0.930 . S
C1091 C1092 1.333 . S
C1091 N1093 1.317 . S
C1091 H1096 0.930 . S
C1092 C1091 1.333 . S
C1092 N1094 1.350 . S
C1092 H1118 0.931 . S
N1093 Co1089 2.148 . S
N1093 C1090 1.301 . S
N1093 C1091 1.317 . S
N1094 C1090 1.328 . S
N1094 C1092 1.350 . S
H1095 C1090 0.930 . S
H1096 C1091 0.930 . S
C1097 O1098 1.224 . S
C1097 O1116 1.247 . S
O1098 C1097 1.224 . S
N1099 Co1089 2.128 . S
N1099 C1100 1.355 . S
N1099 C1102 1.311 . S
C1100 N1099 1.355 . S
C1100 C1101 1.363 . S
C1100 H1112 0.929 . S
C1101 C1100 1.363 . S
C1101 N1103 1.375 . S
C1101 H1119 0.931 . S
C1102 N1099 1.311 . S
C1102 N1103 1.347 . S
C1102 H1113 0.929 . S
N1103 C1101 1.375 . S
N1103 C1102 1.347 . S
C1104 C1107 1.365 . S
C1104 N1109 1.328 . S
C1104 H1110 0.929 . S
C1105 C1106 1.362 . S
C1105 C1108 1.378 . S
C1105 H1120 0.929 . S
C1106 C1105 1.362 . S
C1106 C1107 1.366 . S
C1107 C1104 1.365 . S
C1107 C1106 1.366 . S
C1107 H1121 0.930 . S
C1108 C1105 1.378 . S
C1108 N1109 1.315 . S
C1108 H1111 0.930 . S
N1109 Co1089 2.194 . S
N1109 C1104 1.328 . S
N1109 C1108 1.315 . S
H1110 C1104 0.929 . S
H1111 C1108 0.930 . S
H1112 C1100 0.929 . S
H1113 C1102 0.929 . S
O1114 Co1089 2.351 . S
O1114 C1117 1.244 . S
O1115 Co1089 2.155 . S
O1115 C1117 1.240 . S
O1116 Co1089 2.096 . S
O1116 C1097 1.247 . S
C1117 O1114 1.244 . S
C1117 O1115 1.240 . S
H1118 C1092 0.931 . S
H1119 C1101 0.931 . S
H1120 C1105 0.929 . S
H1121 C1107 0.930 . S
Co1122 N1126 2.148 . S
Co1122 N1132 2.128 . S
Co1122 N1142 2.194 . S
Co1122 O1147 2.351 . S
Co1122 O1148 2.155 . S
Co1122 O1149 2.096 . S
C1123 N1126 1.301 . S
C1123 N1127 1.328 . S
C1123 H1128 0.930 . S
C1124 C1125 1.333 . S
C1124 N1126 1.317 . S
C1124 H1129 0.930 . S
C1125 C1124 1.333 . S
C1125 N1127 1.350 . S
C1125 H1151 0.931 . S
N1126 Co1122 2.148 . S
N1126 C1123 1.301 . S
N1126 C1124 1.317 . S
N1127 C1123 1.328 . S
N1127 C1125 1.350 . S
H1128 C1123 0.930 . S
H1129 C1124 0.930 . S
C1130 O1131 1.224 . S
C1130 O1149 1.247 . S
O1131 C1130 1.224 . S
N1132 Co1122 2.128 . S
N1132 C1133 1.355 . S
N1132 C1135 1.311 . S
C1133 N1132 1.355 . S
C1133 C1134 1.363 . S
C1133 H1145 0.929 . S
C1134 C1133 1.363 . S
C1134 N1136 1.375 . S
C1134 H1152 0.931 . S
C1135 N1132 1.311 . S
C1135 N1136 1.347 . S
C1135 H1146 0.929 . S
N1136 C1134 1.375 . S
N1136 C1135 1.347 . S
C1137 C1140 1.365 . S
C1137 N1142 1.328 . S
C1137 H1143 0.929 . S
C1138 C1139 1.362 . S
C1138 C1141 1.378 . S
C1138 H1153 0.929 . S
C1139 C1138 1.362 . S
C1139 C1140 1.366 . S
C1140 C1137 1.365 . S
C1140 C1139 1.366 . S
C1140 H1154 0.930 . S
C1141 C1138 1.378 . S
C1141 N1142 1.315 . S
C1141 H1144 0.930 . S
N1142 Co1122 2.194 . S
N1142 C1137 1.328 . S
N1142 C1141 1.315 . S
H1143 C1137 0.929 . S
H1144 C1141 0.930 . S
H1145 C1133 0.929 . S
H1146 C1135 0.929 . S
O1147 Co1122 2.351 . S
O1147 C1150 1.244 . S
O1148 Co1122 2.155 . S
O1148 C1150 1.240 . S
O1149 Co1122 2.096 . S
O1149 C1130 1.247 . S
C1150 O1147 1.244 . S
C1150 O1148 1.240 . S
H1151 C1125 0.931 . S
H1152 C1134 0.931 . S
H1153 C1138 0.929 . S
H1154 C1140 0.930 . S
Co1155 N1159 2.148 . S
Co1155 N1165 2.128 . S
Co1155 N1175 2.194 . S
Co1155 O1180 2.351 . S
Co1155 O1181 2.155 . S
Co1155 O1182 2.096 . S
C1156 N1159 1.301 . S
C1156 N1160 1.328 . S
C1156 H1161 0.930 . S
C1157 C1158 1.333 . S
C1157 N1159 1.317 . S
C1157 H1162 0.930 . S
C1158 C1157 1.333 . S
C1158 N1160 1.350 . S
C1158 H1184 0.931 . S
N1159 Co1155 2.148 . S
N1159 C1156 1.301 . S
N1159 C1157 1.317 . S
N1160 C1156 1.328 . S
N1160 C1158 1.350 . S
H1161 C1156 0.930 . S
H1162 C1157 0.930 . S
C1163 O1164 1.224 . S
C1163 O1182 1.247 . S
O1164 C1163 1.224 . S
N1165 Co1155 2.128 . S
N1165 C1166 1.355 . S
N1165 C1168 1.311 . S
C1166 N1165 1.355 . S
C1166 C1167 1.363 . S
C1166 H1178 0.929 . S
C1167 C1166 1.363 . S
C1167 N1169 1.375 . S
C1167 H1185 0.931 . S
C1168 N1165 1.311 . S
C1168 N1169 1.347 . S
C1168 H1179 0.929 . S
N1169 C1167 1.375 . S
N1169 C1168 1.347 . S
C1170 C1173 1.365 . S
C1170 N1175 1.328 . S
C1170 H1176 0.929 . S
C1171 C1172 1.362 . S
C1171 C1174 1.378 . S
C1171 H1186 0.929 . S
C1172 C1171 1.362 . S
C1172 C1173 1.366 . S
C1173 C1170 1.365 . S
C1173 C1172 1.366 . S
C1173 H1187 0.930 . S
C1174 C1171 1.378 . S
C1174 N1175 1.315 . S
C1174 H1177 0.930 . S
N1175 Co1155 2.194 . S
N1175 C1170 1.328 . S
N1175 C1174 1.315 . S
H1176 C1170 0.929 . S
H1177 C1174 0.930 . S
H1178 C1166 0.929 . S
H1179 C1168 0.929 . S
O1180 Co1155 2.351 . S
O1180 C1183 1.244 . S
O1181 Co1155 2.155 . S
O1181 C1183 1.240 . S
O1182 Co1155 2.096 . S
O1182 C1163 1.247 . S
C1183 O1180 1.244 . S
C1183 O1181 1.240 . S
H1184 C1158 0.931 . S
H1185 C1167 0.931 . S
H1186 C1171 0.929 . S
H1187 C1173 0.930 . S
Co1188 N1192 2.148 . S
Co1188 N1198 2.128 . S
Co1188 N1208 2.194 . S
Co1188 O1213 2.351 . S
Co1188 O1214 2.155 . S
Co1188 O1215 2.096 . S
C1189 N1192 1.301 . S
C1189 N1193 1.328 . S
C1189 H1194 0.930 . S
C1190 C1191 1.333 . S
C1190 N1192 1.317 . S
C1190 H1195 0.930 . S
C1191 C1190 1.333 . S
C1191 N1193 1.350 . S
C1191 H1217 0.931 . S
N1192 Co1188 2.148 . S
N1192 C1189 1.301 . S
N1192 C1190 1.317 . S
N1193 C1189 1.328 . S
N1193 C1191 1.350 . S
H1194 C1189 0.930 . S
H1195 C1190 0.930 . S
C1196 O1197 1.224 . S
C1196 O1215 1.247 . S
O1197 C1196 1.224 . S
N1198 Co1188 2.128 . S
N1198 C1199 1.355 . S
N1198 C1201 1.311 . S
C1199 N1198 1.355 . S
C1199 C1200 1.363 . S
C1199 H1211 0.929 . S
C1200 C1199 1.363 . S
C1200 N1202 1.375 . S
C1200 H1218 0.931 . S
C1201 N1198 1.311 . S
C1201 N1202 1.347 . S
C1201 H1212 0.929 . S
N1202 C1200 1.375 . S
N1202 C1201 1.347 . S
C1203 C1206 1.365 . S
C1203 N1208 1.328 . S
C1203 H1209 0.929 . S
C1204 C1205 1.362 . S
C1204 C1207 1.378 . S
C1204 H1219 0.929 . S
C1205 C1204 1.362 . S
C1205 C1206 1.366 . S
C1206 C1203 1.365 . S
C1206 C1205 1.366 . S
C1206 H1220 0.930 . S
C1207 C1204 1.378 . S
C1207 N1208 1.315 . S
C1207 H1210 0.930 . S
N1208 Co1188 2.194 . S
N1208 C1203 1.328 . S
N1208 C1207 1.315 . S
H1209 C1203 0.929 . S
H1210 C1207 0.930 . S
H1211 C1199 0.929 . S
H1212 C1201 0.929 . S
O1213 Co1188 2.351 . S
O1213 C1216 1.244 . S
O1214 Co1188 2.155 . S
O1214 C1216 1.240 . S
O1215 Co1188 2.096 . S
O1215 C1196 1.247 . S
C1216 O1213 1.244 . S
C1216 O1214 1.240 . S
H1217 C1191 0.931 . S
H1218 C1200 0.931 . S
H1219 C1204 0.929 . S
H1220 C1206 0.930 . S
Co1221 N1225 2.148 . S
Co1221 N1231 2.128 . S
Co1221 N1241 2.194 . S
Co1221 O1246 2.351 . S
Co1221 O1247 2.155 . S
Co1221 O1248 2.096 . S
C1222 N1225 1.301 . S
C1222 N1226 1.328 . S
C1222 H1227 0.930 . S
C1223 C1224 1.333 . S
C1223 N1225 1.317 . S
C1223 H1228 0.930 . S
C1224 C1223 1.333 . S
C1224 N1226 1.350 . S
C1224 H1250 0.931 . S
N1225 Co1221 2.148 . S
N1225 C1222 1.301 . S
N1225 C1223 1.317 . S
N1226 C1222 1.328 . S
N1226 C1224 1.350 . S
H1227 C1222 0.930 . S
H1228 C1223 0.930 . S
C1229 O1230 1.224 . S
C1229 O1248 1.247 . S
O1230 C1229 1.224 . S
N1231 Co1221 2.128 . S
N1231 C1232 1.355 . S
N1231 C1234 1.311 . S
C1232 N1231 1.355 . S
C1232 C1233 1.363 . S
C1232 H1244 0.929 . S
C1233 C1232 1.363 . S
C1233 N1235 1.375 . S
C1233 H1251 0.931 . S
C1234 N1231 1.311 . S
C1234 N1235 1.347 . S
C1234 H1245 0.929 . S
N1235 C1233 1.375 . S
N1235 C1234 1.347 . S
C1236 C1239 1.365 . S
C1236 N1241 1.328 . S
C1236 H1242 0.929 . S
C1237 C1238 1.362 . S
C1237 C1240 1.378 . S
C1237 H1252 0.929 . S
C1238 C1237 1.362 . S
C1238 C1239 1.366 . S
C1239 C1236 1.365 . S
C1239 C1238 1.366 . S
C1239 H1253 0.930 . S
C1240 C1237 1.378 . S
C1240 N1241 1.315 . S
C1240 H1243 0.930 . S
N1241 Co1221 2.194 . S
N1241 C1236 1.328 . S
N1241 C1240 1.315 . S
H1242 C1236 0.929 . S
H1243 C1240 0.930 . S
H1244 C1232 0.929 . S
H1245 C1234 0.929 . S
O1246 Co1221 2.351 . S
O1246 C1249 1.244 . S
O1247 Co1221 2.155 . S
O1247 C1249 1.240 . S
O1248 Co1221 2.096 . S
O1248 C1229 1.247 . S
C1249 O1246 1.244 . S
C1249 O1247 1.240 . S
H1250 C1224 0.931 . S
H1251 C1233 0.931 . S
H1252 C1237 0.929 . S
H1253 C1239 0.930 . S
Co1254 N1258 2.148 . S
Co1254 N1264 2.128 . S
Co1254 N1274 2.194 . S
Co1254 O1279 2.351 . S
Co1254 O1280 2.155 . S
Co1254 O1281 2.096 . S
C1255 N1258 1.301 . S
C1255 N1259 1.328 . S
C1255 H1260 0.930 . S
C1256 C1257 1.333 . S
C1256 N1258 1.317 . S
C1256 H1261 0.930 . S
C1257 C1256 1.333 . S
C1257 N1259 1.350 . S
C1257 H1283 0.931 . S
N1258 Co1254 2.148 . S
N1258 C1255 1.301 . S
N1258 C1256 1.317 . S
N1259 C1255 1.328 . S
N1259 C1257 1.350 . S
H1260 C1255 0.930 . S
H1261 C1256 0.930 . S
C1262 O1263 1.224 . S
C1262 O1281 1.247 . S
O1263 C1262 1.224 . S
N1264 Co1254 2.128 . S
N1264 C1265 1.355 . S
N1264 C1267 1.311 . S
C1265 N1264 1.355 . S
C1265 C1266 1.363 . S
C1265 H1277 0.929 . S
C1266 C1265 1.363 . S
C1266 N1268 1.375 . S
C1266 H1284 0.931 . S
C1267 N1264 1.311 . S
C1267 N1268 1.347 . S
C1267 H1278 0.929 . S
N1268 C1266 1.375 . S
N1268 C1267 1.347 . S
C1269 C1272 1.365 . S
C1269 N1274 1.328 . S
C1269 H1275 0.929 . S
C1270 C1271 1.362 . S
C1270 C1273 1.378 . S
C1270 H1285 0.929 . S
C1271 C1270 1.362 . S
C1271 C1272 1.366 . S
C1272 C1269 1.365 . S
C1272 C1271 1.366 . S
C1272 H1286 0.930 . S
C1273 C1270 1.378 . S
C1273 N1274 1.315 . S
C1273 H1276 0.930 . S
N1274 Co1254 2.194 . S
N1274 C1269 1.328 . S
N1274 C1273 1.315 . S
H1275 C1269 0.929 . S
H1276 C1273 0.930 . S
H1277 C1265 0.929 . S
H1278 C1267 0.929 . S
O1279 Co1254 2.351 . S
O1279 C1282 1.244 . S
O1280 Co1254 2.155 . S
O1280 C1282 1.240 . S
O1281 Co1254 2.096 . S
O1281 C1262 1.247 . S
C1282 O1279 1.244 . S
C1282 O1280 1.240 . S
H1283 C1257 0.931 . S
H1284 C1266 0.931 . S
H1285 C1270 0.929 . S
H1286 C1272 0.930 . S
Co1287 N1291 2.148 . S
Co1287 N1297 2.128 . S
Co1287 N1307 2.194 . S
Co1287 O1312 2.351 . S
Co1287 O1313 2.155 . S
Co1287 O1314 2.096 . S
C1288 N1291 1.301 . S
C1288 N1292 1.328 . S
C1288 H1293 0.930 . S
C1289 C1290 1.333 . S
C1289 N1291 1.317 . S
C1289 H1294 0.930 . S
C1290 C1289 1.333 . S
C1290 N1292 1.350 . S
C1290 H1316 0.931 . S
N1291 Co1287 2.148 . S
N1291 C1288 1.301 . S
N1291 C1289 1.317 . S
N1292 C1288 1.328 . S
N1292 C1290 1.350 . S
H1293 C1288 0.930 . S
H1294 C1289 0.930 . S
C1295 O1296 1.224 . S
C1295 O1314 1.247 . S
O1296 C1295 1.224 . S
N1297 Co1287 2.128 . S
N1297 C1298 1.355 . S
N1297 C1300 1.311 . S
C1298 N1297 1.355 . S
C1298 C1299 1.363 . S
C1298 H1310 0.929 . S
C1299 C1298 1.363 . S
C1299 N1301 1.375 . S
C1299 H1317 0.931 . S
C1300 N1297 1.311 . S
C1300 N1301 1.347 . S
C1300 H1311 0.929 . S
N1301 C1299 1.375 . S
N1301 C1300 1.347 . S
C1302 C1305 1.365 . S
C1302 N1307 1.328 . S
C1302 H1308 0.929 . S
C1303 C1304 1.362 . S
C1303 C1306 1.378 . S
C1303 H1318 0.929 . S
C1304 C1303 1.362 . S
C1304 C1305 1.366 . S
C1305 C1302 1.365 . S
C1305 C1304 1.366 . S
C1305 H1319 0.930 . S
C1306 C1303 1.378 . S
C1306 N1307 1.315 . S
C1306 H1309 0.930 . S
N1307 Co1287 2.194 . S
N1307 C1302 1.328 . S
N1307 C1306 1.315 . S
H1308 C1302 0.929 . S
H1309 C1306 0.930 . S
H1310 C1298 0.929 . S
H1311 C1300 0.929 . S
O1312 Co1287 2.351 . S
O1312 C1315 1.244 . S
O1313 Co1287 2.155 . S
O1313 C1315 1.240 . S
O1314 Co1287 2.096 . S
O1314 C1295 1.247 . S
C1315 O1312 1.244 . S
C1315 O1313 1.240 . S
H1316 C1290 0.931 . S
H1317 C1299 0.931 . S
H1318 C1303 0.929 . S
H1319 C1305 0.930 . S
Co1320 N1324 2.148 . S
Co1320 N1330 2.128 . S
Co1320 N1340 2.194 . S
Co1320 O1345 2.351 . S
Co1320 O1346 2.155 . S
Co1320 O1347 2.096 . S
C1321 N1324 1.301 . S
C1321 N1325 1.328 . S
C1321 H1326 0.930 . S
C1322 C1323 1.333 . S
C1322 N1324 1.317 . S
C1322 H1327 0.930 . S
C1323 C1322 1.333 . S
C1323 N1325 1.350 . S
C1323 H1349 0.931 . S
N1324 Co1320 2.148 . S
N1324 C1321 1.301 . S
N1324 C1322 1.317 . S
N1325 C1321 1.328 . S
N1325 C1323 1.350 . S
H1326 C1321 0.930 . S
H1327 C1322 0.930 . S
C1328 O1329 1.224 . S
C1328 O1347 1.247 . S
O1329 C1328 1.224 . S
N1330 Co1320 2.128 . S
N1330 C1331 1.355 . S
N1330 C1333 1.311 . S
C1331 N1330 1.355 . S
C1331 C1332 1.363 . S
C1331 H1343 0.929 . S
C1332 C1331 1.363 . S
C1332 N1334 1.375 . S
C1332 H1350 0.931 . S
C1333 N1330 1.311 . S
C1333 N1334 1.347 . S
C1333 H1344 0.929 . S
N1334 C1332 1.375 . S
N1334 C1333 1.347 . S
C1335 C1338 1.365 . S
C1335 N1340 1.328 . S
C1335 H1341 0.929 . S
C1336 C1337 1.362 . S
C1336 C1339 1.378 . S
C1336 H1351 0.929 . S
C1337 C1336 1.362 . S
C1337 C1338 1.366 . S
C1338 C1335 1.365 . S
C1338 C1337 1.366 . S
C1338 H1352 0.930 . S
C1339 C1336 1.378 . S
C1339 N1340 1.315 . S
C1339 H1342 0.930 . S
N1340 Co1320 2.194 . S
N1340 C1335 1.328 . S
N1340 C1339 1.315 . S
H1341 C1335 0.929 . S
H1342 C1339 0.930 . S
H1343 C1331 0.929 . S
H1344 C1333 0.929 . S
O1345 Co1320 2.351 . S
O1345 C1348 1.244 . S
O1346 Co1320 2.155 . S
O1346 C1348 1.240 . S
O1347 Co1320 2.096 . S
O1347 C1328 1.247 . S
C1348 O1345 1.244 . S
C1348 O1346 1.240 . S
H1349 C1323 0.931 . S
H1350 C1332 0.931 . S
H1351 C1336 0.929 . S
H1352 C1338 0.930 . S
Co1353 N1357 2.148 . S
Co1353 N1363 2.128 . S
Co1353 N1373 2.194 . S
Co1353 O1378 2.351 . S
Co1353 O1379 2.155 . S
Co1353 O1380 2.096 . S
C1354 N1357 1.301 . S
C1354 N1358 1.328 . S
C1354 H1359 0.930 . S
C1355 C1356 1.333 . S
C1355 N1357 1.317 . S
C1355 H1360 0.930 . S
C1356 C1355 1.333 . S
C1356 N1358 1.350 . S
C1356 H1382 0.931 . S
N1357 Co1353 2.148 . S
N1357 C1354 1.301 . S
N1357 C1355 1.317 . S
N1358 C1354 1.328 . S
N1358 C1356 1.350 . S
H1359 C1354 0.930 . S
H1360 C1355 0.930 . S
C1361 O1362 1.224 . S
C1361 O1380 1.247 . S
O1362 C1361 1.224 . S
N1363 Co1353 2.128 . S
N1363 C1364 1.355 . S
N1363 C1366 1.311 . S
C1364 N1363 1.355 . S
C1364 C1365 1.363 . S
C1364 H1376 0.929 . S
C1365 C1364 1.363 . S
C1365 N1367 1.375 . S
C1365 H1383 0.931 . S
C1366 N1363 1.311 . S
C1366 N1367 1.347 . S
C1366 H1377 0.929 . S
N1367 C1365 1.375 . S
N1367 C1366 1.347 . S
C1368 C1371 1.365 . S
C1368 N1373 1.328 . S
C1368 H1374 0.929 . S
C1369 C1370 1.362 . S
C1369 C1372 1.378 . S
C1369 H1384 0.929 . S
C1370 C1369 1.362 . S
C1370 C1371 1.366 . S
C1371 C1368 1.365 . S
C1371 C1370 1.366 . S
C1371 H1385 0.930 . S
C1372 C1369 1.378 . S
C1372 N1373 1.315 . S
C1372 H1375 0.930 . S
N1373 Co1353 2.194 . S
N1373 C1368 1.328 . S
N1373 C1372 1.315 . S
H1374 C1368 0.929 . S
H1375 C1372 0.930 . S
H1376 C1364 0.929 . S
H1377 C1366 0.929 . S
O1378 Co1353 2.351 . S
O1378 C1381 1.244 . S
O1379 Co1353 2.155 . S
O1379 C1381 1.240 . S
O1380 Co1353 2.096 . S
O1380 C1361 1.247 . S
C1381 O1378 1.244 . S
C1381 O1379 1.240 . S
H1382 C1356 0.931 . S
H1383 C1365 0.931 . S
H1384 C1369 0.929 . S
H1385 C1371 0.930 . S
Co1386 N1390 2.148 . S
Co1386 N1396 2.128 . S
Co1386 N1406 2.194 . S
Co1386 O1411 2.351 . S
Co1386 O1412 2.155 . S
Co1386 O1413 2.096 . S
C1387 N1390 1.301 . S
C1387 N1391 1.328 . S
C1387 H1392 0.930 . S
C1388 C1389 1.333 . S
C1388 N1390 1.317 . S
C1388 H1393 0.930 . S
C1389 C1388 1.333 . S
C1389 N1391 1.350 . S
C1389 H1415 0.931 . S
N1390 Co1386 2.148 . S
N1390 C1387 1.301 . S
N1390 C1388 1.317 . S
N1391 C1387 1.328 . S
N1391 C1389 1.350 . S
H1392 C1387 0.930 . S
H1393 C1388 0.930 . S
C1394 O1395 1.224 . S
C1394 O1413 1.247 . S
O1395 C1394 1.224 . S
N1396 Co1386 2.128 . S
N1396 C1397 1.355 . S
N1396 C1399 1.311 . S
C1397 N1396 1.355 . S
C1397 C1398 1.363 . S
C1397 H1409 0.929 . S
C1398 C1397 1.363 . S
C1398 N1400 1.375 . S
C1398 H1416 0.931 . S
C1399 N1396 1.311 . S
C1399 N1400 1.347 . S
C1399 H1410 0.929 . S
N1400 C1398 1.375 . S
N1400 C1399 1.347 . S
C1401 C1404 1.365 . S
C1401 N1406 1.328 . S
C1401 H1407 0.929 . S
C1402 C1403 1.362 . S
C1402 C1405 1.378 . S
C1402 H1417 0.929 . S
C1403 C1402 1.362 . S
C1403 C1404 1.366 . S
C1404 C1401 1.365 . S
C1404 C1403 1.366 . S
C1404 H1418 0.930 . S
C1405 C1402 1.378 . S
C1405 N1406 1.315 . S
C1405 H1408 0.930 . S
N1406 Co1386 2.194 . S
N1406 C1401 1.328 . S
N1406 C1405 1.315 . S
H1407 C1401 0.929 . S
H1408 C1405 0.930 . S
H1409 C1397 0.929 . S
H1410 C1399 0.929 . S
O1411 Co1386 2.351 . S
O1411 C1414 1.244 . S
O1412 Co1386 2.155 . S
O1412 C1414 1.240 . S
O1413 Co1386 2.096 . S
O1413 C1394 1.247 . S
C1414 O1411 1.244 . S
C1414 O1412 1.240 . S
H1415 C1389 0.931 . S
H1416 C1398 0.931 . S
H1417 C1402 0.929 . S
H1418 C1404 0.930 . S
Co1419 N1423 2.148 . S
Co1419 N1429 2.128 . S
Co1419 N1439 2.194 . S
Co1419 O1444 2.351 . S
Co1419 O1445 2.155 . S
Co1419 O1446 2.096 . S
C1420 N1423 1.301 . S
C1420 N1424 1.328 . S
C1420 H1425 0.930 . S
C1421 C1422 1.333 . S
C1421 N1423 1.317 . S
C1421 H1426 0.930 . S
C1422 C1421 1.333 . S
C1422 N1424 1.350 . S
C1422 H1448 0.931 . S
N1423 Co1419 2.148 . S
N1423 C1420 1.301 . S
N1423 C1421 1.317 . S
N1424 C1420 1.328 . S
N1424 C1422 1.350 . S
H1425 C1420 0.930 . S
H1426 C1421 0.930 . S
C1427 O1428 1.224 . S
C1427 O1446 1.247 . S
O1428 C1427 1.224 . S
N1429 Co1419 2.128 . S
N1429 C1430 1.355 . S
N1429 C1432 1.311 . S
C1430 N1429 1.355 . S
C1430 C1431 1.363 . S
C1430 H1442 0.929 . S
C1431 C1430 1.363 . S
C1431 N1433 1.375 . S
C1431 H1449 0.931 . S
C1432 N1429 1.311 . S
C1432 N1433 1.347 . S
C1432 H1443 0.929 . S
N1433 C1431 1.375 . S
N1433 C1432 1.347 . S
C1434 C1437 1.365 . S
C1434 N1439 1.328 . S
C1434 H1440 0.929 . S
C1435 C1436 1.362 . S
C1435 C1438 1.378 . S
C1435 H1450 0.929 . S
C1436 C1435 1.362 . S
C1436 C1437 1.366 . S
C1437 C1434 1.365 . S
C1437 C1436 1.366 . S
C1437 H1451 0.930 . S
C1438 C1435 1.378 . S
C1438 N1439 1.315 . S
C1438 H1441 0.930 . S
N1439 Co1419 2.194 . S
N1439 C1434 1.328 . S
N1439 C1438 1.315 . S
H1440 C1434 0.929 . S
H1441 C1438 0.930 . S
H1442 C1430 0.929 . S
H1443 C1432 0.929 . S
O1444 Co1419 2.351 . S
O1444 C1447 1.244 . S
O1445 Co1419 2.155 . S
O1445 C1447 1.240 . S
O1446 Co1419 2.096 . S
O1446 C1427 1.247 . S
C1447 O1444 1.244 . S
C1447 O1445 1.240 . S
H1448 C1422 0.931 . S
H1449 C1431 0.931 . S
H1450 C1435 0.929 . S
H1451 C1437 0.930 . S
Co1452 N1456 2.148 . S
Co1452 N1462 2.128 . S
Co1452 N1472 2.194 . S
Co1452 O1477 2.351 . S
Co1452 O1478 2.155 . S
Co1452 O1479 2.096 . S
C1453 N1456 1.301 . S
C1453 N1457 1.328 . S
C1453 H1458 0.930 . S
C1454 C1455 1.333 . S
C1454 N1456 1.317 . S
C1454 H1459 0.930 . S
C1455 C1454 1.333 . S
C1455 N1457 1.350 . S
C1455 H1481 0.931 . S
N1456 Co1452 2.148 . S
N1456 C1453 1.301 . S
N1456 C1454 1.317 . S
N1457 C1453 1.328 . S
N1457 C1455 1.350 . S
H1458 C1453 0.930 . S
H1459 C1454 0.930 . S
C1460 O1461 1.224 . S
C1460 O1479 1.247 . S
O1461 C1460 1.224 . S
N1462 Co1452 2.128 . S
N1462 C1463 1.355 . S
N1462 C1465 1.311 . S
C1463 N1462 1.355 . S
C1463 C1464 1.363 . S
C1463 H1475 0.929 . S
C1464 C1463 1.363 . S
C1464 N1466 1.375 . S
C1464 H1482 0.931 . S
C1465 N1462 1.311 . S
C1465 N1466 1.347 . S
C1465 H1476 0.929 . S
N1466 C1464 1.375 . S
N1466 C1465 1.347 . S
C1467 C1470 1.365 . S
C1467 N1472 1.328 . S
C1467 H1473 0.929 . S
C1468 C1469 1.362 . S
C1468 C1471 1.378 . S
C1468 H1483 0.929 . S
C1469 C1468 1.362 . S
C1469 C1470 1.366 . S
C1470 C1467 1.365 . S
C1470 C1469 1.366 . S
C1470 H1484 0.930 . S
C1471 C1468 1.378 . S
C1471 N1472 1.315 . S
C1471 H1474 0.930 . S
N1472 Co1452 2.194 . S
N1472 C1467 1.328 . S
N1472 C1471 1.315 . S
H1473 C1467 0.929 . S
H1474 C1471 0.930 . S
H1475 C1463 0.929 . S
H1476 C1465 0.929 . S
O1477 Co1452 2.351 . S
O1477 C1480 1.244 . S
O1478 Co1452 2.155 . S
O1478 C1480 1.240 . S
O1479 Co1452 2.096 . S
O1479 C1460 1.247 . S
C1480 O1477 1.244 . S
C1480 O1478 1.240 . S
H1481 C1455 0.931 . S
H1482 C1464 0.931 . S
H1483 C1468 0.929 . S
H1484 C1470 0.930 . S
Co1485 N1489 2.148 . S
Co1485 N1495 2.128 . S
Co1485 N1505 2.194 . S
Co1485 O1510 2.351 . S
Co1485 O1511 2.155 . S
Co1485 O1512 2.096 . S
C1486 N1489 1.301 . S
C1486 N1490 1.328 . S
C1486 H1491 0.930 . S
C1487 C1488 1.333 . S
C1487 N1489 1.317 . S
C1487 H1492 0.930 . S
C1488 C1487 1.333 . S
C1488 N1490 1.350 . S
C1488 H1514 0.931 . S
N1489 Co1485 2.148 . S
N1489 C1486 1.301 . S
N1489 C1487 1.317 . S
N1490 C1486 1.328 . S
N1490 C1488 1.350 . S
H1491 C1486 0.930 . S
H1492 C1487 0.930 . S
C1493 O1494 1.224 . S
C1493 O1512 1.247 . S
O1494 C1493 1.224 . S
N1495 Co1485 2.128 . S
N1495 C1496 1.355 . S
N1495 C1498 1.311 . S
C1496 N1495 1.355 . S
C1496 C1497 1.363 . S
C1496 H1508 0.929 . S
C1497 C1496 1.363 . S
C1497 N1499 1.375 . S
C1497 H1515 0.931 . S
C1498 N1495 1.311 . S
C1498 N1499 1.347 . S
C1498 H1509 0.929 . S
N1499 C1497 1.375 . S
N1499 C1498 1.347 . S
C1500 C1503 1.365 . S
C1500 N1505 1.328 . S
C1500 H1506 0.929 . S
C1501 C1502 1.362 . S
C1501 C1504 1.378 . S
C1501 H1516 0.929 . S
C1502 C1501 1.362 . S
C1502 C1503 1.366 . S
C1503 C1500 1.365 . S
C1503 C1502 1.366 . S
C1503 H1517 0.930 . S
C1504 C1501 1.378 . S
C1504 N1505 1.315 . S
C1504 H1507 0.930 . S
N1505 Co1485 2.194 . S
N1505 C1500 1.328 . S
N1505 C1504 1.315 . S
H1506 C1500 0.929 . S
H1507 C1504 0.930 . S
H1508 C1496 0.929 . S
H1509 C1498 0.929 . S
O1510 Co1485 2.351 . S
O1510 C1513 1.244 . S
O1511 Co1485 2.155 . S
O1511 C1513 1.240 . S
O1512 Co1485 2.096 . S
O1512 C1493 1.247 . S
C1513 O1510 1.244 . S
C1513 O1511 1.240 . S
H1514 C1488 0.931 . S
H1515 C1497 0.931 . S
H1516 C1501 0.929 . S
H1517 C1503 0.930 . S
Co1518 N1522 2.148 . S
Co1518 N1528 2.128 . S
Co1518 N1538 2.194 . S
Co1518 O1543 2.351 . S
Co1518 O1544 2.155 . S
Co1518 O1545 2.096 . S
C1519 N1522 1.301 . S
C1519 N1523 1.328 . S
C1519 H1524 0.930 . S
C1520 C1521 1.333 . S
C1520 N1522 1.317 . S
C1520 H1525 0.930 . S
C1521 C1520 1.333 . S
C1521 N1523 1.350 . S
C1521 H1547 0.931 . S
N1522 Co1518 2.148 . S
N1522 C1519 1.301 . S
N1522 C1520 1.317 . S
N1523 C1519 1.328 . S
N1523 C1521 1.350 . S
H1524 C1519 0.930 . S
H1525 C1520 0.930 . S
C1526 O1527 1.224 . S
C1526 O1545 1.247 . S
O1527 C1526 1.224 . S
N1528 Co1518 2.128 . S
N1528 C1529 1.355 . S
N1528 C1531 1.311 . S
C1529 N1528 1.355 . S
C1529 C1530 1.363 . S
C1529 H1541 0.929 . S
C1530 C1529 1.363 . S
C1530 N1532 1.375 . S
C1530 H1548 0.931 . S
C1531 N1528 1.311 . S
C1531 N1532 1.347 . S
C1531 H1542 0.929 . S
N1532 C1530 1.375 . S
N1532 C1531 1.347 . S
C1533 C1536 1.365 . S
C1533 N1538 1.328 . S
C1533 H1539 0.929 . S
C1534 C1535 1.362 . S
C1534 C1537 1.378 . S
C1534 H1549 0.929 . S
C1535 C1534 1.362 . S
C1535 C1536 1.366 . S
C1536 C1533 1.365 . S
C1536 C1535 1.366 . S
C1536 H1550 0.930 . S
C1537 C1534 1.378 . S
C1537 N1538 1.315 . S
C1537 H1540 0.930 . S
N1538 Co1518 2.194 . S
N1538 C1533 1.328 . S
N1538 C1537 1.315 . S
H1539 C1533 0.929 . S
H1540 C1537 0.930 . S
H1541 C1529 0.929 . S
H1542 C1531 0.929 . S
O1543 Co1518 2.351 . S
O1543 C1546 1.244 . S
O1544 Co1518 2.155 . S
O1544 C1546 1.240 . S
O1545 Co1518 2.096 . S
O1545 C1526 1.247 . S
C1546 O1543 1.244 . S
C1546 O1544 1.240 . S
H1547 C1521 0.931 . S
H1548 C1530 0.931 . S
H1549 C1534 0.929 . S
H1550 C1536 0.930 . S
Co1551 N1555 2.148 . S
Co1551 N1561 2.128 . S
Co1551 N1571 2.194 . S
Co1551 O1576 2.351 . S
Co1551 O1577 2.155 . S
Co1551 O1578 2.096 . S
C1552 N1555 1.301 . S
C1552 N1556 1.328 . S
C1552 H1557 0.930 . S
C1553 C1554 1.333 . S
C1553 N1555 1.317 . S
C1553 H1558 0.930 . S
C1554 C1553 1.333 . S
C1554 N1556 1.350 . S
C1554 H1580 0.931 . S
N1555 Co1551 2.148 . S
N1555 C1552 1.301 . S
N1555 C1553 1.317 . S
N1556 C1552 1.328 . S
N1556 C1554 1.350 . S
H1557 C1552 0.930 . S
H1558 C1553 0.930 . S
C1559 O1560 1.224 . S
C1559 O1578 1.247 . S
O1560 C1559 1.224 . S
N1561 Co1551 2.128 . S
N1561 C1562 1.355 . S
N1561 C1564 1.311 . S
C1562 N1561 1.355 . S
C1562 C1563 1.363 . S
C1562 H1574 0.929 . S
C1563 C1562 1.363 . S
C1563 N1565 1.375 . S
C1563 H1581 0.931 . S
C1564 N1561 1.311 . S
C1564 N1565 1.347 . S
C1564 H1575 0.929 . S
N1565 C1563 1.375 . S
N1565 C1564 1.347 . S
C1566 C1569 1.365 . S
C1566 N1571 1.328 . S
C1566 H1572 0.929 . S
C1567 C1568 1.362 . S
C1567 C1570 1.378 . S
C1567 H1582 0.929 . S
C1568 C1567 1.362 . S
C1568 C1569 1.366 . S
C1569 C1566 1.365 . S
C1569 C1568 1.366 . S
C1569 H1583 0.930 . S
C1570 C1567 1.378 . S
C1570 N1571 1.315 . S
C1570 H1573 0.930 . S
N1571 Co1551 2.194 . S
N1571 C1566 1.328 . S
N1571 C1570 1.315 . S
H1572 C1566 0.929 . S
H1573 C1570 0.930 . S
H1574 C1562 0.929 . S
H1575 C1564 0.929 . S
O1576 Co1551 2.351 . S
O1576 C1579 1.244 . S
O1577 Co1551 2.155 . S
O1577 C1579 1.240 . S
O1578 Co1551 2.096 . S
O1578 C1559 1.247 . S
C1579 O1576 1.244 . S
C1579 O1577 1.240 . S
H1580 C1554 0.931 . S
H1581 C1563 0.931 . S
H1582 C1567 0.929 . S
H1583 C1569 0.930 . S
H1584 C1590 0.930 . S
H1585 C1593 0.930 . S
H1586 C1594 0.930 . S
H1587 C1595 0.930 . S
H1588 C1598 0.930 . S
H1589 C1599 0.930 . S
C1590 H1584 0.930 . S
C1590 C1591 1.355 . S
C1590 C1592 1.415 . S
C1591 C1590 1.355 . S
C1591 C1593 1.419 . S
C1592 C1590 1.415 . S
C1592 C1597 1.425 . S
C1592 C1599 1.409 . S
C1593 H1585 0.930 . S
C1593 C1591 1.419 . S
C1593 C1594 1.362 . S
C1594 H1586 0.930 . S
C1594 C1593 1.362 . S
C1594 C1597 1.409 . S
C1595 H1587 0.930 . S
C1595 C1596 1.355 . S
C1595 C1597 1.415 . S
C1596 C1595 1.355 . S
C1596 C1598 1.419 . S
C1597 C1592 1.425 . S
C1597 C1594 1.409 . S
C1597 C1595 1.415 . S
C1598 H1588 0.930 . S
C1598 C1596 1.419 . S
C1598 C1599 1.362 . S
C1599 H1589 0.930 . S
C1599 C1592 1.409 . S
C1599 C1598 1.362 . S
H1600 C1606 0.930 . S
H1601 C1609 0.930 . S
H1602 C1610 0.930 . S
H1603 C1611 0.930 . S
H1604 C1614 0.930 . S
H1605 C1615 0.930 . S
C1606 H1600 0.930 . S
C1606 C1607 1.355 . S
C1606 C1608 1.415 . S
C1607 C1606 1.355 . S
C1607 C1609 1.419 . S
C1608 C1606 1.415 . S
C1608 C1613 1.425 . S
C1608 C1615 1.409 . S
C1609 H1601 0.930 . S
C1609 C1607 1.419 . S
C1609 C1610 1.362 . S
C1610 H1602 0.930 . S
C1610 C1609 1.362 . S
C1610 C1613 1.409 . S
C1611 H1603 0.930 . S
C1611 C1612 1.355 . S
C1611 C1613 1.415 . S
C1612 C1611 1.355 . S
C1612 C1614 1.419 . S
C1613 C1608 1.425 . S
C1613 C1610 1.409 . S
C1613 C1611 1.415 . S
C1614 H1604 0.930 . S
C1614 C1612 1.419 . S
C1614 C1615 1.362 . S
C1615 H1605 0.930 . S
C1615 C1608 1.409 . S
C1615 C1614 1.362 . S
H1616 C1622 0.930 . S
H1617 C1625 0.930 . S
H1618 C1626 0.930 . S
H1619 C1627 0.930 . S
H1620 C1630 0.930 . S
H1621 C1631 0.930 . S
C1622 H1616 0.930 . S
C1622 C1623 1.355 . S
C1622 C1624 1.415 . S
C1623 C1622 1.355 . S
C1623 C1625 1.419 . S
C1624 C1622 1.415 . S
C1624 C1629 1.425 . S
C1624 C1631 1.409 . S
C1625 H1617 0.930 . S
C1625 C1623 1.419 . S
C1625 C1626 1.362 . S
C1626 H1618 0.930 . S
C1626 C1625 1.362 . S
C1626 C1629 1.409 . S
C1627 H1619 0.930 . S
C1627 C1628 1.355 . S
C1627 C1629 1.415 . S
C1628 C1627 1.355 . S
C1628 C1630 1.419 . S
C1629 C1624 1.425 . S
C1629 C1626 1.409 . S
C1629 C1627 1.415 . S
C1630 H1620 0.930 . S
C1630 C1628 1.419 . S
C1630 C1631 1.362 . S
C1631 H1621 0.930 . S
C1631 C1624 1.409 . S
C1631 C1630 1.362 . S
H1632 C1638 0.930 . S
H1633 C1641 0.930 . S
H1634 C1642 0.930 . S
H1635 C1643 0.930 . S
H1636 C1646 0.930 . S
H1637 C1647 0.930 . S
C1638 H1632 0.930 . S
C1638 C1639 1.355 . S
C1638 C1640 1.415 . S
C1639 C1638 1.355 . S
C1639 C1641 1.419 . S
C1640 C1638 1.415 . S
C1640 C1645 1.425 . S
C1640 C1647 1.409 . S
C1641 H1633 0.930 . S
C1641 C1639 1.419 . S
C1641 C1642 1.362 . S
C1642 H1634 0.930 . S
C1642 C1641 1.362 . S
C1642 C1645 1.409 . S
C1643 H1635 0.930 . S
C1643 C1644 1.355 . S
C1643 C1645 1.415 . S
C1644 C1643 1.355 . S
C1644 C1646 1.419 . S
C1645 C1640 1.425 . S
C1645 C1642 1.409 . S
C1645 C1643 1.415 . S
C1646 H1636 0.930 . S
C1646 C1644 1.419 . S
C1646 C1647 1.362 . S
C1647 H1637 0.930 . S
C1647 C1640 1.409 . S
C1647 C1646 1.362 . S
H1648 C1654 0.930 . S
H1649 C1657 0.930 . S
H1650 C1658 0.930 . S
H1651 C1659 0.930 . S
H1652 C1662 0.930 . S
H1653 C1663 0.930 . S
C1654 H1648 0.930 . S
C1654 C1655 1.355 . S
C1654 C1656 1.415 . S
C1655 C1654 1.355 . S
C1655 C1657 1.419 . S
C1656 C1654 1.415 . S
C1656 C1661 1.425 . S
C1656 C1663 1.409 . S
C1657 H1649 0.930 . S
C1657 C1655 1.419 . S
C1657 C1658 1.362 . S
C1658 H1650 0.930 . S
C1658 C1657 1.362 . S
C1658 C1661 1.409 . S
C1659 H1651 0.930 . S
C1659 C1660 1.355 . S
C1659 C1661 1.415 . S
C1660 C1659 1.355 . S
C1660 C1662 1.419 . S
C1661 C1656 1.425 . S
C1661 C1658 1.409 . S
C1661 C1659 1.415 . S
C1662 H1652 0.930 . S
C1662 C1660 1.419 . S
C1662 C1663 1.362 . S
C1663 H1653 0.930 . S
C1663 C1656 1.409 . S
C1663 C1662 1.362 . S
H1664 C1670 0.930 . S
H1665 C1673 0.930 . S
H1666 C1674 0.930 . S
H1667 C1675 0.930 . S
H1668 C1678 0.930 . S
H1669 C1679 0.930 . S
C1670 H1664 0.930 . S
C1670 C1671 1.355 . S
C1670 C1672 1.415 . S
C1671 C1670 1.355 . S
C1671 C1673 1.419 . S
C1672 C1670 1.415 . S
C1672 C1677 1.425 . S
C1672 C1679 1.409 . S
C1673 H1665 0.930 . S
C1673 C1671 1.419 . S
C1673 C1674 1.362 . S
C1674 H1666 0.930 . S
C1674 C1673 1.362 . S
C1674 C1677 1.409 . S
C1675 H1667 0.930 . S
C1675 C1676 1.355 . S
C1675 C1677 1.415 . S
C1676 C1675 1.355 . S
C1676 C1678 1.419 . S
C1677 C1672 1.425 . S
C1677 C1674 1.409 . S
C1677 C1675 1.415 . S
C1678 H1668 0.930 . S
C1678 C1676 1.419 . S
C1678 C1679 1.362 . S
C1679 H1669 0.930 . S
C1679 C1672 1.409 . S
C1679 C1678 1.362 . S
H1680 C1686 0.930 . S
H1681 C1689 0.930 . S
H1682 C1690 0.930 . S
H1683 C1691 0.930 . S
H1684 C1694 0.930 . S
H1685 C1695 0.930 . S
C1686 H1680 0.930 . S
C1686 C1687 1.355 . S
C1686 C1688 1.415 . S
C1687 C1686 1.355 . S
C1687 C1689 1.419 . S
C1688 C1686 1.415 . S
C1688 C1693 1.425 . S
C1688 C1695 1.409 . S
C1689 H1681 0.930 . S
C1689 C1687 1.419 . S
C1689 C1690 1.362 . S
C1690 H1682 0.930 . S
C1690 C1689 1.362 . S
C1690 C1693 1.409 . S
C1691 H1683 0.930 . S
C1691 C1692 1.355 . S
C1691 C1693 1.415 . S
C1692 C1691 1.355 . S
C1692 C1694 1.419 . S
C1693 C1688 1.425 . S
C1693 C1690 1.409 . S
C1693 C1691 1.415 . S
C1694 H1684 0.930 . S
C1694 C1692 1.419 . S
C1694 C1695 1.362 . S
C1695 H1685 0.930 . S
C1695 C1688 1.409 . S
C1695 C1694 1.362 . S
H1696 C1702 0.930 . S
H1697 C1705 0.930 . S
H1698 C1706 0.930 . S
H1699 C1707 0.930 . S
H1700 C1710 0.930 . S
H1701 C1711 0.930 . S
C1702 H1696 0.930 . S
C1702 C1703 1.355 . S
C1702 C1704 1.415 . S
C1703 C1702 1.355 . S
C1703 C1705 1.419 . S
C1704 C1702 1.415 . S
C1704 C1709 1.425 . S
C1704 C1711 1.409 . S
C1705 H1697 0.930 . S
C1705 C1703 1.419 . S
C1705 C1706 1.362 . S
C1706 H1698 0.930 . S
C1706 C1705 1.362 . S
C1706 C1709 1.409 . S
C1707 H1699 0.930 . S
C1707 C1708 1.355 . S
C1707 C1709 1.415 . S
C1708 C1707 1.355 . S
C1708 C1710 1.419 . S
C1709 C1704 1.425 . S
C1709 C1706 1.409 . S
C1709 C1707 1.415 . S
C1710 H1700 0.930 . S
C1710 C1708 1.419 . S
C1710 C1711 1.362 . S
C1711 H1701 0.930 . S
C1711 C1704 1.409 . S
C1711 C1710 1.362 . S
H1712 C1718 0.930 . S
H1713 C1721 0.930 . S
H1714 C1722 0.930 . S
H1715 C1723 0.930 . S
H1716 C1726 0.930 . S
H1717 C1727 0.930 . S
C1718 H1712 0.930 . S
C1718 C1719 1.355 . S
C1718 C1720 1.415 . S
C1719 C1718 1.355 . S
C1719 C1721 1.419 . S
C1720 C1718 1.415 . S
C1720 C1725 1.425 . S
C1720 C1727 1.409 . S
C1721 H1713 0.930 . S
C1721 C1719 1.419 . S
C1721 C1722 1.362 . S
C1722 H1714 0.930 . S
C1722 C1721 1.362 . S
C1722 C1725 1.409 . S
C1723 H1715 0.930 . S
C1723 C1724 1.355 . S
C1723 C1725 1.415 . S
C1724 C1723 1.355 . S
C1724 C1726 1.419 . S
C1725 C1720 1.425 . S
C1725 C1722 1.409 . S
C1725 C1723 1.415 . S
C1726 H1716 0.930 . S
C1726 C1724 1.419 . S
C1726 C1727 1.362 . S
C1727 H1717 0.930 . S
C1727 C1720 1.409 . S
C1727 C1726 1.362 . S
H1728 C1734 0.930 . S
H1729 C1737 0.930 . S
H1730 C1738 0.930 . S
H1731 C1739 0.930 . S
H1732 C1742 0.930 . S
H1733 C1743 0.930 . S
C1734 H1728 0.930 . S
C1734 C1735 1.355 . S
C1734 C1736 1.415 . S
C1735 C1734 1.355 . S
C1735 C1737 1.419 . S
C1736 C1734 1.415 . S
C1736 C1741 1.425 . S
C1736 C1743 1.409 . S
C1737 H1729 0.930 . S
C1737 C1735 1.419 . S
C1737 C1738 1.362 . S
C1738 H1730 0.930 . S
C1738 C1737 1.362 . S
C1738 C1741 1.409 . S
C1739 H1731 0.930 . S
C1739 C1740 1.355 . S
C1739 C1741 1.415 . S
C1740 C1739 1.355 . S
C1740 C1742 1.419 . S
C1741 C1736 1.425 . S
C1741 C1738 1.409 . S
C1741 C1739 1.415 . S
C1742 H1732 0.930 . S
C1742 C1740 1.419 . S
C1742 C1743 1.362 . S
C1743 H1733 0.930 . S
C1743 C1736 1.409 . S
C1743 C1742 1.362 . S
H1744 C1750 0.930 . S
H1745 C1753 0.930 . S
H1746 C1754 0.930 . S
H1747 C1755 0.930 . S
H1748 C1758 0.930 . S
H1749 C1759 0.930 . S
C1750 H1744 0.930 . S
C1750 C1751 1.355 . S
C1750 C1752 1.415 . S
C1751 C1750 1.355 . S
C1751 C1753 1.419 . S
C1752 C1750 1.415 . S
C1752 C1757 1.425 . S
C1752 C1759 1.409 . S
C1753 H1745 0.930 . S
C1753 C1751 1.419 . S
C1753 C1754 1.362 . S
C1754 H1746 0.930 . S
C1754 C1753 1.362 . S
C1754 C1757 1.409 . S
C1755 H1747 0.930 . S
C1755 C1756 1.355 . S
C1755 C1757 1.415 . S
C1756 C1755 1.355 . S
C1756 C1758 1.419 . S
C1757 C1752 1.425 . S
C1757 C1754 1.409 . S
C1757 C1755 1.415 . S
C1758 H1748 0.930 . S
C1758 C1756 1.419 . S
C1758 C1759 1.362 . S
C1759 H1749 0.930 . S
C1759 C1752 1.409 . S
C1759 C1758 1.362 . S
H1760 C1766 0.930 . S
H1761 C1769 0.930 . S
H1762 C1770 0.930 . S
H1763 C1771 0.930 . S
H1764 C1774 0.930 . S
H1765 C1775 0.930 . S
C1766 H1760 0.930 . S
C1766 C1767 1.355 . S
C1766 C1768 1.415 . S
C1767 C1766 1.355 . S
C1767 C1769 1.419 . S
C1768 C1766 1.415 . S
C1768 C1773 1.425 . S
C1768 C1775 1.409 . S
C1769 H1761 0.930 . S
C1769 C1767 1.419 . S
C1769 C1770 1.362 . S
C1770 H1762 0.930 . S
C1770 C1769 1.362 . S
C1770 C1773 1.409 . S
C1771 H1763 0.930 . S
C1771 C1772 1.355 . S
C1771 C1773 1.415 . S
C1772 C1771 1.355 . S
C1772 C1774 1.419 . S
C1773 C1768 1.425 . S
C1773 C1770 1.409 . S
C1773 C1771 1.415 . S
C1774 H1764 0.930 . S
C1774 C1772 1.419 . S
C1774 C1775 1.362 . S
C1775 H1765 0.930 . S
C1775 C1768 1.409 . S
C1775 C1774 1.362 . S
H1776 C1782 0.930 . S
H1777 C1785 0.930 . S
H1778 C1786 0.930 . S
H1779 C1787 0.930 . S
H1780 C1790 0.930 . S
H1781 C1791 0.930 . S
C1782 H1776 0.930 . S
C1782 C1783 1.355 . S
C1782 C1784 1.415 . S
C1783 C1782 1.355 . S
C1783 C1785 1.419 . S
C1784 C1782 1.415 . S
C1784 C1789 1.425 . S
C1784 C1791 1.409 . S
C1785 H1777 0.930 . S
C1785 C1783 1.419 . S
C1785 C1786 1.362 . S
C1786 H1778 0.930 . S
C1786 C1785 1.362 . S
C1786 C1789 1.409 . S
C1787 H1779 0.930 . S
C1787 C1788 1.355 . S
C1787 C1789 1.415 . S
C1788 C1787 1.355 . S
C1788 C1790 1.419 . S
C1789 C1784 1.425 . S
C1789 C1786 1.409 . S
C1789 C1787 1.415 . S
C1790 H1780 0.930 . S
C1790 C1788 1.419 . S
C1790 C1791 1.362 . S
C1791 H1781 0.930 . S
C1791 C1784 1.409 . S
C1791 C1790 1.362 . S
H1792 C1798 0.930 . S
H1793 C1801 0.930 . S
H1794 C1802 0.930 . S
H1795 C1803 0.930 . S
H1796 C1806 0.930 . S
H1797 C1807 0.930 . S
C1798 H1792 0.930 . S
C1798 C1799 1.355 . S
C1798 C1800 1.415 . S
C1799 C1798 1.355 . S
C1799 C1801 1.419 . S
C1800 C1798 1.415 . S
C1800 C1805 1.425 . S
C1800 C1807 1.409 . S
C1801 H1793 0.930 . S
C1801 C1799 1.419 . S
C1801 C1802 1.362 . S
C1802 H1794 0.930 . S
C1802 C1801 1.362 . S
C1802 C1805 1.409 . S
C1803 H1795 0.930 . S
C1803 C1804 1.355 . S
C1803 C1805 1.415 . S
C1804 C1803 1.355 . S
C1804 C1806 1.419 . S
C1805 C1800 1.425 . S
C1805 C1802 1.409 . S
C1805 C1803 1.415 . S
C1806 H1796 0.930 . S
C1806 C1804 1.419 . S
C1806 C1807 1.362 . S
C1807 H1797 0.930 . S
C1807 C1800 1.409 . S
C1807 C1806 1.362 . S
H1808 C1814 0.930 . S
H1809 C1817 0.930 . S
H1810 C1818 0.930 . S
H1811 C1819 0.930 . S
H1812 C1822 0.930 . S
H1813 C1823 0.930 . S
C1814 H1808 0.930 . S
C1814 C1815 1.355 . S
C1814 C1816 1.415 . S
C1815 C1814 1.355 . S
C1815 C1817 1.419 . S
C1816 C1814 1.415 . S
C1816 C1821 1.425 . S
C1816 C1823 1.409 . S
C1817 H1809 0.930 . S
C1817 C1815 1.419 . S
C1817 C1818 1.362 . S
C1818 H1810 0.930 . S
C1818 C1817 1.362 . S
C1818 C1821 1.409 . S
C1819 H1811 0.930 . S
C1819 C1820 1.355 . S
C1819 C1821 1.415 . S
C1820 C1819 1.355 . S
C1820 C1822 1.419 . S
C1821 C1816 1.425 . S
C1821 C1818 1.409 . S
C1821 C1819 1.415 . S
C1822 H1812 0.930 . S
C1822 C1820 1.419 . S
C1822 C1823 1.362 . S
C1823 H1813 0.930 . S
C1823 C1816 1.409 . S
C1823 C1822 1.362 . S
H1824 C1830 0.930 . S
H1825 C1833 0.930 . S
H1826 C1834 0.930 . S
H1827 C1835 0.930 . S
H1828 C1838 0.930 . S
H1829 C1839 0.930 . S
C1830 H1824 0.930 . S
C1830 C1831 1.355 . S
C1830 C1832 1.415 . S
C1831 C1830 1.355 . S
C1831 C1833 1.419 . S
C1832 C1830 1.415 . S
C1832 C1837 1.425 . S
C1832 C1839 1.409 . S
C1833 H1825 0.930 . S
C1833 C1831 1.419 . S
C1833 C1834 1.362 . S
C1834 H1826 0.930 . S
C1834 C1833 1.362 . S
C1834 C1837 1.409 . S
C1835 H1827 0.930 . S
C1835 C1836 1.355 . S
C1835 C1837 1.415 . S
C1836 C1835 1.355 . S
C1836 C1838 1.419 . S
C1837 C1832 1.425 . S
C1837 C1834 1.409 . S
C1837 C1835 1.415 . S
C1838 H1828 0.930 . S
C1838 C1836 1.419 . S
C1838 C1839 1.362 . S
C1839 H1829 0.930 . S
C1839 C1832 1.409 . S
C1839 C1838 1.362 . S
H1840 C1846 0.930 . S
H1841 C1849 0.930 . S
H1842 C1850 0.930 . S
H1843 C1851 0.930 . S
H1844 C1854 0.930 . S
H1845 C1855 0.930 . S
C1846 H1840 0.930 . S
C1846 C1847 1.355 . S
C1846 C1848 1.415 . S
C1847 C1846 1.355 . S
C1847 C1849 1.419 . S
C1848 C1846 1.415 . S
C1848 C1853 1.425 . S
C1848 C1855 1.409 . S
C1849 H1841 0.930 . S
C1849 C1847 1.419 . S
C1849 C1850 1.362 . S
C1850 H1842 0.930 . S
C1850 C1849 1.362 . S
C1850 C1853 1.409 . S
C1851 H1843 0.930 . S
C1851 C1852 1.355 . S
C1851 C1853 1.415 . S
C1852 C1851 1.355 . S
C1852 C1854 1.419 . S
C1853 C1848 1.425 . S
C1853 C1850 1.409 . S
C1853 C1851 1.415 . S
C1854 H1844 0.930 . S
C1854 C1852 1.419 . S
C1854 C1855 1.362 . S
C1855 H1845 0.930 . S
C1855 C1848 1.409 . S
C1855 C1854 1.362 . S
H1856 C1862 0.930 . S
H1857 C1865 0.930 . S
H1858 C1866 0.930 . S
H1859 C1867 0.930 . S
H1860 C1870 0.930 . S
H1861 C1871 0.930 . S
C1862 H1856 0.930 . S
C1862 C1863 1.355 . S
C1862 C1864 1.415 . S
C1863 C1862 1.355 . S
C1863 C1865 1.419 . S
C1864 C1862 1.415 . S
C1864 C1869 1.425 . S
C1864 C1871 1.409 . S
C1865 H1857 0.930 . S
C1865 C1863 1.419 . S
C1865 C1866 1.362 . S
C1866 H1858 0.930 . S
C1866 C1865 1.362 . S
C1866 C1869 1.409 . S
C1867 H1859 0.930 . S
C1867 C1868 1.355 . S
C1867 C1869 1.415 . S
C1868 C1867 1.355 . S
C1868 C1870 1.419 . S
C1869 C1864 1.425 . S
C1869 C1866 1.409 . S
C1869 C1867 1.415 . S
C1870 H1860 0.930 . S
C1870 C1868 1.419 . S
C1870 C1871 1.362 . S
C1871 H1861 0.930 . S
C1871 C1864 1.409 . S
C1871 C1870 1.362 . S
H1872 C1878 0.930 . S
H1873 C1881 0.930 . S
H1874 C1882 0.930 . S
H1875 C1883 0.930 . S
H1876 C1886 0.930 . S
H1877 C1887 0.930 . S
C1878 H1872 0.930 . S
C1878 C1879 1.355 . S
C1878 C1880 1.415 . S
C1879 C1878 1.355 . S
C1879 C1881 1.419 . S
C1880 C1878 1.415 . S
C1880 C1885 1.425 . S
C1880 C1887 1.409 . S
C1881 H1873 0.930 . S
C1881 C1879 1.419 . S
C1881 C1882 1.362 . S
C1882 H1874 0.930 . S
C1882 C1881 1.362 . S
C1882 C1885 1.409 . S
C1883 H1875 0.930 . S
C1883 C1884 1.355 . S
C1883 C1885 1.415 . S
C1884 C1883 1.355 . S
C1884 C1886 1.419 . S
C1885 C1880 1.425 . S
C1885 C1882 1.409 . S
C1885 C1883 1.415 . S
C1886 H1876 0.930 . S
C1886 C1884 1.419 . S
C1886 C1887 1.362 . S
C1887 H1877 0.930 . S
C1887 C1880 1.409 . S
C1887 C1886 1.362 . S
H1888 C1894 0.930 . S
H1889 C1897 0.930 . S
H1890 C1898 0.930 . S
H1891 C1899 0.930 . S
H1892 C1902 0.930 . S
H1893 C1903 0.930 . S
C1894 H1888 0.930 . S
C1894 C1895 1.355 . S
C1894 C1896 1.415 . S
C1895 C1894 1.355 . S
C1895 C1897 1.419 . S
C1896 C1894 1.415 . S
C1896 C1901 1.425 . S
C1896 C1903 1.409 . S
C1897 H1889 0.930 . S
C1897 C1895 1.419 . S
C1897 C1898 1.362 . S
C1898 H1890 0.930 . S
C1898 C1897 1.362 . S
C1898 C1901 1.409 . S
C1899 H1891 0.930 . S
C1899 C1900 1.355 . S
C1899 C1901 1.415 . S
C1900 C1899 1.355 . S
C1900 C1902 1.419 . S
C1901 C1896 1.425 . S
C1901 C1898 1.409 . S
C1901 C1899 1.415 . S
C1902 H1892 0.930 . S
C1902 C1900 1.419 . S
C1902 C1903 1.362 . S
C1903 H1893 0.930 . S
C1903 C1896 1.409 . S
C1903 C1902 1.362 . S
H1904 C1910 0.930 . S
H1905 C1913 0.930 . S
H1906 C1914 0.930 . S
H1907 C1915 0.930 . S
H1908 C1918 0.930 . S
H1909 C1919 0.930 . S
C1910 H1904 0.930 . S
C1910 C1911 1.355 . S
C1910 C1912 1.415 . S
C1911 C1910 1.355 . S
C1911 C1913 1.419 . S
C1912 C1910 1.415 . S
C1912 C1917 1.425 . S
C1912 C1919 1.409 . S
C1913 H1905 0.930 . S
C1913 C1911 1.419 . S
C1913 C1914 1.362 . S
C1914 H1906 0.930 . S
C1914 C1913 1.362 . S
C1914 C1917 1.409 . S
C1915 H1907 0.930 . S
C1915 C1916 1.355 . S
C1915 C1917 1.415 . S
C1916 C1915 1.355 . S
C1916 C1918 1.419 . S
C1917 C1912 1.425 . S
C1917 C1914 1.409 . S
C1917 C1915 1.415 . S
C1918 H1908 0.930 . S
C1918 C1916 1.419 . S
C1918 C1919 1.362 . S
C1919 H1909 0.930 . S
C1919 C1912 1.409 . S
C1919 C1918 1.362 . S
H1920 C1926 0.930 . S
H1921 C1929 0.930 . S
H1922 C1930 0.930 . S
H1923 C1931 0.930 . S
H1924 C1934 0.930 . S
H1925 C1935 0.930 . S
C1926 H1920 0.930 . S
C1926 C1927 1.355 . S
C1926 C1928 1.415 . S
C1927 C1926 1.355 . S
C1927 C1929 1.419 . S
C1928 C1926 1.415 . S
C1928 C1933 1.425 . S
C1928 C1935 1.409 . S
C1929 H1921 0.930 . S
C1929 C1927 1.419 . S
C1929 C1930 1.362 . S
C1930 H1922 0.930 . S
C1930 C1929 1.362 . S
C1930 C1933 1.409 . S
C1931 H1923 0.930 . S
C1931 C1932 1.355 . S
C1931 C1933 1.415 . S
C1932 C1931 1.355 . S
C1932 C1934 1.419 . S
C1933 C1928 1.425 . S
C1933 C1930 1.409 . S
C1933 C1931 1.415 . S
C1934 H1924 0.930 . S
C1934 C1932 1.419 . S
C1934 C1935 1.362 . S
C1935 H1925 0.930 . S
C1935 C1928 1.409 . S
C1935 C1934 1.362 . S
H1936 C1942 0.930 . S
H1937 C1945 0.930 . S
H1938 C1946 0.930 . S
H1939 C1947 0.930 . S
H1940 C1950 0.930 . S
H1941 C1951 0.930 . S
C1942 H1936 0.930 . S
C1942 C1943 1.355 . S
C1942 C1944 1.415 . S
C1943 C1942 1.355 . S
C1943 C1945 1.419 . S
C1944 C1942 1.415 . S
C1944 C1949 1.425 . S
C1944 C1951 1.409 . S
C1945 H1937 0.930 . S
C1945 C1943 1.419 . S
C1945 C1946 1.362 . S
C1946 H1938 0.930 . S
C1946 C1945 1.362 . S
C1946 C1949 1.409 . S
C1947 H1939 0.930 . S
C1947 C1948 1.355 . S
C1947 C1949 1.415 . S
C1948 C1947 1.355 . S
C1948 C1950 1.419 . S
C1949 C1944 1.425 . S
C1949 C1946 1.409 . S
C1949 C1947 1.415 . S
C1950 H1940 0.930 . S
C1950 C1948 1.419 . S
C1950 C1951 1.362 . S
C1951 H1941 0.930 . S
C1951 C1944 1.409 . S
C1951 C1950 1.362 . S
H1952 C1958 0.930 . S
H1953 C1961 0.930 . S
H1954 C1962 0.930 . S
H1955 C1963 0.930 . S
H1956 C1966 0.930 . S
H1957 C1967 0.930 . S
C1958 H1952 0.930 . S
C1958 C1959 1.355 . S
C1958 C1960 1.415 . S
C1959 C1958 1.355 . S
C1959 C1961 1.419 . S
C1960 C1958 1.415 . S
C1960 C1965 1.425 . S
C1960 C1967 1.409 . S
C1961 H1953 0.930 . S
C1961 C1959 1.419 . S
C1961 C1962 1.362 . S
C1962 H1954 0.930 . S
C1962 C1961 1.362 . S
C1962 C1965 1.409 . S
C1963 H1955 0.930 . S
C1963 C1964 1.355 . S
C1963 C1965 1.415 . S
C1964 C1963 1.355 . S
C1964 C1966 1.419 . S
C1965 C1960 1.425 . S
C1965 C1962 1.409 . S
C1965 C1963 1.415 . S
C1966 H1956 0.930 . S
C1966 C1964 1.419 . S
C1966 C1967 1.362 . S
C1967 H1957 0.930 . S
C1967 C1960 1.409 . S
C1967 C1966 1.362 . S
H1968 C1974 0.930 . S
H1969 C1977 0.930 . S
H1970 C1978 0.930 . S
H1971 C1979 0.930 . S
H1972 C1982 0.930 . S
H1973 C1983 0.930 . S
C1974 H1968 0.930 . S
C1974 C1975 1.355 . S
C1974 C1976 1.415 . S
C1975 C1974 1.355 . S
C1975 C1977 1.419 . S
C1976 C1974 1.415 . S
C1976 C1981 1.425 . S
C1976 C1983 1.409 . S
C1977 H1969 0.930 . S
C1977 C1975 1.419 . S
C1977 C1978 1.362 . S
C1978 H1970 0.930 . S
C1978 C1977 1.362 . S
C1978 C1981 1.409 . S
C1979 H1971 0.930 . S
C1979 C1980 1.355 . S
C1979 C1981 1.415 . S
C1980 C1979 1.355 . S
C1980 C1982 1.419 . S
C1981 C1976 1.425 . S
C1981 C1978 1.409 . S
C1981 C1979 1.415 . S
C1982 H1972 0.930 . S
C1982 C1980 1.419 . S
C1982 C1983 1.362 . S
C1983 H1973 0.930 . S
C1983 C1976 1.409 . S
C1983 C1982 1.362 . S
H1984 C1990 0.930 . S
H1985 C1993 0.930 . S
H1986 C1994 0.930 . S
H1987 C1995 0.930 . S
H1988 C1998 0.930 . S
H1989 C1999 0.930 . S
C1990 H1984 0.930 . S
C1990 C1991 1.355 . S
C1990 C1992 1.415 . S
C1991 C1990 1.355 . S
C1991 C1993 1.419 . S
C1992 C1990 1.415 . S
C1992 C1997 1.425 . S
C1992 C1999 1.409 . S
C1993 H1985 0.930 . S
C1993 C1991 1.419 . S
C1993 C1994 1.362 . S
C1994 H1986 0.930 . S
C1994 C1993 1.362 . S
C1994 C1997 1.409 . S
C1995 H1987 0.930 . S
C1995 C1996 1.355 . S
C1995 C1997 1.415 . S
C1996 C1995 1.355 . S
C1996 C1998 1.419 . S
C1997 C1992 1.425 . S
C1997 C1994 1.409 . S
C1997 C1995 1.415 . S
C1998 H1988 0.930 . S
C1998 C1996 1.419 . S
C1998 C1999 1.362 . S
C1999 H1989 0.930 . S
C1999 C1992 1.409 . S
C1999 C1998 1.362 . S
H2000 C2006 0.930 . S
H2001 C2009 0.930 . S
H2002 C2010 0.930 . S
H2003 C2011 0.930 . S
H2004 C2014 0.930 . S
H2005 C2015 0.930 . S
C2006 H2000 0.930 . S
C2006 C2007 1.355 . S
C2006 C2008 1.415 . S
C2007 C2006 1.355 . S
C2007 C2009 1.419 . S
C2008 C2006 1.415 . S
C2008 C2013 1.425 . S
C2008 C2015 1.409 . S
C2009 H2001 0.930 . S
C2009 C2007 1.419 . S
C2009 C2010 1.362 . S
C2010 H2002 0.930 . S
C2010 C2009 1.362 . S
C2010 C2013 1.409 . S
C2011 H2003 0.930 . S
C2011 C2012 1.355 . S
C2011 C2013 1.415 . S
C2012 C2011 1.355 . S
C2012 C2014 1.419 . S
C2013 C2008 1.425 . S
C2013 C2010 1.409 . S
C2013 C2011 1.415 . S
C2014 H2004 0.930 . S
C2014 C2012 1.419 . S
C2014 C2015 1.362 . S
C2015 H2005 0.930 . S
C2015 C2008 1.409 . S
C2015 C2014 1.362 . S
H2016 C2022 0.930 . S
H2017 C2025 0.930 . S
H2018 C2026 0.930 . S
H2019 C2027 0.930 . S
H2020 C2030 0.930 . S
H2021 C2031 0.930 . S
C2022 H2016 0.930 . S
C2022 C2023 1.355 . S
C2022 C2024 1.415 . S
C2023 C2022 1.355 . S
C2023 C2025 1.419 . S
C2024 C2022 1.415 . S
C2024 C2029 1.425 . S
C2024 C2031 1.409 . S
C2025 H2017 0.930 . S
C2025 C2023 1.419 . S
C2025 C2026 1.362 . S
C2026 H2018 0.930 . S
C2026 C2025 1.362 . S
C2026 C2029 1.409 . S
C2027 H2019 0.930 . S
C2027 C2028 1.355 . S
C2027 C2029 1.415 . S
C2028 C2027 1.355 . S
C2028 C2030 1.419 . S
C2029 C2024 1.425 . S
C2029 C2026 1.409 . S
C2029 C2027 1.415 . S
C2030 H2020 0.930 . S
C2030 C2028 1.419 . S
C2030 C2031 1.362 . S
C2031 H2021 0.930 . S
C2031 C2024 1.409 . S
C2031 C2030 1.362 . S
H2032 C2038 0.930 . S
H2033 C2041 0.930 . S
H2034 C2042 0.930 . S
H2035 C2043 0.930 . S
H2036 C2046 0.930 . S
H2037 C2047 0.930 . S
C2038 H2032 0.930 . S
C2038 C2039 1.355 . S
C2038 C2040 1.415 . S
C2039 C2038 1.355 . S
C2039 C2041 1.419 . S
C2040 C2038 1.415 . S
C2040 C2045 1.425 . S
C2040 C2047 1.409 . S
C2041 H2033 0.930 . S
C2041 C2039 1.419 . S
C2041 C2042 1.362 . S
C2042 H2034 0.930 . S
C2042 C2041 1.362 . S
C2042 C2045 1.409 . S
C2043 H2035 0.930 . S
C2043 C2044 1.355 . S
C2043 C2045 1.415 . S
C2044 C2043 1.355 . S
C2044 C2046 1.419 . S
C2045 C2040 1.425 . S
C2045 C2042 1.409 . S
C2045 C2043 1.415 . S
C2046 H2036 0.930 . S
C2046 C2044 1.419 . S
C2046 C2047 1.362 . S
C2047 H2037 0.930 . S
C2047 C2040 1.409 . S
C2047 C2046 1.362 . S
H2048 C2054 0.930 . S
H2049 C2057 0.930 . S
H2050 C2058 0.930 . S
H2051 C2059 0.930 . S
H2052 C2062 0.930 . S
H2053 C2063 0.930 . S
C2054 H2048 0.930 . S
C2054 C2055 1.355 . S
C2054 C2056 1.415 . S
C2055 C2054 1.355 . S
C2055 C2057 1.419 . S
C2056 C2054 1.415 . S
C2056 C2061 1.425 . S
C2056 C2063 1.409 . S
C2057 H2049 0.930 . S
C2057 C2055 1.419 . S
C2057 C2058 1.362 . S
C2058 H2050 0.930 . S
C2058 C2057 1.362 . S
C2058 C2061 1.409 . S
C2059 H2051 0.930 . S
C2059 C2060 1.355 . S
C2059 C2061 1.415 . S
C2060 C2059 1.355 . S
C2060 C2062 1.419 . S
C2061 C2056 1.425 . S
C2061 C2058 1.409 . S
C2061 C2059 1.415 . S
C2062 H2052 0.930 . S
C2062 C2060 1.419 . S
C2062 C2063 1.362 . S
C2063 H2053 0.930 . S
C2063 C2056 1.409 . S
C2063 C2062 1.362 . S
H2064 C2070 0.930 . S
H2065 C2073 0.930 . S
H2066 C2074 0.930 . S
H2067 C2075 0.930 . S
H2068 C2078 0.930 . S
H2069 C2079 0.930 . S
C2070 H2064 0.930 . S
C2070 C2071 1.355 . S
C2070 C2072 1.415 . S
C2071 C2070 1.355 . S
C2071 C2073 1.419 . S
C2072 C2070 1.415 . S
C2072 C2077 1.425 . S
C2072 C2079 1.409 . S
C2073 H2065 0.930 . S
C2073 C2071 1.419 . S
C2073 C2074 1.362 . S
C2074 H2066 0.930 . S
C2074 C2073 1.362 . S
C2074 C2077 1.409 . S
C2075 H2067 0.930 . S
C2075 C2076 1.355 . S
C2075 C2077 1.415 . S
C2076 C2075 1.355 . S
C2076 C2078 1.419 . S
C2077 C2072 1.425 . S
C2077 C2074 1.409 . S
C2077 C2075 1.415 . S
C2078 H2068 0.930 . S
C2078 C2076 1.419 . S
C2078 C2079 1.362 . S
C2079 H2069 0.930 . S
C2079 C2072 1.409 . S
C2079 C2078 1.362 . S
H2080 C2086 0.930 . S
H2081 C2089 0.930 . S
H2082 C2090 0.930 . S
H2083 C2091 0.930 . S
H2084 C2094 0.930 . S
H2085 C2095 0.930 . S
C2086 H2080 0.930 . S
C2086 C2087 1.355 . S
C2086 C2088 1.415 . S
C2087 C2086 1.355 . S
C2087 C2089 1.419 . S
C2088 C2086 1.415 . S
C2088 C2093 1.425 . S
C2088 C2095 1.409 . S
C2089 H2081 0.930 . S
C2089 C2087 1.419 . S
C2089 C2090 1.362 . S
C2090 H2082 0.930 . S
C2090 C2089 1.362 . S
C2090 C2093 1.409 . S
C2091 H2083 0.930 . S
C2091 C2092 1.355 . S
C2091 C2093 1.415 . S
C2092 C2091 1.355 . S
C2092 C2094 1.419 . S
C2093 C2088 1.425 . S
C2093 C2090 1.409 . S
C2093 C2091 1.415 . S
C2094 H2084 0.930 . S
C2094 C2092 1.419 . S
C2094 C2095 1.362 . S
C2095 H2085 0.930 . S
C2095 C2088 1.409 . S
C2095 C2094 1.362 . S
H2096 C2102 0.930 . S
H2097 C2105 0.930 . S
H2098 C2106 0.930 . S
H2099 C2107 0.930 . S
H2100 C2110 0.930 . S
H2101 C2111 0.930 . S
C2102 H2096 0.930 . S
C2102 C2103 1.355 . S
C2102 C2104 1.415 . S
C2103 C2102 1.355 . S
C2103 C2105 1.419 . S
C2104 C2102 1.415 . S
C2104 C2109 1.425 . S
C2104 C2111 1.409 . S
C2105 H2097 0.930 . S
C2105 C2103 1.419 . S
C2105 C2106 1.362 . S
C2106 H2098 0.930 . S
C2106 C2105 1.362 . S
C2106 C2109 1.409 . S
C2107 H2099 0.930 . S
C2107 C2108 1.355 . S
C2107 C2109 1.415 . S
C2108 C2107 1.355 . S
C2108 C2110 1.419 . S
C2109 C2104 1.425 . S
C2109 C2106 1.409 . S
C2109 C2107 1.415 . S
C2110 H2100 0.930 . S
C2110 C2108 1.419 . S
C2110 C2111 1.362 . S
C2111 H2101 0.930 . S
C2111 C2104 1.409 . S
C2111 C2110 1.362 . S
H2112 C2118 0.930 . S
H2113 C2121 0.930 . S
H2114 C2122 0.930 . S
H2115 C2123 0.930 . S
H2116 C2126 0.930 . S
H2117 C2127 0.930 . S
C2118 H2112 0.930 . S
C2118 C2119 1.355 . S
C2118 C2120 1.415 . S
C2119 C2118 1.355 . S
C2119 C2121 1.419 . S
C2120 C2118 1.415 . S
C2120 C2125 1.425 . S
C2120 C2127 1.409 . S
C2121 H2113 0.930 . S
C2121 C2119 1.419 . S
C2121 C2122 1.362 . S
C2122 H2114 0.930 . S
C2122 C2121 1.362 . S
C2122 C2125 1.409 . S
C2123 H2115 0.930 . S
C2123 C2124 1.355 . S
C2123 C2125 1.415 . S
C2124 C2123 1.355 . S
C2124 C2126 1.419 . S
C2125 C2120 1.425 . S
C2125 C2122 1.409 . S
C2125 C2123 1.415 . S
C2126 H2116 0.930 . S
C2126 C2124 1.419 . S
C2126 C2127 1.362 . S
C2127 H2117 0.930 . S
C2127 C2120 1.409 . S
C2127 C2126 1.362 . S
H2128 C2134 0.930 . S
H2129 C2137 0.930 . S
H2130 C2138 0.930 . S
H2131 C2139 0.930 . S
H2132 C2142 0.930 . S
H2133 C2143 0.930 . S
C2134 H2128 0.930 . S
C2134 C2135 1.355 . S
C2134 C2136 1.415 . S
C2135 C2134 1.355 . S
C2135 C2137 1.419 . S
C2136 C2134 1.415 . S
C2136 C2141 1.425 . S
C2136 C2143 1.409 . S
C2137 H2129 0.930 . S
C2137 C2135 1.419 . S
C2137 C2138 1.362 . S
C2138 H2130 0.930 . S
C2138 C2137 1.362 . S
C2138 C2141 1.409 . S
C2139 H2131 0.930 . S
C2139 C2140 1.355 . S
C2139 C2141 1.415 . S
C2140 C2139 1.355 . S
C2140 C2142 1.419 . S
C2141 C2136 1.425 . S
C2141 C2138 1.409 . S
C2141 C2139 1.415 . S
C2142 H2132 0.930 . S
C2142 C2140 1.419 . S
C2142 C2143 1.362 . S
C2143 H2133 0.930 . S
C2143 C2136 1.409 . S
C2143 C2142 1.362 . S
H2144 C2150 0.930 . S
H2145 C2153 0.930 . S
H2146 C2154 0.930 . S
H2147 C2155 0.930 . S
H2148 C2158 0.930 . S
H2149 C2159 0.930 . S
C2150 H2144 0.930 . S
C2150 C2151 1.355 . S
C2150 C2152 1.415 . S
C2151 C2150 1.355 . S
C2151 C2153 1.419 . S
C2152 C2150 1.415 . S
C2152 C2157 1.425 . S
C2152 C2159 1.409 . S
C2153 H2145 0.930 . S
C2153 C2151 1.419 . S
C2153 C2154 1.362 . S
C2154 H2146 0.930 . S
C2154 C2153 1.362 . S
C2154 C2157 1.409 . S
C2155 H2147 0.930 . S
C2155 C2156 1.355 . S
C2155 C2157 1.415 . S
C2156 C2155 1.355 . S
C2156 C2158 1.419 . S
C2157 C2152 1.425 . S
C2157 C2154 1.409 . S
C2157 C2155 1.415 . S
C2158 H2148 0.930 . S
C2158 C2156 1.419 . S
C2158 C2159 1.362 . S
C2159 H2149 0.930 . S
C2159 C2152 1.409 . S
C2159 C2158 1.362 . S
H2160 C2166 0.930 . S
H2161 C2169 0.930 . S
H2162 C2170 0.930 . S
H2163 C2171 0.930 . S
H2164 C2174 0.930 . S
H2165 C2175 0.930 . S
C2166 H2160 0.930 . S
C2166 C2167 1.355 . S
C2166 C2168 1.415 . S
C2167 C2166 1.355 . S
C2167 C2169 1.419 . S
C2168 C2166 1.415 . S
C2168 C2173 1.425 . S
C2168 C2175 1.409 . S
C2169 H2161 0.930 . S
C2169 C2167 1.419 . S
C2169 C2170 1.362 . S
C2170 H2162 0.930 . S
C2170 C2169 1.362 . S
C2170 C2173 1.409 . S
C2171 H2163 0.930 . S
C2171 C2172 1.355 . S
C2171 C2173 1.415 . S
C2172 C2171 1.355 . S
C2172 C2174 1.419 . S
C2173 C2168 1.425 . S
C2173 C2170 1.409 . S
C2173 C2171 1.415 . S
C2174 H2164 0.930 . S
C2174 C2172 1.419 . S
C2174 C2175 1.362 . S
C2175 H2165 0.930 . S
C2175 C2168 1.409 . S
C2175 C2174 1.362 . S
H2176 C2182 0.930 . S
H2177 C2185 0.930 . S
H2178 C2186 0.930 . S
H2179 C2187 0.930 . S
H2180 C2190 0.930 . S
H2181 C2191 0.930 . S
C2182 H2176 0.930 . S
C2182 C2183 1.355 . S
C2182 C2184 1.415 . S
C2183 C2182 1.355 . S
C2183 C2185 1.419 . S
C2184 C2182 1.415 . S
C2184 C2189 1.425 . S
C2184 C2191 1.409 . S
C2185 H2177 0.930 . S
C2185 C2183 1.419 . S
C2185 C2186 1.362 . S
C2186 H2178 0.930 . S
C2186 C2185 1.362 . S
C2186 C2189 1.409 . S
C2187 H2179 0.930 . S
C2187 C2188 1.355 . S
C2187 C2189 1.415 . S
C2188 C2187 1.355 . S
C2188 C2190 1.419 . S
C2189 C2184 1.425 . S
C2189 C2186 1.409 . S
C2189 C2187 1.415 . S
C2190 H2180 0.930 . S
C2190 C2188 1.419 . S
C2190 C2191 1.362 . S
C2191 H2181 0.930 . S
C2191 C2184 1.409 . S
C2191 C2190 1.362 . S
H2192 C2198 0.930 . S
H2193 C2201 0.930 . S
H2194 C2202 0.930 . S
H2195 C2203 0.930 . S
H2196 C2206 0.930 . S
H2197 C2207 0.930 . S
C2198 H2192 0.930 . S
C2198 C2199 1.355 . S
C2198 C2200 1.415 . S
C2199 C2198 1.355 . S
C2199 C2201 1.419 . S
C2200 C2198 1.415 . S
C2200 C2205 1.425 . S
C2200 C2207 1.409 . S
C2201 H2193 0.930 . S
C2201 C2199 1.419 . S
C2201 C2202 1.362 . S
C2202 H2194 0.930 . S
C2202 C2201 1.362 . S
C2202 C2205 1.409 . S
C2203 H2195 0.930 . S
C2203 C2204 1.355 . S
C2203 C2205 1.415 . S
C2204 C2203 1.355 . S
C2204 C2206 1.419 . S
C2205 C2200 1.425 . S
C2205 C2202 1.409 . S
C2205 C2203 1.415 . S
C2206 H2196 0.930 . S
C2206 C2204 1.419 . S
C2206 C2207 1.362 . S
C2207 H2197 0.930 . S
C2207 C2200 1.409 . S
C2207 C2206 1.362 . S
H2208 C2214 0.930 . S
H2209 C2217 0.930 . S
H2210 C2218 0.930 . S
H2211 C2219 0.930 . S
H2212 C2222 0.930 . S
H2213 C2223 0.930 . S
C2214 H2208 0.930 . S
C2214 C2215 1.355 . S
C2214 C2216 1.415 . S
C2215 C2214 1.355 . S
C2215 C2217 1.419 . S
C2216 C2214 1.415 . S
C2216 C2221 1.425 . S
C2216 C2223 1.409 . S
C2217 H2209 0.930 . S
C2217 C2215 1.419 . S
C2217 C2218 1.362 . S
C2218 H2210 0.930 . S
C2218 C2217 1.362 . S
C2218 C2221 1.409 . S
C2219 H2211 0.930 . S
C2219 C2220 1.355 . S
C2219 C2221 1.415 . S
C2220 C2219 1.355 . S
C2220 C2222 1.419 . S
C2221 C2216 1.425 . S
C2221 C2218 1.409 . S
C2221 C2219 1.415 . S
C2222 H2212 0.930 . S
C2222 C2220 1.419 . S
C2222 C2223 1.362 . S
C2223 H2213 0.930 . S
C2223 C2216 1.409 . S
C2223 C2222 1.362 . S
H2224 C2230 0.930 . S
H2225 C2233 0.930 . S
H2226 C2234 0.930 . S
H2227 C2235 0.930 . S
H2228 C2238 0.930 . S
H2229 C2239 0.930 . S
C2230 H2224 0.930 . S
C2230 C2231 1.355 . S
C2230 C2232 1.415 . S
C2231 C2230 1.355 . S
C2231 C2233 1.419 . S
C2232 C2230 1.415 . S
C2232 C2237 1.425 . S
C2232 C2239 1.409 . S
C2233 H2225 0.930 . S
C2233 C2231 1.419 . S
C2233 C2234 1.362 . S
C2234 H2226 0.930 . S
C2234 C2233 1.362 . S
C2234 C2237 1.409 . S
C2235 H2227 0.930 . S
C2235 C2236 1.355 . S
C2235 C2237 1.415 . S
C2236 C2235 1.355 . S
C2236 C2238 1.419 . S
C2237 C2232 1.425 . S
C2237 C2234 1.409 . S
C2237 C2235 1.415 . S
C2238 H2228 0.930 . S
C2238 C2236 1.419 . S
C2238 C2239 1.362 . S
C2239 H2229 0.930 . S
C2239 C2232 1.409 . S
C2239 C2238 1.362 . S
H2240 C2246 0.930 . S
H2241 C2249 0.930 . S
H2242 C2250 0.930 . S
H2243 C2251 0.930 . S
H2244 C2254 0.930 . S
H2245 C2255 0.930 . S
C2246 H2240 0.930 . S
C2246 C2247 1.355 . S
C2246 C2248 1.415 . S
C2247 C2246 1.355 . S
C2247 C2249 1.419 . S
C2248 C2246 1.415 . S
C2248 C2253 1.425 . S
C2248 C2255 1.409 . S
C2249 H2241 0.930 . S
C2249 C2247 1.419 . S
C2249 C2250 1.362 . S
C2250 H2242 0.930 . S
C2250 C2249 1.362 . S
C2250 C2253 1.409 . S
C2251 H2243 0.930 . S
C2251 C2252 1.355 . S
C2251 C2253 1.415 . S
C2252 C2251 1.355 . S
C2252 C2254 1.419 . S
C2253 C2248 1.425 . S
C2253 C2250 1.409 . S
C2253 C2251 1.415 . S
C2254 H2244 0.930 . S
C2254 C2252 1.419 . S
C2254 C2255 1.362 . S
C2255 H2245 0.930 . S
C2255 C2248 1.409 . S
C2255 C2254 1.362 . S
H2256 C2262 0.930 . S
H2257 C2265 0.930 . S
H2258 C2266 0.930 . S
H2259 C2267 0.930 . S
H2260 C2270 0.930 . S
H2261 C2271 0.930 . S
C2262 H2256 0.930 . S
C2262 C2263 1.355 . S
C2262 C2264 1.415 . S
C2263 C2262 1.355 . S
C2263 C2265 1.419 . S
C2264 C2262 1.415 . S
C2264 C2269 1.425 . S
C2264 C2271 1.409 . S
C2265 H2257 0.930 . S
C2265 C2263 1.419 . S
C2265 C2266 1.362 . S
C2266 H2258 0.930 . S
C2266 C2265 1.362 . S
C2266 C2269 1.409 . S
C2267 H2259 0.930 . S
C2267 C2268 1.355 . S
C2267 C2269 1.415 . S
C2268 C2267 1.355 . S
C2268 C2270 1.419 . S
C2269 C2264 1.425 . S
C2269 C2266 1.409 . S
C2269 C2267 1.415 . S
C2270 H2260 0.930 . S
C2270 C2268 1.419 . S
C2270 C2271 1.362 . S
C2271 H2261 0.930 . S
C2271 C2264 1.409 . S
C2271 C2270 1.362 . S
H2272 C2278 0.930 . S
H2273 C2281 0.930 . S
H2274 C2282 0.930 . S
H2275 C2283 0.930 . S
H2276 C2286 0.930 . S
H2277 C2287 0.930 . S
C2278 H2272 0.930 . S
C2278 C2279 1.355 . S
C2278 C2280 1.415 . S
C2279 C2278 1.355 . S
C2279 C2281 1.419 . S
C2280 C2278 1.415 . S
C2280 C2285 1.425 . S
C2280 C2287 1.409 . S
C2281 H2273 0.930 . S
C2281 C2279 1.419 . S
C2281 C2282 1.362 . S
C2282 H2274 0.930 . S
C2282 C2281 1.362 . S
C2282 C2285 1.409 . S
C2283 H2275 0.930 . S
C2283 C2284 1.355 . S
C2283 C2285 1.415 . S
C2284 C2283 1.355 . S
C2284 C2286 1.419 . S
C2285 C2280 1.425 . S
C2285 C2282 1.409 . S
C2285 C2283 1.415 . S
C2286 H2276 0.930 . S
C2286 C2284 1.419 . S
C2286 C2287 1.362 . S
C2287 H2277 0.930 . S
C2287 C2280 1.409 . S
C2287 C2286 1.362 . S
H2288 C2294 0.930 . S
H2289 C2297 0.930 . S
H2290 C2298 0.930 . S
H2291 C2299 0.930 . S
H2292 C2302 0.930 . S
H2293 C2303 0.930 . S
C2294 H2288 0.930 . S
C2294 C2295 1.355 . S
C2294 C2296 1.415 . S
C2295 C2294 1.355 . S
C2295 C2297 1.419 . S
C2296 C2294 1.415 . S
C2296 C2301 1.425 . S
C2296 C2303 1.409 . S
C2297 H2289 0.930 . S
C2297 C2295 1.419 . S
C2297 C2298 1.362 . S
C2298 H2290 0.930 . S
C2298 C2297 1.362 . S
C2298 C2301 1.409 . S
C2299 H2291 0.930 . S
C2299 C2300 1.355 . S
C2299 C2301 1.415 . S
C2300 C2299 1.355 . S
C2300 C2302 1.419 . S
C2301 C2296 1.425 . S
C2301 C2298 1.409 . S
C2301 C2299 1.415 . S
C2302 H2292 0.930 . S
C2302 C2300 1.419 . S
C2302 C2303 1.362 . S
C2303 H2293 0.930 . S
C2303 C2296 1.409 . S
C2303 C2302 1.362 . S
H2304 C2310 0.930 . S
H2305 C2313 0.930 . S
H2306 C2314 0.930 . S
H2307 C2315 0.930 . S
H2308 C2318 0.930 . S
H2309 C2319 0.930 . S
C2310 H2304 0.930 . S
C2310 C2311 1.355 . S
C2310 C2312 1.415 . S
C2311 C2310 1.355 . S
C2311 C2313 1.419 . S
C2312 C2310 1.415 . S
C2312 C2317 1.425 . S
C2312 C2319 1.409 . S
C2313 H2305 0.930 . S
C2313 C2311 1.419 . S
C2313 C2314 1.362 . S
C2314 H2306 0.930 . S
C2314 C2313 1.362 . S
C2314 C2317 1.409 . S
C2315 H2307 0.930 . S
C2315 C2316 1.355 . S
C2315 C2317 1.415 . S
C2316 C2315 1.355 . S
C2316 C2318 1.419 . S
C2317 C2312 1.425 . S
C2317 C2314 1.409 . S
C2317 C2315 1.415 . S
C2318 H2308 0.930 . S
C2318 C2316 1.419 . S
C2318 C2319 1.362 . S
C2319 H2309 0.930 . S
C2319 C2312 1.409 . S
C2319 C2318 1.362 . S
H2320 C2326 0.930 . S
H2321 C2329 0.930 . S
H2322 C2330 0.930 . S
H2323 C2331 0.930 . S
H2324 C2334 0.930 . S
H2325 C2335 0.930 . S
C2326 H2320 0.930 . S
C2326 C2327 1.355 . S
C2326 C2328 1.415 . S
C2327 C2326 1.355 . S
C2327 C2329 1.419 . S
C2328 C2326 1.415 . S
C2328 C2333 1.425 . S
C2328 C2335 1.409 . S
C2329 H2321 0.930 . S
C2329 C2327 1.419 . S
C2329 C2330 1.362 . S
C2330 H2322 0.930 . S
C2330 C2329 1.362 . S
C2330 C2333 1.409 . S
C2331 H2323 0.930 . S
C2331 C2332 1.355 . S
C2331 C2333 1.415 . S
C2332 C2331 1.355 . S
C2332 C2334 1.419 . S
C2333 C2328 1.425 . S
C2333 C2330 1.409 . S
C2333 C2331 1.415 . S
C2334 H2324 0.930 . S
C2334 C2332 1.419 . S
C2334 C2335 1.362 . S
C2335 H2325 0.930 . S
C2335 C2328 1.409 . S
C2335 C2334 1.362 . S
H2336 C2342 0.930 . S
H2337 C2345 0.930 . S
H2338 C2346 0.930 . S
H2339 C2347 0.930 . S
H2340 C2350 0.930 . S
H2341 C2351 0.930 . S
C2342 H2336 0.930 . S
C2342 C2343 1.355 . S
C2342 C2344 1.415 . S
C2343 C2342 1.355 . S
C2343 C2345 1.419 . S
C2344 C2342 1.415 . S
C2344 C2349 1.425 . S
C2344 C2351 1.409 . S
C2345 H2337 0.930 . S
C2345 C2343 1.419 . S
C2345 C2346 1.362 . S
C2346 H2338 0.930 . S
C2346 C2345 1.362 . S
C2346 C2349 1.409 . S
C2347 H2339 0.930 . S
C2347 C2348 1.355 . S
C2347 C2349 1.415 . S
C2348 C2347 1.355 . S
C2348 C2350 1.419 . S
C2349 C2344 1.425 . S
C2349 C2346 1.409 . S
C2349 C2347 1.415 . S
C2350 H2340 0.930 . S
C2350 C2348 1.419 . S
C2350 C2351 1.362 . S
C2351 H2341 0.930 . S
C2351 C2344 1.409 . S
C2351 C2350 1.362 . S
H2352 C2358 0.930 . S
H2353 C2361 0.930 . S
H2354 C2362 0.930 . S
H2355 C2363 0.930 . S
H2356 C2366 0.930 . S
H2357 C2367 0.930 . S
C2358 H2352 0.930 . S
C2358 C2359 1.355 . S
C2358 C2360 1.415 . S
C2359 C2358 1.355 . S
C2359 C2361 1.419 . S
C2360 C2358 1.415 . S
C2360 C2365 1.425 1_455 S
C2360 C2367 1.409 1_455 S
C2361 H2353 0.930 . S
C2361 C2359 1.419 . S
C2361 C2362 1.362 . S
C2362 H2354 0.930 . S
C2362 C2361 1.362 . S
C2362 C2365 1.409 1_455 S
C2363 H2355 0.930 . S
C2363 C2364 1.355 . S
C2363 C2365 1.415 . S
C2364 C2363 1.355 . S
C2364 C2366 1.419 . S
C2365 C2360 1.425 1_655 S
C2365 C2362 1.409 1_655 S
C2365 C2363 1.415 . S
C2366 H2356 0.930 . S
C2366 C2364 1.419 . S
C2366 C2367 1.362 . S
C2367 H2357 0.930 . S
C2367 C2360 1.409 1_655 S
C2367 C2366 1.362 . S
H2368 C2374 0.930 . S
H2369 C2377 0.930 . S
H2370 C2378 0.930 . S
H2371 C2379 0.930 . S
H2372 C2382 0.930 . S
H2373 C2383 0.930 . S
C2374 H2368 0.930 . S
C2374 C2375 1.355 . S
C2374 C2376 1.438 . S
C2375 C2374 1.355 . S
C2375 C2377 1.419 . S
C2376 C2374 1.438 . S
C2376 C2381 1.423 1_655 S
C2376 C2383 1.387 1_655 S
C2377 H2369 0.930 . S
C2377 C2375 1.419 . S
C2377 C2378 1.362 . S
C2378 H2370 0.930 . S
C2378 C2377 1.362 . S
C2378 C2381 1.387 1_655 S
C2379 H2371 0.930 . S
C2379 C2380 1.355 . S
C2379 C2381 1.438 . S
C2380 C2379 1.355 . S
C2380 C2382 1.419 . S
C2381 C2376 1.423 1_455 S
C2381 C2378 1.387 1_455 S
C2381 C2379 1.438 . S
C2382 H2372 0.930 . S
C2382 C2380 1.419 . S
C2382 C2383 1.362 . S
C2383 H2373 0.930 . S
C2383 C2376 1.387 1_455 S
C2383 C2382 1.362 . S
H2384 C2390 0.930 . S
H2385 C2393 0.930 . S
H2386 C2394 0.930 . S
H2387 C2395 0.930 . S
H2388 C2398 0.930 . S
H2389 C2399 0.930 . S
C2390 H2384 0.930 . S
C2390 C2391 1.355 . S
C2390 C2392 1.415 . S
C2391 C2390 1.355 . S
C2391 C2393 1.419 . S
C2392 C2390 1.415 . S
C2392 C2397 1.425 1_545 S
C2392 C2399 1.409 . S
C2393 H2385 0.930 . S
C2393 C2391 1.419 . S
C2393 C2394 1.362 1_545 S
C2394 H2386 0.930 . S
C2394 C2393 1.362 1_565 S
C2394 C2397 1.409 . S
C2395 H2387 0.930 . S
C2395 C2396 1.355 . S
C2395 C2397 1.415 . S
C2396 C2395 1.355 . S
C2396 C2398 1.419 . S
C2397 C2392 1.425 1_565 S
C2397 C2394 1.409 . S
C2397 C2395 1.415 . S
C2398 H2388 0.930 . S
C2398 C2396 1.419 . S
C2398 C2399 1.362 1_565 S
C2399 H2389 0.930 . S
C2399 C2392 1.409 . S
C2399 C2398 1.362 1_545 S
H2400 C2406 0.930 . S
H2401 C2409 0.930 . S
H2402 C2410 0.930 . S
H2403 C2411 0.930 . S
H2404 C2414 0.930 . S
H2405 C2415 0.930 . S
C2406 H2400 0.930 . S
C2406 C2407 1.355 . S
C2406 C2408 1.415 . S
C2407 C2406 1.355 . S
C2407 C2409 1.419 . S
C2408 C2406 1.415 . S
C2408 C2413 1.425 . S
C2408 C2415 1.409 . S
C2409 H2401 0.930 . S
C2409 C2407 1.419 . S
C2409 C2410 1.362 . S
C2410 H2402 0.930 . S
C2410 C2409 1.362 . S
C2410 C2413 1.409 . S
C2411 H2403 0.930 . S
C2411 C2412 1.355 . S
C2411 C2413 1.415 . S
C2412 C2411 1.355 . S
C2412 C2414 1.419 . S
C2413 C2408 1.425 . S
C2413 C2410 1.409 . S
C2413 C2411 1.415 . S
C2414 H2404 0.930 . S
C2414 C2412 1.419 . S
C2414 C2415 1.362 . S
C2415 H2405 0.930 . S
C2415 C2408 1.409 . S
C2415 C2414 1.362 . S
H2416 C2422 0.930 . S
H2417 C2425 0.930 . S
H2418 C2426 0.930 . S
H2419 C2427 0.930 . S
H2420 C2430 0.930 . S
H2421 C2431 0.930 . S
C2422 H2416 0.930 . S
C2422 C2423 1.355 . S
C2422 C2424 1.415 . S
C2423 C2422 1.355 . S
C2423 C2425 1.419 . S
C2424 C2422 1.415 . S
C2424 C2429 1.425 1_556 S
C2424 C2431 1.409 . S
C2425 H2417 0.930 . S
C2425 C2423 1.419 . S
C2425 C2426 1.362 1_556 S
C2426 H2418 0.930 . S
C2426 C2425 1.362 1_554 S
C2426 C2429 1.409 . S
C2427 H2419 0.930 . S
C2427 C2428 1.355 . S
C2427 C2429 1.415 . S
C2428 C2427 1.355 . S
C2428 C2430 1.419 . S
C2429 C2424 1.425 1_554 S
C2429 C2426 1.409 . S
C2429 C2427 1.415 . S
C2430 H2420 0.930 . S
C2430 C2428 1.419 . S
C2430 C2431 1.362 1_554 S
C2431 H2421 0.930 . S
C2431 C2424 1.409 . S
C2431 C2430 1.362 1_556 S
H2432 C2438 0.930 . S
H2433 C2441 0.930 . S
H2434 C2442 0.930 . S
H2435 C2443 0.930 . S
H2436 C2446 0.930 . S
H2437 C2447 0.930 . S
C2438 H2432 0.930 . S
C2438 C2439 1.355 . S
C2438 C2440 1.415 . S
C2439 C2438 1.355 . S
C2439 C2441 1.419 . S
C2440 C2438 1.415 . S
C2440 C2445 1.425 . S
C2440 C2447 1.409 . S
C2441 H2433 0.930 . S
C2441 C2439 1.419 . S
C2441 C2442 1.362 . S
C2442 H2434 0.930 . S
C2442 C2441 1.362 . S
C2442 C2445 1.409 . S
C2443 H2435 0.930 . S
C2443 C2444 1.355 . S
C2443 C2445 1.415 . S
C2444 C2443 1.355 . S
C2444 C2446 1.419 . S
C2445 C2440 1.425 . S
C2445 C2442 1.409 . S
C2445 C2443 1.415 . S
C2446 H2436 0.930 . S
C2446 C2444 1.419 . S
C2446 C2447 1.362 . S
C2447 H2437 0.930 . S
C2447 C2440 1.409 . S
C2447 C2446 1.362 . S
H2448 C2454 0.930 . S
H2449 C2457 0.930 . S
H2450 C2458 0.930 . S
H2451 C2459 0.930 . S
H2452 C2462 0.930 . S
H2453 C2463 0.930 . S
C2454 H2448 0.930 . S
C2454 C2455 1.355 . S
C2454 C2456 1.415 . S
C2455 C2454 1.355 . S
C2455 C2457 1.419 . S
C2456 C2454 1.415 . S
C2456 C2461 1.425 . S
C2456 C2463 1.409 . S
C2457 H2449 0.930 . S
C2457 C2455 1.419 . S
C2457 C2458 1.362 . S
C2458 H2450 0.930 . S
C2458 C2457 1.362 . S
C2458 C2461 1.409 . S
C2459 H2451 0.930 . S
C2459 C2460 1.355 . S
C2459 C2461 1.415 . S
C2460 C2459 1.355 . S
C2460 C2462 1.419 . S
C2461 C2456 1.425 . S
C2461 C2458 1.409 . S
C2461 C2459 1.415 . S
C2462 H2452 0.930 . S
C2462 C2460 1.419 . S
C2462 C2463 1.362 . S
C2463 H2453 0.930 . S
C2463 C2456 1.409 . S
C2463 C2462 1.362 . S
H2464 C2470 0.930 . S
H2465 C2473 0.930 . S
H2466 C2474 0.936 . S
H2467 C2475 0.930 . S
H2468 C2478 0.930 . S
H2469 C2479 0.936 . S
C2470 H2464 0.930 . S
C2470 C2471 1.355 . S
C2470 C2472 1.415 . S
C2471 C2470 1.355 . S
C2471 C2473 1.419 . S
C2472 C2470 1.415 . S
C2472 C2477 1.425 1_655 S
C2472 C2479 1.412 . S
C2473 H2465 0.930 . S
C2473 C2471 1.419 . S
C2473 C2474 1.354 1_655 S
C2474 H2466 0.936 . S
C2474 C2473 1.354 1_455 S
C2474 C2477 1.412 . S
C2475 H2467 0.930 . S
C2475 C2476 1.355 . S
C2475 C2477 1.415 . S
C2476 C2475 1.355 . S
C2476 C2478 1.419 . S
C2477 C2472 1.425 1_455 S
C2477 C2474 1.412 . S
C2477 C2475 1.415 . S
C2478 H2468 0.930 . S
C2478 C2476 1.419 . S
C2478 C2479 1.354 1_455 S
C2479 H2469 0.936 . S
C2479 C2472 1.412 . S
C2479 C2478 1.354 1_655 S
H2480 C2486 0.930 . S
H2481 C2489 0.930 . S
H2482 C2490 0.930 . S
H2483 C2491 0.930 . S
H2484 C2494 0.930 . S
H2485 C2495 0.930 . S
C2486 H2480 0.930 . S
C2486 C2487 1.355 . S
C2486 C2488 1.415 . S
C2487 C2486 1.355 . S
C2487 C2489 1.419 . S
C2488 C2486 1.415 . S
C2488 C2493 1.425 1_655 S
C2488 C2495 1.409 . S
C2489 H2481 0.930 . S
C2489 C2487 1.419 . S
C2489 C2490 1.362 1_655 S
C2490 H2482 0.930 . S
C2490 C2489 1.362 1_455 S
C2490 C2493 1.409 . S
C2491 H2483 0.930 . S
C2491 C2492 1.355 . S
C2491 C2493 1.415 . S
C2492 C2491 1.355 . S
C2492 C2494 1.419 . S
C2493 C2488 1.425 1_455 S
C2493 C2490 1.409 . S
C2493 C2491 1.415 . S
C2494 H2484 0.930 . S
C2494 C2492 1.419 . S
C2494 C2495 1.362 1_455 S
C2495 H2485 0.930 . S
C2495 C2488 1.409 . S
C2495 C2494 1.362 1_655 S
H2496 C2502 0.930 . S
H2497 C2505 0.930 . S
H2498 C2506 0.930 . S
H2499 C2507 0.930 . S
H2500 C2510 0.930 . S
H2501 C2511 0.930 . S
C2502 H2496 0.930 . S
C2502 C2503 1.355 . S
C2502 C2504 1.415 . S
C2503 C2502 1.355 . S
C2503 C2505 1.419 . S
C2504 C2502 1.415 . S
C2504 C2509 1.425 1_545 S
C2504 C2511 1.409 1_545 S
C2505 H2497 0.930 . S
C2505 C2503 1.419 . S
C2505 C2506 1.362 . S
C2506 H2498 0.930 . S
C2506 C2505 1.362 . S
C2506 C2509 1.409 1_545 S
C2507 H2499 0.930 . S
C2507 C2508 1.355 . S
C2507 C2509 1.415 . S
C2508 C2507 1.355 . S
C2508 C2510 1.419 . S
C2509 C2504 1.425 1_565 S
C2509 C2506 1.409 1_565 S
C2509 C2507 1.415 . S
C2510 H2500 0.930 . S
C2510 C2508 1.419 . S
C2510 C2511 1.362 . S
C2511 H2501 0.930 . S
C2511 C2504 1.409 1_565 S
C2511 C2510 1.362 . S
H2512 C2518 0.930 . S
H2513 C2521 0.930 . S
H2514 C2522 0.930 . S
H2515 C2523 0.930 . S
H2516 C2526 0.930 . S
H2517 C2527 0.930 . S
C2518 H2512 0.930 . S
C2518 C2519 1.355 . S
C2518 C2520 1.415 . S
C2519 C2518 1.355 . S
C2519 C2521 1.419 . S
C2520 C2518 1.415 . S
C2520 C2525 1.425 . S
C2520 C2527 1.409 . S
C2521 H2513 0.930 . S
C2521 C2519 1.419 . S
C2521 C2522 1.362 . S
C2522 H2514 0.930 . S
C2522 C2521 1.362 . S
C2522 C2525 1.409 . S
C2523 H2515 0.930 . S
C2523 C2524 1.355 . S
C2523 C2525 1.415 . S
C2524 C2523 1.355 . S
C2524 C2526 1.419 . S
C2525 C2520 1.425 . S
C2525 C2522 1.409 . S
C2525 C2523 1.415 . S
C2526 H2516 0.930 . S
C2526 C2524 1.419 . S
C2526 C2527 1.362 . S
C2527 H2517 0.930 . S
C2527 C2520 1.409 . S
C2527 C2526 1.362 . S
H2528 C2534 0.930 . S
H2529 C2537 0.930 . S
H2530 C2538 0.930 . S
H2531 C2539 0.930 . S
H2532 C2542 0.930 . S
H2533 C2543 0.930 . S
C2534 H2528 0.930 . S
C2534 C2535 1.355 . S
C2534 C2536 1.415 . S
C2535 C2534 1.355 . S
C2535 C2537 1.419 . S
C2536 C2534 1.415 . S
C2536 C2541 1.425 1_556 S
C2536 C2543 1.409 . S
C2537 H2529 0.930 . S
C2537 C2535 1.419 . S
C2537 C2538 1.362 1_556 S
C2538 H2530 0.930 . S
C2538 C2537 1.362 1_554 S
C2538 C2541 1.409 . S
C2539 H2531 0.930 . S
C2539 C2540 1.355 . S
C2539 C2541 1.415 . S
C2540 C2539 1.355 . S
C2540 C2542 1.419 . S
C2541 C2536 1.425 1_554 S
C2541 C2538 1.409 . S
C2541 C2539 1.415 . S
C2542 H2532 0.930 . S
C2542 C2540 1.419 . S
C2542 C2543 1.362 1_554 S
C2543 H2533 0.930 . S
C2543 C2536 1.409 . S
C2543 C2542 1.362 1_556 S
H2544 C2550 0.930 . S
H2545 C2553 0.930 . S
H2546 C2554 0.930 . S
H2547 C2555 0.930 . S
H2548 C2558 0.930 . S
H2549 C2559 0.930 . S
C2550 H2544 0.930 . S
C2550 C2551 1.355 . S
C2550 C2552 1.415 . S
C2551 C2550 1.355 . S
C2551 C2553 1.419 . S
C2552 C2550 1.415 . S
C2552 C2557 1.425 . S
C2552 C2559 1.409 . S
C2553 H2545 0.930 . S
C2553 C2551 1.419 . S
C2553 C2554 1.362 . S
C2554 H2546 0.930 . S
C2554 C2553 1.362 . S
C2554 C2557 1.409 . S
C2555 H2547 0.930 . S
C2555 C2556 1.355 . S
C2555 C2557 1.415 . S
C2556 C2555 1.355 . S
C2556 C2558 1.419 . S
C2557 C2552 1.425 . S
C2557 C2554 1.409 . S
C2557 C2555 1.415 . S
C2558 H2548 0.930 . S
C2558 C2556 1.419 . S
C2558 C2559 1.362 . S
C2559 H2549 0.930 . S
C2559 C2552 1.409 . S
C2559 C2558 1.362 . S
H2560 C2566 0.930 . S
H2561 C2569 0.930 . S
H2562 C2570 0.930 . S
H2563 C2571 0.930 . S
H2564 C2574 0.930 . S
H2565 C2575 0.930 . S
C2566 H2560 0.930 . S
C2566 C2567 1.355 . S
C2566 C2568 1.415 . S
C2567 C2566 1.355 . S
C2567 C2569 1.419 . S
C2568 C2566 1.415 . S
C2568 C2573 1.425 . S
C2568 C2575 1.409 . S
C2569 H2561 0.930 . S
C2569 C2567 1.419 . S
C2569 C2570 1.362 . S
C2570 H2562 0.930 . S
C2570 C2569 1.362 . S
C2570 C2573 1.409 . S
C2571 H2563 0.930 . S
C2571 C2572 1.355 . S
C2571 C2573 1.415 . S
C2572 C2571 1.355 . S
C2572 C2574 1.419 . S
C2573 C2568 1.425 . S
C2573 C2570 1.409 . S
C2573 C2571 1.415 . S
C2574 H2564 0.930 . S
C2574 C2572 1.419 . S
C2574 C2575 1.362 . S
C2575 H2565 0.930 . S
C2575 C2568 1.409 . S
C2575 C2574 1.362 . S
H2576 C2582 0.930 . S
H2577 C2585 0.930 . S
H2578 C2586 0.930 . S
H2579 C2587 0.930 . S
H2580 C2590 0.930 . S
H2581 C2591 0.930 . S
C2582 H2576 0.930 . S
C2582 C2583 1.355 . S
C2582 C2584 1.415 . S
C2583 C2582 1.355 . S
C2583 C2585 1.419 . S
C2584 C2582 1.415 . S
C2584 C2589 1.425 . S
C2584 C2591 1.409 . S
C2585 H2577 0.930 . S
C2585 C2583 1.419 . S
C2585 C2586 1.362 . S
C2586 H2578 0.930 . S
C2586 C2585 1.362 . S
C2586 C2589 1.409 . S
C2587 H2579 0.930 . S
C2587 C2588 1.355 . S
C2587 C2589 1.415 . S
C2588 C2587 1.355 . S
C2588 C2590 1.419 . S
C2589 C2584 1.425 . S
C2589 C2586 1.409 . S
C2589 C2587 1.415 . S
C2590 H2580 0.930 . S
C2590 C2588 1.419 . S
C2590 C2591 1.362 . S
C2591 H2581 0.930 . S
C2591 C2584 1.409 . S
C2591 C2590 1.362 . S
H2592 C2598 0.930 . S
H2593 C2601 0.930 . S
H2594 C2602 0.930 . S
H2595 C2603 0.930 . S
H2596 C2606 0.930 . S
H2597 C2607 0.930 . S
C2598 H2592 0.930 . S
C2598 C2599 1.355 . S
C2598 C2600 1.415 . S
C2599 C2598 1.355 . S
C2599 C2601 1.419 . S
C2600 C2598 1.415 . S
C2600 C2605 1.425 . S
C2600 C2607 1.409 . S
C2601 H2593 0.930 . S
C2601 C2599 1.419 . S
C2601 C2602 1.362 . S
C2602 H2594 0.930 . S
C2602 C2601 1.362 . S
C2602 C2605 1.409 . S
C2603 H2595 0.930 . S
C2603 C2604 1.355 . S
C2603 C2605 1.415 . S
C2604 C2603 1.355 . S
C2604 C2606 1.419 . S
C2605 C2600 1.425 . S
C2605 C2602 1.409 . S
C2605 C2603 1.415 . S
C2606 H2596 0.930 . S
C2606 C2604 1.419 . S
C2606 C2607 1.362 . S
C2607 H2597 0.930 . S
C2607 C2600 1.409 . S
C2607 C2606 1.362 . S
H2608 C2614 0.930 . S
H2609 C2617 0.930 . S
H2610 C2618 0.930 . S
H2611 C2619 0.930 . S
H2612 C2622 0.930 . S
H2613 C2623 0.930 . S
C2614 H2608 0.930 . S
C2614 C2615 1.355 . S
C2614 C2616 1.415 . S
C2615 C2614 1.355 . S
C2615 C2617 1.419 . S
C2616 C2614 1.415 . S
C2616 C2621 1.425 . S
C2616 C2623 1.409 . S
C2617 H2609 0.930 . S
C2617 C2615 1.419 . S
C2617 C2618 1.362 . S
C2618 H2610 0.930 . S
C2618 C2617 1.362 . S
C2618 C2621 1.409 . S
C2619 H2611 0.930 . S
C2619 C2620 1.355 . S
C2619 C2621 1.415 . S
C2620 C2619 1.355 . S
C2620 C2622 1.419 . S
C2621 C2616 1.425 . S
C2621 C2618 1.409 . S
C2621 C2619 1.415 . S
C2622 H2612 0.930 . S
C2622 C2620 1.419 . S
C2622 C2623 1.362 . S
C2623 H2613 0.930 . S
C2623 C2616 1.409 . S
C2623 C2622 1.362 . S
H2624 C2630 0.930 . S
H2625 C2633 0.930 . S
H2626 C2634 0.930 . S
H2627 C2635 0.930 . S
H2628 C2638 0.930 . S
H2629 C2639 0.930 . S
C2630 H2624 0.930 . S
C2630 C2631 1.355 . S
C2630 C2632 1.415 . S
C2631 C2630 1.355 . S
C2631 C2633 1.419 . S
C2632 C2630 1.415 . S
C2632 C2637 1.425 1_545 S
C2632 C2639 1.409 1_545 S
C2633 H2625 0.930 . S
C2633 C2631 1.419 . S
C2633 C2634 1.362 . S
C2634 H2626 0.930 . S
C2634 C2633 1.362 . S
C2634 C2637 1.409 1_545 S
C2635 H2627 0.930 . S
C2635 C2636 1.355 . S
C2635 C2637 1.415 . S
C2636 C2635 1.355 . S
C2636 C2638 1.419 . S
C2637 C2632 1.425 1_565 S
C2637 C2634 1.409 1_565 S
C2637 C2635 1.415 . S
C2638 H2628 0.930 . S
C2638 C2636 1.419 . S
C2638 C2639 1.362 . S
C2639 H2629 0.930 . S
C2639 C2632 1.409 1_565 S
C2639 C2638 1.362 . S
H2640 C2646 0.930 . S
H2641 C2649 0.930 . S
H2642 C2650 0.930 . S
H2643 C2651 0.930 . S
H2644 C2654 0.930 . S
H2645 C2655 0.930 . S
C2646 H2640 0.930 . S
C2646 C2647 1.355 . S
C2646 C2648 1.415 . S
C2647 C2646 1.355 . S
C2647 C2649 1.419 . S
C2648 C2646 1.415 . S
C2648 C2653 1.425 1_554 S
C2648 C2655 1.409 . S
C2649 H2641 0.930 . S
C2649 C2647 1.419 . S
C2649 C2650 1.362 1_554 S
C2650 H2642 0.930 . S
C2650 C2649 1.362 1_556 S
C2650 C2653 1.409 . S
C2651 H2643 0.930 . S
C2651 C2652 1.355 . S
C2651 C2653 1.415 . S
C2652 C2651 1.355 . S
C2652 C2654 1.419 . S
C2653 C2648 1.425 1_556 S
C2653 C2650 1.409 . S
C2653 C2651 1.415 . S
C2654 H2644 0.930 . S
C2654 C2652 1.419 . S
C2654 C2655 1.362 1_556 S
C2655 H2645 0.930 . S
C2655 C2648 1.409 . S
C2655 C2654 1.362 1_554 S
H2656 C2662 0.930 . S
H2657 C2665 0.930 . S
H2658 C2666 0.930 . S
H2659 C2667 0.930 . S
H2660 C2670 0.930 . S
H2661 C2671 0.930 . S
C2662 H2656 0.930 . S
C2662 C2663 1.355 . S
C2662 C2664 1.415 . S
C2663 C2662 1.355 . S
C2663 C2665 1.419 . S
C2664 C2662 1.415 . S
C2664 C2669 1.425 . S
C2664 C2671 1.409 . S
C2665 H2657 0.930 . S
C2665 C2663 1.419 . S
C2665 C2666 1.362 . S
C2666 H2658 0.930 . S
C2666 C2665 1.362 . S
C2666 C2669 1.409 . S
C2667 H2659 0.930 . S
C2667 C2668 1.355 . S
C2667 C2669 1.415 . S
C2668 C2667 1.355 . S
C2668 C2670 1.419 . S
C2669 C2664 1.425 . S
C2669 C2666 1.409 . S
C2669 C2667 1.415 . S
C2670 H2660 0.930 . S
C2670 C2668 1.419 . S
C2670 C2671 1.362 . S
C2671 H2661 0.930 . S
C2671 C2664 1.409 . S
C2671 C2670 1.362 . S
H2672 C2678 0.930 . S
H2673 C2681 0.930 . S
H2674 C2682 0.930 . S
H2675 C2683 0.930 . S
H2676 C2686 0.930 . S
H2677 C2687 0.930 . S
C2678 H2672 0.930 . S
C2678 C2679 1.355 . S
C2678 C2680 1.415 . S
C2679 C2678 1.355 . S
C2679 C2681 1.419 . S
C2680 C2678 1.415 . S
C2680 C2685 1.425 . S
C2680 C2687 1.409 . S
C2681 H2673 0.930 . S
C2681 C2679 1.419 . S
C2681 C2682 1.362 . S
C2682 H2674 0.930 . S
C2682 C2681 1.362 . S
C2682 C2685 1.409 . S
C2683 H2675 0.930 . S
C2683 C2684 1.355 . S
C2683 C2685 1.415 . S
C2684 C2683 1.355 . S
C2684 C2686 1.419 . S
C2685 C2680 1.425 . S
C2685 C2682 1.409 . S
C2685 C2683 1.415 . S
C2686 H2676 0.930 . S
C2686 C2684 1.419 . S
C2686 C2687 1.362 . S
C2687 H2677 0.930 . S
C2687 C2680 1.409 . S
C2687 C2686 1.362 . S
H2688 C2694 0.930 . S
H2689 C2697 0.930 . S
H2690 C2698 0.930 . S
H2691 C2699 0.930 . S
H2692 C2702 0.930 . S
H2693 C2703 0.930 . S
C2694 H2688 0.930 . S
C2694 C2695 1.355 . S
C2694 C2696 1.415 . S
C2695 C2694 1.355 . S
C2695 C2697 1.419 . S
C2696 C2694 1.415 . S
C2696 C2701 1.425 . S
C2696 C2703 1.409 . S
C2697 H2689 0.930 . S
C2697 C2695 1.419 . S
C2697 C2698 1.362 . S
C2698 H2690 0.930 . S
C2698 C2697 1.362 . S
C2698 C2701 1.409 . S
C2699 H2691 0.930 . S
C2699 C2700 1.355 . S
C2699 C2701 1.415 . S
C2700 C2699 1.355 . S
C2700 C2702 1.419 . S
C2701 C2696 1.425 . S
C2701 C2698 1.409 . S
C2701 C2699 1.415 . S
C2702 H2692 0.930 . S
C2702 C2700 1.419 . S
C2702 C2703 1.362 . S
C2703 H2693 0.930 . S
C2703 C2696 1.409 . S
C2703 C2702 1.362 . S
H2704 C2710 0.930 . S
H2705 C2713 0.930 . S
H2706 C2714 0.930 1_545 S
H2707 C2715 0.930 . S
H2708 C2718 0.930 . S
H2709 C2719 0.930 1_565 S
C2710 H2704 0.930 . S
C2710 C2711 1.355 . S
C2710 C2712 1.415 . S
C2711 C2710 1.355 . S
C2711 C2713 1.419 . S
C2712 C2710 1.415 . S
C2712 C2717 1.425 1_565 S
C2712 C2719 1.409 1_565 S
C2713 H2705 0.930 . S
C2713 C2711 1.419 . S
C2713 C2714 1.362 . S
C2714 H2706 0.930 1_565 S
C2714 C2713 1.362 . S
C2714 C2717 1.409 1_565 S
C2715 H2707 0.930 . S
C2715 C2716 1.355 . S
C2715 C2717 1.415 . S
C2716 C2715 1.355 . S
C2716 C2718 1.419 . S
C2717 C2712 1.425 1_545 S
C2717 C2714 1.409 1_545 S
C2717 C2715 1.415 . S
C2718 H2708 0.930 . S
C2718 C2716 1.419 . S
C2718 C2719 1.362 . S
C2719 H2709 0.930 1_545 S
C2719 C2712 1.409 1_545 S
C2719 C2718 1.362 . S
H2720 C2726 0.930 . S
H2721 C2729 0.930 . S
H2722 C2730 0.930 . S
H2723 C2731 0.930 . S
H2724 C2734 0.930 . S
H2725 C2735 0.930 . S
C2726 H2720 0.930 . S
C2726 C2727 1.355 . S
C2726 C2728 1.415 . S
C2727 C2726 1.355 . S
C2727 C2729 1.419 . S
C2728 C2726 1.415 . S
C2728 C2733 1.425 1_556 S
C2728 C2735 1.409 . S
C2729 H2721 0.930 . S
C2729 C2727 1.419 . S
C2729 C2730 1.362 1_556 S
C2730 H2722 0.930 . S
C2730 C2729 1.362 1_554 S
C2730 C2733 1.409 . S
C2731 H2723 0.930 . S
C2731 C2732 1.355 . S
C2731 C2733 1.415 . S
C2732 C2731 1.355 . S
C2732 C2734 1.419 . S
C2733 C2728 1.425 1_554 S
C2733 C2730 1.409 . S
C2733 C2731 1.415 . S
C2734 H2724 0.930 . S
C2734 C2732 1.419 . S
C2734 C2735 1.362 1_554 S
C2735 H2725 0.930 . S
C2735 C2728 1.409 . S
C2735 C2734 1.362 1_556 S
H2736 C2742 0.930 . S
H2737 C2745 0.930 . S
H2738 C2746 0.930 . S
H2739 C2747 0.930 . S
H2740 C2750 0.930 . S
H2741 C2751 0.930 . S
C2742 H2736 0.930 . S
C2742 C2743 1.355 . S
C2742 C2744 1.415 . S
C2743 C2742 1.355 . S
C2743 C2745 1.419 . S
C2744 C2742 1.415 . S
C2744 C2749 1.425 . S
C2744 C2751 1.409 . S
C2745 H2737 0.930 . S
C2745 C2743 1.419 . S
C2745 C2746 1.362 . S
C2746 H2738 0.930 . S
C2746 C2745 1.362 . S
C2746 C2749 1.409 . S
C2747 H2739 0.930 . S
C2747 C2748 1.355 . S
C2747 C2749 1.415 . S
C2748 C2747 1.355 . S
C2748 C2750 1.419 . S
C2749 C2744 1.425 . S
C2749 C2746 1.409 . S
C2749 C2747 1.415 . S
C2750 H2740 0.930 . S
C2750 C2748 1.419 . S
C2750 C2751 1.362 . S
C2751 H2741 0.930 . S
C2751 C2744 1.409 . S
C2751 C2750 1.362 . S
H2752 C2758 0.930 . S
H2753 C2761 0.930 . S
H2754 C2762 0.930 . S
H2755 C2763 0.930 . S
H2756 C2766 0.930 . S
H2757 C2767 0.930 . S
C2758 H2752 0.930 . S
C2758 C2759 1.355 . S
C2758 C2760 1.415 . S
C2759 C2758 1.355 . S
C2759 C2761 1.419 . S
C2760 C2758 1.415 . S
C2760 C2765 1.425 . S
C2760 C2767 1.409 . S
C2761 H2753 0.930 . S
C2761 C2759 1.419 . S
C2761 C2762 1.362 . S
C2762 H2754 0.930 . S
C2762 C2761 1.362 . S
C2762 C2765 1.409 . S
C2763 H2755 0.930 . S
C2763 C2764 1.355 . S
C2763 C2765 1.415 . S
C2764 C2763 1.355 . S
C2764 C2766 1.419 . S
C2765 C2760 1.425 . S
C2765 C2762 1.409 . S
C2765 C2763 1.415 . S
C2766 H2756 0.930 . S
C2766 C2764 1.419 . S
C2766 C2767 1.362 . S
C2767 H2757 0.930 . S
C2767 C2760 1.409 . S
C2767 C2766 1.362 . S
H2768 C2774 0.930 . S
H2769 C2777 0.930 . S
H2770 C2778 0.930 . S
H2771 C2779 0.930 . S
H2772 C2782 0.930 . S
H2773 C2783 0.930 . S
C2774 H2768 0.930 . S
C2774 C2775 1.355 . S
C2774 C2776 1.415 1_556 S
C2775 C2774 1.355 . S
C2775 C2777 1.419 . S
C2776 C2774 1.415 1_554 S
C2776 C2781 1.425 . S
C2776 C2783 1.409 . S
C2777 H2769 0.930 . S
C2777 C2775 1.419 . S
C2777 C2778 1.362 . S
C2778 H2770 0.930 . S
C2778 C2777 1.362 . S
C2778 C2781 1.409 1_556 S
C2779 H2771 0.930 . S
C2779 C2780 1.355 . S
C2779 C2781 1.415 . S
C2780 C2779 1.355 . S
C2780 C2782 1.419 . S
C2781 C2776 1.425 . S
C2781 C2778 1.409 1_554 S
C2781 C2779 1.415 . S
C2782 H2772 0.930 . S
C2782 C2780 1.419 . S
C2782 C2783 1.362 . S
C2783 H2773 0.930 . S
C2783 C2776 1.409 . S
C2783 C2782 1.362 . S
H2784 C2790 0.930 . S
H2785 C2793 0.930 . S
H2786 C2794 0.930 . S
H2787 C2795 0.930 . S
H2788 C2798 0.930 . S
H2789 C2799 0.930 . S
C2790 H2784 0.930 . S
C2790 C2791 1.355 . S
C2790 C2792 1.415 1_556 S
C2791 C2790 1.355 . S
C2791 C2793 1.419 . S
C2792 C2790 1.415 1_554 S
C2792 C2797 1.425 . S
C2792 C2799 1.409 . S
C2793 H2785 0.930 . S
C2793 C2791 1.419 . S
C2793 C2794 1.362 . S
C2794 H2786 0.930 . S
C2794 C2793 1.362 . S
C2794 C2797 1.409 1_556 S
C2795 H2787 0.930 . S
C2795 C2796 1.355 . S
C2795 C2797 1.415 . S
C2796 C2795 1.355 . S
C2796 C2798 1.419 . S
C2797 C2792 1.425 . S
C2797 C2794 1.409 1_554 S
C2797 C2795 1.415 . S
C2798 H2788 0.930 . S
C2798 C2796 1.419 . S
C2798 C2799 1.362 . S
C2799 H2789 0.930 . S
C2799 C2792 1.409 . S
C2799 C2798 1.362 . S
H2800 C2806 0.930 . S
H2801 C2809 0.930 . S
H2802 C2810 0.930 . S
H2803 C2811 0.930 . S
H2804 C2814 0.930 . S
H2805 C2815 0.930 . S
C2806 H2800 0.930 . S
C2806 C2807 1.355 . S
C2806 C2808 1.415 . S
C2807 C2806 1.355 . S
C2807 C2809 1.419 . S
C2808 C2806 1.415 . S
C2808 C2813 1.425 . S
C2808 C2815 1.409 . S
C2809 H2801 0.930 . S
C2809 C2807 1.419 . S
C2809 C2810 1.362 . S
C2810 H2802 0.930 . S
C2810 C2809 1.362 . S
C2810 C2813 1.409 . S
C2811 H2803 0.930 . S
C2811 C2812 1.355 . S
C2811 C2813 1.415 . S
C2812 C2811 1.355 . S
C2812 C2814 1.419 . S
C2813 C2808 1.425 . S
C2813 C2810 1.409 . S
C2813 C2811 1.415 . S
C2814 H2804 0.930 . S
C2814 C2812 1.419 . S
C2814 C2815 1.362 . S
C2815 H2805 0.930 . S
C2815 C2808 1.409 . S
C2815 C2814 1.362 . S
H2816 C2822 0.930 . S
H2817 C2825 0.930 . S
H2818 C2826 0.930 . S
H2819 C2827 0.930 . S
H2820 C2830 0.930 . S
H2821 C2831 0.930 . S
C2822 H2816 0.930 . S
C2822 C2823 1.355 . S
C2822 C2824 1.415 . S
C2823 C2822 1.355 . S
C2823 C2825 1.419 . S
C2824 C2822 1.415 . S
C2824 C2829 1.425 . S
C2824 C2831 1.409 . S
C2825 H2817 0.930 . S
C2825 C2823 1.419 . S
C2825 C2826 1.362 . S
C2826 H2818 0.930 . S
C2826 C2825 1.362 . S
C2826 C2829 1.409 . S
C2827 H2819 0.930 . S
C2827 C2828 1.355 . S
C2827 C2829 1.415 . S
C2828 C2827 1.355 . S
C2828 C2830 1.419 . S
C2829 C2824 1.425 . S
C2829 C2826 1.409 . S
C2829 C2827 1.415 . S
C2830 H2820 0.930 . S
C2830 C2828 1.419 . S
C2830 C2831 1.362 . S
C2831 H2821 0.930 . S
C2831 C2824 1.409 . S
C2831 C2830 1.362 . S
H2832 C2838 0.930 . S
H2833 C2841 0.930 . S
H2834 C2842 0.930 . S
H2835 C2843 0.930 . S
H2836 C2846 0.930 . S
H2837 C2847 0.930 . S
C2838 H2832 0.930 . S
C2838 C2839 1.355 . S
C2838 C2840 1.415 . S
C2839 C2838 1.355 . S
C2839 C2841 1.419 . S
C2840 C2838 1.415 . S
C2840 C2845 1.425 . S
C2840 C2847 1.409 . S
C2841 H2833 0.930 . S
C2841 C2839 1.419 . S
C2841 C2842 1.362 . S
C2842 H2834 0.930 . S
C2842 C2841 1.362 . S
C2842 C2845 1.409 . S
C2843 H2835 0.930 . S
C2843 C2844 1.355 . S
C2843 C2845 1.415 . S
C2844 C2843 1.355 . S
C2844 C2846 1.419 . S
C2845 C2840 1.425 . S
C2845 C2842 1.409 . S
C2845 C2843 1.415 . S
C2846 H2836 0.930 . S
C2846 C2844 1.419 . S
C2846 C2847 1.362 . S
C2847 H2837 0.930 . S
C2847 C2840 1.409 . S
C2847 C2846 1.362 . S
H2848 C2854 0.930 . S
H2849 C2857 0.930 . S
H2850 C2858 0.930 . S
H2851 C2859 0.930 . S
H2852 C2862 0.930 . S
H2853 C2863 0.930 . S
C2854 H2848 0.930 . S
C2854 C2855 1.355 . S
C2854 C2856 1.415 . S
C2855 C2854 1.355 . S
C2855 C2857 1.419 . S
C2856 C2854 1.415 . S
C2856 C2861 1.425 . S
C2856 C2863 1.409 . S
C2857 H2849 0.930 . S
C2857 C2855 1.419 . S
C2857 C2858 1.362 . S
C2858 H2850 0.930 . S
C2858 C2857 1.362 . S
C2858 C2861 1.409 . S
C2859 H2851 0.930 . S
C2859 C2860 1.355 . S
C2859 C2861 1.415 . S
C2860 C2859 1.355 . S
C2860 C2862 1.419 . S
C2861 C2856 1.425 . S
C2861 C2858 1.409 . S
C2861 C2859 1.415 . S
C2862 H2852 0.930 . S
C2862 C2860 1.419 . S
C2862 C2863 1.362 . S
C2863 H2853 0.930 . S
C2863 C2856 1.409 . S
C2863 C2862 1.362 . S
H2864 C2870 0.930 . S
H2865 C2873 0.930 . S
H2866 C2874 0.930 . S
H2867 C2875 0.930 . S
H2868 C2878 0.930 . S
H2869 C2879 0.930 . S
C2870 H2864 0.930 . S
C2870 C2871 1.355 . S
C2870 C2872 1.415 . S
C2871 C2870 1.355 . S
C2871 C2873 1.419 . S
C2872 C2870 1.415 . S
C2872 C2877 1.425 . S
C2872 C2879 1.409 . S
C2873 H2865 0.930 . S
C2873 C2871 1.419 . S
C2873 C2874 1.362 . S
C2874 H2866 0.930 . S
C2874 C2873 1.362 . S
C2874 C2877 1.409 . S
C2875 H2867 0.930 . S
C2875 C2876 1.355 . S
C2875 C2877 1.415 . S
C2876 C2875 1.355 . S
C2876 C2878 1.419 . S
C2877 C2872 1.425 . S
C2877 C2874 1.409 . S
C2877 C2875 1.415 . S
C2878 H2868 0.930 . S
C2878 C2876 1.419 . S
C2878 C2879 1.362 . S
C2879 H2869 0.930 . S
C2879 C2872 1.409 . S
C2879 C2878 1.362 . S
H2880 C2886 0.930 . S
H2881 C2889 0.930 . S
H2882 C2890 0.930 . S
H2883 C2891 0.930 . S
H2884 C2894 0.930 . S
H2885 C2895 0.930 . S
C2886 H2880 0.930 . S
C2886 C2887 1.355 . S
C2886 C2888 1.415 . S
C2887 C2886 1.355 . S
C2887 C2889 1.419 . S
C2888 C2886 1.415 . S
C2888 C2893 1.425 . S
C2888 C2895 1.409 . S
C2889 H2881 0.930 . S
C2889 C2887 1.419 . S
C2889 C2890 1.362 . S
C2890 H2882 0.930 . S
C2890 C2889 1.362 . S
C2890 C2893 1.409 . S
C2891 H2883 0.930 . S
C2891 C2892 1.355 . S
C2891 C2893 1.415 . S
C2892 C2891 1.355 . S
C2892 C2894 1.419 . S
C2893 C2888 1.425 . S
C2893 C2890 1.409 . S
C2893 C2891 1.415 . S
C2894 H2884 0.930 . S
C2894 C2892 1.419 . S
C2894 C2895 1.362 . S
C2895 H2885 0.930 . S
C2895 C2888 1.409 . S
C2895 C2894 1.362 . S
H2896 C2902 0.930 . S
H2897 C2905 0.930 . S
H2898 C2906 0.930 . S
H2899 C2907 0.930 . S
H2900 C2910 0.930 . S
H2901 C2911 0.930 . S
C2902 H2896 0.930 . S
C2902 C2903 1.355 . S
C2902 C2904 1.415 . S
C2903 C2902 1.355 . S
C2903 C2905 1.419 . S
C2904 C2902 1.415 . S
C2904 C2909 1.425 . S
C2904 C2911 1.409 1_565 S
C2905 H2897 0.930 . S
C2905 C2903 1.419 . S
C2905 C2906 1.362 . S
C2906 H2898 0.930 . S
C2906 C2905 1.362 . S
C2906 C2909 1.408 . S
C2907 H2899 0.930 . S
C2907 C2908 1.355 . S
C2907 C2909 1.416 1_545 S
C2908 C2907 1.355 . S
C2908 C2910 1.419 . S
C2909 C2904 1.425 . S
C2909 C2906 1.408 . S
C2909 C2907 1.416 1_565 S
C2910 H2900 0.930 . S
C2910 C2908 1.419 . S
C2910 C2911 1.362 . S
C2911 H2901 0.930 . S
C2911 C2904 1.409 1_545 S
C2911 C2910 1.362 . S
H2912 C2918 0.930 . S
H2913 C2921 0.930 . S
H2914 C2922 0.930 . S
H2915 C2923 0.930 . S
H2916 C2926 0.930 . S
H2917 C2927 0.930 . S
C2918 H2912 0.930 . S
C2918 C2919 1.355 . S
C2918 C2920 1.415 . S
C2919 C2918 1.355 . S
C2919 C2921 1.419 . S
C2920 C2918 1.415 . S
C2920 C2925 1.425 . S
C2920 C2927 1.409 . S
C2921 H2913 0.930 . S
C2921 C2919 1.419 . S
C2921 C2922 1.362 . S
C2922 H2914 0.930 . S
C2922 C2921 1.362 . S
C2922 C2925 1.409 . S
C2923 H2915 0.930 . S
C2923 C2924 1.355 . S
C2923 C2925 1.415 . S
C2924 C2923 1.355 . S
C2924 C2926 1.419 . S
C2925 C2920 1.425 . S
C2925 C2922 1.409 . S
C2925 C2923 1.415 . S
C2926 H2916 0.930 . S
C2926 C2924 1.419 . S
C2926 C2927 1.362 . S
C2927 H2917 0.930 . S
C2927 C2920 1.409 . S
C2927 C2926 1.362 . S
H2928 C2934 0.930 . S
H2929 C2937 0.930 . S
H2930 C2938 0.930 . S
H2931 C2939 0.930 . S
H2932 C2942 0.930 . S
H2933 C2943 0.930 . S
C2934 H2928 0.930 . S
C2934 C2935 1.355 . S
C2934 C2936 1.415 . S
C2935 C2934 1.355 . S
C2935 C2937 1.419 . S
C2936 C2934 1.415 . S
C2936 C2941 1.425 . S
C2936 C2943 1.409 . S
C2937 H2929 0.930 . S
C2937 C2935 1.419 . S
C2937 C2938 1.362 . S
C2938 H2930 0.930 . S
C2938 C2937 1.362 . S
C2938 C2941 1.409 . S
C2939 H2931 0.930 . S
C2939 C2940 1.355 . S
C2939 C2941 1.415 . S
C2940 C2939 1.355 . S
C2940 C2942 1.419 . S
C2941 C2936 1.425 . S
C2941 C2938 1.409 . S
C2941 C2939 1.415 . S
C2942 H2932 0.930 . S
C2942 C2940 1.419 . S
C2942 C2943 1.362 . S
C2943 H2933 0.930 . S
C2943 C2936 1.409 . S
C2943 C2942 1.362 . S
H2944 C2950 0.930 . S
H2945 C2953 0.930 . S
H2946 C2954 0.930 . S
H2947 C2955 0.930 . S
H2948 C2958 0.930 . S
H2949 C2959 0.930 . S
C2950 H2944 0.930 . S
C2950 C2951 1.355 . S
C2950 C2952 1.415 . S
C2951 C2950 1.355 . S
C2951 C2953 1.419 . S
C2952 C2950 1.415 . S
C2952 C2957 1.425 . S
C2952 C2959 1.409 . S
C2953 H2945 0.930 . S
C2953 C2951 1.419 . S
C2953 C2954 1.362 . S
C2954 H2946 0.930 . S
C2954 C2953 1.362 . S
C2954 C2957 1.409 . S
C2955 H2947 0.930 . S
C2955 C2956 1.355 . S
C2955 C2957 1.415 . S
C2956 C2955 1.355 . S
C2956 C2958 1.419 . S
C2957 C2952 1.425 . S
C2957 C2954 1.409 . S
C2957 C2955 1.415 . S
C2958 H2948 0.930 . S
C2958 C2956 1.419 . S
C2958 C2959 1.362 . S
C2959 H2949 0.930 . S
C2959 C2952 1.409 . S
C2959 C2958 1.362 . S
H2960 C2966 0.930 . S
H2961 C2969 0.930 . S
H2962 C2970 0.930 . S
H2963 C2971 0.930 . S
H2964 C2974 0.930 . S
H2965 C2975 0.930 1_556 S
C2966 H2960 0.930 . S
C2966 C2967 1.355 . S
C2966 C2968 1.415 . S
C2967 C2966 1.355 . S
C2967 C2969 1.419 . S
C2968 C2966 1.415 . S
C2968 C2973 1.425 1_556 S
C2968 C2975 1.409 1_556 S
C2969 H2961 0.930 . S
C2969 C2967 1.419 . S
C2969 C2970 1.362 . S
C2970 H2962 0.930 . S
C2970 C2969 1.362 . S
C2970 C2973 1.409 1_556 S
C2971 H2963 0.930 . S
C2971 C2972 1.355 . S
C2971 C2973 1.415 . S
C2972 C2971 1.355 . S
C2972 C2974 1.419 . S
C2973 C2968 1.425 1_554 S
C2973 C2970 1.409 1_554 S
C2973 C2971 1.415 . S
C2974 H2964 0.930 . S
C2974 C2972 1.419 . S
C2974 C2975 1.362 . S
C2975 H2965 0.930 1_554 S
C2975 C2968 1.409 1_554 S
C2975 C2974 1.362 . S
H2976 C2982 0.930 . S
H2977 C2985 0.930 . S
H2978 C2986 0.930 . S
H2979 C2987 0.930 . S
H2980 C2990 0.930 . S
H2981 C2991 0.930 1_556 S
C2982 H2976 0.930 . S
C2982 C2983 1.355 . S
C2982 C2984 1.415 . S
C2983 C2982 1.355 . S
C2983 C2985 1.419 . S
C2984 C2982 1.415 . S
C2984 C2989 1.407 1_556 S
C2984 C2991 1.409 1_556 S
C2985 H2977 0.930 . S
C2985 C2983 1.419 . S
C2985 C2986 1.362 . S
C2986 H2978 0.930 . S
C2986 C2985 1.362 . S
C2986 C2989 1.384 1_556 S
C2987 H2979 0.930 . S
C2987 C2988 1.355 . S
C2987 C2989 1.458 . S
C2988 C2987 1.355 . S
C2988 C2990 1.419 . S
C2989 C2984 1.407 1_554 S
C2989 C2986 1.384 1_554 S
C2989 C2987 1.458 . S
C2990 H2980 0.930 . S
C2990 C2988 1.419 . S
C2990 C2991 1.362 . S
C2991 H2981 0.930 1_554 S
C2991 C2984 1.409 1_554 S
C2991 C2990 1.362 . S
H2992 C2998 0.930 . S
H2993 C3001 0.930 . S
H2994 C3002 0.930 . S
H2995 C3003 0.930 . S
H2996 C3006 0.930 . S
H2997 C3007 0.930 . S
C2998 H2992 0.930 . S
C2998 C2999 1.355 . S
C2998 C3000 1.415 . S
C2999 C2998 1.355 . S
C2999 C3001 1.419 . S
C3000 C2998 1.415 . S
C3000 C3005 1.425 . S
C3000 C3007 1.409 . S
C3001 H2993 0.930 . S
C3001 C2999 1.419 . S
C3001 C3002 1.362 . S
C3002 H2994 0.930 . S
C3002 C3001 1.362 . S
C3002 C3005 1.409 . S
C3003 H2995 0.930 . S
C3003 C3004 1.355 . S
C3003 C3005 1.415 . S
C3004 C3003 1.355 . S
C3004 C3006 1.419 . S
C3005 C3000 1.425 . S
C3005 C3002 1.409 . S
C3005 C3003 1.415 . S
C3006 H2996 0.930 . S
C3006 C3004 1.419 . S
C3006 C3007 1.362 . S
C3007 H2997 0.930 . S
C3007 C3000 1.409 . S
C3007 C3006 1.362 . S
H3008 C3014 0.930 . S
H3009 C3017 0.930 . S
H3010 C3018 0.930 . S
H3011 C3019 0.930 . S
H3012 C3022 0.930 . S
H3013 C3023 0.930 . S
C3014 H3008 0.930 . S
C3014 C3015 1.355 . S
C3014 C3016 1.415 . S
C3015 C3014 1.355 . S
C3015 C3017 1.419 . S
C3016 C3014 1.415 . S
C3016 C3021 1.425 . S
C3016 C3023 1.409 . S
C3017 H3009 0.930 . S
C3017 C3015 1.419 . S
C3017 C3018 1.362 . S
C3018 H3010 0.930 . S
C3018 C3017 1.362 . S
C3018 C3021 1.409 . S
C3019 H3011 0.930 . S
C3019 C3020 1.355 . S
C3019 C3021 1.415 . S
C3020 C3019 1.355 . S
C3020 C3022 1.419 . S
C3021 C3016 1.425 . S
C3021 C3018 1.409 . S
C3021 C3019 1.415 . S
C3022 H3012 0.930 . S
C3022 C3020 1.419 . S
C3022 C3023 1.362 . S
C3023 H3013 0.930 . S
C3023 C3016 1.409 . S
C3023 C3022 1.362 . S
H3024 C3030 0.930 . S
H3025 C3033 0.930 . S
H3026 C3034 0.930 . S
H3027 C3035 0.930 . S
H3028 C3038 0.930 . S
H3029 C3039 0.930 . S
C3030 H3024 0.930 . S
C3030 C3031 1.355 . S
C3030 C3032 1.415 . S
C3031 C3030 1.355 . S
C3031 C3033 1.419 . S
C3032 C3030 1.415 . S
C3032 C3037 1.425 . S
C3032 C3039 1.409 . S
C3033 H3025 0.930 . S
C3033 C3031 1.419 . S
C3033 C3034 1.362 . S
C3034 H3026 0.930 . S
C3034 C3033 1.362 . S
C3034 C3037 1.409 . S
C3035 H3027 0.930 . S
C3035 C3036 1.355 . S
C3035 C3037 1.415 . S
C3036 C3035 1.355 . S
C3036 C3038 1.419 . S
C3037 C3032 1.425 . S
C3037 C3034 1.409 . S
C3037 C3035 1.415 . S
C3038 H3028 0.930 . S
C3038 C3036 1.419 . S
C3038 C3039 1.362 . S
C3039 H3029 0.930 . S
C3039 C3032 1.409 . S
C3039 C3038 1.362 . S
H3040 C3046 0.930 . S
H3041 C3049 0.930 . S
H3042 C3050 0.930 . S
H3043 C3051 0.930 . S
H3044 C3054 0.930 . S
H3045 C3055 0.930 . S
C3046 H3040 0.930 . S
C3046 C3047 1.355 . S
C3046 C3048 1.415 . S
C3047 C3046 1.355 . S
C3047 C3049 1.419 . S
C3048 C3046 1.415 . S
C3048 C3053 1.425 . S
C3048 C3055 1.409 . S
C3049 H3041 0.930 . S
C3049 C3047 1.419 . S
C3049 C3050 1.362 . S
C3050 H3042 0.930 . S
C3050 C3049 1.362 . S
C3050 C3053 1.409 . S
C3051 H3043 0.930 . S
C3051 C3052 1.355 . S
C3051 C3053 1.415 . S
C3052 C3051 1.355 . S
C3052 C3054 1.419 . S
C3053 C3048 1.425 . S
C3053 C3050 1.409 . S
C3053 C3051 1.415 . S
C3054 H3044 0.930 . S
C3054 C3052 1.419 . S
C3054 C3055 1.362 . S
C3055 H3045 0.930 . S
C3055 C3048 1.409 . S
C3055 C3054 1.362 . S
H3056 C3062 0.930 . S
H3057 C3065 0.930 . S
H3058 C3066 0.930 . S
H3059 C3067 0.930 . S
H3060 C3070 0.930 . S
H3061 C3071 0.930 . S
C3062 H3056 0.930 . S
C3062 C3063 1.355 . S
C3062 C3064 1.415 . S
C3063 C3062 1.355 . S
C3063 C3065 1.419 . S
C3064 C3062 1.415 . S
C3064 C3069 1.425 . S
C3064 C3071 1.409 . S
C3065 H3057 0.930 . S
C3065 C3063 1.419 . S
C3065 C3066 1.362 . S
C3066 H3058 0.930 . S
C3066 C3065 1.362 . S
C3066 C3069 1.409 . S
C3067 H3059 0.930 . S
C3067 C3068 1.355 . S
C3067 C3069 1.415 . S
C3068 C3067 1.355 . S
C3068 C3070 1.419 . S
C3069 C3064 1.425 . S
C3069 C3066 1.409 . S
C3069 C3067 1.415 . S
C3070 H3060 0.930 . S
C3070 C3068 1.419 . S
C3070 C3071 1.362 . S
C3071 H3061 0.930 . S
C3071 C3064 1.409 . S
C3071 C3070 1.362 . S
H3072 C3078 0.930 . S
H3073 C3081 0.930 . S
H3074 C3082 0.930 . S
H3075 C3083 0.930 . S
H3076 C3086 0.930 . S
H3077 C3087 0.930 . S
C3078 H3072 0.930 . S
C3078 C3079 1.355 . S
C3078 C3080 1.415 . S
C3079 C3078 1.355 . S
C3079 C3081 1.419 . S
C3080 C3078 1.415 . S
C3080 C3085 1.425 . S
C3080 C3087 1.409 . S
C3081 H3073 0.930 . S
C3081 C3079 1.419 . S
C3081 C3082 1.362 . S
C3082 H3074 0.930 . S
C3082 C3081 1.362 . S
C3082 C3085 1.409 . S
C3083 H3075 0.930 . S
C3083 C3084 1.355 . S
C3083 C3085 1.415 . S
C3084 C3083 1.355 . S
C3084 C3086 1.419 . S
C3085 C3080 1.425 . S
C3085 C3082 1.409 . S
C3085 C3083 1.415 . S
C3086 H3076 0.930 . S
C3086 C3084 1.419 . S
C3086 C3087 1.362 . S
C3087 H3077 0.930 . S
C3087 C3080 1.409 . S
C3087 C3086 1.362 . S
H3088 C3094 0.930 . S
H3089 C3097 0.930 . S
H3090 C3098 0.930 . S
H3091 C3099 0.930 . S
H3092 C3102 0.930 . S
H3093 C3103 0.930 . S
C3094 H3088 0.930 . S
C3094 C3095 1.355 . S
C3094 C3096 1.415 1_565 S
C3095 C3094 1.355 . S
C3095 C3097 1.419 . S
C3096 C3094 1.415 1_545 S
C3096 C3101 1.425 . S
C3096 C3103 1.409 . S
C3097 H3089 0.930 . S
C3097 C3095 1.419 . S
C3097 C3098 1.362 . S
C3098 H3090 0.930 . S
C3098 C3097 1.362 . S
C3098 C3101 1.409 1_565 S
C3099 H3091 0.930 . S
C3099 C3100 1.355 . S
C3099 C3101 1.415 . S
C3100 C3099 1.355 . S
C3100 C3102 1.419 . S
C3101 C3096 1.425 . S
C3101 C3098 1.409 1_545 S
C3101 C3099 1.415 . S
C3102 H3092 0.930 . S
C3102 C3100 1.419 . S
C3102 C3103 1.362 . S
C3103 H3093 0.930 . S
C3103 C3096 1.409 . S
C3103 C3102 1.362 . S
H3104 C3110 0.930 . S
H3105 C3113 0.930 . S
H3106 C3114 0.930 . S
H3107 C3115 0.930 . S
H3108 C3118 0.930 . S
H3109 C3119 0.930 . S
C3110 H3104 0.930 . S
C3110 C3111 1.355 . S
C3110 C3112 1.415 . S
C3111 C3110 1.355 . S
C3111 C3113 1.419 . S
C3112 C3110 1.415 . S
C3112 C3117 1.425 . S
C3112 C3119 1.409 . S
C3113 H3105 0.930 . S
C3113 C3111 1.419 . S
C3113 C3114 1.362 . S
C3114 H3106 0.930 . S
C3114 C3113 1.362 . S
C3114 C3117 1.409 . S
C3115 H3107 0.930 . S
C3115 C3116 1.355 . S
C3115 C3117 1.415 . S
C3116 C3115 1.355 . S
C3116 C3118 1.419 . S
C3117 C3112 1.425 . S
C3117 C3114 1.409 . S
C3117 C3115 1.415 . S
C3118 H3108 0.930 . S
C3118 C3116 1.419 . S
C3118 C3119 1.362 . S
C3119 H3109 0.930 . S
C3119 C3112 1.409 . S
C3119 C3118 1.362 . S
H3120 C3126 0.930 . S
H3121 C3129 0.930 . S
H3122 C3130 0.930 . S
H3123 C3131 0.930 . S
H3124 C3134 0.930 . S
H3125 C3135 0.930 . S
C3126 H3120 0.930 . S
C3126 C3127 1.355 . S
C3126 C3128 1.415 . S
C3127 C3126 1.355 . S
C3127 C3129 1.419 . S
C3128 C3126 1.415 . S
C3128 C3133 1.436 . S
C3128 C3135 1.409 1_556 S
C3129 H3121 0.930 . S
C3129 C3127 1.419 . S
C3129 C3130 1.362 . S
C3130 H3122 0.930 . S
C3130 C3129 1.362 . S
C3130 C3133 1.432 . S
C3131 H3123 0.930 . S
C3131 C3132 1.355 . S
C3131 C3133 1.383 1_554 S
C3132 C3131 1.355 . S
C3132 C3134 1.419 . S
C3133 C3128 1.436 . S
C3133 C3130 1.432 . S
C3133 C3131 1.383 1_556 S
C3134 H3124 0.930 . S
C3134 C3132 1.419 . S
C3134 C3135 1.362 . S
C3135 H3125 0.930 . S
C3135 C3128 1.409 1_554 S
C3135 C3134 1.362 . S
H3136 C3142 0.930 . S
H3137 C3145 0.930 . S
H3138 C3146 0.930 1_556 S
H3139 C3147 0.930 . S
H3140 C3150 0.930 . S
H3141 C3151 0.930 . S
C3142 H3136 0.930 . S
C3142 C3143 1.355 . S
C3142 C3144 1.415 . S
C3143 C3142 1.355 . S
C3143 C3145 1.419 . S
C3144 C3142 1.415 . S
C3144 C3149 1.425 1_554 S
C3144 C3151 1.409 1_554 S
C3145 H3137 0.930 . S
C3145 C3143 1.419 . S
C3145 C3146 1.362 . S
C3146 H3138 0.930 1_554 S
C3146 C3145 1.362 . S
C3146 C3149 1.409 1_554 S
C3147 H3139 0.930 . S
C3147 C3148 1.355 . S
C3147 C3149 1.415 . S
C3148 C3147 1.355 . S
C3148 C3150 1.419 . S
C3149 C3144 1.425 1_556 S
C3149 C3146 1.409 1_556 S
C3149 C3147 1.415 . S
C3150 H3140 0.930 . S
C3150 C3148 1.419 . S
C3150 C3151 1.362 . S
C3151 H3141 0.930 . S
C3151 C3144 1.409 1_556 S
C3151 C3150 1.362 . S
H3152 C3158 0.930 . S
H3153 C3161 0.930 . S
H3154 C3162 0.930 . S
H3155 C3163 0.930 . S
H3156 C3166 0.930 . S
H3157 C3167 0.930 . S
C3158 H3152 0.930 . S
C3158 C3159 1.355 . S
C3158 C3160 1.415 . S
C3159 C3158 1.355 . S
C3159 C3161 1.419 . S
C3160 C3158 1.415 . S
C3160 C3165 1.425 . S
C3160 C3167 1.409 . S
C3161 H3153 0.930 . S
C3161 C3159 1.419 . S
C3161 C3162 1.362 . S
C3162 H3154 0.930 . S
C3162 C3161 1.362 . S
C3162 C3165 1.409 . S
C3163 H3155 0.930 . S
C3163 C3164 1.355 . S
C3163 C3165 1.415 . S
C3164 C3163 1.355 . S
C3164 C3166 1.419 . S
C3165 C3160 1.425 . S
C3165 C3162 1.409 . S
C3165 C3163 1.415 . S
C3166 H3156 0.930 . S
C3166 C3164 1.419 . S
C3166 C3167 1.362 . S
C3167 H3157 0.930 . S
C3167 C3160 1.409 . S
C3167 C3166 1.362 . S
H3168 C3174 0.930 . S
H3169 C3177 0.930 . S
H3170 C3178 0.930 . S
H3171 C3179 0.930 . S
H3172 C3182 0.930 . S
H3173 C3183 0.930 . S
C3174 H3168 0.930 . S
C3174 C3175 1.355 . S
C3174 C3176 1.415 . S
C3175 C3174 1.355 . S
C3175 C3177 1.419 . S
C3176 C3174 1.415 . S
C3176 C3181 1.425 . S
C3176 C3183 1.409 . S
C3177 H3169 0.930 . S
C3177 C3175 1.419 . S
C3177 C3178 1.362 . S
C3178 H3170 0.930 . S
C3178 C3177 1.362 . S
C3178 C3181 1.409 . S
C3179 H3171 0.930 . S
C3179 C3180 1.355 . S
C3179 C3181 1.415 . S
C3180 C3179 1.355 . S
C3180 C3182 1.419 . S
C3181 C3176 1.425 . S
C3181 C3178 1.409 . S
C3181 C3179 1.415 . S
C3182 H3172 0.930 . S
C3182 C3180 1.419 . S
C3182 C3183 1.362 . S
C3183 H3173 0.930 . S
C3183 C3176 1.409 . S
C3183 C3182 1.362 . S
H3184 C3190 0.930 . S
H3185 C3193 0.930 . S
H3186 C3194 0.930 . S
H3187 C3195 0.930 . S
H3188 C3198 0.930 . S
H3189 C3199 0.930 1_655 S
C3190 H3184 0.930 . S
C3190 C3191 1.355 . S
C3190 C3192 1.415 . S
C3191 C3190 1.355 . S
C3191 C3193 1.419 . S
C3192 C3190 1.415 . S
C3192 C3197 1.409 1_655 S
C3192 C3199 1.409 1_655 S
C3193 H3185 0.930 . S
C3193 C3191 1.419 . S
C3193 C3194 1.362 . S
C3194 H3186 0.930 . S
C3194 C3193 1.362 . S
C3194 C3197 1.386 1_655 S
C3195 H3187 0.930 . S
C3195 C3196 1.355 . S
C3195 C3197 1.455 . S
C3196 C3195 1.355 . S
C3196 C3198 1.419 . S
C3197 C3192 1.409 1_455 S
C3197 C3194 1.386 1_455 S
C3197 C3195 1.455 . S
C3198 H3188 0.930 . S
C3198 C3196 1.419 . S
C3198 C3199 1.362 . S
C3199 H3189 0.930 1_455 S
C3199 C3192 1.409 1_455 S
C3199 C3198 1.362 . S
H3200 C3206 0.930 . S
H3201 C3209 0.930 . S
H3202 C3210 0.930 . S
H3203 C3211 0.930 . S
H3204 C3214 0.930 . S
H3205 C3215 0.930 . S
C3206 H3200 0.930 . S
C3206 C3207 1.355 . S
C3206 C3208 1.415 1_655 S
C3207 C3206 1.355 . S
C3207 C3209 1.419 . S
C3208 C3206 1.415 1_455 S
C3208 C3213 1.425 . S
C3208 C3215 1.409 . S
C3209 H3201 0.930 . S
C3209 C3207 1.419 . S
C3209 C3210 1.362 . S
C3210 H3202 0.930 . S
C3210 C3209 1.362 . S
C3210 C3213 1.409 1_655 S
C3211 H3203 0.930 . S
C3211 C3212 1.355 . S
C3211 C3213 1.415 . S
C3212 C3211 1.355 . S
C3212 C3214 1.419 . S
C3213 C3208 1.425 . S
C3213 C3210 1.409 1_455 S
C3213 C3211 1.415 . S
C3214 H3204 0.930 . S
C3214 C3212 1.419 . S
C3214 C3215 1.362 . S
C3215 H3205 0.930 . S
C3215 C3208 1.409 . S
C3215 C3214 1.362 . S
H3216 C3222 0.930 . S
H3217 C3225 0.930 . S
H3218 C3226 0.930 . S
H3219 C3227 0.930 . S
H3220 C3230 0.930 . S
H3221 C3231 0.930 . S
C3222 H3216 0.930 . S
C3222 C3223 1.355 . S
C3222 C3224 1.415 . S
C3223 C3222 1.355 . S
C3223 C3225 1.419 . S
C3224 C3222 1.415 . S
C3224 C3229 1.425 . S
C3224 C3231 1.409 1_655 S
C3225 H3217 0.930 . S
C3225 C3223 1.419 . S
C3225 C3226 1.362 . S
C3226 H3218 0.930 . S
C3226 C3225 1.362 . S
C3226 C3229 1.409 . S
C3227 H3219 0.930 . S
C3227 C3228 1.355 . S
C3227 C3229 1.415 1_455 S
C3228 C3227 1.355 . S
C3228 C3230 1.419 . S
C3229 C3224 1.425 . S
C3229 C3226 1.409 . S
C3229 C3227 1.415 1_655 S
C3230 H3220 0.930 . S
C3230 C3228 1.419 . S
C3230 C3231 1.362 . S
C3231 H3221 0.930 . S
C3231 C3224 1.409 1_455 S
C3231 C3230 1.362 . S
H3232 C3238 0.930 . S
H3233 C3241 0.930 . S
H3234 C3242 0.930 . S
H3235 C3243 0.930 . S
H3236 C3246 0.930 . S
H3237 C3247 0.930 . S
C3238 H3232 0.930 . S
C3238 C3239 1.355 . S
C3238 C3240 1.415 . S
C3239 C3238 1.355 . S
C3239 C3241 1.419 . S
C3240 C3238 1.415 . S
C3240 C3245 1.425 . S
C3240 C3247 1.409 1_455 S
C3241 H3233 0.930 . S
C3241 C3239 1.419 . S
C3241 C3242 1.362 . S
C3242 H3234 0.930 . S
C3242 C3241 1.362 . S
C3242 C3245 1.409 . S
C3243 H3235 0.930 . S
C3243 C3244 1.355 . S
C3243 C3245 1.415 1_655 S
C3244 C3243 1.355 . S
C3244 C3246 1.419 . S
C3245 C3240 1.425 . S
C3245 C3242 1.409 . S
C3245 C3243 1.415 1_455 S
C3246 H3236 0.930 . S
C3246 C3244 1.419 . S
C3246 C3247 1.362 . S
C3247 H3237 0.930 . S
C3247 C3240 1.409 1_655 S
C3247 C3246 1.362 . S
H3248 C3254 0.930 . S
H3249 C3257 0.930 . S
H3250 C3258 0.930 . S
H3251 C3259 0.930 . S
H3252 C3262 0.930 . S
H3253 C3263 0.930 . S
C3254 H3248 0.930 . S
C3254 C3255 1.355 . S
C3254 C3256 1.415 1_545 S
C3255 C3254 1.355 . S
C3255 C3257 1.419 . S
C3256 C3254 1.415 1_565 S
C3256 C3261 1.425 . S
C3256 C3263 1.409 . S
C3257 H3249 0.930 . S
C3257 C3255 1.419 . S
C3257 C3258 1.362 . S
C3258 H3250 0.930 . S
C3258 C3257 1.362 . S
C3258 C3261 1.409 1_545 S
C3259 H3251 0.930 . S
C3259 C3260 1.355 . S
C3259 C3261 1.415 . S
C3260 C3259 1.355 . S
C3260 C3262 1.419 . S
C3261 C3256 1.425 . S
C3261 C3258 1.409 1_565 S
C3261 C3259 1.415 . S
C3262 H3252 0.930 . S
C3262 C3260 1.419 . S
C3262 C3263 1.362 . S
C3263 H3253 0.930 . S
C3263 C3256 1.409 . S
C3263 C3262 1.362 . S
H3264 C3270 0.930 . S
H3265 C3273 0.930 . S
H3266 C3274 0.930 . S
H3267 C3275 0.930 . S
H3268 C3278 0.930 . S
H3269 C3279 0.930 . S
C3270 H3264 0.930 . S
C3270 C3271 1.355 . S
C3270 C3272 1.415 . S
C3271 C3270 1.355 . S
C3271 C3273 1.419 . S
C3272 C3270 1.415 . S
C3272 C3277 1.425 . S
C3272 C3279 1.409 1_545 S
C3273 H3265 0.930 . S
C3273 C3271 1.419 . S
C3273 C3274 1.362 . S
C3274 H3266 0.930 . S
C3274 C3273 1.362 . S
C3274 C3277 1.409 . S
C3275 H3267 0.930 . S
C3275 C3276 1.355 . S
C3275 C3277 1.415 1_565 S
C3276 C3275 1.355 . S
C3276 C3278 1.419 . S
C3277 C3272 1.425 . S
C3277 C3274 1.409 . S
C3277 C3275 1.415 1_545 S
C3278 H3268 0.930 . S
C3278 C3276 1.419 . S
C3278 C3279 1.362 . S
C3279 H3269 0.930 . S
C3279 C3272 1.409 1_565 S
C3279 C3278 1.362 . S
H3280 C3286 0.930 . S
H3281 C3289 0.930 . S
H3282 C3290 0.930 . S
H3283 C3291 0.930 . S
H3284 C3294 0.930 . S
H3285 C3295 0.930 . S
C3286 H3280 0.930 . S
C3286 C3287 1.355 . S
C3286 C3288 1.415 . S
C3287 C3286 1.355 . S
C3287 C3289 1.419 . S
C3288 C3286 1.415 . S
C3288 C3293 1.425 . S
C3288 C3295 1.409 . S
C3289 H3281 0.930 . S
C3289 C3287 1.419 . S
C3289 C3290 1.362 . S
C3290 H3282 0.930 . S
C3290 C3289 1.362 . S
C3290 C3293 1.409 . S
C3291 H3283 0.930 . S
C3291 C3292 1.355 . S
C3291 C3293 1.415 . S
C3292 C3291 1.355 . S
C3292 C3294 1.419 . S
C3293 C3288 1.425 . S
C3293 C3290 1.409 . S
C3293 C3291 1.415 . S
C3294 H3284 0.930 . S
C3294 C3292 1.419 . S
C3294 C3295 1.362 . S
C3295 H3285 0.930 . S
C3295 C3288 1.409 . S
C3295 C3294 1.362 . S
H3296 C3302 0.930 . S
H3297 C3305 0.930 . S
H3298 C3306 0.930 . S
H3299 C3307 0.930 . S
H3300 C3310 0.930 . S
H3301 C3311 0.930 1_545 S
C3302 H3296 0.930 . S
C3302 C3303 1.355 . S
C3302 C3304 1.415 . S
C3303 C3302 1.355 . S
C3303 C3305 1.419 . S
C3304 C3302 1.415 . S
C3304 C3309 1.425 1_545 S
C3304 C3311 1.409 1_545 S
C3305 H3297 0.930 . S
C3305 C3303 1.419 . S
C3305 C3306 1.362 . S
C3306 H3298 0.930 . S
C3306 C3305 1.362 . S
C3306 C3309 1.409 1_545 S
C3307 H3299 0.930 . S
C3307 C3308 1.355 . S
C3307 C3309 1.415 . S
C3308 C3307 1.355 . S
C3308 C3310 1.419 . S
C3309 C3304 1.425 1_565 S
C3309 C3306 1.409 1_565 S
C3309 C3307 1.415 . S
C3310 H3300 0.930 . S
C3310 C3308 1.419 . S
C3310 C3311 1.362 . S
C3311 H3301 0.930 1_565 S
C3311 C3304 1.409 1_565 S
C3311 C3310 1.362 . S
H3312 C3318 0.930 . S
H3313 C3321 0.930 . S
H3314 C3322 0.930 . S
H3315 C3323 0.930 . S
H3316 C3326 0.930 . S
H3317 C3327 0.930 . S
C3318 H3312 0.930 . S
C3318 C3319 1.355 . S
C3318 C3320 1.415 1_556 S
C3319 C3318 1.355 . S
C3319 C3321 1.419 . S
C3320 C3318 1.415 1_554 S
C3320 C3325 1.425 . S
C3320 C3327 1.409 . S
C3321 H3313 0.930 . S
C3321 C3319 1.419 . S
C3321 C3322 1.362 . S
C3322 H3314 0.930 . S
C3322 C3321 1.362 . S
C3322 C3325 1.409 1_556 S
C3323 H3315 0.930 . S
C3323 C3324 1.355 . S
C3323 C3325 1.415 . S
C3324 C3323 1.355 . S
C3324 C3326 1.419 . S
C3325 C3320 1.425 . S
C3325 C3322 1.409 1_554 S
C3325 C3323 1.415 . S
C3326 H3316 0.930 . S
C3326 C3324 1.419 . S
C3326 C3327 1.362 . S
C3327 H3317 0.930 . S
C3327 C3320 1.409 . S
C3327 C3326 1.362 . S
H3328 C3334 0.930 . S
H3329 C3337 0.930 . S
H3330 C3338 0.930 . S
H3331 C3339 0.930 . S
H3332 C3342 0.930 . S
H3333 C3343 0.930 . S
C3334 H3328 0.930 . S
C3334 C3335 1.355 . S
C3334 C3336 1.415 . S
C3335 C3334 1.355 . S
C3335 C3337 1.419 . S
C3336 C3334 1.415 . S
C3336 C3341 1.425 . S
C3336 C3343 1.409 1_554 S
C3337 H3329 0.930 . S
C3337 C3335 1.419 . S
C3337 C3338 1.362 . S
C3338 H3330 0.930 . S
C3338 C3337 1.362 . S
C3338 C3341 1.409 . S
C3339 H3331 0.930 . S
C3339 C3340 1.355 . S
C3339 C3341 1.415 1_556 S
C3340 C3339 1.355 . S
C3340 C3342 1.419 . S
C3341 C3336 1.425 . S
C3341 C3338 1.409 . S
C3341 C3339 1.415 1_554 S
C3342 H3332 0.930 . S
C3342 C3340 1.419 . S
C3342 C3343 1.362 . S
C3343 H3333 0.930 . S
C3343 C3336 1.409 1_556 S
C3343 C3342 1.362 . S
H3344 C3350 0.930 . S
H3345 C3353 0.930 . S
H3346 C3354 0.930 . S
H3347 C3355 0.930 . S
H3348 C3358 0.930 . S
H3349 C3359 0.930 . S
C3350 H3344 0.930 . S
C3350 C3351 1.355 . S
C3350 C3352 1.415 . S
C3351 C3350 1.355 . S
C3351 C3353 1.419 . S
C3352 C3350 1.415 . S
C3352 C3357 1.425 . S
C3352 C3359 1.409 . S
C3353 H3345 0.930 . S
C3353 C3351 1.419 . S
C3353 C3354 1.362 . S
C3354 H3346 0.930 . S
C3354 C3353 1.362 . S
C3354 C3357 1.409 . S
C3355 H3347 0.930 . S
C3355 C3356 1.355 . S
C3355 C3357 1.415 . S
C3356 C3355 1.355 . S
C3356 C3358 1.419 . S
C3357 C3352 1.425 . S
C3357 C3354 1.409 . S
C3357 C3355 1.415 . S
C3358 H3348 0.930 . S
C3358 C3356 1.419 . S
C3358 C3359 1.362 . S
C3359 H3349 0.930 . S
C3359 C3352 1.409 . S
C3359 C3358 1.362 . S
H3360 C3366 0.930 . S
H3361 C3369 0.930 . S
H3362 C3370 0.930 . S
H3363 C3371 0.930 . S
H3364 C3374 0.930 . S
H3365 C3375 0.930 . S
C3366 H3360 0.930 . S
C3366 C3367 1.355 . S
C3366 C3368 1.415 . S
C3367 C3366 1.355 . S
C3367 C3369 1.419 . S
C3368 C3366 1.415 . S
C3368 C3373 1.425 . S
C3368 C3375 1.409 . S
C3369 H3361 0.930 . S
C3369 C3367 1.419 . S
C3369 C3370 1.362 . S
C3370 H3362 0.930 . S
C3370 C3369 1.362 . S
C3370 C3373 1.409 . S
C3371 H3363 0.930 . S
C3371 C3372 1.355 . S
C3371 C3373 1.415 . S
C3372 C3371 1.355 . S
C3372 C3374 1.419 . S
C3373 C3368 1.425 . S
C3373 C3370 1.409 . S
C3373 C3371 1.415 . S
C3374 H3364 0.930 . S
C3374 C3372 1.419 . S
C3374 C3375 1.362 . S
C3375 H3365 0.930 . S
C3375 C3368 1.409 . S
C3375 C3374 1.362 . S
H3376 C3382 0.930 . S
H3377 C3385 0.930 . S
H3378 C3386 0.930 . S
H3379 C3387 0.930 . S
H3380 C3390 0.930 . S
H3381 C3391 0.930 1_455 S
C3382 H3376 0.930 . S
C3382 C3383 1.355 . S
C3382 C3384 1.415 . S
C3383 C3382 1.355 . S
C3383 C3385 1.419 . S
C3384 C3382 1.415 . S
C3384 C3389 1.408 1_455 S
C3384 C3391 1.409 1_455 S
C3385 H3377 0.930 . S
C3385 C3383 1.419 . S
C3385 C3386 1.362 . S
C3386 H3378 0.930 . S
C3386 C3385 1.362 . S
C3386 C3389 1.386 1_455 S
C3387 H3379 0.930 . S
C3387 C3388 1.355 . S
C3387 C3389 1.455 . S
C3388 C3387 1.355 . S
C3388 C3390 1.419 . S
C3389 C3384 1.408 1_655 S
C3389 C3386 1.386 1_655 S
C3389 C3387 1.455 . S
C3390 H3380 0.930 . S
C3390 C3388 1.419 . S
C3390 C3391 1.362 . S
C3391 H3381 0.930 1_655 S
C3391 C3384 1.409 1_655 S
C3391 C3390 1.362 . S
H3392 C3398 0.930 . S
H3393 C3401 0.930 . S
H3394 C3402 0.930 . S
H3395 C3403 0.930 . S
H3396 C3406 0.930 . S
H3397 C3407 0.930 . S
C3398 H3392 0.930 . S
C3398 C3399 1.355 . S
C3398 C3400 1.415 1_455 S
C3399 C3398 1.355 . S
C3399 C3401 1.419 . S
C3400 C3398 1.415 1_655 S
C3400 C3405 1.425 . S
C3400 C3407 1.409 . S
C3401 H3393 0.930 . S
C3401 C3399 1.419 . S
C3401 C3402 1.362 . S
C3402 H3394 0.930 . S
C3402 C3401 1.362 . S
C3402 C3405 1.409 1_455 S
C3403 H3395 0.930 . S
C3403 C3404 1.355 . S
C3403 C3405 1.415 . S
C3404 C3403 1.355 . S
C3404 C3406 1.419 . S
C3405 C3400 1.425 . S
C3405 C3402 1.409 1_655 S
C3405 C3403 1.415 . S
C3406 H3396 0.930 . S
C3406 C3404 1.419 . S
C3406 C3407 1.362 . S
C3407 H3397 0.930 . S
C3407 C3400 1.409 . S
C3407 C3406 1.362 . S
H3408 C3414 0.930 . S
H3409 C3417 0.930 . S
H3410 C3418 0.930 . S
H3411 C3419 0.930 . S
H3412 C3422 0.930 . S
H3413 C3423 0.930 . S
C3414 H3408 0.930 . S
C3414 C3415 1.355 . S
C3414 C3416 1.380 1_655 S
C3415 C3414 1.355 . S
C3415 C3417 1.419 . S
C3416 C3414 1.380 1_455 S
C3416 C3421 1.436 . S
C3416 C3423 1.434 . S
C3417 H3409 0.930 . S
C3417 C3415 1.419 . S
C3417 C3418 1.362 . S
C3418 H3410 0.930 . S
C3418 C3417 1.362 . S
C3418 C3421 1.409 1_655 S
C3419 H3411 0.930 . S
C3419 C3420 1.355 . S
C3419 C3421 1.415 . S
C3420 C3419 1.355 . S
C3420 C3422 1.419 . S
C3421 C3416 1.436 . S
C3421 C3418 1.409 1_455 S
C3421 C3419 1.415 . S
C3422 H3412 0.930 . S
C3422 C3420 1.419 . S
C3422 C3423 1.362 . S
C3423 H3413 0.930 . S
C3423 C3416 1.434 . S
C3423 C3422 1.362 . S
H3424 C3430 0.930 . S
H3425 C3433 0.930 . S
H3426 C3434 0.930 . S
H3427 C3435 0.930 . S
H3428 C3438 0.930 . S
H3429 C3439 0.930 . S
C3430 H3424 0.930 . S
C3430 C3431 1.355 . S
C3430 C3432 1.389 1_455 S
C3431 C3430 1.355 . S
C3431 C3433 1.419 . S
C3432 C3430 1.389 1_655 S
C3432 C3437 1.434 . S
C3432 C3439 1.427 . S
C3433 H3425 0.930 . S
C3433 C3431 1.419 . S
C3433 C3434 1.362 . S
C3434 H3426 0.930 . S
C3434 C3433 1.362 . S
C3434 C3437 1.409 1_455 S
C3435 H3427 0.930 . S
C3435 C3436 1.355 . S
C3435 C3437 1.415 . S
C3436 C3435 1.355 . S
C3436 C3438 1.419 . S
C3437 C3432 1.434 . S
C3437 C3434 1.409 1_655 S
C3437 C3435 1.415 . S
C3438 H3428 0.930 . S
C3438 C3436 1.419 . S
C3438 C3439 1.362 . S
C3439 H3429 0.930 . S
C3439 C3432 1.427 . S
C3439 C3438 1.362 . S
H3440 C3446 0.930 . S
H3441 C3449 0.930 . S
H3442 C3450 0.930 . S
H3443 C3451 0.930 . S
H3444 C3454 0.930 . S
H3445 C3455 0.930 . S
C3446 H3440 0.930 . S
C3446 C3447 1.355 . S
C3446 C3448 1.415 . S
C3447 C3446 1.355 . S
C3447 C3449 1.419 . S
C3448 C3446 1.415 . S
C3448 C3453 1.425 1_545 S
C3448 C3455 1.409 1_545 S
C3449 H3441 0.930 . S
C3449 C3447 1.419 . S
C3449 C3450 1.362 . S
C3450 H3442 0.930 . S
C3450 C3449 1.362 . S
C3450 C3453 1.409 1_545 S
C3451 H3443 0.930 . S
C3451 C3452 1.355 . S
C3451 C3453 1.414 . S
C3452 C3451 1.355 . S
C3452 C3454 1.419 . S
C3453 C3448 1.425 1_565 S
C3453 C3450 1.409 1_565 S
C3453 C3451 1.414 . S
C3454 H3444 0.930 . S
C3454 C3452 1.419 . S
C3454 C3455 1.362 . S
C3455 H3445 0.930 . S
C3455 C3448 1.409 1_565 S
C3455 C3454 1.362 . S
H3456 C3462 0.930 . S
H3457 C3465 0.930 . S
H3458 C3466 0.912 1_565 S
H3459 C3467 0.930 . S
H3460 C3470 0.930 . S
H3461 C3471 0.955 . S
C3462 H3456 0.930 . S
C3462 C3463 1.355 . S
C3462 C3464 1.415 . S
C3463 C3462 1.355 . S
C3463 C3465 1.419 . S
C3464 C3462 1.415 . S
C3464 C3469 1.425 1_545 S
C3464 C3471 1.409 1_545 S
C3465 H3457 0.930 . S
C3465 C3463 1.419 . S
C3465 C3466 1.398 . S
C3466 H3458 0.912 1_545 S
C3466 C3465 1.398 . S
C3466 C3469 1.392 1_545 S
C3467 H3459 0.930 . S
C3467 C3468 1.355 . S
C3467 C3469 1.415 . S
C3468 C3467 1.355 . S
C3468 C3470 1.419 . S
C3469 C3464 1.425 1_565 S
C3469 C3466 1.392 1_565 S
C3469 C3467 1.415 . S
C3470 H3460 0.930 . S
C3470 C3468 1.419 . S
C3470 C3471 1.362 . S
C3471 H3461 0.955 . S
C3471 C3464 1.409 1_565 S
C3471 C3470 1.362 . S
H3472 C3478 0.930 . S
H3473 C3481 0.930 . S
H3474 C3482 0.930 . S
H3475 C3483 0.930 . S
H3476 C3486 0.930 . S
H3477 C3487 0.930 . S
C3478 H3472 0.930 . S
C3478 C3479 1.355 . S
C3478 C3480 1.415 . S
C3479 C3478 1.355 . S
C3479 C3481 1.419 . S
C3480 C3478 1.415 . S
C3480 C3485 1.425 . S
C3480 C3487 1.409 . S
C3481 H3473 0.930 . S
C3481 C3479 1.419 . S
C3481 C3482 1.362 . S
C3482 H3474 0.930 . S
C3482 C3481 1.362 . S
C3482 C3485 1.409 . S
C3483 H3475 0.930 . S
C3483 C3484 1.355 . S
C3483 C3485 1.415 . S
C3484 C3483 1.355 . S
C3484 C3486 1.419 . S
C3485 C3480 1.425 . S
C3485 C3482 1.409 . S
C3485 C3483 1.415 . S
C3486 H3476 0.930 . S
C3486 C3484 1.419 . S
C3486 C3487 1.362 . S
C3487 H3477 0.930 . S
C3487 C3480 1.409 . S
C3487 C3486 1.362 . S
H3488 C3494 0.930 . S
H3489 C3497 0.930 . S
H3490 C3498 0.930 . S
H3491 C3499 0.930 . S
H3492 C3502 0.930 . S
H3493 C3503 0.930 1_565 S
C3494 H3488 0.930 . S
C3494 C3495 1.355 . S
C3494 C3496 1.415 . S
C3495 C3494 1.355 . S
C3495 C3497 1.419 . S
C3496 C3494 1.415 . S
C3496 C3501 1.425 1_565 S
C3496 C3503 1.409 1_565 S
C3497 H3489 0.930 . S
C3497 C3495 1.419 . S
C3497 C3498 1.362 . S
C3498 H3490 0.930 . S
C3498 C3497 1.362 . S
C3498 C3501 1.409 1_565 S
C3499 H3491 0.930 . S
C3499 C3500 1.355 . S
C3499 C3501 1.415 . S
C3500 C3499 1.355 . S
C3500 C3502 1.419 . S
C3501 C3496 1.425 1_545 S
C3501 C3498 1.409 1_545 S
C3501 C3499 1.415 . S
C3502 H3492 0.930 . S
C3502 C3500 1.419 . S
C3502 C3503 1.362 . S
C3503 H3493 0.930 1_545 S
C3503 C3496 1.409 1_545 S
C3503 C3502 1.362 . S
C1591 N1334 1.522 . S
C1596 C28 1.541 . S
C1607 N1367 1.513 . S
C1612 C61 1.532 . S
C1623 N1400 1.561 . S
C1628 C94 1.570 . S
C1639 C127 1.556 . S
C1644 N1433 1.546 . S
C1655 C160 1.541 . S
C1660 N1466 1.526 . S
C1671 C193 1.540 . S
C1676 N773 1.521 . S
C1687 C226 1.568 . S
C1692 N1499 1.561 . S
C1703 C259 1.540 . S
C1708 N1532 1.521 . S
C1719 C292 1.535 . S
C1724 N1202 1.518 . S
C1735 C325 1.530 . S
C1740 N1268 1.508 . S
C1751 C358 1.568 . S
C1756 N1301 1.560 . S
C1767 N443 1.518 . S
C1772 C391 1.538 . S
C1783 C424 1.535 . S
C1788 N938 1.517 . S
C1799 C457 1.534 . S
C1804 N971 1.515 . S
C1815 N1004 1.533 . S
C1820 C490 1.547 . S
C1831 N1037 1.560 . S
C1836 C523 1.568 . S
C1847 C556 1.532 . S
C1852 N1070 1.510 . S
C1863 N377 1.561 . S
C1868 C589 1.570 . S
C1879 N1103 1.551 . S
C1884 C622 1.563 . S
C1895 N1136 1.509 . S
C1900 C655 1.531 . S
C1911 C688 1.551 . S
C1916 N806 1.539 . S
C1927 C721 1.549 . S
C1932 N872 1.533 . S
C1943 N905 1.512 . S
C1948 C754 1.531 . S
C1959 C787 1.535 . S
C1964 N47 1.514 . S
C1975 C820 1.546 . S
C1980 N542 1.528 . S
C1991 N575 1.525 . S
C1996 C853 1.544 . S
C2007 N608 1.547 . S
C2012 C886 1.558 . S
C2023 C919 1.552 . S
C2028 N641 1.535 . S
C2039 C952 1.569 . S
C2044 N674 1.561 . S
C2055 N1565 1.558 . S
C2060 C985 1.568 . S
C2071 C1018 1.537 . S
C2076 N707 1.520 . S
C2087 C1051 1.549 . S
C2092 N740 1.532 . S
C2103 C1084 1.541 . S
C2108 N410 1.525 . S
C2119 N476 1.529 . S
C2124 C1117 1.544 . S
C2135 C1150 1.559 . S
C2140 N509 1.550 . S
C2151 C1183 1.570 . S
C2156 N1235 1.561 . S
C2167 C1216 1.546 . S
C2172 N146 1.528 . S
C2183 C1249 1.569 . S
C2188 N179 1.560 . S
C2199 C1282 1.548 . S
C2204 N212 1.531 . S
C2215 C1315 1.542 . S
C2220 N245 1.526 . S
C2231 N278 1.561 . S
C2236 C1348 1.570 . S
C2247 C1381 1.538 . S
C2252 N1169 1.518 . S
C2263 C1414 1.548 . S
C2268 N311 1.535 . S
C2279 N344 1.555 . S
C2284 C1447 1.564 . S
C2295 N14 1.541 . S
C2300 C1480 1.556 . S
C2311 C1513 1.565 . S
C2316 N80 1.557 . S
C2327 C1546 1.552 . S
C2332 N113 1.541 . S
C2343 N839 1.545 . S
C2348 C1579 1.556 . S
C2359 N5 0.395 . S
C2364 N38 0.281 . S
C2375 N104 0.281 . S
C2380 N71 0.371 . S
C2391 N137 0.375 . S
C2396 N203 0.342 . S
C2407 N236 0.325 . S
C2412 N170 0.386 . S
C2423 N1127 0.384 . S
C2428 N269 0.329 . S
C2439 N302 0.392 . S
C2444 N368 0.277 . S
C2455 N335 0.334 . S
C2460 N1061 0.380 . S
C2471 N401 0.319 . S
C2476 N434 0.389 . S
C2487 N467 0.384 . S
C2492 N500 0.329 . S
C2503 N599 0.292 . S
C2508 N533 0.397 . S
C2519 N566 0.378 . S
C2524 N632 0.338 . S
C2535 N665 0.367 . S
C2540 N1523 0.352 . S
C2551 N764 0.291 . S
C2556 N698 0.357 . S
C2567 N1457 0.312 . S
C2572 N731 0.333 . S
C2583 N830 0.368 . S
C2588 N797 0.351 . S
C2599 N896 0.331 . S
C2604 N863 0.383 . S
C2615 N995 0.373 . S
C2620 N929 0.345 . S
C2631 N1028 0.396 . S
C2636 N962 0.284 . S
C2647 N1160 0.346 . S
C2652 N1094 0.372 . S
C2663 N1226 0.372 . S
C2668 N1193 0.346 . S
C2679 N1292 0.290 . S
C2684 N1259 0.357 . S
C2695 N1391 0.343 . S
C2700 N1325 0.375 . S
C2711 N1424 0.395 . S
C2716 N1358 0.281 . S
C2727 N1556 0.352 . S
C2732 N1490 0.367 . S
C2743 C8 1.248 . S
C2748 C743 1.213 . S
C2759 C41 1.237 . S
C2764 C710 1.113 . S
C2775 C1568 1.182 . S
C2780 C74 1.242 . S
C2791 C677 1.210 . S
C2796 C107 1.256 . S
C2807 C140 1.256 . S
C2812 C1238 1.206 . S
C2823 C1205 1.219 . S
C2828 C173 1.252 . S
C2839 C1304 1.143 . S
C2844 C206 1.252 . S
C2855 C239 1.246 . S
C2860 C1271 1.110 . S
C2871 C1403 1.119 . S
C2876 C272 1.249 . S
C2887 C1337 1.211 . S
C2892 C305 1.248 . S
C2903 C338 1.253 . S
C2908 C1370 1.151 . S
C2919 C644 1.129 . S
C2924 C371 1.250 . S
C2935 C347 1.150 . S
C2940 C404 1.238 . S
C2951 C314 1.175 . S
C2956 C437 1.241 . S
C2967 C470 1.254 . S
C2972 C1172 1.156 . S
C2983 C503 1.256 . S
C2988 C281 1.176 . S
C2999 C842 1.127 . S
C3004 C536 1.237 . S
C3015 C809 1.204 . S
C3020 C569 1.257 . S
C3031 C602 1.256 . S
C3036 C908 1.205 . S
C3047 C635 1.242 . S
C3052 C875 1.097 . S
C3063 C1007 1.101 . S
C3068 C668 1.238 . S
C3079 C701 1.255 . S
C3084 C941 1.163 . S
C3095 C974 1.220 . S
C3100 C734 1.253 . S
C3111 C248 1.167 . S
C3116 C767 1.240 . S
C3127 C800 1.255 . S
C3132 C1535 1.162 . S
C3143 C1502 1.104 . S
C3148 C833 1.237 . S
C3159 C866 1.236 . S
C3164 C776 1.119 . S
C3175 C899 1.242 . S
C3180 C1469 1.186 . S
C3191 C932 1.237 . S
C3196 C446 1.143 . S
C3207 C413 1.167 . S
C3212 C965 1.239 . S
C3223 C998 1.247 . S
C3228 C512 1.208 . S
C3239 C1031 1.256 . S
C3244 C479 1.215 . S
C3255 C611 1.205 . S
C3260 C1064 1.256 . S
C3271 C1097 1.243 . S
C3276 C545 1.189 . S
C3287 C1130 1.251 . S
C3292 C578 1.218 . S
C3303 C1163 1.251 . S
C3308 C1436 1.131 . S
C3319 C1139 1.215 . S
C3324 C1196 1.255 . S
C3335 C1229 1.251 . S
C3340 C1106 1.219 . S
C3351 C1262 1.243 . S
C3356 C380 1.099 . S
C3367 C1295 1.237 . S
C3372 C1073 1.113 . S
C3383 C1328 1.237 . S
C3388 C50 1.108 . S
C3399 C17 1.204 . S
C3404 C1361 1.257 . S
C3415 C116 1.171 . S
C3420 C1394 1.240 . S
C3431 C83 1.160 . S
C3436 C1427 1.254 . S
C3447 C1460 1.256 . S
C3452 C215 1.189 . S
C3463 C149 1.112 . S
C3468 C1493 1.247 . S
C3479 C182 1.219 . S
C3484 C1526 1.251 . S
C3495 C1559 1.237 . S
C3500 C1040 1.105 . S
