# Generated by pormake.
# Topology ukc, (4)-cn, num edge types: 1
# Building blocks:
#     Node 0, Type 0, BuildingBlock: QUQFOY_clean_sbu_1, # of connection points: 4
#     Node 1, Type 0, BuildingBlock: QUQFOY_clean_sbu_1, # of connection points: 4
#     Node 2, Type 0, BuildingBlock: QUQFOY_clean_sbu_1, # of connection points: 4
#     Node 3, Type 0, BuildingBlock: QUQFOY_clean_sbu_1, # of connection points: 4
#     Node 4, Type 0, BuildingBlock: QUQFOY_clean_sbu_1, # of connection points: 4
#     Node 5, Type 0, BuildingBlock: QUQFOY_clean_sbu_1, # of connection points: 4
#     Node 6, Type 0, BuildingBlock: QUQFOY_clean_sbu_1, # of connection points: 4
#     Node 7, Type 0, BuildingBlock: QUQFOY_clean_sbu_1, # of connection points: 4
#     Node 8, Type 0, BuildingBlock: QUQFOY_clean_sbu_1, # of connection points: 4
#     Node 9, Type 0, BuildingBlock: QUQFOY_clean_sbu_1, # of connection points: 4
#     Node 10, Type 0, BuildingBlock: QUQFOY_clean_sbu_1, # of connection points: 4
#     Node 11, Type 0, BuildingBlock: QUQFOY_clean_sbu_1, # of connection points: 4
#     Node 12, Type 0, BuildingBlock: QUQFOY_clean_sbu_1, # of connection points: 4
#     Node 13, Type 0, BuildingBlock: QUQFOY_clean_sbu_1, # of connection points: 4
#     Node 14, Type 0, BuildingBlock: QUQFOY_clean_sbu_1, # of connection points: 4
#     Node 15, Type 0, BuildingBlock: QUQFOY_clean_sbu_1, # of connection points: 4
#     Node 16, Type 0, BuildingBlock: QUQFOY_clean_sbu_1, # of connection points: 4
#     Node 17, Type 0, BuildingBlock: QUQFOY_clean_sbu_1, # of connection points: 4
#     Node 18, Type 0, BuildingBlock: QUQFOY_clean_sbu_1, # of connection points: 4
#     Node 19, Type 0, BuildingBlock: QUQFOY_clean_sbu_1, # of connection points: 4
#     Node 20, Type 0, BuildingBlock: QUQFOY_clean_sbu_1, # of connection points: 4
#     Node 21, Type 0, BuildingBlock: QUQFOY_clean_sbu_1, # of connection points: 4
#     Node 22, Type 0, BuildingBlock: QUQFOY_clean_sbu_1, # of connection points: 4
#     Node 23, Type 0, BuildingBlock: QUQFOY_clean_sbu_1, # of connection points: 4
#     Node 24, Type 0, BuildingBlock: QUQFOY_clean_sbu_1, # of connection points: 4
#     Node 25, Type 0, BuildingBlock: QUQFOY_clean_sbu_1, # of connection points: 4
#     Node 26, Type 0, BuildingBlock: QUQFOY_clean_sbu_1, # of connection points: 4
#     Node 27, Type 0, BuildingBlock: QUQFOY_clean_sbu_1, # of connection points: 4
#     Node 28, Type 0, BuildingBlock: QUQFOY_clean_sbu_1, # of connection points: 4
#     Node 29, Type 0, BuildingBlock: QUQFOY_clean_sbu_1, # of connection points: 4
#     Node 30, Type 0, BuildingBlock: QUQFOY_clean_sbu_1, # of connection points: 4
#     Node 31, Type 0, BuildingBlock: QUQFOY_clean_sbu_1, # of connection points: 4
#     Edge 32, Type (0, 0), BuildingBlock: OJICUG_clean_linker_0, # of connection points: 2
#     Edge 33, Type (0, 0), BuildingBlock: OJICUG_clean_linker_0, # of connection points: 2
#     Edge 34, Type (0, 0), BuildingBlock: OJICUG_clean_linker_0, # of connection points: 2
#     Edge 35, Type (0, 0), BuildingBlock: OJICUG_clean_linker_0, # of connection points: 2
#     Edge 36, Type (0, 0), BuildingBlock: OJICUG_clean_linker_0, # of connection points: 2
#     Edge 37, Type (0, 0), BuildingBlock: OJICUG_clean_linker_0, # of connection points: 2
#     Edge 38, Type (0, 0), BuildingBlock: OJICUG_clean_linker_0, # of connection points: 2
#     Edge 39, Type (0, 0), BuildingBlock: OJICUG_clean_linker_0, # of connection points: 2
#     Edge 40, Type (0, 0), BuildingBlock: OJICUG_clean_linker_0, # of connection points: 2
#     Edge 41, Type (0, 0), BuildingBlock: OJICUG_clean_linker_0, # of connection points: 2
#     Edge 42, Type (0, 0), BuildingBlock: OJICUG_clean_linker_0, # of connection points: 2
#     Edge 43, Type (0, 0), BuildingBlock: OJICUG_clean_linker_0, # of connection points: 2
#     Edge 44, Type (0, 0), BuildingBlock: OJICUG_clean_linker_0, # of connection points: 2
#     Edge 45, Type (0, 0), BuildingBlock: OJICUG_clean_linker_0, # of connection points: 2
#     Edge 46, Type (0, 0), BuildingBlock: OJICUG_clean_linker_0, # of connection points: 2
#     Edge 47, Type (0, 0), BuildingBlock: OJICUG_clean_linker_0, # of connection points: 2
#     Edge 48, Type (0, 0), BuildingBlock: OJICUG_clean_linker_0, # of connection points: 2
#     Edge 49, Type (0, 0), BuildingBlock: OJICUG_clean_linker_0, # of connection points: 2
#     Edge 50, Type (0, 0), BuildingBlock: OJICUG_clean_linker_0, # of connection points: 2
#     Edge 51, Type (0, 0), BuildingBlock: OJICUG_clean_linker_0, # of connection points: 2
#     Edge 52, Type (0, 0), BuildingBlock: OJICUG_clean_linker_0, # of connection points: 2
#     Edge 53, Type (0, 0), BuildingBlock: OJICUG_clean_linker_0, # of connection points: 2
#     Edge 54, Type (0, 0), BuildingBlock: OJICUG_clean_linker_0, # of connection points: 2
#     Edge 55, Type (0, 0), BuildingBlock: OJICUG_clean_linker_0, # of connection points: 2
#     Edge 56, Type (0, 0), BuildingBlock: OJICUG_clean_linker_0, # of connection points: 2
#     Edge 57, Type (0, 0), BuildingBlock: OJICUG_clean_linker_0, # of connection points: 2
#     Edge 58, Type (0, 0), BuildingBlock: OJICUG_clean_linker_0, # of connection points: 2
#     Edge 59, Type (0, 0), BuildingBlock: OJICUG_clean_linker_0, # of connection points: 2
#     Edge 60, Type (0, 0), BuildingBlock: OJICUG_clean_linker_0, # of connection points: 2
#     Edge 61, Type (0, 0), BuildingBlock: OJICUG_clean_linker_0, # of connection points: 2
#     Edge 62, Type (0, 0), BuildingBlock: OJICUG_clean_linker_0, # of connection points: 2
#     Edge 63, Type (0, 0), BuildingBlock: OJICUG_clean_linker_0, # of connection points: 2
#     Edge 64, Type (0, 0), BuildingBlock: OJICUG_clean_linker_0, # of connection points: 2
#     Edge 65, Type (0, 0), BuildingBlock: OJICUG_clean_linker_0, # of connection points: 2
#     Edge 66, Type (0, 0), BuildingBlock: OJICUG_clean_linker_0, # of connection points: 2
#     Edge 67, Type (0, 0), BuildingBlock: OJICUG_clean_linker_0, # of connection points: 2
#     Edge 68, Type (0, 0), BuildingBlock: OJICUG_clean_linker_0, # of connection points: 2
#     Edge 69, Type (0, 0), BuildingBlock: OJICUG_clean_linker_0, # of connection points: 2
#     Edge 70, Type (0, 0), BuildingBlock: OJICUG_clean_linker_0, # of connection points: 2
#     Edge 71, Type (0, 0), BuildingBlock: OJICUG_clean_linker_0, # of connection points: 2
#     Edge 72, Type (0, 0), BuildingBlock: OJICUG_clean_linker_0, # of connection points: 2
#     Edge 73, Type (0, 0), BuildingBlock: OJICUG_clean_linker_0, # of connection points: 2
#     Edge 74, Type (0, 0), BuildingBlock: OJICUG_clean_linker_0, # of connection points: 2
#     Edge 75, Type (0, 0), BuildingBlock: OJICUG_clean_linker_0, # of connection points: 2
#     Edge 76, Type (0, 0), BuildingBlock: OJICUG_clean_linker_0, # of connection points: 2
#     Edge 77, Type (0, 0), BuildingBlock: OJICUG_clean_linker_0, # of connection points: 2
#     Edge 78, Type (0, 0), BuildingBlock: OJICUG_clean_linker_0, # of connection points: 2
#     Edge 79, Type (0, 0), BuildingBlock: OJICUG_clean_linker_0, # of connection points: 2
#     Edge 80, Type (0, 0), BuildingBlock: OJICUG_clean_linker_0, # of connection points: 2
#     Edge 81, Type (0, 0), BuildingBlock: OJICUG_clean_linker_0, # of connection points: 2
#     Edge 82, Type (0, 0), BuildingBlock: OJICUG_clean_linker_0, # of connection points: 2
#     Edge 83, Type (0, 0), BuildingBlock: OJICUG_clean_linker_0, # of connection points: 2
#     Edge 84, Type (0, 0), BuildingBlock: OJICUG_clean_linker_0, # of connection points: 2
#     Edge 85, Type (0, 0), BuildingBlock: OJICUG_clean_linker_0, # of connection points: 2
#     Edge 86, Type (0, 0), BuildingBlock: OJICUG_clean_linker_0, # of connection points: 2
#     Edge 87, Type (0, 0), BuildingBlock: OJICUG_clean_linker_0, # of connection points: 2
#     Edge 88, Type (0, 0), BuildingBlock: OJICUG_clean_linker_0, # of connection points: 2
#     Edge 89, Type (0, 0), BuildingBlock: OJICUG_clean_linker_0, # of connection points: 2
#     Edge 90, Type (0, 0), BuildingBlock: OJICUG_clean_linker_0, # of connection points: 2
#     Edge 91, Type (0, 0), BuildingBlock: OJICUG_clean_linker_0, # of connection points: 2
#     Edge 92, Type (0, 0), BuildingBlock: OJICUG_clean_linker_0, # of connection points: 2
#     Edge 93, Type (0, 0), BuildingBlock: OJICUG_clean_linker_0, # of connection points: 2
#     Edge 94, Type (0, 0), BuildingBlock: OJICUG_clean_linker_0, # of connection points: 2
#     Edge 95, Type (0, 0), BuildingBlock: OJICUG_clean_linker_0, # of connection points: 2
# Relax obj value: 0.077
# Max RMSD: 0.149
# Mean RMSD: 0.149
data_MOF--net-ukc--node1-QUQFOY_clean_sbu_1--edge1-OJICUG_clean_linker_0
_symmetry_space_group_name_H-M    P1
_symmetry_Int_Tables_number       1
_symmetry_cell_setting            triclinic
loop_
_symmetry_equiv_pos_as_xyz
'x, y, z'
_cell_length_a     36.779214
_cell_length_b     36.778709
_cell_length_c     61.759204
_cell_angle_alpha  90.012677
_cell_angle_beta   89.999423
_cell_angle_gamma 89.999937
loop_
_atom_site_label
_atom_site_type_symbol
_atom_site_fract_x
_atom_site_fract_y
_atom_site_fract_z
_atom_type_partial_charge
O0 O 0.12461 0.35329 0.06457 0.0
Cd1 Cd 0.12235 0.34777 0.03153 0.0
Cd2 Cd 0.06044 0.39188 0.03823 0.0
O3 O 0.08109 0.3938 0.06948 0.0
O4 O 0.16842 0.3214 0.02537 0.0
O5 O 0.15772 0.37695 0.01341 0.0
C6 C 0.17959 0.34963 0.01504 0.0
C7 C 0.03703 0.44399 0.02151 0.0
C8 C 0.10657 0.37405 0.07699 0.0
C9 C 0.04948 0.31555 0.02109 0.0
O10 O 0.03544 0.34435 0.02877 0.0
O11 O 0.08379 0.31239 0.01951 0.0
O12 O 0.02008 0.4282 0.03715 0.0
O13 O 0.06831 0.43104 0.01589 0.0
O14 O 0.90375 0.87526 0.31458 0.0
Cd15 Cd 0.90915 0.87291 0.28154 0.0
Cd16 Cd 0.86513 0.81102 0.28833 0.0
O17 O 0.86323 0.83177 0.31956 0.0
O18 O 0.93541 0.91901 0.2753 0.0
O19 O 0.87981 0.90818 0.26343 0.0
C20 C 0.9071 0.93011 0.26501 0.0
C21 C 0.81303 0.78756 0.2716 0.0
C22 C 0.88301 0.85728 0.32703 0.0
C23 C 0.94142 0.80007 0.27113 0.0
O24 O 0.91266 0.78603 0.27887 0.0
O25 O 0.94454 0.83437 0.2695 0.0
O26 O 0.82882 0.77065 0.28727 0.0
O27 O 0.82599 0.81884 0.26598 0.0
O28 O 0.38176 0.65278 0.56466 0.0
Cd29 Cd 0.38413 0.65813 0.53162 0.0
Cd30 Cd 0.44604 0.614 0.53853 0.0
O31 O 0.42523 0.61228 0.56975 0.0
O32 O 0.33819 0.6847 0.52543 0.0
O33 O 0.34863 0.62906 0.51351 0.0
C34 C 0.32689 0.65649 0.51511 0.0
C35 C 0.46957 0.56181 0.52192 0.0
C36 C 0.39972 0.6321 0.57717 0.0
C37 C 0.45709 0.6902 0.52123 0.0
O38 O 0.47108 0.66146 0.52902 0.0
O39 O 0.42279 0.69337 0.51958 0.0
O40 O 0.48643 0.5777 0.53758 0.0
O41 O 0.4383 0.57471 0.51624 0.0
O42 O 0.60305 0.13182 0.81451 0.0
Cd43 Cd 0.59757 0.13422 0.78147 0.0
Cd44 Cd 0.64169 0.19604 0.78828 0.0
O45 O 0.64361 0.17526 0.8195 0.0
O46 O 0.57119 0.08819 0.77522 0.0
O47 O 0.62677 0.09891 0.76331 0.0
C48 C 0.59943 0.07705 0.76489 0.0
C49 C 0.6938 0.21939 0.77152 0.0
C50 C 0.62382 0.14977 0.82696 0.0
C51 C 0.5654 0.20714 0.77115 0.0
O52 O 0.59419 0.22113 0.77888 0.0
O53 O 0.56223 0.17285 0.7695 0.0
O54 O 0.67809 0.23633 0.7872 0.0
O55 O 0.68076 0.18814 0.76589 0.0
O56 O 0.12554 0.65362 0.43198 0.0
Cd57 Cd 0.12317 0.65901 0.46501 0.0
Cd58 Cd 0.06136 0.61493 0.45819 0.0
O59 O 0.08215 0.613 0.42696 0.0
O60 O 0.16925 0.6853 0.47127 0.0
O61 O 0.15844 0.6297 0.48313 0.0
C62 C 0.18035 0.657 0.48157 0.0
C63 C 0.03791 0.56292 0.47501 0.0
C64 C 0.10762 0.63284 0.41951 0.0
C65 C 0.05031 0.69122 0.47538 0.0
O66 O 0.03632 0.66246 0.4676 0.0
O67 O 0.0846 0.69437 0.47704 0.0
O68 O 0.021 0.5786 0.45931 0.0
O69 O 0.0692 0.57589 0.48061 0.0
O70 O 0.60343 0.87533 0.68187 0.0
Cd71 Cd 0.59784 0.87319 0.71491 0.0
Cd72 Cd 0.64195 0.81112 0.70824 0.0
O73 O 0.6439 0.83176 0.67698 0.0
O74 O 0.57141 0.91926 0.72098 0.0
O75 O 0.62693 0.90865 0.73303 0.0
C76 C 0.5996 0.93049 0.73134 0.0
C77 C 0.69392 0.78738 0.72499 0.0
C78 C 0.62416 0.85725 0.66946 0.0
C79 C 0.56557 0.80037 0.72539 0.0
O80 O 0.59435 0.78629 0.71771 0.0
O81 O 0.56242 0.83468 0.72694 0.0
O82 O 0.67805 0.77055 0.70932 0.0
O83 O 0.68116 0.81875 0.73059 0.0
O84 O 0.38112 0.35359 0.93208 0.0
Cd85 Cd 0.38345 0.34807 0.96511 0.0
Cd86 Cd 0.44538 0.39223 0.95831 0.0
O87 O 0.42453 0.3942 0.92709 0.0
O88 O 0.33744 0.32159 0.97127 0.0
O89 O 0.34802 0.37716 0.98325 0.0
C90 C 0.32621 0.34979 0.98161 0.0
C91 C 0.46908 0.4442 0.97508 0.0
C92 C 0.39905 0.37439 0.91963 0.0
C93 C 0.45636 0.31588 0.97543 0.0
O94 O 0.47035 0.34466 0.96768 0.0
O95 O 0.42207 0.31272 0.97709 0.0
O96 O 0.48586 0.42844 0.95936 0.0
O97 O 0.43777 0.43135 0.98072 0.0
O98 O 0.90256 0.1316 0.18205 0.0
Cd99 Cd 0.90799 0.13397 0.21508 0.0
Cd100 Cd 0.86379 0.19587 0.2082 0.0
O101 O 0.86196 0.175 0.17699 0.0
O102 O 0.93461 0.08804 0.22124 0.0
O103 O 0.879 0.09843 0.23321 0.0
C104 C 0.90644 0.07671 0.23157 0.0
C105 C 0.81172 0.21949 0.22491 0.0
C106 C 0.88181 0.14951 0.16956 0.0
C107 C 0.94006 0.20694 0.22543 0.0
O108 O 0.9113 0.2209 0.21764 0.0
O109 O 0.94324 0.17265 0.2271 0.0
O110 O 0.82752 0.2363 0.20921 0.0
O111 O 0.82461 0.1882 0.23057 0.0
O112 O 0.8819 0.65419 0.93226 0.0
Cd113 Cd 0.88458 0.65957 0.9653 0.0
Cd114 Cd 0.94618 0.61532 0.95836 0.0
O115 O 0.92509 0.61337 0.92722 0.0
O116 O 0.83859 0.68584 0.97178 0.0
O117 O 0.84951 0.63018 0.9835 0.0
C118 C 0.82759 0.65749 0.98206 0.0
C119 C 0.96953 0.56317 0.97507 0.0
C120 C 0.89964 0.63326 0.91979 0.0
C121 C 0.95762 0.69156 0.9755 0.0
O122 O 0.97148 0.66276 0.9677 0.0
O123 O 0.92334 0.6948 0.97724 0.0
O124 O 0.98639 0.57882 0.95934 0.0
O125 O 0.93837 0.57628 0.98078 0.0
O126 O 0.10405 0.13053 0.68173 0.0
Cd127 Cd 0.09823 0.13246 0.71475 0.0
Cd128 Cd 0.14223 0.19478 0.70827 0.0
O129 O 0.14421 0.17441 0.67695 0.0
O130 O 0.07178 0.08633 0.72061 0.0
O131 O 0.12717 0.09689 0.73287 0.0
C132 C 0.09986 0.07505 0.73104 0.0
C133 C 0.19415 0.21862 0.72502 0.0
C134 C 0.12466 0.14882 0.66936 0.0
C135 C 0.06575 0.20515 0.72539 0.0
O136 O 0.09456 0.21937 0.71784 0.0
O137 O 0.06265 0.17082 0.72678 0.0
O138 O 0.17817 0.23549 0.70942 0.0
O139 O 0.18153 0.18717 0.73057 0.0
O140 O 0.62573 0.35274 0.43226 0.0
Cd141 Cd 0.62342 0.34695 0.46528 0.0
Cd142 Cd 0.5614 0.39097 0.45874 0.0
O143 O 0.58206 0.39315 0.42749 0.0
O144 O 0.66963 0.32085 0.47146 0.0
O145 O 0.6585 0.37628 0.48352 0.0
C146 C 0.68056 0.3491 0.48187 0.0
C147 C 0.53766 0.44291 0.47552 0.0
C148 C 0.60762 0.37355 0.41991 0.0
C149 C 0.55068 0.31445 0.47565 0.0
O150 O 0.53657 0.34331 0.4681 0.0
O151 O 0.58499 0.31131 0.47716 0.0
O152 O 0.52083 0.42707 0.45984 0.0
O153 O 0.569 0.43011 0.48114 0.0
O154 O 0.40309 0.87635 0.18175 0.0
Cd155 Cd 0.40873 0.87437 0.21478 0.0
Cd156 Cd 0.36479 0.81216 0.20823 0.0
O157 O 0.36288 0.83252 0.17691 0.0
O158 O 0.43494 0.92059 0.22079 0.0
O159 O 0.3795 0.90975 0.23288 0.0
C160 C 0.40672 0.93171 0.23115 0.0
C161 C 0.31282 0.78841 0.22497 0.0
C162 C 0.38249 0.85808 0.16936 0.0
C163 C 0.44121 0.8017 0.22541 0.0
O164 O 0.41241 0.78752 0.21782 0.0
O165 O 0.44432 0.83603 0.22683 0.0
O166 O 0.32879 0.77151 0.20937 0.0
O167 O 0.32548 0.81985 0.23052 0.0
O168 O 0.8822 0.35402 0.56492 0.0
Cd169 Cd 0.88439 0.34847 0.53189 0.0
Cd170 Cd 0.94657 0.3924 0.53869 0.0
O171 O 0.926 0.39419 0.56997 0.0
O172 O 0.8384 0.32188 0.52585 0.0
O173 O 0.84879 0.37742 0.51377 0.0
C174 C 0.82706 0.35 0.51548 0.0
C175 C 0.97005 0.44444 0.52191 0.0
C176 C 0.90037 0.37455 0.57741 0.0
C177 C 0.95722 0.31613 0.52139 0.0
O178 O 0.97136 0.34484 0.52912 0.0
O179 O 0.9229 0.31306 0.51984 0.0
O180 O 0.98703 0.42862 0.53754 0.0
O181 O 0.93869 0.43158 0.51637 0.0
O182 O 0.40262 0.13257 0.31449 0.0
Cd183 Cd 0.40795 0.13531 0.28146 0.0
Cd184 Cd 0.36394 0.19708 0.28861 0.0
O185 O 0.36211 0.17598 0.31976 0.0
O186 O 0.43451 0.08944 0.27507 0.0
O187 O 0.37886 0.09999 0.26324 0.0
C188 C 0.40629 0.07824 0.26475 0.0
C189 C 0.31182 0.22035 0.27184 0.0
C190 C 0.38193 0.15038 0.32707 0.0
C191 C 0.44011 0.20836 0.27138 0.0
O192 O 0.4114 0.22228 0.27926 0.0
O193 O 0.44321 0.17409 0.26956 0.0
O194 O 0.32742 0.23726 0.28758 0.0
O195 O 0.32495 0.18916 0.26618 0.0
O196 O 0.62572 0.65259 0.06505 0.0
Cd197 Cd 0.6237 0.65834 0.03203 0.0
Cd198 Cd 0.56135 0.61441 0.03865 0.0
O199 O 0.58179 0.61251 0.06996 0.0
O200 O 0.66979 0.68485 0.02613 0.0
O201 O 0.6593 0.62943 0.01389 0.0
C202 C 0.6811 0.65678 0.0157 0.0
C203 C 0.53758 0.56247 0.02188 0.0
C204 C 0.60743 0.63206 0.07747 0.0
C205 C 0.55097 0.69083 0.02147 0.0
O206 O 0.53675 0.66207 0.02909 0.0
O207 O 0.5853 0.69389 0.02001 0.0
O208 O 0.52069 0.57841 0.0375 0.0
O209 O 0.56901 0.57514 0.01633 0.0
O210 O 0.10267 0.87429 0.81443 0.0
Cd211 Cd 0.09731 0.87157 0.78139 0.0
Cd212 Cd 0.14147 0.80997 0.78835 0.0
O213 O 0.14345 0.83108 0.8195 0.0
O214 O 0.071 0.91754 0.77492 0.0
O215 O 0.12667 0.90666 0.76319 0.0
C216 C 0.09933 0.92856 0.76463 0.0
C217 C 0.19358 0.78669 0.77157 0.0
C218 C 0.12357 0.85656 0.82691 0.0
C219 C 0.06525 0.79855 0.77121 0.0
O220 O 0.09402 0.78467 0.77904 0.0
O221 O 0.06207 0.83282 0.76945 0.0
O222 O 0.17799 0.7698 0.78732 0.0
O223 O 0.18042 0.81785 0.76589 0.0
O224 O 0.62539 0.85304 0.5646 0.0
Cd225 Cd 0.62313 0.84732 0.53158 0.0
Cd226 Cd 0.56103 0.89126 0.53822 0.0
O227 O 0.58167 0.89336 0.56948 0.0
O228 O 0.66929 0.8211 0.52545 0.0
O229 O 0.65836 0.87655 0.51339 0.0
C230 C 0.68034 0.84931 0.51505 0.0
C231 C 0.5374 0.94317 0.52136 0.0
C232 C 0.60726 0.87376 0.577 0.0
C233 C 0.55038 0.81482 0.52116 0.0
O234 O 0.53625 0.84361 0.52879 0.0
O235 O 0.5847 0.81173 0.51963 0.0
O236 O 0.52051 0.92741 0.53704 0.0
O237 O 0.56876 0.93033 0.5158 0.0
O238 O 0.40265 0.37549 0.81478 0.0
Cd239 Cd 0.40833 0.37323 0.78175 0.0
Cd240 Cd 0.36437 0.31105 0.78848 0.0
O241 O 0.3624 0.33174 0.81973 0.0
O242 O 0.43473 0.41931 0.77568 0.0
O243 O 0.37926 0.40863 0.76357 0.0
C244 C 0.40658 0.43049 0.76528 0.0
C245 C 0.31243 0.28724 0.77173 0.0
C246 C 0.38201 0.35737 0.82721 0.0
C247 C 0.44077 0.30044 0.77132 0.0
O248 O 0.412 0.28631 0.77898 0.0
O249 O 0.44385 0.33476 0.76978 0.0
O250 O 0.32832 0.27043 0.7874 0.0
O251 O 0.32515 0.31862 0.76613 0.0
O252 O 0.88109 0.15294 0.0647 0.0
Cd253 Cd 0.88341 0.15852 0.03167 0.0
Cd254 Cd 0.94555 0.11457 0.03849 0.0
O255 O 0.92479 0.11266 0.06973 0.0
O256 O 0.83736 0.18494 0.02554 0.0
O257 O 0.84802 0.12942 0.0135 0.0
C258 C 0.82618 0.15676 0.01516 0.0
C259 C 0.96931 0.06262 0.02173 0.0
C260 C 0.89916 0.13231 0.07717 0.0
C261 C 0.95623 0.19091 0.02127 0.0
O262 O 0.97034 0.16218 0.029 0.0
O263 O 0.92192 0.19398 0.01968 0.0
O264 O 0.98612 0.07847 0.03742 0.0
O265 O 0.93794 0.07538 0.01613 0.0
O266 O 0.10414 0.63176 0.31465 0.0
Cd267 Cd 0.09846 0.63402 0.28162 0.0
Cd268 Cd 0.14245 0.69622 0.28838 0.0
O269 O 0.14437 0.67553 0.31963 0.0
O270 O 0.07191 0.58801 0.27556 0.0
O271 O 0.12739 0.59851 0.26342 0.0
C272 C 0.1 0.57674 0.26513 0.0
C273 C 0.19443 0.71996 0.27166 0.0
C274 C 0.12476 0.6499 0.3271 0.0
C275 C 0.06609 0.70685 0.2712 0.0
O276 O 0.09485 0.72098 0.27888 0.0
O277 O 0.063 0.67254 0.26965 0.0
O278 O 0.17855 0.7368 0.28732 0.0
O279 O 0.18169 0.68858 0.26605 0.0
O280 O 0.62496 0.15343 0.93182 0.0
Cd281 Cd 0.6226 0.159 0.96485 0.0
Cd282 Cd 0.56064 0.11501 0.95811 0.0
O283 O 0.58128 0.11311 0.92685 0.0
O284 O 0.66869 0.18528 0.97107 0.0
O285 O 0.65783 0.12976 0.98303 0.0
C286 C 0.67976 0.15704 0.98143 0.0
C287 C 0.53728 0.06291 0.97487 0.0
C288 C 0.60686 0.13276 0.91937 0.0
C289 C 0.54976 0.19133 0.97528 0.0
O290 O 0.53569 0.16253 0.96761 0.0
O291 O 0.58407 0.19447 0.97682 0.0
O292 O 0.52029 0.07869 0.95923 0.0
O293 O 0.56858 0.07588 0.98045 0.0
O294 O 0.10256 0.37539 0.18185 0.0
Cd295 Cd 0.09699 0.37312 0.21487 0.0
Cd296 Cd 0.14094 0.31117 0.20823 0.0
O297 O 0.14293 0.33172 0.17696 0.0
O298 O 0.07086 0.4193 0.22109 0.0
O299 O 0.12637 0.40828 0.23303 0.0
C300 C 0.09916 0.43029 0.23143 0.0
C301 C 0.19298 0.2878 0.22506 0.0
C302 C 0.12327 0.35727 0.16943 0.0
C303 C 0.06459 0.30036 0.22535 0.0
O304 O 0.09339 0.28626 0.2177 0.0
O305 O 0.06146 0.33468 0.22687 0.0
O306 O 0.17724 0.27079 0.20941 0.0
O307 O 0.18003 0.31912 0.23061 0.0
O308 O 0.88179 0.85368 0.43188 0.0
Cd309 Cd 0.88406 0.84806 0.46491 0.0
Cd310 Cd 0.94614 0.89211 0.45819 0.0
O311 O 0.9255 0.89398 0.42693 0.0
O312 O 0.83803 0.82158 0.47102 0.0
O313 O 0.84863 0.8771 0.48309 0.0
C314 C 0.82681 0.84974 0.48141 0.0
C315 C 0.96971 0.94419 0.47488 0.0
C316 C 0.8999 0.87433 0.41945 0.0
C317 C 0.95692 0.81577 0.47536 0.0
O318 O 0.97101 0.84456 0.4677 0.0
O319 O 0.92261 0.81263 0.47689 0.0
O320 O 0.98661 0.92831 0.45925 0.0
O321 O 0.93838 0.93135 0.4805 0.0
O322 O 0.40329 0.63163 0.68202 0.0
Cd323 Cd 0.40875 0.63411 0.71505 0.0
Cd324 Cd 0.36475 0.69598 0.70819 0.0
O325 O 0.36288 0.6752 0.67696 0.0
O326 O 0.43508 0.58807 0.72132 0.0
O327 O 0.3795 0.59886 0.73322 0.0
C328 C 0.40682 0.57697 0.73165 0.0
C329 C 0.31263 0.71931 0.72494 0.0
C330 C 0.38261 0.64962 0.66953 0.0
C331 C 0.441 0.707 0.72539 0.0
O332 O 0.41224 0.72102 0.71765 0.0
O333 O 0.44414 0.6727 0.72702 0.0
O334 O 0.32835 0.73627 0.70928 0.0
O335 O 0.32565 0.68805 0.73055 0.0
O336 O 0.38173 0.15279 0.43193 0.0
Cd337 Cd 0.38421 0.15798 0.46497 0.0
Cd338 Cd 0.446 0.11384 0.45788 0.0
O339 O 0.42506 0.11219 0.42669 0.0
O340 O 0.33834 0.18462 0.47123 0.0
O341 O 0.34866 0.12891 0.48305 0.0
C342 C 0.32698 0.1564 0.48149 0.0
C343 C 0.46939 0.06168 0.47457 0.0
C344 C 0.39957 0.13212 0.41935 0.0
C345 C 0.45723 0.18994 0.47531 0.0
O346 O 0.47114 0.16126 0.46739 0.0
O347 O 0.42295 0.1931 0.47706 0.0
O348 O 0.48628 0.07741 0.45887 0.0
O349 O 0.43815 0.07468 0.48022 0.0
O350 O 0.60286 0.63227 0.18236 0.0
Cd351 Cd 0.59749 0.63499 0.2154 0.0
Cd352 Cd 0.64182 0.69655 0.2084 0.0
O353 O 0.64373 0.67539 0.17727 0.0
O354 O 0.57101 0.5891 0.22184 0.0
O355 O 0.6267 0.59978 0.2336 0.0
C356 C 0.5993 0.57798 0.23214 0.0
C357 C 0.69398 0.71991 0.22511 0.0
C358 C 0.62379 0.64995 0.16987 0.0
C359 C 0.56561 0.70811 0.22555 0.0
O360 O 0.59441 0.72192 0.21772 0.0
O361 O 0.56235 0.67385 0.22733 0.0
O362 O 0.67835 0.73673 0.20936 0.0
O363 O 0.68085 0.68877 0.23084 0.0
O364 O 0.12581 0.85409 0.93174 0.0
Cd365 Cd 0.12385 0.84843 0.96477 0.0
Cd366 Cd 0.0616 0.89242 0.95818 0.0
O367 O 0.08195 0.89425 0.92685 0.0
O368 O 0.16997 0.822 0.9707 0.0
O369 O 0.15942 0.87745 0.98287 0.0
C370 C 0.18125 0.85012 0.98109 0.0
C371 C 0.03785 0.94439 0.97493 0.0
C372 C 0.10753 0.87463 0.91932 0.0
C373 C 0.05112 0.81603 0.97538 0.0
O374 O 0.03695 0.84481 0.96777 0.0
O375 O 0.08545 0.81291 0.97682 0.0
O376 O 0.02095 0.92843 0.95932 0.0
O377 O 0.06929 0.93173 0.98046 0.0
O378 O 0.90412 0.37433 0.68232 0.0
Cd379 Cd 0.90925 0.3716 0.71536 0.0
Cd380 Cd 0.86511 0.31004 0.70826 0.0
O381 O 0.86335 0.33115 0.67711 0.0
O382 O 0.93554 0.41757 0.7219 0.0
O383 O 0.8798 0.40672 0.73352 0.0
C384 C 0.90715 0.4286 0.73213 0.0
C385 C 0.8129 0.28679 0.72496 0.0
C386 C 0.88331 0.35661 0.66976 0.0
C387 C 0.94123 0.29856 0.72554 0.0
O388 O 0.91249 0.28471 0.71764 0.0
O389 O 0.94442 0.33283 0.72735 0.0
O390 O 0.82854 0.2699 0.70923 0.0
O391 O 0.82606 0.31795 0.73066 0.0
O392 O 0.38217 0.85326 0.06448 0.0
Cd393 Cd 0.38478 0.84772 0.03145 0.0
Cd394 Cd 0.4465 0.89185 0.03829 0.0
O395 O 0.42554 0.89391 0.06947 0.0
O396 O 0.33875 0.82142 0.02507 0.0
O397 O 0.34965 0.877 0.01321 0.0
C398 C 0.32774 0.84969 0.01473 0.0
C399 C 0.46986 0.94391 0.02149 0.0
C400 C 0.40003 0.87413 0.07692 0.0
C401 C 0.45774 0.81552 0.02125 0.0
O402 O 0.47168 0.84433 0.02899 0.0
O403 O 0.42345 0.81235 0.01955 0.0
O404 O 0.48676 0.92828 0.03722 0.0
O405 O 0.43865 0.93082 0.01584 0.0
O406 O 0.90227 0.63078 0.81497 0.0
Cd407 Cd 0.90805 0.63263 0.78195 0.0
Cd408 Cd 0.86416 0.69505 0.78847 0.0
O409 O 0.86226 0.67479 0.81981 0.0
O410 O 0.93453 0.58648 0.77613 0.0
O411 O 0.87914 0.59697 0.76384 0.0
C412 C 0.90646 0.57515 0.7657 0.0
C413 C 0.81222 0.71887 0.77171 0.0
C414 C 0.88177 0.64916 0.82737 0.0
C415 C 0.94061 0.70528 0.77129 0.0
O416 O 0.91183 0.71955 0.77885 0.0
O417 O 0.94367 0.67094 0.7699 0.0
O418 O 0.82824 0.73578 0.7873 0.0
O419 O 0.82482 0.68739 0.7662 0.0
O420 O 0.12554 0.15353 0.56449 0.0
Cd421 Cd 0.12319 0.15907 0.53147 0.0
Cd422 Cd 0.06129 0.11503 0.53818 0.0
O423 O 0.08209 0.11295 0.56939 0.0
O424 O 0.16931 0.18532 0.52527 0.0
O425 O 0.15842 0.12978 0.51331 0.0
C426 C 0.18037 0.15704 0.51493 0.0
C427 C 0.03769 0.06303 0.52141 0.0
C428 C 0.10758 0.1327 0.5769 0.0
C429 C 0.05038 0.19141 0.52111 0.0
O430 O 0.03634 0.16262 0.52881 0.0
O431 O 0.08468 0.19453 0.51949 0.0
O432 O 0.02084 0.07881 0.5371 0.0
O433 O 0.06898 0.07592 0.51577 0.0
O434 O 0.60348 0.37602 0.31508 0.0
Cd435 Cd 0.59754 0.3741 0.28207 0.0
Cd436 Cd 0.64146 0.31173 0.28845 0.0
O437 O 0.64363 0.3321 0.31978 0.0
O438 O 0.57123 0.42032 0.27621 0.0
O439 O 0.62657 0.40955 0.26391 0.0
C440 C 0.59934 0.43149 0.26575 0.0
C441 C 0.69331 0.28789 0.27162 0.0
C442 C 0.62414 0.3577 0.3274 0.0
C443 C 0.56489 0.30148 0.27147 0.0
O444 O 0.59371 0.28721 0.27897 0.0
O445 O 0.56184 0.33581 0.27009 0.0
O446 O 0.67738 0.27101 0.28724 0.0
O447 O 0.68066 0.31934 0.26609 0.0
C448 C 0.96894 0.51616 0.00455 0.0
C449 C 0.9864 0.5322 0.98672 0.0
H450 H 0.97133 0.47602 0.02959 0.0
C451 C 0.02093 0.51929 0.98059 0.0
H452 H 0.94244 0.52555 0.00976 0.0
C453 C 0.03761 0.49099 0.99202 0.0
C454 C 0.02016 0.47495 0.00985 0.0
H455 H 0.03522 0.53113 0.96698 0.0
H456 H 0.06412 0.4816 0.98681 0.0
C457 C 0.98563 0.48786 0.01598 0.0
C458 C 0.74093 0.71941 0.25463 0.0
C459 C 0.72493 0.73681 0.23677 0.0
H460 H 0.78101 0.72187 0.27971 0.0
C461 C 0.73784 0.77133 0.23063 0.0
H462 H 0.73153 0.69292 0.25986 0.0
C463 C 0.7661 0.78805 0.24208 0.0
C464 C 0.78211 0.77065 0.25994 0.0
H465 H 0.72603 0.78558 0.21699 0.0
H466 H 0.7755 0.81454 0.23685 0.0
C467 C 0.7692 0.73613 0.26608 0.0
C468 C 0.538 0.48995 0.50499 0.0
C469 C 0.5206 0.47376 0.48719 0.0
H470 H 0.53544 0.53015 0.53 0.0
C471 C 0.48597 0.48643 0.48109 0.0
H472 H 0.56458 0.48074 0.51018 0.0
C473 C 0.46915 0.51466 0.49252 0.0
C474 C 0.48656 0.53087 0.51031 0.0
H475 H 0.47171 0.47446 0.4675 0.0
H476 H 0.44258 0.52388 0.48732 0.0
C477 C 0.52118 0.51818 0.51642 0.0
C478 C 0.76896 0.23545 0.7305 0.0
C479 C 0.78194 0.26996 0.73663 0.0
H480 H 0.73125 0.1923 0.73675 0.0
C481 C 0.76598 0.28741 0.75449 0.0
H482 H 0.78074 0.22116 0.71687 0.0
C483 C 0.7377 0.27075 0.76595 0.0
C484 C 0.72473 0.23624 0.75983 0.0
H485 H 0.77542 0.3139 0.75971 0.0
H486 H 0.72592 0.28504 0.77959 0.0
C487 C 0.74069 0.21879 0.74196 0.0
C488 C 0.02168 0.48796 0.51614 0.0
C489 C 0.98701 0.47525 0.51015 0.0
H490 H 0.06507 0.52532 0.5097 0.0
C491 C 0.96951 0.4913 0.49234 0.0
H492 H 0.03602 0.4761 0.52973 0.0
C493 C 0.98628 0.5194 0.48079 0.0
C494 C 0.02096 0.53212 0.48678 0.0
H495 H 0.9429 0.48205 0.48724 0.0
H496 H 0.97194 0.53126 0.4672 0.0
C497 C 0.03846 0.51607 0.50459 0.0
C498 C 0.73713 0.73549 0.73072 0.0
C499 C 0.72468 0.77026 0.7367 0.0
H500 H 0.77424 0.69187 0.73713 0.0
C501 C 0.74095 0.78771 0.75446 0.0
H502 H 0.7251 0.72118 0.71717 0.0
C503 C 0.76903 0.77078 0.76597 0.0
C504 C 0.78147 0.736 0.75999 0.0
H505 H 0.73191 0.81439 0.75957 0.0
H506 H 0.78106 0.78508 0.77952 0.0
C507 C 0.7652 0.71856 0.74223 0.0
C508 C 0.46881 0.49111 0.00464 0.0
C509 C 0.4862 0.47496 0.98682 0.0
H510 H 0.47149 0.53111 0.02976 0.0
C511 C 0.52091 0.48752 0.98079 0.0
H512 H 0.44217 0.48199 0.00978 0.0
C513 C 0.53783 0.51557 0.99232 0.0
C514 C 0.52045 0.53172 0.01014 0.0
H515 H 0.53516 0.47557 0.96719 0.0
H516 H 0.56447 0.52469 0.98718 0.0
C517 C 0.48574 0.51917 0.01616 0.0
C518 C 0.76833 0.27126 0.23057 0.0
C519 C 0.78091 0.23656 0.23661 0.0
H520 H 0.7311 0.3148 0.23694 0.0
C521 C 0.76472 0.21916 0.2544 0.0
H522 H 0.78029 0.28553 0.21699 0.0
C523 C 0.73662 0.23605 0.2659 0.0
C524 C 0.72406 0.27076 0.25988 0.0
H525 H 0.77386 0.19253 0.25955 0.0
H526 H 0.72466 0.22179 0.27949 0.0
C527 C 0.74023 0.28816 0.24208 0.0
C528 C 0.26925 0.23531 0.766 0.0
C529 C 0.28168 0.27008 0.76002 0.0
H530 H 0.23217 0.19166 0.7596 0.0
C531 C 0.26539 0.2875 0.74226 0.0
H532 H 0.2813 0.22102 0.77955 0.0
C533 C 0.23733 0.27055 0.73076 0.0
C534 C 0.2249 0.23578 0.73674 0.0
H535 H 0.27441 0.31419 0.73715 0.0
H536 H 0.22528 0.28484 0.7172 0.0
C537 C 0.24119 0.21835 0.7545 0.0
C538 C 0.23768 0.77184 0.26594 0.0
C539 C 0.22521 0.73707 0.25995 0.0
H540 H 0.27481 0.81544 0.25955 0.0
C541 C 0.24149 0.71962 0.24219 0.0
H542 H 0.22564 0.78614 0.27949 0.0
C543 C 0.26958 0.73653 0.2307 0.0
C544 C 0.28204 0.7713 0.23668 0.0
H545 H 0.23244 0.69294 0.23709 0.0
H546 H 0.28162 0.72223 0.21715 0.0
C547 C 0.26576 0.78875 0.25444 0.0
C548 C 0.26803 0.27178 0.26615 0.0
C549 C 0.28091 0.2372 0.26012 0.0
H550 H 0.23046 0.31501 0.25978 0.0
C551 C 0.26493 0.21968 0.24229 0.0
H552 H 0.27984 0.28614 0.27976 0.0
C553 C 0.23672 0.23635 0.23077 0.0
C554 C 0.22385 0.27094 0.23681 0.0
H555 H 0.2743 0.19313 0.23714 0.0
H556 H 0.22492 0.222 0.21716 0.0
C557 C 0.23983 0.28846 0.25463 0.0
C558 C 0.23746 0.73532 0.76596 0.0
C559 C 0.22452 0.76985 0.75987 0.0
H560 H 0.27514 0.69215 0.75966 0.0
C561 C 0.24049 0.78734 0.74203 0.0
H562 H 0.22567 0.721 0.77958 0.0
C563 C 0.26875 0.77068 0.73055 0.0
C564 C 0.28169 0.73614 0.73664 0.0
H565 H 0.23107 0.81385 0.73685 0.0
H566 H 0.28055 0.785 0.71693 0.0
C567 C 0.26572 0.71866 0.75448 0.0
C568 C 0.5378 0.98996 0.49175 0.0
C569 C 0.52037 0.97393 0.5096 0.0
H570 H 0.53527 0.02993 0.46662 0.0
C571 C 0.48572 0.98665 0.51563 0.0
H572 H 0.56438 0.9807 0.48661 0.0
C573 C 0.46891 0.01477 0.50411 0.0
C574 C 0.48635 0.03082 0.48627 0.0
H575 H 0.47144 0.97481 0.52925 0.0
H576 H 0.44233 0.02404 0.50926 0.0
C577 C 0.52098 0.01807 0.48023 0.0
C578 C 0.98595 0.9876 0.98069 0.0
C579 C 0.02072 0.97514 0.98666 0.0
H580 H 0.94233 0.02469 0.98712 0.0
C581 C 0.03816 0.99138 0.00444 0.0
H582 H 0.97166 0.97559 0.96713 0.0
C583 C 0.02122 0.01942 0.01597 0.0
C584 C 0.98644 0.03188 0.01 0.0
H585 H 0.06484 0.98233 0.00954 0.0
H586 H 0.03551 0.03143 0.02954 0.0
C587 C 0.96901 0.01564 0.99222 0.0
C588 C 0.53795 0.01595 0.00437 0.0
C589 C 0.52044 0.03198 0.98656 0.0
H590 H 0.53563 0.97587 0.02945 0.0
C591 C 0.48586 0.01911 0.9805 0.0
H592 H 0.56449 0.02533 0.00953 0.0
C593 C 0.4692 0.99085 0.99197 0.0
C594 C 0.48671 0.97482 0.00979 0.0
H595 H 0.47152 0.03094 0.9669 0.0
H596 H 0.44266 0.98148 0.98681 0.0
C597 C 0.52128 0.9877 0.01585 0.0
C598 C 0.98605 0.01947 0.51579 0.0
C599 C 0.02069 0.03216 0.50972 0.0
H600 H 0.94267 0.98203 0.50951 0.0
C601 C 0.03813 0.016 0.49193 0.0
H602 H 0.97176 0.03142 0.52938 0.0
C603 C 0.02133 0.98778 0.48047 0.0
C604 C 0.98669 0.97509 0.48654 0.0
H605 H 0.06471 0.02522 0.48676 0.0
H606 H 0.03562 0.97583 0.46689 0.0
C607 C 0.96925 0.99126 0.50434 0.0
C608 C 0.96506 0.25772 0.01574 0.0
C609 C 0.97985 0.22252 0.01666 0.0
H610 H 0.9756 0.31493 0.01634 0.0
C611 C 0.01781 0.21833 0.01577 0.0
H612 H 0.93592 0.2619 0.01631 0.0
C613 C 0.04057 0.24874 0.01557 0.0
C614 C 0.0258 0.28394 0.01655 0.0
H615 H 0.03003 0.19154 0.01623 0.0
H616 H 0.06971 0.24456 0.01602 0.0
C617 C 0.98782 0.28814 0.01583 0.0
C618 C 0.03863 0.76843 0.2657 0.0
C619 C 0.03445 0.73046 0.26661 0.0
H620 H 0.01239 0.82032 0.26597 0.0
C621 C 0.99925 0.71566 0.26574 0.0
H622 H 0.06542 0.78066 0.26612 0.0
C623 C 0.96883 0.73841 0.26586 0.0
C624 C 0.97302 0.77639 0.26657 0.0
H625 H 0.99509 0.68652 0.26632 0.0
H626 H 0.94205 0.72619 0.26641 0.0
C627 C 0.00821 0.79117 0.26554 0.0
C628 C 0.51879 0.71754 0.51599 0.0
C629 C 0.48081 0.72176 0.51664 0.0
H630 H 0.57069 0.74377 0.51648 0.0
C631 C 0.46605 0.75696 0.51551 0.0
H632 H 0.53099 0.69075 0.51662 0.0
C633 C 0.48882 0.78736 0.51564 0.0
C634 C 0.52678 0.78316 0.51661 0.0
H635 H 0.43691 0.76115 0.51588 0.0
H636 H 0.47661 0.81416 0.51598 0.0
C637 C 0.54156 0.74795 0.51584 0.0
C638 C 0.53802 0.26885 0.76599 0.0
C639 C 0.53381 0.23087 0.76663 0.0
H640 H 0.5118 0.32075 0.76652 0.0
C641 C 0.49861 0.21611 0.76557 0.0
H642 H 0.56481 0.28105 0.76657 0.0
C643 C 0.4682 0.23887 0.76575 0.0
C644 C 0.4724 0.27683 0.76672 0.0
H645 H 0.49441 0.18696 0.76595 0.0
H646 H 0.4414 0.22666 0.76615 0.0
C647 C 0.50761 0.29161 0.76589 0.0
C648 C 0.96582 0.74894 0.48078 0.0
C649 C 0.98058 0.78416 0.47993 0.0
H650 H 0.97643 0.69175 0.48007 0.0
C651 C 0.01853 0.78839 0.48085 0.0
H652 H 0.93669 0.74473 0.48019 0.0
C653 C 0.04132 0.758 0.48099 0.0
C654 C 0.02659 0.72279 0.47994 0.0
H655 H 0.03073 0.8152 0.48044 0.0
H656 H 0.07046 0.76222 0.48057 0.0
C657 C 0.98861 0.71855 0.48064 0.0
C658 C 0.53819 0.73873 0.7308 0.0
C659 C 0.53396 0.7767 0.72996 0.0
H660 H 0.51201 0.68681 0.73046 0.0
C661 C 0.49875 0.79145 0.73088 0.0
H662 H 0.56499 0.72654 0.73033 0.0
C663 C 0.46835 0.76867 0.73074 0.0
C664 C 0.47258 0.7307 0.72996 0.0
H665 H 0.49455 0.82059 0.73036 0.0
H666 H 0.44155 0.78086 0.73023 0.0
C667 C 0.5078 0.71595 0.73094 0.0
C668 C 0.54085 0.25815 0.98075 0.0
C669 C 0.5261 0.22293 0.97987 0.0
H670 H 0.53025 0.31534 0.9801 0.0
C671 C 0.48814 0.21869 0.98078 0.0
H672 H 0.56998 0.26236 0.98016 0.0
C673 C 0.46535 0.24908 0.98096 0.0
C674 C 0.48009 0.2843 0.97995 0.0
H675 H 0.47595 0.19189 0.98035 0.0
H676 H 0.43621 0.24487 0.98054 0.0
C677 C 0.51806 0.28854 0.98065 0.0
C678 C 0.99775 0.29146 0.23075 0.0
C679 C 0.03298 0.27672 0.22993 0.0
H680 H 0.94057 0.28084 0.23005 0.0
C681 C 0.03722 0.23876 0.23088 0.0
H682 H 0.99354 0.32059 0.23013 0.0
C683 C 0.00683 0.21597 0.23105 0.0
C684 C 0.97162 0.23069 0.22998 0.0
H685 H 0.06403 0.22657 0.23049 0.0
H686 H 0.01106 0.18683 0.23066 0.0
C687 C 0.96737 0.26866 0.23064 0.0
C688 C 0.96676 0.75829 0.98126 0.0
C689 C 0.98145 0.72307 0.98003 0.0
H690 H 0.97741 0.81548 0.98084 0.0
C691 C 0.01943 0.71879 0.98054 0.0
H692 H 0.93762 0.76253 0.981 0.0
C693 C 0.04225 0.74916 0.98066 0.0
C694 C 0.02752 0.7844 0.97999 0.0
H695 H 0.03158 0.69198 0.97983 0.0
H696 H 0.07137 0.74493 0.97991 0.0
C697 C 0.98958 0.78866 0.9811 0.0
C698 C 0.00794 0.28945 0.73135 0.0
C699 C 0.97273 0.27474 0.73007 0.0
H700 H 0.06513 0.27885 0.73095 0.0
C701 C 0.96848 0.23676 0.73052 0.0
H702 H 0.01216 0.31859 0.73113 0.0
C703 C 0.99886 0.21396 0.73063 0.0
C704 C 0.03409 0.22872 0.73001 0.0
H705 H 0.94168 0.22459 0.72977 0.0
H706 H 0.99466 0.18484 0.72983 0.0
C707 C 0.03832 0.26666 0.73118 0.0
C708 C 0.54178 0.24755 0.48078 0.0
C709 C 0.52704 0.28279 0.48013 0.0
H710 H 0.53114 0.19038 0.47983 0.0
C711 C 0.48909 0.28703 0.48113 0.0
H712 H 0.5709 0.24334 0.48011 0.0
C713 C 0.46628 0.25665 0.48119 0.0
C714 C 0.481 0.22144 0.47994 0.0
H715 H 0.4769 0.31385 0.48087 0.0
H716 H 0.43714 0.26088 0.48084 0.0
C717 C 0.51897 0.21718 0.48055 0.0
C718 C 0.50809 0.79281 0.23064 0.0
C719 C 0.47284 0.7781 0.23002 0.0
H720 H 0.56525 0.7821 0.22977 0.0
C721 C 0.46856 0.74016 0.23118 0.0
H722 H 0.51233 0.82192 0.22985 0.0
C723 C 0.49891 0.71733 0.23134 0.0
C724 C 0.53414 0.73199 0.23007 0.0
H725 H 0.44173 0.72801 0.23095 0.0
H726 H 0.49464 0.68819 0.23112 0.0
C727 C 0.53844 0.76996 0.23052 0.0
C728 C 0.01878 0.28866 0.51583 0.0
C729 C 0.98081 0.2845 0.51674 0.0
H730 H 0.07066 0.26239 0.51604 0.0
C731 C 0.966 0.24931 0.51583 0.0
H732 H 0.03102 0.31545 0.51629 0.0
C733 C 0.98873 0.21887 0.5159 0.0
C734 C 0.02671 0.22304 0.51661 0.0
H735 H 0.93685 0.24515 0.51642 0.0
H736 H 0.97649 0.19209 0.51642 0.0
C737 C 0.04151 0.25823 0.51562 0.0
C738 C 0.50685 0.2173 0.26561 0.0
C739 C 0.47168 0.2321 0.26686 0.0
H740 H 0.56408 0.22775 0.26601 0.0
C741 C 0.46752 0.27009 0.26639 0.0
H742 H 0.511 0.18814 0.26585 0.0
C743 C 0.49797 0.29281 0.26626 0.0
C744 C 0.53316 0.27797 0.2669 0.0
H745 H 0.44076 0.28233 0.26712 0.0
H746 H 0.49384 0.32194 0.26703 0.0
C747 C 0.5373 0.24001 0.26577 0.0
C748 C 0.46672 0.74875 0.01561 0.0
C749 C 0.48148 0.78394 0.01676 0.0
H750 H 0.47723 0.69153 0.01612 0.0
C751 C 0.51947 0.78813 0.01621 0.0
H752 H 0.43757 0.74457 0.0159 0.0
C753 C 0.54222 0.7577 0.01612 0.0
C754 C 0.52741 0.7225 0.01686 0.0
H755 H 0.53169 0.81491 0.01686 0.0
H756 H 0.57135 0.76187 0.01683 0.0
C757 C 0.48946 0.71832 0.01579 0.0
C758 C 0.96812 0.76675 0.76551 0.0
C759 C 0.97231 0.7288 0.76668 0.0
H760 H 0.99434 0.81865 0.76558 0.0
C761 C 0.00752 0.714 0.76609 0.0
H762 H 0.94133 0.77897 0.76572 0.0
C763 C 0.03793 0.73677 0.76623 0.0
C764 C 0.03372 0.77476 0.76668 0.0
H765 H 0.01169 0.68488 0.76689 0.0
H766 H 0.06471 0.72457 0.767 0.0
C767 C 0.99854 0.7895 0.76537 0.0
C768 C 0.27088 0.38345 0.99463 0.0
C769 C 0.28904 0.35048 0.99066 0.0
H770 H 0.22137 0.40912 0.00499 0.0
C771 C 0.27073 0.31759 0.99444 0.0
H772 H 0.28429 0.40919 0.99167 0.0
C773 C 0.23514 0.31755 0.0022 0.0
C774 C 0.21675 0.35039 0.00599 0.0
H775 H 0.28399 0.29175 0.99151 0.0
H776 H 0.22194 0.29168 0.00513 0.0
C777 C 0.23484 0.38341 0.00203 0.0
C778 C 0.93883 0.02132 0.24437 0.0
C779 C 0.90588 0.03954 0.24062 0.0
H780 H 0.9649 0.9726 0.25503 0.0
C781 C 0.87297 0.0213 0.24462 0.0
H782 H 0.96462 0.03465 0.24141 0.0
C783 C 0.87313 0.98525 0.25202 0.0
C784 C 0.9062 0.96726 0.25595 0.0
H785 H 0.84718 0.03464 0.24169 0.0
H786 H 0.84747 0.97172 0.25501 0.0
C787 C 0.93899 0.98573 0.25213 0.0
C788 C 0.23594 0.68894 0.49447 0.0
C789 C 0.21749 0.65614 0.49065 0.0
H790 H 0.28481 0.71463 0.50521 0.0
C791 C 0.23549 0.62309 0.49461 0.0
H792 H 0.22279 0.71485 0.49155 0.0
C793 C 0.27152 0.62297 0.50204 0.0
C794 C 0.28974 0.65589 0.50604 0.0
H795 H 0.22198 0.59741 0.49163 0.0
H796 H 0.28488 0.59719 0.505 0.0
C797 C 0.2715 0.68882 0.50226 0.0
C798 C 0.56736 0.02158 0.75193 0.0
C799 C 0.6002 0.03992 0.75578 0.0
H800 H 0.54155 0.97278 0.74115 0.0
C801 C 0.63321 0.02181 0.75186 0.0
H802 H 0.54149 0.0348 0.75482 0.0
C803 C 0.63325 0.98577 0.74443 0.0
C804 C 0.60028 0.96766 0.7404 0.0
H805 H 0.65893 0.03524 0.75488 0.0
H806 H 0.65899 0.97233 0.74151 0.0
C807 C 0.5674 0.98601 0.74413 0.0
C808 C 0.73665 0.68918 0.00315 0.0
C809 C 0.7183 0.65624 0.00669 0.0
H810 H 0.78542 0.71527 0.99258 0.0
C811 C 0.73642 0.62334 0.00246 0.0
H812 H 0.72343 0.71498 0.00629 0.0
C813 C 0.77244 0.6235 0.995 0.0
C814 C 0.79053 0.65658 0.99125 0.0
H815 H 0.72299 0.59755 0.00522 0.0
H816 H 0.78586 0.59784 0.99181 0.0
C817 C 0.7722 0.68935 0.99533 0.0
C818 C 0.13326 0.98375 0.7517 0.0
C819 C 0.10021 0.96561 0.75544 0.0
H820 H 0.15915 0.03325 0.74151 0.0
C821 C 0.0674 0.98388 0.75135 0.0
H822 H 0.15893 0.97037 0.7549 0.0
C823 C 0.06753 0.01944 0.74354 0.0
C824 C 0.10045 0.03784 0.74003 0.0
H825 H 0.04151 0.97062 0.7541 0.0
H826 H 0.04172 0.03262 0.7404 0.0
C827 C 0.13337 0.01977 0.74426 0.0
C828 C 0.77161 0.38338 0.5024 0.0
C829 C 0.78989 0.3505 0.50643 0.0
H830 H 0.72202 0.40881 0.49194 0.0
C831 C 0.77172 0.31753 0.50267 0.0
H832 H 0.78491 0.40919 0.50534 0.0
C833 C 0.73617 0.31731 0.49485 0.0
C834 C 0.71766 0.35006 0.491 0.0
H835 H 0.78508 0.29175 0.50564 0.0
H836 H 0.72308 0.29137 0.49194 0.0
C837 C 0.73559 0.38316 0.49496 0.0
C838 C 0.37273 0.02286 0.25173 0.0
C839 C 0.40566 0.04115 0.25558 0.0
H840 H 0.34716 0.97325 0.24143 0.0
C841 C 0.43858 0.02301 0.25162 0.0
H842 H 0.34696 0.03614 0.25482 0.0
C843 C 0.43869 0.98745 0.24381 0.0
C844 C 0.40589 0.9689 0.24017 0.0
H845 H 0.4644 0.03638 0.25446 0.0
H846 H 0.46459 0.97437 0.24077 0.0
C847 C 0.37284 0.98683 0.24428 0.0
C848 C 0.77144 0.81744 0.49431 0.0
C849 C 0.78968 0.85036 0.49051 0.0
H850 H 0.72275 0.79144 0.50508 0.0
C851 C 0.77148 0.8833 0.4945 0.0
H852 H 0.78474 0.79162 0.49136 0.0
C853 C 0.73546 0.88319 0.50196 0.0
C854 C 0.71746 0.85015 0.50595 0.0
H855 H 0.78483 0.90907 0.49152 0.0
H856 H 0.72196 0.90888 0.50494 0.0
C857 C 0.73589 0.81734 0.50214 0.0
C858 C 0.373 0.52176 0.74469 0.0
C859 C 0.40602 0.53986 0.74077 0.0
H860 H 0.3472 0.47232 0.75505 0.0
C861 C 0.43886 0.52152 0.74466 0.0
H862 H 0.3473 0.53519 0.74164 0.0
C863 C 0.4388 0.48597 0.75248 0.0
C864 C 0.40591 0.46763 0.7562 0.0
H865 H 0.46474 0.53474 0.74178 0.0
H866 H 0.46464 0.47275 0.75548 0.0
C867 C 0.37295 0.48574 0.75214 0.0
C868 C 0.77091 0.12314 0.00202 0.0
C869 C 0.78905 0.1561 0.00605 0.0
H870 H 0.72145 0.09751 0.99153 0.0
C871 C 0.77077 0.189 0.00226 0.0
H872 H 0.7843 0.09739 0.00498 0.0
C873 C 0.73523 0.18906 0.99442 0.0
C874 C 0.71686 0.15623 0.99057 0.0
H875 H 0.78402 0.21483 0.00524 0.0
H876 H 0.72206 0.21495 0.99148 0.0
C877 C 0.73491 0.12321 0.99454 0.0
C878 C 0.06755 0.52142 0.25228 0.0
C879 C 0.10052 0.53961 0.25603 0.0
H880 H 0.04142 0.47278 0.24154 0.0
C881 C 0.13341 0.52136 0.25196 0.0
H882 H 0.04177 0.53476 0.25529 0.0
C883 C 0.1332 0.48535 0.24449 0.0
C884 C 0.10011 0.4674 0.24056 0.0
H885 H 0.15921 0.53467 0.25489 0.0
H886 H 0.15885 0.47181 0.24145 0.0
C887 C 0.06735 0.48588 0.24444 0.0
C888 C 0.23548 0.12308 0.50187 0.0
C889 C 0.21753 0.15615 0.50587 0.0
H890 H 0.28484 0.09713 0.49148 0.0
C891 C 0.23604 0.18893 0.50212 0.0
H892 H 0.22191 0.09741 0.5048 0.0
C893 C 0.27163 0.18877 0.49436 0.0
C894 C 0.28981 0.15583 0.49054 0.0
H895 H 0.22294 0.21485 0.50508 0.0
H896 H 0.28499 0.21457 0.49146 0.0
C897 C 0.27153 0.12292 0.49447 0.0
C898 C 0.63303 0.48665 0.25253 0.0
C899 C 0.60004 0.46868 0.25674 0.0
H900 H 0.65875 0.53597 0.2419 0.0
C901 C 0.56718 0.48718 0.25321 0.0
H902 H 0.65875 0.4731 0.2553 0.0
C903 C 0.56718 0.52273 0.24539 0.0
C904 C 0.60004 0.54091 0.24132 0.0
H905 H 0.54133 0.47407 0.25633 0.0
H906 H 0.54132 0.53607 0.24263 0.0
C907 C 0.63303 0.52267 0.24508 0.0
C908 C 0.23681 0.81783 0.99371 0.0
C909 C 0.21844 0.85074 0.99011 0.0
H910 H 0.2856 0.79183 0.00434 0.0
C911 C 0.23654 0.88368 0.99427 0.0
H912 H 0.2236 0.79201 0.99063 0.0
C913 C 0.27256 0.88358 0.00172 0.0
C914 C 0.29067 0.85054 0.00554 0.0
H915 H 0.22309 0.90944 0.99144 0.0
H916 H 0.28597 0.90927 0.00486 0.0
C917 C 0.27236 0.81773 0.00154 0.0
C918 C 0.87316 0.48381 0.74501 0.0
C919 C 0.90623 0.46567 0.74133 0.0
H920 H 0.84723 0.53332 0.75516 0.0
C921 C 0.93901 0.48395 0.74546 0.0
H922 H 0.8475 0.47042 0.74178 0.0
C923 C 0.93885 0.51951 0.75326 0.0
C924 C 0.90592 0.53792 0.75673 0.0
H925 H 0.96493 0.47069 0.74276 0.0
H926 H 0.96465 0.53271 0.75644 0.0
C927 C 0.87301 0.51984 0.75245 0.0
C928 C 0.13942 0.34826 0.10907 0.0
C929 C 0.11378 0.37289 0.10059 0.0
H930 H 0.16267 0.32405 0.13739 0.0
C931 C 0.09357 0.39443 0.11499 0.0
H932 H 0.15562 0.33132 0.09845 0.0
C933 C 0.09776 0.39033 0.13735 0.0
C934 C 0.12216 0.36447 0.14583 0.0
H935 H 0.07374 0.41377 0.10904 0.0
H936 H 0.08098 0.40669 0.14797 0.0
C937 C 0.14351 0.34405 0.13143 0.0
C938 C 0.86677 0.84875 0.38741 0.0
C939 C 0.89267 0.87315 0.39585 0.0
H940 H 0.84327 0.82463 0.35913 0.0
C941 C 0.9131 0.89441 0.38141 0.0
H942 H 0.8504 0.83203 0.39805 0.0
C943 C 0.90887 0.89023 0.35906 0.0
C944 C 0.8842 0.86458 0.35062 0.0
H945 H 0.93314 0.91357 0.38734 0.0
H946 H 0.92583 0.90635 0.34842 0.0
C947 C 0.86264 0.84446 0.36506 0.0
C948 C 0.40824 0.61629 0.63758 0.0
C949 C 0.38381 0.64222 0.64595 0.0
H950 H 0.43239 0.59261 0.60936 0.0
C951 C 0.36253 0.66252 0.63147 0.0
H952 H 0.42498 0.60002 0.64827 0.0
C953 C 0.36672 0.65813 0.60913 0.0
C954 C 0.39239 0.63343 0.60075 0.0
H955 H 0.34334 0.68258 0.63734 0.0
H956 H 0.35057 0.67499 0.59844 0.0
C957 C 0.41253 0.612 0.61524 0.0
C958 C 0.64418 0.16258 0.86499 0.0
C959 C 0.62263 0.14246 0.85055 0.0
H960 H 0.6564 0.17503 0.89799 0.0
C961 C 0.59796 0.11682 0.85899 0.0
H962 H 0.66357 0.1824 0.85907 0.0
C963 C 0.5937 0.11266 0.88133 0.0
C964 C 0.61413 0.13392 0.89577 0.0
H965 H 0.581 0.10069 0.84834 0.0
H966 H 0.57366 0.09351 0.88726 0.0
C967 C 0.64004 0.15831 0.88734 0.0
C968 C 0.14476 0.66308 0.36516 0.0
C969 C 0.12357 0.64262 0.3507 0.0
H970 H 0.15664 0.67578 0.39817 0.0
C971 C 0.0992 0.61667 0.35911 0.0
H972 H 0.16389 0.68316 0.35925 0.0
C973 C 0.0949 0.6125 0.38146 0.0
C974 C 0.11495 0.63408 0.39591 0.0
H975 H 0.08253 0.60028 0.34845 0.0
H976 H 0.0751 0.59308 0.38736 0.0
C977 C 0.14056 0.6588 0.3875 0.0
C978 C 0.59834 0.89004 0.63736 0.0
C979 C 0.62299 0.86442 0.64585 0.0
H980 H 0.57407 0.91322 0.60904 0.0
C981 C 0.64452 0.84419 0.63145 0.0
H982 H 0.5814 0.90625 0.64798 0.0
C983 C 0.64038 0.84834 0.60909 0.0
C984 C 0.6145 0.87271 0.60061 0.0
H985 H 0.66387 0.82438 0.63742 0.0
H986 H 0.65673 0.83154 0.59848 0.0
C987 C 0.59409 0.89408 0.615 0.0
C988 C 0.36194 0.34419 0.86526 0.0
C989 C 0.38316 0.36464 0.85081 0.0
H990 H 0.35003 0.33148 0.89826 0.0
C991 C 0.40751 0.3906 0.85924 0.0
H992 H 0.34282 0.32411 0.85934 0.0
C993 C 0.41179 0.39477 0.88159 0.0
C994 C 0.39172 0.37318 0.89603 0.0
H995 H 0.42419 0.407 0.84859 0.0
H996 H 0.43158 0.41419 0.88751 0.0
C997 C 0.36612 0.34846 0.88761 0.0
C998 C 0.90784 0.11652 0.13759 0.0
C999 C 0.8831 0.14216 0.14597 0.0
H1000 H 0.93227 0.09316 0.10937 0.0
C1001 C 0.8616 0.16223 0.13149 0.0
H1002 H 0.92475 0.10043 0.14827 0.0
C1003 C 0.86585 0.15791 0.10915 0.0
C1004 C 0.89181 0.13352 0.10077 0.0
H1005 H 0.84218 0.18205 0.13737 0.0
H1006 H 0.84951 0.1746 0.09847 0.0
C1007 C 0.91219 0.11231 0.11525 0.0
C1008 C 0.90723 0.61612 0.85946 0.0
C1009 C 0.88307 0.64221 0.851 0.0
H1010 H 0.93138 0.59269 0.88774 0.0
C1011 C 0.86227 0.66313 0.86542 0.0
H1012 H 0.9236 0.59937 0.84883 0.0
C1013 C 0.86667 0.65916 0.88778 0.0
C1014 C 0.89209 0.63428 0.89622 0.0
H1015 H 0.84331 0.68334 0.85948 0.0
H1016 H 0.85091 0.67649 0.89841 0.0
C1017 C 0.91174 0.61225 0.88181 0.0
C1018 C 0.14044 0.15845 0.609 0.0
C1019 C 0.11491 0.13373 0.6005 0.0
H1020 H 0.16369 0.18258 0.63735 0.0
C1021 C 0.09494 0.11192 0.61486 0.0
H1022 H 0.15644 0.1756 0.59841 0.0
C1023 C 0.09925 0.11585 0.63722 0.0
C1024 C 0.12352 0.1418 0.64574 0.0
H1025 H 0.07521 0.09248 0.60888 0.0
H1026 H 0.08264 0.09927 0.64782 0.0
C1027 C 0.14463 0.16249 0.63137 0.0
C1028 C 0.59462 0.39436 0.382 0.0
C1029 C 0.61482 0.37264 0.39631 0.0
H1030 H 0.58199 0.40697 0.34909 0.0
C1031 C 0.64043 0.34809 0.38772 0.0
H1032 H 0.57481 0.41365 0.38805 0.0
C1033 C 0.64449 0.3441 0.36534 0.0
C1034 C 0.62313 0.36469 0.35103 0.0
H1035 H 0.65662 0.33101 0.39826 0.0
H1036 H 0.66362 0.32414 0.35929 0.0
C1037 C 0.59878 0.39049 0.35963 0.0
C1038 C 0.41245 0.89497 0.1149 0.0
C1039 C 0.39257 0.87312 0.1005 0.0
H1040 H 0.42458 0.90765 0.14788 0.0
C1041 C 0.36702 0.84839 0.10897 0.0
H1042 H 0.43219 0.91441 0.10896 0.0
C1043 C 0.36271 0.84437 0.13132 0.0
C1044 C 0.38374 0.8651 0.14573 0.0
H1045 H 0.35108 0.83121 0.09834 0.0
H1046 H 0.34365 0.82427 0.13728 0.0
C1047 C 0.40803 0.89106 0.13726 0.0
C1048 C 0.9095 0.38968 0.63787 0.0
C1049 C 0.8846 0.36416 0.6462 0.0
H1050 H 0.93397 0.41313 0.60969 0.0
C1051 C 0.86286 0.34441 0.63168 0.0
H1052 H 0.9266 0.40552 0.64859 0.0
C1053 C 0.86702 0.34893 0.60935 0.0
C1054 C 0.89313 0.37319 0.60101 0.0
H1055 H 0.8433 0.3247 0.63752 0.0
H1056 H 0.85048 0.33248 0.59864 0.0
C1057 C 0.91376 0.39409 0.61554 0.0
C1058 C 0.40781 0.11683 0.35887 0.0
C1059 C 0.38326 0.14276 0.35063 0.0
H1060 H 0.43218 0.09298 0.38696 0.0
C1061 C 0.36198 0.16286 0.36522 0.0
H1062 H 0.42455 0.10071 0.3481 0.0
C1063 C 0.3663 0.15828 0.38754 0.0
C1064 C 0.3921 0.1336 0.39578 0.0
H1065 H 0.3427 0.1829 0.35945 0.0
H1066 H 0.35015 0.175 0.39831 0.0
C1067 C 0.41223 0.11236 0.38119 0.0
C1068 C 0.64463 0.66204 0.13185 0.0
C1069 C 0.62269 0.64238 0.1463 0.0
H1070 H 0.65732 0.67392 0.09885 0.0
C1071 C 0.59779 0.61693 0.1379 0.0
H1072 H 0.6642 0.6817 0.13776 0.0
C1073 C 0.5937 0.61252 0.11555 0.0
C1074 C 0.61452 0.63336 0.10109 0.0
H1075 H 0.58053 0.60115 0.14856 0.0
H1076 H 0.57347 0.59355 0.10964 0.0
C1077 C 0.64065 0.65753 0.10951 0.0
C1078 C 0.14448 0.84446 0.86491 0.0
C1079 C 0.12253 0.86415 0.85048 0.0
H1080 H 0.15726 0.83262 0.89791 0.0
C1081 C 0.09771 0.88966 0.8589 0.0
H1082 H 0.16399 0.82476 0.859 0.0
C1083 C 0.09371 0.89411 0.88125 0.0
C1084 C 0.11454 0.87327 0.89569 0.0
H1085 H 0.08045 0.90546 0.84825 0.0
H1086 H 0.07354 0.91314 0.88717 0.0
C1087 C 0.14058 0.84902 0.88726 0.0
loop_
_geom_bond_atom_site_label_1
_geom_bond_atom_site_label_2
_geom_bond_distance
_geom_bond_site_symmetry_2
_ccdc_geom_bond_type
O0 Cd1 2.223 . S
O0 C8 1.315 . S
Cd1 O0 2.223 . S
Cd1 O4 2.297 . S
Cd1 O5 2.439 . S
Cd1 O11 2.240 . S
Cd2 O3 2.240 . S
Cd2 O10 2.223 . S
Cd2 O12 2.297 . S
Cd2 O13 2.439 . S
O3 Cd2 2.240 . S
O3 C8 1.279 . S
O4 Cd1 2.297 . S
O4 C6 1.247 . S
O5 Cd1 2.439 . S
O5 C6 1.208 . S
C6 O4 1.247 . S
C6 O5 1.208 . S
C7 O12 1.247 . S
C7 O13 1.208 . S
C8 O0 1.315 . S
C8 O3 1.279 . S
C9 O10 1.315 . S
C9 O11 1.279 . S
O10 Cd2 2.223 . S
O10 C9 1.315 . S
O11 Cd1 2.240 . S
O11 C9 1.279 . S
O12 Cd2 2.297 . S
O12 C7 1.247 . S
O13 Cd2 2.439 . S
O13 C7 1.208 . S
O14 Cd15 2.223 . S
O14 C22 1.315 . S
Cd15 O14 2.223 . S
Cd15 O18 2.297 . S
Cd15 O19 2.439 . S
Cd15 O25 2.240 . S
Cd16 O17 2.240 . S
Cd16 O24 2.223 . S
Cd16 O26 2.297 . S
Cd16 O27 2.439 . S
O17 Cd16 2.240 . S
O17 C22 1.279 . S
O18 Cd15 2.297 . S
O18 C20 1.247 . S
O19 Cd15 2.439 . S
O19 C20 1.208 . S
C20 O18 1.247 . S
C20 O19 1.208 . S
C21 O26 1.247 . S
C21 O27 1.208 . S
C22 O14 1.315 . S
C22 O17 1.279 . S
C23 O24 1.315 . S
C23 O25 1.279 . S
O24 Cd16 2.223 . S
O24 C23 1.315 . S
O25 Cd15 2.240 . S
O25 C23 1.279 . S
O26 Cd16 2.297 . S
O26 C21 1.247 . S
O27 Cd16 2.439 . S
O27 C21 1.208 . S
O28 Cd29 2.223 . S
O28 C36 1.315 . S
Cd29 O28 2.223 . S
Cd29 O32 2.297 . S
Cd29 O33 2.439 . S
Cd29 O39 2.240 . S
Cd30 O31 2.240 . S
Cd30 O38 2.223 . S
Cd30 O40 2.297 . S
Cd30 O41 2.439 . S
O31 Cd30 2.240 . S
O31 C36 1.279 . S
O32 Cd29 2.297 . S
O32 C34 1.247 . S
O33 Cd29 2.439 . S
O33 C34 1.208 . S
C34 O32 1.247 . S
C34 O33 1.208 . S
C35 O40 1.247 . S
C35 O41 1.208 . S
C36 O28 1.315 . S
C36 O31 1.279 . S
C37 O38 1.315 . S
C37 O39 1.279 . S
O38 Cd30 2.223 . S
O38 C37 1.315 . S
O39 Cd29 2.240 . S
O39 C37 1.279 . S
O40 Cd30 2.297 . S
O40 C35 1.247 . S
O41 Cd30 2.439 . S
O41 C35 1.208 . S
O42 Cd43 2.223 . S
O42 C50 1.315 . S
Cd43 O42 2.223 . S
Cd43 O46 2.297 . S
Cd43 O47 2.439 . S
Cd43 O53 2.240 . S
Cd44 O45 2.240 . S
Cd44 O52 2.223 . S
Cd44 O54 2.297 . S
Cd44 O55 2.439 . S
O45 Cd44 2.240 . S
O45 C50 1.279 . S
O46 Cd43 2.297 . S
O46 C48 1.247 . S
O47 Cd43 2.439 . S
O47 C48 1.208 . S
C48 O46 1.247 . S
C48 O47 1.208 . S
C49 O54 1.247 . S
C49 O55 1.208 . S
C50 O42 1.315 . S
C50 O45 1.279 . S
C51 O52 1.315 . S
C51 O53 1.279 . S
O52 Cd44 2.223 . S
O52 C51 1.315 . S
O53 Cd43 2.240 . S
O53 C51 1.279 . S
O54 Cd44 2.297 . S
O54 C49 1.247 . S
O55 Cd44 2.439 . S
O55 C49 1.208 . S
O56 Cd57 2.223 . S
O56 C64 1.315 . S
Cd57 O56 2.223 . S
Cd57 O60 2.297 . S
Cd57 O61 2.439 . S
Cd57 O67 2.240 . S
Cd58 O59 2.240 . S
Cd58 O66 2.223 . S
Cd58 O68 2.297 . S
Cd58 O69 2.439 . S
O59 Cd58 2.240 . S
O59 C64 1.279 . S
O60 Cd57 2.297 . S
O60 C62 1.247 . S
O61 Cd57 2.439 . S
O61 C62 1.208 . S
C62 O60 1.247 . S
C62 O61 1.208 . S
C63 O68 1.247 . S
C63 O69 1.208 . S
C64 O56 1.315 . S
C64 O59 1.279 . S
C65 O66 1.315 . S
C65 O67 1.279 . S
O66 Cd58 2.223 . S
O66 C65 1.315 . S
O67 Cd57 2.240 . S
O67 C65 1.279 . S
O68 Cd58 2.297 . S
O68 C63 1.247 . S
O69 Cd58 2.439 . S
O69 C63 1.208 . S
O70 Cd71 2.223 . S
O70 C78 1.315 . S
Cd71 O70 2.223 . S
Cd71 O74 2.297 . S
Cd71 O75 2.439 . S
Cd71 O81 2.240 . S
Cd72 O73 2.240 . S
Cd72 O80 2.223 . S
Cd72 O82 2.297 . S
Cd72 O83 2.439 . S
O73 Cd72 2.240 . S
O73 C78 1.279 . S
O74 Cd71 2.297 . S
O74 C76 1.247 . S
O75 Cd71 2.439 . S
O75 C76 1.208 . S
C76 O74 1.247 . S
C76 O75 1.208 . S
C77 O82 1.247 . S
C77 O83 1.208 . S
C78 O70 1.315 . S
C78 O73 1.279 . S
C79 O80 1.315 . S
C79 O81 1.279 . S
O80 Cd72 2.223 . S
O80 C79 1.315 . S
O81 Cd71 2.240 . S
O81 C79 1.279 . S
O82 Cd72 2.297 . S
O82 C77 1.247 . S
O83 Cd72 2.439 . S
O83 C77 1.208 . S
O84 Cd85 2.223 . S
O84 C92 1.315 . S
Cd85 O84 2.223 . S
Cd85 O88 2.297 . S
Cd85 O89 2.439 . S
Cd85 O95 2.240 . S
Cd86 O87 2.240 . S
Cd86 O94 2.223 . S
Cd86 O96 2.297 . S
Cd86 O97 2.439 . S
O87 Cd86 2.240 . S
O87 C92 1.279 . S
O88 Cd85 2.297 . S
O88 C90 1.247 . S
O89 Cd85 2.439 . S
O89 C90 1.208 . S
C90 O88 1.247 . S
C90 O89 1.208 . S
C91 O96 1.247 . S
C91 O97 1.208 . S
C92 O84 1.315 . S
C92 O87 1.279 . S
C93 O94 1.315 . S
C93 O95 1.279 . S
O94 Cd86 2.223 . S
O94 C93 1.315 . S
O95 Cd85 2.240 . S
O95 C93 1.279 . S
O96 Cd86 2.297 . S
O96 C91 1.247 . S
O97 Cd86 2.439 . S
O97 C91 1.208 . S
O98 Cd99 2.223 . S
O98 C106 1.315 . S
Cd99 O98 2.223 . S
Cd99 O102 2.297 . S
Cd99 O103 2.439 . S
Cd99 O109 2.240 . S
Cd100 O101 2.240 . S
Cd100 O108 2.223 . S
Cd100 O110 2.297 . S
Cd100 O111 2.439 . S
O101 Cd100 2.240 . S
O101 C106 1.279 . S
O102 Cd99 2.297 . S
O102 C104 1.247 . S
O103 Cd99 2.439 . S
O103 C104 1.208 . S
C104 O102 1.247 . S
C104 O103 1.208 . S
C105 O110 1.247 . S
C105 O111 1.208 . S
C106 O98 1.315 . S
C106 O101 1.279 . S
C107 O108 1.315 . S
C107 O109 1.279 . S
O108 Cd100 2.223 . S
O108 C107 1.315 . S
O109 Cd99 2.240 . S
O109 C107 1.279 . S
O110 Cd100 2.297 . S
O110 C105 1.247 . S
O111 Cd100 2.439 . S
O111 C105 1.208 . S
O112 Cd113 2.223 . S
O112 C120 1.315 . S
Cd113 O112 2.223 . S
Cd113 O116 2.297 . S
Cd113 O117 2.439 . S
Cd113 O123 2.240 . S
Cd114 O115 2.240 . S
Cd114 O122 2.223 . S
Cd114 O124 2.297 . S
Cd114 O125 2.439 . S
O115 Cd114 2.240 . S
O115 C120 1.279 . S
O116 Cd113 2.297 . S
O116 C118 1.247 . S
O117 Cd113 2.439 . S
O117 C118 1.208 . S
C118 O116 1.247 . S
C118 O117 1.208 . S
C119 O124 1.247 . S
C119 O125 1.208 . S
C120 O112 1.315 . S
C120 O115 1.279 . S
C121 O122 1.315 . S
C121 O123 1.279 . S
O122 Cd114 2.223 . S
O122 C121 1.315 . S
O123 Cd113 2.240 . S
O123 C121 1.279 . S
O124 Cd114 2.297 . S
O124 C119 1.247 . S
O125 Cd114 2.439 . S
O125 C119 1.208 . S
O126 Cd127 2.223 . S
O126 C134 1.315 . S
Cd127 O126 2.223 . S
Cd127 O130 2.297 . S
Cd127 O131 2.439 . S
Cd127 O137 2.240 . S
Cd128 O129 2.240 . S
Cd128 O136 2.223 . S
Cd128 O138 2.297 . S
Cd128 O139 2.439 . S
O129 Cd128 2.240 . S
O129 C134 1.279 . S
O130 Cd127 2.297 . S
O130 C132 1.247 . S
O131 Cd127 2.439 . S
O131 C132 1.208 . S
C132 O130 1.247 . S
C132 O131 1.208 . S
C133 O138 1.247 . S
C133 O139 1.208 . S
C134 O126 1.315 . S
C134 O129 1.279 . S
C135 O136 1.315 . S
C135 O137 1.279 . S
O136 Cd128 2.223 . S
O136 C135 1.315 . S
O137 Cd127 2.240 . S
O137 C135 1.279 . S
O138 Cd128 2.297 . S
O138 C133 1.247 . S
O139 Cd128 2.439 . S
O139 C133 1.208 . S
O140 Cd141 2.223 . S
O140 C148 1.315 . S
Cd141 O140 2.223 . S
Cd141 O144 2.297 . S
Cd141 O145 2.439 . S
Cd141 O151 2.240 . S
Cd142 O143 2.240 . S
Cd142 O150 2.223 . S
Cd142 O152 2.297 . S
Cd142 O153 2.439 . S
O143 Cd142 2.240 . S
O143 C148 1.279 . S
O144 Cd141 2.297 . S
O144 C146 1.247 . S
O145 Cd141 2.439 . S
O145 C146 1.208 . S
C146 O144 1.247 . S
C146 O145 1.208 . S
C147 O152 1.247 . S
C147 O153 1.208 . S
C148 O140 1.315 . S
C148 O143 1.279 . S
C149 O150 1.315 . S
C149 O151 1.279 . S
O150 Cd142 2.223 . S
O150 C149 1.315 . S
O151 Cd141 2.240 . S
O151 C149 1.279 . S
O152 Cd142 2.297 . S
O152 C147 1.247 . S
O153 Cd142 2.439 . S
O153 C147 1.208 . S
O154 Cd155 2.223 . S
O154 C162 1.315 . S
Cd155 O154 2.223 . S
Cd155 O158 2.297 . S
Cd155 O159 2.439 . S
Cd155 O165 2.240 . S
Cd156 O157 2.240 . S
Cd156 O164 2.223 . S
Cd156 O166 2.297 . S
Cd156 O167 2.439 . S
O157 Cd156 2.240 . S
O157 C162 1.279 . S
O158 Cd155 2.297 . S
O158 C160 1.247 . S
O159 Cd155 2.439 . S
O159 C160 1.208 . S
C160 O158 1.247 . S
C160 O159 1.208 . S
C161 O166 1.247 . S
C161 O167 1.208 . S
C162 O154 1.315 . S
C162 O157 1.279 . S
C163 O164 1.315 . S
C163 O165 1.279 . S
O164 Cd156 2.223 . S
O164 C163 1.315 . S
O165 Cd155 2.240 . S
O165 C163 1.279 . S
O166 Cd156 2.297 . S
O166 C161 1.247 . S
O167 Cd156 2.439 . S
O167 C161 1.208 . S
O168 Cd169 2.223 . S
O168 C176 1.315 . S
Cd169 O168 2.223 . S
Cd169 O172 2.297 . S
Cd169 O173 2.439 . S
Cd169 O179 2.240 . S
Cd170 O171 2.240 . S
Cd170 O178 2.223 . S
Cd170 O180 2.297 . S
Cd170 O181 2.439 . S
O171 Cd170 2.240 . S
O171 C176 1.279 . S
O172 Cd169 2.297 . S
O172 C174 1.247 . S
O173 Cd169 2.439 . S
O173 C174 1.208 . S
C174 O172 1.247 . S
C174 O173 1.208 . S
C175 O180 1.247 . S
C175 O181 1.208 . S
C176 O168 1.315 . S
C176 O171 1.279 . S
C177 O178 1.315 . S
C177 O179 1.279 . S
O178 Cd170 2.223 . S
O178 C177 1.315 . S
O179 Cd169 2.240 . S
O179 C177 1.279 . S
O180 Cd170 2.297 . S
O180 C175 1.247 . S
O181 Cd170 2.439 . S
O181 C175 1.208 . S
O182 Cd183 2.223 . S
O182 C190 1.315 . S
Cd183 O182 2.223 . S
Cd183 O186 2.297 . S
Cd183 O187 2.439 . S
Cd183 O193 2.240 . S
Cd184 O185 2.240 . S
Cd184 O192 2.223 . S
Cd184 O194 2.297 . S
Cd184 O195 2.439 . S
O185 Cd184 2.240 . S
O185 C190 1.279 . S
O186 Cd183 2.297 . S
O186 C188 1.247 . S
O187 Cd183 2.439 . S
O187 C188 1.208 . S
C188 O186 1.247 . S
C188 O187 1.208 . S
C189 O194 1.247 . S
C189 O195 1.208 . S
C190 O182 1.315 . S
C190 O185 1.279 . S
C191 O192 1.315 . S
C191 O193 1.279 . S
O192 Cd184 2.223 . S
O192 C191 1.315 . S
O193 Cd183 2.240 . S
O193 C191 1.279 . S
O194 Cd184 2.297 . S
O194 C189 1.247 . S
O195 Cd184 2.439 . S
O195 C189 1.208 . S
O196 Cd197 2.223 . S
O196 C204 1.315 . S
Cd197 O196 2.223 . S
Cd197 O200 2.297 . S
Cd197 O201 2.439 . S
Cd197 O207 2.240 . S
Cd198 O199 2.240 . S
Cd198 O206 2.223 . S
Cd198 O208 2.297 . S
Cd198 O209 2.439 . S
O199 Cd198 2.240 . S
O199 C204 1.279 . S
O200 Cd197 2.297 . S
O200 C202 1.247 . S
O201 Cd197 2.439 . S
O201 C202 1.208 . S
C202 O200 1.247 . S
C202 O201 1.208 . S
C203 O208 1.247 . S
C203 O209 1.208 . S
C204 O196 1.315 . S
C204 O199 1.279 . S
C205 O206 1.315 . S
C205 O207 1.279 . S
O206 Cd198 2.223 . S
O206 C205 1.315 . S
O207 Cd197 2.240 . S
O207 C205 1.279 . S
O208 Cd198 2.297 . S
O208 C203 1.247 . S
O209 Cd198 2.439 . S
O209 C203 1.208 . S
O210 Cd211 2.223 . S
O210 C218 1.315 . S
Cd211 O210 2.223 . S
Cd211 O214 2.297 . S
Cd211 O215 2.439 . S
Cd211 O221 2.240 . S
Cd212 O213 2.240 . S
Cd212 O220 2.223 . S
Cd212 O222 2.297 . S
Cd212 O223 2.439 . S
O213 Cd212 2.240 . S
O213 C218 1.279 . S
O214 Cd211 2.297 . S
O214 C216 1.247 . S
O215 Cd211 2.439 . S
O215 C216 1.208 . S
C216 O214 1.247 . S
C216 O215 1.208 . S
C217 O222 1.247 . S
C217 O223 1.208 . S
C218 O210 1.315 . S
C218 O213 1.279 . S
C219 O220 1.315 . S
C219 O221 1.279 . S
O220 Cd212 2.223 . S
O220 C219 1.315 . S
O221 Cd211 2.240 . S
O221 C219 1.279 . S
O222 Cd212 2.297 . S
O222 C217 1.247 . S
O223 Cd212 2.439 . S
O223 C217 1.208 . S
O224 Cd225 2.223 . S
O224 C232 1.315 . S
Cd225 O224 2.223 . S
Cd225 O228 2.297 . S
Cd225 O229 2.439 . S
Cd225 O235 2.240 . S
Cd226 O227 2.240 . S
Cd226 O234 2.223 . S
Cd226 O236 2.297 . S
Cd226 O237 2.439 . S
O227 Cd226 2.240 . S
O227 C232 1.279 . S
O228 Cd225 2.297 . S
O228 C230 1.247 . S
O229 Cd225 2.439 . S
O229 C230 1.208 . S
C230 O228 1.247 . S
C230 O229 1.208 . S
C231 O236 1.247 . S
C231 O237 1.208 . S
C232 O224 1.315 . S
C232 O227 1.279 . S
C233 O234 1.315 . S
C233 O235 1.279 . S
O234 Cd226 2.223 . S
O234 C233 1.315 . S
O235 Cd225 2.240 . S
O235 C233 1.279 . S
O236 Cd226 2.297 . S
O236 C231 1.247 . S
O237 Cd226 2.439 . S
O237 C231 1.208 . S
O238 Cd239 2.223 . S
O238 C246 1.315 . S
Cd239 O238 2.223 . S
Cd239 O242 2.297 . S
Cd239 O243 2.439 . S
Cd239 O249 2.240 . S
Cd240 O241 2.240 . S
Cd240 O248 2.223 . S
Cd240 O250 2.297 . S
Cd240 O251 2.439 . S
O241 Cd240 2.240 . S
O241 C246 1.279 . S
O242 Cd239 2.297 . S
O242 C244 1.247 . S
O243 Cd239 2.439 . S
O243 C244 1.208 . S
C244 O242 1.247 . S
C244 O243 1.208 . S
C245 O250 1.247 . S
C245 O251 1.208 . S
C246 O238 1.315 . S
C246 O241 1.279 . S
C247 O248 1.315 . S
C247 O249 1.279 . S
O248 Cd240 2.223 . S
O248 C247 1.315 . S
O249 Cd239 2.240 . S
O249 C247 1.279 . S
O250 Cd240 2.297 . S
O250 C245 1.247 . S
O251 Cd240 2.439 . S
O251 C245 1.208 . S
O252 Cd253 2.223 . S
O252 C260 1.315 . S
Cd253 O252 2.223 . S
Cd253 O256 2.297 . S
Cd253 O257 2.439 . S
Cd253 O263 2.240 . S
Cd254 O255 2.240 . S
Cd254 O262 2.223 . S
Cd254 O264 2.297 . S
Cd254 O265 2.439 . S
O255 Cd254 2.240 . S
O255 C260 1.279 . S
O256 Cd253 2.297 . S
O256 C258 1.247 . S
O257 Cd253 2.439 . S
O257 C258 1.208 . S
C258 O256 1.247 . S
C258 O257 1.208 . S
C259 O264 1.247 . S
C259 O265 1.208 . S
C260 O252 1.315 . S
C260 O255 1.279 . S
C261 O262 1.315 . S
C261 O263 1.279 . S
O262 Cd254 2.223 . S
O262 C261 1.315 . S
O263 Cd253 2.240 . S
O263 C261 1.279 . S
O264 Cd254 2.297 . S
O264 C259 1.247 . S
O265 Cd254 2.439 . S
O265 C259 1.208 . S
O266 Cd267 2.223 . S
O266 C274 1.315 . S
Cd267 O266 2.223 . S
Cd267 O270 2.297 . S
Cd267 O271 2.439 . S
Cd267 O277 2.240 . S
Cd268 O269 2.240 . S
Cd268 O276 2.223 . S
Cd268 O278 2.297 . S
Cd268 O279 2.439 . S
O269 Cd268 2.240 . S
O269 C274 1.279 . S
O270 Cd267 2.297 . S
O270 C272 1.247 . S
O271 Cd267 2.439 . S
O271 C272 1.208 . S
C272 O270 1.247 . S
C272 O271 1.208 . S
C273 O278 1.247 . S
C273 O279 1.208 . S
C274 O266 1.315 . S
C274 O269 1.279 . S
C275 O276 1.315 . S
C275 O277 1.279 . S
O276 Cd268 2.223 . S
O276 C275 1.315 . S
O277 Cd267 2.240 . S
O277 C275 1.279 . S
O278 Cd268 2.297 . S
O278 C273 1.247 . S
O279 Cd268 2.439 . S
O279 C273 1.208 . S
O280 Cd281 2.223 . S
O280 C288 1.315 . S
Cd281 O280 2.223 . S
Cd281 O284 2.297 . S
Cd281 O285 2.439 . S
Cd281 O291 2.240 . S
Cd282 O283 2.240 . S
Cd282 O290 2.223 . S
Cd282 O292 2.297 . S
Cd282 O293 2.439 . S
O283 Cd282 2.240 . S
O283 C288 1.279 . S
O284 Cd281 2.297 . S
O284 C286 1.247 . S
O285 Cd281 2.439 . S
O285 C286 1.208 . S
C286 O284 1.247 . S
C286 O285 1.208 . S
C287 O292 1.247 . S
C287 O293 1.208 . S
C288 O280 1.315 . S
C288 O283 1.279 . S
C289 O290 1.315 . S
C289 O291 1.279 . S
O290 Cd282 2.223 . S
O290 C289 1.315 . S
O291 Cd281 2.240 . S
O291 C289 1.279 . S
O292 Cd282 2.297 . S
O292 C287 1.247 . S
O293 Cd282 2.439 . S
O293 C287 1.208 . S
O294 Cd295 2.223 . S
O294 C302 1.315 . S
Cd295 O294 2.223 . S
Cd295 O298 2.297 . S
Cd295 O299 2.439 . S
Cd295 O305 2.240 . S
Cd296 O297 2.240 . S
Cd296 O304 2.223 . S
Cd296 O306 2.297 . S
Cd296 O307 2.439 . S
O297 Cd296 2.240 . S
O297 C302 1.279 . S
O298 Cd295 2.297 . S
O298 C300 1.247 . S
O299 Cd295 2.439 . S
O299 C300 1.208 . S
C300 O298 1.247 . S
C300 O299 1.208 . S
C301 O306 1.247 . S
C301 O307 1.208 . S
C302 O294 1.315 . S
C302 O297 1.279 . S
C303 O304 1.315 . S
C303 O305 1.279 . S
O304 Cd296 2.223 . S
O304 C303 1.315 . S
O305 Cd295 2.240 . S
O305 C303 1.279 . S
O306 Cd296 2.297 . S
O306 C301 1.247 . S
O307 Cd296 2.439 . S
O307 C301 1.208 . S
O308 Cd309 2.223 . S
O308 C316 1.315 . S
Cd309 O308 2.223 . S
Cd309 O312 2.297 . S
Cd309 O313 2.439 . S
Cd309 O319 2.240 . S
Cd310 O311 2.240 . S
Cd310 O318 2.223 . S
Cd310 O320 2.297 . S
Cd310 O321 2.439 . S
O311 Cd310 2.240 . S
O311 C316 1.279 . S
O312 Cd309 2.297 . S
O312 C314 1.247 . S
O313 Cd309 2.439 . S
O313 C314 1.208 . S
C314 O312 1.247 . S
C314 O313 1.208 . S
C315 O320 1.247 . S
C315 O321 1.208 . S
C316 O308 1.315 . S
C316 O311 1.279 . S
C317 O318 1.315 . S
C317 O319 1.279 . S
O318 Cd310 2.223 . S
O318 C317 1.315 . S
O319 Cd309 2.240 . S
O319 C317 1.279 . S
O320 Cd310 2.297 . S
O320 C315 1.247 . S
O321 Cd310 2.439 . S
O321 C315 1.208 . S
O322 Cd323 2.223 . S
O322 C330 1.315 . S
Cd323 O322 2.223 . S
Cd323 O326 2.297 . S
Cd323 O327 2.439 . S
Cd323 O333 2.240 . S
Cd324 O325 2.240 . S
Cd324 O332 2.223 . S
Cd324 O334 2.297 . S
Cd324 O335 2.439 . S
O325 Cd324 2.240 . S
O325 C330 1.279 . S
O326 Cd323 2.297 . S
O326 C328 1.247 . S
O327 Cd323 2.439 . S
O327 C328 1.208 . S
C328 O326 1.247 . S
C328 O327 1.208 . S
C329 O334 1.247 . S
C329 O335 1.208 . S
C330 O322 1.315 . S
C330 O325 1.279 . S
C331 O332 1.315 . S
C331 O333 1.279 . S
O332 Cd324 2.223 . S
O332 C331 1.315 . S
O333 Cd323 2.240 . S
O333 C331 1.279 . S
O334 Cd324 2.297 . S
O334 C329 1.247 . S
O335 Cd324 2.439 . S
O335 C329 1.208 . S
O336 Cd337 2.223 . S
O336 C344 1.315 . S
Cd337 O336 2.223 . S
Cd337 O340 2.297 . S
Cd337 O341 2.439 . S
Cd337 O347 2.240 . S
Cd338 O339 2.240 . S
Cd338 O346 2.223 . S
Cd338 O348 2.297 . S
Cd338 O349 2.439 . S
O339 Cd338 2.240 . S
O339 C344 1.279 . S
O340 Cd337 2.297 . S
O340 C342 1.247 . S
O341 Cd337 2.439 . S
O341 C342 1.208 . S
C342 O340 1.247 . S
C342 O341 1.208 . S
C343 O348 1.247 . S
C343 O349 1.208 . S
C344 O336 1.315 . S
C344 O339 1.279 . S
C345 O346 1.315 . S
C345 O347 1.279 . S
O346 Cd338 2.223 . S
O346 C345 1.315 . S
O347 Cd337 2.240 . S
O347 C345 1.279 . S
O348 Cd338 2.297 . S
O348 C343 1.247 . S
O349 Cd338 2.439 . S
O349 C343 1.208 . S
O350 Cd351 2.223 . S
O350 C358 1.315 . S
Cd351 O350 2.223 . S
Cd351 O354 2.297 . S
Cd351 O355 2.439 . S
Cd351 O361 2.240 . S
Cd352 O353 2.240 . S
Cd352 O360 2.223 . S
Cd352 O362 2.297 . S
Cd352 O363 2.439 . S
O353 Cd352 2.240 . S
O353 C358 1.279 . S
O354 Cd351 2.297 . S
O354 C356 1.247 . S
O355 Cd351 2.439 . S
O355 C356 1.208 . S
C356 O354 1.247 . S
C356 O355 1.208 . S
C357 O362 1.247 . S
C357 O363 1.208 . S
C358 O350 1.315 . S
C358 O353 1.279 . S
C359 O360 1.315 . S
C359 O361 1.279 . S
O360 Cd352 2.223 . S
O360 C359 1.315 . S
O361 Cd351 2.240 . S
O361 C359 1.279 . S
O362 Cd352 2.297 . S
O362 C357 1.247 . S
O363 Cd352 2.439 . S
O363 C357 1.208 . S
O364 Cd365 2.223 . S
O364 C372 1.315 . S
Cd365 O364 2.223 . S
Cd365 O368 2.297 . S
Cd365 O369 2.439 . S
Cd365 O375 2.240 . S
Cd366 O367 2.240 . S
Cd366 O374 2.223 . S
Cd366 O376 2.297 . S
Cd366 O377 2.439 . S
O367 Cd366 2.240 . S
O367 C372 1.279 . S
O368 Cd365 2.297 . S
O368 C370 1.247 . S
O369 Cd365 2.439 . S
O369 C370 1.208 . S
C370 O368 1.247 . S
C370 O369 1.208 . S
C371 O376 1.247 . S
C371 O377 1.208 . S
C372 O364 1.315 . S
C372 O367 1.279 . S
C373 O374 1.315 . S
C373 O375 1.279 . S
O374 Cd366 2.223 . S
O374 C373 1.315 . S
O375 Cd365 2.240 . S
O375 C373 1.279 . S
O376 Cd366 2.297 . S
O376 C371 1.247 . S
O377 Cd366 2.439 . S
O377 C371 1.208 . S
O378 Cd379 2.223 . S
O378 C386 1.315 . S
Cd379 O378 2.223 . S
Cd379 O382 2.297 . S
Cd379 O383 2.439 . S
Cd379 O389 2.240 . S
Cd380 O381 2.240 . S
Cd380 O388 2.223 . S
Cd380 O390 2.297 . S
Cd380 O391 2.439 . S
O381 Cd380 2.240 . S
O381 C386 1.279 . S
O382 Cd379 2.297 . S
O382 C384 1.247 . S
O383 Cd379 2.439 . S
O383 C384 1.208 . S
C384 O382 1.247 . S
C384 O383 1.208 . S
C385 O390 1.247 . S
C385 O391 1.208 . S
C386 O378 1.315 . S
C386 O381 1.279 . S
C387 O388 1.315 . S
C387 O389 1.279 . S
O388 Cd380 2.223 . S
O388 C387 1.315 . S
O389 Cd379 2.240 . S
O389 C387 1.279 . S
O390 Cd380 2.297 . S
O390 C385 1.247 . S
O391 Cd380 2.439 . S
O391 C385 1.208 . S
O392 Cd393 2.223 . S
O392 C400 1.315 . S
Cd393 O392 2.223 . S
Cd393 O396 2.297 . S
Cd393 O397 2.439 . S
Cd393 O403 2.240 . S
Cd394 O395 2.240 . S
Cd394 O402 2.223 . S
Cd394 O404 2.297 . S
Cd394 O405 2.439 . S
O395 Cd394 2.240 . S
O395 C400 1.279 . S
O396 Cd393 2.297 . S
O396 C398 1.247 . S
O397 Cd393 2.439 . S
O397 C398 1.208 . S
C398 O396 1.247 . S
C398 O397 1.208 . S
C399 O404 1.247 . S
C399 O405 1.208 . S
C400 O392 1.315 . S
C400 O395 1.279 . S
C401 O402 1.315 . S
C401 O403 1.279 . S
O402 Cd394 2.223 . S
O402 C401 1.315 . S
O403 Cd393 2.240 . S
O403 C401 1.279 . S
O404 Cd394 2.297 . S
O404 C399 1.247 . S
O405 Cd394 2.439 . S
O405 C399 1.208 . S
O406 Cd407 2.223 . S
O406 C414 1.315 . S
Cd407 O406 2.223 . S
Cd407 O410 2.297 . S
Cd407 O411 2.439 . S
Cd407 O417 2.240 . S
Cd408 O409 2.240 . S
Cd408 O416 2.223 . S
Cd408 O418 2.297 . S
Cd408 O419 2.439 . S
O409 Cd408 2.240 . S
O409 C414 1.279 . S
O410 Cd407 2.297 . S
O410 C412 1.247 . S
O411 Cd407 2.439 . S
O411 C412 1.208 . S
C412 O410 1.247 . S
C412 O411 1.208 . S
C413 O418 1.247 . S
C413 O419 1.208 . S
C414 O406 1.315 . S
C414 O409 1.279 . S
C415 O416 1.315 . S
C415 O417 1.279 . S
O416 Cd408 2.223 . S
O416 C415 1.315 . S
O417 Cd407 2.240 . S
O417 C415 1.279 . S
O418 Cd408 2.297 . S
O418 C413 1.247 . S
O419 Cd408 2.439 . S
O419 C413 1.208 . S
O420 Cd421 2.223 . S
O420 C428 1.315 . S
Cd421 O420 2.223 . S
Cd421 O424 2.297 . S
Cd421 O425 2.439 . S
Cd421 O431 2.240 . S
Cd422 O423 2.240 . S
Cd422 O430 2.223 . S
Cd422 O432 2.297 . S
Cd422 O433 2.439 . S
O423 Cd422 2.240 . S
O423 C428 1.279 . S
O424 Cd421 2.297 . S
O424 C426 1.247 . S
O425 Cd421 2.439 . S
O425 C426 1.208 . S
C426 O424 1.247 . S
C426 O425 1.208 . S
C427 O432 1.247 . S
C427 O433 1.208 . S
C428 O420 1.315 . S
C428 O423 1.279 . S
C429 O430 1.315 . S
C429 O431 1.279 . S
O430 Cd422 2.223 . S
O430 C429 1.315 . S
O431 Cd421 2.240 . S
O431 C429 1.279 . S
O432 Cd422 2.297 . S
O432 C427 1.247 . S
O433 Cd422 2.439 . S
O433 C427 1.208 . S
O434 Cd435 2.223 . S
O434 C442 1.315 . S
Cd435 O434 2.223 . S
Cd435 O438 2.297 . S
Cd435 O439 2.439 . S
Cd435 O445 2.240 . S
Cd436 O437 2.240 . S
Cd436 O444 2.223 . S
Cd436 O446 2.297 . S
Cd436 O447 2.439 . S
O437 Cd436 2.240 . S
O437 C442 1.279 . S
O438 Cd435 2.297 . S
O438 C440 1.247 . S
O439 Cd435 2.439 . S
O439 C440 1.208 . S
C440 O438 1.247 . S
C440 O439 1.208 . S
C441 O446 1.247 . S
C441 O447 1.208 . S
C442 O434 1.315 . S
C442 O437 1.279 . S
C443 O444 1.315 . S
C443 O445 1.279 . S
O444 Cd436 2.223 . S
O444 C443 1.315 . S
O445 Cd435 2.240 . S
O445 C443 1.279 . S
O446 Cd436 2.297 . S
O446 C441 1.247 . S
O447 Cd436 2.439 . S
O447 C441 1.208 . S
C448 C449 1.387 1_554 S
C448 H452 0.950 . S
C448 C457 1.390 1_655 S
C449 C448 1.387 1_556 S
C449 C451 1.387 . S
H450 C457 0.950 . S
C451 C449 1.387 . S
C451 C453 1.390 1_655 S
C451 H455 0.950 . S
H452 C448 0.950 . S
C453 C451 1.390 1_455 S
C453 C454 1.387 1_556 S
C453 H456 0.950 . S
C454 C453 1.387 1_554 S
C454 C457 1.387 . S
H455 C451 0.950 . S
H456 C453 0.950 . S
C457 C448 1.390 1_455 S
C457 H450 0.950 . S
C457 C454 1.387 . S
C458 C459 1.387 . S
C458 H462 0.950 . S
C458 C467 1.390 . S
C459 C458 1.387 . S
C459 C461 1.387 . S
H460 C467 0.950 . S
C461 C459 1.387 . S
C461 C463 1.390 . S
C461 H465 0.950 . S
H462 C458 0.950 . S
C463 C461 1.390 . S
C463 C464 1.387 . S
C463 H466 0.950 . S
C464 C463 1.387 . S
C464 C467 1.387 . S
H465 C461 0.950 . S
H466 C463 0.950 . S
C467 C458 1.390 . S
C467 H460 0.950 . S
C467 C464 1.387 . S
C468 C469 1.387 . S
C468 H472 0.950 . S
C468 C477 1.390 . S
C469 C468 1.387 . S
C469 C471 1.387 . S
H470 C477 0.950 . S
C471 C469 1.387 . S
C471 C473 1.390 . S
C471 H475 0.950 . S
H472 C468 0.950 . S
C473 C471 1.390 . S
C473 C474 1.387 . S
C473 H476 0.950 . S
C474 C473 1.387 . S
C474 C477 1.387 . S
H475 C471 0.950 . S
H476 C473 0.950 . S
C477 C468 1.390 . S
C477 H470 0.950 . S
C477 C474 1.387 . S
C478 C479 1.387 . S
C478 H482 0.950 . S
C478 C487 1.390 . S
C479 C478 1.387 . S
C479 C481 1.387 . S
H480 C487 0.950 . S
C481 C479 1.387 . S
C481 C483 1.390 . S
C481 H485 0.950 . S
H482 C478 0.950 . S
C483 C481 1.390 . S
C483 C484 1.387 . S
C483 H486 0.950 . S
C484 C483 1.387 . S
C484 C487 1.387 . S
H485 C481 0.950 . S
H486 C483 0.950 . S
C487 C478 1.390 . S
C487 H480 0.950 . S
C487 C484 1.387 . S
C488 C489 1.387 . S
C488 H492 0.950 . S
C488 C497 1.390 1_655 S
C489 C488 1.387 . S
C489 C491 1.387 . S
H490 C497 0.950 . S
C491 C489 1.387 . S
C491 C493 1.390 1_655 S
C491 H495 0.950 . S
H492 C488 0.950 . S
C493 C491 1.390 1_455 S
C493 C494 1.387 . S
C493 H496 0.950 . S
C494 C493 1.387 . S
C494 C497 1.387 . S
H495 C491 0.950 . S
H496 C493 0.950 . S
C497 C488 1.390 1_455 S
C497 H490 0.950 . S
C497 C494 1.387 . S
C498 C499 1.387 . S
C498 H502 0.950 . S
C498 C507 1.390 . S
C499 C498 1.387 . S
C499 C501 1.387 . S
H500 C507 0.950 . S
C501 C499 1.387 . S
C501 C503 1.390 . S
C501 H505 0.950 . S
H502 C498 0.950 . S
C503 C501 1.390 . S
C503 C504 1.387 . S
C503 H506 0.950 . S
C504 C503 1.387 . S
C504 C507 1.387 . S
H505 C501 0.950 . S
H506 C503 0.950 . S
C507 C498 1.390 . S
C507 H500 0.950 . S
C507 C504 1.387 . S
C508 C509 1.387 1_554 S
C508 H512 0.950 . S
C508 C517 1.390 . S
C509 C508 1.387 1_556 S
C509 C511 1.387 . S
H510 C517 0.950 . S
C511 C509 1.387 . S
C511 C513 1.390 . S
C511 H515 0.950 . S
H512 C508 0.950 . S
C513 C511 1.390 . S
C513 C514 1.387 1_556 S
C513 H516 0.950 . S
C514 C513 1.387 1_554 S
C514 C517 1.387 . S
H515 C511 0.950 . S
H516 C513 0.950 . S
C517 C508 1.390 . S
C517 H510 0.950 . S
C517 C514 1.387 . S
C518 C519 1.387 . S
C518 H522 0.950 . S
C518 C527 1.390 . S
C519 C518 1.387 . S
C519 C521 1.387 . S
H520 C527 0.950 . S
C521 C519 1.387 . S
C521 C523 1.390 . S
C521 H525 0.950 . S
H522 C518 0.950 . S
C523 C521 1.390 . S
C523 C524 1.387 . S
C523 H526 0.950 . S
C524 C523 1.387 . S
C524 C527 1.387 . S
H525 C521 0.950 . S
H526 C523 0.950 . S
C527 C518 1.390 . S
C527 H520 0.950 . S
C527 C524 1.387 . S
C528 C529 1.387 . S
C528 H532 0.950 . S
C528 C537 1.390 . S
C529 C528 1.387 . S
C529 C531 1.387 . S
H530 C537 0.950 . S
C531 C529 1.387 . S
C531 C533 1.390 . S
C531 H535 0.950 . S
H532 C528 0.950 . S
C533 C531 1.390 . S
C533 C534 1.387 . S
C533 H536 0.950 . S
C534 C533 1.387 . S
C534 C537 1.387 . S
H535 C531 0.950 . S
H536 C533 0.950 . S
C537 C528 1.390 . S
C537 H530 0.950 . S
C537 C534 1.387 . S
C538 C539 1.387 . S
C538 H542 0.950 . S
C538 C547 1.390 . S
C539 C538 1.387 . S
C539 C541 1.387 . S
H540 C547 0.950 . S
C541 C539 1.387 . S
C541 C543 1.390 . S
C541 H545 0.950 . S
H542 C538 0.950 . S
C543 C541 1.390 . S
C543 C544 1.387 . S
C543 H546 0.950 . S
C544 C543 1.387 . S
C544 C547 1.387 . S
H545 C541 0.950 . S
H546 C543 0.950 . S
C547 C538 1.390 . S
C547 H540 0.950 . S
C547 C544 1.387 . S
C548 C549 1.387 . S
C548 H552 0.950 . S
C548 C557 1.390 . S
C549 C548 1.387 . S
C549 C551 1.387 . S
H550 C557 0.950 . S
C551 C549 1.387 . S
C551 C553 1.390 . S
C551 H555 0.950 . S
H552 C548 0.950 . S
C553 C551 1.390 . S
C553 C554 1.387 . S
C553 H556 0.950 . S
C554 C553 1.387 . S
C554 C557 1.387 . S
H555 C551 0.950 . S
H556 C553 0.950 . S
C557 C548 1.390 . S
C557 H550 0.950 . S
C557 C554 1.387 . S
C558 C559 1.387 . S
C558 H562 0.950 . S
C558 C567 1.390 . S
C559 C558 1.387 . S
C559 C561 1.387 . S
H560 C567 0.950 . S
C561 C559 1.387 . S
C561 C563 1.390 . S
C561 H565 0.950 . S
H562 C558 0.950 . S
C563 C561 1.390 . S
C563 C564 1.387 . S
C563 H566 0.950 . S
C564 C563 1.387 . S
C564 C567 1.387 . S
H565 C561 0.950 . S
H566 C563 0.950 . S
C567 C558 1.390 . S
C567 H560 0.950 . S
C567 C564 1.387 . S
C568 C569 1.387 . S
C568 H572 0.950 . S
C568 C577 1.390 1_565 S
C569 C568 1.387 . S
C569 C571 1.387 . S
H570 C577 0.950 . S
C571 C569 1.387 . S
C571 C573 1.390 1_565 S
C571 H575 0.950 . S
H572 C568 0.950 . S
C573 C571 1.390 1_545 S
C573 C574 1.387 . S
C573 H576 0.950 . S
C574 C573 1.387 . S
C574 C577 1.387 . S
H575 C571 0.950 . S
H576 C573 0.950 . S
C577 C568 1.390 1_545 S
C577 H570 0.950 . S
C577 C574 1.387 . S
C578 C579 1.387 . S
C578 H582 0.950 . S
C578 C587 1.390 1_465 S
C579 C578 1.387 . S
C579 C581 1.387 1_556 S
H580 C587 0.950 . S
C581 C579 1.387 1_554 S
C581 C583 1.390 1_465 S
C581 H585 0.950 . S
H582 C578 0.950 . S
C583 C581 1.390 1_645 S
C583 C584 1.387 . S
C583 H586 0.950 . S
C584 C583 1.387 . S
C584 C587 1.387 1_554 S
H585 C581 0.950 . S
H586 C583 0.950 . S
C587 C578 1.390 1_645 S
C587 H580 0.950 . S
C587 C584 1.387 1_556 S
C588 C589 1.387 1_554 S
C588 H592 0.950 . S
C588 C597 1.390 1_545 S
C589 C588 1.387 1_556 S
C589 C591 1.387 . S
H590 C597 0.950 . S
C591 C589 1.387 . S
C591 C593 1.390 1_545 S
C591 H595 0.950 . S
H592 C588 0.950 . S
C593 C591 1.390 1_565 S
C593 C594 1.387 1_556 S
C593 H596 0.950 . S
C594 C593 1.387 1_554 S
C594 C597 1.387 . S
H595 C591 0.950 . S
H596 C593 0.950 . S
C597 C588 1.390 1_565 S
C597 H590 0.950 . S
C597 C594 1.387 . S
C598 C599 1.387 . S
C598 H602 0.950 . S
C598 C607 1.390 1_445 S
C599 C598 1.387 . S
C599 C601 1.387 . S
H600 C607 0.950 . S
C601 C599 1.387 . S
C601 C603 1.390 1_445 S
C601 H605 0.950 . S
H602 C598 0.950 . S
C603 C601 1.390 1_665 S
C603 C604 1.387 . S
C603 H606 0.950 . S
C604 C603 1.387 . S
C604 C607 1.387 . S
H605 C601 0.950 . S
H606 C603 0.950 . S
C607 C598 1.390 1_665 S
C607 H600 0.950 . S
C607 C604 1.387 . S
C608 C609 1.387 . S
C608 H612 0.950 . S
C608 C617 1.390 1_655 S
C609 C608 1.387 . S
C609 C611 1.387 . S
H610 C617 0.950 . S
C611 C609 1.387 . S
C611 C613 1.390 1_655 S
C611 H615 0.950 . S
H612 C608 0.950 . S
C613 C611 1.390 1_455 S
C613 C614 1.387 . S
C613 H616 0.950 . S
C614 C613 1.387 . S
C614 C617 1.387 . S
H615 C611 0.950 . S
H616 C613 0.950 . S
C617 C608 1.390 1_455 S
C617 H610 0.950 . S
C617 C614 1.387 . S
C618 C619 1.387 . S
C618 H622 0.950 . S
C618 C627 1.390 1_455 S
C619 C618 1.387 . S
C619 C621 1.387 . S
H620 C627 0.950 . S
C621 C619 1.387 . S
C621 C623 1.390 1_455 S
C621 H625 0.950 . S
H622 C618 0.950 . S
C623 C621 1.390 1_655 S
C623 C624 1.387 . S
C623 H626 0.950 . S
C624 C623 1.387 . S
C624 C627 1.387 . S
H625 C621 0.950 . S
H626 C623 0.950 . S
C627 C618 1.390 1_655 S
C627 H620 0.950 . S
C627 C624 1.387 . S
C628 C629 1.387 . S
C628 H632 0.950 . S
C628 C637 1.390 . S
C629 C628 1.387 . S
C629 C631 1.387 . S
H630 C637 0.950 . S
C631 C629 1.387 . S
C631 C633 1.390 . S
C631 H635 0.950 . S
H632 C628 0.950 . S
C633 C631 1.390 . S
C633 C634 1.387 . S
C633 H636 0.950 . S
C634 C633 1.387 . S
C634 C637 1.387 . S
H635 C631 0.950 . S
H636 C633 0.950 . S
C637 C628 1.390 . S
C637 H630 0.950 . S
C637 C634 1.387 . S
C638 C639 1.387 . S
C638 H642 0.950 . S
C638 C647 1.390 . S
C639 C638 1.387 . S
C639 C641 1.387 . S
H640 C647 0.950 . S
C641 C639 1.387 . S
C641 C643 1.390 . S
C641 H645 0.950 . S
H642 C638 0.950 . S
C643 C641 1.390 . S
C643 C644 1.387 . S
C643 H646 0.950 . S
C644 C643 1.387 . S
C644 C647 1.387 . S
H645 C641 0.950 . S
H646 C643 0.950 . S
C647 C638 1.390 . S
C647 H640 0.950 . S
C647 C644 1.387 . S
C648 C649 1.387 . S
C648 H652 0.950 . S
C648 C657 1.390 1_655 S
C649 C648 1.387 . S
C649 C651 1.387 . S
H650 C657 0.950 . S
C651 C649 1.387 . S
C651 C653 1.390 1_655 S
C651 H655 0.950 . S
H652 C648 0.950 . S
C653 C651 1.390 1_455 S
C653 C654 1.387 . S
C653 H656 0.950 . S
C654 C653 1.387 . S
C654 C657 1.387 . S
H655 C651 0.950 . S
H656 C653 0.950 . S
C657 C648 1.390 1_455 S
C657 H650 0.950 . S
C657 C654 1.387 . S
C658 C659 1.387 . S
C658 H662 0.950 . S
C658 C667 1.390 . S
C659 C658 1.387 . S
C659 C661 1.387 . S
H660 C667 0.950 . S
C661 C659 1.387 . S
C661 C663 1.390 . S
C661 H665 0.950 . S
H662 C658 0.950 . S
C663 C661 1.390 . S
C663 C664 1.387 . S
C663 H666 0.950 . S
C664 C663 1.387 . S
C664 C667 1.387 . S
H665 C661 0.950 . S
H666 C663 0.950 . S
C667 C658 1.390 . S
C667 H660 0.950 . S
C667 C664 1.387 . S
C668 C669 1.387 . S
C668 H672 0.950 . S
C668 C677 1.390 . S
C669 C668 1.387 . S
C669 C671 1.387 . S
H670 C677 0.950 . S
C671 C669 1.387 . S
C671 C673 1.390 . S
C671 H675 0.950 . S
H672 C668 0.950 . S
C673 C671 1.390 . S
C673 C674 1.387 . S
C673 H676 0.950 . S
C674 C673 1.387 . S
C674 C677 1.387 . S
H675 C671 0.950 . S
H676 C673 0.950 . S
C677 C668 1.390 . S
C677 H670 0.950 . S
C677 C674 1.387 . S
C678 C679 1.387 . S
C678 H682 0.950 . S
C678 C687 1.390 1_455 S
C679 C678 1.387 . S
C679 C681 1.387 . S
H680 C687 0.950 . S
C681 C679 1.387 . S
C681 C683 1.390 1_455 S
C681 H685 0.950 . S
H682 C678 0.950 . S
C683 C681 1.390 1_655 S
C683 C684 1.387 . S
C683 H686 0.950 . S
C684 C683 1.387 . S
C684 C687 1.387 . S
H685 C681 0.950 . S
H686 C683 0.950 . S
C687 C678 1.390 1_655 S
C687 H680 0.950 . S
C687 C684 1.387 . S
C688 C689 1.387 . S
C688 H692 0.950 . S
C688 C697 1.390 1_655 S
C689 C688 1.387 . S
C689 C691 1.387 . S
H690 C697 0.950 . S
C691 C689 1.387 . S
C691 C693 1.390 1_655 S
C691 H695 0.950 . S
H692 C688 0.950 . S
C693 C691 1.390 1_455 S
C693 C694 1.387 . S
C693 H696 0.950 . S
C694 C693 1.387 . S
C694 C697 1.387 . S
H695 C691 0.950 . S
H696 C693 0.950 . S
C697 C688 1.390 1_455 S
C697 H690 0.950 . S
C697 C694 1.387 . S
C698 C699 1.387 . S
C698 H702 0.950 . S
C698 C707 1.390 1_655 S
C699 C698 1.387 . S
C699 C701 1.387 . S
H700 C707 0.950 . S
C701 C699 1.387 . S
C701 C703 1.390 1_655 S
C701 H705 0.950 . S
H702 C698 0.950 . S
C703 C701 1.390 1_455 S
C703 C704 1.387 . S
C703 H706 0.950 . S
C704 C703 1.387 . S
C704 C707 1.387 . S
H705 C701 0.950 . S
H706 C703 0.950 . S
C707 C698 1.390 1_455 S
C707 H700 0.950 . S
C707 C704 1.387 . S
C708 C709 1.387 . S
C708 H712 0.950 . S
C708 C717 1.390 . S
C709 C708 1.387 . S
C709 C711 1.387 . S
H710 C717 0.950 . S
C711 C709 1.387 . S
C711 C713 1.390 . S
C711 H715 0.950 . S
H712 C708 0.950 . S
C713 C711 1.390 . S
C713 C714 1.387 . S
C713 H716 0.950 . S
C714 C713 1.387 . S
C714 C717 1.387 . S
H715 C711 0.950 . S
H716 C713 0.950 . S
C717 C708 1.390 . S
C717 H710 0.950 . S
C717 C714 1.387 . S
C718 C719 1.387 . S
C718 H722 0.950 . S
C718 C727 1.390 . S
C719 C718 1.387 . S
C719 C721 1.387 . S
H720 C727 0.950 . S
C721 C719 1.387 . S
C721 C723 1.390 . S
C721 H725 0.950 . S
H722 C718 0.950 . S
C723 C721 1.390 . S
C723 C724 1.387 . S
C723 H726 0.950 . S
C724 C723 1.387 . S
C724 C727 1.387 . S
H725 C721 0.950 . S
H726 C723 0.950 . S
C727 C718 1.390 . S
C727 H720 0.950 . S
C727 C724 1.387 . S
C728 C729 1.387 . S
C728 H732 0.950 . S
C728 C737 1.390 1_655 S
C729 C728 1.387 . S
C729 C731 1.387 . S
H730 C737 0.950 . S
C731 C729 1.387 . S
C731 C733 1.390 1_655 S
C731 H735 0.950 . S
H732 C728 0.950 . S
C733 C731 1.390 1_455 S
C733 C734 1.387 . S
C733 H736 0.950 . S
C734 C733 1.387 . S
C734 C737 1.387 . S
H735 C731 0.950 . S
H736 C733 0.950 . S
C737 C728 1.390 1_455 S
C737 H730 0.950 . S
C737 C734 1.387 . S
C738 C739 1.387 . S
C738 H742 0.950 . S
C738 C747 1.390 . S
C739 C738 1.387 . S
C739 C741 1.387 . S
H740 C747 0.950 . S
C741 C739 1.387 . S
C741 C743 1.390 . S
C741 H745 0.950 . S
H742 C738 0.950 . S
C743 C741 1.390 . S
C743 C744 1.387 . S
C743 H746 0.950 . S
C744 C743 1.387 . S
C744 C747 1.387 . S
H745 C741 0.950 . S
H746 C743 0.950 . S
C747 C738 1.390 . S
C747 H740 0.950 . S
C747 C744 1.387 . S
C748 C749 1.387 . S
C748 H752 0.950 . S
C748 C757 1.390 . S
C749 C748 1.387 . S
C749 C751 1.387 . S
H750 C757 0.950 . S
C751 C749 1.387 . S
C751 C753 1.390 . S
C751 H755 0.950 . S
H752 C748 0.950 . S
C753 C751 1.390 . S
C753 C754 1.387 . S
C753 H756 0.950 . S
C754 C753 1.387 . S
C754 C757 1.387 . S
H755 C751 0.950 . S
H756 C753 0.950 . S
C757 C748 1.390 . S
C757 H750 0.950 . S
C757 C754 1.387 . S
C758 C759 1.387 . S
C758 H762 0.950 . S
C758 C767 1.390 1_655 S
C759 C758 1.387 . S
C759 C761 1.387 . S
H760 C767 0.950 . S
C761 C759 1.387 . S
C761 C763 1.390 1_655 S
C761 H765 0.950 . S
H762 C758 0.950 . S
C763 C761 1.390 1_455 S
C763 C764 1.387 . S
C763 H766 0.950 . S
C764 C763 1.387 . S
C764 C767 1.387 . S
H765 C761 0.950 . S
H766 C763 0.950 . S
C767 C758 1.390 1_455 S
C767 H760 0.950 . S
C767 C764 1.387 . S
C768 C769 1.387 . S
C768 H772 0.950 . S
C768 C777 1.390 1_556 S
C769 C768 1.387 . S
C769 C771 1.387 . S
H770 C777 0.950 . S
C771 C769 1.387 . S
C771 C773 1.390 1_556 S
C771 H775 0.950 . S
H772 C768 0.950 . S
C773 C771 1.390 1_554 S
C773 C774 1.387 . S
C773 H776 0.950 . S
C774 C773 1.387 . S
C774 C777 1.387 . S
H775 C771 0.950 . S
H776 C773 0.950 . S
C777 C768 1.390 1_554 S
C777 H770 0.950 . S
C777 C774 1.387 . S
C778 C779 1.387 . S
C778 H782 0.950 . S
C778 C787 1.390 1_545 S
C779 C778 1.387 . S
C779 C781 1.387 . S
H780 C787 0.950 . S
C781 C779 1.387 . S
C781 C783 1.390 1_545 S
C781 H785 0.950 . S
H782 C778 0.950 . S
C783 C781 1.390 1_565 S
C783 C784 1.387 . S
C783 H786 0.950 . S
C784 C783 1.387 . S
C784 C787 1.387 . S
H785 C781 0.950 . S
H786 C783 0.950 . S
C787 C778 1.390 1_565 S
C787 H780 0.950 . S
C787 C784 1.387 . S
C788 C789 1.387 . S
C788 H792 0.950 . S
C788 C797 1.390 . S
C789 C788 1.387 . S
C789 C791 1.387 . S
H790 C797 0.950 . S
C791 C789 1.387 . S
C791 C793 1.390 . S
C791 H795 0.950 . S
H792 C788 0.950 . S
C793 C791 1.390 . S
C793 C794 1.387 . S
C793 H796 0.950 . S
C794 C793 1.387 . S
C794 C797 1.387 . S
H795 C791 0.950 . S
H796 C793 0.950 . S
C797 C788 1.390 . S
C797 H790 0.950 . S
C797 C794 1.387 . S
C798 C799 1.387 . S
C798 H802 0.950 . S
C798 C807 1.390 1_545 S
C799 C798 1.387 . S
C799 C801 1.387 . S
H800 C807 0.950 . S
C801 C799 1.387 . S
C801 C803 1.390 1_545 S
C801 H805 0.950 . S
H802 C798 0.950 . S
C803 C801 1.390 1_565 S
C803 C804 1.387 . S
C803 H806 0.950 . S
C804 C803 1.387 . S
C804 C807 1.387 . S
H805 C801 0.950 . S
H806 C803 0.950 . S
C807 C798 1.390 1_565 S
C807 H800 0.950 . S
C807 C804 1.387 . S
C808 C809 1.387 . S
C808 H812 0.950 . S
C808 C817 1.390 1_554 S
C809 C808 1.387 . S
C809 C811 1.387 . S
H810 C817 0.950 . S
C811 C809 1.387 . S
C811 C813 1.390 1_554 S
C811 H815 0.950 . S
H812 C808 0.950 . S
C813 C811 1.390 1_556 S
C813 C814 1.387 . S
C813 H816 0.950 . S
C814 C813 1.387 . S
C814 C817 1.387 . S
H815 C811 0.950 . S
H816 C813 0.950 . S
C817 C808 1.390 1_556 S
C817 H810 0.950 . S
C817 C814 1.387 . S
C818 C819 1.387 . S
C818 H822 0.950 . S
C818 C827 1.390 1_565 S
C819 C818 1.387 . S
C819 C821 1.387 . S
H820 C827 0.950 . S
C821 C819 1.387 . S
C821 C823 1.390 1_565 S
C821 H825 0.950 . S
H822 C818 0.950 . S
C823 C821 1.390 1_545 S
C823 C824 1.387 . S
C823 H826 0.950 . S
C824 C823 1.387 . S
C824 C827 1.387 . S
H825 C821 0.950 . S
H826 C823 0.950 . S
C827 C818 1.390 1_545 S
C827 H820 0.950 . S
C827 C824 1.387 . S
C828 C829 1.387 . S
C828 H832 0.950 . S
C828 C837 1.390 . S
C829 C828 1.387 . S
C829 C831 1.387 . S
H830 C837 0.950 . S
C831 C829 1.387 . S
C831 C833 1.390 . S
C831 H835 0.950 . S
H832 C828 0.950 . S
C833 C831 1.390 . S
C833 C834 1.387 . S
C833 H836 0.950 . S
C834 C833 1.387 . S
C834 C837 1.387 . S
H835 C831 0.950 . S
H836 C833 0.950 . S
C837 C828 1.390 . S
C837 H830 0.950 . S
C837 C834 1.387 . S
C838 C839 1.387 . S
C838 H842 0.950 . S
C838 C847 1.390 1_545 S
C839 C838 1.387 . S
C839 C841 1.387 . S
H840 C847 0.950 . S
C841 C839 1.387 . S
C841 C843 1.390 1_545 S
C841 H845 0.950 . S
H842 C838 0.950 . S
C843 C841 1.390 1_565 S
C843 C844 1.387 . S
C843 H846 0.950 . S
C844 C843 1.387 . S
C844 C847 1.387 . S
H845 C841 0.950 . S
H846 C843 0.950 . S
C847 C838 1.390 1_565 S
C847 H840 0.950 . S
C847 C844 1.387 . S
C848 C849 1.387 . S
C848 H852 0.950 . S
C848 C857 1.390 . S
C849 C848 1.387 . S
C849 C851 1.387 . S
H850 C857 0.950 . S
C851 C849 1.387 . S
C851 C853 1.390 . S
C851 H855 0.950 . S
H852 C848 0.950 . S
C853 C851 1.390 . S
C853 C854 1.387 . S
C853 H856 0.950 . S
C854 C853 1.387 . S
C854 C857 1.387 . S
H855 C851 0.950 . S
H856 C853 0.950 . S
C857 C848 1.390 . S
C857 H850 0.950 . S
C857 C854 1.387 . S
C858 C859 1.387 . S
C858 H862 0.950 . S
C858 C867 1.390 . S
C859 C858 1.387 . S
C859 C861 1.387 . S
H860 C867 0.950 . S
C861 C859 1.387 . S
C861 C863 1.390 . S
C861 H865 0.950 . S
H862 C858 0.950 . S
C863 C861 1.390 . S
C863 C864 1.387 . S
C863 H866 0.950 . S
C864 C863 1.387 . S
C864 C867 1.387 . S
H865 C861 0.950 . S
H866 C863 0.950 . S
C867 C858 1.390 . S
C867 H860 0.950 . S
C867 C864 1.387 . S
C868 C869 1.387 . S
C868 H872 0.950 . S
C868 C877 1.390 1_554 S
C869 C868 1.387 . S
C869 C871 1.387 . S
H870 C877 0.950 . S
C871 C869 1.387 . S
C871 C873 1.390 1_554 S
C871 H875 0.950 . S
H872 C868 0.950 . S
C873 C871 1.390 1_556 S
C873 C874 1.387 . S
C873 H876 0.950 . S
C874 C873 1.387 . S
C874 C877 1.387 . S
H875 C871 0.950 . S
H876 C873 0.950 . S
C877 C868 1.390 1_556 S
C877 H870 0.950 . S
C877 C874 1.387 . S
C878 C879 1.387 . S
C878 H882 0.950 . S
C878 C887 1.390 . S
C879 C878 1.387 . S
C879 C881 1.387 . S
H880 C887 0.950 . S
C881 C879 1.387 . S
C881 C883 1.390 . S
C881 H885 0.950 . S
H882 C878 0.950 . S
C883 C881 1.390 . S
C883 C884 1.387 . S
C883 H886 0.950 . S
C884 C883 1.387 . S
C884 C887 1.387 . S
H885 C881 0.950 . S
H886 C883 0.950 . S
C887 C878 1.390 . S
C887 H880 0.950 . S
C887 C884 1.387 . S
C888 C889 1.387 . S
C888 H892 0.950 . S
C888 C897 1.390 . S
C889 C888 1.387 . S
C889 C891 1.387 . S
H890 C897 0.950 . S
C891 C889 1.387 . S
C891 C893 1.390 . S
C891 H895 0.950 . S
H892 C888 0.950 . S
C893 C891 1.390 . S
C893 C894 1.387 . S
C893 H896 0.950 . S
C894 C893 1.387 . S
C894 C897 1.387 . S
H895 C891 0.950 . S
H896 C893 0.950 . S
C897 C888 1.390 . S
C897 H890 0.950 . S
C897 C894 1.387 . S
C898 C899 1.387 . S
C898 H902 0.950 . S
C898 C907 1.390 . S
C899 C898 1.387 . S
C899 C901 1.387 . S
H900 C907 0.950 . S
C901 C899 1.387 . S
C901 C903 1.390 . S
C901 H905 0.950 . S
H902 C898 0.950 . S
C903 C901 1.390 . S
C903 C904 1.387 . S
C903 H906 0.950 . S
C904 C903 1.387 . S
C904 C907 1.387 . S
H905 C901 0.950 . S
H906 C903 0.950 . S
C907 C898 1.390 . S
C907 H900 0.950 . S
C907 C904 1.387 . S
C908 C909 1.387 . S
C908 H912 0.950 . S
C908 C917 1.390 1_556 S
C909 C908 1.387 . S
C909 C911 1.387 . S
H910 C917 0.950 . S
C911 C909 1.387 . S
C911 C913 1.390 1_556 S
C911 H915 0.950 . S
H912 C908 0.950 . S
C913 C911 1.390 1_554 S
C913 C914 1.387 . S
C913 H916 0.950 . S
C914 C913 1.387 . S
C914 C917 1.387 . S
H915 C911 0.950 . S
H916 C913 0.950 . S
C917 C908 1.390 1_554 S
C917 H910 0.950 . S
C917 C914 1.387 . S
C918 C919 1.387 . S
C918 H922 0.950 . S
C918 C927 1.390 . S
C919 C918 1.387 . S
C919 C921 1.387 . S
H920 C927 0.950 . S
C921 C919 1.387 . S
C921 C923 1.390 . S
C921 H925 0.950 . S
H922 C918 0.950 . S
C923 C921 1.390 . S
C923 C924 1.387 . S
C923 H926 0.950 . S
C924 C923 1.387 . S
C924 C927 1.387 . S
H925 C921 0.950 . S
H926 C923 0.950 . S
C927 C918 1.390 . S
C927 H920 0.950 . S
C927 C924 1.387 . S
C928 C929 1.387 . S
C928 H932 0.950 . S
C928 C937 1.390 . S
C929 C928 1.387 . S
C929 C931 1.387 . S
H930 C937 0.950 . S
C931 C929 1.387 . S
C931 C933 1.390 . S
C931 H935 0.950 . S
H932 C928 0.950 . S
C933 C931 1.390 . S
C933 C934 1.387 . S
C933 H936 0.950 . S
C934 C933 1.387 . S
C934 C937 1.387 . S
H935 C931 0.950 . S
H936 C933 0.950 . S
C937 C928 1.390 . S
C937 H930 0.950 . S
C937 C934 1.387 . S
C938 C939 1.387 . S
C938 H942 0.950 . S
C938 C947 1.390 . S
C939 C938 1.387 . S
C939 C941 1.387 . S
H940 C947 0.950 . S
C941 C939 1.387 . S
C941 C943 1.390 . S
C941 H945 0.950 . S
H942 C938 0.950 . S
C943 C941 1.390 . S
C943 C944 1.387 . S
C943 H946 0.950 . S
C944 C943 1.387 . S
C944 C947 1.387 . S
H945 C941 0.950 . S
H946 C943 0.950 . S
C947 C938 1.390 . S
C947 H940 0.950 . S
C947 C944 1.387 . S
C948 C949 1.387 . S
C948 H952 0.950 . S
C948 C957 1.390 . S
C949 C948 1.387 . S
C949 C951 1.387 . S
H950 C957 0.950 . S
C951 C949 1.387 . S
C951 C953 1.390 . S
C951 H955 0.950 . S
H952 C948 0.950 . S
C953 C951 1.390 . S
C953 C954 1.387 . S
C953 H956 0.950 . S
C954 C953 1.387 . S
C954 C957 1.387 . S
H955 C951 0.950 . S
H956 C953 0.950 . S
C957 C948 1.390 . S
C957 H950 0.950 . S
C957 C954 1.387 . S
C958 C959 1.387 . S
C958 H962 0.950 . S
C958 C967 1.390 . S
C959 C958 1.387 . S
C959 C961 1.387 . S
H960 C967 0.950 . S
C961 C959 1.387 . S
C961 C963 1.390 . S
C961 H965 0.950 . S
H962 C958 0.950 . S
C963 C961 1.390 . S
C963 C964 1.387 . S
C963 H966 0.950 . S
C964 C963 1.387 . S
C964 C967 1.387 . S
H965 C961 0.950 . S
H966 C963 0.950 . S
C967 C958 1.390 . S
C967 H960 0.950 . S
C967 C964 1.387 . S
C968 C969 1.387 . S
C968 H972 0.950 . S
C968 C977 1.390 . S
C969 C968 1.387 . S
C969 C971 1.387 . S
H970 C977 0.950 . S
C971 C969 1.387 . S
C971 C973 1.390 . S
C971 H975 0.950 . S
H972 C968 0.950 . S
C973 C971 1.390 . S
C973 C974 1.387 . S
C973 H976 0.950 . S
C974 C973 1.387 . S
C974 C977 1.387 . S
H975 C971 0.950 . S
H976 C973 0.950 . S
C977 C968 1.390 . S
C977 H970 0.950 . S
C977 C974 1.387 . S
C978 C979 1.387 . S
C978 H982 0.950 . S
C978 C987 1.390 . S
C979 C978 1.387 . S
C979 C981 1.387 . S
H980 C987 0.950 . S
C981 C979 1.387 . S
C981 C983 1.390 . S
C981 H985 0.950 . S
H982 C978 0.950 . S
C983 C981 1.390 . S
C983 C984 1.387 . S
C983 H986 0.950 . S
C984 C983 1.387 . S
C984 C987 1.387 . S
H985 C981 0.950 . S
H986 C983 0.950 . S
C987 C978 1.390 . S
C987 H980 0.950 . S
C987 C984 1.387 . S
C988 C989 1.387 . S
C988 H992 0.950 . S
C988 C997 1.390 . S
C989 C988 1.387 . S
C989 C991 1.387 . S
H990 C997 0.950 . S
C991 C989 1.387 . S
C991 C993 1.390 . S
C991 H995 0.950 . S
H992 C988 0.950 . S
C993 C991 1.390 . S
C993 C994 1.387 . S
C993 H996 0.950 . S
C994 C993 1.387 . S
C994 C997 1.387 . S
H995 C991 0.950 . S
H996 C993 0.950 . S
C997 C988 1.390 . S
C997 H990 0.950 . S
C997 C994 1.387 . S
C998 C999 1.387 . S
C998 H1002 0.950 . S
C998 C1007 1.390 . S
C999 C998 1.387 . S
C999 C1001 1.387 . S
H1000 C1007 0.950 . S
C1001 C999 1.387 . S
C1001 C1003 1.390 . S
C1001 H1005 0.950 . S
H1002 C998 0.950 . S
C1003 C1001 1.390 . S
C1003 C1004 1.387 . S
C1003 H1006 0.950 . S
C1004 C1003 1.387 . S
C1004 C1007 1.387 . S
H1005 C1001 0.950 . S
H1006 C1003 0.950 . S
C1007 C998 1.390 . S
C1007 H1000 0.950 . S
C1007 C1004 1.387 . S
C1008 C1009 1.387 . S
C1008 H1012 0.950 . S
C1008 C1017 1.390 . S
C1009 C1008 1.387 . S
C1009 C1011 1.387 . S
H1010 C1017 0.950 . S
C1011 C1009 1.387 . S
C1011 C1013 1.390 . S
C1011 H1015 0.950 . S
H1012 C1008 0.950 . S
C1013 C1011 1.390 . S
C1013 C1014 1.387 . S
C1013 H1016 0.950 . S
C1014 C1013 1.387 . S
C1014 C1017 1.387 . S
H1015 C1011 0.950 . S
H1016 C1013 0.950 . S
C1017 C1008 1.390 . S
C1017 H1010 0.950 . S
C1017 C1014 1.387 . S
C1018 C1019 1.387 . S
C1018 H1022 0.950 . S
C1018 C1027 1.390 . S
C1019 C1018 1.387 . S
C1019 C1021 1.387 . S
H1020 C1027 0.950 . S
C1021 C1019 1.387 . S
C1021 C1023 1.390 . S
C1021 H1025 0.950 . S
H1022 C1018 0.950 . S
C1023 C1021 1.390 . S
C1023 C1024 1.387 . S
C1023 H1026 0.950 . S
C1024 C1023 1.387 . S
C1024 C1027 1.387 . S
H1025 C1021 0.950 . S
H1026 C1023 0.950 . S
C1027 C1018 1.390 . S
C1027 H1020 0.950 . S
C1027 C1024 1.387 . S
C1028 C1029 1.387 . S
C1028 H1032 0.950 . S
C1028 C1037 1.390 . S
C1029 C1028 1.387 . S
C1029 C1031 1.387 . S
H1030 C1037 0.950 . S
C1031 C1029 1.387 . S
C1031 C1033 1.390 . S
C1031 H1035 0.950 . S
H1032 C1028 0.950 . S
C1033 C1031 1.390 . S
C1033 C1034 1.387 . S
C1033 H1036 0.950 . S
C1034 C1033 1.387 . S
C1034 C1037 1.387 . S
H1035 C1031 0.950 . S
H1036 C1033 0.950 . S
C1037 C1028 1.390 . S
C1037 H1030 0.950 . S
C1037 C1034 1.387 . S
C1038 C1039 1.387 . S
C1038 H1042 0.950 . S
C1038 C1047 1.390 . S
C1039 C1038 1.387 . S
C1039 C1041 1.387 . S
H1040 C1047 0.950 . S
C1041 C1039 1.387 . S
C1041 C1043 1.390 . S
C1041 H1045 0.950 . S
H1042 C1038 0.950 . S
C1043 C1041 1.390 . S
C1043 C1044 1.387 . S
C1043 H1046 0.950 . S
C1044 C1043 1.387 . S
C1044 C1047 1.387 . S
H1045 C1041 0.950 . S
H1046 C1043 0.950 . S
C1047 C1038 1.390 . S
C1047 H1040 0.950 . S
C1047 C1044 1.387 . S
C1048 C1049 1.387 . S
C1048 H1052 0.950 . S
C1048 C1057 1.390 . S
C1049 C1048 1.387 . S
C1049 C1051 1.387 . S
H1050 C1057 0.950 . S
C1051 C1049 1.387 . S
C1051 C1053 1.390 . S
C1051 H1055 0.950 . S
H1052 C1048 0.950 . S
C1053 C1051 1.390 . S
C1053 C1054 1.387 . S
C1053 H1056 0.950 . S
C1054 C1053 1.387 . S
C1054 C1057 1.387 . S
H1055 C1051 0.950 . S
H1056 C1053 0.950 . S
C1057 C1048 1.390 . S
C1057 H1050 0.950 . S
C1057 C1054 1.387 . S
C1058 C1059 1.387 . S
C1058 H1062 0.950 . S
C1058 C1067 1.390 . S
C1059 C1058 1.387 . S
C1059 C1061 1.387 . S
H1060 C1067 0.950 . S
C1061 C1059 1.387 . S
C1061 C1063 1.390 . S
C1061 H1065 0.950 . S
H1062 C1058 0.950 . S
C1063 C1061 1.390 . S
C1063 C1064 1.387 . S
C1063 H1066 0.950 . S
C1064 C1063 1.387 . S
C1064 C1067 1.387 . S
H1065 C1061 0.950 . S
H1066 C1063 0.950 . S
C1067 C1058 1.390 . S
C1067 H1060 0.950 . S
C1067 C1064 1.387 . S
C1068 C1069 1.387 . S
C1068 H1072 0.950 . S
C1068 C1077 1.390 . S
C1069 C1068 1.387 . S
C1069 C1071 1.387 . S
H1070 C1077 0.950 . S
C1071 C1069 1.387 . S
C1071 C1073 1.390 . S
C1071 H1075 0.950 . S
H1072 C1068 0.950 . S
C1073 C1071 1.390 . S
C1073 C1074 1.387 . S
C1073 H1076 0.950 . S
C1074 C1073 1.387 . S
C1074 C1077 1.387 . S
H1075 C1071 0.950 . S
H1076 C1073 0.950 . S
C1077 C1068 1.390 . S
C1077 H1070 0.950 . S
C1077 C1074 1.387 . S
C1078 C1079 1.387 . S
C1078 H1082 0.950 . S
C1078 C1087 1.390 . S
C1079 C1078 1.387 . S
C1079 C1081 1.387 . S
H1080 C1087 0.950 . S
C1081 C1079 1.387 . S
C1081 C1083 1.390 . S
C1081 H1085 0.950 . S
H1082 C1078 0.950 . S
C1083 C1081 1.390 . S
C1083 C1084 1.387 . S
C1083 H1086 0.950 . S
C1084 C1083 1.387 . S
C1084 C1087 1.387 . S
H1085 C1081 0.950 . S
H1086 C1083 0.950 . S
C1087 C1078 1.390 . S
C1087 H1080 0.950 . S
C1087 C1084 1.387 . S
C449 C119 1.463 . S
C454 C7 1.463 . S
C459 C357 1.464 . S
C464 C21 1.464 . S
C469 C147 1.463 . S
C474 C35 1.463 . S
C479 C385 1.461 . S
C484 C49 1.461 . S
C489 C175 1.462 . S
C494 C63 1.462 . S
C499 C77 1.464 . S
C504 C413 1.464 . S
C509 C91 1.464 . S
C514 C203 1.464 . S
C519 C105 1.464 . S
C524 C441 1.464 . S
C529 C245 1.464 . S
C534 C133 1.464 . S
C539 C273 1.463 . S
C544 C161 1.463 . S
C549 C189 1.462 . S
C554 C301 1.462 . S
C559 C217 1.461 . S
C564 C329 1.461 . S
C569 C231 1.463 . S
C574 C343 1.463 . S
C579 C371 1.462 . S
C584 C259 1.462 . S
C589 C287 1.462 . S
C594 C399 1.462 . S
C599 C427 1.462 . S
C604 C315 1.462 . S
C609 C261 1.924 . S
C614 C9 1.924 . S
C619 C275 1.924 . S
C624 C23 1.924 . S
C629 C37 1.924 . S
C634 C233 1.924 . S
C639 C51 1.924 . S
C644 C247 1.924 . S
C649 C317 1.924 . S
C654 C65 1.924 . S
C659 C79 1.924 . S
C664 C331 1.924 . S
C669 C289 1.924 . S
C674 C93 1.924 . S
C679 C303 1.924 . S
C684 C107 1.924 . S
C689 C121 1.924 . S
C694 C373 1.924 . S
C699 C387 1.924 . S
C704 C135 1.924 . S
C709 C149 1.924 . S
C714 C345 1.924 . S
C719 C163 1.924 . S
C724 C359 1.924 . S
C729 C177 1.924 . S
C734 C429 1.924 . S
C739 C191 1.924 . S
C744 C443 1.924 . S
C749 C401 1.924 . S
C754 C205 1.924 . S
C759 C415 1.924 . S
C764 C219 1.924 . S
C769 C90 1.546 . S
C774 C6 1.546 . S
C779 C104 1.547 . S
C784 C20 1.547 . S
C789 C62 1.547 . S
C794 C34 1.547 . S
C799 C48 1.547 . S
C804 C76 1.547 . S
C809 C202 1.546 . S
C814 C118 1.546 . S
C819 C216 1.547 . S
C824 C132 1.547 . S
C829 C174 1.547 . S
C834 C146 1.547 . S
C839 C188 1.547 . S
C844 C160 1.547 . S
C849 C314 1.547 . S
C854 C230 1.547 . S
C859 C328 1.546 . S
C864 C244 1.546 . S
C869 C258 1.546 . S
C874 C286 1.546 . S
C879 C272 1.547 . S
C884 C300 1.547 . S
C889 C426 1.547 . S
C894 C342 1.547 . S
C899 C440 1.547 . S
C904 C356 1.547 . S
C909 C370 1.546 . S
C914 C398 1.546 . S
C919 C384 1.547 . S
C924 C412 1.547 . S
C929 C8 1.609 . S
C934 C302 1.609 . S
C939 C316 1.610 . S
C944 C22 1.609 . S
C949 C330 1.610 . S
C954 C36 1.609 . S
C959 C50 1.609 . S
C964 C288 1.609 . S
C969 C274 1.609 . S
C974 C64 1.609 . S
C979 C78 1.609 . S
C984 C232 1.609 . S
C989 C246 1.609 . S
C994 C92 1.609 . S
C999 C106 1.609 . S
C1004 C260 1.609 . S
C1009 C414 1.609 . S
C1014 C120 1.609 . S
C1019 C428 1.609 . S
C1024 C134 1.610 . S
C1029 C148 1.609 . S
C1034 C442 1.609 . S
C1039 C400 1.609 . S
C1044 C162 1.609 . S
C1049 C386 1.609 . S
C1054 C176 1.610 . S
C1059 C190 1.609 . S
C1064 C344 1.609 . S
C1069 C358 1.609 . S
C1074 C204 1.609 . S
C1079 C218 1.609 . S
C1084 C372 1.609 . S
