# Generated by pormake.
# Topology yfz, (5)-cn, num edge types: 1
# Building blocks:
#     Node 0, Type 0, BuildingBlock: BEQFEK_clean_sbu_0, # of connection points: 5
#     Node 1, Type 0, BuildingBlock: BEQFEK_clean_sbu_0, # of connection points: 5
#     Node 2, Type 0, BuildingBlock: BEQFEK_clean_sbu_0, # of connection points: 5
#     Node 3, Type 0, BuildingBlock: BEQFEK_clean_sbu_0, # of connection points: 5
#     Node 4, Type 0, BuildingBlock: BEQFEK_clean_sbu_0, # of connection points: 5
#     Node 5, Type 0, BuildingBlock: BEQFEK_clean_sbu_0, # of connection points: 5
#     Node 6, Type 0, BuildingBlock: BEQFEK_clean_sbu_0, # of connection points: 5
#     Node 7, Type 0, BuildingBlock: BEQFEK_clean_sbu_0, # of connection points: 5
#     Edge 8, Type (0, 0), BuildingBlock: ZUJKAS_clean_linker_0, # of connection points: 2
#     Edge 9, Type (0, 0), BuildingBlock: ZUJKAS_clean_linker_0, # of connection points: 2
#     Edge 10, Type (0, 0), BuildingBlock: ZUJKAS_clean_linker_0, # of connection points: 2
#     Edge 11, Type (0, 0), BuildingBlock: ZUJKAS_clean_linker_0, # of connection points: 2
#     Edge 12, Type (0, 0), BuildingBlock: ZUJKAS_clean_linker_0, # of connection points: 2
#     Edge 13, Type (0, 0), BuildingBlock: ZUJKAS_clean_linker_0, # of connection points: 2
#     Edge 14, Type (0, 0), BuildingBlock: ZUJKAS_clean_linker_0, # of connection points: 2
#     Edge 15, Type (0, 0), BuildingBlock: ZUJKAS_clean_linker_0, # of connection points: 2
#     Edge 16, Type (0, 0), BuildingBlock: ZUJKAS_clean_linker_0, # of connection points: 2
#     Edge 17, Type (0, 0), BuildingBlock: ZUJKAS_clean_linker_0, # of connection points: 2
#     Edge 18, Type (0, 0), BuildingBlock: ZUJKAS_clean_linker_0, # of connection points: 2
#     Edge 19, Type (0, 0), BuildingBlock: ZUJKAS_clean_linker_0, # of connection points: 2
#     Edge 20, Type (0, 0), BuildingBlock: ZUJKAS_clean_linker_0, # of connection points: 2
#     Edge 21, Type (0, 0), BuildingBlock: ZUJKAS_clean_linker_0, # of connection points: 2
#     Edge 22, Type (0, 0), BuildingBlock: ZUJKAS_clean_linker_0, # of connection points: 2
#     Edge 23, Type (0, 0), BuildingBlock: ZUJKAS_clean_linker_0, # of connection points: 2
#     Edge 24, Type (0, 0), BuildingBlock: ZUJKAS_clean_linker_0, # of connection points: 2
#     Edge 25, Type (0, 0), BuildingBlock: ZUJKAS_clean_linker_0, # of connection points: 2
#     Edge 26, Type (0, 0), BuildingBlock: ZUJKAS_clean_linker_0, # of connection points: 2
#     Edge 27, Type (0, 0), BuildingBlock: ZUJKAS_clean_linker_0, # of connection points: 2
# Relax obj value: 0.180
# Max RMSD: 0.171
# Mean RMSD: 0.171
data_MOF--net-yfz--node1-BEQFEK_clean_sbu_0--edge1-ZUJKAS_clean_linker_0
_symmetry_space_group_name_H-M    P1
_symmetry_Int_Tables_number       1
_symmetry_cell_setting            triclinic
loop_
_symmetry_equiv_pos_as_xyz
'x, y, z'
_cell_length_a     66.638828
_cell_length_b     66.660421
_cell_length_c     23.074544
_cell_angle_alpha  89.940144
_cell_angle_beta   89.947257
_cell_angle_gamma 89.983996
loop_
_atom_site_label
_atom_site_type_symbol
_atom_site_fract_x
_atom_site_fract_y
_atom_site_fract_z
_atom_type_partial_charge
Co0 Co 0.60236 0.09773 0.26148 0.0
Co1 Co 0.61164 0.10917 0.39033 0.0
C2 C 0.64428 0.09612 0.31292 0.0
O3 O 0.63165 0.09455 0.2719 0.0
O4 O 0.63879 0.10135 0.36355 0.0
C5 C 0.60682 0.07244 0.16359 0.0
O6 O 0.61992 0.0635 0.1974 0.0
C7 C 0.62124 0.10554 0.51486 0.0
C8 C 0.60158 0.12915 0.55086 0.0
C9 C 0.61449 0.11378 0.56679 0.0
N10 N 0.61223 0.11529 0.4709 0.0
N11 N 0.60091 0.12969 0.49273 0.0
C12 C 0.63428 0.08746 0.50661 0.0
H13 H 0.63272 0.08148 0.46199 0.0
H14 H 0.63032 0.07559 0.53838 0.0
H15 H 0.65018 0.09176 0.51356 0.0
C16 C 0.57204 0.072 0.31892 0.0
N17 N 0.58774 0.08471 0.32063 0.0
N18 N 0.59207 0.08887 0.37494 0.0
C19 C 0.57948 0.07855 0.40968 0.0
C20 C 0.5662 0.06768 0.3754 0.0
C21 C 0.56192 0.06562 0.2641 0.0
H22 H 0.562 0.07813 0.23239 0.0
H23 H 0.57036 0.05289 0.24498 0.0
H24 H 0.54621 0.06085 0.27219 0.0
O25 O 0.59594 0.12653 0.26083 0.0
O26 O 0.6036 0.13458 0.35143 0.0
H27 H 0.57677 0.09338 0.4916 0.0
H28 H 0.571 0.06686 0.49444 0.0
C29 C 0.58078 0.07837 0.47446 0.0
H30 H 0.59631 0.07482 0.4873 0.0
H31 H 0.59196 0.13925 0.46797 0.0
O32 O 0.59642 0.08684 0.1837 0.0
C33 C 0.59754 0.13948 0.30102 0.0
Co34 Co 0.39576 0.60076 0.76608 0.0
Co35 Co 0.38282 0.61029 0.89347 0.0
C36 C 0.3966 0.64262 0.81278 0.0
O37 O 0.39931 0.62997 0.77237 0.0
O38 O 0.39027 0.63712 0.86239 0.0
C39 C 0.42066 0.60276 0.66617 0.0
O40 O 0.43045 0.61594 0.69761 0.0
C41 C 0.39007 0.62054 0.01506 0.0
C42 C 0.36372 0.60688 0.05784 0.0
C43 C 0.38168 0.61662 0.06901 0.0
N44 N 0.37789 0.61293 0.97424 0.0
N45 N 0.36199 0.60513 1e-05 0.0
C46 C 0.40902 0.63176 0.00196 0.0
H47 H 0.40708 0.64095 0.96233 0.0
H48 H 0.42139 0.62103 0.99364 0.0
H49 H 0.41327 0.64166 0.03858 0.0
C50 C 0.42362 0.5732 0.82705 0.0
N51 N 0.40915 0.58731 0.82687 0.0
N52 N 0.40324 0.59071 0.88045 0.0
C53 C 0.41344 0.5784 0.91632 0.0
C54 C 0.42689 0.56722 0.88386 0.0
C55 C 0.43424 0.56604 0.77381 0.0
H56 H 0.44132 0.57902 0.75177 0.0
H57 H 0.44602 0.55482 0.78401 0.0
H58 H 0.42317 0.55942 0.74347 0.0
O59 O 0.36666 0.59433 0.76694 0.0
O60 O 0.35755 0.60145 0.85714 0.0
H61 H 0.41346 0.56018 0.99389 0.0
H62 H 0.417 0.58652 0.00551 0.0
C63 C 0.40876 0.57534 0.97925 0.0
H64 H 0.39246 0.57697 0.98704 0.0
H65 H 0.35033 0.59791 0.97823 0.0
O66 O 0.40605 0.59328 0.68875 0.0
C67 C 0.35328 0.59543 0.80629 0.0
Co68 Co 0.89115 0.39572 0.27114 0.0
Co69 Co 0.88254 0.38295 0.39889 0.0
C70 C 0.84955 0.39653 0.32171 0.0
O71 O 0.86194 0.39867 0.2803 0.0
O72 O 0.85535 0.39082 0.37163 0.0
C73 C 0.88724 0.42076 0.1721 0.0
O74 O 0.87359 0.42964 0.20418 0.0
C75 C 0.87406 0.38865 0.52215 0.0
C76 C 0.88778 0.36141 0.55981 0.0
C77 C 0.87846 0.37931 0.57452 0.0
N78 N 0.88086 0.37694 0.47903 0.0
N79 N 0.88866 0.36051 0.50172 0.0
C80 C 0.86541 0.40911 0.5126 0.0
H81 H 0.86884 0.4145 0.46814 0.0
H82 H 0.87136 0.41988 0.54497 0.0
H83 H 0.84887 0.40837 0.51762 0.0
C84 C 0.91933 0.42339 0.32978 0.0
N85 N 0.9051 0.40906 0.33096 0.0
N86 N 0.90205 0.40334 0.3849 0.0
C87 C 0.91467 0.41359 0.41967 0.0
C88 C 0.92575 0.4268 0.38605 0.0
C89 C 0.92621 0.43374 0.27575 0.0
H90 H 0.91309 0.44064 0.25392 0.0
H91 H 0.93742 0.4456 0.28492 0.0
H92 H 0.93274 0.42252 0.24565 0.0
O93 O 0.89798 0.36674 0.26993 0.0
O94 O 0.89095 0.35792 0.36041 0.0
H95 H 0.93317 0.41396 0.49656 0.0
H96 H 0.90689 0.41794 0.50867 0.0
C97 C 0.91791 0.40934 0.48272 0.0
H98 H 0.9161 0.39313 0.49163 0.0
H99 H 0.89537 0.34909 0.47765 0.0
O100 O 0.89764 0.40665 0.19391 0.0
C101 C 0.89688 0.35349 0.3096 0.0
Co102 Co 0.09854 0.89033 0.77253 0.0
Co103 Co 0.11155 0.8827 0.90103 0.0
C104 C 0.09783 0.84929 0.82368 0.0
O105 O 0.09434 0.86131 0.78217 0.0
O106 O 0.10484 0.85544 0.87178 0.0
C107 C 0.07379 0.88764 0.67246 0.0
O108 O 0.06408 0.87452 0.70443 0.0
C109 C 0.10337 0.87352 0.0228 0.0
C110 C 0.12985 0.88659 0.06622 0.0
C111 C 0.11161 0.87731 0.07691 0.0
N112 N 0.11595 0.88072 0.98222 0.0
N113 N 0.13189 0.88822 0.0084 0.0
C114 C 0.0842 0.86274 0.00941 0.0
H115 H 0.08571 0.8542 0.96848 0.0
H116 H 0.07189 0.87373 0.00353 0.0
H117 H 0.0801 0.85234 0.04511 0.0
C118 C 0.07086 0.9189 0.8301 0.0
N119 N 0.08526 0.90473 0.83163 0.0
N120 N 0.09108 0.902 0.8856 0.0
C121 C 0.08092 0.91485 0.91994 0.0
C122 C 0.06757 0.92566 0.88613 0.0
C123 C 0.0603 0.9254 0.77605 0.0
H124 H 0.07144 0.93145 0.74482 0.0
H125 H 0.05308 0.91218 0.75574 0.0
H126 H 0.04866 0.93688 0.78488 0.0
O127 O 0.12789 0.89621 0.77299 0.0
O128 O 0.13678 0.89142 0.86472 0.0
H129 H 0.10186 0.91697 0.99054 0.0
H130 H 0.08113 0.93422 0.99497 0.0
C131 C 0.08559 0.91878 0.98242 0.0
H132 H 0.07713 0.90817 0.0101 0.0
H133 H 0.14386 0.89504 0.98686 0.0
O134 O 0.08842 0.8972 0.69447 0.0
C135 C 0.14116 0.89616 0.81278 0.0
Co136 Co 0.59832 0.39097 0.23504 0.0
Co137 Co 0.6074 0.38143 0.10491 0.0
C138 C 0.64005 0.39356 0.18454 0.0
O139 O 0.62756 0.39451 0.22611 0.0
O140 O 0.63443 0.389 0.13353 0.0
C141 C 0.60115 0.4158 0.33391 0.0
O142 O 0.61311 0.42604 0.29958 0.0
C143 C 0.61843 0.38797 0.98314 0.0
C144 C 0.60002 0.36495 0.93938 0.0
C145 C 0.61307 0.38072 0.92897 0.0
N146 N 0.6086 0.37725 0.02352 0.0
N147 N 0.5979 0.36331 0.99715 0.0
C148 C 0.63315 0.40425 0.99707 0.0
H149 H 0.64543 0.39782 0.02363 0.0
H150 H 0.62578 0.41599 0.02365 0.0
H151 H 0.63978 0.41099 0.95751 0.0
C152 C 0.56931 0.41905 0.18092 0.0
N153 N 0.58406 0.40529 0.17759 0.0
N154 N 0.5878 0.40131 0.12275 0.0
C155 C 0.57542 0.41239 0.08937 0.0
C156 C 0.56331 0.42396 0.12515 0.0
C157 C 0.56043 0.42644 0.23652 0.0
H158 H 0.55841 0.41371 0.26696 0.0
H159 H 0.57094 0.43729 0.25668 0.0
H160 H 0.54578 0.43393 0.22927 0.0
O161 O 0.59196 0.36203 0.23115 0.0
O162 O 0.59936 0.35542 0.13932 0.0
H163 H 0.57232 0.39692 0.00862 0.0
H164 H 0.56451 0.42286 0.0057 0.0
C165 C 0.57555 0.41228 0.02445 0.0
H166 H 0.59058 0.41675 0.00878 0.0
H167 H 0.58863 0.35307 0.01855 0.0
O168 O 0.59205 0.40055 0.31394 0.0
C169 C 0.59343 0.34973 0.18917 0.0
Co170 Co 0.10219 0.59976 0.72498 0.0
Co171 Co 0.11327 0.6077 0.59527 0.0
C172 C 0.10008 0.64091 0.67255 0.0
O173 O 0.09767 0.62878 0.71451 0.0
O174 O 0.10634 0.63497 0.62337 0.0
C175 C 0.07698 0.60216 0.82394 0.0
O176 O 0.0664 0.61396 0.79006 0.0
C177 C 0.10716 0.61851 0.47321 0.0
C178 C 0.12986 0.59945 0.43021 0.0
C179 C 0.11429 0.61268 0.41925 0.0
N180 N 0.1177 0.6087 0.51399 0.0
N181 N 0.13149 0.59764 0.48806 0.0
C182 C 0.09099 0.63345 0.48639 0.0
H183 H 0.09674 0.64462 0.51782 0.0
H184 H 0.07807 0.62577 0.50705 0.0
H185 H 0.08595 0.64148 0.44689 0.0
C186 C 0.0749 0.57016 0.6709 0.0
N187 N 0.08858 0.58497 0.66759 0.0
N188 N 0.093 0.58839 0.61284 0.0
C189 C 0.08227 0.57571 0.57948 0.0
C190 C 0.07048 0.56376 0.61519 0.0
C191 C 0.06722 0.56153 0.72654 0.0
H192 H 0.07976 0.55978 0.75768 0.0
H193 H 0.05613 0.57204 0.74567 0.0
H194 H 0.05991 0.54677 0.71967 0.0
O195 O 0.13139 0.59386 0.72291 0.0
O196 O 0.13889 0.59931 0.63049 0.0
H197 H 0.09843 0.57178 0.5001 0.0
H198 H 0.0724 0.56433 0.49582 0.0
C199 C 0.08298 0.57535 0.5146 0.0
H200 H 0.07887 0.59031 0.49767 0.0
H201 H 0.14154 0.58829 0.50982 0.0
O202 O 0.09243 0.59348 0.8036 0.0
C203 C 0.14406 0.59428 0.68154 0.0
Co204 Co 0.89466 0.10206 0.22634 0.0
Co205 Co 0.88667 0.11312 0.09672 0.0
C206 C 0.85349 0.09932 0.17253 0.0
O207 O 0.86569 0.0981 0.21467 0.0
O208 O 0.85942 0.10467 0.12236 0.0
C209 C 0.89062 0.0769 0.32476 0.0
O210 O 0.87815 0.06728 0.29058 0.0
C211 C 0.87826 0.10706 0.97321 0.0
C212 C 0.89557 0.13192 0.93418 0.0
C213 C 0.88425 0.11513 0.92039 0.0
N214 N 0.88608 0.11834 0.01582 0.0
N215 N 0.896 0.13343 0.99222 0.0
C216 C 0.86719 0.08785 0.98373 0.0
H217 H 0.86977 0.08244 0.02862 0.0
H218 H 0.87198 0.07618 0.95237 0.0
H219 H 0.85088 0.09051 0.97792 0.0
C220 C 0.92457 0.0751 0.17249 0.0
N221 N 0.90972 0.08874 0.16891 0.0
N222 N 0.90671 0.09346 0.11418 0.0
C223 C 0.91984 0.08311 0.08116 0.0
C224 C 0.93151 0.07111 0.11705 0.0
C225 C 0.93255 0.0669 0.22827 0.0
H226 H 0.93467 0.07929 0.2597 0.0
H227 H 0.92143 0.0563 0.24683 0.0
H228 H 0.94702 0.05896 0.22184 0.0
O229 O 0.90056 0.1311 0.22558 0.0
O230 O 0.89373 0.1389 0.13418 0.0
H231 H 0.92196 0.10013 0.00256 0.0
H232 H 0.93365 0.07577 -0.00175 0.0
C233 C 0.92083 0.08425 0.01639 0.0
H234 H 0.90698 0.07773 -0.00193 0.0
H235 H 0.9039 0.1442 0.01576 0.0
O236 O 0.9004 0.09177 0.30485 0.0
C237 C 0.89918 0.14397 0.18497 0.0
Co238 Co 0.3923 0.89206 0.72011 0.0
Co239 Co 0.38153 0.88403 0.59029 0.0
C240 C 0.39536 0.85089 0.66534 0.0
O241 O 0.39682 0.86308 0.70748 0.0
O242 O 0.38962 0.85677 0.61555 0.0
C243 C 0.41773 0.88829 0.81805 0.0
O244 O 0.42763 0.87616 0.78344 0.0
C245 C 0.38643 0.87518 0.466 0.0
C246 C 0.36341 0.89522 0.42852 0.0
C247 C 0.37888 0.88228 0.41367 0.0
N248 N 0.37619 0.88398 0.50933 0.0
N249 N 0.36214 0.89553 0.4866 0.0
C250 C 0.40446 0.86215 0.47531 0.0
H251 H 0.41019 0.86378 0.52017 0.0
H252 H 0.41652 0.86602 0.44405 0.0
H253 H 0.40017 0.84624 0.46842 0.0
C254 C 0.4179 0.92327 0.66666 0.0
N255 N 0.4052 0.90762 0.66298 0.0
N256 N 0.40142 0.90379 0.60814 0.0
C257 C 0.41201 0.91667 0.57498 0.0
C258 C 0.42267 0.92959 0.61093 0.0
C259 C 0.42405 0.93276 0.72263 0.0
H260 H 0.41133 0.93251 0.75365 0.0
H261 H 0.43658 0.92401 0.7417 0.0
H262 H 0.42901 0.94849 0.71611 0.0
O263 O 0.36324 0.89751 0.71989 0.0
O264 O 0.35568 0.89121 0.62808 0.0
H265 H 0.39797 0.91995 0.49206 0.0
H266 H 0.42452 0.92571 0.49168 0.0
C267 C 0.41282 0.91581 0.51017 0.0
H268 H 0.41648 0.90037 0.4967 0.0
H269 H 0.35235 0.90442 0.51081 0.0
O270 O 0.40258 0.89772 0.7986 0.0
C271 C 0.35046 0.89634 0.67908 0.0
H272 H 0.45977 0.93898 0.65312 0.0
H273 H 0.48237 0.9654 0.61915 0.0
H274 H 0.43862 0.98283 0.49056 0.0
H275 H 0.41522 0.95816 0.52922 0.0
H276 H 0.50036 0.96838 0.52552 0.0
H277 H 0.45385 0.03651 0.53872 0.0
H278 H 0.44596 0.01318 0.57087 0.0
H279 H 0.44121 0.01828 0.4952 0.0
C280 C 0.45477 0.94893 0.61892 0.0
C281 C 0.43584 0.94641 0.59336 0.0
C282 C 0.46776 0.96389 0.59904 0.0
C283 C 0.46222 0.97635 0.55248 0.0
C284 C 0.44315 0.97394 0.52756 0.0
H285 H 0.55534 0.03045 0.33687 0.0
H286 H 0.52886 0.00884 0.3757 0.0
C287 C 0.42991 0.9595 0.54885 0.0
C288 C 0.47691 0.99067 0.52705 0.0
H289 H 0.48183 0.03801 0.47252 0.0
C290 C 0.49636 0.98371 0.51484 0.0
C291 C 0.47192 0.01081 0.51364 0.0
C292 C 0.45217 0.02015 0.53098 0.0
C293 C 0.51084 0.99616 0.48927 0.0
C294 C 0.50537 0.0158 0.47183 0.0
C295 C 0.48599 0.02285 0.48464 0.0
C296 C 0.51978 0.02964 0.44302 0.0
C297 C 0.53196 0.98819 0.48325 0.0
C298 C 0.52233 0.0492 0.46433 0.0
C299 C 0.53665 0.06191 0.44001 0.0
C300 C 0.54922 0.05512 0.39529 0.0
C301 C 0.54601 0.03598 0.37183 0.0
C302 C 0.53114 0.02348 0.39481 0.0
H303 H 0.53506 0.97622 0.51556 0.0
H304 H 0.53386 0.9815 0.43958 0.0
H305 H 0.54327 0.00025 0.48898 0.0
H306 H 0.51358 0.05452 0.50081 0.0
H307 H 0.53832 0.0769 0.45746 0.0
H308 H 0.53115 0.41666 0.05614 0.0
H309 H 0.50743 0.4413 0.01695 0.0
H310 H 0.53613 0.48791 0.11658 0.0
H311 H 0.56028 0.46334 0.1544 0.0
H312 H 0.48036 0.46717 0.06888 0.0
H313 H 0.53967 0.50919 0.95082 0.0
H314 H 0.54399 0.48477 0.98221 0.0
H315 H 0.54405 0.50676 0.02727 0.0
C316 C 0.53231 0.43219 0.0696 0.0
C317 C 0.54765 0.4383 0.10726 0.0
C318 C 0.51877 0.44619 0.04745 0.0
C319 C 0.52034 0.46647 0.06287 0.0
C320 C 0.53499 0.47239 0.1031 0.0
H321 H 0.45462 0.57316 0.9675 0.0
H322 H 0.47726 0.54825 0.01047 0.0
C323 C 0.54861 0.45838 0.12505 0.0
C324 C 0.50697 0.48144 0.03554 0.0
H325 H 0.50699 0.52324 0.94989 0.0
C326 C 0.48616 0.4794 0.04273 0.0
C327 C 0.51462 0.49728 0.00112 0.0
C328 C 0.53679 0.49959 0.98932 0.0
C329 C 0.47277 0.49304 0.0172 0.0
C330 C 0.48045 0.50893 0.98327 0.0
C331 C 0.50123 0.51099 0.97602 0.0
C332 C 0.46715 0.52389 0.95596 0.0
C333 C 0.45054 0.49059 0.02745 0.0
C334 C 0.45428 0.51842 0.91051 0.0
C335 C 0.44144 0.53263 0.8858 0.0
C336 C 0.44137 0.55243 0.90631 0.0
C337 C 0.45448 0.55793 0.95113 0.0
C338 C 0.46736 0.54378 0.97558 0.0
H339 H 0.44731 0.47985 0.0631 0.0
H340 H 0.44355 0.50526 0.03808 0.0
H341 H 0.44337 0.48489 0.98733 0.0
H342 H 0.4541 0.50315 0.89451 0.0
H343 H 0.43127 0.52807 0.85168 0.0
H344 H 0.92107 0.45499 0.46914 0.0
H345 H 0.94665 0.47762 0.50832 0.0
H346 H 0.99042 0.45257 0.39088 0.0
H347 H 0.96469 0.43013 0.35105 0.0
H348 H 0.98169 0.46761 0.56266 0.0
H349 H -0.00267 0.5124 0.36465 0.0
H350 H 0.97574 0.49621 0.37098 0.0
H351 H 1e-05 0.48582 0.35482 0.0
C352 C 0.93613 0.45452 0.45143 0.0
C353 C 0.94098 0.4411 0.4068 0.0
C354 C 0.9507 0.46737 0.47381 0.0
C355 C 0.97035 0.46695 0.45196 0.0
C356 C 0.97523 0.45347 0.40738 0.0
H357 H 0.07858 0.53145 0.54737 0.0
H358 H 0.05458 0.50666 0.51038 0.0
C359 C 0.96059 0.44068 0.38471 0.0
C360 C 0.98581 0.48019 0.4774 0.0
H361 H 0.01876 0.51776 0.44514 0.0
C362 C 0.98977 0.47861 0.53702 0.0
C363 C 0.99631 0.49451 0.44377 0.0
C364 C 0.99204 0.49752 0.38013 0.0
C365 C 0.00405 0.49092 0.56388 0.0
C366 C 0.0145 0.50521 0.53024 0.0
C367 C 0.01072 0.50668 0.47061 0.0
C368 C 0.02915 0.51915 0.5562 0.0
C369 C 0.00804 0.48845 0.62784 0.0
C370 C 0.02273 0.53419 0.59446 0.0
C371 C 0.03635 0.54841 0.61514 0.0
C372 C 0.05649 0.54777 0.59754 0.0
C373 C 0.06302 0.53232 0.5608 0.0
C374 C 0.0494 0.51819 0.53988 0.0
H375 H 0.00199 0.47406 0.64479 0.0
H376 H 0.0244 0.48909 0.63688 0.0
H377 H 0.00074 0.50091 0.65179 0.0
H378 H 0.00709 0.53528 0.60692 0.0
H379 H 0.03104 0.56027 0.64332 0.0
H380 H 0.93307 0.03126 0.14067 0.0
H381 H 0.95764 0.00686 0.10444 0.0
H382 H 0.98927 0.05443 0.01616 0.0
H383 H 0.96517 0.07887 0.05422 0.0
H384 H 0.96442 -0.00166 0.99083 0.0
H385 H 0.03487 0.02474 0.09325 0.0
H386 H 0.01044 0.0331 0.11691 0.0
H387 H 0.02197 0.04403 0.05382 0.0
C388 C 0.94553 0.03647 0.11448 0.0
C389 C 0.94726 0.0568 0.09965 0.0
C390 C 0.95946 0.02257 0.09364 0.0
C391 C 0.97536 0.02886 0.05797 0.0
C392 C 0.97735 0.04929 0.04445 0.0
H393 H 0.0636 0.96449 0.85026 0.0
H394 H 0.04063 0.98996 0.88987 0.0
C395 C 0.9635 0.06319 0.06563 0.0
C396 C 0.98898 0.01388 0.03163 0.0
H397 H 0.03825 0.00063 0.01758 0.0
C398 C 0.98055 -0.00123 0.99699 0.0
C399 C 0.01003 0.01455 0.03951 0.0
C400 C 0.01987 0.02986 0.07833 0.0
C401 C 0.99262 0.9844 0.9696 0.0
C402 C 0.01361 0.98515 0.97729 0.0
C403 C 0.02211 0.00027 0.01159 0.0
C404 C 0.02693 0.96981 0.95195 0.0
C405 C 0.98292 0.9686 0.93216 0.0
C406 C 0.02674 0.95022 0.974 0.0
C407 C 0.03976 0.9358 0.95163 0.0
C408 C 0.05308 0.94076 0.90671 0.0
C409 C 0.05319 0.96033 0.88431 0.0
C410 C 0.04023 0.97483 0.90704 0.0
H411 H 0.96708 0.97234 0.92175 0.0
H412 H 0.99139 0.96671 0.89106 0.0
H413 H 0.98314 0.95402 0.95541 0.0
H414 H 0.0167 0.94618 0.00909 0.0
H415 H 0.03955 0.92078 0.96964 0.0
H416 H 0.58835 0.15638 0.19616 0.0
H417 H 0.58337 0.19196 0.17462 0.0
H418 H 0.59145 0.20637 0.35516 0.0
H419 H 0.59645 0.17084 0.37743 0.0
H420 H 0.55749 0.22679 0.2915 0.0
H421 H 0.63247 0.23206 0.18564 0.0
H422 H 0.61632 0.212 0.16232 0.0
H423 H 0.62601 0.21198 0.23485 0.0
C424 C 0.5889 0.16706 0.23145 0.0
C425 C 0.593 0.16078 0.28846 0.0
C426 C 0.58607 0.18737 0.21899 0.0
C427 C 0.58723 0.20169 0.26328 0.0
C428 C 0.59054 0.19547 0.32048 0.0
H429 H 0.58628 0.33063 0.29231 0.0
H430 H 0.58244 0.29462 0.30849 0.0
C431 C 0.59347 0.17518 0.333 0.0
C432 C 0.58613 0.22329 0.24951 0.0
H433 H 0.61258 0.26117 0.18609 0.0
C434 C 0.56947 0.23436 0.26831 0.0
C435 C 0.60181 0.23298 0.21925 0.0
C436 C 0.62027 0.22176 0.19955 0.0
C437 C 0.56801 0.25503 0.2572 0.0
C438 C 0.58386 0.26481 0.22771 0.0
C439 C 0.60042 0.25362 0.20851 0.0
C440 C 0.58405 0.28674 0.21761 0.0
C441 C 0.54943 0.26612 0.27639 0.0
C442 C 0.5864 0.29425 0.16121 0.0
C443 C 0.58886 0.31479 0.15185 0.0
C444 C 0.58907 0.32822 0.19882 0.0
C445 C 0.58611 0.32071 0.25517 0.0
C446 C 0.58376 0.30013 0.26449 0.0
H447 H 0.5365 0.25578 0.28215 0.0
H448 H 0.55238 0.27344 0.31871 0.0
H449 H 0.54521 0.27793 0.24467 0.0
H450 H 0.58674 0.28415 0.12447 0.0
H451 H 0.59101 0.32006 0.10786 0.0
H452 H 0.17397 0.58863 0.60222 0.0
H453 H 0.20964 0.5835 0.62096 0.0
H454 H 0.19834 0.58483 0.80501 0.0
H455 H 0.16252 0.58953 0.78675 0.0
H456 H 0.23348 0.60992 0.67668 0.0
H457 H 0.23537 0.53684 0.79121 0.0
H458 H 0.21368 0.54534 0.75124 0.0
H459 H 0.21831 0.55444 0.82339 0.0
C460 C 0.179 0.58756 0.64674 0.0
C461 C 0.16539 0.58957 0.69303 0.0
C462 C 0.1994 0.58459 0.65733 0.0
C463 C 0.20661 0.58354 0.71433 0.0
C464 C 0.19304 0.58511 0.76067 0.0
H465 H 0.32106 0.59495 0.8798 0.0
H466 H 0.2858 0.59004 0.85469 0.0
C467 C 0.17258 0.58795 0.75014 0.0
C468 C 0.22849 0.58274 0.72514 0.0
H469 H 0.26513 0.55691 0.79687 0.0
C470 C 0.24044 0.59818 0.70232 0.0
C471 C 0.2375 0.56744 0.75877 0.0
C472 C 0.22559 0.54997 0.78211 0.0
C473 C 0.26107 0.5991 0.71364 0.0
C474 C 0.27001 0.58403 0.74813 0.0
C475 C 0.25817 0.56841 0.77037 0.0
C476 C 0.29149 0.58488 0.76365 0.0
C477 C 0.27303 0.61656 0.69024 0.0
C478 C 0.30634 0.58308 0.72088 0.0
C479 C 0.32653 0.58592 0.73496 0.0
C480 C 0.33217 0.59059 0.79213 0.0
C481 C 0.31725 0.59153 0.83526 0.0
C482 C 0.2971 0.58866 0.82111 0.0
H483 H 0.26321 0.62882 0.67407 0.0
H484 H 0.2831 0.62273 0.72414 0.0
H485 H 0.28251 0.61134 0.65369 0.0
H486 H 0.30226 0.57993 0.67638 0.0
H487 H 0.33763 0.58495 0.70076 0.0
H488 H 0.90832 0.16108 0.28955 0.0
H489 H 0.91213 0.1968 0.31096 0.0
H490 H 0.90274 0.21107 0.13075 0.0
H491 H 0.89901 0.17541 0.10858 0.0
H492 H 0.93524 0.23313 0.18968 0.0
H493 H 0.86201 0.23461 0.30573 0.0
H494 H 0.87949 0.2157 0.3289 0.0
H495 H 0.86901 0.21453 0.25733 0.0
C496 C 0.90723 0.17177 0.2543 0.0
C497 C 0.90313 0.16539 0.19744 0.0
C498 C 0.90939 0.19216 0.26668 0.0
C499 C 0.90747 0.20649 0.2225 0.0
C500 C 0.90421 0.20018 0.16538 0.0
H501 H 0.90239 0.33622 0.20296 0.0
H502 H 0.90712 0.30058 0.18179 0.0
C503 C 0.90201 0.1798 0.15292 0.0
C504 C 0.90771 0.22811 0.23631 0.0
H505 H 0.88086 0.26446 0.30542 0.0
C506 C 0.92341 0.24005 0.21505 0.0
C507 C 0.89218 0.23697 0.26923 0.0
C508 C 0.8746 0.22489 0.29135 0.0
C509 C 0.92414 0.26072 0.22668 0.0
C510 C 0.90852 0.2696 0.25936 0.0
C511 C 0.89286 0.25759 0.28059 0.0
C512 C 0.9078 0.29137 0.27178 0.0
C513 C 0.94175 0.27276 0.20479 0.0
C514 C 0.90647 0.298 0.32931 0.0
C515 C 0.90349 0.31826 0.34152 0.0
C516 C 0.90177 0.33234 0.29635 0.0
C517 C 0.90375 0.32577 0.23872 0.0
C518 C 0.90659 0.30542 0.22654 0.0
H519 H 0.9549 0.26303 0.19537 0.0
H520 H 0.93745 0.28044 0.16397 0.0
H521 H 0.94628 0.28435 0.23671 0.0
H522 H 0.90731 0.28738 0.36484 0.0
H523 H 0.90216 0.32282 0.38641 0.0
H524 H 0.31914 0.8971 0.60233 0.0
H525 H 0.28348 0.90114 0.62437 0.0
H526 H 0.29748 0.90841 0.80552 0.0
H527 H 0.33317 0.90429 0.78419 0.0
H528 H 0.26835 0.87841 0.77954 0.0
H529 H 0.25058 0.95121 0.67369 0.0
H530 H 0.26385 0.93341 0.62943 0.0
H531 H 0.27589 0.94384 0.69212 0.0
C532 C 0.31469 0.89979 0.64681 0.0
C533 C 0.32903 0.90029 0.69155 0.0
C534 C 0.29431 0.90224 0.65921 0.0
C535 C 0.28793 0.90529 0.71643 0.0
C536 C 0.30218 0.90619 0.76101 0.0
H537 H 0.17212 0.9029 0.88768 0.0
H538 H 0.20762 0.90678 0.86415 0.0
C539 C 0.32256 0.90382 0.74869 0.0
C540 C 0.26629 0.90581 0.73052 0.0
H541 H 0.22298 0.93207 0.70832 0.0
C542 C 0.25843 0.89021 0.76437 0.0
C543 C 0.25345 0.92113 0.71006 0.0
C544 C 0.26133 0.93846 0.67466 0.0
C545 C 0.23794 0.88931 0.77768 0.0
C546 C 0.22507 0.90472 0.75771 0.0
C547 C 0.23292 0.92034 0.72372 0.0
C548 C 0.20338 0.90464 0.77142 0.0
C549 C 0.23018 0.87156 0.81171 0.0
C550 C 0.18915 0.90315 0.72687 0.0
C551 C 0.16877 0.90113 0.7401 0.0
C552 C 0.16233 0.90053 0.79817 0.0
C553 C 0.17659 0.90301 0.84253 0.0
C554 C 0.1969 0.90517 0.82922 0.0
H555 H 0.24078 0.8587 0.81028 0.0
H556 H 0.22825 0.87597 0.85773 0.0
H557 H 0.21542 0.86651 0.79491 0.0
H558 H 0.19388 0.90285 0.68194 0.0
H559 H 0.15817 0.89933 0.70492 0.0
H560 H 0.38697 0.819 0.5943 0.0
H561 H 0.39007 0.78327 0.61787 0.0
H562 H 0.41538 0.79834 0.78407 0.0
H563 H 0.41236 0.83398 0.76125 0.0
H564 H 0.43503 0.76521 0.71897 0.0
H565 H 0.35232 0.75773 0.74592 0.0
H566 H 0.36097 0.76898 0.67951 0.0
H567 H 0.36488 0.78173 0.74701 0.0
C568 C 0.39342 0.81472 0.63557 0.0
C569 C 0.39922 0.82935 0.67613 0.0
C570 C 0.39511 0.79433 0.64899 0.0
C571 C 0.40273 0.78828 0.70292 0.0
C572 C 0.4094 0.80278 0.74231 0.0
H573 H 0.38743 0.67486 0.88159 0.0
H574 H 0.39049 0.71046 0.85674 0.0
C575 C 0.40761 0.82313 0.72918 0.0
C576 C 0.40278 0.76691 0.71981 0.0
H577 H 0.37166 0.72835 0.75704 0.0
C578 C 0.42121 0.75708 0.72717 0.0
C579 C 0.3847 0.75657 0.73132 0.0
C580 C 0.36455 0.76675 0.72603 0.0
C581 C 0.42202 0.73696 0.74504 0.0
C582 C 0.40391 0.72652 0.75553 0.0
C583 C 0.3855 0.73645 0.74885 0.0
C584 C 0.40363 0.70513 0.77238 0.0
C585 C 0.44218 0.72708 0.7533 0.0
C586 C 0.4101 0.69044 0.73321 0.0
C587 C 0.40831 0.67014 0.74709 0.0
C588 C 0.39996 0.66415 0.80044 0.0
C589 C 0.39394 0.67895 0.84022 0.0
C590 C 0.39565 0.69928 0.8261 0.0
H591 H 0.45448 0.73827 0.75635 0.0
H592 H 0.44224 0.71766 0.79304 0.0
H593 H 0.44532 0.71717 0.71574 0.0
H594 H 0.41602 0.69467 0.6912 0.0
H595 H 0.41311 0.65915 0.71542 0.0
H596 H 0.83212 0.40575 0.2181 0.0
H597 H 0.79642 0.40813 0.19617 0.0
H598 H 0.78212 0.39675 0.37542 0.0
H599 H 0.81798 0.39421 0.39818 0.0
H600 H 0.76812 0.37439 0.22412 0.0
H601 H 0.74808 0.44797 0.32257 0.0
H602 H 0.77339 0.44196 0.30033 0.0
H603 H 0.76317 0.43097 0.36486 0.0
C604 C 0.82146 0.40396 0.25319 0.0
C605 C 0.82793 0.39968 0.30996 0.0
C606 C 0.80106 0.40533 0.24045 0.0
C607 C 0.78674 0.40271 0.28422 0.0
C608 C 0.79304 0.39901 0.34123 0.0
H609 H 0.65752 0.39898 0.29032 0.0
H610 H 0.69316 0.40178 0.31228 0.0
C611 C 0.8135 0.39749 0.35407 0.0
C612 C 0.76523 0.40249 0.26912 0.0
H613 H 0.72166 0.42893 0.28247 0.0
C614 C 0.75792 0.38631 0.23664 0.0
C615 C 0.7521 0.41804 0.28593 0.0
C616 C 0.75948 0.43583 0.32011 0.0
C617 C 0.73762 0.38508 0.2212 0.0
C618 C 0.72444 0.40078 0.2373 0.0
C619 C 0.73181 0.41699 0.26983 0.0
C620 C 0.7028 0.40023 0.22284 0.0
C621 C 0.73039 0.36667 0.18936 0.0
C622 C 0.69633 0.3989 0.16505 0.0
C623 C 0.67591 0.39708 0.15224 0.0
C624 C 0.66159 0.39684 0.19703 0.0
C625 C 0.66811 0.39902 0.25469 0.0
C626 C 0.6885 0.40066 0.26741 0.0
H627 H 0.74098 0.3539 0.19424 0.0
H628 H 0.7154 0.36189 0.20522 0.0
H629 H 0.72916 0.37015 0.14246 0.0
H630 H 0.7071 0.39906 0.12988 0.0
H631 H 0.67138 0.39564 0.10738 0.0
H632 H 0.12015 0.81859 0.86719 0.0
H633 H 0.11829 0.78317 0.84012 0.0
H634 H 0.06656 0.79571 0.73349 0.0
H635 H 0.06929 0.83134 0.75737 0.0
H636 H 0.09326 0.75464 0.8523 0.0
H637 H 0.10012 0.7686 0.61669 0.0
H638 H 0.10311 0.78828 0.66938 0.0
H639 H 0.0784 0.78066 0.64638 0.0
C640 C 0.10833 0.81372 0.83821 0.0
C641 C 0.095 0.82766 0.8138 0.0
C642 C 0.10728 0.7935 0.82266 0.0
C643 C 0.09264 0.78681 0.78332 0.0
C644 C 0.0785 0.80058 0.76197 0.0
H645 H 0.07222 0.65792 0.74333 0.0
H646 H 0.06871 0.69345 0.76762 0.0
C647 C 0.07991 0.82089 0.77616 0.0
C648 C 0.09241 0.76551 0.76439 0.0
H649 H 0.09176 0.73535 0.64487 0.0
C650 C 0.09303 0.75044 0.8069 0.0
C651 C 0.09249 0.75996 0.7051 0.0
C652 C 0.09372 0.77524 0.65683 0.0
C653 C 0.09382 0.73006 0.79197 0.0
C654 C 0.09288 0.7245 0.73275 0.0
C655 C 0.09219 0.73956 0.69025 0.0
C656 C 0.09352 0.70321 0.71378 0.0
C657 C 0.09647 0.71486 0.83995 0.0
C658 C 0.10765 0.697 0.67218 0.0
C659 C 0.10911 0.67681 0.65646 0.0
C660 C 0.09674 0.66245 0.68295 0.0
C661 C 0.08213 0.66872 0.72291 0.0
C662 C 0.08027 0.68897 0.73731 0.0
H663 H 0.10335 0.72173 0.87903 0.0
H664 H 0.08157 0.70891 0.85281 0.0
H665 H 0.10607 0.70214 0.82592 0.0
H666 H 0.11795 0.70769 0.65301 0.0
H667 H 0.12053 0.67233 0.62563 0.0
H668 H 0.83602 0.08982 0.27587 0.0
H669 H 0.80038 0.08635 0.29712 0.0
H670 H 0.78625 0.09667 0.11731 0.0
H671 H 0.82211 0.10033 0.09517 0.0
H672 H 0.77095 0.11966 0.26493 0.0
H673 H 0.75396 0.04405 0.17466 0.0
H674 H 0.77888 0.05098 0.19826 0.0
H675 H 0.76902 0.06105 0.13212 0.0
C676 C 0.82543 0.09117 0.2405 0.0
C677 C 0.83195 0.09548 0.18375 0.0
C678 C 0.80506 0.08916 0.25286 0.0
C679 C 0.7908 0.09119 0.20877 0.0
C680 C 0.79714 0.0949 0.15176 0.0
H681 H 0.66136 0.0893 0.20721 0.0
H682 H 0.69697 0.08744 0.18378 0.0
C683 C 0.8176 0.09704 0.13928 0.0
C684 C 0.76927 0.0908 0.22362 0.0
H685 H 0.72698 0.06215 0.21527 0.0
C686 C 0.76128 0.10711 0.2542 0.0
C687 C 0.75684 0.07442 0.20918 0.0
C688 C 0.765 0.05652 0.17695 0.0
C689 C 0.74099 0.10761 0.27027 0.0
C690 C 0.72856 0.09105 0.25683 0.0
C691 C 0.73659 0.07474 0.22596 0.0
C692 C 0.70699 0.09076 0.2724 0.0
C693 C 0.73299 0.12612 0.30003 0.0
C694 C 0.70077 0.09268 0.33032 0.0
C695 C 0.68035 0.09395 0.34396 0.0
C696 C 0.66582 0.09305 0.2999 0.0
C697 C 0.67213 0.09016 0.24226 0.0
C698 C 0.6925 0.08906 0.2287 0.0
H699 H 0.74291 0.1393 0.29299 0.0
H700 H 0.71771 0.12992 0.28428 0.0
H701 H 0.73214 0.12333 0.34738 0.0
H702 H 0.71171 0.0935 0.36489 0.0
H703 H 0.67599 0.09595 0.38882 0.0
H704 H 0.58633 0.11515 0.65122 0.0
H705 H 0.58816 0.1017 0.74906 0.0
H706 H 0.64819 0.08035 0.71592 0.0
H707 H 0.64689 0.09478 0.61834 0.0
H708 H 0.59356 0.06256 0.78407 0.0
H709 H 0.65486 0.11178 0.86567 0.0
H710 H 0.642 0.11671 0.79839 0.0
H711 H 0.66057 0.09722 0.80228 0.0
C712 C 0.60005 0.10778 0.66472 0.0
C713 C 0.61638 0.10582 0.62651 0.0
C714 C 0.60098 0.09995 0.72058 0.0
C715 C 0.61829 0.09003 0.73977 0.0
C716 C 0.63472 0.08808 0.70206 0.0
H717 H 0.63528 0.05246 0.10089 0.0
H718 H 0.6388 0.05193 0.99529 0.0
C719 C 0.63384 0.09608 0.64596 0.0
C720 C 0.6188 0.08204 0.79963 0.0
H721 H 0.64014 0.08957 0.93219 0.0
C722 C 0.60392 0.06826 0.81634 0.0
C723 C 0.63238 0.08945 0.84154 0.0
C724 C 0.64828 0.10471 0.82645 0.0
C725 C 0.60171 0.06236 0.87434 0.0
C726 C 0.61468 0.07049 0.91652 0.0
C727 C 0.63026 0.08337 0.89946 0.0
C728 C 0.61103 0.06774 0.97917 0.0
C729 C 0.58522 0.04789 0.89039 0.0
C730 C 0.59404 0.07648 0.00474 0.0
C731 C 0.59205 0.07696 0.06494 0.0
C732 C 0.60702 0.06868 0.10053 0.0
C733 C 0.62345 0.0589 0.07464 0.0
C734 C 0.62553 0.05862 0.01437 0.0
H735 H 0.58024 0.03896 0.85241 0.0
H736 H 0.59021 0.03749 0.92515 0.0
H737 H 0.57212 0.05645 0.90681 0.0
H738 H 0.58283 0.08385 0.97823 0.0
H739 H 0.57922 0.08458 0.08362 0.0
H740 H 0.44806 0.62368 0.60148 0.0
H741 H 0.44904 0.62656 0.49575 0.0
H742 H 0.40137 0.58308 0.48223 0.0
H743 H 0.40054 0.57978 0.58745 0.0
H744 H 0.43036 0.57911 0.39579 0.0
H745 H 0.40368 0.65793 0.41715 0.0
H746 H 0.42695 0.6521 0.45264 0.0
H747 H 0.40406 0.64075 0.47755 0.0
C748 C 0.43806 0.61443 0.57596 0.0
C749 C 0.42398 0.60175 0.60289 0.0
C750 C 0.43857 0.61619 0.51559 0.0
C751 C 0.42494 0.6054 0.4814 0.0
C752 C 0.41192 0.59165 0.50794 0.0
H753 H 0.36225 0.62485 0.16937 0.0
H754 H 0.37587 0.62358 0.26768 0.0
C755 C 0.41145 0.58981 0.56815 0.0
C756 C 0.42287 0.60948 0.41866 0.0
H757 H 0.40638 0.64496 0.32306 0.0
C758 C 0.42541 0.59357 0.37961 0.0
C759 C 0.41616 0.62834 0.39806 0.0
C760 C 0.41238 0.64576 0.4384 0.0
C761 C 0.42076 0.5958 0.32065 0.0
C762 C 0.41376 0.61456 0.30025 0.0
C763 C 0.41189 0.63066 0.33894 0.0
C764 C 0.40628 0.61718 0.24038 0.0
C765 C 0.42236 0.57777 0.28137 0.0
C766 C 0.41899 0.61451 0.19253 0.0
C767 C 0.41121 0.61513 0.13632 0.0
C768 C 0.39066 0.61877 0.12717 0.0
C769 C 0.37816 0.62216 0.17516 0.0
C770 C 0.38592 0.62147 0.23125 0.0
H771 H 0.42422 0.56359 0.30616 0.0
H772 H 0.40882 0.57643 0.25362 0.0
H773 H 0.43559 0.57955 0.25258 0.0
H774 H 0.43479 0.61137 0.19871 0.0
H775 H 0.42114 0.61179 0.1005 0.0
H776 H 0.86081 0.44248 0.10646 0.0
H777 H 0.85735 0.44131 0.00083 0.0
H778 H 0.91077 0.40508 0.98924 0.0
H779 H 0.91439 0.40605 0.09451 0.0
H780 H 0.88814 0.44798 0.89764 0.0
H781 H 0.85883 0.37087 0.93465 0.0
H782 H 0.85914 0.38976 0.99074 0.0
H783 H 0.88186 0.37695 0.97124 0.0
C784 C 0.87214 0.43473 0.08135 0.0
C785 C 0.88769 0.42405 0.10884 0.0
C786 C 0.87012 0.43411 0.02107 0.0
C787 C 0.88367 0.42291 0.98779 0.0
C788 C 0.90012 0.41369 0.01459 0.0
H789 H 0.90486 0.37292 0.66144 0.0
H790 H 0.90365 0.3858 0.7602 0.0
C791 C 0.90214 0.41424 0.07469 0.0
C792 C 0.87937 0.41854 0.92649 0.0
H793 H 0.86643 0.37985 0.83758 0.0
C794 C 0.88309 0.43323 0.88428 0.0
C795 C 0.87259 0.39932 0.90976 0.0
C796 C 0.86769 0.38331 0.95387 0.0
C797 C 0.88122 0.42872 0.82505 0.0
C798 C 0.87544 0.40917 0.80844 0.0
C799 C 0.87086 0.39482 0.8508 0.0
C800 C 0.87618 0.40251 0.74767 0.0
C801 C 0.88633 0.44444 0.78042 0.0
C802 C 0.86096 0.40755 0.70836 0.0
C803 C 0.86149 0.40003 0.65174 0.0
C804 C 0.87732 0.3875 0.63392 0.0
C805 C 0.89244 0.3825 0.67381 0.0
C806 C 0.89187 0.38994 0.73011 0.0
H807 H 0.89114 0.45879 0.80049 0.0
H808 H 0.89854 0.43888 0.75186 0.0
H809 H 0.87304 0.44735 0.75268 0.0
H810 H 0.84855 0.41696 0.72179 0.0
H811 H 0.84932 0.40367 0.62263 0.0
H812 H 0.13046 0.86752 0.17703 0.0
H813 H 0.1164 0.86758 0.27494 0.0
H814 H 0.05825 0.88284 0.20582 0.0
H815 H 0.07235 0.8834 0.10799 0.0
H816 H 0.07009 0.90762 0.29469 0.0
H817 H 0.07951 0.82819 0.35867 0.0
H818 H 0.10226 0.83875 0.33035 0.0
H819 H 0.08066 0.83638 0.28408 0.0
C820 C 0.1146 0.87051 0.18266 0.0
C821 C 0.10242 0.87495 0.13476 0.0
C822 C 0.10655 0.87041 0.23851 0.0
C823 C 0.08619 0.8748 0.24746 0.0
C824 C 0.07392 0.87909 0.19967 0.0
H825 H 0.04702 0.86576 0.60867 0.0
H826 H 0.04496 0.86384 0.50298 0.0
C827 C 0.08197 0.87915 0.14371 0.0
C828 C 0.0783 0.87664 0.30716 0.0
H829 H 0.07645 0.85206 0.43664 0.0
C830 C 0.07111 0.89538 0.32556 0.0
C831 C 0.07929 0.86057 0.34705 0.0
C832 C 0.08565 0.83978 0.32891 0.0
C833 C 0.06613 0.89883 0.38379 0.0
C834 C 0.06874 0.88321 0.42457 0.0
C835 C 0.07465 0.86411 0.40542 0.0
C836 C 0.06739 0.88672 0.48779 0.0
C837 C 0.05854 0.91927 0.40124 0.0
C838 C 0.08037 0.90051 0.5142 0.0
C839 C 0.08158 0.90168 0.57447 0.0
C840 C 0.06995 0.8889 0.60947 0.0
C841 C 0.0562 0.8758 0.58294 0.0
C842 C 0.05501 0.87465 0.52257 0.0
H843 H 0.05089 0.92687 0.3645 0.0
H844 H 0.04795 0.91827 0.43831 0.0
H845 H 0.07145 0.92875 0.41431 0.0
H846 H 0.09037 0.90967 0.48827 0.0
H847 H 0.09232 0.91192 0.59349 0.0
H848 H 0.57762 0.39806 0.41617 0.0
H849 H 0.58125 0.4005 0.52108 0.0
H850 H 0.62795 0.44467 0.49956 0.0
H851 H 0.62455 0.44222 0.39422 0.0
H852 H 0.63939 0.41228 0.56674 0.0
H853 H 0.56669 0.4423 0.64331 0.0
H854 H 0.56355 0.42178 0.5939 0.0
H855 H 0.57497 0.4447 0.56902 0.0
C856 C 0.58836 0.40863 0.43367 0.0
C857 C 0.60089 0.41985 0.39686 0.0
C858 C 0.59032 0.41011 0.49371 0.0
C859 C 0.60474 0.4229 0.51805 0.0
C860 C 0.61665 0.4348 0.48154 0.0
H861 H 0.61113 0.42018 0.89768 0.0
H862 H 0.61254 0.43391 0.79922 0.0
C863 C 0.61465 0.43339 0.42139 0.0
C864 C 0.60889 0.42189 0.58094 0.0
H865 H 0.58583 0.42305 0.71284 0.0
C866 C 0.62782 0.41504 0.59887 0.0
C867 C 0.59389 0.42574 0.62279 0.0
C868 C 0.5737 0.43424 0.60635 0.0
C869 C 0.63169 0.41064 0.65723 0.0
C870 C 0.61615 0.41294 0.69837 0.0
C871 C 0.59767 0.42109 0.68105 0.0
C872 C 0.61804 0.40525 0.75825 0.0
C873 C 0.65221 0.40308 0.67408 0.0
C874 C 0.62081 0.38463 0.76772 0.0
C875 C 0.62015 0.37681 0.82379 0.0
C876 C 0.61684 0.38948 0.87133 0.0
C877 C 0.61447 0.41019 0.86198 0.0
C878 C 0.61504 0.41801 0.80579 0.0
H879 H 0.66386 0.40817 0.64287 0.0
H880 H 0.65642 0.40822 0.71819 0.0
H881 H 0.65213 0.38643 0.67392 0.0
H882 H 0.62262 0.37446 0.73152 0.0
H883 H 0.62164 0.36076 0.8299 0.0
H884 H 0.04961 0.62423 0.88548 0.0
H885 H 0.04773 0.62767 0.99103 0.0
H886 H 0.09415 0.58307 0.0102 0.0
H887 H 0.09597 0.57932 0.90522 0.0
H888 H 0.06297 0.58036 0.09386 0.0
H889 H 0.09413 0.65761 0.07259 0.0
H890 H 0.07124 0.65234 0.03429 0.0
H891 H 0.09408 0.64008 0.01306 0.0
C892 C 0.05913 0.61486 0.91221 0.0
C893 C 0.07317 0.60172 0.887 0.0
C894 C 0.0581 0.61693 0.97244 0.0
C895 C 0.07108 0.60591 0.00814 0.0
C896 C 0.08408 0.59179 0.98326 0.0
H897 H 0.13431 0.61876 0.31866 0.0
H898 H 0.12028 0.61934 0.22067 0.0
C899 C 0.08513 0.5897 0.92323 0.0
C900 C 0.07261 0.61011 0.07084 0.0
H901 H 0.0911 0.6445 0.16642 0.0
C902 C 0.06876 0.59449 0.11004 0.0
C903 C 0.08037 0.62854 0.09139 0.0
C904 C 0.08535 0.64561 0.05083 0.0
C905 C 0.07325 0.5965 0.16913 0.0
C906 C 0.08156 0.61472 0.18936 0.0
C907 C 0.08461 0.63063 0.15059 0.0
C908 C 0.08942 0.61665 0.24893 0.0
C909 C 0.07018 0.57873 0.20879 0.0
C910 C 0.07664 0.61545 0.29711 0.0
C911 C 0.08463 0.61509 0.35308 0.0
C912 C 0.1055 0.61619 0.36152 0.0
C913 C 0.11817 0.6181 0.31325 0.0
C914 C 0.11018 0.61845 0.25742 0.0
H915 H 0.06668 0.5648 0.18444 0.0
H916 H 0.08377 0.57607 0.23552 0.0
H917 H 0.05749 0.58187 0.23862 0.0
H918 H 0.06056 0.61415 0.29134 0.0
H919 H 0.07455 0.61294 0.38937 0.0
H920 H 0.86461 0.05332 0.38628 0.0
H921 H 0.86126 0.05156 0.4919 0.0
H922 H 0.91301 0.08977 0.51095 0.0
H923 H 0.91651 0.09167 0.40566 0.0
H924 H 0.90891 0.05448 0.59304 0.0
H925 H 0.84217 0.10476 0.57702 0.0
H926 H 0.84291 0.08248 0.53302 0.0
H927 H 0.86008 0.10258 0.51862 0.0
C928 C 0.87554 0.06101 0.41294 0.0
C929 C 0.89069 0.07285 0.38769 0.0
C930 C 0.87354 0.06002 0.47319 0.0
C931 C 0.88674 0.07073 0.50884 0.0
C932 C 0.90266 0.08145 0.48391 0.0
H933 H 0.91266 0.11619 0.83672 0.0
H934 H 0.91134 0.10165 0.74009 0.0
C935 C 0.9046 0.08256 0.4238 0.0
C936 C 0.88311 0.07245 0.57171 0.0
H937 H 0.85503 0.09854 0.66968 0.0
C938 C 0.89693 0.06381 0.61004 0.0
C939 C 0.86736 0.0845 0.59349 0.0
C940 C 0.85226 0.09424 0.55367 0.0
C941 C 0.89591 0.06762 0.66972 0.0
C942 C 0.88101 0.08083 0.69105 0.0
C943 C 0.86647 0.08848 0.6531 0.0
C944 C 0.88173 0.08881 0.75079 0.0
C945 C 0.91109 0.05786 0.70917 0.0
C946 C 0.86518 0.0871 0.78817 0.0
C947 C 0.86578 0.09568 0.84349 0.0
C948 C 0.88292 0.10616 0.86196 0.0
C949 C 0.89926 0.10814 0.82388 0.0
C950 C 0.89866 0.09959 0.76889 0.0
H951 H 0.91645 0.04339 0.69097 0.0
H952 H 0.9243 0.06788 0.7136 0.0
H953 H 0.90475 0.0551 0.75297 0.0
H954 H 0.8518 0.0792 0.77443 0.0
H955 H 0.85274 0.09441 0.87119 0.0
H956 H 0.39692 0.84948 0.36224 0.0
H957 H 0.41219 0.84805 0.26558 0.0
H958 H 0.39443 0.90936 0.23467 0.0
H959 H 0.38 0.91117 0.33136 0.0
H960 H 0.39393 0.85305 0.16144 0.0
H961 H 0.45261 0.91085 0.18551 0.0
H962 H 0.4399 0.89986 0.247 0.0
H963 H 0.42863 0.92034 0.20767 0.0
C964 C 0.39672 0.86278 0.33538 0.0
C965 C 0.38763 0.88057 0.35494 0.0
C966 C 0.40533 0.86191 0.28006 0.0
C967 C 0.40498 0.8788 0.24367 0.0
C968 C 0.39549 0.89637 0.26273 0.0
H969 H 0.40304 0.91408 0.89933 0.0
H970 H 0.40474 0.91028 0.00459 0.0
C971 C 0.38697 0.89727 0.31777 0.0
C972 C 0.41302 0.8779 0.18394 0.0
H973 H 0.44103 0.90471 0.08706 0.0
C974 C 0.40465 0.86398 0.14539 0.0
C975 C 0.4271 0.89211 0.16322 0.0
C976 C 0.43773 0.90648 0.20326 0.0
C977 C 0.40879 0.8649 0.08586 0.0
C978 C 0.42168 0.88007 0.06473 0.0
C979 C 0.43104 0.8932 0.10359 0.0
C980 C 0.42361 0.8839 0.00202 0.0
C981 C 0.39839 0.8505 0.04538 0.0
C982 C 0.43428 0.8707 0.9662 0.0
C983 C 0.43343 0.87288 0.90598 0.0
C984 C 0.42173 0.88819 0.88097 0.0
C985 C 0.41205 0.90206 0.9173 0.0
C986 C 0.41304 0.89995 0.97737 0.0
H987 H 0.3877 0.8405 0.06845 0.0
H988 H 0.3901 0.85893 0.01148 0.0
H989 H 0.40975 0.84104 0.02324 0.0
H990 H 0.44258 0.85828 0.98472 0.0
H991 H 0.44107 0.86196 0.87913 0.0
loop_
_geom_bond_atom_site_label_1
_geom_bond_atom_site_label_2
_geom_bond_distance
_geom_bond_site_symmetry_2
_ccdc_geom_bond_type
Co0 O3 1.970 . S
Co0 N17 1.989 . S
Co0 O25 1.967 . S
Co0 O32 1.920 . S
Co1 O4 1.966 . S
Co1 N10 2.022 . S
Co1 N18 1.993 . S
Co1 O26 1.941 . S
C2 O3 1.258 . S
C2 O4 1.263 . S
O3 Co0 1.970 . S
O3 C2 1.258 . S
O4 Co1 1.966 . S
O4 C2 1.263 . S
C5 O6 1.235 . S
C5 O32 1.289 . S
O6 C5 1.235 . S
C7 C9 1.400 . S
C7 N10 1.351 . S
C7 C12 1.501 . S
C8 C9 1.387 . S
C8 N11 1.341 . S
C9 C7 1.400 . S
C9 C8 1.387 . S
N10 Co1 2.022 . S
N10 C7 1.351 . S
N10 N11 1.365 . S
N11 C8 1.341 . S
N11 N10 1.365 . S
N11 H31 0.862 . S
C12 C7 1.501 . S
C12 H13 0.961 . S
C12 H14 0.961 . S
C12 H15 0.960 . S
H13 C12 0.961 . S
H14 C12 0.961 . S
H15 C12 0.960 . S
C16 N17 1.342 . S
C16 C20 1.401 . S
C16 C21 1.499 . S
N17 Co0 1.989 . S
N17 C16 1.342 . S
N17 N18 1.388 . S
N18 Co1 1.993 . S
N18 N17 1.388 . S
N18 C19 1.346 . S
C19 N18 1.346 . S
C19 C20 1.396 . S
C19 C29 1.510 . S
C20 C16 1.401 . S
C20 C19 1.396 . S
C21 C16 1.499 . S
C21 H22 0.959 . S
C21 H23 0.960 . S
C21 H24 0.961 . S
H22 C21 0.959 . S
H23 C21 0.960 . S
H24 C21 0.961 . S
O25 Co0 1.967 . S
O25 C33 1.258 . S
O26 Co1 1.941 . S
O26 C33 1.266 . S
H27 C29 0.959 . S
H28 C29 0.961 . S
C29 C19 1.510 . S
C29 H27 0.959 . S
C29 H28 0.961 . S
C29 H30 0.960 . S
H30 C29 0.960 . S
H31 N11 0.862 . S
O32 Co0 1.920 . S
O32 C5 1.289 . S
C33 O25 1.258 . S
C33 O26 1.266 . S
Co34 O37 1.970 . S
Co34 N51 1.989 . S
Co34 O59 1.967 . S
Co34 O66 1.920 . S
Co35 O38 1.966 . S
Co35 N44 2.022 1_556 S
Co35 N52 1.993 . S
Co35 O60 1.941 . S
C36 O37 1.258 . S
C36 O38 1.263 . S
O37 Co34 1.970 . S
O37 C36 1.258 . S
O38 Co35 1.966 . S
O38 C36 1.263 . S
C39 O40 1.235 . S
C39 O66 1.289 . S
O40 C39 1.235 . S
C41 C43 1.400 . S
C41 N44 1.351 . S
C41 C46 1.501 . S
C42 C43 1.387 . S
C42 N45 1.341 . S
C43 C41 1.400 . S
C43 C42 1.387 . S
N44 Co35 2.022 1_554 S
N44 C41 1.351 . S
N44 N45 1.365 . S
N45 C42 1.341 . S
N45 N44 1.365 . S
N45 H65 0.862 . S
C46 C41 1.501 . S
C46 H47 0.961 1_554 S
C46 H48 0.961 . S
C46 H49 0.960 . S
H47 C46 0.961 1_556 S
H48 C46 0.961 . S
H49 C46 0.960 . S
C50 N51 1.342 . S
C50 C54 1.401 . S
C50 C55 1.499 . S
N51 Co34 1.989 . S
N51 C50 1.342 . S
N51 N52 1.388 . S
N52 Co35 1.993 . S
N52 N51 1.388 . S
N52 C53 1.346 . S
C53 N52 1.346 . S
C53 C54 1.396 . S
C53 C63 1.510 . S
C54 C50 1.401 . S
C54 C53 1.396 . S
C55 C50 1.499 . S
C55 H56 0.959 . S
C55 H57 0.960 . S
C55 H58 0.961 . S
H56 C55 0.959 . S
H57 C55 0.960 . S
H58 C55 0.961 . S
O59 Co34 1.967 . S
O59 C67 1.258 . S
O60 Co35 1.941 . S
O60 C67 1.266 . S
H61 C63 0.963 . S
H62 C63 0.961 . S
C63 C53 1.510 . S
C63 H61 0.963 . S
C63 H62 0.961 . S
C63 H64 0.960 1_556 S
H64 C63 0.960 1_554 S
H65 N45 0.862 . S
O66 Co34 1.920 . S
O66 C39 1.289 . S
C67 O59 1.258 . S
C67 O60 1.266 . S
Co68 O71 1.970 . S
Co68 N85 1.989 . S
Co68 O93 1.967 . S
Co68 O100 1.920 . S
Co69 O72 1.966 . S
Co69 N78 2.022 . S
Co69 N86 1.993 . S
Co69 O94 1.941 . S
C70 O71 1.258 . S
C70 O72 1.263 . S
O71 Co68 1.970 . S
O71 C70 1.258 . S
O72 Co69 1.966 . S
O72 C70 1.263 . S
C73 O74 1.235 . S
C73 O100 1.289 . S
O74 C73 1.235 . S
C75 C77 1.400 . S
C75 N78 1.351 . S
C75 C80 1.501 . S
C76 C77 1.387 . S
C76 N79 1.341 . S
C77 C75 1.400 . S
C77 C76 1.387 . S
N78 Co69 2.022 . S
N78 C75 1.351 . S
N78 N79 1.365 . S
N79 C76 1.341 . S
N79 N78 1.365 . S
N79 H99 0.862 . S
C80 C75 1.501 . S
C80 H81 0.961 . S
C80 H82 0.961 . S
C80 H83 0.960 . S
H81 C80 0.961 . S
H82 C80 0.961 . S
H83 C80 0.960 . S
C84 N85 1.342 . S
C84 C88 1.401 . S
C84 C89 1.499 . S
N85 Co68 1.989 . S
N85 C84 1.342 . S
N85 N86 1.388 . S
N86 Co69 1.993 . S
N86 N85 1.388 . S
N86 C87 1.346 . S
C87 N86 1.346 . S
C87 C88 1.396 . S
C87 C97 1.510 . S
C88 C84 1.401 . S
C88 C87 1.396 . S
C89 C84 1.499 . S
C89 H90 0.959 . S
C89 H91 0.960 . S
C89 H92 0.961 . S
H90 C89 0.959 . S
H91 C89 0.960 . S
H92 C89 0.961 . S
O93 Co68 1.967 . S
O93 C101 1.258 . S
O94 Co69 1.941 . S
O94 C101 1.266 . S
H95 C97 0.959 . S
H96 C97 0.961 . S
C97 C87 1.510 . S
C97 H95 0.959 . S
C97 H96 0.961 . S
C97 H98 0.960 . S
H98 C97 0.960 . S
H99 N79 0.862 . S
O100 Co68 1.920 . S
O100 C73 1.289 . S
C101 O93 1.258 . S
C101 O94 1.266 . S
Co102 O105 1.970 . S
Co102 N119 1.989 . S
Co102 O127 1.967 . S
Co102 O134 1.920 . S
Co103 O106 1.966 . S
Co103 N112 2.022 1_556 S
Co103 N120 1.993 . S
Co103 O128 1.941 . S
C104 O105 1.258 . S
C104 O106 1.263 . S
O105 Co102 1.970 . S
O105 C104 1.258 . S
O106 Co103 1.966 . S
O106 C104 1.263 . S
C107 O108 1.235 . S
C107 O134 1.289 . S
O108 C107 1.235 . S
C109 C111 1.400 . S
C109 N112 1.351 . S
C109 C114 1.501 . S
C110 C111 1.387 . S
C110 N113 1.341 . S
C111 C109 1.400 . S
C111 C110 1.387 . S
N112 Co103 2.022 1_554 S
N112 C109 1.351 . S
N112 N113 1.365 . S
N113 C110 1.341 . S
N113 N112 1.365 . S
N113 H133 0.862 . S
C114 C109 1.501 . S
C114 H115 0.961 1_554 S
C114 H116 0.961 . S
C114 H117 0.960 . S
H115 C114 0.961 1_556 S
H116 C114 0.961 . S
H117 C114 0.960 . S
C118 N119 1.342 . S
C118 C122 1.401 . S
C118 C123 1.499 . S
N119 Co102 1.989 . S
N119 C118 1.342 . S
N119 N120 1.388 . S
N120 Co103 1.993 . S
N120 N119 1.388 . S
N120 C121 1.346 . S
C121 N120 1.346 . S
C121 C122 1.396 . S
C121 C131 1.510 . S
C122 C118 1.401 . S
C122 C121 1.396 . S
C123 C118 1.499 . S
C123 H124 0.959 . S
C123 H125 0.960 . S
C123 H126 0.961 . S
H124 C123 0.959 . S
H125 C123 0.960 . S
H126 C123 0.961 . S
O127 Co102 1.967 . S
O127 C135 1.258 . S
O128 Co103 1.941 . S
O128 C135 1.266 . S
H129 C131 0.963 . S
H130 C131 0.961 . S
C131 C121 1.510 . S
C131 H129 0.963 . S
C131 H130 0.961 . S
C131 H132 0.960 1_556 S
H132 C131 0.960 1_554 S
H133 N113 0.862 . S
O134 Co102 1.920 . S
O134 C107 1.289 . S
C135 O127 1.258 . S
C135 O128 1.266 . S
Co136 O139 1.970 . S
Co136 N153 1.989 . S
Co136 O161 1.967 . S
Co136 O168 1.920 . S
Co137 O140 1.966 . S
Co137 N146 2.022 1_554 S
Co137 N154 1.993 . S
Co137 O162 1.941 . S
C138 O139 1.258 . S
C138 O140 1.263 . S
O139 Co136 1.970 . S
O139 C138 1.258 . S
O140 Co137 1.966 . S
O140 C138 1.263 . S
C141 O142 1.235 . S
C141 O168 1.289 . S
O142 C141 1.235 . S
C143 C145 1.400 . S
C143 N146 1.351 . S
C143 C148 1.501 . S
C144 C145 1.387 . S
C144 N147 1.341 . S
C145 C143 1.400 . S
C145 C144 1.387 . S
N146 Co137 2.022 1_556 S
N146 C143 1.351 . S
N146 N147 1.365 . S
N147 C144 1.341 . S
N147 N146 1.365 . S
N147 H167 0.862 . S
C148 C143 1.501 . S
C148 H149 0.961 1_556 S
C148 H150 0.961 . S
C148 H151 0.960 . S
H149 C148 0.961 1_554 S
H150 C148 0.961 . S
H151 C148 0.960 . S
C152 N153 1.342 . S
C152 C156 1.401 . S
C152 C157 1.499 . S
N153 Co136 1.989 . S
N153 C152 1.342 . S
N153 N154 1.388 . S
N154 Co137 1.993 . S
N154 N153 1.388 . S
N154 C155 1.346 . S
C155 N154 1.346 . S
C155 C156 1.396 . S
C155 C165 1.510 . S
C156 C152 1.401 . S
C156 C155 1.396 . S
C157 C152 1.499 . S
C157 H158 0.959 . S
C157 H159 0.960 . S
C157 H160 0.961 . S
H158 C157 0.959 . S
H159 C157 0.960 . S
H160 C157 0.961 . S
O161 Co136 1.967 . S
O161 C169 1.258 . S
O162 Co137 1.941 . S
O162 C169 1.266 . S
H163 C165 0.963 . S
H164 C165 0.961 . S
C165 C155 1.510 . S
C165 H163 0.963 . S
C165 H164 0.961 . S
C165 H166 0.960 1_554 S
H166 C165 0.960 1_556 S
H167 N147 0.862 . S
O168 Co136 1.920 . S
O168 C141 1.289 . S
C169 O161 1.258 . S
C169 O162 1.266 . S
Co170 O173 1.970 . S
Co170 N187 1.989 . S
Co170 O195 1.967 . S
Co170 O202 1.920 . S
Co171 O174 1.966 . S
Co171 N180 2.022 . S
Co171 N188 1.993 . S
Co171 O196 1.941 . S
C172 O173 1.258 . S
C172 O174 1.263 . S
O173 Co170 1.970 . S
O173 C172 1.258 . S
O174 Co171 1.966 . S
O174 C172 1.263 . S
C175 O176 1.235 . S
C175 O202 1.289 . S
O176 C175 1.235 . S
C177 C179 1.400 . S
C177 N180 1.351 . S
C177 C182 1.501 . S
C178 C179 1.387 . S
C178 N181 1.341 . S
C179 C177 1.400 . S
C179 C178 1.387 . S
N180 Co171 2.022 . S
N180 C177 1.351 . S
N180 N181 1.365 . S
N181 C178 1.341 . S
N181 N180 1.365 . S
N181 H201 0.862 . S
C182 C177 1.501 . S
C182 H183 0.961 . S
C182 H184 0.961 . S
C182 H185 0.960 . S
H183 C182 0.961 . S
H184 C182 0.961 . S
H185 C182 0.960 . S
C186 N187 1.342 . S
C186 C190 1.401 . S
C186 C191 1.499 . S
N187 Co170 1.989 . S
N187 C186 1.342 . S
N187 N188 1.388 . S
N188 Co171 1.993 . S
N188 N187 1.388 . S
N188 C189 1.346 . S
C189 N188 1.346 . S
C189 C190 1.396 . S
C189 C199 1.510 . S
C190 C186 1.401 . S
C190 C189 1.396 . S
C191 C186 1.499 . S
C191 H192 0.959 . S
C191 H193 0.960 . S
C191 H194 0.961 . S
H192 C191 0.959 . S
H193 C191 0.960 . S
H194 C191 0.961 . S
O195 Co170 1.967 . S
O195 C203 1.258 . S
O196 Co171 1.941 . S
O196 C203 1.266 . S
H197 C199 0.959 . S
H198 C199 0.961 . S
C199 C189 1.510 . S
C199 H197 0.959 . S
C199 H198 0.961 . S
C199 H200 0.960 . S
H200 C199 0.960 . S
H201 N181 0.862 . S
O202 Co170 1.920 . S
O202 C175 1.289 . S
C203 O195 1.258 . S
C203 O196 1.266 . S
Co204 O207 1.970 . S
Co204 N221 1.989 . S
Co204 O229 1.967 . S
Co204 O236 1.920 . S
Co205 O208 1.966 . S
Co205 N214 2.022 1_554 S
Co205 N222 1.993 . S
Co205 O230 1.941 . S
C206 O207 1.258 . S
C206 O208 1.263 . S
O207 Co204 1.970 . S
O207 C206 1.258 . S
O208 Co205 1.966 . S
O208 C206 1.263 . S
C209 O210 1.235 . S
C209 O236 1.289 . S
O210 C209 1.235 . S
C211 C213 1.400 . S
C211 N214 1.351 . S
C211 C216 1.501 . S
C212 C213 1.387 . S
C212 N215 1.341 . S
C213 C211 1.400 . S
C213 C212 1.387 . S
N214 Co205 2.022 1_556 S
N214 C211 1.351 . S
N214 N215 1.365 . S
N215 C212 1.341 . S
N215 N214 1.365 . S
N215 H235 0.862 . S
C216 C211 1.501 . S
C216 H217 0.961 1_556 S
C216 H218 0.961 . S
C216 H219 0.960 . S
H217 C216 0.961 1_554 S
H218 C216 0.961 . S
H219 C216 0.960 . S
C220 N221 1.342 . S
C220 C224 1.401 . S
C220 C225 1.499 . S
N221 Co204 1.989 . S
N221 C220 1.342 . S
N221 N222 1.388 . S
N222 Co205 1.993 . S
N222 N221 1.388 . S
N222 C223 1.346 . S
C223 N222 1.346 . S
C223 C224 1.396 . S
C223 C233 1.510 . S
C224 C220 1.401 . S
C224 C223 1.396 . S
C225 C220 1.499 . S
C225 H226 0.959 . S
C225 H227 0.960 . S
C225 H228 0.961 . S
H226 C225 0.959 . S
H227 C225 0.960 . S
H228 C225 0.961 . S
O229 Co204 1.967 . S
O229 C237 1.258 . S
O230 Co205 1.941 . S
O230 C237 1.266 . S
H231 C233 0.963 . S
H232 C233 0.961 . S
C233 C223 1.510 . S
C233 H231 0.963 . S
C233 H232 0.961 . S
C233 H234 0.960 1_554 S
H234 C233 0.960 1_556 S
H235 N215 0.862 . S
O236 Co204 1.920 . S
O236 C209 1.289 . S
C237 O229 1.258 . S
C237 O230 1.266 . S
Co238 O241 1.970 . S
Co238 N255 1.989 . S
Co238 O263 1.967 . S
Co238 O270 1.920 . S
Co239 O242 1.966 . S
Co239 N248 2.022 . S
Co239 N256 1.993 . S
Co239 O264 1.941 . S
C240 O241 1.258 . S
C240 O242 1.263 . S
O241 Co238 1.970 . S
O241 C240 1.258 . S
O242 Co239 1.966 . S
O242 C240 1.263 . S
C243 O244 1.235 . S
C243 O270 1.289 . S
O244 C243 1.235 . S
C245 C247 1.400 . S
C245 N248 1.351 . S
C245 C250 1.501 . S
C246 C247 1.387 . S
C246 N249 1.341 . S
C247 C245 1.400 . S
C247 C246 1.387 . S
N248 Co239 2.022 . S
N248 C245 1.351 . S
N248 N249 1.365 . S
N249 C246 1.341 . S
N249 N248 1.365 . S
N249 H269 0.862 . S
C250 C245 1.501 . S
C250 H251 0.961 . S
C250 H252 0.961 . S
C250 H253 0.960 . S
H251 C250 0.961 . S
H252 C250 0.961 . S
H253 C250 0.960 . S
C254 N255 1.342 . S
C254 C258 1.401 . S
C254 C259 1.499 . S
N255 Co238 1.989 . S
N255 C254 1.342 . S
N255 N256 1.388 . S
N256 Co239 1.993 . S
N256 N255 1.388 . S
N256 C257 1.346 . S
C257 N256 1.346 . S
C257 C258 1.396 . S
C257 C267 1.510 . S
C258 C254 1.401 . S
C258 C257 1.396 . S
C259 C254 1.499 . S
C259 H260 0.959 . S
C259 H261 0.960 . S
C259 H262 0.961 . S
H260 C259 0.959 . S
H261 C259 0.960 . S
H262 C259 0.961 . S
O263 Co238 1.967 . S
O263 C271 1.258 . S
O264 Co239 1.941 . S
O264 C271 1.266 . S
H265 C267 0.959 . S
H266 C267 0.961 . S
C267 C257 1.510 . S
C267 H265 0.959 . S
C267 H266 0.961 . S
C267 H268 0.960 . S
H268 C267 0.960 . S
H269 N249 0.862 . S
O270 Co238 1.920 . S
O270 C243 1.289 . S
C271 O263 1.258 . S
C271 O264 1.266 . S
H272 C280 0.929 . S
H273 C282 0.930 . S
H274 C284 0.930 . S
H275 C287 0.929 . S
H276 C290 0.930 . S
H277 C292 0.960 . S
H278 C292 0.960 . S
H279 C292 0.960 . S
C280 H272 0.929 . S
C280 C281 1.377 . S
C280 C282 1.384 . S
C281 C280 1.377 . S
C281 C287 1.390 . S
C282 H273 0.930 . S
C282 C280 1.384 . S
C282 C283 1.372 . S
C283 C282 1.372 . S
C283 C284 1.400 . S
C283 C288 1.490 . S
C284 H274 0.930 . S
C284 C283 1.400 . S
C284 C287 1.386 . S
H285 C301 0.930 . S
H286 C302 0.931 . S
C287 H275 0.929 . S
C287 C281 1.390 . S
C287 C284 1.386 . S
C288 C283 1.490 . S
C288 C290 1.395 . S
C288 C291 1.403 1_565 S
H289 C295 0.930 . S
C290 H276 0.930 . S
C290 C288 1.395 . S
C290 C293 1.403 1_565 S
C291 C288 1.403 1_545 S
C291 C292 1.524 . S
C291 C295 1.400 . S
C292 H277 0.960 . S
C292 H278 0.960 . S
C292 H279 0.960 . S
C292 C291 1.524 . S
C293 C290 1.403 1_545 S
C293 C294 1.392 . S
C293 C297 1.495 1_545 S
C294 C293 1.392 . S
C294 C295 1.385 . S
C294 C296 1.478 . S
C295 H289 0.930 . S
C295 C291 1.400 . S
C295 C294 1.385 . S
C296 C294 1.478 . S
C296 C298 1.381 . S
C296 C302 1.383 . S
C297 C293 1.495 1_565 S
C297 H303 0.959 . S
C297 H304 0.961 . S
C297 H305 0.960 1_565 S
C298 C296 1.381 . S
C298 C299 1.394 . S
C298 H306 0.930 . S
C299 C298 1.394 . S
C299 C300 1.383 . S
C299 H307 0.929 . S
C300 C299 1.383 . S
C300 C301 1.377 . S
C301 H285 0.930 . S
C301 C300 1.377 . S
C301 C302 1.379 . S
C302 H286 0.931 . S
C302 C296 1.383 . S
C302 C301 1.379 . S
H303 C297 0.959 . S
H304 C297 0.961 . S
H305 C297 0.960 1_545 S
H306 C298 0.930 . S
H307 C299 0.929 . S
H308 C316 0.929 . S
H309 C318 0.930 1_556 S
H310 C320 0.930 . S
H311 C323 0.929 . S
H312 C326 0.930 . S
H313 C328 0.960 . S
H314 C328 0.960 . S
H315 C328 0.960 1_554 S
C316 H308 0.929 . S
C316 C317 1.377 . S
C316 C318 1.384 . S
C317 C316 1.377 . S
C317 C323 1.390 . S
C318 H309 0.930 1_554 S
C318 C316 1.384 . S
C318 C319 1.372 . S
C319 C318 1.372 . S
C319 C320 1.400 . S
C319 C324 1.490 . S
C320 H310 0.930 . S
C320 C319 1.400 . S
C320 C323 1.386 . S
H321 C337 0.930 . S
H322 C338 0.931 1_554 S
C323 H311 0.929 . S
C323 C317 1.390 . S
C323 C320 1.386 . S
C324 C319 1.490 . S
C324 C326 1.395 . S
C324 C327 1.403 1_554 S
H325 C331 0.930 . S
C326 H312 0.930 . S
C326 C324 1.395 . S
C326 C329 1.403 1_554 S
C327 C324 1.403 1_556 S
C327 C328 1.524 . S
C327 C331 1.399 . S
C328 H313 0.960 . S
C328 H314 0.960 . S
C328 H315 0.960 1_556 S
C328 C327 1.524 . S
C329 C326 1.403 1_556 S
C329 C330 1.392 . S
C329 C333 1.495 . S
C330 C329 1.392 . S
C330 C331 1.385 . S
C330 C332 1.478 . S
C331 H325 0.930 . S
C331 C327 1.399 . S
C331 C330 1.385 . S
C332 C330 1.478 . S
C332 C334 1.381 . S
C332 C338 1.383 . S
C333 C329 1.495 . S
C333 H339 0.959 1_556 S
C333 H340 0.961 1_556 S
C333 H341 0.960 . S
C334 C332 1.381 . S
C334 C335 1.394 . S
C334 H342 0.930 . S
C335 C334 1.394 . S
C335 C336 1.383 . S
C335 H343 0.929 . S
C336 C335 1.383 . S
C336 C337 1.377 . S
C337 H321 0.930 . S
C337 C336 1.377 . S
C337 C338 1.379 . S
C338 H322 0.931 1_556 S
C338 C332 1.383 . S
C338 C337 1.379 . S
H339 C333 0.959 1_554 S
H340 C333 0.961 1_554 S
H341 C333 0.960 . S
H342 C334 0.930 . S
H343 C335 0.929 . S
H344 C352 0.929 . S
H345 C354 0.930 . S
H346 C356 0.930 . S
H347 C359 0.929 . S
H348 C362 0.930 . S
H349 C364 0.960 . S
H350 C364 0.960 . S
H351 C364 0.960 . S
C352 H344 0.929 . S
C352 C353 1.377 . S
C352 C354 1.384 . S
C353 C352 1.377 . S
C353 C359 1.390 . S
C354 H345 0.930 . S
C354 C352 1.384 . S
C354 C355 1.372 . S
C355 C354 1.372 . S
C355 C356 1.400 . S
C355 C360 1.490 . S
C356 H346 0.930 . S
C356 C355 1.400 . S
C356 C359 1.386 . S
H357 C373 0.930 . S
H358 C374 0.931 . S
C359 H347 0.929 . S
C359 C353 1.390 . S
C359 C356 1.386 . S
C360 C355 1.490 . S
C360 C362 1.395 1_655 S
C360 C363 1.408 . S
H361 C367 0.930 . S
C362 H348 0.930 . S
C362 C360 1.395 1_455 S
C362 C365 1.403 . S
C363 C360 1.408 . S
C363 C364 1.540 . S
C363 C367 1.378 1_655 S
C364 H349 0.960 . S
C364 H350 0.960 . S
C364 H351 0.960 . S
C364 C363 1.540 . S
C365 C362 1.403 . S
C365 C366 1.392 . S
C365 C369 1.495 . S
C366 C365 1.392 . S
C366 C367 1.385 . S
C366 C368 1.478 . S
C367 H361 0.930 . S
C367 C363 1.378 1_455 S
C367 C366 1.385 . S
C368 C366 1.478 . S
C368 C370 1.381 . S
C368 C374 1.383 . S
C369 C365 1.495 . S
C369 H375 0.959 . S
C369 H376 0.961 . S
C369 H377 0.960 . S
C370 C368 1.381 . S
C370 C371 1.394 . S
C370 H378 0.930 . S
C371 C370 1.394 . S
C371 C372 1.383 . S
C371 H379 0.929 . S
C372 C371 1.383 . S
C372 C373 1.377 . S
C373 H357 0.930 . S
C373 C372 1.377 . S
C373 C374 1.379 . S
C374 H358 0.931 . S
C374 C368 1.383 . S
C374 C373 1.379 . S
H375 C369 0.959 . S
H376 C369 0.961 . S
H377 C369 0.960 . S
H378 C370 0.930 . S
H379 C371 0.929 . S
H380 C388 0.929 . S
H381 C390 0.930 . S
H382 C392 0.930 . S
H383 C395 0.929 . S
H384 C398 0.930 . S
H385 C400 0.960 . S
H386 C400 0.960 . S
H387 C400 0.960 . S
C388 H380 0.929 . S
C388 C389 1.377 . S
C388 C390 1.384 . S
C389 C388 1.377 . S
C389 C395 1.390 . S
C390 H381 0.930 . S
C390 C388 1.384 . S
C390 C391 1.372 . S
C391 C390 1.372 . S
C391 C392 1.400 . S
C391 C396 1.490 . S
C392 H382 0.930 . S
C392 C391 1.400 . S
C392 C395 1.386 . S
H393 C409 0.930 . S
H394 C410 0.931 1_545 S
C395 H383 0.929 . S
C395 C389 1.390 . S
C395 C392 1.386 . S
C396 C391 1.490 . S
C396 C398 1.395 1_554 S
C396 C399 1.403 1_655 S
H397 C403 0.930 . S
C398 H384 0.930 . S
C398 C396 1.395 1_556 S
C398 C401 1.378 1_645 S
C399 C396 1.403 1_455 S
C399 C400 1.524 . S
C399 C403 1.400 . S
C400 H385 0.960 . S
C400 H386 0.960 . S
C400 H387 0.960 . S
C400 C399 1.524 . S
C401 C398 1.378 1_465 S
C401 C402 1.434 . S
C401 C405 1.480 1_455 S
C402 C401 1.434 . S
C402 C403 1.385 1_566 S
C402 C404 1.478 . S
C403 H397 0.930 . S
C403 C399 1.400 . S
C403 C402 1.385 1_544 S
C404 C402 1.478 . S
C404 C406 1.381 . S
C404 C410 1.383 . S
C405 C401 1.480 1_655 S
C405 H411 0.959 . S
C405 H412 0.959 . S
C405 H413 0.960 . S
C406 C404 1.381 . S
C406 C407 1.394 . S
C406 H414 0.930 . S
C407 C406 1.394 . S
C407 C408 1.383 . S
C407 H415 0.929 . S
C408 C407 1.383 . S
C408 C409 1.377 . S
C409 H393 0.930 . S
C409 C408 1.377 . S
C409 C410 1.379 . S
C410 H394 0.931 1_565 S
C410 C404 1.383 . S
C410 C409 1.379 . S
H411 C405 0.959 . S
H412 C405 0.959 . S
H413 C405 0.960 . S
H414 C406 0.930 . S
H415 C407 0.929 . S
H416 C424 0.929 . S
H417 C426 0.930 . S
H418 C428 0.930 . S
H419 C431 0.929 . S
H420 C434 0.930 . S
H421 C436 0.960 . S
H422 C436 0.960 . S
H423 C436 0.960 . S
C424 H416 0.929 . S
C424 C425 1.377 . S
C424 C426 1.384 . S
C425 C424 1.377 . S
C425 C431 1.390 . S
C426 H417 0.930 . S
C426 C424 1.384 . S
C426 C427 1.372 . S
C427 C426 1.372 . S
C427 C428 1.400 . S
C427 C432 1.490 . S
C428 H418 0.930 . S
C428 C427 1.400 . S
C428 C431 1.386 . S
H429 C445 0.930 . S
H430 C446 0.931 . S
C431 H419 0.929 . S
C431 C425 1.390 . S
C431 C428 1.386 . S
C432 C427 1.490 . S
C432 C434 1.395 . S
C432 C435 1.403 . S
H433 C439 0.930 . S
C434 H420 0.930 . S
C434 C432 1.395 . S
C434 C437 1.403 . S
C435 C432 1.403 . S
C435 C436 1.524 . S
C435 C439 1.400 . S
C436 H421 0.960 . S
C436 H422 0.960 . S
C436 H423 0.960 . S
C436 C435 1.524 . S
C437 C434 1.403 . S
C437 C438 1.392 . S
C437 C441 1.495 . S
C438 C437 1.392 . S
C438 C439 1.385 . S
C438 C440 1.478 . S
C439 H433 0.930 . S
C439 C435 1.400 . S
C439 C438 1.385 . S
C440 C438 1.478 . S
C440 C442 1.381 . S
C440 C446 1.383 . S
C441 C437 1.495 . S
C441 H447 0.959 . S
C441 H448 0.961 . S
C441 H449 0.960 . S
C442 C440 1.381 . S
C442 C443 1.394 . S
C442 H450 0.930 . S
C443 C442 1.394 . S
C443 C444 1.383 . S
C443 H451 0.929 . S
C444 C443 1.383 . S
C444 C445 1.377 . S
C445 H429 0.930 . S
C445 C444 1.377 . S
C445 C446 1.379 . S
C446 H430 0.931 . S
C446 C440 1.383 . S
C446 C445 1.379 . S
H447 C441 0.959 . S
H448 C441 0.961 . S
H449 C441 0.960 . S
H450 C442 0.930 . S
H451 C443 0.929 . S
H452 C460 0.929 . S
H453 C462 0.930 . S
H454 C464 0.930 . S
H455 C467 0.929 . S
H456 C470 0.930 . S
H457 C472 0.960 . S
H458 C472 0.960 . S
H459 C472 0.960 . S
C460 H452 0.929 . S
C460 C461 1.377 . S
C460 C462 1.384 . S
C461 C460 1.377 . S
C461 C467 1.390 . S
C462 H453 0.930 . S
C462 C460 1.384 . S
C462 C463 1.372 . S
C463 C462 1.372 . S
C463 C464 1.400 . S
C463 C468 1.490 . S
C464 H454 0.930 . S
C464 C463 1.400 . S
C464 C467 1.386 . S
H465 C481 0.930 . S
H466 C482 0.931 . S
C467 H455 0.929 . S
C467 C461 1.390 . S
C467 C464 1.386 . S
C468 C463 1.490 . S
C468 C470 1.395 . S
C468 C471 1.403 . S
H469 C475 0.930 . S
C470 H456 0.930 . S
C470 C468 1.395 . S
C470 C473 1.403 . S
C471 C468 1.403 . S
C471 C472 1.524 . S
C471 C475 1.400 . S
C472 H457 0.960 . S
C472 H458 0.960 . S
C472 H459 0.960 . S
C472 C471 1.524 . S
C473 C470 1.403 . S
C473 C474 1.392 . S
C473 C477 1.495 . S
C474 C473 1.392 . S
C474 C475 1.385 . S
C474 C476 1.478 . S
C475 H469 0.930 . S
C475 C471 1.400 . S
C475 C474 1.385 . S
C476 C474 1.478 . S
C476 C478 1.381 . S
C476 C482 1.383 . S
C477 C473 1.495 . S
C477 H483 0.959 . S
C477 H484 0.961 . S
C477 H485 0.960 . S
C478 C476 1.381 . S
C478 C479 1.394 . S
C478 H486 0.930 . S
C479 C478 1.394 . S
C479 C480 1.383 . S
C479 H487 0.929 . S
C480 C479 1.383 . S
C480 C481 1.377 . S
C481 H465 0.930 . S
C481 C480 1.377 . S
C481 C482 1.379 . S
C482 H466 0.931 . S
C482 C476 1.383 . S
C482 C481 1.379 . S
H483 C477 0.959 . S
H484 C477 0.961 . S
H485 C477 0.960 . S
H486 C478 0.930 . S
H487 C479 0.929 . S
H488 C496 0.929 . S
H489 C498 0.930 . S
H490 C500 0.930 . S
H491 C503 0.929 . S
H492 C506 0.930 . S
H493 C508 0.960 . S
H494 C508 0.960 . S
H495 C508 0.960 . S
C496 H488 0.929 . S
C496 C497 1.377 . S
C496 C498 1.384 . S
C497 C496 1.377 . S
C497 C503 1.390 . S
C498 H489 0.930 . S
C498 C496 1.384 . S
C498 C499 1.372 . S
C499 C498 1.372 . S
C499 C500 1.400 . S
C499 C504 1.490 . S
C500 H490 0.930 . S
C500 C499 1.400 . S
C500 C503 1.386 . S
H501 C517 0.930 . S
H502 C518 0.931 . S
C503 H491 0.929 . S
C503 C497 1.390 . S
C503 C500 1.386 . S
C504 C499 1.490 . S
C504 C506 1.395 . S
C504 C507 1.403 . S
H505 C511 0.930 . S
C506 H492 0.930 . S
C506 C504 1.395 . S
C506 C509 1.403 . S
C507 C504 1.403 . S
C507 C508 1.524 . S
C507 C511 1.400 . S
C508 H493 0.960 . S
C508 H494 0.960 . S
C508 H495 0.960 . S
C508 C507 1.524 . S
C509 C506 1.403 . S
C509 C510 1.392 . S
C509 C513 1.495 . S
C510 C509 1.392 . S
C510 C511 1.385 . S
C510 C512 1.478 . S
C511 H505 0.930 . S
C511 C507 1.400 . S
C511 C510 1.385 . S
C512 C510 1.478 . S
C512 C514 1.381 . S
C512 C518 1.383 . S
C513 C509 1.495 . S
C513 H519 0.959 . S
C513 H520 0.961 . S
C513 H521 0.960 . S
C514 C512 1.381 . S
C514 C515 1.394 . S
C514 H522 0.930 . S
C515 C514 1.394 . S
C515 C516 1.383 . S
C515 H523 0.929 . S
C516 C515 1.383 . S
C516 C517 1.377 . S
C517 H501 0.930 . S
C517 C516 1.377 . S
C517 C518 1.379 . S
C518 H502 0.931 . S
C518 C512 1.383 . S
C518 C517 1.379 . S
H519 C513 0.959 . S
H520 C513 0.961 . S
H521 C513 0.960 . S
H522 C514 0.930 . S
H523 C515 0.929 . S
H524 C532 0.929 . S
H525 C534 0.930 . S
H526 C536 0.930 . S
H527 C539 0.929 . S
H528 C542 0.930 . S
H529 C544 0.960 . S
H530 C544 0.960 . S
H531 C544 0.960 . S
C532 H524 0.929 . S
C532 C533 1.377 . S
C532 C534 1.384 . S
C533 C532 1.377 . S
C533 C539 1.390 . S
C534 H525 0.930 . S
C534 C532 1.384 . S
C534 C535 1.372 . S
C535 C534 1.372 . S
C535 C536 1.400 . S
C535 C540 1.490 . S
C536 H526 0.930 . S
C536 C535 1.400 . S
C536 C539 1.386 . S
H537 C553 0.930 . S
H538 C554 0.931 . S
C539 H527 0.929 . S
C539 C533 1.390 . S
C539 C536 1.386 . S
C540 C535 1.490 . S
C540 C542 1.395 . S
C540 C543 1.403 . S
H541 C547 0.930 . S
C542 H528 0.930 . S
C542 C540 1.395 . S
C542 C545 1.403 . S
C543 C540 1.403 . S
C543 C544 1.524 . S
C543 C547 1.400 . S
C544 H529 0.960 . S
C544 H530 0.960 . S
C544 H531 0.960 . S
C544 C543 1.524 . S
C545 C542 1.403 . S
C545 C546 1.392 . S
C545 C549 1.495 . S
C546 C545 1.392 . S
C546 C547 1.385 . S
C546 C548 1.478 . S
C547 H541 0.930 . S
C547 C543 1.400 . S
C547 C546 1.385 . S
C548 C546 1.478 . S
C548 C550 1.381 . S
C548 C554 1.383 . S
C549 C545 1.495 . S
C549 H555 0.959 . S
C549 H556 0.961 . S
C549 H557 0.960 . S
C550 C548 1.381 . S
C550 C551 1.394 . S
C550 H558 0.930 . S
C551 C550 1.394 . S
C551 C552 1.383 . S
C551 H559 0.929 . S
C552 C551 1.383 . S
C552 C553 1.377 . S
C553 H537 0.930 . S
C553 C552 1.377 . S
C553 C554 1.379 . S
C554 H538 0.931 . S
C554 C548 1.383 . S
C554 C553 1.379 . S
H555 C549 0.959 . S
H556 C549 0.961 . S
H557 C549 0.960 . S
H558 C550 0.930 . S
H559 C551 0.929 . S
H560 C568 0.929 . S
H561 C570 0.930 . S
H562 C572 0.930 . S
H563 C575 0.929 . S
H564 C578 0.930 . S
H565 C580 0.960 . S
H566 C580 0.960 . S
H567 C580 0.960 . S
C568 H560 0.929 . S
C568 C569 1.377 . S
C568 C570 1.384 . S
C569 C568 1.377 . S
C569 C575 1.390 . S
C570 H561 0.930 . S
C570 C568 1.384 . S
C570 C571 1.372 . S
C571 C570 1.372 . S
C571 C572 1.400 . S
C571 C576 1.490 . S
C572 H562 0.930 . S
C572 C571 1.400 . S
C572 C575 1.386 . S
H573 C589 0.930 . S
H574 C590 0.931 . S
C575 H563 0.929 . S
C575 C569 1.390 . S
C575 C572 1.386 . S
C576 C571 1.490 . S
C576 C578 1.395 . S
C576 C579 1.403 . S
H577 C583 0.930 . S
C578 H564 0.930 . S
C578 C576 1.395 . S
C578 C581 1.403 . S
C579 C576 1.403 . S
C579 C580 1.524 . S
C579 C583 1.400 . S
C580 H565 0.960 . S
C580 H566 0.960 . S
C580 H567 0.960 . S
C580 C579 1.524 . S
C581 C578 1.403 . S
C581 C582 1.392 . S
C581 C585 1.495 . S
C582 C581 1.392 . S
C582 C583 1.385 . S
C582 C584 1.478 . S
C583 H577 0.930 . S
C583 C579 1.400 . S
C583 C582 1.385 . S
C584 C582 1.478 . S
C584 C586 1.381 . S
C584 C590 1.383 . S
C585 C581 1.495 . S
C585 H591 0.959 . S
C585 H592 0.961 . S
C585 H593 0.960 . S
C586 C584 1.381 . S
C586 C587 1.394 . S
C586 H594 0.930 . S
C587 C586 1.394 . S
C587 C588 1.383 . S
C587 H595 0.929 . S
C588 C587 1.383 . S
C588 C589 1.377 . S
C589 H573 0.930 . S
C589 C588 1.377 . S
C589 C590 1.379 . S
C590 H574 0.931 . S
C590 C584 1.383 . S
C590 C589 1.379 . S
H591 C585 0.959 . S
H592 C585 0.961 . S
H593 C585 0.960 . S
H594 C586 0.930 . S
H595 C587 0.929 . S
H596 C604 0.929 . S
H597 C606 0.930 . S
H598 C608 0.930 . S
H599 C611 0.929 . S
H600 C614 0.930 . S
H601 C616 0.960 . S
H602 C616 0.960 . S
H603 C616 0.960 . S
C604 H596 0.929 . S
C604 C605 1.377 . S
C604 C606 1.384 . S
C605 C604 1.377 . S
C605 C611 1.390 . S
C606 H597 0.930 . S
C606 C604 1.384 . S
C606 C607 1.372 . S
C607 C606 1.372 . S
C607 C608 1.400 . S
C607 C612 1.490 . S
C608 H598 0.930 . S
C608 C607 1.400 . S
C608 C611 1.386 . S
H609 C625 0.930 . S
H610 C626 0.931 . S
C611 H599 0.929 . S
C611 C605 1.390 . S
C611 C608 1.386 . S
C612 C607 1.490 . S
C612 C614 1.395 . S
C612 C615 1.403 . S
H613 C619 0.930 . S
C614 H600 0.930 . S
C614 C612 1.395 . S
C614 C617 1.403 . S
C615 C612 1.403 . S
C615 C616 1.524 . S
C615 C619 1.400 . S
C616 H601 0.960 . S
C616 H602 0.960 . S
C616 H603 0.960 . S
C616 C615 1.524 . S
C617 C614 1.403 . S
C617 C618 1.392 . S
C617 C621 1.495 . S
C618 C617 1.392 . S
C618 C619 1.385 . S
C618 C620 1.478 . S
C619 H613 0.930 . S
C619 C615 1.400 . S
C619 C618 1.385 . S
C620 C618 1.478 . S
C620 C622 1.381 . S
C620 C626 1.383 . S
C621 C617 1.495 . S
C621 H627 0.959 . S
C621 H628 0.961 . S
C621 H629 0.960 . S
C622 C620 1.381 . S
C622 C623 1.394 . S
C622 H630 0.930 . S
C623 C622 1.394 . S
C623 C624 1.383 . S
C623 H631 0.929 . S
C624 C623 1.383 . S
C624 C625 1.377 . S
C625 H609 0.930 . S
C625 C624 1.377 . S
C625 C626 1.379 . S
C626 H610 0.931 . S
C626 C620 1.383 . S
C626 C625 1.379 . S
H627 C621 0.959 . S
H628 C621 0.961 . S
H629 C621 0.960 . S
H630 C622 0.930 . S
H631 C623 0.929 . S
H632 C640 0.929 . S
H633 C642 0.930 . S
H634 C644 0.930 . S
H635 C647 0.929 . S
H636 C650 0.930 . S
H637 C652 0.960 . S
H638 C652 0.960 . S
H639 C652 0.960 . S
C640 H632 0.929 . S
C640 C641 1.377 . S
C640 C642 1.384 . S
C641 C640 1.377 . S
C641 C647 1.390 . S
C642 H633 0.930 . S
C642 C640 1.384 . S
C642 C643 1.372 . S
C643 C642 1.372 . S
C643 C644 1.400 . S
C643 C648 1.490 . S
C644 H634 0.930 . S
C644 C643 1.400 . S
C644 C647 1.386 . S
H645 C661 0.930 . S
H646 C662 0.931 . S
C647 H635 0.929 . S
C647 C641 1.390 . S
C647 C644 1.386 . S
C648 C643 1.490 . S
C648 C650 1.395 . S
C648 C651 1.403 . S
H649 C655 0.930 . S
C650 H636 0.930 . S
C650 C648 1.395 . S
C650 C653 1.403 . S
C651 C648 1.403 . S
C651 C652 1.524 . S
C651 C655 1.400 . S
C652 H637 0.960 . S
C652 H638 0.960 . S
C652 H639 0.960 . S
C652 C651 1.524 . S
C653 C650 1.403 . S
C653 C654 1.392 . S
C653 C657 1.495 . S
C654 C653 1.392 . S
C654 C655 1.385 . S
C654 C656 1.478 . S
C655 H649 0.930 . S
C655 C651 1.400 . S
C655 C654 1.385 . S
C656 C654 1.478 . S
C656 C658 1.381 . S
C656 C662 1.383 . S
C657 C653 1.495 . S
C657 H663 0.959 . S
C657 H664 0.961 . S
C657 H665 0.960 . S
C658 C656 1.381 . S
C658 C659 1.394 . S
C658 H666 0.930 . S
C659 C658 1.394 . S
C659 C660 1.383 . S
C659 H667 0.929 . S
C660 C659 1.383 . S
C660 C661 1.377 . S
C661 H645 0.930 . S
C661 C660 1.377 . S
C661 C662 1.379 . S
C662 H646 0.931 . S
C662 C656 1.383 . S
C662 C661 1.379 . S
H663 C657 0.959 . S
H664 C657 0.961 . S
H665 C657 0.960 . S
H666 C658 0.930 . S
H667 C659 0.929 . S
H668 C676 0.929 . S
H669 C678 0.930 . S
H670 C680 0.930 . S
H671 C683 0.929 . S
H672 C686 0.930 . S
H673 C688 0.960 . S
H674 C688 0.960 . S
H675 C688 0.960 . S
C676 H668 0.929 . S
C676 C677 1.377 . S
C676 C678 1.384 . S
C677 C676 1.377 . S
C677 C683 1.390 . S
C678 H669 0.930 . S
C678 C676 1.384 . S
C678 C679 1.372 . S
C679 C678 1.372 . S
C679 C680 1.400 . S
C679 C684 1.490 . S
C680 H670 0.930 . S
C680 C679 1.400 . S
C680 C683 1.386 . S
H681 C697 0.930 . S
H682 C698 0.931 . S
C683 H671 0.929 . S
C683 C677 1.390 . S
C683 C680 1.386 . S
C684 C679 1.490 . S
C684 C686 1.395 . S
C684 C687 1.403 . S
H685 C691 0.930 . S
C686 H672 0.930 . S
C686 C684 1.395 . S
C686 C689 1.403 . S
C687 C684 1.403 . S
C687 C688 1.524 . S
C687 C691 1.400 . S
C688 H673 0.960 . S
C688 H674 0.960 . S
C688 H675 0.960 . S
C688 C687 1.524 . S
C689 C686 1.403 . S
C689 C690 1.392 . S
C689 C693 1.495 . S
C690 C689 1.392 . S
C690 C691 1.385 . S
C690 C692 1.478 . S
C691 H685 0.930 . S
C691 C687 1.400 . S
C691 C690 1.385 . S
C692 C690 1.478 . S
C692 C694 1.381 . S
C692 C698 1.383 . S
C693 C689 1.495 . S
C693 H699 0.959 . S
C693 H700 0.961 . S
C693 H701 0.960 . S
C694 C692 1.381 . S
C694 C695 1.394 . S
C694 H702 0.930 . S
C695 C694 1.394 . S
C695 C696 1.383 . S
C695 H703 0.929 . S
C696 C695 1.383 . S
C696 C697 1.377 . S
C697 H681 0.930 . S
C697 C696 1.377 . S
C697 C698 1.379 . S
C698 H682 0.931 . S
C698 C692 1.383 . S
C698 C697 1.379 . S
H699 C693 0.959 . S
H700 C693 0.961 . S
H701 C693 0.960 . S
H702 C694 0.930 . S
H703 C695 0.929 . S
H704 C712 0.929 . S
H705 C714 0.930 . S
H706 C716 0.930 . S
H707 C719 0.929 . S
H708 C722 0.930 . S
H709 C724 0.960 . S
H710 C724 0.960 . S
H711 C724 0.960 . S
C712 H704 0.929 . S
C712 C713 1.377 . S
C712 C714 1.384 . S
C713 C712 1.377 . S
C713 C719 1.390 . S
C714 H705 0.930 . S
C714 C712 1.384 . S
C714 C715 1.372 . S
C715 C714 1.372 . S
C715 C716 1.400 . S
C715 C720 1.490 . S
C716 H706 0.930 . S
C716 C715 1.400 . S
C716 C719 1.386 . S
H717 C733 0.930 . S
H718 C734 0.931 . S
C719 H707 0.929 . S
C719 C713 1.390 . S
C719 C716 1.386 . S
C720 C715 1.490 . S
C720 C722 1.395 . S
C720 C723 1.403 . S
H721 C727 0.930 . S
C722 H708 0.930 . S
C722 C720 1.395 . S
C722 C725 1.403 . S
C723 C720 1.403 . S
C723 C724 1.524 . S
C723 C727 1.400 . S
C724 H709 0.960 . S
C724 H710 0.960 . S
C724 H711 0.960 . S
C724 C723 1.524 . S
C725 C722 1.403 . S
C725 C726 1.392 . S
C725 C729 1.495 . S
C726 C725 1.392 . S
C726 C727 1.385 . S
C726 C728 1.478 1_556 S
C727 H721 0.930 . S
C727 C723 1.400 . S
C727 C726 1.385 . S
C728 C726 1.478 1_554 S
C728 C730 1.381 . S
C728 C734 1.383 . S
C729 C725 1.495 . S
C729 H735 0.959 . S
C729 H736 0.961 . S
C729 H737 0.960 . S
C730 C728 1.381 . S
C730 C731 1.394 . S
C730 H738 0.930 . S
C731 C730 1.394 . S
C731 C732 1.383 . S
C731 H739 0.929 . S
C732 C731 1.383 . S
C732 C733 1.377 . S
C733 H717 0.930 . S
C733 C732 1.377 . S
C733 C734 1.379 . S
C734 H718 0.931 . S
C734 C728 1.383 . S
C734 C733 1.379 . S
H735 C729 0.959 . S
H736 C729 0.961 . S
H737 C729 0.960 . S
H738 C730 0.930 . S
H739 C731 0.929 . S
H740 C748 0.929 . S
H741 C750 0.930 . S
H742 C752 0.930 . S
H743 C755 0.929 . S
H744 C758 0.930 . S
H745 C760 0.960 . S
H746 C760 0.960 . S
H747 C760 0.960 . S
C748 H740 0.929 . S
C748 C749 1.377 . S
C748 C750 1.384 . S
C749 C748 1.377 . S
C749 C755 1.390 . S
C750 H741 0.930 . S
C750 C748 1.384 . S
C750 C751 1.372 . S
C751 C750 1.372 . S
C751 C752 1.400 . S
C751 C756 1.490 . S
C752 H742 0.930 . S
C752 C751 1.400 . S
C752 C755 1.386 . S
H753 C769 0.930 . S
H754 C770 0.931 . S
C755 H743 0.929 . S
C755 C749 1.390 . S
C755 C752 1.386 . S
C756 C751 1.490 . S
C756 C758 1.395 . S
C756 C759 1.403 . S
H757 C763 0.930 . S
C758 H744 0.930 . S
C758 C756 1.395 . S
C758 C761 1.403 . S
C759 C756 1.403 . S
C759 C760 1.524 . S
C759 C763 1.400 . S
C760 H745 0.960 . S
C760 H746 0.960 . S
C760 H747 0.960 . S
C760 C759 1.524 . S
C761 C758 1.403 . S
C761 C762 1.392 . S
C761 C765 1.495 . S
C762 C761 1.392 . S
C762 C763 1.385 . S
C762 C764 1.478 . S
C763 H757 0.930 . S
C763 C759 1.400 . S
C763 C762 1.385 . S
C764 C762 1.478 . S
C764 C766 1.381 . S
C764 C770 1.383 . S
C765 C761 1.495 . S
C765 H771 0.959 . S
C765 H772 0.961 . S
C765 H773 0.960 . S
C766 C764 1.381 . S
C766 C767 1.394 . S
C766 H774 0.930 . S
C767 C766 1.394 . S
C767 C768 1.383 . S
C767 H775 0.929 . S
C768 C767 1.383 . S
C768 C769 1.377 . S
C769 H753 0.930 . S
C769 C768 1.377 . S
C769 C770 1.379 . S
C770 H754 0.931 . S
C770 C764 1.383 . S
C770 C769 1.379 . S
H771 C765 0.959 . S
H772 C765 0.961 . S
H773 C765 0.960 . S
H774 C766 0.930 . S
H775 C767 0.929 . S
H776 C784 0.929 . S
H777 C786 0.930 . S
H778 C788 0.930 . S
H779 C791 0.929 . S
H780 C794 0.930 . S
H781 C796 0.960 . S
H782 C796 0.960 . S
H783 C796 0.960 . S
C784 H776 0.929 . S
C784 C785 1.377 . S
C784 C786 1.384 . S
C785 C784 1.377 . S
C785 C791 1.390 . S
C786 H777 0.930 . S
C786 C784 1.384 . S
C786 C787 1.372 . S
C787 C786 1.372 . S
C787 C788 1.400 . S
C787 C792 1.490 1_554 S
C788 H778 0.930 . S
C788 C787 1.400 . S
C788 C791 1.386 . S
H789 C805 0.930 . S
H790 C806 0.931 . S
C791 H779 0.929 . S
C791 C785 1.390 . S
C791 C788 1.386 . S
C792 C787 1.490 1_556 S
C792 C794 1.395 . S
C792 C795 1.403 . S
H793 C799 0.930 . S
C794 H780 0.930 . S
C794 C792 1.395 . S
C794 C797 1.403 . S
C795 C792 1.403 . S
C795 C796 1.524 . S
C795 C799 1.400 . S
C796 H781 0.960 . S
C796 H782 0.960 . S
C796 H783 0.960 . S
C796 C795 1.524 . S
C797 C794 1.403 . S
C797 C798 1.392 . S
C797 C801 1.495 . S
C798 C797 1.392 . S
C798 C799 1.385 . S
C798 C800 1.478 . S
C799 H793 0.930 . S
C799 C795 1.400 . S
C799 C798 1.385 . S
C800 C798 1.478 . S
C800 C802 1.381 . S
C800 C806 1.383 . S
C801 C797 1.495 . S
C801 H807 0.959 . S
C801 H808 0.961 . S
C801 H809 0.960 . S
C802 C800 1.381 . S
C802 C803 1.394 . S
C802 H810 0.930 . S
C803 C802 1.394 . S
C803 C804 1.383 . S
C803 H811 0.929 . S
C804 C803 1.383 . S
C804 C805 1.377 . S
C805 H789 0.930 . S
C805 C804 1.377 . S
C805 C806 1.379 . S
C806 H790 0.931 . S
C806 C800 1.383 . S
C806 C805 1.379 . S
H807 C801 0.959 . S
H808 C801 0.961 . S
H809 C801 0.960 . S
H810 C802 0.930 . S
H811 C803 0.929 . S
H812 C820 0.929 . S
H813 C822 0.930 . S
H814 C824 0.930 . S
H815 C827 0.929 . S
H816 C830 0.930 . S
H817 C832 0.960 . S
H818 C832 0.960 . S
H819 C832 0.960 . S
C820 H812 0.929 . S
C820 C821 1.377 . S
C820 C822 1.384 . S
C821 C820 1.377 . S
C821 C827 1.390 . S
C822 H813 0.930 . S
C822 C820 1.384 . S
C822 C823 1.372 . S
C823 C822 1.372 . S
C823 C824 1.400 . S
C823 C828 1.490 . S
C824 H814 0.930 . S
C824 C823 1.400 . S
C824 C827 1.386 . S
H825 C841 0.930 . S
H826 C842 0.931 . S
C827 H815 0.929 . S
C827 C821 1.390 . S
C827 C824 1.386 . S
C828 C823 1.490 . S
C828 C830 1.395 . S
C828 C831 1.403 . S
H829 C835 0.930 . S
C830 H816 0.930 . S
C830 C828 1.395 . S
C830 C833 1.403 . S
C831 C828 1.403 . S
C831 C832 1.524 . S
C831 C835 1.400 . S
C832 H817 0.960 . S
C832 H818 0.960 . S
C832 H819 0.960 . S
C832 C831 1.524 . S
C833 C830 1.403 . S
C833 C834 1.392 . S
C833 C837 1.495 . S
C834 C833 1.392 . S
C834 C835 1.385 . S
C834 C836 1.478 . S
C835 H829 0.930 . S
C835 C831 1.400 . S
C835 C834 1.385 . S
C836 C834 1.478 . S
C836 C838 1.381 . S
C836 C842 1.383 . S
C837 C833 1.495 . S
C837 H843 0.959 . S
C837 H844 0.961 . S
C837 H845 0.960 . S
C838 C836 1.381 . S
C838 C839 1.394 . S
C838 H846 0.930 . S
C839 C838 1.394 . S
C839 C840 1.383 . S
C839 H847 0.929 . S
C840 C839 1.383 . S
C840 C841 1.377 . S
C841 H825 0.930 . S
C841 C840 1.377 . S
C841 C842 1.379 . S
C842 H826 0.931 . S
C842 C836 1.383 . S
C842 C841 1.379 . S
H843 C837 0.959 . S
H844 C837 0.961 . S
H845 C837 0.960 . S
H846 C838 0.930 . S
H847 C839 0.929 . S
H848 C856 0.929 . S
H849 C858 0.930 . S
H850 C860 0.930 . S
H851 C863 0.929 . S
H852 C866 0.930 . S
H853 C868 0.960 . S
H854 C868 0.960 . S
H855 C868 0.960 . S
C856 H848 0.929 . S
C856 C857 1.377 . S
C856 C858 1.384 . S
C857 C856 1.377 . S
C857 C863 1.390 . S
C858 H849 0.930 . S
C858 C856 1.384 . S
C858 C859 1.372 . S
C859 C858 1.372 . S
C859 C860 1.400 . S
C859 C864 1.490 . S
C860 H850 0.930 . S
C860 C859 1.400 . S
C860 C863 1.386 . S
H861 C877 0.930 . S
H862 C878 0.931 . S
C863 H851 0.929 . S
C863 C857 1.390 . S
C863 C860 1.386 . S
C864 C859 1.490 . S
C864 C866 1.395 . S
C864 C867 1.403 . S
H865 C871 0.930 . S
C866 H852 0.930 . S
C866 C864 1.395 . S
C866 C869 1.403 . S
C867 C864 1.403 . S
C867 C868 1.524 . S
C867 C871 1.400 . S
C868 H853 0.960 . S
C868 H854 0.960 . S
C868 H855 0.960 . S
C868 C867 1.524 . S
C869 C866 1.403 . S
C869 C870 1.392 . S
C869 C873 1.495 . S
C870 C869 1.392 . S
C870 C871 1.385 . S
C870 C872 1.478 . S
C871 H865 0.930 . S
C871 C867 1.400 . S
C871 C870 1.385 . S
C872 C870 1.478 . S
C872 C874 1.381 . S
C872 C878 1.383 . S
C873 C869 1.495 . S
C873 H879 0.959 . S
C873 H880 0.961 . S
C873 H881 0.960 . S
C874 C872 1.381 . S
C874 C875 1.394 . S
C874 H882 0.930 . S
C875 C874 1.394 . S
C875 C876 1.383 . S
C875 H883 0.929 . S
C876 C875 1.383 . S
C876 C877 1.377 . S
C877 H861 0.930 . S
C877 C876 1.377 . S
C877 C878 1.379 . S
C878 H862 0.931 . S
C878 C872 1.383 . S
C878 C877 1.379 . S
H879 C873 0.959 . S
H880 C873 0.961 . S
H881 C873 0.960 . S
H882 C874 0.930 . S
H883 C875 0.929 . S
H884 C892 0.929 . S
H885 C894 0.930 . S
H886 C896 0.930 . S
H887 C899 0.929 . S
H888 C902 0.930 . S
H889 C904 0.960 . S
H890 C904 0.960 . S
H891 C904 0.960 . S
C892 H884 0.929 . S
C892 C893 1.377 . S
C892 C894 1.384 . S
C893 C892 1.377 . S
C893 C899 1.390 . S
C894 H885 0.930 . S
C894 C892 1.384 . S
C894 C895 1.372 . S
C895 C894 1.372 . S
C895 C896 1.400 . S
C895 C900 1.490 1_556 S
C896 H886 0.930 . S
C896 C895 1.400 . S
C896 C899 1.386 . S
H897 C913 0.930 . S
H898 C914 0.931 . S
C899 H887 0.929 . S
C899 C893 1.390 . S
C899 C896 1.386 . S
C900 C895 1.490 1_554 S
C900 C902 1.395 . S
C900 C903 1.403 . S
H901 C907 0.930 . S
C902 H888 0.930 . S
C902 C900 1.395 . S
C902 C905 1.403 . S
C903 C900 1.403 . S
C903 C904 1.524 . S
C903 C907 1.400 . S
C904 H889 0.960 . S
C904 H890 0.960 . S
C904 H891 0.960 . S
C904 C903 1.524 . S
C905 C902 1.403 . S
C905 C906 1.392 . S
C905 C909 1.495 . S
C906 C905 1.392 . S
C906 C907 1.385 . S
C906 C908 1.478 . S
C907 H901 0.930 . S
C907 C903 1.400 . S
C907 C906 1.385 . S
C908 C906 1.478 . S
C908 C910 1.381 . S
C908 C914 1.383 . S
C909 C905 1.495 . S
C909 H915 0.959 . S
C909 H916 0.961 . S
C909 H917 0.960 . S
C910 C908 1.381 . S
C910 C911 1.394 . S
C910 H918 0.930 . S
C911 C910 1.394 . S
C911 C912 1.383 . S
C911 H919 0.929 . S
C912 C911 1.383 . S
C912 C913 1.377 . S
C913 H897 0.930 . S
C913 C912 1.377 . S
C913 C914 1.379 . S
C914 H898 0.931 . S
C914 C908 1.383 . S
C914 C913 1.379 . S
H915 C909 0.959 . S
H916 C909 0.961 . S
H917 C909 0.960 . S
H918 C910 0.930 . S
H919 C911 0.929 . S
H920 C928 0.929 . S
H921 C930 0.930 . S
H922 C932 0.930 . S
H923 C935 0.929 . S
H924 C938 0.930 . S
H925 C940 0.960 . S
H926 C940 0.960 . S
H927 C940 0.960 . S
C928 H920 0.929 . S
C928 C929 1.377 . S
C928 C930 1.384 . S
C929 C928 1.377 . S
C929 C935 1.390 . S
C930 H921 0.930 . S
C930 C928 1.384 . S
C930 C931 1.372 . S
C931 C930 1.372 . S
C931 C932 1.400 . S
C931 C936 1.490 . S
C932 H922 0.930 . S
C932 C931 1.400 . S
C932 C935 1.386 . S
H933 C949 0.930 . S
H934 C950 0.931 . S
C935 H923 0.929 . S
C935 C929 1.390 . S
C935 C932 1.386 . S
C936 C931 1.490 . S
C936 C938 1.395 . S
C936 C939 1.403 . S
H937 C943 0.930 . S
C938 H924 0.930 . S
C938 C936 1.395 . S
C938 C941 1.403 . S
C939 C936 1.403 . S
C939 C940 1.524 . S
C939 C943 1.400 . S
C940 H925 0.960 . S
C940 H926 0.960 . S
C940 H927 0.960 . S
C940 C939 1.524 . S
C941 C938 1.403 . S
C941 C942 1.392 . S
C941 C945 1.495 . S
C942 C941 1.392 . S
C942 C943 1.385 . S
C942 C944 1.478 . S
C943 H937 0.930 . S
C943 C939 1.400 . S
C943 C942 1.385 . S
C944 C942 1.478 . S
C944 C946 1.381 . S
C944 C950 1.383 . S
C945 C941 1.495 . S
C945 H951 0.959 . S
C945 H952 0.961 . S
C945 H953 0.960 . S
C946 C944 1.381 . S
C946 C947 1.394 . S
C946 H954 0.930 . S
C947 C946 1.394 . S
C947 C948 1.383 . S
C947 H955 0.929 . S
C948 C947 1.383 . S
C948 C949 1.377 . S
C949 H933 0.930 . S
C949 C948 1.377 . S
C949 C950 1.379 . S
C950 H934 0.931 . S
C950 C944 1.383 . S
C950 C949 1.379 . S
H951 C945 0.959 . S
H952 C945 0.961 . S
H953 C945 0.960 . S
H954 C946 0.930 . S
H955 C947 0.929 . S
H956 C964 0.929 . S
H957 C966 0.930 . S
H958 C968 0.930 . S
H959 C971 0.929 . S
H960 C974 0.930 . S
H961 C976 0.960 . S
H962 C976 0.960 . S
H963 C976 0.960 . S
C964 H956 0.929 . S
C964 C965 1.377 . S
C964 C966 1.384 . S
C965 C964 1.377 . S
C965 C971 1.390 . S
C966 H957 0.930 . S
C966 C964 1.384 . S
C966 C967 1.372 . S
C967 C966 1.372 . S
C967 C968 1.400 . S
C967 C972 1.490 . S
C968 H958 0.930 . S
C968 C967 1.400 . S
C968 C971 1.386 . S
H969 C985 0.930 . S
H970 C986 0.931 . S
C971 H959 0.929 . S
C971 C965 1.390 . S
C971 C968 1.386 . S
C972 C967 1.490 . S
C972 C974 1.395 . S
C972 C975 1.403 . S
H973 C979 0.930 . S
C974 H960 0.930 . S
C974 C972 1.395 . S
C974 C977 1.403 . S
C975 C972 1.403 . S
C975 C976 1.524 . S
C975 C979 1.400 . S
C976 H961 0.960 . S
C976 H962 0.960 . S
C976 H963 0.960 . S
C976 C975 1.524 . S
C977 C974 1.403 . S
C977 C978 1.392 . S
C977 C981 1.495 . S
C978 C977 1.392 . S
C978 C979 1.385 . S
C978 C980 1.478 1_554 S
C979 H973 0.930 . S
C979 C975 1.400 . S
C979 C978 1.385 . S
C980 C978 1.478 1_556 S
C980 C982 1.381 . S
C980 C986 1.383 . S
C981 C977 1.495 . S
C981 H987 0.959 . S
C981 H988 0.961 . S
C981 H989 0.960 . S
C982 C980 1.381 . S
C982 C983 1.394 . S
C982 H990 0.930 . S
C983 C982 1.394 . S
C983 C984 1.383 . S
C983 H991 0.929 . S
C984 C983 1.383 . S
C984 C985 1.377 . S
C985 H969 0.930 . S
C985 C984 1.377 . S
C985 C986 1.379 . S
C986 H970 0.931 . S
C986 C980 1.383 . S
C986 C985 1.379 . S
H987 C981 0.959 . S
H988 C981 0.961 . S
H989 C981 0.960 . S
H990 C982 0.930 . S
H991 C983 0.929 . S
C281 C258 1.497 . S
C300 C20 1.478 . S
C317 C156 1.491 . S
C336 C54 1.499 . S
C353 C88 1.491 . S
C372 C190 1.506 . S
C389 C224 1.495 . S
C408 C122 1.491 . S
C425 C33 1.106 . S
C444 C169 1.120 . S
C461 C203 1.111 . S
C480 C67 1.099 . S
C497 C237 1.107 . S
C516 C101 1.117 . S
C533 C271 1.109 . S
C552 C135 1.101 . S
C569 C240 1.722 . S
C588 C36 1.712 . S
C605 C70 1.721 . S
C624 C138 1.727 . S
C641 C104 1.719 . S
C660 C172 1.706 . S
C677 C206 1.720 . S
C696 C2 1.726 . S
C713 C9 0.985 . S
C732 C5 1.038 . S
C749 C39 1.036 . S
C768 C43 0.963 . S
C785 C73 1.036 . S
C804 C77 1.040 . S
C821 C111 1.001 . S
C840 C107 1.051 . S
C857 C141 1.043 . S
C876 C145 0.989 . S
C893 C175 1.034 . S
C912 C179 1.000 . S
C929 C209 1.034 . S
C948 C213 1.026 . S
C965 C247 1.005 . S
C984 C243 1.028 . S
