# Generated by pormake.
# Topology wiu, (6)-cn, num edge types: 1
# Building blocks:
#     Node 0, Type 0, BuildingBlock: BETDEL_clean_sbu_0, # of connection points: 6
#     Node 1, Type 0, BuildingBlock: BETDEL_clean_sbu_0, # of connection points: 6
#     Node 2, Type 0, BuildingBlock: BETDEL_clean_sbu_0, # of connection points: 6
#     Node 3, Type 0, BuildingBlock: BETDEL_clean_sbu_0, # of connection points: 6
#     Node 4, Type 0, BuildingBlock: BETDEL_clean_sbu_0, # of connection points: 6
#     Node 5, Type 0, BuildingBlock: BETDEL_clean_sbu_0, # of connection points: 6
#     Node 6, Type 0, BuildingBlock: BETDEL_clean_sbu_0, # of connection points: 6
#     Node 7, Type 0, BuildingBlock: BETDEL_clean_sbu_0, # of connection points: 6
#     Node 8, Type 0, BuildingBlock: BETDEL_clean_sbu_0, # of connection points: 6
#     Node 9, Type 0, BuildingBlock: BETDEL_clean_sbu_0, # of connection points: 6
#     Node 10, Type 0, BuildingBlock: BETDEL_clean_sbu_0, # of connection points: 6
#     Node 11, Type 0, BuildingBlock: BETDEL_clean_sbu_0, # of connection points: 6
#     Node 12, Type 0, BuildingBlock: BETDEL_clean_sbu_0, # of connection points: 6
#     Node 13, Type 0, BuildingBlock: BETDEL_clean_sbu_0, # of connection points: 6
#     Node 14, Type 0, BuildingBlock: BETDEL_clean_sbu_0, # of connection points: 6
#     Node 15, Type 0, BuildingBlock: BETDEL_clean_sbu_0, # of connection points: 6
#     Edge 16, Type (0, 0), BuildingBlock: KIFKEQ_clean_linker_1, # of connection points: 2
#     Edge 17, Type (0, 0), BuildingBlock: KIFKEQ_clean_linker_1, # of connection points: 2
#     Edge 18, Type (0, 0), BuildingBlock: KIFKEQ_clean_linker_1, # of connection points: 2
#     Edge 19, Type (0, 0), BuildingBlock: KIFKEQ_clean_linker_1, # of connection points: 2
#     Edge 20, Type (0, 0), BuildingBlock: KIFKEQ_clean_linker_1, # of connection points: 2
#     Edge 21, Type (0, 0), BuildingBlock: KIFKEQ_clean_linker_1, # of connection points: 2
#     Edge 22, Type (0, 0), BuildingBlock: KIFKEQ_clean_linker_1, # of connection points: 2
#     Edge 23, Type (0, 0), BuildingBlock: KIFKEQ_clean_linker_1, # of connection points: 2
#     Edge 24, Type (0, 0), BuildingBlock: KIFKEQ_clean_linker_1, # of connection points: 2
#     Edge 25, Type (0, 0), BuildingBlock: KIFKEQ_clean_linker_1, # of connection points: 2
#     Edge 26, Type (0, 0), BuildingBlock: KIFKEQ_clean_linker_1, # of connection points: 2
#     Edge 27, Type (0, 0), BuildingBlock: KIFKEQ_clean_linker_1, # of connection points: 2
#     Edge 28, Type (0, 0), BuildingBlock: KIFKEQ_clean_linker_1, # of connection points: 2
#     Edge 29, Type (0, 0), BuildingBlock: KIFKEQ_clean_linker_1, # of connection points: 2
#     Edge 30, Type (0, 0), BuildingBlock: KIFKEQ_clean_linker_1, # of connection points: 2
#     Edge 31, Type (0, 0), BuildingBlock: KIFKEQ_clean_linker_1, # of connection points: 2
#     Edge 32, Type (0, 0), BuildingBlock: KIFKEQ_clean_linker_1, # of connection points: 2
#     Edge 33, Type (0, 0), BuildingBlock: KIFKEQ_clean_linker_1, # of connection points: 2
#     Edge 34, Type (0, 0), BuildingBlock: KIFKEQ_clean_linker_1, # of connection points: 2
#     Edge 35, Type (0, 0), BuildingBlock: KIFKEQ_clean_linker_1, # of connection points: 2
#     Edge 36, Type (0, 0), BuildingBlock: KIFKEQ_clean_linker_1, # of connection points: 2
#     Edge 37, Type (0, 0), BuildingBlock: KIFKEQ_clean_linker_1, # of connection points: 2
#     Edge 38, Type (0, 0), BuildingBlock: KIFKEQ_clean_linker_1, # of connection points: 2
#     Edge 39, Type (0, 0), BuildingBlock: KIFKEQ_clean_linker_1, # of connection points: 2
#     Edge 40, Type (0, 0), BuildingBlock: KIFKEQ_clean_linker_1, # of connection points: 2
#     Edge 41, Type (0, 0), BuildingBlock: KIFKEQ_clean_linker_1, # of connection points: 2
#     Edge 42, Type (0, 0), BuildingBlock: KIFKEQ_clean_linker_1, # of connection points: 2
#     Edge 43, Type (0, 0), BuildingBlock: KIFKEQ_clean_linker_1, # of connection points: 2
#     Edge 44, Type (0, 0), BuildingBlock: KIFKEQ_clean_linker_1, # of connection points: 2
#     Edge 45, Type (0, 0), BuildingBlock: KIFKEQ_clean_linker_1, # of connection points: 2
#     Edge 46, Type (0, 0), BuildingBlock: KIFKEQ_clean_linker_1, # of connection points: 2
#     Edge 47, Type (0, 0), BuildingBlock: KIFKEQ_clean_linker_1, # of connection points: 2
#     Edge 48, Type (0, 0), BuildingBlock: KIFKEQ_clean_linker_1, # of connection points: 2
#     Edge 49, Type (0, 0), BuildingBlock: KIFKEQ_clean_linker_1, # of connection points: 2
#     Edge 50, Type (0, 0), BuildingBlock: KIFKEQ_clean_linker_1, # of connection points: 2
#     Edge 51, Type (0, 0), BuildingBlock: KIFKEQ_clean_linker_1, # of connection points: 2
#     Edge 52, Type (0, 0), BuildingBlock: KIFKEQ_clean_linker_1, # of connection points: 2
#     Edge 53, Type (0, 0), BuildingBlock: KIFKEQ_clean_linker_1, # of connection points: 2
#     Edge 54, Type (0, 0), BuildingBlock: KIFKEQ_clean_linker_1, # of connection points: 2
#     Edge 55, Type (0, 0), BuildingBlock: KIFKEQ_clean_linker_1, # of connection points: 2
#     Edge 56, Type (0, 0), BuildingBlock: KIFKEQ_clean_linker_1, # of connection points: 2
#     Edge 57, Type (0, 0), BuildingBlock: KIFKEQ_clean_linker_1, # of connection points: 2
#     Edge 58, Type (0, 0), BuildingBlock: KIFKEQ_clean_linker_1, # of connection points: 2
#     Edge 59, Type (0, 0), BuildingBlock: KIFKEQ_clean_linker_1, # of connection points: 2
#     Edge 60, Type (0, 0), BuildingBlock: KIFKEQ_clean_linker_1, # of connection points: 2
#     Edge 61, Type (0, 0), BuildingBlock: KIFKEQ_clean_linker_1, # of connection points: 2
#     Edge 62, Type (0, 0), BuildingBlock: KIFKEQ_clean_linker_1, # of connection points: 2
#     Edge 63, Type (0, 0), BuildingBlock: KIFKEQ_clean_linker_1, # of connection points: 2
# Relax obj value: 0.303
# Max RMSD: 0.279
# Mean RMSD: 0.279
data_MOF--net-wiu--node1-BETDEL_clean_sbu_0--edge1-KIFKEQ_clean_linker_1
_symmetry_space_group_name_H-M    P1
_symmetry_Int_Tables_number       1
_symmetry_cell_setting            triclinic
loop_
_symmetry_equiv_pos_as_xyz
'x, y, z'
_cell_length_a     32.246721
_cell_length_b     32.294209
_cell_length_c     57.869854
_cell_angle_alpha  89.853403
_cell_angle_beta   89.914453
_cell_angle_gamma 89.845067
loop_
_atom_site_label
_atom_site_type_symbol
_atom_site_fract_x
_atom_site_fract_y
_atom_site_fract_z
_atom_type_partial_charge
Dy0 Dy 0.28359 0.14163 0.14627 0.0
C1 C 0.39419 0.02362 0.11252 0.0
C2 C 0.24669 0.20939 0.16521 0.0
Dy3 Dy 0.33082 0.06591 0.13204 0.0
O4 O 0.28353 0.19595 0.16999 0.0
O5 O 0.22882 0.18463 0.1506 0.0
O6 O 0.32618 0.17874 0.12393 0.0
O7 O 0.34954 0.12814 0.14229 0.0
C8 C 0.35872 0.15666 0.12828 0.0
C9 C 0.25425 0.05033 0.14722 0.0
O10 O 0.34623 0.06328 0.16912 0.0
O11 O 0.29346 0.10752 0.18062 0.0
O12 O 0.35614 0.01028 0.11332 0.0
O13 O 0.3972 0.05908 0.12273 0.0
O14 O 0.28449 0.02368 0.14962 0.0
O15 O 0.26587 0.08062 0.13532 0.0
O16 O 0.25667 0.13431 0.11045 0.0
O17 O 0.30724 0.08873 0.09759 0.0
C18 C 0.32313 0.07993 0.1855 0.0
C19 C 0.27457 0.11279 0.09354 0.0
Dy20 Dy 0.58031 0.52288 0.39567 0.0
C21 C 0.68742 0.64497 0.36255 0.0
C22 C 0.5182 0.47427 0.41252 0.0
Dy23 Dy 0.65229 0.57829 0.38302 0.0
O24 O 0.53964 0.50031 0.42458 0.0
O25 O 0.53227 0.47327 0.39155 0.0
O26 O 0.53791 0.56446 0.3757 0.0
O27 O 0.58788 0.59001 0.39324 0.0
C28 C 0.55832 0.59793 0.37972 0.0
C29 C 0.67398 0.50342 0.39841 0.0
O30 O 0.64889 0.59408 0.42033 0.0
O31 O 0.61156 0.5353 0.43041 0.0
O32 O 0.70774 0.61163 0.3684 0.0
O33 O 0.64877 0.6418 0.36834 0.0
O34 O 0.69855 0.53531 0.40054 0.0
O35 O 0.64347 0.51259 0.38607 0.0
O36 O 0.59628 0.49564 0.36081 0.0
O37 O 0.63557 0.55118 0.34819 0.0
C38 C 0.63424 0.56826 0.43614 0.0
C39 C 0.61581 0.51594 0.34399 0.0
Dy40 Dy 0.19767 0.83277 0.64882 0.0
C41 C 0.08819 0.95139 0.61152 0.0
C42 C 0.24145 0.77026 0.6688 0.0
Dy43 Dy 0.14591 0.90521 0.63381 0.0
O44 O 0.2536 0.79117 0.65085 0.0
O45 O 0.20642 0.78476 0.67622 0.0
O46 O 0.15929 0.7908 0.62725 0.0
O47 O 0.13072 0.84119 0.64331 0.0
C48 C 0.12503 0.8111 0.62978 0.0
C49 C 0.22012 0.92539 0.65076 0.0
O50 O 0.12755 0.90493 0.67092 0.0
O51 O 0.18449 0.86626 0.68259 0.0
O52 O 0.12761 0.95926 0.61178 0.0
O53 O 0.08019 0.91905 0.62406 0.0
O54 O 0.18848 0.95045 0.65216 0.0
O55 O 0.21126 0.89489 0.63849 0.0
O56 O 0.22697 0.84462 0.61406 0.0
O57 O 0.17 0.8799 0.59993 0.0
C58 C 0.1519 0.89017 0.6874 0.0
C59 C 0.20621 0.86123 0.59651 0.0
Dy60 Dy 0.8932 0.44603 0.89581 0.0
C61 C 0.77217 0.34317 0.85599 0.0
C62 C 0.95738 0.48584 0.91657 0.0
Dy63 Dy 0.81917 0.39847 0.87917 0.0
O64 O 0.9349 0.50138 0.90006 0.0
O65 O 0.9437 0.44951 0.92214 0.0
O66 O 0.93392 0.40645 0.87391 0.0
O67 O 0.88191 0.37998 0.88948 0.0
C68 C 0.91225 0.37308 0.87619 0.0
C69 C 0.80105 0.47261 0.89668 0.0
O70 O 0.81518 0.3801 0.91613 0.0
O71 O 0.8583 0.43237 0.92929 0.0
O72 O 0.76636 0.38294 0.85576 0.0
O73 O 0.80286 0.33358 0.86946 0.0
O74 O 0.77449 0.44227 0.89706 0.0
O75 O 0.83205 0.46287 0.88486 0.0
O76 O 0.88418 0.47692 0.86106 0.0
O77 O 0.84682 0.42253 0.84586 0.0
C78 C 0.83113 0.40206 0.93321 0.0
C79 C 0.86707 0.45791 0.8431 0.0
Dy80 Dy 0.64927 0.90437 0.96397 0.0
C81 C 0.74269 0.77038 0.9271 0.0
C82 C 0.59275 0.95026 0.98726 0.0
Dy83 Dy 0.70012 0.83252 0.94809 0.0
O84 O 0.63252 0.95592 0.98792 0.0
O85 O 0.58376 0.92038 0.97323 0.0
O86 O 0.69148 0.95043 0.94584 0.0
O87 O 0.71449 0.89417 0.95865 0.0
C88 C 0.72302 0.92519 0.94663 0.0
C89 C 0.62796 0.81039 0.96786 0.0
O90 O 0.73051 0.84334 0.98262 0.0
O91 O 0.67358 0.87752 0.9975 0.0
O92 O 0.75586 0.79087 0.94491 0.0
O93 O 0.70727 0.78501 0.92042 0.0
O94 O 0.66241 0.79029 0.97007 0.0
O95 O 0.63329 0.84067 0.95431 0.0
O96 O 0.63027 0.90592 0.927 0.0
O97 O 0.68656 0.86715 0.91462 0.0
C98 C 0.71005 0.85916 1.00049 0.0
C99 C 0.65415 0.89155 0.91022 0.0
Dy100 Dy 0.31902 0.39759 0.71422 0.0
C101 C 0.4549 0.49026 0.67808 0.0
C102 C 0.27228 0.34083 0.73669 0.0
Dy103 Dy 0.39191 0.4478 0.69843 0.0
O104 O 0.26449 0.38024 0.73608 0.0
O105 O 0.30495 0.33234 0.7245 0.0
O106 O 0.27367 0.44048 0.69611 0.0
O107 O 0.33009 0.46262 0.70913 0.0
C108 C 0.29914 0.47166 0.69712 0.0
C109 C 0.41254 0.37457 0.71749 0.0
O110 O 0.38157 0.47727 0.73325 0.0
O111 O 0.34521 0.42151 0.74788 0.0
O112 O 0.43331 0.50358 0.69551 0.0
O113 O 0.44091 0.45472 0.67138 0.0
O114 O 0.43352 0.40829 0.71999 0.0
O115 O 0.38243 0.38127 0.70407 0.0
O116 O 0.31833 0.37895 0.67721 0.0
O117 O 0.35733 0.43508 0.66494 0.0
C118 C 0.36474 0.4572 0.75099 0.0
C119 C 0.33293 0.40285 0.66049 0.0
Dy120 Dy 0.8286 0.06905 0.46331 0.0
C121 C 0.73313 0.20406 0.4272 0.0
C122 C 0.8937 0.03469 0.48576 0.0
Dy123 Dy 0.7755 0.14079 0.44763 0.0
O124 O 0.86051 0.01438 0.47987 0.0
O125 O 0.8912 0.07281 0.47899 0.0
O126 O 0.7862 0.02202 0.44677 0.0
O127 O 0.76291 0.07881 0.45906 0.0
C128 C 0.75426 0.04695 0.44771 0.0
C129 C 0.84967 0.16233 0.46474 0.0
O130 O 0.74802 0.13229 0.48344 0.0
O131 O 0.8 0.08896 0.49708 0.0
O132 O 0.719 0.18168 0.44416 0.0
O133 O 0.76913 0.19034 0.42089 0.0
O134 O 0.81585 0.18291 0.46825 0.0
O135 O 0.84223 0.132 0.4517 0.0
O136 O 0.84569 0.06763 0.42623 0.0
O137 O 0.78857 0.10576 0.41411 0.0
C138 C 0.76613 0.11153 0.50064 0.0
C139 C 0.821 0.08125 0.4096 0.0
Dy140 Dy 0.15329 0.57964 0.21344 0.0
C141 C 0.02265 0.47802 0.17745 0.0
C142 C 0.18635 0.64609 0.23512 0.0
Dy143 Dy 0.08361 0.52301 0.19796 0.0
O144 O 0.20574 0.61108 0.23211 0.0
O145 O 0.14993 0.64469 0.22583 0.0
O146 O 0.20223 0.53865 0.19679 0.0
O147 O 0.14623 0.51398 0.20922 0.0
C148 C 0.17832 0.50608 0.19784 0.0
C149 C 0.05868 0.5961 0.21521 0.0
O150 O 0.0961 0.49482 0.23308 0.0
O151 O 0.13157 0.55162 0.24731 0.0
O152 O 0.04225 0.46698 0.1961 0.0
O153 O 0.03808 0.51223 0.16957 0.0
O154 O 0.03909 0.5617 0.21832 0.0
O155 O 0.08942 0.58989 0.20218 0.0
O156 O 0.15349 0.59598 0.17599 0.0
O157 O 0.11863 0.5366 0.16456 0.0
C158 C 0.11303 0.51533 0.25061 0.0
C159 C 0.1409 0.57026 0.15965 0.0
Dy160 Dy 0.77811 0.64342 0.64515 0.0
C161 C 0.88291 0.52099 0.60837 0.0
C162 C 0.7326 0.70742 0.66261 0.0
Dy163 Dy 0.82676 0.56942 0.6303 0.0
O164 O 0.76018 0.68646 0.67401 0.0
O165 O 0.72859 0.69204 0.64211 0.0
O166 O 0.81855 0.68456 0.62404 0.0
O167 O 0.84482 0.63276 0.63967 0.0
C168 C 0.85191 0.66284 0.62629 0.0
C169 C 0.75278 0.55174 0.64852 0.0
O170 O 0.84595 0.56844 0.66704 0.0
O171 O 0.79325 0.61188 0.67966 0.0
O172 O 0.84338 0.51377 0.60923 0.0
O173 O 0.89181 0.554 0.62004 0.0
O174 O 0.78386 0.52596 0.64969 0.0
O175 O 0.7617 0.58167 0.63572 0.0
O176 O 0.74678 0.62946 0.61103 0.0
O177 O 0.80227 0.59307 0.59629 0.0
C178 C 0.82406 0.58521 0.68396 0.0
C179 C 0.76613 0.61187 0.59326 0.0
Dy180 Dy 0.08303 0.02508 0.89872 0.0
C181 C 0.18577 0.14707 0.86165 0.0
C182 C 0.02256 0.97948 0.9193 0.0
Dy183 Dy 0.15288 0.08096 0.88361 0.0
O184 O 0.04389 0.96765 0.90141 0.0
O185 O 0.03587 0.01501 0.92639 0.0
O186 O 0.03869 0.0641 0.87865 0.0
O187 O 0.0891 0.09219 0.89489 0.0
C188 C 0.05829 0.09841 0.88189 0.0
C189 C 0.17725 0.0066 0.89853 0.0
O190 O 0.15156 0.09805 0.92078 0.0
O191 O 0.1183 0.03772 0.93205 0.0
O192 O 0.20745 0.11554 0.86889 0.0
O193 O 0.14697 0.14232 0.86666 0.0
O194 O 0.20124 0.03901 0.90001 0.0
O195 O 0.14537 0.0152 0.88715 0.0
O196 O 0.09207 -0.00086 0.86281 0.0
O197 O 0.13436 0.05221 0.84958 0.0
C198 C 0.13981 0.07174 0.93707 0.0
C199 C 0.11228 0.0182 0.84577 0.0
Dy200 Dy 0.70248 0.33124 0.14622 0.0
C201 C 0.58142 0.4399 0.11191 0.0
C202 C 0.74642 0.2684 0.16585 0.0
Dy203 Dy 0.64793 0.40337 0.1319 0.0
O204 O 0.7581 0.28896 0.14765 0.0
O205 O 0.71196 0.28352 0.17368 0.0
O206 O 0.66168 0.28956 0.1255 0.0
O207 O 0.63554 0.33977 0.14285 0.0
C208 C 0.62798 0.31008 0.12943 0.0
C209 C 0.72303 0.42485 0.14676 0.0
O210 O 0.63311 0.40328 0.16945 0.0
O211 O 0.69164 0.36578 0.18003 0.0
O212 O 0.61765 0.45726 0.11384 0.0
O213 O 0.5817 0.40351 0.12133 0.0
O214 O 0.69144 0.45014 0.14828 0.0
O215 O 0.71344 0.39357 0.13525 0.0
O216 O 0.72934 0.34282 0.11078 0.0
O217 O 0.67327 0.38111 0.0975 0.0
C218 C 0.65897 0.38928 0.18542 0.0
C219 C 0.7086 0.36089 0.09362 0.0
Dy220 Dy 0.38912 0.93941 0.39662 0.0
C221 C 0.25888 0.84424 0.36033 0.0
C222 C 0.45817 0.9739 0.41538 0.0
Dy223 Dy 0.31067 0.89758 0.38202 0.0
O224 O 0.44561 0.93636 0.41882 0.0
O225 O 0.43211 -0.00648 0.40213 0.0
O226 O 0.42386 0.8967 0.37335 0.0
O227 O 0.37235 0.87439 0.39138 0.0
C228 C 0.40052 0.8649 0.37714 0.0
C229 C 0.30014 0.97428 0.39839 0.0
O230 O 0.3079 0.87977 0.41892 0.0
O231 O 0.35571 0.9286 0.43098 0.0
O232 O 0.2559 0.88432 0.35934 0.0
O233 O 0.28922 0.83355 0.37377 0.0
O234 O 0.27175 0.94587 0.40066 0.0
O235 O 0.32914 0.96108 0.38608 0.0
O236 O 0.38171 0.96894 0.3615 0.0
O237 O 0.33807 0.91791 0.34788 0.0
C238 C 0.32664 0.9004 0.43558 0.0
C239 C 0.36153 0.95099 0.34422 0.0
Dy240 Dy 0.14442 0.40014 0.46346 0.0
C241 C 0.25491 0.273 0.43224 0.0
C242 C 0.07687 0.43384 0.48381 0.0
Dy243 Dy 0.20151 0.33106 0.44922 0.0
O244 O 0.10961 0.45483 0.47781 0.0
O245 O 0.08119 0.39522 0.47839 0.0
O246 O 0.1877 0.44809 0.44783 0.0
O247 O 0.21064 0.3926 0.46193 0.0
C248 C 0.22019 0.42454 0.45092 0.0
C249 C 0.12638 0.30543 0.46314 0.0
O250 O 0.22479 0.34075 0.48572 0.0
O251 O 0.16962 0.38074 0.49828 0.0
O252 O 0.25708 0.28952 0.45256 0.0
O253 O 0.22467 0.28978 0.42079 0.0
O254 O 0.16027 0.28494 0.4665 0.0
O255 O 0.13399 0.33702 0.45103 0.0
O256 O 0.13036 0.4013 0.42605 0.0
O257 O 0.18993 0.36579 0.41525 0.0
C258 C 0.20402 0.35947 0.50263 0.0
C259 C 0.15695 0.38912 0.41 0.0
Dy260 Dy 0.82022 0.8955 0.21419 0.0
C261 C 0.95598 -0.00601 0.18169 0.0
C262 C 0.77364 0.83911 0.23719 0.0
Dy263 Dy 0.89346 0.94566 0.19839 0.0
O264 O 0.76648 0.87867 0.23682 0.0
O265 O 0.80542 0.83026 0.22433 0.0
O266 O 0.77513 0.93883 0.1961 0.0
O267 O 0.83172 0.96054 0.20897 0.0
C268 C 0.80097 0.96974 0.19687 0.0
C269 C 0.91406 0.87152 0.21655 0.0
O270 O 0.87869 0.97618 0.23257 0.0
O271 O 0.84717 0.91843 0.24776 0.0
O272 O 0.93549 0.96712 0.16964 0.0
O273 O 0.94097 -0.00444 0.20242 0.0
O274 O 0.9361 0.90461 0.21841 0.0
O275 O 0.8835 0.87897 0.20362 0.0
O276 O 0.81825 0.87771 0.17717 0.0
O277 O 0.86105 0.93081 0.16432 0.0
C278 C 0.86423 0.9553 0.25065 0.0
C279 C 0.83443 0.90008 0.16021 0.0
Dy280 Dy 0.32963 0.5665 0.96451 0.0
C281 C 0.24826 0.70971 0.92983 0.0
C282 C 0.38392 0.51626 0.98682 0.0
Dy283 Dy 0.28437 0.64205 0.94947 0.0
O284 O 0.34389 0.51247 0.98753 0.0
O285 O 0.3942 0.54672 0.97336 0.0
O286 O 0.28551 0.5243 0.94555 0.0
O287 O 0.26482 0.58091 0.95908 0.0
C288 C 0.25507 0.55083 0.9466 0.0
C289 C 0.35709 0.65806 0.9702 0.0
O290 O 0.25384 0.63335 0.9844 0.0
O291 O 0.30621 0.59142 0.99839 0.0
O292 O 0.28545 0.69653 0.92566 0.0
O293 O 0.22977 0.68485 0.94421 0.0
O294 O 0.32349 0.67927 0.9732 0.0
O295 O 0.35035 0.62934 0.95588 0.0
O296 O 0.34882 0.56436 0.92777 0.0
O297 O 0.29745 0.60925 0.91525 0.0
C298 C 0.27191 0.61326 1.00179 0.0
C299 C 0.3273 0.58167 0.9109 0.0
Dy300 Dy 0.65271 0.08036 0.71236 0.0
C301 C 0.51907 0.98216 0.67946 0.0
C302 C 0.6887 0.14662 0.73246 0.0
Dy303 Dy 0.58179 0.02578 0.69906 0.0
O304 O 0.70841 0.11265 0.72727 0.0
O305 O 0.6502 0.14414 0.72642 0.0
O306 O 0.69898 0.03716 0.69527 0.0
O307 O 0.6442 0.01434 0.71038 0.0
C308 C 0.67543 0.00487 0.69863 0.0
C309 C 0.55897 0.09995 0.71546 0.0
O310 O 0.59074 0.00105 0.73525 0.0
O311 O 0.63413 0.05398 0.74718 0.0
O312 O 0.54165 0.96888 0.69657 0.0
O313 O 0.53225 0.01797 0.67265 0.0
O314 O 0.53935 0.06595 0.71968 0.0
O315 O 0.58882 0.09282 0.7019 0.0
O316 O 0.65089 0.09627 0.67501 0.0
O317 O 0.61593 0.03645 0.665 0.0
C318 C 0.61161 0.0205 0.75179 0.0
C319 C 0.63777 0.06991 0.65921 0.0
H320 H 0.42461 0.14814 0.1575 0.0
H321 H 0.38627 0.20621 0.0937 0.0
H322 H 0.48958 0.18757 0.15636 0.0
H323 H 0.45192 0.24446 0.09221 0.0
H324 H 0.60444 0.25658 0.09595 0.0
H325 H 0.53946 0.21732 0.09386 0.0
H326 H 0.49533 0.27899 0.1552 0.0
H327 H 0.55966 0.31938 0.1569 0.0
C328 C 0.43055 0.16852 0.14297 0.0
C329 C 0.40059 0.17424 0.12567 0.0
C330 C 0.46743 0.19125 0.14244 0.0
C331 C 0.47525 0.21915 0.12431 0.0
C332 C 0.44633 0.22317 0.10637 0.0
C333 C 0.40903 0.20125 0.10719 0.0
C334 C 0.58049 0.26225 0.10872 0.0
C335 C 0.58688 0.29095 0.12655 0.0
C336 C 0.54355 0.23977 0.10755 0.0
C337 C 0.51294 0.24496 0.12453 0.0
C338 C 0.51882 0.27437 0.14204 0.0
C339 C 0.55534 0.29762 0.14289 0.0
H340 H 0.56457 0.66512 0.40812 0.0
H341 H 0.50711 0.62216 0.3453 0.0
H342 H 0.52289 0.72881 0.40619 0.0
H343 H 0.46655 0.68639 0.34299 0.0
H344 H 0.44756 0.83589 0.34195 0.0
H345 H 0.48727 0.77099 0.34104 0.0
H346 H 0.43534 0.73632 0.40703 0.0
H347 H 0.39452 0.80055 0.40761 0.0
C348 C 0.54374 0.66975 0.39367 0.0
C349 C 0.5389 0.63891 0.37685 0.0
C350 C 0.51971 0.70586 0.39269 0.0
C351 C 0.49136 0.71202 0.37457 0.0
C352 C 0.48813 0.68214 0.35714 0.0
C353 C 0.51136 0.64562 0.35843 0.0
C354 C 0.44389 0.81385 0.35594 0.0
C355 C 0.41788 0.82293 0.37476 0.0
C356 C 0.4667 0.77699 0.35548 0.0
C357 C 0.46463 0.74921 0.37411 0.0
C358 C 0.43761 0.75761 0.39258 0.0
C359 C 0.41399 0.79401 0.39278 0.0
H360 H 0.11146 0.73565 0.61074 0.0
H361 H 0.04742 0.84082 0.64007 0.0
H362 H 0.04602 0.69845 0.60778 0.0
H363 H 0.98155 0.80356 0.63677 0.0
H364 H 0.86833 0.73734 0.60666 0.0
H365 H 0.93428 0.77393 0.60551 0.0
H366 H -0.00534 0.66875 0.63722 0.0
H367 H 0.92819 0.63204 0.63867 0.0
C368 C 0.0833 0.75102 0.61634 0.0
C369 C 0.08453 0.79112 0.62575 0.0
C370 C 0.04591 0.72956 0.61475 0.0
C371 C 0.00882 0.74796 0.6222 0.0
C372 C 0.00974 0.78869 0.63081 0.0
C373 C 0.04734 0.81003 0.6327 0.0
C374 C 0.89572 0.72179 0.61321 0.0
C375 C 0.89309 0.68191 0.62293 0.0
C376 C 0.93339 0.74291 0.61267 0.0
C377 C 0.96943 0.7244 0.6215 0.0
C378 C 0.96728 0.68372 0.63025 0.0
C379 C 0.92935 0.6627 0.63107 0.0
H380 H 0.9845 0.11317 0.86093 0.0
H381 H 0.08671 0.17525 0.89419 0.0
H382 H 0.94794 0.17908 0.85712 0.0
H383 H 0.05032 0.2415 0.8899 0.0
H384 H -0.01173 0.35616 0.85826 0.0
H385 H 0.02431 0.2897 0.85763 0.0
H386 H 0.91584 0.23023 0.88607 0.0
H387 H 0.87972 0.29711 0.88704 0.0
C388 C -0.00063 0.14099 0.8672 0.0
C389 C 0.03851 0.1391 0.87785 0.0
C390 C 0.97831 0.17864 0.8651 0.0
C391 C -0.00379 0.2153 0.87328 0.0
C392 C 0.03594 0.21368 0.88329 0.0
C393 C 0.05679 0.17584 0.88571 0.0
C394 C 0.97188 0.32886 0.86416 0.0
C395 C 0.93124 0.33184 0.87287 0.0
C396 C -0.00733 0.29089 0.86391 0.0
C397 C 0.97304 0.25497 0.87201 0.0
C398 C 0.93166 0.2575 0.87967 0.0
C399 C 0.91099 0.29569 0.88022 0.0
H400 H 0.5498 0.8395 0.95821 0.0
H401 H 0.61552 0.73411 0.98632 0.0
H402 H 0.48448 0.80108 0.96135 0.0
H403 H 0.55068 0.6958 0.98908 0.0
H404 H 0.43381 0.62911 0.95723 0.0
H405 H 0.4997 0.66681 0.95906 0.0
H406 H 0.4379 0.76896 0.99271 0.0
H407 H 0.37255 0.73136 0.99124 0.0
C408 C 0.55021 0.8084 0.96527 0.0
C409 C 0.58773 0.78977 0.9719 0.0
C410 C 0.51293 0.78642 0.96707 0.0
C411 C 0.51268 0.74531 0.97525 0.0
C412 C 0.55006 0.72719 0.98243 0.0
C413 C 0.58711 0.7493 0.98096 0.0
C414 C 0.43454 0.65929 0.96535 0.0
C415 C 0.39803 0.67738 0.97393 0.0
C416 C 0.47214 0.68087 0.96638 0.0
C417 C 0.47369 0.72104 0.97577 0.0
C418 C 0.43745 0.73837 0.98507 0.0
C419 C 0.40013 0.71665 0.98434 0.0
H420 H 0.48595 0.11611 0.737 0.0
H421 H 0.58706 0.17592 0.70111 0.0
H422 H 0.44945 0.18222 0.73962 0.0
H423 H 0.55079 0.24242 0.70429 0.0
H424 H 0.48897 0.35861 0.73505 0.0
H425 H 0.52531 0.29232 0.7364 0.0
H426 H 0.41695 0.23151 0.70909 0.0
H427 H 0.38059 0.29823 0.7073 0.0
C428 C 0.50062 0.14348 0.72991 0.0
C429 C 0.53941 0.14088 0.71885 0.0
C430 C 0.47959 0.18123 0.73133 0.0
C431 C 0.49722 0.21729 0.72208 0.0
C432 C 0.53664 0.21504 0.7117 0.0
C433 C 0.55743 0.17707 0.70992 0.0
C434 C 0.47269 0.33107 0.72952 0.0
C435 C 0.43197 0.33358 0.72094 0.0
C436 C 0.49364 0.29321 0.73019 0.0
C437 C 0.47407 0.25696 0.72267 0.0
C438 C 0.43269 0.25908 0.71505 0.0
C439 C 0.41189 0.29715 0.71404 0.0
H440 H 0.10951 0.23029 0.48184 0.0
H441 H 0.05043 0.3363 0.45011 0.0
H442 H 0.04285 0.19492 0.48379 0.0
H443 H 0.9833 0.30107 0.45265 0.0
H444 H 0.86694 0.23735 0.4835 0.0
H445 H 0.9336 0.27298 0.48443 0.0
H446 H -0.00773 0.16691 0.45289 0.0
H447 H 0.92527 0.13149 0.4514 0.0
C448 C 0.08219 0.24622 0.47548 0.0
C449 C 0.08516 0.28611 0.46583 0.0
C450 C 0.04411 0.22585 0.47654 0.0
C451 C 0.00803 0.24518 0.4683 0.0
C452 C 0.01068 0.28559 0.45926 0.0
C453 C 0.04901 0.30577 0.45785 0.0
C454 C 0.8941 0.22147 0.47691 0.0
C455 C 0.89092 0.18156 0.46741 0.0
C456 C 0.93216 0.24201 0.47734 0.0
C457 C 0.96796 0.22279 0.46863 0.0
C458 C 0.96511 0.18233 0.45983 0.0
C459 C 0.92685 0.16201 0.45904 0.0
H460 H 0.98452 0.61137 0.23592 0.0
H461 H 0.08649 0.67231 0.20145 0.0
H462 H 0.9476 0.67743 0.2385 0.0
H463 H 0.05004 0.73852 0.20467 0.0
H464 H -0.0109 0.85406 0.23521 0.0
H465 H 0.0242 0.78722 0.23699 0.0
H466 H 0.91613 0.72828 0.2081 0.0
H467 H 0.88092 0.79567 0.20593 0.0
C468 C -0.0007 0.63897 0.22918 0.0
C469 C 0.03856 0.63676 0.21863 0.0
C470 C 0.97805 0.67665 0.23057 0.0
C471 C -0.00404 0.71296 0.22178 0.0
C472 C 0.0357 0.71098 0.21179 0.0
C473 C 0.05666 0.67316 0.21004 0.0
C474 C 0.97259 0.82683 0.22942 0.0
C475 C 0.93237 0.83008 0.22024 0.0
C476 C -0.00718 0.78864 0.23036 0.0
C477 C 0.97304 0.75276 0.22248 0.0
C478 C 0.93201 0.75556 0.21434 0.0
C479 C 0.91189 0.79402 0.21309 0.0
H480 H 0.46909 0.05768 0.10532 0.0
H481 H 0.39205 0.95457 0.08534 0.0
H482 H 0.51713 0.04176 0.07455 0.0
H483 H 0.44197 0.9366 0.0551 0.0
H484 H 0.50863 0.94781 0.98644 0.0
H485 H 0.46195 0.96295 1.01858 0.0
H486 H 0.56739 -0.00255 0.06051 0.0
H487 H 0.61316 0.98505 1.02798 0.0
C488 C 0.46314 0.03073 0.09471 0.0
C489 C 0.42682 0.00747 0.09748 0.0
C490 C 0.49081 0.0215 0.07707 0.0
C491 C 0.48318 -0.0118 0.06214 0.0
C492 C 0.44813 0.96315 0.06595 0.0
C493 C 0.41992 0.97293 0.08344 0.0
C494 C 0.52142 0.95965 1.00241 0.0
C495 C 0.56417 0.96575 1.0048 0.0
C496 C 0.49492 0.96756 1.02093 0.0
C497 C 0.51099 0.98083 1.04224 0.0
C498 C 0.55384 -0.01219 1.0443 0.0
C499 C 0.58011 0.98083 1.02564 0.0
H500 H 0.64434 0.71138 0.34758 0.0
H501 H 0.76391 0.65139 0.34252 0.0
H502 H 0.66326 0.75841 0.31664 0.0
H503 H 0.78385 0.69996 0.31198 0.0
H504 H 0.78551 0.75602 0.24005 0.0
H505 H 0.76579 0.71089 0.27209 0.0
H506 H 0.70597 0.81451 0.30583 0.0
H507 H 0.72411 0.85888 0.27336 0.0
C508 C 0.67514 0.70897 0.34018 0.0
C509 C 0.70267 0.67771 0.34724 0.0
C510 C 0.68602 0.73601 0.32248 0.0
C511 C 0.72485 0.73258 0.31166 0.0
C512 C 0.75332 0.7027 0.31965 0.0
C513 C 0.74222 0.67531 0.3373 0.0
C514 C 0.76738 0.76876 0.25413 0.0
C515 C 0.75608 0.81069 0.25429 0.0
C516 C 0.75669 0.74318 0.27262 0.0
C517 C 0.73493 0.75931 0.29166 0.0
C518 C 0.72248 0.80105 0.29136 0.0
C519 C 0.73274 0.82645 0.27275 0.0
H520 H 0.00513 0.93874 0.60919 0.0
H521 H 0.10677 0.00146 0.57544 0.0
H522 H 0.95928 0.95815 0.57742 0.0
H523 H 0.0618 0.01915 0.54322 0.0
H524 H 0.95878 0.0787 0.5011 0.0
H525 H 0.00522 0.06091 0.53245 0.0
H526 H 0.94816 0.94012 0.5377 0.0
H527 H 0.89995 0.95905 0.50678 0.0
C528 C 0.01742 0.95711 0.59508 0.0
C529 C 0.05922 0.96887 0.59469 0.0
C530 C -0.00855 0.96762 0.57674 0.0
C531 C 0.00709 -0.01039 0.55764 0.0
C532 C 0.04868 0.00252 0.55775 0.0
C533 C 0.07444 -0.0075 0.57622 0.0
C534 C 0.95648 0.04812 0.50876 0.0
C535 C 0.92577 0.02021 0.5017 0.0
C536 C 0.9832 0.03789 0.52669 0.0
C537 C 0.98012 -0.00073 0.53772 0.0
C538 C 0.95063 0.9705 0.52985 0.0
C539 C 0.92347 0.98099 0.51199 0.0
H540 H 0.72692 0.36357 0.81829 0.0
H541 H 0.7802 0.25962 0.85492 0.0
H542 H 0.70994 0.31859 0.78603 0.0
H543 H 0.76156 0.214 0.82308 0.0
H544 H 0.7639 0.15137 0.7539 0.0
H545 H 0.78334 0.20094 0.78387 0.0
H546 H 0.66568 0.26372 0.77512 0.0
H547 H 0.64735 0.21564 0.74476 0.0
C548 C 0.73395 0.33083 0.81965 0.0
C549 C 0.75476 0.31485 0.83897 0.0
C550 C 0.72439 0.3051 0.80117 0.0
C551 C 0.73498 0.26288 0.80189 0.0
C552 C 0.75404 0.24662 0.82178 0.0
C553 C 0.76407 0.2725 0.84014 0.0
C554 C 0.74284 0.17645 0.75808 0.0
C555 C 0.70418 0.17975 0.74724 0.0
C556 C 0.7536 0.20441 0.77539 0.0
C557 C 0.72568 0.23575 0.7821 0.0
C558 C 0.68796 0.24013 0.77028 0.0
C559 C 0.67743 0.2125 0.75293 0.0
H560 H 0.22021 0.36001 0.7718 0.0
H561 H 0.28534 0.25806 0.73979 0.0
H562 H 0.20137 0.31557 0.80413 0.0
H563 H 0.26505 0.2129 0.77169 0.0
H564 H 0.26287 0.15575 0.84276 0.0
H565 H 0.28244 0.20422 0.81209 0.0
H566 H 0.15945 0.25795 0.81428 0.0
H567 H 0.14076 0.21101 0.84532 0.0
C568 C 0.2295 0.32775 0.77143 0.0
C569 C 0.25415 0.31226 0.75345 0.0
C570 C 0.21886 0.30235 0.78995 0.0
C571 C 0.23229 0.26094 0.79058 0.0
C572 C 0.25521 0.24499 0.77194 0.0
C573 C 0.26624 0.27056 0.75354 0.0
C574 C 0.24053 0.17862 0.83695 0.0
C575 C 0.20039 0.17972 0.84619 0.0
C576 C 0.25144 0.20591 0.81925 0.0
C577 C 0.22221 0.23438 0.81057 0.0
C578 C 0.18272 0.23658 0.82068 0.0
C579 C 0.17199 0.20961 0.83841 0.0
H580 H 0.26094 0.76043 0.36133 0.0
H581 H 0.21632 0.86458 0.32146 0.0
H582 H 0.24318 0.71391 0.32977 0.0
H583 H 0.19995 0.81842 0.28951 0.0
H584 H 0.14305 0.71533 0.24539 0.0
H585 H 0.15635 0.76356 0.27665 0.0
H586 H 0.27111 0.69956 0.29194 0.0
H587 H 0.25679 0.65014 0.26107 0.0
C588 C 0.24668 0.77319 0.34593 0.0
C589 C 0.23997 0.81592 0.34371 0.0
C590 C 0.23713 0.74673 0.32774 0.0
C591 C 0.22109 0.76264 0.30696 0.0
C592 C 0.2122 0.8052 0.30531 0.0
C593 C 0.2214 0.83162 0.32362 0.0
C594 C 0.17144 0.71195 0.25523 0.0
C595 C 0.19888 0.679 0.25099 0.0
C596 C 0.17905 0.7396 0.27313 0.0
C597 C 0.21443 0.73499 0.28699 0.0
C598 C 0.24302 0.70325 0.2819 0.0
C599 C 0.23522 0.67534 0.26406 0.0
H600 H 0.01129 0.38978 0.49888 0.0
H601 H 0.0685 0.51037 0.50308 0.0
H602 H 0.9639 0.40826 0.52979 0.0
H603 H 0.01967 0.52975 0.53357 0.0
H604 H 0.96607 0.53137 0.6056 0.0
H605 H 0.0109 0.51077 0.57365 0.0
H606 H 0.90687 0.4508 0.54069 0.0
H607 H 0.86267 0.46995 0.57311 0.0
C608 C 0.01299 0.42068 0.50608 0.0
C609 C 0.04363 0.44864 0.49886 0.0
C610 C 0.98578 0.43127 0.52375 0.0
C611 C -0.01147 0.47019 0.53434 0.0
C612 C 0.01758 0.49913 0.52608 0.0
C613 C 0.0451 0.48834 0.50847 0.0
C614 C 0.95318 0.51298 0.59173 0.0
C615 C 0.91116 0.5021 0.59169 0.0
C616 C 0.97857 0.50179 0.5733 0.0
C617 C 0.96215 0.47995 0.55446 0.0
C618 C 0.92044 0.4675 0.555 0.0
C619 C 0.89518 0.47829 0.57357 0.0
H620 H 0.51058 0.39925 0.10225 0.0
H621 H 0.57837 0.51107 0.08652 0.0
H622 H 0.46243 0.41416 0.07114 0.0
H623 H 0.5288 0.52726 0.05588 0.0
H624 H 0.46787 0.51872 0.98633 0.0
H625 H 0.514 0.50069 1.01817 0.0
H626 H 0.40866 0.45806 0.05796 0.0
H627 H 0.36307 0.47433 1.02571 0.0
C628 C 0.51448 0.42765 0.09248 0.0
C629 C 0.54823 0.45395 0.09656 0.0
C630 C 0.48685 0.4362 0.07466 0.0
C631 C 0.49221 0.47151 0.06081 0.0
C632 C 0.52457 0.49919 0.06589 0.0
C633 C 0.55255 0.49034 0.0836 0.0
C634 C 0.4549 0.50453 1.00171 0.0
C635 C 0.41215 0.4978 1.00369 0.0
C636 C 0.48111 0.49486 1.02005 0.0
C637 C 0.46483 0.47883 1.04076 0.0
C638 C 0.4222 0.47022 1.04221 0.0
C639 C 0.3961 0.47937 1.02373 0.0
H640 H 0.1779 0.25014 0.14948 0.0
H641 H 0.28527 0.26374 0.19332 0.0
H642 H 0.16168 0.32367 0.15467 0.0
H643 H 0.26902 0.33678 0.19863 0.0
H644 H 0.25335 0.47437 0.18377 0.0
H645 H 0.26857 0.40151 0.1749 0.0
H646 H 0.13963 0.37087 0.1858 0.0
H647 H 0.12463 0.4429 0.19431 0.0
C648 C 0.19752 0.26869 0.16053 0.0
C649 C 0.23268 0.25139 0.17106 0.0
C650 C 0.18846 0.31072 0.16339 0.0
C651 C 0.21454 0.33602 0.17675 0.0
C652 C 0.24895 0.31826 0.18781 0.0
C653 C 0.25788 0.27634 0.18503 0.0
C654 C 0.22837 0.45202 0.1839 0.0
C655 C 0.18799 0.46399 0.18989 0.0
C656 C 0.23701 0.41043 0.17902 0.0
C657 C 0.20525 0.38055 0.17986 0.0
C658 C 0.16463 0.39315 0.18486 0.0
C659 C 0.15614 0.43439 0.18986 0.0
H660 H 0.48385 0.47553 0.45536 0.0
H661 H 0.45837 0.44382 0.38431 0.0
H662 H 0.41065 0.46588 0.4649 0.0
H663 H 0.38505 0.43454 0.39385 0.0
H664 H 0.25168 0.47458 0.41672 0.0
H665 H 0.32564 0.48437 0.40743 0.0
H666 H 0.35921 0.40649 0.46528 0.0
H667 H 0.28642 0.39677 0.4744 0.0
C668 C 0.46272 0.46566 0.44193 0.0
C669 C 0.47663 0.46018 0.41917 0.0
C670 C 0.42089 0.46048 0.44732 0.0
C671 C 0.3923 0.45019 0.42998 0.0
C672 C 0.40647 0.44322 0.40739 0.0
C673 C 0.44843 0.44787 0.40206 0.0
C674 C 0.27507 0.46018 0.42752 0.0
C675 C 0.2636 0.435 0.4462 0.0
C676 C 0.31713 0.46536 0.42213 0.0
C677 C 0.34789 0.44597 0.43565 0.0
C678 C 0.33614 0.4219 0.45469 0.0
C679 C 0.29446 0.41628 0.45982 0.0
H680 H 0.21133 0.71973 0.70214 0.0
H681 H 0.30437 0.72725 0.64849 0.0
H682 H 0.22535 0.64591 0.70656 0.0
H683 H 0.31836 0.65318 0.6529 0.0
H684 H 0.35663 0.5298 0.68928 0.0
H685 H 0.34562 0.60331 0.68247 0.0
H686 H 0.21323 0.58313 0.68093 0.0
H687 H 0.22452 0.50888 0.6879 0.0
C688 C 0.23535 0.7057 0.69163 0.0
C689 C 0.25676 0.72896 0.67495 0.0
C690 C 0.24288 0.66343 0.69391 0.0
C691 C 0.27216 0.64387 0.67967 0.0
C692 C 0.29542 0.66762 0.66397 0.0
C693 C 0.28769 0.70995 0.66158 0.0
C694 C 0.32522 0.541 0.68714 0.0
C695 C 0.29136 0.51405 0.68929 0.0
C696 C 0.31897 0.58298 0.68318 0.0
C697 C 0.27863 0.59881 0.68148 0.0
C698 C 0.24466 0.57156 0.68254 0.0
C699 C 0.25102 0.52923 0.68628 0.0
H700 H 0.01051 0.4496 0.94661 0.0
H701 H -0.00279 0.55504 0.9011 0.0
H702 H 0.08339 0.46644 0.95237 0.0
H703 H 0.07044 0.57198 0.90691 0.0
H704 H 0.1928 0.60667 0.94541 0.0
H705 H 0.11942 0.59377 0.93864 0.0
H706 H 0.14651 0.4647 0.92605 0.0
H707 H 0.22036 0.47771 0.93288 0.0
C708 C 0.02304 0.47681 0.93817 0.0
C709 C -0.00158 0.50102 0.92338 0.0
C710 C 0.06482 0.4861 0.94123 0.0
C711 C 0.08259 0.51997 0.92971 0.0
C712 C 0.05741 0.54559 0.91592 0.0
C713 C 0.01557 0.53607 0.9127 0.0
C714 C 0.18312 0.57563 0.94093 0.0
C715 C 0.212 0.54305 0.93979 0.0
C716 C 0.14119 0.56834 0.93701 0.0
C717 C 0.12737 0.52823 0.93208 0.0
C718 C 0.15645 0.49583 0.93017 0.0
C719 C 0.19859 0.50325 0.93387 0.0
H720 H 0.85865 0.53172 0.90183 0.0
H721 H 0.72709 0.50948 0.90771 0.0
H722 H 0.84756 0.60511 0.90885 0.0
H723 H 0.71579 0.58358 0.91484 0.0
H724 H 0.71028 0.72049 0.89435 0.0
H725 H 0.7249 0.64706 0.88894 0.0
H726 H 0.8225 0.65384 0.93983 0.0
H727 H 0.80783 0.72754 0.9453 0.0
C728 C 0.82738 0.54258 0.90496 0.0
C729 C 0.79364 0.51526 0.9041 0.0
C730 C 0.8211 0.58451 0.90903 0.0
C731 C 0.78086 0.59989 0.91211 0.0
C732 C 0.74711 0.57233 0.91216 0.0
C733 C 0.7535 0.53009 0.90831 0.0
C734 C 0.7354 0.70647 0.90404 0.0
C735 C 0.75792 0.72944 0.92028 0.0
C736 C 0.74332 0.66441 0.90118 0.0
C737 C 0.77412 0.64481 0.91437 0.0
C738 C 0.7984 0.66834 0.92958 0.0
C739 C 0.79026 0.71044 0.93257 0.0
H740 H 0.50679 0.45785 0.64608 0.0
H741 H 0.49603 0.55617 0.69626 0.0
H742 H 0.58015 0.47355 0.64109 0.0
H743 H 0.56972 0.57193 0.69122 0.0
H744 H 0.69277 0.60895 0.6535 0.0
H745 H 0.61925 0.59711 0.66046 0.0
H746 H 0.64299 0.46593 0.66744 0.0
H747 H 0.71706 0.4779 0.66035 0.0
C748 C 0.51998 0.48334 0.65571 0.0
C749 C 0.49597 0.50578 0.6716 0.0
C750 C 0.56201 0.4919 0.65308 0.0
C751 C 0.5806 0.52326 0.66617 0.0
C752 C 0.55603 0.54741 0.68104 0.0
C753 C 0.51394 0.53862 0.6838 0.0
C754 C 0.68232 0.57763 0.65683 0.0
C755 C 0.71022 0.54419 0.65621 0.0
C756 C 0.64034 0.57095 0.66088 0.0
C757 C 0.62555 0.53063 0.66417 0.0
C758 C 0.65375 0.49728 0.66458 0.0
C759 C 0.69598 0.50407 0.66076 0.0
H760 H 0.76682 0.25633 0.39583 0.0
H761 H 0.66756 0.24628 0.44573 0.0
H762 H 0.75237 0.33 0.39138 0.0
H763 H 0.65296 0.32034 0.44119 0.0
H764 H 0.61684 0.44373 0.40359 0.0
H765 H 0.62847 0.37035 0.41072 0.0
H766 H 0.75991 0.39298 0.4173 0.0
H767 H 0.74809 0.4671 0.41006 0.0
C768 C 0.74139 0.26976 0.40553 0.0
C769 C 0.71826 0.24572 0.42113 0.0
C770 C 0.73356 0.31201 0.40323 0.0
C771 C 0.7022 0.33093 0.41632 0.0
C772 C 0.67749 0.30646 0.43099 0.0
C773 C 0.68558 0.26412 0.43345 0.0
C774 C 0.64819 0.43311 0.40686 0.0
C775 C 0.68171 0.46079 0.40609 0.0
C776 C 0.65476 0.39116 0.41103 0.0
C777 C 0.69506 0.37601 0.4143 0.0
C778 C 0.72854 0.40396 0.4145 0.0
C779 C 0.72185 0.44624 0.41058 0.0
H780 H 0.78102 0.36681 0.15456 0.0
H781 H 0.76109 0.49898 0.1558 0.0
H782 H 0.85452 0.37679 0.16196 0.0
H783 H 0.83542 0.50922 0.16325 0.0
H784 H 0.97368 0.50835 0.14341 0.0
H785 H 0.89976 0.49577 0.13825 0.0
H786 H 0.90332 0.40372 0.19249 0.0
H787 H 0.97751 0.41649 0.19778 0.0
C788 C 0.79242 0.39803 0.15672 0.0
C789 C 0.76568 0.43218 0.15446 0.0
C790 C 0.83443 0.40369 0.16103 0.0
C791 C 0.85061 0.44371 0.16292 0.0
C792 C 0.82361 0.47801 0.16155 0.0
C793 C 0.78122 0.47224 0.15751 0.0
C794 C 0.95886 0.48485 0.15393 0.0
C795 C 0.98119 0.46336 0.171 0.0
C796 C 0.91649 0.47814 0.1512 0.0
C797 C 0.8958 0.4495 0.16533 0.0
C798 C 0.9186 0.42619 0.18148 0.0
C799 C 0.96102 0.4332 0.18437 0.0
H800 H 0.69912 0.76569 0.63437 0.0
H801 H 0.73675 0.74347 0.70495 0.0
H802 H 0.68792 0.83888 0.64323 0.0
H803 H 0.72476 0.81662 0.71388 0.0
H804 H 0.64799 0.93838 0.72208 0.0
H805 H 0.66045 0.86569 0.71375 0.0
H806 H 0.73838 0.90005 0.65611 0.0
H807 H 0.7262 0.97381 0.66471 0.0
C808 C 0.70414 0.77632 0.65189 0.0
C809 C 0.71858 0.74908 0.66906 0.0
C810 C 0.69832 0.8182 0.65682 0.0
C811 C 0.70612 0.83323 0.6791 0.0
C812 C 0.71874 0.80562 0.69654 0.0
C813 C 0.72527 0.76387 0.6915 0.0
C814 C 0.66806 0.93053 0.70771 0.0
C815 C 0.68624 0.96154 0.69398 0.0
C816 C 0.67524 0.88895 0.70304 0.0
C817 C 0.70021 0.87749 0.68432 0.0
C818 C 0.71878 0.90839 0.6706 0.0
C819 C 0.71215 0.95033 0.67556 0.0
H820 H 0.76113 -0.00025 0.9388 0.0
H821 H 0.77996 0.86748 0.93665 0.0
H822 H 0.83563 0.01005 0.93189 0.0
H823 H 0.85368 0.87745 0.93001 0.0
H824 H 0.97918 0.91822 0.89795 0.0
H825 H 0.90474 0.90546 0.90176 0.0
H826 H 0.89806 -0.00511 0.95704 0.0
H827 H 0.97219 0.0077 0.95321 0.0
C828 C 0.78106 0.97305 0.93638 0.0
C829 C 0.76526 0.93289 0.93844 0.0
C830 C 0.82355 0.97881 0.9327 0.0
C831 C 0.85033 0.94444 0.93076 0.0
C832 C 0.83379 0.90442 0.93141 0.0
C833 C 0.79167 0.89875 0.93529 0.0
C834 C 0.96193 0.93428 0.91129 0.0
C835 C 0.98122 0.96395 0.92526 0.0
C836 C 0.91937 0.92731 0.91332 0.0
C837 C 0.89564 0.95003 0.92929 0.0
C838 C 0.9155 0.97785 0.94416 0.0
C839 C 0.95798 0.98464 0.94222 0.0
H840 H 0.72702 0.00761 0.18687 0.0
H841 H 0.85941 0.02709 0.18887 0.0
H842 H 0.71672 0.08173 0.17906 0.0
H843 H 0.84926 0.10055 0.18113 0.0
H844 H 0.80855 0.22408 0.14544 0.0
H845 H 0.82213 0.14996 0.15053 0.0
H846 H 0.72975 0.14504 0.20458 0.0
H847 H 0.71635 0.21881 0.19961 0.0
C848 C 0.75379 0.0276 0.18521 0.0
C849 C 0.79388 0.01206 0.18864 0.0
C850 C 0.74798 0.06986 0.18097 0.0
C851 C 0.78226 0.09672 0.17979 0.0
C852 C 0.82239 0.08051 0.18192 0.0
C853 C 0.82812 0.03858 0.18642 0.0
C854 C 0.79194 0.20728 0.15875 0.0
C855 C 0.7614 0.22696 0.17211 0.0
C856 C 0.79942 0.16493 0.16153 0.0
C857 C 0.77621 0.14182 0.17756 0.0
C858 C 0.74727 0.16205 0.19171 0.0
C859 C 0.74008 0.20432 0.18909 0.0
H860 H 0.72368 0.97325 0.43181 0.0
H861 H 0.68873 0.09903 0.44816 0.0
H862 H 0.65089 0.95716 0.42359 0.0
H863 H 0.61652 0.08303 0.4403 0.0
H864 H 0.49598 0.04616 0.40284 0.0
H865 H 0.56887 0.06429 0.40879 0.0
H866 H 0.58708 0.95096 0.44738 0.0
H867 H 0.51469 0.93279 0.44124 0.0
C868 C 0.70051 -0.00258 0.43346 0.0
C869 C 0.71161 0.0372 0.44075 0.0
C870 C 0.65894 -0.01176 0.42893 0.0
C871 C 0.62806 0.01883 0.43149 0.0
C872 C 0.63961 0.05894 0.43802 0.0
C873 C 0.68094 0.068 0.44263 0.0
C874 C 0.51551 0.02555 0.41287 0.0
C875 C 0.49987 -0.01182 0.42161 0.0
C876 C 0.55717 0.03577 0.4162 0.0
C877 C 0.58374 0.00868 0.42825 0.0
C878 C 0.56757 0.97196 0.43758 0.0
C879 C 0.52603 0.96184 0.43431 0.0
H880 H 0.25832 0.23657 0.39004 0.0
H881 H 0.28799 0.21708 0.46204 0.0
H882 H 0.27177 0.1632 0.38236 0.0
H883 H 0.30021 0.14355 0.45442 0.0
H884 H 0.24865 0.01074 0.43022 0.0
H885 H 0.24376 0.08527 0.43889 0.0
H886 H 0.33691 0.11074 0.38719 0.0
H887 H 0.34249 0.03719 0.37889 0.0
C888 C 0.26867 0.21679 0.40405 0.0
C889 C 0.27232 0.23231 0.42656 0.0
C890 C 0.27602 0.17493 0.39972 0.0
C891 C 0.28625 0.14801 0.41794 0.0
C892 C 0.29181 0.16385 0.44023 0.0
C893 C 0.28537 0.20589 0.44447 0.0
C894 C 0.26799 0.0324 0.42082 0.0
C895 C 0.2958 0.0184 0.40392 0.0
C896 C 0.26544 0.07473 0.42584 0.0
C897 C 0.29009 0.1033 0.41365 0.0
C898 C 0.31764 0.08919 0.39673 0.0
C899 C 0.32077 0.04711 0.39206 0.0
H900 H -0.00775 -0.00506 0.13911 0.0
H901 H 0.01305 0.02653 0.21066 0.0
H902 H 0.06536 0.00939 0.13058 0.0
H903 H 0.08609 0.03974 0.20221 0.0
H904 H 0.22069 -0.00338 0.17875 0.0
H905 H 0.14644 0.98648 0.1869 0.0
H906 H 0.11538 0.07626 0.13429 0.0
H907 H 0.18881 0.08708 0.12652 0.0
C908 C 0.01227 0.00565 0.15286 0.0
C909 C -0.00283 0.00977 0.17548 0.0
C910 C 0.05396 0.01361 0.14804 0.0
C911 C 0.08111 0.02493 0.16588 0.0
C912 C 0.06569 0.03046 0.18831 0.0
C913 C 0.0239 0.02338 0.19303 0.0
C914 C 0.19787 0.014 0.16898 0.0
C915 C 0.21027 0.04255 0.15208 0.0
C916 C 0.15566 0.00842 0.17368 0.0
C917 C 0.12558 0.03069 0.16115 0.0
C918 C 0.13809 0.0587 0.14405 0.0
C919 C 0.18006 0.0649 0.13972 0.0
H920 H 0.12475 0.94205 0.89905 0.0
H921 H 0.2517 0.97517 0.91359 0.0
H922 H 0.14039 0.8698 0.90679 0.0
H923 H 0.26755 0.90209 0.92161 0.0
H924 H 0.28842 0.76523 0.90287 0.0
H925 H 0.27128 0.83811 0.89733 0.0
H926 H 0.16037 0.82217 0.93834 0.0
H927 H 0.17746 0.74889 0.94377 0.0
C928 C 0.15598 0.93384 0.90418 0.0
C929 C 0.18716 0.96402 0.90559 0.0
C930 C 0.16484 0.89247 0.90872 0.0
C931 C 0.20518 0.88033 0.91467 0.0
C932 C 0.23625 0.91068 0.91676 0.0
C933 C 0.22723 0.95238 0.91235 0.0
C934 C 0.26007 0.77718 0.91044 0.0
C935 C 0.23412 0.75156 0.92368 0.0
C936 C 0.25061 0.81899 0.90753 0.0
C937 C 0.2149 0.83589 0.91772 0.0
C938 C 0.18812 0.80988 0.9303 0.0
C939 C 0.19772 0.76799 0.93329 0.0
H940 H 0.46759 0.01312 0.64694 0.0
H941 H 0.47645 0.91865 0.69972 0.0
H942 H 0.39376 -0.00062 0.64291 0.0
H943 H 0.40216 0.90468 0.69555 0.0
H944 H 0.27884 0.86772 0.65774 0.0
H945 H 0.3522 0.87847 0.66525 0.0
H946 H 0.33082 0.01039 0.66915 0.0
H947 H 0.2567 -0.00063 0.66157 0.0
C948 C 0.45385 -0.01116 0.65737 0.0
C949 C 0.47757 0.96693 0.67366 0.0
C950 C 0.41153 0.98146 0.6553 0.0
C951 C 0.39224 0.95174 0.66933 0.0
C952 C 0.41639 0.92802 0.68467 0.0
C953 C 0.45883 0.93568 0.6869 0.0
C954 C 0.28971 0.89895 0.66056 0.0
C955 C 0.26245 0.9328 0.65889 0.0
C956 C 0.33162 0.90504 0.66494 0.0
C957 C 0.34711 0.94521 0.6675 0.0
C958 C 0.31952 0.97909 0.66692 0.0
C959 C 0.27726 0.97288 0.66279 0.0
H960 H 0.29068 0.05684 0.05936 0.0
H961 H 0.2122 0.16166 0.07525 0.0
H962 H 0.25467 0.04769 1.02283 0.0
H963 H 0.17644 0.15266 1.03815 0.0
H964 H 0.1634 0.14521 0.95635 0.0
H965 H 0.19398 0.1568 0.99442 0.0
H966 H 0.18157 0.02673 1.01007 0.0
H967 H 0.15042 0.01512 0.97205 0.0
C968 C 0.26602 0.07831 0.05501 0.0
C969 C 0.25452 0.11016 0.07036 0.0
C970 C 0.24508 0.07271 1.03409 0.0
C971 C 0.21242 0.09915 1.02765 0.0
C972 C 0.2015 0.13175 1.04263 0.0
C973 C 0.22203 0.13694 0.06386 0.0
C974 C 0.16671 0.11912 0.968 0.0
C975 C 0.15447 0.07918 0.9611 0.0
C976 C 0.1841 0.12585 0.98987 0.0
C977 C 0.19044 0.09269 1.00524 0.0
C978 C 0.1774 0.05288 0.99854 0.0
C979 C 0.15928 0.04627 0.97682 0.0
H980 H 0.71664 0.39822 0.21997 0.0
H981 H 0.58607 0.41268 0.20562 0.0
H982 H 0.70579 0.4275 0.25861 0.0
H983 H 0.57522 0.44118 0.24425 0.0
H984 H 0.56992 0.45309 0.32482 0.0
H985 H 0.58028 0.41957 0.28725 0.0
H986 H 0.68413 0.49994 0.27354 0.0
H987 H 0.67347 0.53387 0.31072 0.0
C988 C 0.68557 0.40703 0.22517 0.0
C989 C 0.65226 0.40312 0.20968 0.0
C990 C 0.67939 0.42408 0.24723 0.0
C991 C 0.63963 0.43678 0.25449 0.0
C992 C 0.60615 0.43151 0.23927 0.0
C993 C 0.61245 0.4153 0.21709 0.0
C994 C 0.59482 0.46375 0.31374 0.0
C995 C 0.62067 0.49637 0.32081 0.0
C996 C 0.60075 0.44455 0.29222 0.0
C997 C 0.63323 0.45689 0.27746 0.0
C998 C 0.65914 0.48937 0.28458 0.0
C999 C 0.65273 0.50907 0.30585 0.0
H1000 H 0.16772 0.87877 0.55563 0.0
H1001 H 0.28805 0.85007 0.58424 0.0
H1002 H 0.19894 0.88783 0.5176 0.0
H1003 H 0.31945 0.85938 0.54591 0.0
H1004 H 0.35941 0.9291 0.47683 0.0
H1005 H 0.33211 0.91767 0.51604 0.0
H1006 H 0.23317 0.84366 0.48794 0.0
H1007 H 0.25997 0.85469 0.44927 0.0
C1008 C 0.20084 0.87406 0.5538 0.0
C1009 C 0.22526 0.86338 0.57304 0.0
C1010 C 0.21876 0.87924 0.53194 0.0
C1011 C 0.26175 0.87438 0.52866 0.0
C1012 C 0.28631 0.86366 0.54787 0.0
C1013 C 0.26822 0.8579 0.56977 0.0
C1014 C 0.33197 0.91025 0.47906 0.0
C1015 C 0.31198 0.89298 0.45975 0.0
C1016 C 0.31643 0.90353 0.50154 0.0
C1017 C 0.28026 0.87993 0.50513 0.0
C1018 C 0.26074 0.8624 0.48583 0.0
C1019 C 0.27639 0.86864 0.46357 0.0
H1020 H 0.87506 0.52172 0.69684 0.0
H1021 H 0.79303 0.61408 0.72579 0.0
H1022 H 0.8875 0.49358 0.73508 0.0
H1023 H 0.80611 0.58555 0.7646 0.0
H1024 H 0.87571 0.54071 0.83244 0.0
H1025 H 0.86579 0.57424 0.79466 0.0
H1026 H 0.84372 0.45484 0.76381 0.0
H1027 H 0.85314 0.42157 0.80131 0.0
C1028 C 0.8598 0.5364 0.71136 0.0
C1029 C 0.83283 0.57033 0.70801 0.0
C1030 C 0.86689 0.51996 0.73338 0.0
C1031 C 0.84768 0.53705 0.75296 0.0
C1032 C 0.82157 0.57174 0.74988 0.0
C1033 C 0.81395 0.588 0.72763 0.0
C1034 C 0.86927 0.52161 0.81752 0.0
C1035 C 0.86559 0.47834 0.81993 0.0
C1036 C 0.8631 0.54089 0.79593 0.0
C1037 C 0.85389 0.51728 0.77617 0.0
C1038 C 0.85106 0.474 0.77858 0.0
C1039 C 0.8565 0.45488 0.80013 0.0
H1040 H 0.86397 0.93074 0.11853 0.0
H1041 H 0.76993 0.85066 0.14734 0.0
H1042 H 0.83575 0.91846 0.07971 0.0
H1043 H 0.74204 0.83891 0.10898 0.0
H1044 H 0.67223 0.87339 1.04202 0.0
H1045 H 0.70434 0.88229 0.0798 0.0
H1046 H 0.82489 0.85991 0.04981 0.0
H1047 H 0.7926 0.85058 1.01179 0.0
C1048 C 0.83753 0.91043 0.11665 0.0
C1049 C 0.81935 0.8918 0.13621 0.0
C1050 C 0.82146 0.90325 0.09438 0.0
C1051 C 0.78644 0.87785 0.09121 0.0
C1052 C 0.76871 0.85897 0.11075 0.0
C1053 C 0.78499 0.86563 0.13283 0.0
C1054 C 0.70555 0.86992 1.04344 0.0
C1055 C 0.72972 0.86094 1.02381 0.0
C1056 C 0.72399 0.87501 0.06516 0.0
C1057 C 0.76726 0.87189 0.06789 0.0
C1058 C 0.79154 0.86281 0.0483 0.0
C1059 C 0.77296 0.85703 1.02656 0.0
H1060 H 0.37473 0.51564 0.89781 0.0
H1061 H 0.29745 0.61261 0.86937 0.0
H1062 H 0.38553 0.48761 0.85939 0.0
H1063 H 0.30878 0.58424 0.83046 0.0
H1064 H 0.37582 0.53914 0.76242 0.0
H1065 H 0.36728 0.57144 0.80048 0.0
H1066 H 0.34069 0.4518 0.83027 0.0
H1067 H 0.34881 0.41967 0.79243 0.0
C1068 C 0.36019 0.53131 0.88336 0.0
C1069 C 0.33507 0.56654 0.88686 0.0
C1070 C 0.36628 0.51495 0.86125 0.0
C1071 C 0.3479 0.53346 0.8418 0.0
C1072 C 0.32359 0.56933 0.84508 0.0
C1073 C 0.31695 0.5855 0.86738 0.0
C1074 C 0.36858 0.51968 0.77714 0.0
C1075 C 0.36328 0.4767 0.77433 0.0
C1076 C 0.36326 0.53829 0.79891 0.0
C1077 C 0.35325 0.51426 0.81846 0.0
C1078 C 0.34871 0.47123 0.81566 0.0
C1079 C 0.35334 0.45278 0.79391 0.0
H1080 H 0.65973 0.14312 0.63886 0.0
H1081 H 0.6464 0.01278 0.62437 0.0
H1082 H 0.68761 0.1544 0.60005 0.0
H1083 H 0.67489 0.02408 0.58556 0.0
H1084 H 0.78207 0.05469 0.53445 0.0
H1085 H 0.74698 0.0451 0.57126 0.0
H1086 H 0.66805 0.14995 0.55662 0.0
H1087 H 0.70295 0.15937 0.51916 0.0
C1088 C 0.66239 0.11689 0.62732 0.0
C1089 C 0.65087 0.07698 0.63479 0.0
C1090 C 0.6782 0.12346 0.60501 0.0
C1091 C 0.68367 0.09017 0.58971 0.0
C1092 C 0.67132 0.05037 0.59699 0.0
C1093 C 0.65474 0.04391 0.61917 0.0
C1094 C 0.75736 0.07598 0.53896 0.0
C1095 C 0.74556 0.10802 0.52372 0.0
C1096 C 0.73695 0.07013 0.56006 0.0
C1097 C 0.70447 0.09648 0.56685 0.0
C1098 C 0.69299 0.12908 0.55189 0.0
C1099 C 0.71299 0.13451 0.53044 0.0
H1100 H 0.19178 0.36245 0.3687 0.0
H1101 H 0.10677 0.45287 0.39686 0.0
H1102 H 0.17978 0.39116 0.32978 0.0
H1103 H 0.09542 0.48126 0.35853 0.0
H1104 H 0.12779 0.55298 0.29199 0.0
H1105 H 0.13893 0.52073 0.32966 0.0
H1106 H 0.11936 0.40016 0.29973 0.0
H1107 H 0.10769 0.43257 0.26184 0.0
C1108 C 0.1706 0.38828 0.36665 0.0
C1109 C 0.15026 0.40516 0.38602 0.0
C1110 C 0.16356 0.40459 0.34436 0.0
C1111 C 0.13671 0.43865 0.34105 0.0
C1112 C 0.11653 0.45532 0.36043 0.0
C1113 C 0.12297 0.43874 0.38248 0.0
C1114 C 0.12547 0.51961 0.2934 0.0
C1115 C 0.11646 0.49547 0.27385 0.0
C1116 C 0.13189 0.50109 0.31504 0.0
C1117 C 0.13017 0.45781 0.31774 0.0
C1118 C 0.12124 0.43353 0.29821 0.0
C1119 C 0.11408 0.45217 0.27656 0.0
H1120 H 0.65333 0.64167 0.4568 0.0
H1121 H 0.64542 0.51055 0.47059 0.0
H1122 H 0.68218 0.6529 0.49534 0.0
H1123 H 0.67512 0.52177 0.5091 0.0
H1124 H 0.78405 0.55679 0.55891 0.0
H1125 H 0.74778 0.54608 0.5225 0.0
H1126 H 0.66358 0.6457 0.53907 0.0
H1127 H 0.6995 0.65604 0.57604 0.0
C1128 C 0.65732 0.61526 0.46817 0.0
C1129 C 0.64699 0.57518 0.46059 0.0
C1130 C 0.67375 0.62176 0.4903 0.0
C1131 C 0.68118 0.58825 0.50528 0.0
C1132 C 0.67001 0.54823 0.49792 0.0
C1133 C 0.65269 0.54182 0.47593 0.0
C1134 C 0.75792 0.57665 0.55486 0.0
C1135 C 0.74491 0.60751 0.57046 0.0
C1136 C 0.73685 0.57016 0.53402 0.0
C1137 C 0.70259 0.5948 0.52791 0.0
C1138 C 0.68989 0.62618 0.54327 0.0
C1139 C 0.71049 0.63213 0.56443 0.0
H1140 H 0.20778 0.89512 0.72294 0.0
H1141 H 0.07912 0.91759 0.70649 0.0
H1142 H 0.1967 0.92445 0.76147 0.0
H1143 H 0.06797 0.94617 0.74517 0.0
H1144 H 0.06257 0.95778 0.82673 0.0
H1145 H 0.0709 0.92381 0.78903 0.0
H1146 H 0.17847 -0.00103 0.77509 0.0
H1147 H 0.16987 0.03334 0.8122 0.0
C1148 C 0.177 0.90568 0.72765 0.0
C1149 C 0.14437 0.90405 0.71159 0.0
C1150 C 0.17072 0.92271 0.74967 0.0
C1151 C 0.13147 0.93775 0.75634 0.0
C1152 C 0.09849 0.93467 0.7406 0.0
C1153 C 0.10496 0.91844 0.71841 0.0
C1154 C 0.0878 0.96723 0.81554 0.0
C1155 C 0.11537 -0.00152 0.82253 0.0
C1156 C 0.09256 0.94778 0.79397 0.0
C1157 C 0.12557 0.95847 0.77917 0.0
C1158 C 0.15303 -0.01032 0.78618 0.0
C1159 C 0.1478 0.00964 0.80743 0.0
H1160 H 0.86234 0.42971 0.97488 0.0
H1161 H 0.7636 0.3563 0.94582 0.0
H1162 H 0.83397 0.41753 1.01371 0.0
H1163 H 0.73545 0.34462 0.9843 0.0
H1164 H 0.6698 0.37931 0.05284 0.0
H1165 H 0.70086 0.38825 1.01467 0.0
H1166 H 0.82119 0.35817 1.04268 0.0
H1167 H 0.79001 0.3488 0.081 0.0
C1168 C 0.83477 0.41091 0.97672 0.0
C1169 C 0.81539 0.39404 0.95711 0.0
C1170 C 0.81861 0.40377 0.99899 0.0
C1171 C 0.78231 0.3802 1.00213 0.0
C1172 C 0.76319 0.36323 0.98253 0.0
C1173 C 0.77959 0.3698 0.96041 0.0
C1174 C 0.70283 0.37421 0.05089 0.0
C1175 C 0.72729 0.36309 0.07005 0.0
C1176 C 0.72065 0.37929 1.02895 0.0
C1177 C 0.76358 0.37404 1.02558 0.0
C1178 C 0.7881 0.36278 1.0447 0.0
C1179 C 0.77013 0.35701 0.06662 0.0
H1180 H 0.37706 0.03224 0.33277 0.0
H1181 H 0.34041 0.91528 0.30326 0.0
H1182 H 0.36697 0.06591 0.29507 0.0
H1183 H 0.33073 0.94871 0.26583 0.0
H1184 H 0.36653 0.01126 0.19813 0.0
H1185 H 0.37722 0.98248 0.23631 0.0
H1186 H 0.30571 0.082 0.26615 0.0
H1187 H 0.29445 0.11139 0.22729 0.0
C1188 C 0.36747 0.0136 0.3182 0.0
C1189 C 0.35997 0.97092 0.32101 0.0
C1190 C 0.36117 0.03302 0.29671 0.0
C1191 C 0.34794 0.01004 0.27746 0.0
C1192 C 0.34116 0.96729 0.28025 0.0
C1193 C 0.3468 0.94809 0.30173 0.0
C1194 C 0.35304 0.02745 0.21269 0.0
C1195 C 0.32952 0.06386 0.20947 0.0
C1196 C 0.3591 0.01063 0.23467 0.0
C1197 C 0.34224 0.02976 0.25429 0.0
C1198 C 0.31929 0.06663 0.25133 0.0
C1199 C 0.31265 0.08334 0.2291 0.0
H1200 H 0.30679 0.32963 0.64194 0.0
H1201 H 0.32528 0.45845 0.62482 0.0
H1202 H 0.27734 0.31764 0.60357 0.0
H1203 H 0.29496 0.44653 0.58658 0.0
H1204 H 0.18588 0.416 0.53625 0.0
H1205 H 0.22014 0.42584 0.57336 0.0
H1206 H 0.29962 0.32113 0.55961 0.0
H1207 H 0.26589 0.31164 0.52196 0.0
C1208 C 0.30485 0.35534 0.62993 0.0
C1209 C 0.31845 0.39502 0.63646 0.0
C1210 C 0.28809 0.34839 0.60792 0.0
C1211 C 0.28364 0.38114 0.59208 0.0
C1212 C 0.29777 0.42071 0.59847 0.0
C1213 C 0.31539 0.42748 0.62031 0.0
C1214 C 0.21046 0.39478 0.5411 0.0
C1215 C 0.22296 0.36286 0.52606 0.0
C1216 C 0.23034 0.40073 0.56233 0.0
C1217 C 0.26278 0.37448 0.56937 0.0
C1218 C 0.2747 0.34187 0.55466 0.0
C1219 C 0.25535 0.33642 0.53312 0.0
H1220 H 0.87257 0.01828 0.39677 0.0
H1221 H 0.78713 0.10802 0.36819 0.0
H1222 H 0.88441 -0.01009 0.35851 0.0
H1223 H 0.79951 0.07934 0.32945 0.0
H1224 H 0.86922 0.0381 0.2614 0.0
H1225 H 0.85872 0.07057 0.29927 0.0
H1226 H 0.84151 0.94996 0.33001 0.0
H1227 H 0.85156 0.91763 0.29236 0.0
C1228 C 0.85641 0.03227 0.38232 0.0
C1229 C 0.82877 0.06558 0.38571 0.0
C1230 C 0.86313 0.01572 0.36032 0.0
C1231 C 0.84284 0.03217 0.34089 0.0
C1232 C 0.81582 0.06608 0.34406 0.0
C1233 C 0.80857 0.08239 0.36626 0.0
C1234 C 0.86362 0.01851 0.27629 0.0
C1235 C 0.86152 0.97518 0.27382 0.0
C1236 C 0.85717 0.03717 0.29794 0.0
C1237 C 0.84922 0.0129 0.31768 0.0
C1238 C 0.84786 0.96958 0.31522 0.0
C1239 C 0.85362 0.95103 0.29359 0.0
H1240 H 0.14976 0.51434 0.12431 0.0
H1241 H 0.16489 0.64392 0.1403 0.0
H1242 H 0.17929 0.52644 0.08585 0.0
H1243 H 0.19373 0.65602 0.10171 0.0
H1244 H 0.20864 0.66126 1.02014 0.0
H1245 H 0.17364 0.65205 0.05763 0.0
H1246 H 0.25282 0.54757 0.07259 0.0
H1247 H 0.28809 0.55701 1.03581 0.0
C1248 C 0.15876 0.5455 0.11952 0.0
C1249 C 0.15504 0.57809 0.13547 0.0
C1250 C 0.1759 0.5524 0.09752 0.0
C1251 C 0.18898 0.59221 0.09073 0.0
C1252 C 0.18376 0.62509 0.10634 0.0
C1253 C 0.16741 0.61804 0.1285 0.0
C1254 C 0.21875 0.63657 1.03153 0.0
C1255 C 0.25141 0.61011 1.0249 0.0
C1256 C 0.1987 0.63127 0.05298 0.0
C1257 C 0.2102 0.5988 0.06801 0.0
C1258 C 0.24283 0.57253 0.06135 0.0
C1259 C 0.26332 0.57829 1.04026 0.0
H1260 H 0.70929 0.89712 0.8742 0.0
H1261 H 0.58125 0.92034 0.89193 0.0
H1262 H 0.69753 0.92737 0.83588 0.0
H1263 H 0.56941 0.94983 0.85347 0.0
H1264 H 0.56168 0.96127 0.77196 0.0
H1265 H 0.57079 0.92772 0.80977 0.0
H1266 H 0.67953 0.0019 0.82202 0.0
H1267 H 0.67016 0.03591 0.78473 0.0
C1268 C 0.6785 0.90808 0.86983 0.0
C1269 C 0.64625 0.9063 0.88618 0.0
C1270 C 0.67184 0.92567 0.84792 0.0
C1271 C 0.63255 0.94113 0.84165 0.0
C1272 C 0.59995 0.93803 0.85771 0.0
C1273 C 0.60682 0.92125 0.87978 0.0
C1274 C 0.58731 0.97066 0.78281 0.0
C1275 C 0.61501 0.0015 0.77526 0.0
C1276 C 0.59252 0.95143 0.80446 0.0
C1277 C 0.6261 0.96191 0.81882 0.0
C1278 C 0.65364 -0.00722 0.81128 0.0
C1279 C 0.64797 0.01255 0.78994 0.0
loop_
_geom_bond_atom_site_label_1
_geom_bond_atom_site_label_2
_geom_bond_distance
_geom_bond_site_symmetry_2
_ccdc_geom_bond_type
Dy0 O4 2.398 . S
Dy0 O5 2.491 . S
Dy0 O6 2.403 . S
Dy0 O7 2.664 . S
Dy0 O11 2.326 . S
Dy0 O15 2.310 . S
Dy0 O16 2.351 . S
C1 O12 1.185 . S
C1 O13 1.355 . S
C2 O4 1.185 . S
C2 O5 1.355 . S
Dy3 O7 2.310 . S
Dy3 O10 2.351 . S
Dy3 O12 2.398 . S
Dy3 O13 2.491 . S
Dy3 O14 2.403 . S
Dy3 O15 2.664 . S
Dy3 O17 2.326 . S
O4 Dy0 2.398 . S
O4 C2 1.185 . S
O5 Dy0 2.491 . S
O5 C2 1.355 . S
O6 Dy0 2.403 . S
O6 C8 1.254 . S
O7 Dy0 2.664 . S
O7 Dy3 2.310 . S
O7 C8 1.268 . S
C8 O6 1.254 . S
C8 O7 1.268 . S
C9 O14 1.254 . S
C9 O15 1.268 . S
O10 Dy3 2.351 . S
O10 C18 1.249 . S
O11 Dy0 2.326 . S
O11 C18 1.267 . S
O12 C1 1.185 . S
O12 Dy3 2.398 . S
O13 C1 1.355 . S
O13 Dy3 2.491 . S
O14 Dy3 2.403 . S
O14 C9 1.254 . S
O15 Dy0 2.310 . S
O15 Dy3 2.664 . S
O15 C9 1.268 . S
O16 Dy0 2.351 . S
O16 C19 1.249 . S
O17 Dy3 2.326 . S
O17 C19 1.267 . S
C18 O10 1.249 . S
C18 O11 1.267 . S
C19 O16 1.249 . S
C19 O17 1.267 . S
Dy20 O24 2.398 . S
Dy20 O25 2.491 . S
Dy20 O26 2.403 . S
Dy20 O27 2.664 . S
Dy20 O31 2.326 . S
Dy20 O35 2.310 . S
Dy20 O36 2.351 . S
C21 O32 1.185 . S
C21 O33 1.355 . S
C22 O24 1.185 . S
C22 O25 1.355 . S
Dy23 O27 2.310 . S
Dy23 O30 2.351 . S
Dy23 O32 2.398 . S
Dy23 O33 2.491 . S
Dy23 O34 2.403 . S
Dy23 O35 2.664 . S
Dy23 O37 2.326 . S
O24 Dy20 2.398 . S
O24 C22 1.185 . S
O25 Dy20 2.491 . S
O25 C22 1.355 . S
O26 Dy20 2.403 . S
O26 C28 1.254 . S
O27 Dy20 2.664 . S
O27 Dy23 2.310 . S
O27 C28 1.268 . S
C28 O26 1.254 . S
C28 O27 1.268 . S
C29 O34 1.254 . S
C29 O35 1.268 . S
O30 Dy23 2.351 . S
O30 C38 1.249 . S
O31 Dy20 2.326 . S
O31 C38 1.267 . S
O32 C21 1.185 . S
O32 Dy23 2.398 . S
O33 C21 1.355 . S
O33 Dy23 2.491 . S
O34 Dy23 2.403 . S
O34 C29 1.254 . S
O35 Dy20 2.310 . S
O35 Dy23 2.664 . S
O35 C29 1.268 . S
O36 Dy20 2.351 . S
O36 C39 1.249 . S
O37 Dy23 2.326 . S
O37 C39 1.267 . S
C38 O30 1.249 . S
C38 O31 1.267 . S
C39 O36 1.249 . S
C39 O37 1.267 . S
Dy40 O44 2.398 . S
Dy40 O45 2.491 . S
Dy40 O46 2.403 . S
Dy40 O47 2.664 . S
Dy40 O51 2.326 . S
Dy40 O55 2.310 . S
Dy40 O56 2.351 . S
C41 O52 1.185 . S
C41 O53 1.355 . S
C42 O44 1.185 . S
C42 O45 1.355 . S
Dy43 O47 2.310 . S
Dy43 O50 2.351 . S
Dy43 O52 2.398 . S
Dy43 O53 2.491 . S
Dy43 O54 2.403 . S
Dy43 O55 2.664 . S
Dy43 O57 2.326 . S
O44 Dy40 2.398 . S
O44 C42 1.185 . S
O45 Dy40 2.491 . S
O45 C42 1.355 . S
O46 Dy40 2.403 . S
O46 C48 1.254 . S
O47 Dy40 2.664 . S
O47 Dy43 2.310 . S
O47 C48 1.268 . S
C48 O46 1.254 . S
C48 O47 1.268 . S
C49 O54 1.254 . S
C49 O55 1.268 . S
O50 Dy43 2.351 . S
O50 C58 1.249 . S
O51 Dy40 2.326 . S
O51 C58 1.267 . S
O52 C41 1.185 . S
O52 Dy43 2.398 . S
O53 C41 1.355 . S
O53 Dy43 2.491 . S
O54 Dy43 2.403 . S
O54 C49 1.254 . S
O55 Dy40 2.310 . S
O55 Dy43 2.664 . S
O55 C49 1.268 . S
O56 Dy40 2.351 . S
O56 C59 1.249 . S
O57 Dy43 2.326 . S
O57 C59 1.267 . S
C58 O50 1.249 . S
C58 O51 1.267 . S
C59 O56 1.249 . S
C59 O57 1.267 . S
Dy60 O64 2.398 . S
Dy60 O65 2.491 . S
Dy60 O66 2.403 . S
Dy60 O67 2.664 . S
Dy60 O71 2.326 . S
Dy60 O75 2.310 . S
Dy60 O76 2.351 . S
C61 O72 1.185 . S
C61 O73 1.355 . S
C62 O64 1.185 . S
C62 O65 1.355 . S
Dy63 O67 2.310 . S
Dy63 O70 2.351 . S
Dy63 O72 2.398 . S
Dy63 O73 2.491 . S
Dy63 O74 2.403 . S
Dy63 O75 2.664 . S
Dy63 O77 2.326 . S
O64 Dy60 2.398 . S
O64 C62 1.185 . S
O65 Dy60 2.491 . S
O65 C62 1.355 . S
O66 Dy60 2.403 . S
O66 C68 1.254 . S
O67 Dy60 2.664 . S
O67 Dy63 2.310 . S
O67 C68 1.268 . S
C68 O66 1.254 . S
C68 O67 1.268 . S
C69 O74 1.254 . S
C69 O75 1.268 . S
O70 Dy63 2.351 . S
O70 C78 1.249 . S
O71 Dy60 2.326 . S
O71 C78 1.267 . S
O72 C61 1.185 . S
O72 Dy63 2.398 . S
O73 C61 1.355 . S
O73 Dy63 2.491 . S
O74 Dy63 2.403 . S
O74 C69 1.254 . S
O75 Dy60 2.310 . S
O75 Dy63 2.664 . S
O75 C69 1.268 . S
O76 Dy60 2.351 . S
O76 C79 1.249 . S
O77 Dy63 2.326 . S
O77 C79 1.267 . S
C78 O70 1.249 . S
C78 O71 1.267 . S
C79 O76 1.249 . S
C79 O77 1.267 . S
Dy80 O84 2.398 . S
Dy80 O85 2.491 . S
Dy80 O86 2.403 . S
Dy80 O87 2.664 . S
Dy80 O91 2.326 . S
Dy80 O95 2.310 . S
Dy80 O96 2.351 . S
C81 O92 1.185 . S
C81 O93 1.355 . S
C82 O84 1.185 . S
C82 O85 1.355 . S
Dy83 O87 2.310 . S
Dy83 O90 2.351 . S
Dy83 O92 2.398 . S
Dy83 O93 2.491 . S
Dy83 O94 2.403 . S
Dy83 O95 2.664 . S
Dy83 O97 2.326 . S
O84 Dy80 2.398 . S
O84 C82 1.185 . S
O85 Dy80 2.491 . S
O85 C82 1.355 . S
O86 Dy80 2.403 . S
O86 C88 1.254 . S
O87 Dy80 2.664 . S
O87 Dy83 2.310 . S
O87 C88 1.268 . S
C88 O86 1.254 . S
C88 O87 1.268 . S
C89 O94 1.254 . S
C89 O95 1.268 . S
O90 Dy83 2.351 . S
O90 C98 1.249 . S
O91 Dy80 2.326 . S
O91 C98 1.267 . S
O92 C81 1.185 . S
O92 Dy83 2.398 . S
O93 C81 1.355 . S
O93 Dy83 2.491 . S
O94 Dy83 2.403 . S
O94 C89 1.254 . S
O95 Dy80 2.310 . S
O95 Dy83 2.664 . S
O95 C89 1.268 . S
O96 Dy80 2.351 . S
O96 C99 1.249 . S
O97 Dy83 2.326 . S
O97 C99 1.267 . S
C98 O90 1.249 . S
C98 O91 1.267 . S
C99 O96 1.249 . S
C99 O97 1.267 . S
Dy100 O104 2.398 . S
Dy100 O105 2.491 . S
Dy100 O106 2.403 . S
Dy100 O107 2.664 . S
Dy100 O111 2.326 . S
Dy100 O115 2.310 . S
Dy100 O116 2.351 . S
C101 O112 1.185 . S
C101 O113 1.355 . S
C102 O104 1.185 . S
C102 O105 1.355 . S
Dy103 O107 2.310 . S
Dy103 O110 2.351 . S
Dy103 O112 2.398 . S
Dy103 O113 2.491 . S
Dy103 O114 2.403 . S
Dy103 O115 2.664 . S
Dy103 O117 2.326 . S
O104 Dy100 2.398 . S
O104 C102 1.185 . S
O105 Dy100 2.491 . S
O105 C102 1.355 . S
O106 Dy100 2.403 . S
O106 C108 1.254 . S
O107 Dy100 2.664 . S
O107 Dy103 2.310 . S
O107 C108 1.268 . S
C108 O106 1.254 . S
C108 O107 1.268 . S
C109 O114 1.254 . S
C109 O115 1.268 . S
O110 Dy103 2.351 . S
O110 C118 1.249 . S
O111 Dy100 2.326 . S
O111 C118 1.267 . S
O112 C101 1.185 . S
O112 Dy103 2.398 . S
O113 C101 1.355 . S
O113 Dy103 2.491 . S
O114 Dy103 2.403 . S
O114 C109 1.254 . S
O115 Dy100 2.310 . S
O115 Dy103 2.664 . S
O115 C109 1.268 . S
O116 Dy100 2.351 . S
O116 C119 1.249 . S
O117 Dy103 2.326 . S
O117 C119 1.267 . S
C118 O110 1.249 . S
C118 O111 1.267 . S
C119 O116 1.249 . S
C119 O117 1.267 . S
Dy120 O124 2.398 . S
Dy120 O125 2.491 . S
Dy120 O126 2.403 . S
Dy120 O127 2.664 . S
Dy120 O131 2.326 . S
Dy120 O135 2.310 . S
Dy120 O136 2.351 . S
C121 O132 1.185 . S
C121 O133 1.355 . S
C122 O124 1.185 . S
C122 O125 1.355 . S
Dy123 O127 2.310 . S
Dy123 O130 2.351 . S
Dy123 O132 2.398 . S
Dy123 O133 2.491 . S
Dy123 O134 2.403 . S
Dy123 O135 2.664 . S
Dy123 O137 2.326 . S
O124 Dy120 2.398 . S
O124 C122 1.185 . S
O125 Dy120 2.491 . S
O125 C122 1.355 . S
O126 Dy120 2.403 . S
O126 C128 1.254 . S
O127 Dy120 2.664 . S
O127 Dy123 2.310 . S
O127 C128 1.268 . S
C128 O126 1.254 . S
C128 O127 1.268 . S
C129 O134 1.254 . S
C129 O135 1.268 . S
O130 Dy123 2.351 . S
O130 C138 1.249 . S
O131 Dy120 2.326 . S
O131 C138 1.267 . S
O132 C121 1.185 . S
O132 Dy123 2.398 . S
O133 C121 1.355 . S
O133 Dy123 2.491 . S
O134 Dy123 2.403 . S
O134 C129 1.254 . S
O135 Dy120 2.310 . S
O135 Dy123 2.664 . S
O135 C129 1.268 . S
O136 Dy120 2.351 . S
O136 C139 1.249 . S
O137 Dy123 2.326 . S
O137 C139 1.267 . S
C138 O130 1.249 . S
C138 O131 1.267 . S
C139 O136 1.249 . S
C139 O137 1.267 . S
Dy140 O144 2.398 . S
Dy140 O145 2.491 . S
Dy140 O146 2.403 . S
Dy140 O147 2.664 . S
Dy140 O151 2.326 . S
Dy140 O155 2.310 . S
Dy140 O156 2.351 . S
C141 O152 1.185 . S
C141 O153 1.355 . S
C142 O144 1.185 . S
C142 O145 1.355 . S
Dy143 O147 2.310 . S
Dy143 O150 2.351 . S
Dy143 O152 2.398 . S
Dy143 O153 2.491 . S
Dy143 O154 2.403 . S
Dy143 O155 2.664 . S
Dy143 O157 2.326 . S
O144 Dy140 2.398 . S
O144 C142 1.185 . S
O145 Dy140 2.491 . S
O145 C142 1.355 . S
O146 Dy140 2.403 . S
O146 C148 1.254 . S
O147 Dy140 2.664 . S
O147 Dy143 2.310 . S
O147 C148 1.268 . S
C148 O146 1.254 . S
C148 O147 1.268 . S
C149 O154 1.254 . S
C149 O155 1.268 . S
O150 Dy143 2.351 . S
O150 C158 1.249 . S
O151 Dy140 2.326 . S
O151 C158 1.267 . S
O152 C141 1.185 . S
O152 Dy143 2.398 . S
O153 C141 1.355 . S
O153 Dy143 2.491 . S
O154 Dy143 2.403 . S
O154 C149 1.254 . S
O155 Dy140 2.310 . S
O155 Dy143 2.664 . S
O155 C149 1.268 . S
O156 Dy140 2.351 . S
O156 C159 1.249 . S
O157 Dy143 2.326 . S
O157 C159 1.267 . S
C158 O150 1.249 . S
C158 O151 1.267 . S
C159 O156 1.249 . S
C159 O157 1.267 . S
Dy160 O164 2.398 . S
Dy160 O165 2.491 . S
Dy160 O166 2.403 . S
Dy160 O167 2.664 . S
Dy160 O171 2.326 . S
Dy160 O175 2.310 . S
Dy160 O176 2.351 . S
C161 O172 1.185 . S
C161 O173 1.355 . S
C162 O164 1.185 . S
C162 O165 1.355 . S
Dy163 O167 2.310 . S
Dy163 O170 2.351 . S
Dy163 O172 2.398 . S
Dy163 O173 2.491 . S
Dy163 O174 2.403 . S
Dy163 O175 2.664 . S
Dy163 O177 2.326 . S
O164 Dy160 2.398 . S
O164 C162 1.185 . S
O165 Dy160 2.491 . S
O165 C162 1.355 . S
O166 Dy160 2.403 . S
O166 C168 1.254 . S
O167 Dy160 2.664 . S
O167 Dy163 2.310 . S
O167 C168 1.268 . S
C168 O166 1.254 . S
C168 O167 1.268 . S
C169 O174 1.254 . S
C169 O175 1.268 . S
O170 Dy163 2.351 . S
O170 C178 1.249 . S
O171 Dy160 2.326 . S
O171 C178 1.267 . S
O172 C161 1.185 . S
O172 Dy163 2.398 . S
O173 C161 1.355 . S
O173 Dy163 2.491 . S
O174 Dy163 2.403 . S
O174 C169 1.254 . S
O175 Dy160 2.310 . S
O175 Dy163 2.664 . S
O175 C169 1.268 . S
O176 Dy160 2.351 . S
O176 C179 1.249 . S
O177 Dy163 2.326 . S
O177 C179 1.267 . S
C178 O170 1.249 . S
C178 O171 1.267 . S
C179 O176 1.249 . S
C179 O177 1.267 . S
Dy180 O184 2.398 . S
Dy180 O185 2.491 1_545 S
Dy180 O186 2.403 . S
Dy180 O187 2.664 . S
Dy180 O191 2.326 . S
Dy180 O195 2.310 . S
Dy180 O196 2.351 . S
C181 O192 1.185 . S
C181 O193 1.355 . S
C182 O184 1.177 1_565 S
C182 O185 1.359 . S
Dy183 O187 2.310 . S
Dy183 O190 2.351 . S
Dy183 O192 2.398 . S
Dy183 O193 2.491 . S
Dy183 O194 2.403 . S
Dy183 O195 2.664 . S
Dy183 O197 2.326 . S
O184 Dy180 2.398 . S
O184 C182 1.177 1_545 S
O185 Dy180 2.491 1_565 S
O185 C182 1.359 . S
O186 Dy180 2.403 . S
O186 C188 1.254 . S
O187 Dy180 2.664 . S
O187 Dy183 2.310 . S
O187 C188 1.268 . S
C188 O186 1.254 . S
C188 O187 1.268 . S
C189 O194 1.256 1_565 S
C189 O195 1.269 1_565 S
O190 Dy183 2.351 . S
O190 C198 1.249 . S
O191 Dy180 2.326 . S
O191 C198 1.267 . S
O192 C181 1.185 . S
O192 Dy183 2.398 . S
O193 C181 1.355 . S
O193 Dy183 2.491 . S
O194 Dy183 2.403 . S
O194 C189 1.256 1_545 S
O195 Dy180 2.310 . S
O195 Dy183 2.664 . S
O195 C189 1.269 1_545 S
O196 Dy180 2.351 . S
O196 C199 1.249 . S
O197 Dy183 2.326 . S
O197 C199 1.267 . S
C198 O190 1.249 . S
C198 O191 1.267 . S
C199 O196 1.249 . S
C199 O197 1.267 . S
Dy200 O204 2.398 . S
Dy200 O205 2.491 . S
Dy200 O206 2.403 . S
Dy200 O207 2.664 . S
Dy200 O211 2.326 . S
Dy200 O215 2.310 . S
Dy200 O216 2.351 . S
C201 O212 1.185 . S
C201 O213 1.355 . S
C202 O204 1.185 . S
C202 O205 1.355 . S
Dy203 O207 2.310 . S
Dy203 O210 2.351 . S
Dy203 O212 2.398 . S
Dy203 O213 2.491 . S
Dy203 O214 2.403 . S
Dy203 O215 2.664 . S
Dy203 O217 2.326 . S
O204 Dy200 2.398 . S
O204 C202 1.185 . S
O205 Dy200 2.491 . S
O205 C202 1.355 . S
O206 Dy200 2.403 . S
O206 C208 1.254 . S
O207 Dy200 2.664 . S
O207 Dy203 2.310 . S
O207 C208 1.268 . S
C208 O206 1.254 . S
C208 O207 1.268 . S
C209 O214 1.254 . S
C209 O215 1.268 . S
O210 Dy203 2.351 . S
O210 C218 1.249 . S
O211 Dy200 2.326 . S
O211 C218 1.267 . S
O212 C201 1.185 . S
O212 Dy203 2.398 . S
O213 C201 1.355 . S
O213 Dy203 2.491 . S
O214 Dy203 2.403 . S
O214 C209 1.254 . S
O215 Dy200 2.310 . S
O215 Dy203 2.664 . S
O215 C209 1.268 . S
O216 Dy200 2.351 . S
O216 C219 1.249 . S
O217 Dy203 2.326 . S
O217 C219 1.267 . S
C218 O210 1.249 . S
C218 O211 1.267 . S
C219 O216 1.249 . S
C219 O217 1.267 . S
Dy220 O224 2.398 . S
Dy220 O225 2.491 1_565 S
Dy220 O226 2.403 . S
Dy220 O227 2.664 . S
Dy220 O231 2.326 . S
Dy220 O235 2.310 . S
Dy220 O236 2.351 . S
C221 O232 1.185 . S
C221 O233 1.355 . S
C222 O224 1.177 1_545 S
C222 O225 1.359 . S
Dy223 O227 2.310 . S
Dy223 O230 2.351 . S
Dy223 O232 2.398 . S
Dy223 O233 2.491 . S
Dy223 O234 2.403 . S
Dy223 O235 2.664 . S
Dy223 O237 2.326 . S
O224 Dy220 2.398 . S
O224 C222 1.177 1_565 S
O225 Dy220 2.491 1_545 S
O225 C222 1.359 . S
O226 Dy220 2.403 . S
O226 C228 1.254 . S
O227 Dy220 2.664 . S
O227 Dy223 2.310 . S
O227 C228 1.268 . S
C228 O226 1.254 . S
C228 O227 1.268 . S
C229 O234 1.256 1_545 S
C229 O235 1.269 1_545 S
O230 Dy223 2.351 . S
O230 C238 1.249 . S
O231 Dy220 2.326 . S
O231 C238 1.267 . S
O232 C221 1.185 . S
O232 Dy223 2.398 . S
O233 C221 1.355 . S
O233 Dy223 2.491 . S
O234 Dy223 2.403 . S
O234 C229 1.256 1_565 S
O235 Dy220 2.310 . S
O235 Dy223 2.664 . S
O235 C229 1.269 1_565 S
O236 Dy220 2.351 . S
O236 C239 1.249 . S
O237 Dy223 2.326 . S
O237 C239 1.267 . S
C238 O230 1.249 . S
C238 O231 1.267 . S
C239 O236 1.249 . S
C239 O237 1.267 . S
Dy240 O244 2.398 . S
Dy240 O245 2.491 . S
Dy240 O246 2.403 . S
Dy240 O247 2.664 . S
Dy240 O251 2.326 . S
Dy240 O255 2.310 . S
Dy240 O256 2.351 . S
C241 O252 1.185 . S
C241 O253 1.355 . S
C242 O244 1.185 . S
C242 O245 1.355 . S
Dy243 O247 2.310 . S
Dy243 O250 2.351 . S
Dy243 O252 2.398 . S
Dy243 O253 2.491 . S
Dy243 O254 2.403 . S
Dy243 O255 2.664 . S
Dy243 O257 2.326 . S
O244 Dy240 2.398 . S
O244 C242 1.185 . S
O245 Dy240 2.491 . S
O245 C242 1.355 . S
O246 Dy240 2.403 . S
O246 C248 1.254 . S
O247 Dy240 2.664 . S
O247 Dy243 2.310 . S
O247 C248 1.268 . S
C248 O246 1.254 . S
C248 O247 1.268 . S
C249 O254 1.254 . S
C249 O255 1.268 . S
O250 Dy243 2.351 . S
O250 C258 1.249 . S
O251 Dy240 2.326 . S
O251 C258 1.267 . S
O252 C241 1.185 . S
O252 Dy243 2.398 . S
O253 C241 1.355 . S
O253 Dy243 2.491 . S
O254 Dy243 2.403 . S
O254 C249 1.254 . S
O255 Dy240 2.310 . S
O255 Dy243 2.664 . S
O255 C249 1.268 . S
O256 Dy240 2.351 . S
O256 C259 1.249 . S
O257 Dy243 2.326 . S
O257 C259 1.267 . S
C258 O250 1.249 . S
C258 O251 1.267 . S
C259 O256 1.249 . S
C259 O257 1.267 . S
Dy260 O264 2.398 . S
Dy260 O265 2.491 . S
Dy260 O266 2.403 . S
Dy260 O267 2.664 . S
Dy260 O271 2.326 . S
Dy260 O275 2.310 . S
Dy260 O276 2.351 . S
C261 O272 1.177 1_545 S
C261 O273 1.359 . S
C262 O264 1.185 . S
C262 O265 1.355 . S
Dy263 O267 2.310 . S
Dy263 O270 2.351 . S
Dy263 O272 2.398 . S
Dy263 O273 2.491 1_565 S
Dy263 O274 2.403 . S
Dy263 O275 2.664 . S
Dy263 O277 2.326 . S
O264 Dy260 2.398 . S
O264 C262 1.185 . S
O265 Dy260 2.491 . S
O265 C262 1.355 . S
O266 Dy260 2.403 . S
O266 C268 1.256 1_565 S
O267 Dy260 2.664 . S
O267 Dy263 2.310 . S
O267 C268 1.269 1_565 S
C268 O266 1.256 1_545 S
C268 O267 1.269 1_545 S
C269 O274 1.254 . S
C269 O275 1.268 . S
O270 Dy263 2.351 . S
O270 C278 1.249 . S
O271 Dy260 2.326 . S
O271 C278 1.267 . S
O272 C261 1.177 1_565 S
O272 Dy263 2.398 . S
O273 C261 1.359 . S
O273 Dy263 2.491 1_545 S
O274 Dy263 2.403 . S
O274 C269 1.254 . S
O275 Dy260 2.310 . S
O275 Dy263 2.664 . S
O275 C269 1.268 . S
O276 Dy260 2.351 . S
O276 C279 1.249 . S
O277 Dy263 2.326 . S
O277 C279 1.267 . S
C278 O270 1.249 . S
C278 O271 1.267 . S
C279 O276 1.249 . S
C279 O277 1.267 . S
Dy280 O284 2.398 . S
Dy280 O285 2.491 . S
Dy280 O286 2.403 . S
Dy280 O287 2.664 . S
Dy280 O291 2.326 . S
Dy280 O295 2.310 . S
Dy280 O296 2.351 . S
C281 O292 1.185 . S
C281 O293 1.355 . S
C282 O284 1.185 . S
C282 O285 1.355 . S
Dy283 O287 2.310 . S
Dy283 O290 2.351 . S
Dy283 O292 2.398 . S
Dy283 O293 2.491 . S
Dy283 O294 2.403 . S
Dy283 O295 2.664 . S
Dy283 O297 2.326 . S
O284 Dy280 2.398 . S
O284 C282 1.185 . S
O285 Dy280 2.491 . S
O285 C282 1.355 . S
O286 Dy280 2.403 . S
O286 C288 1.254 . S
O287 Dy280 2.664 . S
O287 Dy283 2.310 . S
O287 C288 1.268 . S
C288 O286 1.254 . S
C288 O287 1.268 . S
C289 O294 1.254 . S
C289 O295 1.268 . S
O290 Dy283 2.351 . S
O290 C298 1.249 . S
O291 Dy280 2.326 . S
O291 C298 1.267 . S
O292 C281 1.185 . S
O292 Dy283 2.398 . S
O293 C281 1.355 . S
O293 Dy283 2.491 . S
O294 Dy283 2.403 . S
O294 C289 1.254 . S
O295 Dy280 2.310 . S
O295 Dy283 2.664 . S
O295 C289 1.268 . S
O296 Dy280 2.351 . S
O296 C299 1.249 . S
O297 Dy283 2.326 . S
O297 C299 1.267 . S
C298 O290 1.249 . S
C298 O291 1.267 . S
C299 O296 1.249 . S
C299 O297 1.267 . S
Dy300 O304 2.398 . S
Dy300 O305 2.491 . S
Dy300 O306 2.403 . S
Dy300 O307 2.664 . S
Dy300 O311 2.326 . S
Dy300 O315 2.310 . S
Dy300 O316 2.351 . S
C301 O312 1.177 1_565 S
C301 O313 1.359 . S
C302 O304 1.185 . S
C302 O305 1.355 . S
Dy303 O307 2.310 . S
Dy303 O310 2.351 . S
Dy303 O312 2.398 . S
Dy303 O313 2.491 1_545 S
Dy303 O314 2.403 . S
Dy303 O315 2.664 . S
Dy303 O317 2.326 . S
O304 Dy300 2.398 . S
O304 C302 1.185 . S
O305 Dy300 2.491 . S
O305 C302 1.355 . S
O306 Dy300 2.403 . S
O306 C308 1.256 1_545 S
O307 Dy300 2.664 . S
O307 Dy303 2.310 . S
O307 C308 1.269 1_545 S
C308 O306 1.256 1_565 S
C308 O307 1.269 1_565 S
C309 O314 1.254 . S
C309 O315 1.268 . S
O310 Dy303 2.351 . S
O310 C318 1.249 . S
O311 Dy300 2.326 . S
O311 C318 1.267 . S
O312 C301 1.177 1_545 S
O312 Dy303 2.398 . S
O313 C301 1.359 . S
O313 Dy303 2.491 1_565 S
O314 Dy303 2.403 . S
O314 C309 1.254 . S
O315 Dy300 2.310 . S
O315 Dy303 2.664 . S
O315 C309 1.268 . S
O316 Dy300 2.351 . S
O316 C319 1.249 . S
O317 Dy303 2.326 . S
O317 C319 1.267 . S
C318 O310 1.249 . S
C318 O311 1.267 . S
C319 O316 1.249 . S
C319 O317 1.267 . S
H320 C328 0.950 . S
H321 C333 0.950 . S
H322 C330 0.950 . S
H323 C332 0.950 . S
H324 C334 0.950 . S
H325 C336 0.950 . S
H326 C338 0.950 . S
H327 C339 0.950 . S
C328 H320 0.950 . S
C328 C329 1.386 . S
C328 C330 1.391 . S
C329 C328 1.386 . S
C329 C333 1.393 . S
C330 H322 0.950 . S
C330 C328 1.391 . S
C330 C331 1.400 . S
C331 C330 1.400 . S
C331 C332 1.398 . S
C331 C337 1.491 . S
C332 H323 0.950 . S
C332 C331 1.398 . S
C332 C333 1.391 . S
C333 H321 0.950 . S
C333 C329 1.393 . S
C333 C332 1.391 . S
C334 H324 0.950 . S
C334 C335 1.386 . S
C334 C336 1.391 . S
C335 C334 1.386 . S
C335 C339 1.393 . S
C336 H325 0.950 . S
C336 C334 1.391 . S
C336 C337 1.400 . S
C337 C331 1.491 . S
C337 C336 1.400 . S
C337 C338 1.398 . S
C338 H326 0.950 . S
C338 C337 1.398 . S
C338 C339 1.391 . S
C339 H327 0.950 . S
C339 C335 1.393 . S
C339 C338 1.391 . S
H340 C348 0.950 . S
H341 C353 0.950 . S
H342 C350 0.950 . S
H343 C352 0.950 . S
H344 C354 0.950 . S
H345 C356 0.950 . S
H346 C358 0.950 . S
H347 C359 0.950 . S
C348 H340 0.950 . S
C348 C349 1.386 . S
C348 C350 1.391 . S
C349 C348 1.386 . S
C349 C353 1.393 . S
C350 H342 0.950 . S
C350 C348 1.391 . S
C350 C351 1.400 . S
C351 C350 1.400 . S
C351 C352 1.398 . S
C351 C357 1.491 . S
C352 H343 0.950 . S
C352 C351 1.398 . S
C352 C353 1.391 . S
C353 H341 0.950 . S
C353 C349 1.393 . S
C353 C352 1.391 . S
C354 H344 0.950 . S
C354 C355 1.386 . S
C354 C356 1.391 . S
C355 C354 1.386 . S
C355 C359 1.393 . S
C356 H345 0.950 . S
C356 C354 1.391 . S
C356 C357 1.400 . S
C357 C351 1.491 . S
C357 C356 1.400 . S
C357 C358 1.398 . S
C358 H346 0.950 . S
C358 C357 1.398 . S
C358 C359 1.391 . S
C359 H347 0.950 . S
C359 C355 1.393 . S
C359 C358 1.391 . S
H360 C368 0.950 . S
H361 C373 0.950 . S
H362 C370 0.950 . S
H363 C372 0.950 1_655 S
H364 C374 0.950 . S
H365 C376 0.950 . S
H366 C378 0.950 1_455 S
H367 C379 0.950 . S
C368 H360 0.950 . S
C368 C369 1.386 . S
C368 C370 1.391 . S
C369 C368 1.386 . S
C369 C373 1.393 . S
C370 H362 0.950 . S
C370 C368 1.391 . S
C370 C371 1.400 . S
C371 C370 1.400 . S
C371 C372 1.398 . S
C371 C377 1.491 1_455 S
C372 H363 0.950 1_455 S
C372 C371 1.398 . S
C372 C373 1.391 . S
C373 H361 0.950 . S
C373 C369 1.393 . S
C373 C372 1.391 . S
C374 H364 0.950 . S
C374 C375 1.386 . S
C374 C376 1.391 . S
C375 C374 1.386 . S
C375 C379 1.393 . S
C376 H365 0.950 . S
C376 C374 1.391 . S
C376 C377 1.400 . S
C377 C371 1.491 1_655 S
C377 C376 1.400 . S
C377 C378 1.398 . S
C378 H366 0.950 1_655 S
C378 C377 1.398 . S
C378 C379 1.391 . S
C379 H367 0.950 . S
C379 C375 1.393 . S
C379 C378 1.391 . S
H380 C388 0.950 . S
H381 C393 0.950 . S
H382 C390 0.950 . S
H383 C392 0.950 . S
H384 C394 0.950 . S
H385 C396 0.950 . S
H386 C398 0.950 . S
H387 C399 0.950 . S
C388 H380 0.950 . S
C388 C389 1.386 . S
C388 C390 1.391 1_455 S
C389 C388 1.386 . S
C389 C393 1.393 . S
C390 H382 0.950 . S
C390 C388 1.391 1_655 S
C390 C391 1.400 1_655 S
C391 C390 1.400 1_455 S
C391 C392 1.398 . S
C391 C397 1.491 1_455 S
C392 H383 0.950 . S
C392 C391 1.398 . S
C392 C393 1.391 . S
C393 H381 0.950 . S
C393 C389 1.393 . S
C393 C392 1.391 . S
C394 H384 0.950 . S
C394 C395 1.386 . S
C394 C396 1.391 1_655 S
C395 C394 1.386 . S
C395 C399 1.393 . S
C396 H385 0.950 . S
C396 C394 1.391 1_455 S
C396 C397 1.400 1_455 S
C397 C391 1.491 1_655 S
C397 C396 1.400 1_655 S
C397 C398 1.398 . S
C398 H386 0.950 . S
C398 C397 1.398 . S
C398 C399 1.391 . S
C399 H387 0.950 . S
C399 C395 1.393 . S
C399 C398 1.391 . S
H400 C408 0.950 . S
H401 C413 0.950 . S
H402 C410 0.950 . S
H403 C412 0.950 . S
H404 C414 0.950 . S
H405 C416 0.950 . S
H406 C418 0.950 . S
H407 C419 0.950 . S
C408 H400 0.950 . S
C408 C409 1.386 . S
C408 C410 1.391 . S
C409 C408 1.386 . S
C409 C413 1.393 . S
C410 H402 0.950 . S
C410 C408 1.391 . S
C410 C411 1.400 . S
C411 C410 1.400 . S
C411 C412 1.398 . S
C411 C417 1.491 . S
C412 H403 0.950 . S
C412 C411 1.398 . S
C412 C413 1.391 . S
C413 H401 0.950 . S
C413 C409 1.393 . S
C413 C412 1.391 . S
C414 H404 0.950 . S
C414 C415 1.386 . S
C414 C416 1.391 . S
C415 C414 1.386 . S
C415 C419 1.393 . S
C416 H405 0.950 . S
C416 C414 1.391 . S
C416 C417 1.400 . S
C417 C411 1.491 . S
C417 C416 1.400 . S
C417 C418 1.398 . S
C418 H406 0.950 . S
C418 C417 1.398 . S
C418 C419 1.391 . S
C419 H407 0.950 . S
C419 C415 1.393 . S
C419 C418 1.391 . S
H420 C428 0.950 . S
H421 C433 0.950 . S
H422 C430 0.950 . S
H423 C432 0.950 . S
H424 C434 0.950 . S
H425 C436 0.950 . S
H426 C438 0.950 . S
H427 C439 0.950 . S
C428 H420 0.950 . S
C428 C429 1.386 . S
C428 C430 1.391 . S
C429 C428 1.386 . S
C429 C433 1.393 . S
C430 H422 0.950 . S
C430 C428 1.391 . S
C430 C431 1.400 . S
C431 C430 1.400 . S
C431 C432 1.398 . S
C431 C437 1.491 . S
C432 H423 0.950 . S
C432 C431 1.398 . S
C432 C433 1.391 . S
C433 H421 0.950 . S
C433 C429 1.393 . S
C433 C432 1.391 . S
C434 H424 0.950 . S
C434 C435 1.386 . S
C434 C436 1.391 . S
C435 C434 1.386 . S
C435 C439 1.393 . S
C436 H425 0.950 . S
C436 C434 1.391 . S
C436 C437 1.400 . S
C437 C431 1.491 . S
C437 C436 1.400 . S
C437 C438 1.398 . S
C438 H426 0.950 . S
C438 C437 1.398 . S
C438 C439 1.391 . S
C439 H427 0.950 . S
C439 C435 1.393 . S
C439 C438 1.391 . S
H440 C448 0.950 . S
H441 C453 0.950 . S
H442 C450 0.950 . S
H443 C452 0.950 1_655 S
H444 C454 0.950 . S
H445 C456 0.950 . S
H446 C458 0.950 1_455 S
H447 C459 0.950 . S
C448 H440 0.950 . S
C448 C449 1.386 . S
C448 C450 1.391 . S
C449 C448 1.386 . S
C449 C453 1.393 . S
C450 H442 0.950 . S
C450 C448 1.391 . S
C450 C451 1.400 . S
C451 C450 1.400 . S
C451 C452 1.398 . S
C451 C457 1.491 1_455 S
C452 H443 0.950 1_455 S
C452 C451 1.398 . S
C452 C453 1.391 . S
C453 H441 0.950 . S
C453 C449 1.393 . S
C453 C452 1.391 . S
C454 H444 0.950 . S
C454 C455 1.386 . S
C454 C456 1.391 . S
C455 C454 1.386 . S
C455 C459 1.393 . S
C456 H445 0.950 . S
C456 C454 1.391 . S
C456 C457 1.400 . S
C457 C451 1.491 1_655 S
C457 C456 1.400 . S
C457 C458 1.398 . S
C458 H446 0.950 1_655 S
C458 C457 1.398 . S
C458 C459 1.391 . S
C459 H447 0.950 . S
C459 C455 1.393 . S
C459 C458 1.391 . S
H460 C468 0.950 . S
H461 C473 0.950 . S
H462 C470 0.950 . S
H463 C472 0.950 . S
H464 C474 0.950 . S
H465 C476 0.950 . S
H466 C478 0.950 . S
H467 C479 0.950 . S
C468 H460 0.950 . S
C468 C469 1.386 . S
C468 C470 1.391 1_455 S
C469 C468 1.386 . S
C469 C473 1.393 . S
C470 H462 0.950 . S
C470 C468 1.391 1_655 S
C470 C471 1.400 1_655 S
C471 C470 1.400 1_455 S
C471 C472 1.398 . S
C471 C477 1.491 1_455 S
C472 H463 0.950 . S
C472 C471 1.398 . S
C472 C473 1.391 . S
C473 H461 0.950 . S
C473 C469 1.393 . S
C473 C472 1.391 . S
C474 H464 0.950 . S
C474 C475 1.386 . S
C474 C476 1.391 1_655 S
C475 C474 1.386 . S
C475 C479 1.393 . S
C476 H465 0.950 . S
C476 C474 1.391 1_455 S
C476 C477 1.400 1_455 S
C477 C471 1.491 1_655 S
C477 C476 1.400 1_655 S
C477 C478 1.398 . S
C478 H466 0.950 . S
C478 C477 1.398 . S
C478 C479 1.391 . S
C479 H467 0.950 . S
C479 C475 1.393 . S
C479 C478 1.391 . S
H480 C488 0.950 . S
H481 C493 0.950 1_556 S
H482 C490 0.950 . S
H483 C492 0.954 . S
H484 C494 0.950 . S
H485 C496 0.950 . S
H486 C498 0.954 . S
H487 C499 0.950 1_554 S
C488 H480 0.950 . S
C488 C489 1.386 . S
C488 C490 1.391 . S
C489 C488 1.386 . S
C489 C493 1.393 . S
C490 H482 0.950 . S
C490 C488 1.391 . S
C490 C491 1.400 . S
C491 C490 1.400 . S
C491 C492 1.397 1_544 S
C491 C497 1.491 1_544 S
C492 H483 0.954 . S
C492 C491 1.397 1_566 S
C492 C493 1.388 1_566 S
C493 H481 0.950 1_554 S
C493 C489 1.393 . S
C493 C492 1.388 1_544 S
C494 H484 0.950 . S
C494 C495 1.386 . S
C494 C496 1.391 . S
C495 C494 1.386 . S
C495 C499 1.393 . S
C496 H485 0.950 . S
C496 C494 1.391 . S
C496 C497 1.400 . S
C497 C491 1.491 1_566 S
C497 C496 1.400 . S
C497 C498 1.397 1_566 S
C498 H486 0.954 . S
C498 C497 1.397 1_544 S
C498 C499 1.388 1_544 S
C499 H487 0.950 1_556 S
C499 C495 1.393 . S
C499 C498 1.388 1_566 S
H500 C508 0.950 . S
H501 C513 0.950 . S
H502 C510 0.950 . S
H503 C512 0.950 . S
H504 C514 0.950 . S
H505 C516 0.950 . S
H506 C518 0.950 . S
H507 C519 0.950 . S
C508 H500 0.950 . S
C508 C509 1.386 . S
C508 C510 1.391 . S
C509 C508 1.386 . S
C509 C513 1.393 . S
C510 H502 0.950 . S
C510 C508 1.391 . S
C510 C511 1.400 . S
C511 C510 1.400 . S
C511 C512 1.398 . S
C511 C517 1.491 . S
C512 H503 0.950 . S
C512 C511 1.398 . S
C512 C513 1.391 . S
C513 H501 0.950 . S
C513 C509 1.393 . S
C513 C512 1.391 . S
C514 H504 0.950 . S
C514 C515 1.386 . S
C514 C516 1.391 . S
C515 C514 1.386 . S
C515 C519 1.393 . S
C516 H505 0.950 . S
C516 C514 1.391 . S
C516 C517 1.400 . S
C517 C511 1.491 . S
C517 C516 1.400 . S
C517 C518 1.398 . S
C518 H506 0.950 . S
C518 C517 1.398 . S
C518 C519 1.391 . S
C519 H507 0.950 . S
C519 C515 1.393 . S
C519 C518 1.391 . S
H520 C528 0.950 . S
H521 C533 0.950 . S
H522 C530 0.950 . S
H523 C532 0.950 . S
H524 C534 0.950 . S
H525 C536 0.950 . S
H526 C538 0.950 . S
H527 C539 0.950 . S
C528 H520 0.950 . S
C528 C529 1.386 . S
C528 C530 1.391 . S
C529 C528 1.386 . S
C529 C533 1.393 1_565 S
C530 H522 0.950 . S
C530 C528 1.391 . S
C530 C531 1.400 . S
C531 C530 1.400 . S
C531 C532 1.398 1_565 S
C531 C537 1.491 1_465 S
C532 H523 0.950 . S
C532 C531 1.398 1_545 S
C532 C533 1.391 . S
C533 H521 0.950 . S
C533 C529 1.393 1_545 S
C533 C532 1.391 . S
C534 H524 0.950 . S
C534 C535 1.386 . S
C534 C536 1.391 . S
C535 C534 1.386 . S
C535 C539 1.393 1_545 S
C536 H525 0.950 . S
C536 C534 1.391 . S
C536 C537 1.400 . S
C537 C531 1.491 1_645 S
C537 C536 1.400 . S
C537 C538 1.398 1_545 S
C538 H526 0.950 . S
C538 C537 1.398 1_565 S
C538 C539 1.391 . S
C539 H527 0.950 . S
C539 C535 1.393 1_565 S
C539 C538 1.391 . S
H540 C548 0.950 . S
H541 C553 0.950 . S
H542 C550 0.950 . S
H543 C552 0.950 . S
H544 C554 0.950 . S
H545 C556 0.950 . S
H546 C558 0.950 . S
H547 C559 0.950 . S
C548 H540 0.950 . S
C548 C549 1.386 . S
C548 C550 1.391 . S
C549 C548 1.386 . S
C549 C553 1.393 . S
C550 H542 0.950 . S
C550 C548 1.391 . S
C550 C551 1.400 . S
C551 C550 1.400 . S
C551 C552 1.398 . S
C551 C557 1.491 . S
C552 H543 0.950 . S
C552 C551 1.398 . S
C552 C553 1.391 . S
C553 H541 0.950 . S
C553 C549 1.393 . S
C553 C552 1.391 . S
C554 H544 0.950 . S
C554 C555 1.386 . S
C554 C556 1.391 . S
C555 C554 1.386 . S
C555 C559 1.393 . S
C556 H545 0.950 . S
C556 C554 1.391 . S
C556 C557 1.400 . S
C557 C551 1.491 . S
C557 C556 1.400 . S
C557 C558 1.398 . S
C558 H546 0.950 . S
C558 C557 1.398 . S
C558 C559 1.391 . S
C559 H547 0.950 . S
C559 C555 1.393 . S
C559 C558 1.391 . S
H560 C568 0.950 . S
H561 C573 0.950 . S
H562 C570 0.950 . S
H563 C572 0.950 . S
H564 C574 0.950 . S
H565 C576 0.950 . S
H566 C578 0.950 . S
H567 C579 0.950 . S
C568 H560 0.950 . S
C568 C569 1.386 . S
C568 C570 1.391 . S
C569 C568 1.386 . S
C569 C573 1.393 . S
C570 H562 0.950 . S
C570 C568 1.391 . S
C570 C571 1.400 . S
C571 C570 1.400 . S
C571 C572 1.398 . S
C571 C577 1.491 . S
C572 H563 0.950 . S
C572 C571 1.398 . S
C572 C573 1.391 . S
C573 H561 0.950 . S
C573 C569 1.393 . S
C573 C572 1.391 . S
C574 H564 0.950 . S
C574 C575 1.386 . S
C574 C576 1.391 . S
C575 C574 1.386 . S
C575 C579 1.393 . S
C576 H565 0.950 . S
C576 C574 1.391 . S
C576 C577 1.400 . S
C577 C571 1.491 . S
C577 C576 1.400 . S
C577 C578 1.398 . S
C578 H566 0.950 . S
C578 C577 1.398 . S
C578 C579 1.391 . S
C579 H567 0.950 . S
C579 C575 1.393 . S
C579 C578 1.391 . S
H580 C588 0.950 . S
H581 C593 0.950 . S
H582 C590 0.950 . S
H583 C592 0.950 . S
H584 C594 0.950 . S
H585 C596 0.950 . S
H586 C598 0.950 . S
H587 C599 0.950 . S
C588 H580 0.950 . S
C588 C589 1.386 . S
C588 C590 1.391 . S
C589 C588 1.386 . S
C589 C593 1.393 . S
C590 H582 0.950 . S
C590 C588 1.391 . S
C590 C591 1.400 . S
C591 C590 1.400 . S
C591 C592 1.398 . S
C591 C597 1.491 . S
C592 H583 0.950 . S
C592 C591 1.398 . S
C592 C593 1.391 . S
C593 H581 0.950 . S
C593 C589 1.393 . S
C593 C592 1.391 . S
C594 H584 0.950 . S
C594 C595 1.386 . S
C594 C596 1.391 . S
C595 C594 1.386 . S
C595 C599 1.393 . S
C596 H585 0.950 . S
C596 C594 1.391 . S
C596 C597 1.400 . S
C597 C591 1.491 . S
C597 C596 1.400 . S
C597 C598 1.398 . S
C598 H586 0.950 . S
C598 C597 1.398 . S
C598 C599 1.391 . S
C599 H587 0.950 . S
C599 C595 1.393 . S
C599 C598 1.391 . S
H600 C608 0.950 . S
H601 C613 0.950 . S
H602 C610 0.950 1_655 S
H603 C612 0.950 . S
H604 C614 0.950 . S
H605 C616 0.950 1_455 S
H606 C618 0.950 . S
H607 C619 0.950 . S
C608 H600 0.950 . S
C608 C609 1.386 . S
C608 C610 1.391 . S
C609 C608 1.386 . S
C609 C613 1.393 . S
C610 H602 0.950 1_455 S
C610 C608 1.391 . S
C610 C611 1.400 . S
C611 C610 1.400 . S
C611 C612 1.398 . S
C611 C617 1.491 1_455 S
C612 H603 0.950 . S
C612 C611 1.398 . S
C612 C613 1.391 . S
C613 H601 0.950 . S
C613 C609 1.393 . S
C613 C612 1.391 . S
C614 H604 0.950 . S
C614 C615 1.386 . S
C614 C616 1.391 . S
C615 C614 1.386 . S
C615 C619 1.393 . S
C616 H605 0.950 1_655 S
C616 C614 1.391 . S
C616 C617 1.400 . S
C617 C611 1.491 1_655 S
C617 C616 1.400 . S
C617 C618 1.398 . S
C618 H606 0.950 . S
C618 C617 1.398 . S
C618 C619 1.391 . S
C619 H607 0.950 . S
C619 C615 1.393 . S
C619 C618 1.391 . S
H620 C628 0.950 . S
H621 C633 0.950 1_556 S
H622 C630 0.950 . S
H623 C632 0.950 . S
H624 C634 0.950 . S
H625 C636 0.950 . S
H626 C638 0.950 . S
H627 C639 0.950 1_554 S
C628 H620 0.950 . S
C628 C629 1.386 . S
C628 C630 1.391 . S
C629 C628 1.386 . S
C629 C633 1.393 . S
C630 H622 0.950 . S
C630 C628 1.391 . S
C630 C631 1.400 . S
C631 C630 1.400 . S
C631 C632 1.398 1_554 S
C631 C637 1.491 1_554 S
C632 H623 0.950 . S
C632 C631 1.398 1_556 S
C632 C633 1.391 1_556 S
C633 H621 0.950 1_554 S
C633 C629 1.393 . S
C633 C632 1.391 1_554 S
C634 H624 0.950 . S
C634 C635 1.386 . S
C634 C636 1.391 . S
C635 C634 1.386 . S
C635 C639 1.393 . S
C636 H625 0.950 . S
C636 C634 1.391 . S
C636 C637 1.400 . S
C637 C631 1.491 1_556 S
C637 C636 1.400 . S
C637 C638 1.398 1_556 S
C638 H626 0.950 . S
C638 C637 1.398 1_554 S
C638 C639 1.391 1_554 S
C639 H627 0.950 1_556 S
C639 C635 1.393 . S
C639 C638 1.391 1_556 S
H640 C648 0.950 . S
H641 C653 0.950 . S
H642 C650 0.950 . S
H643 C652 0.950 . S
H644 C654 0.950 . S
H645 C656 0.950 . S
H646 C658 0.950 . S
H647 C659 0.950 . S
C648 H640 0.950 . S
C648 C649 1.386 . S
C648 C650 1.391 . S
C649 C648 1.386 . S
C649 C653 1.393 . S
C650 H642 0.950 . S
C650 C648 1.391 . S
C650 C651 1.400 . S
C651 C650 1.400 . S
C651 C652 1.398 . S
C651 C657 1.491 . S
C652 H643 0.950 . S
C652 C651 1.398 . S
C652 C653 1.391 . S
C653 H641 0.950 . S
C653 C649 1.393 . S
C653 C652 1.391 . S
C654 H644 0.950 . S
C654 C655 1.386 . S
C654 C656 1.391 . S
C655 C654 1.386 . S
C655 C659 1.393 . S
C656 H645 0.950 . S
C656 C654 1.391 . S
C656 C657 1.400 . S
C657 C651 1.491 . S
C657 C656 1.400 . S
C657 C658 1.398 . S
C658 H646 0.950 . S
C658 C657 1.398 . S
C658 C659 1.391 . S
C659 H647 0.950 . S
C659 C655 1.393 . S
C659 C658 1.391 . S
H660 C668 0.950 . S
H661 C673 0.950 . S
H662 C670 0.950 . S
H663 C672 0.950 . S
H664 C674 0.950 . S
H665 C676 0.950 . S
H666 C678 0.950 . S
H667 C679 0.950 . S
C668 H660 0.950 . S
C668 C669 1.386 . S
C668 C670 1.391 . S
C669 C668 1.386 . S
C669 C673 1.393 . S
C670 H662 0.950 . S
C670 C668 1.391 . S
C670 C671 1.400 . S
C671 C670 1.400 . S
C671 C672 1.398 . S
C671 C677 1.491 . S
C672 H663 0.950 . S
C672 C671 1.398 . S
C672 C673 1.391 . S
C673 H661 0.950 . S
C673 C669 1.393 . S
C673 C672 1.391 . S
C674 H664 0.950 . S
C674 C675 1.386 . S
C674 C676 1.391 . S
C675 C674 1.386 . S
C675 C679 1.393 . S
C676 H665 0.950 . S
C676 C674 1.391 . S
C676 C677 1.400 . S
C677 C671 1.491 . S
C677 C676 1.400 . S
C677 C678 1.398 . S
C678 H666 0.950 . S
C678 C677 1.398 . S
C678 C679 1.391 . S
C679 H667 0.950 . S
C679 C675 1.393 . S
C679 C678 1.391 . S
H680 C688 0.950 . S
H681 C693 0.950 . S
H682 C690 0.950 . S
H683 C692 0.950 . S
H684 C694 0.950 . S
H685 C696 0.950 . S
H686 C698 0.950 . S
H687 C699 0.950 . S
C688 H680 0.950 . S
C688 C689 1.386 . S
C688 C690 1.391 . S
C689 C688 1.386 . S
C689 C693 1.393 . S
C690 H682 0.950 . S
C690 C688 1.391 . S
C690 C691 1.400 . S
C691 C690 1.400 . S
C691 C692 1.398 . S
C691 C697 1.491 . S
C692 H683 0.950 . S
C692 C691 1.398 . S
C692 C693 1.391 . S
C693 H681 0.950 . S
C693 C689 1.393 . S
C693 C692 1.391 . S
C694 H684 0.950 . S
C694 C695 1.386 . S
C694 C696 1.391 . S
C695 C694 1.386 . S
C695 C699 1.393 . S
C696 H685 0.950 . S
C696 C694 1.391 . S
C696 C697 1.400 . S
C697 C691 1.491 . S
C697 C696 1.400 . S
C697 C698 1.398 . S
C698 H686 0.950 . S
C698 C697 1.398 . S
C698 C699 1.391 . S
C699 H687 0.950 . S
C699 C695 1.393 . S
C699 C698 1.391 . S
H700 C708 0.950 . S
H701 C713 0.950 . S
H702 C710 0.950 . S
H703 C712 0.950 . S
H704 C714 0.950 . S
H705 C716 0.950 . S
H706 C718 0.950 . S
H707 C719 0.950 . S
C708 H700 0.950 . S
C708 C709 1.386 . S
C708 C710 1.391 . S
C709 C708 1.386 . S
C709 C713 1.393 . S
C710 H702 0.950 . S
C710 C708 1.391 . S
C710 C711 1.400 . S
C711 C710 1.400 . S
C711 C712 1.398 . S
C711 C717 1.491 . S
C712 H703 0.950 . S
C712 C711 1.398 . S
C712 C713 1.391 . S
C713 H701 0.950 . S
C713 C709 1.393 . S
C713 C712 1.391 . S
C714 H704 0.950 . S
C714 C715 1.386 . S
C714 C716 1.391 . S
C715 C714 1.386 . S
C715 C719 1.393 . S
C716 H705 0.950 . S
C716 C714 1.391 . S
C716 C717 1.400 . S
C717 C711 1.491 . S
C717 C716 1.400 . S
C717 C718 1.398 . S
C718 H706 0.950 . S
C718 C717 1.398 . S
C718 C719 1.391 . S
C719 H707 0.950 . S
C719 C715 1.393 . S
C719 C718 1.391 . S
H720 C728 0.950 . S
H721 C733 0.950 . S
H722 C730 0.950 . S
H723 C732 0.950 . S
H724 C734 0.950 . S
H725 C736 0.950 . S
H726 C738 0.950 . S
H727 C739 0.950 . S
C728 H720 0.950 . S
C728 C729 1.386 . S
C728 C730 1.391 . S
C729 C728 1.386 . S
C729 C733 1.393 . S
C730 H722 0.950 . S
C730 C728 1.391 . S
C730 C731 1.400 . S
C731 C730 1.400 . S
C731 C732 1.398 . S
C731 C737 1.491 . S
C732 H723 0.950 . S
C732 C731 1.398 . S
C732 C733 1.391 . S
C733 H721 0.950 . S
C733 C729 1.393 . S
C733 C732 1.391 . S
C734 H724 0.950 . S
C734 C735 1.386 . S
C734 C736 1.391 . S
C735 C734 1.386 . S
C735 C739 1.393 . S
C736 H725 0.950 . S
C736 C734 1.391 . S
C736 C737 1.400 . S
C737 C731 1.491 . S
C737 C736 1.400 . S
C737 C738 1.398 . S
C738 H726 0.950 . S
C738 C737 1.398 . S
C738 C739 1.391 . S
C739 H727 0.950 . S
C739 C735 1.393 . S
C739 C738 1.391 . S
H740 C748 0.950 . S
H741 C753 0.950 . S
H742 C750 0.950 . S
H743 C752 0.950 . S
H744 C754 0.950 . S
H745 C756 0.950 . S
H746 C758 0.950 . S
H747 C759 0.950 . S
C748 H740 0.950 . S
C748 C749 1.386 . S
C748 C750 1.391 . S
C749 C748 1.386 . S
C749 C753 1.393 . S
C750 H742 0.950 . S
C750 C748 1.391 . S
C750 C751 1.400 . S
C751 C750 1.400 . S
C751 C752 1.398 . S
C751 C757 1.491 . S
C752 H743 0.950 . S
C752 C751 1.398 . S
C752 C753 1.391 . S
C753 H741 0.950 . S
C753 C749 1.393 . S
C753 C752 1.391 . S
C754 H744 0.950 . S
C754 C755 1.386 . S
C754 C756 1.391 . S
C755 C754 1.386 . S
C755 C759 1.393 . S
C756 H745 0.950 . S
C756 C754 1.391 . S
C756 C757 1.400 . S
C757 C751 1.491 . S
C757 C756 1.400 . S
C757 C758 1.398 . S
C758 H746 0.950 . S
C758 C757 1.398 . S
C758 C759 1.391 . S
C759 H747 0.950 . S
C759 C755 1.393 . S
C759 C758 1.391 . S
H760 C768 0.950 . S
H761 C773 0.950 . S
H762 C770 0.950 . S
H763 C772 0.950 . S
H764 C774 0.950 . S
H765 C776 0.950 . S
H766 C778 0.950 . S
H767 C779 0.950 . S
C768 H760 0.950 . S
C768 C769 1.386 . S
C768 C770 1.391 . S
C769 C768 1.386 . S
C769 C773 1.393 . S
C770 H762 0.950 . S
C770 C768 1.391 . S
C770 C771 1.400 . S
C771 C770 1.400 . S
C771 C772 1.398 . S
C771 C777 1.491 . S
C772 H763 0.950 . S
C772 C771 1.398 . S
C772 C773 1.391 . S
C773 H761 0.950 . S
C773 C769 1.393 . S
C773 C772 1.391 . S
C774 H764 0.950 . S
C774 C775 1.386 . S
C774 C776 1.391 . S
C775 C774 1.386 . S
C775 C779 1.393 . S
C776 H765 0.950 . S
C776 C774 1.391 . S
C776 C777 1.400 . S
C777 C771 1.491 . S
C777 C776 1.400 . S
C777 C778 1.398 . S
C778 H766 0.950 . S
C778 C777 1.398 . S
C778 C779 1.391 . S
C779 H767 0.950 . S
C779 C775 1.393 . S
C779 C778 1.391 . S
H780 C788 0.950 . S
H781 C793 0.950 . S
H782 C790 0.950 . S
H783 C792 0.950 . S
H784 C794 0.950 . S
H785 C796 0.950 . S
H786 C798 0.950 . S
H787 C799 0.950 1_455 S
C788 H780 0.950 . S
C788 C789 1.386 . S
C788 C790 1.391 . S
C789 C788 1.386 . S
C789 C793 1.393 . S
C790 H782 0.950 . S
C790 C788 1.391 . S
C790 C791 1.400 . S
C791 C790 1.400 . S
C791 C792 1.398 . S
C791 C797 1.491 . S
C792 H783 0.950 . S
C792 C791 1.398 . S
C792 C793 1.391 . S
C793 H781 0.950 . S
C793 C789 1.393 . S
C793 C792 1.391 . S
C794 H784 0.950 . S
C794 C795 1.386 . S
C794 C796 1.391 . S
C795 C794 1.386 . S
C795 C799 1.393 . S
C796 H785 0.950 . S
C796 C794 1.391 . S
C796 C797 1.400 . S
C797 C791 1.491 . S
C797 C796 1.400 . S
C797 C798 1.398 . S
C798 H786 0.950 . S
C798 C797 1.398 . S
C798 C799 1.391 . S
C799 H787 0.950 1_655 S
C799 C795 1.393 . S
C799 C798 1.391 . S
H800 C808 0.950 . S
H801 C813 0.950 . S
H802 C810 0.950 . S
H803 C812 0.950 . S
H804 C814 0.950 . S
H805 C816 0.950 . S
H806 C818 0.950 . S
H807 C819 0.950 . S
C808 H800 0.950 . S
C808 C809 1.386 . S
C808 C810 1.391 . S
C809 C808 1.386 . S
C809 C813 1.393 . S
C810 H802 0.950 . S
C810 C808 1.391 . S
C810 C811 1.400 . S
C811 C810 1.400 . S
C811 C812 1.398 . S
C811 C817 1.491 . S
C812 H803 0.950 . S
C812 C811 1.398 . S
C812 C813 1.391 . S
C813 H801 0.950 . S
C813 C809 1.393 . S
C813 C812 1.391 . S
C814 H804 0.950 . S
C814 C815 1.386 . S
C814 C816 1.391 . S
C815 C814 1.386 . S
C815 C819 1.393 . S
C816 H805 0.950 . S
C816 C814 1.391 . S
C816 C817 1.400 . S
C817 C811 1.491 . S
C817 C816 1.400 . S
C817 C818 1.398 . S
C818 H806 0.950 . S
C818 C817 1.398 . S
C818 C819 1.391 . S
C819 H807 0.950 . S
C819 C815 1.393 . S
C819 C818 1.391 . S
H820 C828 0.950 . S
H821 C833 0.950 . S
H822 C830 0.950 1_545 S
H823 C832 0.950 . S
H824 C834 0.950 1_455 S
H825 C836 0.950 . S
H826 C838 0.950 . S
H827 C839 0.950 . S
C828 H820 0.950 . S
C828 C829 1.386 . S
C828 C830 1.391 . S
C829 C828 1.386 . S
C829 C833 1.393 . S
C830 H822 0.950 1_565 S
C830 C828 1.391 . S
C830 C831 1.400 . S
C831 C830 1.400 . S
C831 C832 1.398 . S
C831 C837 1.491 . S
C832 H823 0.950 . S
C832 C831 1.398 . S
C832 C833 1.391 . S
C833 H821 0.950 . S
C833 C829 1.393 . S
C833 C832 1.391 . S
C834 H824 0.950 1_655 S
C834 C835 1.386 . S
C834 C836 1.391 . S
C835 C834 1.386 . S
C835 C839 1.393 1_565 S
C836 H825 0.950 . S
C836 C834 1.391 . S
C836 C837 1.400 . S
C837 C831 1.491 . S
C837 C836 1.400 . S
C837 C838 1.398 1_565 S
C838 H826 0.950 . S
C838 C837 1.398 1_545 S
C838 C839 1.391 . S
C839 H827 0.950 . S
C839 C835 1.393 1_545 S
C839 C838 1.391 . S
H840 C848 0.950 . S
H841 C853 0.950 . S
H842 C850 0.950 . S
H843 C852 0.950 . S
H844 C854 0.950 . S
H845 C856 0.950 . S
H846 C858 0.950 . S
H847 C859 0.950 . S
C848 H840 0.950 . S
C848 C849 1.386 . S
C848 C850 1.391 . S
C849 C848 1.386 . S
C849 C853 1.393 . S
C850 H842 0.950 . S
C850 C848 1.391 . S
C850 C851 1.400 . S
C851 C850 1.400 . S
C851 C852 1.398 . S
C851 C857 1.491 . S
C852 H843 0.950 . S
C852 C851 1.398 . S
C852 C853 1.391 . S
C853 H841 0.950 . S
C853 C849 1.393 . S
C853 C852 1.391 . S
C854 H844 0.950 . S
C854 C855 1.386 . S
C854 C856 1.391 . S
C855 C854 1.386 . S
C855 C859 1.393 . S
C856 H845 0.950 . S
C856 C854 1.391 . S
C856 C857 1.400 . S
C857 C851 1.491 . S
C857 C856 1.400 . S
C857 C858 1.398 . S
C858 H846 0.950 . S
C858 C857 1.398 . S
C858 C859 1.391 . S
C859 H847 0.950 . S
C859 C855 1.393 . S
C859 C858 1.391 . S
H860 C868 0.950 . S
H861 C873 0.950 . S
H862 C870 0.950 . S
H863 C872 0.950 . S
H864 C874 0.950 . S
H865 C876 0.950 . S
H866 C878 0.950 . S
H867 C879 0.950 1_565 S
C868 H860 0.950 . S
C868 C869 1.386 . S
C868 C870 1.391 . S
C869 C868 1.386 . S
C869 C873 1.393 . S
C870 H862 0.950 . S
C870 C868 1.391 . S
C870 C871 1.400 . S
C871 C870 1.400 . S
C871 C872 1.398 . S
C871 C877 1.491 . S
C872 H863 0.950 . S
C872 C871 1.398 . S
C872 C873 1.391 . S
C873 H861 0.950 . S
C873 C869 1.393 . S
C873 C872 1.391 . S
C874 H864 0.950 . S
C874 C875 1.386 . S
C874 C876 1.391 . S
C875 C874 1.386 . S
C875 C879 1.393 . S
C876 H865 0.950 . S
C876 C874 1.391 . S
C876 C877 1.400 . S
C877 C871 1.491 . S
C877 C876 1.400 . S
C877 C878 1.398 . S
C878 H866 0.950 . S
C878 C877 1.398 . S
C878 C879 1.391 . S
C879 H867 0.950 1_545 S
C879 C875 1.393 . S
C879 C878 1.391 . S
H880 C888 0.950 . S
H881 C893 0.950 . S
H882 C890 0.950 . S
H883 C892 0.950 . S
H884 C894 0.950 . S
H885 C896 0.950 . S
H886 C898 0.950 . S
H887 C899 0.950 . S
C888 H880 0.950 . S
C888 C889 1.386 . S
C888 C890 1.391 . S
C889 C888 1.386 . S
C889 C893 1.393 . S
C890 H882 0.950 . S
C890 C888 1.391 . S
C890 C891 1.400 . S
C891 C890 1.400 . S
C891 C892 1.398 . S
C891 C897 1.491 . S
C892 H883 0.950 . S
C892 C891 1.398 . S
C892 C893 1.391 . S
C893 H881 0.950 . S
C893 C889 1.393 . S
C893 C892 1.391 . S
C894 H884 0.950 . S
C894 C895 1.386 . S
C894 C896 1.391 . S
C895 C894 1.386 . S
C895 C899 1.393 . S
C896 H885 0.950 . S
C896 C894 1.391 . S
C896 C897 1.400 . S
C897 C891 1.491 . S
C897 C896 1.400 . S
C897 C898 1.398 . S
C898 H886 0.950 . S
C898 C897 1.398 . S
C898 C899 1.391 . S
C899 H887 0.950 . S
C899 C895 1.393 . S
C899 C898 1.391 . S
H900 C908 0.964 . S
H901 C913 0.950 . S
H902 C910 0.959 . S
H903 C912 0.950 . S
H904 C914 0.950 . S
H905 C916 0.950 . S
H906 C918 0.950 . S
H907 C919 0.950 . S
C908 H900 0.964 . S
C908 C909 1.378 1_565 S
C908 C910 1.385 1_565 S
C909 C908 1.378 1_545 S
C909 C913 1.393 . S
C910 H902 0.959 . S
C910 C908 1.385 1_545 S
C910 C911 1.400 . S
C911 C910 1.400 . S
C911 C912 1.398 . S
C911 C917 1.491 . S
C912 H903 0.950 . S
C912 C911 1.398 . S
C912 C913 1.391 . S
C913 H901 0.950 . S
C913 C909 1.393 . S
C913 C912 1.391 . S
C914 H904 0.950 . S
C914 C915 1.386 . S
C914 C916 1.391 . S
C915 C914 1.386 . S
C915 C919 1.393 . S
C916 H905 0.950 . S
C916 C914 1.391 . S
C916 C917 1.400 . S
C917 C911 1.491 . S
C917 C916 1.400 . S
C917 C918 1.398 . S
C918 H906 0.950 . S
C918 C917 1.398 . S
C918 C919 1.391 . S
C919 H907 0.950 . S
C919 C915 1.393 . S
C919 C918 1.391 . S
H920 C928 0.950 . S
H921 C933 0.950 . S
H922 C930 0.950 . S
H923 C932 0.950 . S
H924 C934 0.950 . S
H925 C936 0.950 . S
H926 C938 0.950 . S
H927 C939 0.950 . S
C928 H920 0.950 . S
C928 C929 1.386 . S
C928 C930 1.391 . S
C929 C928 1.386 . S
C929 C933 1.393 . S
C930 H922 0.950 . S
C930 C928 1.391 . S
C930 C931 1.400 . S
C931 C930 1.400 . S
C931 C932 1.398 . S
C931 C937 1.491 . S
C932 H923 0.950 . S
C932 C931 1.398 . S
C932 C933 1.391 . S
C933 H921 0.950 . S
C933 C929 1.393 . S
C933 C932 1.391 . S
C934 H924 0.950 . S
C934 C935 1.386 . S
C934 C936 1.391 . S
C935 C934 1.386 . S
C935 C939 1.393 . S
C936 H925 0.950 . S
C936 C934 1.391 . S
C936 C937 1.400 . S
C937 C931 1.491 . S
C937 C936 1.400 . S
C937 C938 1.398 . S
C938 H926 0.950 . S
C938 C937 1.398 . S
C938 C939 1.391 . S
C939 H927 0.950 . S
C939 C935 1.393 . S
C939 C938 1.391 . S
H940 C948 0.950 . S
H941 C953 0.950 . S
H942 C950 0.950 . S
H943 C952 0.950 . S
H944 C954 0.950 . S
H945 C956 0.950 . S
H946 C958 0.950 1_545 S
H947 C959 0.950 . S
C948 H940 0.950 . S
C948 C949 1.386 1_545 S
C948 C950 1.391 . S
C949 C948 1.386 1_565 S
C949 C953 1.393 . S
C950 H942 0.950 . S
C950 C948 1.391 . S
C950 C951 1.400 1_545 S
C951 C950 1.400 1_565 S
C951 C952 1.398 . S
C951 C957 1.491 . S
C952 H943 0.950 . S
C952 C951 1.398 . S
C952 C953 1.391 . S
C953 H941 0.950 . S
C953 C949 1.393 . S
C953 C952 1.391 . S
C954 H944 0.950 . S
C954 C955 1.386 . S
C954 C956 1.391 . S
C955 C954 1.386 . S
C955 C959 1.393 . S
C956 H945 0.950 . S
C956 C954 1.391 . S
C956 C957 1.400 . S
C957 C951 1.491 . S
C957 C956 1.400 . S
C957 C958 1.398 . S
C958 H946 0.950 1_565 S
C958 C957 1.398 . S
C958 C959 1.391 . S
C959 H947 0.950 . S
C959 C955 1.393 . S
C959 C958 1.391 . S
H960 C968 0.950 1_554 S
H961 C973 0.967 . S
H962 C970 0.950 . S
H963 C972 0.950 . S
H964 C974 0.950 . S
H965 C976 0.950 . S
H966 C978 0.950 . S
H967 C979 0.950 . S
C968 H960 0.950 1_556 S
C968 C969 1.386 1_556 S
C968 C970 1.391 . S
C969 C968 1.386 1_554 S
C969 C973 1.393 1_554 S
C970 H962 0.950 . S
C970 C968 1.391 . S
C970 C971 1.400 . S
C971 C970 1.400 . S
C971 C972 1.398 . S
C971 C977 1.491 . S
C972 H963 0.950 . S
C972 C971 1.398 . S
C972 C973 1.391 . S
C973 H961 0.967 . S
C973 C969 1.393 1_556 S
C973 C972 1.391 . S
C974 H964 0.950 . S
C974 C975 1.386 . S
C974 C976 1.391 . S
C975 C974 1.386 . S
C975 C979 1.393 . S
C976 H965 0.950 . S
C976 C974 1.391 . S
C976 C977 1.400 . S
C977 C971 1.491 . S
C977 C976 1.400 . S
C977 C978 1.398 . S
C978 H966 0.950 . S
C978 C977 1.398 . S
C978 C979 1.391 . S
C979 H967 0.950 . S
C979 C975 1.393 . S
C979 C978 1.391 . S
H980 C988 0.950 . S
H981 C993 0.950 . S
H982 C990 0.950 . S
H983 C992 0.950 . S
H984 C994 0.950 . S
H985 C996 0.950 . S
H986 C998 0.950 . S
H987 C999 0.950 . S
C988 H980 0.950 . S
C988 C989 1.386 . S
C988 C990 1.391 . S
C989 C988 1.386 . S
C989 C993 1.393 . S
C990 H982 0.950 . S
C990 C988 1.391 . S
C990 C991 1.400 . S
C991 C990 1.400 . S
C991 C992 1.398 . S
C991 C997 1.491 . S
C992 H983 0.950 . S
C992 C991 1.398 . S
C992 C993 1.391 . S
C993 H981 0.950 . S
C993 C989 1.393 . S
C993 C992 1.391 . S
C994 H984 0.950 . S
C994 C995 1.386 . S
C994 C996 1.391 . S
C995 C994 1.386 . S
C995 C999 1.393 . S
C996 H985 0.950 . S
C996 C994 1.391 . S
C996 C997 1.400 . S
C997 C991 1.491 . S
C997 C996 1.400 . S
C997 C998 1.398 . S
C998 H986 0.950 . S
C998 C997 1.398 . S
C998 C999 1.391 . S
C999 H987 0.950 . S
C999 C995 1.393 . S
C999 C998 1.391 . S
H1000 C1008 0.950 . S
H1001 C1013 0.950 . S
H1002 C1010 0.950 . S
H1003 C1012 0.950 . S
H1004 C1014 0.950 . S
H1005 C1016 0.950 . S
H1006 C1018 0.950 . S
H1007 C1019 0.950 . S
C1008 H1000 0.950 . S
C1008 C1009 1.386 . S
C1008 C1010 1.391 . S
C1009 C1008 1.386 . S
C1009 C1013 1.393 . S
C1010 H1002 0.950 . S
C1010 C1008 1.391 . S
C1010 C1011 1.400 . S
C1011 C1010 1.400 . S
C1011 C1012 1.398 . S
C1011 C1017 1.491 . S
C1012 H1003 0.950 . S
C1012 C1011 1.398 . S
C1012 C1013 1.391 . S
C1013 H1001 0.950 . S
C1013 C1009 1.393 . S
C1013 C1012 1.391 . S
C1014 H1004 0.950 . S
C1014 C1015 1.386 . S
C1014 C1016 1.391 . S
C1015 C1014 1.386 . S
C1015 C1019 1.393 . S
C1016 H1005 0.950 . S
C1016 C1014 1.391 . S
C1016 C1017 1.400 . S
C1017 C1011 1.491 . S
C1017 C1016 1.400 . S
C1017 C1018 1.398 . S
C1018 H1006 0.950 . S
C1018 C1017 1.398 . S
C1018 C1019 1.391 . S
C1019 H1007 0.950 . S
C1019 C1015 1.393 . S
C1019 C1018 1.391 . S
H1020 C1028 0.950 . S
H1021 C1033 0.950 . S
H1022 C1030 0.950 . S
H1023 C1032 0.950 . S
H1024 C1034 0.950 . S
H1025 C1036 0.950 . S
H1026 C1038 0.950 . S
H1027 C1039 0.950 . S
C1028 H1020 0.950 . S
C1028 C1029 1.386 . S
C1028 C1030 1.391 . S
C1029 C1028 1.386 . S
C1029 C1033 1.393 . S
C1030 H1022 0.950 . S
C1030 C1028 1.391 . S
C1030 C1031 1.400 . S
C1031 C1030 1.400 . S
C1031 C1032 1.398 . S
C1031 C1037 1.491 . S
C1032 H1023 0.950 . S
C1032 C1031 1.398 . S
C1032 C1033 1.391 . S
C1033 H1021 0.950 . S
C1033 C1029 1.393 . S
C1033 C1032 1.391 . S
C1034 H1024 0.950 . S
C1034 C1035 1.386 . S
C1034 C1036 1.391 . S
C1035 C1034 1.386 . S
C1035 C1039 1.393 . S
C1036 H1025 0.950 . S
C1036 C1034 1.391 . S
C1036 C1037 1.400 . S
C1037 C1031 1.491 . S
C1037 C1036 1.400 . S
C1037 C1038 1.398 . S
C1038 H1026 0.950 . S
C1038 C1037 1.398 . S
C1038 C1039 1.391 . S
C1039 H1027 0.950 . S
C1039 C1035 1.393 . S
C1039 C1038 1.391 . S
H1040 C1048 0.950 . S
H1041 C1053 0.950 . S
H1042 C1050 0.950 . S
H1043 C1052 0.950 . S
H1044 C1054 0.950 . S
H1045 C1056 0.950 . S
H1046 C1058 0.950 . S
H1047 C1059 0.950 . S
C1048 H1040 0.950 . S
C1048 C1049 1.386 . S
C1048 C1050 1.391 . S
C1049 C1048 1.386 . S
C1049 C1053 1.393 . S
C1050 H1042 0.950 . S
C1050 C1048 1.391 . S
C1050 C1051 1.400 . S
C1051 C1050 1.400 . S
C1051 C1052 1.398 . S
C1051 C1057 1.491 . S
C1052 H1043 0.950 . S
C1052 C1051 1.398 . S
C1052 C1053 1.391 . S
C1053 H1041 0.950 . S
C1053 C1049 1.393 . S
C1053 C1052 1.391 . S
C1054 H1044 0.950 . S
C1054 C1055 1.386 1_554 S
C1054 C1056 1.391 . S
C1055 C1054 1.386 1_556 S
C1055 C1059 1.393 . S
C1056 H1045 0.950 . S
C1056 C1054 1.391 . S
C1056 C1057 1.400 . S
C1057 C1051 1.491 . S
C1057 C1056 1.400 . S
C1057 C1058 1.398 . S
C1058 H1046 0.950 . S
C1058 C1057 1.398 . S
C1058 C1059 1.391 1_554 S
C1059 H1047 0.950 . S
C1059 C1055 1.393 . S
C1059 C1058 1.391 1_556 S
H1060 C1068 0.950 . S
H1061 C1073 0.950 . S
H1062 C1070 0.950 . S
H1063 C1072 0.950 . S
H1064 C1074 0.950 . S
H1065 C1076 0.950 . S
H1066 C1078 0.950 . S
H1067 C1079 0.950 . S
C1068 H1060 0.950 . S
C1068 C1069 1.386 . S
C1068 C1070 1.391 . S
C1069 C1068 1.386 . S
C1069 C1073 1.393 . S
C1070 H1062 0.950 . S
C1070 C1068 1.391 . S
C1070 C1071 1.400 . S
C1071 C1070 1.400 . S
C1071 C1072 1.398 . S
C1071 C1077 1.491 . S
C1072 H1063 0.950 . S
C1072 C1071 1.398 . S
C1072 C1073 1.391 . S
C1073 H1061 0.950 . S
C1073 C1069 1.393 . S
C1073 C1072 1.391 . S
C1074 H1064 0.950 . S
C1074 C1075 1.386 . S
C1074 C1076 1.391 . S
C1075 C1074 1.386 . S
C1075 C1079 1.393 . S
C1076 H1065 0.950 . S
C1076 C1074 1.391 . S
C1076 C1077 1.400 . S
C1077 C1071 1.491 . S
C1077 C1076 1.400 . S
C1077 C1078 1.398 . S
C1078 H1066 0.950 . S
C1078 C1077 1.398 . S
C1078 C1079 1.391 . S
C1079 H1067 0.950 . S
C1079 C1075 1.393 . S
C1079 C1078 1.391 . S
H1080 C1088 0.950 . S
H1081 C1093 0.950 . S
H1082 C1090 0.950 . S
H1083 C1092 0.950 . S
H1084 C1094 0.950 . S
H1085 C1096 0.950 . S
H1086 C1098 0.950 . S
H1087 C1099 0.950 . S
C1088 H1080 0.950 . S
C1088 C1089 1.386 . S
C1088 C1090 1.391 . S
C1089 C1088 1.386 . S
C1089 C1093 1.393 . S
C1090 H1082 0.950 . S
C1090 C1088 1.391 . S
C1090 C1091 1.400 . S
C1091 C1090 1.400 . S
C1091 C1092 1.398 . S
C1091 C1097 1.491 . S
C1092 H1083 0.950 . S
C1092 C1091 1.398 . S
C1092 C1093 1.391 . S
C1093 H1081 0.950 . S
C1093 C1089 1.393 . S
C1093 C1092 1.391 . S
C1094 H1084 0.950 . S
C1094 C1095 1.386 . S
C1094 C1096 1.391 . S
C1095 C1094 1.386 . S
C1095 C1099 1.393 . S
C1096 H1085 0.950 . S
C1096 C1094 1.391 . S
C1096 C1097 1.400 . S
C1097 C1091 1.491 . S
C1097 C1096 1.400 . S
C1097 C1098 1.398 . S
C1098 H1086 0.950 . S
C1098 C1097 1.398 . S
C1098 C1099 1.391 . S
C1099 H1087 0.950 . S
C1099 C1095 1.393 . S
C1099 C1098 1.391 . S
H1100 C1108 0.950 . S
H1101 C1113 0.950 . S
H1102 C1110 0.950 . S
H1103 C1112 0.950 . S
H1104 C1114 0.950 . S
H1105 C1116 0.950 . S
H1106 C1118 0.950 . S
H1107 C1119 0.950 . S
C1108 H1100 0.950 . S
C1108 C1109 1.386 . S
C1108 C1110 1.391 . S
C1109 C1108 1.386 . S
C1109 C1113 1.393 . S
C1110 H1102 0.950 . S
C1110 C1108 1.391 . S
C1110 C1111 1.400 . S
C1111 C1110 1.400 . S
C1111 C1112 1.398 . S
C1111 C1117 1.491 . S
C1112 H1103 0.950 . S
C1112 C1111 1.398 . S
C1112 C1113 1.391 . S
C1113 H1101 0.950 . S
C1113 C1109 1.393 . S
C1113 C1112 1.391 . S
C1114 H1104 0.950 . S
C1114 C1115 1.386 . S
C1114 C1116 1.391 . S
C1115 C1114 1.386 . S
C1115 C1119 1.393 . S
C1116 H1105 0.950 . S
C1116 C1114 1.391 . S
C1116 C1117 1.400 . S
C1117 C1111 1.491 . S
C1117 C1116 1.400 . S
C1117 C1118 1.398 . S
C1118 H1106 0.950 . S
C1118 C1117 1.398 . S
C1118 C1119 1.391 . S
C1119 H1107 0.950 . S
C1119 C1115 1.393 . S
C1119 C1118 1.391 . S
H1120 C1128 0.950 . S
H1121 C1133 0.950 . S
H1122 C1130 0.950 . S
H1123 C1132 0.950 . S
H1124 C1134 0.950 . S
H1125 C1136 0.950 . S
H1126 C1138 0.950 . S
H1127 C1139 0.950 . S
C1128 H1120 0.950 . S
C1128 C1129 1.386 . S
C1128 C1130 1.391 . S
C1129 C1128 1.386 . S
C1129 C1133 1.393 . S
C1130 H1122 0.950 . S
C1130 C1128 1.391 . S
C1130 C1131 1.400 . S
C1131 C1130 1.400 . S
C1131 C1132 1.398 . S
C1131 C1137 1.491 . S
C1132 H1123 0.950 . S
C1132 C1131 1.398 . S
C1132 C1133 1.391 . S
C1133 H1121 0.950 . S
C1133 C1129 1.393 . S
C1133 C1132 1.391 . S
C1134 H1124 0.950 . S
C1134 C1135 1.386 . S
C1134 C1136 1.391 . S
C1135 C1134 1.386 . S
C1135 C1139 1.393 . S
C1136 H1125 0.950 . S
C1136 C1134 1.391 . S
C1136 C1137 1.400 . S
C1137 C1131 1.491 . S
C1137 C1136 1.400 . S
C1137 C1138 1.398 . S
C1138 H1126 0.950 . S
C1138 C1137 1.398 . S
C1138 C1139 1.391 . S
C1139 H1127 0.950 . S
C1139 C1135 1.393 . S
C1139 C1138 1.391 . S
H1140 C1148 0.950 . S
H1141 C1153 0.950 . S
H1142 C1150 0.950 . S
H1143 C1152 0.950 . S
H1144 C1154 0.950 . S
H1145 C1156 0.950 . S
H1146 C1158 0.948 1_545 S
H1147 C1159 0.950 . S
C1148 H1140 0.950 . S
C1148 C1149 1.386 . S
C1148 C1150 1.391 . S
C1149 C1148 1.386 . S
C1149 C1153 1.393 . S
C1150 H1142 0.950 . S
C1150 C1148 1.391 . S
C1150 C1151 1.400 . S
C1151 C1150 1.400 . S
C1151 C1152 1.398 . S
C1151 C1157 1.491 . S
C1152 H1143 0.950 . S
C1152 C1151 1.398 . S
C1152 C1153 1.391 . S
C1153 H1141 0.950 . S
C1153 C1149 1.393 . S
C1153 C1152 1.391 . S
C1154 H1144 0.950 . S
C1154 C1155 1.386 1_565 S
C1154 C1156 1.391 . S
C1155 C1154 1.386 1_545 S
C1155 C1159 1.393 . S
C1156 H1145 0.950 . S
C1156 C1154 1.391 . S
C1156 C1157 1.400 . S
C1157 C1151 1.491 . S
C1157 C1156 1.400 . S
C1157 C1158 1.408 . S
C1158 H1146 0.948 1_565 S
C1158 C1157 1.408 . S
C1158 C1159 1.383 1_565 S
C1159 H1147 0.950 . S
C1159 C1155 1.393 . S
C1159 C1158 1.383 1_545 S
H1160 C1168 0.950 . S
H1161 C1173 0.950 . S
H1162 C1170 0.950 . S
H1163 C1172 0.950 . S
H1164 C1174 0.950 . S
H1165 C1176 0.950 . S
H1166 C1178 0.950 . S
H1167 C1179 0.950 . S
C1168 H1160 0.950 . S
C1168 C1169 1.386 . S
C1168 C1170 1.391 . S
C1169 C1168 1.386 . S
C1169 C1173 1.393 . S
C1170 H1162 0.950 . S
C1170 C1168 1.391 . S
C1170 C1171 1.400 . S
C1171 C1170 1.400 . S
C1171 C1172 1.398 . S
C1171 C1177 1.491 . S
C1172 H1163 0.950 . S
C1172 C1171 1.398 . S
C1172 C1173 1.391 . S
C1173 H1161 0.950 . S
C1173 C1169 1.393 . S
C1173 C1172 1.391 . S
C1174 H1164 0.950 . S
C1174 C1175 1.386 1_556 S
C1174 C1176 1.391 . S
C1175 C1174 1.386 1_554 S
C1175 C1179 1.393 . S
C1176 H1165 0.950 . S
C1176 C1174 1.391 . S
C1176 C1177 1.400 . S
C1177 C1171 1.491 . S
C1177 C1176 1.400 . S
C1177 C1178 1.398 . S
C1178 H1166 0.950 . S
C1178 C1177 1.398 . S
C1178 C1179 1.391 1_556 S
C1179 H1167 0.950 . S
C1179 C1175 1.393 . S
C1179 C1178 1.391 1_554 S
H1180 C1188 0.950 . S
H1181 C1193 0.950 . S
H1182 C1190 0.950 . S
H1183 C1192 0.950 . S
H1184 C1194 0.950 . S
H1185 C1196 0.950 . S
H1186 C1198 0.950 . S
H1187 C1199 0.950 . S
C1188 H1180 0.950 . S
C1188 C1189 1.386 1_545 S
C1188 C1190 1.391 . S
C1189 C1188 1.386 1_565 S
C1189 C1193 1.393 . S
C1190 H1182 0.950 . S
C1190 C1188 1.391 . S
C1190 C1191 1.400 . S
C1191 C1190 1.400 . S
C1191 C1192 1.398 1_545 S
C1191 C1197 1.491 . S
C1192 H1183 0.950 . S
C1192 C1191 1.398 1_565 S
C1192 C1193 1.391 . S
C1193 H1181 0.950 . S
C1193 C1189 1.393 . S
C1193 C1192 1.391 . S
C1194 H1184 0.950 . S
C1194 C1195 1.386 . S
C1194 C1196 1.391 . S
C1195 C1194 1.386 . S
C1195 C1199 1.393 . S
C1196 H1185 0.950 . S
C1196 C1194 1.391 . S
C1196 C1197 1.400 . S
C1197 C1191 1.491 . S
C1197 C1196 1.400 . S
C1197 C1198 1.398 . S
C1198 H1186 0.950 . S
C1198 C1197 1.398 . S
C1198 C1199 1.391 . S
C1199 H1187 0.950 . S
C1199 C1195 1.393 . S
C1199 C1198 1.391 . S
H1200 C1208 0.950 . S
H1201 C1213 0.950 . S
H1202 C1210 0.950 . S
H1203 C1212 0.950 . S
H1204 C1214 0.950 . S
H1205 C1216 0.950 . S
H1206 C1218 0.950 . S
H1207 C1219 0.950 . S
C1208 H1200 0.950 . S
C1208 C1209 1.386 . S
C1208 C1210 1.391 . S
C1209 C1208 1.386 . S
C1209 C1213 1.393 . S
C1210 H1202 0.950 . S
C1210 C1208 1.391 . S
C1210 C1211 1.400 . S
C1211 C1210 1.400 . S
C1211 C1212 1.398 . S
C1211 C1217 1.491 . S
C1212 H1203 0.950 . S
C1212 C1211 1.398 . S
C1212 C1213 1.391 . S
C1213 H1201 0.950 . S
C1213 C1209 1.393 . S
C1213 C1212 1.391 . S
C1214 H1204 0.950 . S
C1214 C1215 1.386 . S
C1214 C1216 1.391 . S
C1215 C1214 1.386 . S
C1215 C1219 1.393 . S
C1216 H1205 0.950 . S
C1216 C1214 1.391 . S
C1216 C1217 1.400 . S
C1217 C1211 1.491 . S
C1217 C1216 1.400 . S
C1217 C1218 1.398 . S
C1218 H1206 0.950 . S
C1218 C1217 1.398 . S
C1218 C1219 1.391 . S
C1219 H1207 0.950 . S
C1219 C1215 1.393 . S
C1219 C1218 1.391 . S
H1220 C1228 0.950 . S
H1221 C1233 0.950 . S
H1222 C1230 0.950 . S
H1223 C1232 0.950 . S
H1224 C1234 0.950 . S
H1225 C1236 0.950 . S
H1226 C1238 0.950 . S
H1227 C1239 0.950 . S
C1228 H1220 0.950 . S
C1228 C1229 1.386 . S
C1228 C1230 1.391 . S
C1229 C1228 1.386 . S
C1229 C1233 1.393 . S
C1230 H1222 0.950 . S
C1230 C1228 1.391 . S
C1230 C1231 1.400 . S
C1231 C1230 1.400 . S
C1231 C1232 1.398 . S
C1231 C1237 1.491 . S
C1232 H1223 0.950 . S
C1232 C1231 1.398 . S
C1232 C1233 1.391 . S
C1233 H1221 0.950 . S
C1233 C1229 1.393 . S
C1233 C1232 1.391 . S
C1234 H1224 0.950 . S
C1234 C1235 1.386 1_545 S
C1234 C1236 1.391 . S
C1235 C1234 1.386 1_565 S
C1235 C1239 1.393 . S
C1236 H1225 0.950 . S
C1236 C1234 1.391 . S
C1236 C1237 1.400 . S
C1237 C1231 1.491 . S
C1237 C1236 1.400 . S
C1237 C1238 1.398 1_545 S
C1238 H1226 0.950 . S
C1238 C1237 1.398 1_565 S
C1238 C1239 1.391 . S
C1239 H1227 0.950 . S
C1239 C1235 1.393 . S
C1239 C1238 1.391 . S
H1240 C1248 0.950 . S
H1241 C1253 0.950 . S
H1242 C1250 0.950 . S
H1243 C1252 0.950 . S
H1244 C1254 0.950 . S
H1245 C1256 0.950 . S
H1246 C1258 0.950 . S
H1247 C1259 0.950 1_556 S
C1248 H1240 0.950 . S
C1248 C1249 1.386 . S
C1248 C1250 1.391 . S
C1249 C1248 1.386 . S
C1249 C1253 1.393 . S
C1250 H1242 0.950 . S
C1250 C1248 1.391 . S
C1250 C1251 1.400 . S
C1251 C1250 1.400 . S
C1251 C1252 1.398 . S
C1251 C1257 1.491 . S
C1252 H1243 0.950 . S
C1252 C1251 1.398 . S
C1252 C1253 1.391 . S
C1253 H1241 0.950 . S
C1253 C1249 1.393 . S
C1253 C1252 1.391 . S
C1254 H1244 0.950 . S
C1254 C1255 1.386 1_554 S
C1254 C1256 1.391 . S
C1255 C1254 1.386 1_556 S
C1255 C1259 1.393 1_556 S
C1256 H1245 0.950 . S
C1256 C1254 1.391 . S
C1256 C1257 1.400 . S
C1257 C1251 1.491 . S
C1257 C1256 1.400 . S
C1257 C1258 1.398 . S
C1258 H1246 0.950 . S
C1258 C1257 1.398 . S
C1258 C1259 1.391 . S
C1259 H1247 0.950 1_554 S
C1259 C1255 1.393 1_554 S
C1259 C1258 1.391 . S
H1260 C1268 0.950 . S
H1261 C1273 0.950 . S
H1262 C1270 0.950 . S
H1263 C1272 0.950 . S
H1264 C1274 0.950 . S
H1265 C1276 0.950 . S
H1266 C1278 0.950 . S
H1267 C1279 0.952 . S
C1268 H1260 0.950 . S
C1268 C1269 1.386 . S
C1268 C1270 1.391 . S
C1269 C1268 1.386 . S
C1269 C1273 1.393 . S
C1270 H1262 0.950 . S
C1270 C1268 1.391 . S
C1270 C1271 1.400 . S
C1271 C1270 1.400 . S
C1271 C1272 1.398 . S
C1271 C1277 1.491 . S
C1272 H1263 0.950 . S
C1272 C1271 1.398 . S
C1272 C1273 1.391 . S
C1273 H1261 0.950 . S
C1273 C1269 1.393 . S
C1273 C1272 1.391 . S
C1274 H1264 0.950 . S
C1274 C1275 1.386 . S
C1274 C1276 1.391 1_545 S
C1275 C1274 1.386 . S
C1275 C1279 1.398 . S
C1276 H1265 0.950 . S
C1276 C1274 1.391 1_565 S
C1276 C1277 1.400 . S
C1277 C1271 1.491 . S
C1277 C1276 1.400 . S
C1277 C1278 1.398 . S
C1278 H1266 0.950 . S
C1278 C1277 1.398 . S
C1278 C1279 1.384 1_565 S
C1279 H1267 0.952 . S
C1279 C1275 1.398 . S
C1279 C1278 1.384 1_545 S
C329 C8 1.021 . S
C335 C208 1.027 . S
C349 C28 1.026 . S
C355 C228 1.026 . S
C369 C48 1.017 . S
C375 C168 1.025 . S
C389 C188 1.014 . S
C395 C68 1.024 . S
C409 C89 0.998 . S
C415 C289 1.008 . S
C429 C309 1.020 . S
C435 C109 1.008 . S
C449 C249 1.015 . S
C455 C129 1.003 . S
C469 C149 1.014 . S
C475 C269 1.003 . S
C489 C1 1.430 . S
C495 C82 1.430 . S
C509 C21 1.431 . S
C515 C262 1.431 . S
C529 C41 1.408 . S
C535 C122 1.408 . S
C549 C61 1.431 . S
C555 C302 1.431 . S
C569 C102 1.404 . S
C575 C181 1.404 . S
C589 C221 1.413 . S
C595 C142 1.413 . S
C609 C242 1.422 . S
C615 C161 1.422 . S
C629 C201 1.428 . S
C635 C282 1.428 . S
C649 C2 1.048 . S
C655 C148 1.097 . S
C669 C22 1.024 . S
C675 C248 1.102 . S
C689 C42 1.037 . S
C695 C108 1.100 . S
C709 C62 1.016 1_455 S
C715 C288 1.099 . S
C729 C69 1.097 . S
C735 C81 1.017 . S
C749 C101 1.062 . S
C755 C169 1.090 . S
C769 C121 1.053 . S
C775 C29 1.095 . S
C789 C209 1.092 . S
C795 C141 1.026 1_655 S
C809 C162 1.057 . S
C815 C308 1.084 . S
C829 C88 1.095 . S
C835 C182 1.023 1_655 S
C849 C268 1.097 . S
C855 C202 1.041 . S
C869 C128 1.091 . S
C875 C222 1.034 . S
C889 C241 1.016 . S
C895 C229 1.098 . S
C909 C261 1.058 1_455 S
C915 C9 1.087 . S
C929 C189 1.090 . S
C935 C281 1.025 . S
C949 C301 1.065 . S
C955 C49 1.091 . S
C969 C19 2.462 . S
C975 C198 2.505 . S
C989 C218 2.508 . S
C995 C39 2.466 . S
C1009 C59 2.472 . S
C1015 C238 2.512 . S
C1029 C178 2.512 . S
C1035 C79 2.472 . S
C1049 C279 2.507 . S
C1055 C98 2.465 . S
C1069 C299 2.518 . S
C1075 C118 2.478 . S
C1089 C319 2.506 . S
C1095 C138 2.463 . S
C1109 C259 2.510 . S
C1115 C158 2.470 . S
C1129 C38 2.518 . S
C1135 C179 2.478 . S
C1149 C58 2.505 . S
C1155 C199 2.462 . S
C1169 C78 2.513 . S
C1175 C219 2.471 . S
C1189 C239 2.476 . S
C1195 C18 2.516 . S
C1209 C119 2.506 . S
C1215 C258 2.463 . S
C1229 C139 2.519 . S
C1235 C278 2.479 . S
C1249 C159 2.518 . S
C1255 C298 2.479 . S
C1269 C99 2.517 . S
C1275 C318 2.478 . S
