# Generated by pormake.
# Topology zfs, (5)-cn, num edge types: 1
# Building blocks:
#     Node 0, Type 0, BuildingBlock: BEQFEK_clean_sbu_0, # of connection points: 5
#     Node 1, Type 0, BuildingBlock: BEQFEK_clean_sbu_0, # of connection points: 5
#     Node 2, Type 0, BuildingBlock: BEQFEK_clean_sbu_0, # of connection points: 5
#     Node 3, Type 0, BuildingBlock: BEQFEK_clean_sbu_0, # of connection points: 5
#     Node 4, Type 0, BuildingBlock: BEQFEK_clean_sbu_0, # of connection points: 5
#     Node 5, Type 0, BuildingBlock: BEQFEK_clean_sbu_0, # of connection points: 5
#     Node 6, Type 0, BuildingBlock: BEQFEK_clean_sbu_0, # of connection points: 5
#     Node 7, Type 0, BuildingBlock: BEQFEK_clean_sbu_0, # of connection points: 5
#     Edge 8, Type (0, 0), BuildingBlock: UVAHIK_clean_linker_0, # of connection points: 2
#     Edge 9, Type (0, 0), BuildingBlock: UVAHIK_clean_linker_0, # of connection points: 2
#     Edge 10, Type (0, 0), BuildingBlock: UVAHIK_clean_linker_0, # of connection points: 2
#     Edge 11, Type (0, 0), BuildingBlock: UVAHIK_clean_linker_0, # of connection points: 2
#     Edge 12, Type (0, 0), BuildingBlock: UVAHIK_clean_linker_0, # of connection points: 2
#     Edge 13, Type (0, 0), BuildingBlock: UVAHIK_clean_linker_0, # of connection points: 2
#     Edge 14, Type (0, 0), BuildingBlock: UVAHIK_clean_linker_0, # of connection points: 2
#     Edge 15, Type (0, 0), BuildingBlock: UVAHIK_clean_linker_0, # of connection points: 2
#     Edge 16, Type (0, 0), BuildingBlock: UVAHIK_clean_linker_0, # of connection points: 2
#     Edge 17, Type (0, 0), BuildingBlock: UVAHIK_clean_linker_0, # of connection points: 2
#     Edge 18, Type (0, 0), BuildingBlock: UVAHIK_clean_linker_0, # of connection points: 2
#     Edge 19, Type (0, 0), BuildingBlock: UVAHIK_clean_linker_0, # of connection points: 2
#     Edge 20, Type (0, 0), BuildingBlock: UVAHIK_clean_linker_0, # of connection points: 2
#     Edge 21, Type (0, 0), BuildingBlock: UVAHIK_clean_linker_0, # of connection points: 2
#     Edge 22, Type (0, 0), BuildingBlock: UVAHIK_clean_linker_0, # of connection points: 2
#     Edge 23, Type (0, 0), BuildingBlock: UVAHIK_clean_linker_0, # of connection points: 2
#     Edge 24, Type (0, 0), BuildingBlock: UVAHIK_clean_linker_0, # of connection points: 2
#     Edge 25, Type (0, 0), BuildingBlock: UVAHIK_clean_linker_0, # of connection points: 2
#     Edge 26, Type (0, 0), BuildingBlock: UVAHIK_clean_linker_0, # of connection points: 2
#     Edge 27, Type (0, 0), BuildingBlock: UVAHIK_clean_linker_0, # of connection points: 2
# Relax obj value: 0.255
# Max RMSD: 0.151
# Mean RMSD: 0.151
data_MOF--net-zfs--node1-BEQFEK_clean_sbu_0--edge1-UVAHIK_clean_linker_0
_symmetry_space_group_name_H-M    P1
_symmetry_Int_Tables_number       1
_symmetry_cell_setting            triclinic
loop_
_symmetry_equiv_pos_as_xyz
'x, y, z'
_cell_length_a     41.87699
_cell_length_b     41.916437
_cell_length_c     52.101279
_cell_angle_alpha  89.990148
_cell_angle_beta   89.997669
_cell_angle_gamma 89.990837
loop_
_atom_site_label
_atom_site_type_symbol
_atom_site_fract_x
_atom_site_fract_y
_atom_site_fract_z
_atom_type_partial_charge
Co0 Co 0.05558 0.26286 0.24969 0.0
Co1 Co 0.00606 0.26838 0.20503 0.0
C2 C 0.03556 0.32606 0.23032 0.0
O3 O 0.05307 0.30924 0.2449 0.0
O4 O 0.01626 0.31312 0.21462 0.0
C5 C 0.11533 0.27049 0.27566 0.0
O6 O 0.12192 0.29028 0.25683 0.0
C7 C 0.99148 0.28743 0.15291 0.0
C8 C 0.95242 0.25485 0.14187 0.0
C9 C 0.97329 0.27753 0.13213 0.0
N10 N 0.98271 0.27048 0.17363 0.0
N11 N 0.95871 0.25168 0.16712 0.0
C12 C 0.0175 0.31198 0.15324 0.0
H13 H 0.01225 0.32988 0.16827 0.0
H14 H 0.04056 0.30047 0.15818 0.0
H15 H 0.01952 0.32476 0.13468 0.0
C16 C 0.08913 0.22229 0.21116 0.0
N17 N 0.06498 0.24158 0.21848 0.0
N18 N 0.04384 0.24334 0.19982 0.0
C19 C 0.05374 0.2248 0.18017 0.0
C20 C 0.0828 0.21106 0.18664 0.0
C21 C 0.11659 0.21307 0.22796 0.0
H22 H 0.10783 0.20741 0.24752 0.0
H23 H 0.13337 0.23345 0.22937 0.0
H24 H 0.1296 0.19214 0.22014 0.0
O25 O 0.01477 0.24692 0.26419 0.0
O26 O 0.97938 0.24876 0.2324 0.0
H27 H 0.01069 0.21446 0.1596 0.0
H28 H 0.04639 0.20171 0.14319 0.0
C29 C 0.03592 0.22051 0.1555 0.0
H30 H 0.03678 0.24305 0.14454 0.0
H31 H 0.94797 0.23531 0.1795 0.0
O32 O 0.08887 0.25565 0.27573 0.0
C33 C 0.98667 0.24218 0.25558 0.0
Co34 Co 0.73119 0.06089 0.499 0.0
Co35 Co 0.72239 0.00775 0.45742 0.0
C36 C 0.66663 0.03593 0.48576 0.0
O37 O 0.6845 0.05473 0.49839 0.0
O38 O 0.6783 0.01656 0.46948 0.0
C39 C 0.71909 0.11887 0.52676 0.0
O40 O 0.68975 0.11553 0.5183 0.0
C41 C 0.69911 0.98519 0.40826 0.0
C42 C 0.73495 0.94902 0.39739 0.0
C43 C 0.70895 0.96595 0.38808 0.0
N44 N 0.71914 0.98083 0.42807 0.0
N45 N 0.73995 0.95847 0.42178 0.0
C46 C 0.67179 0.00827 0.40868 0.0
H47 H 0.65647 0.00311 0.42548 0.0
H48 H 0.68101 0.03294 0.41087 0.0
H49 H 0.65678 0.00645 0.39122 0.0
C50 C 0.76555 0.09235 0.45627 0.0
N51 N 0.74778 0.06827 0.46578 0.0
N52 N 0.74441 0.04607 0.44814 0.0
C53 C 0.76011 0.05538 0.42676 0.0
C54 C 0.774 0.08499 0.4312 0.0
C55 C 0.77656 0.1203 0.4718 0.0
H56 H 0.78759 0.11167 0.48987 0.0
H57 H 0.75562 0.1352 0.47697 0.0
H58 H 0.79418 0.13509 0.46128 0.0
O59 O 0.75182 0.02286 0.51453 0.0
O60 O 0.74639 0.98513 0.48484 0.0
H61 H 0.77154 0.0125 0.40643 0.0
H62 H 0.77606 0.04827 0.38739 0.0
C63 C 0.76156 0.03648 0.40242 0.0
H64 H 0.73714 0.03374 0.39474 0.0
H65 H 0.7588 0.95118 0.4335 0.0
O66 O 0.74016 0.09826 0.52091 0.0
C67 C 0.75628 0.99435 0.50678 0.0
Co68 Co 0.94048 0.72867 0.74195 0.0
Co69 Co 0.99532 0.72357 0.7016 0.0
C70 C 0.9662 0.66581 0.72749 0.0
O71 O 0.94609 0.68236 0.73993 0.0
O72 O 0.98639 0.67893 0.7126 0.0
C73 C 0.89535 0.71956 0.78239 0.0
O74 O 0.91387 0.69553 0.78877 0.0
C75 C 0.01291 0.70518 0.65028 0.0
C76 C 0.05585 0.734 0.64217 0.0
C77 C 0.03382 0.71369 0.63081 0.0
N78 N 0.02143 0.72059 0.67179 0.0
N79 N 0.04758 0.73723 0.66705 0.0
C80 C 0.98467 0.68329 0.64858 0.0
H81 H 0.96239 0.69758 0.64793 0.0
H82 H 0.98602 0.66778 0.63136 0.0
H83 H 0.98353 0.66789 0.66579 0.0
C84 C 0.90934 0.76373 0.6996 0.0
N85 N 0.93377 0.74661 0.70925 0.0
N86 N 0.95736 0.74617 0.69261 0.0
C87 C 0.94897 0.76397 0.67207 0.0
C88 C 0.91814 0.77529 0.67568 0.0
C89 C 0.87826 0.7688 0.71317 0.0
H90 H 0.86993 0.7459 0.7215 0.0
H91 H 0.85966 0.77816 0.7 0.0
H92 H 0.88185 0.78595 0.72913 0.0
O93 O 0.97841 0.74847 0.75864 0.0
O94 O 0.01758 0.74625 0.72982 0.0
H95 H 0.9641 0.79692 0.64257 0.0
H96 H 0.97075 0.75555 0.63561 0.0
C97 C 0.97129 0.77371 0.65103 0.0
H98 H 0.99595 0.77586 0.6585 0.0
H99 H 0.05868 0.75216 0.68036 0.0
O100 O 0.90277 0.73694 0.76335 0.0
C101 C 0.00717 0.75418 0.75194 0.0
Co102 Co 0.2644 0.94014 0.99459 0.0
Co103 Co 0.26847 0.99346 0.95283 0.0
C104 C 0.32698 0.96364 0.97725 0.0
O105 O 0.3105 0.94426 0.99045 0.0
O106 O 0.31366 0.98399 0.96261 0.0
C107 C 0.27457 0.88021 0.01987 0.0
O108 O 0.29693 0.87581 0.00255 0.0
C109 C 0.28576 0.00924 0.90065 0.0
C110 C 0.2555 0.05088 0.89167 0.0
C111 C 0.2762 0.02895 0.88066 0.0
N112 N 0.27049 0.01828 0.92213 0.0
N113 N 0.25303 0.04371 0.91683 0.0
C114 C 0.30858 0.9817 0.89954 0.0
H115 H 0.32511 0.98267 0.91607 0.0
H116 H 0.29509 0.95897 0.90077 0.0
H117 H 0.32306 0.98208 0.88172 0.0
C118 C 0.22616 0.90807 0.95417 0.0
N119 N 0.24398 0.93254 0.96294 0.0
N120 N 0.24458 0.9554 0.94563 0.0
C121 C 0.22649 0.94634 0.92545 0.0
C122 C 0.21467 0.91595 0.93001 0.0
C123 C 0.22101 0.87759 0.96854 0.0
H124 H 0.20984 0.88287 0.98737 0.0
H125 H 0.24444 0.86618 0.97219 0.0
H126 H 0.20584 0.86059 0.95773 0.0
O127 O 0.24731 0.97935 0.01072 0.0
O128 O 0.24775 0.01774 0.98127 0.0
H129 H 0.21493 0.99241 0.91001 0.0
H130 H 0.19474 0.95972 0.89455 0.0
C131 C 0.21756 0.96745 0.90341 0.0
H132 H 0.23641 0.96622 0.88854 0.0
H133 H 0.23801 0.05498 0.92999 0.0
O134 O 0.25741 0.90521 0.0191 0.0
C135 C 0.24159 0.00801 0.00396 0.0
Co136 Co 0.06625 0.73034 0.24328 0.0
Co137 Co 0.01453 0.7252 0.2864 0.0
C138 C 0.04079 0.6675 0.25856 0.0
O139 O 0.05987 0.684 0.24506 0.0
O140 O 0.02212 0.68065 0.27467 0.0
C141 C 0.1208 0.7178 0.21094 0.0
O142 O 0.11582 0.68767 0.21654 0.0
C143 C 0.00106 0.70622 0.3384 0.0
C144 C 0.95955 0.73578 0.34917 0.0
C145 C 0.98216 0.71496 0.3591 0.0
N146 N 0.99091 0.72204 0.31753 0.0
N147 N 0.96557 0.73909 0.32388 0.0
C148 C 0.02898 0.68383 0.33833 0.0
H149 H 0.05151 0.69771 0.33765 0.0
H150 H 0.02896 0.66823 0.35553 0.0
H151 H 0.02821 0.6685 0.32106 0.0
C152 C 0.10141 0.76352 0.28481 0.0
N153 N 0.07584 0.7474 0.27592 0.0
N154 N 0.05345 0.7471 0.2936 0.0
C155 C 0.0637 0.76406 0.31402 0.0
C156 C 0.0946 0.7745 0.30933 0.0
C157 C 0.13172 0.76805 0.27004 0.0
H158 H 0.12753 0.78548 0.25436 0.0
H159 H 0.13897 0.74509 0.26122 0.0
H160 H 0.15133 0.77679 0.28249 0.0
O161 O 0.02722 0.75103 0.22894 0.0
O162 O 0.99033 0.74857 0.25965 0.0
H163 H 0.01798 0.77675 0.32974 0.0
H164 H 0.05126 0.79703 0.34429 0.0
C165 C 0.04305 0.77402 0.33608 0.0
H166 H 0.04436 0.75576 0.35139 0.0
H167 H 0.95361 0.75442 0.31136 0.0
O168 O 0.1023 0.7391 0.21994 0.0
C169 C -0.00092 0.75687 0.23715 0.0
Co170 Co 0.26302 0.05749 0.49752 0.0
Co171 Co 0.26737 0.00559 0.54026 0.0
C172 C 0.32577 0.03781 0.51884 0.0
O173 O 0.30917 0.05535 0.5041 0.0
O174 O 0.31263 0.01742 0.53353 0.0
C175 C 0.26993 0.11933 0.47418 0.0
O176 O 0.28772 0.12615 0.49421 0.0
C177 C 0.28295 0.98642 0.59212 0.0
C178 C 0.25054 0.94573 0.59893 0.0
C179 C 0.27247 0.96553 0.61095 0.0
N180 N 0.26763 0.97956 0.57017 0.0
N181 N 0.24893 0.95466 0.57412 0.0
C182 C 0.30327 0.01551 0.59571 0.0
H183 H 0.2982 0.03341 0.58057 0.0
H184 H 0.29908 0.02642 0.61482 0.0
H185 H 0.32879 0.00855 0.59444 0.0
C186 C 0.21901 0.08738 0.53549 0.0
N187 N 0.23953 0.06432 0.52813 0.0
N188 N 0.24097 0.04229 0.54612 0.0
C189 C 0.22113 0.0506 0.56544 0.0
C190 C 0.20671 0.07948 0.55938 0.0
C191 C 0.20964 0.11525 0.5192 0.0
H192 H 0.20617 0.10743 0.49907 0.0
H193 H 0.22908 0.13321 0.5196 0.0
H194 H 0.18734 0.12656 0.52625 0.0
O195 O 0.24862 0.01772 0.48062 0.0
O196 O 0.25036 0.98043 0.51087 0.0
H197 H 0.21141 0.00638 0.58455 0.0
H198 H 0.19687 0.04088 0.60161 0.0
C199 C 0.21647 0.03157 0.5895 0.0
H200 H 0.23856 0.0326 0.6011 0.0
H201 H 0.23357 0.9451 0.56035 0.0
O202 O 0.25669 0.09213 0.47254 0.0
C203 C 0.24444 0.989 0.48787 0.0
Co204 Co 0.93151 0.26409 0.74927 0.0
Co205 Co 0.98704 0.26686 0.78952 0.0
C206 C 0.9603 0.32579 0.76377 0.0
O207 O 0.93951 0.31007 0.75134 0.0
O208 O 0.97996 0.31188 0.77865 0.0
C209 C 0.87657 0.27932 0.71833 0.0
O210 O 0.88416 0.30911 0.72317 0.0
C211 C 0.0053 0.28453 0.84091 0.0
C212 C 0.04695 0.25391 0.84912 0.0
C213 C 0.02576 0.27513 0.86043 0.0
N214 N 0.01324 0.26876 0.8194 0.0
N215 N 0.03865 0.25104 0.82421 0.0
C216 C 0.97798 0.30756 0.84258 0.0
H217 H 0.95512 0.29422 0.84301 0.0
H218 H 0.97982 0.32285 0.85989 0.0
H219 H 0.97765 0.32315 0.82545 0.0
C220 C 0.89901 0.23116 0.79219 0.0
N221 N 0.92429 0.24659 0.78208 0.0
N222 N 0.94811 0.24595 0.79852 0.0
C223 C 0.93901 0.22904 0.81932 0.0
C224 C 0.90748 0.21966 0.81622 0.0
C225 C 0.86746 0.22778 0.779 0.0
H226 H 0.86976 0.21025 0.76315 0.0
H227 H 0.86036 0.251 0.77054 0.0
H228 H 0.84858 0.21968 0.79246 0.0
O229 O 0.96877 0.24306 0.73258 0.0
O230 O 0.00832 0.24348 0.76114 0.0
H231 H 0.9855 0.21479 0.83255 0.0
H232 H 0.95281 0.19525 0.8486 0.0
C233 C 0.96105 0.21814 0.84018 0.0
H234 H 0.96149 0.23618 0.85569 0.0
H235 H 0.04916 0.23563 0.81093 0.0
O236 O 0.89356 0.25689 0.72747 0.0
C237 C 0.99739 0.23626 0.73902 0.0
Co238 Co 0.73093 0.94093 0.00252 0.0
Co239 Co 0.72302 0.99249 0.04516 0.0
C240 C 0.66693 0.96271 0.01674 0.0
O241 O 0.68431 0.94373 0.00387 0.0
O242 O 0.6792 0.98245 0.03247 0.0
C243 C 0.72518 0.88442 0.97115 0.0
O244 O 0.69644 0.88158 0.98099 0.0
C245 C 0.70211 0.00305 0.09698 0.0
C246 C 0.72724 0.04696 0.10873 0.0
C247 C 0.70843 0.02227 0.11802 0.0
N248 N 0.71736 0.01511 0.0765 0.0
N249 N 0.73176 0.0418 0.08343 0.0
C250 C 0.68262 0.97307 0.09625 0.0
H251 H 0.69872 0.95206 0.096 0.0
H252 H 0.66639 0.97145 0.11303 0.0
H253 H 0.66805 0.97234 0.07856 0.0
C254 C 0.76677 0.90817 0.04381 0.0
N255 N 0.74876 0.93244 0.03499 0.0
N256 N 0.74731 0.95498 0.05249 0.0
C257 C 0.7653 0.94612 0.07278 0.0
C258 C 0.7778 0.91599 0.06814 0.0
C259 C 0.77312 0.87818 0.02911 0.0
H260 H 0.78988 0.88344 0.01317 0.0
H261 H 0.75051 0.86932 0.02065 0.0
H262 H 0.78346 0.85932 0.04152 0.0
O263 O 0.74838 0.98141 0.98857 0.0
O264 O 0.74532 0.01861 0.0189 0.0
H265 H 0.77466 0.99277 0.08818 0.0
H266 H 0.79783 0.96124 0.10256 0.0
C267 C 0.77407 0.96761 0.09462 0.0
H268 H 0.75623 0.965 0.11017 0.0
H269 H 0.74614 0.05545 0.0713 0.0
O270 O 0.74302 0.90734 0.97814 0.0
C271 C 0.75321 0.00987 0.99632 0.0
C272 C 0.05914 0.61769 0.23649 0.0
C273 C 0.04033 0.63242 0.25546 0.0
C274 C 0.05872 0.58461 0.23348 0.0
C275 C 0.04028 0.51024 0.26779 0.0
H276 H 0.03724 0.47372 0.19942 0.0
C277 C 0.01709 0.38056 0.21707 0.0
C278 C 0.03714 0.36126 0.23216 0.0
C279 C 0.01793 0.41374 0.21947 0.0
C280 C 0.03791 0.48358 0.21863 0.0
H281 H 0.00637 0.62384 0.28618 0.0
H282 H 0.0056 0.56607 0.28081 0.0
H283 H 0.03704 0.53159 0.20466 0.0
H284 H 0.07415 0.3618 0.26136 0.0
H285 H 0.07565 0.41965 0.26542 0.0
H286 H 0.04072 0.46225 0.28178 0.0
C287 C 0.02084 0.58017 0.26842 0.0
C288 C 0.03812 0.51669 0.22162 0.0
C289 C 0.02116 0.61329 0.27139 0.0
C290 C 0.05827 0.37592 0.2495 0.0
C291 C 0.05903 0.40907 0.25195 0.0
C292 C 0.0402 0.47715 0.26479 0.0
C293 C 0.03959 0.5655 0.24941 0.0
C294 C 0.03928 0.53036 0.24623 0.0
C295 C 0.03875 0.42832 0.23707 0.0
C296 C 0.03901 0.46347 0.24018 0.0
H297 H 0.07422 0.63168 0.2239 0.0
H298 H 0.07372 0.57395 0.21887 0.0
H299 H 0.04149 0.52008 0.28698 0.0
H300 H 0.00042 0.37008 0.20361 0.0
H301 H 0.00179 0.42795 0.20793 0.0
C302 C 0.61835 0.05764 0.50828 0.0
C303 C 0.6317 0.03658 0.49019 0.0
C304 C 0.5854 0.05834 0.51241 0.0
C305 C 0.51711 0.0407 0.52731 0.0
H306 H 0.46085 0.03926 0.4682 0.0
C307 C 0.38025 0.02147 0.5341 0.0
C308 C 0.36102 0.04022 0.51791 0.0
C309 C 0.41352 0.02232 0.53189 0.0
C310 C 0.47626 0.0399 0.48489 0.0
H311 H 0.62076 -0.00063 0.46258 0.0
H312 H 0.56331 0.00078 0.46971 0.0
H313 H 0.51852 0.03808 0.46188 0.0
H314 H 0.36178 0.07541 0.48729 0.0
H315 H 0.41967 0.07687 0.48356 0.0
H316 H 0.47472 0.04271 0.55031 0.0
C317 C 0.57837 0.01696 0.48049 0.0
C318 C 0.50925 0.03888 0.48128 0.0
C319 C 0.61132 0.01612 0.47645 0.0
C320 C 0.37582 0.06048 0.49997 0.0
C321 C 0.409 0.06121 0.49771 0.0
C322 C 0.48404 0.04153 0.53094 0.0
C323 C 0.56506 0.03811 0.49846 0.0
C324 C 0.53003 0.03926 0.50244 0.0
C325 C 0.42819 0.04183 0.51339 0.0
C326 C 0.46329 0.0412 0.50975 0.0
H327 H 0.63332 0.07371 0.51924 0.0
H328 H 0.57579 0.07509 0.52622 0.0
H329 H 0.53256 0.04079 0.54399 0.0
H330 H 0.36962 0.00568 0.54818 0.0
H331 H 0.42771 0.00699 0.54415 0.0
C332 C 0.94642 0.6163 0.7491 0.0
C333 C 0.96643 0.63077 0.73081 0.0
C334 C 0.94702 0.58333 0.75272 0.0
C335 C 0.9682 0.50827 0.72083 0.0
H336 H 0.96654 0.47396 0.78999 0.0
C337 C 0.98263 0.37939 0.77549 0.0
C338 C 0.96188 0.3608 0.76045 0.0
C339 C 0.98425 0.41241 0.772 0.0
C340 C 0.96726 0.48319 0.77058 0.0
H341 H 0.00258 0.62184 0.70183 0.0
H342 H 0.00355 0.56416 0.7082 0.0
H343 H 0.96785 0.53164 0.78355 0.0
H344 H 0.92654 0.3624 0.72996 0.0
H345 H 0.92932 0.41987 0.72402 0.0
H346 H 0.96773 0.45983 0.70787 0.0
C347 C 0.98734 0.57842 0.71963 0.0
C348 C 0.96769 0.51618 0.76689 0.0
C349 C 0.98687 0.61146 0.71607 0.0
C350 C 0.94279 0.37596 0.74189 0.0
C351 C 0.94453 0.40888 0.73833 0.0
C352 C 0.96762 0.47529 0.72453 0.0
C353 C 0.96752 0.56406 0.73807 0.0
C354 C 0.96799 0.52905 0.74198 0.0
C355 C 0.96531 0.42745 0.7533 0.0
C356 C 0.96697 0.46242 0.74943 0.0
H357 H 0.93035 0.63043 0.76077 0.0
H358 H 0.93114 0.57287 0.76682 0.0
H359 H 0.9682 0.51751 0.70142 0.0
H360 H 0.99766 0.36847 0.78995 0.0
H361 H 0.00065 0.42612 0.78368 0.0
C362 C 0.38154 0.98375 0.96538 0.0
C363 C 0.36217 0.96298 0.97976 0.0
C364 C 0.41467 0.98378 0.96875 0.0
C365 C 0.48533 0.96511 0.97029 0.0
H366 H 0.51777 0.96161 0.04 0.0
C367 C 0.61826 0.94333 0.99356 0.0
C368 C 0.63194 0.96243 0.01284 0.0
C369 C 0.58536 0.94381 0.98928 0.0
C370 C 0.50908 0.96281 0.02044 0.0
H371 H 0.36256 0.92548 0.00857 0.0
H372 H 0.42014 0.92555 0.01429 0.0
H373 H 0.46029 0.96214 0.03255 0.0
H374 H 0.62166 0.99674 0.04294 0.0
H375 H 0.5642 0.9975 0.03544 0.0
H376 H 0.53421 0.96602 0.95821 0.0
C377 C 0.4097 0.94207 0.00067 0.0
C378 C 0.47619 0.96279 0.01616 0.0
C379 C 0.37669 0.94193 0.99725 0.0
C380 C 0.61192 0.98174 0.02793 0.0
C381 C 0.57898 0.98208 0.02372 0.0
C382 C 0.51827 0.96496 0.97457 0.0
C383 C 0.42902 0.96317 0.98665 0.0
C384 C 0.46397 0.96383 0.99105 0.0
C385 C 0.56539 0.96324 0.00427 0.0
C386 C 0.53047 0.96374 -0.00031 0.0
H387 H 0.37112 0.00023 0.95173 0.0
H388 H 0.42899 0.00042 0.95778 0.0
H389 H 0.47659 0.96572 0.95073 0.0
H390 H 0.63297 0.92814 0.98159 0.0
H391 H 0.5755 0.92871 0.97439 0.0
C392 C 0.25544 0.13258 0.42916 0.0
C393 C 0.26477 0.14295 0.45365 0.0
C394 C 0.24863 0.15458 0.4099 0.0
C395 C 0.21502 0.23237 0.40188 0.0
H396 H 0.23563 0.21734 0.33028 0.0
C397 C 0.17079 0.27268 0.29372 0.0
C398 C 0.13825 0.26537 0.29673 0.0
C399 C 0.19248 0.2661 0.31348 0.0
C400 C 0.23017 0.22238 0.35019 0.0
H401 H 0.2752 0.1844 0.47708 0.0
H402 H 0.26222 0.22319 0.44333 0.0
H403 H 0.26538 0.18938 0.36379 0.0
H404 H 0.10263 0.24682 0.32303 0.0
H405 H 0.14027 0.23568 0.35741 0.0
H406 H 0.17842 0.26378 0.38822 0.0
C407 C 0.26065 0.19794 0.4391 0.0
C408 C 0.24703 0.20627 0.36933 0.0
C409 C 0.26804 0.1758 0.45834 0.0
C410 C 0.12761 0.2525 0.32009 0.0
C411 C 0.1491 0.24646 0.33989 0.0
C412 C 0.19795 0.24826 0.38273 0.0
C413 C 0.25059 0.18745 0.41479 0.0
C414 C 0.23868 0.21011 0.39526 0.0
C415 C 0.18178 0.25276 0.33668 0.0
C416 C 0.2045 0.24234 0.35671 0.0
H417 H 0.25294 0.10739 0.42495 0.0
H418 H 0.24045 0.14582 0.39147 0.0
H419 H 0.20801 0.23567 0.42172 0.0
H420 H 0.17961 0.28263 0.27589 0.0
H421 H 0.2176 0.27105 0.31054 0.0
C422 C 0.75958 0.1543 0.54705 0.0
C423 C 0.72747 0.14564 0.54377 0.0
C424 C 0.76797 0.17792 0.5646 0.0
C425 C 0.77803 0.23752 0.59657 0.0
H426 H 0.74997 0.21771 0.66572 0.0
C427 C 0.83726 0.29512 0.68448 0.0
C428 C 0.84972 0.2718 0.70107 0.0
C429 C 0.81434 0.28692 0.66613 0.0
C430 C 0.75761 0.22387 0.64647 0.0
H431 H 0.67879 0.15564 0.55553 0.0
H432 H 0.69368 0.1966 0.58687 0.0
H433 H 0.72497 0.19096 0.62921 0.0
H434 H 0.84647 0.22223 0.71275 0.0
H435 H 0.80648 0.20798 0.68086 0.0
H436 H 0.81196 0.26899 0.61387 0.0
C437 C 0.71222 0.18519 0.57563 0.0
C438 C 0.74318 0.20876 0.62561 0.0
C439 C 0.70375 0.16183 0.55773 0.0
C440 C 0.83752 0.24063 0.70004 0.0
C441 C 0.81437 0.23256 0.68196 0.0
C442 C 0.79225 0.25284 0.61741 0.0
C443 C 0.74445 0.1931 0.57944 0.0
C444 C 0.75425 0.21445 0.60058 0.0
C445 C 0.80318 0.2554 0.6644 0.0
C446 C 0.7831 0.2451 0.64259 0.0
H447 H 0.77834 0.14239 0.5364 0.0
H448 H 0.79304 0.18327 0.5674 0.0
H449 H 0.78678 0.24246 0.57741 0.0
H450 H 0.84615 0.31938 0.68492 0.0
H451 H 0.80599 0.30496 0.65284 0.0
C452 C 0.71699 0.83758 0.94178 0.0
C453 C 0.73659 0.86218 0.95122 0.0
C454 C 0.72762 0.81803 0.92173 0.0
C455 C 0.76836 0.7707 0.88905 0.0
H456 H 0.80969 0.81567 0.8331 0.0
C457 C 0.86424 0.71613 0.82328 0.0
C458 C 0.86749 0.72811 0.79825 0.0
C459 C 0.84041 0.72792 0.83948 0.0
C460 C 0.79766 0.80262 0.84821 0.0
H461 H 0.78311 0.88473 0.94776 0.0
H462 H 0.80136 0.85087 0.91299 0.0
H463 H 0.78326 0.84573 0.8667 0.0
H464 H 0.84648 0.75931 0.76963 0.0
H465 H 0.80462 0.77942 0.79769 0.0
H466 H 0.78365 0.72748 0.87075 0.0
C467 C 0.77769 0.84697 0.92077 0.0
C468 C 0.78285 0.81991 0.86762 0.0
C469 C 0.76724 0.86626 0.94078 0.0
C470 C 0.84497 0.75013 0.78902 0.0
C471 C 0.82099 0.76164 0.80508 0.0
C472 C 0.78335 0.75327 0.86956 0.0
C473 C 0.75783 0.82306 0.91077 0.0
C474 C 0.76897 0.80418 0.8886 0.0
C475 C 0.81928 0.75167 0.8308 0.0
C476 C 0.79886 0.76914 0.84929 0.0
H477 H 0.69329 0.83379 0.94953 0.0
H478 H 0.71195 0.79964 0.91432 0.0
H479 H 0.75773 0.75809 0.90506 0.0
H480 H 0.88115 0.69897 0.83084 0.0
H481 H 0.83987 0.71989 0.85923 0.0
C482 C 0.25516 0.86707 0.06363 0.0
C483 C 0.26992 0.8571 0.04083 0.0
C484 C 0.25021 0.84562 0.08359 0.0
C485 C 0.23215 0.76406 0.09589 0.0
H486 H 0.24458 0.79023 0.1666 0.0
C487 C 0.16427 0.70447 0.17961 0.0
C488 C 0.14778 0.72719 0.19439 0.0
C489 C 0.18855 0.71405 0.16283 0.0
C490 C 0.24125 0.78237 0.14698 0.0
H491 H 0.29136 0.81698 0.02099 0.0
H492 H 0.28153 0.77881 0.05597 0.0
H493 H 0.27136 0.81928 0.13217 0.0
H494 H 0.1447 0.77743 0.20413 0.0
H495 H 0.18667 0.79404 0.17498 0.0
H496 H 0.20011 0.72869 0.11052 0.0
C497 C 0.27438 0.80348 0.05834 0.0
C498 C 0.25662 0.7989 0.12734 0.0
C499 C 0.27994 0.82523 0.03843 0.0
C500 C 0.15679 0.75937 0.19286 0.0
C501 C 0.18114 0.76885 0.17637 0.0
C502 C 0.21661 0.74757 0.11557 0.0
C503 C 0.2595 0.8136 0.08108 0.0
C504 C 0.25089 0.79089 0.10159 0.0
C505 C 0.19697 0.7464 0.16089 0.0
C506 C 0.21973 0.7577 0.14117 0.0
H507 H 0.24737 0.89153 0.06609 0.0
H508 H 0.23816 0.85389 0.10075 0.0
H509 H 0.22731 0.75753 0.07615 0.0
H510 H 0.15788 0.67946 0.18048 0.0
H511 H 0.20039 0.69628 0.15112 0.0
C512 C 0.95435 0.28509 0.08701 0.0
C513 C 0.97965 0.28289 0.10456 0.0
C514 C 0.9605 0.28768 0.06069 0.0
C515 C 0.98076 0.30839 0.00709 0.0
H516 H 0.04722 0.25424 0.97887 0.0
C517 C 0.049 0.28303 0.90426 0.0
C518 C 0.02208 0.28045 0.88834 0.0
C519 C 0.04537 0.28633 0.93085 0.0
C520 C 0.02895 0.26988 0.98651 0.0
H521 H 0.03123 0.27995 0.10816 0.0
H522 H 0.04193 0.2859 0.06271 0.0
H523 H 0.03719 0.254 0.02491 0.0
H524 H 0.97031 0.27716 0.88809 0.0
H525 H 0.96404 0.28363 0.93397 0.0
H526 H 0.97205 0.32359 0.96849 0.0
C527 C 0.01732 0.28571 0.06912 0.0
C528 C 0.02316 0.26975 0.0129 0.0
C529 C 0.01117 0.28296 0.0953 0.0
C530 C 0.99154 0.28068 0.89954 0.0
C531 C 0.98791 0.28416 0.92595 0.0
C532 C 0.98647 0.3084 0.98068 0.0
C533 C 0.9921 0.2878 0.05145 0.0
C534 C -0.00117 0.28883 0.02348 0.0
C535 C 0.01473 0.28695 0.94192 0.0
C536 C 0.01043 0.28891 0.9701 0.0
H537 H 0.92983 0.28446 0.09363 0.0
H538 H 0.94049 0.2887 0.04754 0.0
H539 H 0.96222 0.32374 0.01467 0.0
H540 H 0.07281 0.28244 0.89615 0.0
H541 H 0.06648 0.28839 0.94273 0.0
C542 C 0.69631 0.03942 0.163 0.0
C543 C 0.70282 0.01492 0.14541 0.0
C544 C 0.69272 0.0325 0.18912 0.0
C545 C 0.71505 0.97155 0.23705 0.0
H546 H 0.65236 0.0144 0.27958 0.0
C547 C 0.70105 0.94222 0.34452 0.0
C548 C 0.70073 0.96906 0.36062 0.0
C549 C 0.69696 0.94572 0.31802 0.0
C550 C 0.66996 0.00225 0.26789 0.0
H551 H 0.71245 0.96421 0.14169 0.0
H552 H 0.70475 0.95204 0.18662 0.0
H553 H 0.65402 0.02531 0.23352 0.0
H554 H 0.6974 0.02077 0.36132 0.0
H555 H 0.68946 0.02671 0.31555 0.0
H556 H 0.73123 0.94879 0.2714 0.0
C557 C 0.70233 0.97658 0.18041 0.0
C558 C 0.67103 0.00862 0.24158 0.0
C559 C 0.7061 0.98351 0.15446 0.0
C560 C 0.69617 -0.00059 0.34974 0.0
C561 C 0.69186 0.00288 0.32339 0.0
C562 C 0.71388 0.96509 0.26329 0.0
C563 C 0.69588 0.00098 0.19811 0.0
C564 C 0.6938 0.99356 0.22591 0.0
C565 C 0.69265 0.97617 0.3072 0.0
C566 C 0.69158 0.98064 0.27902 0.0
H567 H 0.6942 0.0639 0.15657 0.0
H568 H 0.68829 0.05194 0.20234 0.0
H569 H 0.73327 0.95994 0.22563 0.0
H570 H 0.70504 0.91863 0.35239 0.0
H571 H 0.69767 0.9247 0.30594 0.0
C572 C 0.05699 0.70506 0.58707 0.0
C573 C 0.03009 0.70848 0.60291 0.0
C574 C 0.05338 0.70201 0.56047 0.0
C575 C 0.99452 0.68188 0.51032 0.0
H576 H 0.04566 0.73691 0.46692 0.0
C577 C 0.96302 0.70685 0.40413 0.0
C578 C 0.98842 0.70961 0.38671 0.0
C579 C 0.969 0.70386 0.43045 0.0
C580 C 0.03152 0.72096 0.47867 0.0
H581 H 0.97845 0.71353 0.60301 0.0
H582 H 0.9722 0.70728 0.55709 0.0
H583 H 0.05563 0.73556 0.51293 0.0
H584 H 0.04003 0.71319 0.3835 0.0
H585 H 0.05042 0.70636 0.42879 0.0
H586 H 0.97029 0.66734 0.4761 0.0
C587 C 0.99599 0.70596 0.5652 0.0
C588 C 0.03728 0.72022 0.50504 0.0
C589 C -0.00039 0.70928 0.59163 0.0
C590 C 0.01987 0.70971 0.39614 0.0
C591 C 0.02585 0.70649 0.4223 0.0
C592 C 0.98889 0.68244 0.4839 0.0
C593 C 0.0228 0.70242 0.54933 0.0
C594 C 0.01859 0.70096 0.52115 0.0
C595 C 0.00053 0.70383 0.43982 0.0
C596 C 0.00712 0.70224 0.4678 0.0
H597 H 0.08077 0.70485 0.59524 0.0
H598 H 0.07447 0.69939 0.54862 0.0
H599 H 0.97995 0.66659 0.52232 0.0
H600 H 0.93854 0.70727 0.39741 0.0
H601 H 0.9489 0.70241 0.44348 0.0
C602 C 0.24943 0.96964 0.65482 0.0
C603 C 0.27646 0.96931 0.63891 0.0
C604 C 0.25232 0.97725 0.68079 0.0
C605 C 0.30745 0.97888 0.73481 0.0
H606 H 0.24893 0.04195 0.76251 0.0
C607 C 0.28122 0.99314 0.8424 0.0
C608 C 0.28088 0.0241 0.85276 0.0
C609 C 0.28424 0.98843 0.81605 0.0
C610 C 0.26565 0.02459 0.75496 0.0
H611 H 0.32784 0.97493 0.6377 0.0
H612 H 0.33303 0.98768 0.68346 0.0
H613 H 0.24707 0.02872 0.7168 0.0
H614 H 0.28177 0.07446 0.84346 0.0
H615 H 0.28633 0.06617 0.79693 0.0
H616 H 0.32542 0.97413 0.77314 0.0
C617 C 0.3096 0.98249 0.67571 0.0
C618 C 0.26437 0.01679 0.72892 0.0
C619 C 0.30664 0.97528 0.64961 0.0
C620 C 0.28257 0.05033 0.83603 0.0
C621 C 0.28513 0.04561 0.80949 0.0
C622 C 0.30842 0.98636 0.76093 0.0
C623 C 0.28235 0.98418 0.69139 0.0
C624 C 0.28499 0.99359 0.71869 0.0
C625 C 0.28612 0.01456 0.79932 0.0
C626 C 0.28728 0.00902 0.77129 0.0
H627 H 0.22587 0.96527 0.64698 0.0
H628 H 0.231 0.97794 0.69256 0.0
H629 H 0.32355 0.96089 0.72739 0.0
H630 H 0.27811 0.97238 0.85445 0.0
H631 H 0.28399 0.96427 0.80865 0.0
C632 C 0.13335 0.19688 0.16377 0.0
C633 C 0.10209 0.1889 0.17095 0.0
C634 C 0.15043 0.17727 0.14689 0.0
C635 C 0.15112 0.09577 0.11863 0.0
H636 H 0.20111 0.13587 0.06491 0.0
C637 C 0.227 0.02111 0.04926 0.0
C638 C 0.22774 0.03006 0.02324 0.0
C639 C 0.21344 0.04109 0.06767 0.0
C640 C 0.18704 0.1243 0.07966 0.0
H641 H 0.06461 0.15368 0.16748 0.0
H642 H 0.0939 0.11974 0.13764 0.0
H643 H 0.17422 0.16891 0.09683 0.0
H644 H 0.21509 0.06736 0.99627 0.0
H645 H 0.19059 0.10208 0.02845 0.0
H646 H 0.1628 0.0513 0.10101 0.0
C647 C 0.10554 0.14091 0.14501 0.0
C648 C 0.172 0.14323 0.09821 0.0
C649 C 0.08861 0.16043 0.16193 0.0
C650 C 0.21493 0.05977 0.01614 0.0
C651 C 0.20105 0.07974 0.03463 0.0
C652 C 0.16597 0.07691 0.10005 0.0
C653 C 0.13652 0.14927 0.13698 0.0
C654 C 0.15373 0.12919 0.11787 0.0
C655 C 0.19991 0.07049 0.06061 0.0
C656 C 0.18414 0.09088 0.08031 0.0
H657 H 0.14422 0.21871 0.17066 0.0
H658 H 0.17443 0.18414 0.14149 0.0
H659 H 0.13757 0.08408 0.13363 0.0
H660 H 0.23701 -0.00141 0.05552 0.0
H661 H 0.21369 0.03346 0.08753 0.0
C662 C 0.9337 0.21567 0.26346 0.0
C663 C 0.96225 0.22867 0.27307 0.0
C664 C 0.91136 0.20194 0.28013 0.0
C665 C 0.88508 0.20068 0.34756 0.0
H666 H 0.85359 0.11591 0.33182 0.0
C667 C 0.78822 0.13525 0.40782 0.0
C668 C 0.79502 0.1033 0.41375 0.0
C669 C 0.80746 0.15204 0.39049 0.0
C670 C 0.86219 0.13959 0.33645 0.0
H671 H 0.98931 0.23815 0.30779 0.0
H672 H 0.95025 0.21454 0.33674 0.0
H673 H 0.88871 0.14312 0.30139 0.0
H674 H 0.82778 0.06418 0.40727 0.0
H675 H 0.86107 0.09323 0.37659 0.0
H676 H 0.85878 0.19698 0.38276 0.0
C677 C 0.94516 0.21492 0.31636 0.0
C678 C 0.88203 0.15526 0.31894 0.0
C679 C 0.96764 0.22824 0.29971 0.0
C680 C 0.82172 0.08862 0.40256 0.0
C681 C 0.8407 0.10521 0.38503 0.0
C682 C 0.8649 0.18516 0.36494 0.0
C683 C 0.91693 0.20138 0.30674 0.0
C684 C 0.89402 0.18579 0.32447 0.0
C685 C 0.83365 0.13702 0.37867 0.0
C686 C 0.85363 0.15428 0.3597 0.0
H687 H 0.92883 0.21561 0.24304 0.0
H688 H 0.88969 0.19182 0.27223 0.0
H689 H 0.89382 0.2243 0.35223 0.0
H690 H 0.76772 0.14702 0.41625 0.0
H691 H 0.80146 0.17652 0.38589 0.0
C692 C 0.78213 0.94117 0.51475 0.0
C693 C 0.77291 0.9714 0.52383 0.0
C694 C 0.79753 0.9195 0.53099 0.0
C695 C 0.80842 0.89955 0.59912 0.0
H696 H 0.88334 0.85382 0.57551 0.0
C697 C 0.88684 0.8252 0.66789 0.0
C698 C 0.9 0.79673 0.65851 0.0
C699 C 0.87079 0.84602 0.65137 0.0
C700 C 0.86217 0.86601 0.58231 0.0
H701 H 0.77271 0.00249 0.55716 0.0
H702 H 0.79943 0.96463 0.58542 0.0
H703 H 0.85633 0.89087 0.54669 0.0
H704 H 0.90657 0.7673 0.62482 0.0
H705 H 0.87793 0.80324 0.59593 0.0
H706 H 0.81391 0.87452 0.63462 0.0
C707 C 0.7946 0.95768 0.56577 0.0
C708 C 0.84676 0.88731 0.56579 0.0
C709 C 0.77946 0.97944 0.54951 0.0
C710 C 0.89669 0.78925 0.63242 0.0
C711 C 0.88047 0.80993 0.6159 0.0
C712 C 0.82366 0.87807 0.61558 0.0
C713 C 0.80379 0.92748 0.5567 0.0
C714 C 0.81982 0.90442 0.57406 0.0
C715 C 0.86745 0.83869 0.62513 0.0
C716 C 0.85083 0.86112 0.60744 0.0
H717 H 0.77748 0.93421 0.49508 0.0
H718 H 0.80413 0.8963 0.52352 0.0
H719 H 0.78742 0.91207 0.60591 0.0
H720 H 0.88959 0.83168 0.6879 0.0
H721 H 0.8616 0.86818 0.65909 0.0
C722 C 0.01876 0.77604 0.79576 0.0
C723 C 0.02886 0.77008 0.77046 0.0
C724 C 0.03912 0.79082 0.81334 0.0
C725 C 0.1244 0.80897 0.82547 0.0
H726 H 0.08968 0.87145 0.87275 0.0
C727 C 0.20359 0.89174 0.88723 0.0
C728 C 0.1942 0.89688 0.91274 0.0
C729 C 0.18377 0.87506 0.87036 0.0
C730 C 0.09967 0.85378 0.85988 0.0
H731 H 0.06838 0.7752 0.74383 0.0
H732 H 0.1037 0.80152 0.77441 0.0
H733 H 0.05447 0.84525 0.84206 0.0
H734 H 0.15683 0.88909 0.94072 0.0
H735 H 0.12208 0.85957 0.91128 0.0
H736 H 0.16971 0.81791 0.84314 0.0
C737 C 0.08018 0.79424 0.78077 0.0
C738 C 0.07949 0.83874 0.84228 0.0
C739 C 0.05984 0.77931 0.76318 0.0
C740 C 0.1647 0.88502 0.92119 0.0
C741 C 0.14475 0.86845 0.90428 0.0
C742 C 0.14461 0.82414 0.843 0.0
C743 C 0.07007 0.80018 0.80608 0.0
C744 C 0.0916 0.81615 0.82483 0.0
C745 C 0.15402 0.86341 0.87864 0.0
C746 C 0.13247 0.84673 0.86039 0.0
H747 H 0.99514 0.76908 0.80211 0.0
H748 H 0.0307 0.79454 0.83277 0.0
H749 H 0.13445 0.79132 0.81262 0.0
H750 H 0.22624 0.90082 0.88031 0.0
H751 H 0.19142 0.87191 0.85066 0.0
C752 C 0.12814 0.82294 0.3174 0.0
C753 C 0.11451 0.79449 0.32639 0.0
C754 C 0.14477 0.84297 0.33419 0.0
C755 C 0.18494 0.84557 0.39743 0.0
H756 H 0.16493 0.93579 0.39429 0.0
C757 C 0.22271 0.93474 0.47685 0.0
C758 C 0.23209 0.96546 0.46908 0.0
C759 C 0.21008 0.91314 0.45905 0.0
C760 C 0.17119 0.91075 0.39522 0.0
H761 H 0.10806 0.76411 0.35959 0.0
H762 H 0.13699 0.79913 0.38903 0.0
H763 H 0.14079 0.8994 0.36352 0.0
H764 H 0.23637 0.99719 0.4363 0.0
H765 H 0.215 0.95948 0.40538 0.0
H766 H 0.21535 0.85696 0.42918 0.0
C767 C 0.1351 0.80592 0.36903 0.0
C768 C 0.15732 0.88988 0.37756 0.0
C769 C 0.11837 0.786 0.35226 0.0
C770 C 0.22911 0.97384 0.44305 0.0
C771 C 0.21667 0.95225 0.42529 0.0
C772 C 0.19895 0.8665 0.41506 0.0
C773 C 0.14813 0.83485 0.36026 0.0
C774 C 0.16394 0.85705 0.3785 0.0
C775 C 0.20668 0.92174 0.43308 0.0
C776 C 0.19218 0.89935 0.41421 0.0
H777 H 0.12517 0.83012 0.29757 0.0
H778 H 0.15479 0.86496 0.32682 0.0
H779 H 0.19076 0.82043 0.39847 0.0
H780 H 0.22461 0.92753 0.49676 0.0
H781 H 0.20231 0.88995 0.46577 0.0
C782 C 0.1898 0.1292 0.5821 0.0
C783 C 0.18341 0.09761 0.57493 0.0
C784 C 0.16893 0.14552 0.59847 0.0
C785 C 0.08676 0.14272 0.62581 0.0
H786 H 0.12399 0.19573 0.67893 0.0
C787 C 0.0485 0.20846 0.72714 0.0
C788 C 0.01844 0.22044 0.71999 0.0
C789 C 0.06838 0.19402 0.70894 0.0
C790 C 0.11318 0.18077 0.66438 0.0
H791 H 0.14959 0.05877 0.5778 0.0
H792 H 0.11362 0.08665 0.60699 0.0
H793 H 0.15854 0.16973 0.64775 0.0
H794 H 0.98587 0.22687 0.68798 0.0
H795 H 0.02069 0.20248 0.6563 0.0
H796 H 0.04153 0.15268 0.64304 0.0
C797 C 0.13449 0.09914 0.59996 0.0
C798 C 0.133 0.16625 0.64621 0.0
C799 C 0.15523 0.08299 0.58348 0.0
C800 C 0.00876 0.21768 0.69424 0.0
C801 C 0.02871 0.20351 0.67604 0.0
C802 C 0.06698 0.15705 0.64408 0.0
C803 C 0.14127 0.13048 0.60797 0.0
C804 C 0.12005 0.14694 0.62672 0.0
C805 C 0.05877 0.19144 0.68313 0.0
C806 C 0.07992 0.17623 0.66364 0.0
H807 H 0.21132 0.141 0.57554 0.0
H808 H 0.17459 0.16984 0.60379 0.0
H809 H 0.07587 0.12835 0.61092 0.0
H810 H 0.05665 0.21007 0.74683 0.0
H811 H 0.09115 0.18455 0.7152 0.0
C812 C 0.87327 0.17223 0.82593 0.0
C813 C 0.88831 0.20029 0.83422 0.0
C814 C 0.85729 0.15273 0.84351 0.0
C815 C 0.82036 0.15158 0.90775 0.0
H816 H 0.83835 0.06093 0.90476 0.0
C817 C 0.7783 0.06312 0.98656 0.0
C818 C 0.76795 0.03292 0.97829 0.0
C819 C 0.79254 0.08438 0.96924 0.0
C820 C 0.83268 0.08611 0.90569 0.0
H821 H 0.89799 0.23055 0.86697 0.0
H822 H 0.86996 0.19652 0.89777 0.0
H823 H 0.86263 0.09661 0.87351 0.0
H824 H 0.7638 0.00174 0.94516 0.0
H825 H 0.78778 0.03881 0.91513 0.0
H826 H 0.79012 0.14103 0.9398 0.0
C827 C 0.87037 0.18961 0.87774 0.0
C828 C 0.84664 0.10655 0.88776 0.0
C829 C 0.88654 0.20895 0.8602 0.0
C830 C 0.77178 0.02465 0.95231 0.0
C831 C 0.78575 0.04589 0.93505 0.0
C832 C 0.80617 0.13107 0.92562 0.0
C833 C 0.85594 0.16107 0.86965 0.0
C834 C 0.8406 0.13948 0.88855 0.0
C835 C 0.79655 0.07593 0.94329 0.0
C836 C 0.81208 0.09805 0.92475 0.0
H837 H 0.87463 0.16495 0.80602 0.0
H838 H 0.84615 0.13101 0.83669 0.0
H839 H 0.8151 0.17685 0.90871 0.0
H840 H 0.77575 0.07021 0.00644 0.0
H841 H 0.80087 0.10721 0.9763 0.0
C842 C 0.98411 0.77941 0.19421 0.0
C843 C 0.97608 0.77324 0.21995 0.0
C844 C 0.96239 0.79437 0.17781 0.0
C845 C 0.87625 0.81239 0.17026 0.0
H846 H 0.90693 0.87426 0.12072 0.0
C847 C 0.79199 0.89322 0.11093 0.0
C848 C 0.79959 0.89768 0.08494 0.0
C849 C 0.81311 0.87722 0.12723 0.0
C850 C 0.89804 0.85678 0.13426 0.0
H851 H 0.93886 0.77832 0.24864 0.0
H852 H 0.90118 0.80496 0.22012 0.0
H853 H 0.94458 0.84866 0.14983 0.0
H854 H 0.83509 0.88923 0.05553 0.0
H855 H 0.87203 0.86093 0.08394 0.0
H856 H 0.82961 0.82088 0.1548 0.0
C857 C 0.92411 0.79768 0.2125 0.0
C858 C 0.91962 0.84207 0.15095 0.0
C859 C 0.94581 0.78257 0.22891 0.0
C860 C 0.82857 0.88574 0.07545 0.0
C861 C 0.8498 0.86987 0.09177 0.0
C862 C 0.85464 0.82723 0.15364 0.0
C863 C 0.93211 0.80372 0.18672 0.0
C864 C 0.90902 0.81963 0.16914 0.0
C865 C 0.84237 0.86556 0.11788 0.0
C866 C 0.86531 0.84955 0.13542 0.0
H867 H 0.00713 0.7724 0.18659 0.0
H868 H 0.9692 0.79816 0.15799 0.0
H869 H 0.8673 0.79485 0.18373 0.0
H870 H 0.76974 0.90226 0.11866 0.0
H871 H 0.80683 0.87458 0.14728 0.0
loop_
_geom_bond_atom_site_label_1
_geom_bond_atom_site_label_2
_geom_bond_distance
_geom_bond_site_symmetry_2
_ccdc_geom_bond_type
Co0 O3 1.970 . S
Co0 N17 1.989 . S
Co0 O25 1.967 . S
Co0 O32 1.920 . S
Co1 O4 1.966 . S
Co1 N10 2.022 . S
Co1 N18 1.993 . S
Co1 O26 1.941 . S
C2 O3 1.258 . S
C2 O4 1.263 . S
O3 Co0 1.970 . S
O3 C2 1.258 . S
O4 Co1 1.966 . S
O4 C2 1.263 . S
C5 O6 1.235 . S
C5 O32 1.289 . S
O6 C5 1.235 . S
C7 C9 1.400 . S
C7 N10 1.351 . S
C7 C12 1.501 . S
C8 C9 1.387 . S
C8 N11 1.341 . S
C9 C7 1.400 . S
C9 C8 1.387 . S
N10 Co1 2.022 . S
N10 C7 1.351 . S
N10 N11 1.365 . S
N11 C8 1.341 . S
N11 N10 1.365 . S
N11 H31 0.862 . S
C12 C7 1.501 . S
C12 H13 0.961 . S
C12 H14 0.961 . S
C12 H15 0.960 . S
H13 C12 0.961 . S
H14 C12 0.961 . S
H15 C12 0.960 . S
C16 N17 1.342 . S
C16 C20 1.401 . S
C16 C21 1.499 . S
N17 Co0 1.989 . S
N17 C16 1.342 . S
N17 N18 1.388 . S
N18 Co1 1.993 . S
N18 N17 1.388 . S
N18 C19 1.346 . S
C19 N18 1.346 . S
C19 C20 1.396 . S
C19 C29 1.510 . S
C20 C16 1.401 . S
C20 C19 1.396 . S
C21 C16 1.499 . S
C21 H22 0.959 . S
C21 H23 0.960 . S
C21 H24 0.961 . S
H22 C21 0.959 . S
H23 C21 0.960 . S
H24 C21 0.961 . S
O25 Co0 1.967 . S
O25 C33 1.258 . S
O26 Co1 1.941 . S
O26 C33 1.266 . S
H27 C29 0.959 . S
H28 C29 0.961 . S
C29 C19 1.510 . S
C29 H27 0.959 . S
C29 H28 0.961 . S
C29 H30 0.960 . S
H30 C29 0.960 . S
H31 N11 0.862 . S
O32 Co0 1.920 . S
O32 C5 1.289 . S
C33 O25 1.258 . S
C33 O26 1.266 . S
Co34 O37 1.970 . S
Co34 N51 1.989 . S
Co34 O59 1.967 . S
Co34 O66 1.920 . S
Co35 O38 1.966 . S
Co35 N44 2.022 . S
Co35 N52 1.993 . S
Co35 O60 1.941 . S
C36 O37 1.258 . S
C36 O38 1.263 . S
O37 Co34 1.970 . S
O37 C36 1.258 . S
O38 Co35 1.966 . S
O38 C36 1.263 . S
C39 O40 1.235 . S
C39 O66 1.289 . S
O40 C39 1.235 . S
C41 C43 1.400 . S
C41 N44 1.351 . S
C41 C46 1.501 . S
C42 C43 1.387 . S
C42 N45 1.341 . S
C43 C41 1.400 . S
C43 C42 1.387 . S
N44 Co35 2.022 . S
N44 C41 1.351 . S
N44 N45 1.365 . S
N45 C42 1.341 . S
N45 N44 1.365 . S
N45 H65 0.862 . S
C46 C41 1.501 . S
C46 H47 0.961 . S
C46 H48 0.961 . S
C46 H49 0.960 . S
H47 C46 0.961 . S
H48 C46 0.961 . S
H49 C46 0.960 . S
C50 N51 1.342 . S
C50 C54 1.401 . S
C50 C55 1.499 . S
N51 Co34 1.989 . S
N51 C50 1.342 . S
N51 N52 1.388 . S
N52 Co35 1.993 . S
N52 N51 1.388 . S
N52 C53 1.346 . S
C53 N52 1.346 . S
C53 C54 1.396 . S
C53 C63 1.510 . S
C54 C50 1.401 . S
C54 C53 1.396 . S
C55 C50 1.499 . S
C55 H56 0.959 . S
C55 H57 0.960 . S
C55 H58 0.961 . S
H56 C55 0.959 . S
H57 C55 0.960 . S
H58 C55 0.961 . S
O59 Co34 1.967 . S
O59 C67 1.258 . S
O60 Co35 1.941 . S
O60 C67 1.266 . S
H61 C63 0.959 . S
H62 C63 0.961 . S
C63 C53 1.510 . S
C63 H61 0.959 . S
C63 H62 0.961 . S
C63 H64 0.960 . S
H64 C63 0.960 . S
H65 N45 0.862 . S
O66 Co34 1.920 . S
O66 C39 1.289 . S
C67 O59 1.258 . S
C67 O60 1.266 . S
Co68 O71 1.970 . S
Co68 N85 1.989 . S
Co68 O93 1.967 . S
Co68 O100 1.920 . S
Co69 O72 1.966 . S
Co69 N78 2.022 . S
Co69 N86 1.993 . S
Co69 O94 1.941 . S
C70 O71 1.258 . S
C70 O72 1.263 . S
O71 Co68 1.970 . S
O71 C70 1.258 . S
O72 Co69 1.966 . S
O72 C70 1.263 . S
C73 O74 1.235 . S
C73 O100 1.289 . S
O74 C73 1.235 . S
C75 C77 1.400 . S
C75 N78 1.351 . S
C75 C80 1.501 . S
C76 C77 1.387 . S
C76 N79 1.341 . S
C77 C75 1.400 . S
C77 C76 1.387 . S
N78 Co69 2.022 . S
N78 C75 1.351 . S
N78 N79 1.365 . S
N79 C76 1.341 . S
N79 N78 1.365 . S
N79 H99 0.862 . S
C80 C75 1.501 . S
C80 H81 0.961 . S
C80 H82 0.961 . S
C80 H83 0.960 . S
H81 C80 0.961 . S
H82 C80 0.961 . S
H83 C80 0.960 . S
C84 N85 1.342 . S
C84 C88 1.401 . S
C84 C89 1.499 . S
N85 Co68 1.989 . S
N85 C84 1.342 . S
N85 N86 1.388 . S
N86 Co69 1.993 . S
N86 N85 1.388 . S
N86 C87 1.346 . S
C87 N86 1.346 . S
C87 C88 1.396 . S
C87 C97 1.510 . S
C88 C84 1.401 . S
C88 C87 1.396 . S
C89 C84 1.499 . S
C89 H90 0.959 . S
C89 H91 0.960 . S
C89 H92 0.961 . S
H90 C89 0.959 . S
H91 C89 0.960 . S
H92 C89 0.961 . S
O93 Co68 1.967 . S
O93 C101 1.258 . S
O94 Co69 1.941 . S
O94 C101 1.266 . S
H95 C97 0.959 . S
H96 C97 0.961 . S
C97 C87 1.510 . S
C97 H95 0.959 . S
C97 H96 0.961 . S
C97 H98 0.960 . S
H98 C97 0.960 . S
H99 N79 0.862 . S
O100 Co68 1.920 . S
O100 C73 1.289 . S
C101 O93 1.258 . S
C101 O94 1.266 . S
Co102 O105 1.970 . S
Co102 N119 1.989 . S
Co102 O127 1.967 . S
Co102 O134 1.920 1_556 S
Co103 O106 1.966 . S
Co103 N112 2.022 . S
Co103 N120 1.993 . S
Co103 O128 1.941 . S
C104 O105 1.258 . S
C104 O106 1.263 . S
O105 Co102 1.970 . S
O105 C104 1.258 . S
O106 Co103 1.966 . S
O106 C104 1.263 . S
C107 O108 1.235 . S
C107 O134 1.289 . S
O108 C107 1.235 . S
C109 C111 1.400 . S
C109 N112 1.351 . S
C109 C114 1.501 . S
C110 C111 1.387 . S
C110 N113 1.341 . S
C111 C109 1.400 . S
C111 C110 1.387 . S
N112 Co103 2.022 . S
N112 C109 1.351 . S
N112 N113 1.365 . S
N113 C110 1.341 . S
N113 N112 1.365 . S
N113 H133 0.862 . S
C114 C109 1.501 . S
C114 H115 0.961 . S
C114 H116 0.961 . S
C114 H117 0.960 . S
H115 C114 0.961 . S
H116 C114 0.961 . S
H117 C114 0.960 . S
C118 N119 1.342 . S
C118 C122 1.401 . S
C118 C123 1.499 . S
N119 Co102 1.989 . S
N119 C118 1.342 . S
N119 N120 1.388 . S
N120 Co103 1.993 . S
N120 N119 1.388 . S
N120 C121 1.346 . S
C121 N120 1.346 . S
C121 C122 1.396 . S
C121 C131 1.510 . S
C122 C118 1.401 . S
C122 C121 1.396 . S
C123 C118 1.499 . S
C123 H124 0.959 . S
C123 H125 0.960 . S
C123 H126 0.961 . S
H124 C123 0.959 . S
H125 C123 0.960 . S
H126 C123 0.961 . S
O127 Co102 1.967 . S
O127 C135 1.258 . S
O128 Co103 1.941 . S
O128 C135 1.266 . S
H129 C131 0.959 . S
H130 C131 0.961 . S
C131 C121 1.510 . S
C131 H129 0.959 . S
C131 H130 0.961 . S
C131 H132 0.960 . S
H132 C131 0.960 . S
H133 N113 0.862 . S
O134 Co102 1.920 1_554 S
O134 C107 1.289 . S
C135 O127 1.258 . S
C135 O128 1.266 . S
Co136 O139 1.970 . S
Co136 N153 1.989 . S
Co136 O161 1.967 . S
Co136 O168 1.920 . S
Co137 O140 1.966 . S
Co137 N146 2.022 . S
Co137 N154 1.993 . S
Co137 O162 1.941 . S
C138 O139 1.258 . S
C138 O140 1.263 . S
O139 Co136 1.970 . S
O139 C138 1.258 . S
O140 Co137 1.966 . S
O140 C138 1.263 . S
C141 O142 1.235 . S
C141 O168 1.289 . S
O142 C141 1.235 . S
C143 C145 1.400 . S
C143 N146 1.351 . S
C143 C148 1.501 . S
C144 C145 1.387 . S
C144 N147 1.341 . S
C145 C143 1.400 . S
C145 C144 1.387 . S
N146 Co137 2.022 . S
N146 C143 1.351 . S
N146 N147 1.365 . S
N147 C144 1.341 . S
N147 N146 1.365 . S
N147 H167 0.862 . S
C148 C143 1.501 . S
C148 H149 0.961 . S
C148 H150 0.961 . S
C148 H151 0.960 . S
H149 C148 0.961 . S
H150 C148 0.961 . S
H151 C148 0.960 . S
C152 N153 1.342 . S
C152 C156 1.401 . S
C152 C157 1.499 . S
N153 Co136 1.989 . S
N153 C152 1.342 . S
N153 N154 1.388 . S
N154 Co137 1.993 . S
N154 N153 1.388 . S
N154 C155 1.346 . S
C155 N154 1.346 . S
C155 C156 1.396 . S
C155 C165 1.510 . S
C156 C152 1.401 . S
C156 C155 1.396 . S
C157 C152 1.499 . S
C157 H158 0.959 . S
C157 H159 0.960 . S
C157 H160 0.961 . S
H158 C157 0.959 . S
H159 C157 0.960 . S
H160 C157 0.961 . S
O161 Co136 1.967 . S
O161 C169 1.258 . S
O162 Co137 1.941 . S
O162 C169 1.266 . S
H163 C165 0.959 . S
H164 C165 0.961 . S
C165 C155 1.510 . S
C165 H163 0.959 . S
C165 H164 0.961 . S
C165 H166 0.960 . S
H166 C165 0.960 . S
H167 N147 0.862 . S
O168 Co136 1.920 . S
O168 C141 1.289 . S
C169 O161 1.258 . S
C169 O162 1.266 . S
Co170 O173 1.970 . S
Co170 N187 1.989 . S
Co170 O195 1.967 . S
Co170 O202 1.920 . S
Co171 O174 1.966 . S
Co171 N180 2.022 . S
Co171 N188 1.993 . S
Co171 O196 1.941 . S
C172 O173 1.258 . S
C172 O174 1.263 . S
O173 Co170 1.970 . S
O173 C172 1.258 . S
O174 Co171 1.966 . S
O174 C172 1.263 . S
C175 O176 1.235 . S
C175 O202 1.289 . S
O176 C175 1.235 . S
C177 C179 1.400 . S
C177 N180 1.351 . S
C177 C182 1.501 . S
C178 C179 1.387 . S
C178 N181 1.341 . S
C179 C177 1.400 . S
C179 C178 1.387 . S
N180 Co171 2.022 . S
N180 C177 1.351 . S
N180 N181 1.365 . S
N181 C178 1.341 . S
N181 N180 1.365 . S
N181 H201 0.862 . S
C182 C177 1.501 . S
C182 H183 0.961 . S
C182 H184 0.961 . S
C182 H185 0.960 . S
H183 C182 0.961 . S
H184 C182 0.961 . S
H185 C182 0.960 . S
C186 N187 1.342 . S
C186 C190 1.401 . S
C186 C191 1.499 . S
N187 Co170 1.989 . S
N187 C186 1.342 . S
N187 N188 1.388 . S
N188 Co171 1.993 . S
N188 N187 1.388 . S
N188 C189 1.346 . S
C189 N188 1.346 . S
C189 C190 1.396 . S
C189 C199 1.510 . S
C190 C186 1.401 . S
C190 C189 1.396 . S
C191 C186 1.499 . S
C191 H192 0.959 . S
C191 H193 0.960 . S
C191 H194 0.961 . S
H192 C191 0.959 . S
H193 C191 0.960 . S
H194 C191 0.961 . S
O195 Co170 1.967 . S
O195 C203 1.258 . S
O196 Co171 1.941 . S
O196 C203 1.266 . S
H197 C199 0.959 . S
H198 C199 0.961 . S
C199 C189 1.510 . S
C199 H197 0.959 . S
C199 H198 0.961 . S
C199 H200 0.960 . S
H200 C199 0.960 . S
H201 N181 0.862 . S
O202 Co170 1.920 . S
O202 C175 1.289 . S
C203 O195 1.258 . S
C203 O196 1.266 . S
Co204 O207 1.970 . S
Co204 N221 1.989 . S
Co204 O229 1.967 . S
Co204 O236 1.920 . S
Co205 O208 1.966 . S
Co205 N214 2.022 . S
Co205 N222 1.993 . S
Co205 O230 1.941 . S
C206 O207 1.258 . S
C206 O208 1.263 . S
O207 Co204 1.970 . S
O207 C206 1.258 . S
O208 Co205 1.966 . S
O208 C206 1.263 . S
C209 O210 1.235 . S
C209 O236 1.289 . S
O210 C209 1.235 . S
C211 C213 1.400 . S
C211 N214 1.351 . S
C211 C216 1.501 . S
C212 C213 1.387 . S
C212 N215 1.341 . S
C213 C211 1.400 . S
C213 C212 1.387 . S
N214 Co205 2.022 . S
N214 C211 1.351 . S
N214 N215 1.365 . S
N215 C212 1.341 . S
N215 N214 1.365 . S
N215 H235 0.862 . S
C216 C211 1.501 . S
C216 H217 0.961 . S
C216 H218 0.961 . S
C216 H219 0.960 . S
H217 C216 0.961 . S
H218 C216 0.961 . S
H219 C216 0.960 . S
C220 N221 1.342 . S
C220 C224 1.401 . S
C220 C225 1.499 . S
N221 Co204 1.989 . S
N221 C220 1.342 . S
N221 N222 1.388 . S
N222 Co205 1.993 . S
N222 N221 1.388 . S
N222 C223 1.346 . S
C223 N222 1.346 . S
C223 C224 1.396 . S
C223 C233 1.510 . S
C224 C220 1.401 . S
C224 C223 1.396 . S
C225 C220 1.499 . S
C225 H226 0.959 . S
C225 H227 0.960 . S
C225 H228 0.961 . S
H226 C225 0.959 . S
H227 C225 0.960 . S
H228 C225 0.961 . S
O229 Co204 1.967 . S
O229 C237 1.258 . S
O230 Co205 1.941 . S
O230 C237 1.266 . S
H231 C233 0.959 . S
H232 C233 0.961 . S
C233 C223 1.510 . S
C233 H231 0.959 . S
C233 H232 0.961 . S
C233 H234 0.960 . S
H234 C233 0.960 . S
H235 N215 0.862 . S
O236 Co204 1.920 . S
O236 C209 1.289 . S
C237 O229 1.258 . S
C237 O230 1.266 . S
Co238 O241 1.970 . S
Co238 N255 1.989 . S
Co238 O263 1.967 . S
Co238 O270 1.920 1_554 S
Co239 O242 1.966 . S
Co239 N248 2.022 . S
Co239 N256 1.993 . S
Co239 O264 1.941 . S
C240 O241 1.258 . S
C240 O242 1.263 . S
O241 Co238 1.970 . S
O241 C240 1.258 . S
O242 Co239 1.966 . S
O242 C240 1.263 . S
C243 O244 1.235 . S
C243 O270 1.289 . S
O244 C243 1.235 . S
C245 C247 1.400 . S
C245 N248 1.351 . S
C245 C250 1.501 . S
C246 C247 1.387 . S
C246 N249 1.341 . S
C247 C245 1.400 . S
C247 C246 1.387 . S
N248 Co239 2.022 . S
N248 C245 1.351 . S
N248 N249 1.365 . S
N249 C246 1.341 . S
N249 N248 1.365 . S
N249 H269 0.862 . S
C250 C245 1.501 . S
C250 H251 0.961 . S
C250 H252 0.961 . S
C250 H253 0.960 . S
H251 C250 0.961 . S
H252 C250 0.961 . S
H253 C250 0.960 . S
C254 N255 1.342 . S
C254 C258 1.401 . S
C254 C259 1.499 . S
N255 Co238 1.989 . S
N255 C254 1.342 . S
N255 N256 1.388 . S
N256 Co239 1.993 . S
N256 N255 1.388 . S
N256 C257 1.346 . S
C257 N256 1.346 . S
C257 C258 1.396 . S
C257 C267 1.510 . S
C258 C254 1.401 . S
C258 C257 1.396 . S
C259 C254 1.499 . S
C259 H260 0.959 . S
C259 H261 0.960 . S
C259 H262 0.961 . S
H260 C259 0.959 . S
H261 C259 0.960 . S
H262 C259 0.961 . S
O263 Co238 1.967 . S
O263 C271 1.258 . S
O264 Co239 1.941 . S
O264 C271 1.266 . S
H265 C267 0.959 . S
H266 C267 0.961 . S
C267 C257 1.510 . S
C267 H265 0.959 . S
C267 H266 0.961 . S
C267 H268 0.960 . S
H268 C267 0.960 . S
H269 N249 0.862 . S
O270 Co238 1.920 1_556 S
O270 C243 1.289 . S
C271 O263 1.258 . S
C271 O264 1.266 . S
C272 C273 1.349 . S
C272 C274 1.327 . S
C272 H297 0.950 . S
C273 C272 1.349 . S
C273 C289 1.349 . S
C274 C272 1.327 . S
C274 C293 1.429 . S
C274 H298 0.950 . S
C275 C292 1.574 . S
C275 C294 1.368 . S
C275 H299 0.949 . S
H276 C280 0.949 . S
C277 C278 1.349 . S
C277 C279 1.327 . S
C277 H300 0.950 . S
C278 C277 1.349 . S
C278 C290 1.349 . S
C279 C277 1.327 . S
C279 C295 1.429 . S
C279 H301 0.950 . S
C280 H276 0.949 . S
C280 C288 1.574 . S
C280 C296 1.368 . S
H281 C289 0.950 . S
H282 C287 0.950 . S
H283 C288 0.949 . S
H284 C290 0.950 . S
H285 C291 0.950 . S
H286 C292 0.949 . S
C287 H282 0.950 . S
C287 C289 1.327 . S
C287 C293 1.429 . S
C288 C280 1.574 . S
C288 H283 0.949 . S
C288 C294 1.368 . S
C289 C273 1.349 . S
C289 H281 0.950 . S
C289 C287 1.327 . S
C290 C278 1.349 . S
C290 H284 0.950 . S
C290 C291 1.327 . S
C291 H285 0.950 . S
C291 C290 1.327 . S
C291 C295 1.429 . S
C292 C275 1.574 . S
C292 H286 0.949 . S
C292 C296 1.368 . S
C293 C274 1.429 . S
C293 C287 1.429 . S
C293 C294 1.523 . S
C294 C275 1.368 . S
C294 C288 1.368 . S
C294 C293 1.523 . S
C295 C279 1.429 . S
C295 C291 1.429 . S
C295 C296 1.523 . S
C296 C280 1.368 . S
C296 C292 1.368 . S
C296 C295 1.523 . S
H297 C272 0.950 . S
H298 C274 0.950 . S
H299 C275 0.949 . S
H300 C277 0.950 . S
H301 C279 0.950 . S
C302 C303 1.349 . S
C302 C304 1.327 . S
C302 H327 0.950 . S
C303 C302 1.349 . S
C303 C319 1.349 . S
C304 C302 1.327 . S
C304 C323 1.429 . S
C304 H328 0.950 . S
C305 C322 1.574 . S
C305 C324 1.368 . S
C305 H329 0.949 . S
H306 C310 0.949 . S
C307 C308 1.349 . S
C307 C309 1.327 . S
C307 H330 0.950 . S
C308 C307 1.349 . S
C308 C320 1.349 . S
C309 C307 1.327 . S
C309 C325 1.429 . S
C309 H331 0.950 . S
C310 H306 0.949 . S
C310 C318 1.574 . S
C310 C326 1.368 . S
H311 C319 0.950 . S
H312 C317 0.950 . S
H313 C318 0.949 . S
H314 C320 0.950 . S
H315 C321 0.950 . S
H316 C322 0.949 . S
C317 H312 0.950 . S
C317 C319 1.327 . S
C317 C323 1.429 . S
C318 C310 1.574 . S
C318 H313 0.949 . S
C318 C324 1.368 . S
C319 C303 1.349 . S
C319 H311 0.950 . S
C319 C317 1.327 . S
C320 C308 1.349 . S
C320 H314 0.950 . S
C320 C321 1.327 . S
C321 H315 0.950 . S
C321 C320 1.327 . S
C321 C325 1.429 . S
C322 C305 1.574 . S
C322 H316 0.949 . S
C322 C326 1.368 . S
C323 C304 1.429 . S
C323 C317 1.429 . S
C323 C324 1.523 . S
C324 C305 1.368 . S
C324 C318 1.368 . S
C324 C323 1.523 . S
C325 C309 1.429 . S
C325 C321 1.429 . S
C325 C326 1.523 . S
C326 C310 1.368 . S
C326 C322 1.368 . S
C326 C325 1.523 . S
H327 C302 0.950 . S
H328 C304 0.950 . S
H329 C305 0.949 . S
H330 C307 0.950 . S
H331 C309 0.950 . S
C332 C333 1.349 . S
C332 C334 1.327 . S
C332 H357 0.950 . S
C333 C332 1.349 . S
C333 C349 1.349 . S
C334 C332 1.327 . S
C334 C353 1.429 . S
C334 H358 0.950 . S
C335 C352 1.574 . S
C335 C354 1.368 . S
C335 H359 0.949 . S
H336 C340 0.949 . S
C337 C338 1.349 . S
C337 C339 1.327 . S
C337 H360 0.950 . S
C338 C337 1.349 . S
C338 C350 1.349 . S
C339 C337 1.327 . S
C339 C355 1.429 . S
C339 H361 0.950 . S
C340 H336 0.949 . S
C340 C348 1.574 . S
C340 C356 1.368 . S
H341 C349 0.950 . S
H342 C347 0.950 . S
H343 C348 0.949 . S
H344 C350 0.950 . S
H345 C351 0.950 . S
H346 C352 0.949 . S
C347 H342 0.950 . S
C347 C349 1.327 . S
C347 C353 1.429 . S
C348 C340 1.574 . S
C348 H343 0.949 . S
C348 C354 1.368 . S
C349 C333 1.349 . S
C349 H341 0.950 . S
C349 C347 1.327 . S
C350 C338 1.349 . S
C350 H344 0.950 . S
C350 C351 1.327 . S
C351 H345 0.950 . S
C351 C350 1.327 . S
C351 C355 1.429 . S
C352 C335 1.574 . S
C352 H346 0.949 . S
C352 C356 1.368 . S
C353 C334 1.429 . S
C353 C347 1.429 . S
C353 C354 1.523 . S
C354 C335 1.368 . S
C354 C348 1.368 . S
C354 C353 1.523 . S
C355 C339 1.429 . S
C355 C351 1.429 . S
C355 C356 1.523 . S
C356 C340 1.368 . S
C356 C352 1.368 . S
C356 C355 1.523 . S
H357 C332 0.950 . S
H358 C334 0.950 . S
H359 C335 0.949 . S
H360 C337 0.950 . S
H361 C339 0.950 . S
C362 C363 1.349 . S
C362 C364 1.327 . S
C362 H387 0.950 . S
C363 C362 1.349 . S
C363 C379 1.349 . S
C364 C362 1.327 . S
C364 C383 1.429 . S
C364 H388 0.950 1_556 S
C365 C382 1.574 . S
C365 C384 1.368 . S
C365 H389 0.949 . S
H366 C370 0.949 . S
C367 C368 1.349 . S
C367 C369 1.327 . S
C367 H390 0.950 . S
C368 C367 1.349 . S
C368 C380 1.349 . S
C369 C367 1.327 . S
C369 C385 1.429 . S
C369 H391 0.950 1_554 S
C370 H366 0.949 . S
C370 C378 1.574 . S
C370 C386 1.368 . S
H371 C379 0.950 . S
H372 C377 0.950 . S
H373 C378 0.949 . S
H374 C380 0.950 . S
H375 C381 0.950 . S
H376 C382 0.949 . S
C377 H372 0.950 . S
C377 C379 1.327 . S
C377 C383 1.429 . S
C378 C370 1.574 . S
C378 H373 0.949 . S
C378 C384 1.368 1_554 S
C379 C363 1.349 . S
C379 H371 0.950 . S
C379 C377 1.327 . S
C380 C368 1.349 . S
C380 H374 0.950 . S
C380 C381 1.327 . S
C381 H375 0.950 . S
C381 C380 1.327 . S
C381 C385 1.429 . S
C382 C365 1.574 . S
C382 H376 0.949 . S
C382 C386 1.368 1_556 S
C383 C364 1.429 . S
C383 C377 1.429 . S
C383 C384 1.523 . S
C384 C365 1.368 . S
C384 C378 1.368 1_556 S
C384 C383 1.523 . S
C385 C369 1.429 . S
C385 C381 1.429 . S
C385 C386 1.523 . S
C386 C370 1.368 . S
C386 C382 1.368 1_554 S
C386 C385 1.523 . S
H387 C362 0.950 . S
H388 C364 0.950 1_554 S
H389 C365 0.949 . S
H390 C367 0.950 . S
H391 C369 0.950 1_556 S
C392 C393 1.349 . S
C392 C394 1.327 . S
C392 H417 0.950 . S
C393 C392 1.349 . S
C393 C409 1.349 . S
C394 C392 1.327 . S
C394 C413 1.429 . S
C394 H418 0.950 . S
C395 C412 1.574 . S
C395 C414 1.368 . S
C395 H419 0.949 . S
H396 C400 0.949 . S
C397 C398 1.349 . S
C397 C399 1.327 . S
C397 H420 0.950 . S
C398 C397 1.349 . S
C398 C410 1.349 . S
C399 C397 1.327 . S
C399 C415 1.429 . S
C399 H421 0.950 . S
C400 H396 0.949 . S
C400 C408 1.574 . S
C400 C416 1.368 . S
H401 C409 0.950 . S
H402 C407 0.950 . S
H403 C408 0.949 . S
H404 C410 0.950 . S
H405 C411 0.950 . S
H406 C412 0.949 . S
C407 H402 0.950 . S
C407 C409 1.327 . S
C407 C413 1.429 . S
C408 C400 1.574 . S
C408 H403 0.949 . S
C408 C414 1.368 . S
C409 C393 1.349 . S
C409 H401 0.950 . S
C409 C407 1.327 . S
C410 C398 1.349 . S
C410 H404 0.950 . S
C410 C411 1.327 . S
C411 H405 0.950 . S
C411 C410 1.327 . S
C411 C415 1.429 . S
C412 C395 1.574 . S
C412 H406 0.949 . S
C412 C416 1.368 . S
C413 C394 1.429 . S
C413 C407 1.429 . S
C413 C414 1.523 . S
C414 C395 1.368 . S
C414 C408 1.368 . S
C414 C413 1.523 . S
C415 C399 1.429 . S
C415 C411 1.429 . S
C415 C416 1.523 . S
C416 C400 1.368 . S
C416 C412 1.368 . S
C416 C415 1.523 . S
H417 C392 0.950 . S
H418 C394 0.950 . S
H419 C395 0.949 . S
H420 C397 0.950 . S
H421 C399 0.950 . S
C422 C423 1.349 . S
C422 C424 1.327 . S
C422 H447 0.950 . S
C423 C422 1.349 . S
C423 C439 1.349 . S
C424 C422 1.327 . S
C424 C443 1.429 . S
C424 H448 0.950 . S
C425 C442 1.574 . S
C425 C444 1.368 . S
C425 H449 0.949 . S
H426 C430 0.949 . S
C427 C428 1.349 . S
C427 C429 1.327 . S
C427 H450 0.950 . S
C428 C427 1.349 . S
C428 C440 1.349 . S
C429 C427 1.327 . S
C429 C445 1.429 . S
C429 H451 0.950 . S
C430 H426 0.949 . S
C430 C438 1.574 . S
C430 C446 1.368 . S
H431 C439 0.950 . S
H432 C437 0.950 . S
H433 C438 0.949 . S
H434 C440 0.950 . S
H435 C441 0.950 . S
H436 C442 0.949 . S
C437 H432 0.950 . S
C437 C439 1.327 . S
C437 C443 1.429 . S
C438 C430 1.574 . S
C438 H433 0.949 . S
C438 C444 1.368 . S
C439 C423 1.349 . S
C439 H431 0.950 . S
C439 C437 1.327 . S
C440 C428 1.349 . S
C440 H434 0.950 . S
C440 C441 1.327 . S
C441 H435 0.950 . S
C441 C440 1.327 . S
C441 C445 1.429 . S
C442 C425 1.574 . S
C442 H436 0.949 . S
C442 C446 1.368 . S
C443 C424 1.429 . S
C443 C437 1.429 . S
C443 C444 1.523 . S
C444 C425 1.368 . S
C444 C438 1.368 . S
C444 C443 1.523 . S
C445 C429 1.429 . S
C445 C441 1.429 . S
C445 C446 1.523 . S
C446 C430 1.368 . S
C446 C442 1.368 . S
C446 C445 1.523 . S
H447 C422 0.950 . S
H448 C424 0.950 . S
H449 C425 0.949 . S
H450 C427 0.950 . S
H451 C429 0.950 . S
C452 C453 1.349 . S
C452 C454 1.327 . S
C452 H477 0.950 . S
C453 C452 1.349 . S
C453 C469 1.349 . S
C454 C452 1.327 . S
C454 C473 1.429 . S
C454 H478 0.950 . S
C455 C472 1.574 . S
C455 C474 1.368 . S
C455 H479 0.949 . S
H456 C460 0.949 . S
C457 C458 1.349 . S
C457 C459 1.327 . S
C457 H480 0.950 . S
C458 C457 1.349 . S
C458 C470 1.349 . S
C459 C457 1.327 . S
C459 C475 1.429 . S
C459 H481 0.950 . S
C460 H456 0.949 . S
C460 C468 1.574 . S
C460 C476 1.368 . S
H461 C469 0.950 . S
H462 C467 0.950 . S
H463 C468 0.949 . S
H464 C470 0.950 . S
H465 C471 0.950 . S
H466 C472 0.949 . S
C467 H462 0.950 . S
C467 C469 1.327 . S
C467 C473 1.429 . S
C468 C460 1.574 . S
C468 H463 0.949 . S
C468 C474 1.368 . S
C469 C453 1.349 . S
C469 H461 0.950 . S
C469 C467 1.327 . S
C470 C458 1.349 . S
C470 H464 0.950 . S
C470 C471 1.327 . S
C471 H465 0.950 . S
C471 C470 1.327 . S
C471 C475 1.429 . S
C472 C455 1.574 . S
C472 H466 0.949 . S
C472 C476 1.368 . S
C473 C454 1.429 . S
C473 C467 1.429 . S
C473 C474 1.523 . S
C474 C455 1.368 . S
C474 C468 1.368 . S
C474 C473 1.523 . S
C475 C459 1.429 . S
C475 C471 1.429 . S
C475 C476 1.523 . S
C476 C460 1.368 . S
C476 C472 1.368 . S
C476 C475 1.523 . S
H477 C452 0.950 . S
H478 C454 0.950 . S
H479 C455 0.949 . S
H480 C457 0.950 . S
H481 C459 0.950 . S
C482 C483 1.349 . S
C482 C484 1.327 . S
C482 H507 0.950 . S
C483 C482 1.349 . S
C483 C499 1.349 . S
C484 C482 1.327 . S
C484 C503 1.429 . S
C484 H508 0.950 . S
C485 C502 1.574 . S
C485 C504 1.368 . S
C485 H509 0.949 . S
H486 C490 0.949 . S
C487 C488 1.349 . S
C487 C489 1.327 . S
C487 H510 0.950 . S
C488 C487 1.349 . S
C488 C500 1.349 . S
C489 C487 1.327 . S
C489 C505 1.429 . S
C489 H511 0.950 . S
C490 H486 0.949 . S
C490 C498 1.574 . S
C490 C506 1.368 . S
H491 C499 0.950 . S
H492 C497 0.950 . S
H493 C498 0.949 . S
H494 C500 0.950 . S
H495 C501 0.950 . S
H496 C502 0.949 . S
C497 H492 0.950 . S
C497 C499 1.327 . S
C497 C503 1.429 . S
C498 C490 1.574 . S
C498 H493 0.949 . S
C498 C504 1.368 . S
C499 C483 1.349 . S
C499 H491 0.950 . S
C499 C497 1.327 . S
C500 C488 1.349 . S
C500 H494 0.950 . S
C500 C501 1.327 . S
C501 H495 0.950 . S
C501 C500 1.327 . S
C501 C505 1.429 . S
C502 C485 1.574 . S
C502 H496 0.949 . S
C502 C506 1.368 . S
C503 C484 1.429 . S
C503 C497 1.429 . S
C503 C504 1.523 . S
C504 C485 1.368 . S
C504 C498 1.368 . S
C504 C503 1.523 . S
C505 C489 1.429 . S
C505 C501 1.429 . S
C505 C506 1.523 . S
C506 C490 1.368 . S
C506 C502 1.368 . S
C506 C505 1.523 . S
H507 C482 0.950 . S
H508 C484 0.950 . S
H509 C485 0.949 . S
H510 C487 0.950 . S
H511 C489 0.950 . S
C512 C513 1.349 . S
C512 C514 1.327 . S
C512 H537 0.950 . S
C513 C512 1.349 . S
C513 C529 1.349 . S
C514 C512 1.327 . S
C514 C533 1.429 . S
C514 H538 0.950 . S
C515 C532 1.574 1_554 S
C515 C534 1.368 . S
C515 H539 0.949 . S
H516 C520 0.949 . S
C517 C518 1.349 . S
C517 C519 1.327 . S
C517 H540 0.950 . S
C518 C517 1.349 . S
C518 C530 1.349 . S
C519 C517 1.327 . S
C519 C535 1.429 . S
C519 H541 0.950 . S
C520 H516 0.949 . S
C520 C528 1.574 1_556 S
C520 C536 1.368 . S
H521 C529 0.950 . S
H522 C527 0.950 . S
H523 C528 0.949 . S
H524 C530 0.950 . S
H525 C531 0.950 . S
H526 C532 0.949 . S
C527 H522 0.950 . S
C527 C529 1.327 . S
C527 C533 1.429 . S
C528 C520 1.574 1_554 S
C528 H523 0.949 . S
C528 C534 1.368 1_655 S
C529 C513 1.349 . S
C529 H521 0.950 . S
C529 C527 1.327 . S
C530 C518 1.349 . S
C530 H524 0.950 . S
C530 C531 1.327 . S
C531 H525 0.950 . S
C531 C530 1.327 . S
C531 C535 1.429 . S
C532 C515 1.574 1_556 S
C532 H526 0.949 . S
C532 C536 1.368 1_455 S
C533 C514 1.429 . S
C533 C527 1.429 . S
C533 C534 1.523 . S
C534 C515 1.368 . S
C534 C528 1.368 1_455 S
C534 C533 1.523 . S
C535 C519 1.429 . S
C535 C531 1.429 . S
C535 C536 1.523 . S
C536 C520 1.368 . S
C536 C532 1.368 1_655 S
C536 C535 1.523 . S
H537 C512 0.950 . S
H538 C514 0.950 . S
H539 C515 0.949 . S
H540 C517 0.950 . S
H541 C519 0.950 . S
C542 C543 1.349 . S
C542 C544 1.327 . S
C542 H567 0.950 . S
C543 C542 1.349 . S
C543 C559 1.349 . S
C544 C542 1.327 . S
C544 C563 1.429 . S
C544 H568 0.950 1_565 S
C545 C562 1.574 . S
C545 C564 1.368 . S
C545 H569 0.949 . S
H546 C550 0.949 . S
C547 C548 1.349 . S
C547 C549 1.327 . S
C547 H570 0.950 . S
C548 C547 1.349 . S
C548 C560 1.349 . S
C549 C547 1.327 . S
C549 C565 1.429 . S
C549 H571 0.950 1_545 S
C550 H546 0.949 . S
C550 C558 1.574 . S
C550 C566 1.368 . S
H551 C559 0.950 . S
H552 C557 0.950 . S
H553 C558 0.949 . S
H554 C560 0.950 . S
H555 C561 0.950 . S
H556 C562 0.949 . S
C557 H552 0.950 . S
C557 C559 1.327 . S
C557 C563 1.429 . S
C558 C550 1.574 . S
C558 H553 0.949 . S
C558 C564 1.368 1_545 S
C559 C543 1.349 . S
C559 H551 0.950 . S
C559 C557 1.327 . S
C560 C548 1.349 . S
C560 H554 0.950 . S
C560 C561 1.327 . S
C561 H555 0.950 . S
C561 C560 1.327 . S
C561 C565 1.429 . S
C562 C545 1.574 . S
C562 H556 0.949 . S
C562 C566 1.368 1_565 S
C563 C544 1.429 . S
C563 C557 1.429 . S
C563 C564 1.523 . S
C564 C545 1.368 . S
C564 C558 1.368 1_565 S
C564 C563 1.523 . S
C565 C549 1.429 . S
C565 C561 1.429 . S
C565 C566 1.523 . S
C566 C550 1.368 . S
C566 C562 1.368 1_545 S
C566 C565 1.523 . S
H567 C542 0.950 . S
H568 C544 0.950 1_545 S
H569 C545 0.949 . S
H570 C547 0.950 . S
H571 C549 0.950 1_565 S
C572 C573 1.349 . S
C572 C574 1.327 . S
C572 H597 0.950 . S
C573 C572 1.349 . S
C573 C589 1.349 . S
C574 C572 1.327 . S
C574 C593 1.429 . S
C574 H598 0.950 . S
C575 C592 1.574 . S
C575 C594 1.368 . S
C575 H599 0.949 . S
H576 C580 0.949 . S
C577 C578 1.349 . S
C577 C579 1.327 . S
C577 H600 0.950 . S
C578 C577 1.349 . S
C578 C590 1.349 . S
C579 C577 1.327 . S
C579 C595 1.429 . S
C579 H601 0.950 . S
C580 H576 0.949 . S
C580 C588 1.574 . S
C580 C596 1.368 . S
H581 C589 0.950 . S
H582 C587 0.950 . S
H583 C588 0.949 . S
H584 C590 0.950 . S
H585 C591 0.950 . S
H586 C592 0.949 . S
C587 H582 0.950 . S
C587 C589 1.327 . S
C587 C593 1.429 . S
C588 C580 1.574 . S
C588 H583 0.949 . S
C588 C594 1.368 1_455 S
C589 C573 1.349 . S
C589 H581 0.950 . S
C589 C587 1.327 . S
C590 C578 1.349 . S
C590 H584 0.950 . S
C590 C591 1.327 . S
C591 H585 0.950 . S
C591 C590 1.327 . S
C591 C595 1.429 . S
C592 C575 1.574 . S
C592 H586 0.949 . S
C592 C596 1.368 1_655 S
C593 C574 1.429 . S
C593 C587 1.429 . S
C593 C594 1.523 . S
C594 C575 1.368 . S
C594 C588 1.368 1_655 S
C594 C593 1.523 . S
C595 C579 1.429 . S
C595 C591 1.429 . S
C595 C596 1.523 . S
C596 C580 1.368 . S
C596 C592 1.368 1_455 S
C596 C595 1.523 . S
H597 C572 0.950 . S
H598 C574 0.950 . S
H599 C575 0.949 . S
H600 C577 0.950 . S
H601 C579 0.950 . S
C602 C603 1.349 . S
C602 C604 1.327 . S
C602 H627 0.950 . S
C603 C602 1.349 . S
C603 C619 1.349 . S
C604 C602 1.327 . S
C604 C623 1.429 . S
C604 H628 0.950 . S
C605 C622 1.574 . S
C605 C624 1.368 1_565 S
C605 H629 0.949 . S
H606 C610 0.949 . S
C607 C608 1.349 . S
C607 C609 1.327 . S
C607 H630 0.950 . S
C608 C607 1.349 . S
C608 C620 1.349 . S
C609 C607 1.327 . S
C609 C625 1.429 . S
C609 H631 0.950 . S
C610 H606 0.949 . S
C610 C618 1.574 . S
C610 C626 1.368 1_545 S
H611 C619 0.950 . S
H612 C617 0.950 1_565 S
H613 C618 0.949 . S
H614 C620 0.950 . S
H615 C621 0.950 1_545 S
H616 C622 0.949 . S
C617 H612 0.950 1_545 S
C617 C619 1.327 . S
C617 C623 1.429 . S
C618 C610 1.574 . S
C618 H613 0.949 . S
C618 C624 1.368 . S
C619 C603 1.349 . S
C619 H611 0.950 . S
C619 C617 1.327 . S
C620 C608 1.349 . S
C620 H614 0.950 . S
C620 C621 1.327 . S
C621 H615 0.950 1_565 S
C621 C620 1.327 . S
C621 C625 1.429 . S
C622 C605 1.574 . S
C622 H616 0.949 . S
C622 C626 1.368 . S
C623 C604 1.429 . S
C623 C617 1.429 . S
C623 C624 1.523 . S
C624 C605 1.368 1_545 S
C624 C618 1.368 . S
C624 C623 1.523 . S
C625 C609 1.429 . S
C625 C621 1.429 . S
C625 C626 1.523 . S
C626 C610 1.368 1_565 S
C626 C622 1.368 . S
C626 C625 1.523 . S
H627 C602 0.950 . S
H628 C604 0.950 . S
H629 C605 0.949 . S
H630 C607 0.950 . S
H631 C609 0.950 . S
C632 C633 1.349 . S
C632 C634 1.327 . S
C632 H657 0.950 . S
C633 C632 1.349 . S
C633 C649 1.349 . S
C634 C632 1.327 . S
C634 C653 1.429 . S
C634 H658 0.950 . S
C635 C652 1.574 . S
C635 C654 1.368 . S
C635 H659 0.949 . S
H636 C640 0.949 . S
C637 C638 1.349 . S
C637 C639 1.327 1_565 S
C637 H660 0.950 . S
C638 C637 1.349 . S
C638 C650 1.349 1_565 S
C639 C637 1.327 1_545 S
C639 C655 1.429 . S
C639 H661 0.950 1_545 S
C640 H636 0.949 . S
C640 C648 1.574 . S
C640 C656 1.368 . S
H641 C649 0.950 . S
H642 C647 0.950 . S
H643 C648 0.949 . S
H644 C650 0.950 1_556 S
H645 C651 0.950 . S
H646 C652 0.949 . S
C647 H642 0.950 . S
C647 C649 1.327 . S
C647 C653 1.429 . S
C648 C640 1.574 . S
C648 H643 0.949 . S
C648 C654 1.368 . S
C649 C633 1.349 . S
C649 H641 0.950 . S
C649 C647 1.327 . S
C650 C638 1.349 1_545 S
C650 H644 0.950 1_554 S
C650 C651 1.327 . S
C651 H645 0.950 . S
C651 C650 1.327 . S
C651 C655 1.429 . S
C652 C635 1.574 . S
C652 H646 0.949 . S
C652 C656 1.368 . S
C653 C634 1.429 . S
C653 C647 1.429 . S
C653 C654 1.523 . S
C654 C635 1.368 . S
C654 C648 1.368 . S
C654 C653 1.523 . S
C655 C639 1.429 . S
C655 C651 1.429 . S
C655 C656 1.523 . S
C656 C640 1.368 . S
C656 C652 1.368 . S
C656 C655 1.523 . S
H657 C632 0.950 . S
H658 C634 0.950 . S
H659 C635 0.949 . S
H660 C637 0.950 . S
H661 C639 0.950 1_565 S
C662 C663 1.349 1_655 S
C662 C664 1.327 . S
C662 H687 0.950 . S
C663 C662 1.349 1_455 S
C663 C679 1.349 . S
C664 C662 1.327 . S
C664 C683 1.429 . S
C664 H688 0.950 . S
C665 C682 1.574 . S
C665 C684 1.368 . S
C665 H689 0.949 . S
H666 C670 0.949 . S
C667 C668 1.349 . S
C667 C669 1.327 . S
C667 H690 0.950 . S
C668 C667 1.349 . S
C668 C680 1.349 . S
C669 C667 1.327 . S
C669 C685 1.429 . S
C669 H691 0.950 . S
C670 H666 0.949 . S
C670 C678 1.574 . S
C670 C686 1.368 . S
H671 C679 0.950 . S
H672 C677 0.950 . S
H673 C678 0.949 . S
H674 C680 0.950 . S
H675 C681 0.950 . S
H676 C682 0.949 . S
C677 H672 0.950 . S
C677 C679 1.327 1_655 S
C677 C683 1.429 . S
C678 C670 1.574 . S
C678 H673 0.949 . S
C678 C684 1.368 . S
C679 C663 1.349 . S
C679 H671 0.950 . S
C679 C677 1.327 1_455 S
C680 C668 1.349 . S
C680 H674 0.950 . S
C680 C681 1.327 . S
C681 H675 0.950 . S
C681 C680 1.327 . S
C681 C685 1.429 . S
C682 C665 1.574 . S
C682 H676 0.949 . S
C682 C686 1.368 . S
C683 C664 1.429 . S
C683 C677 1.429 . S
C683 C684 1.523 . S
C684 C665 1.368 . S
C684 C678 1.368 . S
C684 C683 1.523 . S
C685 C669 1.429 . S
C685 C681 1.429 . S
C685 C686 1.523 . S
C686 C670 1.368 . S
C686 C682 1.368 . S
C686 C685 1.523 . S
H687 C662 0.950 . S
H688 C664 0.950 . S
H689 C665 0.949 . S
H690 C667 0.950 . S
H691 C669 0.950 . S
C692 C693 1.349 1_565 S
C692 C694 1.327 . S
C692 H717 0.950 . S
C693 C692 1.349 1_545 S
C693 C709 1.349 . S
C694 C692 1.327 . S
C694 C713 1.429 . S
C694 H718 0.950 . S
C695 C712 1.574 . S
C695 C714 1.368 . S
C695 H719 0.949 . S
H696 C700 0.949 . S
C697 C698 1.349 . S
C697 C699 1.327 . S
C697 H720 0.950 . S
C698 C697 1.349 . S
C698 C710 1.349 . S
C699 C697 1.327 . S
C699 C715 1.429 . S
C699 H721 0.950 . S
C700 H696 0.949 . S
C700 C708 1.574 . S
C700 C716 1.368 . S
H701 C709 0.950 . S
H702 C707 0.950 . S
H703 C708 0.949 . S
H704 C710 0.950 . S
H705 C711 0.950 . S
H706 C712 0.949 . S
C707 H702 0.950 . S
C707 C709 1.327 1_565 S
C707 C713 1.429 . S
C708 C700 1.574 . S
C708 H703 0.949 . S
C708 C714 1.368 . S
C709 C693 1.349 . S
C709 H701 0.950 . S
C709 C707 1.327 1_545 S
C710 C698 1.349 . S
C710 H704 0.950 . S
C710 C711 1.327 . S
C711 H705 0.950 . S
C711 C710 1.327 . S
C711 C715 1.429 . S
C712 C695 1.574 . S
C712 H706 0.949 . S
C712 C716 1.368 . S
C713 C694 1.429 . S
C713 C707 1.429 . S
C713 C714 1.523 . S
C714 C695 1.368 . S
C714 C708 1.368 . S
C714 C713 1.523 . S
C715 C699 1.429 . S
C715 C711 1.429 . S
C715 C716 1.523 . S
C716 C700 1.368 . S
C716 C712 1.368 . S
C716 C715 1.523 . S
H717 C692 0.950 . S
H718 C694 0.950 . S
H719 C695 0.949 . S
H720 C697 0.950 . S
H721 C699 0.950 . S
C722 C723 1.349 . S
C722 C724 1.327 1_655 S
C722 H747 0.950 . S
C723 C722 1.349 . S
C723 C739 1.349 1_655 S
C724 C722 1.327 1_455 S
C724 C743 1.429 . S
C724 H748 0.950 . S
C725 C742 1.574 . S
C725 C744 1.368 . S
C725 H749 0.949 . S
H726 C730 0.949 . S
C727 C728 1.349 . S
C727 C729 1.327 . S
C727 H750 0.950 . S
C728 C727 1.349 . S
C728 C740 1.349 . S
C729 C727 1.327 . S
C729 C745 1.429 . S
C729 H751 0.950 . S
C730 H726 0.949 . S
C730 C738 1.574 . S
C730 C746 1.368 . S
H731 C739 0.950 . S
H732 C737 0.950 . S
H733 C738 0.949 . S
H734 C740 0.950 . S
H735 C741 0.950 . S
H736 C742 0.949 . S
C737 H732 0.950 . S
C737 C739 1.327 . S
C737 C743 1.429 . S
C738 C730 1.574 . S
C738 H733 0.949 . S
C738 C744 1.368 . S
C739 C723 1.349 1_455 S
C739 H731 0.950 . S
C739 C737 1.327 . S
C740 C728 1.349 . S
C740 H734 0.950 . S
C740 C741 1.327 . S
C741 H735 0.950 . S
C741 C740 1.327 . S
C741 C745 1.429 . S
C742 C725 1.574 . S
C742 H736 0.949 . S
C742 C746 1.368 . S
C743 C724 1.429 . S
C743 C737 1.429 . S
C743 C744 1.523 . S
C744 C725 1.368 . S
C744 C738 1.368 . S
C744 C743 1.523 . S
C745 C729 1.429 . S
C745 C741 1.429 . S
C745 C746 1.523 . S
C746 C730 1.368 . S
C746 C742 1.368 . S
C746 C745 1.523 . S
H747 C722 0.950 . S
H748 C724 0.950 . S
H749 C725 0.949 . S
H750 C727 0.950 . S
H751 C729 0.950 . S
C752 C753 1.349 . S
C752 C754 1.327 . S
C752 H777 0.950 . S
C753 C752 1.349 . S
C753 C769 1.349 . S
C754 C752 1.327 . S
C754 C773 1.429 . S
C754 H778 0.950 . S
C755 C772 1.574 . S
C755 C774 1.368 . S
C755 H779 0.949 . S
H756 C760 0.949 . S
C757 C758 1.349 1_565 S
C757 C759 1.327 . S
C757 H780 0.950 . S
C758 C757 1.349 1_545 S
C758 C770 1.349 . S
C759 C757 1.327 . S
C759 C775 1.429 . S
C759 H781 0.950 . S
C760 H756 0.949 . S
C760 C768 1.574 . S
C760 C776 1.368 . S
H761 C769 0.950 . S
H762 C767 0.950 . S
H763 C768 0.949 . S
H764 C770 0.950 . S
H765 C771 0.945 1_545 S
H766 C772 0.949 . S
C767 H762 0.950 . S
C767 C769 1.327 . S
C767 C773 1.429 . S
C768 C760 1.574 . S
C768 H763 0.949 . S
C768 C774 1.368 . S
C769 C753 1.349 . S
C769 H761 0.950 . S
C769 C767 1.327 . S
C770 C758 1.349 . S
C770 H764 0.950 . S
C770 C771 1.327 1_545 S
C771 H765 0.945 1_565 S
C771 C770 1.327 1_565 S
C771 C775 1.429 . S
C772 C755 1.574 . S
C772 H766 0.949 . S
C772 C776 1.368 . S
C773 C754 1.429 . S
C773 C767 1.429 . S
C773 C774 1.523 . S
C774 C755 1.368 . S
C774 C768 1.368 . S
C774 C773 1.523 . S
C775 C759 1.429 . S
C775 C771 1.429 . S
C775 C776 1.523 . S
C776 C760 1.368 . S
C776 C772 1.368 . S
C776 C775 1.523 . S
H777 C752 0.950 . S
H778 C754 0.950 . S
H779 C755 0.949 . S
H780 C757 0.950 . S
H781 C759 0.950 . S
C782 C783 1.349 . S
C782 C784 1.327 . S
C782 H807 0.950 . S
C783 C782 1.349 . S
C783 C799 1.349 . S
C784 C782 1.327 . S
C784 C803 1.429 . S
C784 H808 0.950 . S
C785 C802 1.574 . S
C785 C804 1.368 . S
C785 H809 0.949 . S
H786 C790 0.949 . S
C787 C788 1.349 . S
C787 C789 1.327 1_655 S
C787 H810 0.950 . S
C788 C787 1.349 . S
C788 C800 1.349 1_655 S
C789 C787 1.327 1_455 S
C789 C805 1.429 . S
C789 H811 0.950 . S
C790 H786 0.949 . S
C790 C798 1.574 . S
C790 C806 1.368 . S
H791 C799 0.950 . S
H792 C797 0.950 . S
H793 C798 0.949 . S
H794 C800 0.950 1_655 S
H795 C801 0.950 . S
H796 C802 0.949 . S
C797 H792 0.950 . S
C797 C799 1.327 . S
C797 C803 1.429 . S
C798 C790 1.574 . S
C798 H793 0.949 . S
C798 C804 1.368 . S
C799 C783 1.349 . S
C799 H791 0.950 . S
C799 C797 1.327 . S
C800 C788 1.349 1_455 S
C800 H794 0.950 1_455 S
C800 C801 1.327 . S
C801 H795 0.950 . S
C801 C800 1.327 . S
C801 C805 1.429 . S
C802 C785 1.574 . S
C802 H796 0.949 . S
C802 C806 1.368 . S
C803 C784 1.429 . S
C803 C797 1.429 . S
C803 C804 1.523 . S
C804 C785 1.368 . S
C804 C798 1.368 . S
C804 C803 1.523 . S
C805 C789 1.429 . S
C805 C801 1.429 . S
C805 C806 1.523 . S
C806 C790 1.368 . S
C806 C802 1.368 . S
C806 C805 1.523 . S
H807 C782 0.950 . S
H808 C784 0.950 . S
H809 C785 0.949 . S
H810 C787 0.950 . S
H811 C789 0.950 . S
C812 C813 1.349 . S
C812 C814 1.327 . S
C812 H837 0.950 . S
C813 C812 1.349 . S
C813 C829 1.349 . S
C814 C812 1.327 . S
C814 C833 1.429 . S
C814 H838 0.950 . S
C815 C832 1.574 . S
C815 C834 1.368 . S
C815 H839 0.949 . S
H816 C820 0.949 . S
C817 C818 1.349 1_545 S
C817 C819 1.327 . S
C817 H840 0.950 1_556 S
C818 C817 1.349 1_565 S
C818 C830 1.349 . S
C819 C817 1.327 . S
C819 C835 1.429 . S
C819 H841 0.950 . S
C820 H816 0.949 . S
C820 C828 1.574 . S
C820 C836 1.368 . S
H821 C829 0.950 . S
H822 C827 0.950 . S
H823 C828 0.949 . S
H824 C830 0.950 . S
H825 C831 0.943 1_565 S
H826 C832 0.949 . S
C827 H822 0.950 . S
C827 C829 1.327 . S
C827 C833 1.429 . S
C828 C820 1.574 . S
C828 H823 0.949 . S
C828 C834 1.368 . S
C829 C813 1.349 . S
C829 H821 0.950 . S
C829 C827 1.327 . S
C830 C818 1.349 . S
C830 H824 0.950 . S
C830 C831 1.327 1_565 S
C831 H825 0.943 1_545 S
C831 C830 1.327 1_545 S
C831 C835 1.429 . S
C832 C815 1.574 . S
C832 H826 0.949 . S
C832 C836 1.368 . S
C833 C814 1.429 . S
C833 C827 1.429 . S
C833 C834 1.523 . S
C834 C815 1.368 . S
C834 C828 1.368 . S
C834 C833 1.523 . S
C835 C819 1.429 . S
C835 C831 1.429 . S
C835 C836 1.523 . S
C836 C820 1.368 . S
C836 C832 1.368 . S
C836 C835 1.523 . S
H837 C812 0.950 . S
H838 C814 0.950 . S
H839 C815 0.949 . S
H840 C817 0.950 1_554 S
H841 C819 0.950 . S
C842 C843 1.349 . S
C842 C844 1.327 1_455 S
C842 H867 0.950 . S
C843 C842 1.349 . S
C843 C859 1.349 1_455 S
C844 C842 1.327 1_655 S
C844 C863 1.429 . S
C844 H868 0.954 . S
C845 C862 1.574 . S
C845 C864 1.368 . S
C845 H869 0.949 . S
H846 C850 0.949 . S
C847 C848 1.349 . S
C847 C849 1.327 . S
C847 H870 0.950 . S
C848 C847 1.349 . S
C848 C860 1.349 . S
C849 C847 1.327 . S
C849 C865 1.429 . S
C849 H871 0.950 . S
C850 H846 0.949 . S
C850 C858 1.574 . S
C850 C866 1.368 . S
H851 C859 0.950 . S
H852 C857 0.950 . S
H853 C858 0.949 . S
H854 C860 0.950 . S
H855 C861 0.950 . S
H856 C862 0.949 . S
C857 H852 0.950 . S
C857 C859 1.327 . S
C857 C863 1.429 . S
C858 C850 1.574 . S
C858 H853 0.949 . S
C858 C864 1.368 . S
C859 C843 1.349 1_655 S
C859 H851 0.950 . S
C859 C857 1.327 . S
C860 C848 1.349 . S
C860 H854 0.950 . S
C860 C861 1.327 . S
C861 H855 0.950 . S
C861 C860 1.327 . S
C861 C865 1.429 . S
C862 C845 1.574 . S
C862 H856 0.949 . S
C862 C866 1.368 . S
C863 C844 1.429 . S
C863 C857 1.429 . S
C863 C864 1.523 . S
C864 C845 1.368 . S
C864 C858 1.368 . S
C864 C863 1.523 . S
C865 C849 1.429 . S
C865 C861 1.429 . S
C865 C866 1.523 . S
C866 C850 1.368 . S
C866 C862 1.368 . S
C866 C865 1.523 . S
H867 C842 0.950 . S
H868 C844 0.954 . S
H869 C845 0.949 . S
H870 C847 0.950 . S
H871 C849 0.950 . S
C273 C138 0.993 . S
C278 C2 0.993 . S
C303 C36 0.993 . S
C308 C172 0.993 . S
C333 C70 0.993 . S
C338 C206 0.993 . S
C363 C104 0.993 . S
C368 C240 0.993 . S
C393 C175 0.635 . S
C398 C5 0.635 . S
C423 C39 0.635 . S
C428 C209 0.635 . S
C453 C243 0.635 . S
C458 C73 0.635 . S
C483 C107 0.635 . S
C488 C141 0.635 . S
C513 C9 0.692 . S
C518 C213 0.692 . S
C543 C247 0.692 . S
C548 C43 0.692 . S
C573 C77 0.692 . S
C578 C145 0.692 . S
C603 C179 0.692 . S
C608 C111 0.692 . S
C633 C20 2.422 . S
C638 C135 2.424 1_554 S
C663 C33 2.424 . S
C668 C54 2.422 . S
C693 C67 2.424 . S
C698 C88 2.422 . S
C723 C101 2.424 . S
C728 C122 2.422 . S
C753 C156 2.422 . S
C758 C203 2.424 . S
C783 C190 2.422 . S
C788 C237 2.424 . S
C813 C224 2.422 . S
C818 C271 2.424 1_556 S
C843 C169 2.424 . S
C848 C258 2.422 . S
