# Generated by pormake.
# Topology ung, (4)-cn, num edge types: 1
# Building blocks:
#     Node 0, Type 0, BuildingBlock: MUDLON_clean_sbu_0, # of connection points: 4
#     Node 1, Type 0, BuildingBlock: MUDLON_clean_sbu_0, # of connection points: 4
#     Node 2, Type 0, BuildingBlock: MUDLON_clean_sbu_0, # of connection points: 4
#     Node 3, Type 0, BuildingBlock: MUDLON_clean_sbu_0, # of connection points: 4
#     Node 4, Type 0, BuildingBlock: MUDLON_clean_sbu_0, # of connection points: 4
#     Node 5, Type 0, BuildingBlock: MUDLON_clean_sbu_0, # of connection points: 4
#     Node 6, Type 0, BuildingBlock: MUDLON_clean_sbu_0, # of connection points: 4
#     Node 7, Type 0, BuildingBlock: MUDLON_clean_sbu_0, # of connection points: 4
#     Node 8, Type 0, BuildingBlock: MUDLON_clean_sbu_0, # of connection points: 4
#     Node 9, Type 0, BuildingBlock: MUDLON_clean_sbu_0, # of connection points: 4
#     Node 10, Type 0, BuildingBlock: MUDLON_clean_sbu_0, # of connection points: 4
#     Node 11, Type 0, BuildingBlock: MUDLON_clean_sbu_0, # of connection points: 4
#     Node 12, Type 0, BuildingBlock: MUDLON_clean_sbu_0, # of connection points: 4
#     Node 13, Type 0, BuildingBlock: MUDLON_clean_sbu_0, # of connection points: 4
#     Node 14, Type 0, BuildingBlock: MUDLON_clean_sbu_0, # of connection points: 4
#     Node 15, Type 0, BuildingBlock: MUDLON_clean_sbu_0, # of connection points: 4
#     Node 16, Type 0, BuildingBlock: MUDLON_clean_sbu_0, # of connection points: 4
#     Node 17, Type 0, BuildingBlock: MUDLON_clean_sbu_0, # of connection points: 4
#     Edge 18, Type (0, 0), BuildingBlock: KIFKEQ_clean_linker_1, # of connection points: 2
#     Edge 19, Type (0, 0), BuildingBlock: KIFKEQ_clean_linker_1, # of connection points: 2
#     Edge 20, Type (0, 0), BuildingBlock: KIFKEQ_clean_linker_1, # of connection points: 2
#     Edge 21, Type (0, 0), BuildingBlock: KIFKEQ_clean_linker_1, # of connection points: 2
#     Edge 22, Type (0, 0), BuildingBlock: KIFKEQ_clean_linker_1, # of connection points: 2
#     Edge 23, Type (0, 0), BuildingBlock: KIFKEQ_clean_linker_1, # of connection points: 2
#     Edge 24, Type (0, 0), BuildingBlock: KIFKEQ_clean_linker_1, # of connection points: 2
#     Edge 25, Type (0, 0), BuildingBlock: KIFKEQ_clean_linker_1, # of connection points: 2
#     Edge 26, Type (0, 0), BuildingBlock: KIFKEQ_clean_linker_1, # of connection points: 2
#     Edge 27, Type (0, 0), BuildingBlock: KIFKEQ_clean_linker_1, # of connection points: 2
#     Edge 28, Type (0, 0), BuildingBlock: KIFKEQ_clean_linker_1, # of connection points: 2
#     Edge 29, Type (0, 0), BuildingBlock: KIFKEQ_clean_linker_1, # of connection points: 2
#     Edge 30, Type (0, 0), BuildingBlock: KIFKEQ_clean_linker_1, # of connection points: 2
#     Edge 31, Type (0, 0), BuildingBlock: KIFKEQ_clean_linker_1, # of connection points: 2
#     Edge 32, Type (0, 0), BuildingBlock: KIFKEQ_clean_linker_1, # of connection points: 2
#     Edge 33, Type (0, 0), BuildingBlock: KIFKEQ_clean_linker_1, # of connection points: 2
#     Edge 34, Type (0, 0), BuildingBlock: KIFKEQ_clean_linker_1, # of connection points: 2
#     Edge 35, Type (0, 0), BuildingBlock: KIFKEQ_clean_linker_1, # of connection points: 2
#     Edge 36, Type (0, 0), BuildingBlock: KIFKEQ_clean_linker_1, # of connection points: 2
#     Edge 37, Type (0, 0), BuildingBlock: KIFKEQ_clean_linker_1, # of connection points: 2
#     Edge 38, Type (0, 0), BuildingBlock: KIFKEQ_clean_linker_1, # of connection points: 2
#     Edge 39, Type (0, 0), BuildingBlock: KIFKEQ_clean_linker_1, # of connection points: 2
#     Edge 40, Type (0, 0), BuildingBlock: KIFKEQ_clean_linker_1, # of connection points: 2
#     Edge 41, Type (0, 0), BuildingBlock: KIFKEQ_clean_linker_1, # of connection points: 2
#     Edge 42, Type (0, 0), BuildingBlock: KIFKEQ_clean_linker_1, # of connection points: 2
#     Edge 43, Type (0, 0), BuildingBlock: KIFKEQ_clean_linker_1, # of connection points: 2
#     Edge 44, Type (0, 0), BuildingBlock: KIFKEQ_clean_linker_1, # of connection points: 2
#     Edge 45, Type (0, 0), BuildingBlock: KIFKEQ_clean_linker_1, # of connection points: 2
#     Edge 46, Type (0, 0), BuildingBlock: KIFKEQ_clean_linker_1, # of connection points: 2
#     Edge 47, Type (0, 0), BuildingBlock: KIFKEQ_clean_linker_1, # of connection points: 2
#     Edge 48, Type (0, 0), BuildingBlock: KIFKEQ_clean_linker_1, # of connection points: 2
#     Edge 49, Type (0, 0), BuildingBlock: KIFKEQ_clean_linker_1, # of connection points: 2
#     Edge 50, Type (0, 0), BuildingBlock: KIFKEQ_clean_linker_1, # of connection points: 2
#     Edge 51, Type (0, 0), BuildingBlock: KIFKEQ_clean_linker_1, # of connection points: 2
#     Edge 52, Type (0, 0), BuildingBlock: KIFKEQ_clean_linker_1, # of connection points: 2
#     Edge 53, Type (0, 0), BuildingBlock: KIFKEQ_clean_linker_1, # of connection points: 2
# Relax obj value: 0.034
# Max RMSD: 0.246
# Mean RMSD: 0.245
data_MOF--net-ung--node1-MUDLON_clean_sbu_0--edge1-KIFKEQ_clean_linker_1
_symmetry_space_group_name_H-M    P1
_symmetry_Int_Tables_number       1
_symmetry_cell_setting            triclinic
loop_
_symmetry_equiv_pos_as_xyz
'x, y, z'
_cell_length_a     77.916607
_cell_length_b     78.808099
_cell_length_c     23.637136
_cell_angle_alpha  89.648529
_cell_angle_beta   90.535296
_cell_angle_gamma 121.06849
loop_
_atom_site_label
_atom_site_type_symbol
_atom_site_fract_x
_atom_site_fract_y
_atom_site_fract_z
_atom_type_partial_charge
Mg0 Mg 0.04442 0.64853 0.26849 0.0
C1 C 0.05666 0.63289 0.36254 0.0
O2 O 0.07345 0.64668 0.33955 0.0
C3 C 1.01021 0.64493 0.19527 0.0
O4 O 1.01498 0.63421 0.1644 0.0
C5 C 0.04004 0.61717 0.19371 0.0
O6 O 0.0263 0.60806 0.23268 0.0
O7 O 0.05177 0.63585 0.19767 0.0
O8 O 0.04013 0.6294 0.34082 0.0
O9 O 0.06701 0.678 0.29866 0.0
C10 C 0.06177 0.68122 0.34637 0.0
O11 O 0.04466 0.66736 0.36773 0.0
O12 O 1.01901 0.65153 0.24272 0.0
Mg13 Mg 0.48416 0.5133 0.27728 0.0
C14 C 0.45143 0.49549 0.35607 0.0
O15 O 0.46289 0.48819 0.36767 0.0
C16 C 0.51521 0.5412 0.2006 0.0
O17 O 0.524 0.53384 0.23132 0.0
C18 C 0.47181 0.4837 0.18811 0.0
O19 O 0.47002 0.49804 0.16591 0.0
O20 O 0.47829 0.48568 0.23874 0.0
O21 O 0.45632 0.50762 0.31503 0.0
O22 O 0.5055 0.52523 0.34702 0.0
C23 C 0.51042 0.54294 0.35856 0.0
O24 O 0.50285 0.55143 0.32749 0.0
O25 O 0.49702 0.53556 0.21078 0.0
Mg26 Mg 0.61627 0.08144 0.27178 0.0
C27 C 0.59955 0.09282 0.17852 0.0
O28 O 0.61247 0.10951 0.20356 0.0
C29 C 0.62836 0.05989 0.34672 0.0
O30 O 0.63238 0.07591 0.37469 0.0
C31 C 0.58773 0.07069 0.36388 0.0
O32 O 0.5828 0.05381 0.33951 0.0
O33 O 0.60233 0.0866 0.34383 0.0
O34 O 0.59702 0.07667 0.19874 0.0
O35 O 0.64577 0.10552 0.24638 0.0
C36 C 0.65061 0.10251 0.19779 0.0
O37 O 0.63796 0.08611 0.17097 0.0
O38 O 0.62063 0.05728 0.29746 0.0
Mg39 Mg 0.0538 0.52206 0.76991 0.0
C40 C 0.06527 0.55946 0.70261 0.0
O41 O 0.06655 0.56674 0.75337 0.0
C42 C 0.06801 0.50141 0.83753 0.0
O43 O 0.04912 0.4943 0.85045 0.0
C44 C 0.03442 0.53886 0.85003 0.0
O45 O 0.02025 0.53331 0.81152 0.0
O46 O 0.04834 0.53523 0.84277 0.0
O47 O 0.06177 0.54189 0.69774 0.0
O48 O 0.02963 0.49369 0.73836 0.0
C49 C 0.03651 0.4875 0.70023 0.0
O50 O 0.05548 0.49872 0.68656 0.0
O51 O 0.07596 0.51516 0.80071 0.0
Mg52 Mg 0.61954 0.64984 0.77851 0.0
C53 C 0.59632 0.61933 0.6946 0.0
O54 O 0.60718 0.61328 0.72074 0.0
C55 C 0.63131 0.68279 0.85763 0.0
O56 O 0.63377 0.66998 0.88699 0.0
C57 C 0.59104 0.62895 0.8692 0.0
O58 O 0.58477 0.63987 0.84504 0.0
O59 O 0.60664 0.62976 0.84985 0.0
O60 O 0.5979 0.6355 0.71033 0.0
O61 O 0.64807 0.65472 0.74753 0.0
C62 C 0.65091 0.6579 0.69458 0.0
O63 O 0.63674 0.65766 0.66341 0.0
O64 O 0.6248 0.67842 0.80699 0.0
Mg65 Mg 0.48532 0.08483 0.7679 0.0
C66 C 0.52427 0.09928 0.83688 0.0
O67 O 0.53314 0.10529 0.78765 0.0
C68 C 0.47551 0.1072 0.68674 0.0
O69 O 0.47404 0.09257 0.65647 0.0
C70 C 0.50721 0.06849 0.69942 0.0
O71 O 0.50839 0.06104 0.74817 0.0
O72 O 0.49778 0.07766 0.69636 0.0
O73 O 0.50544 0.09179 0.83991 0.0
O74 O 0.45629 0.06109 0.79767 0.0
C75 C 0.45266 0.06295 0.84897 0.0
O76 O 0.46642 0.07813 0.87807 0.0
O77 O 0.48077 0.10854 0.73849 0.0
Mg78 Mg 0.71609 0.98216 0.60329 0.0
C79 C 0.72236 0.95755 0.68423 0.0
O80 O 0.73852 0.96563 0.65278 0.0
C81 C 0.69228 0.98915 0.5176 0.0
O82 O 0.70689 0.99023 0.48742 0.0
C83 C 0.71346 0.95251 0.52483 0.0
O84 O 0.69744 0.94296 0.55653 0.0
O85 O 0.72573 0.97077 0.53483 0.0
O86 O 0.70877 0.96149 0.67315 0.0
O87 O 0.7379 1.01098 0.63814 0.0
C88 C 0.73123 0.01447 0.68278 0.0
O89 O 0.71338 1.00085 0.70058 0.0
O90 O 0.69149 0.98505 0.57007 0.0
Mg91 Mg 0.15088 0.85218 0.59713 0.0
C92 C 0.11002 0.84889 0.63184 0.0
O93 O 0.10735 0.85211 0.57879 0.0
C94 C 0.15926 0.86722 0.4768 0.0
O95 O 0.14853 0.84812 0.46661 0.0
C96 C 0.12485 0.81182 0.55032 0.0
O97 O 0.11232 0.81796 0.5591 0.0
O98 O 0.14318 0.82317 0.56395 0.0
O99 O 0.12574 0.84881 0.64623 0.0
O100 O 0.17538 0.86492 0.65793 0.0
C101 C 0.17171 0.8605 0.70999 0.0
O102 O 0.15371 0.84625 0.72464 0.0
O103 O 0.1613 0.87325 0.52758 0.0
Mg104 Mg 0.28321 0.41423 0.6049 0.0
C105 C 0.25169 0.40853 0.68349 0.0
O106 O 0.24288 0.39261 0.6516 0.0
C107 C 0.32835 0.44233 0.59633 0.0
O108 O 0.3283 0.43322 0.64311 0.0
C109 C 0.25789 0.41963 0.52366 0.0
O110 O 0.26448 0.43485 0.55793 0.0
O111 O 0.26304 0.40695 0.53314 0.0
O112 O 0.26989 0.42157 0.67376 0.0
O113 O 0.28769 0.39047 0.63415 0.0
C114 C 0.29027 0.38961 0.68713 0.0
O115 O 0.2892 0.4023 0.72048 0.0
O116 O 0.31173 0.43825 0.57419 0.0
Mg117 Mg 0.72194 0.85177 0.10676 0.0
C118 C 0.72879 0.88013 0.19594 0.0
O119 O 0.74656 0.88682 0.17373 0.0
C120 C 0.70046 0.81888 0.02599 0.0
O121 O 0.71607 0.83217 0.99735 0.0
C122 C 0.71374 0.87197 1.01621 0.0
O123 O 0.6962 0.85997 0.03902 0.0
O124 O 0.72907 0.87223 0.03648 0.0
O125 O 0.71396 0.86437 0.17581 0.0
O126 O 0.74604 0.84783 0.13863 0.0
C127 C 0.74363 0.84139 0.18925 0.0
O128 O 0.7277 0.83832 0.21683 0.0
O129 O 0.69825 0.82291 0.07651 0.0
Mg130 Mg 0.28256 0.98502 0.09735 0.0
C131 C 0.24877 0.95698 0.16674 0.0
O132 O 0.24075 0.96213 0.12603 0.0
C133 C 0.31595 0.9961 1.02083 0.0
O134 O 0.30279 0.99807 0.99086 0.0
C135 C 0.26071 0.9529 1.01812 0.0
O136 O 0.26955 0.94695 0.05395 0.0
O137 O 0.26324 0.97007 0.02468 0.0
O138 O 0.26768 0.96445 0.16718 0.0
O139 O 0.28718 0.01387 0.1216 0.0
C140 C 0.28239 0.01616 0.17116 0.0
O141 O 0.27303 1.00065 0.20444 0.0
O142 O 0.31173 0.99021 0.07188 0.0
Mg143 Mg 0.1499 0.41676 0.10131 0.0
C144 C 0.17335 0.41086 0.18557 0.0
O145 O 0.16162 0.39349 0.16202 0.0
C146 C 0.13169 0.43211 0.02598 0.0
O147 O 0.12504 0.41378 1.01008 0.0
C148 C 0.17562 0.42288 1.00547 0.0
O149 O 0.1813 0.44076 0.02368 0.0
O150 O 0.1613 0.40809 0.03065 0.0
O151 O 0.17246 0.42564 0.16742 0.0
O152 O 0.12225 0.39356 0.13972 0.0
C153 C 0.11994 0.39756 0.19018 0.0
O154 O 0.13381 0.41444 0.21236 0.0
O155 O 0.14378 0.43893 0.06778 0.0
Mg156 Mg 0.3807 0.31293 0.93952 0.0
C157 C 0.37718 0.29859 0.06052 0.0
O158 O 0.38468 0.31751 0.07078 0.0
C159 C 0.35984 0.32388 0.85592 0.0
O160 O 0.37672 0.32845 0.83107 0.0
C161 C 0.37413 0.28489 0.84993 0.0
O162 O 0.35621 0.27874 0.87025 0.0
O163 O 0.38906 0.30023 0.87153 0.0
O164 O 0.37282 0.29239 1.00985 0.0
O165 O 0.40402 0.34222 0.96893 0.0
C166 C 0.3977 0.35348 0.98429 0.0
O167 O 0.37848 0.34701 0.97948 0.0
O168 O 0.35639 0.31604 0.90491 0.0
Mg169 Mg 0.81671 0.18472 0.93329 0.0
C170 C 0.78615 0.1769 1.01967 0.0
O171 O 0.80036 0.17664 0.04933 0.0
C172 C 0.84363 0.20393 0.83795 0.0
O173 O 0.84908 0.19192 0.85895 0.0
C174 C 0.79429 0.14786 0.87173 0.0
O175 O 0.78512 0.15767 0.86192 0.0
O176 O 0.80966 0.15569 0.90388 0.0
O177 O 0.78891 0.18079 0.96701 0.0
O178 O 0.83881 0.19826 1.00055 0.0
C179 C 0.84461 0.21641 1.00834 0.0
O180 O 0.83772 0.22485 0.97441 0.0
O181 O 0.82912 0.20432 0.86084 0.0
Mg182 Mg 0.9527 0.7512 0.93778 0.0
C183 C 0.93639 0.74323 0.81846 0.0
O184 O 0.95553 0.75117 0.80745 0.0
C185 C 0.94951 0.71175 0.97862 0.0
O186 O 0.93205 0.70246 0.95264 0.0
C187 C 0.92298 0.74423 0.02337 0.0
O188 O 0.91633 0.72678 1.00025 0.0
O189 O 0.93915 0.75894 1.00487 0.0
O190 O 0.93068 0.73991 0.86965 0.0
O191 O 0.97998 0.77614 0.90265 0.0
C192 C 0.99507 0.77415 0.89708 0.0
O193 O 0.99403 0.75801 0.91668 0.0
O194 O 0.96009 0.73055 0.97648 0.0
Mg195 Mg 0.38171 0.1812 0.43799 0.0
C196 C 0.37646 0.2094 0.36986 0.0
O197 O 0.36198 0.20262 0.40715 0.0
C198 C 0.40451 0.17129 0.51746 0.0
O199 O 0.38895 0.16837 0.54669 0.0
C200 C 0.38786 0.21043 0.5237 0.0
O201 O 0.40408 0.2193 0.49258 0.0
O202 O 0.37427 0.19281 0.51104 0.0
O203 O 0.38857 0.2031 0.37161 0.0
O204 O 0.35782 0.15249 0.4065 0.0
C205 C 0.35333 0.15071 0.35403 0.0
O206 O 0.36229 0.16645 0.32144 0.0
O207 O 0.40624 0.1774 0.46661 0.0
Mg208 Mg 0.95114 0.32148 0.43359 0.0
C209 C 0.9295 0.29354 0.34484 0.0
O210 O 0.94111 0.288 0.36888 0.0
C211 C 0.96668 0.35337 0.51572 0.0
O212 O 0.97122 0.34055 0.5356 0.0
C213 C 0.9204 0.29402 0.51119 0.0
O214 O 0.91154 0.3011 0.47966 0.0
O215 O 0.93866 0.29979 0.50145 0.0
O216 O 0.92983 0.30875 0.36416 0.0
O217 O 0.97883 0.32686 0.39566 0.0
C218 C 0.99397 0.3275 0.41854 0.0
O219 O 0.99389 0.32409 0.47303 0.0
O220 O 0.95692 0.34939 0.46936 0.0
Mg221 Mg 0.81887 0.74986 0.43919 0.0
C222 C 0.84621 0.74296 0.50857 0.0
O223 O 0.8401 0.72954 0.46849 0.0
C224 C 0.81059 0.77383 0.36071 0.0
O225 O 0.80779 0.75869 0.33035 0.0
C226 C 0.84888 0.75578 0.35533 0.0
O227 O 0.85824 0.7713 0.3886 0.0
O228 O 0.83076 0.74275 0.36615 0.0
O229 O 0.83972 0.75485 0.50838 0.0
O230 O 0.7889 0.72685 0.46502 0.0
C231 C 0.7859 0.71727 0.51104 0.0
O232 O 0.80136 0.72 0.54121 0.0
O233 O 0.81618 0.77495 0.41209 0.0
H234 H 1.00489 0.54458 0.89046 0.0
H235 H 0.06589 0.55971 0.92247 0.0
H236 H 1.00667 0.56412 0.97287 0.0
H237 H 0.06763 0.57925 1.00426 0.0
H238 H 0.06824 0.62931 0.10977 0.0
H239 H 0.06691 0.61069 0.02541 0.0
H240 H 1.01 0.56144 0.07931 0.0
H241 H 1.01132 0.57979 0.16327 0.0
C242 C 1.01865 0.55206 0.91497 0.0
C243 C 0.03519 0.55049 0.90005 0.0
C244 C 0.01966 0.5632 0.96218 0.0
C245 C 0.03732 0.57323 0.99486 0.0
C246 C 0.05391 0.57184 0.97955 0.0
C247 C 0.05282 0.5605 0.93293 0.0
C248 C 0.05551 0.61449 0.10363 0.0
C249 C 0.03994 0.60603 0.14331 0.0
C250 C 0.05475 0.60383 0.05546 0.0
C251 C 0.03828 0.58466 0.0457 0.0
C252 C 0.02275 0.57626 0.08536 0.0
C253 C 0.02363 0.58676 0.13372 0.0
H254 H 0.56058 0.62816 0.92714 0.0
H255 H 0.59664 0.60107 0.922 0.0
H256 H 0.54243 0.6076 1.00781 0.0
H257 H 0.578 0.57997 1.00181 0.0
H258 H 0.55522 0.55992 0.18016 0.0
H259 H 0.57352 0.58129 0.10099 0.0
H260 H 0.51844 0.57432 0.03387 0.0
H261 H 0.5002 0.55335 0.11441 0.0
C262 C 0.56456 0.6177 0.94302 0.0
C263 C 0.58009 0.61627 0.91817 0.0
C264 C 0.55404 0.60581 0.98913 0.0
C265 C 0.55868 0.59207 1.01139 0.0
C266 C 0.57421 0.59059 0.98636 0.0
C267 C 0.58484 0.60261 0.94039 0.0
C268 C 0.547 0.563 0.14865 0.0
C269 C 0.52624 0.55492 0.15354 0.0
C270 C 0.5575 0.57516 0.10295 0.0
C271 C 0.54748 0.57943 0.06067 0.0
C272 C 0.52671 0.57153 0.06594 0.0
C273 C 0.51621 0.55946 0.11201 0.0
H274 H 0.56657 0.06186 0.12672 0.0
H275 H 0.60803 0.12498 0.11459 0.0
H276 H 0.54848 0.06349 0.04341 0.0
H277 H 0.59006 0.12653 0.03185 0.0
H278 H 0.56492 0.11667 0.84949 0.0
H279 H 0.58324 0.11453 0.93109 0.0
H280 H 0.52747 0.07876 1.01939 0.0
H281 H 0.50914 0.0809 0.93818 0.0
C282 C 0.57185 0.07603 0.10622 0.0
C283 C 0.58868 0.09329 0.12737 0.0
C284 C 0.56146 0.07698 0.05877 0.0
C285 C 0.56787 0.09515 0.03117 0.0
C286 C 0.58486 0.1123 0.05189 0.0
C287 C 0.59507 0.1114 0.09956 0.0
C288 C 0.55658 0.10845 0.88641 0.0
C289 C 0.53559 0.09903 0.88734 0.0
C290 C 0.56707 0.10723 0.93313 0.0
C291 C 0.55676 0.09638 0.98147 0.0
C292 C 0.53579 0.08701 0.98246 0.0
C293 C 0.52533 0.08842 0.93608 0.0
H294 H 0.5891 0.10252 0.4156 0.0
H295 H 0.56077 0.03884 0.42542 0.0
H296 H 0.56964 0.10189 0.49727 0.0
H297 H 0.54145 0.03826 0.50647 0.0
H298 H 0.52699 0.04837 0.68752 0.0
H299 H 0.54707 0.04937 0.60731 0.0
H300 H 0.53337 0.08917 0.51922 0.0
H301 H 0.51333 0.08821 0.59914 0.0
C302 C 0.57879 0.08843 0.43521 0.0
C303 C 0.57646 0.07074 0.41393 0.0
C304 C 0.56758 0.08805 0.48173 0.0
C305 C 0.55402 0.07001 0.50824 0.0
C306 C 0.55191 0.0524 0.48732 0.0
C307 C 0.56292 0.05275 0.4406 0.0
C308 C 0.52817 0.05724 0.65095 0.0
C309 C 0.51851 0.06815 0.64974 0.0
C310 C 0.53965 0.0578 0.60499 0.0
C311 C 0.54187 0.06943 0.5571 0.0
C312 C 0.53215 0.08028 0.55582 0.0
C313 C 0.52052 0.07957 0.60146 0.0
H314 H 0.08841 0.64409 0.43316 0.0
H315 H 0.0269 0.59749 0.40616 0.0
H316 H 0.09068 0.62642 0.51507 0.0
H317 H 0.02931 0.57965 0.48844 0.0
H318 H 0.05216 0.54511 0.59588 0.0
H319 H 0.04942 0.5628 0.51431 0.0
H320 H 0.07502 0.61643 0.61311 0.0
H321 H 0.07761 0.59876 0.69498 0.0
C322 C 0.07534 0.63005 0.44473 0.0
C323 C 0.05746 0.62215 0.41313 0.0
C324 C 0.07665 0.62 0.49184 0.0
C325 C 0.0602 0.60167 0.50804 0.0
C326 C 0.04227 0.59371 0.47656 0.0
C327 C 0.04085 0.60395 0.42977 0.0
C328 C 0.05736 0.56071 0.60013 0.0
C329 C 0.06517 0.57056 0.6519 0.0
C330 C 0.0556 0.57077 0.55356 0.0
C331 C 0.0619 0.59094 0.55752 0.0
C332 C 0.0701 0.60089 0.60885 0.0
C333 C 0.07158 0.59077 0.65568 0.0
H334 H 0.56814 0.62427 0.63901 0.0
H335 H 0.59537 0.58843 0.64063 0.0
H336 H 0.54718 0.60525 0.55884 0.0
H337 H 0.57506 0.56996 0.55948 0.0
H338 H 0.52189 0.52817 0.44702 0.0
H339 H 0.542 0.54626 0.52961 0.0
H340 H 0.54929 0.60054 0.46081 0.0
H341 H 0.5287 0.58239 0.3798 0.0
C342 C 0.56972 0.6124 0.62208 0.0
C343 C 0.5834 0.60786 0.64621 0.0
C344 C 0.5578 0.60156 0.57588 0.0
C345 C 0.55944 0.58606 0.55243 0.0
C346 C 0.57312 0.58154 0.57685 0.0
C347 C 0.58488 0.59225 0.62327 0.0
C348 C 0.52788 0.54398 0.44957 0.0
C349 C 0.52365 0.55382 0.40703 0.0
C350 C 0.53946 0.55438 0.49681 0.0
C351 C 0.54719 0.57489 0.50219 0.0
C352 C 0.54323 0.58472 0.45888 0.0
C353 C 0.53154 0.57431 0.4121 0.0
H354 H 0.75839 0.91122 0.25502 0.0
H355 H 0.69401 0.87316 0.24532 0.0
H356 H 0.755 0.92869 0.33447 0.0
H357 H 0.69056 0.89109 0.32394 0.0
H358 H 0.69245 0.91296 0.50277 0.0
H359 H 0.69623 0.89564 0.42366 0.0
H360 H 0.74437 0.95126 0.35882 0.0
H361 H 0.74095 0.96856 0.43929 0.0
C362 C 0.74347 0.90666 0.2696 0.0
C363 C 0.72645 0.89076 0.24388 0.0
C364 C 0.74154 0.91679 0.315 0.0
C365 C 0.72252 0.91136 0.33567 0.0
C366 C 0.70546 0.8955 0.3097 0.0
C367 C 0.70742 0.88527 0.26442 0.0
C368 C 0.7039 0.92152 0.47175 0.0
C369 C 0.71642 0.94216 0.47733 0.0
C370 C 0.70596 0.91158 0.42607 0.0
C371 C 0.72051 0.92203 0.38454 0.0
C372 C 0.73315 0.94269 0.39035 0.0
C373 C 0.73117 0.95264 0.43636 0.0
H374 H 0.19007 0.90573 0.48676 0.0
H375 H 0.15597 0.85995 0.36331 0.0
H376 H 0.21198 0.92735 0.41181 0.0
H377 H 0.17789 0.88155 0.28867 0.0
H378 H 0.20815 0.93422 0.16569 0.0
H379 H 0.18622 0.91312 0.24072 0.0
H380 H 0.23781 0.9281 0.34556 0.0
H381 H 0.25995 0.94944 0.27009 0.0
C382 C 0.1871 0.90035 0.44361 0.0
C383 C 0.17124 0.88112 0.43098 0.0
C384 C 0.19979 0.91266 0.40083 0.0
C385 C 0.19673 0.90608 0.34449 0.0
C386 C 0.18056 0.88707 0.33168 0.0
C387 C 0.16801 0.87469 0.37446 0.0
C388 C 0.21488 0.93301 0.20464 0.0
C389 C 0.2358 0.94351 0.21196 0.0
C390 C 0.20228 0.92084 0.24753 0.0
C391 C 0.21029 0.91898 0.29902 0.0
C392 C 0.23123 0.92941 0.30646 0.0
C393 C 0.24389 0.94148 0.26316 0.0
H394 H 0.24062 0.44147 0.50131 0.0
H395 H 0.24708 0.39428 0.43359 0.0
H396 H 0.22071 0.43959 0.41915 0.0
H397 H 0.22767 0.39282 0.35021 0.0
H398 H 0.17413 0.38087 0.24064 0.0
H399 H 0.19447 0.38296 0.32165 0.0
H400 H 0.22295 0.44676 0.32025 0.0
H401 H 0.20195 0.44457 0.23985 0.0
C402 C 0.23787 0.43074 0.46869 0.0
C403 C 0.2454 0.41798 0.47403 0.0
C404 C 0.22658 0.42978 0.42128 0.0
C405 C 0.22264 0.41613 0.37778 0.0
C406 C 0.23017 0.40334 0.3832 0.0
C407 C 0.24136 0.4042 0.43092 0.0
C408 C 0.18476 0.39538 0.25742 0.0
C409 C 0.1864 0.41257 0.23379 0.0
C410 C 0.19655 0.39658 0.30378 0.0
C411 C 0.21042 0.41502 0.32755 0.0
C412 C 0.21221 0.43227 0.30354 0.0
C413 C 0.20028 0.43106 0.25726 0.0
H414 H 0.17129 0.3884 0.96384 0.0
H415 H 0.20408 0.45182 0.93874 0.0
H416 H 0.18992 0.38491 0.88674 0.0
H417 H 0.22222 0.44831 0.86111 0.0
H418 H 0.26602 0.43741 0.76486 0.0
H419 H 0.24755 0.4404 0.84313 0.0
H420 H 0.19356 0.38787 0.78554 0.0
H421 H 0.2121 0.38459 0.70842 0.0
C422 C 0.18235 0.40156 0.94163 0.0
C423 C 0.18623 0.42038 0.95754 0.0
C424 C 0.19298 0.39957 0.89729 0.0
C425 C 0.20765 0.41635 0.8678 0.0
C426 C 0.21132 0.43511 0.8835 0.0
C427 C 0.20078 0.4371 0.92784 0.0
C428 C 0.25021 0.42652 0.76892 0.0
C429 C 0.24055 0.41078 0.7304 0.0
C430 C 0.23959 0.42827 0.81364 0.0
C431 C 0.21904 0.41436 0.82069 0.0
C432 C 0.20941 0.39866 0.78198 0.0
C433 C 0.22004 0.39687 0.73747 0.0
H434 H 0.74767 0.90202 0.96655 0.0
H435 H 0.68304 0.8704 0.95577 0.0
H436 H 0.74961 0.92292 0.88723 0.0
H437 H 0.68494 0.89073 0.87565 0.0
H438 H 0.69467 0.94344 0.76943 0.0
H439 H 0.69296 0.92329 0.85049 0.0
H440 H 0.74418 0.92196 0.78765 0.0
H441 H 0.74625 0.94256 0.70799 0.0
C442 C 0.73389 0.89945 0.94704 0.0
C443 C 0.71522 0.88458 0.96756 0.0
C444 C 0.73498 0.91136 0.90136 0.0
C445 C 0.71741 0.90855 0.87492 0.0
C446 C 0.69877 0.89358 0.89547 0.0
C447 C 0.69769 0.88181 0.94128 0.0
C448 C 0.70552 0.93879 0.77295 0.0
C449 C 0.7206 0.94463 0.73233 0.0
C450 C 0.70451 0.92717 0.8193 0.0
C451 C 0.71848 0.92101 0.82582 0.0
C452 C 0.73341 0.92672 0.78472 0.0
C453 C 0.7345 0.93843 0.73871 0.0
H454 H 0.24508 0.96162 0.92534 0.0
H455 H 0.24781 0.9138 1.0067 0.0
H456 H 0.22443 0.93899 0.84943 0.0
H457 H 0.22734 0.89141 0.9313 0.0
H458 H 0.1701 0.85354 0.82363 0.0
H459 H 0.19194 0.87612 0.89725 0.0
H460 H 0.22777 0.91926 0.76996 0.0
H461 H 0.20593 0.89666 0.69604 0.0
C462 C 0.24127 0.94633 0.92706 0.0
C463 C 0.24806 0.93952 0.97204 0.0
C464 C 0.22959 0.93342 0.88348 0.0
C465 C 0.22429 0.91343 0.88451 0.0
C466 C 0.23104 0.90667 0.9296 0.0
C467 C 0.24284 0.91956 0.97268 0.0
C468 C 0.18276 0.86773 0.81124 0.0
C469 C 0.18628 0.87327 0.75396 0.0
C470 C 0.19527 0.88067 0.85343 0.0
C471 C 0.21148 0.89951 0.83935 0.0
C472 C 0.21525 0.90492 0.78205 0.0
C473 C 0.20285 0.89189 0.73976 0.0
H474 H 0.34455 0.25527 0.78688 0.0
H475 H 0.40895 0.28989 0.806 0.0
H476 H 0.34791 0.23728 0.70892 0.0
H477 H 0.41233 0.27136 0.72888 0.0
H478 H 0.35934 0.19545 0.60672 0.0
H479 H 0.35653 0.21319 0.68701 0.0
H480 H 0.40853 0.26731 0.62893 0.0
H481 H 0.4117 0.24948 0.55014 0.0
C482 C 0.35946 0.25895 0.77471 0.0
C483 C 0.3765 0.27404 0.80265 0.0
C484 C 0.36137 0.24851 0.73016 0.0
C485 C 0.38038 0.25277 0.7126 0.0
C486 C 0.39745 0.26785 0.74073 0.0
C487 C 0.39554 0.27842 0.78513 0.0
C488 C 0.37016 0.21112 0.61121 0.0
C489 C 0.38573 0.22103 0.57209 0.0
C490 C 0.36852 0.22134 0.65709 0.0
C491 C 0.38232 0.24172 0.66458 0.0
C492 C 0.39785 0.25158 0.62521 0.0
C493 C 0.39957 0.24135 0.5797 0.0
H494 H 0.87294 0.2039 0.77596 0.0
H495 H 0.83938 0.23341 0.79052 0.0
H496 H 0.89143 0.22527 0.69686 0.0
H497 H 0.85831 0.25522 0.71215 0.0
H498 H 0.88061 0.2765 0.53368 0.0
H499 H 0.86211 0.25465 0.6118 0.0
H500 H 0.91649 0.2589 0.67445 0.0
H501 H 0.93497 0.28044 0.59499 0.0
C502 C 0.86956 0.21502 0.76243 0.0
C503 C 0.85464 0.21692 0.7895 0.0
C504 C 0.88029 0.22738 0.71726 0.0
C505 C 0.87643 0.24201 0.69811 0.0
C506 C 0.86149 0.24392 0.72525 0.0
C507 C 0.85068 0.23148 0.77035 0.0
C508 C 0.88865 0.27275 0.56399 0.0
C509 C 0.90929 0.28023 0.55811 0.0
C510 C 0.87804 0.26031 0.6091 0.0
C511 C 0.8878 0.2551 0.64973 0.0
C512 C 0.90844 0.26244 0.64359 0.0
C513 C 0.91906 0.27484 0.59818 0.0
H514 H 0.89833 0.73634 0.82918 0.0
H515 H 0.94274 0.74604 0.70449 0.0
H516 H 0.87657 0.7365 0.75428 0.0
H517 H 0.92099 0.7462 0.62986 0.0
H518 H 0.86701 0.72392 0.50903 0.0
H519 H 0.88813 0.723 0.58401 0.0
H520 H 0.87703 0.7616 0.68585 0.0
H521 H 0.8557 0.76251 0.61046 0.0
C522 C 0.90336 0.73828 0.78578 0.0
C523 C 0.92227 0.74116 0.77279 0.0
C524 C 0.89098 0.73857 0.743 0.0
C525 C 0.89714 0.74151 0.68629 0.0
C526 C 0.91579 0.74381 0.67315 0.0
C527 C 0.92825 0.74373 0.71594 0.0
C528 C 0.86908 0.73227 0.54732 0.0
C529 C 0.85967 0.7433 0.55379 0.0
C530 C 0.88126 0.73179 0.59018 0.0
C531 C 0.88421 0.74218 0.64083 0.0
C532 C 0.87485 0.75327 0.64743 0.0
C533 C 0.86279 0.75393 0.60416 0.0
H534 H 0.83282 0.72967 0.26693 0.0
H535 H 0.88875 0.77778 0.3325 0.0
H536 H 0.85035 0.72745 0.18489 0.0
H537 H 0.90635 0.77515 0.25185 0.0
H538 H 0.92964 0.77833 0.0743 0.0
H539 H 0.91115 0.78123 0.15278 0.0
H540 H 0.87323 0.71744 0.15903 0.0
H541 H 0.89119 0.71463 0.07971 0.0
C542 C 0.84887 0.73965 0.26404 0.0
C543 C 0.85938 0.75389 0.30617 0.0
C544 C 0.85895 0.73835 0.21713 0.0
C545 C 0.8798 0.75115 0.2116 0.0
C546 C 0.89027 0.7653 0.25405 0.0
C547 C 0.88017 0.7667 0.3006 0.0
C548 C 0.91731 0.76496 0.09238 0.0
C549 C 0.9119 0.74627 0.07076 0.0
C550 C 0.90677 0.76659 0.13757 0.0
C551 C 0.89068 0.74955 0.16239 0.0
C552 C 0.88529 0.7309 0.14048 0.0
C553 C 0.89571 0.72929 0.09514 0.0
H554 H 0.39729 0.21927 0.2701 0.0
H555 H 0.35808 0.23078 0.36923 0.0
H556 H 0.39727 0.24087 0.19504 0.0
H557 H 0.35809 0.25222 0.29463 0.0
H558 H 0.38141 0.3058 0.17418 0.0
H559 H 0.38212 0.28475 0.2492 0.0
H560 H 0.37176 0.24023 0.12572 0.0
H561 H 0.37102 0.26125 0.05049 0.0
C562 C 0.38881 0.22651 0.27603 0.0
C563 C 0.37768 0.22331 0.32551 0.0
C564 C 0.38868 0.23873 0.23296 0.0
C565 C 0.37763 0.24817 0.23897 0.0
C566 C 0.36685 0.24526 0.28895 0.0
C567 C 0.36679 0.2329 0.33157 0.0
C568 C 0.37914 0.29147 0.16302 0.0
C569 C 0.3761 0.28519 0.10638 0.0
C570 C 0.37954 0.27942 0.20601 0.0
C571 C 0.37712 0.2609 0.19324 0.0
C572 C 0.37392 0.25454 0.13669 0.0
C573 C 0.3733 0.2665 0.09373 0.0
H574 H 0.92952 0.26352 0.28887 0.0
H575 H 0.90089 0.29809 0.28983 0.0
H576 H 0.90938 0.24508 0.20763 0.0
H577 H 0.88016 0.27911 0.20904 0.0
H578 H 0.86232 0.25597 0.02848 0.0
H579 H 0.88259 0.27453 0.10973 0.0
H580 H 0.87596 0.22076 0.18043 0.0
H581 H 0.85611 0.20228 0.09811 0.0
C582 C 0.91879 0.2671 0.27199 0.0
C583 C 0.91682 0.28231 0.29583 0.0
C584 C 0.90713 0.25639 0.22552 0.0
C585 C 0.89308 0.26052 0.20179 0.0
C586 C 0.89103 0.2757 0.22579 0.0
C587 C 0.90282 0.28652 0.27226 0.0
C588 C 0.86525 0.24811 0.06124 0.0
C589 C 0.85764 0.22765 0.05678 0.0
C590 C 0.87675 0.25874 0.10811 0.0
C591 C 0.88083 0.24916 0.15187 0.0
C592 C 0.87332 0.22868 0.1472 0.0
C593 C 0.8619 0.21806 0.10007 0.0
H594 H 0.09522 0.71605 0.31102 0.0
H595 H 0.05576 0.68895 0.45348 0.0
H596 H 0.11257 0.74774 0.36224 0.0
H597 H 0.07301 0.72016 0.50393 0.0
H598 H 0.08617 0.7827 0.53461 0.0
H599 H 0.07326 0.75141 0.48576 0.0
H600 H 0.13361 0.76542 0.45273 0.0
H601 H 0.14677 0.79722 0.50208 0.0
C602 C 0.09042 0.71677 0.35332 0.0
C603 C 0.07389 0.70006 0.37774 0.0
C604 C 0.10039 0.73486 0.38269 0.0
C605 C 0.09394 0.73647 0.43676 0.0
C606 C 0.07808 0.71949 0.46194 0.0
C607 C 0.0682 0.70157 0.43288 0.0
C608 C 0.09678 0.77918 0.51725 0.0
C609 C 0.11752 0.79244 0.52251 0.0
C610 C 0.08935 0.76117 0.48938 0.0
C611 C 0.10242 0.7559 0.46569 0.0
C612 C 0.12321 0.76914 0.47047 0.0
C613 C 0.13071 0.78723 0.49905 0.0
H614 H 0.42534 0.50931 0.35107 0.0
H615 H 0.43732 0.46871 0.44184 0.0
H616 H 0.39649 0.49978 0.4122 0.0
H617 H 0.40857 0.45897 0.50134 0.0
H618 H 0.36658 0.45523 0.63237 0.0
H619 H 0.39696 0.47081 0.57591 0.0
H620 H 0.36315 0.47175 0.43124 0.0
H621 H 0.33287 0.45673 0.48822 0.0
C622 C 0.4218 0.49834 0.38386 0.0
C623 C 0.43366 0.4898 0.39158 0.0
C624 C 0.40527 0.49286 0.41881 0.0
C625 C 0.40031 0.47875 0.46217 0.0
C626 C 0.41218 0.47022 0.46942 0.0
C627 C 0.42862 0.47569 0.43477 0.0
C628 C 0.36567 0.45906 0.58879 0.0
C629 C 0.34724 0.4545 0.56469 0.0
C630 C 0.38308 0.46787 0.55625 0.0
C631 C 0.38245 0.47219 0.49865 0.0
C632 C 0.36423 0.4687 0.47545 0.0
C633 C 0.34683 0.46 0.50814 0.0
H634 H 0.69017 0.99772 0.40678 0.0
H635 H 0.6636 0.99385 0.56957 0.0
H636 H 0.67134 1.01158 0.36573 0.0
H637 H 0.64431 1.00737 0.52796 0.0
H638 H 0.64146 0.06045 0.45403 0.0
H639 H 0.65328 0.03995 0.49464 0.0
H640 H 0.63903 1.00693 0.33861 0.0
H641 H 0.62746 0.02789 0.29721 0.0
C642 C 0.68004 0.9995 0.43368 0.0
C643 C 0.67861 0.99491 0.4917 0.0
C644 C 0.66909 1.00732 0.40992 0.0
C645 C 0.65641 1.01076 0.44357 0.0
C646 C 0.65419 1.0052 0.50102 0.0
C647 C 0.66515 0.99735 0.52483 0.0
C648 C 0.64066 0.04872 0.42835 0.0
C649 C 0.6337 0.04595 0.3721 0.0
C650 C 0.64728 0.03681 0.45195 0.0
C651 C 0.64714 0.02177 0.41997 0.0
C652 C 0.63954 0.01852 0.36422 0.0
C653 C 0.63283 0.03046 0.34057 0.0
H654 H 0.66247 0.10113 0.09104 0.0
H655 H 0.68283 0.13579 0.24446 0.0
H656 H 0.69497 0.12237 0.04854 0.0
H657 H 0.71556 0.15747 0.20113 0.0
H658 H 0.77675 0.16916 0.13129 0.0
H659 H 0.74383 0.15419 0.17408 0.0
H660 H 0.71819 0.15517 1.01213 0.0
H661 H 0.75122 0.16983 0.96882 0.0
C662 C 0.67384 0.11344 0.11559 0.0
C663 C 0.6701 0.11664 0.17143 0.0
C664 C 0.69247 0.12578 0.09088 0.0
C665 C 0.70791 0.14166 0.12131 0.0
C666 C 0.70403 0.14524 0.1767 0.0
C667 C 0.68528 0.13288 0.20147 0.0
C668 C 0.76416 0.16643 0.10482 0.0
C669 C 0.76659 0.17046 0.04643 0.0
C670 C 0.74526 0.15797 0.12955 0.0
C671 C 0.72831 0.15331 0.09651 0.0
C672 C 0.7309 0.1583 0.03862 0.0
C673 C 0.74985 0.1668 1.01384 0.0
H674 H 0.98343 0.72702 0.0435 0.0
H675 H 0.9317 0.67144 0.99174 0.0
H676 H 0.99526 0.70925 0.10041 0.0
H677 H 0.94356 0.65359 0.04947 0.0
H678 H 0.98792 0.6322 0.09808 0.0
H679 H 0.97143 0.64722 0.04885 0.0
H680 H 0.98709 0.68872 0.18611 0.0
H681 H 1.00386 0.67385 0.23524 0.0
C682 C 0.97452 0.71099 0.04435 0.0
C683 C 0.95663 0.70067 1.01281 0.0
C684 C 0.98123 0.7008 0.0775 0.0
C685 C 0.97029 0.68 0.07988 0.0
C686 C 0.95238 0.66962 0.04834 0.0
C687 C 0.94558 0.67986 1.01532 0.0
C688 C 0.9876 0.64434 0.11826 0.0
C689 C 0.9974 0.65194 0.17039 0.0
C690 C 0.97805 0.65289 0.09007 0.0
C691 C 0.97814 0.66932 0.1132 0.0
C692 C 0.98705 0.67628 0.16672 0.0
C693 C 0.99651 0.66765 0.19509 0.0
H694 H 0.39047 0.3834 0.99546 0.0
H695 H 0.43504 0.36782 0.03241 0.0
H696 H 0.41094 0.41498 0.04284 0.0
H697 H 0.45573 0.3998 0.08054 0.0
H698 H 0.46812 0.44851 0.2233 0.0
H699 H 0.45258 0.41719 0.1706 0.0
H700 H 0.44412 0.4461 0.02659 0.0
H701 H 0.45943 0.47708 0.07848 0.0
C702 C 0.40474 0.38678 1.01342 0.0
C703 C 0.41116 0.37313 1.01004 0.0
C704 C 0.41651 0.40494 0.0404 0.0
C705 C 0.43497 0.4099 0.06521 0.0
C706 C 0.44153 0.39631 0.06189 0.0
C707 C 0.42978 0.37812 0.03403 0.0
C708 C 0.4632 0.4482 0.18012 0.0
C709 C 0.46475 0.46522 0.15543 0.0
C710 C 0.45439 0.43031 0.14993 0.0
C711 C 0.44693 0.42918 0.09477 0.0
C712 C 0.44944 0.44645 0.06933 0.0
C713 C 0.45825 0.46423 0.09919 0.0
H714 H 0.95706 0.38211 0.49652 0.0
H715 H 0.99363 0.36798 0.60213 0.0
H716 H 0.97186 0.41458 0.54323 0.0
H717 H 1.00836 0.40019 0.64737 0.0
H718 H 0.05008 0.46822 0.63767 0.0
H719 H 0.031 0.43567 0.59463 0.0
H720 H 0.97611 0.42934 0.65667 0.0
H721 H 0.99539 0.46226 0.70132 0.0
C722 C 0.96809 0.38583 0.52981 0.0
C723 C 0.97427 0.37251 0.5453 0.0
C724 C 0.97642 0.40431 0.55667 0.0
C725 C 0.99124 0.4098 0.59867 0.0
C726 C 0.99699 0.3963 0.61498 0.0
C727 C 0.98852 0.37785 0.58895 0.0
C728 C 0.03394 0.46004 0.6422 0.0
C729 C 0.02426 0.46782 0.67322 0.0
C730 C 0.02305 0.44136 0.61752 0.0
C731 C 1.00215 0.43006 0.6225 0.0
C732 C 0.99224 0.43789 0.65218 0.0
C733 C 1.00326 0.45661 0.67788 0.0
H734 H 0.68742 0.67127 0.74598 0.0
H735 H 0.65787 0.65635 0.58288 0.0
H736 H 0.71963 0.68341 0.69978 0.0
H737 H 0.68977 0.66768 0.53687 0.0
H738 H 0.75153 0.71464 0.47139 0.0
H739 H 0.71883 0.69821 0.51579 0.0
H740 H 0.74092 0.67594 0.64753 0.0
H741 H 0.77394 0.69305 0.60398 0.0
C742 C 0.68777 0.67024 0.70037 0.0
C743 C 0.67015 0.66308 0.66804 0.0
C744 C 0.70622 0.67711 0.6738 0.0
C745 C 0.7074 0.67675 0.61438 0.0
C746 C 0.68956 0.66867 0.58251 0.0
C747 C 0.67122 0.66205 0.60896 0.0
C748 C 0.74938 0.70605 0.50945 0.0
C749 C 0.7654 0.70525 0.53424 0.0
C750 C 0.73054 0.69651 0.5349 0.0
C751 C 0.72716 0.68574 0.58552 0.0
C752 C 0.74303 0.68437 0.60918 0.0
C753 C 0.76194 0.69405 0.58393 0.0
H754 H 0.43583 0.17064 0.46674 0.0
H755 H 0.40519 0.16008 0.62615 0.0
H756 H 0.45682 0.15895 0.508 0.0
H757 H 0.42567 0.14806 0.66665 0.0
H758 H 0.47193 0.13634 0.73885 0.0
H759 H 0.45846 0.1557 0.69783 0.0
H760 H 0.45129 0.12706 0.53672 0.0
H761 H 0.4651 0.10821 0.57706 0.0
C762 C 0.43369 0.16601 0.51064 0.0
C763 C 0.41869 0.16611 0.54292 0.0
C764 C 0.44564 0.15922 0.53423 0.0
C765 C 0.44287 0.15245 0.59063 0.0
C766 C 0.42843 0.15337 0.62339 0.0
C767 C 0.41652 0.16011 0.59988 0.0
C768 C 0.46775 0.13442 0.69448 0.0
C769 C 0.4694 0.12058 0.66144 0.0
C770 C 0.45994 0.14544 0.67101 0.0
C771 C 0.45364 0.14285 0.614 0.0
C772 C 0.45617 0.12964 0.58051 0.0
C773 C 0.46395 0.11867 0.6039 0.0
H774 H 0.32725 1.00654 0.91156 0.0
H775 H 0.34912 0.9989 0.07262 0.0
H776 H 0.36014 0.01937 0.87085 0.0
H777 H 0.38222 1.01143 0.03117 0.0
H778 H 0.44189 0.06291 0.95821 0.0
H779 H 0.40887 0.04352 0.99967 0.0
H780 H 0.38556 0.01256 0.84134 0.0
H781 H 0.41875 0.03244 0.79914 0.0
C782 C 0.33903 1.00734 0.93819 0.0
C783 C 0.33559 1.00191 0.99561 0.0
C784 C 0.35791 0.01454 0.91457 0.0
C785 C 0.37389 0.01651 0.94768 0.0
C786 C 0.37028 1.01034 1.00464 0.0
C787 C 0.35131 1.00308 0.02835 0.0
C788 C 0.42981 0.05184 0.93223 0.0
C789 C 0.43293 0.0494 0.87507 0.0
C790 C 0.41085 0.04057 0.95628 0.0
C791 C 0.39449 0.02652 0.92386 0.0
C792 C 0.39779 0.02346 0.8673 0.0
C793 C 0.41682 0.03477 0.84316 0.0
H794 H 0.10872 0.51579 0.83852 0.0
H795 H 0.0521 0.46742 0.89827 0.0
H796 H 0.12603 0.50049 0.8841 0.0
H797 H 0.06922 0.45234 0.94264 0.0
H798 H 0.10231 0.41902 0.94625 0.0
H799 H 0.0888 0.43723 0.89971 0.0
H800 H 0.13087 0.49014 0.99054 0.0
H801 H 0.14456 0.47176 0.03818 0.0
C802 C 0.1 0.50197 0.86124 0.0
C803 C 0.07904 0.49279 0.86458 0.0
C804 C 0.1099 0.49331 0.88752 0.0
C805 C 0.09891 0.4752 0.91657 0.0
C806 C 0.07804 0.4662 0.9201 0.0
C807 C 0.06825 0.47491 0.89473 0.0
C808 C 0.10884 0.43456 0.95635 0.0
C809 C 0.12442 0.44389 0.99641 0.0
C810 C 0.10104 0.44497 0.92963 0.0
C811 C 0.10872 0.46504 0.94177 0.0
C812 C 0.12476 0.47467 0.98033 0.0
C813 C 0.13247 0.46414 1.00778 0.0
H814 H 0.63413 0.71543 0.80548 0.0
H815 H 0.64241 0.69439 0.96671 0.0
H816 H 0.64737 0.74842 0.84609 0.0
H817 H 0.65587 0.7272 1.0067 0.0
H818 H 0.66946 0.78582 0.07632 0.0
H819 H 0.64911 0.75277 0.03517 0.0
H820 H 0.68045 0.77459 0.87695 0.0
H821 H 0.7004 0.80748 0.91746 0.0
C822 C 0.63858 0.71778 0.84964 0.0
C823 C 0.6374 0.70233 0.88266 0.0
C824 C 0.64624 0.73669 0.87286 0.0
C825 C 0.65279 0.7405 0.92962 0.0
C826 C 0.65078 0.72479 0.96309 0.0
C827 C 0.64321 0.70597 0.93992 0.0
C828 C 0.6718 0.78359 0.03255 0.0
C829 C 0.6867 0.79924 1.00039 0.0
C830 C 0.6602 0.76464 1.00902 0.0
C831 C 0.66321 0.76099 0.95281 0.0
C832 C 0.67754 0.77688 0.9201 0.0
C833 C 0.68914 0.79574 0.94359 0.0
H834 H 0.71821 0.02636 0.77165 0.0
H835 H 0.76942 0.04598 0.66293 0.0
H836 H 0.73493 0.0583 0.81865 0.0
H837 H 0.78631 0.07826 0.71101 0.0
H838 H 0.8131 0.12652 0.86009 0.0
H839 H 0.79943 0.09395 0.81477 0.0
H840 H 0.74426 0.09251 0.77928 0.0
H841 H 0.75774 0.12472 0.82354 0.0
C842 C 0.73312 0.03743 0.75795 0.0
C843 C 0.74239 0.03365 0.71305 0.0
C844 C 0.74267 0.05576 0.78495 0.0
C845 C 0.76183 0.07077 0.76819 0.0
C846 C 0.77155 0.06687 0.72481 0.0
C847 C 0.76185 0.04847 0.69717 0.0
C848 C 0.79806 0.11918 0.84264 0.0
C849 C 0.78647 0.12815 0.8456 0.0
C850 C 0.79032 0.10066 0.81644 0.0
C851 C 0.77078 0.09073 0.79382 0.0
C852 C 0.7593 0.09976 0.79683 0.0
C853 C 0.76707 0.11825 0.82209 0.0
H854 H 0.07061 0.83749 0.61323 0.0
H855 H 0.11274 0.84574 0.74595 0.0
H856 H 0.04325 0.82221 0.68147 0.0
H857 H 0.08559 0.83088 0.81389 0.0
H858 H 0.0307 0.77585 0.88855 0.0
H859 H 0.05862 0.79688 0.82724 0.0
H860 H 0.0277 0.82606 0.76812 0.0
H861 H 0.99937 0.80464 0.82948 0.0
C862 C 0.07409 0.83643 0.6571 0.0
C863 C 0.09381 0.84256 0.67393 0.0
C864 C 0.05842 0.82774 0.69626 0.0
C865 C 0.0622 0.82505 0.75297 0.0
C866 C 0.0821 0.83233 0.7703 0.0
C867 C 0.09769 0.84093 0.73131 0.0
C868 C 0.02987 0.78687 0.86301 0.0
C869 C 1.01278 0.78853 0.86392 0.0
C870 C 0.04598 0.79905 0.82803 0.0
C871 C 0.04544 0.81321 0.79281 0.0
C872 C 0.02851 0.8152 0.79447 0.0
C873 C 1.01237 0.80304 0.82991 0.0
H874 H 0.2967 0.38475 0.79801 0.0
H875 H 0.29794 0.36395 0.63025 0.0
H876 H 0.31054 0.3657 0.83693 0.0
H877 H 0.3114 0.34439 0.66961 0.0
H878 H 0.3631 0.33952 0.75078 0.0
H879 H 0.34327 0.35213 0.70918 0.0
H880 H 0.3056 0.33339 0.85708 0.0
H881 H 0.32589 0.3211 0.89957 0.0
C882 C 0.29963 0.37585 0.76946 0.0
C883 C 0.29642 0.37606 0.71087 0.0
C884 C 0.30743 0.36476 0.79194 0.0
C885 C 0.3122 0.35357 0.75644 0.0
C886 C 0.30817 0.35309 0.69807 0.0
C887 C 0.30036 0.36421 0.67553 0.0
C888 C 0.35048 0.33788 0.77434 0.0
C889 C 0.34621 0.32946 0.8288 0.0
C890 C 0.33897 0.34498 0.75018 0.0
C891 C 0.32285 0.34385 0.77978 0.0
C892 C 0.31808 0.33473 0.83342 0.0
C893 C 0.32963 0.32759 0.85765 0.0
H894 H 0.99823 0.33457 0.30479 0.0
H895 H 0.03088 0.3349 0.45402 0.0
H896 H 0.02876 0.34859 0.24964 0.0
H897 H 0.06147 0.34861 0.39824 0.0
H898 H 0.11373 0.40067 0.30161 0.0
H899 H 0.08345 0.38076 0.35583 0.0
H900 H 0.05476 0.34388 0.2096 0.0
H901 H 0.08524 0.36419 0.15456 0.0
C902 C 1.01187 0.33736 0.32574 0.0
C903 C 1.01214 0.33384 0.3841 0.0
C904 C 0.02938 0.34526 0.29387 0.0
C905 C 0.04761 0.34986 0.31952 0.0
C906 C 0.04771 0.34551 0.37735 0.0
C907 C 0.03016 0.33756 0.40929 0.0
C908 C 0.10105 0.38824 0.28094 0.0
C909 C 0.10185 0.38414 0.22353 0.0
C910 C 0.0837 0.37667 0.31232 0.0
C911 C 0.06664 0.3607 0.28717 0.0
C912 C 0.0676 0.3562 0.23011 0.0
C913 C 0.08506 0.36777 0.19863 0.0
H914 H 0.80728 0.80292 0.41446 0.0
H915 H 0.80208 0.77666 0.25052 0.0
H916 H 0.7949 0.82328 0.37371 0.0
H917 H 0.7894 0.79651 0.21042 0.0
H918 H 0.77565 0.84125 0.14168 0.0
H919 H 0.79592 0.82896 0.18426 0.0
H920 H 0.76255 0.81641 0.33941 0.0
H921 H 0.74273 0.82902 0.29758 0.0
C922 C 0.80375 0.80166 0.36969 0.0
C923 C 0.80547 0.78801 0.33592 0.0
C924 C 0.79655 0.81324 0.34638 0.0
C925 C 0.79102 0.81145 0.2888 0.0
C926 C 0.7937 0.79848 0.25468 0.0
C927 C 0.80082 0.78693 0.27792 0.0
C928 C 0.77286 0.83614 0.18513 0.0
C929 C 0.75742 0.83592 0.21597 0.0
C930 C 0.78441 0.82901 0.20949 0.0
C931 C 0.78079 0.82157 0.26521 0.0
C932 C 0.76594 0.82222 0.29671 0.0
C933 C 0.75442 0.82931 0.27242 0.0
H934 H 0.27241 0.0255 0.27174 0.0
H935 H 0.30901 0.05216 0.12394 0.0
H936 H 0.2871 0.05799 0.3156 0.0
H937 H 0.32411 0.08464 0.16844 0.0
H938 H 0.33867 0.14273 0.24599 0.0
H939 H 0.31913 0.11055 0.20048 0.0
H940 H 0.31856 0.08186 0.35744 0.0
H941 H 0.33767 0.11409 0.40337 0.0
C942 C 0.2835 0.03832 0.24838 0.0
C943 C 0.28961 0.0362 0.19439 0.0
C944 C 0.29204 0.05696 0.27378 0.0
C945 C 0.30697 0.07396 0.24595 0.0
C946 C 0.31252 0.07192 0.19099 0.0
C947 C 0.3039 0.05327 0.16546 0.0
C948 C 0.3342 0.12955 0.27101 0.0
C949 C 0.33982 0.131 0.32831 0.0
C950 C 0.32309 0.11108 0.24474 0.0
C951 C 0.31738 0.09356 0.27503 0.0
C952 C 0.32248 0.095 0.33287 0.0
C953 C 0.33352 0.1135 0.35924 0.0
loop_
_geom_bond_atom_site_label_1
_geom_bond_atom_site_label_2
_geom_bond_distance
_geom_bond_site_symmetry_2
_ccdc_geom_bond_type
Mg0 O7 2.141 . S
Mg0 O8 2.048 . S
Mg0 O9 2.048 . S
Mg0 O12 2.141 . S
C1 O2 1.313 . S
C1 O8 1.195 . S
O2 C1 1.313 . S
C3 O4 1.245 1_455 S
C3 O12 1.289 . S
O4 C3 1.245 1_655 S
C5 O6 1.241 1_455 S
C5 O7 1.289 . S
O6 C5 1.241 1_655 S
O7 Mg0 2.141 . S
O7 C5 1.289 . S
O8 Mg0 2.048 . S
O8 C1 1.195 . S
O9 Mg0 2.048 . S
O9 C10 1.195 . S
C10 O9 1.195 . S
C10 O11 1.313 . S
O11 C10 1.313 . S
O12 Mg0 2.141 . S
O12 C3 1.289 . S
Mg13 O20 2.141 . S
Mg13 O21 2.048 . S
Mg13 O22 2.048 . S
Mg13 O25 2.141 . S
C14 O15 1.313 . S
C14 O21 1.195 . S
O15 C14 1.313 . S
C16 O17 1.245 . S
C16 O25 1.289 . S
O17 C16 1.245 . S
C18 O19 1.245 . S
C18 O20 1.289 . S
O19 C18 1.245 . S
O20 Mg13 2.141 . S
O20 C18 1.289 . S
O21 Mg13 2.048 . S
O21 C14 1.195 . S
O22 Mg13 2.048 . S
O22 C23 1.195 . S
C23 O22 1.195 . S
C23 O24 1.313 . S
O24 C23 1.313 . S
O25 Mg13 2.141 . S
O25 C16 1.289 . S
Mg26 O33 2.141 . S
Mg26 O34 2.048 . S
Mg26 O35 2.048 . S
Mg26 O38 2.141 . S
C27 O28 1.313 . S
C27 O34 1.195 . S
O28 C27 1.313 . S
C29 O30 1.245 . S
C29 O38 1.289 . S
O30 C29 1.245 . S
C31 O32 1.245 . S
C31 O33 1.289 . S
O32 C31 1.245 . S
O33 Mg26 2.141 . S
O33 C31 1.289 . S
O34 Mg26 2.048 . S
O34 C27 1.195 . S
O35 Mg26 2.048 . S
O35 C36 1.195 . S
C36 O35 1.195 . S
C36 O37 1.313 . S
O37 C36 1.313 . S
O38 Mg26 2.141 . S
O38 C29 1.289 . S
Mg39 O46 2.141 . S
Mg39 O47 2.048 . S
Mg39 O48 2.048 . S
Mg39 O51 2.141 . S
C40 O41 1.313 . S
C40 O47 1.195 . S
O41 C40 1.313 . S
C42 O43 1.245 . S
C42 O51 1.289 . S
O43 C42 1.245 . S
C44 O45 1.245 . S
C44 O46 1.289 . S
O45 C44 1.245 . S
O46 Mg39 2.141 . S
O46 C44 1.289 . S
O47 Mg39 2.048 . S
O47 C40 1.195 . S
O48 Mg39 2.048 . S
O48 C49 1.195 . S
C49 O48 1.195 . S
C49 O50 1.313 . S
O50 C49 1.313 . S
O51 Mg39 2.141 . S
O51 C42 1.289 . S
Mg52 O59 2.141 . S
Mg52 O60 2.048 . S
Mg52 O61 2.048 . S
Mg52 O64 2.141 . S
C53 O54 1.313 . S
C53 O60 1.195 . S
O54 C53 1.313 . S
C55 O56 1.245 . S
C55 O64 1.289 . S
O56 C55 1.245 . S
C57 O58 1.245 . S
C57 O59 1.289 . S
O58 C57 1.245 . S
O59 Mg52 2.141 . S
O59 C57 1.289 . S
O60 Mg52 2.048 . S
O60 C53 1.195 . S
O61 Mg52 2.048 . S
O61 C62 1.195 . S
C62 O61 1.195 . S
C62 O63 1.313 . S
O63 C62 1.313 . S
O64 Mg52 2.141 . S
O64 C55 1.289 . S
Mg65 O72 2.141 . S
Mg65 O73 2.048 . S
Mg65 O74 2.048 . S
Mg65 O77 2.141 . S
C66 O67 1.313 . S
C66 O73 1.195 . S
O67 C66 1.313 . S
C68 O69 1.245 . S
C68 O77 1.289 . S
O69 C68 1.245 . S
C70 O71 1.245 . S
C70 O72 1.289 . S
O71 C70 1.245 . S
O72 Mg65 2.141 . S
O72 C70 1.289 . S
O73 Mg65 2.048 . S
O73 C66 1.195 . S
O74 Mg65 2.048 . S
O74 C75 1.195 . S
C75 O74 1.195 . S
C75 O76 1.313 . S
O76 C75 1.313 . S
O77 Mg65 2.141 . S
O77 C68 1.289 . S
Mg78 O85 2.141 . S
Mg78 O86 2.048 . S
Mg78 O87 2.048 . S
Mg78 O90 2.141 . S
C79 O80 1.313 . S
C79 O86 1.195 . S
O80 C79 1.313 . S
C81 O82 1.245 . S
C81 O90 1.289 . S
O82 C81 1.245 . S
C83 O84 1.245 . S
C83 O85 1.289 . S
O84 C83 1.245 . S
O85 Mg78 2.141 . S
O85 C83 1.289 . S
O86 Mg78 2.048 . S
O86 C79 1.195 . S
O87 Mg78 2.048 . S
O87 C88 1.215 . S
C88 O87 1.215 . S
C88 O89 1.328 . S
O89 C88 1.328 . S
O90 Mg78 2.141 . S
O90 C81 1.289 . S
Mg91 O98 2.141 . S
Mg91 O99 2.048 . S
Mg91 O100 2.048 . S
Mg91 O103 2.141 . S
C92 O93 1.313 . S
C92 O99 1.195 . S
O93 C92 1.313 . S
C94 O95 1.245 . S
C94 O103 1.289 . S
O95 C94 1.245 . S
C96 O97 1.245 . S
C96 O98 1.289 . S
O97 C96 1.245 . S
O98 Mg91 2.141 . S
O98 C96 1.289 . S
O99 Mg91 2.048 . S
O99 C92 1.195 . S
O100 Mg91 2.048 . S
O100 C101 1.195 . S
C101 O100 1.195 . S
C101 O102 1.313 . S
O102 C101 1.313 . S
O103 Mg91 2.141 . S
O103 C94 1.289 . S
Mg104 O111 2.141 . S
Mg104 O112 2.048 . S
Mg104 O113 2.048 . S
Mg104 O116 2.141 . S
C105 O106 1.313 . S
C105 O112 1.195 . S
O106 C105 1.313 . S
C107 O108 1.245 . S
C107 O116 1.289 . S
O108 C107 1.245 . S
C109 O110 1.245 . S
C109 O111 1.289 . S
O110 C109 1.245 . S
O111 Mg104 2.141 . S
O111 C109 1.289 . S
O112 Mg104 2.048 . S
O112 C105 1.195 . S
O113 Mg104 2.048 . S
O113 C114 1.195 . S
C114 O113 1.195 . S
C114 O115 1.313 . S
O115 C114 1.313 . S
O116 Mg104 2.141 . S
O116 C107 1.289 . S
Mg117 O124 2.141 . S
Mg117 O125 2.048 . S
Mg117 O126 2.048 . S
Mg117 O129 2.141 . S
C118 O119 1.313 . S
C118 O125 1.195 . S
O119 C118 1.313 . S
C120 O121 1.244 1_554 S
C120 O129 1.297 . S
O121 C120 1.244 1_556 S
C122 O123 1.247 . S
C122 O124 1.277 1_556 S
O123 C122 1.247 . S
O124 Mg117 2.141 . S
O124 C122 1.277 1_554 S
O125 Mg117 2.048 . S
O125 C118 1.195 . S
O126 Mg117 2.048 . S
O126 C127 1.195 . S
C127 O126 1.195 . S
C127 O128 1.313 . S
O128 C127 1.313 . S
O129 Mg117 2.141 . S
O129 C120 1.297 . S
Mg130 O137 2.141 . S
Mg130 O138 2.048 . S
Mg130 O139 2.048 . S
Mg130 O142 2.141 . S
C131 O132 1.313 . S
C131 O138 1.195 . S
O132 C131 1.313 . S
C133 O134 1.245 1_564 S
C133 O142 1.289 . S
O134 C133 1.245 1_546 S
C135 O136 1.246 . S
C135 O137 1.284 1_556 S
O136 C135 1.246 . S
O137 Mg130 2.141 . S
O137 C135 1.284 1_554 S
O138 Mg130 2.048 . S
O138 C131 1.195 . S
O139 Mg130 2.048 . S
O139 C140 1.195 1_565 S
C140 O139 1.195 1_545 S
C140 O141 1.313 . S
O141 C140 1.313 . S
O142 Mg130 2.141 . S
O142 C133 1.289 . S
Mg143 O150 2.141 . S
Mg143 O151 2.048 . S
Mg143 O152 2.048 . S
Mg143 O155 2.141 . S
C144 O145 1.313 . S
C144 O151 1.195 . S
O145 C144 1.313 . S
C146 O147 1.245 . S
C146 O155 1.289 1_556 S
O147 C146 1.245 . S
C148 O149 1.245 . S
C148 O150 1.289 1_556 S
O149 C148 1.245 . S
O150 Mg143 2.141 . S
O150 C148 1.289 1_554 S
O151 Mg143 2.048 . S
O151 C144 1.195 . S
O152 Mg143 2.048 . S
O152 C153 1.195 . S
C153 O152 1.195 . S
C153 O154 1.313 . S
O154 C153 1.313 . S
O155 Mg143 2.141 . S
O155 C146 1.289 1_554 S
Mg156 O163 2.141 . S
Mg156 O164 2.048 . S
Mg156 O165 2.048 . S
Mg156 O168 2.141 . S
C157 O158 1.313 . S
C157 O164 1.195 1_554 S
O158 C157 1.313 . S
C159 O160 1.245 . S
C159 O168 1.289 . S
O160 C159 1.245 . S
C161 O162 1.245 . S
C161 O163 1.289 . S
O162 C161 1.245 . S
O163 Mg156 2.141 . S
O163 C161 1.289 . S
O164 Mg156 2.048 . S
O164 C157 1.195 1_556 S
O165 Mg156 2.048 . S
O165 C166 1.195 1_556 S
C166 O165 1.195 1_554 S
C166 O167 1.313 . S
O167 C166 1.313 . S
O168 Mg156 2.141 . S
O168 C159 1.289 . S
Mg169 O176 2.141 . S
Mg169 O177 2.048 . S
Mg169 O178 2.048 . S
Mg169 O181 2.141 . S
C170 O171 1.313 . S
C170 O177 1.195 . S
O171 C170 1.313 . S
C172 O173 1.245 . S
C172 O181 1.289 . S
O173 C172 1.245 . S
C174 O175 1.245 . S
C174 O176 1.289 . S
O175 C174 1.245 . S
O176 Mg169 2.141 . S
O176 C174 1.289 . S
O177 Mg169 2.048 . S
O177 C170 1.195 . S
O178 Mg169 2.048 . S
O178 C179 1.195 . S
C179 O178 1.195 . S
C179 O180 1.313 . S
O180 C179 1.313 . S
O181 Mg169 2.141 . S
O181 C172 1.289 . S
Mg182 O189 2.141 . S
Mg182 O190 2.048 . S
Mg182 O191 2.048 . S
Mg182 O194 2.141 . S
C183 O184 1.313 . S
C183 O190 1.195 . S
O184 C183 1.313 . S
C185 O186 1.245 . S
C185 O194 1.289 . S
O186 C185 1.245 . S
C187 O188 1.245 . S
C187 O189 1.289 . S
O188 C187 1.245 . S
O189 Mg182 2.141 . S
O189 C187 1.289 . S
O190 Mg182 2.048 . S
O190 C183 1.195 . S
O191 Mg182 2.048 . S
O191 C192 1.195 . S
C192 O191 1.195 . S
C192 O193 1.313 . S
O193 C192 1.313 . S
O194 Mg182 2.141 . S
O194 C185 1.289 . S
Mg195 O202 2.141 . S
Mg195 O203 2.048 . S
Mg195 O204 2.048 . S
Mg195 O207 2.141 . S
C196 O197 1.313 . S
C196 O203 1.195 . S
O197 C196 1.313 . S
C198 O199 1.245 . S
C198 O207 1.289 . S
O199 C198 1.245 . S
C200 O201 1.245 . S
C200 O202 1.289 . S
O201 C200 1.245 . S
O202 Mg195 2.141 . S
O202 C200 1.289 . S
O203 Mg195 2.048 . S
O203 C196 1.195 . S
O204 Mg195 2.048 . S
O204 C205 1.195 . S
C205 O204 1.195 . S
C205 O206 1.313 . S
O206 C205 1.313 . S
O207 Mg195 2.141 . S
O207 C198 1.289 . S
Mg208 O215 2.141 . S
Mg208 O216 2.048 . S
Mg208 O217 2.048 . S
Mg208 O220 2.141 . S
C209 O210 1.313 . S
C209 O216 1.195 . S
O210 C209 1.313 . S
C211 O212 1.245 . S
C211 O220 1.289 . S
O212 C211 1.245 . S
C213 O214 1.245 . S
C213 O215 1.289 . S
O214 C213 1.245 . S
O215 Mg208 2.141 . S
O215 C213 1.289 . S
O216 Mg208 2.048 . S
O216 C209 1.195 . S
O217 Mg208 2.048 . S
O217 C218 1.195 . S
C218 O217 1.195 . S
C218 O219 1.313 . S
O219 C218 1.313 . S
O220 Mg208 2.141 . S
O220 C211 1.289 . S
Mg221 O228 2.141 . S
Mg221 O229 2.048 . S
Mg221 O230 2.048 . S
Mg221 O233 2.141 . S
C222 O223 1.313 . S
C222 O229 1.195 . S
O223 C222 1.313 . S
C224 O225 1.245 . S
C224 O233 1.289 . S
O225 C224 1.245 . S
C226 O227 1.245 . S
C226 O228 1.289 . S
O227 C226 1.245 . S
O228 Mg221 2.141 . S
O228 C226 1.289 . S
O229 Mg221 2.048 . S
O229 C222 1.195 . S
O230 Mg221 2.048 . S
O230 C231 1.195 . S
C231 O230 1.195 . S
C231 O232 1.313 . S
O232 C231 1.313 . S
O233 Mg221 2.141 . S
O233 C224 1.289 . S
H234 C242 0.950 . S
H235 C247 0.950 . S
H236 C244 0.950 . S
H237 C246 0.950 . S
H238 C248 0.950 . S
H239 C250 0.950 . S
H240 C252 0.977 1_556 S
H241 C253 0.950 1_655 S
C242 H234 0.950 . S
C242 C243 1.386 . S
C242 C244 1.391 . S
C243 C242 1.386 . S
C243 C247 1.393 . S
C244 H236 0.950 . S
C244 C242 1.391 . S
C244 C245 1.400 . S
C245 C244 1.400 . S
C245 C246 1.398 . S
C245 C251 1.491 1_556 S
C246 H237 0.950 . S
C246 C245 1.398 . S
C246 C247 1.391 . S
C247 H235 0.950 . S
C247 C243 1.393 . S
C247 C246 1.391 . S
C248 H238 0.950 . S
C248 C249 1.386 . S
C248 C250 1.391 . S
C249 C248 1.386 . S
C249 C253 1.393 . S
C250 H239 0.950 . S
C250 C248 1.391 . S
C250 C251 1.400 . S
C251 C245 1.491 1_554 S
C251 C250 1.400 . S
C251 C252 1.398 . S
C252 H240 0.977 1_554 S
C252 C251 1.398 . S
C252 C253 1.391 . S
C253 H241 0.950 1_455 S
C253 C249 1.393 . S
C253 C252 1.391 . S
H254 C262 0.950 . S
H255 C267 0.950 . S
H256 C264 0.950 . S
H257 C266 0.950 . S
H258 C268 0.950 . S
H259 C270 0.950 . S
H260 C272 0.950 . S
H261 C273 0.950 . S
C262 H254 0.950 . S
C262 C263 1.386 . S
C262 C264 1.391 . S
C263 C262 1.386 . S
C263 C267 1.393 . S
C264 H256 0.950 . S
C264 C262 1.391 . S
C264 C265 1.400 . S
C265 C264 1.400 . S
C265 C266 1.398 . S
C265 C271 1.491 1_556 S
C266 H257 0.950 . S
C266 C265 1.398 . S
C266 C267 1.391 . S
C267 H255 0.950 . S
C267 C263 1.393 . S
C267 C266 1.391 . S
C268 H258 0.950 . S
C268 C269 1.386 . S
C268 C270 1.391 . S
C269 C268 1.386 . S
C269 C273 1.393 . S
C270 H259 0.950 . S
C270 C268 1.391 . S
C270 C271 1.400 . S
C271 C265 1.491 1_554 S
C271 C270 1.400 . S
C271 C272 1.398 . S
C272 H260 0.950 . S
C272 C271 1.398 . S
C272 C273 1.391 . S
C273 H261 0.950 . S
C273 C269 1.393 . S
C273 C272 1.391 . S
H274 C282 0.950 . S
H275 C287 0.950 . S
H276 C284 0.950 . S
H277 C286 0.950 1_556 S
H278 C288 0.950 . S
H279 C290 0.950 . S
H280 C292 0.950 1_554 S
H281 C293 0.950 . S
C282 H274 0.950 . S
C282 C283 1.386 . S
C282 C284 1.391 . S
C283 C282 1.386 . S
C283 C287 1.393 . S
C284 H276 0.950 . S
C284 C282 1.391 . S
C284 C285 1.400 . S
C285 C284 1.400 . S
C285 C286 1.398 . S
C285 C291 1.491 1_554 S
C286 H277 0.950 1_554 S
C286 C285 1.398 . S
C286 C287 1.391 . S
C287 H275 0.950 . S
C287 C283 1.393 . S
C287 C286 1.391 . S
C288 H278 0.950 . S
C288 C289 1.386 . S
C288 C290 1.391 . S
C289 C288 1.386 . S
C289 C293 1.393 . S
C290 H279 0.950 . S
C290 C288 1.391 . S
C290 C291 1.400 . S
C291 C285 1.491 1_556 S
C291 C290 1.400 . S
C291 C292 1.398 . S
C292 H280 0.950 1_556 S
C292 C291 1.398 . S
C292 C293 1.391 . S
C293 H281 0.950 . S
C293 C289 1.393 . S
C293 C292 1.391 . S
H294 C302 0.950 . S
H295 C307 0.950 . S
H296 C304 0.950 . S
H297 C306 0.950 . S
H298 C308 0.950 . S
H299 C310 0.950 . S
H300 C312 0.950 . S
H301 C313 0.950 . S
C302 H294 0.950 . S
C302 C303 1.386 . S
C302 C304 1.391 . S
C303 C302 1.386 . S
C303 C307 1.393 . S
C304 H296 0.950 . S
C304 C302 1.391 . S
C304 C305 1.400 . S
C305 C304 1.400 . S
C305 C306 1.398 . S
C305 C311 1.491 . S
C306 H297 0.950 . S
C306 C305 1.398 . S
C306 C307 1.391 . S
C307 H295 0.950 . S
C307 C303 1.393 . S
C307 C306 1.391 . S
C308 H298 0.950 . S
C308 C309 1.386 . S
C308 C310 1.391 . S
C309 C308 1.386 . S
C309 C313 1.393 . S
C310 H299 0.950 . S
C310 C308 1.391 . S
C310 C311 1.400 . S
C311 C305 1.491 . S
C311 C310 1.400 . S
C311 C312 1.398 . S
C312 H300 0.950 . S
C312 C311 1.398 . S
C312 C313 1.391 . S
C313 H301 0.950 . S
C313 C309 1.393 . S
C313 C312 1.391 . S
H314 C322 0.950 . S
H315 C327 0.950 . S
H316 C324 0.950 . S
H317 C326 0.950 . S
H318 C328 0.950 . S
H319 C330 0.950 . S
H320 C332 0.950 . S
H321 C333 0.950 . S
C322 H314 0.950 . S
C322 C323 1.386 . S
C322 C324 1.391 . S
C323 C322 1.386 . S
C323 C327 1.393 . S
C324 H316 0.950 . S
C324 C322 1.391 . S
C324 C325 1.400 . S
C325 C324 1.400 . S
C325 C326 1.398 . S
C325 C331 1.491 . S
C326 H317 0.950 . S
C326 C325 1.398 . S
C326 C327 1.391 . S
C327 H315 0.950 . S
C327 C323 1.393 . S
C327 C326 1.391 . S
C328 H318 0.950 . S
C328 C329 1.386 . S
C328 C330 1.391 . S
C329 C328 1.386 . S
C329 C333 1.393 . S
C330 H319 0.950 . S
C330 C328 1.391 . S
C330 C331 1.400 . S
C331 C325 1.491 . S
C331 C330 1.400 . S
C331 C332 1.398 . S
C332 H320 0.950 . S
C332 C331 1.398 . S
C332 C333 1.391 . S
C333 H321 0.950 . S
C333 C329 1.393 . S
C333 C332 1.391 . S
H334 C342 0.950 . S
H335 C347 0.950 . S
H336 C344 0.950 . S
H337 C346 0.950 . S
H338 C348 0.950 . S
H339 C350 0.950 . S
H340 C352 0.950 . S
H341 C353 0.950 . S
C342 H334 0.950 . S
C342 C343 1.386 . S
C342 C344 1.391 . S
C343 C342 1.386 . S
C343 C347 1.393 . S
C344 H336 0.950 . S
C344 C342 1.391 . S
C344 C345 1.400 . S
C345 C344 1.400 . S
C345 C346 1.398 . S
C345 C351 1.491 . S
C346 H337 0.950 . S
C346 C345 1.398 . S
C346 C347 1.391 . S
C347 H335 0.950 . S
C347 C343 1.393 . S
C347 C346 1.391 . S
C348 H338 0.950 . S
C348 C349 1.386 . S
C348 C350 1.391 . S
C349 C348 1.386 . S
C349 C353 1.393 . S
C350 H339 0.950 . S
C350 C348 1.391 . S
C350 C351 1.400 . S
C351 C345 1.491 . S
C351 C350 1.400 . S
C351 C352 1.398 . S
C352 H340 0.950 . S
C352 C351 1.398 . S
C352 C353 1.391 . S
C353 H341 0.950 . S
C353 C349 1.393 . S
C353 C352 1.391 . S
H354 C362 0.950 . S
H355 C367 0.950 . S
H356 C364 0.950 . S
H357 C366 0.950 . S
H358 C368 0.950 . S
H359 C370 0.950 . S
H360 C372 0.950 . S
H361 C373 0.950 . S
C362 H354 0.950 . S
C362 C363 1.386 . S
C362 C364 1.391 . S
C363 C362 1.386 . S
C363 C367 1.393 . S
C364 H356 0.950 . S
C364 C362 1.391 . S
C364 C365 1.400 . S
C365 C364 1.400 . S
C365 C366 1.398 . S
C365 C371 1.491 . S
C366 H357 0.950 . S
C366 C365 1.398 . S
C366 C367 1.391 . S
C367 H355 0.950 . S
C367 C363 1.393 . S
C367 C366 1.391 . S
C368 H358 0.950 . S
C368 C369 1.386 . S
C368 C370 1.391 . S
C369 C368 1.386 . S
C369 C373 1.393 . S
C370 H359 0.950 . S
C370 C368 1.391 . S
C370 C371 1.400 . S
C371 C365 1.491 . S
C371 C370 1.400 . S
C371 C372 1.398 . S
C372 H360 0.950 . S
C372 C371 1.398 . S
C372 C373 1.391 . S
C373 H361 0.950 . S
C373 C369 1.393 . S
C373 C372 1.391 . S
H374 C382 0.950 . S
H375 C387 0.950 . S
H376 C384 0.950 . S
H377 C386 0.950 . S
H378 C388 0.950 . S
H379 C390 0.950 . S
H380 C392 0.950 . S
H381 C393 0.950 . S
C382 H374 0.950 . S
C382 C383 1.386 . S
C382 C384 1.391 . S
C383 C382 1.386 . S
C383 C387 1.393 . S
C384 H376 0.950 . S
C384 C382 1.391 . S
C384 C385 1.400 . S
C385 C384 1.400 . S
C385 C386 1.398 . S
C385 C391 1.491 . S
C386 H377 0.950 . S
C386 C385 1.398 . S
C386 C387 1.391 . S
C387 H375 0.950 . S
C387 C383 1.393 . S
C387 C386 1.391 . S
C388 H378 0.950 . S
C388 C389 1.386 . S
C388 C390 1.391 . S
C389 C388 1.386 . S
C389 C393 1.393 . S
C390 H379 0.950 . S
C390 C388 1.391 . S
C390 C391 1.400 . S
C391 C385 1.491 . S
C391 C390 1.400 . S
C391 C392 1.398 . S
C392 H380 0.950 . S
C392 C391 1.398 . S
C392 C393 1.391 . S
C393 H381 0.950 . S
C393 C389 1.393 . S
C393 C392 1.391 . S
H394 C402 0.950 . S
H395 C407 0.950 . S
H396 C404 0.950 . S
H397 C406 0.950 . S
H398 C408 0.950 . S
H399 C410 0.950 . S
H400 C412 0.950 . S
H401 C413 0.950 . S
C402 H394 0.950 . S
C402 C403 1.386 . S
C402 C404 1.391 . S
C403 C402 1.386 . S
C403 C407 1.393 . S
C404 H396 0.950 . S
C404 C402 1.391 . S
C404 C405 1.400 . S
C405 C404 1.400 . S
C405 C406 1.398 . S
C405 C411 1.491 . S
C406 H397 0.950 . S
C406 C405 1.398 . S
C406 C407 1.391 . S
C407 H395 0.950 . S
C407 C403 1.393 . S
C407 C406 1.391 . S
C408 H398 0.950 . S
C408 C409 1.386 . S
C408 C410 1.391 . S
C409 C408 1.386 . S
C409 C413 1.393 . S
C410 H399 0.950 . S
C410 C408 1.391 . S
C410 C411 1.400 . S
C411 C405 1.491 . S
C411 C410 1.400 . S
C411 C412 1.398 . S
C412 H400 0.950 . S
C412 C411 1.398 . S
C412 C413 1.391 . S
C413 H401 0.950 . S
C413 C409 1.393 . S
C413 C412 1.391 . S
H414 C422 0.950 . S
H415 C427 0.950 . S
H416 C424 0.950 . S
H417 C426 0.950 . S
H418 C428 0.950 . S
H419 C430 0.950 . S
H420 C432 0.950 . S
H421 C433 0.950 . S
C422 H414 0.950 . S
C422 C423 1.386 . S
C422 C424 1.391 . S
C423 C422 1.386 . S
C423 C427 1.393 . S
C424 H416 0.950 . S
C424 C422 1.391 . S
C424 C425 1.400 . S
C425 C424 1.400 . S
C425 C426 1.398 . S
C425 C431 1.491 . S
C426 H417 0.950 . S
C426 C425 1.398 . S
C426 C427 1.391 . S
C427 H415 0.950 . S
C427 C423 1.393 . S
C427 C426 1.391 . S
C428 H418 0.950 . S
C428 C429 1.386 . S
C428 C430 1.391 . S
C429 C428 1.386 . S
C429 C433 1.393 . S
C430 H419 0.950 . S
C430 C428 1.391 . S
C430 C431 1.400 . S
C431 C425 1.491 . S
C431 C430 1.400 . S
C431 C432 1.398 . S
C432 H420 0.950 . S
C432 C431 1.398 . S
C432 C433 1.391 . S
C433 H421 0.950 . S
C433 C429 1.393 . S
C433 C432 1.391 . S
H434 C442 0.950 . S
H435 C447 0.950 . S
H436 C444 0.950 . S
H437 C446 0.950 . S
H438 C448 0.950 . S
H439 C450 0.950 . S
H440 C452 0.950 . S
H441 C453 0.950 . S
C442 H434 0.950 . S
C442 C443 1.386 . S
C442 C444 1.391 . S
C443 C442 1.386 . S
C443 C447 1.393 . S
C444 H436 0.950 . S
C444 C442 1.391 . S
C444 C445 1.400 . S
C445 C444 1.400 . S
C445 C446 1.398 . S
C445 C451 1.491 . S
C446 H437 0.950 . S
C446 C445 1.398 . S
C446 C447 1.391 . S
C447 H435 0.950 . S
C447 C443 1.393 . S
C447 C446 1.391 . S
C448 H438 0.950 . S
C448 C449 1.386 . S
C448 C450 1.391 . S
C449 C448 1.386 . S
C449 C453 1.393 . S
C450 H439 0.950 . S
C450 C448 1.391 . S
C450 C451 1.400 . S
C451 C445 1.491 . S
C451 C450 1.400 . S
C451 C452 1.398 . S
C452 H440 0.950 . S
C452 C451 1.398 . S
C452 C453 1.391 . S
C453 H441 0.950 . S
C453 C449 1.393 . S
C453 C452 1.391 . S
H454 C462 0.950 . S
H455 C467 0.950 . S
H456 C464 0.950 . S
H457 C466 0.950 . S
H458 C468 0.950 . S
H459 C470 0.950 . S
H460 C472 0.950 . S
H461 C473 0.950 . S
C462 H454 0.950 . S
C462 C463 1.386 . S
C462 C464 1.391 . S
C463 C462 1.386 . S
C463 C467 1.393 . S
C464 H456 0.950 . S
C464 C462 1.391 . S
C464 C465 1.400 . S
C465 C464 1.400 . S
C465 C466 1.398 . S
C465 C471 1.491 . S
C466 H457 0.950 . S
C466 C465 1.398 . S
C466 C467 1.391 . S
C467 H455 0.950 . S
C467 C463 1.393 . S
C467 C466 1.391 . S
C468 H458 0.950 . S
C468 C469 1.386 . S
C468 C470 1.391 . S
C469 C468 1.386 . S
C469 C473 1.393 . S
C470 H459 0.950 . S
C470 C468 1.391 . S
C470 C471 1.400 . S
C471 C465 1.491 . S
C471 C470 1.400 . S
C471 C472 1.398 . S
C472 H460 0.950 . S
C472 C471 1.398 . S
C472 C473 1.391 . S
C473 H461 0.950 . S
C473 C469 1.393 . S
C473 C472 1.391 . S
H474 C482 0.950 . S
H475 C487 0.950 . S
H476 C484 0.950 . S
H477 C486 0.950 . S
H478 C488 0.950 . S
H479 C490 0.950 . S
H480 C492 0.950 . S
H481 C493 0.950 . S
C482 H474 0.950 . S
C482 C483 1.386 . S
C482 C484 1.391 . S
C483 C482 1.386 . S
C483 C487 1.393 . S
C484 H476 0.950 . S
C484 C482 1.391 . S
C484 C485 1.400 . S
C485 C484 1.400 . S
C485 C486 1.398 . S
C485 C491 1.491 . S
C486 H477 0.950 . S
C486 C485 1.398 . S
C486 C487 1.391 . S
C487 H475 0.950 . S
C487 C483 1.393 . S
C487 C486 1.391 . S
C488 H478 0.950 . S
C488 C489 1.386 . S
C488 C490 1.391 . S
C489 C488 1.386 . S
C489 C493 1.393 . S
C490 H479 0.950 . S
C490 C488 1.391 . S
C490 C491 1.400 . S
C491 C485 1.491 . S
C491 C490 1.400 . S
C491 C492 1.398 . S
C492 H480 0.950 . S
C492 C491 1.398 . S
C492 C493 1.391 . S
C493 H481 0.950 . S
C493 C489 1.393 . S
C493 C492 1.391 . S
H494 C502 0.950 . S
H495 C507 0.950 . S
H496 C504 0.950 . S
H497 C506 0.950 . S
H498 C508 0.950 . S
H499 C510 0.950 . S
H500 C512 0.950 . S
H501 C513 0.950 . S
C502 H494 0.950 . S
C502 C503 1.386 . S
C502 C504 1.391 . S
C503 C502 1.386 . S
C503 C507 1.393 . S
C504 H496 0.950 . S
C504 C502 1.391 . S
C504 C505 1.400 . S
C505 C504 1.400 . S
C505 C506 1.398 . S
C505 C511 1.491 . S
C506 H497 0.950 . S
C506 C505 1.398 . S
C506 C507 1.391 . S
C507 H495 0.950 . S
C507 C503 1.393 . S
C507 C506 1.391 . S
C508 H498 0.950 . S
C508 C509 1.386 . S
C508 C510 1.391 . S
C509 C508 1.386 . S
C509 C513 1.393 . S
C510 H499 0.950 . S
C510 C508 1.391 . S
C510 C511 1.400 . S
C511 C505 1.491 . S
C511 C510 1.400 . S
C511 C512 1.398 . S
C512 H500 0.950 . S
C512 C511 1.398 . S
C512 C513 1.391 . S
C513 H501 0.950 . S
C513 C509 1.393 . S
C513 C512 1.391 . S
H514 C522 0.950 . S
H515 C527 0.950 . S
H516 C524 0.950 . S
H517 C526 0.950 . S
H518 C528 0.950 . S
H519 C530 0.950 . S
H520 C532 0.950 . S
H521 C533 0.950 . S
C522 H514 0.950 . S
C522 C523 1.386 . S
C522 C524 1.391 . S
C523 C522 1.386 . S
C523 C527 1.393 . S
C524 H516 0.950 . S
C524 C522 1.391 . S
C524 C525 1.400 . S
C525 C524 1.400 . S
C525 C526 1.398 . S
C525 C531 1.491 . S
C526 H517 0.950 . S
C526 C525 1.398 . S
C526 C527 1.391 . S
C527 H515 0.950 . S
C527 C523 1.393 . S
C527 C526 1.391 . S
C528 H518 0.950 . S
C528 C529 1.386 . S
C528 C530 1.391 . S
C529 C528 1.386 . S
C529 C533 1.393 . S
C530 H519 0.950 . S
C530 C528 1.391 . S
C530 C531 1.400 . S
C531 C525 1.491 . S
C531 C530 1.400 . S
C531 C532 1.398 . S
C532 H520 0.950 . S
C532 C531 1.398 . S
C532 C533 1.391 . S
C533 H521 0.950 . S
C533 C529 1.393 . S
C533 C532 1.391 . S
H534 C542 0.950 . S
H535 C547 0.950 . S
H536 C544 0.950 . S
H537 C546 0.950 . S
H538 C548 0.950 . S
H539 C550 0.950 . S
H540 C552 0.950 . S
H541 C553 0.950 . S
C542 H534 0.950 . S
C542 C543 1.386 . S
C542 C544 1.391 . S
C543 C542 1.386 . S
C543 C547 1.393 . S
C544 H536 0.950 . S
C544 C542 1.391 . S
C544 C545 1.400 . S
C545 C544 1.400 . S
C545 C546 1.398 . S
C545 C551 1.491 . S
C546 H537 0.950 . S
C546 C545 1.398 . S
C546 C547 1.391 . S
C547 H535 0.950 . S
C547 C543 1.393 . S
C547 C546 1.391 . S
C548 H538 0.950 . S
C548 C549 1.386 . S
C548 C550 1.391 . S
C549 C548 1.386 . S
C549 C553 1.393 . S
C550 H539 0.950 . S
C550 C548 1.391 . S
C550 C551 1.400 . S
C551 C545 1.491 . S
C551 C550 1.400 . S
C551 C552 1.398 . S
C552 H540 0.950 . S
C552 C551 1.398 . S
C552 C553 1.391 . S
C553 H541 0.950 . S
C553 C549 1.393 . S
C553 C552 1.391 . S
H554 C562 0.950 . S
H555 C567 0.950 . S
H556 C564 0.950 . S
H557 C566 0.950 . S
H558 C568 0.950 . S
H559 C570 0.950 . S
H560 C572 0.950 . S
H561 C573 0.950 . S
C562 H554 0.950 . S
C562 C563 1.386 . S
C562 C564 1.391 . S
C563 C562 1.386 . S
C563 C567 1.393 . S
C564 H556 0.950 . S
C564 C562 1.391 . S
C564 C565 1.400 . S
C565 C564 1.400 . S
C565 C566 1.398 . S
C565 C571 1.491 . S
C566 H557 0.950 . S
C566 C565 1.398 . S
C566 C567 1.391 . S
C567 H555 0.950 . S
C567 C563 1.393 . S
C567 C566 1.391 . S
C568 H558 0.950 . S
C568 C569 1.386 . S
C568 C570 1.391 . S
C569 C568 1.386 . S
C569 C573 1.393 . S
C570 H559 0.950 . S
C570 C568 1.391 . S
C570 C571 1.400 . S
C571 C565 1.491 . S
C571 C570 1.400 . S
C571 C572 1.398 . S
C572 H560 0.950 . S
C572 C571 1.398 . S
C572 C573 1.391 . S
C573 H561 0.950 . S
C573 C569 1.393 . S
C573 C572 1.391 . S
H574 C582 0.950 . S
H575 C587 0.950 . S
H576 C584 0.950 . S
H577 C586 0.950 . S
H578 C588 0.950 . S
H579 C590 0.950 . S
H580 C592 0.950 . S
H581 C593 0.950 . S
C582 H574 0.950 . S
C582 C583 1.386 . S
C582 C584 1.391 . S
C583 C582 1.386 . S
C583 C587 1.393 . S
C584 H576 0.950 . S
C584 C582 1.391 . S
C584 C585 1.400 . S
C585 C584 1.400 . S
C585 C586 1.398 . S
C585 C591 1.491 . S
C586 H577 0.950 . S
C586 C585 1.398 . S
C586 C587 1.391 . S
C587 H575 0.950 . S
C587 C583 1.393 . S
C587 C586 1.391 . S
C588 H578 0.950 . S
C588 C589 1.386 . S
C588 C590 1.391 . S
C589 C588 1.386 . S
C589 C593 1.393 . S
C590 H579 0.950 . S
C590 C588 1.391 . S
C590 C591 1.400 . S
C591 C585 1.491 . S
C591 C590 1.400 . S
C591 C592 1.398 . S
C592 H580 0.950 . S
C592 C591 1.398 . S
C592 C593 1.391 . S
C593 H581 0.950 . S
C593 C589 1.393 . S
C593 C592 1.391 . S
H594 C602 0.950 . S
H595 C607 0.950 . S
H596 C604 0.950 . S
H597 C606 0.950 . S
H598 C608 0.950 . S
H599 C610 0.950 . S
H600 C612 0.950 . S
H601 C613 0.950 . S
C602 H594 0.950 . S
C602 C603 1.386 . S
C602 C604 1.391 . S
C603 C602 1.386 . S
C603 C607 1.393 . S
C604 H596 0.950 . S
C604 C602 1.391 . S
C604 C605 1.400 . S
C605 C604 1.400 . S
C605 C606 1.398 . S
C605 C611 1.491 . S
C606 H597 0.950 . S
C606 C605 1.398 . S
C606 C607 1.391 . S
C607 H595 0.950 . S
C607 C603 1.393 . S
C607 C606 1.391 . S
C608 H598 0.950 . S
C608 C609 1.386 . S
C608 C610 1.391 . S
C609 C608 1.386 . S
C609 C613 1.393 . S
C610 H599 0.950 . S
C610 C608 1.391 . S
C610 C611 1.400 . S
C611 C605 1.491 . S
C611 C610 1.400 . S
C611 C612 1.398 . S
C612 H600 0.950 . S
C612 C611 1.398 . S
C612 C613 1.391 . S
C613 H601 0.950 . S
C613 C609 1.393 . S
C613 C612 1.391 . S
H614 C622 0.950 . S
H615 C627 0.950 . S
H616 C624 0.950 . S
H617 C626 0.950 . S
H618 C628 0.950 . S
H619 C630 0.950 . S
H620 C632 0.950 . S
H621 C633 0.950 . S
C622 H614 0.950 . S
C622 C623 1.386 . S
C622 C624 1.391 . S
C623 C622 1.386 . S
C623 C627 1.393 . S
C624 H616 0.950 . S
C624 C622 1.391 . S
C624 C625 1.400 . S
C625 C624 1.400 . S
C625 C626 1.398 . S
C625 C631 1.491 . S
C626 H617 0.950 . S
C626 C625 1.398 . S
C626 C627 1.391 . S
C627 H615 0.950 . S
C627 C623 1.393 . S
C627 C626 1.391 . S
C628 H618 0.950 . S
C628 C629 1.386 . S
C628 C630 1.391 . S
C629 C628 1.386 . S
C629 C633 1.393 . S
C630 H619 0.950 . S
C630 C628 1.391 . S
C630 C631 1.400 . S
C631 C625 1.491 . S
C631 C630 1.400 . S
C631 C632 1.398 . S
C632 H620 0.950 . S
C632 C631 1.398 . S
C632 C633 1.391 . S
C633 H621 0.950 . S
C633 C629 1.393 . S
C633 C632 1.391 . S
H634 C642 0.950 1_565 S
H635 C647 0.950 . S
H636 C644 0.950 . S
H637 C646 0.950 . S
H638 C648 0.950 . S
H639 C650 0.950 . S
H640 C652 0.950 . S
H641 C653 0.950 . S
C642 H634 0.950 1_545 S
C642 C643 1.386 . S
C642 C644 1.391 . S
C643 C642 1.386 . S
C643 C647 1.393 . S
C644 H636 0.950 . S
C644 C642 1.391 . S
C644 C645 1.400 . S
C645 C644 1.400 . S
C645 C646 1.398 . S
C645 C651 1.491 . S
C646 H637 0.950 . S
C646 C645 1.398 . S
C646 C647 1.391 . S
C647 H635 0.950 . S
C647 C643 1.393 . S
C647 C646 1.391 . S
C648 H638 0.950 . S
C648 C649 1.386 . S
C648 C650 1.391 . S
C649 C648 1.386 . S
C649 C653 1.393 . S
C650 H639 0.950 . S
C650 C648 1.391 . S
C650 C651 1.400 . S
C651 C645 1.491 . S
C651 C650 1.400 . S
C651 C652 1.398 . S
C652 H640 0.950 . S
C652 C651 1.398 . S
C652 C653 1.391 . S
C653 H641 0.950 . S
C653 C649 1.393 . S
C653 C652 1.391 . S
H654 C662 0.950 . S
H655 C667 0.950 . S
H656 C664 0.950 . S
H657 C666 0.950 . S
H658 C668 0.950 . S
H659 C670 0.950 . S
H660 C672 0.950 . S
H661 C673 0.950 1_556 S
C662 H654 0.950 . S
C662 C663 1.386 . S
C662 C664 1.391 . S
C663 C662 1.386 . S
C663 C667 1.393 . S
C664 H656 0.950 . S
C664 C662 1.391 . S
C664 C665 1.400 . S
C665 C664 1.400 . S
C665 C666 1.398 . S
C665 C671 1.491 . S
C666 H657 0.950 . S
C666 C665 1.398 . S
C666 C667 1.391 . S
C667 H655 0.950 . S
C667 C663 1.393 . S
C667 C666 1.391 . S
C668 H658 0.950 . S
C668 C669 1.386 . S
C668 C670 1.391 . S
C669 C668 1.386 . S
C669 C673 1.393 . S
C670 H659 0.950 . S
C670 C668 1.391 . S
C670 C671 1.400 . S
C671 C665 1.491 . S
C671 C670 1.400 . S
C671 C672 1.398 . S
C672 H660 0.950 . S
C672 C671 1.398 . S
C672 C673 1.391 . S
C673 H661 0.950 1_554 S
C673 C669 1.393 . S
C673 C672 1.391 . S
H674 C682 0.950 . S
H675 C687 0.950 . S
H676 C684 0.950 1_455 S
H677 C686 0.950 . S
H678 C688 0.950 . S
H679 C690 0.950 . S
H680 C692 0.950 . S
H681 C693 0.950 . S
C682 H674 0.950 . S
C682 C683 1.386 . S
C682 C684 1.391 . S
C683 C682 1.386 . S
C683 C687 1.393 . S
C684 H676 0.950 1_655 S
C684 C682 1.391 . S
C684 C685 1.400 . S
C685 C684 1.400 . S
C685 C686 1.398 . S
C685 C691 1.491 . S
C686 H677 0.950 . S
C686 C685 1.398 . S
C686 C687 1.391 . S
C687 H675 0.950 . S
C687 C683 1.393 . S
C687 C686 1.391 . S
C688 H678 0.950 . S
C688 C689 1.386 1_655 S
C688 C690 1.391 . S
C689 C688 1.386 1_455 S
C689 C693 1.393 . S
C690 H679 0.950 . S
C690 C688 1.391 . S
C690 C691 1.400 . S
C691 C685 1.491 . S
C691 C690 1.400 . S
C691 C692 1.398 1_655 S
C692 H680 0.950 . S
C692 C691 1.398 1_455 S
C692 C693 1.391 . S
C693 H681 0.950 . S
C693 C689 1.393 . S
C693 C692 1.391 . S
H694 C702 0.950 . S
H695 C707 0.950 . S
H696 C704 0.950 . S
H697 C706 0.950 . S
H698 C708 0.950 . S
H699 C710 0.950 . S
H700 C712 0.950 . S
H701 C713 0.950 . S
C702 H694 0.950 . S
C702 C703 1.386 . S
C702 C704 1.391 . S
C703 C702 1.386 . S
C703 C707 1.393 . S
C704 H696 0.950 . S
C704 C702 1.391 . S
C704 C705 1.400 . S
C705 C704 1.400 . S
C705 C706 1.398 . S
C705 C711 1.491 . S
C706 H697 0.950 . S
C706 C705 1.398 . S
C706 C707 1.391 . S
C707 H695 0.950 . S
C707 C703 1.393 . S
C707 C706 1.391 . S
C708 H698 0.950 . S
C708 C709 1.386 . S
C708 C710 1.391 . S
C709 C708 1.386 . S
C709 C713 1.393 . S
C710 H699 0.950 . S
C710 C708 1.391 . S
C710 C711 1.400 . S
C711 C705 1.491 . S
C711 C710 1.400 . S
C711 C712 1.398 . S
C712 H700 0.950 . S
C712 C711 1.398 . S
C712 C713 1.391 . S
C713 H701 0.950 . S
C713 C709 1.393 . S
C713 C712 1.391 . S
H714 C722 0.950 . S
H715 C727 0.950 . S
H716 C724 0.950 . S
H717 C726 0.950 1_455 S
H718 C728 0.950 . S
H719 C730 0.950 . S
H720 C732 0.950 . S
H721 C733 0.950 . S
C722 H714 0.950 . S
C722 C723 1.386 . S
C722 C724 1.391 . S
C723 C722 1.386 . S
C723 C727 1.393 . S
C724 H716 0.950 . S
C724 C722 1.391 . S
C724 C725 1.400 . S
C725 C724 1.400 . S
C725 C726 1.398 . S
C725 C731 1.491 . S
C726 H717 0.950 1_655 S
C726 C725 1.398 . S
C726 C727 1.391 . S
C727 H715 0.950 . S
C727 C723 1.393 . S
C727 C726 1.391 . S
C728 H718 0.950 . S
C728 C729 1.386 . S
C728 C730 1.391 . S
C729 C728 1.386 . S
C729 C733 1.393 1_455 S
C730 H719 0.950 . S
C730 C728 1.391 . S
C730 C731 1.400 1_455 S
C731 C725 1.491 . S
C731 C730 1.400 1_655 S
C731 C732 1.398 . S
C732 H720 0.950 . S
C732 C731 1.398 . S
C732 C733 1.391 . S
C733 H721 0.950 . S
C733 C729 1.393 1_655 S
C733 C732 1.391 . S
H734 C742 0.950 . S
H735 C747 0.950 . S
H736 C744 0.950 . S
H737 C746 0.950 . S
H738 C748 0.950 . S
H739 C750 0.950 . S
H740 C752 0.950 . S
H741 C753 0.950 . S
C742 H734 0.950 . S
C742 C743 1.386 . S
C742 C744 1.391 . S
C743 C742 1.386 . S
C743 C747 1.393 . S
C744 H736 0.950 . S
C744 C742 1.391 . S
C744 C745 1.400 . S
C745 C744 1.400 . S
C745 C746 1.398 . S
C745 C751 1.491 . S
C746 H737 0.950 . S
C746 C745 1.398 . S
C746 C747 1.391 . S
C747 H735 0.950 . S
C747 C743 1.393 . S
C747 C746 1.391 . S
C748 H738 0.950 . S
C748 C749 1.386 . S
C748 C750 1.391 . S
C749 C748 1.386 . S
C749 C753 1.393 . S
C750 H739 0.950 . S
C750 C748 1.391 . S
C750 C751 1.400 . S
C751 C745 1.491 . S
C751 C750 1.400 . S
C751 C752 1.398 . S
C752 H740 0.950 . S
C752 C751 1.398 . S
C752 C753 1.391 . S
C753 H741 0.950 . S
C753 C749 1.393 . S
C753 C752 1.391 . S
H754 C762 0.950 . S
H755 C767 0.950 . S
H756 C764 0.950 . S
H757 C766 0.950 . S
H758 C768 0.950 . S
H759 C770 0.950 . S
H760 C772 0.950 . S
H761 C773 0.950 . S
C762 H754 0.950 . S
C762 C763 1.386 . S
C762 C764 1.391 . S
C763 C762 1.386 . S
C763 C767 1.393 . S
C764 H756 0.950 . S
C764 C762 1.391 . S
C764 C765 1.400 . S
C765 C764 1.400 . S
C765 C766 1.398 . S
C765 C771 1.491 . S
C766 H757 0.950 . S
C766 C765 1.398 . S
C766 C767 1.391 . S
C767 H755 0.950 . S
C767 C763 1.393 . S
C767 C766 1.391 . S
C768 H758 0.950 . S
C768 C769 1.386 . S
C768 C770 1.391 . S
C769 C768 1.386 . S
C769 C773 1.393 . S
C770 H759 0.950 . S
C770 C768 1.391 . S
C770 C771 1.400 . S
C771 C765 1.491 . S
C771 C770 1.400 . S
C771 C772 1.398 . S
C772 H760 0.950 . S
C772 C771 1.398 . S
C772 C773 1.391 . S
C773 H761 0.950 . S
C773 C769 1.393 . S
C773 C772 1.391 . S
H774 C782 0.950 . S
H775 C787 0.956 . S
H776 C784 0.950 . S
H777 C786 0.950 . S
H778 C788 0.950 . S
H779 C790 0.950 . S
H780 C792 0.950 . S
H781 C793 0.950 . S
C782 H774 0.950 . S
C782 C783 1.386 . S
C782 C784 1.391 . S
C783 C782 1.386 . S
C783 C787 1.387 1_545 S
C784 H776 0.950 . S
C784 C782 1.391 . S
C784 C785 1.400 . S
C785 C784 1.400 . S
C785 C786 1.398 . S
C785 C791 1.491 . S
C786 H777 0.950 . S
C786 C785 1.398 . S
C786 C787 1.391 1_545 S
C787 H775 0.956 . S
C787 C783 1.387 1_565 S
C787 C786 1.391 1_565 S
C788 H778 0.950 . S
C788 C789 1.386 . S
C788 C790 1.391 . S
C789 C788 1.386 . S
C789 C793 1.393 . S
C790 H779 0.950 . S
C790 C788 1.391 . S
C790 C791 1.400 . S
C791 C785 1.491 . S
C791 C790 1.400 . S
C791 C792 1.398 . S
C792 H780 0.950 . S
C792 C791 1.398 . S
C792 C793 1.391 . S
C793 H781 0.950 . S
C793 C789 1.393 . S
C793 C792 1.391 . S
H794 C802 0.950 . S
H795 C807 0.950 . S
H796 C804 0.950 . S
H797 C806 0.950 . S
H798 C808 0.950 . S
H799 C810 0.950 . S
H800 C812 0.950 . S
H801 C813 0.950 . S
C802 H794 0.950 . S
C802 C803 1.386 . S
C802 C804 1.391 . S
C803 C802 1.386 . S
C803 C807 1.393 . S
C804 H796 0.950 . S
C804 C802 1.391 . S
C804 C805 1.400 . S
C805 C804 1.400 . S
C805 C806 1.398 . S
C805 C811 1.491 . S
C806 H797 0.950 . S
C806 C805 1.398 . S
C806 C807 1.391 . S
C807 H795 0.950 . S
C807 C803 1.393 . S
C807 C806 1.391 . S
C808 H798 0.950 . S
C808 C809 1.386 . S
C808 C810 1.391 . S
C809 C808 1.386 . S
C809 C813 1.393 . S
C810 H799 0.950 . S
C810 C808 1.391 . S
C810 C811 1.400 . S
C811 C805 1.491 . S
C811 C810 1.400 . S
C811 C812 1.398 . S
C812 H800 0.950 . S
C812 C811 1.398 . S
C812 C813 1.391 . S
C813 H801 0.950 . S
C813 C809 1.393 . S
C813 C812 1.391 . S
H814 C822 0.950 . S
H815 C827 0.950 . S
H816 C824 0.950 . S
H817 C826 0.950 . S
H818 C828 0.950 . S
H819 C830 0.950 1_554 S
H820 C832 0.950 . S
H821 C833 0.950 . S
C822 H814 0.950 . S
C822 C823 1.386 . S
C822 C824 1.391 . S
C823 C822 1.386 . S
C823 C827 1.393 . S
C824 H816 0.950 . S
C824 C822 1.391 . S
C824 C825 1.400 . S
C825 C824 1.400 . S
C825 C826 1.398 . S
C825 C831 1.491 . S
C826 H817 0.950 . S
C826 C825 1.398 . S
C826 C827 1.391 . S
C827 H815 0.950 . S
C827 C823 1.393 . S
C827 C826 1.391 . S
C828 H818 0.950 . S
C828 C829 1.386 1_554 S
C828 C830 1.391 1_554 S
C829 C828 1.386 1_556 S
C829 C833 1.393 . S
C830 H819 0.950 1_556 S
C830 C828 1.391 1_556 S
C830 C831 1.400 . S
C831 C825 1.491 . S
C831 C830 1.400 . S
C831 C832 1.398 . S
C832 H820 0.950 . S
C832 C831 1.398 . S
C832 C833 1.391 . S
C833 H821 0.950 . S
C833 C829 1.393 . S
C833 C832 1.391 . S
H834 C842 0.950 . S
H835 C847 0.950 . S
H836 C844 0.950 . S
H837 C846 0.950 . S
H838 C848 0.950 . S
H839 C850 0.950 . S
H840 C852 0.950 . S
H841 C853 0.950 . S
C842 H834 0.950 . S
C842 C843 1.386 . S
C842 C844 1.391 . S
C843 C842 1.386 . S
C843 C847 1.393 . S
C844 H836 0.950 . S
C844 C842 1.391 . S
C844 C845 1.400 . S
C845 C844 1.400 . S
C845 C846 1.398 . S
C845 C851 1.491 . S
C846 H837 0.950 . S
C846 C845 1.398 . S
C846 C847 1.391 . S
C847 H835 0.950 . S
C847 C843 1.393 . S
C847 C846 1.391 . S
C848 H838 0.950 . S
C848 C849 1.386 . S
C848 C850 1.391 . S
C849 C848 1.386 . S
C849 C853 1.393 . S
C850 H839 0.950 . S
C850 C848 1.391 . S
C850 C851 1.400 . S
C851 C845 1.491 . S
C851 C850 1.400 . S
C851 C852 1.398 . S
C852 H840 0.950 . S
C852 C851 1.398 . S
C852 C853 1.391 . S
C853 H841 0.950 . S
C853 C849 1.393 . S
C853 C852 1.391 . S
H854 C862 0.950 . S
H855 C867 0.950 . S
H856 C864 0.950 . S
H857 C866 0.950 . S
H858 C868 0.950 . S
H859 C870 0.950 . S
H860 C872 0.950 . S
H861 C873 0.950 . S
C862 H854 0.950 . S
C862 C863 1.386 . S
C862 C864 1.391 . S
C863 C862 1.386 . S
C863 C867 1.393 . S
C864 H856 0.950 . S
C864 C862 1.391 . S
C864 C865 1.400 . S
C865 C864 1.400 . S
C865 C866 1.398 . S
C865 C871 1.491 . S
C866 H857 0.950 . S
C866 C865 1.398 . S
C866 C867 1.391 . S
C867 H855 0.950 . S
C867 C863 1.393 . S
C867 C866 1.391 . S
C868 H858 0.950 . S
C868 C869 1.386 . S
C868 C870 1.391 1_655 S
C869 C868 1.386 . S
C869 C873 1.393 . S
C870 H859 0.950 . S
C870 C868 1.391 1_455 S
C870 C871 1.400 . S
C871 C865 1.491 . S
C871 C870 1.400 . S
C871 C872 1.398 . S
C872 H860 0.950 . S
C872 C871 1.398 . S
C872 C873 1.391 1_455 S
C873 H861 0.950 . S
C873 C869 1.393 . S
C873 C872 1.391 1_655 S
H874 C882 0.950 . S
H875 C887 0.950 . S
H876 C884 0.950 . S
H877 C886 0.950 . S
H878 C888 0.950 . S
H879 C890 0.950 . S
H880 C892 0.950 . S
H881 C893 0.950 . S
C882 H874 0.950 . S
C882 C883 1.386 . S
C882 C884 1.391 . S
C883 C882 1.386 . S
C883 C887 1.393 . S
C884 H876 0.950 . S
C884 C882 1.391 . S
C884 C885 1.400 . S
C885 C884 1.400 . S
C885 C886 1.398 . S
C885 C891 1.491 . S
C886 H877 0.950 . S
C886 C885 1.398 . S
C886 C887 1.391 . S
C887 H875 0.950 . S
C887 C883 1.393 . S
C887 C886 1.391 . S
C888 H878 0.950 . S
C888 C889 1.386 . S
C888 C890 1.391 . S
C889 C888 1.386 . S
C889 C893 1.393 . S
C890 H879 0.950 . S
C890 C888 1.391 . S
C890 C891 1.400 . S
C891 C885 1.491 . S
C891 C890 1.400 . S
C891 C892 1.398 . S
C892 H880 0.950 . S
C892 C891 1.398 . S
C892 C893 1.391 . S
C893 H881 0.950 . S
C893 C889 1.393 . S
C893 C892 1.391 . S
H894 C902 0.950 . S
H895 C907 0.950 . S
H896 C904 0.950 . S
H897 C906 0.950 . S
H898 C908 0.950 . S
H899 C910 0.950 . S
H900 C912 0.950 . S
H901 C913 0.950 . S
C902 H894 0.950 . S
C902 C903 1.386 . S
C902 C904 1.391 1_655 S
C903 C902 1.386 . S
C903 C907 1.393 . S
C904 H896 0.950 . S
C904 C902 1.391 1_455 S
C904 C905 1.400 . S
C905 C904 1.400 . S
C905 C906 1.398 . S
C905 C911 1.491 . S
C906 H897 0.950 . S
C906 C905 1.398 . S
C906 C907 1.391 1_455 S
C907 H895 0.950 . S
C907 C903 1.393 . S
C907 C906 1.391 1_655 S
C908 H898 0.950 . S
C908 C909 1.386 . S
C908 C910 1.391 . S
C909 C908 1.386 . S
C909 C913 1.393 . S
C910 H899 0.950 . S
C910 C908 1.391 . S
C910 C911 1.400 . S
C911 C905 1.491 . S
C911 C910 1.400 . S
C911 C912 1.398 . S
C912 H900 0.950 . S
C912 C911 1.398 . S
C912 C913 1.391 . S
C913 H901 0.950 . S
C913 C909 1.393 . S
C913 C912 1.391 . S
H914 C922 0.950 . S
H915 C927 0.950 . S
H916 C924 0.950 . S
H917 C926 0.950 . S
H918 C928 0.950 . S
H919 C930 0.950 . S
H920 C932 0.950 . S
H921 C933 0.950 . S
C922 H914 0.950 . S
C922 C923 1.386 . S
C922 C924 1.391 . S
C923 C922 1.386 . S
C923 C927 1.393 . S
C924 H916 0.950 . S
C924 C922 1.391 . S
C924 C925 1.400 . S
C925 C924 1.400 . S
C925 C926 1.398 . S
C925 C931 1.491 . S
C926 H917 0.950 . S
C926 C925 1.398 . S
C926 C927 1.391 . S
C927 H915 0.950 . S
C927 C923 1.393 . S
C927 C926 1.391 . S
C928 H918 0.950 . S
C928 C929 1.386 . S
C928 C930 1.391 . S
C929 C928 1.386 . S
C929 C933 1.393 . S
C930 H919 0.950 . S
C930 C928 1.391 . S
C930 C931 1.400 . S
C931 C925 1.491 . S
C931 C930 1.400 . S
C931 C932 1.398 . S
C932 H920 0.950 . S
C932 C931 1.398 . S
C932 C933 1.391 . S
C933 H921 0.950 . S
C933 C929 1.393 . S
C933 C932 1.391 . S
H934 C942 0.950 . S
H935 C947 0.950 . S
H936 C944 0.950 . S
H937 C946 0.950 . S
H938 C948 0.950 . S
H939 C950 0.950 . S
H940 C952 0.950 . S
H941 C953 0.950 . S
C942 H934 0.950 . S
C942 C943 1.386 . S
C942 C944 1.391 . S
C943 C942 1.386 . S
C943 C947 1.393 . S
C944 H936 0.950 . S
C944 C942 1.391 . S
C944 C945 1.400 . S
C945 C944 1.400 . S
C945 C946 1.398 . S
C945 C951 1.491 . S
C946 H937 0.950 . S
C946 C945 1.398 . S
C946 C947 1.391 . S
C947 H935 0.950 . S
C947 C943 1.393 . S
C947 C946 1.391 . S
C948 H938 0.950 . S
C948 C949 1.386 . S
C948 C950 1.391 . S
C949 C948 1.386 . S
C949 C953 1.393 . S
C950 H939 0.950 . S
C950 C948 1.391 . S
C950 C951 1.400 . S
C951 C945 1.491 . S
C951 C950 1.400 . S
C951 C952 1.398 . S
C952 H940 0.950 . S
C952 C951 1.398 . S
C952 C953 1.391 . S
C953 H941 0.950 . S
C953 C949 1.393 . S
C953 C952 1.391 . S
C243 C44 1.880 . S
C249 C5 1.985 . S
C263 C57 1.896 . S
C269 C16 1.887 . S
C283 C27 1.882 . S
C289 C66 1.944 . S
C303 C31 1.998 . S
C309 C70 1.894 . S
C323 C1 1.869 . S
C329 C40 1.940 . S
C343 C53 1.945 . S
C349 C23 1.948 . S
C363 C118 1.973 . S
C369 C83 1.981 . S
C383 C94 1.907 . S
C389 C131 1.992 . S
C403 C109 1.974 . S
C409 C144 1.966 . S
C423 C148 1.879 . S
C429 C105 1.896 . S
C443 C122 1.877 . S
C449 C79 1.879 . S
C463 C135 1.893 . S
C469 C101 1.967 . S
C483 C161 1.991 . S
C489 C200 1.889 . S
C503 C172 1.904 . S
C509 C213 1.905 . S
C523 C183 1.882 . S
C529 C222 1.952 . S
C543 C226 1.912 . S
C549 C187 2.007 1_554 S
C563 C196 1.957 . S
C569 C157 1.901 . S
C583 C209 1.963 . S
C589 C179 1.963 1_554 S
C603 C10 1.602 . S
C609 C96 1.607 . S
C623 C14 1.573 . S
C629 C107 1.558 . S
C643 C81 1.487 1_545 S
C649 C29 1.472 . S
C663 C36 1.658 . S
C669 C170 1.614 1_554 S
C683 C185 1.486 1_554 S
C689 C3 1.490 . S
C703 C166 1.600 . S
C709 C18 1.603 . S
C723 C211 1.598 . S
C729 C49 1.544 . S
C743 C62 1.597 . S
C749 C231 1.601 . S
C763 C198 1.534 . S
C769 C68 1.532 . S
C783 C133 1.620 1_546 S
C789 C75 1.561 . S
C803 C42 1.549 . S
C809 C146 1.550 . S
C823 C55 1.552 . S
C829 C120 1.545 1_556 S
C843 C88 1.544 1_545 S
C849 C174 1.583 . S
C863 C92 1.598 . S
C869 C192 1.640 . S
C883 C114 1.573 . S
C889 C159 1.535 . S
C903 C218 1.579 . S
C909 C153 1.582 . S
C923 C224 1.569 . S
C929 C127 1.528 . S
C943 C140 1.590 . S
C949 C205 1.574 . S
