# Generated by pormake.
# Topology pcb, (4)-cn, num edge types: 1
# Building blocks:
#     Node 0, Type 0, BuildingBlock: TATPOV_clean_sbu_0, # of connection points: 4
#     Node 1, Type 0, BuildingBlock: TATPOV_clean_sbu_0, # of connection points: 4
#     Node 2, Type 0, BuildingBlock: TATPOV_clean_sbu_0, # of connection points: 4
#     Node 3, Type 0, BuildingBlock: TATPOV_clean_sbu_0, # of connection points: 4
#     Node 4, Type 0, BuildingBlock: TATPOV_clean_sbu_0, # of connection points: 4
#     Node 5, Type 0, BuildingBlock: TATPOV_clean_sbu_0, # of connection points: 4
#     Node 6, Type 0, BuildingBlock: TATPOV_clean_sbu_0, # of connection points: 4
#     Node 7, Type 0, BuildingBlock: TATPOV_clean_sbu_0, # of connection points: 4
#     Node 8, Type 0, BuildingBlock: TATPOV_clean_sbu_0, # of connection points: 4
#     Node 9, Type 0, BuildingBlock: TATPOV_clean_sbu_0, # of connection points: 4
#     Node 10, Type 0, BuildingBlock: TATPOV_clean_sbu_0, # of connection points: 4
#     Node 11, Type 0, BuildingBlock: TATPOV_clean_sbu_0, # of connection points: 4
#     Node 12, Type 0, BuildingBlock: TATPOV_clean_sbu_0, # of connection points: 4
#     Node 13, Type 0, BuildingBlock: TATPOV_clean_sbu_0, # of connection points: 4
#     Node 14, Type 0, BuildingBlock: TATPOV_clean_sbu_0, # of connection points: 4
#     Node 15, Type 0, BuildingBlock: TATPOV_clean_sbu_0, # of connection points: 4
#     Edge 16, Type (0, 0), BuildingBlock: AJUNOK_clean_linker_0, # of connection points: 2
#     Edge 17, Type (0, 0), BuildingBlock: AJUNOK_clean_linker_0, # of connection points: 2
#     Edge 18, Type (0, 0), BuildingBlock: AJUNOK_clean_linker_0, # of connection points: 2
#     Edge 19, Type (0, 0), BuildingBlock: AJUNOK_clean_linker_0, # of connection points: 2
#     Edge 20, Type (0, 0), BuildingBlock: AJUNOK_clean_linker_0, # of connection points: 2
#     Edge 21, Type (0, 0), BuildingBlock: AJUNOK_clean_linker_0, # of connection points: 2
#     Edge 22, Type (0, 0), BuildingBlock: AJUNOK_clean_linker_0, # of connection points: 2
#     Edge 23, Type (0, 0), BuildingBlock: AJUNOK_clean_linker_0, # of connection points: 2
#     Edge 24, Type (0, 0), BuildingBlock: AJUNOK_clean_linker_0, # of connection points: 2
#     Edge 25, Type (0, 0), BuildingBlock: AJUNOK_clean_linker_0, # of connection points: 2
#     Edge 26, Type (0, 0), BuildingBlock: AJUNOK_clean_linker_0, # of connection points: 2
#     Edge 27, Type (0, 0), BuildingBlock: AJUNOK_clean_linker_0, # of connection points: 2
#     Edge 28, Type (0, 0), BuildingBlock: AJUNOK_clean_linker_0, # of connection points: 2
#     Edge 29, Type (0, 0), BuildingBlock: AJUNOK_clean_linker_0, # of connection points: 2
#     Edge 30, Type (0, 0), BuildingBlock: AJUNOK_clean_linker_0, # of connection points: 2
#     Edge 31, Type (0, 0), BuildingBlock: AJUNOK_clean_linker_0, # of connection points: 2
#     Edge 32, Type (0, 0), BuildingBlock: AJUNOK_clean_linker_0, # of connection points: 2
#     Edge 33, Type (0, 0), BuildingBlock: AJUNOK_clean_linker_0, # of connection points: 2
#     Edge 34, Type (0, 0), BuildingBlock: AJUNOK_clean_linker_0, # of connection points: 2
#     Edge 35, Type (0, 0), BuildingBlock: AJUNOK_clean_linker_0, # of connection points: 2
#     Edge 36, Type (0, 0), BuildingBlock: AJUNOK_clean_linker_0, # of connection points: 2
#     Edge 37, Type (0, 0), BuildingBlock: AJUNOK_clean_linker_0, # of connection points: 2
#     Edge 38, Type (0, 0), BuildingBlock: AJUNOK_clean_linker_0, # of connection points: 2
#     Edge 39, Type (0, 0), BuildingBlock: AJUNOK_clean_linker_0, # of connection points: 2
#     Edge 40, Type (0, 0), BuildingBlock: AJUNOK_clean_linker_0, # of connection points: 2
#     Edge 41, Type (0, 0), BuildingBlock: AJUNOK_clean_linker_0, # of connection points: 2
#     Edge 42, Type (0, 0), BuildingBlock: AJUNOK_clean_linker_0, # of connection points: 2
#     Edge 43, Type (0, 0), BuildingBlock: AJUNOK_clean_linker_0, # of connection points: 2
#     Edge 44, Type (0, 0), BuildingBlock: AJUNOK_clean_linker_0, # of connection points: 2
#     Edge 45, Type (0, 0), BuildingBlock: AJUNOK_clean_linker_0, # of connection points: 2
#     Edge 46, Type (0, 0), BuildingBlock: AJUNOK_clean_linker_0, # of connection points: 2
#     Edge 47, Type (0, 0), BuildingBlock: AJUNOK_clean_linker_0, # of connection points: 2
# Relax obj value: 0.182
# Max RMSD: 0.083
# Mean RMSD: 0.083
data_MOF--net-pcb--node1-TATPOV_clean_sbu_0--edge1-AJUNOK_clean_linker_0
_symmetry_space_group_name_H-M    P1
_symmetry_Int_Tables_number       1
_symmetry_cell_setting            triclinic
loop_
_symmetry_equiv_pos_as_xyz
'x, y, z'
_cell_length_a     34.911957
_cell_length_b     34.132197
_cell_length_c     34.199084
_cell_angle_alpha  89.840995
_cell_angle_beta   90.016594
_cell_angle_gamma 89.816712
loop_
_atom_site_label
_atom_site_type_symbol
_atom_site_fract_x
_atom_site_fract_y
_atom_site_fract_z
_atom_type_partial_charge
Zn0 Zn 0.10292 0.12097 0.21716 0.0
Zn1 Zn 0.15492 0.169 0.21211 0.0
O2 O 0.10437 0.19459 0.2325 0.0
O3 O 0.06576 0.14841 0.25204 0.0
O4 O 0.19448 0.20691 0.23037 0.0
O5 O 0.13122 0.07415 0.23639 0.0
O6 O 0.17875 0.11428 0.22528 0.0
C7 C 0.07262 0.18447 0.24789 0.0
C8 C 0.12347 0.15248 0.13693 0.0
O9 O 0.15068 0.17088 0.15337 0.0
O10 O 0.10075 0.13175 0.15742 0.0
C11 C 0.20386 0.23919 0.21454 0.0
O12 O 0.18837 0.24956 0.18106 0.0
C13 C 0.16682 0.08005 0.23398 0.0
Zn14 Zn 0.92153 0.1634 0.12482 0.0
Zn15 Zn 0.86275 0.20151 0.14401 0.0
O16 O 0.90769 0.22072 0.18026 0.0
O17 O 0.95907 0.19608 0.15256 0.0
O18 O 0.81876 0.23345 0.16507 0.0
O19 O 0.91339 0.17328 0.0683 0.0
O20 O 0.86466 0.21155 0.08332 0.0
C21 C 0.94406 0.21781 0.17812 0.0
C22 C 0.86503 0.11392 0.15799 0.0
O23 O 0.84518 0.14506 0.15461 0.0
O24 O 0.90044 0.11446 0.15007 0.0
C25 C 0.81271 0.22978 0.2016 0.0
O26 O 0.83444 0.20548 0.22165 0.0
C27 C 0.88688 0.19629 0.05779 0.0
Zn28 Zn 0.86776 0.91828 0.06073 0.0
Zn29 Zn 0.86099 0.87255 0.12001 0.0
O30 O 0.9196 0.87141 0.11926 0.0
O31 O 0.92542 0.91149 0.06918 0.0
O32 O 0.84285 0.83961 0.16481 0.0
O33 O 0.84104 0.96384 0.08432 0.0
O34 O 0.84237 0.9277 0.13748 0.0
C35 C 0.94078 0.8906 0.09569 0.0
C36 C 0.83015 0.85124 0.03722 0.0
O37 O 0.83766 0.84254 0.07266 0.0
O38 O 0.83914 0.88449 0.0239 0.0
C39 C 0.84262 0.80243 0.16385 0.0
O40 O 0.8592 0.7844 0.13444 0.0
C41 C 0.83517 0.96022 0.12056 0.0
Zn42 Zn 0.18728 0.91371 0.09383 0.0
Zn43 Zn 0.18093 0.85944 0.14488 0.0
O44 O 0.12313 0.86403 0.13819 0.0
O45 O 0.12838 0.91019 0.09347 0.0
O46 O 0.19365 0.816 0.18251 0.0
O47 O 0.21684 0.884 0.05357 0.0
O48 O 0.20274 0.83632 0.09381 0.0
C49 C 0.10749 0.88769 0.11403 0.0
C50 C 0.21292 0.94329 0.16348 0.0
O51 O 0.201 0.90934 0.1732 0.0
O52 O 0.21309 0.95302 0.12781 0.0
C53 C 0.19282 0.82077 0.21928 0.0
O54 O 0.17862 0.85358 0.2332 0.0
C55 C 0.21589 0.84774 0.061 0.0
Zn56 Zn 0.09589 0.80268 0.88749 0.0
Zn57 Zn 0.14707 0.80863 0.83628 0.0
O58 O 0.09923 0.78138 0.81112 0.0
O59 O 0.06188 0.76532 0.85997 0.0
O60 O 0.1903 0.79284 0.80066 0.0
O61 O 0.09072 0.8622 0.87723 0.0
O62 O 0.13805 0.86744 0.8348 0.0
C63 C 0.069 0.76469 0.82381 0.0
C64 C 0.16204 0.78624 0.92447 0.0
O65 O 0.17211 0.79642 0.89015 0.0
O66 O 0.12687 0.78339 0.93243 0.0
C67 C 0.2011 0.75801 0.80833 0.0
O68 O 0.18249 0.73822 0.83528 0.0
C69 C 0.11135 0.88316 0.8548 0.0
Zn70 Zn 0.05074 0.11841 0.90586 0.0
Zn71 Zn 0.11849 0.13403 0.88298 0.0
O72 O 0.08242 0.16554 0.84604 0.0
O73 O 0.02605 0.16013 0.87371 0.0
O74 O 0.16887 0.15306 0.86188 0.0
O75 O 0.0621 0.12951 0.96131 0.0
O76 O 0.11973 0.1474 0.94291 0.0
C77 C 0.04711 0.17475 0.84747 0.0
C78 C 0.08897 0.05087 0.87347 0.0
O79 O 0.11729 0.07439 0.87197 0.0
O80 O 0.0568 0.06321 0.88542 0.0
C81 C 0.17598 0.14616 0.82609 0.0
O82 O 0.1527 0.12321 0.80655 0.0
C83 C 0.09478 0.14278 0.96988 0.0
Zn84 Zn 0.90435 0.1146 0.83619 0.0
Zn85 Zn 0.84725 0.14666 0.81574 0.0
O86 O 0.89369 0.17412 0.78947 0.0
O87 O 0.93244 0.12441 0.78573 0.0
O88 O 0.8026 0.17313 0.79002 0.0
O89 O 0.88139 0.0627 0.84545 0.0
O90 O 0.8367 0.08676 0.80698 0.0
C91 C 0.92513 0.15967 0.77725 0.0
C92 C 0.87687 0.16719 0.89415 0.0
O93 O 0.84628 0.16335 0.8741 0.0
O94 O 0.9078 0.15251 0.88143 0.0
C95 C 0.79613 0.20902 0.79701 0.0
O96 O 0.81781 0.22738 0.82242 0.0
C97 C 0.85185 0.05774 0.82487 0.0
Zn98 Zn 0.88792 0.82951 0.85154 0.0
Zn99 Zn 0.84038 0.80823 0.8088 0.0
O100 O 0.89088 0.77976 0.79072 0.0
O101 O 0.93048 0.82375 0.81327 0.0
O102 O 0.79904 0.78568 0.77493 0.0
O103 O 0.87783 0.78802 0.89232 0.0
O104 O 0.82186 0.79569 0.86506 0.0
C105 C 0.92453 0.79417 0.79211 0.0
C106 C 0.84434 0.89285 0.82714 0.0
O107 O 0.83806 0.8685 0.79971 0.0
O108 O 0.86225 0.88159 0.85727 0.0
C109 C 0.77128 0.8053 0.7607 0.0
O110 O 0.76882 0.84305 0.76757 0.0
C111 C 0.84181 0.78531 0.89457 0.0
Zn112 Zn 0.64674 0.58819 0.57154 0.0
Zn113 Zn 0.65241 0.64317 0.62375 0.0
O114 O 0.59395 0.63873 0.62433 0.0
O115 O 0.58884 0.59164 0.58088 0.0
O116 O 0.6668 0.68245 0.6643 0.0
O117 O 0.67838 0.54972 0.6014 0.0
O118 O 0.6777 0.59383 0.64787 0.0
C119 C 0.57318 0.61527 0.60469 0.0
C120 C 0.67973 0.65518 0.53843 0.0
O121 O 0.67296 0.66833 0.57257 0.0
O122 O 0.67197 0.62005 0.53017 0.0
C123 C 0.66894 0.71919 0.6589 0.0
O124 O 0.65731 0.73414 0.6255 0.0
C125 C 0.68675 0.55974 0.6359 0.0
Zn126 Zn 0.33079 0.57707 0.59348 0.0
Zn127 Zn 0.32873 0.63066 0.64717 0.0
O128 O 0.38705 0.6289 0.64243 0.0
O129 O 0.38916 0.58397 0.59645 0.0
O130 O 0.3147 0.67309 0.68491 0.0
O131 O 0.30064 0.60741 0.55406 0.0
O132 O 0.30531 0.65459 0.59708 0.0
C133 C 0.40639 0.60756 0.61908 0.0
C134 C 0.2983 0.54619 0.66145 0.0
O135 O 0.30727 0.58018 0.67372 0.0
O136 O 0.30414 0.53717 0.62615 0.0
C137 C 0.31306 0.66794 0.72159 0.0
O138 O 0.32534 0.63461 0.73637 0.0
C139 C 0.29512 0.64276 0.5634 0.0
Zn140 Zn 0.35204 0.3524 0.66859 0.0
Zn141 Zn 0.31609 0.3102 0.70399 0.0
O142 O 0.37186 0.29966 0.72339 0.0
O143 O 0.39634 0.31494 0.66666 0.0
O144 O 0.28351 0.27507 0.73747 0.0
O145 O 0.35035 0.39564 0.70839 0.0
O146 O 0.29501 0.3668 0.71371 0.0
C147 C 0.39994 0.29863 0.69963 0.0
C148 C 0.30547 0.31766 0.61782 0.0
O149 O 0.30886 0.29306 0.64581 0.0
O150 O 0.31465 0.35288 0.62389 0.0
C151 C 0.28147 0.2383 0.73222 0.0
O152 O 0.30007 0.22242 0.70284 0.0
C153 C 0.31542 0.39747 0.71776 0.0
Zn154 Zn 0.58428 0.39168 0.65857 0.0
Zn155 Zn 0.63328 0.33664 0.66287 0.0
O156 O 0.58307 0.31478 0.68828 0.0
O157 O 0.54319 0.36469 0.68751 0.0
O158 O 0.67189 0.29665 0.6805 0.0
O159 O 0.59012 0.38615 0.59927 0.0
O160 O 0.63119 0.33722 0.60273 0.0
C161 C 0.5506 0.3297 0.6968 0.0
C162 C 0.64924 0.42193 0.69124 0.0
O163 O 0.66016 0.38769 0.68145 0.0
O164 O 0.61447 0.43138 0.68733 0.0
C165 C 0.67773 0.29863 0.71716 0.0
O166 O 0.65822 0.32439 0.73763 0.0
C167 C 0.61154 0.3613 0.58228 0.0
Zn168 Zn 0.59026 0.40784 0.33738 0.0
Zn169 Zn 0.64591 0.36113 0.33013 0.0
O170 O 0.5977 0.3323 0.30851 0.0
O171 O 0.55355 0.3779 0.30522 0.0
O172 O 0.68852 0.32556 0.31241 0.0
O173 O 0.61428 0.4541 0.31328 0.0
O174 O 0.66465 0.41559 0.30888 0.0
C175 C 0.56382 0.34293 0.29928 0.0
C176 C 0.61923 0.37588 0.41189 0.0
O177 O 0.64423 0.35915 0.39039 0.0
O178 O 0.59384 0.39747 0.39613 0.0
C179 C 0.69307 0.3236 0.27556 0.0
O180 O 0.67017 0.34427 0.25296 0.0
C181 C 0.64872 0.44887 0.30346 0.0
Zn182 Zn 0.62923 0.6574 0.34019 0.0
Zn183 Zn 0.67017 0.69199 0.30122 0.0
O184 O 0.6156 0.71518 0.28962 0.0
O185 O 0.58609 0.66012 0.30143 0.0
O186 O 0.70722 0.72378 0.26955 0.0
O187 O 0.63192 0.69643 0.38422 0.0
O188 O 0.68883 0.70025 0.35831 0.0
C189 C 0.58538 0.69436 0.28739 0.0
C190 C 0.67852 0.6058 0.30712 0.0
O191 O 0.67763 0.63425 0.28292 0.0
O192 O 0.6644 0.6106 0.34076 0.0
C193 C 0.74049 0.7107 0.26175 0.0
O194 O 0.75007 0.67524 0.27322 0.0
C195 C 0.66683 0.70541 0.38757 0.0
Zn196 Zn 0.40395 0.67956 0.39356 0.0
Zn197 Zn 0.35425 0.67804 0.33998 0.0
O198 O 0.40429 0.70186 0.31538 0.0
O199 O 0.44401 0.70847 0.36466 0.0
O200 O 0.31208 0.69576 0.30326 0.0
O201 O 0.39988 0.61943 0.38944 0.0
O202 O 0.35833 0.61834 0.34099 0.0
C203 C 0.43668 0.71283 0.32878 0.0
C204 C 0.33964 0.70523 0.42697 0.0
O205 O 0.32971 0.69328 0.39325 0.0
O206 O 0.37482 0.70746 0.43508 0.0
C207 C 0.30051 0.73022 0.31137 0.0
O208 O 0.3183 0.74988 0.33885 0.0
C209 C 0.37929 0.60011 0.36566 0.0
Zn210 Zn 0.41033 0.35743 0.42238 0.0
Zn211 Zn 0.35243 0.34697 0.37539 0.0
O212 O 0.39799 0.31957 0.34761 0.0
O213 O 0.44469 0.3233 0.39044 0.0
O214 O 0.30913 0.33136 0.34064 0.0
O215 O 0.38377 0.333 0.46786 0.0
O216 O 0.33358 0.32626 0.42954 0.0
C217 C 0.43219 0.31148 0.35786 0.0
C218 C 0.37996 0.42996 0.38754 0.0
O219 O 0.35593 0.40701 0.3715 0.0
O220 O 0.40542 0.41596 0.41017 0.0
C221 C 0.30973 0.33492 0.30365 0.0
O222 O 0.33875 0.35277 0.28696 0.0
C223 C 0.34966 0.32188 0.46276 0.0
C224 C 0.25846 0.28476 0.29819 0.0
C225 C 0.28105 0.31357 0.27997 0.0
C226 C 0.23365 0.26122 0.27663 0.0
C227 C 0.22985 0.26573 0.23594 0.0
H228 H 0.26058 0.27945 0.32936 0.0
H229 H 0.21734 0.23918 0.29219 0.0
S230 S 0.28068 0.33839 0.1742 0.0
N231 N 0.29697 0.34636 0.21882 0.0
N232 N 0.24958 0.30224 0.17824 0.0
C233 C 0.25124 0.29522 0.21733 0.0
C234 C 0.27704 0.31905 0.23934 0.0
C235 C 0.72912 0.29963 0.21707 0.0
C236 C 0.72365 0.299 0.25788 0.0
C237 C 0.75781 0.27714 0.19923 0.0
C238 C 0.78226 0.25291 0.22138 0.0
H239 H 0.7112 0.3178 0.19853 0.0
H240 H 0.76078 0.27887 0.16775 0.0
S241 S 0.77989 0.24036 0.32941 0.0
N242 N 0.74511 0.27186 0.32002 0.0
N243 N 0.79896 0.22955 0.28661 0.0
C244 C 0.77705 0.25182 0.26228 0.0
C245 C 0.74782 0.27485 0.28047 0.0
C246 C 0.82147 0.73891 0.19342 0.0
C247 C 0.81893 0.78006 0.19211 0.0
C248 C 0.79663 0.71674 0.21682 0.0
C249 C 0.76789 0.73485 0.23928 0.0
H250 H 0.84238 0.72356 0.17572 0.0
H251 H 0.79925 0.68511 0.21634 0.0
S252 S 0.75077 0.84175 0.24866 0.0
N253 N 0.78666 0.83813 0.21747 0.0
N254 N 0.73976 0.79634 0.26081 0.0
C255 C 0.7657 0.77596 0.23921 0.0
C256 C 0.79131 0.7986 0.21585 0.0
C257 C 0.26182 0.7402 0.25042 0.0
C258 C 0.26867 0.74915 0.28984 0.0
C259 C 0.23546 0.7621 0.22829 0.0
C260 C 0.21479 0.79354 0.24489 0.0
H261 H 0.2783 0.71748 0.23602 0.0
H262 H 0.2326 0.75534 0.1975 0.0
S263 S 0.21743 0.82367 0.34911 0.0
N264 N 0.24924 0.78795 0.346 0.0
N265 N 0.19955 0.8288 0.30471 0.0
C266 C 0.2193 0.80063 0.28513 0.0
C267 C 0.24633 0.77856 0.30751 0.0
C268 C 0.27655 0.6826 0.78247 0.0
C269 C 0.28974 0.69508 0.74569 0.0
C270 C 0.24883 0.70398 0.80286 0.0
C271 C 0.23335 0.73894 0.78756 0.0
H272 H 0.28627 0.65511 0.79493 0.0
H273 H 0.23878 0.6923 0.83049 0.0
S274 S 0.262 0.78728 0.69484 0.0
N275 N 0.28805 0.74685 0.6965 0.0
N276 N 0.23595 0.78714 0.73514 0.0
C277 C 0.24807 0.75322 0.75205 0.0
C278 C 0.27626 0.73127 0.73106 0.0
C279 C 0.21778 0.1555 0.76747 0.0
C280 C 0.20632 0.16795 0.80491 0.0
C281 C 0.24299 0.17784 0.74466 0.0
C282 C 0.25724 0.21385 0.75813 0.0
H283 H 0.20663 0.12859 0.75528 0.0
H284 H 0.25034 0.16736 0.71574 0.0
S285 S 0.23833 0.25848 0.85514 0.0
N286 N 0.21307 0.21768 0.85533 0.0
N287 N 0.25998 0.25985 0.81226 0.0
C288 C 0.24702 0.2261 0.79599 0.0
C289 C 0.22175 0.20308 0.81945 0.0
C290 C 0.7508 0.26532 0.79208 0.0
C291 C 0.76525 0.23034 0.77623 0.0
C292 C 0.72221 0.28676 0.77287 0.0
C293 C 0.70733 0.27444 0.7367 0.0
H294 H 0.76153 0.27626 0.81969 0.0
H295 H 0.71216 0.31358 0.78632 0.0
S296 S 0.73532 0.18475 0.68263 0.0
N297 N 0.76229 0.184 0.7223 0.0
N298 N 0.70885 0.22479 0.68588 0.0
C299 C 0.72145 0.23949 0.72043 0.0
C300 C 0.75028 0.21729 0.74031 0.0
C301 C 0.73757 0.74455 0.74054 0.0
C302 C 0.74221 0.78523 0.73659 0.0
C303 C 0.71231 0.72396 0.71658 0.0
C304 C 0.69097 0.74307 0.68718 0.0
H305 H 0.75397 0.72824 0.76205 0.0
H306 H 0.71065 0.69249 0.72038 0.0
S307 S 0.69073 0.84992 0.66662 0.0
N308 N 0.72174 0.84447 0.70271 0.0
N309 N 0.67447 0.80558 0.65708 0.0
C310 C 0.69424 0.78403 0.68382 0.0
C311 C 0.71978 0.80515 0.70867 0.0
C312 C 0.07356 0.14591 0.03929 0.0
C313 C 0.10334 0.15028 0.01181 0.0
C314 C 0.08045 0.14783 0.07941 0.0
C315 C 0.11736 0.15468 0.09412 0.0
H316 H 0.04453 0.13986 0.02994 0.0
H317 H 0.05655 0.1433 0.09911 0.0
S318 S 0.205 0.17158 0.03517 0.0
N319 N 0.17106 0.16418 0.00235 0.0
N320 N 0.18391 0.16836 0.07829 0.0
C321 C 0.14723 0.16116 0.06724 0.0
C322 C 0.14025 0.15883 0.026 0.0
C323 C 0.8438 0.1838 0.95751 0.0
C324 C 0.87674 0.18507 0.93371 0.0
C325 C 0.84601 0.19198 0.99783 0.0
C326 C 0.88118 0.20174 0.01534 0.0
H327 H 0.81689 0.17353 0.94565 0.0
H328 H 0.82092 0.18727 0.01584 0.0
S329 S 0.97379 0.21684 0.96459 0.0
N330 N 0.94406 0.20311 0.92972 0.0
N331 N 0.9481 0.21773 0.00511 0.0
C332 C 0.91325 0.20686 0.99114 0.0
C333 C 0.91106 0.19873 0.95039 0.0
C334 C 0.79627 0.81422 0.94166 0.0
C335 C 0.82475 0.78594 0.9341 0.0
C336 C 0.79377 0.83205 0.9784 0.0
C337 C 0.81873 0.82116 0.00881 0.0
H338 H 0.77981 0.82689 0.91789 0.0
H339 H 0.7755 0.85758 0.98155 0.0
S340 S 0.88854 0.73932 0.00735 0.0
N341 N 0.87138 0.74111 0.96235 0.0
N342 N 0.86566 0.77379 0.03193 0.0
C343 C 0.84189 0.78788 0.0037 0.0
C344 C 0.84507 0.7703 0.96604 0.0
C345 C 0.23147 0.83371 0.99145 0.0
C346 C 0.21823 0.81992 0.02786 0.0
C347 C 0.21745 0.81801 0.95648 0.0
C348 C 0.18961 0.78833 0.95707 0.0
H349 H 0.24898 0.85982 0.98985 0.0
H350 H 0.22464 0.83274 0.92937 0.0
S351 S 0.15726 0.73239 0.04381 0.0
N352 N 0.18494 0.76712 0.06177 0.0
N353 N 0.15783 0.7385 0.9959 0.0
C354 C 0.18181 0.76964 0.99276 0.0
C355 C 0.19653 0.78517 0.02834 0.0
C356 C 0.00425 0.19881 0.26251 0.0
C357 C 0.03942 0.21179 0.24697 0.0
C358 C 0.96954 0.20844 0.24408 0.0
C359 C 0.96936 0.23106 0.20971 0.0
H360 H 0.00388 0.17647 0.28507 0.0
H361 H 0.94397 0.19277 0.25284 0.0
S362 S 0.05121 0.28542 0.16795 0.0
N363 N 0.07004 0.25924 0.20384 0.0
N364 N 0.00487 0.27585 0.16849 0.0
C365 C 0.00296 0.25095 0.1995 0.0
C366 C 0.03821 0.24174 0.21855 0.0
C367 C 0.80846 0.02724 0.12698 0.0
C368 C 0.83012 0.99645 0.1433 0.0
C369 C 0.81616 0.0663 0.13664 0.0
C370 C 0.84638 0.07555 0.16211 0.0
H371 H 0.78832 0.02138 0.10362 0.0
H372 H 0.80165 0.08926 0.12038 0.0
S373 S 0.90531 0.00551 0.21923 0.0
N374 N 0.87758 0.97756 0.19193 0.0
N375 N 0.89304 0.05115 0.20886 0.0
C376 C 0.86466 0.04499 0.1824 0.0
C377 C 0.85617 0.00523 0.17334 0.0
C378 C 0.00126 0.86434 0.1265 0.0
C379 C 0.9833 0.88986 0.09967 0.0
C380 C 0.04129 0.86381 0.13107 0.0
C381 C 0.06505 0.88889 0.10911 0.0
H382 H 0.98431 0.84451 0.14415 0.0
H383 H 0.05363 0.84353 0.15201 0.0
S384 S 0.03237 0.96194 0.03523 0.0
N385 N 0.99266 0.94124 0.05104 0.0
N386 N 0.06732 0.94034 0.05962 0.0
C387 C 0.0474 0.91466 0.08225 0.0
C388 C 0.00676 0.91512 0.07753 0.0
C389 C 0.17913 0.00878 0.24335 0.0
C390 C 0.19224 0.04539 0.22988 0.0
C391 C 0.19097 0.9739 0.22539 0.0
C392 C 0.2159 0.97471 0.19309 0.0
H393 H 0.15631 0.0073 0.26476 0.0
H394 H 0.17665 0.947 0.23363 0.0
S395 S 0.26822 0.06137 0.15572 0.0
N396 N 0.23928 0.07913 0.18954 0.0
N397 N 0.26087 0.0136 0.15534 0.0
C398 C 0.23414 0.01025 0.18403 0.0
C399 C 0.22249 0.04571 0.20266 0.0
C400 C 0.98819 0.7937 0.76133 0.0
C401 C 0.95867 0.77229 0.77937 0.0
C402 C 0.02673 0.78564 0.76983 0.0
C403 C 0.03649 0.75659 0.79738 0.0
H404 H 0.98142 0.82026 0.74529 0.0
H405 H 0.04809 0.80634 0.75984 0.0
S406 S 0.9705 0.68421 0.84153 0.0
N407 N 0.94222 0.71426 0.8168 0.0
N408 N 0.01463 0.69972 0.83373 0.0
C409 C 0.00775 0.7304 0.80929 0.0
C410 C 0.96861 0.73817 0.80001 0.0
C411 C 0.13578 0.95221 0.8513 0.0
C412 C 0.10482 0.92605 0.85393 0.0
C413 C 0.13035 0.99275 0.85628 0.0
C414 C 0.09372 0.0086 0.86371 0.0
H415 H 0.16461 0.94114 0.84721 0.0
H416 H 0.15526 0.01158 0.85558 0.0
S417 S 0.00251 0.95256 0.86698 0.0
N418 N 0.03592 0.91896 0.86022 0.0
N419 N 0.0254 0.99473 0.86888 0.0
C420 C 0.06225 0.98274 0.86386 0.0
C421 C 0.06789 0.94161 0.85918 0.0
C422 C 0.99659 0.21817 0.82202 0.0
C423 C 0.02768 0.1932 0.81395 0.0
C424 C 0.96257 0.21518 0.80049 0.0
C425 C 0.95867 0.18551 0.77222 0.0
H426 H 0.99621 0.23505 0.84882 0.0
H427 H 0.93745 0.23001 0.81188 0.0
S428 S 0.0376 0.12824 0.7282 0.0
N429 N 0.05737 0.15052 0.76596 0.0
N430 N 0.99264 0.14346 0.72677 0.0
C431 C 0.99246 0.16888 0.75726 0.0
C432 C 0.0274 0.17267 0.77847 0.0
C433 C 0.83937 0.95505 0.78828 0.0
C434 C 0.8343 0.93474 0.82377 0.0
C435 C 0.84061 0.99627 0.78758 0.0
C436 C 0.83646 0.0179 0.82227 0.0
H437 H 0.8458 0.93913 0.76171 0.0
H438 H 0.84828 0.01097 0.7606 0.0
S439 S 0.81492 0.97875 0.92086 0.0
N440 N 0.81906 0.93953 0.893 0.0
N441 N 0.8218 0.01661 0.89155 0.0
C442 C 0.82744 0.998 0.85691 0.0
C443 C 0.82618 0.95641 0.85769 0.0
C444 C 0.71161 0.68183 0.43824 0.0
C445 C 0.68236 0.70814 0.42748 0.0
C446 C 0.71452 0.66828 0.47683 0.0
C447 C 0.68908 0.68159 0.50579 0.0
H448 H 0.72875 0.66751 0.41603 0.0
H449 H 0.7339 0.64418 0.48306 0.0
S450 S 0.61504 0.75863 0.49428 0.0
N451 N 0.63285 0.75282 0.44991 0.0
N452 N 0.6394 0.72846 0.52289 0.0
C453 C 0.6642 0.71266 0.49664 0.0
C454 C 0.66058 0.72575 0.45719 0.0
C455 C 0.31101 0.70541 0.53106 0.0
C456 C 0.28846 0.67133 0.53165 0.0
C457 C 0.32294 0.72164 0.49546 0.0
C458 C 0.31207 0.70455 0.45976 0.0
H459 H 0.32426 0.71602 0.55763 0.0
H460 H 0.34477 0.74414 0.49603 0.0
S461 S 0.24011 0.62593 0.44684 0.0
N462 N 0.24629 0.6289 0.49462 0.0
N463 N 0.26767 0.66015 0.42756 0.0
C464 C 0.28282 0.67626 0.46039 0.0
C465 C 0.27125 0.65931 0.49661 0.0
C466 C 0.29651 0.33062 0.51009 0.0
C467 C 0.32808 0.30854 0.49728 0.0
C468 C 0.28493 0.32926 0.54938 0.0
C469 C 0.30408 0.30516 0.57664 0.0
H470 H 0.28365 0.35234 0.49096 0.0
H471 H 0.26366 0.35017 0.55933 0.0
S472 S 0.38323 0.23593 0.55526 0.0
N473 N 0.37448 0.25782 0.51303 0.0
N474 N 0.35189 0.25422 0.5865 0.0
C475 C 0.3321 0.27908 0.56277 0.0
C476 C 0.34447 0.28115 0.52309 0.0
C477 C 0.58966 0.3891 0.47708 0.0
C478 C 0.61846 0.37026 0.45519 0.0
C479 C 0.58748 0.38516 0.51771 0.0
C480 C 0.61393 0.36212 0.53875 0.0
H481 H 0.56842 0.40742 0.46283 0.0
H482 H 0.56476 0.40072 0.53272 0.0
S483 S 0.69465 0.30568 0.49576 0.0
N484 N 0.67387 0.32686 0.45776 0.0
N485 N 0.66977 0.31949 0.53445 0.0
C486 C 0.64266 0.3425 0.51737 0.0
C487 C 0.64495 0.3466 0.47564 0.0
C488 C 0.50898 0.58803 0.58738 0.0
C489 C 0.53076 0.61458 0.60956 0.0
C490 C 0.46913 0.58597 0.59105 0.0
C491 C 0.44895 0.61035 0.61709 0.0
H492 H 0.52272 0.56845 0.5668 0.0
H493 H 0.4541 0.56498 0.57304 0.0
S494 S 0.49217 0.68505 0.68232 0.0
N495 N 0.52902 0.66588 0.65885 0.0
N496 N 0.45397 0.66203 0.66573 0.0
C497 C 0.47026 0.63706 0.63966 0.0
C498 C 0.51109 0.63917 0.63589 0.0
C499 C 0.31519 0.50632 0.71947 0.0
C500 C 0.28937 0.51413 0.68888 0.0
C501 C 0.31966 0.4681 0.73402 0.0
C502 C 0.29793 0.43692 0.71889 0.0
H503 H 0.33553 0.52845 0.72847 0.0
H504 H 0.34329 0.46214 0.75373 0.0
S505 S 0.21901 0.44514 0.64678 0.0
N506 N 0.23651 0.48993 0.64986 0.0
N507 N 0.2439 0.41836 0.67811 0.0
C508 C 0.26764 0.44592 0.69325 0.0
C509 C 0.26369 0.4846 0.67786 0.0
C510 C 0.49489 0.32083 0.74027 0.0
C511 C 0.51848 0.30563 0.71058 0.0
C512 C 0.45567 0.31217 0.74138 0.0
C513 C 0.43908 0.28891 0.71216 0.0
H514 H 0.50576 0.34324 0.7597 0.0
H515 H 0.43764 0.32836 0.76148 0.0
S516 S 0.49018 0.23478 0.63427 0.0
N517 N 0.52406 0.25987 0.65668 0.0
N518 N 0.45003 0.24467 0.65788 0.0
C519 C 0.46335 0.26893 0.6862 0.0
C520 C 0.50335 0.27709 0.6856 0.0
C521 C 0.71401 0.49405 0.6493 0.0
C522 C 0.69664 0.52829 0.66389 0.0
C523 C 0.70461 0.45726 0.66475 0.0
C524 C 0.67702 0.4541 0.69452 0.0
H525 H 0.73036 0.49513 0.62239 0.0
H526 H 0.71385 0.43147 0.64889 0.0
S527 S 0.63647 0.53539 0.75283 0.0
N528 N 0.66121 0.55725 0.71791 0.0
N529 N 0.64259 0.48788 0.74605 0.0
C530 C 0.66645 0.48823 0.71465 0.0
C531 C 0.67652 0.52568 0.6994 0.0
C532 C 0.46303 0.31877 0.29348 0.0
C533 C 0.46067 0.29811 0.32899 0.0
C534 C 0.49886 0.32661 0.2767 0.0
C535 C 0.53277 0.31398 0.29527 0.0
H536 H 0.43828 0.33445 0.28229 0.0
H537 H 0.50026 0.34822 0.25347 0.0
S538 S 0.53925 0.24384 0.37777 0.0
N539 N 0.49312 0.25408 0.374 0.0
N540 N 0.56041 0.26814 0.342 0.0
C541 C 0.52959 0.28523 0.32456 0.0
C542 C 0.49327 0.27769 0.34194 0.0
C543 C 0.65553 0.50922 0.26406 0.0
C544 C 0.67081 0.48379 0.29255 0.0
C545 C 0.66355 0.54945 0.26479 0.0
C546 C 0.68619 0.56531 0.29473 0.0
H547 H 0.63403 0.49871 0.24381 0.0
H548 H 0.64788 0.56863 0.24514 0.0
S549 S 0.73883 0.51003 0.37114 0.0
N550 N 0.7149 0.47619 0.34692 0.0
N551 N 0.72886 0.55207 0.34926 0.0
C552 C 0.70544 0.53954 0.32014 0.0
C553 C 0.698 0.49853 0.3188 0.0
C554 C 0.53602 0.74322 0.30466 0.0
C555 C 0.54727 0.71186 0.28069 0.0
C556 C 0.49759 0.74768 0.31588 0.0
C557 C 0.46934 0.72145 0.30274 0.0
H558 H 0.55745 0.76082 0.31928 0.0
H559 H 0.49081 0.7687 0.33855 0.0
S560 S 0.48305 0.64194 0.23059 0.0
N561 N 0.52647 0.65964 0.23772 0.0
N562 N 0.45405 0.66883 0.25775 0.0
C563 C 0.47936 0.69452 0.27349 0.0
C564 C 0.51855 0.68948 0.26271 0.0
C565 C 0.40553 0.49729 0.39924 0.0
C566 C 0.37897 0.47305 0.38006 0.0
C567 C 0.40565 0.5379 0.39364 0.0
C568 C 0.37925 0.55649 0.3685 0.0
H569 H 0.4265 0.48494 0.41915 0.0
H570 H 0.42665 0.55484 0.40957 0.0
S571 S 0.30411 0.50662 0.31022 0.0
N572 N 0.32582 0.47072 0.33402 0.0
N573 N 0.32603 0.54726 0.32353 0.0
C574 C 0.35278 0.5327 0.34855 0.0
C575 C 0.35262 0.49104 0.35435 0.0
loop_
_geom_bond_atom_site_label_1
_geom_bond_atom_site_label_2
_geom_bond_distance
_geom_bond_site_symmetry_2
_ccdc_geom_bond_type
Zn0 O3 2.031 . S
Zn0 O5 2.049 . S
Zn0 O10 2.067 . S
Zn1 O2 1.962 . S
Zn1 O4 1.986 . S
Zn1 O6 1.996 . S
Zn1 O9 1.943 . S
O2 Zn1 1.962 . S
O2 C7 1.254 . S
O3 Zn0 2.031 . S
O3 C7 1.269 . S
O4 Zn1 1.986 . S
O4 C11 1.262 . S
O5 Zn0 2.049 . S
O5 C13 1.260 . S
O6 Zn1 1.996 . S
O6 C13 1.257 . S
C7 O2 1.254 . S
C7 O3 1.269 . S
C8 O9 1.249 . S
C8 O10 1.270 . S
O9 Zn1 1.943 . S
O9 C8 1.249 . S
O10 Zn0 2.067 . S
O10 C8 1.270 . S
C11 O4 1.262 . S
C11 O12 1.232 . S
O12 C11 1.232 . S
C13 O5 1.260 . S
C13 O6 1.257 . S
Zn14 O17 2.031 . S
Zn14 O19 2.049 . S
Zn14 O24 2.067 . S
Zn15 O16 1.962 . S
Zn15 O18 1.986 . S
Zn15 O20 1.996 . S
Zn15 O23 1.943 . S
O16 Zn15 1.962 . S
O16 C21 1.254 . S
O17 Zn14 2.031 . S
O17 C21 1.269 . S
O18 Zn15 1.986 . S
O18 C25 1.262 . S
O19 Zn14 2.049 . S
O19 C27 1.260 . S
O20 Zn15 1.996 . S
O20 C27 1.257 . S
C21 O16 1.254 . S
C21 O17 1.269 . S
C22 O23 1.249 . S
C22 O24 1.270 . S
O23 Zn15 1.943 . S
O23 C22 1.249 . S
O24 Zn14 2.067 . S
O24 C22 1.270 . S
C25 O18 1.262 . S
C25 O26 1.232 . S
O26 C25 1.232 . S
C27 O19 1.260 . S
C27 O20 1.257 . S
Zn28 O31 2.031 . S
Zn28 O33 2.049 . S
Zn28 O38 2.067 . S
Zn29 O30 1.962 . S
Zn29 O32 1.986 . S
Zn29 O34 1.996 . S
Zn29 O37 1.943 . S
O30 Zn29 1.962 . S
O30 C35 1.254 . S
O31 Zn28 2.031 . S
O31 C35 1.269 . S
O32 Zn29 1.986 . S
O32 C39 1.262 . S
O33 Zn28 2.049 . S
O33 C41 1.260 . S
O34 Zn29 1.996 . S
O34 C41 1.257 . S
C35 O30 1.254 . S
C35 O31 1.269 . S
C36 O37 1.249 . S
C36 O38 1.270 . S
O37 Zn29 1.943 . S
O37 C36 1.249 . S
O38 Zn28 2.067 . S
O38 C36 1.270 . S
C39 O32 1.262 . S
C39 O40 1.232 . S
O40 C39 1.232 . S
C41 O33 1.260 . S
C41 O34 1.257 . S
Zn42 O45 2.031 . S
Zn42 O47 2.049 . S
Zn42 O52 2.067 . S
Zn43 O44 1.962 . S
Zn43 O46 1.986 . S
Zn43 O48 1.996 . S
Zn43 O51 1.943 . S
O44 Zn43 1.962 . S
O44 C49 1.254 . S
O45 Zn42 2.031 . S
O45 C49 1.269 . S
O46 Zn43 1.986 . S
O46 C53 1.262 . S
O47 Zn42 2.049 . S
O47 C55 1.260 . S
O48 Zn43 1.996 . S
O48 C55 1.257 . S
C49 O44 1.254 . S
C49 O45 1.269 . S
C50 O51 1.249 . S
C50 O52 1.270 . S
O51 Zn43 1.943 . S
O51 C50 1.249 . S
O52 Zn42 2.067 . S
O52 C50 1.270 . S
C53 O46 1.262 . S
C53 O54 1.232 . S
O54 C53 1.232 . S
C55 O47 1.260 . S
C55 O48 1.257 . S
Zn56 O59 2.031 . S
Zn56 O61 2.049 . S
Zn56 O66 2.067 . S
Zn57 O58 1.962 . S
Zn57 O60 1.986 . S
Zn57 O62 1.996 . S
Zn57 O65 1.943 . S
O58 Zn57 1.962 . S
O58 C63 1.254 . S
O59 Zn56 2.031 . S
O59 C63 1.269 . S
O60 Zn57 1.986 . S
O60 C67 1.262 . S
O61 Zn56 2.049 . S
O61 C69 1.260 . S
O62 Zn57 1.996 . S
O62 C69 1.257 . S
C63 O58 1.254 . S
C63 O59 1.269 . S
C64 O65 1.249 . S
C64 O66 1.270 . S
O65 Zn57 1.943 . S
O65 C64 1.249 . S
O66 Zn56 2.067 . S
O66 C64 1.270 . S
C67 O60 1.262 . S
C67 O68 1.232 . S
O68 C67 1.232 . S
C69 O61 1.260 . S
C69 O62 1.257 . S
Zn70 O73 2.031 . S
Zn70 O75 2.049 . S
Zn70 O80 2.067 . S
Zn71 O72 1.962 . S
Zn71 O74 1.986 . S
Zn71 O76 1.996 . S
Zn71 O79 1.943 . S
O72 Zn71 1.962 . S
O72 C77 1.254 . S
O73 Zn70 2.031 . S
O73 C77 1.269 . S
O74 Zn71 1.986 . S
O74 C81 1.262 . S
O75 Zn70 2.049 . S
O75 C83 1.260 . S
O76 Zn71 1.996 . S
O76 C83 1.257 . S
C77 O72 1.254 . S
C77 O73 1.269 . S
C78 O79 1.249 . S
C78 O80 1.270 . S
O79 Zn71 1.943 . S
O79 C78 1.249 . S
O80 Zn70 2.067 . S
O80 C78 1.270 . S
C81 O74 1.262 . S
C81 O82 1.232 . S
O82 C81 1.232 . S
C83 O75 1.260 . S
C83 O76 1.257 . S
Zn84 O87 2.031 . S
Zn84 O89 2.049 . S
Zn84 O94 2.067 . S
Zn85 O86 1.962 . S
Zn85 O88 1.986 . S
Zn85 O90 1.996 . S
Zn85 O93 1.943 . S
O86 Zn85 1.962 . S
O86 C91 1.254 . S
O87 Zn84 2.031 . S
O87 C91 1.269 . S
O88 Zn85 1.986 . S
O88 C95 1.262 . S
O89 Zn84 2.049 . S
O89 C97 1.260 . S
O90 Zn85 1.996 . S
O90 C97 1.257 . S
C91 O86 1.254 . S
C91 O87 1.269 . S
C92 O93 1.249 . S
C92 O94 1.270 . S
O93 Zn85 1.943 . S
O93 C92 1.249 . S
O94 Zn84 2.067 . S
O94 C92 1.270 . S
C95 O88 1.262 . S
C95 O96 1.232 . S
O96 C95 1.232 . S
C97 O89 1.260 . S
C97 O90 1.257 . S
Zn98 O101 2.031 . S
Zn98 O103 2.049 . S
Zn98 O108 2.067 . S
Zn99 O100 1.962 . S
Zn99 O102 1.986 . S
Zn99 O104 1.996 . S
Zn99 O107 1.943 . S
O100 Zn99 1.962 . S
O100 C105 1.254 . S
O101 Zn98 2.031 . S
O101 C105 1.269 . S
O102 Zn99 1.986 . S
O102 C109 1.262 . S
O103 Zn98 2.049 . S
O103 C111 1.260 . S
O104 Zn99 1.996 . S
O104 C111 1.257 . S
C105 O100 1.254 . S
C105 O101 1.269 . S
C106 O107 1.249 . S
C106 O108 1.270 . S
O107 Zn99 1.943 . S
O107 C106 1.249 . S
O108 Zn98 2.067 . S
O108 C106 1.270 . S
C109 O102 1.262 . S
C109 O110 1.232 . S
O110 C109 1.232 . S
C111 O103 1.260 . S
C111 O104 1.257 . S
Zn112 O115 2.031 . S
Zn112 O117 2.049 . S
Zn112 O122 2.067 . S
Zn113 O114 1.962 . S
Zn113 O116 1.986 . S
Zn113 O118 1.996 . S
Zn113 O121 1.943 . S
O114 Zn113 1.962 . S
O114 C119 1.254 . S
O115 Zn112 2.031 . S
O115 C119 1.269 . S
O116 Zn113 1.986 . S
O116 C123 1.262 . S
O117 Zn112 2.049 . S
O117 C125 1.260 . S
O118 Zn113 1.996 . S
O118 C125 1.257 . S
C119 O114 1.254 . S
C119 O115 1.269 . S
C120 O121 1.249 . S
C120 O122 1.270 . S
O121 Zn113 1.943 . S
O121 C120 1.249 . S
O122 Zn112 2.067 . S
O122 C120 1.270 . S
C123 O116 1.262 . S
C123 O124 1.232 . S
O124 C123 1.232 . S
C125 O117 1.260 . S
C125 O118 1.257 . S
Zn126 O129 2.031 . S
Zn126 O131 2.049 . S
Zn126 O136 2.067 . S
Zn127 O128 1.962 . S
Zn127 O130 1.986 . S
Zn127 O132 1.996 . S
Zn127 O135 1.943 . S
O128 Zn127 1.962 . S
O128 C133 1.254 . S
O129 Zn126 2.031 . S
O129 C133 1.269 . S
O130 Zn127 1.986 . S
O130 C137 1.262 . S
O131 Zn126 2.049 . S
O131 C139 1.260 . S
O132 Zn127 1.996 . S
O132 C139 1.257 . S
C133 O128 1.254 . S
C133 O129 1.269 . S
C134 O135 1.249 . S
C134 O136 1.270 . S
O135 Zn127 1.943 . S
O135 C134 1.249 . S
O136 Zn126 2.067 . S
O136 C134 1.270 . S
C137 O130 1.262 . S
C137 O138 1.232 . S
O138 C137 1.232 . S
C139 O131 1.260 . S
C139 O132 1.257 . S
Zn140 O143 2.031 . S
Zn140 O145 2.049 . S
Zn140 O150 2.067 . S
Zn141 O142 1.962 . S
Zn141 O144 1.986 . S
Zn141 O146 1.996 . S
Zn141 O149 1.943 . S
O142 Zn141 1.962 . S
O142 C147 1.254 . S
O143 Zn140 2.031 . S
O143 C147 1.269 . S
O144 Zn141 1.986 . S
O144 C151 1.262 . S
O145 Zn140 2.049 . S
O145 C153 1.260 . S
O146 Zn141 1.996 . S
O146 C153 1.257 . S
C147 O142 1.254 . S
C147 O143 1.269 . S
C148 O149 1.249 . S
C148 O150 1.270 . S
O149 Zn141 1.943 . S
O149 C148 1.249 . S
O150 Zn140 2.067 . S
O150 C148 1.270 . S
C151 O144 1.262 . S
C151 O152 1.232 . S
O152 C151 1.232 . S
C153 O145 1.260 . S
C153 O146 1.257 . S
Zn154 O157 2.031 . S
Zn154 O159 2.049 . S
Zn154 O164 2.067 . S
Zn155 O156 1.962 . S
Zn155 O158 1.986 . S
Zn155 O160 1.996 . S
Zn155 O163 1.943 . S
O156 Zn155 1.962 . S
O156 C161 1.254 . S
O157 Zn154 2.031 . S
O157 C161 1.269 . S
O158 Zn155 1.986 . S
O158 C165 1.262 . S
O159 Zn154 2.049 . S
O159 C167 1.260 . S
O160 Zn155 1.996 . S
O160 C167 1.257 . S
C161 O156 1.254 . S
C161 O157 1.269 . S
C162 O163 1.249 . S
C162 O164 1.270 . S
O163 Zn155 1.943 . S
O163 C162 1.249 . S
O164 Zn154 2.067 . S
O164 C162 1.270 . S
C165 O158 1.262 . S
C165 O166 1.232 . S
O166 C165 1.232 . S
C167 O159 1.260 . S
C167 O160 1.257 . S
Zn168 O171 2.031 . S
Zn168 O173 2.049 . S
Zn168 O178 2.067 . S
Zn169 O170 1.962 . S
Zn169 O172 1.986 . S
Zn169 O174 1.996 . S
Zn169 O177 1.943 . S
O170 Zn169 1.962 . S
O170 C175 1.254 . S
O171 Zn168 2.031 . S
O171 C175 1.269 . S
O172 Zn169 1.986 . S
O172 C179 1.262 . S
O173 Zn168 2.049 . S
O173 C181 1.260 . S
O174 Zn169 1.996 . S
O174 C181 1.257 . S
C175 O170 1.254 . S
C175 O171 1.269 . S
C176 O177 1.249 . S
C176 O178 1.270 . S
O177 Zn169 1.943 . S
O177 C176 1.249 . S
O178 Zn168 2.067 . S
O178 C176 1.270 . S
C179 O172 1.262 . S
C179 O180 1.232 . S
O180 C179 1.232 . S
C181 O173 1.260 . S
C181 O174 1.257 . S
Zn182 O185 2.031 . S
Zn182 O187 2.049 . S
Zn182 O192 2.067 . S
Zn183 O184 1.962 . S
Zn183 O186 1.986 . S
Zn183 O188 1.996 . S
Zn183 O191 1.943 . S
O184 Zn183 1.962 . S
O184 C189 1.254 . S
O185 Zn182 2.031 . S
O185 C189 1.269 . S
O186 Zn183 1.986 . S
O186 C193 1.262 . S
O187 Zn182 2.049 . S
O187 C195 1.260 . S
O188 Zn183 1.996 . S
O188 C195 1.257 . S
C189 O184 1.254 . S
C189 O185 1.269 . S
C190 O191 1.249 . S
C190 O192 1.270 . S
O191 Zn183 1.943 . S
O191 C190 1.249 . S
O192 Zn182 2.067 . S
O192 C190 1.270 . S
C193 O186 1.262 . S
C193 O194 1.232 . S
O194 C193 1.232 . S
C195 O187 1.260 . S
C195 O188 1.257 . S
Zn196 O199 2.031 . S
Zn196 O201 2.049 . S
Zn196 O206 2.067 . S
Zn197 O198 1.962 . S
Zn197 O200 1.986 . S
Zn197 O202 1.996 . S
Zn197 O205 1.943 . S
O198 Zn197 1.962 . S
O198 C203 1.254 . S
O199 Zn196 2.031 . S
O199 C203 1.269 . S
O200 Zn197 1.986 . S
O200 C207 1.262 . S
O201 Zn196 2.049 . S
O201 C209 1.260 . S
O202 Zn197 1.996 . S
O202 C209 1.257 . S
C203 O198 1.254 . S
C203 O199 1.269 . S
C204 O205 1.249 . S
C204 O206 1.270 . S
O205 Zn197 1.943 . S
O205 C204 1.249 . S
O206 Zn196 2.067 . S
O206 C204 1.270 . S
C207 O200 1.262 . S
C207 O208 1.232 . S
O208 C207 1.232 . S
C209 O201 1.260 . S
C209 O202 1.257 . S
Zn210 O213 2.031 . S
Zn210 O215 2.049 . S
Zn210 O220 2.067 . S
Zn211 O212 1.962 . S
Zn211 O214 1.986 . S
Zn211 O216 1.996 . S
Zn211 O219 1.943 . S
O212 Zn211 1.962 . S
O212 C217 1.254 . S
O213 Zn210 2.031 . S
O213 C217 1.269 . S
O214 Zn211 1.986 . S
O214 C221 1.262 . S
O215 Zn210 2.049 . S
O215 C223 1.260 . S
O216 Zn211 1.996 . S
O216 C223 1.257 . S
C217 O212 1.254 . S
C217 O213 1.269 . S
C218 O219 1.249 . S
C218 O220 1.270 . S
O219 Zn211 1.943 . S
O219 C218 1.249 . S
O220 Zn210 2.067 . S
O220 C218 1.270 . S
C221 O214 1.262 . S
C221 O222 1.232 . S
O222 C221 1.232 . S
C223 O215 1.260 . S
C223 O216 1.257 . S
C224 C225 1.369 . S
C224 C226 1.419 . S
C224 H228 0.930 . S
C225 C224 1.369 . S
C225 C234 1.429 . S
C226 C224 1.419 . S
C226 C227 1.363 . S
C226 H229 0.929 . S
C227 C226 1.363 . S
C227 C233 1.428 . S
H228 C224 0.930 . S
H229 C226 0.929 . S
S230 N231 1.613 . S
S230 N232 1.610 . S
N231 S230 1.613 . S
N231 C234 1.350 . S
N232 S230 1.610 . S
N232 C233 1.351 . S
C233 C227 1.428 . S
C233 N232 1.351 . S
C233 C234 1.434 . S
C234 C225 1.429 . S
C234 N231 1.350 . S
C234 C233 1.434 . S
C235 C236 1.369 . S
C235 C237 1.419 . S
C235 H239 0.930 . S
C236 C235 1.369 . S
C236 C245 1.429 . S
C237 C235 1.419 . S
C237 C238 1.363 . S
C237 H240 0.929 . S
C238 C237 1.363 . S
C238 C244 1.428 . S
H239 C235 0.930 . S
H240 C237 0.929 . S
S241 N242 1.613 . S
S241 N243 1.610 . S
N242 S241 1.613 . S
N242 C245 1.350 . S
N243 S241 1.610 . S
N243 C244 1.351 . S
C244 C238 1.428 . S
C244 N243 1.351 . S
C244 C245 1.434 . S
C245 C236 1.429 . S
C245 N242 1.350 . S
C245 C244 1.434 . S
C246 C247 1.369 . S
C246 C248 1.419 . S
C246 H250 0.930 . S
C247 C246 1.369 . S
C247 C256 1.429 . S
C248 C246 1.419 . S
C248 C249 1.363 . S
C248 H251 0.929 . S
C249 C248 1.363 . S
C249 C255 1.428 . S
H250 C246 0.930 . S
H251 C248 0.929 . S
S252 N253 1.613 . S
S252 N254 1.610 . S
N253 S252 1.613 . S
N253 C256 1.350 . S
N254 S252 1.610 . S
N254 C255 1.351 . S
C255 C249 1.428 . S
C255 N254 1.351 . S
C255 C256 1.434 . S
C256 C247 1.429 . S
C256 N253 1.350 . S
C256 C255 1.434 . S
C257 C258 1.369 . S
C257 C259 1.419 . S
C257 H261 0.930 . S
C258 C257 1.369 . S
C258 C267 1.429 . S
C259 C257 1.419 . S
C259 C260 1.363 . S
C259 H262 0.929 . S
C260 C259 1.363 . S
C260 C266 1.428 . S
H261 C257 0.930 . S
H262 C259 0.929 . S
S263 N264 1.613 . S
S263 N265 1.610 . S
N264 S263 1.613 . S
N264 C267 1.350 . S
N265 S263 1.610 . S
N265 C266 1.351 . S
C266 C260 1.428 . S
C266 N265 1.351 . S
C266 C267 1.434 . S
C267 C258 1.429 . S
C267 N264 1.350 . S
C267 C266 1.434 . S
C268 C269 1.369 . S
C268 C270 1.419 . S
C268 H272 0.930 . S
C269 C268 1.369 . S
C269 C278 1.429 . S
C270 C268 1.419 . S
C270 C271 1.363 . S
C270 H273 0.929 . S
C271 C270 1.363 . S
C271 C277 1.428 . S
H272 C268 0.930 . S
H273 C270 0.929 . S
S274 N275 1.613 . S
S274 N276 1.610 . S
N275 S274 1.613 . S
N275 C278 1.350 . S
N276 S274 1.610 . S
N276 C277 1.351 . S
C277 C271 1.428 . S
C277 N276 1.351 . S
C277 C278 1.434 . S
C278 C269 1.429 . S
C278 N275 1.350 . S
C278 C277 1.434 . S
C279 C280 1.369 . S
C279 C281 1.419 . S
C279 H283 0.930 . S
C280 C279 1.369 . S
C280 C289 1.429 . S
C281 C279 1.419 . S
C281 C282 1.363 . S
C281 H284 0.929 . S
C282 C281 1.363 . S
C282 C288 1.428 . S
H283 C279 0.930 . S
H284 C281 0.929 . S
S285 N286 1.613 . S
S285 N287 1.610 . S
N286 S285 1.613 . S
N286 C289 1.350 . S
N287 S285 1.610 . S
N287 C288 1.351 . S
C288 C282 1.428 . S
C288 N287 1.351 . S
C288 C289 1.434 . S
C289 C280 1.429 . S
C289 N286 1.350 . S
C289 C288 1.434 . S
C290 C291 1.369 . S
C290 C292 1.419 . S
C290 H294 0.930 . S
C291 C290 1.369 . S
C291 C300 1.429 . S
C292 C290 1.419 . S
C292 C293 1.363 . S
C292 H295 0.929 . S
C293 C292 1.363 . S
C293 C299 1.428 . S
H294 C290 0.930 . S
H295 C292 0.929 . S
S296 N297 1.613 . S
S296 N298 1.610 . S
N297 S296 1.613 . S
N297 C300 1.350 . S
N298 S296 1.610 . S
N298 C299 1.351 . S
C299 C293 1.428 . S
C299 N298 1.351 . S
C299 C300 1.434 . S
C300 C291 1.429 . S
C300 N297 1.350 . S
C300 C299 1.434 . S
C301 C302 1.369 . S
C301 C303 1.419 . S
C301 H305 0.930 . S
C302 C301 1.369 . S
C302 C311 1.429 . S
C303 C301 1.419 . S
C303 C304 1.363 . S
C303 H306 0.929 . S
C304 C303 1.363 . S
C304 C310 1.428 . S
H305 C301 0.930 . S
H306 C303 0.929 . S
S307 N308 1.613 . S
S307 N309 1.610 . S
N308 S307 1.613 . S
N308 C311 1.350 . S
N309 S307 1.610 . S
N309 C310 1.351 . S
C310 C304 1.428 . S
C310 N309 1.351 . S
C310 C311 1.434 . S
C311 C302 1.429 . S
C311 N308 1.350 . S
C311 C310 1.434 . S
C312 C313 1.369 . S
C312 C314 1.419 1_556 S
C312 H316 0.930 . S
C313 C312 1.369 . S
C313 C322 1.429 . S
C314 C312 1.419 1_554 S
C314 C315 1.363 . S
C314 H317 0.929 . S
C315 C314 1.363 . S
C315 C321 1.428 . S
H316 C312 0.930 . S
H317 C314 0.929 . S
S318 N319 1.613 1_554 S
S318 N320 1.610 . S
N319 S318 1.613 1_556 S
N319 C322 1.350 . S
N320 S318 1.610 . S
N320 C321 1.351 . S
C321 C315 1.428 . S
C321 N320 1.351 . S
C321 C322 1.434 1_554 S
C322 C313 1.429 . S
C322 N319 1.350 . S
C322 C321 1.434 1_556 S
C323 C324 1.369 . S
C323 C325 1.423 . S
C323 H327 0.930 . S
C324 C323 1.369 . S
C324 C333 1.429 . S
C325 C323 1.423 . S
C325 C326 1.360 1_556 S
C325 H328 0.928 1_556 S
C326 C325 1.360 1_554 S
C326 C332 1.428 . S
H327 C323 0.930 . S
H328 C325 0.928 1_554 S
S329 N330 1.613 . S
S329 N331 1.610 1_556 S
N330 S329 1.613 . S
N330 C333 1.350 . S
N331 S329 1.610 1_554 S
N331 C332 1.351 . S
C332 C326 1.428 . S
C332 N331 1.351 . S
C332 C333 1.434 1_554 S
C333 C324 1.429 . S
C333 N330 1.350 . S
C333 C332 1.434 1_556 S
C334 C335 1.369 . S
C334 C336 1.419 1_556 S
C334 H338 0.930 . S
C335 C334 1.369 . S
C335 C344 1.429 . S
C336 C334 1.419 1_554 S
C336 C337 1.363 . S
C336 H339 0.929 . S
C337 C336 1.363 . S
C337 C343 1.428 . S
H338 C334 0.930 . S
H339 C336 0.929 . S
S340 N341 1.613 1_554 S
S340 N342 1.610 . S
N341 S340 1.613 1_556 S
N341 C344 1.350 . S
N342 S340 1.610 . S
N342 C343 1.351 . S
C343 C337 1.428 . S
C343 N342 1.351 . S
C343 C344 1.434 1_554 S
C344 C335 1.429 . S
C344 N341 1.350 . S
C344 C343 1.434 1_556 S
C345 C346 1.350 1_556 S
C345 C347 1.448 . S
C345 H349 0.921 1_556 S
C346 C345 1.350 1_554 S
C346 C355 1.429 . S
C347 C345 1.448 . S
C347 C348 1.363 . S
C347 H350 0.929 . S
C348 C347 1.363 . S
C348 C354 1.428 . S
H349 C345 0.921 1_554 S
H350 C347 0.929 . S
S351 N352 1.607 1_556 S
S351 N353 1.619 . S
N352 S351 1.607 1_554 S
N352 C355 1.350 . S
N353 S351 1.619 . S
N353 C354 1.351 . S
C354 C348 1.428 . S
C354 N353 1.351 . S
C354 C355 1.434 1_556 S
C355 C346 1.429 . S
C355 N352 1.350 . S
C355 C354 1.434 1_554 S
C356 C357 1.369 . S
C356 C358 1.419 1_455 S
C356 H360 0.930 . S
C357 C356 1.369 . S
C357 C366 1.429 . S
C358 C356 1.419 1_655 S
C358 C359 1.363 . S
C358 H361 0.929 . S
C359 C358 1.363 . S
C359 C365 1.428 . S
H360 C356 0.930 . S
H361 C358 0.929 . S
S362 N363 1.613 . S
S362 N364 1.610 1_455 S
N363 S362 1.613 . S
N363 C366 1.350 . S
N364 S362 1.610 1_655 S
N364 C365 1.351 . S
C365 C359 1.428 . S
C365 N364 1.351 . S
C365 C366 1.434 1_655 S
C366 C357 1.429 . S
C366 N363 1.350 . S
C366 C365 1.434 1_455 S
C367 C368 1.369 . S
C367 C369 1.419 1_565 S
C367 H371 0.930 . S
C368 C367 1.369 . S
C368 C377 1.429 . S
C369 C367 1.419 1_545 S
C369 C370 1.363 . S
C369 H372 0.929 . S
C370 C369 1.363 . S
C370 C376 1.428 . S
H371 C367 0.930 . S
H372 C369 0.929 . S
S373 N374 1.613 1_545 S
S373 N375 1.610 . S
N374 S373 1.613 1_565 S
N374 C377 1.350 . S
N375 S373 1.610 . S
N375 C376 1.351 . S
C376 C370 1.428 . S
C376 N375 1.351 . S
C376 C377 1.434 1_545 S
C377 C368 1.429 . S
C377 N374 1.350 . S
C377 C376 1.434 1_565 S
C378 C379 1.369 . S
C378 C380 1.419 1_655 S
C378 H382 0.930 . S
C379 C378 1.369 . S
C379 C388 1.429 . S
C380 C378 1.419 1_455 S
C380 C381 1.363 . S
C380 H383 0.929 . S
C381 C380 1.363 . S
C381 C387 1.428 . S
H382 C378 0.930 . S
H383 C380 0.929 . S
S384 N385 1.613 1_455 S
S384 N386 1.610 . S
N385 S384 1.613 1_655 S
N385 C388 1.350 . S
N386 S384 1.610 . S
N386 C387 1.351 . S
C387 C381 1.428 . S
C387 N386 1.351 . S
C387 C388 1.434 1_455 S
C388 C379 1.429 . S
C388 N385 1.350 . S
C388 C387 1.434 1_655 S
C389 C390 1.369 . S
C389 C391 1.419 1_545 S
C389 H393 0.930 . S
C390 C389 1.369 . S
C390 C399 1.429 . S
C391 C389 1.419 1_565 S
C391 C392 1.363 . S
C391 H394 0.929 . S
C392 C391 1.363 . S
C392 C398 1.428 . S
H393 C389 0.930 . S
H394 C391 0.929 . S
S395 N396 1.613 1_565 S
S395 N397 1.610 . S
N396 S395 1.613 1_545 S
N396 C399 1.350 . S
N397 S395 1.610 . S
N397 C398 1.351 . S
C398 C392 1.428 . S
C398 N397 1.351 . S
C398 C399 1.434 1_565 S
C399 C390 1.429 . S
C399 N396 1.350 . S
C399 C398 1.434 1_545 S
C400 C401 1.369 . S
C400 C402 1.419 1_655 S
C400 H404 0.930 . S
C401 C400 1.369 . S
C401 C410 1.429 . S
C402 C400 1.419 1_455 S
C402 C403 1.363 . S
C402 H405 0.929 . S
C403 C402 1.363 . S
C403 C409 1.428 . S
H404 C400 0.930 . S
H405 C402 0.929 . S
S406 N407 1.613 1_455 S
S406 N408 1.610 . S
N407 S406 1.613 1_655 S
N407 C410 1.350 . S
N408 S406 1.610 . S
N408 C409 1.351 . S
C409 C403 1.428 . S
C409 N408 1.351 . S
C409 C410 1.434 1_455 S
C410 C401 1.429 . S
C410 N407 1.350 . S
C410 C409 1.434 1_655 S
C411 C412 1.352 1_545 S
C411 C413 1.445 . S
C411 H415 0.922 1_545 S
C412 C411 1.352 1_565 S
C412 C421 1.429 . S
C413 C411 1.445 . S
C413 C414 1.363 . S
C413 H416 0.929 . S
C414 C413 1.363 . S
C414 C420 1.428 . S
H415 C411 0.922 1_565 S
H416 C413 0.929 . S
S417 N418 1.599 1_545 S
S417 N419 1.629 . S
N418 S417 1.599 1_565 S
N418 C421 1.350 . S
N419 S417 1.629 . S
N419 C420 1.351 . S
C420 C414 1.428 . S
C420 N419 1.351 . S
C420 C421 1.434 1_545 S
C421 C412 1.429 . S
C421 N418 1.350 . S
C421 C420 1.434 1_565 S
C422 C423 1.369 . S
C422 C424 1.419 1_455 S
C422 H426 0.930 . S
C423 C422 1.369 . S
C423 C432 1.429 . S
C424 C422 1.419 1_655 S
C424 C425 1.363 . S
C424 H427 0.929 . S
C425 C424 1.363 . S
C425 C431 1.428 . S
H426 C422 0.930 . S
H427 C424 0.929 . S
S428 N429 1.613 . S
S428 N430 1.610 1_455 S
N429 S428 1.613 . S
N429 C432 1.350 . S
N430 S428 1.610 1_655 S
N430 C431 1.351 . S
C431 C425 1.428 . S
C431 N430 1.351 . S
C431 C432 1.434 1_655 S
C432 C423 1.429 . S
C432 N429 1.350 . S
C432 C431 1.434 1_455 S
C433 C434 1.369 . S
C433 C435 1.419 1_565 S
C433 H437 0.930 . S
C434 C433 1.369 . S
C434 C443 1.429 . S
C435 C433 1.419 1_545 S
C435 C436 1.363 . S
C435 H438 0.929 . S
C436 C435 1.363 . S
C436 C442 1.428 . S
H437 C433 0.930 . S
H438 C435 0.929 . S
S439 N440 1.613 . S
S439 N441 1.610 1_565 S
N440 S439 1.613 . S
N440 C443 1.350 . S
N441 S439 1.610 1_545 S
N441 C442 1.351 . S
C442 C436 1.428 . S
C442 N441 1.351 . S
C442 C443 1.434 1_545 S
C443 C434 1.429 . S
C443 N440 1.350 . S
C443 C442 1.434 1_565 S
C444 C445 1.369 . S
C444 C446 1.419 . S
C444 H448 0.930 . S
C445 C444 1.369 . S
C445 C454 1.429 . S
C446 C444 1.419 . S
C446 C447 1.363 . S
C446 H449 0.929 . S
C447 C446 1.363 . S
C447 C453 1.428 . S
H448 C444 0.930 . S
H449 C446 0.929 . S
S450 N451 1.613 . S
S450 N452 1.610 . S
N451 S450 1.613 . S
N451 C454 1.350 . S
N452 S450 1.610 . S
N452 C453 1.351 . S
C453 C447 1.428 . S
C453 N452 1.351 . S
C453 C454 1.434 . S
C454 C445 1.429 . S
C454 N451 1.350 . S
C454 C453 1.434 . S
C455 C456 1.369 . S
C455 C457 1.419 . S
C455 H459 0.930 . S
C456 C455 1.369 . S
C456 C465 1.429 . S
C457 C455 1.419 . S
C457 C458 1.363 . S
C457 H460 0.929 . S
C458 C457 1.363 . S
C458 C464 1.428 . S
H459 C455 0.930 . S
H460 C457 0.929 . S
S461 N462 1.613 . S
S461 N463 1.610 . S
N462 S461 1.613 . S
N462 C465 1.350 . S
N463 S461 1.610 . S
N463 C464 1.351 . S
C464 C458 1.428 . S
C464 N463 1.351 . S
C464 C465 1.434 . S
C465 C456 1.429 . S
C465 N462 1.350 . S
C465 C464 1.434 . S
C466 C467 1.369 . S
C466 C468 1.419 . S
C466 H470 0.930 . S
C467 C466 1.369 . S
C467 C476 1.429 . S
C468 C466 1.419 . S
C468 C469 1.363 . S
C468 H471 0.929 . S
C469 C468 1.363 . S
C469 C475 1.428 . S
H470 C466 0.930 . S
H471 C468 0.929 . S
S472 N473 1.613 . S
S472 N474 1.610 . S
N473 S472 1.613 . S
N473 C476 1.350 . S
N474 S472 1.610 . S
N474 C475 1.351 . S
C475 C469 1.428 . S
C475 N474 1.351 . S
C475 C476 1.434 . S
C476 C467 1.429 . S
C476 N473 1.350 . S
C476 C475 1.434 . S
C477 C478 1.369 . S
C477 C479 1.419 . S
C477 H481 0.930 . S
C478 C477 1.369 . S
C478 C487 1.429 . S
C479 C477 1.419 . S
C479 C480 1.363 . S
C479 H482 0.929 . S
C480 C479 1.363 . S
C480 C486 1.428 . S
H481 C477 0.930 . S
H482 C479 0.929 . S
S483 N484 1.613 . S
S483 N485 1.610 . S
N484 S483 1.613 . S
N484 C487 1.350 . S
N485 S483 1.610 . S
N485 C486 1.351 . S
C486 C480 1.428 . S
C486 N485 1.351 . S
C486 C487 1.434 . S
C487 C478 1.429 . S
C487 N484 1.350 . S
C487 C486 1.434 . S
C488 C489 1.369 . S
C488 C490 1.419 . S
C488 H492 0.930 . S
C489 C488 1.369 . S
C489 C498 1.429 . S
C490 C488 1.419 . S
C490 C491 1.363 . S
C490 H493 0.929 . S
C491 C490 1.363 . S
C491 C497 1.428 . S
H492 C488 0.930 . S
H493 C490 0.929 . S
S494 N495 1.613 . S
S494 N496 1.610 . S
N495 S494 1.613 . S
N495 C498 1.350 . S
N496 S494 1.610 . S
N496 C497 1.351 . S
C497 C491 1.428 . S
C497 N496 1.351 . S
C497 C498 1.434 . S
C498 C489 1.429 . S
C498 N495 1.350 . S
C498 C497 1.434 . S
C499 C500 1.369 . S
C499 C501 1.419 . S
C499 H503 0.930 . S
C500 C499 1.369 . S
C500 C509 1.429 . S
C501 C499 1.419 . S
C501 C502 1.363 . S
C501 H504 0.929 . S
C502 C501 1.363 . S
C502 C508 1.428 . S
H503 C499 0.930 . S
H504 C501 0.929 . S
S505 N506 1.613 . S
S505 N507 1.610 . S
N506 S505 1.613 . S
N506 C509 1.350 . S
N507 S505 1.610 . S
N507 C508 1.351 . S
C508 C502 1.428 . S
C508 N507 1.351 . S
C508 C509 1.434 . S
C509 C500 1.429 . S
C509 N506 1.350 . S
C509 C508 1.434 . S
C510 C511 1.369 . S
C510 C512 1.419 . S
C510 H514 0.930 . S
C511 C510 1.369 . S
C511 C520 1.429 . S
C512 C510 1.419 . S
C512 C513 1.363 . S
C512 H515 0.929 . S
C513 C512 1.363 . S
C513 C519 1.428 . S
H514 C510 0.930 . S
H515 C512 0.929 . S
S516 N517 1.613 . S
S516 N518 1.610 . S
N517 S516 1.613 . S
N517 C520 1.350 . S
N518 S516 1.610 . S
N518 C519 1.351 . S
C519 C513 1.428 . S
C519 N518 1.351 . S
C519 C520 1.434 . S
C520 C511 1.429 . S
C520 N517 1.350 . S
C520 C519 1.434 . S
C521 C522 1.369 . S
C521 C523 1.419 . S
C521 H525 0.930 . S
C522 C521 1.369 . S
C522 C531 1.429 . S
C523 C521 1.419 . S
C523 C524 1.363 . S
C523 H526 0.929 . S
C524 C523 1.363 . S
C524 C530 1.428 . S
H525 C521 0.930 . S
H526 C523 0.929 . S
S527 N528 1.613 . S
S527 N529 1.610 . S
N528 S527 1.613 . S
N528 C531 1.350 . S
N529 S527 1.610 . S
N529 C530 1.351 . S
C530 C524 1.428 . S
C530 N529 1.351 . S
C530 C531 1.434 . S
C531 C522 1.429 . S
C531 N528 1.350 . S
C531 C530 1.434 . S
C532 C533 1.369 . S
C532 C534 1.419 . S
C532 H536 0.930 . S
C533 C532 1.369 . S
C533 C542 1.429 . S
C534 C532 1.419 . S
C534 C535 1.363 . S
C534 H537 0.929 . S
C535 C534 1.363 . S
C535 C541 1.428 . S
H536 C532 0.930 . S
H537 C534 0.929 . S
S538 N539 1.613 . S
S538 N540 1.610 . S
N539 S538 1.613 . S
N539 C542 1.350 . S
N540 S538 1.610 . S
N540 C541 1.351 . S
C541 C535 1.428 . S
C541 N540 1.351 . S
C541 C542 1.434 . S
C542 C533 1.429 . S
C542 N539 1.350 . S
C542 C541 1.434 . S
C543 C544 1.369 . S
C543 C545 1.419 . S
C543 H547 0.930 . S
C544 C543 1.369 . S
C544 C553 1.429 . S
C545 C543 1.419 . S
C545 C546 1.363 . S
C545 H548 0.929 . S
C546 C545 1.363 . S
C546 C552 1.428 . S
H547 C543 0.930 . S
H548 C545 0.929 . S
S549 N550 1.613 . S
S549 N551 1.610 . S
N550 S549 1.613 . S
N550 C553 1.350 . S
N551 S549 1.610 . S
N551 C552 1.351 . S
C552 C546 1.428 . S
C552 N551 1.351 . S
C552 C553 1.434 . S
C553 C544 1.429 . S
C553 N550 1.350 . S
C553 C552 1.434 . S
C554 C555 1.369 . S
C554 C556 1.419 . S
C554 H558 0.930 . S
C555 C554 1.369 . S
C555 C564 1.429 . S
C556 C554 1.419 . S
C556 C557 1.363 . S
C556 H559 0.929 . S
C557 C556 1.363 . S
C557 C563 1.428 . S
H558 C554 0.930 . S
H559 C556 0.929 . S
S560 N561 1.613 . S
S560 N562 1.610 . S
N561 S560 1.613 . S
N561 C564 1.350 . S
N562 S560 1.610 . S
N562 C563 1.351 . S
C563 C557 1.428 . S
C563 N562 1.351 . S
C563 C564 1.434 . S
C564 C555 1.429 . S
C564 N561 1.350 . S
C564 C563 1.434 . S
C565 C566 1.369 . S
C565 C567 1.419 . S
C565 H569 0.930 . S
C566 C565 1.369 . S
C566 C575 1.429 . S
C567 C565 1.419 . S
C567 C568 1.363 . S
C567 H570 0.929 . S
C568 C567 1.363 . S
C568 C574 1.428 . S
H569 C565 0.930 . S
H570 C567 0.929 . S
S571 N572 1.613 . S
S571 N573 1.610 . S
N572 S571 1.613 . S
N572 C575 1.350 . S
N573 S571 1.610 . S
N573 C574 1.351 . S
C574 C568 1.428 . S
C574 N573 1.351 . S
C574 C575 1.434 . S
C575 C566 1.429 . S
C575 N572 1.350 . S
C575 C574 1.434 . S
C225 C221 1.132 . S
C227 C11 1.133 . S
C236 C179 1.136 . S
C238 C25 1.133 . S
C247 C39 1.135 . S
C249 C193 1.133 . S
C258 C207 1.134 . S
C260 C53 1.132 . S
C269 C137 1.135 . S
C271 C67 1.134 . S
C280 C81 1.133 . S
C282 C151 1.135 . S
C291 C95 1.134 . S
C293 C165 1.134 . S
C302 C109 1.132 . S
C304 C123 1.133 . S
C313 C83 1.261 . S
C315 C8 1.440 . S
C324 C92 1.433 . S
C326 C27 1.249 . S
C335 C111 1.254 . S
C337 C36 1.438 . S
C346 C55 1.247 . S
C348 C64 1.435 . S
C357 C7 1.419 . S
C359 C21 1.416 . S
C368 C41 1.258 . S
C370 C22 1.439 . S
C379 C35 1.413 . S
C381 C49 1.414 . S
C390 C13 1.250 . S
C392 C50 1.433 . S
C401 C105 1.418 . S
C403 C63 1.420 . S
C412 C69 1.247 . S
C414 C78 1.435 . S
C423 C77 1.420 . S
C425 C91 1.417 . S
C434 C106 1.434 . S
C436 C97 1.257 . S
C445 C195 1.263 . S
C447 C120 1.440 . S
C456 C139 1.253 . S
C458 C204 1.433 . S
C467 C223 1.255 . S
C469 C148 1.438 . S
C478 C176 1.432 . S
C480 C167 1.253 . S
C489 C119 1.420 . S
C491 C133 1.420 . S
C500 C134 1.440 . S
C502 C153 1.263 . S
C511 C161 1.414 . S
C513 C147 1.414 . S
C522 C125 1.259 . S
C524 C162 1.439 . S
C533 C217 1.417 . S
C535 C175 1.419 . S
C544 C181 1.251 . S
C546 C190 1.433 . S
C555 C189 1.421 . S
C557 C203 1.418 . S
C566 C218 1.441 . S
C568 C209 1.262 . S
