# Generated by pormake.
# Topology wjd, (6)-cn, num edge types: 1
# Building blocks:
#     Node 0, Type 0, BuildingBlock: BETDEL_clean_sbu_0, # of connection points: 6
#     Node 1, Type 0, BuildingBlock: BETDEL_clean_sbu_0, # of connection points: 6
#     Node 2, Type 0, BuildingBlock: BETDEL_clean_sbu_0, # of connection points: 6
#     Node 3, Type 0, BuildingBlock: BETDEL_clean_sbu_0, # of connection points: 6
#     Node 4, Type 0, BuildingBlock: BETDEL_clean_sbu_0, # of connection points: 6
#     Node 5, Type 0, BuildingBlock: BETDEL_clean_sbu_0, # of connection points: 6
#     Node 6, Type 0, BuildingBlock: BETDEL_clean_sbu_0, # of connection points: 6
#     Node 7, Type 0, BuildingBlock: BETDEL_clean_sbu_0, # of connection points: 6
#     Node 8, Type 0, BuildingBlock: BETDEL_clean_sbu_0, # of connection points: 6
#     Node 9, Type 0, BuildingBlock: BETDEL_clean_sbu_0, # of connection points: 6
#     Node 10, Type 0, BuildingBlock: BETDEL_clean_sbu_0, # of connection points: 6
#     Node 11, Type 0, BuildingBlock: BETDEL_clean_sbu_0, # of connection points: 6
#     Edge 12, Type (0, 0), None
#     Edge 13, Type (0, 0), None
#     Edge 14, Type (0, 0), None
#     Edge 15, Type (0, 0), None
#     Edge 16, Type (0, 0), None
#     Edge 17, Type (0, 0), None
#     Edge 18, Type (0, 0), None
#     Edge 19, Type (0, 0), None
#     Edge 20, Type (0, 0), None
#     Edge 21, Type (0, 0), None
#     Edge 22, Type (0, 0), None
#     Edge 23, Type (0, 0), None
#     Edge 24, Type (0, 0), None
#     Edge 25, Type (0, 0), None
#     Edge 26, Type (0, 0), None
#     Edge 27, Type (0, 0), None
#     Edge 28, Type (0, 0), None
#     Edge 29, Type (0, 0), None
#     Edge 30, Type (0, 0), None
#     Edge 31, Type (0, 0), None
#     Edge 32, Type (0, 0), None
#     Edge 33, Type (0, 0), None
#     Edge 34, Type (0, 0), None
#     Edge 35, Type (0, 0), None
#     Edge 36, Type (0, 0), None
#     Edge 37, Type (0, 0), None
#     Edge 38, Type (0, 0), None
#     Edge 39, Type (0, 0), None
#     Edge 40, Type (0, 0), None
#     Edge 41, Type (0, 0), None
#     Edge 42, Type (0, 0), None
#     Edge 43, Type (0, 0), None
#     Edge 44, Type (0, 0), None
#     Edge 45, Type (0, 0), None
#     Edge 46, Type (0, 0), None
#     Edge 47, Type (0, 0), None
# Relax obj value: 0.102
# Max RMSD: 0.205
# Mean RMSD: 0.205
data_MOF--net-wjd--node1-BETDEL_clean_sbu_0--edge1-none
_symmetry_space_group_name_H-M    P1
_symmetry_Int_Tables_number       1
_symmetry_cell_setting            triclinic
loop_
_symmetry_equiv_pos_as_xyz
'x, y, z'
_cell_length_a     15.695772
_cell_length_b     15.700946
_cell_length_c     22.73421
_cell_angle_alpha  89.861022
_cell_angle_beta   90.036674
_cell_angle_gamma 119.96927
loop_
_atom_site_label
_atom_site_type_symbol
_atom_site_fract_x
_atom_site_fract_y
_atom_site_fract_z
_atom_type_partial_charge
Dy0 Dy 0.44756 0.24677 0.11067 0.0
C1 C 0.14339 0.90721 0.15152 0.0
C2 C 0.55487 0.45024 0.11294 0.0
Dy3 Dy 0.31838 0.06753 0.16223 0.0
O4 O 0.54574 0.39392 0.06793 0.0
O5 O 0.50487 0.39265 0.15601 0.0
O6 O 0.43694 0.15118 0.02952 0.0
O7 O 0.31476 0.1172 0.07752 0.0
C8 C 0.34411 0.08578 0.03616 0.0
C9 C 0.412 0.19265 0.24912 0.0
O10 O 0.45405 0.05093 0.13618 0.0
O11 O 0.5651 0.21532 0.11715 0.0
O12 O 0.21113 0.91107 0.1874 0.0
O13 O 0.17346 0.98671 0.1215 0.0
O14 O 0.31766 0.1341 0.24614 0.0
O15 O 0.45169 0.18777 0.20097 0.0
O16 O 0.32712 0.27831 0.11887 0.0
O17 O 0.24292 0.15382 0.184 0.0
C18 C 0.5449 0.12429 0.12163 0.0
C19 C 0.2604 0.23708 0.15953 0.0
Dy20 Dy 0.80844 0.76463 0.388 0.0
C21 C 0.966 0.52901 0.43948 0.0
C22 C 0.81649 0.93959 0.38112 0.0
Dy23 Dy 0.87573 0.64131 0.44447 0.0
O24 O 0.85546 0.90835 0.34275 0.0
O25 O 0.76167 0.87019 0.41763 0.0
O26 O 0.73263 0.658 0.31636 0.0
O27 O 0.86592 0.6781 0.35096 0.0
C28 C 0.80458 0.63965 0.30881 0.0
C29 C 0.81009 0.74052 0.51572 0.0
O30 O 1.02335 0.76842 0.43747 0.0
O31 O 0.97303 0.8413 0.36786 0.0
O32 O 0.93121 0.54772 0.48722 0.0
O33 O 0.94845 0.57096 0.39589 0.0
O34 O 0.79132 0.65073 0.52591 0.0
O35 O 0.86634 0.77048 0.47213 0.0
O36 O 0.66498 0.63358 0.42319 0.0
O37 O 0.7249 0.52602 0.42942 0.0
C38 C 1.04308 0.83148 0.39459 0.0
C39 C 0.65199 0.54368 0.43249 0.0
Dy40 Dy 0.83542 0.20743 0.10942 0.0
C41 C 0.18317 0.26105 0.16043 0.0
C42 C 0.63163 0.11405 0.11163 0.0
Dy43 Dy 1.01174 0.25858 0.16377 0.0
O44 O 0.68834 0.15609 0.06569 0.0
O45 O 0.68897 0.12542 0.15562 0.0
O46 O 0.9328 0.28972 0.02843 0.0
O47 O 0.96667 0.20308 0.07867 0.0
C48 C 0.9984 0.26285 0.03636 0.0
C49 C 0.88358 0.2296 0.24806 0.0
O50 O 1.02603 0.41079 0.13818 0.0
O51 O 0.8652 0.35595 0.10869 0.0
O52 O 0.16061 0.30287 0.20283 0.0
O53 O 0.11582 0.22398 0.12097 0.0
O54 O 0.93658 0.18744 0.24562 0.0
O55 O 0.89171 0.27432 0.19936 0.0
O56 O 0.79753 0.05394 0.12107 0.0
O57 O 0.92429 0.09584 0.18508 0.0
C58 C 0.95449 0.42754 0.11789 0.0
C59 C 0.83954 1.02985 0.16211 0.0
Dy60 Dy 0.3215 0.06395 0.38644 0.0
C61 C 0.55597 0.45584 0.44166 0.0
C62 C 0.14621 0.89683 0.38 0.0
Dy63 Dy 0.44316 0.25299 0.44355 0.0
O64 O 0.17725 0.96717 0.3415 0.0
O65 O 0.21622 0.91116 0.41588 0.0
O66 O 0.43117 0.09566 0.31614 0.0
O67 O 0.40938 0.20849 0.34941 0.0
C68 C 0.44803 0.18523 0.30743 0.0
C69 C 0.34194 0.08698 0.51443 0.0
O70 O 0.3163 0.27391 0.43553 0.0
O71 O 0.24489 0.15174 0.36563 0.0
O72 O 0.53689 0.39986 0.48838 0.0
O73 O 0.51374 0.39875 0.39731 0.0
O74 O 0.43165 0.15762 0.52495 0.0
O75 O 0.31315 0.11416 0.47063 0.0
O76 O 0.45163 0.05107 0.42285 0.0
O77 O 0.55901 0.21833 0.42857 0.0
C78 C 0.25395 0.23106 0.3924 0.0
C79 C 0.54141 0.1279 0.43221 0.0
Dy80 Dy 0.86955 0.63591 0.11605 0.0
C81 C 0.79849 0.92627 0.17659 0.0
C82 C 0.96288 0.5245 0.11024 0.0
Dy83 Dy 0.8161 0.7654 0.16213 0.0
O84 O 0.91654 0.5403 0.06725 0.0
O85 O 0.95644 0.57037 0.15561 0.0
O86 O 0.78989 0.65107 0.03313 0.0
O87 O 0.87853 0.77295 0.0797 0.0
C88 C 0.82017 0.74473 0.0372 0.0
C89 C 0.84831 0.6713 0.25026 0.0
O90 O 0.66601 0.62819 0.13599 0.0
O91 O 0.72169 0.51742 0.12672 0.0
O92 O 0.84251 0.89765 0.21292 0.0
O93 O 0.74918 0.85777 0.13851 0.0
O94 O 0.89035 0.76552 0.24445 0.0
O95 O 0.80078 0.63203 0.20345 0.0
O96 O 1.01559 0.74146 0.1508 0.0
O97 O 0.9753 0.85952 0.13855 0.0
C98 C 0.65017 0.53695 0.12547 0.0
C99 C 1.04122 0.83332 0.14994 0.0
Dy100 Dy 1.02107 0.2769 0.38433 0.0
C101 C 0.62912 0.11983 0.44211 0.0
C102 C 0.18823 0.26847 0.37777 0.0
Dy103 Dy 0.83194 0.21057 0.4432 0.0
O104 O 0.11742 0.22849 0.33973 0.0
O105 O 0.17413 0.3246 0.41331 0.0
O106 O 0.98661 0.3496 0.31182 0.0
O107 O 0.87517 0.21794 0.34909 0.0
C108 C 0.89623 0.27705 0.30565 0.0
C109 C 0.99896 0.27631 0.51265 0.0
O110 O 0.81176 0.06319 0.43758 0.0
O111 O 0.93302 0.11188 0.36684 0.0
O112 O 0.68549 0.15912 0.48831 0.0
O113 O 0.68578 0.13248 0.3978 0.0
O114 O 0.9281 0.29482 0.52396 0.0
O115 O 0.9714 0.22012 0.46913 0.0
O116 O 1.03435 0.42013 0.42003 0.0
O117 O 0.86706 0.36068 0.4261 0.0
C118 C 0.85415 0.04264 0.3947 0.0
C119 C 0.95763 0.43327 0.42942 0.0
Dy120 Dy 0.07819 0.30316 0.66485 0.0
C121 C 0.47115 0.53879 0.61307 0.0
C122 C 0.91123 0.12824 0.67203 0.0
Dy123 Dy 0.26854 0.42637 0.60856 0.0
O124 O 0.98184 0.15939 0.71015 0.0
O125 O 0.92558 0.19768 0.63559 0.0
O126 O 0.10904 0.40983 0.73645 0.0
O127 O 0.22213 0.38935 0.70213 0.0
C128 C 0.19893 0.42725 0.74443 0.0
C129 C 0.1037 0.32756 0.53715 0.0
O130 O 0.28934 0.29938 0.61574 0.0
O131 O 0.166 0.22634 0.68511 0.0
O132 O 0.41724 0.51981 0.56546 0.0
O133 O 0.41203 0.49709 0.6568 0.0
O134 O 0.17477 0.41732 0.52707 0.0
O135 O 0.12999 0.29733 0.58066 0.0
O136 O 0.06573 0.43423 0.62963 0.0
O137 O 0.23314 0.54174 0.62382 0.0
C138 C 0.24596 0.23625 0.65858 0.0
C139 C 0.14261 0.52414 0.62048 0.0
Dy140 Dy 0.23212 0.81627 0.94172 0.0
C141 C 0.26794 0.15566 0.90005 0.0
C142 C 0.1361 0.61279 0.94017 0.0
Dy143 Dy 0.28215 0.99506 0.89004 0.0
O144 O 0.18268 0.66954 0.98516 0.0
O145 O 0.1443 0.66995 0.89669 0.0
O146 O 0.31721 0.91189 1.02287 0.0
O147 O 0.229 0.94596 0.9748 0.0
C148 C 0.28993 0.97741 1.0161 0.0
C149 C 0.25093 0.87008 0.8032 0.0
O150 O 0.43436 1.01164 0.91624 0.0
O151 O 0.38099 0.84741 0.9359 0.0
O152 O 0.33112 0.15111 0.86395 0.0
O153 O 0.21918 0.07683 0.93071 0.0
O154 O 0.21371 0.92735 0.80652 0.0
O155 O 0.29554 0.87503 0.85138 0.0
O156 O 0.08013 0.78468 0.93341 0.0
O157 O 0.12044 0.90933 0.86838 0.0
C158 C 0.4518 0.93836 0.93121 0.0
C159 C 0.05464 0.82619 0.89289 0.0
Dy160 Dy 0.77836 0.79087 0.66826 0.0
C161 C 0.54353 0.94842 0.61093 0.0
C162 C 0.95392 0.79914 0.67478 0.0
Dy163 Dy 0.65553 0.85748 0.6096 0.0
O164 O 0.92302 0.83885 0.71295 0.0
O165 O 0.88374 0.74337 0.63909 0.0
O166 O 0.67061 0.71701 0.7402 0.0
O167 O 0.69094 0.84907 0.7037 0.0
C168 C 0.65244 0.78928 0.74679 0.0
C169 C 0.75671 0.79192 0.5401 0.0
O170 O 0.78266 1.00482 0.61562 0.0
O171 O 0.85517 0.95576 0.68626 0.0
O172 O 0.56134 0.91007 0.56457 0.0
O173 O 0.58665 0.93446 0.65529 0.0
O174 O 0.66736 0.77346 0.52875 0.0
O175 O 0.78542 0.84808 0.58362 0.0
O176 O 0.6484 0.64771 0.63244 0.0
O177 O 0.54052 0.70719 0.62602 0.0
C178 C 0.8456 1.02517 0.65852 0.0
C179 C 0.55855 0.63459 0.62287 0.0
Dy180 Dy 0.26544 0.42661 0.9372 0.0
C181 C 0.90263 0.13733 0.87627 0.0
C182 C 0.47032 0.53821 0.94131 0.0
Dy183 Dy 0.0818 0.2977 0.88999 0.0
O184 O 0.40934 0.52095 0.9852 0.0
O185 O 0.41661 0.49405 0.89602 0.0
O186 O 0.17091 0.41005 1.02043 0.0
O187 O 0.13658 0.2892 0.97225 0.0
C188 C 0.10661 0.31682 1.01512 0.0
C189 C 0.20921 0.39341 0.80275 0.0
O190 O 0.06953 0.43525 0.91618 0.0
O191 O 0.23567 0.54514 0.92887 0.0
O192 O 0.97429 0.16612 0.8393 0.0
O193 O 0.92311 0.20569 0.91472 0.0
O194 O 0.15596 0.29906 0.8075 0.0
O195 O 0.20072 0.43171 0.84993 0.0
O196 O 0.30618 0.32119 0.90277 0.0
O197 O 0.14698 0.20281 0.91154 0.0
C198 C 0.14467 0.52583 0.92853 0.0
C199 C 0.23957 0.22949 0.90137 0.0
Dy200 Dy 0.29175 1.00372 0.66693 0.0
C201 C 0.13445 0.61202 0.61134 0.0
C202 C 0.28381 0.17095 0.67333 0.0
Dy203 Dy 0.22408 0.81469 0.60858 0.0
O204 O 0.24443 0.10059 0.71184 0.0
O205 O 0.33949 0.15657 0.63753 0.0
O206 O 0.36817 0.97006 0.73745 0.0
O207 O 0.23442 0.85836 0.70271 0.0
C208 C 0.29555 0.88006 0.745 0.0
C209 C 0.28966 0.98182 0.53876 0.0
O210 O 0.07652 0.79432 0.61672 0.0
O211 O 0.12722 0.91587 0.68713 0.0
O212 O 0.16975 0.66726 0.56419 0.0
O213 O 0.15083 0.66973 0.65557 0.0
O214 O 0.30786 0.91078 0.52743 0.0
O215 O 0.2337 0.95428 0.58253 0.0
O216 O 0.43483 1.0169 0.63071 0.0
O217 O 0.37481 0.84967 0.6232 0.0
C218 C 0.05703 0.83683 0.66007 0.0
C219 C 0.44766 0.9402 0.62047 0.0
Dy220 Dy 0.65919 0.85541 0.94326 0.0
C221 C 0.9536 0.80266 0.89213 0.0
C222 C 0.54868 0.94861 0.94138 0.0
Dy223 Dy 0.78476 0.80521 0.88894 0.0
O224 O 0.56301 0.9059 0.98715 0.0
O225 O 0.59513 0.93812 0.89739 0.0
O226 O 0.67344 0.77182 1.02392 0.0
O227 O 0.79447 0.8594 0.97431 0.0
C228 C 0.76592 0.79878 1.01617 0.0
C229 C 0.68648 0.83556 0.80468 0.0
O230 O 0.64713 0.6526 0.91393 0.0
O231 O 0.54045 0.70681 0.94289 0.0
O232 O 0.8889 0.76048 0.84991 0.0
O233 O 0.92377 0.84026 0.93151 0.0
O234 O 0.78158 0.87775 0.80745 0.0
O235 O 0.64928 0.78989 0.85301 0.0
O236 O 0.77473 1.00919 0.93207 0.0
O237 O 0.85984 0.968 0.86792 0.0
C238 C 0.55855 0.63543 0.9338 0.0
C239 C 0.84072 0.03374 0.89106 0.0
loop_
_geom_bond_atom_site_label_1
_geom_bond_atom_site_label_2
_geom_bond_distance
_geom_bond_site_symmetry_2
_ccdc_geom_bond_type
Dy0 O4 2.398 . S
Dy0 O5 2.491 . S
Dy0 O6 2.403 1_554 S
Dy0 O7 2.664 . S
Dy0 O11 2.326 . S
Dy0 O15 2.310 . S
Dy0 O16 2.351 . S
C1 O12 1.185 . S
C1 O13 1.355 . S
C2 O4 1.185 . S
C2 O5 1.355 . S
Dy3 O7 2.310 . S
Dy3 O10 2.351 . S
Dy3 O12 2.398 1_545 S
Dy3 O13 2.491 1_545 S
Dy3 O14 2.403 . S
Dy3 O15 2.664 . S
Dy3 O17 2.326 . S
O4 Dy0 2.398 . S
O4 C2 1.185 . S
O5 Dy0 2.491 . S
O5 C2 1.355 . S
O6 Dy0 2.403 1_556 S
O6 C8 1.254 1_556 S
O7 Dy0 2.664 . S
O7 Dy3 2.310 . S
O7 C8 1.268 . S
C8 O6 1.254 1_554 S
C8 O7 1.268 . S
C9 O14 1.254 . S
C9 O15 1.268 . S
O10 Dy3 2.351 . S
O10 C18 1.249 . S
O11 Dy0 2.326 . S
O11 C18 1.267 . S
O12 C1 1.185 . S
O12 Dy3 2.398 1_565 S
O13 C1 1.355 . S
O13 Dy3 2.491 1_565 S
O14 Dy3 2.403 . S
O14 C9 1.254 . S
O15 Dy0 2.310 . S
O15 Dy3 2.664 . S
O15 C9 1.268 . S
O16 Dy0 2.351 . S
O16 C19 1.249 . S
O17 Dy3 2.326 . S
O17 C19 1.267 . S
C18 O10 1.249 . S
C18 O11 1.267 . S
C19 O16 1.249 . S
C19 O17 1.267 . S
Dy20 O24 2.398 . S
Dy20 O25 2.491 . S
Dy20 O26 2.403 . S
Dy20 O27 2.664 . S
Dy20 O31 2.326 . S
Dy20 O35 2.310 . S
Dy20 O36 2.351 . S
C21 O32 1.185 . S
C21 O33 1.355 . S
C22 O24 1.185 . S
C22 O25 1.355 . S
Dy23 O27 2.310 . S
Dy23 O30 2.351 . S
Dy23 O32 2.398 . S
Dy23 O33 2.491 . S
Dy23 O34 2.403 . S
Dy23 O35 2.664 . S
Dy23 O37 2.326 . S
O24 Dy20 2.398 . S
O24 C22 1.185 . S
O25 Dy20 2.491 . S
O25 C22 1.355 . S
O26 Dy20 2.403 . S
O26 C28 1.254 . S
O27 Dy20 2.664 . S
O27 Dy23 2.310 . S
O27 C28 1.268 . S
C28 O26 1.254 . S
C28 O27 1.268 . S
C29 O34 1.254 . S
C29 O35 1.268 . S
O30 Dy23 2.351 . S
O30 C38 1.249 . S
O31 Dy20 2.326 . S
O31 C38 1.267 . S
O32 C21 1.185 . S
O32 Dy23 2.398 . S
O33 C21 1.355 . S
O33 Dy23 2.491 . S
O34 Dy23 2.403 . S
O34 C29 1.254 . S
O35 Dy20 2.310 . S
O35 Dy23 2.664 . S
O35 C29 1.268 . S
O36 Dy20 2.351 . S
O36 C39 1.249 . S
O37 Dy23 2.326 . S
O37 C39 1.267 . S
C38 O30 1.249 . S
C38 O31 1.267 . S
C39 O36 1.249 . S
C39 O37 1.267 . S
Dy40 O44 2.398 . S
Dy40 O45 2.491 . S
Dy40 O46 2.403 1_554 S
Dy40 O47 2.664 . S
Dy40 O51 2.326 . S
Dy40 O55 2.310 . S
Dy40 O56 2.351 . S
C41 O52 1.185 . S
C41 O53 1.355 . S
C42 O44 1.185 . S
C42 O45 1.355 . S
Dy43 O47 2.310 . S
Dy43 O50 2.351 . S
Dy43 O52 2.398 1_655 S
Dy43 O53 2.491 1_655 S
Dy43 O54 2.403 . S
Dy43 O55 2.664 . S
Dy43 O57 2.326 . S
O44 Dy40 2.398 . S
O44 C42 1.185 . S
O45 Dy40 2.491 . S
O45 C42 1.355 . S
O46 Dy40 2.403 1_556 S
O46 C48 1.254 1_556 S
O47 Dy40 2.664 . S
O47 Dy43 2.310 . S
O47 C48 1.268 . S
C48 O46 1.254 1_554 S
C48 O47 1.268 . S
C49 O54 1.254 . S
C49 O55 1.268 . S
O50 Dy43 2.351 . S
O50 C58 1.249 . S
O51 Dy40 2.326 . S
O51 C58 1.267 . S
O52 C41 1.185 . S
O52 Dy43 2.398 1_455 S
O53 C41 1.355 . S
O53 Dy43 2.491 1_455 S
O54 Dy43 2.403 . S
O54 C49 1.254 . S
O55 Dy40 2.310 . S
O55 Dy43 2.664 . S
O55 C49 1.268 . S
O56 Dy40 2.351 . S
O56 C59 1.249 . S
O57 Dy43 2.326 . S
O57 C59 1.267 . S
C58 O50 1.249 . S
C58 O51 1.267 . S
C59 O56 1.249 . S
C59 O57 1.267 . S
Dy60 O64 2.398 1_545 S
Dy60 O65 2.491 1_545 S
Dy60 O66 2.403 . S
Dy60 O67 2.664 . S
Dy60 O71 2.326 . S
Dy60 O75 2.310 . S
Dy60 O76 2.351 . S
C61 O72 1.185 . S
C61 O73 1.355 . S
C62 O64 1.185 . S
C62 O65 1.355 . S
Dy63 O67 2.310 . S
Dy63 O70 2.351 . S
Dy63 O72 2.398 . S
Dy63 O73 2.491 . S
Dy63 O74 2.403 . S
Dy63 O75 2.664 . S
Dy63 O77 2.326 . S
O64 Dy60 2.398 1_565 S
O64 C62 1.185 . S
O65 Dy60 2.491 1_565 S
O65 C62 1.355 . S
O66 Dy60 2.403 . S
O66 C68 1.254 . S
O67 Dy60 2.664 . S
O67 Dy63 2.310 . S
O67 C68 1.268 . S
C68 O66 1.254 . S
C68 O67 1.268 . S
C69 O74 1.254 . S
C69 O75 1.268 . S
O70 Dy63 2.351 . S
O70 C78 1.249 . S
O71 Dy60 2.326 . S
O71 C78 1.267 . S
O72 C61 1.185 . S
O72 Dy63 2.398 . S
O73 C61 1.355 . S
O73 Dy63 2.491 . S
O74 Dy63 2.403 . S
O74 C69 1.254 . S
O75 Dy60 2.310 . S
O75 Dy63 2.664 . S
O75 C69 1.268 . S
O76 Dy60 2.351 . S
O76 C79 1.249 . S
O77 Dy63 2.326 . S
O77 C79 1.267 . S
C78 O70 1.249 . S
C78 O71 1.267 . S
C79 O76 1.249 . S
C79 O77 1.267 . S
Dy80 O84 2.398 . S
Dy80 O85 2.491 . S
Dy80 O86 2.403 1_554 S
Dy80 O87 2.664 . S
Dy80 O91 2.326 . S
Dy80 O95 2.310 . S
Dy80 O96 2.351 . S
C81 O92 1.185 . S
C81 O93 1.355 . S
C82 O84 1.185 . S
C82 O85 1.355 . S
Dy83 O87 2.310 . S
Dy83 O90 2.351 . S
Dy83 O92 2.398 . S
Dy83 O93 2.491 . S
Dy83 O94 2.403 . S
Dy83 O95 2.664 . S
Dy83 O97 2.326 . S
O84 Dy80 2.398 . S
O84 C82 1.185 . S
O85 Dy80 2.491 . S
O85 C82 1.355 . S
O86 Dy80 2.403 1_556 S
O86 C88 1.254 1_556 S
O87 Dy80 2.664 . S
O87 Dy83 2.310 . S
O87 C88 1.268 . S
C88 O86 1.254 1_554 S
C88 O87 1.268 . S
C89 O94 1.254 . S
C89 O95 1.268 . S
O90 Dy83 2.351 . S
O90 C98 1.249 . S
O91 Dy80 2.326 . S
O91 C98 1.267 . S
O92 C81 1.185 . S
O92 Dy83 2.398 . S
O93 C81 1.355 . S
O93 Dy83 2.491 . S
O94 Dy83 2.403 . S
O94 C89 1.254 . S
O95 Dy80 2.310 . S
O95 Dy83 2.664 . S
O95 C89 1.268 . S
O96 Dy80 2.351 . S
O96 C99 1.249 . S
O97 Dy83 2.326 . S
O97 C99 1.267 . S
C98 O90 1.249 . S
C98 O91 1.267 . S
C99 O96 1.249 . S
C99 O97 1.267 . S
Dy100 O104 2.398 1_655 S
Dy100 O105 2.491 1_655 S
Dy100 O106 2.403 . S
Dy100 O107 2.664 . S
Dy100 O111 2.326 . S
Dy100 O115 2.310 . S
Dy100 O116 2.351 . S
C101 O112 1.185 . S
C101 O113 1.355 . S
C102 O104 1.185 . S
C102 O105 1.355 . S
Dy103 O107 2.310 . S
Dy103 O110 2.351 . S
Dy103 O112 2.398 . S
Dy103 O113 2.491 . S
Dy103 O114 2.403 . S
Dy103 O115 2.664 . S
Dy103 O117 2.326 . S
O104 Dy100 2.398 1_455 S
O104 C102 1.185 . S
O105 Dy100 2.491 1_455 S
O105 C102 1.355 . S
O106 Dy100 2.403 . S
O106 C108 1.254 . S
O107 Dy100 2.664 . S
O107 Dy103 2.310 . S
O107 C108 1.268 . S
C108 O106 1.254 . S
C108 O107 1.268 . S
C109 O114 1.254 . S
C109 O115 1.268 . S
O110 Dy103 2.351 . S
O110 C118 1.249 . S
O111 Dy100 2.326 . S
O111 C118 1.267 . S
O112 C101 1.185 . S
O112 Dy103 2.398 . S
O113 C101 1.355 . S
O113 Dy103 2.491 . S
O114 Dy103 2.403 . S
O114 C109 1.254 . S
O115 Dy100 2.310 . S
O115 Dy103 2.664 . S
O115 C109 1.268 . S
O116 Dy100 2.351 . S
O116 C119 1.249 . S
O117 Dy103 2.326 . S
O117 C119 1.267 . S
C118 O110 1.249 . S
C118 O111 1.267 . S
C119 O116 1.249 . S
C119 O117 1.267 . S
Dy120 O124 2.398 1_455 S
Dy120 O125 2.491 1_455 S
Dy120 O126 2.403 . S
Dy120 O127 2.664 . S
Dy120 O131 2.326 . S
Dy120 O135 2.310 . S
Dy120 O136 2.351 . S
C121 O132 1.185 . S
C121 O133 1.355 . S
C122 O124 1.185 . S
C122 O125 1.355 . S
Dy123 O127 2.310 . S
Dy123 O130 2.351 . S
Dy123 O132 2.398 . S
Dy123 O133 2.491 . S
Dy123 O134 2.403 . S
Dy123 O135 2.664 . S
Dy123 O137 2.326 . S
O124 Dy120 2.398 1_655 S
O124 C122 1.185 . S
O125 Dy120 2.491 1_655 S
O125 C122 1.355 . S
O126 Dy120 2.403 . S
O126 C128 1.254 . S
O127 Dy120 2.664 . S
O127 Dy123 2.310 . S
O127 C128 1.268 . S
C128 O126 1.254 . S
C128 O127 1.268 . S
C129 O134 1.254 . S
C129 O135 1.268 . S
O130 Dy123 2.351 . S
O130 C138 1.249 . S
O131 Dy120 2.326 . S
O131 C138 1.267 . S
O132 C121 1.185 . S
O132 Dy123 2.398 . S
O133 C121 1.355 . S
O133 Dy123 2.491 . S
O134 Dy123 2.403 . S
O134 C129 1.254 . S
O135 Dy120 2.310 . S
O135 Dy123 2.664 . S
O135 C129 1.268 . S
O136 Dy120 2.351 . S
O136 C139 1.249 . S
O137 Dy123 2.326 . S
O137 C139 1.267 . S
C138 O130 1.249 . S
C138 O131 1.267 . S
C139 O136 1.249 . S
C139 O137 1.267 . S
Dy140 O144 2.398 . S
Dy140 O145 2.491 . S
Dy140 O146 2.403 1_556 S
Dy140 O147 2.664 . S
Dy140 O151 2.326 . S
Dy140 O155 2.310 . S
Dy140 O156 2.351 . S
C141 O152 1.185 . S
C141 O153 1.355 . S
C142 O144 1.185 . S
C142 O145 1.355 . S
Dy143 O147 2.310 . S
Dy143 O150 2.351 . S
Dy143 O152 2.398 1_565 S
Dy143 O153 2.491 1_565 S
Dy143 O154 2.403 . S
Dy143 O155 2.664 . S
Dy143 O157 2.326 . S
O144 Dy140 2.398 . S
O144 C142 1.185 . S
O145 Dy140 2.491 . S
O145 C142 1.355 . S
O146 Dy140 2.403 1_554 S
O146 C148 1.254 1_554 S
O147 Dy140 2.664 . S
O147 Dy143 2.310 . S
O147 C148 1.268 . S
C148 O146 1.254 1_556 S
C148 O147 1.268 . S
C149 O154 1.254 . S
C149 O155 1.268 . S
O150 Dy143 2.351 . S
O150 C158 1.249 . S
O151 Dy140 2.326 . S
O151 C158 1.267 . S
O152 C141 1.185 . S
O152 Dy143 2.398 1_545 S
O153 C141 1.355 . S
O153 Dy143 2.491 1_545 S
O154 Dy143 2.403 . S
O154 C149 1.254 . S
O155 Dy140 2.310 . S
O155 Dy143 2.664 . S
O155 C149 1.268 . S
O156 Dy140 2.351 . S
O156 C159 1.249 . S
O157 Dy143 2.326 . S
O157 C159 1.267 . S
C158 O150 1.249 . S
C158 O151 1.267 . S
C159 O156 1.249 . S
C159 O157 1.267 . S
Dy160 O164 2.398 . S
Dy160 O165 2.491 . S
Dy160 O166 2.403 . S
Dy160 O167 2.664 . S
Dy160 O171 2.326 . S
Dy160 O175 2.310 . S
Dy160 O176 2.351 . S
C161 O172 1.185 . S
C161 O173 1.355 . S
C162 O164 1.185 . S
C162 O165 1.355 . S
Dy163 O167 2.310 . S
Dy163 O170 2.351 . S
Dy163 O172 2.398 . S
Dy163 O173 2.491 . S
Dy163 O174 2.403 . S
Dy163 O175 2.664 . S
Dy163 O177 2.326 . S
O164 Dy160 2.398 . S
O164 C162 1.185 . S
O165 Dy160 2.491 . S
O165 C162 1.355 . S
O166 Dy160 2.403 . S
O166 C168 1.254 . S
O167 Dy160 2.664 . S
O167 Dy163 2.310 . S
O167 C168 1.268 . S
C168 O166 1.254 . S
C168 O167 1.268 . S
C169 O174 1.254 . S
C169 O175 1.268 . S
O170 Dy163 2.351 . S
O170 C178 1.249 . S
O171 Dy160 2.326 . S
O171 C178 1.267 . S
O172 C161 1.185 . S
O172 Dy163 2.398 . S
O173 C161 1.355 . S
O173 Dy163 2.491 . S
O174 Dy163 2.403 . S
O174 C169 1.254 . S
O175 Dy160 2.310 . S
O175 Dy163 2.664 . S
O175 C169 1.268 . S
O176 Dy160 2.351 . S
O176 C179 1.249 . S
O177 Dy163 2.326 . S
O177 C179 1.267 . S
C178 O170 1.249 . S
C178 O171 1.267 . S
C179 O176 1.249 . S
C179 O177 1.267 . S
Dy180 O184 2.398 . S
Dy180 O185 2.491 . S
Dy180 O186 2.403 1_556 S
Dy180 O187 2.664 . S
Dy180 O191 2.326 . S
Dy180 O195 2.310 . S
Dy180 O196 2.351 . S
C181 O192 1.185 . S
C181 O193 1.355 . S
C182 O184 1.185 . S
C182 O185 1.355 . S
Dy183 O187 2.310 . S
Dy183 O190 2.351 . S
Dy183 O192 2.398 1_455 S
Dy183 O193 2.491 1_455 S
Dy183 O194 2.403 . S
Dy183 O195 2.664 . S
Dy183 O197 2.326 . S
O184 Dy180 2.398 . S
O184 C182 1.185 . S
O185 Dy180 2.491 . S
O185 C182 1.355 . S
O186 Dy180 2.403 1_554 S
O186 C188 1.254 1_554 S
O187 Dy180 2.664 . S
O187 Dy183 2.310 . S
O187 C188 1.268 . S
C188 O186 1.254 1_556 S
C188 O187 1.268 . S
C189 O194 1.254 . S
C189 O195 1.268 . S
O190 Dy183 2.351 . S
O190 C198 1.249 . S
O191 Dy180 2.326 . S
O191 C198 1.267 . S
O192 C181 1.185 . S
O192 Dy183 2.398 1_655 S
O193 C181 1.355 . S
O193 Dy183 2.491 1_655 S
O194 Dy183 2.403 . S
O194 C189 1.254 . S
O195 Dy180 2.310 . S
O195 Dy183 2.664 . S
O195 C189 1.268 . S
O196 Dy180 2.351 . S
O196 C199 1.249 . S
O197 Dy183 2.326 . S
O197 C199 1.267 . S
C198 O190 1.249 . S
C198 O191 1.267 . S
C199 O196 1.249 . S
C199 O197 1.267 . S
Dy200 O204 2.398 1_565 S
Dy200 O205 2.491 1_565 S
Dy200 O206 2.403 . S
Dy200 O207 2.664 . S
Dy200 O211 2.326 . S
Dy200 O215 2.310 . S
Dy200 O216 2.351 . S
C201 O212 1.185 . S
C201 O213 1.355 . S
C202 O204 1.185 . S
C202 O205 1.355 . S
Dy203 O207 2.310 . S
Dy203 O210 2.351 . S
Dy203 O212 2.398 . S
Dy203 O213 2.491 . S
Dy203 O214 2.403 . S
Dy203 O215 2.664 . S
Dy203 O217 2.326 . S
O204 Dy200 2.398 1_545 S
O204 C202 1.185 . S
O205 Dy200 2.491 1_545 S
O205 C202 1.355 . S
O206 Dy200 2.403 . S
O206 C208 1.254 . S
O207 Dy200 2.664 . S
O207 Dy203 2.310 . S
O207 C208 1.268 . S
C208 O206 1.254 . S
C208 O207 1.268 . S
C209 O214 1.254 . S
C209 O215 1.268 . S
O210 Dy203 2.351 . S
O210 C218 1.249 . S
O211 Dy200 2.326 . S
O211 C218 1.267 . S
O212 C201 1.185 . S
O212 Dy203 2.398 . S
O213 C201 1.355 . S
O213 Dy203 2.491 . S
O214 Dy203 2.403 . S
O214 C209 1.254 . S
O215 Dy200 2.310 . S
O215 Dy203 2.664 . S
O215 C209 1.268 . S
O216 Dy200 2.351 . S
O216 C219 1.249 . S
O217 Dy203 2.326 . S
O217 C219 1.267 . S
C218 O210 1.249 . S
C218 O211 1.267 . S
C219 O216 1.249 . S
C219 O217 1.267 . S
Dy220 O224 2.398 . S
Dy220 O225 2.491 . S
Dy220 O226 2.403 1_556 S
Dy220 O227 2.664 . S
Dy220 O231 2.326 . S
Dy220 O235 2.310 . S
Dy220 O236 2.351 . S
C221 O232 1.185 . S
C221 O233 1.355 . S
C222 O224 1.185 . S
C222 O225 1.355 . S
Dy223 O227 2.310 . S
Dy223 O230 2.351 . S
Dy223 O232 2.398 . S
Dy223 O233 2.491 . S
Dy223 O234 2.403 . S
Dy223 O235 2.664 . S
Dy223 O237 2.326 . S
O224 Dy220 2.398 . S
O224 C222 1.185 . S
O225 Dy220 2.491 . S
O225 C222 1.355 . S
O226 Dy220 2.403 1_554 S
O226 C228 1.254 1_554 S
O227 Dy220 2.664 . S
O227 Dy223 2.310 . S
O227 C228 1.268 . S
C228 O226 1.254 1_556 S
C228 O227 1.268 . S
C229 O234 1.254 . S
C229 O235 1.268 . S
O230 Dy223 2.351 . S
O230 C238 1.249 . S
O231 Dy220 2.326 . S
O231 C238 1.267 . S
O232 C221 1.185 . S
O232 Dy223 2.398 . S
O233 C221 1.355 . S
O233 Dy223 2.491 . S
O234 Dy223 2.403 . S
O234 C229 1.254 . S
O235 Dy220 2.310 . S
O235 Dy223 2.664 . S
O235 C229 1.268 . S
O236 Dy220 2.351 . S
O236 C239 1.249 . S
O237 Dy223 2.326 . S
O237 C239 1.267 . S
C238 O230 1.249 . S
C238 O231 1.267 . S
C239 O236 1.249 . S
C239 O237 1.267 . S
C41 C19 1.535 . S
C62 C38 1.535 1_455 S
C59 C81 1.535 1_545 S
C78 C102 1.535 . S
C1 C99 1.535 1_455 S
C22 C118 1.535 1_565 S
C202 C138 1.535 . S
C159 C221 1.535 1_455 S
C178 C122 1.535 1_565 S
C199 C141 1.535 . S
C218 C162 1.535 1_455 S
C181 C239 1.535 1_545 S
C68 C9 1.473 . S
C28 C89 1.473 . S
C49 C108 1.473 . S
C128 C189 1.473 . S
C149 C208 1.473 . S
C168 C229 1.473 . S
C148 C8 3.521 1_566 S
C29 C169 3.521 . S
C188 C48 3.521 1_456 S
C69 C209 3.521 1_545 S
C88 C228 3.521 1_554 S
C129 C109 3.521 1_455 S
C42 C18 1.703 . S
C39 C61 1.703 . S
C58 C82 1.703 . S
C79 C101 1.703 . S
C2 C98 1.703 . S
C21 C119 1.703 . S
C201 C139 1.703 . S
C158 C222 1.703 . S
C179 C121 1.703 . S
C142 C198 1.703 . S
C219 C161 1.703 . S
C238 C182 1.703 . S
