# Generated by pormake.
# Topology uoh, (4)-cn, num edge types: 1
# Building blocks:
#     Node 0, Type 0, BuildingBlock: QUQFOY_clean_sbu_3, # of connection points: 4
#     Node 1, Type 0, BuildingBlock: QUQFOY_clean_sbu_3, # of connection points: 4
#     Node 2, Type 0, BuildingBlock: QUQFOY_clean_sbu_3, # of connection points: 4
#     Node 3, Type 0, BuildingBlock: QUQFOY_clean_sbu_3, # of connection points: 4
#     Node 4, Type 0, BuildingBlock: QUQFOY_clean_sbu_3, # of connection points: 4
#     Node 5, Type 0, BuildingBlock: QUQFOY_clean_sbu_3, # of connection points: 4
#     Node 6, Type 0, BuildingBlock: QUQFOY_clean_sbu_3, # of connection points: 4
#     Node 7, Type 0, BuildingBlock: QUQFOY_clean_sbu_3, # of connection points: 4
#     Node 8, Type 0, BuildingBlock: QUQFOY_clean_sbu_3, # of connection points: 4
#     Node 9, Type 0, BuildingBlock: QUQFOY_clean_sbu_3, # of connection points: 4
#     Node 10, Type 0, BuildingBlock: QUQFOY_clean_sbu_3, # of connection points: 4
#     Node 11, Type 0, BuildingBlock: QUQFOY_clean_sbu_3, # of connection points: 4
#     Node 12, Type 0, BuildingBlock: QUQFOY_clean_sbu_3, # of connection points: 4
#     Node 13, Type 0, BuildingBlock: QUQFOY_clean_sbu_3, # of connection points: 4
#     Node 14, Type 0, BuildingBlock: QUQFOY_clean_sbu_3, # of connection points: 4
#     Node 15, Type 0, BuildingBlock: QUQFOY_clean_sbu_3, # of connection points: 4
#     Node 16, Type 0, BuildingBlock: QUQFOY_clean_sbu_3, # of connection points: 4
#     Node 17, Type 0, BuildingBlock: QUQFOY_clean_sbu_3, # of connection points: 4
#     Node 18, Type 0, BuildingBlock: QUQFOY_clean_sbu_3, # of connection points: 4
#     Node 19, Type 0, BuildingBlock: QUQFOY_clean_sbu_3, # of connection points: 4
#     Node 20, Type 0, BuildingBlock: QUQFOY_clean_sbu_3, # of connection points: 4
#     Node 21, Type 0, BuildingBlock: QUQFOY_clean_sbu_3, # of connection points: 4
#     Node 22, Type 0, BuildingBlock: QUQFOY_clean_sbu_3, # of connection points: 4
#     Node 23, Type 0, BuildingBlock: QUQFOY_clean_sbu_3, # of connection points: 4
#     Node 24, Type 0, BuildingBlock: QUQFOY_clean_sbu_3, # of connection points: 4
#     Node 25, Type 0, BuildingBlock: QUQFOY_clean_sbu_3, # of connection points: 4
#     Node 26, Type 0, BuildingBlock: QUQFOY_clean_sbu_3, # of connection points: 4
#     Node 27, Type 0, BuildingBlock: QUQFOY_clean_sbu_3, # of connection points: 4
#     Node 28, Type 0, BuildingBlock: QUQFOY_clean_sbu_3, # of connection points: 4
#     Node 29, Type 0, BuildingBlock: QUQFOY_clean_sbu_3, # of connection points: 4
#     Node 30, Type 0, BuildingBlock: QUQFOY_clean_sbu_3, # of connection points: 4
#     Node 31, Type 0, BuildingBlock: QUQFOY_clean_sbu_3, # of connection points: 4
#     Node 32, Type 0, BuildingBlock: QUQFOY_clean_sbu_3, # of connection points: 4
#     Node 33, Type 0, BuildingBlock: QUQFOY_clean_sbu_3, # of connection points: 4
#     Node 34, Type 0, BuildingBlock: QUQFOY_clean_sbu_3, # of connection points: 4
#     Node 35, Type 0, BuildingBlock: QUQFOY_clean_sbu_3, # of connection points: 4
#     Edge 36, Type (0, 0), BuildingBlock: MIFKUJ_clean_linker_0, # of connection points: 2
#     Edge 37, Type (0, 0), BuildingBlock: MIFKUJ_clean_linker_0, # of connection points: 2
#     Edge 38, Type (0, 0), BuildingBlock: MIFKUJ_clean_linker_0, # of connection points: 2
#     Edge 39, Type (0, 0), BuildingBlock: MIFKUJ_clean_linker_0, # of connection points: 2
#     Edge 40, Type (0, 0), BuildingBlock: MIFKUJ_clean_linker_0, # of connection points: 2
#     Edge 41, Type (0, 0), BuildingBlock: MIFKUJ_clean_linker_0, # of connection points: 2
#     Edge 42, Type (0, 0), BuildingBlock: MIFKUJ_clean_linker_0, # of connection points: 2
#     Edge 43, Type (0, 0), BuildingBlock: MIFKUJ_clean_linker_0, # of connection points: 2
#     Edge 44, Type (0, 0), BuildingBlock: MIFKUJ_clean_linker_0, # of connection points: 2
#     Edge 45, Type (0, 0), BuildingBlock: MIFKUJ_clean_linker_0, # of connection points: 2
#     Edge 46, Type (0, 0), BuildingBlock: MIFKUJ_clean_linker_0, # of connection points: 2
#     Edge 47, Type (0, 0), BuildingBlock: MIFKUJ_clean_linker_0, # of connection points: 2
#     Edge 48, Type (0, 0), BuildingBlock: MIFKUJ_clean_linker_0, # of connection points: 2
#     Edge 49, Type (0, 0), BuildingBlock: MIFKUJ_clean_linker_0, # of connection points: 2
#     Edge 50, Type (0, 0), BuildingBlock: MIFKUJ_clean_linker_0, # of connection points: 2
#     Edge 51, Type (0, 0), BuildingBlock: MIFKUJ_clean_linker_0, # of connection points: 2
#     Edge 52, Type (0, 0), BuildingBlock: MIFKUJ_clean_linker_0, # of connection points: 2
#     Edge 53, Type (0, 0), BuildingBlock: MIFKUJ_clean_linker_0, # of connection points: 2
#     Edge 54, Type (0, 0), BuildingBlock: MIFKUJ_clean_linker_0, # of connection points: 2
#     Edge 55, Type (0, 0), BuildingBlock: MIFKUJ_clean_linker_0, # of connection points: 2
#     Edge 56, Type (0, 0), BuildingBlock: MIFKUJ_clean_linker_0, # of connection points: 2
#     Edge 57, Type (0, 0), BuildingBlock: MIFKUJ_clean_linker_0, # of connection points: 2
#     Edge 58, Type (0, 0), BuildingBlock: MIFKUJ_clean_linker_0, # of connection points: 2
#     Edge 59, Type (0, 0), BuildingBlock: MIFKUJ_clean_linker_0, # of connection points: 2
#     Edge 60, Type (0, 0), BuildingBlock: MIFKUJ_clean_linker_0, # of connection points: 2
#     Edge 61, Type (0, 0), BuildingBlock: MIFKUJ_clean_linker_0, # of connection points: 2
#     Edge 62, Type (0, 0), BuildingBlock: MIFKUJ_clean_linker_0, # of connection points: 2
#     Edge 63, Type (0, 0), BuildingBlock: MIFKUJ_clean_linker_0, # of connection points: 2
#     Edge 64, Type (0, 0), BuildingBlock: MIFKUJ_clean_linker_0, # of connection points: 2
#     Edge 65, Type (0, 0), BuildingBlock: MIFKUJ_clean_linker_0, # of connection points: 2
#     Edge 66, Type (0, 0), BuildingBlock: MIFKUJ_clean_linker_0, # of connection points: 2
#     Edge 67, Type (0, 0), BuildingBlock: MIFKUJ_clean_linker_0, # of connection points: 2
#     Edge 68, Type (0, 0), BuildingBlock: MIFKUJ_clean_linker_0, # of connection points: 2
#     Edge 69, Type (0, 0), BuildingBlock: MIFKUJ_clean_linker_0, # of connection points: 2
#     Edge 70, Type (0, 0), BuildingBlock: MIFKUJ_clean_linker_0, # of connection points: 2
#     Edge 71, Type (0, 0), BuildingBlock: MIFKUJ_clean_linker_0, # of connection points: 2
#     Edge 72, Type (0, 0), BuildingBlock: MIFKUJ_clean_linker_0, # of connection points: 2
#     Edge 73, Type (0, 0), BuildingBlock: MIFKUJ_clean_linker_0, # of connection points: 2
#     Edge 74, Type (0, 0), BuildingBlock: MIFKUJ_clean_linker_0, # of connection points: 2
#     Edge 75, Type (0, 0), BuildingBlock: MIFKUJ_clean_linker_0, # of connection points: 2
#     Edge 76, Type (0, 0), BuildingBlock: MIFKUJ_clean_linker_0, # of connection points: 2
#     Edge 77, Type (0, 0), BuildingBlock: MIFKUJ_clean_linker_0, # of connection points: 2
#     Edge 78, Type (0, 0), BuildingBlock: MIFKUJ_clean_linker_0, # of connection points: 2
#     Edge 79, Type (0, 0), BuildingBlock: MIFKUJ_clean_linker_0, # of connection points: 2
#     Edge 80, Type (0, 0), BuildingBlock: MIFKUJ_clean_linker_0, # of connection points: 2
#     Edge 81, Type (0, 0), BuildingBlock: MIFKUJ_clean_linker_0, # of connection points: 2
#     Edge 82, Type (0, 0), BuildingBlock: MIFKUJ_clean_linker_0, # of connection points: 2
#     Edge 83, Type (0, 0), BuildingBlock: MIFKUJ_clean_linker_0, # of connection points: 2
#     Edge 84, Type (0, 0), BuildingBlock: MIFKUJ_clean_linker_0, # of connection points: 2
#     Edge 85, Type (0, 0), BuildingBlock: MIFKUJ_clean_linker_0, # of connection points: 2
#     Edge 86, Type (0, 0), BuildingBlock: MIFKUJ_clean_linker_0, # of connection points: 2
#     Edge 87, Type (0, 0), BuildingBlock: MIFKUJ_clean_linker_0, # of connection points: 2
#     Edge 88, Type (0, 0), BuildingBlock: MIFKUJ_clean_linker_0, # of connection points: 2
#     Edge 89, Type (0, 0), BuildingBlock: MIFKUJ_clean_linker_0, # of connection points: 2
#     Edge 90, Type (0, 0), BuildingBlock: MIFKUJ_clean_linker_0, # of connection points: 2
#     Edge 91, Type (0, 0), BuildingBlock: MIFKUJ_clean_linker_0, # of connection points: 2
#     Edge 92, Type (0, 0), BuildingBlock: MIFKUJ_clean_linker_0, # of connection points: 2
#     Edge 93, Type (0, 0), BuildingBlock: MIFKUJ_clean_linker_0, # of connection points: 2
#     Edge 94, Type (0, 0), BuildingBlock: MIFKUJ_clean_linker_0, # of connection points: 2
#     Edge 95, Type (0, 0), BuildingBlock: MIFKUJ_clean_linker_0, # of connection points: 2
#     Edge 96, Type (0, 0), BuildingBlock: MIFKUJ_clean_linker_0, # of connection points: 2
#     Edge 97, Type (0, 0), BuildingBlock: MIFKUJ_clean_linker_0, # of connection points: 2
#     Edge 98, Type (0, 0), BuildingBlock: MIFKUJ_clean_linker_0, # of connection points: 2
#     Edge 99, Type (0, 0), BuildingBlock: MIFKUJ_clean_linker_0, # of connection points: 2
#     Edge 100, Type (0, 0), BuildingBlock: MIFKUJ_clean_linker_0, # of connection points: 2
#     Edge 101, Type (0, 0), BuildingBlock: MIFKUJ_clean_linker_0, # of connection points: 2
#     Edge 102, Type (0, 0), BuildingBlock: MIFKUJ_clean_linker_0, # of connection points: 2
#     Edge 103, Type (0, 0), BuildingBlock: MIFKUJ_clean_linker_0, # of connection points: 2
#     Edge 104, Type (0, 0), BuildingBlock: MIFKUJ_clean_linker_0, # of connection points: 2
#     Edge 105, Type (0, 0), BuildingBlock: MIFKUJ_clean_linker_0, # of connection points: 2
#     Edge 106, Type (0, 0), BuildingBlock: MIFKUJ_clean_linker_0, # of connection points: 2
#     Edge 107, Type (0, 0), BuildingBlock: MIFKUJ_clean_linker_0, # of connection points: 2
# Relax obj value: 0.091
# Max RMSD: 0.145
# Mean RMSD: 0.145
data_MOF--net-uoh--node1-QUQFOY_clean_sbu_3--edge1-MIFKUJ_clean_linker_0
_symmetry_space_group_name_H-M    P1
_symmetry_Int_Tables_number       1
_symmetry_cell_setting            triclinic
loop_
_symmetry_equiv_pos_as_xyz
'x, y, z'
_cell_length_a     116.41641
_cell_length_b     116.38153
_cell_length_c     36.489967
_cell_angle_alpha  89.970397
_cell_angle_beta   90.024548
_cell_angle_gamma 120.0242
loop_
_atom_site_label
_atom_site_type_symbol
_atom_site_fract_x
_atom_site_fract_y
_atom_site_fract_z
_atom_type_partial_charge
C0 C 0.21734 0.11344 0.17032 0.0
O1 O 0.21981 0.10635 0.19175 0.0
Cd2 Cd 0.2331 0.11536 0.24534 0.0
O3 O 0.22215 0.12578 0.17641 0.0
Cd4 Cd 0.23634 0.14262 0.22196 0.0
C5 C 0.26231 0.13825 0.20504 0.0
O6 O 0.22484 0.12841 0.27389 0.0
O7 O 0.24304 0.14647 0.28615 0.0
O8 O 0.22303 0.15245 0.20401 0.0
C9 C 0.23258 0.13642 0.29776 0.0
O10 O 0.25613 0.12758 0.22356 0.0
C11 C 0.23203 0.16434 0.2099 0.0
O12 O 0.25698 0.14525 0.19825 0.0
O13 O 0.24324 0.16623 0.22029 0.0
C14 C 0.89298 0.11148 0.18063 0.0
O15 O 0.89891 0.12119 0.20256 0.0
Cd16 Cd 0.88849 0.12387 0.2557 0.0
O17 O 0.88085 0.10273 0.18552 0.0
Cd18 Cd 0.86271 0.09753 0.229 0.0
C19 C 0.86386 0.12686 0.21313 0.0
O20 O 0.87678 0.10212 0.28208 0.0
O21 O 0.85686 0.09806 0.29292 0.0
O22 O 0.85536 0.07425 0.21932 0.0
C23 C 0.86781 0.09987 0.30526 0.0
O24 O 0.87447 0.13233 0.23206 0.0
C25 C 0.84316 0.07058 0.21566 0.0
O26 O 0.85797 0.11447 0.2064 0.0
O27 O 0.84009 0.07963 0.21612 0.0
C28 C 0.88614 0.78675 0.18891 0.0
O29 O 0.87759 0.78471 0.21343 0.0
Cd30 Cd 0.87564 0.77205 0.26734 0.0
O31 O 0.89436 0.78268 0.19337 0.0
Cd32 Cd 0.90078 0.77129 0.23855 0.0
C33 C 0.87109 0.7436 0.22551 0.0
O34 O 0.89732 0.78077 0.29408 0.0
O35 O 0.89972 0.76363 0.30073 0.0
O36 O 0.92397 0.78709 0.22684 0.0
C37 C 0.89882 0.77301 0.31542 0.0
O38 O 0.86612 0.74922 0.24455 0.0
C39 C 0.92739 0.77843 0.22155 0.0
O40 O 0.8834 0.74968 0.2178 0.0
O41 O 0.91827 0.76635 0.22283 0.0
C42 C 0.11506 0.22476 0.30377 0.0
O43 O 0.10737 0.22535 0.28012 0.0
Cd44 Cd 0.11491 0.23566 0.22181 0.0
O45 O 0.1273 0.22923 0.2967 0.0
Cd46 Cd 0.14303 0.23923 0.24512 0.0
C47 C 0.13962 0.26639 0.25036 0.0
O48 O 0.12674 0.22509 0.20025 0.0
O49 O 0.14537 0.24036 0.17836 0.0
O50 O 0.15283 0.22651 0.26862 0.0
C51 C 0.13418 0.23015 0.17269 0.0
O52 O 0.12817 0.25947 0.23608 0.0
C53 C 0.16467 0.23518 0.2606 0.0
O54 O 0.1468 0.26127 0.2573 0.0
O55 O 0.1665 0.246 0.24695 0.0
C56 C 0.76884 0.89084 0.30536 0.0
O57 O 0.76774 0.88247 0.2813 0.0
Cd58 Cd 0.75533 0.87935 0.22655 0.0
O59 O 0.76432 0.89864 0.29957 0.0
Cd60 Cd 0.75405 0.90502 0.25008 0.0
C61 C 0.72616 0.87568 0.26289 0.0
O62 O 0.76529 0.90102 0.20023 0.0
O63 O 0.74918 0.90415 0.1846 0.0
O64 O 0.7707 0.92742 0.26562 0.0
C65 C 0.75885 0.90273 0.17493 0.0
O66 O 0.73239 0.87056 0.24763 0.0
C67 C 0.7631 0.9323 0.26416 0.0
O68 O 0.73179 0.88814 0.26823 0.0
O69 O 0.75091 0.92429 0.25758 0.0
C70 C 0.11239 0.87653 0.29657 0.0
O71 O 0.12184 0.88288 0.27414 0.0
Cd72 Cd 0.12242 0.87492 0.21425 0.0
O73 O 0.10251 0.86531 0.288 0.0
Cd74 Cd 0.09448 0.84984 0.23558 0.0
C75 C 0.12145 0.84603 0.23959 0.0
O76 O 0.10065 0.86728 0.19071 0.0
O77 O 0.09374 0.84766 0.16883 0.0
O78 O 0.07276 0.84601 0.25249 0.0
C79 C 0.09715 0.85969 0.16311 0.0
O80 O 0.12783 0.85752 0.22525 0.0
C81 C 0.06677 0.8335 0.24879 0.0
O82 O 0.10925 0.84102 0.24798 0.0
O83 O 0.07384 0.82836 0.24073 0.0
C84 C 0.7737 0.87821 0.80285 0.0
O85 O 0.77425 0.8859 0.77737 0.0
Cd86 Cd 0.76549 0.87786 0.7177 0.0
O87 O 0.76919 0.86592 0.79664 0.0
Cd88 Cd 0.76073 0.84997 0.74545 0.0
C89 C 0.7339 0.85385 0.7429 0.0
O90 O 0.775 0.86479 0.69773 0.0
O91 O 0.75801 0.84654 0.67962 0.0
O92 O 0.77417 0.84081 0.76734 0.0
C93 C 0.76876 0.85697 0.67159 0.0
O94 O 0.74139 0.86509 0.72799 0.0
C95 C 0.76501 0.82877 0.76537 0.0
O96 O 0.73853 0.84653 0.75326 0.0
O97 O 0.75363 0.82658 0.75542 0.0
C98 C 0.11318 0.90004 0.80096 0.0
O99 O 0.10589 0.89122 0.77785 0.0
Cd100 Cd 0.11418 0.88641 0.72382 0.0
O101 O 0.12561 0.90734 0.79547 0.0
Cd102 Cd 0.14233 0.91088 0.74853 0.0
C103 C 0.13659 0.87978 0.76626 0.0
O104 O 0.12787 0.90783 0.69741 0.0
O105 O 0.14658 0.90944 0.68328 0.0
O106 O 0.15287 0.93434 0.76373 0.0
C107 C 0.13581 0.9086 0.6727 0.0
O108 O 0.12583 0.87535 0.7482 0.0
C109 C 0.16464 0.93634 0.76248 0.0
O110 O 0.14408 0.89218 0.7713 0.0
O111 O 0.16598 0.92635 0.75601 0.0
C112 C 0.10586 0.22332 0.80256 0.0
O113 O 0.11484 0.22559 0.77924 0.0
Cd114 Cd 0.11612 0.23596 0.72181 0.0
O115 O 0.09714 0.22662 0.79615 0.0
Cd116 Cd 0.09094 0.23712 0.74713 0.0
C117 C 0.12051 0.26555 0.75416 0.0
O118 O 0.09382 0.22465 0.6987 0.0
O119 O 0.09116 0.24086 0.68096 0.0
O120 O 0.06826 0.22144 0.76418 0.0
C121 C 0.09169 0.23056 0.67276 0.0
O122 O 0.12538 0.25943 0.7371 0.0
C123 C 0.06409 0.22963 0.76311 0.0
O124 O 0.10829 0.25958 0.76304 0.0
O125 O 0.0726 0.24162 0.75595 0.0
C126 C 0.87453 0.76107 0.69568 0.0
O127 O 0.88187 0.75921 0.71779 0.0
Cd128 Cd 0.87271 0.74702 0.77303 0.0
O129 O 0.86234 0.75669 0.70308 0.0
Cd130 Cd 0.846 0.74498 0.75212 0.0
C131 C 0.84819 0.71751 0.73787 0.0
O132 O 0.86165 0.75786 0.79991 0.0
O133 O 0.84292 0.74164 0.81847 0.0
O134 O 0.83783 0.75939 0.73131 0.0
C135 C 0.85368 0.75212 0.82612 0.0
O136 O 0.85951 0.72375 0.75321 0.0
C137 C 0.82569 0.75116 0.73728 0.0
O138 O 0.84131 0.7231 0.73316 0.0
O139 O 0.82287 0.73978 0.74904 0.0
C140 C 0.22997 0.11209 0.67945 0.0
O141 O 0.22959 0.12022 0.70196 0.0
Cd142 Cd 0.23673 0.12214 0.76412 0.0
O143 O 0.23382 0.10407 0.68953 0.0
Cd144 Cd 0.24107 0.09765 0.74562 0.0
C145 C 0.26847 0.12837 0.74914 0.0
O146 O 0.22488 0.09939 0.78322 0.0
O147 O 0.23846 0.09511 0.81222 0.0
O148 O 0.22924 0.07522 0.72107 0.0
C149 C 0.22823 0.09631 0.81298 0.0
O150 O 0.26102 0.13284 0.75964 0.0
C151 C 0.23794 0.07225 0.73045 0.0
O152 O 0.26359 0.11613 0.74156 0.0
O153 O 0.24836 0.08131 0.74565 0.0
C154 C 0.881 0.11677 0.68604 0.0
O155 O 0.87144 0.10996 0.70776 0.0
Cd156 Cd 0.87009 0.11804 0.76679 0.0
O157 O 0.89018 0.12839 0.6947 0.0
Cd158 Cd 0.89678 0.14423 0.74584 0.0
C159 C 0.86818 0.14525 0.73987 0.0
O160 O 0.89222 0.12702 0.79011 0.0
O161 O 0.89795 0.14632 0.81258 0.0
O162 O 0.91918 0.15022 0.72858 0.0
C163 C 0.89574 0.13461 0.81769 0.0
O164 O 0.86245 0.13369 0.75391 0.0
C165 C 0.92408 0.16265 0.73197 0.0
O166 O 0.88055 0.15121 0.73285 0.0
O167 O 0.91608 0.1667 0.73994 0.0
C168 C 0.88069 0.43387 0.50805 0.0
O169 O 0.88378 0.4277 0.53109 0.0
Cd170 Cd 0.89497 0.43832 0.58677 0.0
O171 O 0.8836 0.4458 0.51399 0.0
Cd172 Cd 0.89444 0.46287 0.5613 0.0
C173 C 0.92353 0.46368 0.55138 0.0
O174 O 0.88351 0.44875 0.61403 0.0
O175 O 0.90041 0.46808 0.62533 0.0
O176 O 0.87825 0.46951 0.54784 0.0
C177 C 0.89025 0.45777 0.63716 0.0
O178 O 0.91827 0.45292 0.56968 0.0
C179 C 0.8865 0.48186 0.54652 0.0
O180 O 0.91675 0.46907 0.54255 0.0
O181 O 0.89866 0.48541 0.55037 0.0
C182 C 0.55526 0.44912 0.5307 0.0
O183 O 0.56054 0.45886 0.55274 0.0
Cd184 Cd 0.5486 0.46058 0.60384 0.0
O185 O 0.54332 0.43984 0.53517 0.0
Cd186 Cd 0.5245 0.433 0.57739 0.0
C187 C 0.52299 0.4606 0.55693 0.0
O188 O 0.53801 0.43914 0.63237 0.0
O189 O 0.51731 0.43297 0.64005 0.0
O190 O 0.52065 0.41077 0.56766 0.0
C191 C 0.52844 0.43608 0.65415 0.0
O192 O 0.53349 0.4669 0.57603 0.0
C193 C 0.50818 0.40533 0.56362 0.0
O194 O 0.51779 0.44817 0.55168 0.0
O195 O 0.50326 0.41292 0.56429 0.0
C196 C 0.54709 0.09803 0.52631 0.0
O197 O 0.53831 0.09609 0.54998 0.0
Cd198 Cd 0.53777 0.08572 0.60742 0.0
O199 O 0.55588 0.09488 0.53319 0.0
Cd200 Cd 0.56347 0.08565 0.58165 0.0
C201 C 0.53461 0.05662 0.57483 0.0
O202 O 0.55997 0.09729 0.63184 0.0
O203 O 0.56495 0.0823 0.64672 0.0
O204 O 0.58539 0.10246 0.56243 0.0
C205 C 0.56327 0.09181 0.65649 0.0
O206 O 0.52932 0.06246 0.59129 0.0
C207 C 0.59041 0.09498 0.56224 0.0
O208 O 0.54688 0.06289 0.56663 0.0
O209 O 0.5827 0.08281 0.56984 0.0
C210 C 0.77031 0.54952 0.62058 0.0
O211 O 0.76396 0.55142 0.59526 0.0
Cd212 Cd 0.77402 0.56099 0.53795 0.0
O213 O 0.78217 0.55201 0.61539 0.0
Cd214 Cd 0.79911 0.55991 0.56676 0.0
C215 C 0.80034 0.58943 0.57316 0.0
O216 O 0.78398 0.54841 0.517 0.0
O217 O 0.80365 0.56367 0.50126 0.0
O218 O 0.80502 0.54351 0.5852 0.0
C219 C 0.79247 0.55404 0.49184 0.0
O220 O 0.78934 0.58411 0.55595 0.0
C221 C 0.81744 0.55155 0.58591 0.0
O222 O 0.80585 0.58271 0.58132 0.0
O223 O 0.82131 0.56364 0.57903 0.0
C224 C 0.44006 0.21961 0.62301 0.0
O225 O 0.43677 0.21069 0.59874 0.0
Cd226 Cd 0.42313 0.20941 0.5482 0.0
O227 O 0.43702 0.22866 0.6193 0.0
Cd228 Cd 0.4264 0.2366 0.57544 0.0
C229 C 0.3976 0.20908 0.59699 0.0
O230 O 0.4342 0.23099 0.52038 0.0
O231 O 0.41915 0.23646 0.51258 0.0
O232 O 0.44467 0.2588 0.58725 0.0
C233 C 0.42757 0.2339 0.49853 0.0
O234 O 0.40179 0.20277 0.57788 0.0
C235 C 0.4375 0.26411 0.59084 0.0
O236 O 0.4047 0.22157 0.60126 0.0
O237 O 0.42502 0.25647 0.5887 0.0
C238 C 0.77097 0.2222 0.62209 0.0
O239 O 0.7797 0.22873 0.598 0.0
Cd240 Cd 0.78268 0.21814 0.54627 0.0
O241 O 0.76291 0.20983 0.61781 0.0
Cd242 Cd 0.75738 0.1923 0.5714 0.0
C243 C 0.78658 0.19436 0.59173 0.0
O244 O 0.76115 0.20617 0.51837 0.0
O245 O 0.76006 0.18741 0.50754 0.0
O246 O 0.73417 0.18516 0.58092 0.0
C247 C 0.76013 0.19763 0.49518 0.0
O248 O 0.79189 0.20513 0.57346 0.0
C249 C 0.73026 0.17285 0.58289 0.0
O250 O 0.77407 0.18773 0.59614 0.0
O251 O 0.73912 0.16955 0.58127 0.0
C252 C 0.43532 0.21689 0.11999 0.0
O253 O 0.43286 0.22246 0.09364 0.0
Cd254 Cd 0.42321 0.21098 0.03756 0.0
O255 O 0.43302 0.20502 0.11696 0.0
Cd256 Cd 0.42449 0.18708 0.07119 0.0
C257 C 0.39469 0.18527 0.07323 0.0
O258 O 0.43565 0.20067 0.01786 0.0
O259 O 0.42028 0.18049 0.0071 0.0
O260 O 0.44148 0.18227 0.09095 0.0
C261 C 0.42987 0.19124 -0.00489 0.0
O262 O 0.40001 0.19576 0.05377 0.0
C263 C 0.43386 0.16981 0.09334 0.0
O264 O 0.40154 0.18027 0.08488 0.0
O265 O 0.4216 0.16538 0.08745 0.0
C266 C 0.78614 0.22121 0.11967 0.0
O267 O 0.77909 0.21282 0.09535 0.0
Cd268 Cd 0.78804 0.2116 0.03743 0.0
O269 O 0.79817 0.22992 0.1132 0.0
Cd270 Cd 0.81455 0.23783 0.06291 0.0
C271 C 0.81458 0.20879 0.06782 0.0
O272 O 0.79857 0.23388 0.01506 0.0
O273 O 0.81831 0.23936 -0.00328 0.0
O274 O 0.82041 0.26005 0.0819 0.0
C275 C 0.80672 0.23701 0.98885 0.0
O276 O 0.80321 0.20343 0.0526 0.0
C277 C 0.83287 0.26475 0.08106 0.0
O278 O 0.82073 0.2211 0.07566 0.0
O279 O 0.8369 0.25672 0.07319 0.0
C280 C 0.77667 0.56553 0.1231 0.0
O281 O 0.7871 0.56919 0.10424 0.0
Cd282 Cd 0.79189 0.58311 0.05139 0.0
O283 O 0.76839 0.56917 0.11431 0.0
Cd284 Cd 0.76469 0.58192 0.06676 0.0
C285 C 0.79255 0.61045 0.08909 0.0
O286 O 0.77175 0.57326 0.01647 0.0
O287 O 0.76748 0.58884 0.0029 0.0
O288 O 0.74181 0.56441 0.06961 0.0
C289 C 0.77007 0.58003 -0.00792 0.0
O290 O 0.79884 0.60537 0.07405 0.0
C291 C 0.73684 0.5719 0.07201 0.0
O292 O 0.77997 0.60383 0.09196 0.0
O293 O 0.74492 0.58432 0.07343 0.0
C294 C 0.55882 0.11477 0.02246 0.0
O295 O 0.5646 0.11194 0.0474 0.0
Cd296 Cd 0.55235 0.09774 0.09693 0.0
O297 O 0.54643 0.11063 0.02447 0.0
Cd298 Cd 0.52745 0.09801 0.066 0.0
C299 C 0.5296 0.07083 0.04681 0.0
O300 O 0.53971 0.10706 0.1222 0.0
O301 O 0.52027 0.08978 0.12834 0.0
O302 O 0.52086 0.11431 0.05249 0.0
C303 C 0.53032 0.0994 0.14322 0.0
O304 O 0.5398 0.07587 0.06743 0.0
C305 C 0.50861 0.10597 0.04865 0.0
O306 O 0.52336 0.07701 0.04067 0.0
O307 O 0.50516 0.09378 0.05131 0.0
C308 C 0.89821 0.44732 0.008 0.0
O309 O 0.90009 0.45628 0.03098 0.0
Cd310 Cd 0.91129 0.45852 0.08763 0.0
O311 O 0.90182 0.43886 0.0151 0.0
Cd312 Cd 0.91158 0.43244 0.06559 0.0
C313 C 0.9406 0.46128 0.05743 0.0
O314 O 0.89936 0.43654 0.11243 0.0
O315 O 0.91413 0.43199 0.13209 0.0
O316 O 0.89508 0.40986 0.05026 0.0
C317 C 0.90439 0.43364 0.13909 0.0
O318 O 0.9346 0.46676 0.07189 0.0
C319 C 0.90278 0.40513 0.0523 0.0
O320 O 0.93445 0.44888 0.05082 0.0
O321 O 0.91495 0.41331 0.05852 0.0
C322 C 0.5522 0.45016 0.035 0.0
O323 O 0.54423 0.44368 0.06077 0.0
Cd324 Cd 0.54565 0.45275 0.12046 0.0
O325 O 0.56165 0.46199 0.04008 0.0
Cd326 Cd 0.57101 0.47878 0.08921 0.0
C327 C 0.54182 0.47885 0.09358 0.0
O328 O 0.56879 0.46293 0.13559 0.0
O329 O 0.57504 0.48271 0.15499 0.0
O330 O 0.59271 0.48577 0.06285 0.0
C331 C 0.57302 0.47117 0.16176 0.0
O332 O 0.53688 0.46773 0.11007 0.0
C333 C 0.59678 0.49812 0.06471 0.0
O334 O 0.55377 0.48464 0.08236 0.0
O335 O 0.58863 0.50146 0.07674 0.0
C336 C 0.55329 0.78679 0.8178 0.0
O337 O 0.55516 0.77744 0.82821 0.0
Cd338 Cd 0.56938 0.77946 0.87815 0.0
O339 O 0.55896 0.79792 0.83423 0.0
Cd340 Cd 0.57366 0.80847 0.88718 0.0
C341 C 0.59898 0.806 0.85 0.0
O342 O 0.56338 0.78912 0.92682 0.0
O343 O 0.5815 0.80589 0.94685 0.0
O344 O 0.55974 0.81763 0.90327 0.0
C345 C 0.57162 0.79445 0.95274 0.0
O346 O 0.59218 0.79366 0.85729 0.0
C347 C 0.56888 0.82969 0.90341 0.0
O348 O 0.59431 0.81364 0.85614 0.0
O349 O 0.5805 0.83207 0.89548 0.0
C350 C 0.21141 0.78366 0.84856 0.0
O351 O 0.21801 0.79299 0.87108 0.0
Cd352 Cd 0.20942 0.79257 0.9312 0.0
O353 O 0.19993 0.77416 0.85686 0.0
Cd354 Cd 0.18397 0.76656 0.90752 0.0
C355 C 0.18229 0.79487 0.90798 0.0
O356 O 0.20094 0.77003 0.95216 0.0
O357 O 0.18128 0.76324 0.97362 0.0
O358 O 0.17784 0.74495 0.88242 0.0
C359 C 0.19298 0.76549 0.97895 0.0
O360 O 0.19373 0.80051 0.92277 0.0
C361 C 0.16546 0.73995 0.88721 0.0
O362 O 0.17679 0.78276 0.89835 0.0
O363 O 0.16156 0.74755 0.90011 0.0
C364 C 0.22232 0.43762 0.85703 0.0
O365 O 0.21411 0.4358 0.88234 0.0
Cd366 Cd 0.21369 0.42452 0.93724 0.0
O367 O 0.2309 0.43398 0.86112 0.0
Cd368 Cd 0.2386 0.42382 0.90726 0.0
C369 C 0.20931 0.3957 0.89735 0.0
O370 O 0.23615 0.43525 0.95901 0.0
O371 O 0.23793 0.41812 0.97225 0.0
O372 O 0.26073 0.44042 0.88885 0.0
C373 C 0.23792 0.42847 0.98307 0.0
O374 O 0.20456 0.40152 0.91647 0.0
C375 C 0.26556 0.43278 0.88896 0.0
O376 O 0.22151 0.40173 0.88838 0.0
O377 O 0.25764 0.42062 0.89616 0.0
C378 C 0.45851 0.89833 0.96392 0.0
O379 O 0.45113 0.89913 0.93964 0.0
Cd380 Cd 0.45978 0.90889 0.88146 0.0
O381 O 0.47069 0.90235 0.95723 0.0
Cd382 Cd 0.48691 0.91159 0.9064 0.0
C383 C 0.48491 0.93956 0.90944 0.0
O384 O 0.47096 0.89739 0.86124 0.0
O385 O 0.48938 0.91303 0.8392 0.0
O386 O 0.49444 0.89706 0.93034 0.0
C387 C 0.47844 0.90245 0.83376 0.0
O388 O 0.47353 0.93273 0.89469 0.0
C389 C 0.50675 0.90522 0.92677 0.0
O390 O 0.49179 0.93421 0.91767 0.0
O391 O 0.50997 0.91664 0.91435 0.0
C392 C 0.11823 0.56339 0.98613 0.0
O393 O 0.11747 0.55477 0.96349 0.0
Cd394 Cd 0.10566 0.55111 0.9072 0.0
O395 O 0.1134 0.57077 0.97826 0.0
Cd396 Cd 0.10261 0.57536 0.92701 0.0
C397 C 0.07544 0.54544 0.93926 0.0
O398 O 0.11505 0.57246 0.87811 0.0
O399 O 0.09729 0.57267 0.86209 0.0
O400 O 0.1174 0.59878 0.93857 0.0
C401 C 0.10799 0.57313 0.85273 0.0
O402 O 0.08206 0.54071 0.92415 0.0
C403 C 0.10853 0.60205 0.93655 0.0
O404 O 0.08077 0.55783 0.94527 0.0
O405 O 0.09668 0.59274 0.93178 0.0
C406 C 0.44911 0.55637 0.95478 0.0
O407 O 0.4582 0.56178 0.93087 0.0
Cd408 Cd 0.45967 0.54986 0.8794 0.0
O409 O 0.43996 0.54431 0.95127 0.0
Cd410 Cd 0.43308 0.52583 0.9073 0.0
C411 C 0.46113 0.52508 0.92618 0.0
O412 O 0.43813 0.53889 0.85137 0.0
O413 O 0.4334 0.51853 0.84489 0.0
O414 O 0.4103 0.52058 0.91597 0.0
C415 C 0.43538 0.52923 0.83016 0.0
O416 O 0.4671 0.53544 0.90636 0.0
C417 C 0.40562 0.50823 0.92095 0.0
O418 O 0.44874 0.51975 0.9322 0.0
O419 O 0.41388 0.50413 0.92166 0.0
C420 C 0.10182 0.54938 0.48398 0.0
O421 O 0.10017 0.55669 0.46126 0.0
Cd422 Cd 0.08894 0.54809 0.40476 0.0
O423 O 0.09785 0.53725 0.47667 0.0
Cd424 Cd 0.08768 0.5218 0.42468 0.0
C425 C 0.05917 0.52217 0.43368 0.0
O426 O 0.10083 0.53807 0.37902 0.0
O427 O 0.08432 0.52001 0.35794 0.0
O428 O 0.10298 0.51396 0.43766 0.0
C429 C 0.09517 0.53062 0.35189 0.0
O430 O 0.06527 0.53365 0.41917 0.0
C431 C 0.09459 0.50172 0.43408 0.0
O432 O 0.06523 0.51585 0.44029 0.0
O433 O 0.08265 0.49867 0.42818 0.0
C434 C 0.44363 0.55089 0.45164 0.0
O435 O 0.43784 0.54319 0.42479 0.0
Cd436 Cd 0.44884 0.54522 0.36753 0.0
O437 O 0.45561 0.56027 0.44894 0.0
Cd438 Cd 0.47393 0.57011 0.40441 0.0
C439 C 0.47386 0.54084 0.40132 0.0
O440 O 0.46003 0.56848 0.35251 0.0
O441 O 0.48063 0.57526 0.34068 0.0
O442 O 0.47992 0.59138 0.4323 0.0
C443 C 0.46943 0.5731 0.32945 0.0
O444 O 0.46323 0.53615 0.38257 0.0
C445 C 0.49228 0.59549 0.43366 0.0
O446 O 0.47947 0.55269 0.4133 0.0
O447 O 0.49603 0.58754 0.42268 0.0
C448 C 0.43724 0.88371 0.47262 0.0
O449 O 0.44568 0.88494 0.44867 0.0
Cd450 Cd 0.44863 0.89713 0.39335 0.0
O451 O 0.42908 0.88776 0.46616 0.0
Cd452 Cd 0.42255 0.8973 0.41525 0.0
C453 C 0.45107 0.92569 0.43005 0.0
O454 O 0.42759 0.88742 0.36348 0.0
O455 O 0.4252 0.90429 0.35157 0.0
O456 O 0.39978 0.88005 0.42355 0.0
C457 C 0.42653 0.89478 0.33972 0.0
O458 O 0.45658 0.91996 0.41404 0.0
C459 C 0.39492 0.88768 0.42356 0.0
O460 O 0.43861 0.91953 0.43572 0.0
O461 O 0.40308 0.90007 0.42192 0.0
C462 C 0.21047 0.43725 0.35427 0.0
O463 O 0.21752 0.43595 0.37866 0.0
Cd464 Cd 0.20838 0.4249 0.43537 0.0
O465 O 0.19831 0.43348 0.36026 0.0
Cd466 Cd 0.18152 0.42404 0.40933 0.0
C467 C 0.18281 0.39576 0.40034 0.0
O468 O 0.19699 0.43575 0.45798 0.0
O469 O 0.17737 0.42103 0.47563 0.0
O470 O 0.1748 0.43975 0.39063 0.0
C471 C 0.1889 0.43026 0.48405 0.0
O472 O 0.19407 0.40178 0.41618 0.0
C473 C 0.16244 0.43147 0.39062 0.0
O474 O 0.17631 0.40166 0.39397 0.0
O475 O 0.15891 0.4195 0.39817 0.0
C476 C 0.55305 0.76922 0.32688 0.0
O477 O 0.55279 0.77904 0.34116 0.0
Cd478 Cd 0.56126 0.78696 0.40101 0.0
O479 O 0.55717 0.76267 0.34514 0.0
Cd480 Cd 0.56505 0.76156 0.40692 0.0
C481 C 0.59252 0.79091 0.38879 0.0
O482 O 0.55069 0.76773 0.43905 0.0
O483 O 0.56638 0.76794 0.47106 0.0
O484 O 0.55066 0.73792 0.39953 0.0
C485 C 0.55608 0.76903 0.47004 0.0
O486 O 0.58522 0.79608 0.39351 0.0
C487 C 0.55872 0.7346 0.41229 0.0
O488 O 0.58763 0.77839 0.3907 0.0
O489 O 0.57002 0.74393 0.42243 0.0
C490 C 0.21594 0.76317 0.34199 0.0
O491 O 0.20668 0.75728 0.36524 0.0
Cd492 Cd 0.20487 0.76855 0.41813 0.0
O493 O 0.22453 0.7754 0.34572 0.0
Cd494 Cd 0.23028 0.79401 0.38758 0.0
C495 C 0.20054 0.79204 0.37383 0.0
O496 O 0.22679 0.78137 0.44365 0.0
O497 O 0.23046 0.8014 0.4498 0.0
O498 O 0.25323 0.8011 0.37365 0.0
C499 C 0.22906 0.79094 0.46469 0.0
O500 O 0.19554 0.78181 0.39435 0.0
C501 C 0.25683 0.81325 0.36896 0.0
O502 O 0.21279 0.79793 0.36542 0.0
O503 O 0.24789 0.81642 0.37141 0.0
H504 H 0.20958 0.1035 0.82529 0.0
H505 H 0.19871 0.10263 0.88349 0.0
H506 H 0.21919 0.08469 0.93537 0.0
H507 H 0.23021 0.08564 0.87747 0.0
H508 H 0.19134 0.07421 0.95826 0.0
H509 H 0.23359 0.11624 0.93908 0.0
H510 H 0.24775 0.13653 0.90342 0.0
H511 H 0.21776 0.14766 0.90991 0.0
H512 H 0.20336 0.12732 0.94523 0.0
H513 H 0.21416 0.09151 0.13479 0.0
H514 H 0.20649 0.08497 0.07236 0.0
H515 H 0.19577 0.11549 0.06613 0.0
H516 H 0.20418 0.12257 0.1283 0.0
H517 H 0.21093 0.11893 0.01427 0.0
H518 H 0.17224 0.08087 0.05212 0.0
H519 H 0.15762 0.06073 0.0876 0.0
H520 H 0.17847 0.04173 0.04634 0.0
H521 H 0.19337 0.06181 0.01105 0.0
C522 C 0.21162 0.0992 0.84899 0.0
C523 C 0.22088 0.09481 0.84711 0.0
C524 C 0.20534 0.09864 0.88205 0.0
C525 C 0.20815 0.09356 0.91348 0.0
C526 C 0.21683 0.08852 0.91119 0.0
C527 C 0.22323 0.08922 0.87829 0.0
C528 C 0.20368 0.09521 0.94983 0.0
C529 C 0.19548 0.08393 0.97076 0.0
C530 C 0.20865 0.10796 0.96518 0.0
C531 C 0.21735 0.12021 0.94432 0.0
C532 C 0.22999 0.12298 0.93264 0.0
C533 C 0.23806 0.13448 0.91254 0.0
C534 C 0.23364 0.14336 0.90429 0.0
C535 C 0.22116 0.14076 0.91624 0.0
C536 C 0.21304 0.12925 0.93629 0.0
C537 C 0.20984 0.0966 0.12051 0.0
C538 C 0.20999 0.10769 0.13608 0.0
C539 C 0.20528 0.09274 0.08481 0.0
C540 C 0.20046 0.09968 0.06439 0.0
C541 C 0.19949 0.11002 0.08124 0.0
C542 C 0.20433 0.11407 0.1167 0.0
C543 C 0.199 0.09783 0.0241 0.0
C544 C 0.20618 0.10912 0.00204 0.0
C545 C 0.19289 0.08508 0.00776 0.0
C546 C 0.18396 0.0729 0.02891 0.0
C547 C 0.17377 0.07243 0.05076 0.0
C548 C 0.16542 0.06101 0.07083 0.0
C549 C 0.16711 0.04996 0.06922 0.0
C550 C 0.17716 0.05029 0.04751 0.0
C551 C 0.18554 0.06169 0.02738 0.0
H552 H 0.16064 0.04113 0.08479 0.0
H553 H 0.2399 0.15226 0.88873 0.0
H554 H 0.90798 0.14985 0.87771 0.0
H555 H 0.91216 0.14244 0.9364 0.0
H556 H 0.89323 0.10217 0.89646 0.0
H557 H 0.88905 0.10949 0.83762 0.0
H558 H 0.88329 0.10511 0.96228 0.0
H559 H 0.92533 0.11718 0.91051 0.0
H560 H 0.94626 0.13154 0.87785 0.0
H561 H 0.958 0.16097 0.96237 0.0
H562 H 0.93705 0.14688 -0.0047 0.0
H563 H 0.88841 0.08988 0.14037 0.0
H564 H 0.89442 0.0901 0.07606 0.0
H565 H 0.91733 0.13289 0.07867 0.0
H566 H 0.91197 0.13267 0.14326 0.0
H567 H 0.9266 0.12396 0.02646 0.0
H568 H 0.88316 0.11628 0.06496 0.0
H569 H 0.86186 0.10402 0.09796 0.0
H570 H 0.85252 0.06866 0.03789 0.0
H571 H 0.87386 0.08071 0.00488 0.0
C572 C 0.90475 0.13943 0.88141 0.0
C573 C 0.89811 0.13022 0.85328 0.0
C574 C 0.90729 0.13524 0.91471 0.0
C575 C 0.90318 0.12181 0.92038 0.0
C576 C 0.89659 0.1126 0.89232 0.0
C577 C 0.89415 0.11679 0.8589 0.0
C578 C 0.90449 0.11724 0.95699 0.0
C579 C 0.89279 0.1089 0.97601 0.0
C580 C 0.91688 0.12247 0.97489 0.0
C581 C 0.92957 0.13097 0.95531 0.0
C582 C 0.93233 0.12675 0.92203 0.0
C583 C 0.94421 0.13484 0.90348 0.0
C584 C 0.95345 0.14716 0.918 0.0
C585 C 0.95084 0.15141 0.95116 0.0
C586 C 0.93897 0.14336 0.96981 0.0
C587 C 0.89515 0.09928 0.12752 0.0
C588 C 0.89946 0.11128 0.14631 0.0
C589 C 0.89859 0.0994 0.09086 0.0
C590 C 0.90591 0.11153 0.07234 0.0
C591 C 0.91157 0.12342 0.09234 0.0
C592 C 0.90843 0.12329 0.12926 0.0
C593 C 0.90537 0.11213 0.03195 0.0
C594 C 0.91716 0.11978 0.01228 0.0
C595 C 0.89302 0.10653 0.01341 0.0
C596 C 0.88014 0.09933 0.03285 0.0
C597 C 0.87657 0.10588 0.05894 0.0
C598 C 0.86451 0.09897 0.07764 0.0
C599 C 0.85586 0.08556 0.07011 0.0
C600 C 0.85924 0.07904 0.04376 0.0
C601 C 0.87132 0.0859 0.02507 0.0
H602 H 0.84653 0.08022 0.08462 0.0
H603 H 0.96264 0.15341 0.9036 0.0
H604 H 0.86562 0.78937 0.16179 0.0
H605 H 0.86027 0.78881 0.09684 0.0
H606 H 0.89837 0.79372 0.06801 0.0
H607 H 0.90385 0.79431 0.13266 0.0
H608 H 0.87288 0.80231 0.02236 0.0
H609 H 0.88954 0.76419 0.02969 0.0
H610 H 0.8936 0.75117 0.07607 0.0
H611 H 0.86242 0.7493 0.14317 0.0
H612 H 0.85805 0.76213 0.09688 0.0
H613 H 0.87447 0.77591 0.8474 0.0
H614 H 0.87907 0.78566 0.90866 0.0
H615 H 0.84387 0.75135 0.94975 0.0
H616 H 0.83916 0.74149 0.88843 0.0
H617 H 0.86579 0.75769 -0.00926 0.0
H618 H 0.84382 0.78001 0.94312 0.0
H619 H 0.83934 0.79338 0.89912 0.0
H620 H 0.87902 0.82591 0.91293 0.0
H621 H 0.88375 0.81275 0.95713 0.0
C622 C 0.87312 0.79096 0.1417 0.0
C623 C 0.88497 0.79143 0.15224 0.0
C624 C 0.87006 0.79071 0.10457 0.0
C625 C 0.87884 0.79095 0.07793 0.0
C626 C 0.89146 0.79343 0.08838 0.0
C627 C 0.89452 0.79367 0.12536 0.0
C628 C 0.87375 0.78527 0.04147 0.0
C629 C 0.87132 0.79258 0.01524 0.0
C630 C 0.87144 0.77244 0.03281 0.0
C631 C 0.87356 0.76421 0.06002 0.0
C632 C 0.8835 0.76092 0.05423 0.0
C633 C 0.88586 0.75359 0.08051 0.0
C634 C 0.8783 0.74945 0.11259 0.0
C635 C 0.86829 0.75255 0.11836 0.0
C636 C 0.86587 0.75985 0.09212 0.0
C637 C 0.86768 0.77044 0.86945 0.0
C638 C 0.8565 0.75789 0.86322 0.0
C639 C 0.87026 0.77609 0.90432 0.0
C640 C 0.86172 0.76928 0.93352 0.0
C641 C 0.85053 0.75677 0.92741 0.0
C642 C 0.84788 0.75114 0.89247 0.0
C643 C 0.86506 0.77477 0.97097 0.0
C644 C 0.86722 0.76739 -0.00239 0.0
C645 C 0.86693 0.78744 0.97992 0.0
C646 C 0.86417 0.79535 0.9532 0.0
C647 C 0.85162 0.78998 0.93656 0.0
C648 C 0.84903 0.79753 0.91163 0.0
C649 C 0.85891 0.81045 0.90305 0.0
C650 C 0.87139 0.81589 0.91955 0.0
C651 C 0.87401 0.80841 0.94465 0.0
H652 H 0.85688 0.81627 0.88371 0.0
H653 H 0.88019 0.74384 0.13294 0.0
H654 H 0.12933 0.22954 0.36654 0.0
H655 H 0.12081 0.22369 0.42862 0.0
H656 H 0.08076 0.20218 0.38674 0.0
H657 H 0.08927 0.20861 0.32434 0.0
H658 H 0.08116 0.21692 0.43698 0.0
H659 H 0.09572 0.18607 0.4328 0.0
H660 H 0.11029 0.17685 0.41993 0.0
H661 H 0.13925 0.20444 0.49542 0.0
H662 H 0.12495 0.21398 0.50837 0.0
H663 H 0.08655 0.20623 0.64958 0.0
H664 H 0.08522 0.1987 0.5864 0.0
H665 H 0.09371 0.23721 0.54735 0.0
H666 H 0.09443 0.24454 0.61034 0.0
H667 H 0.10268 0.20586 0.53745 0.0
H668 H 0.08124 0.23653 0.46689 0.0
H669 H 0.06434 0.24282 0.47989 0.0
H670 H 0.04453 0.20979 0.5535 0.0
H671 H 0.06119 0.20317 0.54056 0.0
C672 C 0.11872 0.22336 0.37047 0.0
C673 C 0.10995 0.21962 0.34067 0.0
C674 C 0.11385 0.2199 0.40602 0.0
C675 C 0.10013 0.21233 0.41243 0.0
C676 C 0.09138 0.20803 0.38249 0.0
C677 C 0.09624 0.21171 0.34689 0.0
C678 C 0.09503 0.21039 0.45046 0.0
C679 C 0.08572 0.2143 0.45891 0.0
C680 C 0.10056 0.20646 0.47903 0.0
C681 C 0.10925 0.20076 0.47149 0.0
C682 C 0.10523 0.19023 0.44651 0.0
C683 C 0.11344 0.18494 0.43921 0.0
C684 C 0.12569 0.19006 0.45683 0.0
C685 C 0.12975 0.20047 0.48182 0.0
C686 C 0.12158 0.20581 0.48922 0.0
C687 C 0.08799 0.21303 0.62743 0.0
C688 C 0.0906 0.22597 0.63472 0.0
C689 C 0.08722 0.20871 0.59139 0.0
C690 C 0.08917 0.2173 0.56209 0.0
C691 C 0.09179 0.23025 0.56944 0.0
C692 C 0.09232 0.23449 0.60544 0.0
C693 C 0.08948 0.21319 0.52388 0.0
C694 C 0.09785 0.20811 0.51547 0.0
C695 C 0.08269 0.21553 0.49532 0.0
C696 C 0.07252 0.21938 0.50284 0.0
C697 C 0.07323 0.23054 0.48565 0.0
C698 C 0.0637 0.23419 0.49307 0.0
C699 C 0.05338 0.22673 0.51755 0.0
C700 C 0.05255 0.21558 0.53461 0.0
C701 C 0.06204 0.21189 0.52728 0.0
H702 H 0.04602 0.22957 0.52328 0.0
H703 H 0.13204 0.18595 0.45113 0.0
H704 H 0.78592 0.88194 0.32242 0.0
H705 H 0.79261 0.87907 0.38379 0.0
H706 H 0.77041 0.89604 0.43093 0.0
H707 H 0.76434 0.89956 0.36986 0.0
H708 H 0.79055 0.90235 0.47182 0.0
H709 H 0.7567 0.86137 0.41603 0.0
H710 H 0.74767 0.84387 0.36874 0.0
H711 H 0.77943 0.83593 0.38826 0.0
H712 H 0.78871 0.85349 0.43545 0.0
H713 H 0.75353 0.84649 0.61091 0.0
H714 H 0.75926 0.85412 0.54795 0.0
H715 H 0.79885 0.88324 0.58216 0.0
H716 H 0.79291 0.87601 0.64586 0.0
H717 H 0.77548 0.85517 0.49958 0.0
H718 H 0.81005 0.91066 0.5278 0.0
H719 H 0.81478 0.92723 0.57634 0.0
H720 H 0.77456 0.90462 0.61435 0.0
H721 H 0.76957 0.88802 0.56579 0.0
C722 C 0.78271 0.88529 0.34592 0.0
C723 C 0.77445 0.89078 0.3415 0.0
C724 C 0.78652 0.88364 0.38092 0.0
C725 C 0.78175 0.88704 0.412 0.0
C726 C 0.77422 0.89332 0.40741 0.0
C727 C 0.77068 0.89527 0.37245 0.0
C728 C 0.78321 0.8828 0.44917 0.0
C729 C 0.78743 0.89207 0.47786 0.0
C730 C 0.77902 0.86936 0.45716 0.0
C731 C 0.77348 0.85883 0.42884 0.0
C732 C 0.76179 0.85594 0.41003 0.0
C733 C 0.75663 0.84601 0.38329 0.0
C734 C 0.763 0.83883 0.3754 0.0
C735 C 0.77453 0.84153 0.39433 0.0
C736 C 0.77974 0.85146 0.42107 0.0
C737 C 0.76349 0.85446 0.60502 0.0
C738 C 0.77273 0.86078 0.63324 0.0
C739 C 0.76678 0.85878 0.56898 0.0
C740 C 0.77945 0.86936 0.56035 0.0
C741 C 0.78894 0.87523 0.58828 0.0
C742 C 0.78555 0.87108 0.62457 0.0
C743 C 0.78221 0.87458 0.52241 0.0
C744 C 0.77895 0.86552 0.49352 0.0
C745 C 0.78667 0.88808 0.51444 0.0
C746 C 0.78951 0.89803 0.54353 0.0
C747 C 0.80223 0.90925 0.54651 0.0
C748 C 0.80495 0.91864 0.57401 0.0
C749 C 0.79499 0.91695 0.59851 0.0
C750 C 0.78228 0.90589 0.59546 0.0
C751 C 0.7795 0.89649 0.56798 0.0
H752 H 0.79712 0.92422 0.61979 0.0
H753 H 0.75899 0.83114 0.3547 0.0
H754 H 0.1522 0.91509 0.61366 0.0
H755 H 0.14585 0.91183 0.54886 0.0
H756 H 0.1048 0.89553 0.57922 0.0
H757 H 0.11107 0.89898 0.64408 0.0
H758 H 0.11098 0.87945 0.53112 0.0
H759 H 0.11728 0.92318 0.54153 0.0
H760 H 0.12925 0.94685 0.55847 0.0
H761 H 0.161 0.95375 0.4855 0.0
H762 H 0.14931 0.93005 0.46852 0.0
H763 H 0.09215 0.86938 0.34536 0.0
H764 H 0.09381 0.87695 0.40861 0.0
H765 H 0.13597 0.90297 0.39496 0.0
H766 H 0.1343 0.89584 0.33137 0.0
H767 H 0.12638 0.91461 0.43612 0.0
H768 H 0.12267 0.8714 0.43298 0.0
H769 H 0.11222 0.84764 0.41735 0.0
H770 H 0.07738 0.8397 0.47791 0.0
H771 H 0.08757 0.86346 0.4935 0.0
C772 C 0.14186 0.91093 0.60648 0.0
C773 C 0.13213 0.90724 0.63375 0.0
C774 C 0.13825 0.90915 0.56958 0.0
C775 C 0.12488 0.90352 0.55953 0.0
C776 C 0.11516 0.89995 0.58664 0.0
C777 C 0.11877 0.90193 0.62353 0.0
C778 C 0.12103 0.90047 0.5208 0.0
C779 C 0.11407 0.88711 0.51033 0.0
C780 C 0.12541 0.91053 0.49395 0.0
C781 C 0.13246 0.9248 0.50398 0.0
C782 C 0.12687 0.92971 0.52933 0.0
C783 C 0.13359 0.94314 0.53889 0.0
C784 C 0.14589 0.95179 0.52313 0.0
C785 C 0.15147 0.94703 0.4977 0.0
C786 C 0.14479 0.9336 0.48806 0.0
C787 C 0.10175 0.87682 0.35575 0.0
C788 C 0.11313 0.8819 0.33361 0.0
C789 C 0.10268 0.88112 0.39188 0.0
C790 C 0.11506 0.89032 0.40668 0.0
C791 C 0.12632 0.89585 0.3841 0.0
C792 C 0.12536 0.89172 0.34781 0.0
C793 C 0.11651 0.89354 0.44622 0.0
C794 C 0.12306 0.90693 0.45689 0.0
C795 C 0.11195 0.88349 0.47334 0.0
C796 C 0.10581 0.86922 0.46401 0.0
C797 C 0.11274 0.8646 0.44272 0.0
C798 C 0.10687 0.85113 0.43391 0.0
C799 C 0.09413 0.84218 0.44653 0.0
C800 C 0.08724 0.84666 0.46808 0.0
C801 C 0.09306 0.86012 0.47692 0.0
H802 H 0.0896 0.83175 0.43969 0.0
H803 H 0.15108 0.96219 0.53057 0.0
H804 H 0.77836 0.8988 0.14739 0.0
H805 H 0.78333 0.8975 0.08307 0.0
H806 H 0.75189 0.90476 0.05044 0.0
H807 H 0.74671 0.90589 0.11486 0.0
H808 H 0.75034 0.88407 0.01504 0.0
H809 H 0.78413 0.92866 0.03987 0.0
H810 H 0.80286 0.94663 0.07357 0.0
H811 H 0.82653 0.92856 0.05214 0.0
H812 H 0.80787 0.91037 0.01874 0.0
H813 H 0.78196 0.9034 0.82746 0.0
H814 H 0.78243 0.91018 0.89112 0.0
H815 H 0.77268 0.8711 0.92775 0.0
H816 H 0.77215 0.86418 0.86442 0.0
H817 H 0.79498 0.90988 0.95858 0.0
H818 H 0.7461 0.86102 0.98468 0.0
H819 H 0.72711 0.84391 0.94953 0.0
H820 H 0.73299 0.87272 0.86716 0.0
H821 H 0.75186 0.89003 0.90212 0.0
C822 C 0.77254 0.9002 0.12653 0.0
C823 C 0.76211 0.90239 0.1361 0.0
C824 C 0.77546 0.89954 0.08982 0.0
C825 C 0.76806 0.90117 0.06208 0.0
C826 C 0.75772 0.90351 0.07153 0.0
C827 C 0.75478 0.90414 0.10828 0.0
C828 C 0.77058 0.8996 0.02325 0.0
C829 C 0.76009 0.88977 0.00271 0.0
C830 C 0.78328 0.90713 0.00712 0.0
C831 C 0.79456 0.91809 0.02704 0.0
C832 C 0.79329 0.92846 0.04257 0.0
C833 C 0.8039 0.9387 0.06158 0.0
C834 C 0.81587 0.93872 0.06506 0.0
C835 C 0.81726 0.92852 0.04945 0.0
C836 C 0.80667 0.91826 0.03043 0.0
C837 C 0.78023 0.89633 0.84908 0.0
C838 C 0.77675 0.88317 0.84087 0.0
C839 C 0.78056 0.90025 0.8854 0.0
C840 C 0.77737 0.89105 0.91384 0.0
C841 C 0.77502 0.87827 0.90597 0.0
C842 C 0.77472 0.87435 0.86976 0.0
C843 C 0.77482 0.8942 0.951 0.0
C844 C 0.78526 0.90427 0.97108 0.0
C845 C 0.76201 0.88705 0.96666 0.0
C846 C 0.75047 0.87678 0.94585 0.0
C847 C 0.74329 0.86371 0.95916 0.0
C848 C 0.73256 0.85398 0.93926 0.0
C849 C 0.72887 0.85722 0.90608 0.0
C850 C 0.73588 0.87021 0.8928 0.0
C851 C 0.7466 0.87999 0.91264 0.0
H852 H 0.72058 0.84967 0.89068 0.0
H853 H 0.82407 0.94666 0.07979 0.0
H854 H 0.10803 0.88548 0.14195 0.0
H855 H 0.10778 0.89389 0.08087 0.0
H856 H 0.08539 0.85374 0.04026 0.0
H857 H 0.08597 0.84526 0.10116 0.0
H858 H 0.10454 0.86802 -0.00458 0.0
H859 H 0.07097 0.8734 0.05465 0.0
H860 H 0.06113 0.88065 0.10279 0.0
H861 H 0.09019 0.92135 0.08168 0.0
H862 H 0.10033 0.91434 0.03374 0.0
H863 H 0.08843 0.88279 0.82707 0.0
H864 H 0.0823 0.87857 0.89153 0.0
H865 H 0.11923 0.91311 0.92182 0.0
H866 H 0.1256 0.9174 0.85736 0.0
H867 H 0.09104 0.90161 0.97085 0.0
H868 H 0.12734 0.89353 0.92386 0.0
H869 H 0.13562 0.88589 0.8724 0.0
H870 H 0.09858 0.84917 0.86869 0.0
H871 H 0.09009 0.85666 0.92 0.0
C872 C 0.10303 0.87844 0.12 0.0
C873 C 0.09703 0.86472 0.1262 0.0
C874 C 0.1028 0.88326 0.0852 0.0
C875 C 0.09637 0.87444 0.05618 0.0
C876 C 0.09037 0.86072 0.06234 0.0
C877 C 0.09073 0.85589 0.09707 0.0
C878 C 0.09651 0.87954 0.01898 0.0
C879 C 0.10141 0.87522 -0.00979 0.0
C880 C 0.09256 0.88907 0.01203 0.0
C881 C 0.08648 0.89333 0.04081 0.0
C882 C 0.07533 0.8839 0.06046 0.0
C883 C 0.06969 0.88796 0.08768 0.0
C884 C 0.07505 0.90145 0.09535 0.0
C885 C 0.08605 0.91091 0.07574 0.0
C886 C 0.09174 0.90689 0.04851 0.0
C887 C 0.09504 0.88983 0.84722 0.0
C888 C 0.10769 0.9002 0.83725 0.0
C889 C 0.09145 0.88744 0.88404 0.0
C890 C 0.10039 0.89547 0.91111 0.0
C891 C 0.11222 0.90686 0.90107 0.0
C892 C 0.11588 0.90922 0.86424 0.0
C893 C 0.0991 0.89009 0.94823 0.0
C894 C 0.09406 0.89436 0.9766 0.0
C895 C 0.10277 0.88042 0.95501 0.0
C896 C 0.10809 0.87565 0.92553 0.0
C897 C 0.12099 0.88383 0.91203 0.0
C898 C 0.1257 0.87955 0.88286 0.0
C899 C 0.1176 0.86708 0.86716 0.0
C900 C 0.10482 0.85884 0.88078 0.0
C901 C 0.10007 0.86307 0.90996 0.0
H902 H 0.12126 0.86376 0.84466 0.0
H903 H 0.07067 0.90458 0.11643 0.0
H904 H 0.12704 0.22402 0.83634 0.0
H905 H 0.12837 0.21838 0.8998 0.0
H906 H 0.08651 0.20407 0.91352 0.0
H907 H 0.08529 0.21035 0.85032 0.0
H908 H 0.09883 0.22049 0.96355 0.0
H909 H 0.10067 0.18314 0.92141 0.0
H910 H 0.10753 0.17008 0.88358 0.0
H911 H 0.14749 0.19341 0.92291 0.0
H912 H 0.14093 0.20676 0.96058 0.0
H913 H 0.10907 0.21208 0.15134 0.0
H914 H 0.10126 0.20453 0.08891 0.0
H915 H 0.14116 0.22854 0.04821 0.0
H916 H 0.14905 0.23626 0.1105 0.0
H917 H 0.12561 0.20199 0.01518 0.0
H918 H 0.12322 0.2418 0.04557 0.0
H919 H 0.11573 0.25425 0.08392 0.0
H920 H 0.07514 0.22418 0.06633 0.0
H921 H 0.08242 0.21146 0.02827 0.0
C922 C 0.11805 0.2194 0.85264 0.0
C923 C 0.1061 0.21777 0.83862 0.0
C924 C 0.11879 0.21605 0.88889 0.0
C925 C 0.10751 0.21069 0.91148 0.0
C926 C 0.09535 0.20823 0.89667 0.0
C927 C 0.09467 0.21183 0.86061 0.0
C928 C 0.10892 0.2096 0.9515 0.0
C929 C 0.10434 0.21606 0.9748 0.0
C930 C 0.11626 0.204 0.96637 0.0
C931 C 0.1203 0.196 0.94374 0.0
C932 C 0.11094 0.18556 0.92182 0.0
C933 C 0.11478 0.17809 0.90042 0.0
C934 C 0.12794 0.18092 0.90081 0.0
C935 C 0.1373 0.19122 0.92265 0.0
C936 C 0.13352 0.19873 0.94409 0.0
C937 C 0.1162 0.21563 0.12914 0.0
C938 C 0.12964 0.22488 0.13559 0.0
C939 C 0.11173 0.21127 0.09362 0.0
C940 C 0.12066 0.216 0.06421 0.0
C941 C 0.13417 0.22474 0.07075 0.0
C942 C 0.13863 0.22923 0.1062 0.0
C943 C 0.11578 0.21309 0.02622 0.0
C944 C 0.11975 0.20598 0.00361 0.0
C945 C 0.10773 0.21791 0.01191 0.0
C946 C 0.10336 0.22561 0.03451 0.0
C947 C 0.11271 0.2378 0.05016 0.0
C948 C 0.1085 0.24491 0.07178 0.0
C949 C 0.09497 0.23999 0.07767 0.0
C950 C 0.08562 0.22796 0.06183 0.0
C951 C 0.08978 0.2208 0.04022 0.0
H952 H 0.09173 0.24551 0.09441 0.0
H953 H 0.13089 0.17513 0.88422 0.0
H954 H 0.89578 0.7913 0.35479 0.0
H955 H 0.89453 0.79257 0.42153 0.0
H956 H 0.90048 0.759 0.43309 0.0
H957 H 0.90161 0.75758 0.36662 0.0
H958 H 0.87953 0.75575 0.47152 0.0
H959 H 0.92489 0.78964 0.4554 0.0
H960 H 0.94334 0.81007 0.42907 0.0
H961 H 0.92656 0.83276 0.47227 0.0
H962 H 0.9079 0.81242 0.49843 0.0
H963 H 0.89945 0.76999 0.66781 0.0
H964 H 0.90649 0.77643 0.60433 0.0
H965 H 0.86866 0.77288 0.57916 0.0
H966 H 0.8615 0.76645 0.6423 0.0
H967 H 0.90705 0.7953 0.54892 0.0
H968 H 0.85684 0.75053 0.50802 0.0
H969 H 0.83909 0.73 0.53625 0.0
H970 H 0.86755 0.72849 0.60804 0.0
H971 H 0.88549 0.74867 0.57932 0.0
C972 C 0.89691 0.78425 0.3716 0.0
C973 C 0.8987 0.77428 0.35554 0.0
C974 C 0.89627 0.78504 0.40966 0.0
C975 C 0.89748 0.77591 0.43212 0.0
C976 C 0.89952 0.76613 0.41614 0.0
C977 C 0.90015 0.76533 0.37819 0.0
C978 C 0.89574 0.77596 0.47217 0.0
C979 C 0.88557 0.7644 0.48836 0.0
C980 C 0.90369 0.78722 0.49413 0.0
C981 C 0.91493 0.79948 0.47859 0.0
C982 C 0.92508 0.79897 0.45904 0.0
C983 C 0.93558 0.81054 0.44419 0.0
C984 C 0.9361 0.8227 0.44891 0.0
C985 C 0.92614 0.82333 0.46859 0.0
C986 C 0.9156 0.81178 0.48347 0.0
C987 C 0.89274 0.7709 0.64901 0.0
C988 C 0.87979 0.76739 0.65981 0.0
C989 C 0.89684 0.7747 0.61288 0.0
C990 C 0.88802 0.77496 0.58722 0.0
C991 C 0.87556 0.77266 0.59871 0.0
C992 C 0.87146 0.76889 0.63473 0.0
C993 C 0.89077 0.77518 0.54776 0.0
C994 C 0.90105 0.78671 0.53183 0.0
C995 C 0.88309 0.76382 0.52593 0.0
C996 C 0.87247 0.75121 0.54185 0.0
C997 C 0.85931 0.74573 0.52957 0.0
C998 C 0.84922 0.73414 0.54563 0.0
C999 C 0.85218 0.72795 0.57398 0.0
C1000 C 0.86525 0.73327 0.58607 0.0
C1001 C 0.87539 0.74477 0.56986 0.0
H1002 H 0.84435 0.71903 0.58652 0.0
H1003 H 0.94425 0.83165 0.43739 0.0
H1004 H 0.23655 0.10208 0.6209 0.0
H1005 H 0.23331 0.10492 0.55629 0.0
H1006 H 0.21204 0.12512 0.58567 0.0
H1007 H 0.21575 0.1228 0.65057 0.0
H1008 H 0.2139 0.09812 0.51072 0.0
H1009 H 0.2196 0.14998 0.52546 0.0
H1010 H 0.22935 0.16906 0.56789 0.0
H1011 H 0.25811 0.15857 0.60312 0.0
H1012 H 0.24863 0.13954 0.56061 0.0
H1013 H 0.20931 0.11883 0.33067 0.0
H1014 H 0.20537 0.11386 0.39615 0.0
H1015 H 0.24644 0.14234 0.41857 0.0
H1016 H 0.25025 0.14773 0.3535 0.0
H1017 H 0.23181 0.14446 0.46789 0.0
H1018 H 0.23427 0.10801 0.413 0.0
H1019 H 0.22774 0.08941 0.36995 0.0
H1020 H 0.18824 0.06982 0.41403 0.0
H1021 H 0.1945 0.08839 0.45705 0.0
C1022 C 0.23106 0.10701 0.61365 0.0
C1023 C 0.22658 0.11241 0.64072 0.0
C1024 C 0.22916 0.10857 0.57669 0.0
C1025 C 0.22262 0.11542 0.56618 0.0
C1026 C 0.21736 0.12005 0.59322 0.0
C1027 C 0.21947 0.11871 0.63023 0.0
C1028 C 0.22231 0.11856 0.52706 0.0
C1029 C 0.2177 0.10823 0.50134 0.0
C1030 C 0.22744 0.13178 0.51482 0.0
C1031 C 0.23329 0.14326 0.54023 0.0
C1032 C 0.22802 0.15178 0.54223 0.0
C1033 C 0.2335 0.16257 0.56628 0.0
C1034 C 0.24431 0.16499 0.58829 0.0
C1035 C 0.24971 0.15665 0.58618 0.0
C1036 C 0.24428 0.14586 0.56213 0.0
C1037 C 0.21746 0.12405 0.34967 0.0
C1038 C 0.2301 0.1336 0.33712 0.0
C1039 C 0.21521 0.12119 0.38699 0.0
C1040 C 0.22565 0.12761 0.41215 0.0
C1041 C 0.23822 0.1373 0.39963 0.0
C1042 C 0.24041 0.14033 0.36246 0.0
C1043 C 0.22371 0.12406 0.45147 0.0
C1044 C 0.2278 0.13431 0.47724 0.0
C1045 C 0.21857 0.11083 0.46366 0.0
C1046 C 0.21481 0.09965 0.43791 0.0
C1047 C 0.22416 0.09978 0.41331 0.0
C1048 C 0.22052 0.08924 0.38896 0.0
C1049 C 0.20757 0.07846 0.38918 0.0
C1050 C 0.19826 0.07819 0.41384 0.0
C1051 C 0.20185 0.08871 0.43822 0.0
H1052 H 0.20477 0.07031 0.3703 0.0
H1053 H 0.24853 0.17335 0.60692 0.0
H1054 H 0.85997 0.09802 0.6472 0.0
H1055 H 0.85992 0.092 0.58319 0.0
H1056 H 0.90248 0.11739 0.57884 0.0
H1057 H 0.90248 0.1239 0.64245 0.0
H1058 H 0.89212 0.12351 0.52682 0.0
H1059 H 0.88669 0.08255 0.56859 0.0
H1060 H 0.87743 0.06184 0.60436 0.0
H1061 H 0.83939 0.04795 0.55398 0.0
H1062 H 0.84836 0.06866 0.51827 0.0
H1063 H 0.89132 0.1072 0.33911 0.0
H1064 H 0.8953 0.10707 0.40487 0.0
H1065 H 0.85362 0.09134 0.42605 0.0
H1066 H 0.84953 0.09149 0.36026 0.0
H1067 H 0.86624 0.07932 0.46815 0.0
H1068 H 0.872 0.12246 0.43459 0.0
H1069 H 0.88194 0.14311 0.39826 0.0
H1070 H 0.92082 0.15241 0.43393 0.0
H1071 H 0.9111 0.13171 0.4701 0.0
C1072 C 0.86934 0.1021 0.63278 0.0
C1073 C 0.8812 0.11155 0.64951 0.0
C1074 C 0.86932 0.09857 0.59627 0.0
C1075 C 0.88121 0.10418 0.57624 0.0
C1076 C 0.89318 0.11298 0.59374 0.0
C1077 C 0.89317 0.11671 0.63 0.0
C1078 C 0.88089 0.10235 0.53607 0.0
C1079 C 0.88675 0.11379 0.51411 0.0
C1080 C 0.87368 0.08971 0.51937 0.0
C1081 C 0.86819 0.07722 0.5409 0.0
C1082 C 0.87632 0.07513 0.56534 0.0
C1083 C 0.87113 0.06338 0.58557 0.0
C1084 C 0.85783 0.05359 0.58149 0.0
C1085 C 0.8497 0.05554 0.55712 0.0
C1086 C 0.85484 0.06728 0.53683 0.0
C1087 C 0.88299 0.10364 0.35775 0.0
C1088 C 0.87014 0.09948 0.34472 0.0
C1089 C 0.88528 0.10352 0.39519 0.0
C1090 C 0.87474 0.09919 0.42002 0.0
C1091 C 0.86183 0.09464 0.40708 0.0
C1092 C 0.85955 0.09486 0.36964 0.0
C1093 C 0.87731 0.10044 0.45968 0.0
C1094 C 0.87184 0.08894 0.48126 0.0
C1095 C 0.88501 0.113 0.47616 0.0
C1096 C 0.89084 0.12548 0.45467 0.0
C1097 C 0.88267 0.12886 0.43443 0.0
C1098 C 0.88827 0.14058 0.41392 0.0
C1099 C 0.90201 0.14905 0.41369 0.0
C1100 C 0.91018 0.14583 0.43407 0.0
C1101 C 0.90464 0.13412 0.45459 0.0
H1102 H 0.90632 0.15811 0.3978 0.0
H1103 H 0.85383 0.0445 0.59718 0.0
H1104 H 0.88514 0.43872 0.16208 0.0
H1105 H 0.87508 0.43478 0.22291 0.0
H1106 H 0.90007 0.41951 0.25987 0.0
H1107 H 0.91022 0.42342 0.199 0.0
H1108 H 0.87272 0.40431 0.28316 0.0
H1109 H 0.90947 0.44996 0.27876 0.0
H1110 H 0.92162 0.47249 0.25246 0.0
H1111 H 0.88752 0.477 0.26789 0.0
H1112 H 0.8751 0.4544 0.29384 0.0
H1113 H 0.88437 0.41558 0.4716 0.0
H1114 H 0.88134 0.41105 0.40615 0.0
H1115 H 0.86194 0.43432 0.39725 0.0
H1116 H 0.86558 0.43941 0.46259 0.0
H1117 H 0.88181 0.4441 0.35527 0.0
H1118 H 0.84639 0.40037 0.37142 0.0
H1119 H 0.83375 0.37785 0.39743 0.0
H1120 H 0.86354 0.36915 0.3601 0.0
H1121 H 0.87648 0.39168 0.33433 0.0
C1122 C 0.88848 0.4345 0.18313 0.0
C1123 C 0.89855 0.43148 0.17596 0.0
C1124 C 0.88268 0.43221 0.21773 0.0
C1125 C 0.88685 0.42684 0.24564 0.0
C1126 C 0.8967 0.42358 0.23845 0.0
C1127 C 0.90257 0.42595 0.20387 0.0
C1128 C 0.88166 0.42557 0.28314 0.0
C1129 C 0.87469 0.41295 0.29921 0.0
C1130 C 0.88382 0.43685 0.30318 0.0
C1131 C 0.89131 0.45045 0.2878 0.0
C1132 C 0.90453 0.45572 0.27625 0.0
C1133 C 0.91147 0.4685 0.26147 0.0
C1134 C 0.90533 0.47615 0.25839 0.0
C1135 C 0.89225 0.47105 0.27021 0.0
C1136 C 0.88526 0.45826 0.28497 0.0
C1137 C 0.87904 0.41934 0.45593 0.0
C1138 C 0.87542 0.42804 0.47188 0.0
C1139 C 0.87722 0.41667 0.41845 0.0
C1140 C 0.87145 0.42239 0.39664 0.0
C1141 C 0.86651 0.42989 0.41347 0.0
C1142 C 0.86859 0.4328 0.45077 0.0
C1143 C 0.87301 0.42277 0.35629 0.0
C1144 C 0.87941 0.4353 0.33939 0.0
C1145 C 0.87017 0.41136 0.33555 0.0
C1146 C 0.86245 0.39777 0.35107 0.0
C1147 C 0.85031 0.3937 0.36898 0.0
C1148 C 0.84308 0.38092 0.38365 0.0
C1149 C 0.84785 0.37208 0.38046 0.0
C1150 C 0.85986 0.376 0.36254 0.0
C1151 C 0.86713 0.38877 0.34783 0.0
H1152 H 0.84224 0.36219 0.39183 0.0
H1153 H 0.91072 0.48605 0.24695 0.0
H1154 H 0.58449 0.4872 0.22093 0.0
H1155 H 0.58602 0.4804 0.28331 0.0
H1156 H 0.5671 0.43953 0.24851 0.0
H1157 H 0.56557 0.44624 0.18599 0.0
H1158 H 0.5546 0.44398 0.30623 0.0
H1159 H 0.59822 0.45363 0.27553 0.0
H1160 H 0.62082 0.46684 0.25047 0.0
H1161 H 0.62961 0.49751 0.32939 0.0
H1162 H 0.607 0.48458 0.35461 0.0
H1163 H 0.5512 0.42789 0.4895 0.0
H1164 H 0.55915 0.42856 0.42713 0.0
H1165 H 0.58257 0.47127 0.43311 0.0
H1166 H 0.57511 0.47062 0.49596 0.0
H1167 H 0.59402 0.46194 0.38757 0.0
H1168 H 0.55002 0.45594 0.40578 0.0
H1169 H 0.52719 0.44451 0.43016 0.0
H1170 H 0.51901 0.40891 0.37324 0.0
H1171 H 0.54187 0.42011 0.3489 0.0
C1172 C 0.5808 0.47679 0.22648 0.0
C1173 C 0.57479 0.46723 0.19875 0.0
C1174 C 0.58181 0.47294 0.262 0.0
C1175 C 0.57678 0.45949 0.27031 0.0
C1176 C 0.57111 0.44997 0.24246 0.0
C1177 C 0.57021 0.45382 0.20687 0.0
C1178 C 0.57593 0.45531 0.30885 0.0
C1179 C 0.56324 0.44758 0.32383 0.0
C1180 C 0.58721 0.46034 0.3318 0.0
C1181 C 0.60087 0.46815 0.31685 0.0
C1182 C 0.60494 0.46324 0.28739 0.0
C1183 C 0.61776 0.47067 0.27317 0.0
C1184 C 0.62664 0.48302 0.2883 0.0
C1185 C 0.62272 0.48794 0.31771 0.0
C1186 C 0.6099 0.48055 0.33202 0.0
C1187 C 0.55836 0.43738 0.47787 0.0
C1188 C 0.56232 0.44923 0.49715 0.0
C1189 C 0.56291 0.43775 0.4423 0.0
C1190 C 0.57114 0.44999 0.4252 0.0
C1191 C 0.57616 0.46172 0.44574 0.0
C1192 C 0.57184 0.46134 0.48161 0.0
C1193 C 0.57267 0.45082 0.38491 0.0
C1194 C 0.58543 0.45799 0.36968 0.0
C1195 C 0.56144 0.4455 0.36159 0.0
C1196 C 0.54768 0.4388 0.37593 0.0
C1197 C 0.54337 0.44565 0.39866 0.0
C1198 C 0.53043 0.43922 0.41245 0.0
C1199 C 0.52167 0.42598 0.40336 0.0
C1200 C 0.52582 0.41916 0.38034 0.0
C1201 C 0.53876 0.42554 0.36654 0.0
H1202 H 0.51166 0.42101 0.41406 0.0
H1203 H 0.63657 0.48876 0.27725 0.0
H1204 H 0.56617 0.10661 0.4737 0.0
H1205 H 0.56388 0.1106 0.40929 0.0
H1206 H 0.52455 0.10401 0.43001 0.0
H1207 H 0.52678 0.10008 0.4949 0.0
H1208 H 0.5453 0.09095 0.36755 0.0
H1209 H 0.51786 0.12086 0.36059 0.0
H1210 H 0.51671 0.13855 0.39472 0.0
H1211 H 0.5563 0.15309 0.43483 0.0
H1212 H 0.55776 0.13562 0.40054 0.0
H1213 H 0.51428 0.08211 0.19577 0.0
H1214 H 0.51702 0.08485 0.26231 0.0
H1215 H 0.5513 0.12368 0.24737 0.0
H1216 H 0.54873 0.12101 0.18085 0.0
H1217 H 0.53366 0.12183 0.30621 0.0
H1218 H 0.55762 0.10082 0.26014 0.0
H1219 H 0.55979 0.08386 0.22521 0.0
H1220 H 0.52954 0.05315 0.29156 0.0
H1221 H 0.52706 0.06993 0.32653 0.0
C1222 C 0.55711 0.10626 0.46478 0.0
C1223 C 0.54656 0.10282 0.48925 0.0
C1224 C 0.55585 0.10856 0.42797 0.0
C1225 C 0.54403 0.10749 0.41494 0.0
C1226 C 0.53379 0.10495 0.43966 0.0
C1227 C 0.53507 0.10267 0.47667 0.0
C1228 C 0.54188 0.10739 0.37504 0.0
C1229 C 0.54278 0.09774 0.35421 0.0
C1230 C 0.53858 0.11622 0.35772 0.0
C1231 C 0.53785 0.12683 0.3783 0.0
C1232 C 0.52634 0.12786 0.37661 0.0
C1233 C 0.52563 0.13785 0.39599 0.0
C1234 C 0.53641 0.14691 0.41703 0.0
C1235 C 0.54793 0.14603 0.41865 0.0
C1236 C 0.54869 0.13606 0.39931 0.0
C1237 C 0.52233 0.09128 0.20667 0.0
C1238 C 0.5314 0.10128 0.18322 0.0
C1239 C 0.52384 0.09284 0.24459 0.0
C1240 C 0.53437 0.10445 0.2595 0.0
C1241 C 0.54309 0.11469 0.23622 0.0
C1242 C 0.54167 0.11308 0.19831 0.0
C1243 C 0.53704 0.10539 0.29916 0.0
C1244 C 0.53616 0.11509 0.31981 0.0
C1245 C 0.54051 0.0967 0.31646 0.0
C1246 C 0.54206 0.08661 0.29567 0.0
C1247 C 0.55136 0.09044 0.26707 0.0
C1248 C 0.55266 0.08086 0.2473 0.0
C1249 C 0.54478 0.06743 0.25609 0.0
C1250 C 0.53562 0.06355 0.28474 0.0
C1251 C 0.53427 0.07309 0.30455 0.0
H1252 H 0.5458 0.06003 0.24076 0.0
H1253 H 0.53584 0.15463 0.43202 0.0
H1254 H 0.77865 0.54072 0.67846 0.0
H1255 H 0.77413 0.54232 0.74304 0.0
H1256 H 0.74589 0.55431 0.71239 0.0
H1257 H 0.75019 0.55258 0.64772 0.0
H1258 H 0.76835 0.57327 0.75277 0.0
H1259 H 0.73463 0.52747 0.75945 0.0
H1260 H 0.72512 0.50337 0.751 0.0
H1261 H 0.7549 0.50401 0.82177 0.0
H1262 H 0.76473 0.52815 0.83023 0.0
H1263 H 0.75911 0.58685 0.93622 0.0
H1264 H 0.7561 0.57915 0.87284 0.0
H1265 H 0.77688 0.55796 0.89659 0.0
H1266 H 0.77945 0.56522 0.96038 0.0
H1267 H 0.75569 0.54274 0.85909 0.0
H1268 H 0.79158 0.58748 0.84537 0.0
H1269 H 0.80341 0.61184 0.85183 0.0
H1270 H 0.77227 0.61347 0.79322 0.0
H1271 H 0.76021 0.58909 0.78664 0.0
C1272 C 0.77113 0.54324 0.68545 0.0
C1273 C 0.76493 0.54674 0.65811 0.0
C1274 C 0.76853 0.5441 0.72233 0.0
C1275 C 0.75976 0.54852 0.73225 0.0
C1276 C 0.75268 0.55087 0.70507 0.0
C1277 C 0.75514 0.54985 0.66817 0.0
C1278 C 0.75985 0.55291 0.77013 0.0
C1279 C 0.76529 0.56657 0.77606 0.0
C1280 C 0.75638 0.54419 0.80025 0.0
C1281 C 0.75048 0.52966 0.79525 0.0
C1282 C 0.73923 0.5225 0.77296 0.0
C1283 C 0.73376 0.50882 0.76823 0.0
C1284 C 0.73942 0.50217 0.78578 0.0
C1285 C 0.75054 0.50918 0.80817 0.0
C1286 C 0.75605 0.52286 0.81299 0.0
C1287 C 0.76317 0.58068 0.92778 0.0
C1288 C 0.76953 0.57664 0.95309 0.0
C1289 C 0.76146 0.5763 0.89158 0.0
C1290 C 0.76635 0.56806 0.87995 0.0
C1291 C 0.77297 0.56426 0.90505 0.0
C1292 C 0.7745 0.56847 0.94138 0.0
C1293 C 0.76431 0.56314 0.84181 0.0
C1294 C 0.75858 0.54942 0.83582 0.0
C1295 C 0.76781 0.57183 0.81151 0.0
C1296 C 0.77494 0.58647 0.81581 0.0
C1297 C 0.78721 0.59303 0.83411 0.0
C1298 C 0.79397 0.60684 0.83771 0.0
C1299 C 0.78858 0.6142 0.823 0.0
C1300 C 0.77642 0.60776 0.80466 0.0
C1301 C 0.76963 0.59395 0.80092 0.0
H1302 H 0.79384 0.62489 0.82575 0.0
H1303 H 0.73517 0.49158 0.78207 0.0
H1304 H 0.44628 0.20067 0.64322 0.0
H1305 H 0.44927 0.19525 0.70603 0.0
H1306 H 0.44872 0.22986 0.7455 0.0
H1307 H 0.4459 0.23549 0.68313 0.0
H1308 H 0.46664 0.21099 0.7755 0.0
H1309 H 0.42022 0.2147 0.79733 0.0
H1310 H 0.40172 0.21356 0.76131 0.0
H1311 H 0.40366 0.18598 0.68705 0.0
H1312 H 0.42199 0.18676 0.72304 0.0
H1313 H 0.45026 0.21298 0.96243 0.0
H1314 H 0.4558 0.21617 0.89726 0.0
H1315 H 0.424 0.17645 0.87486 0.0
H1316 H 0.41834 0.1732 0.93999 0.0
H1317 H 0.42251 0.19474 0.8331 0.0
H1318 H 0.45571 0.18347 0.86299 0.0
H1319 H 0.4746 0.18463 0.89691 0.0
H1320 H 0.49871 0.22571 0.86795 0.0
H1321 H 0.48 0.22481 0.83372 0.0
C1322 C 0.44728 0.2074 0.66509 0.0
C1323 C 0.44552 0.21833 0.65833 0.0
C1324 C 0.44907 0.20432 0.70089 0.0
C1325 C 0.44903 0.21209 0.73012 0.0
C1326 C 0.44872 0.22376 0.72308 0.0
C1327 C 0.44704 0.22691 0.68741 0.0
C1328 C 0.44659 0.20679 0.76766 0.0
C1329 C 0.45701 0.20735 0.78823 0.0
C1330 C 0.43393 0.20185 0.78367 0.0
C1331 C 0.42256 0.20091 0.76265 0.0
C1332 C 0.41664 0.20833 0.77344 0.0
C1333 C 0.40619 0.20775 0.75302 0.0
C1334 C 0.40155 0.19974 0.72183 0.0
C1335 C 0.40729 0.19222 0.71113 0.0
C1336 C 0.41772 0.19274 0.73152 0.0
C1337 C 0.44453 0.20488 0.94368 0.0
C1338 C 0.43376 0.1929 0.9562 0.0
C1339 C 0.44779 0.20667 0.90652 0.0
C1340 C 0.44037 0.1965 0.88136 0.0
C1341 C 0.42987 0.18439 0.89394 0.0
C1342 C 0.42662 0.18258 0.9311 0.0
C1343 C 0.44262 0.19906 0.84164 0.0
C1344 C 0.43211 0.1981 0.82051 0.0
C1345 C 0.45517 0.20348 0.82523 0.0
C1346 C 0.46642 0.20409 0.846 0.0
C1347 C 0.46501 0.19278 0.86407 0.0
C1348 C 0.47569 0.19338 0.88331 0.0
C1349 C 0.48781 0.20525 0.88478 0.0
C1350 C 0.48931 0.21653 0.86683 0.0
C1351 C 0.47869 0.21596 0.84738 0.0
H1352 H 0.49606 0.20569 0.89972 0.0
H1353 H 0.39348 0.19933 0.70599 0.0
H1354 H 0.78999 0.24667 0.64582 0.0
H1355 H 0.79481 0.25374 0.70955 0.0
H1356 H 0.7586 0.219 0.74332 0.0
H1357 H 0.75369 0.2117 0.67961 0.0
H1358 H 0.7694 0.24517 0.78933 0.0
H1359 H 0.78004 0.21189 0.73949 0.0
H1360 H 0.78936 0.20491 0.68909 0.0
H1361 H 0.82662 0.24112 0.69976 0.0
H1362 H 0.81746 0.24835 0.74997 0.0
H1363 H 0.78169 0.22645 0.96185 0.0
H1364 H 0.77513 0.22779 0.89922 0.0
H1365 H 0.81635 0.25137 0.86834 0.0
H1366 H 0.82296 0.24954 0.93076 0.0
H1367 H 0.80413 0.23374 0.81927 0.0
H1368 H 0.79526 0.2649 0.87875 0.0
H1369 H 0.78611 0.27332 0.92568 0.0
H1370 H 0.74654 0.24357 0.89578 0.0
H1371 H 0.75546 0.23484 0.84899 0.0
C1372 C 0.78277 0.24076 0.66655 0.0
C1373 C 0.77165 0.22842 0.65785 0.0
C1374 C 0.78552 0.24488 0.70293 0.0
C1375 C 0.77713 0.23677 0.73088 0.0
C1376 C 0.76516 0.22535 0.72192 0.0
C1377 C 0.76244 0.22116 0.68554 0.0
C1378 C 0.78226 0.23841 0.76848 0.0
C1379 C 0.77695 0.24265 0.79619 0.0
C1380 C 0.7923 0.23538 0.77679 0.0
C1381 C 0.79805 0.23069 0.74821 0.0
C1382 C 0.79022 0.21836 0.73101 0.0
C1383 C 0.79545 0.21438 0.70244 0.0
C1384 C 0.80854 0.22261 0.69106 0.0
C1385 C 0.81646 0.23479 0.70847 0.0
C1386 C 0.81127 0.23881 0.73705 0.0
C1387 C 0.78935 0.23194 0.9417 0.0
C1388 C 0.80283 0.23788 0.95105 0.0
C1389 C 0.78559 0.23281 0.906 0.0
C1390 C 0.79525 0.23992 0.87923 0.0
C1391 C 0.80873 0.24588 0.88859 0.0
C1392 C 0.8125 0.24481 0.92418 0.0
C1393 C 0.79125 0.24046 0.84102 0.0
C1394 C 0.79673 0.2365 0.81288 0.0
C1395 C 0.78146 0.24392 0.83246 0.0
C1396 C 0.77604 0.24915 0.86052 0.0
C1397 C 0.78461 0.26009 0.88235 0.0
C1398 C 0.77946 0.26493 0.9089 0.0
C1399 C 0.76575 0.25897 0.91376 0.0
C1400 C 0.75716 0.24818 0.892 0.0
C1401 C 0.76225 0.24329 0.86542 0.0
H1402 H 0.76179 0.26273 0.93433 0.0
H1403 H 0.81258 0.21951 0.66897 0.0
H1404 H 0.44159 0.22485 0.46064 0.0
H1405 H 0.44573 0.22632 0.39483 0.0
H1406 H 0.42344 0.24653 0.38083 0.0
H1407 H 0.41887 0.24468 0.44667 0.0
H1408 H 0.41653 0.22839 0.33118 0.0
H1409 H 0.45803 0.26318 0.37402 0.0
H1410 H 0.47813 0.27385 0.41248 0.0
H1411 H 0.49007 0.24685 0.37132 0.0
H1412 H 0.46995 0.23589 0.33299 0.0
H1413 H 0.43324 0.23798 0.14421 0.0
H1414 H 0.43542 0.24568 0.20756 0.0
H1415 H 0.44851 0.21847 0.24029 0.0
H1416 H 0.44625 0.21061 0.17718 0.0
H1417 H 0.46125 0.24389 0.27854 0.0
H1418 H 0.41764 0.20725 0.24456 0.0
H1419 H 0.39758 0.19679 0.20583 0.0
H1420 H 0.38998 0.22843 0.23087 0.0
H1421 H 0.41013 0.23919 0.2693 0.0
C1422 C 0.43758 0.22963 0.44354 0.0
C1423 C 0.4299 0.23465 0.45872 0.0
C1424 C 0.44006 0.23057 0.40598 0.0
C1425 C 0.43513 0.23679 0.383 0.0
C1426 C 0.42741 0.24177 0.3981 0.0
C1427 C 0.42478 0.24068 0.43566 0.0
C1428 C 0.43744 0.23739 0.34296 0.0
C1429 C 0.42636 0.23209 0.3197 0.0
C1430 C 0.45024 0.24204 0.32793 0.0
C1431 C 0.46242 0.24865 0.35079 0.0
C1432 C 0.46489 0.25945 0.37335 0.0
C1433 C 0.4763 0.26556 0.3951 0.0
C1434 C 0.48536 0.26102 0.39439 0.0
C1435 C 0.48305 0.25036 0.37185 0.0
C1436 C 0.47165 0.24421 0.35006 0.0
C1437 C 0.43694 0.2339 0.16468 0.0
C1438 C 0.43937 0.22354 0.15591 0.0
C1439 C 0.43817 0.23831 0.2008 0.0
C1440 C 0.44198 0.23252 0.22844 0.0
C1441 C 0.44556 0.22304 0.21921 0.0
C1442 C 0.44418 0.21851 0.18322 0.0
C1443 C 0.44036 0.23479 0.26735 0.0
C1444 C 0.45151 0.24053 0.29024 0.0
C1445 C 0.42765 0.23064 0.28214 0.0
C1446 C 0.41547 0.2241 0.25939 0.0
C1447 C 0.41175 0.21203 0.24154 0.0
C1448 C 0.40036 0.20604 0.21969 0.0
C1449 C 0.39253 0.21196 0.2158 0.0
C1450 C 0.39607 0.22387 0.23384 0.0
C1451 C 0.40747 0.22992 0.25566 0.0
H1452 H 0.38372 0.2073 0.19888 0.0
H1453 H 0.49419 0.26576 0.41126 0.0
H1454 H 0.75351 0.21455 0.4628 0.0
H1455 H 0.75287 0.21856 0.39732 0.0
H1456 H 0.76549 0.19022 0.37332 0.0
H1457 H 0.7655 0.18572 0.43868 0.0
H1458 H 0.77101 0.22884 0.35066 0.0
H1459 H 0.7555 0.176 0.29279 0.0
H1460 H 0.74016 0.15262 0.30905 0.0
H1461 H 0.71655 0.16425 0.37224 0.0
H1462 H 0.73162 0.18768 0.35593 0.0
H1463 H 0.79984 0.23201 0.18259 0.0
H1464 H 0.79106 0.22887 0.24445 0.0
H1465 H 0.75118 0.2058 0.20239 0.0
H1466 H 0.76001 0.20841 0.14017 0.0
H1467 H 0.75336 0.19347 0.25617 0.0
H1468 H 0.76306 0.23751 0.24212 0.0
H1469 H 0.77566 0.26119 0.2253 0.0
H1470 H 0.80561 0.26767 0.30446 0.0
H1471 H 0.7933 0.24399 0.32143 0.0
C1472 C 0.75603 0.20909 0.44347 0.0
C1473 C 0.75957 0.19984 0.45569 0.0
C1474 C 0.75566 0.21139 0.40609 0.0
C1475 C 0.75897 0.20458 0.38031 0.0
C1476 C 0.76253 0.19533 0.39258 0.0
C1477 C 0.76266 0.19285 0.42994 0.0
C1478 C 0.75962 0.20777 0.34077 0.0
C1479 C 0.76703 0.22111 0.32998 0.0
C1480 C 0.75396 0.19774 0.31371 0.0
C1481 C 0.74475 0.18362 0.32328 0.0
C1482 C 0.74699 0.17357 0.30996 0.0
C1483 C 0.73835 0.16031 0.31924 0.0
C1484 C 0.72741 0.15696 0.34172 0.0
C1485 C 0.72506 0.16686 0.35491 0.0
C1486 C 0.73365 0.18014 0.34569 0.0
C1487 C 0.78919 0.22643 0.18638 0.0
C1488 C 0.78062 0.22042 0.15655 0.0
C1489 C 0.78416 0.22472 0.22182 0.0
C1490 C 0.77043 0.21728 0.22811 0.0
C1491 C 0.7618 0.2116 0.1982 0.0
C1492 C 0.76686 0.21311 0.1627 0.0
C1493 C 0.76534 0.2145 0.26622 0.0
C1494 C 0.75708 0.20123 0.27677 0.0
C1495 C 0.76977 0.22464 0.29296 0.0
C1496 C 0.77725 0.23893 0.28295 0.0
C1497 C 0.77237 0.24396 0.2558 0.0
C1498 C 0.77946 0.25739 0.24626 0.0
C1499 C 0.79143 0.26592 0.26378 0.0
C1500 C 0.79633 0.26105 0.29093 0.0
C1501 C 0.78928 0.24762 0.30058 0.0
H1502 H 0.7969 0.27632 0.25634 0.0
H1503 H 0.72074 0.14668 0.3489 0.0
H1504 H 0.80605 0.5683 0.43193 0.0
H1505 H 0.79901 0.56362 0.36794 0.0
H1506 H 0.76405 0.5273 0.40008 0.0
H1507 H 0.77089 0.532 0.46449 0.0
H1508 H 0.78043 0.52803 0.32952 0.0
H1509 H 0.75546 0.54593 0.38761 0.0
H1510 H 0.75315 0.56153 0.42845 0.0
H1511 H 0.78136 0.59436 0.36351 0.0
H1512 H 0.784 0.57894 0.32263 0.0
H1513 H 0.75432 0.55375 0.16519 0.0
H1514 H 0.75194 0.54411 0.22602 0.0
H1515 H 0.79163 0.55026 0.21868 0.0
H1516 H 0.79402 0.55971 0.15759 0.0
H1517 H 0.7667 0.55904 0.27977 0.0
H1518 H 0.79569 0.52999 0.27696 0.0
H1519 H 0.79777 0.51405 0.23699 0.0
H1520 H 0.75952 0.50195 0.19027 0.0
H1521 H 0.75711 0.51766 0.23032 0.0
C1522 C 0.79696 0.55923 0.42538 0.0
C1523 C 0.78893 0.55059 0.45312 0.0
C1524 C 0.79299 0.55656 0.3889 0.0
C1525 C 0.78104 0.54514 0.37964 0.0
C1526 C 0.77333 0.53612 0.40695 0.0
C1527 C 0.7772 0.53888 0.4436 0.0
C1528 C 0.77611 0.54355 0.34185 0.0
C1529 C 0.77727 0.53465 0.31841 0.0
C1530 C 0.77169 0.55199 0.32809 0.0
C1531 C 0.76999 0.56129 0.35226 0.0
C1532 C 0.76125 0.55648 0.38223 0.0
C1533 C 0.75986 0.56528 0.40535 0.0
C1534 C 0.76712 0.57893 0.39862 0.0
C1535 C 0.77575 0.58379 0.3687 0.0
C1536 C 0.77718 0.57502 0.34552 0.0
C1537 C 0.76244 0.55279 0.17617 0.0
C1538 C 0.77446 0.55773 0.15691 0.0
C1539 C 0.76103 0.54721 0.21085 0.0
C1540 C 0.7716 0.54648 0.22686 0.0
C1541 C 0.78327 0.55055 0.20664 0.0
C1542 C 0.78467 0.55607 0.17183 0.0
C1543 C 0.7714 0.54378 0.26649 0.0
C1544 C 0.76942 0.55204 0.29055 0.0
C1545 C 0.7749 0.53461 0.28064 0.0
C1546 C 0.77625 0.52508 0.25656 0.0
C1547 C 0.78768 0.52388 0.25832 0.0
C1548 C 0.78893 0.51489 0.23561 0.0
C1549 C 0.7788 0.50701 0.21106 0.0
C1550 C 0.76738 0.50809 0.20921 0.0
C1551 C 0.76608 0.51705 0.23187 0.0
H1552 H 0.77978 0.50006 0.19349 0.0
H1553 H 0.76604 0.58573 0.41656 0.0
H1554 H 0.55638 0.10868 0.68821 0.0
H1555 H 0.56114 0.11737 0.75064 0.0
H1556 H 0.58162 0.09571 0.77175 0.0
H1557 H 0.57643 0.08658 0.70975 0.0
H1558 H 0.5662 0.09242 0.82558 0.0
H1559 H 0.59848 0.13037 0.76111 0.0
H1560 H 0.60729 0.14773 0.7135 0.0
H1561 H 0.58241 0.16256 0.75287 0.0
H1562 H 0.5733 0.14516 0.80041 0.0
H1563 H 0.58256 0.11792 -0.00042 0.0
H1564 H 0.58988 0.12038 0.936 0.0
H1565 H 0.55829 0.12734 0.90338 0.0
H1566 H 0.5508 0.12482 0.96684 0.0
H1567 H 0.58361 0.13987 0.85649 0.0
H1568 H 0.54761 0.09708 0.90736 0.0
H1569 H 0.53961 0.08042 0.95705 0.0
H1570 H 0.57379 0.07591 0.94366 0.0
H1571 H 0.58197 0.09256 0.89394 0.0
C1572 C 0.5619 0.10579 0.70618 0.0
C1573 C 0.56599 0.09693 0.69425 0.0
C1574 C 0.56475 0.11087 0.74171 0.0
C1575 C 0.57197 0.1074 0.76564 0.0
C1576 C 0.57608 0.09857 0.75369 0.0
C1577 C 0.57307 0.09333 0.71834 0.0
C1578 C 0.57442 0.11227 0.8039 0.0
C1579 C 0.57032 0.10285 0.83214 0.0
C1580 C 0.57966 0.12587 0.81269 0.0
C1581 C 0.58514 0.13639 0.7842 0.0
C1582 C 0.59481 0.13727 0.75947 0.0
C1583 C 0.59988 0.14713 0.73251 0.0
C1584 C 0.5954 0.15623 0.73012 0.0
C1585 C 0.58587 0.1555 0.75475 0.0
C1586 C 0.58076 0.14565 0.78174 0.0
C1587 C 0.57751 0.12056 0.9792 0.0
C1588 C 0.56585 0.12077 0.98794 0.0
C1589 C 0.58176 0.12202 0.9429 0.0
C1590 C 0.57447 0.12382 0.9152 0.0
C1591 C 0.56401 0.12595 0.92454 0.0
C1592 C 0.55968 0.12438 0.96078 0.0
C1593 C 0.57533 0.12 0.87732 0.0
C1594 C 0.57987 0.12954 0.84945 0.0
C1595 C 0.57065 0.10655 0.86865 0.0
C1596 C 0.56542 0.09608 0.89719 0.0
C1597 C 0.55339 0.09251 0.91505 0.0
C1598 C 0.54884 0.08309 0.9432 0.0
C1599 C 0.55622 0.07716 0.95359 0.0
C1600 C 0.56811 0.08056 0.93566 0.0
C1601 C 0.57268 0.08993 0.9074 0.0
H1602 H 0.55269 0.06988 0.97537 0.0
H1603 H 0.59933 0.16385 0.70923 0.0
H1604 H 0.86613 0.44076 0.6672 0.0
H1605 H 0.85994 0.43863 0.73203 0.0
H1606 H 0.89984 0.46918 0.75908 0.0
H1607 H 0.90581 0.47176 0.69453 0.0
H1608 H 0.86733 0.43053 0.78532 0.0
H1609 H 0.90288 0.4858 0.83088 0.0
H1610 H 0.90919 0.50824 0.80899 0.0
H1611 H 0.87301 0.49238 0.74743 0.0
H1612 H 0.86646 0.46982 0.7688 0.0
H1613 H 0.89944 0.43511 0.94594 0.0
H1614 H 0.89058 0.4354 0.88593 0.0
H1615 H 0.87355 0.45807 0.92951 0.0
H1616 H 0.88303 0.45835 -0.01035 0.0
H1617 H 0.88478 0.46875 0.87074 0.0
H1618 H 0.85338 0.42499 0.89784 0.0
H1619 H 0.84392 0.40211 0.92087 0.0
H1620 H 0.86572 0.39414 0.83973 0.0
H1621 H 0.87548 0.41703 0.81653 0.0
C1622 C 0.87351 0.44709 0.68708 0.0
C1623 C 0.88646 0.4564 0.67601 0.0
C1624 C 0.86995 0.4459 0.72402 0.0
C1625 C 0.87933 0.45391 0.75044 0.0
C1626 C 0.89227 0.4632 0.73921 0.0
C1627 C 0.89574 0.46455 0.70232 0.0
C1628 C 0.87622 0.45176 0.79006 0.0
C1629 C 0.87094 0.43885 0.80404 0.0
C1630 C 0.88025 0.46252 0.81458 0.0
C1631 C 0.88419 0.47609 0.80146 0.0
C1632 C 0.89623 0.48709 0.81279 0.0
C1633 C 0.89988 0.49983 0.80032 0.0
C1634 C 0.89153 0.50172 0.77668 0.0
C1635 C 0.87951 0.49088 0.76545 0.0
C1636 C 0.87584 0.47811 0.77766 0.0
C1637 C 0.89368 0.44003 0.9429 0.0
C1638 C 0.89198 0.44676 0.9724 0.0
C1639 C 0.88847 0.44007 0.9086 0.0
C1640 C 0.88113 0.44652 0.90327 0.0
C1641 C 0.87913 0.45298 0.93298 0.0
C1642 C 0.88457 0.45315 0.96726 0.0
C1643 C 0.87693 0.44765 0.86574 0.0
C1644 C 0.88075 0.46035 0.85217 0.0
C1645 C 0.87102 0.43662 0.84176 0.0
C1646 C 0.86517 0.42277 0.85544 0.0
C1647 C 0.85622 0.41839 0.885 0.0
C1648 C 0.8508 0.40541 0.89809 0.0
C1649 C 0.85422 0.39668 0.88177 0.0
C1650 C 0.86306 0.40091 0.8523 0.0
C1651 C 0.86852 0.41388 0.83911 0.0
H1652 H 0.85002 0.38663 0.89195 0.0
H1653 H 0.89435 0.51159 0.76713 0.0
H1654 H 0.50907 0.42317 0.70522 0.0
H1655 H 0.51197 0.42162 0.77105 0.0
H1656 H 0.55436 0.44647 0.75857 0.0
H1657 H 0.55155 0.44757 0.69257 0.0
H1658 H 0.54943 0.42718 0.80343 0.0
H1659 H 0.53398 0.45845 0.79098 0.0
H1660 H 0.51872 0.46619 0.77123 0.0
H1661 H 0.48722 0.43508 0.83356 0.0
H1662 H 0.50226 0.42706 0.85331 0.0
H1663 H 0.56929 0.4587 0.97706 0.0
H1664 H 0.56402 0.45168 0.91327 0.0
H1665 H 0.52433 0.42207 0.94468 0.0
H1666 H 0.52952 0.42896 0.00872 0.0
H1667 H 0.52565 0.44019 0.89197 0.0
H1668 H 0.54347 0.4116 0.91164 0.0
H1669 H 0.55998 0.40563 0.93226 0.0
H1670 H 0.58859 0.43388 0.85726 0.0
H1671 H 0.57232 0.44017 0.83654 0.0
C1672 C 0.51899 0.42833 0.7166 0.0
C1673 C 0.53009 0.43557 0.69395 0.0
C1674 C 0.52064 0.42744 0.75417 0.0
C1675 C 0.53337 0.43406 0.76978 0.0
C1676 C 0.54445 0.44125 0.74709 0.0
C1677 C 0.54283 0.44194 0.70946 0.0
C1678 C 0.5352 0.43375 0.80982 0.0
C1679 C 0.5443 0.43011 0.82279 0.0
C1680 C 0.52825 0.43725 0.8351 0.0
C1681 C 0.5192 0.44206 0.82326 0.0
C1682 C 0.52377 0.4532 0.80023 0.0
C1683 C 0.51517 0.45764 0.78908 0.0
C1684 C 0.502 0.4511 0.80103 0.0
C1685 C 0.49741 0.44012 0.82426 0.0
C1686 C 0.50597 0.43562 0.83545 0.0
C1687 C 0.55952 0.4505 0.97053 0.0
C1688 C 0.54977 0.44447 -0.0022 0.0
C1689 C 0.55656 0.44646 0.93413 0.0
C1690 C 0.5438 0.43636 0.92444 0.0
C1691 C 0.53424 0.42986 0.95179 0.0
C1692 C 0.53724 0.4338 0.98831 0.0
C1693 C 0.54004 0.43388 0.88544 0.0
C1694 C 0.5306 0.43703 0.87264 0.0
C1695 C 0.54686 0.43018 0.86036 0.0
C1696 C 0.55668 0.42641 0.87271 0.0
C1697 C 0.55331 0.41662 0.89975 0.0
C1698 C 0.56263 0.41316 0.91141 0.0
C1699 C 0.57533 0.41939 0.89612 0.0
C1700 C 0.57875 0.42907 0.86908 0.0
C1701 C 0.56947 0.43257 0.85733 0.0
H1702 H 0.58253 0.4167 0.90519 0.0
H1703 H 0.49536 0.45456 0.79238 0.0
H1704 H 0.54665 0.80435 0.78829 0.0
H1705 H 0.53767 0.80338 0.72712 0.0
H1706 H 0.53376 0.76486 0.71041 0.0
H1707 H 0.54229 0.76558 0.77145 0.0
H1708 H 0.55082 0.80454 0.67116 0.0
H1709 H 0.51418 0.74726 0.64624 0.0
H1710 H 0.49436 0.72918 0.6759 0.0
H1711 H 0.48719 0.75765 0.7306 0.0
H1712 H 0.50685 0.77593 0.70083 0.0
H1713 H 0.56809 0.77635 0.53656 0.0
H1714 H 0.56026 0.78252 0.59083 0.0
H1715 H 0.52549 0.77646 0.53209 0.0
H1716 H 0.53331 0.77024 0.47717 0.0
H1717 H 0.51967 0.76451 0.60053 0.0
H1718 H 0.54627 0.80714 0.55357 0.0
H1719 H 0.56549 0.8257 0.52307 0.0
H1720 H 0.59081 0.82759 0.61123 0.0
H1721 H 0.57181 0.8089 0.64202 0.0
C1722 C 0.5435 0.7955 0.77194 0.0
C1723 C 0.54546 0.78515 0.78436 0.0
C1724 C 0.5383 0.79494 0.73705 0.0
C1725 C 0.53501 0.78406 0.71406 0.0
C1726 C 0.53594 0.77326 0.72773 0.0
C1727 C 0.54102 0.77376 0.76262 0.0
C1728 C 0.53349 0.78501 0.67403 0.0
C1729 C 0.54379 0.79591 0.65568 0.0
C1730 C 0.52398 0.77404 0.65349 0.0
C1731 C 0.51202 0.76301 0.67116 0.0
C1732 C 0.50832 0.74969 0.66426 0.0
C1733 C 0.49712 0.7394 0.68121 0.0
C1734 C 0.48952 0.74226 0.70511 0.0
C1735 C 0.4931 0.75544 0.71212 0.0
C1736 C 0.50428 0.76578 0.69524 0.0
C1737 C 0.55881 0.77638 0.53504 0.0
C1738 C 0.55132 0.77283 0.50266 0.0
C1739 C 0.55439 0.78001 0.56597 0.0
C1740 C 0.54241 0.78015 0.56516 0.0
C1741 C 0.53482 0.77652 0.53301 0.0
C1742 C 0.5393 0.77297 0.50181 0.0
C1743 C 0.53774 0.78338 0.59911 0.0
C1744 C 0.52628 0.77334 0.616 0.0
C1745 C 0.54602 0.79524 0.61828 0.0
C1746 C 0.55756 0.80661 0.60018 0.0
C1747 C 0.55594 0.81147 0.56642 0.0
C1748 C 0.56681 0.82202 0.54906 0.0
C1749 C 0.57936 0.82783 0.56522 0.0
C1750 C 0.58107 0.8231 0.59879 0.0
C1751 C 0.57024 0.81255 0.61626 0.0
H1752 H 0.58776 0.83599 0.55173 0.0
H1753 H 0.48086 0.73427 0.71822 0.0
H1754 H 0.22227 0.76864 0.50472 0.0
H1755 H 0.2223 0.76677 0.57154 0.0
H1756 H 0.23747 0.80887 0.58165 0.0
H1757 H 0.23742 0.81084 0.51491 0.0
H1758 H 0.24944 0.79829 0.63059 0.0
H1759 H 0.2063 0.79034 0.59045 0.0
H1760 H 0.18587 0.77912 0.55337 0.0
H1761 H 0.17689 0.74154 0.59923 0.0
H1762 H 0.19738 0.75254 0.63621 0.0
H1763 H 0.22925 0.80527 0.80932 0.0
H1764 H 0.23535 0.80563 0.74503 0.0
H1765 H 0.21186 0.76286 0.74119 0.0
H1766 H 0.2053 0.76252 0.80484 0.0
H1767 H 0.20508 0.77256 0.68838 0.0
H1768 H 0.24675 0.78034 0.73397 0.0
H1769 H 0.2673 0.79113 0.77059 0.0
H1770 H 0.27944 0.82806 0.71544 0.0
H1771 H 0.25887 0.81754 0.67882 0.0
C1772 C 0.22572 0.77751 0.52117 0.0
C1773 C 0.2297 0.78987 0.50473 0.0
C1774 C 0.22576 0.77643 0.55923 0.0
C1775 C 0.22986 0.78769 0.58128 0.0
C1776 C 0.23433 0.80011 0.56493 0.0
C1777 C 0.23418 0.80118 0.5269 0.0
C1778 C 0.22841 0.78635 0.62139 0.0
C1779 C 0.23977 0.79274 0.64345 0.0
C1780 C 0.2158 0.77884 0.63775 0.0
C1781 C 0.20344 0.77224 0.61575 0.0
C1782 C 0.20002 0.77967 0.59239 0.0
C1783 C 0.18842 0.77336 0.57143 0.0
C1784 C 0.18011 0.75962 0.57385 0.0
C1785 C 0.18335 0.75217 0.59733 0.0
C1786 C 0.19495 0.75844 0.6183 0.0
C1787 C 0.2256 0.79595 0.79488 0.0
C1788 C 0.21669 0.78388 0.81179 0.0
C1789 C 0.22915 0.79615 0.75822 0.0
C1790 C 0.2241 0.78426 0.73831 0.0
C1791 C 0.21581 0.77216 0.75596 0.0
C1792 C 0.21207 0.77197 0.79228 0.0
C1793 C 0.22614 0.78449 0.69822 0.0
C1794 C 0.21483 0.77795 0.67591 0.0
C1795 C 0.23882 0.79178 0.68181 0.0
C1796 C 0.2512 0.79817 0.70386 0.0
C1797 C 0.25374 0.79079 0.72986 0.0
C1798 C 0.26541 0.79685 0.75057 0.0
C1799 C 0.27465 0.81027 0.7454 0.0
C1800 C 0.27226 0.81766 0.71944 0.0
C1801 C 0.26061 0.81165 0.69866 0.0
H1802 H 0.28368 0.81495 0.76147 0.0
H1803 H 0.17113 0.75474 0.55761 0.0
H1804 H 0.1731 0.42505 0.54415 0.0
H1805 H 0.18028 0.43055 0.60814 0.0
H1806 H 0.22116 0.44871 0.5741 0.0
H1807 H 0.21412 0.44355 0.51015 0.0
H1808 H 0.21129 0.42745 0.63139 0.0
H1809 H 0.21349 0.46882 0.59939 0.0
H1810 H 0.20441 0.48243 0.5752 0.0
H1811 H 0.17387 0.46663 0.65721 0.0
H1812 H 0.18266 0.45277 0.68156 0.0
H1813 H 0.24047 0.44725 0.80168 0.0
H1814 H 0.23633 0.45054 0.73801 0.0
H1815 H 0.19677 0.44168 0.76669 0.0
H1816 H 0.20095 0.43874 0.83063 0.0
H1817 H 0.2065 0.45937 0.71108 0.0
H1818 H 0.20202 0.41737 0.74128 0.0
H1819 H 0.20909 0.40224 0.76654 0.0
H1820 H 0.2408 0.41648 0.68819 0.0
H1821 H 0.23418 0.43202 0.66317 0.0
C1822 C 0.18361 0.4303 0.55036 0.0
C1823 C 0.19307 0.43384 0.52235 0.0
C1824 C 0.18768 0.43349 0.58674 0.0
C1825 C 0.20122 0.44008 0.59549 0.0
C1826 C 0.21067 0.44369 0.56761 0.0
C1827 C 0.20663 0.44073 0.53122 0.0
C1828 C 0.2055 0.44232 0.63401 0.0
C1829 C 0.21049 0.43459 0.64872 0.0
C1830 C 0.20392 0.4513 0.65657 0.0
C1831 C 0.19865 0.45965 0.64205 0.0
C1832 C 0.20476 0.46815 0.61204 0.0
C1833 C 0.19968 0.47593 0.59835 0.0
C1834 C 0.18854 0.47537 0.61459 0.0
C1835 C 0.18248 0.46704 0.64463 0.0
C1836 C 0.18752 0.45923 0.6584 0.0
C1837 C 0.23101 0.44634 0.7946 0.0
C1838 C 0.22093 0.44246 0.82092 0.0
C1839 C 0.22867 0.44823 0.75826 0.0
C1840 C 0.21613 0.446 0.74762 0.0
C1841 C 0.20648 0.44336 0.77439 0.0
C1842 C 0.20888 0.44164 0.81088 0.0
C1843 C 0.21252 0.44463 0.70843 0.0
C1844 C 0.2075 0.45237 0.69366 0.0
C1845 C 0.21375 0.43541 0.68586 0.0
C1846 C 0.2177 0.42599 0.70065 0.0
C1847 C 0.21058 0.41738 0.72966 0.0
C1848 C 0.21451 0.40873 0.74394 0.0
C1849 C 0.22538 0.4084 0.72899 0.0
C1850 C 0.23238 0.41676 0.69977 0.0
C1851 C 0.22857 0.42552 0.68559 0.0
H1852 H 0.22837 0.40165 0.73999 0.0
H1853 H 0.18463 0.4814 0.60396 0.0
H1854 H 0.43321 0.88937 0.98853 0.0
H1855 H 0.42559 0.88506 0.05209 0.0
H1856 H 0.46402 0.89215 0.08665 0.0
H1857 H 0.47179 0.89652 0.02335 0.0
H1858 H 0.42471 0.86871 0.1122 0.0
H1859 H 0.4734 0.91528 0.1558 0.0
H1860 H 0.49145 0.93548 0.1271 0.0
H1861 H 0.46448 0.93416 0.04464 0.0
H1862 H 0.44622 0.91432 0.07365 0.0
H1863 H 0.43084 0.87617 0.30697 0.0
H1864 H 0.43395 0.87397 0.2416 0.0
H1865 H 0.42806 0.90701 0.21816 0.0
H1866 H 0.42509 0.90938 0.28342 0.0
H1867 H 0.44982 0.90988 0.18558 0.0
H1868 H 0.40438 0.87577 0.19679 0.0
H1869 H 0.38541 0.8557 0.22291 0.0
H1870 H 0.40358 0.83275 0.1933 0.0
H1871 H 0.42276 0.85273 0.16744 0.0
C1872 C 0.43997 0.88975 0.00954 0.0
C1873 C 0.4532 0.89358 0.00103 0.0
C1874 C 0.43555 0.88717 0.04576 0.0
C1875 C 0.44431 0.88845 0.07389 0.0
C1876 C 0.45717 0.89121 0.06518 0.0
C1877 C 0.4616 0.89377 0.02902 0.0
C1878 C 0.44073 0.88896 0.11236 0.0
C1879 C 0.43019 0.87766 0.12843 0.0
C1880 C 0.44772 0.90078 0.13296 0.0
C1881 C 0.45849 0.91321 0.11663 0.0
C1882 C 0.47131 0.9194 0.13178 0.0
C1883 C 0.48157 0.9308 0.11549 0.0
C1884 C 0.47913 0.9361 0.08403 0.0
C1885 C 0.46638 0.93009 0.06904 0.0
C1886 C 0.45606 0.91878 0.08544 0.0
C1887 C 0.43012 0.88291 0.28785 0.0
C1888 C 0.4278 0.893 0.30027 0.0
C1889 C 0.43183 0.88159 0.25054 0.0
C1890 C 0.43115 0.89028 0.22513 0.0
C1891 C 0.42862 0.90021 0.23742 0.0
C1892 C 0.42693 0.90155 0.27467 0.0
C1893 C 0.43388 0.88955 0.18594 0.0
C1894 C 0.44431 0.90088 0.1696 0.0
C1895 C 0.4266 0.87782 0.16506 0.0
C1896 C 0.41507 0.86578 0.18048 0.0
C1897 C 0.40438 0.86647 0.19612 0.0
C1898 C 0.39358 0.8551 0.21082 0.0
C1899 C 0.3933 0.84296 0.20985 0.0
C1900 C 0.40381 0.84216 0.19407 0.0
C1901 C 0.41465 0.8535 0.17935 0.0
H1902 H 0.38493 0.83418 0.22124 0.0
H1903 H 0.48711 0.94487 0.07131 0.0
H1904 H 0.13196 0.55154 0.01162 0.0
H1905 H 0.13566 0.54834 0.07595 0.0
H1906 H 0.11862 0.57223 0.10902 0.0
H1907 H 0.11555 0.57599 0.04536 0.0
H1908 H 0.13556 0.57476 0.15748 0.0
H1909 H 0.09925 0.5373 0.09312 0.0
H1910 H 0.08995 0.52001 0.04526 0.0
H1911 H 0.11429 0.50433 0.08329 0.0
H1912 H 0.12382 0.52164 0.13115 0.0
H1913 H 0.08247 0.5229 0.28618 0.0
H1914 H 0.09237 0.52984 0.22535 0.0
H1915 H 0.13119 0.55256 0.27445 0.0
H1916 H 0.1212 0.54625 0.33531 0.0
H1917 H 0.10886 0.52677 0.18671 0.0
H1918 H 0.1506 0.57947 0.22218 0.0
H1919 H 0.15606 0.59693 0.26847 0.0
H1920 H 0.11458 0.58237 0.28652 0.0
H1921 H 0.10889 0.56494 0.24007 0.0
C1922 C 0.12937 0.55641 0.03265 0.0
C1923 C 0.12316 0.56374 0.02354 0.0
C1924 C 0.13148 0.55457 0.06935 0.0
C1925 C 0.12705 0.55972 0.09727 0.0
C1926 C 0.12206 0.56809 0.088 0.0
C1927 C 0.12021 0.57016 0.05146 0.0
C1928 C 0.12558 0.55493 0.13548 0.0
C1929 C 0.12993 0.56426 0.16398 0.0
C1930 C 0.11808 0.54123 0.14394 0.0
C1931 C 0.11236 0.53083 0.1153 0.0
C1932 C 0.10266 0.5302 0.0911 0.0
C1933 C 0.09735 0.52041 0.06401 0.0
C1934 C 0.10156 0.51111 0.06115 0.0
C1935 C 0.11106 0.51157 0.08546 0.0
C1936 C 0.11643 0.52136 0.11256 0.0
C1937 C 0.09311 0.52938 0.28387 0.0
C1938 C 0.10107 0.53422 0.31521 0.0
C1939 C 0.09878 0.53328 0.24919 0.0
C1940 C 0.11252 0.54186 0.24537 0.0
C1941 C 0.12055 0.54619 0.27674 0.0
C1942 C 0.11483 0.54258 0.31143 0.0
C1943 C 0.11822 0.54664 0.20851 0.0
C1944 C 0.11482 0.53727 0.18042 0.0
C1945 C 0.12605 0.56033 0.20027 0.0
C1946 C 0.12934 0.57081 0.22807 0.0
C1947 C 0.14266 0.58002 0.23602 0.0
C1948 C 0.14579 0.58991 0.26227 0.0
C1949 C 0.13567 0.59072 0.28054 0.0
C1950 C 0.1224 0.58169 0.27248 0.0
C1951 C 0.11922 0.5718 0.24622 0.0
H1952 H 0.13812 0.59838 0.30086 0.0
H1953 H 0.09744 0.50353 0.04017 0.0
H1954 H 0.43068 0.54877 0.00949 0.0
H1955 H 0.43439 0.55777 0.07151 0.0
H1956 H 0.47351 0.5888 0.04061 0.0
H1957 H 0.4699 0.57991 0.97843 0.0
H1958 H 0.47336 0.57256 0.09568 0.0
H1959 H 0.4519 0.59738 0.0697 0.0
H1960 H 0.43419 0.60118 0.04651 0.0
H1961 H 0.40668 0.57265 0.12301 0.0
H1962 H 0.42417 0.56852 0.14632 0.0
H1963 H 0.4881 0.58953 0.28063 0.0
H1964 H 0.48491 0.59235 0.21572 0.0
H1965 H 0.44302 0.56443 0.22652 0.0
H1966 H 0.44608 0.56208 0.29187 0.0
H1967 H 0.4465 0.58313 0.17992 0.0
H1968 H 0.46537 0.55487 0.19652 0.0
H1969 H 0.48177 0.54898 0.21881 0.0
H1970 H 0.5125 0.58152 0.15842 0.0
H1971 H 0.4963 0.58771 0.13613 0.0
C1972 C 0.43993 0.55773 0.01556 0.0
C1973 C 0.45009 0.56348 0.98923 0.0
C1974 C 0.442 0.56292 0.05097 0.0
C1975 C 0.45424 0.57392 0.06059 0.0
C1976 C 0.46399 0.58031 0.03362 0.0
C1977 C 0.46191 0.57519 -0.00189 0.0
C1978 C 0.45762 0.57714 0.09968 0.0
C1979 C 0.46773 0.57524 0.11397 0.0
C1980 C 0.44992 0.58013 0.12355 0.0
C1981 C 0.43935 0.58258 0.10961 0.0
C1982 C 0.44205 0.59183 0.08139 0.0
C1983 C 0.43205 0.59406 0.06826 0.0
C1984 C 0.41931 0.58715 0.08324 0.0
C1985 C 0.41655 0.578 0.11143 0.0
C1986 C 0.42652 0.57572 0.12465 0.0
C1987 C 0.4782 0.5841 0.26918 0.0
C1988 C 0.46736 0.57543 0.29101 0.0
C1989 C 0.47639 0.58572 0.23215 0.0
C1990 C 0.46377 0.57838 0.21611 0.0
C1991 C 0.45284 0.57018 0.2383 0.0
C1992 C 0.45461 0.56877 0.27554 0.0
C1993 C 0.46213 0.57839 0.17585 0.0
C1994 C 0.45233 0.58078 0.16144 0.0
C1995 C 0.46991 0.57555 0.15172 0.0
C1996 C 0.47966 0.57184 0.16504 0.0
C1997 C 0.47565 0.56082 0.18822 0.0
C1998 C 0.4849 0.55742 0.20082 0.0
C1999 C 0.49818 0.5649 0.19013 0.0
C2000 C 0.50222 0.57576 0.16674 0.0
C2001 C 0.49301 0.57922 0.15411 0.0
H2002 H 0.50533 0.56225 0.1999 0.0
H2003 H 0.41158 0.58889 0.07303 0.0
H2004 H 0.13203 0.57858 0.82551 0.0
H2005 H 0.13851 0.58044 0.76098 0.0
H2006 H 0.09912 0.57131 0.7288 0.0
H2007 H 0.09279 0.56993 0.79289 0.0
H2008 H 0.13038 0.56322 0.70942 0.0
H2009 H 0.09832 0.58572 0.65385 0.0
H2010 H 0.09268 0.60256 0.67353 0.0
H2011 H 0.12755 0.62111 0.74101 0.0
H2012 H 0.13355 0.60453 0.72128 0.0
H2013 H 0.09928 0.53581 0.54686 0.0
H2014 H 0.10801 0.54498 0.60703 0.0
H2015 H 0.12787 0.58455 0.56143 0.0
H2016 H 0.11851 0.57539 0.50123 0.0
H2017 H 0.11626 0.58518 0.61783 0.0
H2018 H 0.14574 0.56969 0.59825 0.0
H2019 H 0.15392 0.55476 0.57903 0.0
H2020 H 0.12963 0.52641 0.66074 0.0
H2021 H 0.12114 0.54105 0.68012 0.0
C2022 C 0.12481 0.57706 0.80458 0.0
C2023 C 0.11192 0.57413 0.81408 0.0
C2024 C 0.12853 0.57815 0.76781 0.0
C2025 C 0.11939 0.57628 0.74013 0.0
C2026 C 0.10648 0.5732 0.74971 0.0
C2027 C 0.10282 0.57228 0.78634 0.0
C2028 C 0.12284 0.57656 0.70105 0.0
C2029 C 0.1275 0.56816 0.68929 0.0
C2030 C 0.11977 0.58359 0.67492 0.0
C2031 C 0.11637 0.59383 0.68607 0.0
C2032 C 0.10487 0.59346 0.67258 0.0
C2033 C 0.10159 0.60295 0.68384 0.0
C2034 C 0.10974 0.61289 0.70854 0.0
C2035 C 0.12123 0.61339 0.72194 0.0
C2036 C 0.12457 0.60394 0.71073 0.0
C2037 C 0.10566 0.54645 0.54955 0.0
C2038 C 0.10814 0.5549 0.51952 0.0
C2039 C 0.11078 0.5517 0.58392 0.0
C2040 C 0.11883 0.56547 0.58873 0.0
C2041 C 0.12172 0.5739 0.55839 0.0
C2042 C 0.11635 0.56866 0.52408 0.0
C2043 C 0.12276 0.57096 0.6262 0.0
C2044 C 0.11957 0.58054 0.63773 0.0
C2045 C 0.1277 0.5654 0.65198 0.0
C2046 C 0.13279 0.5565 0.64063 0.0
C2047 C 0.14208 0.56024 0.61202 0.0
C2048 C 0.14678 0.55182 0.6011 0.0
C2049 C 0.1423 0.53964 0.61865 0.0
C2050 C 0.13311 0.53586 0.64721 0.0
C2051 C 0.12838 0.54423 0.65823 0.0
H2052 H 0.14594 0.53314 0.61014 0.0
H2053 H 0.10717 0.6202 0.71727 0.0
H2054 H 0.42324 0.50897 0.78103 0.0
H2055 H 0.41981 0.51067 0.71558 0.0
H2056 H 0.44079 0.5534 0.72426 0.0
H2057 H 0.44378 0.55173 0.7899 0.0
H2058 H 0.41997 0.54578 0.68311 0.0
H2059 H 0.45515 0.53541 0.68983 0.0
H2060 H 0.46579 0.5224 0.70675 0.0
H2061 H 0.43595 0.48887 0.6473 0.0
H2062 H 0.42501 0.50162 0.6305 0.0
H2063 H 0.44972 0.56793 0.50897 0.0
H2064 H 0.44244 0.56208 0.57236 0.0
H2065 H 0.41603 0.52153 0.53996 0.0
H2066 H 0.42317 0.52734 0.47622 0.0
H2067 H 0.43512 0.52477 0.59151 0.0
H2068 H 0.40265 0.53783 0.57617 0.0
H2069 H 0.39394 0.55235 0.55722 0.0
H2070 H 0.4209 0.58265 0.63086 0.0
H2071 H 0.42992 0.5684 0.64988 0.0
C2072 C 0.42716 0.51872 0.7689 0.0
C2073 C 0.43385 0.53022 0.79042 0.0
C2074 C 0.42519 0.51968 0.73153 0.0
C2075 C 0.43015 0.53217 0.71495 0.0
C2076 C 0.43682 0.54366 0.7365 0.0
C2077 C 0.4386 0.5427 0.77393 0.0
C2078 C 0.42864 0.53337 0.67506 0.0
C2079 C 0.42335 0.54125 0.66306 0.0
C2080 C 0.43268 0.52713 0.64889 0.0
C2081 C 0.43915 0.5194 0.65939 0.0
C2082 C 0.45078 0.52521 0.68071 0.0
C2083 C 0.45688 0.51789 0.69021 0.0
C2084 C 0.45152 0.5048 0.67824 0.0
C2085 C 0.44006 0.499 0.65666 0.0
C2086 C 0.43391 0.50626 0.64716 0.0
C2087 C 0.44209 0.55785 0.51516 0.0
C2088 C 0.43712 0.54805 0.48778 0.0
C2089 C 0.43788 0.55454 0.55134 0.0
C2090 C 0.42872 0.54138 0.56072 0.0
C2091 C 0.42308 0.53175 0.5331 0.0
C2092 C 0.42715 0.5351 0.49676 0.0
C2093 C 0.42678 0.53744 0.59968 0.0
C2094 C 0.43146 0.52906 0.61154 0.0
C2095 C 0.42243 0.54343 0.62563 0.0
C2096 C 0.41702 0.55205 0.61431 0.0
C2097 C 0.4068 0.54762 0.58813 0.0
C2098 C 0.40179 0.5558 0.57741 0.0
C2099 C 0.40688 0.56842 0.59279 0.0
C2100 C 0.41697 0.57288 0.61897 0.0
C2101 C 0.42202 0.56474 0.62978 0.0
H2102 H 0.40298 0.57474 0.58445 0.0
H2103 H 0.45627 0.49915 0.68558 0.0
H2104 H 0.45962 0.87716 0.81716 0.0
H2105 H 0.45169 0.86764 0.75642 0.0
H2106 H 0.47895 0.9054 0.70713 0.0
H2107 H 0.48736 0.91471 0.76772 0.0
H2108 H 0.43906 0.87228 0.70915 0.0
H2109 H 0.4879 0.90308 0.62394 0.0
H2110 H 0.51182 0.91119 0.63095 0.0
H2111 H 0.50341 0.88096 0.7111 0.0
H2112 H 0.47943 0.87254 0.70422 0.0
H2113 H 0.42786 0.88835 0.53574 0.0
H2114 H 0.4329 0.88483 0.59784 0.0
H2115 H 0.4531 0.86493 0.55618 0.0
H2116 H 0.44869 0.86915 0.49348 0.0
H2117 H 0.46821 0.88173 0.60098 0.0
H2118 H 0.42367 0.84854 0.61127 0.0
H2119 H 0.39934 0.83737 0.60498 0.0
H2120 H 0.39833 0.86638 0.67545 0.0
H2121 H 0.42267 0.87785 0.68177 0.0
C2122 C 0.46402 0.88336 0.79327 0.0
C2123 C 0.4741 0.89667 0.79702 0.0
C2124 C 0.45948 0.87792 0.7586 0.0
C2125 C 0.46481 0.88573 0.72709 0.0
C2126 C 0.47492 0.89904 0.7309 0.0
C2127 C 0.47966 0.9044 0.76554 0.0
C2128 C 0.4592 0.88034 0.6904 0.0
C2129 C 0.44541 0.8742 0.68552 0.0
C2130 C 0.46741 0.88227 0.65974 0.0
C2131 C 0.48185 0.88721 0.66367 0.0
C2132 C 0.49114 0.8981 0.64288 0.0
C2133 C 0.50471 0.90277 0.64688 0.0
C2134 C 0.50913 0.89661 0.6715 0.0
C2135 C 0.49998 0.88575 0.69212 0.0
C2136 C 0.48639 0.88103 0.68821 0.0
C2137 C 0.4331 0.88294 0.53974 0.0
C2138 C 0.43798 0.87912 0.50975 0.0
C2139 C 0.4359 0.88082 0.57541 0.0
C2140 C 0.44329 0.87448 0.5819 0.0
C2141 C 0.44742 0.86988 0.55192 0.0
C2142 C 0.44487 0.87226 0.51612 0.0
C2143 C 0.44811 0.87435 0.61948 0.0
C2144 C 0.46178 0.87946 0.62461 0.0
C2145 C 0.43972 0.87095 0.65047 0.0
C2146 C 0.42503 0.86409 0.64691 0.0
C2147 C 0.41828 0.85259 0.62527 0.0
C2148 C 0.40448 0.84619 0.62172 0.0
C2149 C 0.3973 0.85116 0.63979 0.0
C2150 C 0.40391 0.86253 0.6615 0.0
C2151 C 0.4177 0.86897 0.66514 0.0
H2152 H 0.38662 0.8462 0.63699 0.0
H2153 H 0.51965 0.90025 0.67457 0.0
H2154 H 0.19687 0.43566 0.29195 0.0
H2155 H 0.20503 0.43851 0.22939 0.0
H2156 H 0.24464 0.45206 0.26963 0.0
H2157 H 0.23643 0.44876 0.33264 0.0
H2158 H 0.22194 0.45624 0.18478 0.0
H2159 H 0.2585 0.43755 0.21761 0.0
H2160 H 0.26213 0.42472 0.26554 0.0
H2161 H 0.2207 0.40479 0.29281 0.0
H2162 H 0.21676 0.41718 0.24434 0.0
H2163 H 0.24777 0.45287 0.0133 0.0
H2164 H 0.24699 0.45817 0.07776 0.0
H2165 H 0.22718 0.4164 0.10435 0.0
H2166 H 0.22879 0.4112 0.04034 0.0
H2167 H 0.24243 0.42875 0.15664 0.0
H2168 H 0.21034 0.43468 0.08894 0.0
H2169 H 0.20252 0.44391 0.04049 0.0
H2170 H 0.22788 0.48325 0.08194 0.0
H2171 H 0.23598 0.47425 0.13038 0.0
C2172 C 0.20737 0.4395 0.28761 0.0
C2173 C 0.21596 0.4417 0.3172 0.0
C2174 C 0.21204 0.44119 0.25175 0.0
C2175 C 0.22538 0.44522 0.2449 0.0
C2176 C 0.23424 0.44867 0.27441 0.0
C2177 C 0.22954 0.44679 0.31035 0.0
C2178 C 0.22951 0.44422 0.20726 0.0
C2179 C 0.22656 0.45037 0.17861 0.0
C2180 C 0.2352 0.43624 0.19918 0.0
C2181 C 0.23739 0.42846 0.22774 0.0
C2182 C 0.25016 0.43038 0.23371 0.0
C2183 C 0.25226 0.42315 0.26091 0.0
C2184 C 0.24165 0.41397 0.28225 0.0
C2185 C 0.22891 0.41191 0.27627 0.0
C2186 C 0.22673 0.41901 0.24889 0.0
C2187 C 0.2434 0.44486 0.03311 0.0
C2188 C 0.23823 0.43163 0.02207 0.0
C2189 C 0.2429 0.44789 0.06983 0.0
C2190 C 0.23674 0.43767 0.09579 0.0
C2191 C 0.23197 0.42446 0.08485 0.0
C2192 C 0.23285 0.42148 0.04831 0.0
C2193 C 0.23466 0.44059 0.13394 0.0
C2194 C 0.23805 0.43485 0.16275 0.0
C2195 C 0.22875 0.44839 0.142 0.0
C2196 C 0.22388 0.45382 0.11298 0.0
C2197 C 0.21431 0.44531 0.08755 0.0
C2198 C 0.20982 0.4505 0.06012 0.0
C2199 C 0.21473 0.46416 0.05807 0.0
C2200 C 0.22411 0.47267 0.08351 0.0
C2201 C 0.22865 0.46753 0.11097 0.0
H2202 H 0.21124 0.46816 0.03681 0.0
H2203 H 0.2433 0.40842 0.30337 0.0
H2204 H 0.55267 0.76922 0.97089 0.0
H2205 H 0.54735 0.7594 0.03219 0.0
H2206 H 0.57972 0.79538 0.07709 0.0
H2207 H 0.5853 0.80512 0.01592 0.0
H2208 H 0.57791 0.77446 0.11098 0.0
H2209 H 0.54781 0.78994 0.07496 0.0
H2210 H 0.53101 0.79064 0.03528 0.0
H2211 H 0.50464 0.749 0.05309 0.0
H2212 H 0.52138 0.74803 0.09254 0.0
H2213 H 0.54568 0.78219 0.2783 0.0
H2214 H 0.54543 0.78053 0.21177 0.0
H2215 H 0.55318 0.74803 0.21967 0.0
H2216 H 0.55364 0.74973 0.28644 0.0
H2217 H 0.53323 0.76271 0.15717 0.0
H2218 H 0.57822 0.75496 0.15679 0.0
H2219 H 0.59598 0.7573 0.1985 0.0
H2220 H 0.59408 0.78836 0.25673 0.0
H2221 H 0.57659 0.78645 0.21477 0.0
C2222 C 0.55876 0.77496 -0.0062 0.0
C2223 C 0.5693 0.78799 0.98879 0.0
C2224 C 0.5557 0.76934 0.02874 0.0
C2225 C 0.56301 0.77675 0.05917 0.0
C2226 C 0.57395 0.7895 0.05392 0.0
C2227 C 0.5771 0.79507 0.019 0.0
C2228 C 0.55875 0.77178 0.09683 0.0
C2229 C 0.56808 0.77169 0.12095 0.0
C2230 C 0.54595 0.76829 0.10986 0.0
C2231 C 0.53589 0.76888 0.08628 0.0
C2232 C 0.53846 0.78092 0.07018 0.0
C2233 C 0.52895 0.78137 0.04778 0.0
C2234 C 0.51678 0.76986 0.04157 0.0
C2235 C 0.51408 0.75789 0.05785 0.0
C2236 C 0.52358 0.75739 0.08023 0.0
C2237 C 0.54703 0.77448 0.266 0.0
C2238 C 0.55 0.76631 0.28759 0.0
C2239 C 0.5468 0.77349 0.22794 0.0
C2240 C 0.54953 0.76432 0.21094 0.0
C2241 C 0.55123 0.75529 0.23242 0.0
C2242 C 0.5515 0.7563 0.27054 0.0
C2243 C 0.55247 0.76562 0.17134 0.0
C2244 C 0.54291 0.76504 0.14689 0.0
C2245 C 0.56519 0.76889 0.1582 0.0
C2246 C 0.57597 0.77041 0.18299 0.0
C2247 C 0.58165 0.76233 0.17839 0.0
C2248 C 0.59168 0.7636 0.20202 0.0
C2249 C 0.59614 0.77296 0.23028 0.0
C2250 C 0.59063 0.78112 0.23481 0.0
C2251 C 0.58067 0.77996 0.2111 0.0
H2252 H 0.60387 0.77389 0.24863 0.0
H2253 H 0.50943 0.77023 0.02423 0.0
H2254 H 0.23695 0.76767 0.29933 0.0
H2255 H 0.2359 0.7624 0.23415 0.0
H2256 H 0.19319 0.73958 0.24046 0.0
H2257 H 0.19423 0.74428 0.30592 0.0
H2258 H 0.20212 0.73099 0.18424 0.0
H2259 H 0.20867 0.7731 0.23014 0.0
H2260 H 0.22054 0.79374 0.26619 0.0
H2261 H 0.25591 0.80539 0.20346 0.0
H2262 H 0.24427 0.7847 0.1674 0.0
H2263 H 0.1769 0.75072 0.03515 0.0
H2264 H 0.1836 0.74546 0.09343 0.0
H2265 H 0.22459 0.76711 0.05954 0.0
H2266 H 0.21797 0.7724 0.00112 0.0
H2267 H 0.22015 0.7752 0.12554 0.0
H2268 H 0.21039 0.73432 0.0696 0.0
H2269 H 0.1974 0.71348 0.03523 0.0
H2270 H 0.16653 0.69961 0.11609 0.0
H2271 H 0.17928 0.72042 0.15087 0.0
C2272 C 0.22739 0.76105 0.28709 0.0
C2273 C 0.21565 0.75663 0.30727 0.0
C2274 C 0.2268 0.75805 0.24991 0.0
C2275 C 0.21445 0.751 0.23233 0.0
C2276 C 0.20282 0.74514 0.25346 0.0
C2277 C 0.20342 0.74787 0.29088 0.0
C2278 C 0.21344 0.75214 0.19224 0.0
C2279 C 0.20609 0.74063 0.17125 0.0
C2280 C 0.21874 0.76475 0.17533 0.0
C2281 C 0.22566 0.77731 0.1964 0.0
C2282 C 0.219 0.78005 0.22416 0.0
C2283 C 0.22568 0.79175 0.24459 0.0
C2284 C 0.23898 0.80085 0.23719 0.0
C2285 C 0.24561 0.79831 0.20922 0.0
C2286 C 0.23898 0.78661 0.18878 0.0
C2287 C 0.18734 0.75431 0.04006 0.0
C2288 C 0.19694 0.7621 0.01384 0.0
C2289 C 0.19113 0.75115 0.07312 0.0
C2290 C 0.20457 0.75578 0.08052 0.0
C2291 C 0.21416 0.76337 0.05414 0.0
C2292 C 0.21036 0.76643 0.02093 0.0
C2293 C 0.20867 0.75405 0.11744 0.0
C2294 C 0.21652 0.76552 0.13803 0.0
C2295 C 0.20362 0.74142 0.13391 0.0
C2296 C 0.19578 0.72897 0.11278 0.0
C2297 C 0.20079 0.72688 0.07993 0.0
C2298 C 0.19348 0.71504 0.06043 0.0
C2299 C 0.18116 0.70521 0.07352 0.0
C2300 C 0.17609 0.70722 0.10606 0.0
C2301 C 0.18337 0.71902 0.12572 0.0
H2302 H 0.17553 0.69605 0.05841 0.0
H2303 H 0.24415 0.8099 0.25307 0.0
H2304 H 0.18736 0.24623 0.22024 0.0
H2305 H 0.20219 0.23727 0.21164 0.0
H2306 H 0.18137 0.20832 0.29647 0.0
H2307 H 0.16607 0.2168 0.30375 0.0
H2308 H 0.21896 0.23218 0.24489 0.0
H2309 H 0.17564 0.17865 0.27095 0.0
H2310 H 0.15117 0.16618 0.26824 0.0
H2311 H 0.15177 0.19369 0.18874 0.0
H2312 H 0.17623 0.2062 0.1906 0.0
H2313 H 0.24206 0.18609 0.2537 0.0
H2314 H 0.23373 0.20151 0.26011 0.0
H2315 H 0.20726 0.18273 0.16864 0.0
H2316 H 0.21493 0.1667 0.16409 0.0
H2317 H 0.19381 0.18388 0.21879 0.0
H2318 H 0.235 0.21647 0.16858 0.0
H2319 H 0.25929 0.22972 0.16126 0.0
H2320 H 0.26301 0.24524 0.27006 0.0
H2321 H 0.23875 0.23195 0.27823 0.0
C2322 C 0.18615 0.23816 0.23765 0.0
C2323 C 0.17543 0.23202 0.26217 0.0
C2324 C 0.19465 0.23306 0.23275 0.0
C2325 C 0.19264 0.22189 0.25267 0.0
C2326 C 0.18285 0.21672 0.28007 0.0
C2327 C 0.17415 0.22159 0.28434 0.0
C2328 C 0.19962 0.2147 0.24182 0.0
C2329 C 0.21351 0.22161 0.23923 0.0
C2330 C 0.19246 0.20103 0.23297 0.0
C2331 C 0.17775 0.19343 0.23122 0.0
C2332 C 0.17054 0.182 0.25279 0.0
C2333 C 0.15668 0.17493 0.25141 0.0
C2334 C 0.14992 0.17917 0.22842 0.0
C2335 C 0.15701 0.19045 0.20662 0.0
C2336 C 0.17087 0.19753 0.20783 0.0
C2337 C 0.23468 0.18548 0.23448 0.0
C2338 C 0.22905 0.17521 0.20856 0.0
C2339 C 0.22996 0.19435 0.238 0.0
C2340 C 0.21986 0.19336 0.21481 0.0
C2341 C 0.21496 0.18364 0.18713 0.0
C2342 C 0.21937 0.17453 0.18439 0.0
C2343 C 0.21329 0.20127 0.22211 0.0
C2344 C 0.19939 0.19446 0.2242 0.0
C2345 C 0.22045 0.21512 0.22887 0.0
C2346 C 0.23506 0.22312 0.22412 0.0
C2347 C 0.241 0.22263 0.19105 0.0
C2348 C 0.25477 0.23016 0.18674 0.0
C2349 C 0.26269 0.23829 0.21521 0.0
C2350 C 0.25686 0.23893 0.24804 0.0
C2351 C 0.2431 0.23141 0.25251 0.0
H2352 H 0.27334 0.24411 0.21181 0.0
H2353 H 0.13919 0.1737 0.22744 0.0
H2354 H 0.78839 0.95098 0.28112 0.0
H2355 H 0.79844 0.97493 0.2765 0.0
H2356 H 0.7605 0.97059 0.2478 0.0
H2357 H 0.75033 0.94637 0.25169 0.0
H2358 H 0.77908 0.98674 0.20104 0.0
H2359 H 0.77514 0.98463 0.32989 0.0
H2360 H 0.77634 0.97773 0.39298 0.0
H2361 H 0.81865 0.99581 0.38383 0.0
H2362 H 0.8177 0.00267 0.32048 0.0
H2363 H 0.81622 0.05954 0.20826 0.0
H2364 H 0.79933 0.03618 0.21772 0.0
H2365 H 0.83015 0.02638 0.23337 0.0
H2366 H 0.84701 0.04952 0.2236 0.0
H2367 H 0.81101 0.01842 0.29154 0.0
H2368 H 0.81345 0.01713 0.15835 0.0
H2369 H 0.81167 0.02413 0.09581 0.0
H2370 H 0.77098 0.01278 0.11559 0.0
H2371 H 0.77259 0.00589 0.17847 0.0
C2372 C 0.7821 0.95509 0.27444 0.0
C2373 C 0.76857 0.94678 0.26668 0.0
C2374 C 0.78786 0.96882 0.272 0.0
C2375 C 0.78021 0.97457 0.26215 0.0
C2376 C 0.76658 0.96634 0.25556 0.0
C2377 C 0.76078 0.95253 0.25797 0.0
C2378 C 0.78685 0.9891 0.25593 0.0
C2379 C 0.78581 0.99371 0.22119 0.0
C2380 C 0.79567 0.9982 0.28212 0.0
C2381 C 0.79633 0.99412 0.3203 0.0
C2382 C 0.78469 0.98707 0.34122 0.0
C2383 C 0.78533 0.98317 0.37706 0.0
C2384 C 0.79756 0.98632 0.39239 0.0
C2385 C 0.80918 0.99339 0.37192 0.0
C2386 C 0.8086 0.9973 0.33606 0.0
C2387 C 0.81938 0.05235 0.21301 0.0
C2388 C 0.83295 0.05637 0.21539 0.0
C2389 C 0.80973 0.03904 0.21847 0.0
C2390 C 0.81354 0.02964 0.22657 0.0
C2391 C 0.82704 0.03354 0.2274 0.0
C2392 C 0.83666 0.04676 0.22162 0.0
C2393 C 0.80362 0.01585 0.23632 0.0
C2394 C 0.80404 0.01144 0.2718 0.0
C2395 C 0.79414 0.00701 0.21101 0.0
C2396 C 0.7932 0.01117 0.17325 0.0
C2397 C 0.80417 0.01626 0.14949 0.0
C2398 C 0.80318 0.02018 0.11396 0.0
C2399 C 0.79123 0.01895 0.10178 0.0
C2400 C 0.78024 0.01376 0.12508 0.0
C2401 C 0.78118 0.00984 0.16066 0.0
H2402 H 0.79048 0.02198 0.07425 0.0
H2403 H 0.79803 0.98329 0.42014 0.0
H2404 H 0.94869 0.80345 0.21964 0.0
H2405 H 0.97206 0.80991 0.21922 0.0
H2406 H 0.96151 0.76874 0.213 0.0
H2407 H 0.93795 0.76215 0.21414 0.0
H2408 H 0.97972 0.78123 0.26462 0.0
H2409 H 0.97568 0.78919 0.13949 0.0
H2410 H 0.96914 0.7974 0.08566 0.0
H2411 H 0.99379 0.83754 0.1223 0.0
H2412 H 0.00034 0.82958 0.17666 0.0
H2413 H 0.05081 0.80662 0.23948 0.0
H2414 H 0.0266 0.7944 0.23214 0.0
H2415 H 0.02562 0.83043 0.25177 0.0
H2416 H 0.04963 0.84264 0.25944 0.0
H2417 H 0.01319 0.81708 0.18573 0.0
H2418 H 0.01457 0.80785 0.31524 0.0
H2419 H 0.02099 0.79901 0.36794 0.0
H2420 H 0.00133 0.76017 0.31956 0.0
H2421 H 0.99494 0.76883 0.26629 0.0
C2422 C 0.95131 0.79576 0.21766 0.0
C2423 C 0.94147 0.78229 0.21695 0.0
C2424 C 0.96469 0.79947 0.21725 0.0
C2425 C 0.96854 0.78981 0.2157 0.0
C2426 C 0.95875 0.77635 0.21413 0.0
C2427 C 0.94531 0.77261 0.21462 0.0
C2428 C 0.98279 0.7939 0.21811 0.0
C2429 C 0.98702 0.78885 0.24682 0.0
C2430 C 0.99233 0.80389 0.19502 0.0
C2431 C 0.98845 0.80877 0.16231 0.0
C2432 C 0.97964 0.79977 0.13623 0.0
C2433 C 0.97594 0.80438 0.10559 0.0
C2434 C 0.98103 0.81798 0.10059 0.0
C2435 C 0.98986 0.82701 0.12621 0.0
C2436 C 0.99358 0.82245 0.15692 0.0
C2437 C 0.0454 0.81187 0.2429 0.0
C2438 C 0.05213 0.8256 0.24983 0.0
C2439 C 0.03159 0.80488 0.23865 0.0
C2440 C 0.02439 0.81157 0.24113 0.0
C2441 C 0.03104 0.82514 0.24951 0.0
C2442 C 0.04476 0.83208 0.25405 0.0
C2443 C 0.01004 0.80476 0.23298 0.0
C2444 C 0.00583 0.80928 0.20304 0.0
C2445 C 0.00056 0.7942 0.25462 0.0
C2446 C 0.00444 0.78902 0.28657 0.0
C2447 C 0.01174 0.79746 0.31566 0.0
C2448 C 0.01534 0.79247 0.34567 0.0
C2449 C 0.01161 0.77905 0.34704 0.0
C2450 C 0.00424 0.77057 0.31843 0.0
C2451 C 0.00062 0.77551 0.28833 0.0
H2452 H 0.0144 0.77521 0.37031 0.0
H2453 H 0.97816 0.82154 0.07685 0.0
H2454 H 0.82766 0.77236 0.70018 0.0
H2455 H 0.81282 0.78147 0.70488 0.0
H2456 H 0.78638 0.74864 0.77368 0.0
H2457 H 0.80112 0.73934 0.76873 0.0
H2458 H 0.78562 0.77257 0.69218 0.0
H2459 H 0.78022 0.76429 0.84801 0.0
H2460 H 0.79151 0.75999 0.89903 0.0
H2461 H 0.82855 0.78056 0.84126 0.0
H2462 H 0.81757 0.7853 0.79052 0.0
H2463 H 0.74867 0.80234 0.75138 0.0
H2464 H 0.75491 0.78513 0.7499 0.0
H2465 H 0.79406 0.81343 0.78878 0.0
H2466 H 0.78791 0.83061 0.79056 0.0
H2467 H 0.7854 0.7888 0.81789 0.0
H2468 H 0.78854 0.80889 0.6991 0.0
H2469 H 0.77969 0.81526 0.6463 0.0
H2470 H 0.75095 0.77431 0.62708 0.0
H2471 H 0.75952 0.76772 0.68015 0.0
C2472 C 0.81852 0.76691 0.71556 0.0
C2473 C 0.81559 0.75523 0.7344 0.0
C2474 C 0.81003 0.77209 0.71806 0.0
C2475 C 0.79861 0.76577 0.73989 0.0
C2476 C 0.7952 0.75365 0.7568 0.0
C2477 C 0.80361 0.74836 0.7539 0.0
C2478 C 0.79131 0.77279 0.74843 0.0
C2479 C 0.78534 0.77592 0.71974 0.0
C2480 C 0.79123 0.77737 0.7843 0.0
C2481 C 0.79802 0.77495 0.81525 0.0
C2482 C 0.79078 0.76795 0.84633 0.0
C2483 C 0.79714 0.76546 0.87523 0.0
C2484 C 0.81073 0.76997 0.87337 0.0
C2485 C 0.81802 0.77706 0.8427 0.0
C2486 C 0.81174 0.77965 0.81388 0.0
C2487 C 0.75851 0.80481 0.76041 0.0
C2488 C 0.76787 0.81786 0.77065 0.0
C2489 C 0.76206 0.79498 0.75947 0.0
C2490 C 0.77499 0.79808 0.76876 0.0
C2491 C 0.78403 0.81085 0.78148 0.0
C2492 C 0.78051 0.82067 0.78232 0.0
C2493 C 0.77966 0.78857 0.76163 0.0
C2494 C 0.78524 0.78506 0.79055 0.0
C2495 C 0.77965 0.78389 0.72581 0.0
C2496 C 0.77455 0.78783 0.69382 0.0
C2497 C 0.78027 0.80126 0.68378 0.0
C2498 C 0.77531 0.80491 0.65379 0.0
C2499 C 0.76474 0.7952 0.63342 0.0
C2500 C 0.75912 0.78182 0.64294 0.0
C2501 C 0.76402 0.77812 0.67296 0.0
H2502 H 0.76092 0.79804 0.6102 0.0
H2503 H 0.81563 0.76799 0.8957 0.0
H2504 H 0.25239 0.06191 0.76003 0.0
H2505 H 0.24593 0.03843 0.76383 0.0
H2506 H 0.21114 0.02815 0.69881 0.0
H2507 H 0.21752 0.05152 0.69481 0.0
H2508 H 0.2236 0.02021 0.79734 0.0
H2509 H 0.20186 0.00014 0.65195 0.0
H2510 H 0.20736 0.00708 0.58749 0.0
H2511 H 0.2484 0.03174 0.61625 0.0
H2512 H 0.24319 0.02481 0.6808 0.0
H2513 H 0.16511 0.95855 0.78803 0.0
H2514 H 0.18352 0.98138 0.78469 0.0
H2515 H 0.20858 0.96759 0.73858 0.0
H2516 H 0.1902 0.94465 0.74221 0.0
H2517 H 0.20768 0.98708 0.69682 0.0
H2518 H 0.21669 0.98098 0.81944 0.0
H2519 H 0.21174 0.97403 0.88404 0.0
H2520 H 0.19791 0.00159 0.90092 0.0
H2521 H 0.20257 0.00858 0.83627 0.0
C2522 C 0.24354 0.05467 0.74579 0.0
C2523 C 0.23539 0.05853 0.72735 0.0
C2524 C 0.23986 0.04127 0.74808 0.0
C2525 C 0.22809 0.03157 0.73153 0.0
C2526 C 0.22036 0.03549 0.71136 0.0
C2527 C 0.22398 0.04885 0.70926 0.0
C2528 C 0.22293 0.01731 0.73888 0.0
C2529 C 0.22029 0.01295 0.7754 0.0
C2530 C 0.21888 0.00789 0.71024 0.0
C2531 C 0.22211 0.01198 0.67132 0.0
C2532 C 0.21208 0.00697 0.64452 0.0
C2533 C 0.21514 0.01092 0.60795 0.0
C2534 C 0.22822 0.01986 0.59779 0.0
C2535 C 0.23826 0.02484 0.62417 0.0
C2536 C 0.23526 0.02092 0.66077 0.0
C2537 C 0.17461 0.96035 0.77784 0.0
C2538 C 0.17621 0.94984 0.76524 0.0
C2539 C 0.18513 0.97338 0.77608 0.0
C2540 C 0.1974 0.97613 0.76149 0.0
C2541 C 0.19918 0.96563 0.75003 0.0
C2542 C 0.1887 0.95255 0.75223 0.0
C2543 C 0.2078 0.99006 0.75509 0.0
C2544 C 0.21134 0.99434 0.71877 0.0
C2545 C 0.21277 -0.00059 0.78391 0.0
C2546 C 0.20994 0.99527 0.8229 0.0
C2547 C 0.2125 0.9855 0.83684 0.0
C2548 C 0.20976 0.98156 0.8735 0.0
C2549 C 0.2045 0.98735 0.89656 0.0
C2550 C 0.20199 0.99711 0.88302 0.0
C2551 C 0.2047 0.00108 0.84638 0.0
H2552 H 0.20239 0.98429 0.92493 0.0
H2553 H 0.23056 0.02291 0.56947 0.0
H2554 H 0.93774 0.18988 0.73506 0.0
H2555 H 0.96183 0.20437 0.74204 0.0
H2556 H 0.96706 0.17029 0.73507 0.0
H2557 H 0.94321 0.15584 0.72745 0.0
H2558 H 0.97812 0.18727 0.79991 0.0
H2559 H 0.97641 0.18903 0.66675 0.0
H2560 H 0.969 0.19387 0.6084 0.0
H2561 H 0.9853 0.2346 0.64041 0.0
H2562 H 0.99265 0.22995 0.69923 0.0
H2563 H 0.04409 0.20445 0.77571 0.0
H2564 H 0.02037 0.1963 0.77461 0.0
H2565 H 0.02784 0.2362 0.75823 0.0
H2566 H 0.05178 0.24444 0.75837 0.0
H2567 H 0.00993 0.22004 0.71118 0.0
H2568 H 0.01476 0.21955 0.83967 0.0
H2569 H 0.02205 0.21529 0.89903 0.0
H2570 H -0.00037 0.17333 0.87922 0.0
H2571 H 0.99237 0.17732 0.81944 0.0
C2572 C 0.94407 0.18552 0.73433 0.0
C2573 C 0.93858 0.17171 0.73085 0.0
C2574 C 0.95779 0.1938 0.73837 0.0
C2575 C 0.96613 0.18834 0.73935 0.0
C2576 C 0.96073 0.17465 0.73456 0.0
C2577 C 0.9471 0.16642 0.73004 0.0
C2578 C 0.98042 0.19664 0.74749 0.0
C2579 C 0.98513 0.19441 0.78054 0.0
C2580 C 0.98938 0.20634 0.72284 0.0
C2581 C 0.98491 0.2091 0.68758 0.0
C2582 C 0.97828 0.19899 0.66152 0.0
C2583 C 0.97412 0.2017 0.62832 0.0
C2584 C 0.97663 0.21453 0.62076 0.0
C2585 C 0.98333 0.22467 0.64635 0.0
C2586 C 0.9875 0.222 0.67961 0.0
C2587 C 0.04073 0.21155 0.77242 0.0
C2588 C 0.04982 0.2251 0.76708 0.0
C2589 C 0.02713 0.20688 0.77201 0.0
C2590 C 0.02229 0.21565 0.76677 0.0
C2591 C 0.03135 0.22926 0.76242 0.0
C2592 C 0.04501 0.23395 0.76266 0.0
C2593 C 0.0078 0.21033 0.76319 0.0
C2594 C 0.00298 0.21312 0.73106 0.0
C2595 C -0.0013 0.20123 0.78897 0.0
C2596 C 0.00308 0.19875 0.8249 0.0
C2597 C 0.01147 0.20941 0.84781 0.0
C2598 C 0.01558 0.20704 0.88157 0.0
C2599 C 0.01132 0.19405 0.89286 0.0
C2600 C 0.00292 0.18339 0.87043 0.0
C2601 C -0.00121 0.1857 0.83661 0.0
H2602 H 0.01452 0.19224 0.91902 0.0
H2603 H 0.97341 0.21661 0.59503 0.0
H2604 H 0.84457 0.56625 0.58638 0.0
H2605 H 0.86008 0.55782 0.58517 0.0
H2606 H 0.82723 0.51774 0.59381 0.0
H2607 H 0.81177 0.52607 0.59593 0.0
H2608 H 0.84766 0.52036 0.63239 0.0
H2609 H 0.84067 0.53247 0.51 0.0
H2610 H 0.84124 0.54807 0.46324 0.0
H2611 H 0.88328 0.57276 0.47857 0.0
H2612 H 0.88291 0.55737 0.52578 0.0
H2613 H 0.86107 0.47671 0.54086 0.0
H2614 H 0.8531 0.49226 0.5503 0.0
H2615 H 0.8934 0.52456 0.55904 0.0
H2616 H 0.90155 0.50899 0.54977 0.0
H2617 H 0.87401 0.52977 0.51804 0.0
H2618 H 0.8807 0.51438 0.63375 0.0
H2619 H 0.87905 0.49706 0.67592 0.0
H2620 H 0.83654 0.47739 0.67058 0.0
H2621 H 0.83793 0.49445 0.62775 0.0
C2622 C 0.84069 0.55566 0.58874 0.0
C2623 C 0.82695 0.5468 0.59083 0.0
C2624 C 0.84956 0.55086 0.58788 0.0
C2625 C 0.84478 0.53715 0.58872 0.0
C2626 C 0.83113 0.52837 0.59305 0.0
C2627 C 0.8223 0.53314 0.59414 0.0
C2628 C 0.85369 0.5317 0.58231 0.0
C2629 C 0.85347 0.52248 0.60748 0.0
C2630 C 0.8615 0.53467 0.55014 0.0
C2631 C 0.86173 0.54387 0.5217 0.0
C2632 C 0.85001 0.54128 0.50357 0.0
C2633 C 0.8503 0.55007 0.47697 0.0
C2634 C 0.86228 0.56142 0.46803 0.0
C2635 C 0.874 0.56398 0.48559 0.0
C2636 C 0.87376 0.55523 0.51226 0.0
C2637 C 0.86828 0.48715 0.54405 0.0
C2638 C 0.88193 0.49161 0.54506 0.0
C2639 C 0.8637 0.49601 0.54947 0.0
C2640 C 0.87269 0.50947 0.55591 0.0
C2641 C 0.88635 0.51417 0.55424 0.0
C2642 C 0.89097 0.50527 0.54898 0.0
C2643 C 0.86758 0.5182 0.56754 0.0
C2644 C 0.86852 0.52799 0.54343 0.0
C2645 C 0.86033 0.51569 0.60052 0.0
C2646 C 0.85943 0.50567 0.62735 0.0
C2647 C 0.871 0.50633 0.64141 0.0
C2648 C 0.87011 0.49655 0.66543 0.0
C2649 C 0.8577 0.48611 0.67586 0.0
C2650 C 0.84615 0.48548 0.66245 0.0
C2651 C 0.84698 0.49521 0.63833 0.0
H2652 H 0.85702 0.47853 0.69436 0.0
H2653 H 0.86249 0.56821 0.44742 0.0
H2654 H 0.46375 0.28249 0.59667 0.0
H2655 H 0.47388 0.30657 0.59514 0.0
H2656 H 0.43509 0.30279 0.59087 0.0
H2657 H 0.42483 0.27857 0.5919 0.0
H2658 H 0.45124 0.31955 0.53906 0.0
H2659 H 0.45376 0.31448 0.66764 0.0
H2660 H 0.45864 0.30636 0.72466 0.0
H2661 H 0.50003 0.32627 0.69689 0.0
H2662 H 0.49538 0.33435 0.63942 0.0
H2663 H 0.48104 0.39057 0.56101 0.0
H2664 H 0.46731 0.36641 0.56667 0.0
H2665 H 0.50258 0.36308 0.56867 0.0
H2666 H 0.51633 0.38712 0.56322 0.0
H2667 H 0.48595 0.35009 0.62579 0.0
H2668 H 0.48279 0.35344 0.49458 0.0
H2669 H 0.47772 0.36145 0.43765 0.0
H2670 H 0.43714 0.34483 0.47146 0.0
H2671 H 0.44202 0.33687 0.52886 0.0
C2672 C 0.45735 0.28676 0.59593 0.0
C2673 C 0.44349 0.27863 0.59437 0.0
C2674 C 0.46316 0.30054 0.59519 0.0
C2675 C 0.45523 0.30647 0.59314 0.0
C2676 C 0.44138 0.29839 0.59248 0.0
C2677 C 0.43554 0.28458 0.59325 0.0
C2678 C 0.46155 0.32106 0.58951 0.0
C2679 C 0.45864 0.32626 0.55842 0.0
C2680 C 0.47134 0.32977 0.61447 0.0
C2681 C 0.4742 0.32494 0.64906 0.0
C2682 C 0.46389 0.31704 0.67354 0.0
C2683 C 0.46662 0.31246 0.70598 0.0
C2684 C 0.47963 0.31578 0.71436 0.0
C2685 C 0.48995 0.3237 0.69035 0.0
C2686 C 0.48727 0.3283 0.65786 0.0
C2687 C 0.48585 0.38466 0.56205 0.0
C2688 C 0.49977 0.39074 0.56184 0.0
C2689 C 0.478 0.37087 0.56529 0.0
C2690 C 0.48395 0.36299 0.56824 0.0
C2691 C 0.49781 0.36901 0.56667 0.0
C2692 C 0.50565 0.38275 0.56338 0.0
C2693 C 0.47588 0.34854 0.57491 0.0
C2694 C 0.47844 0.34339 0.60667 0.0
C2695 C 0.46574 0.3399 0.55066 0.0
C2696 C 0.46281 0.3447 0.51621 0.0
C2697 C 0.47282 0.3516 0.49004 0.0
C2698 C 0.46997 0.35611 0.45765 0.0
C2699 C 0.45713 0.35369 0.451 0.0
C2700 C 0.44709 0.34672 0.47668 0.0
C2701 C 0.44989 0.3422 0.50914 0.0
H2702 H 0.45494 0.35718 0.4259 0.0
H2703 H 0.48172 0.31222 0.73949 0.0
H2704 H 0.60871 0.12057 0.54672 0.0
H2705 H 0.63269 0.13051 0.545 0.0
H2706 H 0.62887 0.09209 0.56306 0.0
H2707 H 0.60466 0.08204 0.56571 0.0
H2708 H 0.64666 0.10978 0.60821 0.0
H2709 H 0.63999 0.1081 0.4801 0.0
H2710 H 0.631 0.11058 0.42134 0.0
H2711 H 0.65013 0.15272 0.43756 0.0
H2712 H 0.65908 0.15049 0.49669 0.0
H2713 H 0.71866 0.14574 0.58585 0.0
H2714 H 0.69498 0.12942 0.57913 0.0
H2715 H 0.68608 0.16117 0.5735 0.0
H2716 H 0.70956 0.17745 0.58035 0.0
H2717 H 0.67543 0.14291 0.51548 0.0
H2718 H 0.67891 0.14318 0.64861 0.0
H2719 H 0.68784 0.1402 0.7069 0.0
H2720 H 0.67485 0.0997 0.67864 0.0
H2721 H 0.666 0.1025 0.61992 0.0
C2722 C 0.61292 0.11417 0.54977 0.0
C2723 C 0.60479 0.10052 0.55642 0.0
C2724 C 0.62666 0.11986 0.54856 0.0
C2725 C 0.63259 0.11202 0.55347 0.0
C2726 C 0.62449 0.09831 0.55907 0.0
C2727 C 0.61068 0.09259 0.56043 0.0
C2728 C 0.64725 0.11849 0.55555 0.0
C2729 C 0.65298 0.11678 0.58748 0.0
C2730 C 0.6555 0.12768 0.52863 0.0
C2731 C 0.65017 0.12911 0.49298 0.0
C2732 C 0.64222 0.11789 0.47128 0.0
C2733 C 0.63713 0.11925 0.43787 0.0
C2734 C 0.63998 0.1318 0.42574 0.0
C2735 C 0.64793 0.14301 0.44698 0.0
C2736 C 0.65304 0.1417 0.48042 0.0
C2737 C 0.71162 0.14921 0.58373 0.0
C2738 C 0.71597 0.16288 0.5835 0.0
C2739 C 0.69812 0.13989 0.57985 0.0
C2740 C 0.68884 0.14413 0.57558 0.0
C2741 C 0.69313 0.15773 0.5765 0.0
C2742 C 0.70654 0.16701 0.58061 0.0
C2743 C 0.67467 0.13456 0.56868 0.0
C2744 C 0.66909 0.13568 0.53575 0.0
C2745 C 0.66661 0.12475 0.59445 0.0
C2746 C 0.67195 0.1231 0.62969 0.0
C2747 C 0.67808 0.13368 0.65467 0.0
C2748 C 0.6831 0.13201 0.68782 0.0
C2749 C 0.68196 0.11978 0.69641 0.0
C2750 C 0.67576 0.10918 0.67191 0.0
C2751 C 0.67073 0.1108 0.6387 0.0
H2752 H 0.68584 0.11851 0.7221 0.0
H2753 H 0.63603 0.13283 0.39987 0.0
H2754 H 0.4598 0.17682 0.10056 0.0
H2755 H 0.46927 0.16244 0.09287 0.0
H2756 H 0.43001 0.12822 0.08683 0.0
H2757 H 0.42035 0.1426 0.09412 0.0
H2758 H 0.45195 0.12572 0.12777 0.0
H2759 H 0.44021 0.13673 0.01216 0.0
H2760 H 0.43872 0.1523 0.96923 0.0
H2761 H 0.4812 0.1762 0.96729 0.0
H2762 H 0.48293 0.16088 0.01086 0.0
H2763 H 0.48155 0.09064 0.05086 0.0
H2764 H 0.46559 0.09844 0.05549 0.0
H2765 H 0.49745 0.1389 0.04445 0.0
H2766 H 0.51341 0.13121 0.03947 0.0
H2767 H 0.47527 0.13479 0.00812 0.0
H2768 H 0.48685 0.12543 0.12811 0.0
H2769 H 0.4887 0.11104 0.17458 0.0
H2770 H 0.44662 0.08441 0.16948 0.0
H2771 H 0.44456 0.09858 0.12258 0.0
C2772 C 0.45314 0.16621 0.09853 0.0
C2773 C 0.43933 0.16085 0.0974 0.0
C2774 C 0.45858 0.15802 0.09414 0.0
C2775 C 0.45031 0.14435 0.08881 0.0
C2776 C 0.43651 0.13878 0.09086 0.0
C2777 C 0.43103 0.147 0.09497 0.0
C2778 C 0.45622 0.13636 0.07678 0.0
C2779 C 0.45678 0.12741 0.10131 0.0
C2780 C 0.4626 0.13876 0.04238 0.0
C2781 C 0.46169 0.14772 0.015 0.0
C2782 C 0.44923 0.14535 0.00274 0.0
C2783 C 0.44835 0.15412 0.9783 0.0
C2784 C 0.45986 0.16525 0.96565 0.0
C2785 C 0.47229 0.16758 0.97718 0.0
C2786 C 0.47323 0.15884 0.00173 0.0
C2787 C 0.48511 0.10118 0.04865 0.0
C2788 C 0.49875 0.11034 0.04521 0.0
C2789 C 0.47599 0.10561 0.05145 0.0
C2790 C 0.48038 0.11925 0.0509 0.0
C2791 C 0.49387 0.12833 0.04504 0.0
C2792 C 0.50298 0.12392 0.04231 0.0
C2793 C 0.47125 0.12427 0.0594 0.0
C2794 C 0.47013 0.13276 0.03419 0.0
C2795 C 0.46435 0.12142 0.0932 0.0
C2796 C 0.46557 0.11296 0.12155 0.0
C2797 C 0.47801 0.11645 0.13671 0.0
C2798 C 0.47909 0.10835 0.16315 0.0
C2799 C 0.46779 0.09679 0.17489 0.0
C2800 C 0.45537 0.09335 0.1603 0.0
C2801 C 0.45424 0.10141 0.1338 0.0
H2802 H 0.46864 0.09053 0.19536 0.0
H2803 H 0.45912 0.17207 0.94693 0.0
H2804 H 0.91665 0.39177 0.05425 0.0
H2805 H 0.9074 0.36775 0.06159 0.0
H2806 H 0.86782 0.36193 0.05764 0.0
H2807 H 0.87688 0.38573 0.04981 0.0
H2808 H 0.87363 0.35065 0.12035 0.0
H2809 H 0.87779 0.353 0.98754 0.0
H2810 H 0.89023 0.36091 0.92961 0.0
H2811 H 0.91537 0.34547 0.96187 0.0
H2812 H 0.90317 0.33762 0.02027 0.0
H2813 H 0.8266 0.28398 0.09403 0.0
H2814 H 0.84146 0.30788 0.09378 0.0
H2815 H 0.87501 0.30213 0.07851 0.0
H2816 H 0.86005 0.27804 0.07777 0.0
H2817 H 0.87616 0.31976 0.03148 0.0
H2818 H 0.87043 0.31457 0.15997 0.0
H2819 H 0.85855 0.30669 0.2187 0.0
H2820 H 0.83761 0.32765 0.19758 0.0
H2821 H 0.84921 0.3355 0.13846 0.0
C2822 C 0.90598 0.38533 0.05431 0.0
C2823 C 0.89749 0.39064 0.05158 0.0
C2824 C 0.90073 0.37165 0.05857 0.0
C2825 C 0.88695 0.36314 0.06045 0.0
C2826 C 0.87849 0.36838 0.05649 0.0
C2827 C 0.88369 0.38198 0.05181 0.0
C2828 C 0.8812 0.34884 0.0682 0.0
C2829 C 0.8741 0.34384 0.10093 0.0
C2830 C 0.88236 0.34014 0.04349 0.0
C2831 C 0.88969 0.34489 0.00846 0.0
C2832 C 0.88606 0.35142 0.98245 0.0
C2833 C 0.89304 0.35586 0.94949 0.0
C2834 C 0.90362 0.35374 0.94212 0.0
C2835 C 0.9072 0.34713 0.96766 0.0
C2836 C 0.90025 0.34268 0.00068 0.0
C2837 C 0.83716 0.28776 0.0912 0.0
C2838 C 0.84215 0.27911 0.08585 0.0
C2839 C 0.84567 0.30146 0.09126 0.0
C2840 C 0.85939 0.30682 0.08652 0.0
C2841 C 0.86446 0.29821 0.08228 0.0
C2842 C 0.85592 0.28445 0.08202 0.0
C2843 C 0.86813 0.3214 0.08323 0.0
C2844 C 0.87585 0.32652 0.05139 0.0
C2845 C 0.86767 0.33025 0.10902 0.0
C2846 C 0.86065 0.32557 0.14463 0.0
C2847 C 0.86322 0.31742 0.16771 0.0
C2848 C 0.85654 0.31297 0.2011 0.0
C2849 C 0.84731 0.31665 0.21184 0.0
C2850 C 0.84476 0.32481 0.18923 0.0
C2851 C 0.8514 0.32928 0.15579 0.0
H2852 H 0.84215 0.31319 0.2377 0.0
H2853 H 0.90901 0.35718 0.91658 0.0
H2854 H 0.72283 0.58494 0.08091 0.0
H2855 H 0.69874 0.5755 0.07483 0.0
H2856 H 0.69419 0.537 0.05334 0.0
H2857 H 0.71805 0.54623 0.0596 0.0
H2858 H 0.6809 0.54446 0.00285 0.0
H2859 H 0.68653 0.54301 0.13459 0.0
H2860 H 0.69561 0.55292 0.19497 0.0
H2861 H 0.67855 0.57804 0.18467 0.0
H2862 H 0.66952 0.56838 0.12396 0.0
H2863 H 0.61618 0.49364 0.0392 0.0
H2864 H 0.63978 0.50964 0.03388 0.0
H2865 H 0.63262 0.54115 0.06648 0.0
H2866 H 0.60891 0.52509 0.07243 0.0
H2867 H 0.65193 0.54159 0.10628 0.0
H2868 H 0.64293 0.54025 0.97939 0.0
H2869 H 0.63364 0.5303 0.91924 0.0
H2870 H 0.65683 0.51096 0.91902 0.0
H2871 H 0.66612 0.52063 0.97943 0.0
C2872 C 0.71666 0.57445 0.07515 0.0
C2873 C 0.72233 0.56632 0.07078 0.0
C2874 C 0.70294 0.56909 0.07164 0.0
C2875 C 0.69475 0.55558 0.06348 0.0
C2876 C 0.70038 0.54747 0.0594 0.0
C2877 C 0.71401 0.55276 0.06323 0.0
C2878 C 0.68025 0.54969 0.05908 0.0
C2879 C 0.67452 0.54379 0.02541 0.0
C2880 C 0.67205 0.54929 0.08816 0.0
C2881 C 0.67751 0.55511 0.12455 0.0
C2882 C 0.68483 0.55074 0.14505 0.0
C2883 C 0.68994 0.55629 0.17936 0.0
C2884 C 0.6877 0.56614 0.19359 0.0
C2885 C 0.68031 0.57044 0.17357 0.0
C2886 C 0.67519 0.56493 0.13922 0.0
C2887 C 0.61957 0.50401 0.04461 0.0
C2888 C 0.61069 0.50809 0.05639 0.0
C2889 C 0.63308 0.51317 0.04137 0.0
C2890 C 0.63796 0.52662 0.04952 0.0
C2891 C 0.62905 0.53082 0.05999 0.0
C2892 C 0.61551 0.52164 0.06326 0.0
C2893 C 0.65247 0.53592 0.05031 0.0
C2894 C 0.65825 0.54249 0.08331 0.0
C2895 C 0.66072 0.53699 0.02051 0.0
C2896 C 0.65518 0.53113 0.98409 0.0
C2897 C 0.64598 0.5338 0.96665 0.0
C2898 C 0.64073 0.52822 0.93248 0.0
C2899 C 0.64463 0.51999 0.91534 0.0
C2900 C 0.65382 0.51734 0.93232 0.0
C2901 C 0.6591 0.52289 0.96652 0.0
H2902 H 0.64055 0.51567 0.88888 0.0
H2903 H 0.69165 0.57042 0.22017 0.0
H2904 H 0.50236 0.88193 0.95645 0.0
H2905 H 0.51798 0.8739 0.96169 0.0
H2906 H 0.54927 0.91113 0.9194 0.0
H2907 H 0.53352 0.91921 0.9135 0.0
H2908 H 0.54808 0.89083 0.88301 0.0
H2909 H 0.5505 0.90205 0.00829 0.0
H2910 H 0.54239 0.90356 0.06948 0.0
H2911 H 0.52132 0.86108 0.07854 0.0
H2912 H 0.52913 0.85928 0.01718 0.0
H2913 H 0.58512 0.85661 0.89562 0.0
H2914 H 0.57946 0.87394 0.90807 0.0
H2915 H 0.54047 0.84403 0.94384 0.0
H2916 H 0.54599 0.82678 0.93152 0.0
H2917 H 0.55164 0.86612 0.9891 0.0
H2918 H 0.54498 0.85565 0.85839 0.0
H2919 H 0.55251 0.85393 0.79651 0.0
H2920 H 0.58163 0.89543 0.79859 0.0
H2921 H 0.57437 0.89735 0.86073 0.0
C2922 C 0.51261 0.88852 0.94882 0.0
C2923 C 0.51669 0.90117 0.93437 0.0
C2924 C 0.52157 0.88395 0.95211 0.0
C2925 C 0.53485 0.89197 0.94132 0.0
C2926 C 0.53908 0.90481 0.92805 0.0
C2927 C 0.53009 0.90941 0.92476 0.0
C2928 C 0.54373 0.88626 0.94037 0.0
C2929 C 0.5492 0.88577 0.90653 0.0
C2930 C 0.54509 0.87954 0.97093 0.0
C2931 C 0.54038 0.88054 0.008 0.0
C2932 C 0.54407 0.89302 0.02321 0.0
C2933 C 0.53953 0.89393 0.05796 0.0
C2934 C 0.53134 0.88243 0.07787 0.0
C2935 C 0.52768 0.86998 0.06309 0.0
C2936 C 0.53218 0.86902 0.02835 0.0
C2937 C 0.57538 0.85377 0.9064 0.0
C2938 C 0.56595 0.84034 0.91233 0.0
C2939 C 0.57218 0.86366 0.91349 0.0
C2940 C 0.55955 0.86024 0.92679 0.0
C2941 C 0.5503 0.84688 0.93375 0.0
C2942 C 0.55344 0.83703 0.92643 0.0
C2943 C 0.55545 0.87031 0.93152 0.0
C2944 C 0.55088 0.87158 0.96601 0.0
C2945 C 0.55492 0.87776 0.90163 0.0
C2946 C 0.55927 0.8766 0.86434 0.0
C2947 C 0.55307 0.86438 0.84576 0.0
C2948 C 0.55727 0.86337 0.81063 0.0
C2949 C 0.56757 0.87455 0.79368 0.0
C2950 C 0.57367 0.88677 0.81179 0.0
C2951 C 0.56952 0.88782 0.84696 0.0
H2952 H 0.57081 0.87376 0.76647 0.0
H2953 H 0.52783 0.88315 0.10476 0.0
H2954 H 0.09215 0.61227 0.92505 0.0
H2955 H 0.09877 0.63563 0.91599 0.0
H2956 H 0.13957 0.64689 0.93672 0.0
H2957 H 0.13304 0.62368 0.94632 0.0
H2958 H 0.13408 0.66422 0.96735 0.0
H2959 H 0.12805 0.64341 0.84973 0.0
H2960 H 0.11594 0.62682 0.80151 0.0
H2961 H 0.08659 0.63884 0.7976 0.0
H2962 H 0.09846 0.65541 0.84612 0.0
H2963 H 0.17129 0.72169 0.85989 0.0
H2964 H 0.15765 0.69759 0.86452 0.0
H2965 H 0.12549 0.70149 0.90898 0.0
H2966 H 0.13907 0.7257 0.90463 0.0
H2967 H 0.1243 0.67678 0.84603 0.0
H2968 H 0.13096 0.6953 0.97748 0.0
H2969 H 0.14639 0.71338 0.01848 0.0
H2970 H 0.178 0.70659 0.98652 0.0
H2971 H 0.16271 0.68844 0.9456 0.0
C2972 C 0.1025 0.61975 0.92829 0.0
C2973 C 0.1121 0.61614 0.93614 0.0
C2974 C 0.10627 0.63308 0.9229 0.0
C2975 C 0.11968 0.64296 0.92512 0.0
C2976 C 0.12916 0.63942 0.9348 0.0
C2977 C 0.12541 0.62614 0.94022 0.0
C2978 C 0.12404 0.65692 0.91558 0.0
C2979 C 0.13177 0.66688 0.94098 0.0
C2980 C 0.12121 0.66049 0.88096 0.0
C2981 C 0.11404 0.65052 0.85187 0.0
C2982 C 0.11895 0.64243 0.83881 0.0
C2983 C 0.11215 0.63305 0.81138 0.0
C2984 C 0.10048 0.63175 0.7966 0.0
C2985 C 0.09561 0.63985 0.80914 0.0
C2986 C 0.10238 0.64924 0.83658 0.0
C2987 C 0.16118 0.71744 0.86967 0.0
C2988 C 0.1563 0.72559 0.88233 0.0
C2989 C 0.1534 0.70367 0.87209 0.0
C2990 C 0.14062 0.69786 0.88704 0.0
C2991 C 0.13531 0.70587 0.89708 0.0
C2992 C 0.14311 0.71968 0.89469 0.0
C2993 C 0.13398 0.68382 0.89807 0.0
C2994 C 0.12609 0.67394 0.87282 0.0
C2995 C 0.1368 0.68027 0.93247 0.0
C2996 C 0.14572 0.69052 0.9588 0.0
C2997 C 0.14118 0.69762 0.97954 0.0
C2998 C 0.1499 0.70788 0.00267 0.0
C2999 C 0.16317 0.71112 0.00518 0.0
C3000 C 0.16772 0.70404 0.98472 0.0
C3001 C 0.15902 0.69373 0.96169 0.0
H3002 H 0.16992 0.71913 0.02291 0.0
H3003 H 0.09523 0.62448 0.77538 0.0
H3004 H 0.2841 0.458 0.87051 0.0
H3005 H 0.3081 0.46787 0.87185 0.0
H3006 H 0.30382 0.42981 0.89882 0.0
H3007 H 0.27961 0.41984 0.89814 0.0
H3008 H 0.32066 0.44852 0.94458 0.0
H3009 H 0.31635 0.44412 0.81561 0.0
H3010 H 0.30855 0.44549 0.75382 0.0
H3011 H 0.32788 0.48791 0.76289 0.0
H3012 H 0.33564 0.4868 0.82496 0.0
H3013 H 0.39254 0.48125 0.93055 0.0
H3014 H 0.3687 0.46581 0.92321 0.0
H3015 H 0.36231 0.49879 0.90472 0.0
H3016 H 0.386 0.51425 0.91215 0.0
H3017 H 0.35142 0.47922 0.85036 0.0
H3018 H 0.35296 0.48265 0.98301 0.0
H3019 H 0.36069 0.48091 0.04459 0.0
H3020 H 0.34667 0.4395 0.02689 0.0
H3021 H 0.339 0.44104 0.96496 0.0
C3022 C 0.28823 0.45165 0.8761 0.0
C3023 C 0.27996 0.43814 0.88434 0.0
C3024 C 0.30198 0.45731 0.87667 0.0
C3025 C 0.30777 0.44956 0.88516 0.0
C3026 C 0.29955 0.43596 0.89214 0.0
C3027 C 0.28574 0.43027 0.89156 0.0
C3028 C 0.32235 0.45605 0.88964 0.0
C3029 C 0.32742 0.45498 0.92363 0.0
C3030 C 0.33116 0.46461 0.86249 0.0
C3031 C 0.32652 0.46536 0.82509 0.0
C3032 C 0.31886 0.45373 0.80455 0.0
C3033 C 0.31446 0.45447 0.76944 0.0
C3034 C 0.3177 0.46677 0.75446 0.0
C3035 C 0.32538 0.47838 0.77453 0.0
C3036 C 0.3298 0.47771 0.80967 0.0
C3037 C 0.38602 0.48521 0.92553 0.0
C3038 C 0.39115 0.49896 0.92181 0.0
C3039 C 0.37242 0.47638 0.9213 0.0
C3040 C 0.3638 0.48118 0.91319 0.0
C3041 C 0.36884 0.49491 0.91073 0.0
C3042 C 0.38237 0.50372 0.9152 0.0
C3043 C 0.34959 0.472 0.9056 0.0
C3044 C 0.34465 0.47255 0.87098 0.0
C3045 C 0.34094 0.46291 0.93202 0.0
C3046 C 0.34557 0.462 0.96919 0.0
C3047 C 0.35164 0.4732 -0.00789 0.0
C3048 C 0.35599 0.47225 0.02711 0.0
C3049 C 0.35421 0.46011 0.0396 0.0
C3050 C 0.34806 0.4489 0.01715 0.0
C3051 C 0.34371 0.44981 0.98211 0.0
H3052 H 0.35758 0.45939 0.06671 0.0
H3053 H 0.31429 0.46732 0.72727 0.0
H3054 H 0.07908 0.47468 0.42757 0.0
H3055 H 0.08675 0.45883 0.41552 0.0
H3056 H 0.12735 0.49056 0.42312 0.0
H3057 H 0.11988 0.50634 0.4357 0.0
H3058 H 0.11963 0.47453 0.35561 0.0
H3059 H 0.11665 0.47072 0.48954 0.0
H3060 H 0.1044 0.46541 0.54798 0.0
H3061 H 0.07791 0.42581 0.5101 0.0
H3062 H 0.08992 0.43096 0.4512 0.0
H3063 H 0.16752 0.45659 0.37759 0.0
H3064 H 0.15179 0.46452 0.37771 0.0
H3065 H 0.11945 0.42442 0.39168 0.0
H3066 H 0.13531 0.41639 0.39258 0.0
H3067 H 0.1174 0.43995 0.43962 0.0
H3068 H 0.12266 0.4418 0.3115 0.0
H3069 H 0.13412 0.44634 0.25195 0.0
H3070 H 0.15458 0.48814 0.27476 0.0
H3071 H 0.14341 0.48385 0.3347 0.0
C3072 C 0.08963 0.47821 0.42734 0.0
C3073 C 0.09888 0.49176 0.43242 0.0
C3074 C 0.09397 0.46917 0.42036 0.0
C3075 C 0.10759 0.47362 0.41809 0.0
C3076 C 0.1168 0.48701 0.42453 0.0
C3077 C 0.1125 0.49598 0.43191 0.0
C3078 C 0.11247 0.4646 0.40735 0.0
C3079 C 0.11917 0.46695 0.37386 0.0
C3080 C 0.11124 0.45433 0.43047 0.0
C3081 C 0.10405 0.45128 0.46582 0.0
C3082 C 0.10812 0.46093 0.49353 0.0
C3083 C 0.10125 0.45794 0.52677 0.0
C3084 C 0.09035 0.4453 0.5327 0.0
C3085 C 0.08633 0.43561 0.50543 0.0
C3086 C 0.09317 0.43855 0.47213 0.0
C3087 C 0.15705 0.4494 0.38003 0.0
C3088 C 0.15266 0.43587 0.38524 0.0
C3089 C 0.14803 0.45395 0.37984 0.0
C3090 C 0.1344 0.44505 0.38428 0.0
C3091 C 0.12991 0.43145 0.3881 0.0
C3092 C 0.13898 0.42688 0.3885 0.0
C3093 C 0.12521 0.4503 0.38849 0.0
C3094 C 0.11761 0.44724 0.42069 0.0
C3095 C 0.12544 0.4598 0.36385 0.0
C3096 C 0.13221 0.46249 0.32773 0.0
C3097 C 0.12967 0.45196 0.30395 0.0
C3098 C 0.13611 0.45449 0.27009 0.0
C3099 C 0.14508 0.46752 0.25959 0.0
C3100 C 0.14762 0.47805 0.28292 0.0
C3101 C 0.14121 0.47558 0.31682 0.0
H3102 H 0.15005 0.46946 0.23337 0.0
H3103 H 0.08504 0.443 0.55845 0.0
H3104 H 0.48705 0.61394 0.46306 0.0
H3105 H 0.50233 0.63782 0.46756 0.0
H3106 H 0.53444 0.63238 0.43026 0.0
H3107 H 0.51922 0.60845 0.42572 0.0
H3108 H 0.52689 0.6555 0.50085 0.0
H3109 H 0.54974 0.65581 0.36203 0.0
H3110 H 0.54484 0.64161 0.30732 0.0
H3111 H 0.50306 0.62507 0.32555 0.0
H3112 H 0.50772 0.63931 0.37998 0.0
H3113 H 0.57119 0.7239 0.45163 0.0
H3114 H 0.56352 0.70023 0.46092 0.0
H3115 H 0.52988 0.68996 0.39088 0.0
H3116 H 0.53739 0.71341 0.38164 0.0
H3117 H 0.54163 0.67489 0.37679 0.0
H3118 H 0.52619 0.68967 0.48069 0.0
H3119 H 0.52934 0.70369 0.53468 0.0
H3120 H 0.55364 0.69001 0.58523 0.0
H3121 H 0.55077 0.67603 0.53125 0.0
C3122 C 0.49743 0.61778 0.45668 0.0
C3123 C 0.50191 0.60935 0.44351 0.0
C3124 C 0.50616 0.63141 0.45948 0.0
C3125 C 0.51946 0.63684 0.44884 0.0
C3126 C 0.52419 0.62836 0.4384 0.0
C3127 C 0.51547 0.61469 0.43582 0.0
C3128 C 0.5277 0.65135 0.4437 0.0
C3129 C 0.53032 0.65977 0.47386 0.0
C3130 C 0.53202 0.65688 0.40839 0.0
C3131 C 0.52909 0.64849 0.37529 0.0
C3132 C 0.53951 0.64917 0.35425 0.0
C3133 C 0.53678 0.64112 0.32331 0.0
C3134 C 0.52365 0.63241 0.31306 0.0
C3135 C 0.51322 0.63179 0.3336 0.0
C3136 C 0.51591 0.63983 0.3645 0.0
C3137 C 0.56224 0.71657 0.43796 0.0
C3138 C 0.55485 0.72048 0.41605 0.0
C3139 C 0.55787 0.70309 0.44336 0.0
C3140 C 0.54612 0.69338 0.42668 0.0
C3141 C 0.53899 0.6973 0.4039 0.0
C3142 C 0.54327 0.71071 0.39879 0.0
C3143 C 0.54075 0.67909 0.43389 0.0
C3144 C 0.53861 0.67068 0.404 0.0
C3145 C 0.53672 0.67359 0.46935 0.0
C3146 C 0.5384 0.68195 0.50179 0.0
C3147 C 0.5323 0.68974 0.50319 0.0
C3148 C 0.53401 0.69766 0.5338 0.0
C3149 C 0.54172 0.69778 0.56332 0.0
C3150 C 0.5477 0.68994 0.56231 0.0
C3151 C 0.54603 0.68201 0.53173 0.0
H3152 H 0.54304 0.70392 0.587 0.0
H3153 H 0.52155 0.62617 0.28914 0.0
H3154 H 0.38133 0.90128 0.41937 0.0
H3155 H 0.35763 0.89192 0.40579 0.0
H3156 H 0.35235 0.85251 0.40741 0.0
H3157 H 0.3758 0.86167 0.42122 0.0
H3158 H 0.34316 0.85901 0.34256 0.0
H3159 H 0.34099 0.86178 0.47566 0.0
H3160 H 0.34667 0.8738 0.53452 0.0
H3161 H 0.33134 0.89831 0.49541 0.0
H3162 H 0.32573 0.88654 0.43611 0.0
H3163 H 0.27756 0.80892 0.36045 0.0
H3164 H 0.30109 0.82528 0.36289 0.0
H3165 H 0.29182 0.85675 0.37056 0.0
H3166 H 0.26808 0.84031 0.36871 0.0
H3167 H 0.30886 0.85918 0.42274 0.0
H3168 H 0.30728 0.85409 0.29437 0.0
H3169 H 0.30146 0.84254 0.23486 0.0
H3170 H 0.32393 0.82362 0.26197 0.0
H3171 H 0.32973 0.83489 0.32191 0.0
C3172 C 0.37505 0.89061 0.4175 0.0
C3173 C 0.38044 0.88221 0.42118 0.0
C3174 C 0.36155 0.8853 0.40965 0.0
C3175 C 0.35333 0.87156 0.40525 0.0
C3176 C 0.35859 0.86316 0.4104 0.0
C3177 C 0.37198 0.86842 0.4185 0.0
C3178 C 0.33936 0.86576 0.39361 0.0
C3179 C 0.33562 0.85899 0.36004 0.0
C3180 C 0.32971 0.86634 0.4157 0.0
C3181 C 0.33311 0.87341 0.4513 0.0
C3182 C 0.33896 0.86983 0.47948 0.0
C3183 C 0.34213 0.87657 0.51295 0.0
C3184 C 0.33941 0.88685 0.51865 0.0
C3185 C 0.33347 0.89037 0.49093 0.0
C3186 C 0.33029 0.88366 0.45739 0.0
C3187 C 0.2805 0.81933 0.36197 0.0
C3188 C 0.27097 0.82332 0.36454 0.0
C3189 C 0.29398 0.8287 0.36317 0.0
C3190 C 0.29823 0.84226 0.36664 0.0
C3191 C 0.28875 0.84634 0.36781 0.0
C3192 C 0.27521 0.83694 0.36658 0.0
C3193 C 0.31251 0.85186 0.37234 0.0
C3194 C 0.31637 0.85941 0.40469 0.0
C3195 C 0.32231 0.85214 0.34889 0.0
C3196 C 0.31889 0.84532 0.31278 0.0
C3197 C 0.31091 0.8474 0.28778 0.0
C3198 C 0.30762 0.84091 0.25393 0.0
C3199 C 0.31231 0.83234 0.24465 0.0
C3200 C 0.32031 0.83026 0.26919 0.0
C3201 C 0.32362 0.83672 0.30309 0.0
H3202 H 0.30975 0.82732 0.21844 0.0
H3203 H 0.34187 0.89205 0.54459 0.0
H3204 H 0.27723 0.12634 0.21596 0.0
H3205 H 0.29943 0.1334 0.19227 0.0
H3206 H 0.30009 0.16678 0.13873 0.0
H3207 H 0.27788 0.15976 0.16197 0.0
H3208 H 0.30889 0.15414 0.09388 0.0
H3209 H 0.31701 0.17116 0.21711 0.0
H3210 H 0.31435 0.16977 0.28429 0.0
H3211 H 0.32849 0.14208 0.28894 0.0
H3212 H 0.33107 0.14317 0.22169 0.0
H3213 H 0.37758 0.1943 0.05781 0.0
H3214 H 0.35474 0.1851 0.07872 0.0
H3215 H 0.35692 0.15342 0.13369 0.0
H3216 H 0.37989 0.16268 0.11343 0.0
H3217 H 0.34639 0.16408 0.17737 0.0
H3218 H 0.33919 0.14772 0.05434 0.0
H3219 H 0.34194 0.14916 0.9872 0.0
H3220 H 0.3261 0.17544 0.9819 0.0
H3221 H 0.32343 0.17431 0.0491 0.0
C3222 C 0.28209 0.13519 0.19917 0.0
C3223 C 0.27578 0.1425 0.19096 0.0
C3224 C 0.29479 0.13922 0.18574 0.0
C3225 C 0.30143 0.15067 0.164 0.0
C3226 C 0.29513 0.15791 0.15547 0.0
C3227 C 0.28245 0.15391 0.16891 0.0
C3228 C 0.31497 0.15511 0.15009 0.0
C3229 C 0.31713 0.15645 0.11212 0.0
C3230 C 0.32561 0.15779 0.1739 0.0
C3231 C 0.32409 0.15714 0.21433 0.0
C3232 C 0.31944 0.16469 0.23243 0.0
C3233 C 0.31797 0.16397 0.27052 0.0
C3234 C 0.32121 0.15581 0.29086 0.0
C3235 C 0.32597 0.14838 0.27315 0.0
C3236 C 0.32744 0.14905 0.23505 0.0
C3237 C 0.37319 0.18531 0.07408 0.0
C3238 C 0.38057 0.17922 0.0839 0.0
C3239 C 0.3601 0.18003 0.08591 0.0
C3240 C 0.35409 0.16849 0.10746 0.0
C3241 C 0.36138 0.16232 0.11705 0.0
C3242 C 0.37449 0.16761 0.10533 0.0
C3243 C 0.34036 0.16318 0.12111 0.0
C3244 C 0.33815 0.16168 0.15906 0.0
C3245 C 0.32967 0.16035 0.09726 0.0
C3246 C 0.33122 0.16101 0.05681 0.0
C3247 C 0.33639 0.15388 0.0389 0.0
C3248 C 0.33792 0.15463 0.00082 0.0
C3249 C 0.33422 0.16241 0.98031 0.0
C3250 C 0.32897 0.16943 -0.00217 0.0
C3251 C 0.32743 0.16873 0.03591 0.0
H3252 H 0.33541 0.16297 0.95083 0.0
H3253 H 0.32007 0.15527 0.32035 0.0
H3254 H 0.83769 0.21633 0.10515 0.0
H3255 H 0.84612 0.20213 0.12715 0.0
H3256 H 0.81293 0.16814 0.0772 0.0
H3257 H 0.80429 0.18221 0.05554 0.0
H3258 H 0.81655 0.16284 0.14614 0.0
H3259 H 0.84401 0.18183 0.04035 0.0
H3260 H 0.85939 0.1999 -0.0005 0.0
H3261 H 0.88833 0.21597 0.0857 0.0
H3262 H 0.87305 0.1981 0.12725 0.0
H3263 H 0.84168 0.11876 0.17077 0.0
H3264 H 0.8334 0.13253 0.1443 0.0
H3265 H 0.86566 0.16726 0.19448 0.0
H3266 H 0.87411 0.15363 0.22074 0.0
H3267 H 0.86234 0.17179 0.12374 0.0
H3268 H 0.83465 0.15317 0.22986 0.0
H3269 H 0.81922 0.13522 0.27093 0.0
H3270 H 0.79067 0.1185 0.18393 0.0
H3271 H 0.80601 0.13627 0.14217 0.0
C3272 C 0.83224 0.20586 0.09849 0.0
C3273 C 0.8203 0.20042 0.07858 0.0
C3274 C 0.8371 0.19776 0.11102 0.0
C3275 C 0.8302 0.18409 0.1036 0.0
C3276 C 0.8184 0.17866 0.08326 0.0
C3277 C 0.81351 0.18674 0.07079 0.0
C3278 C 0.83502 0.17538 0.11831 0.0
C3279 C 0.82649 0.16467 0.14074 0.0
C3280 C 0.84809 0.17796 0.112 0.0
C3281 C 0.85734 0.18869 0.08701 0.0
C3282 C 0.85362 0.18928 0.05069 0.0
C3283 C 0.86232 0.19947 0.02739 0.0
C3284 C 0.87481 0.2091 0.04002 0.0
C3285 C 0.87864 0.20852 0.07596 0.0
C3286 C 0.86997 0.19835 0.09939 0.0
C3287 C 0.84699 0.12932 0.17633 0.0
C3288 C 0.85855 0.13508 0.19797 0.0
C3289 C 0.84222 0.13717 0.16123 0.0
C3290 C 0.84886 0.1509 0.16765 0.0
C3291 C 0.86039 0.15668 0.18917 0.0
C3292 C 0.86518 0.14885 0.20427 0.0
C3293 C 0.84388 0.15929 0.15161 0.0
C3294 C 0.85238 0.16994 0.12897 0.0
C3295 C 0.83078 0.15665 0.15772 0.0
C3296 C 0.82154 0.14597 0.18278 0.0
C3297 C 0.82513 0.1456 0.21939 0.0
C3298 C 0.81639 0.13547 0.24282 0.0
C3299 C 0.80399 0.12571 0.23002 0.0
C3300 C 0.80029 0.12607 0.19379 0.0
C3301 C 0.80899 0.13617 0.17024 0.0
H3302 H 0.79723 0.11787 0.24819 0.0
H3303 H 0.88154 0.21699 0.02194 0.0
H3304 H 0.78284 0.62443 0.12549 0.0
H3305 H 0.79545 0.64698 0.14996 0.0
H3306 H 0.83173 0.65005 0.1098 0.0
H3307 H 0.81929 0.62751 0.0858 0.0
H3308 H 0.83471 0.65909 0.17842 0.0
H3309 H 0.81698 0.66518 0.0655 0.0
H3310 H 0.79926 0.66108 0.02143 0.0
H3311 H 0.78084 0.67382 0.10111 0.0
H3312 H 0.79837 0.67783 0.14586 0.0
H3313 H 0.87848 0.72811 0.18746 0.0
H3314 H 0.86429 0.70549 0.1655 0.0
H3315 H 0.83003 0.70529 0.21118 0.0
H3316 H 0.84413 0.72806 0.23281 0.0
H3317 H 0.82509 0.69458 0.14275 0.0
H3318 H 0.84342 0.68934 0.25485 0.0
H3319 H 0.86124 0.69353 0.29861 0.0
H3320 H 0.8786 0.67917 0.22028 0.0
H3321 H 0.86097 0.67506 0.17583 0.0
C3322 C 0.7935 0.62991 0.1218 0.0
C3323 C 0.80005 0.62416 0.10361 0.0
C3324 C 0.80068 0.64281 0.1357 0.0
C3325 C 0.81452 0.65023 0.13141 0.0
C3326 C 0.82107 0.64449 0.11344 0.0
C3327 C 0.81392 0.63161 0.09964 0.0
C3328 C 0.82226 0.66393 0.1459 0.0
C3329 C 0.8327 0.66688 0.17031 0.0
C3330 C 0.8194 0.67401 0.13607 0.0
C3331 C 0.8089 0.67167 0.10915 0.0
C3332 C 0.80909 0.66701 0.07372 0.0
C3333 C 0.79909 0.66472 0.0486 0.0
C3334 C 0.78891 0.66715 0.0585 0.0
C3335 C 0.78872 0.67192 0.09351 0.0
C3336 C 0.79869 0.67421 0.11875 0.0
C3337 C 0.86793 0.72329 0.19284 0.0
C3338 C 0.86246 0.72989 0.21209 0.0
C3339 C 0.85984 0.71033 0.18036 0.0
C3340 C 0.84614 0.70366 0.18714 0.0
C3341 C 0.84059 0.71026 0.20578 0.0
C3342 C 0.84868 0.72325 0.21825 0.0
C3343 C 0.83764 0.68975 0.17487 0.0
C3344 C 0.82706 0.68676 0.15098 0.0
C3345 C 0.84036 0.67963 0.18513 0.0
C3346 C 0.85093 0.682 0.2119 0.0
C3347 C 0.85109 0.68717 0.24685 0.0
C3348 C 0.86115 0.68951 0.2718 0.0
C3349 C 0.87106 0.68665 0.2622 0.0
C3350 C 0.87092 0.68139 0.22766 0.0
C3351 C 0.86089 0.67904 0.2026 0.0
H3352 H 0.87885 0.68847 0.28155 0.0
H3353 H 0.78118 0.66537 0.03902 0.0
H3354 H 0.19505 0.38089 0.40262 0.0
H3355 H 0.18739 0.35911 0.37517 0.0
H3356 H 0.15158 0.35797 0.3388 0.0
H3357 H 0.15907 0.3797 0.36643 0.0
H3358 H 0.14657 0.33436 0.36731 0.0
H3359 H 0.17662 0.36581 0.27951 0.0
H3360 H 0.19767 0.38447 0.25674 0.0
H3361 H 0.21798 0.36344 0.2852 0.0
H3362 H 0.19709 0.34475 0.30865 0.0
H3363 H 0.12641 0.28031 0.24478 0.0
H3364 H 0.13354 0.30258 0.26816 0.0
H3365 H 0.17035 0.30603 0.30505 0.0
H3366 H 0.16343 0.28392 0.28138 0.0
H3367 H 0.17444 0.32873 0.27425 0.0
H3368 H 0.14507 0.29792 0.36454 0.0
H3369 H 0.1242 0.27899 0.38715 0.0
H3370 H 0.10292 0.29866 0.35486 0.0
H3371 H 0.12365 0.31765 0.33159 0.0
C3372 C 0.18549 0.37598 0.38907 0.0
C3373 C 0.1777 0.38208 0.38659 0.0
C3374 C 0.18117 0.36356 0.37319 0.0
C3375 C 0.16903 0.35704 0.35445 0.0
C3376 C 0.16102 0.36288 0.35299 0.0
C3377 C 0.16533 0.37531 0.3688 0.0
C3378 C 0.1647 0.34416 0.33616 0.0
C3379 C 0.15257 0.33316 0.34657 0.0
C3380 C 0.17268 0.34257 0.30965 0.0
C3381 C 0.1853 0.35392 0.29613 0.0
C3382 C 0.18559 0.36522 0.28126 0.0
C3383 C 0.19749 0.37579 0.26815 0.0
C3384 C 0.20915 0.37513 0.26953 0.0
C3385 C 0.20894 0.36393 0.28415 0.0
C3386 C 0.19707 0.35335 0.29733 0.0
C3387 C 0.13608 0.28586 0.25753 0.0
C3388 C 0.14431 0.28029 0.26142 0.0
C3389 C 0.14011 0.29855 0.27104 0.0
C3390 C 0.15239 0.30586 0.28883 0.0
C3391 C 0.16082 0.30054 0.29152 0.0
C3392 C 0.15682 0.28787 0.27802 0.0
C3393 C 0.15636 0.31892 0.30557 0.0
C3394 C 0.16842 0.32994 0.29487 0.0
C3395 C 0.14836 0.32053 0.33194 0.0
C3396 C 0.13589 0.30914 0.34596 0.0
C3397 C 0.13592 0.29816 0.36199 0.0
C3398 C 0.12413 0.28743 0.37497 0.0
C3399 C 0.11224 0.2876 0.37234 0.0
C3400 C 0.11213 0.29853 0.35681 0.0
C3401 C 0.12391 0.30928 0.34374 0.0
H3402 H 0.10312 0.27928 0.38242 0.0
H3403 H 0.21833 0.38327 0.25915 0.0
H3404 H 0.60634 0.81799 0.38376 0.0
H3405 H 0.62915 0.83213 0.36325 0.0
H3406 H 0.63354 0.7977 0.34986 0.0
H3407 H 0.61072 0.78344 0.37086 0.0
H3408 H 0.65534 0.81796 0.38098 0.0
H3409 H 0.62841 0.81199 0.27539 0.0
H3410 H 0.6104 0.81201 0.23982 0.0
H3411 H 0.62723 0.85374 0.25956 0.0
H3412 H 0.64533 0.85397 0.2954 0.0
H3413 H 0.7125 0.84857 0.26665 0.0
H3414 H 0.68999 0.8342 0.28937 0.0
H3415 H 0.68603 0.8685 0.31073 0.0
H3416 H 0.70858 0.883 0.28809 0.0
H3417 H 0.66409 0.8481 0.27525 0.0
H3418 H 0.69145 0.85376 0.38013 0.0
H3419 H 0.70971 0.85343 0.41348 0.0
H3420 H 0.69202 0.81161 0.39336 0.0
H3421 H 0.67375 0.81174 0.3594 0.0
C3422 C 0.61215 0.8134 0.37669 0.0
C3423 C 0.60666 0.79955 0.37879 0.0
C3424 C 0.62519 0.8215 0.36479 0.0
C3425 C 0.63297 0.81594 0.35447 0.0
C3426 C 0.62768 0.80218 0.35758 0.0
C3427 C 0.61463 0.79405 0.36956 0.0
C3428 C 0.64656 0.8245 0.33996 0.0
C3429 C 0.65724 0.82442 0.35756 0.0
C3430 C 0.64906 0.83309 0.30977 0.0
C3431 C 0.63815 0.83297 0.28838 0.0
C3432 C 0.62822 0.82115 0.2724 0.0
C3433 C 0.61801 0.82111 0.25214 0.0
C3434 C 0.61764 0.83285 0.24759 0.0
C3435 C 0.62752 0.84465 0.26316 0.0
C3436 C 0.63777 0.84475 0.28338 0.0
C3437 C 0.70685 0.85308 0.27606 0.0
C3438 C 0.71236 0.86695 0.27561 0.0
C3439 C 0.694 0.84484 0.28919 0.0
C3440 C 0.68641 0.8503 0.30202 0.0
C3441 C 0.69176 0.86411 0.30101 0.0
C3442 C 0.70466 0.87237 0.28815 0.0
C3443 C 0.67285 0.84159 0.31637 0.0
C3444 C 0.66218 0.84164 0.29868 0.0
C3445 C 0.67037 0.83291 0.34628 0.0
C3446 C 0.6813 0.83279 0.36689 0.0
C3447 C 0.69151 0.84452 0.38255 0.0
C3448 C 0.70185 0.84436 0.40162 0.0
C3449 C 0.70204 0.83251 0.40545 0.0
C3450 C 0.69187 0.82079 0.39032 0.0
C3451 C 0.68151 0.82089 0.37119 0.0
H3452 H 0.71006 0.83241 0.42021 0.0
H3453 H 0.60972 0.8328 0.2319 0.0
H3454 H 0.20759 0.81309 0.32774 0.0
H3455 H 0.19343 0.82124 0.30357 0.0
H3456 H 0.16 0.79056 0.3625 0.0
H3457 H 0.17405 0.7822 0.3865 0.0
H3458 H 0.15324 0.79314 0.29315 0.0
H3459 H 0.17576 0.82194 0.3944 0.0
H3460 H 0.19509 0.83728 0.43169 0.0
H3461 H 0.21054 0.86458 0.34149 0.0
H3462 H 0.19139 0.84931 0.30347 0.0
H3463 H 0.11231 0.82286 0.27838 0.0
H3464 H 0.12512 0.81262 0.29901 0.0
H3465 H 0.15965 0.84291 0.2428 0.0
H3466 H 0.14703 0.85329 0.22249 0.0
H3467 H 0.16536 0.84009 0.31199 0.0
H3468 H 0.14271 0.81114 0.21063 0.0
H3469 H 0.12325 0.7958 0.17379 0.0
H3470 H 0.10782 0.7688 0.26465 0.0
H3471 H 0.12712 0.78408 0.30223 0.0
C3472 C 0.19723 0.80806 0.33565 0.0
C3473 C 0.19198 0.79703 0.35925 0.0
C3474 C 0.18916 0.81276 0.32185 0.0
C3475 C 0.1757 0.80659 0.33157 0.0
C3476 C 0.17037 0.79547 0.3547 0.0
C3477 C 0.17843 0.79075 0.3685 0.0
C3478 C 0.16723 0.81182 0.31777 0.0
C3479 C 0.15578 0.80336 0.29765 0.0
C3480 C 0.17069 0.82521 0.32314 0.0
C3481 C 0.1822 0.83442 0.34597 0.0
C3482 C 0.18334 0.83117 0.38242 0.0
C3483 C 0.19425 0.83986 0.40371 0.0
C3484 C 0.20405 0.85188 0.38894 0.0
C3485 C 0.20294 0.85525 0.35288 0.0
C3486 C 0.19206 0.84659 0.33145 0.0
C3487 C 0.12258 0.82725 0.27 0.0
C3488 C 0.12866 0.83893 0.24892 0.0
C3489 C 0.12988 0.82136 0.28176 0.0
C3490 C 0.14333 0.827 0.27237 0.0
C3491 C 0.1493 0.83843 0.25047 0.0
C3492 C 0.14204 0.84433 0.23881 0.0
C3493 C 0.15144 0.82147 0.28696 0.0
C3494 C 0.16281 0.82987 0.30741 0.0
C3495 C 0.14788 0.80804 0.28194 0.0
C3496 C 0.13629 0.79882 0.25936 0.0
C3497 C 0.13512 0.80199 0.22286 0.0
C3498 C 0.12413 0.79329 0.20182 0.0
C3499 C 0.11429 0.78135 0.2169 0.0
C3500 C 0.11544 0.77807 0.25303 0.0
C3501 C 0.12641 0.78673 0.27419 0.0
H3502 H 0.10579 0.77463 0.20057 0.0
H3503 H 0.21249 0.8586 0.40547 0.0
H3504 H 0.71423 0.82918 0.76342 0.0
H3505 H 0.69104 0.82209 0.7763 0.0
H3506 H 0.69825 0.86132 0.75046 0.0
H3507 H 0.72152 0.86854 0.73737 0.0
H3508 H 0.68457 0.85127 0.81623 0.0
H3509 H 0.68149 0.83754 0.69131 0.0
H3510 H 0.68521 0.82649 0.63879 0.0
H3511 H 0.66345 0.78884 0.69316 0.0
H3512 H 0.65975 0.7997 0.74627 0.0
H3513 H 0.61609 0.83152 0.82777 0.0
H3514 H 0.63871 0.84054 0.80471 0.0
H3515 H 0.63526 0.80203 0.81581 0.0
H3516 H 0.61261 0.79288 0.8381 0.0
H3517 H 0.64708 0.81321 0.75314 0.0
H3518 H 0.6518 0.82668 0.87957 0.0
H3519 H 0.64843 0.83733 0.93371 0.0
H3520 H 0.66741 0.87494 0.87834 0.0
H3521 H 0.67073 0.86447 0.82365 0.0
C3522 C 0.71089 0.8363 0.76027 0.0
C3523 C 0.71973 0.84942 0.7493 0.0
C3524 C 0.69762 0.83221 0.76751 0.0
C3525 C 0.69293 0.84116 0.76406 0.0
C3526 C 0.70169 0.85427 0.75317 0.0
C3527 C 0.71496 0.85834 0.74558 0.0
C3528 C 0.67895 0.83688 0.77294 0.0
C3529 C 0.67634 0.84311 0.80202 0.0
C3530 C 0.66828 0.82604 0.75487 0.0
C3531 C 0.67044 0.81946 0.72291 0.0
C3532 C 0.67758 0.82692 0.6922 0.0
C3533 C 0.67967 0.82069 0.6623 0.0
C3534 C 0.67459 0.80698 0.66267 0.0
C3535 C 0.66738 0.79947 0.69292 0.0
C3536 C 0.66528 0.80565 0.72291 0.0
C3537 C 0.62012 0.82496 0.82518 0.0
C3538 C 0.61254 0.81149 0.83497 0.0
C3539 C 0.63308 0.83014 0.81211 0.0
C3540 C 0.63873 0.82199 0.80895 0.0
C3541 C 0.6311 0.8085 0.81801 0.0
C3542 C 0.61815 0.8033 0.83088 0.0
C3543 C 0.65267 0.82748 0.79682 0.0
C3544 C 0.65528 0.82146 0.76713 0.0
C3545 C 0.66336 0.83845 0.81453 0.0
C3546 C 0.66137 0.84476 0.84737 0.0
C3547 C 0.65516 0.8372 0.87883 0.0
C3548 C 0.65327 0.8432 0.90964 0.0
C3549 C 0.65767 0.85679 0.90943 0.0
C3550 C 0.66399 0.86441 0.87844 0.0
C3551 C 0.66588 0.85845 0.84754 0.0
H3552 H 0.65621 0.86142 0.93331 0.0
H3553 H 0.67622 0.80217 0.63949 0.0
H3554 H 0.15843 0.78643 0.87392 0.0
H3555 H 0.14895 0.79997 0.85394 0.0
H3556 H 0.18205 0.83464 0.90166 0.0
H3557 H 0.19154 0.82117 0.92216 0.0
H3558 H 0.15872 0.83428 0.91324 0.0
H3559 H 0.18183 0.8287 0.81159 0.0
H3560 H 0.18713 0.81596 0.76749 0.0
H3561 H 0.14702 0.79646 0.72783 0.0
H3562 H 0.14144 0.80895 0.77209 0.0
H3563 H 0.15738 0.88553 0.81208 0.0
H3564 H 0.16312 0.87005 0.84024 0.0
H3565 H 0.1296 0.83729 0.78731 0.0
H3566 H 0.12384 0.85274 0.75859 0.0
H3567 H 0.15172 0.83571 0.77952 0.0
H3568 H 0.12856 0.84131 0.88117 0.0
H3569 H 0.1232 0.85365 0.92652 0.0
H3570 H 0.16347 0.87357 0.9647 0.0
H3571 H 0.16901 0.86112 0.92016 0.0
C3572 C 0.16363 0.7969 0.88058 0.0
C3573 C 0.17582 0.80274 0.89935 0.0
C3574 C 0.15821 0.80463 0.86902 0.0
C3575 C 0.16491 0.81834 0.87582 0.0
C3576 C 0.17674 0.82408 0.89604 0.0
C3577 C 0.18217 0.81636 0.90764 0.0
C3578 C 0.15995 0.82681 0.86025 0.0
C3579 C 0.15729 0.83468 0.88398 0.0
C3580 C 0.15784 0.82713 0.82214 0.0
C3581 C 0.16119 0.81965 0.79542 0.0
C3582 C 0.17412 0.82161 0.79367 0.0
C3583 C 0.17717 0.81445 0.76861 0.0
C3584 C 0.16741 0.80538 0.74495 0.0
C3585 C 0.15457 0.80348 0.74622 0.0
C3586 C 0.15146 0.8106 0.77127 0.0
C3587 C 0.15122 0.87504 0.80633 0.0
C3588 C 0.14019 0.87039 0.78287 0.0
C3589 C 0.15445 0.86619 0.82277 0.0
C3590 C 0.14669 0.8525 0.81626 0.0
C3591 C 0.13569 0.84782 0.79281 0.0
C3592 C 0.13243 0.85666 0.77637 0.0
C3593 C 0.15048 0.84319 0.83248 0.0
C3594 C 0.153 0.83521 0.80882 0.0
C3595 C 0.15247 0.84278 0.87061 0.0
C3596 C 0.14922 0.85037 0.89716 0.0
C3597 C 0.13628 0.84837 0.89911 0.0
C3598 C 0.1332 0.85536 0.92471 0.0
C3599 C 0.14301 0.86449 0.94818 0.0
C3600 C 0.15589 0.86653 0.94642 0.0
C3601 C 0.15899 0.85944 0.92118 0.0
H3602 H 0.14061 0.86993 0.96783 0.0
H3603 H 0.16979 0.79985 0.72556 0.0
H3604 H 0.21541 0.38071 0.85214 0.0
H3605 H 0.20023 0.35879 0.82684 0.0
H3606 H 0.16769 0.35808 0.88534 0.0
H3607 H 0.1828 0.37988 0.91118 0.0
H3608 H 0.16675 0.33466 0.89034 0.0
H3609 H 0.17179 0.36492 0.7938 0.0
H3610 H 0.18405 0.3832 0.74997 0.0
H3611 H 0.20119 0.36173 0.7009 0.0
H3612 H 0.1891 0.34334 0.74465 0.0
H3613 H 0.11415 0.28122 0.79555 0.0
H3614 H 0.12919 0.30357 0.81847 0.0
H3615 H 0.16189 0.30374 0.76248 0.0
H3616 H 0.14693 0.28145 0.73911 0.0
H3617 H 0.16272 0.32747 0.7558 0.0
H3618 H 0.15752 0.29719 0.85262 0.0
H3619 H 0.145 0.27887 0.89614 0.0
H3620 H 0.12806 0.30058 0.9449 0.0
H3621 H 0.14035 0.31897 0.90131 0.0
C3622 C 0.20505 0.37587 0.85984 0.0
C3623 C 0.20033 0.38209 0.88365 0.0
C3624 C 0.19636 0.36337 0.84515 0.0
C3625 C 0.18279 0.35689 0.85379 0.0
C3626 C 0.17811 0.36292 0.87821 0.0
C3627 C 0.18678 0.3754 0.89293 0.0
C3628 C 0.17345 0.34381 0.83742 0.0
C3629 C 0.16574 0.33314 0.86091 0.0
C3630 C 0.17234 0.34176 0.79903 0.0
C3631 C 0.17964 0.35281 0.77272 0.0
C3632 C 0.17825 0.36414 0.77384 0.0
C3633 C 0.18515 0.3745 0.74896 0.0
C3634 C 0.19342 0.37364 0.72273 0.0
C3635 C 0.19479 0.36239 0.72126 0.0
C3636 C 0.1879 0.35198 0.74604 0.0
C3637 C 0.12452 0.28604 0.78782 0.0
C3638 C 0.12935 0.27949 0.76569 0.0
C3639 C 0.13311 0.2988 0.80108 0.0
C3640 C 0.14669 0.30523 0.79259 0.0
C3641 C 0.15145 0.29893 0.76944 0.0
C3642 C 0.14288 0.28617 0.75619 0.0
C3643 C 0.156 0.31835 0.80874 0.0
C3644 C 0.16372 0.32902 0.78522 0.0
C3645 C 0.15711 0.32041 0.84712 0.0
C3646 C 0.14975 0.30939 0.87345 0.0
C3647 C 0.15105 0.29801 0.87243 0.0
C3648 C 0.144 0.28763 0.89714 0.0
C3649 C 0.13571 0.28855 0.9232 0.0
C3650 C 0.13447 0.29988 0.92467 0.0
C3651 C 0.14148 0.31029 0.89998 0.0
H3652 H 0.13027 0.28049 0.94232 0.0
H3653 H 0.19874 0.38167 0.70347 0.0
H3654 H 0.86141 0.70358 0.73459 0.0
H3655 H 0.85369 0.68177 0.70705 0.0
H3656 H 0.81629 0.67901 0.68046 0.0
H3657 H 0.82386 0.70075 0.7081 0.0
H3658 H 0.81287 0.65575 0.70806 0.0
H3659 H 0.8387 0.68643 0.61204 0.0
H3660 H 0.85836 0.70532 0.58411 0.0
H3661 H 0.8819 0.68759 0.61159 0.0
H3662 H 0.86229 0.66846 0.63921 0.0
H3663 H 0.78894 0.60507 0.57431 0.0
H3664 H 0.79766 0.62681 0.60317 0.0
H3665 H 0.83347 0.62665 0.63239 0.0
H3666 H 0.82486 0.60489 0.60363 0.0
H3667 H 0.83812 0.65106 0.6052 0.0
H3668 H 0.81114 0.61916 0.69672 0.0
H3669 H 0.7907 0.5997 0.71948 0.0
H3670 H 0.76884 0.61979 0.69924 0.0
H3671 H 0.78913 0.63933 0.67607 0.0
C3672 C 0.8515 0.6983 0.72315 0.0
C3673 C 0.84327 0.70394 0.72347 0.0
C3674 C 0.84714 0.68587 0.70722 0.0
C3675 C 0.83447 0.67885 0.69134 0.0
C3676 C 0.8261 0.68428 0.69251 0.0
C3677 C 0.83047 0.69672 0.70827 0.0
C3678 C 0.82999 0.66592 0.67308 0.0
C3679 C 0.81832 0.65475 0.68536 0.0
C3680 C 0.83724 0.66455 0.64395 0.0
C3681 C 0.84909 0.67611 0.62804 0.0
C3682 C 0.8481 0.68662 0.61239 0.0
C3683 C 0.85922 0.69735 0.59654 0.0
C3684 C 0.87141 0.69773 0.5964 0.0
C3685 C 0.87247 0.68731 0.61184 0.0
C3686 C 0.86134 0.67649 0.62743 0.0
C3687 C 0.79874 0.60971 0.58645 0.0
C3688 C 0.80618 0.60321 0.58682 0.0
C3689 C 0.80366 0.62209 0.60314 0.0
C3690 C 0.81611 0.62821 0.62035 0.0
C3691 C 0.82381 0.62204 0.6194 0.0
C3692 C 0.81886 0.6096 0.60297 0.0
C3693 C 0.82097 0.64093 0.64001 0.0
C3694 C 0.83272 0.65205 0.62806 0.0
C3695 C 0.81376 0.64224 0.66937 0.0
C3696 C 0.80163 0.63065 0.68426 0.0
C3697 C 0.80196 0.6194 0.69693 0.0
C3698 C 0.7904 0.60836 0.70992 0.0
C3699 C 0.77846 0.60847 0.71047 0.0
C3700 C 0.77809 0.61969 0.69859 0.0
C3701 C 0.78962 0.63077 0.68561 0.0
H3702 H 0.7695 0.59988 0.72023 0.0
H3703 H 0.88001 0.70607 0.58416 0.0
H3704 H 0.28697 0.12227 0.7248 0.0
H3705 H 0.3098 0.13758 0.707 0.0
H3706 H 0.30541 0.17072 0.74058 0.0
H3707 H 0.28236 0.15542 0.75788 0.0
H3708 H 0.31587 0.17478 0.6742 0.0
H3709 H 0.32532 0.16202 0.78897 0.0
H3710 H 0.32395 0.14676 0.83786 0.0
H3711 H 0.3399 0.1293 0.76498 0.0
H3712 H 0.3412 0.14434 0.71547 0.0
H3713 H 0.38458 0.21926 0.63592 0.0
H3714 H 0.36351 0.20694 0.6687 0.0
H3715 H 0.36036 0.17001 0.63441 0.0
H3716 H 0.3814 0.18219 0.6017 0.0
H3717 H 0.3546 0.17005 0.70777 0.0
H3718 H 0.34267 0.1814 0.59172 0.0
H3719 H 0.34394 0.19674 0.54317 0.0
H3720 H 0.33271 0.21719 0.62041 0.0
H3721 H 0.33154 0.20206 0.66955 0.0
C3722 C 0.29087 0.1328 0.72893 0.0
C3723 C 0.28279 0.13761 0.74267 0.0
C3724 C 0.30399 0.14155 0.7189 0.0
C3725 C 0.30937 0.1553 0.72274 0.0
C3726 C 0.30146 0.16014 0.73743 0.0
C3727 C 0.2883 0.15138 0.74741 0.0
C3728 C 0.3229 0.16456 0.70877 0.0
C3729 C 0.3244 0.17394 0.68218 0.0
C3730 C 0.33399 0.16332 0.71867 0.0
C3731 C 0.33327 0.15426 0.7484 0.0
C3732 C 0.32844 0.15487 0.78327 0.0
C3733 C 0.32769 0.14626 0.81112 0.0
C3734 C 0.33181 0.13705 0.80451 0.0
C3735 C 0.33671 0.13644 0.77005 0.0
C3736 C 0.33748 0.14502 0.7421 0.0
C3737 C 0.37939 0.20851 0.63522 0.0
C3738 C 0.38464 0.20171 0.61592 0.0
C3739 C 0.36735 0.2015 0.65398 0.0
C3740 C 0.36036 0.18758 0.6538 0.0
C3741 C 0.36562 0.18077 0.6349 0.0
C3742 C 0.37761 0.18775 0.616 0.0
C3743 C 0.34744 0.18003 0.67285 0.0
C3744 C 0.34609 0.17099 0.70032 0.0
C3745 C 0.33649 0.18162 0.66392 0.0
C3746 C 0.33717 0.1907 0.63439 0.0
C3747 C 0.34058 0.18924 0.59841 0.0
C3748 C 0.34126 0.19788 0.57078 0.0
C3749 C 0.33845 0.20796 0.57873 0.0
C3750 C 0.33491 0.20939 0.61431 0.0
C3751 C 0.33423 0.20078 0.64206 0.0
H3752 H 0.33898 0.21464 0.55729 0.0
H3753 H 0.33122 0.1304 0.8261 0.0
H3754 H 0.84124 0.13413 0.74387 0.0
H3755 H 0.82776 0.14325 0.72107 0.0
H3756 H 0.86314 0.1791 0.68845 0.0
H3757 H 0.8768 0.17006 0.71124 0.0
H3758 H 0.84405 0.18369 0.72224 0.0
H3759 H 0.84649 0.15696 0.62535 0.0
H3760 H 0.84454 0.13664 0.59835 0.0
H3761 H 0.80304 0.11516 0.62488 0.0
H3762 H 0.80479 0.13531 0.65254 0.0
H3763 H 0.81365 0.2078 0.59809 0.0
H3764 H 0.82756 0.20011 0.62691 0.0
H3765 H 0.7927 0.16286 0.65358 0.0
H3766 H 0.7787 0.17044 0.62477 0.0
H3767 H 0.81177 0.1592 0.62304 0.0
H3768 H 0.80886 0.1848 0.72138 0.0
H3769 H 0.81039 0.20422 0.7531 0.0
H3770 H 0.85177 0.22713 0.7262 0.0
H3771 H 0.85051 0.20782 0.69438 0.0
C3772 C 0.84621 0.14401 0.73218 0.0
C3773 C 0.86012 0.15133 0.72917 0.0
C3774 C 0.83846 0.14918 0.71905 0.0
C3775 C 0.84445 0.16177 0.70266 0.0
C3776 C 0.85834 0.16934 0.70091 0.0
C3777 C 0.86612 0.16415 0.71389 0.0
C3778 C 0.83616 0.16678 0.68626 0.0
C3779 C 0.83713 0.17847 0.70017 0.0
C3780 C 0.82689 0.15974 0.65816 0.0
C3781 C 0.8258 0.14762 0.64134 0.0
C3782 C 0.83697 0.14788 0.6257 0.0
C3783 C 0.8359 0.1364 0.61023 0.0
C3784 C 0.82368 0.12461 0.60998 0.0
C3785 C 0.8125 0.12429 0.62513 0.0
C3786 C 0.81353 0.13575 0.64068 0.0
C3787 C 0.80893 0.19796 0.61003 0.0
C3788 C 0.79506 0.1897 0.60894 0.0
C3789 C 0.8169 0.19363 0.62676 0.0
C3790 C 0.81116 0.18096 0.64263 0.0
C3791 C 0.79733 0.17269 0.64153 0.0
C3792 C 0.78935 0.17704 0.62505 0.0
C3793 C 0.81961 0.17612 0.65907 0.0
C3794 C 0.8187 0.16447 0.64507 0.0
C3795 C 0.82885 0.18314 0.68726 0.0
C3796 C 0.82956 0.19491 0.70521 0.0
C3797 C 0.81826 0.19402 0.72192 0.0
C3798 C 0.81909 0.20498 0.7401 0.0
C3799 C 0.83117 0.2169 0.74164 0.0
C3800 C 0.84243 0.21789 0.72499 0.0
C3801 C 0.84167 0.20693 0.70699 0.0
H3802 H 0.83179 0.22537 0.75576 0.0
H3803 H 0.82287 0.11573 0.59799 0.0
H3804 H 0.04334 0.49803 0.46558 0.0
H3805 H 0.0202 0.48837 0.48398 0.0
H3806 H 0.01964 0.52287 0.44313 0.0
H3807 H 0.04293 0.53276 0.42502 0.0
H3808 H 0.00839 0.51579 0.50996 0.0
H3809 H 0.00449 0.49391 0.39583 0.0
H3810 H 0.00923 0.4811 0.35061 0.0
H3811 H 0.99474 0.44828 0.42543 0.0
H3812 H 0.99008 0.46097 0.47133 0.0
H3813 H 0.93833 0.48744 0.51639 0.0
H3814 H 0.96132 0.49747 0.49594 0.0
H3815 H 0.96356 0.46415 0.53925 0.0
H3816 H 0.94049 0.45396 0.55967 0.0
H3817 H 0.9738 0.47086 0.46989 0.0
H3818 H 0.97809 0.49303 0.58433 0.0
H3819 H 0.97332 0.50591 0.62926 0.0
H3820 H 0.98702 0.53828 0.55313 0.0
H3821 H 0.9917 0.52552 0.50751 0.0
C3822 C 0.03831 0.50357 0.46032 0.0
C3823 C 0.045 0.51617 0.44374 0.0
C3824 C 0.02505 0.49799 0.47075 0.0
C3825 C 0.01817 0.50484 0.46455 0.0
C3826 C 0.02479 0.51742 0.44808 0.0
C3827 C 0.03808 0.52303 0.43766 0.0
C3828 C 0.00414 0.49895 0.47612 0.0
C3829 C 0.00078 0.50606 0.50074 0.0
C3830 C 0.99429 0.48612 0.46473 0.0
C3831 C 0.99705 0.47844 0.43715 0.0
C3832 C 0.00241 0.484 0.40276 0.0
C3833 C 0.00507 0.47675 0.37698 0.0
C3834 C 0.00232 0.46389 0.38517 0.0
C3835 C 0.99688 0.45824 0.41914 0.0
C3836 C 0.99421 0.46546 0.44503 0.0
C3837 C 0.9437 0.48224 0.52169 0.0
C3838 C 0.93757 0.46989 0.53974 0.0
C3839 C 0.95686 0.48802 0.51007 0.0
C3840 C 0.96416 0.4816 0.51635 0.0
C3841 C 0.95808 0.46926 0.53419 0.0
C3842 C 0.94492 0.46348 0.54595 0.0
C3843 C 0.97808 0.48768 0.50381 0.0
C3844 C 0.98142 0.48061 0.479 0.0
C3845 C 0.9879 0.50055 0.51496 0.0
C3846 C 0.98511 0.50826 0.54237 0.0
C3847 C 0.97998 0.50285 0.57704 0.0
C3848 C 0.97731 0.51014 0.60266 0.0
C3849 C 0.97983 0.52289 0.59402 0.0
C3850 C 0.98505 0.52839 0.55977 0.0
C3851 C 0.98772 0.52114 0.53403 0.0
H3852 H 0.97776 0.52852 0.6139 0.0
H3853 H 0.00438 0.4583 0.36518 0.0
H3854 H 0.46189 0.51388 0.39359 0.0
H3855 H 0.46977 0.49928 0.41638 0.0
H3856 H 0.50558 0.53328 0.4558 0.0
H3857 H 0.49779 0.54798 0.43322 0.0
H3858 H 0.51021 0.51468 0.42122 0.0
H3859 H 0.48181 0.51611 0.51465 0.0
H3860 H 0.46117 0.51396 0.53986 0.0
H3861 H 0.43986 0.47286 0.50893 0.0
H3862 H 0.46036 0.47481 0.48311 0.0
H3863 H 0.53345 0.48746 0.55439 0.0
H3864 H 0.52442 0.49981 0.5236 0.0
H3865 H 0.49041 0.46312 0.48895 0.0
H3866 H 0.49939 0.45057 0.51974 0.0
H3867 H 0.48392 0.48161 0.51715 0.0
H3868 H 0.51313 0.47999 0.42801 0.0
H3869 H 0.53411 0.48236 0.40499 0.0
H3870 H 0.55419 0.52406 0.42899 0.0
H3871 H 0.53336 0.52191 0.45271 0.0
C3872 C 0.47151 0.51828 0.40672 0.0
C3873 C 0.47918 0.5321 0.41175 0.0
C3874 C 0.47596 0.50991 0.41988 0.0
C3875 C 0.48818 0.51521 0.43809 0.0
C3876 C 0.4961 0.52901 0.44186 0.0
C3877 C 0.49161 0.53738 0.42901 0.0
C3878 C 0.49254 0.50636 0.45431 0.0
C3879 C 0.50453 0.50752 0.44238 0.0
C3880 C 0.48494 0.49681 0.48132 0.0
C3881 C 0.47258 0.49564 0.49653 0.0
C3882 C 0.47269 0.50664 0.51288 0.0
C3883 C 0.46103 0.50546 0.52737 0.0
C3884 C 0.4492 0.49329 0.5259 0.0
C3885 C 0.44903 0.48228 0.50999 0.0
C3886 C 0.46066 0.48342 0.49544 0.0
C3887 C 0.52402 0.48197 0.54037 0.0
C3888 C 0.51716 0.46801 0.53946 0.0
C3889 C 0.51891 0.48906 0.52263 0.0
C3890 C 0.50683 0.48237 0.50367 0.0
C3891 C 0.49978 0.46845 0.50334 0.0
C3892 C 0.50494 0.46131 0.52089 0.0
C3893 C 0.50166 0.49002 0.48431 0.0
C3894 C 0.48953 0.48866 0.49567 0.0
C3895 C 0.50915 0.49941 0.45686 0.0
C3896 C 0.5217 0.50076 0.44244 0.0
C3897 C 0.52204 0.48965 0.42867 0.0
C3898 C 0.5339 0.49096 0.41544 0.0
C3899 C 0.54548 0.50335 0.4156 0.0
C3900 C 0.54522 0.51447 0.42891 0.0
C3901 C 0.53338 0.51321 0.44222 0.0
H3902 H 0.55466 0.50434 0.40534 0.0
H3903 H 0.44019 0.49239 0.53718 0.0
H3904 H 0.50792 0.04052 0.58532 0.0
H3905 H 0.49377 0.01816 0.56152 0.0
H3906 H 0.52792 0.0187 0.5137 0.0
H3907 H 0.54217 0.04118 0.53694 0.0
H3908 H 0.50782 0.0102 0.46538 0.0
H3909 H 0.51308 0.00027 0.58984 0.0
H3910 H 0.51261 0.00201 0.65711 0.0
H3911 H 0.47082 0.98816 0.65336 0.0
H3912 H 0.47107 0.98651 0.58599 0.0
H3913 H 0.47787 0.94182 0.42214 0.0
H3914 H 0.49174 0.96406 0.44699 0.0
H3915 H 0.45716 0.96304 0.49331 0.0
H3916 H 0.44316 0.94068 0.46888 0.0
H3917 H 0.47723 0.97181 0.5424 0.0
H3918 H 0.47188 0.98159 0.41821 0.0
H3919 H 0.47227 0.97994 0.35091 0.0
H3920 H 0.51414 0.99414 0.35406 0.0
H3921 H 0.51397 0.99571 0.42147 0.0
C3922 C 0.51247 0.03585 0.57004 0.0
C3923 C 0.5262 0.04266 0.56304 0.0
C3924 C 0.50435 0.02304 0.55654 0.0
C3925 C 0.50981 0.01674 0.53604 0.0
C3926 C 0.52352 0.0234 0.52944 0.0
C3927 C 0.53165 0.03623 0.54289 0.0
C3928 C 0.50113 0.00337 0.52035 0.0
C3929 C 0.50128 0.00175 0.48227 0.0
C3930 C 0.49232 0.99246 0.5423 0.0
C3931 C 0.49212 0.99339 0.58283 0.0
C3932 C 0.50381 0.9977 0.60333 0.0
C3933 C 0.50358 -0.00135 0.64149 0.0
C3934 C 0.4917 0.99523 0.65949 0.0
C3935 C 0.48002 0.99082 0.63938 0.0
C3936 C 0.4802 0.98986 0.60121 0.0
C3937 C 0.47317 0.94633 0.43741 0.0
C3938 C 0.45938 0.93945 0.44348 0.0
C3939 C 0.48113 0.95907 0.4515 0.0
C3940 C 0.47547 0.96524 0.47174 0.0
C3941 C 0.46172 0.95845 0.47773 0.0
C3942 C 0.45373 0.94569 0.46362 0.0
C3943 C 0.48398 0.97863 0.48746 0.0
C3944 C 0.48378 0.98026 0.52552 0.0
C3945 C 0.49274 0.98955 0.46549 0.0
C3946 C 0.49288 0.98864 0.42493 0.0
C3947 C 0.48115 0.98426 0.40459 0.0
C3948 C 0.48134 0.98336 0.36641 0.0
C3949 C 0.49322 0.9869 0.34823 0.0
C3950 C 0.50494 0.99139 0.36819 0.0
C3951 C 0.50481 0.99229 0.40638 0.0
H3952 H 0.49334 0.9862 0.31867 0.0
H3953 H 0.49154 0.99597 0.68903 0.0
H3954 H 0.54258 0.05668 0.04407 0.0
H3955 H 0.5351 0.03518 0.01484 0.0
H3956 H 0.49908 0.03399 0.98039 0.0
H3957 H 0.5065 0.05553 0.00929 0.0
H3958 H 0.49452 0.01089 0.01395 0.0
H3959 H 0.52139 0.03916 0.91741 0.0
H3960 H 0.54128 0.0571 0.88746 0.0
H3961 H 0.56349 0.03812 0.91697 0.0
H3962 H 0.54374 0.02009 0.94733 0.0
H3963 H 0.47183 0.95355 0.90299 0.0
H3964 H 0.47951 0.97636 0.92229 0.0
H3965 H 0.51673 0.98032 0.95713 0.0
H3966 H 0.50918 0.95753 0.93773 0.0
H3967 H 0.5202 0.00239 0.92005 0.0
H3968 H 0.49414 0.97584 0.02283 0.0
H3969 H 0.4744 0.95814 0.05389 0.0
H3970 H 0.45076 0.97402 0.0118 0.0
H3971 H 0.47047 0.992 0.98097 0.0
C3972 C 0.53307 0.05186 0.03025 0.0
C3973 C 0.52511 0.0578 0.02917 0.0
C3974 C 0.52886 0.03963 0.01332 0.0
C3975 C 0.51658 0.03305 -0.00477 0.0
C3976 C 0.5086 0.03893 -0.00588 0.0
C3977 C 0.51287 0.05124 0.01068 0.0
C3978 C 0.51178 0.01973 0.97916 0.0
C3979 C 0.50002 0.00908 -0.00707 0.0
C3980 C 0.51911 0.01734 0.95236 0.0
C3981 C 0.5311 0.02832 0.93492 0.0
C3982 C 0.53054 0.03887 0.91783 0.0
C3983 C 0.54177 0.04902 0.90062 0.0
C3984 C 0.55363 0.04874 0.9003 0.0
C3985 C 0.55429 0.03832 0.91722 0.0
C3986 C 0.54307 0.02811 0.93436 0.0
C3987 C 0.48169 0.95928 0.91451 0.0
C3988 C 0.48987 0.95367 0.91893 0.0
C3989 C 0.48603 0.9723 0.9257 0.0
C3990 C 0.49863 0.97998 0.94153 0.0
C3991 C 0.50696 0.97456 0.94503 0.0
C3992 C 0.50261 0.96151 0.93399 0.0
C3993 C 0.50301 0.99357 0.95508 0.0
C3994 C 0.51468 0.00425 0.94087 0.0
C3995 C 0.49561 0.99603 0.98148 0.0
C3996 C 0.48371 0.98514 -0.0007 0.0
C3997 C 0.4847 0.97548 0.01997 0.0
C3998 C 0.47353 0.96542 0.0376 0.0
C3999 C 0.46129 0.96486 0.03452 0.0
C4000 C 0.46023 0.97444 0.01405 0.0
C4001 C 0.47141 0.9846 -0.00335 0.0
H4002 H 0.45265 0.95704 0.04816 0.0
H4003 H 0.56231 0.05661 0.88692 0.0
H4004 H 0.95655 0.45325 0.02429 0.0
H4005 H 0.97953 0.46714 0.00433 0.0
H4006 H 0.97967 0.50181 0.04667 0.0
H4007 H 0.95666 0.48806 0.06631 0.0
H4008 H 0.98992 0.5061 0.9787 0.0
H4009 H 0.99567 0.48826 0.09158 0.0
H4010 H 0.99197 0.47053 0.13519 0.0
H4011 H 0.00724 0.45407 0.0568 0.0
H4012 H 0.01087 0.47161 0.01251 0.0
H4013 H 0.05869 0.55203 0.97379 0.0
H4014 H 0.03589 0.53721 -0.00672 0.0
H4015 H 0.03771 0.50369 0.94986 0.0
H4016 H 0.06066 0.51844 0.9307 0.0
H4017 H 0.02637 0.49827 0.01668 0.0
H4018 H 0.02104 0.51633 0.90423 0.0
H4019 H 0.02474 0.53403 0.86052 0.0
H4020 H 0.00857 0.54998 0.93775 0.0
H4021 H 0.00495 0.53248 0.98215 0.0
C4022 C 0.96148 0.46382 0.02957 0.0
C4023 C 0.95474 0.46953 0.04693 0.0
C4024 C 0.97464 0.47174 0.01823 0.0
C4025 C 0.98134 0.4855 0.02423 0.0
C4026 C 0.97468 0.49121 0.04174 0.0
C4027 C 0.96153 0.48332 0.05306 0.0
C4028 C 0.99518 0.49402 0.01145 0.0
C4029 C -0.00208 0.5045 0.98738 0.0
C4030 C 0.00555 0.49169 0.02197 0.0
C4031 C 0.00341 0.48117 0.0486 0.0
C4032 C -0.00186 0.4808 0.08353 0.0
C4033 C 0.99607 0.4708 0.10839 0.0
C4034 C -0.00067 0.46116 0.09873 0.0
C4035 C 0.0047 0.46153 0.06422 0.0
C4036 C 0.00678 0.4715 0.03924 0.0
C4037 C 0.05426 0.54151 0.96825 0.0
C4038 C 0.06151 0.53644 0.95052 0.0
C4039 C 0.04119 0.53306 0.97932 0.0
C4040 C 0.03504 0.51936 0.97263 0.0
C4041 C 0.04226 0.51423 0.95523 0.0
C4042 C 0.05536 0.52269 0.94418 0.0
C4043 C 0.02112 0.51042 0.98417 0.0
C4044 C 0.01836 0.49986 0.00794 0.0
C4045 C 0.01072 0.51266 0.97335 0.0
C4046 C 0.01283 0.52316 0.94664 0.0
C4047 C 0.01837 0.52367 0.912 0.0
C4048 C 0.02044 0.53366 0.88708 0.0
C4049 C 0.01692 0.54314 0.89638 0.0
C4050 C 0.0113 0.54264 0.9306 0.0
C4051 C 0.00923 0.53268 0.95564 0.0
H4052 H 0.01853 0.55086 0.87705 0.0
H4053 H -0.00227 0.45343 0.11802 0.0
H4054 H 0.54895 0.5023 0.05878 0.0
H4055 H 0.53433 0.51007 0.03605 0.0
H4056 H 0.50061 0.47589 0.08353 0.0
H4057 H 0.51516 0.46792 0.10609 0.0
H4058 H 0.49621 0.4791 0.01305 0.0
H4059 H 0.51158 0.50655 0.11928 0.0
H4060 H 0.52802 0.52236 0.16308 0.0
H4061 H 0.54512 0.55179 0.0783 0.0
H4062 H 0.5289 0.53609 0.03384 0.0
H4063 H 0.45183 0.50288 0.96928 0.0
H4064 H 0.46485 0.49489 0.00187 0.0
H4065 H 0.50086 0.52709 0.95678 0.0
H4066 H 0.48798 0.5352 0.92429 0.0
H4067 H 0.50286 0.52431 0.03041 0.0
H4068 H 0.48846 0.49623 0.92359 0.0
H4069 H 0.47208 0.48037 0.87975 0.0
H4070 H 0.4531 0.45206 0.96637 0.0
H4071 H 0.46927 0.46784 0.01084 0.0
C4072 C 0.53846 0.49651 0.06492 0.0
C4073 C 0.53323 0.48445 0.08415 0.0
C4074 C 0.53011 0.50101 0.05199 0.0
C4075 C 0.51638 0.49358 0.05821 0.0
C4076 C 0.51118 0.48176 0.0784 0.0
C4077 C 0.51953 0.47726 0.09141 0.0
C4078 C 0.50742 0.49773 0.04142 0.0
C4079 C 0.49749 0.4889 0.01741 0.0
C4080 C 0.5093 0.51061 0.04648 0.0
C4081 C 0.51908 0.52009 0.07314 0.0
C4082 C 0.51891 0.51636 0.10989 0.0
C4083 C 0.52818 0.52531 0.13486 0.0
C4084 C 0.53763 0.53806 0.12346 0.0
C4085 C 0.53781 0.5419 0.08708 0.0
C4086 C 0.52857 0.53299 0.062 0.0
C4087 C 0.46251 0.50822 0.96607 0.0
C4088 C 0.46886 0.51968 0.94411 0.0
C4089 C 0.46993 0.50363 0.9847 0.0
C4090 C 0.48381 0.51038 0.98165 0.0
C4091 C 0.49016 0.52176 0.95958 0.0
C4092 C 0.48276 0.52633 0.94087 0.0
C4093 C 0.49178 0.50573 0.00179 0.0
C4094 C 0.50151 0.51447 0.02638 0.0
C4095 C 0.48971 0.49276 -0.00269 0.0
C4096 C 0.47998 0.48327 0.97061 0.0
C4097 C 0.48072 0.48667 0.93335 0.0
C4098 C 0.47149 0.47769 0.90837 0.0
C4099 C 0.46153 0.46523 0.92028 0.0
C4100 C 0.4608 0.46172 0.95719 0.0
C4101 C 0.47 0.47067 0.98229 0.0
H4102 H 0.45439 0.45829 0.9009 0.0
H4103 H 0.54479 0.54498 0.14284 0.0
loop_
_geom_bond_atom_site_label_1
_geom_bond_atom_site_label_2
_geom_bond_distance
_geom_bond_site_symmetry_2
_ccdc_geom_bond_type
C0 O1 1.306 . S
C0 O3 1.160 . S
O1 C0 1.306 . S
O1 Cd2 2.228 . S
Cd2 O1 2.228 . S
Cd2 O6 2.273 . S
Cd2 O10 2.277 . S
O3 C0 1.160 . S
O3 Cd4 2.203 . S
Cd4 O3 2.203 . S
Cd4 O6 2.411 . S
Cd4 O7 2.333 . S
Cd4 O8 2.352 . S
Cd4 O12 2.277 . S
Cd4 O13 2.356 . S
C5 O10 1.209 . S
C5 O12 1.226 . S
O6 Cd2 2.273 . S
O6 Cd4 2.411 . S
O6 C9 1.320 . S
O7 Cd4 2.333 . S
O7 C9 1.214 . S
O8 Cd4 2.352 . S
O8 C11 1.258 . S
C9 O6 1.320 . S
C9 O7 1.214 . S
O10 Cd2 2.277 . S
O10 C5 1.209 . S
C11 O8 1.258 . S
C11 O13 1.282 . S
O12 Cd4 2.277 . S
O12 C5 1.226 . S
O13 Cd4 2.356 . S
O13 C11 1.282 . S
C14 O15 1.306 . S
C14 O17 1.160 . S
O15 C14 1.306 . S
O15 Cd16 2.228 . S
Cd16 O15 2.228 . S
Cd16 O20 2.273 . S
Cd16 O24 2.277 . S
O17 C14 1.160 . S
O17 Cd18 2.203 . S
Cd18 O17 2.203 . S
Cd18 O20 2.411 . S
Cd18 O21 2.333 . S
Cd18 O22 2.352 . S
Cd18 O26 2.277 . S
Cd18 O27 2.356 . S
C19 O24 1.209 . S
C19 O26 1.226 . S
O20 Cd16 2.273 . S
O20 Cd18 2.411 . S
O20 C23 1.320 . S
O21 Cd18 2.333 . S
O21 C23 1.214 . S
O22 Cd18 2.352 . S
O22 C25 1.258 . S
C23 O20 1.320 . S
C23 O21 1.214 . S
O24 Cd16 2.277 . S
O24 C19 1.209 . S
C25 O22 1.258 . S
C25 O27 1.282 . S
O26 Cd18 2.277 . S
O26 C19 1.226 . S
O27 Cd18 2.356 . S
O27 C25 1.282 . S
C28 O29 1.306 . S
C28 O31 1.160 . S
O29 C28 1.306 . S
O29 Cd30 2.228 . S
Cd30 O29 2.228 . S
Cd30 O34 2.273 . S
Cd30 O38 2.277 . S
O31 C28 1.160 . S
O31 Cd32 2.203 . S
Cd32 O31 2.203 . S
Cd32 O34 2.411 . S
Cd32 O35 2.333 . S
Cd32 O36 2.352 . S
Cd32 O40 2.277 . S
Cd32 O41 2.356 . S
C33 O38 1.209 . S
C33 O40 1.226 . S
O34 Cd30 2.273 . S
O34 Cd32 2.411 . S
O34 C37 1.320 . S
O35 Cd32 2.333 . S
O35 C37 1.214 . S
O36 Cd32 2.352 . S
O36 C39 1.258 . S
C37 O34 1.320 . S
C37 O35 1.214 . S
O38 Cd30 2.277 . S
O38 C33 1.209 . S
C39 O36 1.258 . S
C39 O41 1.282 . S
O40 Cd32 2.277 . S
O40 C33 1.226 . S
O41 Cd32 2.356 . S
O41 C39 1.282 . S
C42 O43 1.306 . S
C42 O45 1.160 . S
O43 C42 1.306 . S
O43 Cd44 2.228 . S
Cd44 O43 2.228 . S
Cd44 O48 2.273 . S
Cd44 O52 2.277 . S
O45 C42 1.160 . S
O45 Cd46 2.203 . S
Cd46 O45 2.203 . S
Cd46 O48 2.411 . S
Cd46 O49 2.333 . S
Cd46 O50 2.352 . S
Cd46 O54 2.277 . S
Cd46 O55 2.356 . S
C47 O52 1.209 . S
C47 O54 1.226 . S
O48 Cd44 2.273 . S
O48 Cd46 2.411 . S
O48 C51 1.320 . S
O49 Cd46 2.333 . S
O49 C51 1.214 . S
O50 Cd46 2.352 . S
O50 C53 1.258 . S
C51 O48 1.320 . S
C51 O49 1.214 . S
O52 Cd44 2.277 . S
O52 C47 1.209 . S
C53 O50 1.258 . S
C53 O55 1.282 . S
O54 Cd46 2.277 . S
O54 C47 1.226 . S
O55 Cd46 2.356 . S
O55 C53 1.282 . S
C56 O57 1.306 . S
C56 O59 1.160 . S
O57 C56 1.306 . S
O57 Cd58 2.228 . S
Cd58 O57 2.228 . S
Cd58 O62 2.273 . S
Cd58 O66 2.277 . S
O59 C56 1.160 . S
O59 Cd60 2.203 . S
Cd60 O59 2.203 . S
Cd60 O62 2.411 . S
Cd60 O63 2.333 . S
Cd60 O64 2.352 . S
Cd60 O68 2.277 . S
Cd60 O69 2.356 . S
C61 O66 1.209 . S
C61 O68 1.226 . S
O62 Cd58 2.273 . S
O62 Cd60 2.411 . S
O62 C65 1.320 . S
O63 Cd60 2.333 . S
O63 C65 1.214 . S
O64 Cd60 2.352 . S
O64 C67 1.258 . S
C65 O62 1.320 . S
C65 O63 1.214 . S
O66 Cd58 2.277 . S
O66 C61 1.209 . S
C67 O64 1.258 . S
C67 O69 1.282 . S
O68 Cd60 2.277 . S
O68 C61 1.226 . S
O69 Cd60 2.356 . S
O69 C67 1.282 . S
C70 O71 1.306 . S
C70 O73 1.160 . S
O71 C70 1.306 . S
O71 Cd72 2.228 . S
Cd72 O71 2.228 . S
Cd72 O76 2.273 . S
Cd72 O80 2.277 . S
O73 C70 1.160 . S
O73 Cd74 2.203 . S
Cd74 O73 2.203 . S
Cd74 O76 2.411 . S
Cd74 O77 2.333 . S
Cd74 O78 2.352 . S
Cd74 O82 2.277 . S
Cd74 O83 2.356 . S
C75 O80 1.209 . S
C75 O82 1.226 . S
O76 Cd72 2.273 . S
O76 Cd74 2.411 . S
O76 C79 1.320 . S
O77 Cd74 2.333 . S
O77 C79 1.214 . S
O78 Cd74 2.352 . S
O78 C81 1.258 . S
C79 O76 1.320 . S
C79 O77 1.214 . S
O80 Cd72 2.277 . S
O80 C75 1.209 . S
C81 O78 1.258 . S
C81 O83 1.282 . S
O82 Cd74 2.277 . S
O82 C75 1.226 . S
O83 Cd74 2.356 . S
O83 C81 1.282 . S
C84 O85 1.306 . S
C84 O87 1.160 . S
O85 C84 1.306 . S
O85 Cd86 2.228 . S
Cd86 O85 2.228 . S
Cd86 O90 2.273 . S
Cd86 O94 2.277 . S
O87 C84 1.160 . S
O87 Cd88 2.203 . S
Cd88 O87 2.203 . S
Cd88 O90 2.411 . S
Cd88 O91 2.333 . S
Cd88 O92 2.352 . S
Cd88 O96 2.277 . S
Cd88 O97 2.356 . S
C89 O94 1.209 . S
C89 O96 1.226 . S
O90 Cd86 2.273 . S
O90 Cd88 2.411 . S
O90 C93 1.320 . S
O91 Cd88 2.333 . S
O91 C93 1.214 . S
O92 Cd88 2.352 . S
O92 C95 1.258 . S
C93 O90 1.320 . S
C93 O91 1.214 . S
O94 Cd86 2.277 . S
O94 C89 1.209 . S
C95 O92 1.258 . S
C95 O97 1.282 . S
O96 Cd88 2.277 . S
O96 C89 1.226 . S
O97 Cd88 2.356 . S
O97 C95 1.282 . S
C98 O99 1.306 . S
C98 O101 1.160 . S
O99 C98 1.306 . S
O99 Cd100 2.228 . S
Cd100 O99 2.228 . S
Cd100 O104 2.273 . S
Cd100 O108 2.277 . S
O101 C98 1.160 . S
O101 Cd102 2.203 . S
Cd102 O101 2.203 . S
Cd102 O104 2.411 . S
Cd102 O105 2.333 . S
Cd102 O106 2.352 . S
Cd102 O110 2.277 . S
Cd102 O111 2.356 . S
C103 O108 1.209 . S
C103 O110 1.226 . S
O104 Cd100 2.273 . S
O104 Cd102 2.411 . S
O104 C107 1.320 . S
O105 Cd102 2.333 . S
O105 C107 1.214 . S
O106 Cd102 2.352 . S
O106 C109 1.258 . S
C107 O104 1.320 . S
C107 O105 1.214 . S
O108 Cd100 2.277 . S
O108 C103 1.209 . S
C109 O106 1.258 . S
C109 O111 1.282 . S
O110 Cd102 2.277 . S
O110 C103 1.226 . S
O111 Cd102 2.356 . S
O111 C109 1.282 . S
C112 O113 1.306 . S
C112 O115 1.160 . S
O113 C112 1.306 . S
O113 Cd114 2.228 . S
Cd114 O113 2.228 . S
Cd114 O118 2.273 . S
Cd114 O122 2.277 . S
O115 C112 1.160 . S
O115 Cd116 2.203 . S
Cd116 O115 2.203 . S
Cd116 O118 2.411 . S
Cd116 O119 2.333 . S
Cd116 O120 2.352 . S
Cd116 O124 2.277 . S
Cd116 O125 2.356 . S
C117 O122 1.209 . S
C117 O124 1.226 . S
O118 Cd114 2.273 . S
O118 Cd116 2.411 . S
O118 C121 1.320 . S
O119 Cd116 2.333 . S
O119 C121 1.214 . S
O120 Cd116 2.352 . S
O120 C123 1.258 . S
C121 O118 1.320 . S
C121 O119 1.214 . S
O122 Cd114 2.277 . S
O122 C117 1.209 . S
C123 O120 1.258 . S
C123 O125 1.282 . S
O124 Cd116 2.277 . S
O124 C117 1.226 . S
O125 Cd116 2.356 . S
O125 C123 1.282 . S
C126 O127 1.306 . S
C126 O129 1.160 . S
O127 C126 1.306 . S
O127 Cd128 2.228 . S
Cd128 O127 2.228 . S
Cd128 O132 2.273 . S
Cd128 O136 2.277 . S
O129 C126 1.160 . S
O129 Cd130 2.203 . S
Cd130 O129 2.203 . S
Cd130 O132 2.411 . S
Cd130 O133 2.333 . S
Cd130 O134 2.352 . S
Cd130 O138 2.277 . S
Cd130 O139 2.356 . S
C131 O136 1.209 . S
C131 O138 1.226 . S
O132 Cd128 2.273 . S
O132 Cd130 2.411 . S
O132 C135 1.320 . S
O133 Cd130 2.333 . S
O133 C135 1.214 . S
O134 Cd130 2.352 . S
O134 C137 1.258 . S
C135 O132 1.320 . S
C135 O133 1.214 . S
O136 Cd128 2.277 . S
O136 C131 1.209 . S
C137 O134 1.258 . S
C137 O139 1.282 . S
O138 Cd130 2.277 . S
O138 C131 1.226 . S
O139 Cd130 2.356 . S
O139 C137 1.282 . S
C140 O141 1.306 . S
C140 O143 1.160 . S
O141 C140 1.306 . S
O141 Cd142 2.228 . S
Cd142 O141 2.228 . S
Cd142 O146 2.273 . S
Cd142 O150 2.277 . S
O143 C140 1.160 . S
O143 Cd144 2.203 . S
Cd144 O143 2.203 . S
Cd144 O146 2.411 . S
Cd144 O147 2.333 . S
Cd144 O148 2.352 . S
Cd144 O152 2.277 . S
Cd144 O153 2.356 . S
C145 O150 1.209 . S
C145 O152 1.226 . S
O146 Cd142 2.273 . S
O146 Cd144 2.411 . S
O146 C149 1.320 . S
O147 Cd144 2.333 . S
O147 C149 1.214 . S
O148 Cd144 2.352 . S
O148 C151 1.258 . S
C149 O146 1.320 . S
C149 O147 1.214 . S
O150 Cd142 2.277 . S
O150 C145 1.209 . S
C151 O148 1.258 . S
C151 O153 1.282 . S
O152 Cd144 2.277 . S
O152 C145 1.226 . S
O153 Cd144 2.356 . S
O153 C151 1.282 . S
C154 O155 1.306 . S
C154 O157 1.160 . S
O155 C154 1.306 . S
O155 Cd156 2.228 . S
Cd156 O155 2.228 . S
Cd156 O160 2.273 . S
Cd156 O164 2.277 . S
O157 C154 1.160 . S
O157 Cd158 2.203 . S
Cd158 O157 2.203 . S
Cd158 O160 2.411 . S
Cd158 O161 2.333 . S
Cd158 O162 2.352 . S
Cd158 O166 2.277 . S
Cd158 O167 2.356 . S
C159 O164 1.209 . S
C159 O166 1.226 . S
O160 Cd156 2.273 . S
O160 Cd158 2.411 . S
O160 C163 1.320 . S
O161 Cd158 2.333 . S
O161 C163 1.214 . S
O162 Cd158 2.352 . S
O162 C165 1.258 . S
C163 O160 1.320 . S
C163 O161 1.214 . S
O164 Cd156 2.277 . S
O164 C159 1.209 . S
C165 O162 1.258 . S
C165 O167 1.282 . S
O166 Cd158 2.277 . S
O166 C159 1.226 . S
O167 Cd158 2.356 . S
O167 C165 1.282 . S
C168 O169 1.306 . S
C168 O171 1.160 . S
O169 C168 1.306 . S
O169 Cd170 2.228 . S
Cd170 O169 2.228 . S
Cd170 O174 2.273 . S
Cd170 O178 2.277 . S
O171 C168 1.160 . S
O171 Cd172 2.203 . S
Cd172 O171 2.203 . S
Cd172 O174 2.411 . S
Cd172 O175 2.333 . S
Cd172 O176 2.352 . S
Cd172 O180 2.277 . S
Cd172 O181 2.356 . S
C173 O178 1.209 . S
C173 O180 1.226 . S
O174 Cd170 2.273 . S
O174 Cd172 2.411 . S
O174 C177 1.320 . S
O175 Cd172 2.333 . S
O175 C177 1.214 . S
O176 Cd172 2.352 . S
O176 C179 1.258 . S
C177 O174 1.320 . S
C177 O175 1.214 . S
O178 Cd170 2.277 . S
O178 C173 1.209 . S
C179 O176 1.258 . S
C179 O181 1.282 . S
O180 Cd172 2.277 . S
O180 C173 1.226 . S
O181 Cd172 2.356 . S
O181 C179 1.282 . S
C182 O183 1.306 . S
C182 O185 1.160 . S
O183 C182 1.306 . S
O183 Cd184 2.228 . S
Cd184 O183 2.228 . S
Cd184 O188 2.273 . S
Cd184 O192 2.277 . S
O185 C182 1.160 . S
O185 Cd186 2.203 . S
Cd186 O185 2.203 . S
Cd186 O188 2.411 . S
Cd186 O189 2.333 . S
Cd186 O190 2.352 . S
Cd186 O194 2.277 . S
Cd186 O195 2.356 . S
C187 O192 1.209 . S
C187 O194 1.226 . S
O188 Cd184 2.273 . S
O188 Cd186 2.411 . S
O188 C191 1.320 . S
O189 Cd186 2.333 . S
O189 C191 1.214 . S
O190 Cd186 2.352 . S
O190 C193 1.258 . S
C191 O188 1.320 . S
C191 O189 1.214 . S
O192 Cd184 2.277 . S
O192 C187 1.209 . S
C193 O190 1.258 . S
C193 O195 1.282 . S
O194 Cd186 2.277 . S
O194 C187 1.226 . S
O195 Cd186 2.356 . S
O195 C193 1.282 . S
C196 O197 1.306 . S
C196 O199 1.160 . S
O197 C196 1.306 . S
O197 Cd198 2.228 . S
Cd198 O197 2.228 . S
Cd198 O202 2.273 . S
Cd198 O206 2.277 . S
O199 C196 1.160 . S
O199 Cd200 2.203 . S
Cd200 O199 2.203 . S
Cd200 O202 2.411 . S
Cd200 O203 2.333 . S
Cd200 O204 2.352 . S
Cd200 O208 2.277 . S
Cd200 O209 2.356 . S
C201 O206 1.209 . S
C201 O208 1.226 . S
O202 Cd198 2.273 . S
O202 Cd200 2.411 . S
O202 C205 1.320 . S
O203 Cd200 2.333 . S
O203 C205 1.214 . S
O204 Cd200 2.352 . S
O204 C207 1.258 . S
C205 O202 1.320 . S
C205 O203 1.214 . S
O206 Cd198 2.277 . S
O206 C201 1.209 . S
C207 O204 1.258 . S
C207 O209 1.282 . S
O208 Cd200 2.277 . S
O208 C201 1.226 . S
O209 Cd200 2.356 . S
O209 C207 1.282 . S
C210 O211 1.306 . S
C210 O213 1.160 . S
O211 C210 1.306 . S
O211 Cd212 2.228 . S
Cd212 O211 2.228 . S
Cd212 O216 2.273 . S
Cd212 O220 2.277 . S
O213 C210 1.160 . S
O213 Cd214 2.203 . S
Cd214 O213 2.203 . S
Cd214 O216 2.411 . S
Cd214 O217 2.333 . S
Cd214 O218 2.352 . S
Cd214 O222 2.277 . S
Cd214 O223 2.356 . S
C215 O220 1.209 . S
C215 O222 1.226 . S
O216 Cd212 2.273 . S
O216 Cd214 2.411 . S
O216 C219 1.320 . S
O217 Cd214 2.333 . S
O217 C219 1.214 . S
O218 Cd214 2.352 . S
O218 C221 1.258 . S
C219 O216 1.320 . S
C219 O217 1.214 . S
O220 Cd212 2.277 . S
O220 C215 1.209 . S
C221 O218 1.258 . S
C221 O223 1.282 . S
O222 Cd214 2.277 . S
O222 C215 1.226 . S
O223 Cd214 2.356 . S
O223 C221 1.282 . S
C224 O225 1.306 . S
C224 O227 1.160 . S
O225 C224 1.306 . S
O225 Cd226 2.228 . S
Cd226 O225 2.228 . S
Cd226 O230 2.273 . S
Cd226 O234 2.277 . S
O227 C224 1.160 . S
O227 Cd228 2.203 . S
Cd228 O227 2.203 . S
Cd228 O230 2.411 . S
Cd228 O231 2.333 . S
Cd228 O232 2.352 . S
Cd228 O236 2.277 . S
Cd228 O237 2.356 . S
C229 O234 1.209 . S
C229 O236 1.226 . S
O230 Cd226 2.273 . S
O230 Cd228 2.411 . S
O230 C233 1.320 . S
O231 Cd228 2.333 . S
O231 C233 1.214 . S
O232 Cd228 2.352 . S
O232 C235 1.258 . S
C233 O230 1.320 . S
C233 O231 1.214 . S
O234 Cd226 2.277 . S
O234 C229 1.209 . S
C235 O232 1.258 . S
C235 O237 1.282 . S
O236 Cd228 2.277 . S
O236 C229 1.226 . S
O237 Cd228 2.356 . S
O237 C235 1.282 . S
C238 O239 1.306 . S
C238 O241 1.160 . S
O239 C238 1.306 . S
O239 Cd240 2.228 . S
Cd240 O239 2.228 . S
Cd240 O244 2.273 . S
Cd240 O248 2.277 . S
O241 C238 1.160 . S
O241 Cd242 2.203 . S
Cd242 O241 2.203 . S
Cd242 O244 2.411 . S
Cd242 O245 2.333 . S
Cd242 O246 2.352 . S
Cd242 O250 2.277 . S
Cd242 O251 2.356 . S
C243 O248 1.209 . S
C243 O250 1.226 . S
O244 Cd240 2.273 . S
O244 Cd242 2.411 . S
O244 C247 1.320 . S
O245 Cd242 2.333 . S
O245 C247 1.214 . S
O246 Cd242 2.352 . S
O246 C249 1.258 . S
C247 O244 1.320 . S
C247 O245 1.214 . S
O248 Cd240 2.277 . S
O248 C243 1.209 . S
C249 O246 1.258 . S
C249 O251 1.282 . S
O250 Cd242 2.277 . S
O250 C243 1.226 . S
O251 Cd242 2.356 . S
O251 C249 1.282 . S
C252 O253 1.306 . S
C252 O255 1.160 . S
O253 C252 1.306 . S
O253 Cd254 2.228 . S
Cd254 O253 2.228 . S
Cd254 O258 2.273 . S
Cd254 O262 2.277 . S
O255 C252 1.160 . S
O255 Cd256 2.203 . S
Cd256 O255 2.203 . S
Cd256 O258 2.411 . S
Cd256 O259 2.333 . S
Cd256 O260 2.352 . S
Cd256 O264 2.277 . S
Cd256 O265 2.356 . S
C257 O262 1.209 . S
C257 O264 1.226 . S
O258 Cd254 2.273 . S
O258 Cd256 2.411 . S
O258 C261 1.320 . S
O259 Cd256 2.333 . S
O259 C261 1.214 . S
O260 Cd256 2.352 . S
O260 C263 1.258 . S
C261 O258 1.320 . S
C261 O259 1.214 . S
O262 Cd254 2.277 . S
O262 C257 1.209 . S
C263 O260 1.258 . S
C263 O265 1.282 . S
O264 Cd256 2.277 . S
O264 C257 1.226 . S
O265 Cd256 2.356 . S
O265 C263 1.282 . S
C266 O267 1.306 . S
C266 O269 1.160 . S
O267 C266 1.306 . S
O267 Cd268 2.228 . S
Cd268 O267 2.228 . S
Cd268 O272 2.273 . S
Cd268 O276 2.277 . S
O269 C266 1.160 . S
O269 Cd270 2.203 . S
Cd270 O269 2.203 . S
Cd270 O272 2.411 . S
Cd270 O273 2.333 . S
Cd270 O274 2.352 . S
Cd270 O278 2.277 . S
Cd270 O279 2.356 . S
C271 O276 1.209 . S
C271 O278 1.226 . S
O272 Cd268 2.273 . S
O272 Cd270 2.411 . S
O272 C275 1.320 . S
O273 Cd270 2.333 . S
O273 C275 1.214 . S
O274 Cd270 2.352 . S
O274 C277 1.258 . S
C275 O272 1.320 . S
C275 O273 1.214 . S
O276 Cd268 2.277 . S
O276 C271 1.209 . S
C277 O274 1.258 . S
C277 O279 1.282 . S
O278 Cd270 2.277 . S
O278 C271 1.226 . S
O279 Cd270 2.356 . S
O279 C277 1.282 . S
C280 O281 1.306 . S
C280 O283 1.160 . S
O281 C280 1.306 . S
O281 Cd282 2.228 . S
Cd282 O281 2.228 . S
Cd282 O286 2.273 . S
Cd282 O290 2.277 . S
O283 C280 1.160 . S
O283 Cd284 2.203 . S
Cd284 O283 2.203 . S
Cd284 O286 2.411 . S
Cd284 O287 2.333 . S
Cd284 O288 2.352 . S
Cd284 O292 2.277 . S
Cd284 O293 2.356 . S
C285 O290 1.209 . S
C285 O292 1.226 . S
O286 Cd282 2.273 . S
O286 Cd284 2.411 . S
O286 C289 1.320 . S
O287 Cd284 2.333 . S
O287 C289 1.214 . S
O288 Cd284 2.352 . S
O288 C291 1.258 . S
C289 O286 1.320 . S
C289 O287 1.214 . S
O290 Cd282 2.277 . S
O290 C285 1.209 . S
C291 O288 1.258 . S
C291 O293 1.282 . S
O292 Cd284 2.277 . S
O292 C285 1.226 . S
O293 Cd284 2.356 . S
O293 C291 1.282 . S
C294 O295 1.306 . S
C294 O297 1.160 . S
O295 C294 1.306 . S
O295 Cd296 2.228 1_556 S
Cd296 O295 2.228 1_554 S
Cd296 O300 2.273 . S
Cd296 O304 2.277 . S
O297 C294 1.160 . S
O297 Cd298 2.203 1_556 S
Cd298 O297 2.203 1_554 S
Cd298 O300 2.411 . S
Cd298 O301 2.333 . S
Cd298 O302 2.352 . S
Cd298 O306 2.277 . S
Cd298 O307 2.356 . S
C299 O304 1.209 . S
C299 O306 1.226 . S
O300 Cd296 2.273 . S
O300 Cd298 2.411 . S
O300 C303 1.320 . S
O301 Cd298 2.333 . S
O301 C303 1.214 . S
O302 Cd298 2.352 . S
O302 C305 1.258 . S
C303 O300 1.320 . S
C303 O301 1.214 . S
O304 Cd296 2.277 . S
O304 C299 1.209 . S
C305 O302 1.258 . S
C305 O307 1.282 . S
O306 Cd298 2.277 . S
O306 C299 1.226 . S
O307 Cd298 2.356 . S
O307 C305 1.282 . S
C308 O309 1.306 . S
C308 O311 1.160 . S
O309 C308 1.306 . S
O309 Cd310 2.228 1_556 S
Cd310 O309 2.228 1_554 S
Cd310 O314 2.273 . S
Cd310 O318 2.277 . S
O311 C308 1.160 . S
O311 Cd312 2.203 1_556 S
Cd312 O311 2.203 1_554 S
Cd312 O314 2.411 . S
Cd312 O315 2.333 . S
Cd312 O316 2.352 . S
Cd312 O320 2.277 . S
Cd312 O321 2.356 . S
C313 O318 1.209 . S
C313 O320 1.226 . S
O314 Cd310 2.273 . S
O314 Cd312 2.411 . S
O314 C317 1.320 . S
O315 Cd312 2.333 . S
O315 C317 1.214 . S
O316 Cd312 2.352 . S
O316 C319 1.258 . S
C317 O314 1.320 . S
C317 O315 1.214 . S
O318 Cd310 2.277 . S
O318 C313 1.209 . S
C319 O316 1.258 . S
C319 O321 1.282 . S
O320 Cd312 2.277 . S
O320 C313 1.226 . S
O321 Cd312 2.356 . S
O321 C319 1.282 . S
C322 O323 1.306 . S
C322 O325 1.160 . S
O323 C322 1.306 . S
O323 Cd324 2.228 1_556 S
Cd324 O323 2.228 1_554 S
Cd324 O328 2.273 . S
Cd324 O332 2.277 . S
O325 C322 1.160 . S
O325 Cd326 2.203 1_556 S
Cd326 O325 2.203 1_554 S
Cd326 O328 2.411 . S
Cd326 O329 2.333 . S
Cd326 O330 2.352 . S
Cd326 O334 2.277 . S
Cd326 O335 2.356 . S
C327 O332 1.209 . S
C327 O334 1.226 . S
O328 Cd324 2.273 . S
O328 Cd326 2.411 . S
O328 C331 1.320 . S
O329 Cd326 2.333 . S
O329 C331 1.214 . S
O330 Cd326 2.352 . S
O330 C333 1.258 . S
C331 O328 1.320 . S
C331 O329 1.214 . S
O332 Cd324 2.277 . S
O332 C327 1.209 . S
C333 O330 1.258 . S
C333 O335 1.282 . S
O334 Cd326 2.277 . S
O334 C327 1.226 . S
O335 Cd326 2.356 . S
O335 C333 1.282 . S
C336 O337 1.306 . S
C336 O339 1.160 . S
O337 C336 1.306 . S
O337 Cd338 2.228 . S
Cd338 O337 2.228 . S
Cd338 O342 2.273 . S
Cd338 O346 2.277 . S
O339 C336 1.160 . S
O339 Cd340 2.203 . S
Cd340 O339 2.203 . S
Cd340 O342 2.411 . S
Cd340 O343 2.333 . S
Cd340 O344 2.352 . S
Cd340 O348 2.277 . S
Cd340 O349 2.356 . S
C341 O346 1.209 . S
C341 O348 1.226 . S
O342 Cd338 2.273 . S
O342 Cd340 2.411 . S
O342 C345 1.320 . S
O343 Cd340 2.333 . S
O343 C345 1.214 . S
O344 Cd340 2.352 . S
O344 C347 1.258 . S
C345 O342 1.320 . S
C345 O343 1.214 . S
O346 Cd338 2.277 . S
O346 C341 1.209 . S
C347 O344 1.258 . S
C347 O349 1.282 . S
O348 Cd340 2.277 . S
O348 C341 1.226 . S
O349 Cd340 2.356 . S
O349 C347 1.282 . S
C350 O351 1.306 . S
C350 O353 1.160 . S
O351 C350 1.306 . S
O351 Cd352 2.228 . S
Cd352 O351 2.228 . S
Cd352 O356 2.273 . S
Cd352 O360 2.277 . S
O353 C350 1.160 . S
O353 Cd354 2.203 . S
Cd354 O353 2.203 . S
Cd354 O356 2.411 . S
Cd354 O357 2.333 . S
Cd354 O358 2.352 . S
Cd354 O362 2.277 . S
Cd354 O363 2.356 . S
C355 O360 1.209 . S
C355 O362 1.226 . S
O356 Cd352 2.273 . S
O356 Cd354 2.411 . S
O356 C359 1.320 . S
O357 Cd354 2.333 . S
O357 C359 1.214 . S
O358 Cd354 2.352 . S
O358 C361 1.258 . S
C359 O356 1.320 . S
C359 O357 1.214 . S
O360 Cd352 2.277 . S
O360 C355 1.209 . S
C361 O358 1.258 . S
C361 O363 1.282 . S
O362 Cd354 2.277 . S
O362 C355 1.226 . S
O363 Cd354 2.356 . S
O363 C361 1.282 . S
C364 O365 1.306 . S
C364 O367 1.160 . S
O365 C364 1.306 . S
O365 Cd366 2.228 . S
Cd366 O365 2.228 . S
Cd366 O370 2.273 . S
Cd366 O374 2.277 . S
O367 C364 1.160 . S
O367 Cd368 2.203 . S
Cd368 O367 2.203 . S
Cd368 O370 2.411 . S
Cd368 O371 2.333 . S
Cd368 O372 2.352 . S
Cd368 O376 2.277 . S
Cd368 O377 2.356 . S
C369 O374 1.209 . S
C369 O376 1.226 . S
O370 Cd366 2.273 . S
O370 Cd368 2.411 . S
O370 C373 1.320 . S
O371 Cd368 2.333 . S
O371 C373 1.214 . S
O372 Cd368 2.352 . S
O372 C375 1.258 . S
C373 O370 1.320 . S
C373 O371 1.214 . S
O374 Cd366 2.277 . S
O374 C369 1.209 . S
C375 O372 1.258 . S
C375 O377 1.282 . S
O376 Cd368 2.277 . S
O376 C369 1.226 . S
O377 Cd368 2.356 . S
O377 C375 1.282 . S
C378 O379 1.306 . S
C378 O381 1.160 . S
O379 C378 1.306 . S
O379 Cd380 2.228 1_554 S
Cd380 O379 2.228 1_556 S
Cd380 O384 2.273 . S
Cd380 O388 2.277 . S
O381 C378 1.160 . S
O381 Cd382 2.203 1_554 S
Cd382 O381 2.203 1_556 S
Cd382 O384 2.411 . S
Cd382 O385 2.333 . S
Cd382 O386 2.352 . S
Cd382 O390 2.277 . S
Cd382 O391 2.356 . S
C383 O388 1.209 . S
C383 O390 1.226 . S
O384 Cd380 2.273 . S
O384 Cd382 2.411 . S
O384 C387 1.320 . S
O385 Cd382 2.333 . S
O385 C387 1.214 . S
O386 Cd382 2.352 . S
O386 C389 1.258 . S
C387 O384 1.320 . S
C387 O385 1.214 . S
O388 Cd380 2.277 . S
O388 C383 1.209 . S
C389 O386 1.258 . S
C389 O391 1.282 . S
O390 Cd382 2.277 . S
O390 C383 1.226 . S
O391 Cd382 2.356 . S
O391 C389 1.282 . S
C392 O393 1.306 . S
C392 O395 1.160 . S
O393 C392 1.306 . S
O393 Cd394 2.228 1_554 S
Cd394 O393 2.228 1_556 S
Cd394 O398 2.273 . S
Cd394 O402 2.277 . S
O395 C392 1.160 . S
O395 Cd396 2.203 1_554 S
Cd396 O395 2.203 1_556 S
Cd396 O398 2.411 . S
Cd396 O399 2.333 . S
Cd396 O400 2.352 . S
Cd396 O404 2.277 . S
Cd396 O405 2.356 . S
C397 O402 1.209 . S
C397 O404 1.226 . S
O398 Cd394 2.273 . S
O398 Cd396 2.411 . S
O398 C401 1.320 . S
O399 Cd396 2.333 . S
O399 C401 1.214 . S
O400 Cd396 2.352 . S
O400 C403 1.258 . S
C401 O398 1.320 . S
C401 O399 1.214 . S
O402 Cd394 2.277 . S
O402 C397 1.209 . S
C403 O400 1.258 . S
C403 O405 1.282 . S
O404 Cd396 2.277 . S
O404 C397 1.226 . S
O405 Cd396 2.356 . S
O405 C403 1.282 . S
C406 O407 1.306 . S
C406 O409 1.160 . S
O407 C406 1.306 . S
O407 Cd408 2.228 1_554 S
Cd408 O407 2.228 1_556 S
Cd408 O412 2.273 . S
Cd408 O416 2.277 . S
O409 C406 1.160 . S
O409 Cd410 2.203 1_554 S
Cd410 O409 2.203 1_556 S
Cd410 O412 2.411 . S
Cd410 O413 2.333 . S
Cd410 O414 2.352 . S
Cd410 O418 2.277 . S
Cd410 O419 2.356 . S
C411 O416 1.209 . S
C411 O418 1.226 . S
O412 Cd408 2.273 . S
O412 Cd410 2.411 . S
O412 C415 1.320 . S
O413 Cd410 2.333 . S
O413 C415 1.214 . S
O414 Cd410 2.352 . S
O414 C417 1.258 . S
C415 O412 1.320 . S
C415 O413 1.214 . S
O416 Cd408 2.277 . S
O416 C411 1.209 . S
C417 O414 1.258 . S
C417 O419 1.282 . S
O418 Cd410 2.277 . S
O418 C411 1.226 . S
O419 Cd410 2.356 . S
O419 C417 1.282 . S
C420 O421 1.306 . S
C420 O423 1.160 . S
O421 C420 1.306 . S
O421 Cd422 2.228 . S
Cd422 O421 2.228 . S
Cd422 O426 2.273 . S
Cd422 O430 2.277 . S
O423 C420 1.160 . S
O423 Cd424 2.203 . S
Cd424 O423 2.203 . S
Cd424 O426 2.411 . S
Cd424 O427 2.333 . S
Cd424 O428 2.352 . S
Cd424 O432 2.277 . S
Cd424 O433 2.356 . S
C425 O430 1.209 . S
C425 O432 1.226 . S
O426 Cd422 2.273 . S
O426 Cd424 2.411 . S
O426 C429 1.320 . S
O427 Cd424 2.333 . S
O427 C429 1.214 . S
O428 Cd424 2.352 . S
O428 C431 1.258 . S
C429 O426 1.320 . S
C429 O427 1.214 . S
O430 Cd422 2.277 . S
O430 C425 1.209 . S
C431 O428 1.258 . S
C431 O433 1.282 . S
O432 Cd424 2.277 . S
O432 C425 1.226 . S
O433 Cd424 2.356 . S
O433 C431 1.282 . S
C434 O435 1.306 . S
C434 O437 1.160 . S
O435 C434 1.306 . S
O435 Cd436 2.228 . S
Cd436 O435 2.228 . S
Cd436 O440 2.273 . S
Cd436 O444 2.277 . S
O437 C434 1.160 . S
O437 Cd438 2.203 . S
Cd438 O437 2.203 . S
Cd438 O440 2.411 . S
Cd438 O441 2.333 . S
Cd438 O442 2.352 . S
Cd438 O446 2.277 . S
Cd438 O447 2.356 . S
C439 O444 1.209 . S
C439 O446 1.226 . S
O440 Cd436 2.273 . S
O440 Cd438 2.411 . S
O440 C443 1.320 . S
O441 Cd438 2.333 . S
O441 C443 1.214 . S
O442 Cd438 2.352 . S
O442 C445 1.258 . S
C443 O440 1.320 . S
C443 O441 1.214 . S
O444 Cd436 2.277 . S
O444 C439 1.209 . S
C445 O442 1.258 . S
C445 O447 1.282 . S
O446 Cd438 2.277 . S
O446 C439 1.226 . S
O447 Cd438 2.356 . S
O447 C445 1.282 . S
C448 O449 1.306 . S
C448 O451 1.160 . S
O449 C448 1.306 . S
O449 Cd450 2.228 . S
Cd450 O449 2.228 . S
Cd450 O454 2.273 . S
Cd450 O458 2.277 . S
O451 C448 1.160 . S
O451 Cd452 2.203 . S
Cd452 O451 2.203 . S
Cd452 O454 2.411 . S
Cd452 O455 2.333 . S
Cd452 O456 2.352 . S
Cd452 O460 2.277 . S
Cd452 O461 2.356 . S
C453 O458 1.209 . S
C453 O460 1.226 . S
O454 Cd450 2.273 . S
O454 Cd452 2.411 . S
O454 C457 1.320 . S
O455 Cd452 2.333 . S
O455 C457 1.214 . S
O456 Cd452 2.352 . S
O456 C459 1.258 . S
C457 O454 1.320 . S
C457 O455 1.214 . S
O458 Cd450 2.277 . S
O458 C453 1.209 . S
C459 O456 1.258 . S
C459 O461 1.282 . S
O460 Cd452 2.277 . S
O460 C453 1.226 . S
O461 Cd452 2.356 . S
O461 C459 1.282 . S
C462 O463 1.306 . S
C462 O465 1.160 . S
O463 C462 1.306 . S
O463 Cd464 2.228 . S
Cd464 O463 2.228 . S
Cd464 O468 2.273 . S
Cd464 O472 2.277 . S
O465 C462 1.160 . S
O465 Cd466 2.203 . S
Cd466 O465 2.203 . S
Cd466 O468 2.411 . S
Cd466 O469 2.333 . S
Cd466 O470 2.352 . S
Cd466 O474 2.277 . S
Cd466 O475 2.356 . S
C467 O472 1.209 . S
C467 O474 1.226 . S
O468 Cd464 2.273 . S
O468 Cd466 2.411 . S
O468 C471 1.320 . S
O469 Cd466 2.333 . S
O469 C471 1.214 . S
O470 Cd466 2.352 . S
O470 C473 1.258 . S
C471 O468 1.320 . S
C471 O469 1.214 . S
O472 Cd464 2.277 . S
O472 C467 1.209 . S
C473 O470 1.258 . S
C473 O475 1.282 . S
O474 Cd466 2.277 . S
O474 C467 1.226 . S
O475 Cd466 2.356 . S
O475 C473 1.282 . S
C476 O477 1.306 . S
C476 O479 1.160 . S
O477 C476 1.306 . S
O477 Cd478 2.228 . S
Cd478 O477 2.228 . S
Cd478 O482 2.273 . S
Cd478 O486 2.277 . S
O479 C476 1.160 . S
O479 Cd480 2.203 . S
Cd480 O479 2.203 . S
Cd480 O482 2.411 . S
Cd480 O483 2.333 . S
Cd480 O484 2.352 . S
Cd480 O488 2.277 . S
Cd480 O489 2.356 . S
C481 O486 1.209 . S
C481 O488 1.226 . S
O482 Cd478 2.273 . S
O482 Cd480 2.411 . S
O482 C485 1.320 . S
O483 Cd480 2.333 . S
O483 C485 1.214 . S
O484 Cd480 2.352 . S
O484 C487 1.258 . S
C485 O482 1.320 . S
C485 O483 1.214 . S
O486 Cd478 2.277 . S
O486 C481 1.209 . S
C487 O484 1.258 . S
C487 O489 1.282 . S
O488 Cd480 2.277 . S
O488 C481 1.226 . S
O489 Cd480 2.356 . S
O489 C487 1.282 . S
C490 O491 1.306 . S
C490 O493 1.160 . S
O491 C490 1.306 . S
O491 Cd492 2.228 . S
Cd492 O491 2.228 . S
Cd492 O496 2.273 . S
Cd492 O500 2.277 . S
O493 C490 1.160 . S
O493 Cd494 2.203 . S
Cd494 O493 2.203 . S
Cd494 O496 2.411 . S
Cd494 O497 2.333 . S
Cd494 O498 2.352 . S
Cd494 O502 2.277 . S
Cd494 O503 2.356 . S
C495 O500 1.209 . S
C495 O502 1.226 . S
O496 Cd492 2.273 . S
O496 Cd494 2.411 . S
O496 C499 1.320 . S
O497 Cd494 2.333 . S
O497 C499 1.214 . S
O498 Cd494 2.352 . S
O498 C501 1.258 . S
C499 O496 1.320 . S
C499 O497 1.214 . S
O500 Cd492 2.277 . S
O500 C495 1.209 . S
C501 O498 1.258 . S
C501 O503 1.282 . S
O502 Cd494 2.277 . S
O502 C495 1.226 . S
O503 Cd494 2.356 . S
O503 C501 1.282 . S
H504 C522 0.951 . S
H505 C524 0.951 . S
H506 C526 0.950 . S
H507 C527 0.950 . S
H508 C529 0.950 . S
H509 C532 0.950 . S
H510 C533 0.950 . S
H511 C535 0.950 . S
H512 C536 0.950 . S
H513 C537 0.951 . S
H514 C539 0.951 . S
H515 C541 0.950 . S
H516 C542 0.950 . S
H517 C544 0.950 . S
H518 C547 0.950 . S
H519 C548 0.950 . S
H520 C550 0.950 . S
H521 C551 0.950 . S
C522 H504 0.951 . S
C522 C523 1.366 . S
C522 C524 1.388 . S
C523 C522 1.366 . S
C523 C527 1.385 . S
C524 H505 0.951 . S
C524 C522 1.388 . S
C524 C525 1.366 . S
C525 C524 1.366 . S
C525 C526 1.414 . S
C525 C528 1.499 . S
C526 H506 0.950 . S
C526 C525 1.414 . S
C526 C527 1.374 . S
C527 H507 0.950 . S
C527 C523 1.385 . S
C527 C526 1.374 . S
C528 C525 1.499 . S
C528 C529 1.373 . S
C528 C530 1.389 . S
C529 H508 0.950 . S
C529 C528 1.373 . S
C529 C545 1.377 . S
C530 C528 1.389 . S
C530 C531 1.524 . S
C530 C544 1.377 . S
C531 C530 1.524 . S
C531 C532 1.397 . S
C531 C536 1.363 . S
C532 H509 0.950 . S
C532 C531 1.397 . S
C532 C533 1.334 . S
C533 H510 0.950 . S
C533 C532 1.334 . S
C533 C534 1.287 . S
C534 C533 1.287 . S
C534 C535 1.524 . S
C534 H553 0.913 . S
C535 H511 0.950 . S
C535 C534 1.524 . S
C535 C536 1.415 . S
C536 H512 0.950 . S
C536 C531 1.363 . S
C536 C535 1.415 . S
C537 H513 0.951 . S
C537 C538 1.366 . S
C537 C539 1.388 . S
C538 C537 1.366 . S
C538 C542 1.385 . S
C539 H514 0.951 . S
C539 C537 1.388 . S
C539 C540 1.366 . S
C540 C539 1.366 . S
C540 C541 1.414 . S
C540 C543 1.499 1_554 S
C541 H515 0.950 . S
C541 C540 1.414 . S
C541 C542 1.374 . S
C542 H516 0.950 . S
C542 C538 1.385 . S
C542 C541 1.374 . S
C543 C540 1.499 1_556 S
C543 C544 1.373 . S
C543 C545 1.389 . S
C544 H517 0.950 . S
C544 C530 1.377 . S
C544 C543 1.373 . S
C545 C529 1.377 . S
C545 C543 1.389 . S
C545 C546 1.536 . S
C546 C545 1.536 . S
C546 C547 1.386 1_556 S
C546 C551 1.365 . S
C547 H518 0.950 . S
C547 C546 1.386 1_554 S
C547 C548 1.334 . S
C548 H519 0.950 . S
C548 C547 1.334 . S
C548 C549 1.287 . S
C549 C548 1.287 . S
C549 C550 1.524 . S
C549 H552 0.999 . S
C550 H520 0.950 . S
C550 C549 1.524 . S
C550 C551 1.415 1_554 S
C551 H521 0.950 . S
C551 C546 1.365 . S
C551 C550 1.415 1_556 S
H552 C549 0.999 . S
H553 C534 0.913 . S
H554 C572 0.951 . S
H555 C574 0.951 . S
H556 C576 0.950 . S
H557 C577 0.950 . S
H558 C579 0.950 . S
H559 C582 0.950 . S
H560 C583 0.950 . S
H561 C585 0.950 . S
H562 C586 0.950 . S
H563 C587 0.951 . S
H564 C589 0.951 . S
H565 C591 0.950 . S
H566 C592 0.950 . S
H567 C594 0.950 . S
H568 C597 0.950 . S
H569 C598 0.950 . S
H570 C600 0.950 . S
H571 C601 0.950 . S
C572 H554 0.951 . S
C572 C573 1.366 . S
C572 C574 1.388 . S
C573 C572 1.366 . S
C573 C577 1.385 . S
C574 H555 0.951 . S
C574 C572 1.388 . S
C574 C575 1.366 . S
C575 C574 1.366 . S
C575 C576 1.414 . S
C575 C578 1.499 . S
C576 H556 0.950 . S
C576 C575 1.414 . S
C576 C577 1.374 . S
C577 H557 0.950 . S
C577 C573 1.385 . S
C577 C576 1.374 . S
C578 C575 1.499 . S
C578 C579 1.373 . S
C578 C580 1.389 . S
C579 H558 0.950 . S
C579 C578 1.373 . S
C579 C595 1.377 . S
C580 C578 1.389 . S
C580 C581 1.524 . S
C580 C594 1.377 . S
C581 C580 1.524 . S
C581 C582 1.397 . S
C581 C586 1.363 . S
C582 H559 0.950 . S
C582 C581 1.397 . S
C582 C583 1.334 . S
C583 H560 0.950 . S
C583 C582 1.334 . S
C583 C584 1.287 . S
C584 C583 1.287 . S
C584 C585 1.524 . S
C584 H603 0.913 . S
C585 H561 0.950 . S
C585 C584 1.524 . S
C585 C586 1.415 . S
C586 H562 0.950 . S
C586 C581 1.363 . S
C586 C585 1.415 . S
C587 H563 0.951 . S
C587 C588 1.366 . S
C587 C589 1.388 . S
C588 C587 1.366 . S
C588 C592 1.385 . S
C589 H564 0.951 . S
C589 C587 1.388 . S
C589 C590 1.366 . S
C590 C589 1.366 . S
C590 C591 1.414 . S
C590 C593 1.499 1_554 S
C591 H565 0.950 . S
C591 C590 1.414 . S
C591 C592 1.374 . S
C592 H566 0.950 . S
C592 C588 1.385 . S
C592 C591 1.374 . S
C593 C590 1.499 1_556 S
C593 C594 1.373 . S
C593 C595 1.389 . S
C594 H567 0.950 . S
C594 C580 1.377 . S
C594 C593 1.373 . S
C595 C579 1.377 . S
C595 C593 1.389 . S
C595 C596 1.524 . S
C596 C595 1.524 . S
C596 C597 1.397 1_556 S
C596 C601 1.363 . S
C597 H568 0.950 . S
C597 C596 1.397 1_554 S
C597 C598 1.334 . S
C598 H569 0.950 . S
C598 C597 1.334 . S
C598 C599 1.299 . S
C599 C598 1.299 . S
C599 C600 1.506 1_554 S
C599 H602 1.007 . S
C600 H570 0.950 . S
C600 C599 1.506 1_556 S
C600 C601 1.415 . S
C601 H571 0.950 . S
C601 C596 1.363 . S
C601 C600 1.415 . S
H602 C599 1.007 . S
H603 C584 0.913 . S
H604 C622 0.951 . S
H605 C624 0.951 . S
H606 C626 0.950 . S
H607 C627 0.950 . S
H608 C629 0.950 . S
H609 C632 0.950 1_554 S
H610 C633 0.950 . S
H611 C635 0.950 . S
H612 C636 0.950 . S
H613 C637 0.951 . S
H614 C639 0.951 . S
H615 C641 0.950 . S
H616 C642 0.950 . S
H617 C644 0.950 . S
H618 C647 0.950 . S
H619 C648 0.950 . S
H620 C650 0.950 . S
H621 C651 0.950 . S
C622 H604 0.951 . S
C622 C623 1.366 . S
C622 C624 1.388 . S
C623 C622 1.366 . S
C623 C627 1.385 . S
C624 H605 0.951 . S
C624 C622 1.388 . S
C624 C625 1.366 . S
C625 C624 1.366 . S
C625 C626 1.414 . S
C625 C628 1.499 1_554 S
C626 H606 0.950 . S
C626 C625 1.414 . S
C626 C627 1.374 . S
C627 H607 0.950 . S
C627 C623 1.385 . S
C627 C626 1.374 . S
C628 C625 1.499 1_556 S
C628 C629 1.373 . S
C628 C630 1.389 . S
C629 H608 0.950 . S
C629 C628 1.373 . S
C629 C645 1.377 . S
C630 C628 1.389 . S
C630 C631 1.524 . S
C630 C644 1.377 . S
C631 C630 1.524 . S
C631 C632 1.397 . S
C631 C636 1.363 . S
C632 H609 0.950 1_556 S
C632 C631 1.397 . S
C632 C633 1.334 1_556 S
C633 H610 0.950 . S
C633 C632 1.334 1_554 S
C633 C634 1.280 1_554 S
C634 C633 1.280 1_556 S
C634 C635 1.536 . S
C634 H653 0.905 1_556 S
C635 H611 0.950 . S
C635 C634 1.536 . S
C635 C636 1.415 . S
C636 H612 0.950 . S
C636 C631 1.363 . S
C636 C635 1.415 . S
C637 H613 0.951 . S
C637 C638 1.366 . S
C637 C639 1.388 . S
C638 C637 1.366 . S
C638 C642 1.385 . S
C639 H614 0.951 . S
C639 C637 1.388 . S
C639 C640 1.366 . S
C640 C639 1.366 . S
C640 C641 1.414 . S
C640 C643 1.499 . S
C641 H615 0.950 . S
C641 C640 1.414 . S
C641 C642 1.374 . S
C642 H616 0.950 . S
C642 C638 1.385 . S
C642 C641 1.374 . S
C643 C640 1.499 . S
C643 C644 1.373 . S
C643 C645 1.389 . S
C644 H617 0.950 . S
C644 C630 1.377 . S
C644 C643 1.373 . S
C645 C629 1.377 . S
C645 C643 1.389 . S
C645 C646 1.524 . S
C646 C645 1.524 . S
C646 C647 1.397 . S
C646 C651 1.363 . S
C647 H618 0.950 . S
C647 C646 1.397 . S
C647 C648 1.334 . S
C648 H619 0.950 . S
C648 C647 1.334 . S
C648 C649 1.287 . S
C649 C648 1.287 . S
C649 C650 1.524 . S
C649 H652 0.999 . S
C650 H620 0.950 . S
C650 C649 1.524 . S
C650 C651 1.415 . S
C651 H621 0.950 . S
C651 C646 1.363 . S
C651 C650 1.415 . S
H652 C649 0.999 . S
H653 C634 0.905 1_554 S
H654 C672 0.951 . S
H655 C674 0.951 . S
H656 C676 0.950 . S
H657 C677 0.950 . S
H658 C679 0.950 . S
H659 C682 0.950 . S
H660 C683 0.950 . S
H661 C685 0.950 . S
H662 C686 0.950 . S
H663 C687 0.951 . S
H664 C689 0.951 . S
H665 C691 0.950 . S
H666 C692 0.950 . S
H667 C694 0.950 . S
H668 C697 0.950 . S
H669 C698 0.950 . S
H670 C700 0.950 . S
H671 C701 0.950 . S
C672 H654 0.951 . S
C672 C673 1.366 . S
C672 C674 1.388 . S
C673 C672 1.366 . S
C673 C677 1.385 . S
C674 H655 0.951 . S
C674 C672 1.388 . S
C674 C675 1.366 . S
C675 C674 1.366 . S
C675 C676 1.414 . S
C675 C678 1.499 . S
C676 H656 0.950 . S
C676 C675 1.414 . S
C676 C677 1.374 . S
C677 H657 0.950 . S
C677 C673 1.385 . S
C677 C676 1.374 . S
C678 C675 1.499 . S
C678 C679 1.373 . S
C678 C680 1.389 . S
C679 H658 0.950 . S
C679 C678 1.373 . S
C679 C695 1.377 . S
C680 C678 1.389 . S
C680 C681 1.524 . S
C680 C694 1.377 . S
C681 C680 1.524 . S
C681 C682 1.397 . S
C681 C686 1.363 . S
C682 H659 0.950 . S
C682 C681 1.397 . S
C682 C683 1.334 . S
C683 H660 0.950 . S
C683 C682 1.334 . S
C683 C684 1.287 . S
C684 C683 1.287 . S
C684 C685 1.524 . S
C684 H703 0.913 . S
C685 H661 0.950 . S
C685 C684 1.524 . S
C685 C686 1.415 . S
C686 H662 0.950 . S
C686 C681 1.363 . S
C686 C685 1.415 . S
C687 H663 0.951 . S
C687 C688 1.366 . S
C687 C689 1.388 . S
C688 C687 1.366 . S
C688 C692 1.385 . S
C689 H664 0.951 . S
C689 C687 1.388 . S
C689 C690 1.366 . S
C690 C689 1.366 . S
C690 C691 1.414 . S
C690 C693 1.499 . S
C691 H665 0.950 . S
C691 C690 1.414 . S
C691 C692 1.374 . S
C692 H666 0.950 . S
C692 C688 1.385 . S
C692 C691 1.374 . S
C693 C690 1.499 . S
C693 C694 1.373 . S
C693 C695 1.389 . S
C694 H667 0.950 . S
C694 C680 1.377 . S
C694 C693 1.373 . S
C695 C679 1.377 . S
C695 C693 1.389 . S
C695 C696 1.524 . S
C696 C695 1.524 . S
C696 C697 1.397 . S
C696 C701 1.363 . S
C697 H668 0.950 . S
C697 C696 1.397 . S
C697 C698 1.334 . S
C698 H669 0.950 . S
C698 C697 1.334 . S
C698 C699 1.287 . S
C699 C698 1.287 . S
C699 C700 1.524 . S
C699 H702 0.999 . S
C700 H670 0.950 . S
C700 C699 1.524 . S
C700 C701 1.415 . S
C701 H671 0.950 . S
C701 C696 1.363 . S
C701 C700 1.415 . S
H702 C699 0.999 . S
H703 C684 0.913 . S
H704 C722 0.951 . S
H705 C724 0.951 . S
H706 C726 0.950 . S
H707 C727 0.950 . S
H708 C729 0.950 . S
H709 C732 0.950 . S
H710 C733 0.950 . S
H711 C735 0.950 . S
H712 C736 0.950 . S
H713 C737 0.951 . S
H714 C739 0.951 . S
H715 C741 0.950 . S
H716 C742 0.950 . S
H717 C744 0.950 . S
H718 C747 0.950 . S
H719 C748 0.950 . S
H720 C750 0.950 . S
H721 C751 0.950 . S
C722 H704 0.951 . S
C722 C723 1.366 . S
C722 C724 1.388 . S
C723 C722 1.366 . S
C723 C727 1.385 . S
C724 H705 0.951 . S
C724 C722 1.388 . S
C724 C725 1.366 . S
C725 C724 1.366 . S
C725 C726 1.414 . S
C725 C728 1.499 . S
C726 H706 0.950 . S
C726 C725 1.414 . S
C726 C727 1.374 . S
C727 H707 0.950 . S
C727 C723 1.385 . S
C727 C726 1.374 . S
C728 C725 1.499 . S
C728 C729 1.373 . S
C728 C730 1.389 . S
C729 H708 0.950 . S
C729 C728 1.373 . S
C729 C745 1.377 . S
C730 C728 1.389 . S
C730 C731 1.524 . S
C730 C744 1.377 . S
C731 C730 1.524 . S
C731 C732 1.397 . S
C731 C736 1.363 . S
C732 H709 0.950 . S
C732 C731 1.397 . S
C732 C733 1.334 . S
C733 H710 0.950 . S
C733 C732 1.334 . S
C733 C734 1.287 . S
C734 C733 1.287 . S
C734 C735 1.524 . S
C734 H753 0.913 . S
C735 H711 0.950 . S
C735 C734 1.524 . S
C735 C736 1.415 . S
C736 H712 0.950 . S
C736 C731 1.363 . S
C736 C735 1.415 . S
C737 H713 0.951 . S
C737 C738 1.366 . S
C737 C739 1.388 . S
C738 C737 1.366 . S
C738 C742 1.385 . S
C739 H714 0.951 . S
C739 C737 1.388 . S
C739 C740 1.366 . S
C740 C739 1.366 . S
C740 C741 1.414 . S
C740 C743 1.499 . S
C741 H715 0.950 . S
C741 C740 1.414 . S
C741 C742 1.374 . S
C742 H716 0.950 . S
C742 C738 1.385 . S
C742 C741 1.374 . S
C743 C740 1.499 . S
C743 C744 1.373 . S
C743 C745 1.389 . S
C744 H717 0.950 . S
C744 C730 1.377 . S
C744 C743 1.373 . S
C745 C729 1.377 . S
C745 C743 1.389 . S
C745 C746 1.524 . S
C746 C745 1.524 . S
C746 C747 1.397 . S
C746 C751 1.363 . S
C747 H718 0.950 . S
C747 C746 1.397 . S
C747 C748 1.334 . S
C748 H719 0.950 . S
C748 C747 1.334 . S
C748 C749 1.287 . S
C749 C748 1.287 . S
C749 C750 1.524 . S
C749 H752 0.999 . S
C750 H720 0.950 . S
C750 C749 1.524 . S
C750 C751 1.415 . S
C751 H721 0.950 . S
C751 C746 1.363 . S
C751 C750 1.415 . S
H752 C749 0.999 . S
H753 C734 0.913 . S
H754 C772 0.951 . S
H755 C774 0.951 . S
H756 C776 0.950 . S
H757 C777 0.950 . S
H758 C779 0.950 . S
H759 C782 0.950 . S
H760 C783 0.950 . S
H761 C785 0.950 . S
H762 C786 0.950 . S
H763 C787 0.951 . S
H764 C789 0.951 . S
H765 C791 0.950 . S
H766 C792 0.950 . S
H767 C794 0.950 . S
H768 C797 0.950 . S
H769 C798 0.950 . S
H770 C800 0.950 . S
H771 C801 0.950 . S
C772 H754 0.951 . S
C772 C773 1.366 . S
C772 C774 1.388 . S
C773 C772 1.366 . S
C773 C777 1.385 . S
C774 H755 0.951 . S
C774 C772 1.388 . S
C774 C775 1.366 . S
C775 C774 1.366 . S
C775 C776 1.414 . S
C775 C778 1.499 . S
C776 H756 0.950 . S
C776 C775 1.414 . S
C776 C777 1.374 . S
C777 H757 0.950 . S
C777 C773 1.385 . S
C777 C776 1.374 . S
C778 C775 1.499 . S
C778 C779 1.373 . S
C778 C780 1.389 . S
C779 H758 0.950 . S
C779 C778 1.373 . S
C779 C795 1.377 . S
C780 C778 1.389 . S
C780 C781 1.524 . S
C780 C794 1.377 . S
C781 C780 1.524 . S
C781 C782 1.397 . S
C781 C786 1.363 . S
C782 H759 0.950 . S
C782 C781 1.397 . S
C782 C783 1.334 . S
C783 H760 0.950 . S
C783 C782 1.334 . S
C783 C784 1.287 . S
C784 C783 1.287 . S
C784 C785 1.524 . S
C784 H803 0.913 . S
C785 H761 0.950 . S
C785 C784 1.524 . S
C785 C786 1.415 . S
C786 H762 0.950 . S
C786 C781 1.363 . S
C786 C785 1.415 . S
C787 H763 0.951 . S
C787 C788 1.366 . S
C787 C789 1.388 . S
C788 C787 1.366 . S
C788 C792 1.385 . S
C789 H764 0.951 . S
C789 C787 1.388 . S
C789 C790 1.366 . S
C790 C789 1.366 . S
C790 C791 1.414 . S
C790 C793 1.499 . S
C791 H765 0.950 . S
C791 C790 1.414 . S
C791 C792 1.374 . S
C792 H766 0.950 . S
C792 C788 1.385 . S
C792 C791 1.374 . S
C793 C790 1.499 . S
C793 C794 1.373 . S
C793 C795 1.389 . S
C794 H767 0.950 . S
C794 C780 1.377 . S
C794 C793 1.373 . S
C795 C779 1.377 . S
C795 C793 1.389 . S
C795 C796 1.524 . S
C796 C795 1.524 . S
C796 C797 1.397 . S
C796 C801 1.363 . S
C797 H768 0.950 . S
C797 C796 1.397 . S
C797 C798 1.334 . S
C798 H769 0.950 . S
C798 C797 1.334 . S
C798 C799 1.287 . S
C799 C798 1.287 . S
C799 C800 1.524 . S
C799 H802 0.999 . S
C800 H770 0.950 . S
C800 C799 1.524 . S
C800 C801 1.415 . S
C801 H771 0.950 . S
C801 C796 1.363 . S
C801 C800 1.415 . S
H802 C799 0.999 . S
H803 C784 0.913 . S
H804 C822 0.951 . S
H805 C824 0.951 . S
H806 C826 0.950 . S
H807 C827 0.950 . S
H808 C829 0.950 . S
H809 C832 0.950 . S
H810 C833 0.950 . S
H811 C835 0.950 . S
H812 C836 0.950 . S
H813 C837 0.951 . S
H814 C839 0.951 . S
H815 C841 0.950 . S
H816 C842 0.950 . S
H817 C844 0.950 . S
H818 C847 0.950 . S
H819 C848 0.950 . S
H820 C850 0.950 . S
H821 C851 0.950 . S
C822 H804 0.951 . S
C822 C823 1.366 . S
C822 C824 1.388 . S
C823 C822 1.366 . S
C823 C827 1.385 . S
C824 H805 0.951 . S
C824 C822 1.388 . S
C824 C825 1.366 . S
C825 C824 1.366 . S
C825 C826 1.414 . S
C825 C828 1.499 . S
C826 H806 0.950 . S
C826 C825 1.414 . S
C826 C827 1.374 . S
C827 H807 0.950 . S
C827 C823 1.385 . S
C827 C826 1.374 . S
C828 C825 1.499 . S
C828 C829 1.373 . S
C828 C830 1.389 . S
C829 H808 0.950 . S
C829 C828 1.373 . S
C829 C845 1.377 . S
C830 C828 1.389 . S
C830 C831 1.524 . S
C830 C844 1.377 . S
C831 C830 1.524 . S
C831 C832 1.397 . S
C831 C836 1.363 . S
C832 H809 0.950 . S
C832 C831 1.397 . S
C832 C833 1.334 . S
C833 H810 0.950 . S
C833 C832 1.334 . S
C833 C834 1.287 . S
C834 C833 1.287 . S
C834 C835 1.524 . S
C834 H853 0.913 . S
C835 H811 0.950 . S
C835 C834 1.524 . S
C835 C836 1.415 . S
C836 H812 0.950 . S
C836 C831 1.363 . S
C836 C835 1.415 . S
C837 H813 0.951 . S
C837 C838 1.366 . S
C837 C839 1.388 . S
C838 C837 1.366 . S
C838 C842 1.385 . S
C839 H814 0.951 . S
C839 C837 1.388 . S
C839 C840 1.366 . S
C840 C839 1.366 . S
C840 C841 1.414 . S
C840 C843 1.499 1_556 S
C841 H815 0.950 . S
C841 C840 1.414 . S
C841 C842 1.374 . S
C842 H816 0.950 . S
C842 C838 1.385 . S
C842 C841 1.374 . S
C843 C840 1.499 1_554 S
C843 C844 1.373 . S
C843 C845 1.389 . S
C844 H817 0.950 . S
C844 C830 1.377 . S
C844 C843 1.373 . S
C845 C829 1.377 . S
C845 C843 1.389 . S
C845 C846 1.524 . S
C846 C845 1.524 . S
C846 C847 1.397 1_554 S
C846 C851 1.363 . S
C847 H818 0.950 . S
C847 C846 1.397 1_556 S
C847 C848 1.334 . S
C848 H819 0.950 . S
C848 C847 1.334 . S
C848 C849 1.287 . S
C849 C848 1.287 . S
C849 C850 1.524 . S
C849 H852 0.999 . S
C850 H820 0.950 . S
C850 C849 1.524 . S
C850 C851 1.415 1_556 S
C851 H821 0.950 . S
C851 C846 1.363 . S
C851 C850 1.415 1_554 S
H852 C849 0.999 . S
H853 C834 0.913 . S
H854 C872 0.951 . S
H855 C874 0.951 . S
H856 C876 0.950 . S
H857 C877 0.950 . S
H858 C879 0.950 . S
H859 C882 0.950 . S
H860 C883 0.950 . S
H861 C885 0.950 . S
H862 C886 0.950 . S
H863 C887 0.951 . S
H864 C889 0.951 . S
H865 C891 0.950 . S
H866 C892 0.950 . S
H867 C894 0.950 . S
H868 C897 0.950 . S
H869 C898 0.950 . S
H870 C900 0.950 . S
H871 C901 0.950 . S
C872 H854 0.951 . S
C872 C873 1.366 . S
C872 C874 1.388 . S
C873 C872 1.366 . S
C873 C877 1.385 . S
C874 H855 0.951 . S
C874 C872 1.388 . S
C874 C875 1.366 . S
C875 C874 1.366 . S
C875 C876 1.414 . S
C875 C878 1.499 . S
C876 H856 0.950 . S
C876 C875 1.414 . S
C876 C877 1.374 . S
C877 H857 0.950 . S
C877 C873 1.385 . S
C877 C876 1.374 . S
C878 C875 1.499 . S
C878 C879 1.373 . S
C878 C880 1.389 . S
C879 H858 0.950 . S
C879 C878 1.373 . S
C879 C895 1.377 . S
C880 C878 1.389 . S
C880 C881 1.524 . S
C880 C894 1.377 . S
C881 C880 1.524 . S
C881 C882 1.397 . S
C881 C886 1.363 . S
C882 H859 0.950 . S
C882 C881 1.397 . S
C882 C883 1.334 . S
C883 H860 0.950 . S
C883 C882 1.334 . S
C883 C884 1.287 . S
C884 C883 1.287 . S
C884 C885 1.524 . S
C884 H903 0.913 . S
C885 H861 0.950 . S
C885 C884 1.524 . S
C885 C886 1.415 . S
C886 H862 0.950 . S
C886 C881 1.363 . S
C886 C885 1.415 . S
C887 H863 0.951 . S
C887 C888 1.366 . S
C887 C889 1.388 . S
C888 C887 1.366 . S
C888 C892 1.385 . S
C889 H864 0.951 . S
C889 C887 1.388 . S
C889 C890 1.366 . S
C890 C889 1.366 . S
C890 C891 1.414 . S
C890 C893 1.499 1_556 S
C891 H865 0.950 . S
C891 C890 1.414 . S
C891 C892 1.374 . S
C892 H866 0.950 . S
C892 C888 1.385 . S
C892 C891 1.374 . S
C893 C890 1.499 1_554 S
C893 C894 1.373 . S
C893 C895 1.389 . S
C894 H867 0.950 . S
C894 C880 1.377 . S
C894 C893 1.373 . S
C895 C879 1.377 . S
C895 C893 1.389 . S
C895 C896 1.524 1_554 S
C896 C895 1.524 1_556 S
C896 C897 1.397 . S
C896 C901 1.363 1_556 S
C897 H868 0.950 . S
C897 C896 1.397 . S
C897 C898 1.334 . S
C898 H869 0.950 . S
C898 C897 1.334 . S
C898 C899 1.287 . S
C899 C898 1.287 . S
C899 C900 1.524 . S
C899 H902 0.999 . S
C900 H870 0.950 . S
C900 C899 1.524 . S
C900 C901 1.415 1_556 S
C901 H871 0.950 . S
C901 C896 1.363 1_554 S
C901 C900 1.415 1_554 S
H902 C899 0.999 . S
H903 C884 0.913 . S
H904 C922 0.951 . S
H905 C924 0.951 . S
H906 C926 0.950 . S
H907 C927 0.950 . S
H908 C929 0.950 . S
H909 C932 0.950 . S
H910 C933 0.950 . S
H911 C935 0.950 . S
H912 C936 0.950 . S
H913 C937 0.951 . S
H914 C939 0.951 . S
H915 C941 0.950 . S
H916 C942 0.950 . S
H917 C944 0.950 . S
H918 C947 0.950 . S
H919 C948 0.950 . S
H920 C950 0.950 . S
H921 C951 0.950 . S
C922 H904 0.951 . S
C922 C923 1.366 . S
C922 C924 1.388 . S
C923 C922 1.366 . S
C923 C927 1.385 . S
C924 H905 0.951 . S
C924 C922 1.388 . S
C924 C925 1.366 . S
C925 C924 1.366 . S
C925 C926 1.414 . S
C925 C928 1.499 1_556 S
C926 H906 0.950 . S
C926 C925 1.414 . S
C926 C927 1.374 . S
C927 H907 0.950 . S
C927 C923 1.385 . S
C927 C926 1.374 . S
C928 C925 1.499 1_554 S
C928 C929 1.373 . S
C928 C930 1.389 . S
C929 H908 0.950 . S
C929 C928 1.373 . S
C929 C945 1.377 . S
C930 C928 1.389 . S
C930 C931 1.524 1_554 S
C930 C944 1.377 . S
C931 C930 1.524 1_556 S
C931 C932 1.397 . S
C931 C936 1.363 1_556 S
C932 H909 0.950 . S
C932 C931 1.397 . S
C932 C933 1.334 . S
C933 H910 0.950 . S
C933 C932 1.334 . S
C933 C934 1.287 . S
C934 C933 1.287 . S
C934 C935 1.524 . S
C934 H953 0.913 . S
C935 H911 0.950 . S
C935 C934 1.524 . S
C935 C936 1.415 1_556 S
C936 H912 0.950 . S
C936 C931 1.363 1_554 S
C936 C935 1.415 1_554 S
C937 H913 0.951 . S
C937 C938 1.366 . S
C937 C939 1.388 . S
C938 C937 1.366 . S
C938 C942 1.385 . S
C939 H914 0.951 . S
C939 C937 1.388 . S
C939 C940 1.366 . S
C940 C939 1.366 . S
C940 C941 1.414 . S
C940 C943 1.499 . S
C941 H915 0.950 . S
C941 C940 1.414 . S
C941 C942 1.374 . S
C942 H916 0.950 . S
C942 C938 1.385 . S
C942 C941 1.374 . S
C943 C940 1.499 . S
C943 C944 1.373 . S
C943 C945 1.389 . S
C944 H917 0.950 . S
C944 C930 1.377 . S
C944 C943 1.373 . S
C945 C929 1.377 . S
C945 C943 1.389 . S
C945 C946 1.524 . S
C946 C945 1.524 . S
C946 C947 1.397 . S
C946 C951 1.363 . S
C947 H918 0.950 . S
C947 C946 1.397 . S
C947 C948 1.334 . S
C948 H919 0.950 . S
C948 C947 1.334 . S
C948 C949 1.287 . S
C949 C948 1.287 . S
C949 C950 1.524 . S
C949 H952 0.999 . S
C950 H920 0.950 . S
C950 C949 1.524 . S
C950 C951 1.415 . S
C951 H921 0.950 . S
C951 C946 1.363 . S
C951 C950 1.415 . S
H952 C949 0.999 . S
H953 C934 0.913 . S
H954 C972 0.951 . S
H955 C974 0.951 . S
H956 C976 0.950 . S
H957 C977 0.950 . S
H958 C979 0.950 . S
H959 C982 0.950 . S
H960 C983 0.950 . S
H961 C985 0.950 . S
H962 C986 0.950 . S
H963 C987 0.951 . S
H964 C989 0.951 . S
H965 C991 0.950 . S
H966 C992 0.950 . S
H967 C994 0.950 . S
H968 C997 0.950 . S
H969 C998 0.950 . S
H970 C1000 0.950 . S
H971 C1001 0.950 . S
C972 H954 0.951 . S
C972 C973 1.366 . S
C972 C974 1.388 . S
C973 C972 1.366 . S
C973 C977 1.385 . S
C974 H955 0.951 . S
C974 C972 1.388 . S
C974 C975 1.366 . S
C975 C974 1.366 . S
C975 C976 1.414 . S
C975 C978 1.499 . S
C976 H956 0.950 . S
C976 C975 1.414 . S
C976 C977 1.374 . S
C977 H957 0.950 . S
C977 C973 1.385 . S
C977 C976 1.374 . S
C978 C975 1.499 . S
C978 C979 1.373 . S
C978 C980 1.389 . S
C979 H958 0.950 . S
C979 C978 1.373 . S
C979 C995 1.377 . S
C980 C978 1.389 . S
C980 C981 1.524 . S
C980 C994 1.377 . S
C981 C980 1.524 . S
C981 C982 1.397 . S
C981 C986 1.363 . S
C982 H959 0.950 . S
C982 C981 1.397 . S
C982 C983 1.334 . S
C983 H960 0.950 . S
C983 C982 1.334 . S
C983 C984 1.287 . S
C984 C983 1.287 . S
C984 C985 1.524 . S
C984 H1003 0.913 . S
C985 H961 0.950 . S
C985 C984 1.524 . S
C985 C986 1.415 . S
C986 H962 0.950 . S
C986 C981 1.363 . S
C986 C985 1.415 . S
C987 H963 0.951 . S
C987 C988 1.366 . S
C987 C989 1.388 . S
C988 C987 1.366 . S
C988 C992 1.385 . S
C989 H964 0.951 . S
C989 C987 1.388 . S
C989 C990 1.366 . S
C990 C989 1.366 . S
C990 C991 1.414 . S
C990 C993 1.499 . S
C991 H965 0.950 . S
C991 C990 1.414 . S
C991 C992 1.374 . S
C992 H966 0.950 . S
C992 C988 1.385 . S
C992 C991 1.374 . S
C993 C990 1.499 . S
C993 C994 1.373 . S
C993 C995 1.389 . S
C994 H967 0.950 . S
C994 C980 1.377 . S
C994 C993 1.373 . S
C995 C979 1.377 . S
C995 C993 1.389 . S
C995 C996 1.524 . S
C996 C995 1.524 . S
C996 C997 1.397 . S
C996 C1001 1.363 . S
C997 H968 0.950 . S
C997 C996 1.397 . S
C997 C998 1.334 . S
C998 H969 0.950 . S
C998 C997 1.334 . S
C998 C999 1.287 . S
C999 C998 1.287 . S
C999 C1000 1.524 . S
C999 H1002 0.999 . S
C1000 H970 0.950 . S
C1000 C999 1.524 . S
C1000 C1001 1.415 . S
C1001 H971 0.950 . S
C1001 C996 1.363 . S
C1001 C1000 1.415 . S
H1002 C999 0.999 . S
H1003 C984 0.913 . S
H1004 C1022 0.951 . S
H1005 C1024 0.951 . S
H1006 C1026 0.950 . S
H1007 C1027 0.950 . S
H1008 C1029 0.950 . S
H1009 C1032 0.950 . S
H1010 C1033 0.950 . S
H1011 C1035 0.950 . S
H1012 C1036 0.950 . S
H1013 C1037 0.951 . S
H1014 C1039 0.951 . S
H1015 C1041 0.950 . S
H1016 C1042 0.950 . S
H1017 C1044 0.950 . S
H1018 C1047 0.950 . S
H1019 C1048 0.950 . S
H1020 C1050 0.950 . S
H1021 C1051 0.950 . S
C1022 H1004 0.951 . S
C1022 C1023 1.366 . S
C1022 C1024 1.388 . S
C1023 C1022 1.366 . S
C1023 C1027 1.385 . S
C1024 H1005 0.951 . S
C1024 C1022 1.388 . S
C1024 C1025 1.366 . S
C1025 C1024 1.366 . S
C1025 C1026 1.414 . S
C1025 C1028 1.499 . S
C1026 H1006 0.950 . S
C1026 C1025 1.414 . S
C1026 C1027 1.374 . S
C1027 H1007 0.950 . S
C1027 C1023 1.385 . S
C1027 C1026 1.374 . S
C1028 C1025 1.499 . S
C1028 C1029 1.373 . S
C1028 C1030 1.389 . S
C1029 H1008 0.950 . S
C1029 C1028 1.373 . S
C1029 C1045 1.377 . S
C1030 C1028 1.389 . S
C1030 C1031 1.524 . S
C1030 C1044 1.377 . S
C1031 C1030 1.524 . S
C1031 C1032 1.397 . S
C1031 C1036 1.363 . S
C1032 H1009 0.950 . S
C1032 C1031 1.397 . S
C1032 C1033 1.334 . S
C1033 H1010 0.950 . S
C1033 C1032 1.334 . S
C1033 C1034 1.287 . S
C1034 C1033 1.287 . S
C1034 C1035 1.524 . S
C1034 H1053 0.913 . S
C1035 H1011 0.950 . S
C1035 C1034 1.524 . S
C1035 C1036 1.415 . S
C1036 H1012 0.950 . S
C1036 C1031 1.363 . S
C1036 C1035 1.415 . S
C1037 H1013 0.951 . S
C1037 C1038 1.366 . S
C1037 C1039 1.388 . S
C1038 C1037 1.366 . S
C1038 C1042 1.385 . S
C1039 H1014 0.951 . S
C1039 C1037 1.388 . S
C1039 C1040 1.366 . S
C1040 C1039 1.366 . S
C1040 C1041 1.414 . S
C1040 C1043 1.499 . S
C1041 H1015 0.950 . S
C1041 C1040 1.414 . S
C1041 C1042 1.374 . S
C1042 H1016 0.950 . S
C1042 C1038 1.385 . S
C1042 C1041 1.374 . S
C1043 C1040 1.499 . S
C1043 C1044 1.373 . S
C1043 C1045 1.389 . S
C1044 H1017 0.950 . S
C1044 C1030 1.377 . S
C1044 C1043 1.373 . S
C1045 C1029 1.377 . S
C1045 C1043 1.389 . S
C1045 C1046 1.524 . S
C1046 C1045 1.524 . S
C1046 C1047 1.397 . S
C1046 C1051 1.363 . S
C1047 H1018 0.950 . S
C1047 C1046 1.397 . S
C1047 C1048 1.334 . S
C1048 H1019 0.950 . S
C1048 C1047 1.334 . S
C1048 C1049 1.287 . S
C1049 C1048 1.287 . S
C1049 C1050 1.524 . S
C1049 H1052 0.999 . S
C1050 H1020 0.950 . S
C1050 C1049 1.524 . S
C1050 C1051 1.415 . S
C1051 H1021 0.950 . S
C1051 C1046 1.363 . S
C1051 C1050 1.415 . S
H1052 C1049 0.999 . S
H1053 C1034 0.913 . S
H1054 C1072 0.951 . S
H1055 C1074 0.951 . S
H1056 C1076 0.950 . S
H1057 C1077 0.950 . S
H1058 C1079 0.950 . S
H1059 C1082 0.950 . S
H1060 C1083 0.950 . S
H1061 C1085 0.950 . S
H1062 C1086 0.950 . S
H1063 C1087 0.951 . S
H1064 C1089 0.951 . S
H1065 C1091 0.950 . S
H1066 C1092 0.950 . S
H1067 C1094 0.950 . S
H1068 C1097 0.950 . S
H1069 C1098 0.950 . S
H1070 C1100 0.950 . S
H1071 C1101 0.950 . S
C1072 H1054 0.951 . S
C1072 C1073 1.366 . S
C1072 C1074 1.388 . S
C1073 C1072 1.366 . S
C1073 C1077 1.385 . S
C1074 H1055 0.951 . S
C1074 C1072 1.388 . S
C1074 C1075 1.366 . S
C1075 C1074 1.366 . S
C1075 C1076 1.414 . S
C1075 C1078 1.499 . S
C1076 H1056 0.950 . S
C1076 C1075 1.414 . S
C1076 C1077 1.374 . S
C1077 H1057 0.950 . S
C1077 C1073 1.385 . S
C1077 C1076 1.374 . S
C1078 C1075 1.499 . S
C1078 C1079 1.373 . S
C1078 C1080 1.389 . S
C1079 H1058 0.950 . S
C1079 C1078 1.373 . S
C1079 C1095 1.377 . S
C1080 C1078 1.389 . S
C1080 C1081 1.524 . S
C1080 C1094 1.377 . S
C1081 C1080 1.524 . S
C1081 C1082 1.397 . S
C1081 C1086 1.363 . S
C1082 H1059 0.950 . S
C1082 C1081 1.397 . S
C1082 C1083 1.334 . S
C1083 H1060 0.950 . S
C1083 C1082 1.334 . S
C1083 C1084 1.287 . S
C1084 C1083 1.287 . S
C1084 C1085 1.524 . S
C1084 H1103 0.913 . S
C1085 H1061 0.950 . S
C1085 C1084 1.524 . S
C1085 C1086 1.415 . S
C1086 H1062 0.950 . S
C1086 C1081 1.363 . S
C1086 C1085 1.415 . S
C1087 H1063 0.951 . S
C1087 C1088 1.366 . S
C1087 C1089 1.388 . S
C1088 C1087 1.366 . S
C1088 C1092 1.385 . S
C1089 H1064 0.951 . S
C1089 C1087 1.388 . S
C1089 C1090 1.366 . S
C1090 C1089 1.366 . S
C1090 C1091 1.414 . S
C1090 C1093 1.499 . S
C1091 H1065 0.950 . S
C1091 C1090 1.414 . S
C1091 C1092 1.374 . S
C1092 H1066 0.950 . S
C1092 C1088 1.385 . S
C1092 C1091 1.374 . S
C1093 C1090 1.499 . S
C1093 C1094 1.373 . S
C1093 C1095 1.389 . S
C1094 H1067 0.950 . S
C1094 C1080 1.377 . S
C1094 C1093 1.373 . S
C1095 C1079 1.377 . S
C1095 C1093 1.389 . S
C1095 C1096 1.524 . S
C1096 C1095 1.524 . S
C1096 C1097 1.397 . S
C1096 C1101 1.363 . S
C1097 H1068 0.950 . S
C1097 C1096 1.397 . S
C1097 C1098 1.334 . S
C1098 H1069 0.950 . S
C1098 C1097 1.334 . S
C1098 C1099 1.287 . S
C1099 C1098 1.287 . S
C1099 C1100 1.524 . S
C1099 H1102 0.999 . S
C1100 H1070 0.950 . S
C1100 C1099 1.524 . S
C1100 C1101 1.415 . S
C1101 H1071 0.950 . S
C1101 C1096 1.363 . S
C1101 C1100 1.415 . S
H1102 C1099 0.999 . S
H1103 C1084 0.913 . S
H1104 C1122 0.951 . S
H1105 C1124 0.951 . S
H1106 C1126 0.950 . S
H1107 C1127 0.950 . S
H1108 C1129 0.950 . S
H1109 C1132 0.950 . S
H1110 C1133 0.950 . S
H1111 C1135 0.950 . S
H1112 C1136 0.950 . S
H1113 C1137 0.951 . S
H1114 C1139 0.951 . S
H1115 C1141 0.950 . S
H1116 C1142 0.950 . S
H1117 C1144 0.950 . S
H1118 C1147 0.950 . S
H1119 C1148 0.950 . S
H1120 C1150 0.950 . S
H1121 C1151 0.950 . S
C1122 H1104 0.951 . S
C1122 C1123 1.366 . S
C1122 C1124 1.388 . S
C1123 C1122 1.366 . S
C1123 C1127 1.385 . S
C1124 H1105 0.951 . S
C1124 C1122 1.388 . S
C1124 C1125 1.366 . S
C1125 C1124 1.366 . S
C1125 C1126 1.414 . S
C1125 C1128 1.499 . S
C1126 H1106 0.950 . S
C1126 C1125 1.414 . S
C1126 C1127 1.374 . S
C1127 H1107 0.950 . S
C1127 C1123 1.385 . S
C1127 C1126 1.374 . S
C1128 C1125 1.499 . S
C1128 C1129 1.373 . S
C1128 C1130 1.389 . S
C1129 H1108 0.950 . S
C1129 C1128 1.373 . S
C1129 C1145 1.377 . S
C1130 C1128 1.389 . S
C1130 C1131 1.524 . S
C1130 C1144 1.377 . S
C1131 C1130 1.524 . S
C1131 C1132 1.397 . S
C1131 C1136 1.363 . S
C1132 H1109 0.950 . S
C1132 C1131 1.397 . S
C1132 C1133 1.334 . S
C1133 H1110 0.950 . S
C1133 C1132 1.334 . S
C1133 C1134 1.287 . S
C1134 C1133 1.287 . S
C1134 C1135 1.524 . S
C1134 H1153 0.913 . S
C1135 H1111 0.950 . S
C1135 C1134 1.524 . S
C1135 C1136 1.415 . S
C1136 H1112 0.950 . S
C1136 C1131 1.363 . S
C1136 C1135 1.415 . S
C1137 H1113 0.951 . S
C1137 C1138 1.366 . S
C1137 C1139 1.388 . S
C1138 C1137 1.366 . S
C1138 C1142 1.385 . S
C1139 H1114 0.951 . S
C1139 C1137 1.388 . S
C1139 C1140 1.366 . S
C1140 C1139 1.366 . S
C1140 C1141 1.414 . S
C1140 C1143 1.499 . S
C1141 H1115 0.950 . S
C1141 C1140 1.414 . S
C1141 C1142 1.374 . S
C1142 H1116 0.950 . S
C1142 C1138 1.385 . S
C1142 C1141 1.374 . S
C1143 C1140 1.499 . S
C1143 C1144 1.373 . S
C1143 C1145 1.389 . S
C1144 H1117 0.950 . S
C1144 C1130 1.377 . S
C1144 C1143 1.373 . S
C1145 C1129 1.377 . S
C1145 C1143 1.389 . S
C1145 C1146 1.524 . S
C1146 C1145 1.524 . S
C1146 C1147 1.397 . S
C1146 C1151 1.363 . S
C1147 H1118 0.950 . S
C1147 C1146 1.397 . S
C1147 C1148 1.334 . S
C1148 H1119 0.950 . S
C1148 C1147 1.334 . S
C1148 C1149 1.287 . S
C1149 C1148 1.287 . S
C1149 C1150 1.524 . S
C1149 H1152 0.999 . S
C1150 H1120 0.950 . S
C1150 C1149 1.524 . S
C1150 C1151 1.415 . S
C1151 H1121 0.950 . S
C1151 C1146 1.363 . S
C1151 C1150 1.415 . S
H1152 C1149 0.999 . S
H1153 C1134 0.913 . S
H1154 C1172 0.951 . S
H1155 C1174 0.951 . S
H1156 C1176 0.950 . S
H1157 C1177 0.950 . S
H1158 C1179 0.950 . S
H1159 C1182 0.950 . S
H1160 C1183 0.950 . S
H1161 C1185 0.950 . S
H1162 C1186 0.950 . S
H1163 C1187 0.951 . S
H1164 C1189 0.951 . S
H1165 C1191 0.950 . S
H1166 C1192 0.950 . S
H1167 C1194 0.950 . S
H1168 C1197 0.950 . S
H1169 C1198 0.950 . S
H1170 C1200 0.950 . S
H1171 C1201 0.950 . S
C1172 H1154 0.951 . S
C1172 C1173 1.366 . S
C1172 C1174 1.388 . S
C1173 C1172 1.366 . S
C1173 C1177 1.385 . S
C1174 H1155 0.951 . S
C1174 C1172 1.388 . S
C1174 C1175 1.366 . S
C1175 C1174 1.366 . S
C1175 C1176 1.414 . S
C1175 C1178 1.499 . S
C1176 H1156 0.950 . S
C1176 C1175 1.414 . S
C1176 C1177 1.374 . S
C1177 H1157 0.950 . S
C1177 C1173 1.385 . S
C1177 C1176 1.374 . S
C1178 C1175 1.499 . S
C1178 C1179 1.373 . S
C1178 C1180 1.389 . S
C1179 H1158 0.950 . S
C1179 C1178 1.373 . S
C1179 C1195 1.377 . S
C1180 C1178 1.389 . S
C1180 C1181 1.524 . S
C1180 C1194 1.377 . S
C1181 C1180 1.524 . S
C1181 C1182 1.397 . S
C1181 C1186 1.363 . S
C1182 H1159 0.950 . S
C1182 C1181 1.397 . S
C1182 C1183 1.334 . S
C1183 H1160 0.950 . S
C1183 C1182 1.334 . S
C1183 C1184 1.287 . S
C1184 C1183 1.287 . S
C1184 C1185 1.524 . S
C1184 H1203 0.913 . S
C1185 H1161 0.950 . S
C1185 C1184 1.524 . S
C1185 C1186 1.415 . S
C1186 H1162 0.950 . S
C1186 C1181 1.363 . S
C1186 C1185 1.415 . S
C1187 H1163 0.951 . S
C1187 C1188 1.366 . S
C1187 C1189 1.388 . S
C1188 C1187 1.366 . S
C1188 C1192 1.385 . S
C1189 H1164 0.951 . S
C1189 C1187 1.388 . S
C1189 C1190 1.366 . S
C1190 C1189 1.366 . S
C1190 C1191 1.414 . S
C1190 C1193 1.499 . S
C1191 H1165 0.950 . S
C1191 C1190 1.414 . S
C1191 C1192 1.374 . S
C1192 H1166 0.950 . S
C1192 C1188 1.385 . S
C1192 C1191 1.374 . S
C1193 C1190 1.499 . S
C1193 C1194 1.373 . S
C1193 C1195 1.389 . S
C1194 H1167 0.950 . S
C1194 C1180 1.377 . S
C1194 C1193 1.373 . S
C1195 C1179 1.377 . S
C1195 C1193 1.389 . S
C1195 C1196 1.524 . S
C1196 C1195 1.524 . S
C1196 C1197 1.397 . S
C1196 C1201 1.363 . S
C1197 H1168 0.950 . S
C1197 C1196 1.397 . S
C1197 C1198 1.334 . S
C1198 H1169 0.950 . S
C1198 C1197 1.334 . S
C1198 C1199 1.287 . S
C1199 C1198 1.287 . S
C1199 C1200 1.524 . S
C1199 H1202 0.999 . S
C1200 H1170 0.950 . S
C1200 C1199 1.524 . S
C1200 C1201 1.415 . S
C1201 H1171 0.950 . S
C1201 C1196 1.363 . S
C1201 C1200 1.415 . S
H1202 C1199 0.999 . S
H1203 C1184 0.913 . S
H1204 C1222 0.951 . S
H1205 C1224 0.951 . S
H1206 C1226 0.950 . S
H1207 C1227 0.950 . S
H1208 C1229 0.950 . S
H1209 C1232 0.950 . S
H1210 C1233 0.950 . S
H1211 C1235 0.950 . S
H1212 C1236 0.950 . S
H1213 C1237 0.951 . S
H1214 C1239 0.951 . S
H1215 C1241 0.950 . S
H1216 C1242 0.950 . S
H1217 C1244 0.950 . S
H1218 C1247 0.950 . S
H1219 C1248 0.950 . S
H1220 C1250 0.950 . S
H1221 C1251 0.950 . S
C1222 H1204 0.951 . S
C1222 C1223 1.366 . S
C1222 C1224 1.388 . S
C1223 C1222 1.366 . S
C1223 C1227 1.385 . S
C1224 H1205 0.951 . S
C1224 C1222 1.388 . S
C1224 C1225 1.366 . S
C1225 C1224 1.366 . S
C1225 C1226 1.414 . S
C1225 C1228 1.499 . S
C1226 H1206 0.950 . S
C1226 C1225 1.414 . S
C1226 C1227 1.374 . S
C1227 H1207 0.950 . S
C1227 C1223 1.385 . S
C1227 C1226 1.374 . S
C1228 C1225 1.499 . S
C1228 C1229 1.373 . S
C1228 C1230 1.389 . S
C1229 H1208 0.950 . S
C1229 C1228 1.373 . S
C1229 C1245 1.377 . S
C1230 C1228 1.389 . S
C1230 C1231 1.524 . S
C1230 C1244 1.377 . S
C1231 C1230 1.524 . S
C1231 C1232 1.397 . S
C1231 C1236 1.363 . S
C1232 H1209 0.950 . S
C1232 C1231 1.397 . S
C1232 C1233 1.334 . S
C1233 H1210 0.950 . S
C1233 C1232 1.334 . S
C1233 C1234 1.287 . S
C1234 C1233 1.287 . S
C1234 C1235 1.524 . S
C1234 H1253 0.913 . S
C1235 H1211 0.950 . S
C1235 C1234 1.524 . S
C1235 C1236 1.415 . S
C1236 H1212 0.950 . S
C1236 C1231 1.363 . S
C1236 C1235 1.415 . S
C1237 H1213 0.951 . S
C1237 C1238 1.366 . S
C1237 C1239 1.388 . S
C1238 C1237 1.366 . S
C1238 C1242 1.385 . S
C1239 H1214 0.951 . S
C1239 C1237 1.388 . S
C1239 C1240 1.366 . S
C1240 C1239 1.366 . S
C1240 C1241 1.414 . S
C1240 C1243 1.499 . S
C1241 H1215 0.950 . S
C1241 C1240 1.414 . S
C1241 C1242 1.374 . S
C1242 H1216 0.950 . S
C1242 C1238 1.385 . S
C1242 C1241 1.374 . S
C1243 C1240 1.499 . S
C1243 C1244 1.373 . S
C1243 C1245 1.389 . S
C1244 H1217 0.950 . S
C1244 C1230 1.377 . S
C1244 C1243 1.373 . S
C1245 C1229 1.377 . S
C1245 C1243 1.389 . S
C1245 C1246 1.524 . S
C1246 C1245 1.524 . S
C1246 C1247 1.397 . S
C1246 C1251 1.363 . S
C1247 H1218 0.950 . S
C1247 C1246 1.397 . S
C1247 C1248 1.334 . S
C1248 H1219 0.950 . S
C1248 C1247 1.334 . S
C1248 C1249 1.287 . S
C1249 C1248 1.287 . S
C1249 C1250 1.524 . S
C1249 H1252 0.999 . S
C1250 H1220 0.950 . S
C1250 C1249 1.524 . S
C1250 C1251 1.415 . S
C1251 H1221 0.950 . S
C1251 C1246 1.363 . S
C1251 C1250 1.415 . S
H1252 C1249 0.999 . S
H1253 C1234 0.913 . S
H1254 C1272 0.951 . S
H1255 C1274 0.951 . S
H1256 C1276 0.950 . S
H1257 C1277 0.950 . S
H1258 C1279 0.950 . S
H1259 C1282 0.950 . S
H1260 C1283 0.950 . S
H1261 C1285 0.950 . S
H1262 C1286 0.950 . S
H1263 C1287 0.951 . S
H1264 C1289 0.951 . S
H1265 C1291 0.950 . S
H1266 C1292 0.950 . S
H1267 C1294 0.950 . S
H1268 C1297 0.950 . S
H1269 C1298 0.950 . S
H1270 C1300 0.950 . S
H1271 C1301 0.950 . S
C1272 H1254 0.951 . S
C1272 C1273 1.366 . S
C1272 C1274 1.388 . S
C1273 C1272 1.366 . S
C1273 C1277 1.385 . S
C1274 H1255 0.951 . S
C1274 C1272 1.388 . S
C1274 C1275 1.366 . S
C1275 C1274 1.366 . S
C1275 C1276 1.414 . S
C1275 C1278 1.499 . S
C1276 H1256 0.950 . S
C1276 C1275 1.414 . S
C1276 C1277 1.374 . S
C1277 H1257 0.950 . S
C1277 C1273 1.385 . S
C1277 C1276 1.374 . S
C1278 C1275 1.499 . S
C1278 C1279 1.373 . S
C1278 C1280 1.389 . S
C1279 H1258 0.950 . S
C1279 C1278 1.373 . S
C1279 C1295 1.377 . S
C1280 C1278 1.389 . S
C1280 C1281 1.524 . S
C1280 C1294 1.377 . S
C1281 C1280 1.524 . S
C1281 C1282 1.397 . S
C1281 C1286 1.363 . S
C1282 H1259 0.950 . S
C1282 C1281 1.397 . S
C1282 C1283 1.334 . S
C1283 H1260 0.950 . S
C1283 C1282 1.334 . S
C1283 C1284 1.287 . S
C1284 C1283 1.287 . S
C1284 C1285 1.524 . S
C1284 H1303 0.913 . S
C1285 H1261 0.950 . S
C1285 C1284 1.524 . S
C1285 C1286 1.415 . S
C1286 H1262 0.950 . S
C1286 C1281 1.363 . S
C1286 C1285 1.415 . S
C1287 H1263 0.951 . S
C1287 C1288 1.366 . S
C1287 C1289 1.388 1_554 S
C1288 C1287 1.366 . S
C1288 C1292 1.385 . S
C1289 H1264 0.951 . S
C1289 C1287 1.388 1_556 S
C1289 C1290 1.366 . S
C1290 C1289 1.366 . S
C1290 C1291 1.414 . S
C1290 C1293 1.499 . S
C1291 H1265 0.950 . S
C1291 C1290 1.414 . S
C1291 C1292 1.374 1_556 S
C1292 H1266 0.950 . S
C1292 C1288 1.385 . S
C1292 C1291 1.374 1_554 S
C1293 C1290 1.499 . S
C1293 C1294 1.373 . S
C1293 C1295 1.389 . S
C1294 H1267 0.950 . S
C1294 C1280 1.377 . S
C1294 C1293 1.373 . S
C1295 C1279 1.377 . S
C1295 C1293 1.389 . S
C1295 C1296 1.524 . S
C1296 C1295 1.524 . S
C1296 C1297 1.397 . S
C1296 C1301 1.363 . S
C1297 H1268 0.950 . S
C1297 C1296 1.397 . S
C1297 C1298 1.334 . S
C1298 H1269 0.950 . S
C1298 C1297 1.334 . S
C1298 C1299 1.287 . S
C1299 C1298 1.287 . S
C1299 C1300 1.524 . S
C1299 H1302 0.999 . S
C1300 H1270 0.950 . S
C1300 C1299 1.524 . S
C1300 C1301 1.415 . S
C1301 H1271 0.950 . S
C1301 C1296 1.363 . S
C1301 C1300 1.415 . S
H1302 C1299 0.999 . S
H1303 C1284 0.913 . S
H1304 C1322 0.951 . S
H1305 C1324 0.951 . S
H1306 C1326 0.950 . S
H1307 C1327 0.950 . S
H1308 C1329 0.950 . S
H1309 C1332 0.950 . S
H1310 C1333 0.950 . S
H1311 C1335 0.950 . S
H1312 C1336 0.950 . S
H1313 C1337 0.951 . S
H1314 C1339 0.951 . S
H1315 C1341 0.950 . S
H1316 C1342 0.950 . S
H1317 C1344 0.950 . S
H1318 C1347 0.950 . S
H1319 C1348 0.950 . S
H1320 C1350 0.950 . S
H1321 C1351 0.950 . S
C1322 H1304 0.951 . S
C1322 C1323 1.366 . S
C1322 C1324 1.388 . S
C1323 C1322 1.366 . S
C1323 C1327 1.385 . S
C1324 H1305 0.951 . S
C1324 C1322 1.388 . S
C1324 C1325 1.366 . S
C1325 C1324 1.366 . S
C1325 C1326 1.414 . S
C1325 C1328 1.499 . S
C1326 H1306 0.950 . S
C1326 C1325 1.414 . S
C1326 C1327 1.374 . S
C1327 H1307 0.950 . S
C1327 C1323 1.385 . S
C1327 C1326 1.374 . S
C1328 C1325 1.499 . S
C1328 C1329 1.373 . S
C1328 C1330 1.389 . S
C1329 H1308 0.950 . S
C1329 C1328 1.373 . S
C1329 C1345 1.377 . S
C1330 C1328 1.389 . S
C1330 C1331 1.524 . S
C1330 C1344 1.377 . S
C1331 C1330 1.524 . S
C1331 C1332 1.397 . S
C1331 C1336 1.363 . S
C1332 H1309 0.950 . S
C1332 C1331 1.397 . S
C1332 C1333 1.334 . S
C1333 H1310 0.950 . S
C1333 C1332 1.334 . S
C1333 C1334 1.287 . S
C1334 C1333 1.287 . S
C1334 C1335 1.524 . S
C1334 H1353 0.913 . S
C1335 H1311 0.950 . S
C1335 C1334 1.524 . S
C1335 C1336 1.415 . S
C1336 H1312 0.950 . S
C1336 C1331 1.363 . S
C1336 C1335 1.415 . S
C1337 H1313 0.951 . S
C1337 C1338 1.366 . S
C1337 C1339 1.388 1_554 S
C1338 C1337 1.366 . S
C1338 C1342 1.385 . S
C1339 H1314 0.951 . S
C1339 C1337 1.388 1_556 S
C1339 C1340 1.366 . S
C1340 C1339 1.366 . S
C1340 C1341 1.414 . S
C1340 C1343 1.499 . S
C1341 H1315 0.950 . S
C1341 C1340 1.414 . S
C1341 C1342 1.374 1_556 S
C1342 H1316 0.950 . S
C1342 C1338 1.385 . S
C1342 C1341 1.374 1_554 S
C1343 C1340 1.499 . S
C1343 C1344 1.373 . S
C1343 C1345 1.389 . S
C1344 H1317 0.950 . S
C1344 C1330 1.377 . S
C1344 C1343 1.373 . S
C1345 C1329 1.377 . S
C1345 C1343 1.389 . S
C1345 C1346 1.524 . S
C1346 C1345 1.524 . S
C1346 C1347 1.397 . S
C1346 C1351 1.363 . S
C1347 H1318 0.950 . S
C1347 C1346 1.397 . S
C1347 C1348 1.334 . S
C1348 H1319 0.950 . S
C1348 C1347 1.334 . S
C1348 C1349 1.287 . S
C1349 C1348 1.287 . S
C1349 C1350 1.524 . S
C1349 H1352 0.999 . S
C1350 H1320 0.950 . S
C1350 C1349 1.524 . S
C1350 C1351 1.415 . S
C1351 H1321 0.950 . S
C1351 C1346 1.363 . S
C1351 C1350 1.415 . S
H1352 C1349 0.999 . S
H1353 C1334 0.913 . S
H1354 C1372 0.951 . S
H1355 C1374 0.951 . S
H1356 C1376 0.950 . S
H1357 C1377 0.950 . S
H1358 C1379 0.950 . S
H1359 C1382 0.950 . S
H1360 C1383 0.950 . S
H1361 C1385 0.950 . S
H1362 C1386 0.950 . S
H1363 C1387 0.951 . S
H1364 C1389 0.951 . S
H1365 C1391 0.950 . S
H1366 C1392 0.950 . S
H1367 C1394 0.950 . S
H1368 C1397 0.950 . S
H1369 C1398 0.950 . S
H1370 C1400 0.950 . S
H1371 C1401 0.950 . S
C1372 H1354 0.951 . S
C1372 C1373 1.366 . S
C1372 C1374 1.388 . S
C1373 C1372 1.366 . S
C1373 C1377 1.385 . S
C1374 H1355 0.951 . S
C1374 C1372 1.388 . S
C1374 C1375 1.366 . S
C1375 C1374 1.366 . S
C1375 C1376 1.414 . S
C1375 C1378 1.499 . S
C1376 H1356 0.950 . S
C1376 C1375 1.414 . S
C1376 C1377 1.374 . S
C1377 H1357 0.950 . S
C1377 C1373 1.385 . S
C1377 C1376 1.374 . S
C1378 C1375 1.499 . S
C1378 C1379 1.373 . S
C1378 C1380 1.389 . S
C1379 H1358 0.950 . S
C1379 C1378 1.373 . S
C1379 C1395 1.377 . S
C1380 C1378 1.389 . S
C1380 C1381 1.524 . S
C1380 C1394 1.377 . S
C1381 C1380 1.524 . S
C1381 C1382 1.397 . S
C1381 C1386 1.363 . S
C1382 H1359 0.950 . S
C1382 C1381 1.397 . S
C1382 C1383 1.334 . S
C1383 H1360 0.950 . S
C1383 C1382 1.334 . S
C1383 C1384 1.287 . S
C1384 C1383 1.287 . S
C1384 C1385 1.524 . S
C1384 H1403 0.913 . S
C1385 H1361 0.950 . S
C1385 C1384 1.524 . S
C1385 C1386 1.415 . S
C1386 H1362 0.950 . S
C1386 C1381 1.363 . S
C1386 C1385 1.415 . S
C1387 H1363 0.951 . S
C1387 C1388 1.366 . S
C1387 C1389 1.388 1_554 S
C1388 C1387 1.366 . S
C1388 C1392 1.385 . S
C1389 H1364 0.951 . S
C1389 C1387 1.388 1_556 S
C1389 C1390 1.366 . S
C1390 C1389 1.366 . S
C1390 C1391 1.414 . S
C1390 C1393 1.499 . S
C1391 H1365 0.950 . S
C1391 C1390 1.414 . S
C1391 C1392 1.374 1_556 S
C1392 H1366 0.950 . S
C1392 C1388 1.385 . S
C1392 C1391 1.374 1_554 S
C1393 C1390 1.499 . S
C1393 C1394 1.373 . S
C1393 C1395 1.389 . S
C1394 H1367 0.950 . S
C1394 C1380 1.377 . S
C1394 C1393 1.373 . S
C1395 C1379 1.377 . S
C1395 C1393 1.389 . S
C1395 C1396 1.524 . S
C1396 C1395 1.524 . S
C1396 C1397 1.397 . S
C1396 C1401 1.363 . S
C1397 H1368 0.950 . S
C1397 C1396 1.397 . S
C1397 C1398 1.334 . S
C1398 H1369 0.950 . S
C1398 C1397 1.334 . S
C1398 C1399 1.287 . S
C1399 C1398 1.287 . S
C1399 C1400 1.524 . S
C1399 H1402 0.999 . S
C1400 H1370 0.950 . S
C1400 C1399 1.524 . S
C1400 C1401 1.415 . S
C1401 H1371 0.950 . S
C1401 C1396 1.363 . S
C1401 C1400 1.415 . S
H1402 C1399 0.999 . S
H1403 C1384 0.913 . S
H1404 C1422 0.951 . S
H1405 C1424 0.951 . S
H1406 C1426 0.950 . S
H1407 C1427 0.950 . S
H1408 C1429 0.950 . S
H1409 C1432 0.950 . S
H1410 C1433 0.950 . S
H1411 C1435 0.950 . S
H1412 C1436 0.950 . S
H1413 C1437 0.951 . S
H1414 C1439 0.951 . S
H1415 C1441 0.950 . S
H1416 C1442 0.950 . S
H1417 C1444 0.950 . S
H1418 C1447 0.950 . S
H1419 C1448 0.950 . S
H1420 C1450 0.950 . S
H1421 C1451 0.950 . S
C1422 H1404 0.951 . S
C1422 C1423 1.366 . S
C1422 C1424 1.388 . S
C1423 C1422 1.366 . S
C1423 C1427 1.385 . S
C1424 H1405 0.951 . S
C1424 C1422 1.388 . S
C1424 C1425 1.366 . S
C1425 C1424 1.366 . S
C1425 C1426 1.414 . S
C1425 C1428 1.499 . S
C1426 H1406 0.950 . S
C1426 C1425 1.414 . S
C1426 C1427 1.374 . S
C1427 H1407 0.950 . S
C1427 C1423 1.385 . S
C1427 C1426 1.374 . S
C1428 C1425 1.499 . S
C1428 C1429 1.373 . S
C1428 C1430 1.389 . S
C1429 H1408 0.950 . S
C1429 C1428 1.373 . S
C1429 C1445 1.377 . S
C1430 C1428 1.389 . S
C1430 C1431 1.524 . S
C1430 C1444 1.377 . S
C1431 C1430 1.524 . S
C1431 C1432 1.397 . S
C1431 C1436 1.363 . S
C1432 H1409 0.950 . S
C1432 C1431 1.397 . S
C1432 C1433 1.334 . S
C1433 H1410 0.950 . S
C1433 C1432 1.334 . S
C1433 C1434 1.287 . S
C1434 C1433 1.287 . S
C1434 C1435 1.524 . S
C1434 H1453 0.913 . S
C1435 H1411 0.950 . S
C1435 C1434 1.524 . S
C1435 C1436 1.415 . S
C1436 H1412 0.950 . S
C1436 C1431 1.363 . S
C1436 C1435 1.415 . S
C1437 H1413 0.951 . S
C1437 C1438 1.366 . S
C1437 C1439 1.388 . S
C1438 C1437 1.366 . S
C1438 C1442 1.385 . S
C1439 H1414 0.951 . S
C1439 C1437 1.388 . S
C1439 C1440 1.366 . S
C1440 C1439 1.366 . S
C1440 C1441 1.414 . S
C1440 C1443 1.499 . S
C1441 H1415 0.950 . S
C1441 C1440 1.414 . S
C1441 C1442 1.374 . S
C1442 H1416 0.950 . S
C1442 C1438 1.385 . S
C1442 C1441 1.374 . S
C1443 C1440 1.499 . S
C1443 C1444 1.373 . S
C1443 C1445 1.389 . S
C1444 H1417 0.950 . S
C1444 C1430 1.377 . S
C1444 C1443 1.373 . S
C1445 C1429 1.377 . S
C1445 C1443 1.389 . S
C1445 C1446 1.524 . S
C1446 C1445 1.524 . S
C1446 C1447 1.397 . S
C1446 C1451 1.363 . S
C1447 H1418 0.950 . S
C1447 C1446 1.397 . S
C1447 C1448 1.334 . S
C1448 H1419 0.950 . S
C1448 C1447 1.334 . S
C1448 C1449 1.287 . S
C1449 C1448 1.287 . S
C1449 C1450 1.524 . S
C1449 H1452 0.999 . S
C1450 H1420 0.950 . S
C1450 C1449 1.524 . S
C1450 C1451 1.415 . S
C1451 H1421 0.950 . S
C1451 C1446 1.363 . S
C1451 C1450 1.415 . S
H1452 C1449 0.999 . S
H1453 C1434 0.913 . S
H1454 C1472 0.951 . S
H1455 C1474 0.951 . S
H1456 C1476 0.950 . S
H1457 C1477 0.950 . S
H1458 C1479 0.950 . S
H1459 C1482 0.950 . S
H1460 C1483 0.950 . S
H1461 C1485 0.950 . S
H1462 C1486 0.950 . S
H1463 C1487 0.951 . S
H1464 C1489 0.951 . S
H1465 C1491 0.950 . S
H1466 C1492 0.950 . S
H1467 C1494 0.950 . S
H1468 C1497 0.950 . S
H1469 C1498 0.950 . S
H1470 C1500 0.950 . S
H1471 C1501 0.950 . S
C1472 H1454 0.951 . S
C1472 C1473 1.366 . S
C1472 C1474 1.388 . S
C1473 C1472 1.366 . S
C1473 C1477 1.385 . S
C1474 H1455 0.951 . S
C1474 C1472 1.388 . S
C1474 C1475 1.366 . S
C1475 C1474 1.366 . S
C1475 C1476 1.414 . S
C1475 C1478 1.499 . S
C1476 H1456 0.950 . S
C1476 C1475 1.414 . S
C1476 C1477 1.374 . S
C1477 H1457 0.950 . S
C1477 C1473 1.385 . S
C1477 C1476 1.374 . S
C1478 C1475 1.499 . S
C1478 C1479 1.373 . S
C1478 C1480 1.389 . S
C1479 H1458 0.950 . S
C1479 C1478 1.373 . S
C1479 C1495 1.377 . S
C1480 C1478 1.389 . S
C1480 C1481 1.524 . S
C1480 C1494 1.377 . S
C1481 C1480 1.524 . S
C1481 C1482 1.397 . S
C1481 C1486 1.363 . S
C1482 H1459 0.950 . S
C1482 C1481 1.397 . S
C1482 C1483 1.334 . S
C1483 H1460 0.950 . S
C1483 C1482 1.334 . S
C1483 C1484 1.287 . S
C1484 C1483 1.287 . S
C1484 C1485 1.524 . S
C1484 H1503 0.913 . S
C1485 H1461 0.950 . S
C1485 C1484 1.524 . S
C1485 C1486 1.415 . S
C1486 H1462 0.950 . S
C1486 C1481 1.363 . S
C1486 C1485 1.415 . S
C1487 H1463 0.951 . S
C1487 C1488 1.366 . S
C1487 C1489 1.388 . S
C1488 C1487 1.366 . S
C1488 C1492 1.385 . S
C1489 H1464 0.951 . S
C1489 C1487 1.388 . S
C1489 C1490 1.366 . S
C1490 C1489 1.366 . S
C1490 C1491 1.414 . S
C1490 C1493 1.499 . S
C1491 H1465 0.950 . S
C1491 C1490 1.414 . S
C1491 C1492 1.374 . S
C1492 H1466 0.950 . S
C1492 C1488 1.385 . S
C1492 C1491 1.374 . S
C1493 C1490 1.499 . S
C1493 C1494 1.373 . S
C1493 C1495 1.389 . S
C1494 H1467 0.950 . S
C1494 C1480 1.377 . S
C1494 C1493 1.373 . S
C1495 C1479 1.377 . S
C1495 C1493 1.389 . S
C1495 C1496 1.524 . S
C1496 C1495 1.524 . S
C1496 C1497 1.397 . S
C1496 C1501 1.363 . S
C1497 H1468 0.950 . S
C1497 C1496 1.397 . S
C1497 C1498 1.334 . S
C1498 H1469 0.950 . S
C1498 C1497 1.334 . S
C1498 C1499 1.287 . S
C1499 C1498 1.287 . S
C1499 C1500 1.524 . S
C1499 H1502 0.999 . S
C1500 H1470 0.950 . S
C1500 C1499 1.524 . S
C1500 C1501 1.415 . S
C1501 H1471 0.950 . S
C1501 C1496 1.363 . S
C1501 C1500 1.415 . S
H1502 C1499 0.999 . S
H1503 C1484 0.913 . S
H1504 C1522 0.951 . S
H1505 C1524 0.951 . S
H1506 C1526 0.950 . S
H1507 C1527 0.950 . S
H1508 C1529 0.950 . S
H1509 C1532 0.950 . S
H1510 C1533 0.950 . S
H1511 C1535 0.950 . S
H1512 C1536 0.950 . S
H1513 C1537 0.951 . S
H1514 C1539 0.951 . S
H1515 C1541 0.950 . S
H1516 C1542 0.950 . S
H1517 C1544 0.950 . S
H1518 C1547 0.950 . S
H1519 C1548 0.950 . S
H1520 C1550 0.950 . S
H1521 C1551 0.950 . S
C1522 H1504 0.951 . S
C1522 C1523 1.366 . S
C1522 C1524 1.388 . S
C1523 C1522 1.366 . S
C1523 C1527 1.385 . S
C1524 H1505 0.951 . S
C1524 C1522 1.388 . S
C1524 C1525 1.366 . S
C1525 C1524 1.366 . S
C1525 C1526 1.414 . S
C1525 C1528 1.499 . S
C1526 H1506 0.950 . S
C1526 C1525 1.414 . S
C1526 C1527 1.374 . S
C1527 H1507 0.950 . S
C1527 C1523 1.385 . S
C1527 C1526 1.374 . S
C1528 C1525 1.499 . S
C1528 C1529 1.373 . S
C1528 C1530 1.389 . S
C1529 H1508 0.950 . S
C1529 C1528 1.373 . S
C1529 C1545 1.377 . S
C1530 C1528 1.389 . S
C1530 C1531 1.524 . S
C1530 C1544 1.377 . S
C1531 C1530 1.524 . S
C1531 C1532 1.397 . S
C1531 C1536 1.363 . S
C1532 H1509 0.950 . S
C1532 C1531 1.397 . S
C1532 C1533 1.334 . S
C1533 H1510 0.950 . S
C1533 C1532 1.334 . S
C1533 C1534 1.287 . S
C1534 C1533 1.287 . S
C1534 C1535 1.524 . S
C1534 H1553 0.913 . S
C1535 H1511 0.950 . S
C1535 C1534 1.524 . S
C1535 C1536 1.415 . S
C1536 H1512 0.950 . S
C1536 C1531 1.363 . S
C1536 C1535 1.415 . S
C1537 H1513 0.951 . S
C1537 C1538 1.366 . S
C1537 C1539 1.388 . S
C1538 C1537 1.366 . S
C1538 C1542 1.385 . S
C1539 H1514 0.951 . S
C1539 C1537 1.388 . S
C1539 C1540 1.366 . S
C1540 C1539 1.366 . S
C1540 C1541 1.414 . S
C1540 C1543 1.499 . S
C1541 H1515 0.950 . S
C1541 C1540 1.414 . S
C1541 C1542 1.374 . S
C1542 H1516 0.950 . S
C1542 C1538 1.385 . S
C1542 C1541 1.374 . S
C1543 C1540 1.499 . S
C1543 C1544 1.373 . S
C1543 C1545 1.389 . S
C1544 H1517 0.950 . S
C1544 C1530 1.377 . S
C1544 C1543 1.373 . S
C1545 C1529 1.377 . S
C1545 C1543 1.389 . S
C1545 C1546 1.524 . S
C1546 C1545 1.524 . S
C1546 C1547 1.397 . S
C1546 C1551 1.363 . S
C1547 H1518 0.950 . S
C1547 C1546 1.397 . S
C1547 C1548 1.334 . S
C1548 H1519 0.950 . S
C1548 C1547 1.334 . S
C1548 C1549 1.287 . S
C1549 C1548 1.287 . S
C1549 C1550 1.524 . S
C1549 H1552 0.999 . S
C1550 H1520 0.950 . S
C1550 C1549 1.524 . S
C1550 C1551 1.415 . S
C1551 H1521 0.950 . S
C1551 C1546 1.363 . S
C1551 C1550 1.415 . S
H1552 C1549 0.999 . S
H1553 C1534 0.913 . S
H1554 C1572 0.951 . S
H1555 C1574 0.951 . S
H1556 C1576 0.950 . S
H1557 C1577 0.950 . S
H1558 C1579 0.950 . S
H1559 C1582 0.950 . S
H1560 C1583 0.950 . S
H1561 C1585 0.950 . S
H1562 C1586 0.950 . S
H1563 C1587 0.951 . S
H1564 C1589 0.951 . S
H1565 C1591 0.950 . S
H1566 C1592 0.950 . S
H1567 C1594 0.950 . S
H1568 C1597 0.950 . S
H1569 C1598 0.950 . S
H1570 C1600 0.950 . S
H1571 C1601 0.950 . S
C1572 H1554 0.951 . S
C1572 C1573 1.366 . S
C1572 C1574 1.388 . S
C1573 C1572 1.366 . S
C1573 C1577 1.385 . S
C1574 H1555 0.951 . S
C1574 C1572 1.388 . S
C1574 C1575 1.366 . S
C1575 C1574 1.366 . S
C1575 C1576 1.414 . S
C1575 C1578 1.499 . S
C1576 H1556 0.950 . S
C1576 C1575 1.414 . S
C1576 C1577 1.374 . S
C1577 H1557 0.950 . S
C1577 C1573 1.385 . S
C1577 C1576 1.374 . S
C1578 C1575 1.499 . S
C1578 C1579 1.373 . S
C1578 C1580 1.389 . S
C1579 H1558 0.950 . S
C1579 C1578 1.373 . S
C1579 C1595 1.377 . S
C1580 C1578 1.389 . S
C1580 C1581 1.524 . S
C1580 C1594 1.377 . S
C1581 C1580 1.524 . S
C1581 C1582 1.397 . S
C1581 C1586 1.363 . S
C1582 H1559 0.950 . S
C1582 C1581 1.397 . S
C1582 C1583 1.334 . S
C1583 H1560 0.950 . S
C1583 C1582 1.334 . S
C1583 C1584 1.287 . S
C1584 C1583 1.287 . S
C1584 C1585 1.524 . S
C1584 H1603 0.913 . S
C1585 H1561 0.950 . S
C1585 C1584 1.524 . S
C1585 C1586 1.415 . S
C1586 H1562 0.950 . S
C1586 C1581 1.363 . S
C1586 C1585 1.415 . S
C1587 H1563 0.951 . S
C1587 C1588 1.366 . S
C1587 C1589 1.388 . S
C1588 C1587 1.366 . S
C1588 C1592 1.385 . S
C1589 H1564 0.951 . S
C1589 C1587 1.388 . S
C1589 C1590 1.366 . S
C1590 C1589 1.366 . S
C1590 C1591 1.414 . S
C1590 C1593 1.499 . S
C1591 H1565 0.950 . S
C1591 C1590 1.414 . S
C1591 C1592 1.374 . S
C1592 H1566 0.950 . S
C1592 C1588 1.385 . S
C1592 C1591 1.374 . S
C1593 C1590 1.499 . S
C1593 C1594 1.373 . S
C1593 C1595 1.389 . S
C1594 H1567 0.950 . S
C1594 C1580 1.377 . S
C1594 C1593 1.373 . S
C1595 C1579 1.377 . S
C1595 C1593 1.389 . S
C1595 C1596 1.524 . S
C1596 C1595 1.524 . S
C1596 C1597 1.397 . S
C1596 C1601 1.363 . S
C1597 H1568 0.950 . S
C1597 C1596 1.397 . S
C1597 C1598 1.334 . S
C1598 H1569 0.950 . S
C1598 C1597 1.334 . S
C1598 C1599 1.287 . S
C1599 C1598 1.287 . S
C1599 C1600 1.524 . S
C1599 H1602 0.999 . S
C1600 H1570 0.950 . S
C1600 C1599 1.524 . S
C1600 C1601 1.415 . S
C1601 H1571 0.950 . S
C1601 C1596 1.363 . S
C1601 C1600 1.415 . S
H1602 C1599 0.999 . S
H1603 C1584 0.913 . S
H1604 C1622 0.951 . S
H1605 C1624 0.951 . S
H1606 C1626 0.950 . S
H1607 C1627 0.950 . S
H1608 C1629 0.950 . S
H1609 C1632 0.950 . S
H1610 C1633 0.950 . S
H1611 C1635 0.950 . S
H1612 C1636 0.950 . S
H1613 C1637 0.951 . S
H1614 C1639 0.951 . S
H1615 C1641 0.950 . S
H1616 C1642 0.950 . S
H1617 C1644 0.950 . S
H1618 C1647 0.950 . S
H1619 C1648 0.950 . S
H1620 C1650 0.950 . S
H1621 C1651 0.950 . S
C1622 H1604 0.951 . S
C1622 C1623 1.366 . S
C1622 C1624 1.388 . S
C1623 C1622 1.366 . S
C1623 C1627 1.385 . S
C1624 H1605 0.951 . S
C1624 C1622 1.388 . S
C1624 C1625 1.366 . S
C1625 C1624 1.366 . S
C1625 C1626 1.414 . S
C1625 C1628 1.499 . S
C1626 H1606 0.950 . S
C1626 C1625 1.414 . S
C1626 C1627 1.374 . S
C1627 H1607 0.950 . S
C1627 C1623 1.385 . S
C1627 C1626 1.374 . S
C1628 C1625 1.499 . S
C1628 C1629 1.373 . S
C1628 C1630 1.389 . S
C1629 H1608 0.950 . S
C1629 C1628 1.373 . S
C1629 C1645 1.377 . S
C1630 C1628 1.389 . S
C1630 C1631 1.524 . S
C1630 C1644 1.377 . S
C1631 C1630 1.524 . S
C1631 C1632 1.397 . S
C1631 C1636 1.363 . S
C1632 H1609 0.950 . S
C1632 C1631 1.397 . S
C1632 C1633 1.334 . S
C1633 H1610 0.950 . S
C1633 C1632 1.334 . S
C1633 C1634 1.287 . S
C1634 C1633 1.287 . S
C1634 C1635 1.524 . S
C1634 H1653 0.913 . S
C1635 H1611 0.950 . S
C1635 C1634 1.524 . S
C1635 C1636 1.415 . S
C1636 H1612 0.950 . S
C1636 C1631 1.363 . S
C1636 C1635 1.415 . S
C1637 H1613 0.951 . S
C1637 C1638 1.366 . S
C1637 C1639 1.388 . S
C1638 C1637 1.366 . S
C1638 C1642 1.385 . S
C1639 H1614 0.951 . S
C1639 C1637 1.388 . S
C1639 C1640 1.366 . S
C1640 C1639 1.366 . S
C1640 C1641 1.414 . S
C1640 C1643 1.499 . S
C1641 H1615 0.950 . S
C1641 C1640 1.414 . S
C1641 C1642 1.374 . S
C1642 H1616 0.950 . S
C1642 C1638 1.385 . S
C1642 C1641 1.374 . S
C1643 C1640 1.499 . S
C1643 C1644 1.373 . S
C1643 C1645 1.389 . S
C1644 H1617 0.950 . S
C1644 C1630 1.377 . S
C1644 C1643 1.373 . S
C1645 C1629 1.377 . S
C1645 C1643 1.389 . S
C1645 C1646 1.524 . S
C1646 C1645 1.524 . S
C1646 C1647 1.397 . S
C1646 C1651 1.363 . S
C1647 H1618 0.950 . S
C1647 C1646 1.397 . S
C1647 C1648 1.334 . S
C1648 H1619 0.950 . S
C1648 C1647 1.334 . S
C1648 C1649 1.287 . S
C1649 C1648 1.287 . S
C1649 C1650 1.524 . S
C1649 H1652 0.999 . S
C1650 H1620 0.950 . S
C1650 C1649 1.524 . S
C1650 C1651 1.415 . S
C1651 H1621 0.950 . S
C1651 C1646 1.363 . S
C1651 C1650 1.415 . S
H1652 C1649 0.999 . S
H1653 C1634 0.913 . S
H1654 C1672 0.951 . S
H1655 C1674 0.951 . S
H1656 C1676 0.950 . S
H1657 C1677 0.950 . S
H1658 C1679 0.950 . S
H1659 C1682 0.950 . S
H1660 C1683 0.950 . S
H1661 C1685 0.950 . S
H1662 C1686 0.950 . S
H1663 C1687 0.951 . S
H1664 C1689 0.951 . S
H1665 C1691 0.950 . S
H1666 C1692 0.950 . S
H1667 C1694 0.950 . S
H1668 C1697 0.950 . S
H1669 C1698 0.950 . S
H1670 C1700 0.950 . S
H1671 C1701 0.950 . S
C1672 H1654 0.951 . S
C1672 C1673 1.366 . S
C1672 C1674 1.388 . S
C1673 C1672 1.366 . S
C1673 C1677 1.385 . S
C1674 H1655 0.951 . S
C1674 C1672 1.388 . S
C1674 C1675 1.366 . S
C1675 C1674 1.366 . S
C1675 C1676 1.414 . S
C1675 C1678 1.499 . S
C1676 H1656 0.950 . S
C1676 C1675 1.414 . S
C1676 C1677 1.374 . S
C1677 H1657 0.950 . S
C1677 C1673 1.385 . S
C1677 C1676 1.374 . S
C1678 C1675 1.499 . S
C1678 C1679 1.373 . S
C1678 C1680 1.389 . S
C1679 H1658 0.950 . S
C1679 C1678 1.373 . S
C1679 C1695 1.377 . S
C1680 C1678 1.389 . S
C1680 C1681 1.524 . S
C1680 C1694 1.377 . S
C1681 C1680 1.524 . S
C1681 C1682 1.397 . S
C1681 C1686 1.363 . S
C1682 H1659 0.950 . S
C1682 C1681 1.397 . S
C1682 C1683 1.334 . S
C1683 H1660 0.950 . S
C1683 C1682 1.334 . S
C1683 C1684 1.287 . S
C1684 C1683 1.287 . S
C1684 C1685 1.524 . S
C1684 H1703 0.913 . S
C1685 H1661 0.950 . S
C1685 C1684 1.524 . S
C1685 C1686 1.415 . S
C1686 H1662 0.950 . S
C1686 C1681 1.363 . S
C1686 C1685 1.415 . S
C1687 H1663 0.951 . S
C1687 C1688 1.366 . S
C1687 C1689 1.388 . S
C1688 C1687 1.366 . S
C1688 C1692 1.385 . S
C1689 H1664 0.951 . S
C1689 C1687 1.388 . S
C1689 C1690 1.366 . S
C1690 C1689 1.366 . S
C1690 C1691 1.414 . S
C1690 C1693 1.499 . S
C1691 H1665 0.950 . S
C1691 C1690 1.414 . S
C1691 C1692 1.374 . S
C1692 H1666 0.950 . S
C1692 C1688 1.385 . S
C1692 C1691 1.374 . S
C1693 C1690 1.499 . S
C1693 C1694 1.373 . S
C1693 C1695 1.389 . S
C1694 H1667 0.950 . S
C1694 C1680 1.377 . S
C1694 C1693 1.373 . S
C1695 C1679 1.377 . S
C1695 C1693 1.389 . S
C1695 C1696 1.524 . S
C1696 C1695 1.524 . S
C1696 C1697 1.397 . S
C1696 C1701 1.363 . S
C1697 H1668 0.950 . S
C1697 C1696 1.397 . S
C1697 C1698 1.334 . S
C1698 H1669 0.950 . S
C1698 C1697 1.334 . S
C1698 C1699 1.287 . S
C1699 C1698 1.287 . S
C1699 C1700 1.524 . S
C1699 H1702 0.999 . S
C1700 H1670 0.950 . S
C1700 C1699 1.524 . S
C1700 C1701 1.415 . S
C1701 H1671 0.950 . S
C1701 C1696 1.363 . S
C1701 C1700 1.415 . S
H1702 C1699 0.999 . S
H1703 C1684 0.913 . S
H1704 C1722 0.951 . S
H1705 C1724 0.951 . S
H1706 C1726 0.950 . S
H1707 C1727 0.950 . S
H1708 C1729 0.950 . S
H1709 C1732 0.950 . S
H1710 C1733 0.950 . S
H1711 C1735 0.950 . S
H1712 C1736 0.950 . S
H1713 C1737 0.951 . S
H1714 C1739 0.951 . S
H1715 C1741 0.950 . S
H1716 C1742 0.950 . S
H1717 C1744 0.950 . S
H1718 C1747 0.950 . S
H1719 C1748 0.950 . S
H1720 C1750 0.950 . S
H1721 C1751 0.950 . S
C1722 H1704 0.951 . S
C1722 C1723 1.366 . S
C1722 C1724 1.388 . S
C1723 C1722 1.366 . S
C1723 C1727 1.385 . S
C1724 H1705 0.951 . S
C1724 C1722 1.388 . S
C1724 C1725 1.366 . S
C1725 C1724 1.366 . S
C1725 C1726 1.414 . S
C1725 C1728 1.499 . S
C1726 H1706 0.950 . S
C1726 C1725 1.414 . S
C1726 C1727 1.374 . S
C1727 H1707 0.950 . S
C1727 C1723 1.385 . S
C1727 C1726 1.374 . S
C1728 C1725 1.499 . S
C1728 C1729 1.373 . S
C1728 C1730 1.389 . S
C1729 H1708 0.950 . S
C1729 C1728 1.373 . S
C1729 C1745 1.377 . S
C1730 C1728 1.389 . S
C1730 C1731 1.524 . S
C1730 C1744 1.377 . S
C1731 C1730 1.524 . S
C1731 C1732 1.397 . S
C1731 C1736 1.363 . S
C1732 H1709 0.950 . S
C1732 C1731 1.397 . S
C1732 C1733 1.334 . S
C1733 H1710 0.950 . S
C1733 C1732 1.334 . S
C1733 C1734 1.287 . S
C1734 C1733 1.287 . S
C1734 C1735 1.524 . S
C1734 H1753 0.913 . S
C1735 H1711 0.950 . S
C1735 C1734 1.524 . S
C1735 C1736 1.415 . S
C1736 H1712 0.950 . S
C1736 C1731 1.363 . S
C1736 C1735 1.415 . S
C1737 H1713 0.951 . S
C1737 C1738 1.366 . S
C1737 C1739 1.388 . S
C1738 C1737 1.366 . S
C1738 C1742 1.385 . S
C1739 H1714 0.951 . S
C1739 C1737 1.388 . S
C1739 C1740 1.366 . S
C1740 C1739 1.366 . S
C1740 C1741 1.414 . S
C1740 C1743 1.499 . S
C1741 H1715 0.950 . S
C1741 C1740 1.414 . S
C1741 C1742 1.374 . S
C1742 H1716 0.950 . S
C1742 C1738 1.385 . S
C1742 C1741 1.374 . S
C1743 C1740 1.499 . S
C1743 C1744 1.373 . S
C1743 C1745 1.389 . S
C1744 H1717 0.950 . S
C1744 C1730 1.377 . S
C1744 C1743 1.373 . S
C1745 C1729 1.377 . S
C1745 C1743 1.389 . S
C1745 C1746 1.524 . S
C1746 C1745 1.524 . S
C1746 C1747 1.397 . S
C1746 C1751 1.363 . S
C1747 H1718 0.950 . S
C1747 C1746 1.397 . S
C1747 C1748 1.334 . S
C1748 H1719 0.950 . S
C1748 C1747 1.334 . S
C1748 C1749 1.287 . S
C1749 C1748 1.287 . S
C1749 C1750 1.524 . S
C1749 H1752 0.999 . S
C1750 H1720 0.950 . S
C1750 C1749 1.524 . S
C1750 C1751 1.415 . S
C1751 H1721 0.950 . S
C1751 C1746 1.363 . S
C1751 C1750 1.415 . S
H1752 C1749 0.999 . S
H1753 C1734 0.913 . S
H1754 C1772 0.951 . S
H1755 C1774 0.951 . S
H1756 C1776 0.950 . S
H1757 C1777 0.950 . S
H1758 C1779 0.950 . S
H1759 C1782 0.950 . S
H1760 C1783 0.950 . S
H1761 C1785 0.950 . S
H1762 C1786 0.950 . S
H1763 C1787 0.951 . S
H1764 C1789 0.951 . S
H1765 C1791 0.950 . S
H1766 C1792 0.950 . S
H1767 C1794 0.950 . S
H1768 C1797 0.950 . S
H1769 C1798 0.950 . S
H1770 C1800 0.950 . S
H1771 C1801 0.950 . S
C1772 H1754 0.951 . S
C1772 C1773 1.366 . S
C1772 C1774 1.388 . S
C1773 C1772 1.366 . S
C1773 C1777 1.385 . S
C1774 H1755 0.951 . S
C1774 C1772 1.388 . S
C1774 C1775 1.366 . S
C1775 C1774 1.366 . S
C1775 C1776 1.414 . S
C1775 C1778 1.499 . S
C1776 H1756 0.950 . S
C1776 C1775 1.414 . S
C1776 C1777 1.374 . S
C1777 H1757 0.950 . S
C1777 C1773 1.385 . S
C1777 C1776 1.374 . S
C1778 C1775 1.499 . S
C1778 C1779 1.373 . S
C1778 C1780 1.389 . S
C1779 H1758 0.950 . S
C1779 C1778 1.373 . S
C1779 C1795 1.377 . S
C1780 C1778 1.389 . S
C1780 C1781 1.524 . S
C1780 C1794 1.377 . S
C1781 C1780 1.524 . S
C1781 C1782 1.397 . S
C1781 C1786 1.363 . S
C1782 H1759 0.950 . S
C1782 C1781 1.397 . S
C1782 C1783 1.334 . S
C1783 H1760 0.950 . S
C1783 C1782 1.334 . S
C1783 C1784 1.287 . S
C1784 C1783 1.287 . S
C1784 C1785 1.524 . S
C1784 H1803 0.913 . S
C1785 H1761 0.950 . S
C1785 C1784 1.524 . S
C1785 C1786 1.415 . S
C1786 H1762 0.950 . S
C1786 C1781 1.363 . S
C1786 C1785 1.415 . S
C1787 H1763 0.951 . S
C1787 C1788 1.366 . S
C1787 C1789 1.388 . S
C1788 C1787 1.366 . S
C1788 C1792 1.385 . S
C1789 H1764 0.951 . S
C1789 C1787 1.388 . S
C1789 C1790 1.366 . S
C1790 C1789 1.366 . S
C1790 C1791 1.414 . S
C1790 C1793 1.499 . S
C1791 H1765 0.950 . S
C1791 C1790 1.414 . S
C1791 C1792 1.374 . S
C1792 H1766 0.950 . S
C1792 C1788 1.385 . S
C1792 C1791 1.374 . S
C1793 C1790 1.499 . S
C1793 C1794 1.373 . S
C1793 C1795 1.389 . S
C1794 H1767 0.950 . S
C1794 C1780 1.377 . S
C1794 C1793 1.373 . S
C1795 C1779 1.377 . S
C1795 C1793 1.389 . S
C1795 C1796 1.524 . S
C1796 C1795 1.524 . S
C1796 C1797 1.397 . S
C1796 C1801 1.363 . S
C1797 H1768 0.950 . S
C1797 C1796 1.397 . S
C1797 C1798 1.334 . S
C1798 H1769 0.950 . S
C1798 C1797 1.334 . S
C1798 C1799 1.287 . S
C1799 C1798 1.287 . S
C1799 C1800 1.524 . S
C1799 H1802 0.999 . S
C1800 H1770 0.950 . S
C1800 C1799 1.524 . S
C1800 C1801 1.415 . S
C1801 H1771 0.950 . S
C1801 C1796 1.363 . S
C1801 C1800 1.415 . S
H1802 C1799 0.999 . S
H1803 C1784 0.913 . S
H1804 C1822 0.951 . S
H1805 C1824 0.951 . S
H1806 C1826 0.950 . S
H1807 C1827 0.950 . S
H1808 C1829 0.950 . S
H1809 C1832 0.950 . S
H1810 C1833 0.950 . S
H1811 C1835 0.950 . S
H1812 C1836 0.950 . S
H1813 C1837 0.951 . S
H1814 C1839 0.951 . S
H1815 C1841 0.950 . S
H1816 C1842 0.950 . S
H1817 C1844 0.950 . S
H1818 C1847 0.950 . S
H1819 C1848 0.950 . S
H1820 C1850 0.950 . S
H1821 C1851 0.950 . S
C1822 H1804 0.951 . S
C1822 C1823 1.366 . S
C1822 C1824 1.388 . S
C1823 C1822 1.366 . S
C1823 C1827 1.385 . S
C1824 H1805 0.951 . S
C1824 C1822 1.388 . S
C1824 C1825 1.366 . S
C1825 C1824 1.366 . S
C1825 C1826 1.414 . S
C1825 C1828 1.499 . S
C1826 H1806 0.950 . S
C1826 C1825 1.414 . S
C1826 C1827 1.374 . S
C1827 H1807 0.950 . S
C1827 C1823 1.385 . S
C1827 C1826 1.374 . S
C1828 C1825 1.499 . S
C1828 C1829 1.373 . S
C1828 C1830 1.389 . S
C1829 H1808 0.950 . S
C1829 C1828 1.373 . S
C1829 C1845 1.377 . S
C1830 C1828 1.389 . S
C1830 C1831 1.524 . S
C1830 C1844 1.377 . S
C1831 C1830 1.524 . S
C1831 C1832 1.397 . S
C1831 C1836 1.363 . S
C1832 H1809 0.950 . S
C1832 C1831 1.397 . S
C1832 C1833 1.334 . S
C1833 H1810 0.950 . S
C1833 C1832 1.334 . S
C1833 C1834 1.287 . S
C1834 C1833 1.287 . S
C1834 C1835 1.524 . S
C1834 H1853 0.913 . S
C1835 H1811 0.950 . S
C1835 C1834 1.524 . S
C1835 C1836 1.415 . S
C1836 H1812 0.950 . S
C1836 C1831 1.363 . S
C1836 C1835 1.415 . S
C1837 H1813 0.951 . S
C1837 C1838 1.366 . S
C1837 C1839 1.388 . S
C1838 C1837 1.366 . S
C1838 C1842 1.385 . S
C1839 H1814 0.951 . S
C1839 C1837 1.388 . S
C1839 C1840 1.366 . S
C1840 C1839 1.366 . S
C1840 C1841 1.414 . S
C1840 C1843 1.499 . S
C1841 H1815 0.950 . S
C1841 C1840 1.414 . S
C1841 C1842 1.374 . S
C1842 H1816 0.950 . S
C1842 C1838 1.385 . S
C1842 C1841 1.374 . S
C1843 C1840 1.499 . S
C1843 C1844 1.373 . S
C1843 C1845 1.389 . S
C1844 H1817 0.950 . S
C1844 C1830 1.377 . S
C1844 C1843 1.373 . S
C1845 C1829 1.377 . S
C1845 C1843 1.389 . S
C1845 C1846 1.524 . S
C1846 C1845 1.524 . S
C1846 C1847 1.397 . S
C1846 C1851 1.363 . S
C1847 H1818 0.950 . S
C1847 C1846 1.397 . S
C1847 C1848 1.334 . S
C1848 H1819 0.950 . S
C1848 C1847 1.334 . S
C1848 C1849 1.287 . S
C1849 C1848 1.287 . S
C1849 C1850 1.524 . S
C1849 H1852 0.999 . S
C1850 H1820 0.950 . S
C1850 C1849 1.524 . S
C1850 C1851 1.415 . S
C1851 H1821 0.950 . S
C1851 C1846 1.363 . S
C1851 C1850 1.415 . S
H1852 C1849 0.999 . S
H1853 C1834 0.913 . S
H1854 C1872 0.951 . S
H1855 C1874 0.951 . S
H1856 C1876 0.950 . S
H1857 C1877 0.950 . S
H1858 C1879 0.950 . S
H1859 C1882 0.950 . S
H1860 C1883 0.950 . S
H1861 C1885 0.950 . S
H1862 C1886 0.950 . S
H1863 C1887 0.951 . S
H1864 C1889 0.951 . S
H1865 C1891 0.950 . S
H1866 C1892 0.950 . S
H1867 C1894 0.950 . S
H1868 C1897 0.950 . S
H1869 C1898 0.950 . S
H1870 C1900 0.950 . S
H1871 C1901 0.950 . S
C1872 H1854 0.951 . S
C1872 C1873 1.366 . S
C1872 C1874 1.388 . S
C1873 C1872 1.366 . S
C1873 C1877 1.385 . S
C1874 H1855 0.951 . S
C1874 C1872 1.388 . S
C1874 C1875 1.366 . S
C1875 C1874 1.366 . S
C1875 C1876 1.414 . S
C1875 C1878 1.499 . S
C1876 H1856 0.950 . S
C1876 C1875 1.414 . S
C1876 C1877 1.374 . S
C1877 H1857 0.950 . S
C1877 C1873 1.385 . S
C1877 C1876 1.374 . S
C1878 C1875 1.499 . S
C1878 C1879 1.373 . S
C1878 C1880 1.389 . S
C1879 H1858 0.950 . S
C1879 C1878 1.373 . S
C1879 C1895 1.377 . S
C1880 C1878 1.389 . S
C1880 C1881 1.524 . S
C1880 C1894 1.377 . S
C1881 C1880 1.524 . S
C1881 C1882 1.397 . S
C1881 C1886 1.363 . S
C1882 H1859 0.950 . S
C1882 C1881 1.397 . S
C1882 C1883 1.334 . S
C1883 H1860 0.950 . S
C1883 C1882 1.334 . S
C1883 C1884 1.287 . S
C1884 C1883 1.287 . S
C1884 C1885 1.524 . S
C1884 H1903 0.913 . S
C1885 H1861 0.950 . S
C1885 C1884 1.524 . S
C1885 C1886 1.415 . S
C1886 H1862 0.950 . S
C1886 C1881 1.363 . S
C1886 C1885 1.415 . S
C1887 H1863 0.951 . S
C1887 C1888 1.366 . S
C1887 C1889 1.388 . S
C1888 C1887 1.366 . S
C1888 C1892 1.385 . S
C1889 H1864 0.951 . S
C1889 C1887 1.388 . S
C1889 C1890 1.366 . S
C1890 C1889 1.366 . S
C1890 C1891 1.414 . S
C1890 C1893 1.499 . S
C1891 H1865 0.950 . S
C1891 C1890 1.414 . S
C1891 C1892 1.374 . S
C1892 H1866 0.950 . S
C1892 C1888 1.385 . S
C1892 C1891 1.374 . S
C1893 C1890 1.499 . S
C1893 C1894 1.373 . S
C1893 C1895 1.389 . S
C1894 H1867 0.950 . S
C1894 C1880 1.377 . S
C1894 C1893 1.373 . S
C1895 C1879 1.377 . S
C1895 C1893 1.389 . S
C1895 C1896 1.524 . S
C1896 C1895 1.524 . S
C1896 C1897 1.397 . S
C1896 C1901 1.363 . S
C1897 H1868 0.950 . S
C1897 C1896 1.397 . S
C1897 C1898 1.334 . S
C1898 H1869 0.950 . S
C1898 C1897 1.334 . S
C1898 C1899 1.287 . S
C1899 C1898 1.287 . S
C1899 C1900 1.524 . S
C1899 H1902 0.999 . S
C1900 H1870 0.950 . S
C1900 C1899 1.524 . S
C1900 C1901 1.415 . S
C1901 H1871 0.950 . S
C1901 C1896 1.363 . S
C1901 C1900 1.415 . S
H1902 C1899 0.999 . S
H1903 C1884 0.913 . S
H1904 C1922 0.951 . S
H1905 C1924 0.951 . S
H1906 C1926 0.950 . S
H1907 C1927 0.950 . S
H1908 C1929 0.950 . S
H1909 C1932 0.950 . S
H1910 C1933 0.950 . S
H1911 C1935 0.950 . S
H1912 C1936 0.950 . S
H1913 C1937 0.951 . S
H1914 C1939 0.951 . S
H1915 C1941 0.950 . S
H1916 C1942 0.950 . S
H1917 C1944 0.950 . S
H1918 C1947 0.950 . S
H1919 C1948 0.950 . S
H1920 C1950 0.950 . S
H1921 C1951 0.950 . S
C1922 H1904 0.951 . S
C1922 C1923 1.366 . S
C1922 C1924 1.388 . S
C1923 C1922 1.366 . S
C1923 C1927 1.385 . S
C1924 H1905 0.951 . S
C1924 C1922 1.388 . S
C1924 C1925 1.366 . S
C1925 C1924 1.366 . S
C1925 C1926 1.414 . S
C1925 C1928 1.499 . S
C1926 H1906 0.950 . S
C1926 C1925 1.414 . S
C1926 C1927 1.374 . S
C1927 H1907 0.950 . S
C1927 C1923 1.385 . S
C1927 C1926 1.374 . S
C1928 C1925 1.499 . S
C1928 C1929 1.373 . S
C1928 C1930 1.389 . S
C1929 H1908 0.950 . S
C1929 C1928 1.373 . S
C1929 C1945 1.377 . S
C1930 C1928 1.389 . S
C1930 C1931 1.524 . S
C1930 C1944 1.377 . S
C1931 C1930 1.524 . S
C1931 C1932 1.397 . S
C1931 C1936 1.363 . S
C1932 H1909 0.950 . S
C1932 C1931 1.397 . S
C1932 C1933 1.334 . S
C1933 H1910 0.950 . S
C1933 C1932 1.334 . S
C1933 C1934 1.287 . S
C1934 C1933 1.287 . S
C1934 C1935 1.524 . S
C1934 H1953 0.913 . S
C1935 H1911 0.950 . S
C1935 C1934 1.524 . S
C1935 C1936 1.415 . S
C1936 H1912 0.950 . S
C1936 C1931 1.363 . S
C1936 C1935 1.415 . S
C1937 H1913 0.951 . S
C1937 C1938 1.366 . S
C1937 C1939 1.388 . S
C1938 C1937 1.366 . S
C1938 C1942 1.385 . S
C1939 H1914 0.951 . S
C1939 C1937 1.388 . S
C1939 C1940 1.366 . S
C1940 C1939 1.366 . S
C1940 C1941 1.414 . S
C1940 C1943 1.499 . S
C1941 H1915 0.950 . S
C1941 C1940 1.414 . S
C1941 C1942 1.374 . S
C1942 H1916 0.950 . S
C1942 C1938 1.385 . S
C1942 C1941 1.374 . S
C1943 C1940 1.499 . S
C1943 C1944 1.373 . S
C1943 C1945 1.389 . S
C1944 H1917 0.950 . S
C1944 C1930 1.377 . S
C1944 C1943 1.373 . S
C1945 C1929 1.377 . S
C1945 C1943 1.389 . S
C1945 C1946 1.524 . S
C1946 C1945 1.524 . S
C1946 C1947 1.397 . S
C1946 C1951 1.363 . S
C1947 H1918 0.950 . S
C1947 C1946 1.397 . S
C1947 C1948 1.334 . S
C1948 H1919 0.950 . S
C1948 C1947 1.334 . S
C1948 C1949 1.287 . S
C1949 C1948 1.287 . S
C1949 C1950 1.524 . S
C1949 H1952 0.999 . S
C1950 H1920 0.950 . S
C1950 C1949 1.524 . S
C1950 C1951 1.415 . S
C1951 H1921 0.950 . S
C1951 C1946 1.363 . S
C1951 C1950 1.415 . S
H1952 C1949 0.999 . S
H1953 C1934 0.913 . S
H1954 C1972 0.951 . S
H1955 C1974 0.951 . S
H1956 C1976 0.950 . S
H1957 C1977 0.950 . S
H1958 C1979 0.950 . S
H1959 C1982 0.950 . S
H1960 C1983 0.950 . S
H1961 C1985 0.950 . S
H1962 C1986 0.950 . S
H1963 C1987 0.951 . S
H1964 C1989 0.951 . S
H1965 C1991 0.950 . S
H1966 C1992 0.950 . S
H1967 C1994 0.950 . S
H1968 C1997 0.950 . S
H1969 C1998 0.950 . S
H1970 C2000 0.950 . S
H1971 C2001 0.950 . S
C1972 H1954 0.951 . S
C1972 C1973 1.366 . S
C1972 C1974 1.388 . S
C1973 C1972 1.366 . S
C1973 C1977 1.385 . S
C1974 H1955 0.951 . S
C1974 C1972 1.388 . S
C1974 C1975 1.366 . S
C1975 C1974 1.366 . S
C1975 C1976 1.414 . S
C1975 C1978 1.499 . S
C1976 H1956 0.950 . S
C1976 C1975 1.414 . S
C1976 C1977 1.374 . S
C1977 H1957 0.950 . S
C1977 C1973 1.385 . S
C1977 C1976 1.374 . S
C1978 C1975 1.499 . S
C1978 C1979 1.373 . S
C1978 C1980 1.389 . S
C1979 H1958 0.950 . S
C1979 C1978 1.373 . S
C1979 C1995 1.377 . S
C1980 C1978 1.389 . S
C1980 C1981 1.524 . S
C1980 C1994 1.377 . S
C1981 C1980 1.524 . S
C1981 C1982 1.397 . S
C1981 C1986 1.363 . S
C1982 H1959 0.950 . S
C1982 C1981 1.397 . S
C1982 C1983 1.334 . S
C1983 H1960 0.950 . S
C1983 C1982 1.334 . S
C1983 C1984 1.287 . S
C1984 C1983 1.287 . S
C1984 C1985 1.524 . S
C1984 H2003 0.913 . S
C1985 H1961 0.950 . S
C1985 C1984 1.524 . S
C1985 C1986 1.415 . S
C1986 H1962 0.950 . S
C1986 C1981 1.363 . S
C1986 C1985 1.415 . S
C1987 H1963 0.951 . S
C1987 C1988 1.366 . S
C1987 C1989 1.388 . S
C1988 C1987 1.366 . S
C1988 C1992 1.385 . S
C1989 H1964 0.951 . S
C1989 C1987 1.388 . S
C1989 C1990 1.366 . S
C1990 C1989 1.366 . S
C1990 C1991 1.414 . S
C1990 C1993 1.499 . S
C1991 H1965 0.950 . S
C1991 C1990 1.414 . S
C1991 C1992 1.374 . S
C1992 H1966 0.950 . S
C1992 C1988 1.385 . S
C1992 C1991 1.374 . S
C1993 C1990 1.499 . S
C1993 C1994 1.373 . S
C1993 C1995 1.389 . S
C1994 H1967 0.950 . S
C1994 C1980 1.377 . S
C1994 C1993 1.373 . S
C1995 C1979 1.377 . S
C1995 C1993 1.389 . S
C1995 C1996 1.524 . S
C1996 C1995 1.524 . S
C1996 C1997 1.397 . S
C1996 C2001 1.363 . S
C1997 H1968 0.950 . S
C1997 C1996 1.397 . S
C1997 C1998 1.334 . S
C1998 H1969 0.950 . S
C1998 C1997 1.334 . S
C1998 C1999 1.287 . S
C1999 C1998 1.287 . S
C1999 C2000 1.524 . S
C1999 H2002 0.999 . S
C2000 H1970 0.950 . S
C2000 C1999 1.524 . S
C2000 C2001 1.415 . S
C2001 H1971 0.950 . S
C2001 C1996 1.363 . S
C2001 C2000 1.415 . S
H2002 C1999 0.999 . S
H2003 C1984 0.913 . S
H2004 C2022 0.951 . S
H2005 C2024 0.951 . S
H2006 C2026 0.950 . S
H2007 C2027 0.950 . S
H2008 C2029 0.950 . S
H2009 C2032 0.950 . S
H2010 C2033 0.950 . S
H2011 C2035 0.950 . S
H2012 C2036 0.950 . S
H2013 C2037 0.951 . S
H2014 C2039 0.951 . S
H2015 C2041 0.950 . S
H2016 C2042 0.950 . S
H2017 C2044 0.950 . S
H2018 C2047 0.950 . S
H2019 C2048 0.950 . S
H2020 C2050 0.950 . S
H2021 C2051 0.950 . S
C2022 H2004 0.951 . S
C2022 C2023 1.366 . S
C2022 C2024 1.388 . S
C2023 C2022 1.366 . S
C2023 C2027 1.385 . S
C2024 H2005 0.951 . S
C2024 C2022 1.388 . S
C2024 C2025 1.366 . S
C2025 C2024 1.366 . S
C2025 C2026 1.414 . S
C2025 C2028 1.499 . S
C2026 H2006 0.950 . S
C2026 C2025 1.414 . S
C2026 C2027 1.374 . S
C2027 H2007 0.950 . S
C2027 C2023 1.385 . S
C2027 C2026 1.374 . S
C2028 C2025 1.499 . S
C2028 C2029 1.373 . S
C2028 C2030 1.389 . S
C2029 H2008 0.950 . S
C2029 C2028 1.373 . S
C2029 C2045 1.377 . S
C2030 C2028 1.389 . S
C2030 C2031 1.524 . S
C2030 C2044 1.377 . S
C2031 C2030 1.524 . S
C2031 C2032 1.397 . S
C2031 C2036 1.363 . S
C2032 H2009 0.950 . S
C2032 C2031 1.397 . S
C2032 C2033 1.334 . S
C2033 H2010 0.950 . S
C2033 C2032 1.334 . S
C2033 C2034 1.287 . S
C2034 C2033 1.287 . S
C2034 C2035 1.524 . S
C2034 H2053 0.913 . S
C2035 H2011 0.950 . S
C2035 C2034 1.524 . S
C2035 C2036 1.415 . S
C2036 H2012 0.950 . S
C2036 C2031 1.363 . S
C2036 C2035 1.415 . S
C2037 H2013 0.951 . S
C2037 C2038 1.366 . S
C2037 C2039 1.388 . S
C2038 C2037 1.366 . S
C2038 C2042 1.385 . S
C2039 H2014 0.951 . S
C2039 C2037 1.388 . S
C2039 C2040 1.366 . S
C2040 C2039 1.366 . S
C2040 C2041 1.414 . S
C2040 C2043 1.499 . S
C2041 H2015 0.950 . S
C2041 C2040 1.414 . S
C2041 C2042 1.374 . S
C2042 H2016 0.950 . S
C2042 C2038 1.385 . S
C2042 C2041 1.374 . S
C2043 C2040 1.499 . S
C2043 C2044 1.373 . S
C2043 C2045 1.389 . S
C2044 H2017 0.950 . S
C2044 C2030 1.377 . S
C2044 C2043 1.373 . S
C2045 C2029 1.377 . S
C2045 C2043 1.389 . S
C2045 C2046 1.524 . S
C2046 C2045 1.524 . S
C2046 C2047 1.397 . S
C2046 C2051 1.363 . S
C2047 H2018 0.950 . S
C2047 C2046 1.397 . S
C2047 C2048 1.334 . S
C2048 H2019 0.950 . S
C2048 C2047 1.334 . S
C2048 C2049 1.287 . S
C2049 C2048 1.287 . S
C2049 C2050 1.524 . S
C2049 H2052 0.999 . S
C2050 H2020 0.950 . S
C2050 C2049 1.524 . S
C2050 C2051 1.415 . S
C2051 H2021 0.950 . S
C2051 C2046 1.363 . S
C2051 C2050 1.415 . S
H2052 C2049 0.999 . S
H2053 C2034 0.913 . S
H2054 C2072 0.951 . S
H2055 C2074 0.951 . S
H2056 C2076 0.950 . S
H2057 C2077 0.950 . S
H2058 C2079 0.950 . S
H2059 C2082 0.950 . S
H2060 C2083 0.950 . S
H2061 C2085 0.950 . S
H2062 C2086 0.950 . S
H2063 C2087 0.951 . S
H2064 C2089 0.951 . S
H2065 C2091 0.950 . S
H2066 C2092 0.950 . S
H2067 C2094 0.950 . S
H2068 C2097 0.950 . S
H2069 C2098 0.950 . S
H2070 C2100 0.950 . S
H2071 C2101 0.950 . S
C2072 H2054 0.951 . S
C2072 C2073 1.366 . S
C2072 C2074 1.388 . S
C2073 C2072 1.366 . S
C2073 C2077 1.385 . S
C2074 H2055 0.951 . S
C2074 C2072 1.388 . S
C2074 C2075 1.366 . S
C2075 C2074 1.366 . S
C2075 C2076 1.414 . S
C2075 C2078 1.499 . S
C2076 H2056 0.950 . S
C2076 C2075 1.414 . S
C2076 C2077 1.374 . S
C2077 H2057 0.950 . S
C2077 C2073 1.385 . S
C2077 C2076 1.374 . S
C2078 C2075 1.499 . S
C2078 C2079 1.373 . S
C2078 C2080 1.389 . S
C2079 H2058 0.950 . S
C2079 C2078 1.373 . S
C2079 C2095 1.377 . S
C2080 C2078 1.389 . S
C2080 C2081 1.524 . S
C2080 C2094 1.377 . S
C2081 C2080 1.524 . S
C2081 C2082 1.397 . S
C2081 C2086 1.363 . S
C2082 H2059 0.950 . S
C2082 C2081 1.397 . S
C2082 C2083 1.334 . S
C2083 H2060 0.950 . S
C2083 C2082 1.334 . S
C2083 C2084 1.287 . S
C2084 C2083 1.287 . S
C2084 C2085 1.524 . S
C2084 H2103 0.913 . S
C2085 H2061 0.950 . S
C2085 C2084 1.524 . S
C2085 C2086 1.415 . S
C2086 H2062 0.950 . S
C2086 C2081 1.363 . S
C2086 C2085 1.415 . S
C2087 H2063 0.951 . S
C2087 C2088 1.366 . S
C2087 C2089 1.388 . S
C2088 C2087 1.366 . S
C2088 C2092 1.385 . S
C2089 H2064 0.951 . S
C2089 C2087 1.388 . S
C2089 C2090 1.366 . S
C2090 C2089 1.366 . S
C2090 C2091 1.414 . S
C2090 C2093 1.499 . S
C2091 H2065 0.950 . S
C2091 C2090 1.414 . S
C2091 C2092 1.374 . S
C2092 H2066 0.950 . S
C2092 C2088 1.385 . S
C2092 C2091 1.374 . S
C2093 C2090 1.499 . S
C2093 C2094 1.373 . S
C2093 C2095 1.389 . S
C2094 H2067 0.950 . S
C2094 C2080 1.377 . S
C2094 C2093 1.373 . S
C2095 C2079 1.377 . S
C2095 C2093 1.389 . S
C2095 C2096 1.524 . S
C2096 C2095 1.524 . S
C2096 C2097 1.397 . S
C2096 C2101 1.363 . S
C2097 H2068 0.950 . S
C2097 C2096 1.397 . S
C2097 C2098 1.334 . S
C2098 H2069 0.950 . S
C2098 C2097 1.334 . S
C2098 C2099 1.287 . S
C2099 C2098 1.287 . S
C2099 C2100 1.524 . S
C2099 H2102 0.999 . S
C2100 H2070 0.950 . S
C2100 C2099 1.524 . S
C2100 C2101 1.415 . S
C2101 H2071 0.950 . S
C2101 C2096 1.363 . S
C2101 C2100 1.415 . S
H2102 C2099 0.999 . S
H2103 C2084 0.913 . S
H2104 C2122 0.951 . S
H2105 C2124 0.951 . S
H2106 C2126 0.950 . S
H2107 C2127 0.950 . S
H2108 C2129 0.950 . S
H2109 C2132 0.950 . S
H2110 C2133 0.950 . S
H2111 C2135 0.950 . S
H2112 C2136 0.950 . S
H2113 C2137 0.951 . S
H2114 C2139 0.951 . S
H2115 C2141 0.950 . S
H2116 C2142 0.950 . S
H2117 C2144 0.950 . S
H2118 C2147 0.950 . S
H2119 C2148 0.950 . S
H2120 C2150 0.950 . S
H2121 C2151 0.950 . S
C2122 H2104 0.951 . S
C2122 C2123 1.366 . S
C2122 C2124 1.388 . S
C2123 C2122 1.366 . S
C2123 C2127 1.385 . S
C2124 H2105 0.951 . S
C2124 C2122 1.388 . S
C2124 C2125 1.366 . S
C2125 C2124 1.366 . S
C2125 C2126 1.414 . S
C2125 C2128 1.499 . S
C2126 H2106 0.950 . S
C2126 C2125 1.414 . S
C2126 C2127 1.374 . S
C2127 H2107 0.950 . S
C2127 C2123 1.385 . S
C2127 C2126 1.374 . S
C2128 C2125 1.499 . S
C2128 C2129 1.373 . S
C2128 C2130 1.389 . S
C2129 H2108 0.950 . S
C2129 C2128 1.373 . S
C2129 C2145 1.377 . S
C2130 C2128 1.389 . S
C2130 C2131 1.524 . S
C2130 C2144 1.377 . S
C2131 C2130 1.524 . S
C2131 C2132 1.397 . S
C2131 C2136 1.363 . S
C2132 H2109 0.950 . S
C2132 C2131 1.397 . S
C2132 C2133 1.334 . S
C2133 H2110 0.950 . S
C2133 C2132 1.334 . S
C2133 C2134 1.287 . S
C2134 C2133 1.287 . S
C2134 C2135 1.524 . S
C2134 H2153 0.913 . S
C2135 H2111 0.950 . S
C2135 C2134 1.524 . S
C2135 C2136 1.415 . S
C2136 H2112 0.950 . S
C2136 C2131 1.363 . S
C2136 C2135 1.415 . S
C2137 H2113 0.951 . S
C2137 C2138 1.366 . S
C2137 C2139 1.388 . S
C2138 C2137 1.366 . S
C2138 C2142 1.385 . S
C2139 H2114 0.951 . S
C2139 C2137 1.388 . S
C2139 C2140 1.366 . S
C2140 C2139 1.366 . S
C2140 C2141 1.414 . S
C2140 C2143 1.499 . S
C2141 H2115 0.950 . S
C2141 C2140 1.414 . S
C2141 C2142 1.374 . S
C2142 H2116 0.950 . S
C2142 C2138 1.385 . S
C2142 C2141 1.374 . S
C2143 C2140 1.499 . S
C2143 C2144 1.373 . S
C2143 C2145 1.389 . S
C2144 H2117 0.950 . S
C2144 C2130 1.377 . S
C2144 C2143 1.373 . S
C2145 C2129 1.377 . S
C2145 C2143 1.389 . S
C2145 C2146 1.524 . S
C2146 C2145 1.524 . S
C2146 C2147 1.397 . S
C2146 C2151 1.363 . S
C2147 H2118 0.950 . S
C2147 C2146 1.397 . S
C2147 C2148 1.334 . S
C2148 H2119 0.950 . S
C2148 C2147 1.334 . S
C2148 C2149 1.287 . S
C2149 C2148 1.287 . S
C2149 C2150 1.524 . S
C2149 H2152 0.999 . S
C2150 H2120 0.950 . S
C2150 C2149 1.524 . S
C2150 C2151 1.415 . S
C2151 H2121 0.950 . S
C2151 C2146 1.363 . S
C2151 C2150 1.415 . S
H2152 C2149 0.999 . S
H2153 C2134 0.913 . S
H2154 C2172 0.951 . S
H2155 C2174 0.951 . S
H2156 C2176 0.950 . S
H2157 C2177 0.950 . S
H2158 C2179 0.950 . S
H2159 C2182 0.950 . S
H2160 C2183 0.950 . S
H2161 C2185 0.950 . S
H2162 C2186 0.950 . S
H2163 C2187 0.951 . S
H2164 C2189 0.951 . S
H2165 C2191 0.950 . S
H2166 C2192 0.950 . S
H2167 C2194 0.950 . S
H2168 C2197 0.950 . S
H2169 C2198 0.950 . S
H2170 C2200 0.950 . S
H2171 C2201 0.950 . S
C2172 H2154 0.951 . S
C2172 C2173 1.366 . S
C2172 C2174 1.388 . S
C2173 C2172 1.366 . S
C2173 C2177 1.385 . S
C2174 H2155 0.951 . S
C2174 C2172 1.388 . S
C2174 C2175 1.366 . S
C2175 C2174 1.366 . S
C2175 C2176 1.414 . S
C2175 C2178 1.499 . S
C2176 H2156 0.950 . S
C2176 C2175 1.414 . S
C2176 C2177 1.374 . S
C2177 H2157 0.950 . S
C2177 C2173 1.385 . S
C2177 C2176 1.374 . S
C2178 C2175 1.499 . S
C2178 C2179 1.373 . S
C2178 C2180 1.389 . S
C2179 H2158 0.950 . S
C2179 C2178 1.373 . S
C2179 C2195 1.377 . S
C2180 C2178 1.389 . S
C2180 C2181 1.524 . S
C2180 C2194 1.377 . S
C2181 C2180 1.524 . S
C2181 C2182 1.397 . S
C2181 C2186 1.363 . S
C2182 H2159 0.950 . S
C2182 C2181 1.397 . S
C2182 C2183 1.334 . S
C2183 H2160 0.950 . S
C2183 C2182 1.334 . S
C2183 C2184 1.287 . S
C2184 C2183 1.287 . S
C2184 C2185 1.524 . S
C2184 H2203 0.913 . S
C2185 H2161 0.950 . S
C2185 C2184 1.524 . S
C2185 C2186 1.415 . S
C2186 H2162 0.950 . S
C2186 C2181 1.363 . S
C2186 C2185 1.415 . S
C2187 H2163 0.951 . S
C2187 C2188 1.366 . S
C2187 C2189 1.388 1_556 S
C2188 C2187 1.366 . S
C2188 C2192 1.385 . S
C2189 H2164 0.951 . S
C2189 C2187 1.388 1_554 S
C2189 C2190 1.366 . S
C2190 C2189 1.366 . S
C2190 C2191 1.414 . S
C2190 C2193 1.499 . S
C2191 H2165 0.950 . S
C2191 C2190 1.414 . S
C2191 C2192 1.374 1_554 S
C2192 H2166 0.950 . S
C2192 C2188 1.385 . S
C2192 C2191 1.374 1_556 S
C2193 C2190 1.499 . S
C2193 C2194 1.373 . S
C2193 C2195 1.389 . S
C2194 H2167 0.950 . S
C2194 C2180 1.377 . S
C2194 C2193 1.373 . S
C2195 C2179 1.377 . S
C2195 C2193 1.389 . S
C2195 C2196 1.524 . S
C2196 C2195 1.524 . S
C2196 C2197 1.397 . S
C2196 C2201 1.363 . S
C2197 H2168 0.950 . S
C2197 C2196 1.397 . S
C2197 C2198 1.334 . S
C2198 H2169 0.950 . S
C2198 C2197 1.334 . S
C2198 C2199 1.287 . S
C2199 C2198 1.287 . S
C2199 C2200 1.524 . S
C2199 H2202 0.999 . S
C2200 H2170 0.950 . S
C2200 C2199 1.524 . S
C2200 C2201 1.415 . S
C2201 H2171 0.950 . S
C2201 C2196 1.363 . S
C2201 C2200 1.415 . S
H2202 C2199 0.999 . S
H2203 C2184 0.913 . S
H2204 C2222 0.951 . S
H2205 C2224 0.951 . S
H2206 C2226 0.950 . S
H2207 C2227 0.950 . S
H2208 C2229 0.950 . S
H2209 C2232 0.950 . S
H2210 C2233 0.950 . S
H2211 C2235 0.950 . S
H2212 C2236 0.950 . S
H2213 C2237 0.951 . S
H2214 C2239 0.951 . S
H2215 C2241 0.950 . S
H2216 C2242 0.950 . S
H2217 C2244 0.950 . S
H2218 C2247 0.950 . S
H2219 C2248 0.950 . S
H2220 C2250 0.950 . S
H2221 C2251 0.950 . S
C2222 H2204 0.951 . S
C2222 C2223 1.366 . S
C2222 C2224 1.388 1_556 S
C2223 C2222 1.366 . S
C2223 C2227 1.385 . S
C2224 H2205 0.951 . S
C2224 C2222 1.388 1_554 S
C2224 C2225 1.366 . S
C2225 C2224 1.366 . S
C2225 C2226 1.414 . S
C2225 C2228 1.499 . S
C2226 H2206 0.950 . S
C2226 C2225 1.414 . S
C2226 C2227 1.374 1_554 S
C2227 H2207 0.950 . S
C2227 C2223 1.385 . S
C2227 C2226 1.374 1_556 S
C2228 C2225 1.499 . S
C2228 C2229 1.373 . S
C2228 C2230 1.389 . S
C2229 H2208 0.950 . S
C2229 C2228 1.373 . S
C2229 C2245 1.377 . S
C2230 C2228 1.389 . S
C2230 C2231 1.524 . S
C2230 C2244 1.377 . S
C2231 C2230 1.524 . S
C2231 C2232 1.397 . S
C2231 C2236 1.363 . S
C2232 H2209 0.950 . S
C2232 C2231 1.397 . S
C2232 C2233 1.334 . S
C2233 H2210 0.950 . S
C2233 C2232 1.334 . S
C2233 C2234 1.287 . S
C2234 C2233 1.287 . S
C2234 C2235 1.524 . S
C2234 H2253 0.913 . S
C2235 H2211 0.950 . S
C2235 C2234 1.524 . S
C2235 C2236 1.415 . S
C2236 H2212 0.950 . S
C2236 C2231 1.363 . S
C2236 C2235 1.415 . S
C2237 H2213 0.951 . S
C2237 C2238 1.366 . S
C2237 C2239 1.388 . S
C2238 C2237 1.366 . S
C2238 C2242 1.385 . S
C2239 H2214 0.951 . S
C2239 C2237 1.388 . S
C2239 C2240 1.366 . S
C2240 C2239 1.366 . S
C2240 C2241 1.414 . S
C2240 C2243 1.499 . S
C2241 H2215 0.950 . S
C2241 C2240 1.414 . S
C2241 C2242 1.374 . S
C2242 H2216 0.950 . S
C2242 C2238 1.385 . S
C2242 C2241 1.374 . S
C2243 C2240 1.499 . S
C2243 C2244 1.373 . S
C2243 C2245 1.389 . S
C2244 H2217 0.950 . S
C2244 C2230 1.377 . S
C2244 C2243 1.373 . S
C2245 C2229 1.377 . S
C2245 C2243 1.389 . S
C2245 C2246 1.524 . S
C2246 C2245 1.524 . S
C2246 C2247 1.397 . S
C2246 C2251 1.363 . S
C2247 H2218 0.950 . S
C2247 C2246 1.397 . S
C2247 C2248 1.334 . S
C2248 H2219 0.950 . S
C2248 C2247 1.334 . S
C2248 C2249 1.287 . S
C2249 C2248 1.287 . S
C2249 C2250 1.524 . S
C2249 H2252 0.999 . S
C2250 H2220 0.950 . S
C2250 C2249 1.524 . S
C2250 C2251 1.415 . S
C2251 H2221 0.950 . S
C2251 C2246 1.363 . S
C2251 C2250 1.415 . S
H2252 C2249 0.999 . S
H2253 C2234 0.913 . S
H2254 C2272 0.951 . S
H2255 C2274 0.951 . S
H2256 C2276 0.950 . S
H2257 C2277 0.950 . S
H2258 C2279 0.950 . S
H2259 C2282 0.950 . S
H2260 C2283 0.950 . S
H2261 C2285 0.950 . S
H2262 C2286 0.950 . S
H2263 C2287 0.951 . S
H2264 C2289 0.951 . S
H2265 C2291 0.950 . S
H2266 C2292 0.950 . S
H2267 C2294 0.950 . S
H2268 C2297 0.950 . S
H2269 C2298 0.950 . S
H2270 C2300 0.950 . S
H2271 C2301 0.950 . S
C2272 H2254 0.951 . S
C2272 C2273 1.366 . S
C2272 C2274 1.388 . S
C2273 C2272 1.366 . S
C2273 C2277 1.385 . S
C2274 H2255 0.951 . S
C2274 C2272 1.388 . S
C2274 C2275 1.366 . S
C2275 C2274 1.366 . S
C2275 C2276 1.414 . S
C2275 C2278 1.499 . S
C2276 H2256 0.950 . S
C2276 C2275 1.414 . S
C2276 C2277 1.374 . S
C2277 H2257 0.950 . S
C2277 C2273 1.385 . S
C2277 C2276 1.374 . S
C2278 C2275 1.499 . S
C2278 C2279 1.373 . S
C2278 C2280 1.389 . S
C2279 H2258 0.950 . S
C2279 C2278 1.373 . S
C2279 C2295 1.377 . S
C2280 C2278 1.389 . S
C2280 C2281 1.524 . S
C2280 C2294 1.377 . S
C2281 C2280 1.524 . S
C2281 C2282 1.397 . S
C2281 C2286 1.363 . S
C2282 H2259 0.950 . S
C2282 C2281 1.397 . S
C2282 C2283 1.334 . S
C2283 H2260 0.950 . S
C2283 C2282 1.334 . S
C2283 C2284 1.287 . S
C2284 C2283 1.287 . S
C2284 C2285 1.524 . S
C2284 H2303 0.913 . S
C2285 H2261 0.950 . S
C2285 C2284 1.524 . S
C2285 C2286 1.415 . S
C2286 H2262 0.950 . S
C2286 C2281 1.363 . S
C2286 C2285 1.415 . S
C2287 H2263 0.951 . S
C2287 C2288 1.366 . S
C2287 C2289 1.388 1_556 S
C2288 C2287 1.366 . S
C2288 C2292 1.385 . S
C2289 H2264 0.951 . S
C2289 C2287 1.388 1_554 S
C2289 C2290 1.366 . S
C2290 C2289 1.366 . S
C2290 C2291 1.414 . S
C2290 C2293 1.499 . S
C2291 H2265 0.950 . S
C2291 C2290 1.414 . S
C2291 C2292 1.374 1_554 S
C2292 H2266 0.950 . S
C2292 C2288 1.385 . S
C2292 C2291 1.374 1_556 S
C2293 C2290 1.499 . S
C2293 C2294 1.373 . S
C2293 C2295 1.389 . S
C2294 H2267 0.950 . S
C2294 C2280 1.377 . S
C2294 C2293 1.373 . S
C2295 C2279 1.377 . S
C2295 C2293 1.389 . S
C2295 C2296 1.524 . S
C2296 C2295 1.524 . S
C2296 C2297 1.397 . S
C2296 C2301 1.363 . S
C2297 H2268 0.950 . S
C2297 C2296 1.397 . S
C2297 C2298 1.334 . S
C2298 H2269 0.950 . S
C2298 C2297 1.334 . S
C2298 C2299 1.287 . S
C2299 C2298 1.287 . S
C2299 C2300 1.524 . S
C2299 H2302 0.999 . S
C2300 H2270 0.950 . S
C2300 C2299 1.524 . S
C2300 C2301 1.415 . S
C2301 H2271 0.950 . S
C2301 C2296 1.363 . S
C2301 C2300 1.415 . S
H2302 C2299 0.999 . S
H2303 C2284 0.913 . S
H2304 C2322 0.951 . S
H2305 C2324 0.951 . S
H2306 C2326 0.950 . S
H2307 C2327 0.950 . S
H2308 C2329 0.950 . S
H2309 C2332 0.950 . S
H2310 C2333 0.950 . S
H2311 C2335 0.950 . S
H2312 C2336 0.950 . S
H2313 C2337 0.951 . S
H2314 C2339 0.951 . S
H2315 C2341 0.950 . S
H2316 C2342 0.950 . S
H2317 C2344 0.950 . S
H2318 C2347 0.950 . S
H2319 C2348 0.950 . S
H2320 C2350 0.950 . S
H2321 C2351 0.950 . S
C2322 H2304 0.951 . S
C2322 C2323 1.366 . S
C2322 C2324 1.388 . S
C2323 C2322 1.366 . S
C2323 C2327 1.385 . S
C2324 H2305 0.951 . S
C2324 C2322 1.388 . S
C2324 C2325 1.366 . S
C2325 C2324 1.366 . S
C2325 C2326 1.414 . S
C2325 C2328 1.499 . S
C2326 H2306 0.950 . S
C2326 C2325 1.414 . S
C2326 C2327 1.374 . S
C2327 H2307 0.950 . S
C2327 C2323 1.385 . S
C2327 C2326 1.374 . S
C2328 C2325 1.499 . S
C2328 C2329 1.373 . S
C2328 C2330 1.389 . S
C2329 H2308 0.950 . S
C2329 C2328 1.373 . S
C2329 C2345 1.377 . S
C2330 C2328 1.389 . S
C2330 C2331 1.524 . S
C2330 C2344 1.377 . S
C2331 C2330 1.524 . S
C2331 C2332 1.397 . S
C2331 C2336 1.363 . S
C2332 H2309 0.950 . S
C2332 C2331 1.397 . S
C2332 C2333 1.334 . S
C2333 H2310 0.950 . S
C2333 C2332 1.334 . S
C2333 C2334 1.287 . S
C2334 C2333 1.287 . S
C2334 C2335 1.524 . S
C2334 H2353 0.913 . S
C2335 H2311 0.950 . S
C2335 C2334 1.524 . S
C2335 C2336 1.415 . S
C2336 H2312 0.950 . S
C2336 C2331 1.363 . S
C2336 C2335 1.415 . S
C2337 H2313 0.951 . S
C2337 C2338 1.366 . S
C2337 C2339 1.388 . S
C2338 C2337 1.366 . S
C2338 C2342 1.385 . S
C2339 H2314 0.951 . S
C2339 C2337 1.388 . S
C2339 C2340 1.366 . S
C2340 C2339 1.366 . S
C2340 C2341 1.414 . S
C2340 C2343 1.499 . S
C2341 H2315 0.950 . S
C2341 C2340 1.414 . S
C2341 C2342 1.374 . S
C2342 H2316 0.950 . S
C2342 C2338 1.385 . S
C2342 C2341 1.374 . S
C2343 C2340 1.499 . S
C2343 C2344 1.373 . S
C2343 C2345 1.389 . S
C2344 H2317 0.950 . S
C2344 C2330 1.377 . S
C2344 C2343 1.373 . S
C2345 C2329 1.377 . S
C2345 C2343 1.389 . S
C2345 C2346 1.524 . S
C2346 C2345 1.524 . S
C2346 C2347 1.397 . S
C2346 C2351 1.363 . S
C2347 H2318 0.950 . S
C2347 C2346 1.397 . S
C2347 C2348 1.334 . S
C2348 H2319 0.950 . S
C2348 C2347 1.334 . S
C2348 C2349 1.287 . S
C2349 C2348 1.287 . S
C2349 C2350 1.524 . S
C2349 H2352 0.999 . S
C2350 H2320 0.950 . S
C2350 C2349 1.524 . S
C2350 C2351 1.415 . S
C2351 H2321 0.950 . S
C2351 C2346 1.363 . S
C2351 C2350 1.415 . S
H2352 C2349 0.999 . S
H2353 C2334 0.913 . S
H2354 C2372 0.951 . S
H2355 C2374 0.951 . S
H2356 C2376 0.950 . S
H2357 C2377 0.950 . S
H2358 C2379 0.950 . S
H2359 C2382 0.950 . S
H2360 C2383 0.950 . S
H2361 C2385 0.950 . S
H2362 C2386 0.956 . S
H2363 C2387 0.951 . S
H2364 C2389 0.951 . S
H2365 C2391 0.950 . S
H2366 C2392 0.950 . S
H2367 C2394 0.950 . S
H2368 C2397 0.950 . S
H2369 C2398 0.950 . S
H2370 C2400 0.950 . S
H2371 C2401 0.956 . S
C2372 H2354 0.951 . S
C2372 C2373 1.366 . S
C2372 C2374 1.388 . S
C2373 C2372 1.366 . S
C2373 C2377 1.385 . S
C2374 H2355 0.951 . S
C2374 C2372 1.388 . S
C2374 C2375 1.366 . S
C2375 C2374 1.366 . S
C2375 C2376 1.414 . S
C2375 C2378 1.499 . S
C2376 H2356 0.950 . S
C2376 C2375 1.414 . S
C2376 C2377 1.374 . S
C2377 H2357 0.950 . S
C2377 C2373 1.385 . S
C2377 C2376 1.374 . S
C2378 C2375 1.499 . S
C2378 C2379 1.373 . S
C2378 C2380 1.389 . S
C2379 H2358 0.950 . S
C2379 C2378 1.373 . S
C2379 C2395 1.377 1_565 S
C2380 C2378 1.389 . S
C2380 C2381 1.524 . S
C2380 C2394 1.377 1_565 S
C2381 C2380 1.524 . S
C2381 C2382 1.397 . S
C2381 C2386 1.363 . S
C2382 H2359 0.950 . S
C2382 C2381 1.397 . S
C2382 C2383 1.334 . S
C2383 H2360 0.950 . S
C2383 C2382 1.334 . S
C2383 C2384 1.287 . S
C2384 C2383 1.287 . S
C2384 C2385 1.524 . S
C2384 H2403 0.913 . S
C2385 H2361 0.950 . S
C2385 C2384 1.524 . S
C2385 C2386 1.415 . S
C2386 H2362 0.956 . S
C2386 C2381 1.363 . S
C2386 C2385 1.415 . S
C2387 H2363 0.951 . S
C2387 C2388 1.366 . S
C2387 C2389 1.388 . S
C2388 C2387 1.366 . S
C2388 C2392 1.385 . S
C2389 H2364 0.951 . S
C2389 C2387 1.388 . S
C2389 C2390 1.366 . S
C2390 C2389 1.366 . S
C2390 C2391 1.414 . S
C2390 C2393 1.499 . S
C2391 H2365 0.950 . S
C2391 C2390 1.414 . S
C2391 C2392 1.374 . S
C2392 H2366 0.950 . S
C2392 C2388 1.385 . S
C2392 C2391 1.374 . S
C2393 C2390 1.499 . S
C2393 C2394 1.373 . S
C2393 C2395 1.389 . S
C2394 H2367 0.950 . S
C2394 C2380 1.377 1_545 S
C2394 C2393 1.373 . S
C2395 C2379 1.377 1_545 S
C2395 C2393 1.389 . S
C2395 C2396 1.524 . S
C2396 C2395 1.524 . S
C2396 C2397 1.397 . S
C2396 C2401 1.363 . S
C2397 H2368 0.950 . S
C2397 C2396 1.397 . S
C2397 C2398 1.334 . S
C2398 H2369 0.950 . S
C2398 C2397 1.334 . S
C2398 C2399 1.287 . S
C2399 C2398 1.287 . S
C2399 C2400 1.524 . S
C2399 H2402 0.999 . S
C2400 H2370 0.950 . S
C2400 C2399 1.524 . S
C2400 C2401 1.415 . S
C2401 H2371 0.956 . S
C2401 C2396 1.363 . S
C2401 C2400 1.415 . S
H2402 C2399 0.999 . S
H2403 C2384 0.913 . S
H2404 C2422 0.951 . S
H2405 C2424 0.951 . S
H2406 C2426 0.950 . S
H2407 C2427 0.950 . S
H2408 C2429 0.950 . S
H2409 C2432 0.950 . S
H2410 C2433 0.950 . S
H2411 C2435 0.950 . S
H2412 C2436 0.950 . S
H2413 C2437 0.951 . S
H2414 C2439 0.951 . S
H2415 C2441 0.950 . S
H2416 C2442 0.950 . S
H2417 C2444 0.950 . S
H2418 C2447 0.950 . S
H2419 C2448 0.950 . S
H2420 C2450 0.950 . S
H2421 C2451 0.950 . S
C2422 H2404 0.951 . S
C2422 C2423 1.366 . S
C2422 C2424 1.388 . S
C2423 C2422 1.366 . S
C2423 C2427 1.385 . S
C2424 H2405 0.951 . S
C2424 C2422 1.388 . S
C2424 C2425 1.366 . S
C2425 C2424 1.366 . S
C2425 C2426 1.414 . S
C2425 C2428 1.499 . S
C2426 H2406 0.950 . S
C2426 C2425 1.414 . S
C2426 C2427 1.374 . S
C2427 H2407 0.950 . S
C2427 C2423 1.385 . S
C2427 C2426 1.374 . S
C2428 C2425 1.499 . S
C2428 C2429 1.373 . S
C2428 C2430 1.389 . S
C2429 H2408 0.950 . S
C2429 C2428 1.373 . S
C2429 C2445 1.377 1_655 S
C2430 C2428 1.389 . S
C2430 C2431 1.524 . S
C2430 C2444 1.377 1_655 S
C2431 C2430 1.524 . S
C2431 C2432 1.397 . S
C2431 C2436 1.363 . S
C2432 H2409 0.950 . S
C2432 C2431 1.397 . S
C2432 C2433 1.334 . S
C2433 H2410 0.950 . S
C2433 C2432 1.334 . S
C2433 C2434 1.287 . S
C2434 C2433 1.287 . S
C2434 C2435 1.524 . S
C2434 H2453 0.913 . S
C2435 H2411 0.950 . S
C2435 C2434 1.524 . S
C2435 C2436 1.415 . S
C2436 H2412 0.950 . S
C2436 C2431 1.363 . S
C2436 C2435 1.415 . S
C2437 H2413 0.951 . S
C2437 C2438 1.366 . S
C2437 C2439 1.388 . S
C2438 C2437 1.366 . S
C2438 C2442 1.385 . S
C2439 H2414 0.951 . S
C2439 C2437 1.388 . S
C2439 C2440 1.366 . S
C2440 C2439 1.366 . S
C2440 C2441 1.414 . S
C2440 C2443 1.499 . S
C2441 H2415 0.950 . S
C2441 C2440 1.414 . S
C2441 C2442 1.374 . S
C2442 H2416 0.950 . S
C2442 C2438 1.385 . S
C2442 C2441 1.374 . S
C2443 C2440 1.499 . S
C2443 C2444 1.373 . S
C2443 C2445 1.389 . S
C2444 H2417 0.950 . S
C2444 C2430 1.377 1_455 S
C2444 C2443 1.373 . S
C2445 C2429 1.377 1_455 S
C2445 C2443 1.389 . S
C2445 C2446 1.524 . S
C2446 C2445 1.524 . S
C2446 C2447 1.397 . S
C2446 C2451 1.363 . S
C2447 H2418 0.950 . S
C2447 C2446 1.397 . S
C2447 C2448 1.334 . S
C2448 H2419 0.950 . S
C2448 C2447 1.334 . S
C2448 C2449 1.287 . S
C2449 C2448 1.287 . S
C2449 C2450 1.524 . S
C2449 H2452 0.999 . S
C2450 H2420 0.950 . S
C2450 C2449 1.524 . S
C2450 C2451 1.415 . S
C2451 H2421 0.950 . S
C2451 C2446 1.363 . S
C2451 C2450 1.415 . S
H2452 C2449 0.999 . S
H2453 C2434 0.913 . S
H2454 C2472 0.951 . S
H2455 C2474 0.951 . S
H2456 C2476 0.950 . S
H2457 C2477 0.950 . S
H2458 C2479 0.950 . S
H2459 C2482 0.950 . S
H2460 C2483 0.950 . S
H2461 C2485 0.950 . S
H2462 C2486 0.950 . S
H2463 C2487 0.951 . S
H2464 C2489 0.951 . S
H2465 C2491 0.950 . S
H2466 C2492 0.950 . S
H2467 C2494 0.950 . S
H2468 C2497 0.950 . S
H2469 C2498 0.950 . S
H2470 C2500 0.950 . S
H2471 C2501 0.950 . S
C2472 H2454 0.951 . S
C2472 C2473 1.366 . S
C2472 C2474 1.388 . S
C2473 C2472 1.366 . S
C2473 C2477 1.385 . S
C2474 H2455 0.951 . S
C2474 C2472 1.388 . S
C2474 C2475 1.366 . S
C2475 C2474 1.366 . S
C2475 C2476 1.414 . S
C2475 C2478 1.499 . S
C2476 H2456 0.950 . S
C2476 C2475 1.414 . S
C2476 C2477 1.374 . S
C2477 H2457 0.950 . S
C2477 C2473 1.385 . S
C2477 C2476 1.374 . S
C2478 C2475 1.499 . S
C2478 C2479 1.373 . S
C2478 C2480 1.389 . S
C2479 H2458 0.950 . S
C2479 C2478 1.373 . S
C2479 C2495 1.377 . S
C2480 C2478 1.389 . S
C2480 C2481 1.524 . S
C2480 C2494 1.377 . S
C2481 C2480 1.524 . S
C2481 C2482 1.397 . S
C2481 C2486 1.363 . S
C2482 H2459 0.950 . S
C2482 C2481 1.397 . S
C2482 C2483 1.334 . S
C2483 H2460 0.950 . S
C2483 C2482 1.334 . S
C2483 C2484 1.287 . S
C2484 C2483 1.287 . S
C2484 C2485 1.524 . S
C2484 H2503 0.913 . S
C2485 H2461 0.950 . S
C2485 C2484 1.524 . S
C2485 C2486 1.415 . S
C2486 H2462 0.950 . S
C2486 C2481 1.363 . S
C2486 C2485 1.415 . S
C2487 H2463 0.951 . S
C2487 C2488 1.366 . S
C2487 C2489 1.388 . S
C2488 C2487 1.366 . S
C2488 C2492 1.385 . S
C2489 H2464 0.951 . S
C2489 C2487 1.388 . S
C2489 C2490 1.366 . S
C2490 C2489 1.366 . S
C2490 C2491 1.414 . S
C2490 C2493 1.499 . S
C2491 H2465 0.950 . S
C2491 C2490 1.414 . S
C2491 C2492 1.374 . S
C2492 H2466 0.950 . S
C2492 C2488 1.385 . S
C2492 C2491 1.374 . S
C2493 C2490 1.499 . S
C2493 C2494 1.373 . S
C2493 C2495 1.389 . S
C2494 H2467 0.950 . S
C2494 C2480 1.377 . S
C2494 C2493 1.373 . S
C2495 C2479 1.377 . S
C2495 C2493 1.389 . S
C2495 C2496 1.524 . S
C2496 C2495 1.524 . S
C2496 C2497 1.397 . S
C2496 C2501 1.363 . S
C2497 H2468 0.950 . S
C2497 C2496 1.397 . S
C2497 C2498 1.334 . S
C2498 H2469 0.950 . S
C2498 C2497 1.334 . S
C2498 C2499 1.287 . S
C2499 C2498 1.287 . S
C2499 C2500 1.524 . S
C2499 H2502 0.999 . S
C2500 H2470 0.950 . S
C2500 C2499 1.524 . S
C2500 C2501 1.415 . S
C2501 H2471 0.950 . S
C2501 C2496 1.363 . S
C2501 C2500 1.415 . S
H2502 C2499 0.999 . S
H2503 C2484 0.913 . S
H2504 C2522 0.951 . S
H2505 C2524 0.951 . S
H2506 C2526 0.950 . S
H2507 C2527 0.950 . S
H2508 C2529 0.950 . S
H2509 C2532 0.950 . S
H2510 C2533 0.950 . S
H2511 C2535 0.950 . S
H2512 C2536 0.950 1_565 S
H2513 C2537 0.951 . S
H2514 C2539 0.951 . S
H2515 C2541 0.950 . S
H2516 C2542 0.950 . S
H2517 C2544 0.950 . S
H2518 C2547 0.950 . S
H2519 C2548 0.950 . S
H2520 C2550 0.950 . S
H2521 C2551 0.950 1_545 S
C2522 H2504 0.951 . S
C2522 C2523 1.366 . S
C2522 C2524 1.388 . S
C2523 C2522 1.366 . S
C2523 C2527 1.385 . S
C2524 H2505 0.951 . S
C2524 C2522 1.388 . S
C2524 C2525 1.366 . S
C2525 C2524 1.366 . S
C2525 C2526 1.414 . S
C2525 C2528 1.499 . S
C2526 H2506 0.950 . S
C2526 C2525 1.414 . S
C2526 C2527 1.374 . S
C2527 H2507 0.950 . S
C2527 C2523 1.385 . S
C2527 C2526 1.374 . S
C2528 C2525 1.499 . S
C2528 C2529 1.373 . S
C2528 C2530 1.389 . S
C2529 H2508 0.950 . S
C2529 C2528 1.373 . S
C2529 C2545 1.377 1_545 S
C2530 C2528 1.389 . S
C2530 C2531 1.524 . S
C2530 C2544 1.377 1_545 S
C2531 C2530 1.524 . S
C2531 C2532 1.397 . S
C2531 C2536 1.363 . S
C2532 H2509 0.950 . S
C2532 C2531 1.397 . S
C2532 C2533 1.334 . S
C2533 H2510 0.950 . S
C2533 C2532 1.334 . S
C2533 C2534 1.287 . S
C2534 C2533 1.287 . S
C2534 C2535 1.524 . S
C2534 H2553 0.913 . S
C2535 H2511 0.950 . S
C2535 C2534 1.524 . S
C2535 C2536 1.415 . S
C2536 H2512 0.950 1_545 S
C2536 C2531 1.363 . S
C2536 C2535 1.415 . S
C2537 H2513 0.951 . S
C2537 C2538 1.366 . S
C2537 C2539 1.388 . S
C2538 C2537 1.366 . S
C2538 C2542 1.385 . S
C2539 H2514 0.951 . S
C2539 C2537 1.388 . S
C2539 C2540 1.366 . S
C2540 C2539 1.366 . S
C2540 C2541 1.414 . S
C2540 C2543 1.499 . S
C2541 H2515 0.950 . S
C2541 C2540 1.414 . S
C2541 C2542 1.374 . S
C2542 H2516 0.950 . S
C2542 C2538 1.385 . S
C2542 C2541 1.374 . S
C2543 C2540 1.499 . S
C2543 C2544 1.373 . S
C2543 C2545 1.389 . S
C2544 H2517 0.950 . S
C2544 C2530 1.377 1_565 S
C2544 C2543 1.373 . S
C2545 C2529 1.377 1_565 S
C2545 C2543 1.389 . S
C2545 C2546 1.524 . S
C2546 C2545 1.524 . S
C2546 C2547 1.397 . S
C2546 C2551 1.363 . S
C2547 H2518 0.950 . S
C2547 C2546 1.397 . S
C2547 C2548 1.334 . S
C2548 H2519 0.950 . S
C2548 C2547 1.334 . S
C2548 C2549 1.287 . S
C2549 C2548 1.287 . S
C2549 C2550 1.524 . S
C2549 H2552 0.999 . S
C2550 H2520 0.950 . S
C2550 C2549 1.524 . S
C2550 C2551 1.415 . S
C2551 H2521 0.950 1_565 S
C2551 C2546 1.363 . S
C2551 C2550 1.415 . S
H2552 C2549 0.999 . S
H2553 C2534 0.913 . S
H2554 C2572 0.951 . S
H2555 C2574 0.951 . S
H2556 C2576 0.950 . S
H2557 C2577 0.950 . S
H2558 C2579 0.950 . S
H2559 C2582 0.950 . S
H2560 C2583 0.950 . S
H2561 C2585 0.950 . S
H2562 C2586 0.941 1_455 S
H2563 C2587 0.951 . S
H2564 C2589 0.951 . S
H2565 C2591 0.950 . S
H2566 C2592 0.950 . S
H2567 C2594 0.950 . S
H2568 C2597 0.950 . S
H2569 C2598 0.950 . S
H2570 C2600 0.950 . S
H2571 C2601 0.941 1_655 S
C2572 H2554 0.951 . S
C2572 C2573 1.366 . S
C2572 C2574 1.388 . S
C2573 C2572 1.366 . S
C2573 C2577 1.385 . S
C2574 H2555 0.951 . S
C2574 C2572 1.388 . S
C2574 C2575 1.366 . S
C2575 C2574 1.366 . S
C2575 C2576 1.414 . S
C2575 C2578 1.499 . S
C2576 H2556 0.950 . S
C2576 C2575 1.414 . S
C2576 C2577 1.374 . S
C2577 H2557 0.950 . S
C2577 C2573 1.385 . S
C2577 C2576 1.374 . S
C2578 C2575 1.499 . S
C2578 C2579 1.373 . S
C2578 C2580 1.389 . S
C2579 H2558 0.950 . S
C2579 C2578 1.373 . S
C2579 C2595 1.377 1_655 S
C2580 C2578 1.389 . S
C2580 C2581 1.524 . S
C2580 C2594 1.377 1_655 S
C2581 C2580 1.524 . S
C2581 C2582 1.397 . S
C2581 C2586 1.363 . S
C2582 H2559 0.950 . S
C2582 C2581 1.397 . S
C2582 C2583 1.334 . S
C2583 H2560 0.950 . S
C2583 C2582 1.334 . S
C2583 C2584 1.287 . S
C2584 C2583 1.287 . S
C2584 C2585 1.524 . S
C2584 H2603 0.913 . S
C2585 H2561 0.950 . S
C2585 C2584 1.524 . S
C2585 C2586 1.415 . S
C2586 H2562 0.941 1_655 S
C2586 C2581 1.363 . S
C2586 C2585 1.415 . S
C2587 H2563 0.951 . S
C2587 C2588 1.366 . S
C2587 C2589 1.388 . S
C2588 C2587 1.366 . S
C2588 C2592 1.385 . S
C2589 H2564 0.951 . S
C2589 C2587 1.388 . S
C2589 C2590 1.366 . S
C2590 C2589 1.366 . S
C2590 C2591 1.414 . S
C2590 C2593 1.499 . S
C2591 H2565 0.950 . S
C2591 C2590 1.414 . S
C2591 C2592 1.374 . S
C2592 H2566 0.950 . S
C2592 C2588 1.385 . S
C2592 C2591 1.374 . S
C2593 C2590 1.499 . S
C2593 C2594 1.373 . S
C2593 C2595 1.389 . S
C2594 H2567 0.950 . S
C2594 C2580 1.377 1_455 S
C2594 C2593 1.373 . S
C2595 C2579 1.377 1_455 S
C2595 C2593 1.389 . S
C2595 C2596 1.524 . S
C2596 C2595 1.524 . S
C2596 C2597 1.397 . S
C2596 C2601 1.363 . S
C2597 H2568 0.950 . S
C2597 C2596 1.397 . S
C2597 C2598 1.334 . S
C2598 H2569 0.950 . S
C2598 C2597 1.334 . S
C2598 C2599 1.287 . S
C2599 C2598 1.287 . S
C2599 C2600 1.524 . S
C2599 H2602 0.999 . S
C2600 H2570 0.950 . S
C2600 C2599 1.524 . S
C2600 C2601 1.415 . S
C2601 H2571 0.941 1_455 S
C2601 C2596 1.363 . S
C2601 C2600 1.415 . S
H2602 C2599 0.999 . S
H2603 C2584 0.913 . S
H2604 C2622 0.951 . S
H2605 C2624 0.951 . S
H2606 C2626 0.950 . S
H2607 C2627 0.950 . S
H2608 C2629 0.950 . S
H2609 C2632 0.950 . S
H2610 C2633 0.950 . S
H2611 C2635 0.950 . S
H2612 C2636 0.950 . S
H2613 C2637 0.951 . S
H2614 C2639 0.951 . S
H2615 C2641 0.950 . S
H2616 C2642 0.950 . S
H2617 C2644 0.950 . S
H2618 C2647 0.950 . S
H2619 C2648 0.950 . S
H2620 C2650 0.950 . S
H2621 C2651 0.950 . S
C2622 H2604 0.951 . S
C2622 C2623 1.366 . S
C2622 C2624 1.388 . S
C2623 C2622 1.366 . S
C2623 C2627 1.385 . S
C2624 H2605 0.951 . S
C2624 C2622 1.388 . S
C2624 C2625 1.366 . S
C2625 C2624 1.366 . S
C2625 C2626 1.414 . S
C2625 C2628 1.499 . S
C2626 H2606 0.950 . S
C2626 C2625 1.414 . S
C2626 C2627 1.374 . S
C2627 H2607 0.950 . S
C2627 C2623 1.385 . S
C2627 C2626 1.374 . S
C2628 C2625 1.499 . S
C2628 C2629 1.373 . S
C2628 C2630 1.389 . S
C2629 H2608 0.950 . S
C2629 C2628 1.373 . S
C2629 C2645 1.377 . S
C2630 C2628 1.389 . S
C2630 C2631 1.524 . S
C2630 C2644 1.377 . S
C2631 C2630 1.524 . S
C2631 C2632 1.397 . S
C2631 C2636 1.363 . S
C2632 H2609 0.950 . S
C2632 C2631 1.397 . S
C2632 C2633 1.334 . S
C2633 H2610 0.950 . S
C2633 C2632 1.334 . S
C2633 C2634 1.287 . S
C2634 C2633 1.287 . S
C2634 C2635 1.524 . S
C2634 H2653 0.913 . S
C2635 H2611 0.950 . S
C2635 C2634 1.524 . S
C2635 C2636 1.415 . S
C2636 H2612 0.950 . S
C2636 C2631 1.363 . S
C2636 C2635 1.415 . S
C2637 H2613 0.951 . S
C2637 C2638 1.366 . S
C2637 C2639 1.388 . S
C2638 C2637 1.366 . S
C2638 C2642 1.385 . S
C2639 H2614 0.951 . S
C2639 C2637 1.388 . S
C2639 C2640 1.366 . S
C2640 C2639 1.366 . S
C2640 C2641 1.414 . S
C2640 C2643 1.499 . S
C2641 H2615 0.950 . S
C2641 C2640 1.414 . S
C2641 C2642 1.374 . S
C2642 H2616 0.950 . S
C2642 C2638 1.385 . S
C2642 C2641 1.374 . S
C2643 C2640 1.499 . S
C2643 C2644 1.373 . S
C2643 C2645 1.389 . S
C2644 H2617 0.950 . S
C2644 C2630 1.377 . S
C2644 C2643 1.373 . S
C2645 C2629 1.377 . S
C2645 C2643 1.389 . S
C2645 C2646 1.524 . S
C2646 C2645 1.524 . S
C2646 C2647 1.397 . S
C2646 C2651 1.363 . S
C2647 H2618 0.950 . S
C2647 C2646 1.397 . S
C2647 C2648 1.334 . S
C2648 H2619 0.950 . S
C2648 C2647 1.334 . S
C2648 C2649 1.287 . S
C2649 C2648 1.287 . S
C2649 C2650 1.524 . S
C2649 H2652 0.999 . S
C2650 H2620 0.950 . S
C2650 C2649 1.524 . S
C2650 C2651 1.415 . S
C2651 H2621 0.950 . S
C2651 C2646 1.363 . S
C2651 C2650 1.415 . S
H2652 C2649 0.999 . S
H2653 C2634 0.913 . S
H2654 C2672 0.951 . S
H2655 C2674 0.951 . S
H2656 C2676 0.950 . S
H2657 C2677 0.950 . S
H2658 C2679 0.950 . S
H2659 C2682 0.950 . S
H2660 C2683 0.950 . S
H2661 C2685 0.950 . S
H2662 C2686 0.950 . S
H2663 C2687 0.951 . S
H2664 C2689 0.951 . S
H2665 C2691 0.950 . S
H2666 C2692 0.950 . S
H2667 C2694 0.950 . S
H2668 C2697 0.950 . S
H2669 C2698 0.950 . S
H2670 C2700 0.950 . S
H2671 C2701 0.950 . S
C2672 H2654 0.951 . S
C2672 C2673 1.366 . S
C2672 C2674 1.388 . S
C2673 C2672 1.366 . S
C2673 C2677 1.385 . S
C2674 H2655 0.951 . S
C2674 C2672 1.388 . S
C2674 C2675 1.366 . S
C2675 C2674 1.366 . S
C2675 C2676 1.414 . S
C2675 C2678 1.499 . S
C2676 H2656 0.950 . S
C2676 C2675 1.414 . S
C2676 C2677 1.374 . S
C2677 H2657 0.950 . S
C2677 C2673 1.385 . S
C2677 C2676 1.374 . S
C2678 C2675 1.499 . S
C2678 C2679 1.373 . S
C2678 C2680 1.389 . S
C2679 H2658 0.950 . S
C2679 C2678 1.373 . S
C2679 C2695 1.377 . S
C2680 C2678 1.389 . S
C2680 C2681 1.524 . S
C2680 C2694 1.377 . S
C2681 C2680 1.524 . S
C2681 C2682 1.397 . S
C2681 C2686 1.363 . S
C2682 H2659 0.950 . S
C2682 C2681 1.397 . S
C2682 C2683 1.334 . S
C2683 H2660 0.950 . S
C2683 C2682 1.334 . S
C2683 C2684 1.287 . S
C2684 C2683 1.287 . S
C2684 C2685 1.524 . S
C2684 H2703 0.913 . S
C2685 H2661 0.950 . S
C2685 C2684 1.524 . S
C2685 C2686 1.415 . S
C2686 H2662 0.950 . S
C2686 C2681 1.363 . S
C2686 C2685 1.415 . S
C2687 H2663 0.951 . S
C2687 C2688 1.366 . S
C2687 C2689 1.388 . S
C2688 C2687 1.366 . S
C2688 C2692 1.385 . S
C2689 H2664 0.951 . S
C2689 C2687 1.388 . S
C2689 C2690 1.366 . S
C2690 C2689 1.366 . S
C2690 C2691 1.414 . S
C2690 C2693 1.499 . S
C2691 H2665 0.950 . S
C2691 C2690 1.414 . S
C2691 C2692 1.374 . S
C2692 H2666 0.950 . S
C2692 C2688 1.385 . S
C2692 C2691 1.374 . S
C2693 C2690 1.499 . S
C2693 C2694 1.373 . S
C2693 C2695 1.389 . S
C2694 H2667 0.950 . S
C2694 C2680 1.377 . S
C2694 C2693 1.373 . S
C2695 C2679 1.377 . S
C2695 C2693 1.389 . S
C2695 C2696 1.524 . S
C2696 C2695 1.524 . S
C2696 C2697 1.397 . S
C2696 C2701 1.363 . S
C2697 H2668 0.950 . S
C2697 C2696 1.397 . S
C2697 C2698 1.334 . S
C2698 H2669 0.950 . S
C2698 C2697 1.334 . S
C2698 C2699 1.287 . S
C2699 C2698 1.287 . S
C2699 C2700 1.524 . S
C2699 H2702 0.999 . S
C2700 H2670 0.950 . S
C2700 C2699 1.524 . S
C2700 C2701 1.415 . S
C2701 H2671 0.950 . S
C2701 C2696 1.363 . S
C2701 C2700 1.415 . S
H2702 C2699 0.999 . S
H2703 C2684 0.913 . S
H2704 C2722 0.951 . S
H2705 C2724 0.951 . S
H2706 C2726 0.950 . S
H2707 C2727 0.950 . S
H2708 C2729 0.950 . S
H2709 C2732 0.950 . S
H2710 C2733 0.950 . S
H2711 C2735 0.950 . S
H2712 C2736 0.950 . S
H2713 C2737 0.951 . S
H2714 C2739 0.951 . S
H2715 C2741 0.950 . S
H2716 C2742 0.950 . S
H2717 C2744 0.950 . S
H2718 C2747 0.950 . S
H2719 C2748 0.950 . S
H2720 C2750 0.950 . S
H2721 C2751 0.950 . S
C2722 H2704 0.951 . S
C2722 C2723 1.366 . S
C2722 C2724 1.388 . S
C2723 C2722 1.366 . S
C2723 C2727 1.385 . S
C2724 H2705 0.951 . S
C2724 C2722 1.388 . S
C2724 C2725 1.366 . S
C2725 C2724 1.366 . S
C2725 C2726 1.414 . S
C2725 C2728 1.499 . S
C2726 H2706 0.950 . S
C2726 C2725 1.414 . S
C2726 C2727 1.374 . S
C2727 H2707 0.950 . S
C2727 C2723 1.385 . S
C2727 C2726 1.374 . S
C2728 C2725 1.499 . S
C2728 C2729 1.373 . S
C2728 C2730 1.389 . S
C2729 H2708 0.950 . S
C2729 C2728 1.373 . S
C2729 C2745 1.377 . S
C2730 C2728 1.389 . S
C2730 C2731 1.524 . S
C2730 C2744 1.377 . S
C2731 C2730 1.524 . S
C2731 C2732 1.397 . S
C2731 C2736 1.363 . S
C2732 H2709 0.950 . S
C2732 C2731 1.397 . S
C2732 C2733 1.334 . S
C2733 H2710 0.950 . S
C2733 C2732 1.334 . S
C2733 C2734 1.287 . S
C2734 C2733 1.287 . S
C2734 C2735 1.524 . S
C2734 H2753 0.913 . S
C2735 H2711 0.950 . S
C2735 C2734 1.524 . S
C2735 C2736 1.415 . S
C2736 H2712 0.950 . S
C2736 C2731 1.363 . S
C2736 C2735 1.415 . S
C2737 H2713 0.951 . S
C2737 C2738 1.366 . S
C2737 C2739 1.388 . S
C2738 C2737 1.366 . S
C2738 C2742 1.385 . S
C2739 H2714 0.951 . S
C2739 C2737 1.388 . S
C2739 C2740 1.366 . S
C2740 C2739 1.366 . S
C2740 C2741 1.414 . S
C2740 C2743 1.499 . S
C2741 H2715 0.950 . S
C2741 C2740 1.414 . S
C2741 C2742 1.374 . S
C2742 H2716 0.950 . S
C2742 C2738 1.385 . S
C2742 C2741 1.374 . S
C2743 C2740 1.499 . S
C2743 C2744 1.373 . S
C2743 C2745 1.389 . S
C2744 H2717 0.950 . S
C2744 C2730 1.377 . S
C2744 C2743 1.373 . S
C2745 C2729 1.377 . S
C2745 C2743 1.389 . S
C2745 C2746 1.524 . S
C2746 C2745 1.524 . S
C2746 C2747 1.397 . S
C2746 C2751 1.363 . S
C2747 H2718 0.950 . S
C2747 C2746 1.397 . S
C2747 C2748 1.334 . S
C2748 H2719 0.950 . S
C2748 C2747 1.334 . S
C2748 C2749 1.287 . S
C2749 C2748 1.287 . S
C2749 C2750 1.524 . S
C2749 H2752 0.999 . S
C2750 H2720 0.950 . S
C2750 C2749 1.524 . S
C2750 C2751 1.415 . S
C2751 H2721 0.950 . S
C2751 C2746 1.363 . S
C2751 C2750 1.415 . S
H2752 C2749 0.999 . S
H2753 C2734 0.913 . S
H2754 C2772 0.951 . S
H2755 C2774 0.951 . S
H2756 C2776 0.950 . S
H2757 C2777 0.950 . S
H2758 C2779 0.950 . S
H2759 C2782 0.950 . S
H2760 C2783 0.950 . S
H2761 C2785 0.950 . S
H2762 C2786 0.950 . S
H2763 C2787 0.951 . S
H2764 C2789 0.951 . S
H2765 C2791 0.950 . S
H2766 C2792 0.950 . S
H2767 C2794 0.950 . S
H2768 C2797 0.950 . S
H2769 C2798 0.950 . S
H2770 C2800 0.950 . S
H2771 C2801 0.950 . S
C2772 H2754 0.951 . S
C2772 C2773 1.366 . S
C2772 C2774 1.388 . S
C2773 C2772 1.366 . S
C2773 C2777 1.385 . S
C2774 H2755 0.951 . S
C2774 C2772 1.388 . S
C2774 C2775 1.366 . S
C2775 C2774 1.366 . S
C2775 C2776 1.414 . S
C2775 C2778 1.499 . S
C2776 H2756 0.950 . S
C2776 C2775 1.414 . S
C2776 C2777 1.374 . S
C2777 H2757 0.950 . S
C2777 C2773 1.385 . S
C2777 C2776 1.374 . S
C2778 C2775 1.499 . S
C2778 C2779 1.373 . S
C2778 C2780 1.389 . S
C2779 H2758 0.950 . S
C2779 C2778 1.373 . S
C2779 C2795 1.377 . S
C2780 C2778 1.389 . S
C2780 C2781 1.524 . S
C2780 C2794 1.377 . S
C2781 C2780 1.524 . S
C2781 C2782 1.397 . S
C2781 C2786 1.363 . S
C2782 H2759 0.950 . S
C2782 C2781 1.397 . S
C2782 C2783 1.334 . S
C2783 H2760 0.950 . S
C2783 C2782 1.334 . S
C2783 C2784 1.287 . S
C2784 C2783 1.287 . S
C2784 C2785 1.524 . S
C2784 H2803 0.913 . S
C2785 H2761 0.950 . S
C2785 C2784 1.524 . S
C2785 C2786 1.415 . S
C2786 H2762 0.950 . S
C2786 C2781 1.363 . S
C2786 C2785 1.415 . S
C2787 H2763 0.951 . S
C2787 C2788 1.366 . S
C2787 C2789 1.388 . S
C2788 C2787 1.366 . S
C2788 C2792 1.385 . S
C2789 H2764 0.951 . S
C2789 C2787 1.388 . S
C2789 C2790 1.366 . S
C2790 C2789 1.366 . S
C2790 C2791 1.414 . S
C2790 C2793 1.499 . S
C2791 H2765 0.950 . S
C2791 C2790 1.414 . S
C2791 C2792 1.374 . S
C2792 H2766 0.950 . S
C2792 C2788 1.385 . S
C2792 C2791 1.374 . S
C2793 C2790 1.499 . S
C2793 C2794 1.373 . S
C2793 C2795 1.389 . S
C2794 H2767 0.950 . S
C2794 C2780 1.377 . S
C2794 C2793 1.373 . S
C2795 C2779 1.377 . S
C2795 C2793 1.389 . S
C2795 C2796 1.524 . S
C2796 C2795 1.524 . S
C2796 C2797 1.397 . S
C2796 C2801 1.363 . S
C2797 H2768 0.950 . S
C2797 C2796 1.397 . S
C2797 C2798 1.334 . S
C2798 H2769 0.950 . S
C2798 C2797 1.334 . S
C2798 C2799 1.287 . S
C2799 C2798 1.287 . S
C2799 C2800 1.524 . S
C2799 H2802 0.999 . S
C2800 H2770 0.950 . S
C2800 C2799 1.524 . S
C2800 C2801 1.415 . S
C2801 H2771 0.950 . S
C2801 C2796 1.363 . S
C2801 C2800 1.415 . S
H2802 C2799 0.999 . S
H2803 C2784 0.913 . S
H2804 C2822 0.951 . S
H2805 C2824 0.951 . S
H2806 C2826 0.950 . S
H2807 C2827 0.950 . S
H2808 C2829 0.950 . S
H2809 C2832 0.950 1_554 S
H2810 C2833 0.950 . S
H2811 C2835 0.950 . S
H2812 C2836 0.962 . S
H2813 C2837 0.951 . S
H2814 C2839 0.951 . S
H2815 C2841 0.950 . S
H2816 C2842 0.950 . S
H2817 C2844 0.950 . S
H2818 C2847 0.950 . S
H2819 C2848 0.950 . S
H2820 C2850 0.950 . S
H2821 C2851 0.950 . S
C2822 H2804 0.951 . S
C2822 C2823 1.366 . S
C2822 C2824 1.388 . S
C2823 C2822 1.366 . S
C2823 C2827 1.385 . S
C2824 H2805 0.951 . S
C2824 C2822 1.388 . S
C2824 C2825 1.366 . S
C2825 C2824 1.366 . S
C2825 C2826 1.414 . S
C2825 C2828 1.499 . S
C2826 H2806 0.950 . S
C2826 C2825 1.414 . S
C2826 C2827 1.374 . S
C2827 H2807 0.950 . S
C2827 C2823 1.385 . S
C2827 C2826 1.374 . S
C2828 C2825 1.499 . S
C2828 C2829 1.373 . S
C2828 C2830 1.389 . S
C2829 H2808 0.950 . S
C2829 C2828 1.373 . S
C2829 C2845 1.377 . S
C2830 C2828 1.389 . S
C2830 C2831 1.524 . S
C2830 C2844 1.377 . S
C2831 C2830 1.524 . S
C2831 C2832 1.397 1_554 S
C2831 C2836 1.363 1_554 S
C2832 H2809 0.950 1_556 S
C2832 C2831 1.397 1_556 S
C2832 C2833 1.334 . S
C2833 H2810 0.950 . S
C2833 C2832 1.334 . S
C2833 C2834 1.287 . S
C2834 C2833 1.287 . S
C2834 C2835 1.524 . S
C2834 H2853 0.913 . S
C2835 H2811 0.950 . S
C2835 C2834 1.524 . S
C2835 C2836 1.415 . S
C2836 H2812 0.962 . S
C2836 C2831 1.363 1_556 S
C2836 C2835 1.415 . S
C2837 H2813 0.951 . S
C2837 C2838 1.366 . S
C2837 C2839 1.388 . S
C2838 C2837 1.366 . S
C2838 C2842 1.385 . S
C2839 H2814 0.951 . S
C2839 C2837 1.388 . S
C2839 C2840 1.366 . S
C2840 C2839 1.366 . S
C2840 C2841 1.414 . S
C2840 C2843 1.499 . S
C2841 H2815 0.950 . S
C2841 C2840 1.414 . S
C2841 C2842 1.374 . S
C2842 H2816 0.950 . S
C2842 C2838 1.385 . S
C2842 C2841 1.374 . S
C2843 C2840 1.499 . S
C2843 C2844 1.373 . S
C2843 C2845 1.389 . S
C2844 H2817 0.950 . S
C2844 C2830 1.377 . S
C2844 C2843 1.373 . S
C2845 C2829 1.377 . S
C2845 C2843 1.389 . S
C2845 C2846 1.524 . S
C2846 C2845 1.524 . S
C2846 C2847 1.397 . S
C2846 C2851 1.363 . S
C2847 H2818 0.950 . S
C2847 C2846 1.397 . S
C2847 C2848 1.334 . S
C2848 H2819 0.950 . S
C2848 C2847 1.334 . S
C2848 C2849 1.287 . S
C2849 C2848 1.287 . S
C2849 C2850 1.524 . S
C2849 H2852 0.999 . S
C2850 H2820 0.950 . S
C2850 C2849 1.524 . S
C2850 C2851 1.415 . S
C2851 H2821 0.950 . S
C2851 C2846 1.363 . S
C2851 C2850 1.415 . S
H2852 C2849 0.999 . S
H2853 C2834 0.913 . S
H2854 C2872 0.951 . S
H2855 C2874 0.951 . S
H2856 C2876 0.950 . S
H2857 C2877 0.950 . S
H2858 C2879 0.950 . S
H2859 C2882 0.950 . S
H2860 C2883 0.950 . S
H2861 C2885 0.950 . S
H2862 C2886 0.950 . S
H2863 C2887 0.951 . S
H2864 C2889 0.951 . S
H2865 C2891 0.950 . S
H2866 C2892 0.950 . S
H2867 C2894 0.950 . S
H2868 C2897 0.950 . S
H2869 C2898 0.950 . S
H2870 C2900 0.950 . S
H2871 C2901 0.950 . S
C2872 H2854 0.951 . S
C2872 C2873 1.366 . S
C2872 C2874 1.388 . S
C2873 C2872 1.366 . S
C2873 C2877 1.385 . S
C2874 H2855 0.951 . S
C2874 C2872 1.388 . S
C2874 C2875 1.366 . S
C2875 C2874 1.366 . S
C2875 C2876 1.414 . S
C2875 C2878 1.499 . S
C2876 H2856 0.950 . S
C2876 C2875 1.414 . S
C2876 C2877 1.374 . S
C2877 H2857 0.950 . S
C2877 C2873 1.385 . S
C2877 C2876 1.374 . S
C2878 C2875 1.499 . S
C2878 C2879 1.373 . S
C2878 C2880 1.389 . S
C2879 H2858 0.950 . S
C2879 C2878 1.373 . S
C2879 C2895 1.377 . S
C2880 C2878 1.389 . S
C2880 C2881 1.524 . S
C2880 C2894 1.377 . S
C2881 C2880 1.524 . S
C2881 C2882 1.397 . S
C2881 C2886 1.363 . S
C2882 H2859 0.950 . S
C2882 C2881 1.397 . S
C2882 C2883 1.334 . S
C2883 H2860 0.950 . S
C2883 C2882 1.334 . S
C2883 C2884 1.287 . S
C2884 C2883 1.287 . S
C2884 C2885 1.524 . S
C2884 H2903 0.913 . S
C2885 H2861 0.950 . S
C2885 C2884 1.524 . S
C2885 C2886 1.415 . S
C2886 H2862 0.950 . S
C2886 C2881 1.363 . S
C2886 C2885 1.415 . S
C2887 H2863 0.951 . S
C2887 C2888 1.366 . S
C2887 C2889 1.388 . S
C2888 C2887 1.366 . S
C2888 C2892 1.385 . S
C2889 H2864 0.951 . S
C2889 C2887 1.388 . S
C2889 C2890 1.366 . S
C2890 C2889 1.366 . S
C2890 C2891 1.414 . S
C2890 C2893 1.499 . S
C2891 H2865 0.950 . S
C2891 C2890 1.414 . S
C2891 C2892 1.374 . S
C2892 H2866 0.950 . S
C2892 C2888 1.385 . S
C2892 C2891 1.374 . S
C2893 C2890 1.499 . S
C2893 C2894 1.373 . S
C2893 C2895 1.389 . S
C2894 H2867 0.950 . S
C2894 C2880 1.377 . S
C2894 C2893 1.373 . S
C2895 C2879 1.377 . S
C2895 C2893 1.389 . S
C2895 C2896 1.524 . S
C2896 C2895 1.524 . S
C2896 C2897 1.397 . S
C2896 C2901 1.363 1_554 S
C2897 H2868 0.950 . S
C2897 C2896 1.397 . S
C2897 C2898 1.334 1_554 S
C2898 H2869 0.950 . S
C2898 C2897 1.334 1_556 S
C2898 C2899 1.287 . S
C2899 C2898 1.287 . S
C2899 C2900 1.524 . S
C2899 H2902 0.999 . S
C2900 H2870 0.950 . S
C2900 C2899 1.524 . S
C2900 C2901 1.415 . S
C2901 H2871 0.950 . S
C2901 C2896 1.363 1_556 S
C2901 C2900 1.415 . S
H2902 C2899 0.999 . S
H2903 C2884 0.913 . S
H2904 C2922 0.951 . S
H2905 C2924 0.951 . S
H2906 C2926 0.950 . S
H2907 C2927 0.950 . S
H2908 C2929 0.950 . S
H2909 C2932 0.950 . S
H2910 C2933 0.950 . S
H2911 C2935 0.950 . S
H2912 C2936 0.950 . S
H2913 C2937 0.951 . S
H2914 C2939 0.951 . S
H2915 C2941 0.950 . S
H2916 C2942 0.950 . S
H2917 C2944 0.950 . S
H2918 C2947 0.950 . S
H2919 C2948 0.950 . S
H2920 C2950 0.950 . S
H2921 C2951 0.950 . S
C2922 H2904 0.951 . S
C2922 C2923 1.366 . S
C2922 C2924 1.388 . S
C2923 C2922 1.366 . S
C2923 C2927 1.385 . S
C2924 H2905 0.951 . S
C2924 C2922 1.388 . S
C2924 C2925 1.366 . S
C2925 C2924 1.366 . S
C2925 C2926 1.414 . S
C2925 C2928 1.499 . S
C2926 H2906 0.950 . S
C2926 C2925 1.414 . S
C2926 C2927 1.374 . S
C2927 H2907 0.950 . S
C2927 C2923 1.385 . S
C2927 C2926 1.374 . S
C2928 C2925 1.499 . S
C2928 C2929 1.373 . S
C2928 C2930 1.389 . S
C2929 H2908 0.950 . S
C2929 C2928 1.373 . S
C2929 C2945 1.377 . S
C2930 C2928 1.389 . S
C2930 C2931 1.524 . S
C2930 C2944 1.377 . S
C2931 C2930 1.524 . S
C2931 C2932 1.397 . S
C2931 C2936 1.363 1_556 S
C2932 H2909 0.950 . S
C2932 C2931 1.397 . S
C2932 C2933 1.334 1_556 S
C2933 H2910 0.950 . S
C2933 C2932 1.334 1_554 S
C2933 C2934 1.287 . S
C2934 C2933 1.287 . S
C2934 C2935 1.524 . S
C2934 H2953 0.913 . S
C2935 H2911 0.950 . S
C2935 C2934 1.524 . S
C2935 C2936 1.415 . S
C2936 H2912 0.950 . S
C2936 C2931 1.363 1_554 S
C2936 C2935 1.415 . S
C2937 H2913 0.951 . S
C2937 C2938 1.366 . S
C2937 C2939 1.388 . S
C2938 C2937 1.366 . S
C2938 C2942 1.385 . S
C2939 H2914 0.951 . S
C2939 C2937 1.388 . S
C2939 C2940 1.366 . S
C2940 C2939 1.366 . S
C2940 C2941 1.414 . S
C2940 C2943 1.499 . S
C2941 H2915 0.950 . S
C2941 C2940 1.414 . S
C2941 C2942 1.374 . S
C2942 H2916 0.950 . S
C2942 C2938 1.385 . S
C2942 C2941 1.374 . S
C2943 C2940 1.499 . S
C2943 C2944 1.373 . S
C2943 C2945 1.389 . S
C2944 H2917 0.950 . S
C2944 C2930 1.377 . S
C2944 C2943 1.373 . S
C2945 C2929 1.377 . S
C2945 C2943 1.389 . S
C2945 C2946 1.524 . S
C2946 C2945 1.524 . S
C2946 C2947 1.397 . S
C2946 C2951 1.363 . S
C2947 H2918 0.950 . S
C2947 C2946 1.397 . S
C2947 C2948 1.334 . S
C2948 H2919 0.950 . S
C2948 C2947 1.334 . S
C2948 C2949 1.287 . S
C2949 C2948 1.287 . S
C2949 C2950 1.524 . S
C2949 H2952 0.999 . S
C2950 H2920 0.950 . S
C2950 C2949 1.524 . S
C2950 C2951 1.415 . S
C2951 H2921 0.950 . S
C2951 C2946 1.363 . S
C2951 C2950 1.415 . S
H2952 C2949 0.999 . S
H2953 C2934 0.913 . S
H2954 C2972 0.951 . S
H2955 C2974 0.951 . S
H2956 C2976 0.950 . S
H2957 C2977 0.950 . S
H2958 C2979 0.950 . S
H2959 C2982 0.950 . S
H2960 C2983 0.950 . S
H2961 C2985 0.950 . S
H2962 C2986 0.950 . S
H2963 C2987 0.951 . S
H2964 C2989 0.951 . S
H2965 C2991 0.950 . S
H2966 C2992 0.950 . S
H2967 C2994 0.950 . S
H2968 C2997 0.950 . S
H2969 C2998 0.950 . S
H2970 C3000 0.950 . S
H2971 C3001 0.950 . S
C2972 H2954 0.951 . S
C2972 C2973 1.366 . S
C2972 C2974 1.388 . S
C2973 C2972 1.366 . S
C2973 C2977 1.385 . S
C2974 H2955 0.951 . S
C2974 C2972 1.388 . S
C2974 C2975 1.366 . S
C2975 C2974 1.366 . S
C2975 C2976 1.414 . S
C2975 C2978 1.499 . S
C2976 H2956 0.950 . S
C2976 C2975 1.414 . S
C2976 C2977 1.374 . S
C2977 H2957 0.950 . S
C2977 C2973 1.385 . S
C2977 C2976 1.374 . S
C2978 C2975 1.499 . S
C2978 C2979 1.373 . S
C2978 C2980 1.389 . S
C2979 H2958 0.950 . S
C2979 C2978 1.373 . S
C2979 C2995 1.377 . S
C2980 C2978 1.389 . S
C2980 C2981 1.524 . S
C2980 C2994 1.377 . S
C2981 C2980 1.524 . S
C2981 C2982 1.397 . S
C2981 C2986 1.363 . S
C2982 H2959 0.950 . S
C2982 C2981 1.397 . S
C2982 C2983 1.334 . S
C2983 H2960 0.950 . S
C2983 C2982 1.334 . S
C2983 C2984 1.287 . S
C2984 C2983 1.287 . S
C2984 C2985 1.524 . S
C2984 H3003 0.913 . S
C2985 H2961 0.950 . S
C2985 C2984 1.524 . S
C2985 C2986 1.415 . S
C2986 H2962 0.950 . S
C2986 C2981 1.363 . S
C2986 C2985 1.415 . S
C2987 H2963 0.951 . S
C2987 C2988 1.366 . S
C2987 C2989 1.388 . S
C2988 C2987 1.366 . S
C2988 C2992 1.385 . S
C2989 H2964 0.951 . S
C2989 C2987 1.388 . S
C2989 C2990 1.366 . S
C2990 C2989 1.366 . S
C2990 C2991 1.414 . S
C2990 C2993 1.499 . S
C2991 H2965 0.950 . S
C2991 C2990 1.414 . S
C2991 C2992 1.374 . S
C2992 H2966 0.950 . S
C2992 C2988 1.385 . S
C2992 C2991 1.374 . S
C2993 C2990 1.499 . S
C2993 C2994 1.373 . S
C2993 C2995 1.389 . S
C2994 H2967 0.950 . S
C2994 C2980 1.377 . S
C2994 C2993 1.373 . S
C2995 C2979 1.377 . S
C2995 C2993 1.389 . S
C2995 C2996 1.524 . S
C2996 C2995 1.524 . S
C2996 C2997 1.397 . S
C2996 C3001 1.363 . S
C2997 H2968 0.950 . S
C2997 C2996 1.397 . S
C2997 C2998 1.334 . S
C2998 H2969 0.950 . S
C2998 C2997 1.334 . S
C2998 C2999 1.287 . S
C2999 C2998 1.287 . S
C2999 C3000 1.524 . S
C2999 H3002 0.999 . S
C3000 H2970 0.950 . S
C3000 C2999 1.524 . S
C3000 C3001 1.415 . S
C3001 H2971 0.950 . S
C3001 C2996 1.363 . S
C3001 C3000 1.415 . S
H3002 C2999 0.999 . S
H3003 C2984 0.913 . S
H3004 C3022 0.951 . S
H3005 C3024 0.951 . S
H3006 C3026 0.950 . S
H3007 C3027 0.950 . S
H3008 C3029 0.950 . S
H3009 C3032 0.950 . S
H3010 C3033 0.950 . S
H3011 C3035 0.950 . S
H3012 C3036 0.950 . S
H3013 C3037 0.951 . S
H3014 C3039 0.951 . S
H3015 C3041 0.950 . S
H3016 C3042 0.950 . S
H3017 C3044 0.950 . S
H3018 C3047 0.950 . S
H3019 C3048 0.950 . S
H3020 C3050 0.950 . S
H3021 C3051 0.950 . S
C3022 H3004 0.951 . S
C3022 C3023 1.366 . S
C3022 C3024 1.388 . S
C3023 C3022 1.366 . S
C3023 C3027 1.385 . S
C3024 H3005 0.951 . S
C3024 C3022 1.388 . S
C3024 C3025 1.366 . S
C3025 C3024 1.366 . S
C3025 C3026 1.414 . S
C3025 C3028 1.499 . S
C3026 H3006 0.950 . S
C3026 C3025 1.414 . S
C3026 C3027 1.374 . S
C3027 H3007 0.950 . S
C3027 C3023 1.385 . S
C3027 C3026 1.374 . S
C3028 C3025 1.499 . S
C3028 C3029 1.373 . S
C3028 C3030 1.389 . S
C3029 H3008 0.950 . S
C3029 C3028 1.373 . S
C3029 C3045 1.377 . S
C3030 C3028 1.389 . S
C3030 C3031 1.524 . S
C3030 C3044 1.377 . S
C3031 C3030 1.524 . S
C3031 C3032 1.397 . S
C3031 C3036 1.363 . S
C3032 H3009 0.950 . S
C3032 C3031 1.397 . S
C3032 C3033 1.334 . S
C3033 H3010 0.950 . S
C3033 C3032 1.334 . S
C3033 C3034 1.287 . S
C3034 C3033 1.287 . S
C3034 C3035 1.524 . S
C3034 H3053 0.913 . S
C3035 H3011 0.950 . S
C3035 C3034 1.524 . S
C3035 C3036 1.415 . S
C3036 H3012 0.950 . S
C3036 C3031 1.363 . S
C3036 C3035 1.415 . S
C3037 H3013 0.951 . S
C3037 C3038 1.366 . S
C3037 C3039 1.388 . S
C3038 C3037 1.366 . S
C3038 C3042 1.385 . S
C3039 H3014 0.951 . S
C3039 C3037 1.388 . S
C3039 C3040 1.366 . S
C3040 C3039 1.366 . S
C3040 C3041 1.414 . S
C3040 C3043 1.499 . S
C3041 H3015 0.950 . S
C3041 C3040 1.414 . S
C3041 C3042 1.374 . S
C3042 H3016 0.950 . S
C3042 C3038 1.385 . S
C3042 C3041 1.374 . S
C3043 C3040 1.499 . S
C3043 C3044 1.373 . S
C3043 C3045 1.389 . S
C3044 H3017 0.950 . S
C3044 C3030 1.377 . S
C3044 C3043 1.373 . S
C3045 C3029 1.377 . S
C3045 C3043 1.389 . S
C3045 C3046 1.524 . S
C3046 C3045 1.524 . S
C3046 C3047 1.397 . S
C3046 C3051 1.363 1_556 S
C3047 H3018 0.950 . S
C3047 C3046 1.397 . S
C3047 C3048 1.334 1_556 S
C3048 H3019 0.950 . S
C3048 C3047 1.334 1_554 S
C3048 C3049 1.287 . S
C3049 C3048 1.287 . S
C3049 C3050 1.524 . S
C3049 H3052 0.999 . S
C3050 H3020 0.950 . S
C3050 C3049 1.524 . S
C3050 C3051 1.415 . S
C3051 H3021 0.950 . S
C3051 C3046 1.363 1_554 S
C3051 C3050 1.415 . S
H3052 C3049 0.999 . S
H3053 C3034 0.913 . S
H3054 C3072 0.951 . S
H3055 C3074 0.951 . S
H3056 C3076 0.950 . S
H3057 C3077 0.950 . S
H3058 C3079 0.950 . S
H3059 C3082 0.950 . S
H3060 C3083 0.950 . S
H3061 C3085 0.950 . S
H3062 C3086 0.950 . S
H3063 C3087 0.951 . S
H3064 C3089 0.951 . S
H3065 C3091 0.950 . S
H3066 C3092 0.950 . S
H3067 C3094 0.950 . S
H3068 C3097 0.950 . S
H3069 C3098 0.950 . S
H3070 C3100 0.950 . S
H3071 C3101 0.950 . S
C3072 H3054 0.951 . S
C3072 C3073 1.366 . S
C3072 C3074 1.388 . S
C3073 C3072 1.366 . S
C3073 C3077 1.385 . S
C3074 H3055 0.951 . S
C3074 C3072 1.388 . S
C3074 C3075 1.366 . S
C3075 C3074 1.366 . S
C3075 C3076 1.414 . S
C3075 C3078 1.499 . S
C3076 H3056 0.950 . S
C3076 C3075 1.414 . S
C3076 C3077 1.374 . S
C3077 H3057 0.950 . S
C3077 C3073 1.385 . S
C3077 C3076 1.374 . S
C3078 C3075 1.499 . S
C3078 C3079 1.373 . S
C3078 C3080 1.389 . S
C3079 H3058 0.950 . S
C3079 C3078 1.373 . S
C3079 C3095 1.377 . S
C3080 C3078 1.389 . S
C3080 C3081 1.524 . S
C3080 C3094 1.377 . S
C3081 C3080 1.524 . S
C3081 C3082 1.397 . S
C3081 C3086 1.363 . S
C3082 H3059 0.950 . S
C3082 C3081 1.397 . S
C3082 C3083 1.334 . S
C3083 H3060 0.950 . S
C3083 C3082 1.334 . S
C3083 C3084 1.287 . S
C3084 C3083 1.287 . S
C3084 C3085 1.524 . S
C3084 H3103 0.913 . S
C3085 H3061 0.950 . S
C3085 C3084 1.524 . S
C3085 C3086 1.415 . S
C3086 H3062 0.950 . S
C3086 C3081 1.363 . S
C3086 C3085 1.415 . S
C3087 H3063 0.951 . S
C3087 C3088 1.366 . S
C3087 C3089 1.388 . S
C3088 C3087 1.366 . S
C3088 C3092 1.385 . S
C3089 H3064 0.951 . S
C3089 C3087 1.388 . S
C3089 C3090 1.366 . S
C3090 C3089 1.366 . S
C3090 C3091 1.414 . S
C3090 C3093 1.499 . S
C3091 H3065 0.950 . S
C3091 C3090 1.414 . S
C3091 C3092 1.374 . S
C3092 H3066 0.950 . S
C3092 C3088 1.385 . S
C3092 C3091 1.374 . S
C3093 C3090 1.499 . S
C3093 C3094 1.373 . S
C3093 C3095 1.389 . S
C3094 H3067 0.950 . S
C3094 C3080 1.377 . S
C3094 C3093 1.373 . S
C3095 C3079 1.377 . S
C3095 C3093 1.389 . S
C3095 C3096 1.524 . S
C3096 C3095 1.524 . S
C3096 C3097 1.397 . S
C3096 C3101 1.363 . S
C3097 H3068 0.950 . S
C3097 C3096 1.397 . S
C3097 C3098 1.334 . S
C3098 H3069 0.950 . S
C3098 C3097 1.334 . S
C3098 C3099 1.287 . S
C3099 C3098 1.287 . S
C3099 C3100 1.524 . S
C3099 H3102 0.999 . S
C3100 H3070 0.950 . S
C3100 C3099 1.524 . S
C3100 C3101 1.415 . S
C3101 H3071 0.950 . S
C3101 C3096 1.363 . S
C3101 C3100 1.415 . S
H3102 C3099 0.999 . S
H3103 C3084 0.913 . S
H3104 C3122 0.951 . S
H3105 C3124 0.951 . S
H3106 C3126 0.950 . S
H3107 C3127 0.950 . S
H3108 C3129 0.950 . S
H3109 C3132 0.950 . S
H3110 C3133 0.950 . S
H3111 C3135 0.950 . S
H3112 C3136 0.950 . S
H3113 C3137 0.951 . S
H3114 C3139 0.951 . S
H3115 C3141 0.950 . S
H3116 C3142 0.950 . S
H3117 C3144 0.950 . S
H3118 C3147 0.950 . S
H3119 C3148 0.950 . S
H3120 C3150 0.950 . S
H3121 C3151 0.950 . S
C3122 H3104 0.951 . S
C3122 C3123 1.366 . S
C3122 C3124 1.388 . S
C3123 C3122 1.366 . S
C3123 C3127 1.385 . S
C3124 H3105 0.951 . S
C3124 C3122 1.388 . S
C3124 C3125 1.366 . S
C3125 C3124 1.366 . S
C3125 C3126 1.414 . S
C3125 C3128 1.499 . S
C3126 H3106 0.950 . S
C3126 C3125 1.414 . S
C3126 C3127 1.374 . S
C3127 H3107 0.950 . S
C3127 C3123 1.385 . S
C3127 C3126 1.374 . S
C3128 C3125 1.499 . S
C3128 C3129 1.373 . S
C3128 C3130 1.389 . S
C3129 H3108 0.950 . S
C3129 C3128 1.373 . S
C3129 C3145 1.377 . S
C3130 C3128 1.389 . S
C3130 C3131 1.524 . S
C3130 C3144 1.377 . S
C3131 C3130 1.524 . S
C3131 C3132 1.397 . S
C3131 C3136 1.363 . S
C3132 H3109 0.950 . S
C3132 C3131 1.397 . S
C3132 C3133 1.334 . S
C3133 H3110 0.950 . S
C3133 C3132 1.334 . S
C3133 C3134 1.287 . S
C3134 C3133 1.287 . S
C3134 C3135 1.524 . S
C3134 H3153 0.913 . S
C3135 H3111 0.950 . S
C3135 C3134 1.524 . S
C3135 C3136 1.415 . S
C3136 H3112 0.950 . S
C3136 C3131 1.363 . S
C3136 C3135 1.415 . S
C3137 H3113 0.951 . S
C3137 C3138 1.366 . S
C3137 C3139 1.388 . S
C3138 C3137 1.366 . S
C3138 C3142 1.385 . S
C3139 H3114 0.951 . S
C3139 C3137 1.388 . S
C3139 C3140 1.366 . S
C3140 C3139 1.366 . S
C3140 C3141 1.414 . S
C3140 C3143 1.499 . S
C3141 H3115 0.950 . S
C3141 C3140 1.414 . S
C3141 C3142 1.374 . S
C3142 H3116 0.950 . S
C3142 C3138 1.385 . S
C3142 C3141 1.374 . S
C3143 C3140 1.499 . S
C3143 C3144 1.373 . S
C3143 C3145 1.389 . S
C3144 H3117 0.950 . S
C3144 C3130 1.377 . S
C3144 C3143 1.373 . S
C3145 C3129 1.377 . S
C3145 C3143 1.389 . S
C3145 C3146 1.524 . S
C3146 C3145 1.524 . S
C3146 C3147 1.397 . S
C3146 C3151 1.363 . S
C3147 H3118 0.950 . S
C3147 C3146 1.397 . S
C3147 C3148 1.334 . S
C3148 H3119 0.950 . S
C3148 C3147 1.334 . S
C3148 C3149 1.287 . S
C3149 C3148 1.287 . S
C3149 C3150 1.524 . S
C3149 H3152 0.999 . S
C3150 H3120 0.950 . S
C3150 C3149 1.524 . S
C3150 C3151 1.415 . S
C3151 H3121 0.950 . S
C3151 C3146 1.363 . S
C3151 C3150 1.415 . S
H3152 C3149 0.999 . S
H3153 C3134 0.913 . S
H3154 C3172 0.951 . S
H3155 C3174 0.951 . S
H3156 C3176 0.950 . S
H3157 C3177 0.950 . S
H3158 C3179 0.950 . S
H3159 C3182 0.950 . S
H3160 C3183 0.950 . S
H3161 C3185 0.950 . S
H3162 C3186 0.950 . S
H3163 C3187 0.951 . S
H3164 C3189 0.951 . S
H3165 C3191 0.950 . S
H3166 C3192 0.950 . S
H3167 C3194 0.950 . S
H3168 C3197 0.950 . S
H3169 C3198 0.950 . S
H3170 C3200 0.950 . S
H3171 C3201 0.950 . S
C3172 H3154 0.951 . S
C3172 C3173 1.366 . S
C3172 C3174 1.388 . S
C3173 C3172 1.366 . S
C3173 C3177 1.385 . S
C3174 H3155 0.951 . S
C3174 C3172 1.388 . S
C3174 C3175 1.366 . S
C3175 C3174 1.366 . S
C3175 C3176 1.414 . S
C3175 C3178 1.499 . S
C3176 H3156 0.950 . S
C3176 C3175 1.414 . S
C3176 C3177 1.374 . S
C3177 H3157 0.950 . S
C3177 C3173 1.385 . S
C3177 C3176 1.374 . S
C3178 C3175 1.499 . S
C3178 C3179 1.373 . S
C3178 C3180 1.389 . S
C3179 H3158 0.950 . S
C3179 C3178 1.373 . S
C3179 C3195 1.377 . S
C3180 C3178 1.389 . S
C3180 C3181 1.524 . S
C3180 C3194 1.377 . S
C3181 C3180 1.524 . S
C3181 C3182 1.397 . S
C3181 C3186 1.363 . S
C3182 H3159 0.950 . S
C3182 C3181 1.397 . S
C3182 C3183 1.334 . S
C3183 H3160 0.950 . S
C3183 C3182 1.334 . S
C3183 C3184 1.287 . S
C3184 C3183 1.287 . S
C3184 C3185 1.524 . S
C3184 H3203 0.913 . S
C3185 H3161 0.950 . S
C3185 C3184 1.524 . S
C3185 C3186 1.415 . S
C3186 H3162 0.950 . S
C3186 C3181 1.363 . S
C3186 C3185 1.415 . S
C3187 H3163 0.951 . S
C3187 C3188 1.366 . S
C3187 C3189 1.388 . S
C3188 C3187 1.366 . S
C3188 C3192 1.385 . S
C3189 H3164 0.951 . S
C3189 C3187 1.388 . S
C3189 C3190 1.366 . S
C3190 C3189 1.366 . S
C3190 C3191 1.414 . S
C3190 C3193 1.499 . S
C3191 H3165 0.950 . S
C3191 C3190 1.414 . S
C3191 C3192 1.374 . S
C3192 H3166 0.950 . S
C3192 C3188 1.385 . S
C3192 C3191 1.374 . S
C3193 C3190 1.499 . S
C3193 C3194 1.373 . S
C3193 C3195 1.389 . S
C3194 H3167 0.950 . S
C3194 C3180 1.377 . S
C3194 C3193 1.373 . S
C3195 C3179 1.377 . S
C3195 C3193 1.389 . S
C3195 C3196 1.524 . S
C3196 C3195 1.524 . S
C3196 C3197 1.397 . S
C3196 C3201 1.363 . S
C3197 H3168 0.950 . S
C3197 C3196 1.397 . S
C3197 C3198 1.334 . S
C3198 H3169 0.950 . S
C3198 C3197 1.334 . S
C3198 C3199 1.287 . S
C3199 C3198 1.287 . S
C3199 C3200 1.524 . S
C3199 H3202 0.999 . S
C3200 H3170 0.950 . S
C3200 C3199 1.524 . S
C3200 C3201 1.415 . S
C3201 H3171 0.950 . S
C3201 C3196 1.363 . S
C3201 C3200 1.415 . S
H3202 C3199 0.999 . S
H3203 C3184 0.913 . S
H3204 C3222 0.951 . S
H3205 C3224 0.951 . S
H3206 C3226 0.950 . S
H3207 C3227 0.950 . S
H3208 C3229 0.950 . S
H3209 C3232 0.950 . S
H3210 C3233 0.950 . S
H3211 C3235 0.950 . S
H3212 C3236 0.950 . S
H3213 C3237 0.951 . S
H3214 C3239 0.951 . S
H3215 C3241 0.950 . S
H3216 C3242 0.950 . S
H3217 C3244 0.950 . S
H3218 C3247 0.950 . S
H3219 C3248 0.950 . S
H3220 C3250 0.950 . S
H3221 C3251 0.950 . S
C3222 H3204 0.951 . S
C3222 C3223 1.366 . S
C3222 C3224 1.388 . S
C3223 C3222 1.366 . S
C3223 C3227 1.385 . S
C3224 H3205 0.951 . S
C3224 C3222 1.388 . S
C3224 C3225 1.366 . S
C3225 C3224 1.366 . S
C3225 C3226 1.414 . S
C3225 C3228 1.499 . S
C3226 H3206 0.950 . S
C3226 C3225 1.414 . S
C3226 C3227 1.374 . S
C3227 H3207 0.950 . S
C3227 C3223 1.385 . S
C3227 C3226 1.374 . S
C3228 C3225 1.499 . S
C3228 C3229 1.373 . S
C3228 C3230 1.389 . S
C3229 H3208 0.950 . S
C3229 C3228 1.373 . S
C3229 C3245 1.377 . S
C3230 C3228 1.389 . S
C3230 C3231 1.524 . S
C3230 C3244 1.377 . S
C3231 C3230 1.524 . S
C3231 C3232 1.397 . S
C3231 C3236 1.363 . S
C3232 H3209 0.950 . S
C3232 C3231 1.397 . S
C3232 C3233 1.334 . S
C3233 H3210 0.950 . S
C3233 C3232 1.334 . S
C3233 C3234 1.287 . S
C3234 C3233 1.287 . S
C3234 C3235 1.524 . S
C3234 H3253 0.913 . S
C3235 H3211 0.950 . S
C3235 C3234 1.524 . S
C3235 C3236 1.415 . S
C3236 H3212 0.950 . S
C3236 C3231 1.363 . S
C3236 C3235 1.415 . S
C3237 H3213 0.951 . S
C3237 C3238 1.366 . S
C3237 C3239 1.388 . S
C3238 C3237 1.366 . S
C3238 C3242 1.385 . S
C3239 H3214 0.951 . S
C3239 C3237 1.388 . S
C3239 C3240 1.366 . S
C3240 C3239 1.366 . S
C3240 C3241 1.414 . S
C3240 C3243 1.499 . S
C3241 H3215 0.950 . S
C3241 C3240 1.414 . S
C3241 C3242 1.374 . S
C3242 H3216 0.950 . S
C3242 C3238 1.385 . S
C3242 C3241 1.374 . S
C3243 C3240 1.499 . S
C3243 C3244 1.373 . S
C3243 C3245 1.389 . S
C3244 H3217 0.950 . S
C3244 C3230 1.377 . S
C3244 C3243 1.373 . S
C3245 C3229 1.377 . S
C3245 C3243 1.389 . S
C3245 C3246 1.524 . S
C3246 C3245 1.524 . S
C3246 C3247 1.397 . S
C3246 C3251 1.363 . S
C3247 H3218 0.950 . S
C3247 C3246 1.397 . S
C3247 C3248 1.334 . S
C3248 H3219 0.950 . S
C3248 C3247 1.334 . S
C3248 C3249 1.287 . S
C3249 C3248 1.287 . S
C3249 C3250 1.524 . S
C3249 H3252 0.999 . S
C3250 H3220 0.950 . S
C3250 C3249 1.524 . S
C3250 C3251 1.415 . S
C3251 H3221 0.950 . S
C3251 C3246 1.363 . S
C3251 C3250 1.415 . S
H3252 C3249 0.999 . S
H3253 C3234 0.913 . S
H3254 C3272 0.951 . S
H3255 C3274 0.951 . S
H3256 C3276 0.950 . S
H3257 C3277 0.950 . S
H3258 C3279 0.950 . S
H3259 C3282 0.950 . S
H3260 C3283 0.950 . S
H3261 C3285 0.950 . S
H3262 C3286 0.950 . S
H3263 C3287 0.951 . S
H3264 C3289 0.951 . S
H3265 C3291 0.950 . S
H3266 C3292 0.950 . S
H3267 C3294 0.950 . S
H3268 C3297 0.950 . S
H3269 C3298 0.950 . S
H3270 C3300 0.950 . S
H3271 C3301 0.950 . S
C3272 H3254 0.951 . S
C3272 C3273 1.366 . S
C3272 C3274 1.388 . S
C3273 C3272 1.366 . S
C3273 C3277 1.385 . S
C3274 H3255 0.951 . S
C3274 C3272 1.388 . S
C3274 C3275 1.366 . S
C3275 C3274 1.366 . S
C3275 C3276 1.414 . S
C3275 C3278 1.499 . S
C3276 H3256 0.950 . S
C3276 C3275 1.414 . S
C3276 C3277 1.374 . S
C3277 H3257 0.950 . S
C3277 C3273 1.385 . S
C3277 C3276 1.374 . S
C3278 C3275 1.499 . S
C3278 C3279 1.373 . S
C3278 C3280 1.389 . S
C3279 H3258 0.950 . S
C3279 C3278 1.373 . S
C3279 C3295 1.377 . S
C3280 C3278 1.389 . S
C3280 C3281 1.524 . S
C3280 C3294 1.377 . S
C3281 C3280 1.524 . S
C3281 C3282 1.397 . S
C3281 C3286 1.363 . S
C3282 H3259 0.950 . S
C3282 C3281 1.397 . S
C3282 C3283 1.334 . S
C3283 H3260 0.950 . S
C3283 C3282 1.334 . S
C3283 C3284 1.287 . S
C3284 C3283 1.287 . S
C3284 C3285 1.524 . S
C3284 H3303 0.913 . S
C3285 H3261 0.950 . S
C3285 C3284 1.524 . S
C3285 C3286 1.415 . S
C3286 H3262 0.950 . S
C3286 C3281 1.363 . S
C3286 C3285 1.415 . S
C3287 H3263 0.951 . S
C3287 C3288 1.366 . S
C3287 C3289 1.388 . S
C3288 C3287 1.366 . S
C3288 C3292 1.385 . S
C3289 H3264 0.951 . S
C3289 C3287 1.388 . S
C3289 C3290 1.366 . S
C3290 C3289 1.366 . S
C3290 C3291 1.414 . S
C3290 C3293 1.499 . S
C3291 H3265 0.950 . S
C3291 C3290 1.414 . S
C3291 C3292 1.374 . S
C3292 H3266 0.950 . S
C3292 C3288 1.385 . S
C3292 C3291 1.374 . S
C3293 C3290 1.499 . S
C3293 C3294 1.373 . S
C3293 C3295 1.389 . S
C3294 H3267 0.950 . S
C3294 C3280 1.377 . S
C3294 C3293 1.373 . S
C3295 C3279 1.377 . S
C3295 C3293 1.389 . S
C3295 C3296 1.524 . S
C3296 C3295 1.524 . S
C3296 C3297 1.397 . S
C3296 C3301 1.363 . S
C3297 H3268 0.950 . S
C3297 C3296 1.397 . S
C3297 C3298 1.334 . S
C3298 H3269 0.950 . S
C3298 C3297 1.334 . S
C3298 C3299 1.287 . S
C3299 C3298 1.287 . S
C3299 C3300 1.524 . S
C3299 H3302 0.999 . S
C3300 H3270 0.950 . S
C3300 C3299 1.524 . S
C3300 C3301 1.415 . S
C3301 H3271 0.950 . S
C3301 C3296 1.363 . S
C3301 C3300 1.415 . S
H3302 C3299 0.999 . S
H3303 C3284 0.913 . S
H3304 C3322 0.951 . S
H3305 C3324 0.951 . S
H3306 C3326 0.950 . S
H3307 C3327 0.950 . S
H3308 C3329 0.950 . S
H3309 C3332 0.950 . S
H3310 C3333 0.950 . S
H3311 C3335 0.950 . S
H3312 C3336 0.950 . S
H3313 C3337 0.951 . S
H3314 C3339 0.951 . S
H3315 C3341 0.950 . S
H3316 C3342 0.950 . S
H3317 C3344 0.950 . S
H3318 C3347 0.950 . S
H3319 C3348 0.950 . S
H3320 C3350 0.950 . S
H3321 C3351 0.950 . S
C3322 H3304 0.951 . S
C3322 C3323 1.366 . S
C3322 C3324 1.388 . S
C3323 C3322 1.366 . S
C3323 C3327 1.385 . S
C3324 H3305 0.951 . S
C3324 C3322 1.388 . S
C3324 C3325 1.366 . S
C3325 C3324 1.366 . S
C3325 C3326 1.414 . S
C3325 C3328 1.499 . S
C3326 H3306 0.950 . S
C3326 C3325 1.414 . S
C3326 C3327 1.374 . S
C3327 H3307 0.950 . S
C3327 C3323 1.385 . S
C3327 C3326 1.374 . S
C3328 C3325 1.499 . S
C3328 C3329 1.373 . S
C3328 C3330 1.389 . S
C3329 H3308 0.950 . S
C3329 C3328 1.373 . S
C3329 C3345 1.377 . S
C3330 C3328 1.389 . S
C3330 C3331 1.524 . S
C3330 C3344 1.377 . S
C3331 C3330 1.524 . S
C3331 C3332 1.397 . S
C3331 C3336 1.363 . S
C3332 H3309 0.950 . S
C3332 C3331 1.397 . S
C3332 C3333 1.334 . S
C3333 H3310 0.950 . S
C3333 C3332 1.334 . S
C3333 C3334 1.287 . S
C3334 C3333 1.287 . S
C3334 C3335 1.524 . S
C3334 H3353 0.913 . S
C3335 H3311 0.950 . S
C3335 C3334 1.524 . S
C3335 C3336 1.415 . S
C3336 H3312 0.950 . S
C3336 C3331 1.363 . S
C3336 C3335 1.415 . S
C3337 H3313 0.951 . S
C3337 C3338 1.366 . S
C3337 C3339 1.388 . S
C3338 C3337 1.366 . S
C3338 C3342 1.385 . S
C3339 H3314 0.951 . S
C3339 C3337 1.388 . S
C3339 C3340 1.366 . S
C3340 C3339 1.366 . S
C3340 C3341 1.414 . S
C3340 C3343 1.499 . S
C3341 H3315 0.950 . S
C3341 C3340 1.414 . S
C3341 C3342 1.374 . S
C3342 H3316 0.950 . S
C3342 C3338 1.385 . S
C3342 C3341 1.374 . S
C3343 C3340 1.499 . S
C3343 C3344 1.373 . S
C3343 C3345 1.389 . S
C3344 H3317 0.950 . S
C3344 C3330 1.377 . S
C3344 C3343 1.373 . S
C3345 C3329 1.377 . S
C3345 C3343 1.389 . S
C3345 C3346 1.524 . S
C3346 C3345 1.524 . S
C3346 C3347 1.397 . S
C3346 C3351 1.363 . S
C3347 H3318 0.950 . S
C3347 C3346 1.397 . S
C3347 C3348 1.334 . S
C3348 H3319 0.950 . S
C3348 C3347 1.334 . S
C3348 C3349 1.287 . S
C3349 C3348 1.287 . S
C3349 C3350 1.524 . S
C3349 H3352 0.999 . S
C3350 H3320 0.950 . S
C3350 C3349 1.524 . S
C3350 C3351 1.415 . S
C3351 H3321 0.950 . S
C3351 C3346 1.363 . S
C3351 C3350 1.415 . S
H3352 C3349 0.999 . S
H3353 C3334 0.913 . S
H3354 C3372 0.951 . S
H3355 C3374 0.951 . S
H3356 C3376 0.950 . S
H3357 C3377 0.950 . S
H3358 C3379 0.950 . S
H3359 C3382 0.950 . S
H3360 C3383 0.950 . S
H3361 C3385 0.950 . S
H3362 C3386 0.950 . S
H3363 C3387 0.951 . S
H3364 C3389 0.951 . S
H3365 C3391 0.950 . S
H3366 C3392 0.950 . S
H3367 C3394 0.950 . S
H3368 C3397 0.950 . S
H3369 C3398 0.950 . S
H3370 C3400 0.950 . S
H3371 C3401 0.950 . S
C3372 H3354 0.951 . S
C3372 C3373 1.366 . S
C3372 C3374 1.388 . S
C3373 C3372 1.366 . S
C3373 C3377 1.385 . S
C3374 H3355 0.951 . S
C3374 C3372 1.388 . S
C3374 C3375 1.366 . S
C3375 C3374 1.366 . S
C3375 C3376 1.414 . S
C3375 C3378 1.499 . S
C3376 H3356 0.950 . S
C3376 C3375 1.414 . S
C3376 C3377 1.374 . S
C3377 H3357 0.950 . S
C3377 C3373 1.385 . S
C3377 C3376 1.374 . S
C3378 C3375 1.499 . S
C3378 C3379 1.373 . S
C3378 C3380 1.389 . S
C3379 H3358 0.950 . S
C3379 C3378 1.373 . S
C3379 C3395 1.377 . S
C3380 C3378 1.389 . S
C3380 C3381 1.524 . S
C3380 C3394 1.377 . S
C3381 C3380 1.524 . S
C3381 C3382 1.397 . S
C3381 C3386 1.363 . S
C3382 H3359 0.950 . S
C3382 C3381 1.397 . S
C3382 C3383 1.334 . S
C3383 H3360 0.950 . S
C3383 C3382 1.334 . S
C3383 C3384 1.287 . S
C3384 C3383 1.287 . S
C3384 C3385 1.524 . S
C3384 H3403 0.913 . S
C3385 H3361 0.950 . S
C3385 C3384 1.524 . S
C3385 C3386 1.415 . S
C3386 H3362 0.950 . S
C3386 C3381 1.363 . S
C3386 C3385 1.415 . S
C3387 H3363 0.951 . S
C3387 C3388 1.366 . S
C3387 C3389 1.388 . S
C3388 C3387 1.366 . S
C3388 C3392 1.385 . S
C3389 H3364 0.951 . S
C3389 C3387 1.388 . S
C3389 C3390 1.366 . S
C3390 C3389 1.366 . S
C3390 C3391 1.414 . S
C3390 C3393 1.499 . S
C3391 H3365 0.950 . S
C3391 C3390 1.414 . S
C3391 C3392 1.374 . S
C3392 H3366 0.950 . S
C3392 C3388 1.385 . S
C3392 C3391 1.374 . S
C3393 C3390 1.499 . S
C3393 C3394 1.373 . S
C3393 C3395 1.389 . S
C3394 H3367 0.950 . S
C3394 C3380 1.377 . S
C3394 C3393 1.373 . S
C3395 C3379 1.377 . S
C3395 C3393 1.389 . S
C3395 C3396 1.524 . S
C3396 C3395 1.524 . S
C3396 C3397 1.397 . S
C3396 C3401 1.363 . S
C3397 H3368 0.950 . S
C3397 C3396 1.397 . S
C3397 C3398 1.334 . S
C3398 H3369 0.950 . S
C3398 C3397 1.334 . S
C3398 C3399 1.287 . S
C3399 C3398 1.287 . S
C3399 C3400 1.524 . S
C3399 H3402 0.999 . S
C3400 H3370 0.950 . S
C3400 C3399 1.524 . S
C3400 C3401 1.415 . S
C3401 H3371 0.950 . S
C3401 C3396 1.363 . S
C3401 C3400 1.415 . S
H3402 C3399 0.999 . S
H3403 C3384 0.913 . S
H3404 C3422 0.951 . S
H3405 C3424 0.951 . S
H3406 C3426 0.950 . S
H3407 C3427 0.950 . S
H3408 C3429 0.950 . S
H3409 C3432 0.950 . S
H3410 C3433 0.950 . S
H3411 C3435 0.950 . S
H3412 C3436 0.950 . S
H3413 C3437 0.951 . S
H3414 C3439 0.951 . S
H3415 C3441 0.950 . S
H3416 C3442 0.950 . S
H3417 C3444 0.950 . S
H3418 C3447 0.950 . S
H3419 C3448 0.950 . S
H3420 C3450 0.950 . S
H3421 C3451 0.950 . S
C3422 H3404 0.951 . S
C3422 C3423 1.366 . S
C3422 C3424 1.388 . S
C3423 C3422 1.366 . S
C3423 C3427 1.385 . S
C3424 H3405 0.951 . S
C3424 C3422 1.388 . S
C3424 C3425 1.366 . S
C3425 C3424 1.366 . S
C3425 C3426 1.414 . S
C3425 C3428 1.499 . S
C3426 H3406 0.950 . S
C3426 C3425 1.414 . S
C3426 C3427 1.374 . S
C3427 H3407 0.950 . S
C3427 C3423 1.385 . S
C3427 C3426 1.374 . S
C3428 C3425 1.499 . S
C3428 C3429 1.373 . S
C3428 C3430 1.389 . S
C3429 H3408 0.950 . S
C3429 C3428 1.373 . S
C3429 C3445 1.377 . S
C3430 C3428 1.389 . S
C3430 C3431 1.524 . S
C3430 C3444 1.377 . S
C3431 C3430 1.524 . S
C3431 C3432 1.397 . S
C3431 C3436 1.363 . S
C3432 H3409 0.950 . S
C3432 C3431 1.397 . S
C3432 C3433 1.334 . S
C3433 H3410 0.950 . S
C3433 C3432 1.334 . S
C3433 C3434 1.287 . S
C3434 C3433 1.287 . S
C3434 C3435 1.524 . S
C3434 H3453 0.913 . S
C3435 H3411 0.950 . S
C3435 C3434 1.524 . S
C3435 C3436 1.415 . S
C3436 H3412 0.950 . S
C3436 C3431 1.363 . S
C3436 C3435 1.415 . S
C3437 H3413 0.951 . S
C3437 C3438 1.366 . S
C3437 C3439 1.388 . S
C3438 C3437 1.366 . S
C3438 C3442 1.385 . S
C3439 H3414 0.951 . S
C3439 C3437 1.388 . S
C3439 C3440 1.366 . S
C3440 C3439 1.366 . S
C3440 C3441 1.414 . S
C3440 C3443 1.499 . S
C3441 H3415 0.950 . S
C3441 C3440 1.414 . S
C3441 C3442 1.374 . S
C3442 H3416 0.950 . S
C3442 C3438 1.385 . S
C3442 C3441 1.374 . S
C3443 C3440 1.499 . S
C3443 C3444 1.373 . S
C3443 C3445 1.389 . S
C3444 H3417 0.950 . S
C3444 C3430 1.377 . S
C3444 C3443 1.373 . S
C3445 C3429 1.377 . S
C3445 C3443 1.389 . S
C3445 C3446 1.524 . S
C3446 C3445 1.524 . S
C3446 C3447 1.397 . S
C3446 C3451 1.363 . S
C3447 H3418 0.950 . S
C3447 C3446 1.397 . S
C3447 C3448 1.334 . S
C3448 H3419 0.950 . S
C3448 C3447 1.334 . S
C3448 C3449 1.287 . S
C3449 C3448 1.287 . S
C3449 C3450 1.524 . S
C3449 H3452 0.999 . S
C3450 H3420 0.950 . S
C3450 C3449 1.524 . S
C3450 C3451 1.415 . S
C3451 H3421 0.950 . S
C3451 C3446 1.363 . S
C3451 C3450 1.415 . S
H3452 C3449 0.999 . S
H3453 C3434 0.913 . S
H3454 C3472 0.951 . S
H3455 C3474 0.951 . S
H3456 C3476 0.950 . S
H3457 C3477 0.950 . S
H3458 C3479 0.950 . S
H3459 C3482 0.950 . S
H3460 C3483 0.950 . S
H3461 C3485 0.950 . S
H3462 C3486 0.950 . S
H3463 C3487 0.951 . S
H3464 C3489 0.951 . S
H3465 C3491 0.950 . S
H3466 C3492 0.950 . S
H3467 C3494 0.950 . S
H3468 C3497 0.950 . S
H3469 C3498 0.950 . S
H3470 C3500 0.950 . S
H3471 C3501 0.950 . S
C3472 H3454 0.951 . S
C3472 C3473 1.366 . S
C3472 C3474 1.388 . S
C3473 C3472 1.366 . S
C3473 C3477 1.385 . S
C3474 H3455 0.951 . S
C3474 C3472 1.388 . S
C3474 C3475 1.366 . S
C3475 C3474 1.366 . S
C3475 C3476 1.414 . S
C3475 C3478 1.499 . S
C3476 H3456 0.950 . S
C3476 C3475 1.414 . S
C3476 C3477 1.374 . S
C3477 H3457 0.950 . S
C3477 C3473 1.385 . S
C3477 C3476 1.374 . S
C3478 C3475 1.499 . S
C3478 C3479 1.373 . S
C3478 C3480 1.389 . S
C3479 H3458 0.950 . S
C3479 C3478 1.373 . S
C3479 C3495 1.377 . S
C3480 C3478 1.389 . S
C3480 C3481 1.524 . S
C3480 C3494 1.377 . S
C3481 C3480 1.524 . S
C3481 C3482 1.397 . S
C3481 C3486 1.363 . S
C3482 H3459 0.950 . S
C3482 C3481 1.397 . S
C3482 C3483 1.334 . S
C3483 H3460 0.950 . S
C3483 C3482 1.334 . S
C3483 C3484 1.287 . S
C3484 C3483 1.287 . S
C3484 C3485 1.524 . S
C3484 H3503 0.913 . S
C3485 H3461 0.950 . S
C3485 C3484 1.524 . S
C3485 C3486 1.415 . S
C3486 H3462 0.950 . S
C3486 C3481 1.363 . S
C3486 C3485 1.415 . S
C3487 H3463 0.951 . S
C3487 C3488 1.366 . S
C3487 C3489 1.388 . S
C3488 C3487 1.366 . S
C3488 C3492 1.385 . S
C3489 H3464 0.951 . S
C3489 C3487 1.388 . S
C3489 C3490 1.366 . S
C3490 C3489 1.366 . S
C3490 C3491 1.414 . S
C3490 C3493 1.499 . S
C3491 H3465 0.950 . S
C3491 C3490 1.414 . S
C3491 C3492 1.374 . S
C3492 H3466 0.950 . S
C3492 C3488 1.385 . S
C3492 C3491 1.374 . S
C3493 C3490 1.499 . S
C3493 C3494 1.373 . S
C3493 C3495 1.389 . S
C3494 H3467 0.950 . S
C3494 C3480 1.377 . S
C3494 C3493 1.373 . S
C3495 C3479 1.377 . S
C3495 C3493 1.389 . S
C3495 C3496 1.524 . S
C3496 C3495 1.524 . S
C3496 C3497 1.397 . S
C3496 C3501 1.363 . S
C3497 H3468 0.950 . S
C3497 C3496 1.397 . S
C3497 C3498 1.334 . S
C3498 H3469 0.950 . S
C3498 C3497 1.334 . S
C3498 C3499 1.287 . S
C3499 C3498 1.287 . S
C3499 C3500 1.524 . S
C3499 H3502 0.999 . S
C3500 H3470 0.950 . S
C3500 C3499 1.524 . S
C3500 C3501 1.415 . S
C3501 H3471 0.950 . S
C3501 C3496 1.363 . S
C3501 C3500 1.415 . S
H3502 C3499 0.999 . S
H3503 C3484 0.913 . S
H3504 C3522 0.951 . S
H3505 C3524 0.951 . S
H3506 C3526 0.950 . S
H3507 C3527 0.950 . S
H3508 C3529 0.950 . S
H3509 C3532 0.950 . S
H3510 C3533 0.950 . S
H3511 C3535 0.950 . S
H3512 C3536 0.950 . S
H3513 C3537 0.951 . S
H3514 C3539 0.951 . S
H3515 C3541 0.950 . S
H3516 C3542 0.950 . S
H3517 C3544 0.950 . S
H3518 C3547 0.950 . S
H3519 C3548 0.950 . S
H3520 C3550 0.950 . S
H3521 C3551 0.950 . S
C3522 H3504 0.951 . S
C3522 C3523 1.366 . S
C3522 C3524 1.388 . S
C3523 C3522 1.366 . S
C3523 C3527 1.385 . S
C3524 H3505 0.951 . S
C3524 C3522 1.388 . S
C3524 C3525 1.366 . S
C3525 C3524 1.366 . S
C3525 C3526 1.414 . S
C3525 C3528 1.499 . S
C3526 H3506 0.950 . S
C3526 C3525 1.414 . S
C3526 C3527 1.374 . S
C3527 H3507 0.950 . S
C3527 C3523 1.385 . S
C3527 C3526 1.374 . S
C3528 C3525 1.499 . S
C3528 C3529 1.373 . S
C3528 C3530 1.389 . S
C3529 H3508 0.950 . S
C3529 C3528 1.373 . S
C3529 C3545 1.377 . S
C3530 C3528 1.389 . S
C3530 C3531 1.524 . S
C3530 C3544 1.377 . S
C3531 C3530 1.524 . S
C3531 C3532 1.397 . S
C3531 C3536 1.363 . S
C3532 H3509 0.950 . S
C3532 C3531 1.397 . S
C3532 C3533 1.334 . S
C3533 H3510 0.950 . S
C3533 C3532 1.334 . S
C3533 C3534 1.287 . S
C3534 C3533 1.287 . S
C3534 C3535 1.524 . S
C3534 H3553 0.913 . S
C3535 H3511 0.950 . S
C3535 C3534 1.524 . S
C3535 C3536 1.415 . S
C3536 H3512 0.950 . S
C3536 C3531 1.363 . S
C3536 C3535 1.415 . S
C3537 H3513 0.951 . S
C3537 C3538 1.366 . S
C3537 C3539 1.388 . S
C3538 C3537 1.366 . S
C3538 C3542 1.385 . S
C3539 H3514 0.951 . S
C3539 C3537 1.388 . S
C3539 C3540 1.366 . S
C3540 C3539 1.366 . S
C3540 C3541 1.414 . S
C3540 C3543 1.499 . S
C3541 H3515 0.950 . S
C3541 C3540 1.414 . S
C3541 C3542 1.374 . S
C3542 H3516 0.950 . S
C3542 C3538 1.385 . S
C3542 C3541 1.374 . S
C3543 C3540 1.499 . S
C3543 C3544 1.373 . S
C3543 C3545 1.389 . S
C3544 H3517 0.950 . S
C3544 C3530 1.377 . S
C3544 C3543 1.373 . S
C3545 C3529 1.377 . S
C3545 C3543 1.389 . S
C3545 C3546 1.524 . S
C3546 C3545 1.524 . S
C3546 C3547 1.397 . S
C3546 C3551 1.363 . S
C3547 H3518 0.950 . S
C3547 C3546 1.397 . S
C3547 C3548 1.334 . S
C3548 H3519 0.950 . S
C3548 C3547 1.334 . S
C3548 C3549 1.287 . S
C3549 C3548 1.287 . S
C3549 C3550 1.524 . S
C3549 H3552 0.999 . S
C3550 H3520 0.950 . S
C3550 C3549 1.524 . S
C3550 C3551 1.415 . S
C3551 H3521 0.950 . S
C3551 C3546 1.363 . S
C3551 C3550 1.415 . S
H3552 C3549 0.999 . S
H3553 C3534 0.913 . S
H3554 C3572 0.951 . S
H3555 C3574 0.951 . S
H3556 C3576 0.950 . S
H3557 C3577 0.950 . S
H3558 C3579 0.950 . S
H3559 C3582 0.950 . S
H3560 C3583 0.950 . S
H3561 C3585 0.950 . S
H3562 C3586 0.950 . S
H3563 C3587 0.951 . S
H3564 C3589 0.951 . S
H3565 C3591 0.950 . S
H3566 C3592 0.950 . S
H3567 C3594 0.950 . S
H3568 C3597 0.950 . S
H3569 C3598 0.950 . S
H3570 C3600 0.950 . S
H3571 C3601 0.950 . S
C3572 H3554 0.951 . S
C3572 C3573 1.366 . S
C3572 C3574 1.388 . S
C3573 C3572 1.366 . S
C3573 C3577 1.385 . S
C3574 H3555 0.951 . S
C3574 C3572 1.388 . S
C3574 C3575 1.366 . S
C3575 C3574 1.366 . S
C3575 C3576 1.414 . S
C3575 C3578 1.499 . S
C3576 H3556 0.950 . S
C3576 C3575 1.414 . S
C3576 C3577 1.374 . S
C3577 H3557 0.950 . S
C3577 C3573 1.385 . S
C3577 C3576 1.374 . S
C3578 C3575 1.499 . S
C3578 C3579 1.373 . S
C3578 C3580 1.389 . S
C3579 H3558 0.950 . S
C3579 C3578 1.373 . S
C3579 C3595 1.377 . S
C3580 C3578 1.389 . S
C3580 C3581 1.524 . S
C3580 C3594 1.377 . S
C3581 C3580 1.524 . S
C3581 C3582 1.397 . S
C3581 C3586 1.363 . S
C3582 H3559 0.950 . S
C3582 C3581 1.397 . S
C3582 C3583 1.334 . S
C3583 H3560 0.950 . S
C3583 C3582 1.334 . S
C3583 C3584 1.287 . S
C3584 C3583 1.287 . S
C3584 C3585 1.524 . S
C3584 H3603 0.913 . S
C3585 H3561 0.950 . S
C3585 C3584 1.524 . S
C3585 C3586 1.415 . S
C3586 H3562 0.950 . S
C3586 C3581 1.363 . S
C3586 C3585 1.415 . S
C3587 H3563 0.951 . S
C3587 C3588 1.366 . S
C3587 C3589 1.388 . S
C3588 C3587 1.366 . S
C3588 C3592 1.385 . S
C3589 H3564 0.951 . S
C3589 C3587 1.388 . S
C3589 C3590 1.366 . S
C3590 C3589 1.366 . S
C3590 C3591 1.414 . S
C3590 C3593 1.499 . S
C3591 H3565 0.950 . S
C3591 C3590 1.414 . S
C3591 C3592 1.374 . S
C3592 H3566 0.950 . S
C3592 C3588 1.385 . S
C3592 C3591 1.374 . S
C3593 C3590 1.499 . S
C3593 C3594 1.373 . S
C3593 C3595 1.389 . S
C3594 H3567 0.950 . S
C3594 C3580 1.377 . S
C3594 C3593 1.373 . S
C3595 C3579 1.377 . S
C3595 C3593 1.389 . S
C3595 C3596 1.524 . S
C3596 C3595 1.524 . S
C3596 C3597 1.397 . S
C3596 C3601 1.363 . S
C3597 H3568 0.950 . S
C3597 C3596 1.397 . S
C3597 C3598 1.334 . S
C3598 H3569 0.950 . S
C3598 C3597 1.334 . S
C3598 C3599 1.287 . S
C3599 C3598 1.287 . S
C3599 C3600 1.524 . S
C3599 H3602 0.999 . S
C3600 H3570 0.950 . S
C3600 C3599 1.524 . S
C3600 C3601 1.415 . S
C3601 H3571 0.950 . S
C3601 C3596 1.363 . S
C3601 C3600 1.415 . S
H3602 C3599 0.999 . S
H3603 C3584 0.913 . S
H3604 C3622 0.951 . S
H3605 C3624 0.951 . S
H3606 C3626 0.950 . S
H3607 C3627 0.950 . S
H3608 C3629 0.950 . S
H3609 C3632 0.950 . S
H3610 C3633 0.950 . S
H3611 C3635 0.950 . S
H3612 C3636 0.950 . S
H3613 C3637 0.951 . S
H3614 C3639 0.951 . S
H3615 C3641 0.950 . S
H3616 C3642 0.950 . S
H3617 C3644 0.950 . S
H3618 C3647 0.950 . S
H3619 C3648 0.950 . S
H3620 C3650 0.950 . S
H3621 C3651 0.950 . S
C3622 H3604 0.951 . S
C3622 C3623 1.366 . S
C3622 C3624 1.388 . S
C3623 C3622 1.366 . S
C3623 C3627 1.385 . S
C3624 H3605 0.951 . S
C3624 C3622 1.388 . S
C3624 C3625 1.366 . S
C3625 C3624 1.366 . S
C3625 C3626 1.414 . S
C3625 C3628 1.499 . S
C3626 H3606 0.950 . S
C3626 C3625 1.414 . S
C3626 C3627 1.374 . S
C3627 H3607 0.950 . S
C3627 C3623 1.385 . S
C3627 C3626 1.374 . S
C3628 C3625 1.499 . S
C3628 C3629 1.373 . S
C3628 C3630 1.389 . S
C3629 H3608 0.950 . S
C3629 C3628 1.373 . S
C3629 C3645 1.377 . S
C3630 C3628 1.389 . S
C3630 C3631 1.524 . S
C3630 C3644 1.377 . S
C3631 C3630 1.524 . S
C3631 C3632 1.397 . S
C3631 C3636 1.363 . S
C3632 H3609 0.950 . S
C3632 C3631 1.397 . S
C3632 C3633 1.334 . S
C3633 H3610 0.950 . S
C3633 C3632 1.334 . S
C3633 C3634 1.287 . S
C3634 C3633 1.287 . S
C3634 C3635 1.524 . S
C3634 H3653 0.913 . S
C3635 H3611 0.950 . S
C3635 C3634 1.524 . S
C3635 C3636 1.415 . S
C3636 H3612 0.950 . S
C3636 C3631 1.363 . S
C3636 C3635 1.415 . S
C3637 H3613 0.951 . S
C3637 C3638 1.366 . S
C3637 C3639 1.388 . S
C3638 C3637 1.366 . S
C3638 C3642 1.385 . S
C3639 H3614 0.951 . S
C3639 C3637 1.388 . S
C3639 C3640 1.366 . S
C3640 C3639 1.366 . S
C3640 C3641 1.414 . S
C3640 C3643 1.499 . S
C3641 H3615 0.950 . S
C3641 C3640 1.414 . S
C3641 C3642 1.374 . S
C3642 H3616 0.950 . S
C3642 C3638 1.385 . S
C3642 C3641 1.374 . S
C3643 C3640 1.499 . S
C3643 C3644 1.373 . S
C3643 C3645 1.389 . S
C3644 H3617 0.950 . S
C3644 C3630 1.377 . S
C3644 C3643 1.373 . S
C3645 C3629 1.377 . S
C3645 C3643 1.389 . S
C3645 C3646 1.524 . S
C3646 C3645 1.524 . S
C3646 C3647 1.397 . S
C3646 C3651 1.363 . S
C3647 H3618 0.950 . S
C3647 C3646 1.397 . S
C3647 C3648 1.334 . S
C3648 H3619 0.950 . S
C3648 C3647 1.334 . S
C3648 C3649 1.287 . S
C3649 C3648 1.287 . S
C3649 C3650 1.524 . S
C3649 H3652 0.999 . S
C3650 H3620 0.950 . S
C3650 C3649 1.524 . S
C3650 C3651 1.415 . S
C3651 H3621 0.950 . S
C3651 C3646 1.363 . S
C3651 C3650 1.415 . S
H3652 C3649 0.999 . S
H3653 C3634 0.913 . S
H3654 C3672 0.951 . S
H3655 C3674 0.951 . S
H3656 C3676 0.950 . S
H3657 C3677 0.950 . S
H3658 C3679 0.950 . S
H3659 C3682 0.950 . S
H3660 C3683 0.950 . S
H3661 C3685 0.950 . S
H3662 C3686 0.950 . S
H3663 C3687 0.951 . S
H3664 C3689 0.951 . S
H3665 C3691 0.950 . S
H3666 C3692 0.950 . S
H3667 C3694 0.950 . S
H3668 C3697 0.950 . S
H3669 C3698 0.950 . S
H3670 C3700 0.950 . S
H3671 C3701 0.950 . S
C3672 H3654 0.951 . S
C3672 C3673 1.366 . S
C3672 C3674 1.388 . S
C3673 C3672 1.366 . S
C3673 C3677 1.385 . S
C3674 H3655 0.951 . S
C3674 C3672 1.388 . S
C3674 C3675 1.366 . S
C3675 C3674 1.366 . S
C3675 C3676 1.414 . S
C3675 C3678 1.499 . S
C3676 H3656 0.950 . S
C3676 C3675 1.414 . S
C3676 C3677 1.374 . S
C3677 H3657 0.950 . S
C3677 C3673 1.385 . S
C3677 C3676 1.374 . S
C3678 C3675 1.499 . S
C3678 C3679 1.373 . S
C3678 C3680 1.389 . S
C3679 H3658 0.950 . S
C3679 C3678 1.373 . S
C3679 C3695 1.377 . S
C3680 C3678 1.389 . S
C3680 C3681 1.524 . S
C3680 C3694 1.377 . S
C3681 C3680 1.524 . S
C3681 C3682 1.397 . S
C3681 C3686 1.363 . S
C3682 H3659 0.950 . S
C3682 C3681 1.397 . S
C3682 C3683 1.334 . S
C3683 H3660 0.950 . S
C3683 C3682 1.334 . S
C3683 C3684 1.287 . S
C3684 C3683 1.287 . S
C3684 C3685 1.524 . S
C3684 H3703 0.913 . S
C3685 H3661 0.950 . S
C3685 C3684 1.524 . S
C3685 C3686 1.415 . S
C3686 H3662 0.950 . S
C3686 C3681 1.363 . S
C3686 C3685 1.415 . S
C3687 H3663 0.951 . S
C3687 C3688 1.366 . S
C3687 C3689 1.388 . S
C3688 C3687 1.366 . S
C3688 C3692 1.385 . S
C3689 H3664 0.951 . S
C3689 C3687 1.388 . S
C3689 C3690 1.366 . S
C3690 C3689 1.366 . S
C3690 C3691 1.414 . S
C3690 C3693 1.499 . S
C3691 H3665 0.950 . S
C3691 C3690 1.414 . S
C3691 C3692 1.374 . S
C3692 H3666 0.950 . S
C3692 C3688 1.385 . S
C3692 C3691 1.374 . S
C3693 C3690 1.499 . S
C3693 C3694 1.373 . S
C3693 C3695 1.389 . S
C3694 H3667 0.950 . S
C3694 C3680 1.377 . S
C3694 C3693 1.373 . S
C3695 C3679 1.377 . S
C3695 C3693 1.389 . S
C3695 C3696 1.524 . S
C3696 C3695 1.524 . S
C3696 C3697 1.397 . S
C3696 C3701 1.363 . S
C3697 H3668 0.950 . S
C3697 C3696 1.397 . S
C3697 C3698 1.334 . S
C3698 H3669 0.950 . S
C3698 C3697 1.334 . S
C3698 C3699 1.287 . S
C3699 C3698 1.287 . S
C3699 C3700 1.524 . S
C3699 H3702 0.999 . S
C3700 H3670 0.950 . S
C3700 C3699 1.524 . S
C3700 C3701 1.415 . S
C3701 H3671 0.950 . S
C3701 C3696 1.363 . S
C3701 C3700 1.415 . S
H3702 C3699 0.999 . S
H3703 C3684 0.913 . S
H3704 C3722 0.951 . S
H3705 C3724 0.951 . S
H3706 C3726 0.950 . S
H3707 C3727 0.950 . S
H3708 C3729 0.950 . S
H3709 C3732 0.950 . S
H3710 C3733 0.950 . S
H3711 C3735 0.950 . S
H3712 C3736 0.950 . S
H3713 C3737 0.951 . S
H3714 C3739 0.951 . S
H3715 C3741 0.950 . S
H3716 C3742 0.950 . S
H3717 C3744 0.950 . S
H3718 C3747 0.950 . S
H3719 C3748 0.950 . S
H3720 C3750 0.950 . S
H3721 C3751 0.950 . S
C3722 H3704 0.951 . S
C3722 C3723 1.366 . S
C3722 C3724 1.388 . S
C3723 C3722 1.366 . S
C3723 C3727 1.385 . S
C3724 H3705 0.951 . S
C3724 C3722 1.388 . S
C3724 C3725 1.366 . S
C3725 C3724 1.366 . S
C3725 C3726 1.414 . S
C3725 C3728 1.499 . S
C3726 H3706 0.950 . S
C3726 C3725 1.414 . S
C3726 C3727 1.374 . S
C3727 H3707 0.950 . S
C3727 C3723 1.385 . S
C3727 C3726 1.374 . S
C3728 C3725 1.499 . S
C3728 C3729 1.373 . S
C3728 C3730 1.389 . S
C3729 H3708 0.950 . S
C3729 C3728 1.373 . S
C3729 C3745 1.377 . S
C3730 C3728 1.389 . S
C3730 C3731 1.524 . S
C3730 C3744 1.377 . S
C3731 C3730 1.524 . S
C3731 C3732 1.397 . S
C3731 C3736 1.363 . S
C3732 H3709 0.950 . S
C3732 C3731 1.397 . S
C3732 C3733 1.334 . S
C3733 H3710 0.950 . S
C3733 C3732 1.334 . S
C3733 C3734 1.287 . S
C3734 C3733 1.287 . S
C3734 C3735 1.524 . S
C3734 H3753 0.913 . S
C3735 H3711 0.950 . S
C3735 C3734 1.524 . S
C3735 C3736 1.415 . S
C3736 H3712 0.950 . S
C3736 C3731 1.363 . S
C3736 C3735 1.415 . S
C3737 H3713 0.951 . S
C3737 C3738 1.366 . S
C3737 C3739 1.388 . S
C3738 C3737 1.366 . S
C3738 C3742 1.385 . S
C3739 H3714 0.951 . S
C3739 C3737 1.388 . S
C3739 C3740 1.366 . S
C3740 C3739 1.366 . S
C3740 C3741 1.414 . S
C3740 C3743 1.499 . S
C3741 H3715 0.950 . S
C3741 C3740 1.414 . S
C3741 C3742 1.374 . S
C3742 H3716 0.950 . S
C3742 C3738 1.385 . S
C3742 C3741 1.374 . S
C3743 C3740 1.499 . S
C3743 C3744 1.373 . S
C3743 C3745 1.389 . S
C3744 H3717 0.950 . S
C3744 C3730 1.377 . S
C3744 C3743 1.373 . S
C3745 C3729 1.377 . S
C3745 C3743 1.389 . S
C3745 C3746 1.524 . S
C3746 C3745 1.524 . S
C3746 C3747 1.397 . S
C3746 C3751 1.363 . S
C3747 H3718 0.950 . S
C3747 C3746 1.397 . S
C3747 C3748 1.334 . S
C3748 H3719 0.950 . S
C3748 C3747 1.334 . S
C3748 C3749 1.287 . S
C3749 C3748 1.287 . S
C3749 C3750 1.524 . S
C3749 H3752 0.999 . S
C3750 H3720 0.950 . S
C3750 C3749 1.524 . S
C3750 C3751 1.415 . S
C3751 H3721 0.950 . S
C3751 C3746 1.363 . S
C3751 C3750 1.415 . S
H3752 C3749 0.999 . S
H3753 C3734 0.913 . S
H3754 C3772 0.951 . S
H3755 C3774 0.951 . S
H3756 C3776 0.950 . S
H3757 C3777 0.950 . S
H3758 C3779 0.950 . S
H3759 C3782 0.950 . S
H3760 C3783 0.950 . S
H3761 C3785 0.950 . S
H3762 C3786 0.950 . S
H3763 C3787 0.951 . S
H3764 C3789 0.951 . S
H3765 C3791 0.950 . S
H3766 C3792 0.950 . S
H3767 C3794 0.950 . S
H3768 C3797 0.950 . S
H3769 C3798 0.950 . S
H3770 C3800 0.950 . S
H3771 C3801 0.950 . S
C3772 H3754 0.951 . S
C3772 C3773 1.366 . S
C3772 C3774 1.388 . S
C3773 C3772 1.366 . S
C3773 C3777 1.385 . S
C3774 H3755 0.951 . S
C3774 C3772 1.388 . S
C3774 C3775 1.366 . S
C3775 C3774 1.366 . S
C3775 C3776 1.414 . S
C3775 C3778 1.499 . S
C3776 H3756 0.950 . S
C3776 C3775 1.414 . S
C3776 C3777 1.374 . S
C3777 H3757 0.950 . S
C3777 C3773 1.385 . S
C3777 C3776 1.374 . S
C3778 C3775 1.499 . S
C3778 C3779 1.373 . S
C3778 C3780 1.389 . S
C3779 H3758 0.950 . S
C3779 C3778 1.373 . S
C3779 C3795 1.377 . S
C3780 C3778 1.389 . S
C3780 C3781 1.524 . S
C3780 C3794 1.377 . S
C3781 C3780 1.524 . S
C3781 C3782 1.397 . S
C3781 C3786 1.363 . S
C3782 H3759 0.950 . S
C3782 C3781 1.397 . S
C3782 C3783 1.334 . S
C3783 H3760 0.950 . S
C3783 C3782 1.334 . S
C3783 C3784 1.287 . S
C3784 C3783 1.287 . S
C3784 C3785 1.524 . S
C3784 H3803 0.913 . S
C3785 H3761 0.950 . S
C3785 C3784 1.524 . S
C3785 C3786 1.415 . S
C3786 H3762 0.950 . S
C3786 C3781 1.363 . S
C3786 C3785 1.415 . S
C3787 H3763 0.951 . S
C3787 C3788 1.366 . S
C3787 C3789 1.388 . S
C3788 C3787 1.366 . S
C3788 C3792 1.385 . S
C3789 H3764 0.951 . S
C3789 C3787 1.388 . S
C3789 C3790 1.366 . S
C3790 C3789 1.366 . S
C3790 C3791 1.414 . S
C3790 C3793 1.499 . S
C3791 H3765 0.950 . S
C3791 C3790 1.414 . S
C3791 C3792 1.374 . S
C3792 H3766 0.950 . S
C3792 C3788 1.385 . S
C3792 C3791 1.374 . S
C3793 C3790 1.499 . S
C3793 C3794 1.373 . S
C3793 C3795 1.389 . S
C3794 H3767 0.950 . S
C3794 C3780 1.377 . S
C3794 C3793 1.373 . S
C3795 C3779 1.377 . S
C3795 C3793 1.389 . S
C3795 C3796 1.524 . S
C3796 C3795 1.524 . S
C3796 C3797 1.397 . S
C3796 C3801 1.363 . S
C3797 H3768 0.950 . S
C3797 C3796 1.397 . S
C3797 C3798 1.334 . S
C3798 H3769 0.950 . S
C3798 C3797 1.334 . S
C3798 C3799 1.287 . S
C3799 C3798 1.287 . S
C3799 C3800 1.524 . S
C3799 H3802 0.999 . S
C3800 H3770 0.950 . S
C3800 C3799 1.524 . S
C3800 C3801 1.415 . S
C3801 H3771 0.950 . S
C3801 C3796 1.363 . S
C3801 C3800 1.415 . S
H3802 C3799 0.999 . S
H3803 C3784 0.913 . S
H3804 C3822 0.951 . S
H3805 C3824 0.951 . S
H3806 C3826 0.950 . S
H3807 C3827 0.950 . S
H3808 C3829 0.950 . S
H3809 C3832 0.950 . S
H3810 C3833 0.950 . S
H3811 C3835 0.970 . S
H3812 C3836 0.950 1_655 S
H3813 C3837 0.951 . S
H3814 C3839 0.951 . S
H3815 C3841 0.950 . S
H3816 C3842 0.950 . S
H3817 C3844 0.950 . S
H3818 C3847 0.950 . S
H3819 C3848 0.950 . S
H3820 C3850 0.970 . S
H3821 C3851 0.950 1_455 S
C3822 H3804 0.951 . S
C3822 C3823 1.366 . S
C3822 C3824 1.388 . S
C3823 C3822 1.366 . S
C3823 C3827 1.385 . S
C3824 H3805 0.951 . S
C3824 C3822 1.388 . S
C3824 C3825 1.366 . S
C3825 C3824 1.366 . S
C3825 C3826 1.414 . S
C3825 C3828 1.499 . S
C3826 H3806 0.950 . S
C3826 C3825 1.414 . S
C3826 C3827 1.374 . S
C3827 H3807 0.950 . S
C3827 C3823 1.385 . S
C3827 C3826 1.374 . S
C3828 C3825 1.499 . S
C3828 C3829 1.373 . S
C3828 C3830 1.389 . S
C3829 H3808 0.950 . S
C3829 C3828 1.373 . S
C3829 C3845 1.377 1_455 S
C3830 C3828 1.389 . S
C3830 C3831 1.524 . S
C3830 C3844 1.377 1_455 S
C3831 C3830 1.524 . S
C3831 C3832 1.397 . S
C3831 C3836 1.363 . S
C3832 H3809 0.950 . S
C3832 C3831 1.397 . S
C3832 C3833 1.334 . S
C3833 H3810 0.950 . S
C3833 C3832 1.334 . S
C3833 C3834 1.287 . S
C3834 C3833 1.287 . S
C3834 C3835 1.524 . S
C3834 H3853 0.913 . S
C3835 H3811 0.970 . S
C3835 C3834 1.524 . S
C3835 C3836 1.415 . S
C3836 H3812 0.950 1_455 S
C3836 C3831 1.363 . S
C3836 C3835 1.415 . S
C3837 H3813 0.951 . S
C3837 C3838 1.366 . S
C3837 C3839 1.388 . S
C3838 C3837 1.366 . S
C3838 C3842 1.385 . S
C3839 H3814 0.951 . S
C3839 C3837 1.388 . S
C3839 C3840 1.366 . S
C3840 C3839 1.366 . S
C3840 C3841 1.414 . S
C3840 C3843 1.499 . S
C3841 H3815 0.950 . S
C3841 C3840 1.414 . S
C3841 C3842 1.374 . S
C3842 H3816 0.950 . S
C3842 C3838 1.385 . S
C3842 C3841 1.374 . S
C3843 C3840 1.499 . S
C3843 C3844 1.373 . S
C3843 C3845 1.389 . S
C3844 H3817 0.950 . S
C3844 C3830 1.377 1_655 S
C3844 C3843 1.373 . S
C3845 C3829 1.377 1_655 S
C3845 C3843 1.389 . S
C3845 C3846 1.524 . S
C3846 C3845 1.524 . S
C3846 C3847 1.397 . S
C3846 C3851 1.363 . S
C3847 H3818 0.950 . S
C3847 C3846 1.397 . S
C3847 C3848 1.334 . S
C3848 H3819 0.950 . S
C3848 C3847 1.334 . S
C3848 C3849 1.287 . S
C3849 C3848 1.287 . S
C3849 C3850 1.524 . S
C3849 H3852 0.999 . S
C3850 H3820 0.970 . S
C3850 C3849 1.524 . S
C3850 C3851 1.415 . S
C3851 H3821 0.950 1_655 S
C3851 C3846 1.363 . S
C3851 C3850 1.415 . S
H3852 C3849 0.999 . S
H3853 C3834 0.913 . S
H3854 C3872 0.951 . S
H3855 C3874 0.951 . S
H3856 C3876 0.950 . S
H3857 C3877 0.950 . S
H3858 C3879 0.950 . S
H3859 C3882 0.950 . S
H3860 C3883 0.950 . S
H3861 C3885 0.950 . S
H3862 C3886 0.950 . S
H3863 C3887 0.951 . S
H3864 C3889 0.951 . S
H3865 C3891 0.950 . S
H3866 C3892 0.950 . S
H3867 C3894 0.950 . S
H3868 C3897 0.950 . S
H3869 C3898 0.950 . S
H3870 C3900 0.950 . S
H3871 C3901 0.950 . S
C3872 H3854 0.951 . S
C3872 C3873 1.366 . S
C3872 C3874 1.388 . S
C3873 C3872 1.366 . S
C3873 C3877 1.385 . S
C3874 H3855 0.951 . S
C3874 C3872 1.388 . S
C3874 C3875 1.366 . S
C3875 C3874 1.366 . S
C3875 C3876 1.414 . S
C3875 C3878 1.499 . S
C3876 H3856 0.950 . S
C3876 C3875 1.414 . S
C3876 C3877 1.374 . S
C3877 H3857 0.950 . S
C3877 C3873 1.385 . S
C3877 C3876 1.374 . S
C3878 C3875 1.499 . S
C3878 C3879 1.373 . S
C3878 C3880 1.389 . S
C3879 H3858 0.950 . S
C3879 C3878 1.373 . S
C3879 C3895 1.377 . S
C3880 C3878 1.389 . S
C3880 C3881 1.524 . S
C3880 C3894 1.377 . S
C3881 C3880 1.524 . S
C3881 C3882 1.397 . S
C3881 C3886 1.363 . S
C3882 H3859 0.950 . S
C3882 C3881 1.397 . S
C3882 C3883 1.334 . S
C3883 H3860 0.950 . S
C3883 C3882 1.334 . S
C3883 C3884 1.287 . S
C3884 C3883 1.287 . S
C3884 C3885 1.524 . S
C3884 H3903 0.913 . S
C3885 H3861 0.950 . S
C3885 C3884 1.524 . S
C3885 C3886 1.415 . S
C3886 H3862 0.950 . S
C3886 C3881 1.363 . S
C3886 C3885 1.415 . S
C3887 H3863 0.951 . S
C3887 C3888 1.366 . S
C3887 C3889 1.388 . S
C3888 C3887 1.366 . S
C3888 C3892 1.385 . S
C3889 H3864 0.951 . S
C3889 C3887 1.388 . S
C3889 C3890 1.366 . S
C3890 C3889 1.366 . S
C3890 C3891 1.414 . S
C3890 C3893 1.499 . S
C3891 H3865 0.950 . S
C3891 C3890 1.414 . S
C3891 C3892 1.374 . S
C3892 H3866 0.950 . S
C3892 C3888 1.385 . S
C3892 C3891 1.374 . S
C3893 C3890 1.499 . S
C3893 C3894 1.373 . S
C3893 C3895 1.389 . S
C3894 H3867 0.950 . S
C3894 C3880 1.377 . S
C3894 C3893 1.373 . S
C3895 C3879 1.377 . S
C3895 C3893 1.389 . S
C3895 C3896 1.524 . S
C3896 C3895 1.524 . S
C3896 C3897 1.397 . S
C3896 C3901 1.363 . S
C3897 H3868 0.950 . S
C3897 C3896 1.397 . S
C3897 C3898 1.334 . S
C3898 H3869 0.950 . S
C3898 C3897 1.334 . S
C3898 C3899 1.287 . S
C3899 C3898 1.287 . S
C3899 C3900 1.524 . S
C3899 H3902 0.999 . S
C3900 H3870 0.950 . S
C3900 C3899 1.524 . S
C3900 C3901 1.415 . S
C3901 H3871 0.950 . S
C3901 C3896 1.363 . S
C3901 C3900 1.415 . S
H3902 C3899 0.999 . S
H3903 C3884 0.913 . S
H3904 C3922 0.951 . S
H3905 C3924 0.951 . S
H3906 C3926 0.950 . S
H3907 C3927 0.950 . S
H3908 C3929 0.950 . S
H3909 C3932 0.950 . S
H3910 C3933 0.950 . S
H3911 C3935 0.950 . S
H3912 C3936 0.950 . S
H3913 C3937 0.951 . S
H3914 C3939 0.951 . S
H3915 C3941 0.950 . S
H3916 C3942 0.950 . S
H3917 C3944 0.950 . S
H3918 C3947 0.950 . S
H3919 C3948 0.950 . S
H3920 C3950 0.950 . S
H3921 C3951 0.950 . S
C3922 H3904 0.951 . S
C3922 C3923 1.366 . S
C3922 C3924 1.388 . S
C3923 C3922 1.366 . S
C3923 C3927 1.385 . S
C3924 H3905 0.951 . S
C3924 C3922 1.388 . S
C3924 C3925 1.366 . S
C3925 C3924 1.366 . S
C3925 C3926 1.414 . S
C3925 C3928 1.499 . S
C3926 H3906 0.950 . S
C3926 C3925 1.414 . S
C3926 C3927 1.374 . S
C3927 H3907 0.950 . S
C3927 C3923 1.385 . S
C3927 C3926 1.374 . S
C3928 C3925 1.499 . S
C3928 C3929 1.373 . S
C3928 C3930 1.389 . S
C3929 H3908 0.950 . S
C3929 C3928 1.373 . S
C3929 C3945 1.377 1_545 S
C3930 C3928 1.389 . S
C3930 C3931 1.524 . S
C3930 C3944 1.377 1_545 S
C3931 C3930 1.524 . S
C3931 C3932 1.397 . S
C3931 C3936 1.363 . S
C3932 H3909 0.950 . S
C3932 C3931 1.397 . S
C3932 C3933 1.334 . S
C3933 H3910 0.950 . S
C3933 C3932 1.334 . S
C3933 C3934 1.287 . S
C3934 C3933 1.287 . S
C3934 C3935 1.524 . S
C3934 H3953 0.913 . S
C3935 H3911 0.950 . S
C3935 C3934 1.524 . S
C3935 C3936 1.415 . S
C3936 H3912 0.950 . S
C3936 C3931 1.363 . S
C3936 C3935 1.415 . S
C3937 H3913 0.951 . S
C3937 C3938 1.366 . S
C3937 C3939 1.388 . S
C3938 C3937 1.366 . S
C3938 C3942 1.385 . S
C3939 H3914 0.951 . S
C3939 C3937 1.388 . S
C3939 C3940 1.366 . S
C3940 C3939 1.366 . S
C3940 C3941 1.414 . S
C3940 C3943 1.499 . S
C3941 H3915 0.950 . S
C3941 C3940 1.414 . S
C3941 C3942 1.374 . S
C3942 H3916 0.950 . S
C3942 C3938 1.385 . S
C3942 C3941 1.374 . S
C3943 C3940 1.499 . S
C3943 C3944 1.373 . S
C3943 C3945 1.389 . S
C3944 H3917 0.950 . S
C3944 C3930 1.377 1_565 S
C3944 C3943 1.373 . S
C3945 C3929 1.377 1_565 S
C3945 C3943 1.389 . S
C3945 C3946 1.524 . S
C3946 C3945 1.524 . S
C3946 C3947 1.397 . S
C3946 C3951 1.363 . S
C3947 H3918 0.950 . S
C3947 C3946 1.397 . S
C3947 C3948 1.334 . S
C3948 H3919 0.950 . S
C3948 C3947 1.334 . S
C3948 C3949 1.287 . S
C3949 C3948 1.287 . S
C3949 C3950 1.524 . S
C3949 H3952 0.999 . S
C3950 H3920 0.950 . S
C3950 C3949 1.524 . S
C3950 C3951 1.415 . S
C3951 H3921 0.950 . S
C3951 C3946 1.363 . S
C3951 C3950 1.415 . S
H3952 C3949 0.999 . S
H3953 C3934 0.913 . S
H3954 C3972 0.951 . S
H3955 C3974 0.951 . S
H3956 C3976 0.950 . S
H3957 C3977 0.950 . S
H3958 C3979 0.950 . S
H3959 C3982 0.932 1_556 S
H3960 C3983 0.950 1_556 S
H3961 C3985 0.950 . S
H3962 C3986 0.950 . S
H3963 C3987 0.951 . S
H3964 C3989 0.951 . S
H3965 C3991 0.950 . S
H3966 C3992 0.950 . S
H3967 C3994 0.950 . S
H3968 C3997 0.932 1_554 S
H3969 C3998 0.950 1_554 S
H3970 C4000 0.950 . S
H3971 C4001 0.950 . S
C3972 H3954 0.951 . S
C3972 C3973 1.366 . S
C3972 C3974 1.388 . S
C3973 C3972 1.366 . S
C3973 C3977 1.385 1_554 S
C3974 H3955 0.951 . S
C3974 C3972 1.388 . S
C3974 C3975 1.366 . S
C3975 C3974 1.366 . S
C3975 C3976 1.414 1_554 S
C3975 C3978 1.499 . S
C3976 H3956 0.950 . S
C3976 C3975 1.414 1_556 S
C3976 C3977 1.374 . S
C3977 H3957 0.950 . S
C3977 C3973 1.385 1_556 S
C3977 C3976 1.374 . S
C3978 C3975 1.499 . S
C3978 C3979 1.373 1_554 S
C3978 C3980 1.389 . S
C3979 H3958 0.950 . S
C3979 C3978 1.373 1_556 S
C3979 C3995 1.377 1_545 S
C3980 C3978 1.389 . S
C3980 C3981 1.524 . S
C3980 C3994 1.377 1_545 S
C3981 C3980 1.524 . S
C3981 C3982 1.410 . S
C3981 C3986 1.363 . S
C3982 H3959 0.932 1_554 S
C3982 C3981 1.410 . S
C3982 C3983 1.338 . S
C3983 H3960 0.950 1_554 S
C3983 C3982 1.338 . S
C3983 C3984 1.287 . S
C3984 C3983 1.287 . S
C3984 C3985 1.524 . S
C3984 H4003 0.913 . S
C3985 H3961 0.950 . S
C3985 C3984 1.524 . S
C3985 C3986 1.415 . S
C3986 H3962 0.950 . S
C3986 C3981 1.363 . S
C3986 C3985 1.415 . S
C3987 H3963 0.951 . S
C3987 C3988 1.366 . S
C3987 C3989 1.388 . S
C3988 C3987 1.366 . S
C3988 C3992 1.385 1_556 S
C3989 H3964 0.951 . S
C3989 C3987 1.388 . S
C3989 C3990 1.366 . S
C3990 C3989 1.366 . S
C3990 C3991 1.414 1_556 S
C3990 C3993 1.499 . S
C3991 H3965 0.950 . S
C3991 C3990 1.414 1_554 S
C3991 C3992 1.374 . S
C3992 H3966 0.950 . S
C3992 C3988 1.385 1_554 S
C3992 C3991 1.374 . S
C3993 C3990 1.499 . S
C3993 C3994 1.373 1_556 S
C3993 C3995 1.389 . S
C3994 H3967 0.950 . S
C3994 C3980 1.377 1_565 S
C3994 C3993 1.373 1_554 S
C3995 C3979 1.377 1_565 S
C3995 C3993 1.389 . S
C3995 C3996 1.524 . S
C3996 C3995 1.524 . S
C3996 C3997 1.410 . S
C3996 C4001 1.363 . S
C3997 H3968 0.932 1_556 S
C3997 C3996 1.410 . S
C3997 C3998 1.338 . S
C3998 H3969 0.950 1_556 S
C3998 C3997 1.338 . S
C3998 C3999 1.287 . S
C3999 C3998 1.287 . S
C3999 C4000 1.524 . S
C3999 H4002 0.999 . S
C4000 H3970 0.950 . S
C4000 C3999 1.524 . S
C4000 C4001 1.415 . S
C4001 H3971 0.950 . S
C4001 C3996 1.363 . S
C4001 C4000 1.415 . S
H4002 C3999 0.999 . S
H4003 C3984 0.913 . S
H4004 C4022 0.951 . S
H4005 C4024 0.951 . S
H4006 C4026 0.950 . S
H4007 C4027 0.950 . S
H4008 C4029 0.950 . S
H4009 C4032 0.950 . S
H4010 C4033 0.950 . S
H4011 C4035 0.950 . S
H4012 C4036 0.950 1_455 S
H4013 C4037 0.951 . S
H4014 C4039 0.951 . S
H4015 C4041 0.950 . S
H4016 C4042 0.950 . S
H4017 C4044 0.950 . S
H4018 C4047 0.950 . S
H4019 C4048 0.950 . S
H4020 C4050 0.950 . S
H4021 C4051 0.950 1_655 S
C4022 H4004 0.951 . S
C4022 C4023 1.366 1_556 S
C4022 C4024 1.388 . S
C4023 C4022 1.366 1_554 S
C4023 C4027 1.385 . S
C4024 H4005 0.951 . S
C4024 C4022 1.388 . S
C4024 C4025 1.366 1_556 S
C4025 C4024 1.366 1_554 S
C4025 C4026 1.414 . S
C4025 C4028 1.499 . S
C4026 H4006 0.950 . S
C4026 C4025 1.414 . S
C4026 C4027 1.374 . S
C4027 H4007 0.950 . S
C4027 C4023 1.385 . S
C4027 C4026 1.374 . S
C4028 C4025 1.499 . S
C4028 C4029 1.373 . S
C4028 C4030 1.389 1_554 S
C4029 H4008 0.950 . S
C4029 C4028 1.373 . S
C4029 C4045 1.377 1_655 S
C4030 C4028 1.389 1_556 S
C4030 C4031 1.524 . S
C4030 C4044 1.377 1_655 S
C4031 C4030 1.524 . S
C4031 C4032 1.397 1_556 S
C4031 C4036 1.363 . S
C4032 H4009 0.950 . S
C4032 C4031 1.397 1_554 S
C4032 C4033 1.334 . S
C4033 H4010 0.950 . S
C4033 C4032 1.334 . S
C4033 C4034 1.287 . S
C4034 C4033 1.287 . S
C4034 C4035 1.524 1_554 S
C4034 H4053 0.913 . S
C4035 H4011 0.950 . S
C4035 C4034 1.524 1_556 S
C4035 C4036 1.415 . S
C4036 H4012 0.950 1_655 S
C4036 C4031 1.363 . S
C4036 C4035 1.415 . S
C4037 H4013 0.951 . S
C4037 C4038 1.366 1_554 S
C4037 C4039 1.388 . S
C4038 C4037 1.366 1_556 S
C4038 C4042 1.385 . S
C4039 H4014 0.951 . S
C4039 C4037 1.388 . S
C4039 C4040 1.366 1_554 S
C4040 C4039 1.366 1_556 S
C4040 C4041 1.414 . S
C4040 C4043 1.499 . S
C4041 H4015 0.950 . S
C4041 C4040 1.414 . S
C4041 C4042 1.374 . S
C4042 H4016 0.950 . S
C4042 C4038 1.385 . S
C4042 C4041 1.374 . S
C4043 C4040 1.499 . S
C4043 C4044 1.373 . S
C4043 C4045 1.389 1_556 S
C4044 H4017 0.950 . S
C4044 C4030 1.377 1_455 S
C4044 C4043 1.373 . S
C4045 C4029 1.377 1_455 S
C4045 C4043 1.389 1_554 S
C4045 C4046 1.524 . S
C4046 C4045 1.524 . S
C4046 C4047 1.397 1_554 S
C4046 C4051 1.363 . S
C4047 H4018 0.950 . S
C4047 C4046 1.397 1_556 S
C4047 C4048 1.334 . S
C4048 H4019 0.950 . S
C4048 C4047 1.334 . S
C4048 C4049 1.287 . S
C4049 C4048 1.287 . S
C4049 C4050 1.524 1_556 S
C4049 H4052 0.999 . S
C4050 H4020 0.950 . S
C4050 C4049 1.524 1_554 S
C4050 C4051 1.415 . S
C4051 H4021 0.950 1_455 S
C4051 C4046 1.363 . S
C4051 C4050 1.415 . S
H4052 C4049 0.999 . S
H4053 C4034 0.913 . S
H4054 C4072 0.951 . S
H4055 C4074 0.951 . S
H4056 C4076 0.950 . S
H4057 C4077 0.950 . S
H4058 C4079 0.950 . S
H4059 C4082 0.950 . S
H4060 C4083 0.950 . S
H4061 C4085 0.950 . S
H4062 C4086 0.950 . S
H4063 C4087 0.951 . S
H4064 C4089 0.951 . S
H4065 C4091 0.950 . S
H4066 C4092 0.950 . S
H4067 C4094 0.950 . S
H4068 C4097 0.950 . S
H4069 C4098 0.950 . S
H4070 C4100 0.950 . S
H4071 C4101 0.950 . S
C4072 H4054 0.951 . S
C4072 C4073 1.366 . S
C4072 C4074 1.388 . S
C4073 C4072 1.366 . S
C4073 C4077 1.385 1_554 S
C4074 H4055 0.951 . S
C4074 C4072 1.388 . S
C4074 C4075 1.366 . S
C4075 C4074 1.366 . S
C4075 C4076 1.414 1_554 S
C4075 C4078 1.499 . S
C4076 H4056 0.950 . S
C4076 C4075 1.414 1_556 S
C4076 C4077 1.374 . S
C4077 H4057 0.950 . S
C4077 C4073 1.385 1_556 S
C4077 C4076 1.374 . S
C4078 C4075 1.499 . S
C4078 C4079 1.373 1_554 S
C4078 C4080 1.389 . S
C4079 H4058 0.950 . S
C4079 C4078 1.373 1_556 S
C4079 C4095 1.377 . S
C4080 C4078 1.389 . S
C4080 C4081 1.524 . S
C4080 C4094 1.377 . S
C4081 C4080 1.524 . S
C4081 C4082 1.397 . S
C4081 C4086 1.363 . S
C4082 H4059 0.950 . S
C4082 C4081 1.397 . S
C4082 C4083 1.334 . S
C4083 H4060 0.950 . S
C4083 C4082 1.334 . S
C4083 C4084 1.287 . S
C4084 C4083 1.287 . S
C4084 C4085 1.524 . S
C4084 H4103 0.913 . S
C4085 H4061 0.950 . S
C4085 C4084 1.524 . S
C4085 C4086 1.415 . S
C4086 H4062 0.950 . S
C4086 C4081 1.363 . S
C4086 C4085 1.415 . S
C4087 H4063 0.951 . S
C4087 C4088 1.366 . S
C4087 C4089 1.388 . S
C4088 C4087 1.366 . S
C4088 C4092 1.385 1_556 S
C4089 H4064 0.951 . S
C4089 C4087 1.388 . S
C4089 C4090 1.366 . S
C4090 C4089 1.366 . S
C4090 C4091 1.414 1_556 S
C4090 C4093 1.499 . S
C4091 H4065 0.950 . S
C4091 C4090 1.414 1_554 S
C4091 C4092 1.374 . S
C4092 H4066 0.950 . S
C4092 C4088 1.385 1_554 S
C4092 C4091 1.374 . S
C4093 C4090 1.499 . S
C4093 C4094 1.373 1_556 S
C4093 C4095 1.389 . S
C4094 H4067 0.950 . S
C4094 C4080 1.377 . S
C4094 C4093 1.373 1_554 S
C4095 C4079 1.377 . S
C4095 C4093 1.389 . S
C4095 C4096 1.524 . S
C4096 C4095 1.524 . S
C4096 C4097 1.397 . S
C4096 C4101 1.363 . S
C4097 H4068 0.950 . S
C4097 C4096 1.397 . S
C4097 C4098 1.334 . S
C4098 H4069 0.950 . S
C4098 C4097 1.334 . S
C4098 C4099 1.287 . S
C4099 C4098 1.287 . S
C4099 C4100 1.524 . S
C4099 H4102 0.999 . S
C4100 H4070 0.950 . S
C4100 C4099 1.524 . S
C4100 C4101 1.415 . S
C4101 H4071 0.950 . S
C4101 C4096 1.363 . S
C4101 C4100 1.415 . S
H4102 C4099 0.999 . S
H4103 C4084 0.913 . S
C523 C149 1.032 . S
C538 C0 1.034 . S
C573 C163 1.032 . S
C588 C14 1.035 . S
C623 C28 1.036 . S
C638 C135 1.033 . S
C673 C42 1.034 . S
C688 C121 1.032 . S
C723 C56 1.036 . S
C738 C93 1.032 . S
C773 C107 1.032 . S
C788 C70 1.036 . S
C823 C65 1.031 . S
C838 C84 1.035 . S
C873 C79 1.031 . S
C888 C98 1.035 . S
C923 C112 1.035 . S
C938 C51 1.032 . S
C973 C37 1.032 . S
C988 C126 1.035 . S
C1023 C140 1.035 . S
C1038 C9 1.032 . S
C1073 C154 1.035 . S
C1088 C23 1.032 . S
C1123 C317 1.031 . S
C1138 C168 1.034 . S
C1173 C331 1.032 . S
C1188 C182 1.035 . S
C1223 C196 1.035 . S
C1238 C303 1.032 . S
C1273 C210 1.034 . S
C1288 C289 1.031 . S
C1323 C224 1.036 . S
C1338 C261 1.032 . S
C1373 C238 1.035 . S
C1388 C275 1.031 . S
C1423 C233 1.031 . S
C1438 C252 1.035 . S
C1473 C247 1.032 . S
C1488 C266 1.034 . S
C1523 C219 1.032 . S
C1538 C280 1.035 . S
C1573 C205 1.031 . S
C1588 C294 1.035 . S
C1623 C177 1.033 . S
C1638 C308 1.035 . S
C1673 C191 1.032 . S
C1688 C322 1.034 . S
C1723 C336 1.034 . S
C1738 C485 1.032 . S
C1773 C499 1.031 . S
C1788 C350 1.035 . S
C1823 C471 1.033 . S
C1838 C364 1.035 . S
C1873 C378 1.035 . S
C1888 C457 1.032 . S
C1923 C392 1.035 . S
C1938 C429 1.032 . S
C1973 C406 1.034 . S
C1988 C443 1.032 . S
C2023 C401 1.032 . S
C2038 C420 1.035 . S
C2073 C415 1.032 . S
C2088 C434 1.034 . S
C2123 C387 1.033 . S
C2138 C448 1.035 . S
C2173 C462 1.035 . S
C2188 C373 1.031 . S
C2223 C345 1.033 . S
C2238 C476 1.035 . S
C2273 C490 1.036 . S
C2288 C359 1.032 . S
C2323 C53 1.483 . S
C2338 C11 1.484 . S
C2373 C67 1.483 . S
C2388 C25 1.483 . S
C2423 C39 1.483 . S
C2438 C81 1.483 . S
C2473 C137 1.484 . S
C2488 C95 1.483 . S
C2523 C151 1.483 . S
C2538 C109 1.483 . S
C2573 C165 1.483 . S
C2588 C123 1.483 . S
C2623 C221 1.484 . S
C2638 C179 1.483 . S
C2673 C235 1.483 . S
C2688 C193 1.483 . S
C2723 C207 1.483 . S
C2738 C249 1.483 . S
C2773 C263 1.483 . S
C2788 C305 1.483 . S
C2823 C319 1.483 . S
C2838 C277 1.483 . S
C2873 C291 1.483 . S
C2888 C333 1.483 . S
C2923 C389 1.483 . S
C2938 C347 1.483 . S
C2973 C403 1.483 . S
C2988 C361 1.483 . S
C3023 C375 1.483 . S
C3038 C417 1.483 . S
C3073 C431 1.483 . S
C3088 C473 1.483 . S
C3123 C445 1.483 . S
C3138 C487 1.483 . S
C3173 C459 1.483 . S
C3188 C501 1.483 . S
C3223 C5 1.486 . S
C3238 C257 1.486 . S
C3273 C271 1.486 . S
C3288 C19 1.486 . S
C3323 C285 1.486 . S
C3338 C33 1.486 . S
C3373 C467 1.486 . S
C3388 C47 1.486 . S
C3423 C481 1.486 . S
C3438 C61 1.486 . S
C3473 C495 1.486 . S
C3488 C75 1.486 . S
C3523 C89 1.486 . S
C3538 C341 1.486 . S
C3573 C355 1.486 . S
C3588 C103 1.486 . S
C3623 C369 1.486 . S
C3638 C117 1.486 . S
C3673 C131 1.486 . S
C3688 C215 1.486 . S
C3723 C145 1.486 . S
C3738 C229 1.486 . S
C3773 C159 1.486 . S
C3788 C243 1.486 . S
C3823 C425 1.486 . S
C3838 C173 1.486 . S
C3873 C439 1.486 . S
C3888 C187 1.486 . S
C3923 C201 1.486 . S
C3938 C453 1.486 . S
C3973 C299 1.486 . S
C3988 C383 1.486 . S
C4023 C313 1.486 . S
C4038 C397 1.486 . S
C4073 C327 1.486 . S
C4088 C411 1.486 . S
