# Generated by pormake.
# Topology sxb, (6)-cn, num edge types: 1
# Building blocks:
#     Node 0, Type 0, BuildingBlock: KUMJIN_clean_sbu_1, # of connection points: 6
#     Node 1, Type 0, BuildingBlock: KUMJIN_clean_sbu_1, # of connection points: 6
#     Node 2, Type 0, BuildingBlock: KUMJIN_clean_sbu_1, # of connection points: 6
#     Node 3, Type 0, BuildingBlock: KUMJIN_clean_sbu_1, # of connection points: 6
#     Edge 4, Type (0, 0), BuildingBlock: OJICUG_clean_linker_0, # of connection points: 2
#     Edge 5, Type (0, 0), BuildingBlock: OJICUG_clean_linker_0, # of connection points: 2
#     Edge 6, Type (0, 0), BuildingBlock: OJICUG_clean_linker_0, # of connection points: 2
#     Edge 7, Type (0, 0), BuildingBlock: OJICUG_clean_linker_0, # of connection points: 2
#     Edge 8, Type (0, 0), BuildingBlock: OJICUG_clean_linker_0, # of connection points: 2
#     Edge 9, Type (0, 0), BuildingBlock: OJICUG_clean_linker_0, # of connection points: 2
#     Edge 10, Type (0, 0), BuildingBlock: OJICUG_clean_linker_0, # of connection points: 2
#     Edge 11, Type (0, 0), BuildingBlock: OJICUG_clean_linker_0, # of connection points: 2
#     Edge 12, Type (0, 0), BuildingBlock: OJICUG_clean_linker_0, # of connection points: 2
#     Edge 13, Type (0, 0), BuildingBlock: OJICUG_clean_linker_0, # of connection points: 2
#     Edge 14, Type (0, 0), BuildingBlock: OJICUG_clean_linker_0, # of connection points: 2
#     Edge 15, Type (0, 0), BuildingBlock: OJICUG_clean_linker_0, # of connection points: 2
# Relax obj value: 0.021
# Max RMSD: 0.072
# Mean RMSD: 0.072
data_MOF--net-sxb--node1-KUMJIN_clean_sbu_1--edge1-OJICUG_clean_linker_0
_symmetry_space_group_name_H-M    P1
_symmetry_Int_Tables_number       1
_symmetry_cell_setting            triclinic
loop_
_symmetry_equiv_pos_as_xyz
'x, y, z'
_cell_length_a     11.114579
_cell_length_b     40.263906
_cell_length_c     21.492419
_cell_angle_alpha  114.54997
_cell_angle_beta   89.954837
_cell_angle_gamma 90.074144
loop_
_atom_site_label
_atom_site_type_symbol
_atom_site_fract_x
_atom_site_fract_y
_atom_site_fract_z
_atom_type_partial_charge
Eu0 Eu 1.02326 0.95649 0.95253 0.0
C1 C 0.23436 0.10336 0.1687 0.0
N2 N 0.11777 0.09223 0.16417 0.0
C3 C 0.10772 0.11288 0.28598 0.0
C4 C 0.29344 0.11855 0.23248 0.0
C5 C 0.05295 0.09772 0.22163 0.0
C6 C 0.2288 0.12301 0.2914 0.0
C7 C 0.41643 0.11025 0.1123 0.0
C8 C 0.29522 0.09951 0.10926 0.0
C9 C 0.4765 0.12402 0.17552 0.0
C10 C 0.41504 0.12852 0.23542 0.0
Eu11 Eu 1.03844 0.06494 0.05236 0.0
N12 N 0.23767 0.08337 0.04793 0.0
C13 C 0.47431 0.1057 0.05128 0.0
C14 C 0.29096 0.08069 0.98893 0.0
C15 C 0.41074 0.09147 0.98958 0.0
H16 H 0.95863 0.09063 0.21804 0.0
H17 H 0.45447 0.08834 0.94246 0.0
H18 H 0.09682 0.93176 0.78615 0.0
H19 H 0.61187 0.93273 0.06617 0.0
H20 H 0.24179 0.06952 0.94135 0.0
H21 H 0.56797 0.11286 0.05097 0.0
H22 H 0.82327 0.95231 0.06562 0.0
H23 H 0.05654 0.11675 0.33135 0.0
H24 H 0.5708 0.13098 0.17885 0.0
H25 H 0.46262 0.1396 0.2838 0.0
H26 H 0.99491 0.90621 0.67405 0.0
H27 H 0.27111 0.1346 0.34134 0.0
H28 H 0.49595 0.90738 0.9583 0.0
N29 N 0.94022 0.92973 0.8416 0.0
C30 C 0.82399 0.91842 0.83817 0.0
C31 C 0.94567 0.90975 0.71985 0.0
C32 C 0.76289 0.90337 0.77501 0.0
C33 C 1.00265 0.92464 0.78358 0.0
C34 C 0.82492 0.89943 0.71561 0.0
N35 N 0.82442 0.93829 0.95896 0.0
C36 C 0.77298 0.94099 0.01843 0.0
C37 C 0.64468 0.91097 0.8961 0.0
C38 C 0.76534 0.92207 0.89814 0.0
C39 C 0.58894 0.91519 0.95749 0.0
C40 C 0.65389 0.92978 0.01871 0.0
H41 H 0.78075 0.88815 0.66621 0.0
H42 H 0.5928 0.88201 0.72522 0.0
H43 H 0.48899 0.88988 0.83098 0.0
O44 O 0.07568 0.91922 0.99939 0.0
O45 O 0.85436 0.99056 0.95331 0.0
O46 O 0.8497 0.04289 0.05362 0.0
O47 O 0.07163 0.90009 0.88943 0.0
O48 O 0.05238 0.98245 0.06807 0.0
O49 O 0.94469 0.03604 0.10907 0.0
O50 O 0.98354 0.10164 0.00471 0.0
O51 O 0.20859 0.03121 0.05106 0.0
O52 O 0.21262 0.97822 0.9517 0.0
O53 O 0.99105 0.12153 0.11469 0.0
O54 O 1.01256 0.03896 0.93643 0.0
O55 O 0.1187 0.98501 0.89562 0.0
C56 C 0.79412 0.01668 0.00246 0.0
C57 C 0.19594 0.86689 0.93334 0.0
C58 C 0.28178 0.81612 0.95356 0.0
C59 C 0.37435 0.81334 0.90707 0.0
C60 C 0.28901 0.86325 0.88681 0.0
C61 C 0.37761 0.83666 0.874 0.0
C62 C 0.19325 0.84341 0.9671 0.0
C63 C 0.99186 1.0082 0.11695 0.0
C64 C 0.09362 0.8917 0.94059 0.0
C65 C 0.64186 0.89304 0.77311 0.0
C66 C 0.58288 0.89711 0.83345 0.0
C67 C 0.26833 1.00459 0.00255 0.0
C68 C 0.86534 0.15439 0.07107 0.0
C69 C 0.78097 0.20649 0.05466 0.0
C70 C 0.6848 0.20734 0.09781 0.0
C71 C 0.76867 0.1561 0.11425 0.0
C72 C 0.87106 0.17964 0.04126 0.0
C73 C 0.67913 0.18246 0.1274 0.0
C74 C 0.07482 0.01337 0.88815 0.0
C75 C 0.96758 0.12953 0.06325 0.0
H76 H 0.44453 0.79305 0.89615 0.0
H77 H 0.29159 0.88046 0.85929 0.0
H78 H 0.44844 0.83363 0.83752 0.0
H79 H 0.11963 0.84539 0.00159 0.0
H80 H 0.61547 0.228 0.1105 0.0
H81 H 0.76385 0.13748 0.1388 0.0
H82 H 0.94664 0.17872 0.00868 0.0
H83 H 0.60579 0.18419 0.16166 0.0
Eu84 Eu 0.04292 0.06537 0.5528 0.0
C85 C 0.25668 0.92018 0.33666 0.0
N86 N 0.14014 0.9312 0.34051 0.0
C87 C 0.13514 0.91291 0.21919 0.0
C88 C 0.31831 0.90633 0.27362 0.0
C89 C 0.07765 0.92661 0.28281 0.0
C90 C 0.25643 0.9032 0.21471 0.0
C91 C 0.43631 0.91236 0.39374 0.0
C92 C 0.31524 0.92306 0.39615 0.0
C93 C 0.49867 0.89982 0.3313 0.0
C94 C 0.43979 0.8965 0.27142 0.0
Eu95 Eu 0.05712 0.95684 0.45158 0.0
N96 N 0.25587 0.93843 0.45704 0.0
C97 C 0.49202 0.91588 0.45469 0.0
C98 C 0.30735 0.9405 0.51604 0.0
C99 C 0.42673 0.9295 0.51587 0.0
H100 H 0.98318 0.93335 0.28557 0.0
H101 H 0.46882 0.93196 0.56298 0.0
H102 H 0.12156 0.09071 0.71843 0.0
H103 H 0.62782 0.08859 0.44237 0.0
H104 H 0.25692 0.95123 0.56325 0.0
H105 H 0.58533 0.90837 0.45525 0.0
H106 H 0.84039 0.06995 0.44157 0.0
H107 H 0.08597 0.90991 0.1737 0.0
H108 H 0.59302 0.89317 0.3287 0.0
H109 H 0.48933 0.88648 0.22368 0.0
H110 H 1.02314 0.11678 0.83164 0.0
H111 H 0.30117 0.89302 0.16548 0.0
H112 H 0.51381 0.11303 0.55071 0.0
N113 N 0.96306 0.0926 0.66447 0.0
C114 C 0.84662 0.10376 0.66889 0.0
C115 C 0.97233 0.11303 0.78624 0.0
C116 C 0.78727 0.11893 0.7326 0.0
C117 C 1.0274 0.09791 0.72195 0.0
C118 C 0.85145 0.12328 0.79157 0.0
N119 N 0.84393 0.08376 0.54814 0.0
C120 C 0.791 0.08106 0.48908 0.0
C121 C 0.66502 0.11062 0.61229 0.0
C122 C 0.78612 0.09989 0.60939 0.0
C123 C 0.60745 0.10597 0.55117 0.0
C124 C 0.67129 0.09176 0.48956 0.0
H125 H 0.80893 0.13485 0.84145 0.0
H126 H 0.61811 0.14011 0.78377 0.0
H127 H 0.51064 0.13162 0.67874 0.0
O128 O 0.09591 0.10222 0.50506 0.0
O129 O 0.87284 0.03153 0.55175 0.0
O130 O 0.86806 0.97891 0.45175 0.0
O131 O 0.09301 0.12181 0.61507 0.0
O132 O 0.07016 0.03939 0.43699 0.0
O133 O 0.9614 0.98594 0.39605 0.0
O134 O 1.00119 0.91893 0.49651 0.0
O135 O 0.22673 0.99115 0.45376 0.0
O136 O 0.23136 0.04338 0.55428 0.0
O137 O 1.01061 0.90046 0.38688 0.0
O138 O 1.02983 0.98205 0.56732 0.0
O139 O 0.13556 0.0362 0.60932 0.0
C140 C 0.81269 1.0051 0.50306 0.0
C141 C 0.21691 0.15464 0.56997 0.0
C142 C 0.3024 0.20581 0.55046 0.0
C143 C 0.3994 0.20685 0.59316 0.0
C144 C 0.31435 0.1566 0.61274 0.0
C145 C 0.40484 0.18258 0.62413 0.0
C146 C 0.21126 0.17934 0.53888 0.0
C147 C 1.0062 0.0143 0.38885 0.0
C148 C 0.11436 0.12995 0.56352 0.0
C149 C 0.66585 0.12899 0.73544 0.0
C150 C 0.60477 0.12451 0.67548 0.0
C151 C 0.28695 0.01718 0.50316 0.0
C152 C 0.8818 0.86684 0.4277 0.0
C153 C 0.79176 0.81519 0.44372 0.0
C154 C 0.70015 0.81377 0.39763 0.0
C155 C 0.78987 0.8644 0.3813 0.0
C156 C 0.88204 0.84224 0.45909 0.0
C157 C 0.69976 0.83802 0.36655 0.0
C158 C 0.08885 1.00809 0.61665 0.0
C159 C 0.98532 0.89164 0.43715 0.0
H160 H 0.46961 0.2272 0.60442 0.0
H161 H 0.31926 0.13843 0.63823 0.0
H162 H 0.47893 0.18441 0.65797 0.0
H163 H 0.13508 0.17829 0.50665 0.0
H164 H 0.62853 0.79379 0.38534 0.0
H165 H 0.78934 0.88241 0.3554 0.0
H166 H 0.95515 0.84322 0.49317 0.0
H167 H 0.62987 0.8359 0.33012 0.0
Eu168 Eu 0.54603 0.4606 0.9542 0.0
C169 C 0.81299 0.60342 0.11698 0.0
N170 N 0.70626 0.59275 0.13395 0.0
C171 C 0.7721 0.61129 0.24963 0.0
C172 C 0.90528 0.61753 0.16598 0.0
C173 C 0.6837 0.59696 0.19918 0.0
C174 C 0.88358 0.62144 0.23291 0.0
C175 C 0.94394 0.60793 0.03015 0.0
C176 C 0.83223 0.59838 0.04937 0.0
C177 C 1.03634 0.62148 0.07869 0.0
C178 C 1.0171 0.62624 0.14634 0.0
Eu179 Eu 0.56341 0.56968 0.04562 0.0
N180 N 0.74294 0.58363 0.00232 0.0
C181 C 0.95966 0.60356 0.96258 0.0
C182 C 0.75456 0.58226 0.93811 0.0
C183 C 0.86377 0.59131 0.91673 0.0
H184 H 0.59694 0.58974 0.21256 0.0
H185 H 0.87319 0.58943 0.86524 0.0
H186 H 0.63105 0.43232 0.78902 0.0
H187 H 0.12708 0.43785 0.06253 0.0
H188 H 0.67908 0.57555 0.90382 0.0
H189 H 0.04421 0.61056 0.94588 0.0
H190 H 0.34063 0.4562 0.06443 0.0
H191 H 0.75421 0.6145 0.30134 0.0
H192 H 0.12322 0.62812 0.06408 0.0
H193 H 0.08971 0.63616 0.18302 0.0
H194 H 0.53611 0.40512 0.67475 0.0
H195 H 0.95231 0.6322 0.27197 0.0
H196 H 1.0154 0.41314 0.95347 0.0
N197 N 0.46993 0.4315 0.84184 0.0
C198 C 0.35311 0.42053 0.83671 0.0
C199 C 0.48349 0.40954 0.71991 0.0
C200 C 0.29551 0.40489 0.77255 0.0
C201 C 0.53665 0.42522 0.78468 0.0
C202 C 0.36206 0.39969 0.71384 0.0
N203 N 0.34704 0.44147 0.95754 0.0
C204 C 0.29238 0.4446 0.01652 0.0
C205 C 0.16894 0.41462 0.89246 0.0
C206 C 0.29061 0.42493 0.89592 0.0
C207 C 0.1095 0.41987 0.95343 0.0
C208 C 0.17208 0.43421 0.01546 0.0
H209 H 0.32096 0.38775 0.66359 0.0
H210 H 0.12694 0.38389 0.72035 0.0
H211 H 1.01553 0.39385 0.82512 0.0
O212 O 0.61212 0.42642 0.00492 0.0
O213 O 0.37149 0.49273 0.9579 0.0
O214 O 0.37245 0.54932 0.04975 0.0
O215 O 0.59121 0.40349 0.89517 0.0
O216 O 0.56381 0.48772 0.07038 0.0
O217 O 0.47563 0.5452 0.11186 0.0
O218 O 0.50369 0.61336 0.01651 0.0
O219 O 0.72321 0.5344 0.05301 0.0
O220 O 0.73258 0.48393 0.95099 0.0
O221 O 0.51929 0.62378 0.12317 0.0
O222 O 0.51537 0.5413 0.93223 0.0
O223 O 0.63235 0.48982 0.89638 0.0
C224 C 0.31473 0.52126 0.00354 0.0
C225 C 0.72393 0.37217 0.93834 0.0
C226 C 0.80876 0.31985 0.95369 0.0
C227 C 0.90266 0.31847 0.90886 0.0
C228 C 0.81781 0.36983 0.8931 0.0
C229 C 0.90663 0.34313 0.87869 0.0
C230 C 0.71974 0.3471 0.96855 0.0
C231 C 0.50929 0.51556 0.11868 0.0
C232 C 0.62199 0.3973 0.94769 0.0
C233 C 0.17345 0.39527 0.76905 0.0
C234 C 0.11015 0.40053 0.82884 0.0
C235 C 0.78696 0.51016 0.00276 0.0
C236 C 0.38982 0.66338 0.09669 0.0
C237 C 0.29155 0.71447 0.08265 0.0
C238 C 0.21363 0.7184 0.13689 0.0
C239 C 0.31216 0.66845 0.15146 0.0
C240 C 0.37914 0.68654 0.06263 0.0
C241 C 0.22467 0.69577 0.17118 0.0
C242 C 0.57194 0.51418 0.88364 0.0
C243 C 0.49113 0.63723 0.07957 0.0
H244 H 0.97116 0.29751 0.89524 0.0
H245 H 0.82108 0.38824 0.86805 0.0
H246 H 0.97792 0.34094 0.84298 0.0
H247 H 0.64589 0.34839 0.00247 0.0
H248 H 0.14397 0.73904 0.15306 0.0
H249 H 0.31947 0.65153 0.17945 0.0
H250 H 0.44246 0.68366 0.02233 0.0
H251 H 0.16519 0.69953 0.21348 0.0
Eu252 Eu 0.52195 0.5672 0.55295 0.0
C253 C 0.73103 0.42165 0.33038 0.0
N254 N 0.61487 0.4331 0.33527 0.0
C255 C 0.60609 0.41429 0.21387 0.0
C256 C 0.79046 0.40709 0.26666 0.0
C257 C 0.55089 0.42873 0.27816 0.0
C258 C 0.72667 0.40371 0.20813 0.0
C259 C 0.91192 0.41342 0.38602 0.0
C260 C 0.79116 0.42453 0.3894 0.0
C261 C 0.97221 0.4001 0.32286 0.0
C262 C 0.91153 0.39662 0.26336 0.0
Eu263 Eu 0.53456 0.45879 0.44695 0.0
N264 N 0.7333 0.44003 0.45073 0.0
C265 C 0.96912 0.41708 0.44668 0.0
C266 C 0.78578 0.44175 0.50925 0.0
C267 C 0.9052 0.4307 0.50828 0.0
H268 H 0.45688 0.4361 0.28192 0.0
H269 H 0.94834 0.4331 0.55509 0.0
H270 H 0.60192 0.58984 0.71762 0.0
H271 H 0.10684 0.59374 0.44686 0.0
H272 H 0.73618 0.45235 0.55669 0.0
H273 H 0.0625 0.40969 0.44679 0.0
H274 H 0.31899 0.57418 0.44411 0.0
H275 H 0.55556 0.41126 0.16879 0.0
H276 H 0.06606 0.39266 0.31929 0.0
H277 H 0.95929 0.38593 0.21502 0.0
H278 H 0.50424 0.61423 0.83106 0.0
H279 H 0.76925 0.39263 0.15824 0.0
H280 H 0.9937 0.61678 0.5556 0.0
N281 N 0.443 0.59277 0.66492 0.0
C282 C 0.32665 0.60412 0.67025 0.0
C283 C 0.45313 0.61129 0.7862 0.0
C284 C 0.26766 0.6183 0.73411 0.0
C285 C 0.50778 0.59712 0.72176 0.0
C286 C 0.33221 0.62156 0.79233 0.0
N287 N 0.32326 0.58629 0.55002 0.0
C288 C 0.27001 0.58476 0.49181 0.0
C289 C 0.1449 0.61249 0.61544 0.0
C290 C 0.26589 0.60151 0.61156 0.0
C291 C 0.08713 0.60925 0.55519 0.0
C292 C 0.15051 0.5959 0.49339 0.0
H293 H 0.28992 0.63231 0.84229 0.0
H294 H 0.09864 0.6387 0.7862 0.0
H295 H 0.99061 0.63217 0.68239 0.0
O296 O 0.57958 0.60517 0.50846 0.0
O297 O 0.35065 0.5332 0.54872 0.0
O298 O 0.34616 0.4812 0.44747 0.0
O299 O 0.57036 0.62336 0.61804 0.0
O300 O 0.54923 0.54295 0.43739 0.0
O301 O 0.44162 0.48923 0.39291 0.0
O302 O 0.4839 0.42043 0.49174 0.0
O303 O 0.705 0.493 0.45042 0.0
O304 O 0.70982 0.54444 0.55246 0.0
O305 O 0.48261 0.40286 0.38213 0.0
O306 O 0.50494 0.48324 0.56243 0.0
O307 O 0.61456 0.53653 0.60643 0.0
C308 C 0.29078 0.50711 0.4992 0.0
C309 C 0.70022 0.65696 0.57763 0.0
C310 C 0.79172 0.70838 0.56143 0.0
C311 C 0.88242 0.70989 0.60808 0.0
C312 C 0.79129 0.6595 0.6246 0.0
C313 C 0.88159 0.68584 0.63956 0.0
C314 C 0.70113 0.68142 0.54593 0.0
C315 C 0.48794 0.51793 0.38761 0.0
C316 C 0.59617 0.63229 0.56797 0.0
C317 C 0.14621 0.62845 0.73781 0.0
C318 C 0.08486 0.62518 0.67863 0.0
C319 C 0.76517 0.51883 0.50023 0.0
C320 C 0.36105 0.3687 0.42561 0.0
C321 C 0.27593 0.31726 0.44438 0.0
C322 C 0.1789 0.31631 0.40176 0.0
C323 C 0.26353 0.36683 0.38293 0.0
C324 C 0.36693 0.34379 0.45624 0.0
C325 C 0.17325 0.34076 0.37119 0.0
C326 C 0.56787 0.50791 0.61179 0.0
C327 C 0.46338 0.39354 0.43246 0.0
H328 H 0.95427 0.72981 0.6205 0.0
H329 H 0.79128 0.64156 0.65068 0.0
H330 H 0.95082 0.68804 0.67639 0.0
H331 H 0.62859 0.68041 0.5115 0.0
H332 H 0.10879 0.29592 0.39029 0.0
H333 H 0.25837 0.38516 0.35777 0.0
H334 H 0.44313 0.34477 0.48841 0.0
H335 H 0.09911 0.33902 0.33743 0.0
C336 C 0.30459 0.7281 0.97835 0.0
C337 C 0.28417 0.74029 0.04899 0.0
H338 H 0.31791 0.74221 0.89289 0.0
C339 C 0.25809 0.77757 0.08748 0.0
H340 H 0.32243 0.69957 0.94672 0.0
C341 C 0.25404 0.80197 0.05634 0.0
C342 C 0.27753 0.78988 0.98614 0.0
H343 H 0.2436 0.7882 0.14216 0.0
H344 H 0.23589 0.8305 0.08761 0.0
C345 C 0.3016 0.75257 0.94741 0.0
C346 C 0.90526 0.27975 0.00354 0.0
C347 C 0.80117 0.29148 0.98124 0.0
H348 H 0.9807 0.24401 0.04429 0.0
C349 C 0.69094 0.27454 0.98208 0.0
H350 H 0.99149 0.29244 0.00414 0.0
C351 C 0.68497 0.24654 0.00452 0.0
C352 C 0.78897 0.23485 0.02702 0.0
H353 H 0.60951 0.28236 0.96397 0.0
H354 H 0.59873 0.23381 0.00367 0.0
C355 C 0.89926 0.25179 0.02613 0.0
C356 C 0.1853 0.25104 0.52141 0.0
C357 C 0.29478 0.23361 0.52143 0.0
H358 H 0.09414 0.29168 0.49919 0.0
C359 C 0.39853 0.24439 0.49687 0.0
H360 H 0.10416 0.24398 0.54115 0.0
C361 C 0.39302 0.27193 0.47317 0.0
C362 C 0.28353 0.28936 0.47319 0.0
H363 H 0.48418 0.23129 0.49542 0.0
H364 H 0.47417 0.279 0.45347 0.0
C365 C 0.17979 0.27857 0.4977 0.0
C366 C 0.7636 0.75098 0.43361 0.0
C367 C 0.79368 0.78777 0.47377 0.0
H368 H 0.74017 0.69718 0.42928 0.0
C369 C 0.82288 0.79814 0.54291 0.0
H370 H 0.74262 0.74183 0.37982 0.0
C371 C 0.82103 0.7725 0.57129 0.0
C372 C 0.79076 0.73572 0.53117 0.0
H373 H 0.84506 0.82623 0.57549 0.0
H374 H 0.8419 0.78168 0.62509 0.0
C375 C 0.76197 0.72532 0.46195 0.0
C376 C 0.46862 0.99328 0.94092 0.0
C377 C 0.40332 1.00646 0.00266 0.0
H378 H 0.64132 0.9872 0.89223 0.0
C379 C 0.468 0.02352 0.06424 0.0
H380 H 0.42216 0.9803 0.89244 0.0
C381 C 0.59384 0.02772 0.06411 0.0
C382 C 0.65914 0.01459 0.00237 0.0
H383 H 0.42107 0.03384 0.11279 0.0
H384 H 0.64027 0.04073 0.1126 0.0
C385 C 0.59445 0.99749 0.94079 0.0
C386 C 0.48678 0.99863 0.44145 0.0
C387 C 0.42194 0.01521 0.5031 0.0
H388 H 0.65909 0.98177 0.39297 0.0
C389 C 0.48712 0.02795 0.56484 0.0
H390 H 0.44003 0.98873 0.39289 0.0
C391 C 0.61297 0.02379 0.56489 0.0
C392 C 0.67773 1.0071 0.50324 0.0
H393 H 0.44057 0.04061 0.61336 0.0
H394 H 0.65983 0.03382 0.61344 0.0
C395 C 0.61256 0.9944 0.4415 0.0
C396 C 0.98841 0.49954 0.94194 0.0
C397 C 0.92236 0.51288 0.00347 0.0
H398 H 0.16189 0.4924 0.89363 0.0
C399 C 0.98721 0.52966 0.06516 0.0
H400 H 0.94237 0.48651 0.89334 0.0
C401 C 0.11348 0.53366 0.06528 0.0
C402 C 0.1793 0.52025 0.00371 0.0
H403 H 0.94026 0.53949 0.11363 0.0
H404 H 0.15996 0.54639 0.1138 0.0
C405 C 0.1146 0.50317 0.94209 0.0
C406 C 0.09134 0.52528 0.56131 0.0
C407 C 0.15587 0.50898 0.49951 0.0
H408 H 0.91917 0.54176 0.61015 0.0
C409 C 0.09046 0.49647 0.43788 0.0
H410 H 0.13835 0.53503 0.60979 0.0
C411 C 0.96462 0.50058 0.43808 0.0
C412 C 0.90009 0.51688 0.49989 0.0
H413 H 0.13683 0.48409 0.38925 0.0
H414 H 0.91761 0.49082 0.3896 0.0
C415 C 0.96551 0.52938 0.56152 0.0
C416 C 0.10891 0.01484 0.28634 0.0
C417 C 1.0018 0.0142 0.32043 0.0
H418 H 0.18915 0.01211 0.19341 0.0
C419 C 0.89116 0.01128 0.28711 0.0
H420 H 0.19519 0.01662 0.31099 0.0
C421 C 0.88759 1.00972 0.22084 0.0
C422 C 0.99485 1.00948 0.18623 0.0
H423 H 0.80769 1.01056 0.31262 0.0
H424 H 0.80142 1.0081 0.19618 0.0
C425 C 0.10554 0.01186 0.21919 0.0
C426 C 0.97203 0.01326 0.78524 0.0
C427 C 0.07922 0.0131 0.81957 0.0
H428 H 0.89171 1.01054 0.69239 0.0
C429 C 0.18992 1.01088 0.78659 0.0
H430 H 0.88574 0.01454 0.80964 0.0
C431 C 0.19341 1.00961 0.72049 0.0
C432 C 0.08609 1.00898 0.6857 0.0
H433 H 0.27346 1.01055 0.8123 0.0
H434 H 0.2796 1.00855 0.69613 0.0
C435 C 0.9754 1.0106 0.71829 0.0
C436 C 0.60355 0.51767 0.28854 0.0
C437 C 0.492 0.51807 0.31943 0.0
H438 H 0.69563 0.51539 0.19904 0.0
C439 C 0.38553 0.51728 0.28378 0.0
H440 H 0.6866 0.5178 0.31503 0.0
C441 C 0.39072 0.51697 0.21841 0.0
C442 C 0.50241 0.51602 0.18724 0.0
H443 H 0.29874 0.51736 0.30685 0.0
H444 H 0.3079 0.51691 0.19179 0.0
C445 C 0.60868 0.51602 0.22238 0.0
C446 C 0.46029 0.51204 0.71615 0.0
C447 C 0.5682 0.50735 0.67955 0.0
H448 H 0.37779 0.51909 0.81125 0.0
C449 C 0.67703 0.50455 0.70992 0.0
H450 H 0.37569 0.51474 0.69364 0.0
C451 C 0.6778 0.50591 0.77597 0.0
C452 C 0.57036 0.51167 0.8134 0.0
H453 H 0.7612 0.50129 0.68252 0.0
H454 H 0.7626 0.50348 0.79858 0.0
C455 C 0.46162 0.51485 0.78323 0.0
loop_
_geom_bond_atom_site_label_1
_geom_bond_atom_site_label_2
_geom_bond_distance
_geom_bond_site_symmetry_2
_ccdc_geom_bond_type
Eu0 N29 2.600 . S
Eu0 N35 2.562 . S
Eu0 O44 2.462 1_655 S
Eu0 O45 2.373 . S
Eu0 O47 2.432 1_655 S
Eu0 O48 2.291 1_556 S
Eu0 O52 2.335 1_655 S
Eu0 O55 2.372 1_655 S
Eu0 C64 2.787 1_655 S
C1 N2 1.365 . S
C1 C4 1.405 . S
C1 C8 1.448 . S
N2 C1 1.365 . S
N2 C5 1.319 . S
N2 Eu11 2.600 . S
C3 C5 1.397 . S
C3 C6 1.367 . S
C3 H23 0.931 . S
C4 C1 1.405 . S
C4 C6 1.403 . S
C4 C10 1.439 . S
C5 N2 1.319 . S
C5 C3 1.397 . S
C5 H16 0.930 . S
C6 C3 1.367 . S
C6 C4 1.403 . S
C6 H27 0.929 . S
C7 C8 1.430 . S
C7 C9 1.387 . S
C7 C13 1.414 . S
C8 C1 1.448 . S
C8 C7 1.430 . S
C8 N12 1.351 . S
C9 C7 1.387 . S
C9 C10 1.374 . S
C9 H24 0.931 . S
C10 C4 1.439 . S
C10 C9 1.374 . S
C10 H25 0.931 . S
Eu11 N2 2.600 . S
Eu11 N12 2.562 . S
Eu11 O46 2.335 1_455 S
Eu11 O49 2.372 1_455 S
Eu11 O50 2.462 1_455 S
Eu11 O51 2.373 . S
Eu11 O53 2.432 1_455 S
Eu11 O54 2.291 1_554 S
Eu11 C75 2.787 1_455 S
N12 C8 1.351 . S
N12 Eu11 2.562 . S
N12 C14 1.325 1_554 S
C13 C7 1.414 . S
C13 C15 1.361 1_554 S
C13 H21 0.927 1_554 S
C14 N12 1.325 1_556 S
C14 C15 1.416 . S
C14 H20 0.929 . S
C15 C13 1.361 1_556 S
C15 C14 1.416 . S
C15 H17 0.930 . S
H16 C5 0.930 . S
H17 C15 0.930 . S
H18 C33 0.930 . S
H19 C40 0.930 . S
H20 C14 0.929 . S
H21 C13 0.927 1_556 S
H22 C36 0.929 . S
H23 C3 0.931 . S
H24 C9 0.931 . S
H25 C10 0.931 . S
H26 C31 0.931 . S
H27 C6 0.929 . S
H28 C39 0.931 1_554 S
N29 Eu0 2.600 . S
N29 C30 1.365 . S
N29 C33 1.319 . S
C30 N29 1.365 . S
C30 C32 1.405 . S
C30 C38 1.448 . S
C31 H26 0.931 . S
C31 C33 1.397 . S
C31 C34 1.367 . S
C32 C30 1.405 . S
C32 C34 1.403 . S
C32 C65 1.439 . S
C33 H18 0.930 . S
C33 N29 1.319 . S
C33 C31 1.397 . S
C34 C31 1.367 . S
C34 C32 1.403 . S
C34 H41 0.929 . S
N35 Eu0 2.562 . S
N35 C36 1.325 1_556 S
N35 C38 1.351 . S
C36 H22 0.929 . S
C36 N35 1.325 1_554 S
C36 C40 1.416 . S
C37 C38 1.430 . S
C37 C39 1.403 . S
C37 C66 1.387 . S
C38 C30 1.448 . S
C38 N35 1.351 . S
C38 C37 1.430 . S
C39 H28 0.931 1_556 S
C39 C37 1.403 . S
C39 C40 1.367 1_556 S
C40 H19 0.930 . S
C40 C36 1.416 . S
C40 C39 1.367 1_554 S
H41 C34 0.929 . S
H42 C65 0.931 . S
H43 C66 0.931 . S
O44 Eu0 2.462 1_455 S
O44 C64 1.252 . S
O45 Eu0 2.373 . S
O45 C56 1.249 1_565 S
O46 Eu11 2.335 1_655 S
O46 C56 1.264 1_554 S
O47 Eu0 2.432 1_455 S
O47 C64 1.268 . S
O48 Eu0 2.291 1_554 S
O48 C63 1.255 1_565 S
O49 Eu11 2.372 1_655 S
O49 C63 1.257 . S
O50 Eu11 2.462 1_655 S
O50 C75 1.252 . S
O51 Eu11 2.373 . S
O51 C67 1.249 1_545 S
O52 Eu0 2.335 1_455 S
O52 C67 1.264 1_556 S
O53 Eu11 2.432 1_655 S
O53 C75 1.268 . S
O54 Eu11 2.291 1_556 S
O54 C74 1.255 1_545 S
O55 Eu0 2.372 1_455 S
O55 C74 1.257 . S
C56 O45 1.249 1_545 S
C56 O46 1.264 1_556 S
C57 C60 1.382 . S
C57 C62 1.390 . S
C57 C64 1.506 . S
C58 C59 1.398 . S
C58 C62 1.392 . S
C59 C58 1.398 . S
C59 C61 1.372 . S
C59 H76 0.931 . S
C60 C57 1.382 . S
C60 C61 1.390 . S
C60 H77 0.931 . S
C61 C59 1.372 . S
C61 C60 1.390 . S
C61 H78 0.929 . S
C62 C57 1.390 . S
C62 C58 1.392 . S
C62 H79 0.930 1_556 S
C63 O48 1.255 1_545 S
C63 O49 1.257 . S
C64 Eu0 2.787 1_455 S
C64 O44 1.252 . S
C64 O47 1.268 . S
C64 C57 1.506 . S
C65 C32 1.439 . S
C65 H42 0.931 . S
C65 C66 1.374 . S
C66 C37 1.387 . S
C66 H43 0.931 . S
C66 C65 1.374 . S
C67 O51 1.249 1_565 S
C67 O52 1.264 1_554 S
C68 C71 1.382 . S
C68 C72 1.390 . S
C68 C75 1.506 . S
C69 C70 1.398 . S
C69 C72 1.392 . S
C70 C69 1.398 . S
C70 C73 1.372 . S
C70 H80 0.931 . S
C71 C68 1.382 . S
C71 C73 1.390 . S
C71 H81 0.931 . S
C72 C68 1.390 . S
C72 C69 1.392 . S
C72 H82 0.930 1_554 S
C73 C70 1.372 . S
C73 C71 1.390 . S
C73 H83 0.929 . S
C74 O54 1.255 1_565 S
C74 O55 1.257 . S
C75 Eu11 2.787 1_655 S
C75 O50 1.252 . S
C75 O53 1.268 . S
C75 C68 1.506 . S
H76 C59 0.931 . S
H77 C60 0.931 . S
H78 C61 0.929 . S
H79 C62 0.930 1_554 S
H80 C70 0.931 . S
H81 C71 0.931 . S
H82 C72 0.930 1_556 S
H83 C73 0.929 . S
Eu84 N113 2.600 . S
Eu84 N119 2.562 . S
Eu84 O128 2.462 1_655 S
Eu84 O129 2.373 . S
Eu84 O131 2.432 1_655 S
Eu84 O132 2.291 . S
Eu84 O136 2.335 1_655 S
Eu84 O139 2.372 1_655 S
Eu84 C148 2.787 1_655 S
C85 N86 1.365 . S
C85 C88 1.405 . S
C85 C92 1.448 . S
N86 C85 1.365 . S
N86 C89 1.319 . S
N86 Eu95 2.600 . S
C87 C89 1.397 . S
C87 C90 1.367 . S
C87 H107 0.931 . S
C88 C85 1.405 . S
C88 C90 1.403 . S
C88 C94 1.439 . S
C89 N86 1.319 . S
C89 C87 1.397 . S
C89 H100 0.930 . S
C90 C87 1.367 . S
C90 C88 1.403 . S
C90 H111 0.929 . S
C91 C92 1.430 . S
C91 C93 1.387 . S
C91 C97 1.404 . S
C92 C85 1.448 . S
C92 C91 1.430 . S
C92 N96 1.351 . S
C93 C91 1.387 . S
C93 C94 1.374 . S
C93 H108 0.931 . S
C94 C88 1.439 . S
C94 C93 1.374 . S
C94 H109 0.931 . S
Eu95 N86 2.600 . S
Eu95 N96 2.562 . S
Eu95 O130 2.335 1_455 S
Eu95 O133 2.372 1_455 S
Eu95 O134 2.462 1_455 S
Eu95 O135 2.373 . S
Eu95 O137 2.432 1_455 S
Eu95 O138 2.291 . S
Eu95 C159 2.787 1_455 S
N96 C92 1.351 . S
N96 Eu95 2.562 . S
N96 C98 1.325 . S
C97 C91 1.404 . S
C97 C99 1.366 . S
C97 H105 0.930 . S
C98 N96 1.325 . S
C98 C99 1.416 . S
C98 H104 0.929 . S
C99 C97 1.366 . S
C99 C98 1.416 . S
C99 H101 0.930 . S
H100 C89 0.930 . S
H101 C99 0.930 . S
H102 C117 0.930 . S
H103 C124 0.930 . S
H104 C98 0.929 . S
H105 C97 0.930 . S
H106 C120 0.929 . S
H107 C87 0.931 . S
H108 C93 0.931 . S
H109 C94 0.931 . S
H110 C115 0.931 . S
H111 C90 0.929 . S
H112 C123 0.930 . S
N113 Eu84 2.600 . S
N113 C114 1.365 . S
N113 C117 1.319 . S
C114 N113 1.365 . S
C114 C116 1.405 . S
C114 C122 1.448 . S
C115 H110 0.931 . S
C115 C117 1.397 . S
C115 C118 1.367 . S
C116 C114 1.405 . S
C116 C118 1.403 . S
C116 C149 1.439 . S
C117 H102 0.930 . S
C117 N113 1.319 . S
C117 C115 1.397 . S
C118 C115 1.367 . S
C118 C116 1.403 . S
C118 H125 0.929 . S
N119 Eu84 2.562 . S
N119 C120 1.325 . S
N119 C122 1.351 . S
C120 H106 0.929 . S
C120 N119 1.325 . S
C120 C124 1.416 . S
C121 C122 1.430 . S
C121 C123 1.404 . S
C121 C150 1.387 . S
C122 C114 1.448 . S
C122 N119 1.351 . S
C122 C121 1.430 . S
C123 H112 0.930 . S
C123 C121 1.404 . S
C123 C124 1.366 . S
C124 H103 0.930 . S
C124 C120 1.416 . S
C124 C123 1.366 . S
H125 C118 0.929 . S
H126 C149 0.931 . S
H127 C150 0.931 . S
O128 Eu84 2.462 1_455 S
O128 C148 1.252 . S
O129 Eu84 2.373 . S
O129 C140 1.249 1_545 S
O130 Eu95 2.335 1_655 S
O130 C140 1.264 . S
O131 Eu84 2.432 1_455 S
O131 C148 1.268 . S
O132 Eu84 2.291 . S
O132 C147 1.255 1_545 S
O133 Eu95 2.372 1_655 S
O133 C147 1.257 . S
O134 Eu95 2.462 1_655 S
O134 C159 1.252 . S
O135 Eu95 2.373 . S
O135 C151 1.249 1_565 S
O136 Eu84 2.335 1_455 S
O136 C151 1.264 . S
O137 Eu95 2.432 1_655 S
O137 C159 1.268 . S
O138 Eu95 2.291 . S
O138 C158 1.255 1_565 S
O139 Eu84 2.372 1_455 S
O139 C158 1.257 . S
C140 O129 1.249 1_565 S
C140 O130 1.264 . S
C141 C144 1.382 . S
C141 C146 1.390 . S
C141 C148 1.506 . S
C142 C143 1.398 . S
C142 C146 1.392 . S
C143 C142 1.398 . S
C143 C145 1.372 . S
C143 H160 0.931 . S
C144 C141 1.382 . S
C144 C145 1.390 . S
C144 H161 0.931 . S
C145 C143 1.372 . S
C145 C144 1.390 . S
C145 H162 0.929 . S
C146 C141 1.390 . S
C146 C142 1.392 . S
C146 H163 0.930 . S
C147 O132 1.255 1_565 S
C147 O133 1.257 . S
C148 Eu84 2.787 1_455 S
C148 O128 1.252 . S
C148 O131 1.268 . S
C148 C141 1.506 . S
C149 C116 1.439 . S
C149 H126 0.931 . S
C149 C150 1.374 . S
C150 C121 1.387 . S
C150 H127 0.931 . S
C150 C149 1.374 . S
C151 O135 1.249 1_545 S
C151 O136 1.264 . S
C152 C155 1.382 . S
C152 C156 1.390 . S
C152 C159 1.506 . S
C153 C154 1.398 . S
C153 C156 1.392 . S
C154 C153 1.398 . S
C154 C157 1.372 . S
C154 H164 0.931 . S
C155 C152 1.382 . S
C155 C157 1.390 . S
C155 H165 0.931 . S
C156 C152 1.390 . S
C156 C153 1.392 . S
C156 H166 0.930 . S
C157 C154 1.372 . S
C157 C155 1.390 . S
C157 H167 0.929 . S
C158 O138 1.255 1_545 S
C158 O139 1.257 . S
C159 Eu95 2.787 1_655 S
C159 O134 1.252 . S
C159 O137 1.268 . S
C159 C152 1.506 . S
H160 C143 0.931 . S
H161 C144 0.931 . S
H162 C145 0.929 . S
H163 C146 0.930 . S
H164 C154 0.931 . S
H165 C155 0.931 . S
H166 C156 0.930 . S
H167 C157 0.929 . S
Eu168 N197 2.600 . S
Eu168 N203 2.562 . S
Eu168 O212 2.462 . S
Eu168 O213 2.373 . S
Eu168 O215 2.432 . S
Eu168 O216 2.291 1_556 S
Eu168 O220 2.335 . S
Eu168 O223 2.372 . S
Eu168 C232 2.787 . S
C169 N170 1.365 . S
C169 C172 1.405 . S
C169 C176 1.448 . S
N170 C169 1.365 . S
N170 C173 1.319 . S
N170 Eu179 2.600 . S
C171 C173 1.397 . S
C171 C174 1.367 . S
C171 H191 0.931 . S
C172 C169 1.405 . S
C172 C174 1.403 . S
C172 C178 1.439 . S
C173 N170 1.319 . S
C173 C171 1.397 . S
C173 H184 0.930 . S
C174 C171 1.367 . S
C174 C172 1.403 . S
C174 H195 0.929 . S
C175 C176 1.430 . S
C175 C177 1.387 . S
C175 C181 1.413 . S
C176 C169 1.448 . S
C176 C175 1.430 . S
C176 N180 1.351 . S
C177 C175 1.387 . S
C177 C178 1.374 . S
C177 H192 0.931 . S
C178 C172 1.439 . S
C178 C177 1.374 . S
C178 H193 0.931 . S
Eu179 N170 2.600 . S
Eu179 N180 2.562 . S
Eu179 O214 2.335 . S
Eu179 O217 2.372 . S
Eu179 O218 2.462 . S
Eu179 O219 2.373 . S
Eu179 O221 2.432 . S
Eu179 O222 2.291 1_554 S
Eu179 C243 2.787 . S
N180 C176 1.351 . S
N180 Eu179 2.562 . S
N180 C182 1.325 1_554 S
C181 C175 1.413 . S
C181 C183 1.361 1_554 S
C181 H189 0.927 1_554 S
C182 N180 1.325 1_556 S
C182 C183 1.416 . S
C182 H188 0.929 . S
C183 C181 1.361 1_556 S
C183 C182 1.416 . S
C183 H185 0.930 . S
H184 C173 0.930 . S
H185 C183 0.930 . S
H186 C201 0.930 . S
H187 C208 0.930 . S
H188 C182 0.929 . S
H189 C181 0.927 1_556 S
H190 C204 0.929 . S
H191 C171 0.931 . S
H192 C177 0.931 . S
H193 C178 0.931 . S
H194 C199 0.931 . S
H195 C174 0.929 . S
H196 C207 0.931 1_554 S
N197 Eu168 2.600 . S
N197 C198 1.365 . S
N197 C201 1.319 . S
C198 N197 1.365 . S
C198 C200 1.405 . S
C198 C206 1.448 . S
C199 H194 0.931 . S
C199 C201 1.397 . S
C199 C202 1.367 . S
C200 C198 1.405 . S
C200 C202 1.403 . S
C200 C233 1.439 . S
C201 H186 0.930 . S
C201 N197 1.319 . S
C201 C199 1.397 . S
C202 C199 1.367 . S
C202 C200 1.403 . S
C202 H209 0.929 . S
N203 Eu168 2.562 . S
N203 C204 1.325 1_556 S
N203 C206 1.351 . S
C204 H190 0.929 . S
C204 N203 1.325 1_554 S
C204 C208 1.416 . S
C205 C206 1.430 . S
C205 C207 1.404 . S
C205 C234 1.387 . S
C206 C198 1.448 . S
C206 N203 1.351 . S
C206 C205 1.430 . S
C207 H196 0.931 1_556 S
C207 C205 1.404 . S
C207 C208 1.366 1_556 S
C208 H187 0.930 . S
C208 C204 1.416 . S
C208 C207 1.366 1_554 S
H209 C202 0.929 . S
H210 C233 0.931 . S
H211 C234 0.931 . S
O212 Eu168 2.462 . S
O212 C232 1.252 . S
O213 Eu168 2.373 . S
O213 C224 1.249 . S
O214 Eu179 2.335 . S
O214 C224 1.264 1_554 S
O215 Eu168 2.432 . S
O215 C232 1.268 . S
O216 Eu168 2.291 1_554 S
O216 C231 1.255 . S
O217 Eu179 2.372 . S
O217 C231 1.257 . S
O218 Eu179 2.462 . S
O218 C243 1.252 . S
O219 Eu179 2.373 . S
O219 C235 1.249 . S
O220 Eu168 2.335 . S
O220 C235 1.264 1_556 S
O221 Eu179 2.432 . S
O221 C243 1.268 . S
O222 Eu179 2.291 1_556 S
O222 C242 1.255 . S
O223 Eu168 2.372 . S
O223 C242 1.257 . S
C224 O213 1.249 . S
C224 O214 1.264 1_556 S
C225 C228 1.382 . S
C225 C230 1.390 . S
C225 C232 1.506 . S
C226 C227 1.398 . S
C226 C230 1.392 . S
C227 C226 1.398 . S
C227 C229 1.372 . S
C227 H244 0.931 . S
C228 C225 1.382 . S
C228 C229 1.390 . S
C228 H245 0.931 . S
C229 C227 1.372 . S
C229 C228 1.390 . S
C229 H246 0.929 . S
C230 C225 1.390 . S
C230 C226 1.392 . S
C230 H247 0.930 1_556 S
C231 O216 1.255 . S
C231 O217 1.257 . S
C232 Eu168 2.787 . S
C232 O212 1.252 . S
C232 O215 1.268 . S
C232 C225 1.506 . S
C233 C200 1.439 . S
C233 H210 0.931 . S
C233 C234 1.374 . S
C234 C205 1.387 . S
C234 H211 0.931 . S
C234 C233 1.374 . S
C235 O219 1.249 . S
C235 O220 1.264 1_554 S
C236 C239 1.382 . S
C236 C240 1.390 . S
C236 C243 1.506 . S
C237 C238 1.398 . S
C237 C240 1.392 . S
C238 C237 1.398 . S
C238 C241 1.372 . S
C238 H248 0.931 . S
C239 C236 1.382 . S
C239 C241 1.390 . S
C239 H249 0.931 . S
C240 C236 1.390 . S
C240 C237 1.392 . S
C240 H250 0.930 1_554 S
C241 C238 1.372 . S
C241 C239 1.390 . S
C241 H251 0.929 . S
C242 O222 1.255 . S
C242 O223 1.257 . S
C243 Eu179 2.787 . S
C243 O218 1.252 . S
C243 O221 1.268 . S
C243 C236 1.506 . S
H244 C227 0.931 . S
H245 C228 0.931 . S
H246 C229 0.929 . S
H247 C230 0.930 1_554 S
H248 C238 0.931 . S
H249 C239 0.931 . S
H250 C240 0.930 1_556 S
H251 C241 0.929 . S
Eu252 N281 2.600 . S
Eu252 N287 2.562 . S
Eu252 O296 2.462 . S
Eu252 O297 2.373 . S
Eu252 O299 2.432 . S
Eu252 O300 2.291 . S
Eu252 O304 2.335 . S
Eu252 O307 2.372 . S
Eu252 C316 2.787 . S
C253 N254 1.365 . S
C253 C256 1.405 . S
C253 C260 1.448 . S
N254 C253 1.365 . S
N254 C257 1.319 . S
N254 Eu263 2.600 . S
C255 C257 1.397 . S
C255 C258 1.367 . S
C255 H275 0.931 . S
C256 C253 1.405 . S
C256 C258 1.403 . S
C256 C262 1.439 . S
C257 N254 1.319 . S
C257 C255 1.397 . S
C257 H268 0.930 . S
C258 C255 1.367 . S
C258 C256 1.403 . S
C258 H279 0.929 . S
C259 C260 1.430 . S
C259 C261 1.387 . S
C259 C265 1.404 . S
C260 C253 1.448 . S
C260 C259 1.430 . S
C260 N264 1.351 . S
C261 C259 1.387 . S
C261 C262 1.374 . S
C261 H276 0.931 . S
C262 C256 1.439 . S
C262 C261 1.374 . S
C262 H277 0.931 . S
Eu263 N254 2.600 . S
Eu263 N264 2.562 . S
Eu263 O298 2.335 . S
Eu263 O301 2.372 . S
Eu263 O302 2.462 . S
Eu263 O303 2.373 . S
Eu263 O305 2.432 . S
Eu263 O306 2.291 . S
Eu263 C327 2.787 . S
N264 C260 1.351 . S
N264 Eu263 2.562 . S
N264 C266 1.325 . S
C265 C259 1.404 . S
C265 C267 1.366 . S
C265 H273 0.930 . S
C266 N264 1.325 . S
C266 C267 1.416 . S
C266 H272 0.929 . S
C267 C265 1.366 . S
C267 C266 1.416 . S
C267 H269 0.930 . S
H268 C257 0.930 . S
H269 C267 0.930 . S
H270 C285 0.930 . S
H271 C292 0.930 . S
H272 C266 0.929 . S
H273 C265 0.930 . S
H274 C288 0.929 . S
H275 C255 0.931 . S
H276 C261 0.931 . S
H277 C262 0.931 . S
H278 C283 0.931 . S
H279 C258 0.929 . S
H280 C291 0.930 . S
N281 Eu252 2.600 . S
N281 C282 1.365 . S
N281 C285 1.319 . S
C282 N281 1.365 . S
C282 C284 1.405 . S
C282 C290 1.448 . S
C283 H278 0.931 . S
C283 C285 1.397 . S
C283 C286 1.367 . S
C284 C282 1.405 . S
C284 C286 1.403 . S
C284 C317 1.439 . S
C285 H270 0.930 . S
C285 N281 1.319 . S
C285 C283 1.397 . S
C286 C283 1.367 . S
C286 C284 1.403 . S
C286 H293 0.929 . S
N287 Eu252 2.562 . S
N287 C288 1.325 . S
N287 C290 1.351 . S
C288 H274 0.929 . S
C288 N287 1.325 . S
C288 C292 1.416 . S
C289 C290 1.430 . S
C289 C291 1.404 . S
C289 C318 1.387 . S
C290 C282 1.448 . S
C290 N287 1.351 . S
C290 C289 1.430 . S
C291 H280 0.930 . S
C291 C289 1.404 . S
C291 C292 1.366 . S
C292 H271 0.930 . S
C292 C288 1.416 . S
C292 C291 1.366 . S
H293 C286 0.929 . S
H294 C317 0.931 . S
H295 C318 0.931 . S
O296 Eu252 2.462 . S
O296 C316 1.252 . S
O297 Eu252 2.373 . S
O297 C308 1.249 . S
O298 Eu263 2.335 . S
O298 C308 1.264 . S
O299 Eu252 2.432 . S
O299 C316 1.268 . S
O300 Eu252 2.291 . S
O300 C315 1.255 . S
O301 Eu263 2.372 . S
O301 C315 1.257 . S
O302 Eu263 2.462 . S
O302 C327 1.252 . S
O303 Eu263 2.373 . S
O303 C319 1.249 . S
O304 Eu252 2.335 . S
O304 C319 1.264 . S
O305 Eu263 2.432 . S
O305 C327 1.268 . S
O306 Eu263 2.291 . S
O306 C326 1.255 . S
O307 Eu252 2.372 . S
O307 C326 1.257 . S
C308 O297 1.249 . S
C308 O298 1.264 . S
C309 C312 1.382 . S
C309 C314 1.390 . S
C309 C316 1.506 . S
C310 C311 1.398 . S
C310 C314 1.392 . S
C311 C310 1.398 . S
C311 C313 1.372 . S
C311 H328 0.931 . S
C312 C309 1.382 . S
C312 C313 1.390 . S
C312 H329 0.931 . S
C313 C311 1.372 . S
C313 C312 1.390 . S
C313 H330 0.929 . S
C314 C309 1.390 . S
C314 C310 1.392 . S
C314 H331 0.930 . S
C315 O300 1.255 . S
C315 O301 1.257 . S
C316 Eu252 2.787 . S
C316 O296 1.252 . S
C316 O299 1.268 . S
C316 C309 1.506 . S
C317 C284 1.439 . S
C317 H294 0.931 . S
C317 C318 1.374 . S
C318 C289 1.387 . S
C318 H295 0.931 . S
C318 C317 1.374 . S
C319 O303 1.249 . S
C319 O304 1.264 . S
C320 C323 1.382 . S
C320 C324 1.390 . S
C320 C327 1.506 . S
C321 C322 1.398 . S
C321 C324 1.392 . S
C322 C321 1.398 . S
C322 C325 1.372 . S
C322 H332 0.931 . S
C323 C320 1.382 . S
C323 C325 1.390 . S
C323 H333 0.931 . S
C324 C320 1.390 . S
C324 C321 1.392 . S
C324 H334 0.930 . S
C325 C322 1.372 . S
C325 C323 1.390 . S
C325 H335 0.929 . S
C326 O306 1.255 . S
C326 O307 1.257 . S
C327 Eu263 2.787 . S
C327 O302 1.252 . S
C327 O305 1.268 . S
C327 C320 1.506 . S
H328 C311 0.931 . S
H329 C312 0.931 . S
H330 C313 0.929 . S
H331 C314 0.930 . S
H332 C322 0.931 . S
H333 C323 0.931 . S
H334 C324 0.930 . S
H335 C325 0.929 . S
C336 C337 1.387 . S
C336 H340 0.950 . S
C336 C345 1.390 . S
C337 C336 1.387 . S
C337 C339 1.387 1_556 S
H338 C345 0.950 . S
C339 C337 1.387 1_554 S
C339 C341 1.390 . S
C339 H343 0.950 . S
H340 C336 0.950 . S
C341 C339 1.390 . S
C341 C342 1.387 . S
C341 H344 0.950 . S
C342 C341 1.387 . S
C342 C345 1.387 1_554 S
H343 C339 0.950 . S
H344 C341 0.950 . S
C345 C336 1.390 . S
C345 H338 0.950 . S
C345 C342 1.387 1_556 S
C346 C347 1.387 . S
C346 H350 0.950 . S
C346 C355 1.390 . S
C347 C346 1.387 . S
C347 C349 1.387 1_554 S
H348 C355 0.950 . S
C349 C347 1.387 1_556 S
C349 C351 1.390 . S
C349 H353 0.950 . S
H350 C346 0.950 . S
C351 C349 1.390 . S
C351 C352 1.387 . S
C351 H354 0.950 . S
C352 C351 1.387 . S
C352 C355 1.387 1_556 S
H353 C349 0.950 . S
H354 C351 0.950 . S
C355 C346 1.390 . S
C355 H348 0.950 . S
C355 C352 1.387 1_554 S
C356 C357 1.387 . S
C356 H360 0.950 . S
C356 C365 1.390 . S
C357 C356 1.387 . S
C357 C359 1.387 . S
H358 C365 0.950 . S
C359 C357 1.387 . S
C359 C361 1.390 . S
C359 H363 0.950 . S
H360 C356 0.950 . S
C361 C359 1.390 . S
C361 C362 1.387 . S
C361 H364 0.950 . S
C362 C361 1.387 . S
C362 C365 1.387 . S
H363 C359 0.950 . S
H364 C361 0.950 . S
C365 C356 1.390 . S
C365 H358 0.950 . S
C365 C362 1.387 . S
C366 C367 1.387 . S
C366 H370 0.950 . S
C366 C375 1.390 . S
C367 C366 1.387 . S
C367 C369 1.387 . S
H368 C375 0.950 . S
C369 C367 1.387 . S
C369 C371 1.390 . S
C369 H373 0.950 . S
H370 C366 0.950 . S
C371 C369 1.390 . S
C371 C372 1.387 . S
C371 H374 0.950 . S
C372 C371 1.387 . S
C372 C375 1.387 . S
H373 C369 0.950 . S
H374 C371 0.950 . S
C375 C366 1.390 . S
C375 H368 0.950 . S
C375 C372 1.387 . S
C376 C377 1.399 . S
C376 H380 0.950 . S
C376 C385 1.390 . S
C377 C376 1.399 . S
C377 C379 1.376 1_566 S
H378 C385 0.950 . S
C379 C377 1.376 1_544 S
C379 C381 1.390 . S
C379 H383 0.950 . S
H380 C376 0.950 . S
C381 C379 1.390 . S
C381 C382 1.387 . S
C381 H384 0.950 . S
C382 C381 1.387 . S
C382 C385 1.387 1_544 S
H383 C379 0.950 . S
H384 C381 0.950 . S
C385 C376 1.390 . S
C385 H378 0.950 . S
C385 C382 1.387 1_566 S
C386 C387 1.387 1_565 S
C386 H390 0.950 . S
C386 C395 1.390 . S
C387 C386 1.387 1_545 S
C387 C389 1.387 . S
H388 C395 0.950 . S
C389 C387 1.387 . S
C389 C391 1.390 . S
C389 H393 0.950 . S
H390 C386 0.950 . S
C391 C389 1.390 . S
C391 C392 1.387 1_545 S
C391 H394 0.950 . S
C392 C391 1.387 1_565 S
C392 C395 1.387 . S
H393 C389 0.950 . S
H394 C391 0.950 . S
C395 C386 1.390 . S
C395 H388 0.950 . S
C395 C392 1.387 . S
C396 C397 1.399 . S
C396 H400 0.950 . S
C396 C405 1.390 1_655 S
C397 C396 1.399 . S
C397 C399 1.376 1_556 S
H398 C405 0.950 . S
C399 C397 1.376 1_554 S
C399 C401 1.390 1_655 S
C399 H403 0.950 . S
H400 C396 0.950 . S
C401 C399 1.390 1_455 S
C401 C402 1.387 . S
C401 H404 0.950 . S
C402 C401 1.387 . S
C402 C405 1.387 1_554 S
H403 C399 0.950 . S
H404 C401 0.950 . S
C405 C396 1.390 1_455 S
C405 H398 0.950 . S
C405 C402 1.387 1_556 S
C406 C407 1.387 . S
C406 H410 0.950 . S
C406 C415 1.390 1_455 S
C407 C406 1.387 . S
C407 C409 1.387 . S
H408 C415 0.950 . S
C409 C407 1.387 . S
C409 C411 1.390 1_455 S
C409 H413 0.950 . S
H410 C406 0.950 . S
C411 C409 1.390 1_655 S
C411 C412 1.387 . S
C411 H414 0.950 . S
C412 C411 1.387 . S
C412 C415 1.387 . S
H413 C409 0.950 . S
H414 C411 0.950 . S
C415 C406 1.390 1_655 S
C415 H408 0.950 . S
C415 C412 1.387 . S
C416 C417 1.387 1_455 S
C416 H420 0.950 . S
C416 C425 1.376 . S
C417 C416 1.387 1_655 S
C417 C419 1.387 . S
H418 C425 0.953 . S
C419 C417 1.387 . S
C419 C421 1.376 . S
C419 H423 0.950 . S
H420 C416 0.950 . S
C421 C419 1.376 . S
C421 C422 1.390 . S
C421 H424 0.953 . S
C422 C421 1.390 . S
C422 C425 1.390 1_655 S
H423 C419 0.950 . S
H424 C421 0.953 . S
C425 C416 1.376 . S
C425 H418 0.953 . S
C425 C422 1.390 1_455 S
C426 C427 1.387 1_655 S
C426 H430 0.950 . S
C426 C435 1.390 . S
C427 C426 1.387 1_455 S
C427 C429 1.387 . S
H428 C435 0.950 . S
C429 C427 1.387 . S
C429 C431 1.390 . S
C429 H433 0.950 . S
H430 C426 0.950 . S
C431 C429 1.390 . S
C431 C432 1.380 . S
C431 H434 0.950 . S
C432 C431 1.380 . S
C432 C435 1.380 1_455 S
H433 C429 0.950 . S
H434 C431 0.950 . S
C435 C426 1.390 . S
C435 H428 0.950 . S
C435 C432 1.380 1_655 S
C436 C437 1.387 . S
C436 H440 0.950 . S
C436 C445 1.390 . S
C437 C436 1.387 . S
C437 C439 1.387 . S
H438 C445 0.950 . S
C439 C437 1.387 . S
C439 C441 1.390 . S
C439 H443 0.950 . S
H440 C436 0.950 . S
C441 C439 1.390 . S
C441 C442 1.387 . S
C441 H444 0.950 . S
C442 C441 1.387 . S
C442 C445 1.387 . S
H443 C439 0.950 . S
H444 C441 0.950 . S
C445 C436 1.390 . S
C445 H438 0.950 . S
C445 C442 1.387 . S
C446 C447 1.387 . S
C446 H450 0.950 . S
C446 C455 1.390 . S
C447 C446 1.387 . S
C447 C449 1.387 . S
H448 C455 0.950 . S
C449 C447 1.387 . S
C449 C451 1.390 . S
C449 H453 0.950 . S
H450 C446 0.950 . S
C451 C449 1.390 . S
C451 C452 1.387 . S
C451 H454 0.950 . S
C452 C451 1.387 . S
C452 C455 1.387 . S
H453 C449 0.950 . S
H454 C451 0.950 . S
C455 C446 1.390 . S
C455 H448 0.950 . S
C455 C452 1.387 . S
C337 C237 1.474 1_556 S
C342 C58 1.474 1_554 S
C347 C226 1.472 1_554 S
C352 C69 1.472 1_556 S
C357 C142 1.477 . S
C362 C321 1.477 . S
C367 C153 1.474 . S
C372 C310 1.474 . S
C377 C67 1.995 1_556 S
C382 C56 1.996 1_554 S
C387 C151 1.995 . S
C392 C140 1.995 . S
C397 C235 1.995 1_556 S
C402 C224 1.996 1_554 S
C407 C308 1.996 . S
C412 C319 1.996 . S
C417 C147 1.481 1_545 S
C422 C63 1.493 . S
C427 C74 1.479 1_545 S
C432 C158 1.498 . S
C437 C315 1.481 . S
C442 C231 1.481 . S
C447 C326 1.479 . S
C452 C242 1.479 . S
