# Generated by pormake.
# Topology umh, (4)-cn, num edge types: 1
# Building blocks:
#     Node 0, Type 0, BuildingBlock: ICAMEG_clean_sbu_1, # of connection points: 4
#     Node 1, Type 0, BuildingBlock: ICAMEG_clean_sbu_1, # of connection points: 4
#     Node 2, Type 0, BuildingBlock: ICAMEG_clean_sbu_1, # of connection points: 4
#     Node 3, Type 0, BuildingBlock: ICAMEG_clean_sbu_1, # of connection points: 4
#     Node 4, Type 0, BuildingBlock: ICAMEG_clean_sbu_1, # of connection points: 4
#     Node 5, Type 0, BuildingBlock: ICAMEG_clean_sbu_1, # of connection points: 4
#     Node 6, Type 0, BuildingBlock: ICAMEG_clean_sbu_1, # of connection points: 4
#     Node 7, Type 0, BuildingBlock: ICAMEG_clean_sbu_1, # of connection points: 4
#     Node 8, Type 0, BuildingBlock: ICAMEG_clean_sbu_1, # of connection points: 4
#     Node 9, Type 0, BuildingBlock: ICAMEG_clean_sbu_1, # of connection points: 4
#     Node 10, Type 0, BuildingBlock: ICAMEG_clean_sbu_1, # of connection points: 4
#     Node 11, Type 0, BuildingBlock: ICAMEG_clean_sbu_1, # of connection points: 4
#     Node 12, Type 0, BuildingBlock: ICAMEG_clean_sbu_1, # of connection points: 4
#     Node 13, Type 0, BuildingBlock: ICAMEG_clean_sbu_1, # of connection points: 4
#     Node 14, Type 0, BuildingBlock: ICAMEG_clean_sbu_1, # of connection points: 4
#     Node 15, Type 0, BuildingBlock: ICAMEG_clean_sbu_1, # of connection points: 4
#     Edge 16, Type (0, 0), BuildingBlock: XIVTED_clean_linker_0, # of connection points: 2
#     Edge 17, Type (0, 0), BuildingBlock: XIVTED_clean_linker_0, # of connection points: 2
#     Edge 18, Type (0, 0), BuildingBlock: XIVTED_clean_linker_0, # of connection points: 2
#     Edge 19, Type (0, 0), BuildingBlock: XIVTED_clean_linker_0, # of connection points: 2
#     Edge 20, Type (0, 0), BuildingBlock: XIVTED_clean_linker_0, # of connection points: 2
#     Edge 21, Type (0, 0), BuildingBlock: XIVTED_clean_linker_0, # of connection points: 2
#     Edge 22, Type (0, 0), BuildingBlock: XIVTED_clean_linker_0, # of connection points: 2
#     Edge 23, Type (0, 0), BuildingBlock: XIVTED_clean_linker_0, # of connection points: 2
#     Edge 24, Type (0, 0), BuildingBlock: XIVTED_clean_linker_0, # of connection points: 2
#     Edge 25, Type (0, 0), BuildingBlock: XIVTED_clean_linker_0, # of connection points: 2
#     Edge 26, Type (0, 0), BuildingBlock: XIVTED_clean_linker_0, # of connection points: 2
#     Edge 27, Type (0, 0), BuildingBlock: XIVTED_clean_linker_0, # of connection points: 2
#     Edge 28, Type (0, 0), BuildingBlock: XIVTED_clean_linker_0, # of connection points: 2
#     Edge 29, Type (0, 0), BuildingBlock: XIVTED_clean_linker_0, # of connection points: 2
#     Edge 30, Type (0, 0), BuildingBlock: XIVTED_clean_linker_0, # of connection points: 2
#     Edge 31, Type (0, 0), BuildingBlock: XIVTED_clean_linker_0, # of connection points: 2
#     Edge 32, Type (0, 0), BuildingBlock: XIVTED_clean_linker_0, # of connection points: 2
#     Edge 33, Type (0, 0), BuildingBlock: XIVTED_clean_linker_0, # of connection points: 2
#     Edge 34, Type (0, 0), BuildingBlock: XIVTED_clean_linker_0, # of connection points: 2
#     Edge 35, Type (0, 0), BuildingBlock: XIVTED_clean_linker_0, # of connection points: 2
#     Edge 36, Type (0, 0), BuildingBlock: XIVTED_clean_linker_0, # of connection points: 2
#     Edge 37, Type (0, 0), BuildingBlock: XIVTED_clean_linker_0, # of connection points: 2
#     Edge 38, Type (0, 0), BuildingBlock: XIVTED_clean_linker_0, # of connection points: 2
#     Edge 39, Type (0, 0), BuildingBlock: XIVTED_clean_linker_0, # of connection points: 2
#     Edge 40, Type (0, 0), BuildingBlock: XIVTED_clean_linker_0, # of connection points: 2
#     Edge 41, Type (0, 0), BuildingBlock: XIVTED_clean_linker_0, # of connection points: 2
#     Edge 42, Type (0, 0), BuildingBlock: XIVTED_clean_linker_0, # of connection points: 2
#     Edge 43, Type (0, 0), BuildingBlock: XIVTED_clean_linker_0, # of connection points: 2
#     Edge 44, Type (0, 0), BuildingBlock: XIVTED_clean_linker_0, # of connection points: 2
#     Edge 45, Type (0, 0), BuildingBlock: XIVTED_clean_linker_0, # of connection points: 2
#     Edge 46, Type (0, 0), BuildingBlock: XIVTED_clean_linker_0, # of connection points: 2
#     Edge 47, Type (0, 0), BuildingBlock: XIVTED_clean_linker_0, # of connection points: 2
# Relax obj value: 0.087
# Max RMSD: 0.247
# Mean RMSD: 0.247
data_MOF--net-umh--node1-ICAMEG_clean_sbu_1--edge1-XIVTED_clean_linker_0
_symmetry_space_group_name_H-M    P1
_symmetry_Int_Tables_number       1
_symmetry_cell_setting            triclinic
loop_
_symmetry_equiv_pos_as_xyz
'x, y, z'
_cell_length_a     42.818844
_cell_length_b     42.82226
_cell_length_c     57.562944
_cell_angle_alpha  90.001779
_cell_angle_beta   90.005258
_cell_angle_gamma 90.005662
loop_
_atom_site_label
_atom_site_type_symbol
_atom_site_fract_x
_atom_site_fract_y
_atom_site_fract_z
_atom_type_partial_charge
Co0 Co 0.31494 0.08383 0.12933 0.0
Co1 Co 0.37041 0.11687 0.16538 0.0
O2 O 0.3578 0.09093 0.13921 0.0
C3 C 0.3464 0.11118 0.08882 0.0
O4 O 0.35806 0.13153 0.10348 0.0
C5 C 0.3938 0.05461 0.17607 0.0
O6 O 0.36525 0.04527 0.17161 0.0
O7 O 0.33827 0.0979 0.1858 0.0
O8 O 0.30089 0.07855 0.16237 0.0
H9 H 0.35402 0.18744 0.23406 0.0
H10 H 0.36618 0.04653 0.10861 0.0
O11 O 0.3283 0.08964 0.09613 0.0
H12 H 0.29629 0.96993 0.14586 0.0
H13 H 0.2323 0.03925 0.07676 0.0
H14 H 0.25263 0.10463 0.14566 0.0
H15 H 0.28375 0.02615 0.14672 0.0
H16 H 0.28622 0.0482 0.09038 0.0
O17 O 0.40074 0.08349 0.17465 0.0
H18 H 0.3376 0.1552 0.20071 0.0
H19 H 0.43207 0.13191 0.1865 0.0
H20 H 0.19834 0.09609 0.13277 0.0
H21 H 0.37954 0.99052 0.10722 0.0
H22 H 0.18791 0.06319 0.09808 0.0
H23 H 0.3445 0.9518 0.12602 0.0
O24 O 0.30539 0.12904 0.13125 0.0
H25 H 0.4575 0.11575 0.10685 0.0
H26 H 0.38895 0.18237 0.15464 0.0
H27 H 0.42744 0.20687 0.12847 0.0
H28 H 0.46206 0.17348 0.10436 0.0
H29 H 0.41852 0.09223 0.1331 0.0
H30 H 0.44954 0.16368 0.21983 0.0
H31 H 0.41037 0.19184 0.2438 0.0
O32 O 0.33973 0.15001 0.15654 0.0
C33 C 0.31197 0.08465 0.18249 0.0
C34 C 0.37132 0.17542 0.22368 0.0
C35 C 0.42493 0.16205 0.21571 0.0
N36 N 0.38389 0.14209 0.19149 0.0
C37 C 0.36217 0.15726 0.20471 0.0
C38 C 0.41491 0.14408 0.19688 0.0
C39 C 0.40294 0.17785 0.22915 0.0
C40 C 0.35066 0.02978 0.11661 0.0
N41 N 0.32413 0.03955 0.12759 0.0
C42 C 0.35841 -0.00188 0.11586 0.0
C43 C 0.33876 0.97641 0.12644 0.0
C44 C 0.31171 0.98657 0.13758 0.0
C45 C 0.30475 0.01842 0.13803 0.0
C46 C 0.23654 0.05357 0.09193 0.0
C47 C 0.24824 0.0901 0.13065 0.0
C48 C 0.26701 0.05875 0.0997 0.0
N49 N 0.2725 0.07665 0.11892 0.0
C50 C 0.21747 0.08544 0.12339 0.0
C51 C 0.21164 0.067 0.10391 0.0
C52 C 0.31609 0.15183 0.14306 0.0
C53 C 0.44262 0.13055 0.11733 0.0
C54 C 0.40392 0.16769 0.14418 0.0
C55 C 0.4257 0.18169 0.12942 0.0
C56 C 0.44513 0.16294 0.11591 0.0
N57 N 0.40162 0.13591 0.14549 0.0
C58 C 0.4206 0.11736 0.1323 0.0
Co59 Co 0.40514 0.31441 0.6291 0.0
Co60 Co 0.37261 0.37006 0.66524 0.0
O61 O 0.39824 0.35731 0.63896 0.0
C62 C 0.37703 0.34595 0.58897 0.0
O63 O 0.35707 0.35755 0.60394 0.0
C64 C 0.43506 0.3933 0.6755 0.0
O65 O 0.44429 0.36476 0.67092 0.0
O66 O 0.39173 0.33794 0.68555 0.0
O67 O 0.41097 0.30044 0.66214 0.0
H68 H 0.30277 0.35397 0.73438 0.0
H69 H 0.4421 0.36556 0.60791 0.0
O70 O 0.39869 0.32774 0.59593 0.0
H71 H 0.51932 0.29573 0.64454 0.0
H72 H 0.44871 0.23166 0.57618 0.0
H73 H 0.38457 0.25214 0.64569 0.0
H74 H 0.4631 0.28326 0.64599 0.0
H75 H 0.44005 0.2856 0.58984 0.0
O76 O 0.40618 0.4003 0.67429 0.0
H77 H 0.33457 0.33742 0.70083 0.0
H78 H 0.35798 0.43179 0.68639 0.0
H79 H 0.39283 0.19782 0.63277 0.0
H80 H 0.49811 0.37886 0.60594 0.0
H81 H 0.42511 0.18733 0.59777 0.0
H82 H 0.53713 0.34385 0.62441 0.0
O83 O 0.35998 0.30486 0.63146 0.0
H84 H 0.37335 0.45693 0.60654 0.0
H85 H 0.30704 0.38878 0.65489 0.0
H86 H 0.28237 0.42723 0.62877 0.0
H87 H 0.31561 0.46163 0.60437 0.0
H88 H 0.39704 0.41801 0.63275 0.0
H89 H 0.32666 0.44939 0.71992 0.0
H90 H 0.29866 0.41034 0.7441 0.0
O91 O 0.33925 0.33946 0.65665 0.0
C92 C 0.40503 0.31167 0.68225 0.0
C93 C 0.31472 0.37122 0.7239 0.0
C94 C 0.32816 0.42478 0.7158 0.0
N95 N 0.34771 0.38365 0.69149 0.0
C96 C 0.33264 0.36199 0.70483 0.0
C97 C 0.34588 0.41468 0.69686 0.0
C98 C 0.31246 0.40285 0.72936 0.0
C99 C 0.45898 0.35006 0.61578 0.0
N100 N 0.44938 0.32358 0.62692 0.0
C101 C 0.49064 0.35777 0.61469 0.0
C102 C 0.51252 0.33814 0.62509 0.0
C103 C 0.50254 0.31115 0.6364 0.0
C104 C 0.47068 0.30422 0.63718 0.0
C105 C 0.43467 0.23593 0.59149 0.0
C106 C 0.39884 0.24772 0.63055 0.0
C107 C 0.42966 0.26641 0.59928 0.0
N108 N 0.41211 0.27195 0.61867 0.0
C109 C 0.40335 0.21694 0.62327 0.0
C110 C 0.42143 0.21107 0.60361 0.0
C111 C 0.3373 0.31569 0.64331 0.0
C112 C 0.35862 0.44214 0.61714 0.0
C113 C 0.32165 0.40367 0.64431 0.0
C114 C 0.30755 0.42542 0.62958 0.0
C115 C 0.32622 0.44473 0.61591 0.0
N116 N 0.35344 0.40128 0.64543 0.0
C117 C 0.37191 0.42016 0.6321 0.0
Co118 Co 0.17903 0.4093 0.12777 0.0
Co119 Co 0.12501 0.37334 0.16348 0.0
O120 O 0.13651 0.40007 0.13749 0.0
C121 C 0.14888 0.38069 0.08724 0.0
O122 O 0.13851 0.35964 0.10188 0.0
C123 C 0.09855 0.43422 0.17447 0.0
O124 O 0.12658 0.44499 0.16997 0.0
O125 O 0.15599 0.39379 0.18405 0.0
O126 O 0.19267 0.41505 0.16089 0.0
H127 H 0.14449 0.30336 0.23205 0.0
H128 H 0.12613 0.44421 0.10701 0.0
O129 O 0.16601 0.40304 0.09453 0.0
H130 H 0.19212 0.52388 0.14467 0.0
H131 H 0.25956 0.45815 0.0755 0.0
H132 H 0.24224 0.39151 0.14418 0.0
H133 H 0.20731 0.46831 0.14544 0.0
H134 H 0.2061 0.44647 0.08897 0.0
O135 O 0.09297 0.40507 0.1728 0.0
H136 H 0.15947 0.3366 0.19887 0.0
H137 H 0.06404 0.35496 0.18424 0.0
H138 H 0.29609 0.4028 0.13145 0.0
H139 H 0.11015 0.49953 0.10571 0.0
H140 H 0.305 0.43635 0.09687 0.0
H141 H 0.14322 0.53978 0.1247 0.0
O142 O 0.19082 0.3646 0.12956 0.0
H143 H 0.03848 0.37049 0.10453 0.0
H144 H 0.1099 0.30706 0.1524 0.0
H145 H 0.07296 0.28084 0.12591 0.0
H146 H 0.03691 0.31263 0.10174 0.0
H147 H 0.07595 0.39575 0.13111 0.0
H148 H 0.04798 0.32213 0.21739 0.0
H149 H 0.08836 0.29594 0.24148 0.0
O150 O 0.1574 0.34185 0.15468 0.0
C151 C 0.18163 0.40834 0.18092 0.0
C152 C 0.12667 0.3145 0.22161 0.0
C153 C 0.0725 0.32507 0.2134 0.0
N154 N 0.11265 0.34729 0.18944 0.0
C155 C 0.13501 0.33322 0.20273 0.0
C156 C 0.08173 0.34365 0.19467 0.0
C157 C 0.09517 0.31038 0.2269 0.0
C158 C 0.14079 0.46164 0.1151 0.0
N159 N 0.16771 0.45308 0.12615 0.0
C160 C 0.13157 0.4929 0.1144 0.0
C161 C 0.15011 0.51547 0.12508 0.0
C162 C 0.17754 0.50656 0.1363 0.0
C163 C 0.186 0.47506 0.1367 0.0
C164 C 0.25598 0.44357 0.09063 0.0
C165 C 0.24596 0.40632 0.12923 0.0
C166 C 0.22578 0.43685 0.09831 0.0
N167 N 0.22111 0.4186 0.11748 0.0
C168 C 0.27649 0.41254 0.12205 0.0
C169 C 0.28147 0.43134 0.10263 0.0
C170 C 0.18121 0.34128 0.14132 0.0
C171 C 0.05399 0.35639 0.11503 0.0
C172 C 0.09429 0.32104 0.14192 0.0
C173 C 0.0734 0.30607 0.12699 0.0
C174 C 0.05317 0.32392 0.11344 0.0
N175 N 0.09495 0.35289 0.14339 0.0
C176 C 0.07516 0.37055 0.13019 0.0
Co177 Co 0.07951 0.17968 0.62738 0.0
Co178 Co 0.11457 0.12584 0.66371 0.0
O179 O 0.08826 0.13723 0.63747 0.0
C180 C 0.10839 0.14873 0.58732 0.0
O181 O 0.12916 0.13848 0.60224 0.0
C182 C 0.05335 0.09984 0.67428 0.0
O183 O 0.04283 0.1279 0.66958 0.0
O184 O 0.09408 0.15718 0.68392 0.0
O185 O 0.07354 0.19383 0.66037 0.0
H186 H 0.18377 0.14558 0.73269 0.0
H187 H 0.04436 0.12681 0.60678 0.0
O188 O 0.08605 0.16612 0.59426 0.0
H189 H 0.96486 0.19397 0.64346 0.0
H190 H 0.03192 0.25988 0.57419 0.0
H191 H 0.09769 0.24296 0.64339 0.0
H192 H 0.02056 0.20868 0.64447 0.0
H193 H 0.04299 0.20652 0.58815 0.0
O194 O 0.08251 0.09412 0.67296 0.0
H195 H 0.15109 0.16043 0.69916 0.0
H196 H 0.13224 0.06498 0.68496 0.0
H197 H 0.08701 0.29672 0.63017 0.0
H198 H 0.9889 0.1113 0.60523 0.0
H199 H 0.0539 0.30543 0.59533 0.0
H200 H 0.94874 0.14496 0.62373 0.0
O201 O 0.12427 0.19112 0.62938 0.0
H202 H 0.1176 0.03872 0.60525 0.0
H203 H 0.18089 0.11017 0.65321 0.0
H204 H 0.20721 0.07282 0.62709 0.0
H205 H 0.17548 0.03677 0.60288 0.0
H206 H 0.09225 0.07659 0.63145 0.0
H207 H 0.1645 0.04905 0.71846 0.0
H208 H 0.19065 0.08952 0.74251 0.0
O209 O 0.1464 0.15793 0.65495 0.0
C210 C 0.07989 0.18296 0.68053 0.0
C211 C 0.17264 0.12773 0.72226 0.0
C212 C 0.16179 0.07355 0.7143 0.0
N213 N 0.1402 0.11358 0.68993 0.0
C214 C 0.15424 0.136 0.7032 0.0
C215 C 0.14355 0.0827 0.69537 0.0
C216 C 0.17646 0.09627 0.72778 0.0
C217 C 0.02697 0.14173 0.61465 0.0
N218 N 0.03564 0.16871 0.62557 0.0
C219 C -0.00437 0.13276 0.61381 0.0
C220 C 0.97311 0.15164 0.62423 0.0
C221 C 0.98214 0.17913 0.63531 0.0
C222 C 0.01371 0.18732 0.63585 0.0
C223 C 0.0463 0.25639 0.58943 0.0
C224 C 0.08306 0.24659 0.62833 0.0
C225 C 0.05269 0.22624 0.59739 0.0
N226 N 0.07068 0.22169 0.6167 0.0
C227 C 0.07719 0.27707 0.62087 0.0
C228 C 0.05864 0.28194 0.60131 0.0
C229 C 0.14734 0.18154 0.64141 0.0
C230 C 0.13167 0.05424 0.61577 0.0
C231 C 0.16694 0.09455 0.64272 0.0
C232 C 0.18197 0.07343 0.62799 0.0
C233 C 0.16415 0.05319 0.61442 0.0
N234 N 0.13508 0.09542 0.64394 0.0
C235 C 0.11745 0.07562 0.63072 0.0
Co236 Co 0.30816 0.40928 0.37895 0.0
Co237 Co 0.36293 0.37525 0.34284 0.0
O238 O 0.35087 0.40111 0.36916 0.0
C239 C 0.33882 0.38026 0.41911 0.0
O240 O 0.34957 0.35975 0.40418 0.0
C241 C 0.38819 0.43691 0.33288 0.0
O242 O 0.35997 0.44701 0.33756 0.0
O243 O 0.33156 0.39553 0.32251 0.0
O244 O 0.29445 0.41556 0.3459 0.0
H245 H 0.3449 0.30644 0.27338 0.0
H246 H 0.36035 0.44469 0.40024 0.0
O247 O 0.32127 0.40245 0.41212 0.0
H248 H 0.29293 0.52397 0.36357 0.0
H249 H 0.22664 0.4553 0.43178 0.0
H250 H 0.24532 0.39065 0.36225 0.0
H251 H 0.27879 0.46815 0.36206 0.0
H252 H 0.28033 0.44498 0.41821 0.0
O253 O 0.39427 0.40781 0.33396 0.0
H254 H 0.32923 0.33861 0.30698 0.0
H255 H 0.42426 0.35863 0.32186 0.0
H256 H 0.19125 0.40059 0.37507 0.0
H257 H 0.37528 0.50027 0.40229 0.0
H258 H 0.18165 0.43314 0.41008 0.0
H259 H 0.3415 0.54033 0.3838 0.0
O260 O 0.29724 0.36442 0.37652 0.0
H261 H 0.44942 0.3728 0.40183 0.0
H262 H 0.3794 0.30905 0.35305 0.0
H263 H 0.41683 0.28298 0.37924 0.0
H264 H 0.45217 0.31493 0.40386 0.0
H265 H 0.41148 0.3979 0.37554 0.0
H266 H 0.44101 0.3269 0.2883 0.0
H267 H 0.40117 0.30041 0.26388 0.0
O268 O 0.33122 0.34293 0.35122 0.0
C269 C 0.30563 0.40949 0.32579 0.0
C270 C 0.36249 0.31772 0.28397 0.0
C271 C 0.41643 0.32924 0.29233 0.0
N272 N 0.37583 0.35006 0.31655 0.0
C273 C 0.35376 0.33584 0.30307 0.0
C274 C 0.40681 0.34719 0.31129 0.0
C275 C 0.39406 0.31438 0.27863 0.0
C276 C 0.34537 0.46203 0.39237 0.0
N277 N 0.31864 0.45323 0.38118 0.0
C278 C 0.35401 0.49344 0.3935 0.0
C279 C 0.33506 0.5159 0.38308 0.0
C280 C 0.30782 0.50674 0.37172 0.0
C281 C 0.29995 0.4751 0.3709 0.0
C282 C 0.23052 0.44116 0.41647 0.0
C283 C 0.24131 0.40503 0.37739 0.0
C284 C 0.26085 0.4352 0.40873 0.0
N285 N 0.2659 0.41751 0.38933 0.0
C286 C 0.21065 0.41049 0.38462 0.0
C287 C 0.20529 0.42872 0.40428 0.0
C288 C 0.30737 0.34157 0.3645 0.0
C289 C 0.43421 0.35863 0.39113 0.0
C290 C 0.3947 0.3231 0.36372 0.0
C291 C 0.41588 0.30821 0.37849 0.0
C292 C 0.43571 0.32616 0.39229 0.0
N293 N 0.39339 0.35496 0.36268 0.0
C294 C 0.41279 0.37271 0.37613 0.0
Co295 Co 0.08105 0.31255 0.87764 0.0
Co296 Co 0.11591 0.36685 0.84155 0.0
O297 O 0.08932 0.35513 0.86757 0.0
C298 C 0.10895 0.34385 0.91798 0.0
O299 O 0.12956 0.35485 0.90324 0.0
C300 C 0.05438 0.39136 0.83014 0.0
O301 O 0.04437 0.36311 0.83482 0.0
O302 O 0.0965 0.3349 0.82122 0.0
O303 O 0.0756 0.29833 0.84464 0.0
H304 H 0.18699 0.34802 0.7735 0.0
H305 H 0.04496 0.36494 0.89796 0.0
O306 O 0.08702 0.32611 0.9108 0.0
H307 H 0.9668 0.29669 0.86078 0.0
H308 H 0.03403 0.23164 0.93051 0.0
H309 H 0.10031 0.24956 0.86172 0.0
H310 H 0.02268 0.2827 0.8602 0.0
H311 H 0.04446 0.28516 0.91663 0.0
O312 O 0.08337 0.39775 0.83178 0.0
H313 H 0.15393 0.33275 0.80671 0.0
H314 H 0.13267 0.42789 0.82016 0.0
H315 H 0.09028 0.19564 0.87487 0.0
H316 H 0.98929 0.37975 0.89907 0.0
H317 H 0.05692 0.18643 0.9095 0.0
H318 H 0.9498 0.34555 0.88031 0.0
O319 O 0.126 0.30181 0.87598 0.0
H320 H 0.11588 0.45466 0.89948 0.0
H321 H 0.18165 0.38407 0.8527 0.0
H322 H 0.20663 0.42232 0.87882 0.0
H323 H 0.17365 0.45796 0.90243 0.0
H324 H 0.09188 0.4159 0.87328 0.0
H325 H 0.16529 0.44422 0.78697 0.0
H326 H 0.19285 0.40414 0.76346 0.0
O327 O 0.14821 0.33558 0.85085 0.0
C328 C 0.08235 0.30908 0.82453 0.0
C329 C 0.17525 0.36572 0.78369 0.0
C330 C 0.16303 0.41971 0.79123 0.0
N331 N 0.1418 0.37943 0.81555 0.0
C332 C 0.15662 0.35721 0.80258 0.0
C333 C 0.14458 0.41033 0.80999 0.0
C334 C 0.17849 0.39721 0.77805 0.0
C335 C 0.02786 0.34979 0.88998 0.0
N336 N 0.03701 0.3229 0.87916 0.0
C337 C -0.0036 0.35836 0.89057 0.0
C338 C 0.97426 0.33918 0.88001 0.0
C339 C 0.98378 0.31177 0.86904 0.0
C340 C 0.01545 0.30398 0.86875 0.0
C341 C 0.04853 0.23535 0.91536 0.0
C342 C 0.08558 0.24571 0.8767 0.0
C343 C 0.05455 0.26559 0.90745 0.0
N344 N 0.0727 0.27042 0.88825 0.0
C345 C 0.08007 0.21514 0.88411 0.0
C346 C 0.06138 0.20999 0.90356 0.0
C347 C 0.14922 0.31196 0.86437 0.0
C348 C 0.13049 0.43932 0.88922 0.0
C349 C 0.16716 0.39948 0.86294 0.0
C350 C 0.18143 0.42113 0.87767 0.0
C351 C 0.16291 0.44113 0.8909 0.0
N352 N 0.13535 0.39788 0.86138 0.0
C353 C 0.11704 0.41743 0.87428 0.0
Co354 Co 0.17728 0.08202 0.37816 0.0
Co355 Co 0.12265 0.11424 0.34103 0.0
O356 O 0.13469 0.08858 0.36748 0.0
C357 C 0.14409 0.10943 0.41783 0.0
O358 O 0.13269 0.12936 0.40274 0.0
C359 C 0.10019 0.05167 0.33028 0.0
O360 O 0.12867 0.0426 0.33526 0.0
O361 O 0.15561 0.09548 0.3213 0.0
O362 O 0.19252 0.07666 0.34539 0.0
H363 H 0.14054 0.18449 0.27236 0.0
H364 H 0.12577 0.04433 0.39812 0.0
O365 O 0.16273 0.08801 0.41109 0.0
H366 H 0.19769 0.9682 0.36249 0.0
H367 H 0.25857 0.03879 0.43248 0.0
H368 H 0.2399 0.10343 0.36295 0.0
H369 H 0.20965 0.02455 0.36161 0.0
H370 H 0.20505 0.047 0.41779 0.0
O371 O 0.09301 0.08051 0.33134 0.0
H372 H 0.15619 0.15269 0.30615 0.0
H373 H 0.06154 0.12848 0.31875 0.0
H374 H 0.29382 0.09564 0.37691 0.0
H375 H 0.11297 0.98818 0.39951 0.0
H376 H 0.30341 0.06311 0.41192 0.0
H377 H 0.14903 0.94971 0.38153 0.0
O378 O 0.1864 0.12728 0.37624 0.0
H379 H 0.0337 0.11252 0.39798 0.0
H380 H 0.10305 0.1796 0.35119 0.0
H381 H 0.06346 0.20384 0.37658 0.0
H382 H 0.02845 0.17021 0.40019 0.0
H383 H 0.07376 0.08927 0.37251 0.0
H384 H 0.04483 0.15979 0.28497 0.0
H385 H 0.08448 0.1882 0.26159 0.0
O386 O 0.15266 0.14776 0.35029 0.0
C387 C 0.18194 0.08254 0.32508 0.0
C388 C 0.12302 0.17237 0.28249 0.0
C389 C 0.06932 0.15847 0.28954 0.0
N390 N 0.10976 0.13915 0.31459 0.0
C391 C 0.13174 0.15445 0.3017 0.0
C392 C 0.07891 0.14076 0.30863 0.0
C393 C 0.09157 0.1744 0.27644 0.0
C394 C 0.14173 0.02769 0.39048 0.0
N395 N 0.16851 0.03766 0.37993 0.0
C396 C 0.13429 -0.00406 0.39123 0.0
C397 C 0.15452 0.97437 0.38111 0.0
C398 C 0.18182 0.98474 0.37041 0.0
C399 C 0.18845 0.01666 0.36995 0.0
C400 C 0.2547 0.05294 0.41717 0.0
C401 C 0.24393 0.08905 0.37809 0.0
C402 C 0.22446 0.0577 0.4088 0.0
N403 N 0.21943 0.0754 0.3894 0.0
C404 C 0.27449 0.08481 0.38596 0.0
C405 C 0.27985 0.06658 0.40562 0.0
C406 C 0.17582 0.14989 0.36419 0.0
C407 C 0.04876 0.12742 0.38772 0.0
C408 C 0.08791 0.16482 0.36143 0.0
C409 C 0.06551 0.17867 0.37574 0.0
C410 C 0.04585 0.15979 0.38898 0.0
N411 N 0.09059 0.13306 0.36028 0.0
C412 C 0.07138 0.11438 0.37318 0.0
Co413 Co 0.40804 0.17991 0.87814 0.0
Co414 Co 0.3742 0.12416 0.84276 0.0
O415 O 0.40049 0.13696 0.86866 0.0
C416 C 0.38086 0.14912 0.91897 0.0
O417 O 0.36017 0.1377 0.90447 0.0
C418 C 0.43606 0.0999 0.83205 0.0
O419 O 0.44581 0.12835 0.83637 0.0
O420 O 0.39338 0.15571 0.82198 0.0
O421 O 0.41307 0.19347 0.84494 0.0
H422 H 0.30343 0.14021 0.77413 0.0
H423 H 0.44517 0.12868 0.89907 0.0
O424 O 0.40248 0.167 0.91148 0.0
H425 H 0.52191 0.19745 0.86083 0.0
H426 H 0.45384 0.26287 0.92984 0.0
H427 H 0.38755 0.24217 0.86148 0.0
H428 H 0.46577 0.21039 0.86017 0.0
H429 H 0.44431 0.20886 0.91667 0.0
O430 O 0.4071 0.09336 0.83358 0.0
H431 H 0.3361 0.15681 0.80721 0.0
H432 H 0.35819 0.06232 0.82234 0.0
H433 H 0.39666 0.29656 0.87391 0.0
H434 H 0.5011 0.11495 0.90027 0.0
H435 H 0.43003 0.30717 0.90832 0.0
H436 H 0.53988 0.14941 0.88098 0.0
O437 O 0.36288 0.18983 0.8764 0.0
H438 H 0.37487 0.03812 0.90213 0.0
H439 H 0.30859 0.10653 0.85397 0.0
H440 H 0.28389 0.0688 0.88065 0.0
H441 H 0.31712 0.03427 0.90496 0.0
H442 H 0.39859 0.07635 0.87537 0.0
H443 H 0.32597 0.04466 0.7893 0.0
H444 H 0.29819 0.08375 0.76501 0.0
O445 O 0.34151 0.15531 0.85143 0.0
C446 C 0.40679 0.18198 0.82496 0.0
C447 C 0.31527 0.12294 0.78467 0.0
C448 C 0.32796 0.06932 0.79316 0.0
N449 N 0.34861 0.11053 0.81689 0.0
C450 C 0.33367 0.1322 0.80348 0.0
C451 C 0.34617 0.07945 0.81183 0.0
C452 C 0.31238 0.09127 0.77954 0.0
C453 C 0.46195 0.14396 0.89086 0.0
N454 N 0.45226 0.1704 0.8797 0.0
C455 C 0.49357 0.136 0.8915 0.0
C456 C 0.51531 0.15532 0.88064 0.0
C457 C 0.50524 0.18227 0.86932 0.0
C458 C 0.47343 0.18946 0.86899 0.0
C459 C 0.43933 0.25855 0.91478 0.0
C460 C 0.40228 0.24664 0.87636 0.0
C461 C 0.43381 0.22803 0.90727 0.0
N462 N 0.41566 0.22243 0.88819 0.0
C463 C 0.40727 0.27746 0.88337 0.0
C464 C 0.42597 0.2834 0.9027 0.0
C465 C 0.33996 0.17916 0.8647 0.0
C466 C 0.36015 0.05298 0.89157 0.0
C467 C 0.32319 0.09159 0.86451 0.0
C468 C 0.30908 0.07024 0.87956 0.0
C469 C 0.32774 0.05086 0.89318 0.0
N470 N 0.35499 0.09351 0.86303 0.0
C471 C 0.37344 0.07456 0.87631 0.0
Co472 Co 0.67836 0.90742 0.87859 0.0
Co473 Co 0.62381 0.87475 0.84162 0.0
O474 O 0.63576 0.90034 0.86813 0.0
C475 C 0.64602 0.87914 0.91833 0.0
O476 O 0.63486 0.85905 0.90326 0.0
C477 C 0.60042 0.93705 0.83119 0.0
O478 O 0.62881 0.94647 0.8361 0.0
O479 O 0.65629 0.89418 0.82179 0.0
O480 O 0.69319 0.91333 0.84577 0.0
H481 H 0.64202 0.80537 0.77252 0.0
H482 H 0.62651 0.94414 0.89906 0.0
O483 O 0.66422 0.90092 0.91155 0.0
H484 H 0.6969 0.02169 0.86342 0.0
H485 H 0.75954 0.95142 0.93268 0.0
H486 H 0.74115 0.8871 0.86293 0.0
H487 H 0.70969 0.96553 0.86216 0.0
H488 H 0.706 0.94249 0.91825 0.0
O489 O 0.5936 0.90812 0.83225 0.0
H490 H 0.65756 0.83717 0.80634 0.0
H491 H 0.56268 0.85976 0.81963 0.0
H492 H 0.79509 0.89563 0.87662 0.0
H493 H 0.6129 7e-05 0.90083 0.0
H494 H 0.80454 0.92801 0.91174 0.0
H495 H 0.64818 0.03926 0.88285 0.0
O496 O 0.68816 0.86232 0.87635 0.0
H497 H 0.53546 0.87464 0.8991 0.0
H498 H 0.60528 0.80902 0.85156 0.0
H499 H 0.56633 0.78397 0.87707 0.0
H500 H 0.53108 0.81687 0.90105 0.0
H501 H 0.5749 0.89871 0.87351 0.0
H502 H 0.54609 0.82844 0.78582 0.0
H503 H 0.58591 0.80085 0.76208 0.0
O504 O 0.65438 0.84162 0.85054 0.0
C505 C 0.68246 0.90749 0.8255 0.0
C506 C 0.62444 0.81714 0.7828 0.0
C507 C 0.5706 0.83012 0.79025 0.0
N508 N 0.61101 0.84989 0.81513 0.0
C509 C 0.63309 0.83505 0.80203 0.0
C510 C 0.58012 0.84784 0.80935 0.0
C511 C 0.59295 0.81465 0.77694 0.0
C512 C 0.64214 0.96109 0.89141 0.0
N513 N 0.66895 0.95162 0.88065 0.0
C514 C 0.63424 0.99271 0.89238 0.0
C515 C 0.65403 0.01468 0.88226 0.0
C516 C 0.68136 0.00484 0.87134 0.0
C517 C 0.68847 0.97302 0.87067 0.0
C518 C 0.75573 0.93735 0.91732 0.0
C519 C 0.74511 0.90141 0.87812 0.0
C520 C 0.72548 0.93218 0.9091 0.0
N521 N 0.72052 0.91458 0.88963 0.0
C522 C 0.77569 0.90607 0.88584 0.0
C523 C 0.78097 0.92421 0.90556 0.0
C524 C 0.67776 0.83968 0.86423 0.0
C525 C 0.55062 0.86007 0.88867 0.0
C526 C 0.59003 0.82348 0.86197 0.0
C527 C 0.568 0.80917 0.87634 0.0
C528 C 0.54821 0.82764 0.88979 0.0
N529 N 0.59223 0.85529 0.86096 0.0
C530 C 0.5729 0.87356 0.87407 0.0
Co531 Co 0.5822 0.67825 0.37886 0.0
Co532 Co 0.6146 0.62352 0.3419 0.0
O533 O 0.58918 0.6356 0.36845 0.0
C534 C 0.61069 0.64601 0.41857 0.0
O535 O 0.63071 0.63482 0.40346 0.0
C536 C 0.55222 0.60019 0.3317 0.0
O537 O 0.54288 0.62861 0.33659 0.0
O538 O 0.5951 0.65597 0.32207 0.0
O539 O 0.57613 0.69297 0.34603 0.0
H540 H 0.68366 0.64143 0.27258 0.0
H541 H 0.54554 0.6265 0.39954 0.0
O542 O 0.58888 0.66419 0.41182 0.0
H543 H 0.46786 0.69682 0.36399 0.0
H544 H 0.53856 0.75962 0.43292 0.0
H545 H 0.60251 0.74096 0.36303 0.0
H546 H 0.52402 0.70956 0.36254 0.0
H547 H 0.54737 0.70603 0.41857 0.0
O548 O 0.58114 0.59331 0.33269 0.0
H549 H 0.65207 0.65711 0.30647 0.0
H550 H 0.62938 0.56232 0.31998 0.0
H551 H 0.59408 0.79495 0.37664 0.0
H552 H 0.4896 0.61294 0.40151 0.0
H553 H 0.5619 0.80453 0.41183 0.0
H554 H 0.45034 0.64819 0.38358 0.0
O555 O 0.6273 0.688 0.37646 0.0
H556 H 0.61493 0.53541 0.39957 0.0
H557 H 0.68037 0.60497 0.35168 0.0
H558 H 0.70552 0.5661 0.37719 0.0
H559 H 0.67271 0.53098 0.40136 0.0
H560 H 0.59076 0.57477 0.37397 0.0
H561 H 0.6605 0.54558 0.2861 0.0
H562 H 0.68804 0.58528 0.26222 0.0
O563 O 0.64782 0.65409 0.35066 0.0
C564 C 0.58185 0.68216 0.32576 0.0
C565 C 0.67192 0.62389 0.28292 0.0
C566 C 0.65888 0.5701 0.2905 0.0
N567 N 0.63931 0.61062 0.31536 0.0
C568 C 0.65412 0.63263 0.30219 0.0
C569 C 0.64128 0.57971 0.30963 0.0
C570 C 0.67433 0.59239 0.2771 0.0
C571 C 0.52856 0.64211 0.39191 0.0
N572 N 0.53799 0.66888 0.38107 0.0
C573 C 0.49693 0.63425 0.393 0.0
C574 C 0.47493 0.65402 0.3829 0.0
C575 C 0.48474 0.6813 0.3719 0.0
C576 C 0.51656 0.68837 0.37111 0.0
C577 C 0.55255 0.75575 0.41753 0.0
C578 C 0.58827 0.74498 0.37825 0.0
C579 C 0.55766 0.72547 0.40935 0.0
N580 N 0.57515 0.72044 0.38984 0.0
C581 C 0.58368 0.77558 0.38592 0.0
C582 C 0.56565 0.78094 0.40568 0.0
C583 C 0.64986 0.67754 0.36429 0.0
C584 C 0.62947 0.55051 0.38907 0.0
C585 C 0.66595 0.58978 0.36216 0.0
C586 C 0.68031 0.56779 0.37654 0.0
C587 C 0.66189 0.54807 0.39009 0.0
N588 N 0.63413 0.592 0.36124 0.0
C589 C 0.61591 0.57274 0.37445 0.0
Co590 Co 0.81231 0.58141 0.87855 0.0
Co591 Co 0.86653 0.61657 0.84257 0.0
O592 O 0.85487 0.58991 0.86856 0.0
C593 C 0.84342 0.60922 0.91901 0.0
O594 O 0.85415 0.63011 0.90437 0.0
C595 C 0.89179 0.55532 0.83134 0.0
O596 O 0.86363 0.545 0.83597 0.0
O597 O 0.83494 0.59678 0.82216 0.0
O598 O 0.79809 0.57616 0.8455 0.0
H599 H 0.84745 0.68723 0.77432 0.0
H600 H 0.86479 0.54537 0.89881 0.0
O601 O 0.82585 0.58721 0.91172 0.0
H602 H 0.79685 0.46722 0.86131 0.0
H603 H 0.73155 0.5337 0.93121 0.0
H604 H 0.74924 0.60064 0.86275 0.0
H605 H 0.7827 0.52306 0.86086 0.0
H606 H 0.78504 0.54441 0.91736 0.0
O607 O 0.89784 0.58437 0.83295 0.0
H608 H 0.83229 0.6541 0.80752 0.0
H609 H 0.92755 0.63398 0.82144 0.0
H610 H 0.69536 0.59035 0.87586 0.0
H611 H 0.87974 0.48975 0.89979 0.0
H612 H 0.68626 0.55664 0.91033 0.0
H613 H 0.84569 0.45026 0.88087 0.0
O614 O 0.80138 0.62631 0.87702 0.0
H615 H 0.95388 0.61755 0.90088 0.0
H616 H 0.88297 0.68251 0.85373 0.0
H617 H 0.92075 0.70792 0.88001 0.0
H618 H 0.95654 0.67536 0.90381 0.0
H619 H 0.91559 0.59311 0.87453 0.0
H620 H 0.94379 0.66669 0.78827 0.0
H621 H 0.90358 0.69371 0.76453 0.0
O622 O 0.83485 0.64856 0.8517 0.0
C623 C 0.80904 0.58275 0.82542 0.0
C624 C 0.8652 0.67573 0.78462 0.0
C625 C 0.91927 0.66416 0.79242 0.0
N626 N 0.87903 0.64254 0.8166 0.0
C627 C 0.85675 0.65706 0.80349 0.0
C628 C 0.90994 0.64566 0.81117 0.0
C629 C 0.89669 0.67931 0.77911 0.0
C630 C 0.8497 0.52827 0.89075 0.0
N631 N 0.82282 0.53741 0.87992 0.0
C632 C 0.85835 0.49684 0.89127 0.0
C633 C 0.83926 0.4747 0.88063 0.0
C634 C 0.81186 0.4842 0.86963 0.0
C635 C 0.80398 0.51585 0.86941 0.0
C636 C 0.73521 0.54834 0.91612 0.0
C637 C 0.74544 0.58576 0.87765 0.0
C638 C 0.76543 0.55452 0.90823 0.0
N639 N 0.7702 0.57284 0.88912 0.0
C640 C 0.71489 0.5801 0.88504 0.0
C641 C 0.70981 0.56122 0.9044 0.0
C642 C 0.81128 0.64951 0.86527 0.0
C643 C 0.93848 0.63199 0.89055 0.0
C644 C 0.89846 0.6682 0.86405 0.0
C645 C 0.91983 0.68271 0.87887 0.0
C646 C 0.93992 0.66443 0.89221 0.0
N647 N 0.89721 0.63637 0.86251 0.0
C648 C 0.91685 0.61829 0.87551 0.0
Co649 Co 0.91019 0.80721 0.38003 0.0
Co650 Co 0.87767 0.86121 0.34256 0.0
O651 O 0.90325 0.84965 0.36915 0.0
C652 C 0.88217 0.84042 0.41946 0.0
O653 O 0.86199 0.85119 0.4043 0.0
C654 C 0.93993 0.88468 0.33196 0.0
O655 O 0.94952 0.85641 0.33708 0.0
O656 O 0.8972 0.82851 0.32303 0.0
O657 O 0.91581 0.79171 0.34733 0.0
H658 H 0.80853 0.84191 0.27347 0.0
H659 H 0.94729 0.85925 0.39986 0.0
O660 O 0.90391 0.82205 0.41285 0.0
H661 H 0.02427 0.7878 0.36474 0.0
H662 H 0.95404 0.72691 0.43488 0.0
H663 H 0.88942 0.74423 0.36514 0.0
H664 H 0.96804 0.7753 0.36375 0.0
H665 H 0.94534 0.78019 0.41988 0.0
O666 O 0.91097 0.89136 0.33299 0.0
H667 H 0.84024 0.8269 0.30747 0.0
H668 H 0.86257 0.922 0.32012 0.0
H669 H 0.89772 0.69053 0.3794 0.0
H670 H 0.00331 0.87259 0.40136 0.0
H671 H 0.93024 0.68162 0.41452 0.0
H672 H 0.04221 0.83677 0.38365 0.0
O673 O 0.86503 0.79757 0.37803 0.0
H674 H 0.87733 0.95031 0.39938 0.0
H675 H 0.81188 0.87974 0.35231 0.0
H676 H 0.78673 0.91898 0.37751 0.0
H677 H 0.81954 0.9546 0.40126 0.0
H678 H 0.9015 0.91058 0.3741 0.0
H679 H 0.83132 0.93806 0.28613 0.0
H680 H 0.80391 0.89787 0.26262 0.0
O681 O 0.84455 0.83069 0.35166 0.0
C682 C 0.9102 0.80225 0.32696 0.0
C683 C 0.82022 0.85966 0.28366 0.0
C684 C 0.83305 0.91362 0.29074 0.0
N685 N 0.85282 0.87359 0.31595 0.0
C686 C 0.83808 0.85131 0.30299 0.0
C687 C 0.85072 0.90439 0.30995 0.0
C688 C 0.81767 0.89106 0.27756 0.0
C689 C 0.96412 0.8434 0.39233 0.0
N690 N 0.95445 0.81645 0.38186 0.0
C691 C -0.00421 0.85114 0.39314 0.0
C692 C 0.0176 0.83105 0.38317 0.0
C693 C 0.00755 0.80358 0.37255 0.0
C694 C 0.97568 0.79664 0.37202 0.0
C695 C 0.9399 0.73048 0.41952 0.0
C696 C 0.90381 0.7405 0.38031 0.0
C697 C 0.93487 0.76059 0.41097 0.0
N698 N 0.91719 0.76524 0.39151 0.0
C699 C 0.90833 0.71006 0.38836 0.0
C700 C 0.92655 0.70508 0.40809 0.0
C701 C 0.8425 0.80766 0.36567 0.0
C702 C 0.86278 0.93498 0.38906 0.0
C703 C 0.8263 0.89515 0.36261 0.0
C704 C 0.81193 0.91735 0.37682 0.0
C705 C 0.83036 0.93735 0.39013 0.0
N706 N 0.85812 0.893 0.36164 0.0
C707 C 0.87634 0.91254 0.37463 0.0
Co708 Co 0.68124 0.5788 0.62841 0.0
Co709 Co 0.62576 0.61616 0.66205 0.0
O710 O 0.63834 0.58822 0.63711 0.0
C711 C 0.65245 0.60762 0.58744 0.0
O712 O 0.64145 0.62835 0.60207 0.0
C713 C 0.60056 0.5551 0.67451 0.0
O714 O 0.62874 0.54457 0.67025 0.0
O715 O 0.65728 0.59802 0.68349 0.0
O716 O 0.69325 0.57298 0.6618 0.0
H717 H 0.64274 0.69209 0.7274 0.0
H718 H 0.62895 0.54442 0.60626 0.0
O719 O 0.66964 0.58538 0.59484 0.0
H720 H 0.69255 0.46409 0.64538 0.0
H721 H 0.76347 0.52967 0.57779 0.0
H722 H 0.74394 0.59549 0.64657 0.0
H723 H 0.70815 0.51953 0.64663 0.0
H724 H 0.70959 0.54181 0.59005 0.0
O725 O 0.59464 0.58412 0.6724 0.0
H726 H 0.65888 0.65721 0.69547 0.0
H727 H 0.56421 0.63338 0.68244 0.0
H728 H 0.79817 0.58374 0.63507 0.0
H729 H 0.61258 0.48923 0.60445 0.0
H730 H 0.80821 0.55061 0.60044 0.0
H731 H 0.64444 0.44865 0.62417 0.0
O732 O 0.6936 0.62335 0.63073 0.0
H733 H 0.53997 0.61222 0.60253 0.0
H734 H 0.60802 0.68111 0.64892 0.0
H735 H 0.57044 0.70431 0.6214 0.0
H736 H 0.53609 0.66976 0.59797 0.0
H737 H 0.57805 0.59001 0.63011 0.0
H738 H 0.54704 0.66783 0.71435 0.0
H739 H 0.58645 0.69757 0.73701 0.0
O740 O 0.65701 0.64805 0.65202 0.0
C741 C 0.68231 0.58209 0.68134 0.0
C742 C 0.62534 0.67934 0.7176 0.0
C743 C 0.57163 0.66569 0.71029 0.0
N744 N 0.61248 0.64353 0.68698 0.0
C745 C 0.63433 0.65964 0.69946 0.0
C746 C 0.58148 0.64619 0.69228 0.0
C747 C 0.59375 0.68238 0.723 0.0
C748 C 0.6431 0.52684 0.61468 0.0
N749 N 0.66959 0.53513 0.62639 0.0
C750 C 0.63365 0.49566 0.61368 0.0
C751 C 0.65151 0.4729 0.62478 0.0
C752 C 0.6785 0.48155 0.63668 0.0
C753 C 0.6872 0.51297 0.63735 0.0
C754 C 0.7594 0.54408 0.59294 0.0
C755 C 0.74813 0.58087 0.63159 0.0
C756 C 0.72896 0.55107 0.59993 0.0
N757 N 0.72366 0.56911 0.61911 0.0
C758 C 0.77888 0.57439 0.62511 0.0
C759 C 0.78449 0.55582 0.60566 0.0
C760 C 0.68249 0.64766 0.64049 0.0
C761 C 0.55475 0.62752 0.61269 0.0
C762 C 0.59317 0.66594 0.63877 0.0
C763 C 0.5719 0.6792 0.62324 0.0
C764 C 0.55262 0.6598 0.61012 0.0
N765 N 0.59513 0.63425 0.64119 0.0
C766 C 0.57626 0.61508 0.62841 0.0
Co767 Co 0.90973 0.67457 0.12972 0.0
Co768 Co 0.87157 0.61972 0.16345 0.0
O769 O 0.89985 0.63184 0.13858 0.0
C770 C 0.88122 0.64579 0.08858 0.0
O771 O 0.86033 0.63467 0.10304 0.0
C772 C 0.93239 0.59458 0.17653 0.0
O773 O 0.9429 0.62276 0.17226 0.0
O774 O 0.88958 0.65147 0.18485 0.0
O775 O 0.91534 0.68677 0.16306 0.0
H776 H 0.79482 0.63778 0.22811 0.0
H777 H 0.94388 0.62184 0.10802 0.0
O778 O 0.90343 0.66287 0.09617 0.0
H779 H 0.02437 0.68504 0.14734 0.0
H780 H 0.96009 0.75609 0.07913 0.0
H781 H 0.89338 0.73751 0.14758 0.0
H782 H 0.96906 0.70115 0.14817 0.0
H783 H 0.94736 0.70239 0.09148 0.0
O784 O 0.90341 0.58857 0.1742 0.0
H785 H 0.83021 0.6534 0.19634 0.0
H786 H 0.85389 0.5585 0.18416 0.0
H787 H 0.90572 0.79157 0.13598 0.0
H788 H -0.00106 0.60495 0.10664 0.0
H789 H 0.93931 0.80112 0.10152 0.0
H790 H 0.03959 0.63661 0.12647 0.0
O791 O 0.86524 0.68725 0.13173 0.0
H792 H 0.87578 0.53309 0.10463 0.0
H793 H 0.8067 0.60218 0.14998 0.0
H794 H 0.78362 0.56433 0.12261 0.0
H795 H 0.81826 0.52945 0.09971 0.0
H796 H 0.89787 0.57145 0.13205 0.0
H797 H 0.81893 0.54184 0.21591 0.0
H798 H 0.78901 0.58163 0.23806 0.0
O799 O 0.83996 0.65101 0.15298 0.0
C800 C 0.90582 0.67629 0.18262 0.0
C801 C 0.80765 0.62021 0.21853 0.0
C802 C 0.82122 0.56637 0.21171 0.0
N803 N 0.84385 0.60686 0.18829 0.0
C804 C 0.82764 0.62891 0.20048 0.0
C805 C 0.84101 0.57594 0.19378 0.0
C806 C 0.80443 0.58871 0.22412 0.0
C807 C 0.9615 0.6359 0.11648 0.0
N808 N 0.95332 0.66255 0.12802 0.0
C809 C 0.99261 0.62615 0.11573 0.0
C810 C 0.0154 0.6439 0.12688 0.0
C811 C 0.00687 0.67108 0.1386 0.0
C812 C 0.97552 0.68007 0.13903 0.0
C813 C 0.94549 0.75223 0.09421 0.0
C814 C 0.90818 0.74148 0.13267 0.0
C815 C 0.93815 0.72189 0.10125 0.0
N816 N 0.91986 0.71685 0.12034 0.0
C817 C 0.91501 0.77214 0.12613 0.0
C818 C 0.93382 0.77749 0.10678 0.0
C819 C 0.8407 0.67638 0.14132 0.0
C820 C 0.86044 0.5481 0.11456 0.0
C821 C 0.82191 0.5871 0.14005 0.0
C822 C 0.80871 0.56568 0.12461 0.0
C823 C 0.82817 0.5461 0.11178 0.0
N824 N 0.85358 0.58892 0.14268 0.0
C825 C 0.8728 0.56977 0.13019 0.0
Co826 Co 0.81102 0.91159 0.62834 0.0
Co827 Co 0.86609 0.87492 0.66277 0.0
O828 O 0.8538 0.90264 0.63762 0.0
C829 C 0.84095 0.88275 0.58783 0.0
O830 O 0.85203 0.86236 0.60268 0.0
C831 C 0.89003 0.93634 0.67561 0.0
O832 O 0.86176 0.94638 0.67106 0.0
O833 O 0.83375 0.89266 0.68375 0.0
O834 O 0.79823 0.91752 0.66155 0.0
H835 H 0.84849 0.79885 0.72794 0.0
H836 H 0.86346 0.9463 0.6067 0.0
O837 O 0.82338 0.90486 0.59494 0.0
H838 H 0.79832 0.0263 0.64477 0.0
H839 H 0.72944 0.95961 0.57657 0.0
H840 H 0.7481 0.89446 0.64583 0.0
H841 H 0.78317 0.97073 0.64602 0.0
H842 H 0.78316 0.94803 0.58949 0.0
O843 O 0.89652 0.90744 0.6735 0.0
H844 H 0.83269 0.83347 0.69576 0.0
H845 H 0.92734 0.85859 0.68405 0.0
H846 H 0.69401 0.90566 0.63365 0.0
H847 H 0.87939 0.00162 0.60491 0.0
H848 H 0.68442 0.93845 0.59878 0.0
H849 H 0.84676 0.04203 0.62411 0.0
O850 O 0.79905 0.86695 0.63069 0.0
H851 H 0.95337 0.87984 0.60452 0.0
H852 H 0.88494 0.81019 0.64994 0.0
H853 H 0.92353 0.78741 0.62301 0.0
H854 H 0.95808 0.82234 0.60007 0.0
H855 H 0.9143 0.90162 0.63151 0.0
H856 H 0.94417 0.82442 0.71622 0.0
H857 H 0.9046 0.79416 0.73835 0.0
O858 O 0.8355 0.8426 0.65235 0.0
C859 C 0.80867 0.90841 0.68124 0.0
C860 C 0.86596 0.81183 0.71838 0.0
C861 C 0.91966 0.82621 0.71182 0.0
N862 N 0.8791 0.84779 0.68793 0.0
C863 C 0.85716 0.83139 0.7001 0.0
C864 C 0.90999 0.84556 0.69366 0.0
C865 C 0.89745 0.80923 0.72422 0.0
C866 C 0.84897 0.9638 0.61488 0.0
N867 N 0.82231 0.95535 0.6263 0.0
C868 C 0.85818 -0.00494 0.6139 0.0
C869 C 0.83988 0.01772 0.6247 0.0
C870 C 0.81271 0.00891 0.63631 0.0
C871 C 0.80426 0.97742 0.63697 0.0
C872 C 0.73331 0.94535 0.59182 0.0
C873 C 0.7441 0.90893 0.63074 0.0
C874 C 0.76367 0.93867 0.59919 0.0
N875 N 0.76872 0.92081 0.6185 0.0
C876 C 0.71343 0.9151 0.62388 0.0
C877 C 0.70806 0.93348 0.60429 0.0
C878 C 0.81022 0.84275 0.64057 0.0
C879 C 0.93851 0.86438 0.61447 0.0
C880 C 0.89988 0.82552 0.64001 0.0
C881 C 0.92172 0.8125 0.62481 0.0
C882 C 0.94111 0.83211 0.61196 0.0
N883 N 0.89748 0.85719 0.64237 0.0
C884 C 0.91644 0.87657 0.62986 0.0
Co885 Co 0.57849 0.80868 0.12804 0.0
Co886 Co 0.61632 0.8635 0.16201 0.0
O887 O 0.5883 0.85141 0.13697 0.0
C888 C 0.60755 0.83755 0.08719 0.0
O889 O 0.62838 0.84831 0.10184 0.0
C890 C 0.55545 0.88907 0.17458 0.0
O891 O 0.54472 0.861 0.17018 0.0
O892 O 0.59788 0.83192 0.18328 0.0
O893 O 0.57252 0.79644 0.16136 0.0
H894 H 0.69208 0.84526 0.22728 0.0
H895 H 0.54461 0.86148 0.10616 0.0
O896 O 0.58517 0.8205 0.09454 0.0
H897 H 0.46365 0.7983 0.14494 0.0
H898 H 0.52859 0.72734 0.07704 0.0
H899 H 0.59456 0.74569 0.14593 0.0
H900 H 0.51895 0.78216 0.14612 0.0
H901 H 0.54126 0.781 0.08953 0.0
O902 O 0.58452 0.89481 0.1725 0.0
H903 H 0.65707 0.82973 0.19526 0.0
H904 H 0.63404 0.92471 0.18274 0.0
H905 H 0.58228 0.69167 0.13418 0.0
H906 H 0.48958 0.87839 0.10443 0.0
H907 H 0.54907 0.68223 0.0995 0.0
H908 H 0.44869 0.84675 0.12399 0.0
O909 O 0.62293 0.79591 0.13032 0.0
H910 H 0.61321 0.94992 0.10298 0.0
H911 H 0.68144 0.88078 0.149 0.0
H912 H 0.70502 0.91842 0.12171 0.0
H913 H 0.6708 0.95333 0.09847 0.0
H914 H 0.59063 0.91176 0.13033 0.0
H915 H 0.66862 0.94128 0.21475 0.0
H916 H 0.69804 0.90141 0.2372 0.0
O917 O 0.64794 0.83207 0.15183 0.0
C918 C 0.58173 0.80706 0.18097 0.0
C919 C 0.67948 0.86286 0.21758 0.0
C920 C 0.66628 0.91675 0.21056 0.0
N921 N 0.64377 0.87631 0.18703 0.0
C922 C 0.6597 0.85421 0.19939 0.0
C923 C 0.64669 0.90723 0.1925 0.0
C924 C 0.68278 0.89437 0.22315 0.0
C925 C 0.5269 0.84742 0.1145 0.0
N926 N 0.53493 0.82076 0.12608 0.0
C927 C 0.4958 0.85718 0.11355 0.0
C928 C 0.47287 0.83944 0.12455 0.0
C929 C 0.48125 0.81226 0.13632 0.0
C930 C 0.51259 0.80325 0.13695 0.0
C931 C 0.54303 0.73115 0.09221 0.0
C932 C 0.57991 0.74177 0.13092 0.0
C933 C 0.55033 0.76147 0.09934 0.0
N934 N 0.56841 0.76644 0.11855 0.0
C935 C 0.57312 0.71113 0.1243 0.0
C936 C 0.55452 0.70585 0.10483 0.0
C937 C 0.64733 0.80671 0.14016 0.0
C938 C 0.62837 0.93489 0.11306 0.0
C939 C 0.66641 0.89587 0.13893 0.0
C940 C 0.67989 0.91717 0.12354 0.0
C941 C 0.66068 0.93676 0.11051 0.0
N942 N 0.6347 0.89417 0.14133 0.0
C943 C 0.61572 0.91334 0.12865 0.0
H944 H 0.41485 0.17361 0.95507 0.0
H945 H 0.32137 0.07795 0.05256 0.0
H946 H 0.34125 0.10774 0.9399 0.0
H947 H 0.38757 0.15116 0.06797 0.0
H948 H 0.33171 0.08528 0.01114 0.0
H949 H 0.40848 0.16243 0.99649 0.0
C950 C 0.39745 0.15671 0.96043 0.0
C951 C 0.3784 0.14176 0.944 0.0
C952 C 0.34404 0.09967 0.02359 0.0
C953 C 0.371 0.12886 0.99135 0.0
C954 C 0.33818 0.09546 0.04725 0.0
C955 C 0.35345 0.11412 0.06376 0.0
C956 C 0.36539 0.12264 0.01637 0.0
C957 C 0.37506 0.1364 0.05586 0.0
C958 C 0.39379 0.15037 0.98408 0.0
C959 C 0.35629 0.12002 0.95195 0.0
N960 N 0.38031 0.14009 0.03275 0.0
N961 N 0.35315 0.11429 0.97504 0.0
H962 H 0.38022 0.33963 0.4389 0.0
H963 H 0.33762 0.38846 0.56914 0.0
H964 H 0.31549 0.41344 0.45604 0.0
H965 H 0.40828 0.32034 0.55193 0.0
H966 H 0.33001 0.39866 0.52784 0.0
H967 H 0.39153 0.33296 0.48014 0.0
C968 C 0.36839 0.35449 0.45133 0.0
C969 C 0.34669 0.37701 0.444 0.0
C970 C 0.34728 0.38157 0.53307 0.0
C971 C 0.35957 0.36943 0.49133 0.0
C972 C 0.35161 0.37567 0.55668 0.0
C973 C 0.37349 0.35333 0.56401 0.0
C974 C 0.36481 0.36492 0.5166 0.0
C975 C 0.39111 0.3377 0.54706 0.0
C976 C 0.37494 0.3507 0.4749 0.0
C977 C 0.33231 0.39574 0.4609 0.0
N978 N 0.38625 0.34367 0.52414 0.0
N979 N 0.33889 0.39141 0.48379 0.0
H980 H 0.07603 0.31929 0.95458 0.0
H981 H 0.17189 0.41499 0.05078 0.0
H982 H 0.14897 0.3854 0.93829 0.0
H983 H 0.10807 0.33997 0.06689 0.0
H984 H 0.1601 0.40806 0.0095 0.0
H985 H 0.08375 0.33023 0.9959 0.0
C986 C 0.09355 0.33622 0.95968 0.0
C987 C 0.11204 0.35127 0.94296 0.0
C988 C 0.14863 0.39318 0.02209 0.0
C989 C 0.121 0.3639 0.99019 0.0
C990 C 0.15531 0.39716 0.04565 0.0
C991 C 0.14114 0.37787 0.0623 0.0
C992 C 0.12751 0.36985 0.01512 0.0
C993 C 0.11977 0.3552 0.05466 0.0
C994 C 0.098 0.3424 0.98327 0.0
C995 C 0.13436 0.37303 0.95057 0.0
N996 N 0.11367 0.35178 0.03164 0.0
N997 N 0.13826 0.37862 0.97362 0.0
H998 H 0.14903 0.10714 0.56783 0.0
H999 H 0.1009 0.1485 0.43725 0.0
H1000 H 0.07503 0.17142 0.55023 0.0
H1001 H 0.16921 0.07832 0.4551 0.0
H1002 H 0.09012 0.1562 0.47848 0.0
H1003 H 0.15579 0.09537 0.52669 0.0
C1004 C 0.13414 0.11877 0.55531 0.0
C1005 C 0.11156 0.1405 0.56249 0.0
C1006 C 0.10736 0.13901 0.4734 0.0
C1007 C 0.11924 0.12709 0.51525 0.0
C1008 C 0.11359 0.13462 0.44984 0.0
C1009 C 0.13618 0.11287 0.44271 0.0
C1010 C 0.12395 0.12166 0.49002 0.0
C1011 C 0.15167 0.0954 0.45981 0.0
C1012 C 0.13798 0.11196 0.5318 0.0
C1013 C 0.09278 0.15459 0.54548 0.0
N1014 N 0.14541 0.10032 0.48267 0.0
N1015 N 0.09718 0.14778 0.52264 0.0
H1016 H 0.57409 0.81386 0.05045 0.0
H1017 H 0.66993 0.9116 0.95536 0.0
H1018 H 0.64784 0.87889 0.06713 0.0
H1019 H 0.60438 0.83859 0.93803 0.0
H1020 H 0.65852 0.90327 0.99651 0.0
H1021 H 0.58135 0.82589 0.00919 0.0
C1022 C 0.5917 0.83073 0.04545 0.0
C1023 C 0.61055 0.84519 0.06225 0.0
C1024 C 0.64657 0.88913 0.98369 0.0
C1025 C 0.61894 0.8591 0.01515 0.0
C1026 C 0.65303 0.89393 0.96019 0.0
C1027 C 0.63827 0.87561 0.94323 0.0
C1028 C 0.62511 0.86592 0.9903 0.0
C1029 C 0.61652 0.85309 0.95051 0.0
C1030 C 0.59588 0.83756 0.02191 0.0
C1031 C 0.63296 0.86694 0.05479 0.0
N1032 N 0.61067 0.84882 0.97349 0.0
N1033 N 0.63657 0.87316 0.03182 0.0
H1034 H 0.67655 0.57445 0.55068 0.0
H1035 H 0.57819 0.66976 0.45563 0.0
H1036 H 0.61081 0.64756 0.56736 0.0
H1037 H 0.6515 0.60459 0.43823 0.0
H1038 H 0.58662 0.65836 0.49676 0.0
H1039 H 0.66455 0.58171 0.50941 0.0
C1040 C 0.65953 0.59192 0.54569 0.0
C1041 C 0.64486 0.61059 0.56248 0.0
C1042 C 0.60081 0.64649 0.48394 0.0
C1043 C 0.63098 0.61897 0.51538 0.0
C1044 C 0.59595 0.65295 0.46044 0.0
C1045 C 0.61432 0.63829 0.44346 0.0
C1046 C 0.62413 0.62514 0.49053 0.0
C1047 C 0.63696 0.61664 0.45073 0.0
C1048 C 0.65272 0.59609 0.52213 0.0
C1049 C 0.62293 0.63282 0.55502 0.0
N1050 N 0.64128 0.61079 0.47371 0.0
N1051 N 0.61673 0.63642 0.53205 0.0
H1052 H 0.81989 0.57513 0.95536 0.0
H1053 H 0.91468 0.67061 0.05229 0.0
H1054 H 0.88438 0.64968 0.93953 0.0
H1055 H 0.84129 0.60467 0.06782 0.0
H1056 H 0.90757 0.65979 0.01085 0.0
H1057 H 0.83117 0.58215 0.99668 0.0
C1058 C 0.83652 0.59287 0.96056 0.0
C1059 C 0.85102 0.612 0.94398 0.0
C1060 C 0.89309 0.64765 0.02335 0.0
C1061 C 0.86405 0.62017 0.99123 0.0
C1062 C 0.89718 0.65378 0.047 0.0
C1063 C 0.87839 0.63872 0.06353 0.0
C1064 C 0.87016 0.62619 0.0162 0.0
C1065 C 0.85612 0.61706 0.05569 0.0
C1066 C 0.84291 0.59691 0.98416 0.0
C1067 C 0.87244 0.63457 0.95172 0.0
N1068 N 0.85259 0.61151 0.03261 0.0
N1069 N 0.87824 0.63808 0.97478 0.0
H1070 H 0.91501 0.81771 0.45673 0.0
H1071 H 0.81669 0.915 0.55068 0.0
H1072 H 0.84155 0.88238 0.43866 0.0
H1073 H 0.88308 0.84287 0.56825 0.0
H1074 H 0.82869 0.90689 0.50951 0.0
H1075 H 0.90688 0.83022 0.49772 0.0
C1076 C 0.89728 0.83464 0.46136 0.0
C1077 C 0.87877 0.84883 0.44425 0.0
C1078 C 0.84067 0.89291 0.5224 0.0
C1079 C 0.86931 0.86325 0.49114 0.0
C1080 C 0.83386 0.89758 0.5459 0.0
C1081 C 0.8487 0.87941 0.56292 0.0
C1082 C 0.86256 0.87004 0.51592 0.0
C1083 C 0.87083 0.85722 0.55573 0.0
C1084 C 0.8926 0.84174 0.48478 0.0
C1085 C 0.85619 0.87067 0.45128 0.0
N1086 N 0.87701 0.85311 0.5328 0.0
N1087 N 0.85203 0.87713 0.47418 0.0
H1088 H 0.21411 0.31873 0.10435 0.0
H1089 H 0.30909 0.19522 0.17734 0.0
H1090 H 0.19128 0.29905 0.1759 0.0
H1091 H 0.28357 0.17545 0.10629 0.0
H1092 H 0.27549 0.24152 0.17638 0.0
H1093 H 0.24854 0.27285 0.10399 0.0
C1094 C 0.21625 0.30465 0.11991 0.0
C1095 C 0.19981 0.31248 0.14017 0.0
C1096 C 0.27749 0.22706 0.161 0.0
C1097 C 0.23953 0.26104 0.14001 0.0
C1098 C 0.29679 0.20089 0.16146 0.0
C1099 C 0.29893 0.18152 0.14189 0.0
C1100 C 0.26091 0.23421 0.14069 0.0
C1101 C 0.28233 0.18976 0.12178 0.0
C1102 C 0.2358 0.27863 0.11967 0.0
C1103 C 0.20335 0.29361 0.15989 0.0
N1104 N 0.26406 0.21567 0.12163 0.0
N1105 N 0.22319 0.2689 0.15943 0.0
H1106 H 0.29409 0.3087 0.67773 0.0
H1107 H 0.17044 0.21402 0.60446 0.0
H1108 H 0.31341 0.28341 0.60658 0.0
H1109 H 0.18925 0.19166 0.67622 0.0
H1110 H 0.21641 0.2483 0.60423 0.0
H1111 H 0.24765 0.27524 0.67681 0.0
C1112 C 0.28829 0.29648 0.66184 0.0
C1113 C 0.30756 0.29864 0.64223 0.0
C1114 C 0.21044 0.2357 0.61993 0.0
C1115 C 0.25475 0.26078 0.64107 0.0
C1116 C 0.18436 0.21623 0.6201 0.0
C1117 C 0.17625 0.19997 0.64037 0.0
C1118 C 0.22782 0.23953 0.64037 0.0
C1119 C 0.19492 0.20359 0.6602 0.0
C1120 C 0.26205 0.27725 0.66141 0.0
C1121 C 0.29917 0.28215 0.6221 0.0
N1122 N 0.2197 0.22335 0.6598 0.0
N1123 N 0.27321 0.26396 0.62198 0.0
H1124 H 0.30053 0.29854 0.32998 0.0
H1125 H 0.20567 0.17447 0.4018 0.0
H1126 H 0.27297 0.31859 0.40057 0.0
H1127 H 0.18481 0.19246 0.32967 0.0
H1128 H 0.23814 0.22171 0.40261 0.0
H1129 H 0.2666 0.25251 0.33039 0.0
C1130 C 0.28764 0.29304 0.34563 0.0
C1131 C 0.28942 0.31234 0.36526 0.0
C1132 C 0.22619 0.21533 0.38671 0.0
C1133 C 0.25099 0.25995 0.36582 0.0
C1134 C 0.20777 0.18851 0.38621 0.0
C1135 C 0.19259 0.17973 0.36563 0.0
C1136 C 0.23007 0.23278 0.36633 0.0
C1137 C 0.19598 0.19861 0.3459 0.0
C1138 C 0.26814 0.26702 0.34576 0.0
C1139 C 0.27206 0.30432 0.38505 0.0
N1140 N 0.21479 0.22409 0.34663 0.0
N1141 N 0.25364 0.27851 0.38491 0.0
H1142 H 0.29645 0.18528 0.83048 0.0
H1143 H 0.17222 0.28057 0.90188 0.0
H1144 H 0.31681 0.21313 0.90095 0.0
H1145 H 0.1921 0.30243 0.83019 0.0
H1146 H 0.21886 0.24719 0.90287 0.0
H1147 H 0.25019 0.21888 0.83102 0.0
C1148 C 0.29094 0.19812 0.84615 0.0
C1149 C 0.31044 0.19659 0.86568 0.0
C1150 C 0.21298 0.25952 0.88703 0.0
C1151 C 0.25778 0.23462 0.8664 0.0
C1152 C 0.18652 0.27845 0.88643 0.0
C1153 C 0.1785 0.29424 0.86593 0.0
C1154 C 0.23079 0.25575 0.86681 0.0
C1155 C 0.19767 0.29081 0.84636 0.0
C1156 C 0.26479 0.21742 0.84635 0.0
C1157 C 0.30239 0.21388 0.88551 0.0
N1158 N 0.22278 0.27153 0.84717 0.0
N1159 N 0.27646 0.23213 0.88543 0.0
H1160 H 0.68489 0.79659 0.8298 0.0
H1161 H 0.7789 0.67221 0.90241 0.0
H1162 H 0.7102 0.81588 0.90098 0.0
H1163 H 0.80195 0.69224 0.83095 0.0
H1164 H 0.745 0.71847 0.90299 0.0
H1165 H 0.71842 0.75027 0.83066 0.0
C1166 C 0.69714 0.79082 0.84569 0.0
C1167 C 0.69496 0.81004 0.86532 0.0
C1168 C 0.75769 0.7127 0.88729 0.0
C1169 C 0.7329 0.75735 0.8664 0.0
C1170 C 0.77694 0.68646 0.88692 0.0
C1171 C 0.79323 0.67859 0.86661 0.0
C1172 C 0.75414 0.73046 0.86701 0.0
C1173 C 0.78996 0.6977 0.84699 0.0
C1174 C 0.71641 0.76464 0.84608 0.0
C1175 C 0.71149 0.80168 0.88544 0.0
N1176 N 0.77041 0.7226 0.84757 0.0
N1177 N 0.72973 0.77575 0.88552 0.0
H1178 H 0.69315 0.68408 0.32991 0.0
H1179 H 0.81801 0.77689 0.40294 0.0
H1180 H 0.67366 0.71031 0.40087 0.0
H1181 H 0.80028 0.79867 0.33092 0.0
H1182 H 0.77094 0.74417 0.40334 0.0
H1183 H 0.73985 0.71709 0.33077 0.0
C1184 C 0.69893 0.69645 0.34574 0.0
C1185 C 0.67957 0.69464 0.36533 0.0
C1186 C 0.77737 0.75634 0.38756 0.0
C1187 C 0.73269 0.732 0.3664 0.0
C1188 C 0.80409 0.77492 0.38729 0.0
C1189 C 0.81287 0.79048 0.36687 0.0
C1190 C 0.76001 0.75272 0.3671 0.0
C1191 C 0.79414 0.78722 0.34704 0.0
C1192 C 0.72533 0.71543 0.34613 0.0
C1193 C 0.68797 0.7113 0.38537 0.0
N1194 N 0.76873 0.7683 0.34755 0.0
N1195 N 0.71411 0.72924 0.38546 0.0
H1196 H 0.83086 0.78284 0.64738 0.0
H1197 H 0.66193 0.70769 0.64658 0.0
H1198 H 0.74852 0.83614 0.62981 0.0
H1199 H 0.74453 0.65388 0.63065 0.0
H1200 H 0.69339 0.75537 0.6451 0.0
H1201 H 0.79954 0.73502 0.64589 0.0
C1202 C 0.80627 0.78448 0.64314 0.0
C1203 C 0.79228 0.81349 0.63869 0.0
C1204 C 0.70449 0.73308 0.6418 0.0
C1205 C 0.75644 0.75915 0.63729 0.0
C1206 C 0.68661 0.70591 0.64271 0.0
C1207 C 0.70063 0.6768 0.6387 0.0
C1208 C 0.73664 0.73101 0.63732 0.0
C1209 C 0.73273 0.67584 0.63373 0.0
C1210 C 0.78848 0.75723 0.64222 0.0
C1211 C 0.76031 0.81427 0.63325 0.0
N1212 N 0.74974 0.70256 0.6334 0.0
N1213 N 0.74338 0.7875 0.63292 0.0
H1214 H 0.78037 0.65656 0.14738 0.0
H1215 H 0.70757 0.82648 0.14671 0.0
H1216 H 0.83519 0.73828 0.13086 0.0
H1217 H 0.65294 0.74473 0.1299 0.0
H1218 H 0.75487 0.79444 0.14545 0.0
H1219 H 0.73304 0.68855 0.14552 0.0
C1220 C 0.78245 0.68116 0.1433 0.0
C1221 C 0.81174 0.69478 0.13925 0.0
C1222 C 0.73249 0.78366 0.14189 0.0
C1223 C 0.75794 0.73139 0.13742 0.0
C1224 C 0.70552 0.80186 0.14268 0.0
C1225 C 0.67629 0.78826 0.13839 0.0
C1226 C 0.73007 0.75157 0.13724 0.0
C1227 C 0.675 0.75622 0.13321 0.0
C1228 C 0.75547 0.69933 0.14216 0.0
C1229 C 0.81308 0.72678 0.13399 0.0
N1230 N 0.70151 0.73888 0.13301 0.0
N1231 N 0.78657 0.74409 0.13344 0.0
H1232 H 0.24478 0.0696 0.32358 0.0
H1233 H 0.25018 0.0676 0.18452 0.0
H1234 H 0.16333 0.07836 0.27978 0.0
H1235 H 0.33091 0.08381 0.2279 0.0
H1236 H 0.21859 0.06031 0.2195 0.0
H1237 H 0.27704 0.06354 0.28874 0.0
C1238 C 0.23362 0.06984 0.30669 0.0
C1239 C 0.20136 0.07494 0.3046 0.0
C1240 C 0.24329 0.0652 0.22131 0.0
C1241 C 0.23808 0.06798 0.26476 0.0
C1242 C 0.26136 0.06928 0.20135 0.0
C1243 C 0.29317 0.07676 0.20325 0.0
C1244 C 0.25717 0.06838 0.24331 0.0
C1245 C 0.30639 0.07849 0.22557 0.0
C1246 C 0.25205 0.06649 0.28682 0.0
C1247 C 0.18817 0.07493 0.28224 0.0
N1248 N 0.28829 0.07453 0.24471 0.0
N1249 N 0.20659 0.07172 0.26321 0.0
H1250 H 0.40944 0.33209 0.72711 0.0
H1251 H 0.4093 0.1614 0.78004 0.0
H1252 H 0.4189 0.24912 0.68503 0.0
H1253 H 0.42148 0.2443 0.82181 0.0
H1254 H 0.41567 0.19289 0.7451 0.0
H1255 H 0.41669 0.30047 0.76187 0.0
C1256 C 0.41331 0.30723 0.72514 0.0
C1257 C 0.41315 0.29317 0.70309 0.0
C1258 C 0.41733 0.20416 0.7619 0.0
C1259 C 0.42127 0.25677 0.74296 0.0
C1260 C 0.4136 0.18621 0.7819 0.0
C1261 C 0.41445 0.2003 0.80393 0.0
C1262 C 0.42154 0.23654 0.76387 0.0
C1263 C 0.42045 0.23247 0.80521 0.0
C1264 C 0.41756 0.2892 0.74504 0.0
C1265 C 0.41866 0.26093 0.70166 0.0
N1266 N 0.42334 0.24959 0.78543 0.0
N1267 N 0.42206 0.24373 0.72136 0.0
H1268 H 0.24334 0.4255 0.18387 0.0
H1269 H 0.24343 0.42482 0.32297 0.0
H1270 H 0.16096 0.41093 0.2258 0.0
H1271 H 0.32627 0.41354 0.28098 0.0
H1272 H 0.2128 0.43202 0.28745 0.0
H1273 H 0.27373 0.43336 0.21943 0.0
C1274 C 0.23155 0.42436 0.2005 0.0
C1275 C 0.19966 0.41704 0.20186 0.0
C1276 C 0.23775 0.4283 0.28608 0.0
C1277 C 0.23422 0.42609 0.24252 0.0
C1278 C 0.25526 0.42429 0.30634 0.0
C1279 C 0.28738 0.41806 0.30494 0.0
C1280 C 0.25253 0.42633 0.26433 0.0
C1281 C 0.30147 0.41778 0.28289 0.0
C1282 C 0.24892 0.42876 0.22078 0.0
C1283 C 0.1856 0.41602 0.22391 0.0
N1284 N 0.28393 0.42161 0.26346 0.0
N1285 N 0.20301 0.42025 0.24336 0.0
H1286 H 0.06468 0.2452 0.68299 0.0
H1287 H 0.06554 0.24723 0.8221 0.0
H1288 H 0.07629 0.16291 0.72551 0.0
H1289 H 0.0799 0.32898 0.77945 0.0
H1290 H 0.05749 0.21633 0.78681 0.0
H1291 H 0.0581 0.27633 0.71833 0.0
C1292 C 0.0654 0.2336 0.6997 0.0
C1293 C 0.07154 0.20148 0.70129 0.0
C1294 C 0.06211 0.24111 0.78525 0.0
C1295 C 0.06401 0.23691 0.7417 0.0
C1296 C 0.06663 0.25877 0.80537 0.0
C1297 C 0.07389 0.29065 0.80373 0.0
C1298 C 0.06459 0.2555 0.76338 0.0
C1299 C 0.07485 0.30437 0.78156 0.0
C1300 C 0.06176 0.25139 0.71986 0.0
C1301 C 0.07209 0.18769 0.72344 0.0
N1302 N 0.07046 0.28669 0.76227 0.0
N1303 N 0.06862 0.2055 0.74277 0.0
H1304 H 0.74536 0.91986 0.82351 0.0
H1305 H 0.74793 0.92852 0.68458 0.0
H1306 H 0.66287 0.91366 0.78057 0.0
H1307 H 0.82855 0.90562 0.72636 0.0
H1308 H 0.71742 0.93523 0.72018 0.0
H1309 H 0.77694 0.92683 0.78841 0.0
C1310 C 0.73383 0.92039 0.80677 0.0
C1311 C 0.70149 0.9157 0.80496 0.0
C1312 C 0.74188 0.92902 0.7215 0.0
C1313 C 0.7374 0.92377 0.76485 0.0
C1314 C 0.75933 0.92527 0.7012 0.0
C1315 C 0.79073 0.91603 0.70246 0.0
C1316 C 0.75601 0.92382 0.74318 0.0
C1317 C 0.80428 0.9123 0.72452 0.0
C1318 C 0.75187 0.92426 0.78675 0.0
C1319 C 0.6878 0.91671 0.78278 0.0
N1320 N 0.7868 0.91604 0.744 0.0
N1321 N 0.70584 0.92046 0.7636 0.0
H1322 H 0.57017 0.74517 0.3236 0.0
H1323 H 0.56047 0.74676 0.1847 0.0
H1324 H 0.57491 0.66231 0.28097 0.0
H1325 H 0.58512 0.82732 0.22598 0.0
H1326 H 0.55343 0.71671 0.22048 0.0
H1327 H 0.5633 0.77659 0.28839 0.0
C1328 C 0.56932 0.73354 0.3069 0.0
C1329 C 0.57359 0.70113 0.3052 0.0
C1330 C 0.56009 0.74106 0.22165 0.0
C1331 C 0.56564 0.73684 0.26498 0.0
C1332 C 0.56404 0.75825 0.20125 0.0
C1333 C 0.57386 0.78949 0.20231 0.0
C1334 C 0.56571 0.75529 0.24324 0.0
C1335 C 0.57798 0.80317 0.2243 0.0
C1336 C 0.56552 0.75148 0.28683 0.0
C1337 C 0.57219 0.68729 0.28309 0.0
N1338 N 0.57405 0.78594 0.24388 0.0
N1339 N 0.56852 0.70523 0.26385 0.0
H1340 H 0.83 0.5767 0.78086 0.0
H1341 H 0.661 0.58417 0.72609 0.0
H1342 H 0.74622 0.57047 0.82235 0.0
H1343 H 0.74321 0.5628 0.68564 0.0
H1344 H 0.69141 0.5774 0.76155 0.0
H1345 H 0.79864 0.5697 0.7459 0.0
C1346 C 0.805 0.57357 0.78264 0.0
C1347 C 0.79064 0.57456 0.80457 0.0
C1348 C 0.70272 0.5738 0.74494 0.0
C1349 C 0.75457 0.56682 0.76451 0.0
C1350 C 0.6854 0.57779 0.72465 0.0
C1351 C 0.69968 0.57445 0.70281 0.0
C1352 C 0.73468 0.56688 0.74344 0.0
C1353 C 0.73128 0.56581 0.70207 0.0
C1354 C 0.78713 0.56946 0.76265 0.0
C1355 C 0.75823 0.57001 0.80581 0.0
N1356 N 0.74784 0.56277 0.72209 0.0
N1357 N 0.7412 0.56681 0.786 0.0
H1358 H 0.91927 0.73879 0.32515 0.0
H1359 H 0.92908 0.73584 0.18627 0.0
H1360 H 0.91846 0.82145 0.28219 0.0
H1361 H 0.90077 0.65665 0.22774 0.0
H1362 H 0.93719 0.76577 0.22195 0.0
H1363 H 0.92466 0.70681 0.29006 0.0
C1364 C 0.92072 0.75024 0.30841 0.0
C1365 C 0.91796 0.7828 0.30656 0.0
C1366 C 0.92946 0.74175 0.22319 0.0
C1367 C 0.92417 0.74645 0.2665 0.0
C1368 C 0.92487 0.72462 0.20284 0.0
C1369 C 0.91379 0.6938 0.20397 0.0
C1370 C 0.92321 0.72789 0.24481 0.0
C1371 C 0.90892 0.68047 0.22599 0.0
C1372 C 0.92364 0.73198 0.28841 0.0
C1373 C 0.92003 0.79639 0.2844 0.0
N1374 N 0.9135 0.69764 0.24553 0.0
N1375 N 0.92283 0.77815 0.26524 0.0
H1376 H 0.38545 0.99267 0.18443 0.0
H1377 H 0.56707 0.95196 0.17816 0.0
H1378 H 0.45729 0.06304 0.17852 0.0
H1379 H 0.49314 0.88362 0.18282 0.0
H1380 H 0.52826 0.99348 0.18297 0.0
H1381 H 0.42559 0.953 0.18868 0.0
C1382 C 0.40972 -0.00018 0.18419 0.0
C1383 C 0.41808 0.03115 0.18088 0.0
C1384 C 0.52064 0.96936 0.18317 0.0
C1385 C 0.46428 0.9857 0.18555 0.0
C1386 C 0.54276 0.94568 0.18046 0.0
C1387 C 0.53324 0.91433 0.17985 0.0
C1388 C 0.48891 0.96152 0.18528 0.0
C1389 C 0.5015 0.90747 0.18296 0.0
C1390 C 0.43267 0.97712 0.18663 0.0
C1391 C 0.44988 0.03908 0.18093 0.0
N1392 N 0.48049 0.93088 0.18537 0.0
N1393 N 0.47191 0.0164 0.18297 0.0
H1394 H 0.53769 0.56653 0.67837 0.0
H1395 H 0.49714 0.38482 0.68322 0.0
H1396 H 0.60618 0.49265 0.68216 0.0
H1397 H 0.42669 0.45673 0.67853 0.0
H1398 H 0.53688 0.42489 0.68752 0.0
H1399 H 0.49626 0.52759 0.683 0.0
C1400 C 0.54402 0.5422 0.68044 0.0
C1401 C 0.57538 0.53274 0.67965 0.0
C1402 C 0.51273 0.432 0.68574 0.0
C1403 C 0.52829 0.48827 0.68485 0.0
C1404 C 0.48999 0.40909 0.68326 0.0
C1405 C 0.45861 0.41749 0.68028 0.0
C1406 C 0.50413 0.46362 0.68502 0.0
C1407 C 0.45068 0.44928 0.68068 0.0
C1408 C 0.52039 0.52001 0.68305 0.0
C1409 C 0.58231 0.50097 0.68245 0.0
N1410 N 0.4734 0.47128 0.68276 0.0
N1411 N 0.55894 0.47988 0.68476 0.0
H1412 H 0.10462 0.49556 0.18558 0.0
H1413 H 0.92218 0.53125 0.17764 0.0
H1414 H 0.03534 0.42344 0.17583 0.0
H1415 H 0.99387 0.60105 0.18711 0.0
H1416 H 0.96195 0.49045 0.18182 0.0
H1417 H 0.06312 0.53347 0.1911 0.0
C1418 C 0.08061 0.48765 0.18474 0.0
C1419 C 0.07338 0.4564 0.17997 0.0
C1420 C 0.96884 0.51471 0.18325 0.0
C1421 C 0.02559 0.49983 0.1861 0.0
C1422 C 0.94618 0.53797 0.18091 0.0
C1423 C 0.95485 0.56955 0.18176 0.0
C1424 C 0.00023 0.52324 0.18645 0.0
C1425 C 0.98619 0.57701 0.18606 0.0
C1426 C 0.05687 0.50934 0.18794 0.0
C1427 C 0.04187 0.4474 0.17935 0.0
N1428 N 0.00774 0.55403 0.18806 0.0
N1429 N 0.01904 0.46915 0.18211 0.0
H1430 H 0.88258 -0.00217 0.68591 0.0
H1431 H 0.06451 0.03687 0.67791 0.0
H1432 H 0.95343 0.927 0.67726 0.0
H1433 H 0.99108 0.10577 0.68234 0.0
H1434 H 0.02539 -0.00434 0.68302 0.0
H1435 H 0.92328 0.03691 0.69032 0.0
C1436 C 0.90676 0.99045 0.68513 0.0
C1437 C 0.91467 0.9592 0.68094 0.0
C1438 C 0.01797 0.01983 0.68309 0.0
C1439 C 0.96149 0.00396 0.68576 0.0
C1440 C 0.04025 0.04333 0.68021 0.0
C1441 C 0.03095 0.07473 0.67946 0.0
C1442 C 0.98631 0.02793 0.68527 0.0
C1443 C -0.00073 0.08185 0.68256 0.0
C1444 C 0.93002 0.01281 0.68765 0.0
C1445 C 0.94637 0.95092 0.68034 0.0
N1446 N 0.97811 0.05862 0.68518 0.0
N1447 N 0.96871 0.97329 0.68246 0.0
H1448 H 0.48993 0.60832 0.32478 0.0
H1449 H 0.45104 0.42613 0.32796 0.0
H1450 H 0.56105 0.53692 0.32799 0.0
H1451 H 0.3819 0.49958 0.3269 0.0
H1452 H 0.49201 0.46557 0.3233 0.0
H1453 H 0.45042 0.56798 0.32067 0.0
C1454 C 0.49727 0.58411 0.32444 0.0
C1455 C 0.52877 0.57592 0.32697 0.0
C1456 C 0.46783 0.47295 0.32388 0.0
C1457 C 0.48355 0.5295 0.32246 0.0
C1458 C 0.44447 0.45049 0.32651 0.0
C1459 C 0.41308 0.45966 0.32804 0.0
C1460 C 0.45962 0.50467 0.32277 0.0
C1461 C 0.40582 0.49146 0.32602 0.0
C1462 C 0.47467 0.56105 0.32209 0.0
C1463 C 0.53696 0.5442 0.32621 0.0
N1464 N 0.42893 0.5128 0.32364 0.0
N1465 N 0.51439 0.52205 0.32425 0.0
H1466 H 0.99266 0.384 0.82064 0.0
H1467 H 0.95477 0.56611 0.82748 0.0
H1468 H 0.064 0.45465 0.82786 0.0
H1469 H 0.88536 0.49312 0.82319 0.0
H1470 H -0.0043 0.52674 0.82235 0.0
H1471 H 0.95374 0.42478 0.81603 0.0
C1472 C 0.00018 0.40815 0.82108 0.0
C1473 C 0.03153 0.41599 0.82492 0.0
C1474 C 0.97148 0.51946 0.82231 0.0
C1475 C 0.98697 0.46291 0.81986 0.0
C1476 C 0.94814 0.54188 0.8252 0.0
C1477 C 0.91668 0.53277 0.82602 0.0
C1478 C 0.96316 0.48786 0.82021 0.0
C1479 C 0.90934 0.50116 0.82292 0.0
C1480 C 0.97791 0.43146 0.81843 0.0
C1481 C 0.03999 0.44765 0.82507 0.0
N1482 N 0.93242 0.47984 0.82032 0.0
N1483 N 0.01771 0.47005 0.82285 0.0
H1484 H 0.00266 0.87744 0.3264 0.0
H1485 H 0.03726 0.06049 0.32411 0.0
H1486 H 0.93003 0.94745 0.32605 0.0
H1487 H 0.10831 0.9889 0.32587 0.0
H1488 H -0.00254 0.01982 0.32014 0.0
H1489 H 0.04145 0.91836 0.32146 0.0
C1490 C 0.99484 0.90144 0.32511 0.0
C1491 C 0.9631 0.90911 0.32687 0.0
C1492 C 0.0218 0.01309 0.32117 0.0
C1493 C 0.00748 0.95616 0.32137 0.0
C1494 C 0.04451 0.03627 0.32341 0.0
C1495 C 0.07609 0.02801 0.32555 0.0
C1496 C 0.03083 0.98156 0.3211 0.0
C1497 C 0.08421 -0.00367 0.32447 0.0
C1498 C 0.01703 0.92482 0.32228 0.0
C1499 C 0.95431 0.94056 0.3249 0.0
N1500 N 0.0617 0.97427 0.32249 0.0
N1501 N 0.97646 0.96303 0.32248 0.0
H1502 H 0.60829 -0.00056 0.82451 0.0
H1503 H 0.42586 0.037 0.82703 0.0
H1504 H 0.53726 0.92788 0.82703 0.0
H1505 H 0.49872 0.10678 0.82611 0.0
H1506 H 0.46562 -0.0036 0.8224 0.0
H1507 H 0.56776 0.03873 0.82027 0.0
C1508 C 0.58413 0.99196 0.82399 0.0
C1509 C 0.57609 0.96039 0.82637 0.0
C1510 C 0.47281 0.02063 0.823 0.0
C1511 C 0.52947 0.00536 0.8217 0.0
C1512 C 0.45016 0.04379 0.82562 0.0
C1513 C 0.45906 0.07525 0.82718 0.0
C1514 C 0.50446 0.02911 0.82195 0.0
C1515 C 0.49081 0.08279 0.82519 0.0
C1516 C 0.56096 0.01443 0.82157 0.0
C1517 C 0.54443 0.95203 0.82538 0.0
N1518 N 0.51235 0.05987 0.82284 0.0
N1519 N 0.52218 0.97447 0.82335 0.0
loop_
_geom_bond_atom_site_label_1
_geom_bond_atom_site_label_2
_geom_bond_distance
_geom_bond_site_symmetry_2
_ccdc_geom_bond_type
Co0 O2 2.143 . S
Co0 O8 2.074 . S
Co0 O11 2.093 . S
Co0 O24 2.097 . S
Co0 N41 2.151 . S
Co0 N49 2.214 . S
Co1 O2 2.160 . S
Co1 O7 2.058 . S
Co1 O17 2.057 . S
Co1 O32 2.037 . S
Co1 N36 2.145 . S
Co1 N57 2.257 . S
O2 Co0 2.143 . S
O2 Co1 2.160 . S
C3 O4 1.278 . S
C3 O11 1.224 . S
O4 C3 1.278 . S
C5 O6 1.245 . S
C5 O17 1.232 . S
O6 C5 1.245 . S
O7 Co1 2.058 . S
O7 C33 1.269 . S
O8 Co0 2.074 . S
O8 C33 1.257 . S
H9 C34 0.930 . S
H10 C40 0.930 . S
O11 Co0 2.093 . S
O11 C3 1.224 . S
H12 C44 0.927 1_565 S
H13 C46 0.930 . S
H14 C47 0.930 . S
H15 C45 0.929 . S
H16 C48 0.928 . S
O17 Co1 2.057 . S
O17 C5 1.232 . S
H18 C37 0.929 . S
H19 C38 0.929 . S
H20 C50 0.931 . S
H21 C42 0.929 1_565 S
H22 C51 0.930 . S
H23 C43 0.931 . S
O24 Co0 2.097 . S
O24 C52 1.214 . S
H25 C53 0.929 . S
H26 C54 0.929 . S
H27 C55 0.930 . S
H28 C56 0.929 . S
H29 C58 0.930 . S
H30 C35 0.930 . S
H31 C39 0.930 . S
O32 Co1 2.037 . S
O32 C52 1.234 . S
C33 O7 1.269 . S
C33 O8 1.257 . S
C34 H9 0.930 . S
C34 C37 1.388 . S
C34 C39 1.418 . S
C35 H30 0.930 . S
C35 C38 1.404 . S
C35 C39 1.353 . S
N36 Co1 2.145 . S
N36 C37 1.397 . S
N36 C38 1.334 . S
C37 H18 0.929 . S
C37 C34 1.388 . S
C37 N36 1.397 . S
C38 H19 0.929 . S
C38 C35 1.404 . S
C38 N36 1.334 . S
C39 H31 0.930 . S
C39 C34 1.418 . S
C39 C35 1.353 . S
C40 H10 0.930 . S
C40 N41 1.330 . S
C40 C42 1.446 . S
N41 Co0 2.151 . S
N41 C40 1.330 . S
N41 C45 1.418 . S
C42 H21 0.929 1_545 S
C42 C40 1.446 . S
C42 C43 1.332 1_545 S
C43 H23 0.931 . S
C43 C42 1.332 1_565 S
C43 C44 1.267 1_565 S
C44 H12 0.927 1_545 S
C44 C43 1.267 1_545 S
C44 C45 1.251 . S
C45 H15 0.929 . S
C45 N41 1.418 . S
C45 C44 1.251 . S
C46 H13 0.930 . S
C46 C48 1.406 . S
C46 C51 1.261 . S
C47 H14 0.930 . S
C47 N49 1.325 . S
C47 C50 1.357 . S
C48 H16 0.928 . S
C48 C46 1.406 . S
C48 N49 1.261 . S
N49 Co0 2.214 . S
N49 C47 1.325 . S
N49 C48 1.261 . S
C50 H20 0.931 . S
C50 C47 1.357 . S
C50 C51 1.312 . S
C51 H22 0.930 . S
C51 C46 1.261 . S
C51 C50 1.312 . S
C52 O24 1.214 . S
C52 O32 1.234 . S
C53 H25 0.929 . S
C53 C56 1.391 . S
C53 C58 1.391 . S
C54 H26 0.929 . S
C54 C55 1.390 . S
C54 N57 1.391 . S
C55 H27 0.930 . S
C55 C54 1.390 . S
C55 C56 1.392 . S
C56 H28 0.929 . S
C56 C53 1.391 . S
C56 C55 1.392 . S
N57 Co1 2.257 . S
N57 C54 1.391 . S
N57 C58 1.388 . S
C58 H29 0.930 . S
C58 C53 1.391 . S
C58 N57 1.388 . S
Co59 O61 2.143 . S
Co59 O67 2.074 . S
Co59 O70 2.093 . S
Co59 O83 2.097 . S
Co59 N100 2.151 . S
Co59 N108 2.214 . S
Co60 O61 2.160 . S
Co60 O66 2.058 . S
Co60 O76 2.057 . S
Co60 O91 2.037 . S
Co60 N95 2.145 . S
Co60 N116 2.257 . S
O61 Co59 2.143 . S
O61 Co60 2.160 . S
C62 O63 1.278 . S
C62 O70 1.224 . S
O63 C62 1.278 . S
C64 O65 1.245 . S
C64 O76 1.232 . S
O65 C64 1.245 . S
O66 Co60 2.058 . S
O66 C92 1.269 . S
O67 Co59 2.074 . S
O67 C92 1.257 . S
H68 C93 0.930 . S
H69 C99 0.930 . S
O70 Co59 2.093 . S
O70 C62 1.224 . S
H71 C103 0.929 . S
H72 C105 0.930 . S
H73 C106 0.930 . S
H74 C104 0.929 . S
H75 C107 0.928 . S
O76 Co60 2.057 . S
O76 C64 1.232 . S
H77 C96 0.929 . S
H78 C97 0.929 . S
H79 C109 0.931 . S
H80 C101 0.929 . S
H81 C110 0.930 . S
H82 C102 0.931 . S
O83 Co59 2.097 . S
O83 C111 1.214 . S
H84 C112 0.929 . S
H85 C113 0.929 . S
H86 C114 0.930 . S
H87 C115 0.929 . S
H88 C117 0.930 . S
H89 C94 0.930 . S
H90 C98 0.930 . S
O91 Co60 2.037 . S
O91 C111 1.234 . S
C92 O66 1.269 . S
C92 O67 1.257 . S
C93 H68 0.930 . S
C93 C96 1.388 . S
C93 C98 1.418 . S
C94 H89 0.930 . S
C94 C97 1.404 . S
C94 C98 1.353 . S
N95 Co60 2.145 . S
N95 C96 1.397 . S
N95 C97 1.334 . S
C96 H77 0.929 . S
C96 C93 1.388 . S
C96 N95 1.397 . S
C97 H78 0.929 . S
C97 C94 1.404 . S
C97 N95 1.334 . S
C98 H90 0.930 . S
C98 C93 1.418 . S
C98 C94 1.353 . S
C99 H69 0.930 . S
C99 N100 1.330 . S
C99 C101 1.446 . S
N100 Co59 2.151 . S
N100 C99 1.330 . S
N100 C104 1.418 . S
C101 H80 0.929 . S
C101 C99 1.446 . S
C101 C102 1.332 . S
C102 H82 0.931 . S
C102 C101 1.332 . S
C102 C103 1.267 . S
C103 H71 0.929 . S
C103 C102 1.267 . S
C103 C104 1.251 . S
C104 H74 0.929 . S
C104 N100 1.418 . S
C104 C103 1.251 . S
C105 H72 0.930 . S
C105 C107 1.406 . S
C105 C110 1.261 . S
C106 H73 0.930 . S
C106 N108 1.325 . S
C106 C109 1.357 . S
C107 H75 0.928 . S
C107 C105 1.406 . S
C107 N108 1.261 . S
N108 Co59 2.214 . S
N108 C106 1.325 . S
N108 C107 1.261 . S
C109 H79 0.931 . S
C109 C106 1.357 . S
C109 C110 1.312 . S
C110 H81 0.930 . S
C110 C105 1.261 . S
C110 C109 1.312 . S
C111 O83 1.214 . S
C111 O91 1.234 . S
C112 H84 0.929 . S
C112 C115 1.391 . S
C112 C117 1.391 . S
C113 H85 0.929 . S
C113 C114 1.390 . S
C113 N116 1.391 . S
C114 H86 0.930 . S
C114 C113 1.390 . S
C114 C115 1.392 . S
C115 H87 0.929 . S
C115 C112 1.391 . S
C115 C114 1.392 . S
N116 Co60 2.257 . S
N116 C113 1.391 . S
N116 C117 1.388 . S
C117 H88 0.930 . S
C117 C112 1.391 . S
C117 N116 1.388 . S
Co118 O120 2.143 . S
Co118 O126 2.074 . S
Co118 O129 2.093 . S
Co118 O142 2.097 . S
Co118 N159 2.151 . S
Co118 N167 2.214 . S
Co119 O120 2.160 . S
Co119 O125 2.058 . S
Co119 O135 2.057 . S
Co119 O150 2.037 . S
Co119 N154 2.145 . S
Co119 N175 2.257 . S
O120 Co118 2.143 . S
O120 Co119 2.160 . S
C121 O122 1.278 . S
C121 O129 1.224 . S
O122 C121 1.278 . S
C123 O124 1.245 . S
C123 O135 1.232 . S
O124 C123 1.245 . S
O125 Co119 2.058 . S
O125 C151 1.269 . S
O126 Co118 2.074 . S
O126 C151 1.257 . S
H127 C152 0.930 . S
H128 C158 0.930 . S
O129 Co118 2.093 . S
O129 C121 1.224 . S
H130 C162 0.929 . S
H131 C164 0.930 . S
H132 C165 0.930 . S
H133 C163 0.929 . S
H134 C166 0.928 . S
O135 Co119 2.057 . S
O135 C123 1.232 . S
H136 C155 0.929 . S
H137 C156 0.929 . S
H138 C168 0.931 . S
H139 C160 0.929 . S
H140 C169 0.930 . S
H141 C161 0.931 . S
O142 Co118 2.097 . S
O142 C170 1.214 . S
H143 C171 0.929 . S
H144 C172 0.929 . S
H145 C173 0.930 . S
H146 C174 0.929 . S
H147 C176 0.930 . S
H148 C153 0.930 . S
H149 C157 0.930 . S
O150 Co119 2.037 . S
O150 C170 1.234 . S
C151 O125 1.269 . S
C151 O126 1.257 . S
C152 H127 0.930 . S
C152 C155 1.388 . S
C152 C157 1.418 . S
C153 H148 0.930 . S
C153 C156 1.404 . S
C153 C157 1.353 . S
N154 Co119 2.145 . S
N154 C155 1.397 . S
N154 C156 1.334 . S
C155 H136 0.929 . S
C155 C152 1.388 . S
C155 N154 1.397 . S
C156 H137 0.929 . S
C156 C153 1.404 . S
C156 N154 1.334 . S
C157 H149 0.930 . S
C157 C152 1.418 . S
C157 C153 1.353 . S
C158 H128 0.930 . S
C158 N159 1.330 . S
C158 C160 1.446 . S
N159 Co118 2.151 . S
N159 C158 1.330 . S
N159 C163 1.418 . S
C160 H139 0.929 . S
C160 C158 1.446 . S
C160 C161 1.332 . S
C161 H141 0.931 . S
C161 C160 1.332 . S
C161 C162 1.267 . S
C162 H130 0.929 . S
C162 C161 1.267 . S
C162 C163 1.251 . S
C163 H133 0.929 . S
C163 N159 1.418 . S
C163 C162 1.251 . S
C164 H131 0.930 . S
C164 C166 1.406 . S
C164 C169 1.261 . S
C165 H132 0.930 . S
C165 N167 1.325 . S
C165 C168 1.357 . S
C166 H134 0.928 . S
C166 C164 1.406 . S
C166 N167 1.261 . S
N167 Co118 2.214 . S
N167 C165 1.325 . S
N167 C166 1.261 . S
C168 H138 0.931 . S
C168 C165 1.357 . S
C168 C169 1.312 . S
C169 H140 0.930 . S
C169 C164 1.261 . S
C169 C168 1.312 . S
C170 O142 1.214 . S
C170 O150 1.234 . S
C171 H143 0.929 . S
C171 C174 1.391 . S
C171 C176 1.391 . S
C172 H144 0.929 . S
C172 C173 1.390 . S
C172 N175 1.391 . S
C173 H145 0.930 . S
C173 C172 1.390 . S
C173 C174 1.392 . S
C174 H146 0.929 . S
C174 C171 1.391 . S
C174 C173 1.392 . S
N175 Co119 2.257 . S
N175 C172 1.391 . S
N175 C176 1.388 . S
C176 H147 0.930 . S
C176 C171 1.391 . S
C176 N175 1.388 . S
Co177 O179 2.143 . S
Co177 O185 2.074 . S
Co177 O188 2.093 . S
Co177 O201 2.097 . S
Co177 N218 2.151 . S
Co177 N226 2.214 . S
Co178 O179 2.160 . S
Co178 O184 2.058 . S
Co178 O194 2.057 . S
Co178 O209 2.037 . S
Co178 N213 2.145 . S
Co178 N234 2.257 . S
O179 Co177 2.143 . S
O179 Co178 2.160 . S
C180 O181 1.278 . S
C180 O188 1.224 . S
O181 C180 1.278 . S
C182 O183 1.245 . S
C182 O194 1.232 . S
O183 C182 1.245 . S
O184 Co178 2.058 . S
O184 C210 1.269 . S
O185 Co177 2.074 . S
O185 C210 1.257 . S
H186 C211 0.930 . S
H187 C217 0.930 . S
O188 Co177 2.093 . S
O188 C180 1.224 . S
H189 C221 0.927 1_655 S
H190 C223 0.930 . S
H191 C224 0.930 . S
H192 C222 0.929 . S
H193 C225 0.928 . S
O194 Co178 2.057 . S
O194 C182 1.232 . S
H195 C214 0.929 . S
H196 C215 0.929 . S
H197 C227 0.931 . S
H198 C219 0.929 1_655 S
H199 C228 0.930 . S
H200 C220 0.931 . S
O201 Co177 2.097 . S
O201 C229 1.214 . S
H202 C230 0.929 . S
H203 C231 0.929 . S
H204 C232 0.930 . S
H205 C233 0.929 . S
H206 C235 0.930 . S
H207 C212 0.930 . S
H208 C216 0.930 . S
O209 Co178 2.037 . S
O209 C229 1.234 . S
C210 O184 1.269 . S
C210 O185 1.257 . S
C211 H186 0.930 . S
C211 C214 1.388 . S
C211 C216 1.418 . S
C212 H207 0.930 . S
C212 C215 1.404 . S
C212 C216 1.353 . S
N213 Co178 2.145 . S
N213 C214 1.397 . S
N213 C215 1.334 . S
C214 H195 0.929 . S
C214 C211 1.388 . S
C214 N213 1.397 . S
C215 H196 0.929 . S
C215 C212 1.404 . S
C215 N213 1.334 . S
C216 H208 0.930 . S
C216 C211 1.418 . S
C216 C212 1.353 . S
C217 H187 0.930 . S
C217 N218 1.330 . S
C217 C219 1.446 . S
N218 Co177 2.151 . S
N218 C217 1.330 . S
N218 C222 1.418 . S
C219 H198 0.929 1_455 S
C219 C217 1.446 . S
C219 C220 1.332 1_455 S
C220 H200 0.931 . S
C220 C219 1.332 1_655 S
C220 C221 1.267 1_655 S
C221 H189 0.927 1_455 S
C221 C220 1.267 1_455 S
C221 C222 1.251 . S
C222 H192 0.929 . S
C222 N218 1.418 . S
C222 C221 1.251 . S
C223 H190 0.930 . S
C223 C225 1.406 . S
C223 C228 1.261 . S
C224 H191 0.930 . S
C224 N226 1.325 . S
C224 C227 1.357 . S
C225 H193 0.928 . S
C225 C223 1.406 . S
C225 N226 1.261 . S
N226 Co177 2.214 . S
N226 C224 1.325 . S
N226 C225 1.261 . S
C227 H197 0.931 . S
C227 C224 1.357 . S
C227 C228 1.312 . S
C228 H199 0.930 . S
C228 C223 1.261 . S
C228 C227 1.312 . S
C229 O201 1.214 . S
C229 O209 1.234 . S
C230 H202 0.929 . S
C230 C233 1.391 . S
C230 C235 1.391 . S
C231 H203 0.929 . S
C231 C232 1.390 . S
C231 N234 1.391 . S
C232 H204 0.930 . S
C232 C231 1.390 . S
C232 C233 1.392 . S
C233 H205 0.929 . S
C233 C230 1.391 . S
C233 C232 1.392 . S
N234 Co178 2.257 . S
N234 C231 1.391 . S
N234 C235 1.388 . S
C235 H206 0.930 . S
C235 C230 1.391 . S
C235 N234 1.388 . S
Co236 O238 2.143 . S
Co236 O244 2.074 . S
Co236 O247 2.093 . S
Co236 O260 2.097 . S
Co236 N277 2.151 . S
Co236 N285 2.214 . S
Co237 O238 2.160 . S
Co237 O243 2.058 . S
Co237 O253 2.057 . S
Co237 O268 2.037 . S
Co237 N272 2.145 . S
Co237 N293 2.257 . S
O238 Co236 2.143 . S
O238 Co237 2.160 . S
C239 O240 1.278 . S
C239 O247 1.224 . S
O240 C239 1.278 . S
C241 O242 1.245 . S
C241 O253 1.232 . S
O242 C241 1.245 . S
O243 Co237 2.058 . S
O243 C269 1.269 . S
O244 Co236 2.074 . S
O244 C269 1.257 . S
H245 C270 0.930 . S
H246 C276 0.930 . S
O247 Co236 2.093 . S
O247 C239 1.224 . S
H248 C280 0.929 . S
H249 C282 0.930 . S
H250 C283 0.930 . S
H251 C281 0.929 . S
H252 C284 0.928 . S
O253 Co237 2.057 . S
O253 C241 1.232 . S
H254 C273 0.929 . S
H255 C274 0.929 . S
H256 C286 0.931 . S
H257 C278 0.929 . S
H258 C287 0.930 . S
H259 C279 0.931 . S
O260 Co236 2.097 . S
O260 C288 1.214 . S
H261 C289 0.929 . S
H262 C290 0.929 . S
H263 C291 0.930 . S
H264 C292 0.929 . S
H265 C294 0.930 . S
H266 C271 0.930 . S
H267 C275 0.930 . S
O268 Co237 2.037 . S
O268 C288 1.234 . S
C269 O243 1.269 . S
C269 O244 1.257 . S
C270 H245 0.930 . S
C270 C273 1.388 . S
C270 C275 1.418 . S
C271 H266 0.930 . S
C271 C274 1.404 . S
C271 C275 1.353 . S
N272 Co237 2.145 . S
N272 C273 1.397 . S
N272 C274 1.334 . S
C273 H254 0.929 . S
C273 C270 1.388 . S
C273 N272 1.397 . S
C274 H255 0.929 . S
C274 C271 1.404 . S
C274 N272 1.334 . S
C275 H267 0.930 . S
C275 C270 1.418 . S
C275 C271 1.353 . S
C276 H246 0.930 . S
C276 N277 1.330 . S
C276 C278 1.446 . S
N277 Co236 2.151 . S
N277 C276 1.330 . S
N277 C281 1.418 . S
C278 H257 0.929 . S
C278 C276 1.446 . S
C278 C279 1.332 . S
C279 H259 0.931 . S
C279 C278 1.332 . S
C279 C280 1.267 . S
C280 H248 0.929 . S
C280 C279 1.267 . S
C280 C281 1.251 . S
C281 H251 0.929 . S
C281 N277 1.418 . S
C281 C280 1.251 . S
C282 H249 0.930 . S
C282 C284 1.406 . S
C282 C287 1.261 . S
C283 H250 0.930 . S
C283 N285 1.325 . S
C283 C286 1.357 . S
C284 H252 0.928 . S
C284 C282 1.406 . S
C284 N285 1.261 . S
N285 Co236 2.214 . S
N285 C283 1.325 . S
N285 C284 1.261 . S
C286 H256 0.931 . S
C286 C283 1.357 . S
C286 C287 1.312 . S
C287 H258 0.930 . S
C287 C282 1.261 . S
C287 C286 1.312 . S
C288 O260 1.214 . S
C288 O268 1.234 . S
C289 H261 0.929 . S
C289 C292 1.391 . S
C289 C294 1.391 . S
C290 H262 0.929 . S
C290 C291 1.390 . S
C290 N293 1.391 . S
C291 H263 0.930 . S
C291 C290 1.390 . S
C291 C292 1.392 . S
C292 H264 0.929 . S
C292 C289 1.391 . S
C292 C291 1.392 . S
N293 Co237 2.257 . S
N293 C290 1.391 . S
N293 C294 1.388 . S
C294 H265 0.930 . S
C294 C289 1.391 . S
C294 N293 1.388 . S
Co295 O297 2.143 . S
Co295 O303 2.074 . S
Co295 O306 2.093 . S
Co295 O319 2.097 . S
Co295 N336 2.151 . S
Co295 N344 2.214 . S
Co296 O297 2.160 . S
Co296 O302 2.058 . S
Co296 O312 2.057 . S
Co296 O327 2.037 . S
Co296 N331 2.145 . S
Co296 N352 2.257 . S
O297 Co295 2.143 . S
O297 Co296 2.160 . S
C298 O299 1.278 . S
C298 O306 1.224 . S
O299 C298 1.278 . S
C300 O301 1.245 . S
C300 O312 1.232 . S
O301 C300 1.245 . S
O302 Co296 2.058 . S
O302 C328 1.269 . S
O303 Co295 2.074 . S
O303 C328 1.257 . S
H304 C329 0.930 . S
H305 C335 0.930 . S
O306 Co295 2.093 . S
O306 C298 1.224 . S
H307 C339 0.927 1_655 S
H308 C341 0.930 . S
H309 C342 0.930 . S
H310 C340 0.929 . S
H311 C343 0.928 . S
O312 Co296 2.057 . S
O312 C300 1.232 . S
H313 C332 0.929 . S
H314 C333 0.929 . S
H315 C345 0.931 . S
H316 C337 0.929 1_655 S
H317 C346 0.930 . S
H318 C338 0.931 . S
O319 Co295 2.097 . S
O319 C347 1.214 . S
H320 C348 0.929 . S
H321 C349 0.929 . S
H322 C350 0.930 . S
H323 C351 0.929 . S
H324 C353 0.930 . S
H325 C330 0.930 . S
H326 C334 0.930 . S
O327 Co296 2.037 . S
O327 C347 1.234 . S
C328 O302 1.269 . S
C328 O303 1.257 . S
C329 H304 0.930 . S
C329 C332 1.388 . S
C329 C334 1.418 . S
C330 H325 0.930 . S
C330 C333 1.404 . S
C330 C334 1.353 . S
N331 Co296 2.145 . S
N331 C332 1.397 . S
N331 C333 1.334 . S
C332 H313 0.929 . S
C332 C329 1.388 . S
C332 N331 1.397 . S
C333 H314 0.929 . S
C333 C330 1.404 . S
C333 N331 1.334 . S
C334 H326 0.930 . S
C334 C329 1.418 . S
C334 C330 1.353 . S
C335 H305 0.930 . S
C335 N336 1.330 . S
C335 C337 1.446 . S
N336 Co295 2.151 . S
N336 C335 1.330 . S
N336 C340 1.418 . S
C337 H316 0.929 1_455 S
C337 C335 1.446 . S
C337 C338 1.332 1_455 S
C338 H318 0.931 . S
C338 C337 1.332 1_655 S
C338 C339 1.267 1_655 S
C339 H307 0.927 1_455 S
C339 C338 1.267 1_455 S
C339 C340 1.251 . S
C340 H310 0.929 . S
C340 N336 1.418 . S
C340 C339 1.251 . S
C341 H308 0.930 . S
C341 C343 1.406 . S
C341 C346 1.261 . S
C342 H309 0.930 . S
C342 N344 1.325 . S
C342 C345 1.357 . S
C343 H311 0.928 . S
C343 C341 1.406 . S
C343 N344 1.261 . S
N344 Co295 2.214 . S
N344 C342 1.325 . S
N344 C343 1.261 . S
C345 H315 0.931 . S
C345 C342 1.357 . S
C345 C346 1.312 . S
C346 H317 0.930 . S
C346 C341 1.261 . S
C346 C345 1.312 . S
C347 O319 1.214 . S
C347 O327 1.234 . S
C348 H320 0.929 . S
C348 C351 1.391 . S
C348 C353 1.391 . S
C349 H321 0.929 . S
C349 C350 1.390 . S
C349 N352 1.391 . S
C350 H322 0.930 . S
C350 C349 1.390 . S
C350 C351 1.392 . S
C351 H323 0.929 . S
C351 C348 1.391 . S
C351 C350 1.392 . S
N352 Co296 2.257 . S
N352 C349 1.391 . S
N352 C353 1.388 . S
C353 H324 0.930 . S
C353 C348 1.391 . S
C353 N352 1.388 . S
Co354 O356 2.143 . S
Co354 O362 2.074 . S
Co354 O365 2.093 . S
Co354 O378 2.097 . S
Co354 N395 2.151 . S
Co354 N403 2.214 . S
Co355 O356 2.160 . S
Co355 O361 2.058 . S
Co355 O371 2.057 . S
Co355 O386 2.037 . S
Co355 N390 2.145 . S
Co355 N411 2.257 . S
O356 Co354 2.143 . S
O356 Co355 2.160 . S
C357 O358 1.278 . S
C357 O365 1.224 . S
O358 C357 1.278 . S
C359 O360 1.245 . S
C359 O371 1.232 . S
O360 C359 1.245 . S
O361 Co355 2.058 . S
O361 C387 1.269 . S
O362 Co354 2.074 . S
O362 C387 1.257 . S
H363 C388 0.930 . S
H364 C394 0.930 . S
O365 Co354 2.093 . S
O365 C357 1.224 . S
H366 C398 0.927 1_565 S
H367 C400 0.930 . S
H368 C401 0.930 . S
H369 C399 0.929 . S
H370 C402 0.928 . S
O371 Co355 2.057 . S
O371 C359 1.232 . S
H372 C391 0.929 . S
H373 C392 0.929 . S
H374 C404 0.931 . S
H375 C396 0.929 1_565 S
H376 C405 0.930 . S
H377 C397 0.931 . S
O378 Co354 2.097 . S
O378 C406 1.214 . S
H379 C407 0.929 . S
H380 C408 0.929 . S
H381 C409 0.930 . S
H382 C410 0.929 . S
H383 C412 0.930 . S
H384 C389 0.930 . S
H385 C393 0.930 . S
O386 Co355 2.037 . S
O386 C406 1.234 . S
C387 O361 1.269 . S
C387 O362 1.257 . S
C388 H363 0.930 . S
C388 C391 1.388 . S
C388 C393 1.418 . S
C389 H384 0.930 . S
C389 C392 1.404 . S
C389 C393 1.353 . S
N390 Co355 2.145 . S
N390 C391 1.397 . S
N390 C392 1.334 . S
C391 H372 0.929 . S
C391 C388 1.388 . S
C391 N390 1.397 . S
C392 H373 0.929 . S
C392 C389 1.404 . S
C392 N390 1.334 . S
C393 H385 0.930 . S
C393 C388 1.418 . S
C393 C389 1.353 . S
C394 H364 0.930 . S
C394 N395 1.330 . S
C394 C396 1.446 . S
N395 Co354 2.151 . S
N395 C394 1.330 . S
N395 C399 1.418 . S
C396 H375 0.929 1_545 S
C396 C394 1.446 . S
C396 C397 1.332 1_545 S
C397 H377 0.931 . S
C397 C396 1.332 1_565 S
C397 C398 1.267 1_565 S
C398 H366 0.927 1_545 S
C398 C397 1.267 1_545 S
C398 C399 1.251 . S
C399 H369 0.929 . S
C399 N395 1.418 . S
C399 C398 1.251 . S
C400 H367 0.930 . S
C400 C402 1.406 . S
C400 C405 1.261 . S
C401 H368 0.930 . S
C401 N403 1.325 . S
C401 C404 1.357 . S
C402 H370 0.928 . S
C402 C400 1.406 . S
C402 N403 1.261 . S
N403 Co354 2.214 . S
N403 C401 1.325 . S
N403 C402 1.261 . S
C404 H374 0.931 . S
C404 C401 1.357 . S
C404 C405 1.312 . S
C405 H376 0.930 . S
C405 C400 1.261 . S
C405 C404 1.312 . S
C406 O378 1.214 . S
C406 O386 1.234 . S
C407 H379 0.929 . S
C407 C410 1.391 . S
C407 C412 1.391 . S
C408 H380 0.929 . S
C408 C409 1.390 . S
C408 N411 1.391 . S
C409 H381 0.930 . S
C409 C408 1.390 . S
C409 C410 1.392 . S
C410 H382 0.929 . S
C410 C407 1.391 . S
C410 C409 1.392 . S
N411 Co355 2.257 . S
N411 C408 1.391 . S
N411 C412 1.388 . S
C412 H383 0.930 . S
C412 C407 1.391 . S
C412 N411 1.388 . S
Co413 O415 2.143 . S
Co413 O421 2.074 . S
Co413 O424 2.093 . S
Co413 O437 2.097 . S
Co413 N454 2.151 . S
Co413 N462 2.214 . S
Co414 O415 2.160 . S
Co414 O420 2.058 . S
Co414 O430 2.057 . S
Co414 O445 2.037 . S
Co414 N449 2.145 . S
Co414 N470 2.257 . S
O415 Co413 2.143 . S
O415 Co414 2.160 . S
C416 O417 1.278 . S
C416 O424 1.224 . S
O417 C416 1.278 . S
C418 O419 1.245 . S
C418 O430 1.232 . S
O419 C418 1.245 . S
O420 Co414 2.058 . S
O420 C446 1.269 . S
O421 Co413 2.074 . S
O421 C446 1.257 . S
H422 C447 0.930 . S
H423 C453 0.930 . S
O424 Co413 2.093 . S
O424 C416 1.224 . S
H425 C457 0.929 . S
H426 C459 0.930 . S
H427 C460 0.930 . S
H428 C458 0.929 . S
H429 C461 0.928 . S
O430 Co414 2.057 . S
O430 C418 1.232 . S
H431 C450 0.929 . S
H432 C451 0.929 . S
H433 C463 0.931 . S
H434 C455 0.929 . S
H435 C464 0.930 . S
H436 C456 0.931 . S
O437 Co413 2.097 . S
O437 C465 1.214 . S
H438 C466 0.929 . S
H439 C467 0.929 . S
H440 C468 0.930 . S
H441 C469 0.929 . S
H442 C471 0.930 . S
H443 C448 0.930 . S
H444 C452 0.930 . S
O445 Co414 2.037 . S
O445 C465 1.234 . S
C446 O420 1.269 . S
C446 O421 1.257 . S
C447 H422 0.930 . S
C447 C450 1.388 . S
C447 C452 1.418 . S
C448 H443 0.930 . S
C448 C451 1.404 . S
C448 C452 1.353 . S
N449 Co414 2.145 . S
N449 C450 1.397 . S
N449 C451 1.334 . S
C450 H431 0.929 . S
C450 C447 1.388 . S
C450 N449 1.397 . S
C451 H432 0.929 . S
C451 C448 1.404 . S
C451 N449 1.334 . S
C452 H444 0.930 . S
C452 C447 1.418 . S
C452 C448 1.353 . S
C453 H423 0.930 . S
C453 N454 1.330 . S
C453 C455 1.446 . S
N454 Co413 2.151 . S
N454 C453 1.330 . S
N454 C458 1.418 . S
C455 H434 0.929 . S
C455 C453 1.446 . S
C455 C456 1.332 . S
C456 H436 0.931 . S
C456 C455 1.332 . S
C456 C457 1.267 . S
C457 H425 0.929 . S
C457 C456 1.267 . S
C457 C458 1.251 . S
C458 H428 0.929 . S
C458 N454 1.418 . S
C458 C457 1.251 . S
C459 H426 0.930 . S
C459 C461 1.406 . S
C459 C464 1.261 . S
C460 H427 0.930 . S
C460 N462 1.325 . S
C460 C463 1.357 . S
C461 H429 0.928 . S
C461 C459 1.406 . S
C461 N462 1.261 . S
N462 Co413 2.214 . S
N462 C460 1.325 . S
N462 C461 1.261 . S
C463 H433 0.931 . S
C463 C460 1.357 . S
C463 C464 1.312 . S
C464 H435 0.930 . S
C464 C459 1.261 . S
C464 C463 1.312 . S
C465 O437 1.214 . S
C465 O445 1.234 . S
C466 H438 0.929 . S
C466 C469 1.391 . S
C466 C471 1.391 . S
C467 H439 0.929 . S
C467 C468 1.390 . S
C467 N470 1.391 . S
C468 H440 0.930 . S
C468 C467 1.390 . S
C468 C469 1.392 . S
C469 H441 0.929 . S
C469 C466 1.391 . S
C469 C468 1.392 . S
N470 Co414 2.257 . S
N470 C467 1.391 . S
N470 C471 1.388 . S
C471 H442 0.930 . S
C471 C466 1.391 . S
C471 N470 1.388 . S
Co472 O474 2.143 . S
Co472 O480 2.074 . S
Co472 O483 2.093 . S
Co472 O496 2.097 . S
Co472 N513 2.151 . S
Co472 N521 2.214 . S
Co473 O474 2.160 . S
Co473 O479 2.058 . S
Co473 O489 2.057 . S
Co473 O504 2.037 . S
Co473 N508 2.145 . S
Co473 N529 2.257 . S
O474 Co472 2.143 . S
O474 Co473 2.160 . S
C475 O476 1.278 . S
C475 O483 1.224 . S
O476 C475 1.278 . S
C477 O478 1.245 . S
C477 O489 1.232 . S
O478 C477 1.245 . S
O479 Co473 2.058 . S
O479 C505 1.269 . S
O480 Co472 2.074 . S
O480 C505 1.257 . S
H481 C506 0.930 . S
H482 C512 0.930 . S
O483 Co472 2.093 . S
O483 C475 1.224 . S
H484 C516 0.927 1_545 S
H485 C518 0.930 . S
H486 C519 0.930 . S
H487 C517 0.929 . S
H488 C520 0.928 . S
O489 Co473 2.057 . S
O489 C477 1.232 . S
H490 C509 0.929 . S
H491 C510 0.929 . S
H492 C522 0.931 . S
H493 C514 0.929 1_545 S
H494 C523 0.930 . S
H495 C515 0.931 . S
O496 Co472 2.097 . S
O496 C524 1.214 . S
H497 C525 0.929 . S
H498 C526 0.929 . S
H499 C527 0.930 . S
H500 C528 0.929 . S
H501 C530 0.930 . S
H502 C507 0.930 . S
H503 C511 0.930 . S
O504 Co473 2.037 . S
O504 C524 1.234 . S
C505 O479 1.269 . S
C505 O480 1.257 . S
C506 H481 0.930 . S
C506 C509 1.388 . S
C506 C511 1.418 . S
C507 H502 0.930 . S
C507 C510 1.404 . S
C507 C511 1.353 . S
N508 Co473 2.145 . S
N508 C509 1.397 . S
N508 C510 1.334 . S
C509 H490 0.929 . S
C509 C506 1.388 . S
C509 N508 1.397 . S
C510 H491 0.929 . S
C510 C507 1.404 . S
C510 N508 1.334 . S
C511 H503 0.930 . S
C511 C506 1.418 . S
C511 C507 1.353 . S
C512 H482 0.930 . S
C512 N513 1.330 . S
C512 C514 1.446 . S
N513 Co472 2.151 . S
N513 C512 1.330 . S
N513 C517 1.418 . S
C514 H493 0.929 1_565 S
C514 C512 1.446 . S
C514 C515 1.332 1_565 S
C515 H495 0.931 . S
C515 C514 1.332 1_545 S
C515 C516 1.267 1_545 S
C516 H484 0.927 1_565 S
C516 C515 1.267 1_565 S
C516 C517 1.251 . S
C517 H487 0.929 . S
C517 N513 1.418 . S
C517 C516 1.251 . S
C518 H485 0.930 . S
C518 C520 1.406 . S
C518 C523 1.261 . S
C519 H486 0.930 . S
C519 N521 1.325 . S
C519 C522 1.357 . S
C520 H488 0.928 . S
C520 C518 1.406 . S
C520 N521 1.261 . S
N521 Co472 2.214 . S
N521 C519 1.325 . S
N521 C520 1.261 . S
C522 H492 0.931 . S
C522 C519 1.357 . S
C522 C523 1.312 . S
C523 H494 0.930 . S
C523 C518 1.261 . S
C523 C522 1.312 . S
C524 O496 1.214 . S
C524 O504 1.234 . S
C525 H497 0.929 . S
C525 C528 1.391 . S
C525 C530 1.391 . S
C526 H498 0.929 . S
C526 C527 1.390 . S
C526 N529 1.391 . S
C527 H499 0.930 . S
C527 C526 1.390 . S
C527 C528 1.392 . S
C528 H500 0.929 . S
C528 C525 1.391 . S
C528 C527 1.392 . S
N529 Co473 2.257 . S
N529 C526 1.391 . S
N529 C530 1.388 . S
C530 H501 0.930 . S
C530 C525 1.391 . S
C530 N529 1.388 . S
Co531 O533 2.143 . S
Co531 O539 2.074 . S
Co531 O542 2.093 . S
Co531 O555 2.097 . S
Co531 N572 2.151 . S
Co531 N580 2.214 . S
Co532 O533 2.160 . S
Co532 O538 2.058 . S
Co532 O548 2.057 . S
Co532 O563 2.037 . S
Co532 N567 2.145 . S
Co532 N588 2.257 . S
O533 Co531 2.143 . S
O533 Co532 2.160 . S
C534 O535 1.278 . S
C534 O542 1.224 . S
O535 C534 1.278 . S
C536 O537 1.245 . S
C536 O548 1.232 . S
O537 C536 1.245 . S
O538 Co532 2.058 . S
O538 C564 1.269 . S
O539 Co531 2.074 . S
O539 C564 1.257 . S
H540 C565 0.930 . S
H541 C571 0.930 . S
O542 Co531 2.093 . S
O542 C534 1.224 . S
H543 C575 0.929 . S
H544 C577 0.930 . S
H545 C578 0.930 . S
H546 C576 0.929 . S
H547 C579 0.928 . S
O548 Co532 2.057 . S
O548 C536 1.232 . S
H549 C568 0.929 . S
H550 C569 0.929 . S
H551 C581 0.931 . S
H552 C573 0.929 . S
H553 C582 0.930 . S
H554 C574 0.931 . S
O555 Co531 2.097 . S
O555 C583 1.214 . S
H556 C584 0.929 . S
H557 C585 0.929 . S
H558 C586 0.930 . S
H559 C587 0.929 . S
H560 C589 0.930 . S
H561 C566 0.930 . S
H562 C570 0.930 . S
O563 Co532 2.037 . S
O563 C583 1.234 . S
C564 O538 1.269 . S
C564 O539 1.257 . S
C565 H540 0.930 . S
C565 C568 1.388 . S
C565 C570 1.418 . S
C566 H561 0.930 . S
C566 C569 1.404 . S
C566 C570 1.353 . S
N567 Co532 2.145 . S
N567 C568 1.397 . S
N567 C569 1.334 . S
C568 H549 0.929 . S
C568 C565 1.388 . S
C568 N567 1.397 . S
C569 H550 0.929 . S
C569 C566 1.404 . S
C569 N567 1.334 . S
C570 H562 0.930 . S
C570 C565 1.418 . S
C570 C566 1.353 . S
C571 H541 0.930 . S
C571 N572 1.330 . S
C571 C573 1.446 . S
N572 Co531 2.151 . S
N572 C571 1.330 . S
N572 C576 1.418 . S
C573 H552 0.929 . S
C573 C571 1.446 . S
C573 C574 1.332 . S
C574 H554 0.931 . S
C574 C573 1.332 . S
C574 C575 1.267 . S
C575 H543 0.929 . S
C575 C574 1.267 . S
C575 C576 1.251 . S
C576 H546 0.929 . S
C576 N572 1.418 . S
C576 C575 1.251 . S
C577 H544 0.930 . S
C577 C579 1.406 . S
C577 C582 1.261 . S
C578 H545 0.930 . S
C578 N580 1.325 . S
C578 C581 1.357 . S
C579 H547 0.928 . S
C579 C577 1.406 . S
C579 N580 1.261 . S
N580 Co531 2.214 . S
N580 C578 1.325 . S
N580 C579 1.261 . S
C581 H551 0.931 . S
C581 C578 1.357 . S
C581 C582 1.312 . S
C582 H553 0.930 . S
C582 C577 1.261 . S
C582 C581 1.312 . S
C583 O555 1.214 . S
C583 O563 1.234 . S
C584 H556 0.929 . S
C584 C587 1.391 . S
C584 C589 1.391 . S
C585 H557 0.929 . S
C585 C586 1.390 . S
C585 N588 1.391 . S
C586 H558 0.930 . S
C586 C585 1.390 . S
C586 C587 1.392 . S
C587 H559 0.929 . S
C587 C584 1.391 . S
C587 C586 1.392 . S
N588 Co532 2.257 . S
N588 C585 1.391 . S
N588 C589 1.388 . S
C589 H560 0.930 . S
C589 C584 1.391 . S
C589 N588 1.388 . S
Co590 O592 2.143 . S
Co590 O598 2.074 . S
Co590 O601 2.093 . S
Co590 O614 2.097 . S
Co590 N631 2.151 . S
Co590 N639 2.214 . S
Co591 O592 2.160 . S
Co591 O597 2.058 . S
Co591 O607 2.057 . S
Co591 O622 2.037 . S
Co591 N626 2.145 . S
Co591 N647 2.257 . S
O592 Co590 2.143 . S
O592 Co591 2.160 . S
C593 O594 1.278 . S
C593 O601 1.224 . S
O594 C593 1.278 . S
C595 O596 1.245 . S
C595 O607 1.232 . S
O596 C595 1.245 . S
O597 Co591 2.058 . S
O597 C623 1.269 . S
O598 Co590 2.074 . S
O598 C623 1.257 . S
H599 C624 0.930 . S
H600 C630 0.930 . S
O601 Co590 2.093 . S
O601 C593 1.224 . S
H602 C634 0.929 . S
H603 C636 0.930 . S
H604 C637 0.930 . S
H605 C635 0.929 . S
H606 C638 0.928 . S
O607 Co591 2.057 . S
O607 C595 1.232 . S
H608 C627 0.929 . S
H609 C628 0.929 . S
H610 C640 0.931 . S
H611 C632 0.929 . S
H612 C641 0.930 . S
H613 C633 0.931 . S
O614 Co590 2.097 . S
O614 C642 1.214 . S
H615 C643 0.929 . S
H616 C644 0.929 . S
H617 C645 0.930 . S
H618 C646 0.929 . S
H619 C648 0.930 . S
H620 C625 0.930 . S
H621 C629 0.930 . S
O622 Co591 2.037 . S
O622 C642 1.234 . S
C623 O597 1.269 . S
C623 O598 1.257 . S
C624 H599 0.930 . S
C624 C627 1.388 . S
C624 C629 1.418 . S
C625 H620 0.930 . S
C625 C628 1.404 . S
C625 C629 1.353 . S
N626 Co591 2.145 . S
N626 C627 1.397 . S
N626 C628 1.334 . S
C627 H608 0.929 . S
C627 C624 1.388 . S
C627 N626 1.397 . S
C628 H609 0.929 . S
C628 C625 1.404 . S
C628 N626 1.334 . S
C629 H621 0.930 . S
C629 C624 1.418 . S
C629 C625 1.353 . S
C630 H600 0.930 . S
C630 N631 1.330 . S
C630 C632 1.446 . S
N631 Co590 2.151 . S
N631 C630 1.330 . S
N631 C635 1.418 . S
C632 H611 0.929 . S
C632 C630 1.446 . S
C632 C633 1.332 . S
C633 H613 0.931 . S
C633 C632 1.332 . S
C633 C634 1.267 . S
C634 H602 0.929 . S
C634 C633 1.267 . S
C634 C635 1.251 . S
C635 H605 0.929 . S
C635 N631 1.418 . S
C635 C634 1.251 . S
C636 H603 0.930 . S
C636 C638 1.406 . S
C636 C641 1.261 . S
C637 H604 0.930 . S
C637 N639 1.325 . S
C637 C640 1.357 . S
C638 H606 0.928 . S
C638 C636 1.406 . S
C638 N639 1.261 . S
N639 Co590 2.214 . S
N639 C637 1.325 . S
N639 C638 1.261 . S
C640 H610 0.931 . S
C640 C637 1.357 . S
C640 C641 1.312 . S
C641 H612 0.930 . S
C641 C636 1.261 . S
C641 C640 1.312 . S
C642 O614 1.214 . S
C642 O622 1.234 . S
C643 H615 0.929 . S
C643 C646 1.391 . S
C643 C648 1.391 . S
C644 H616 0.929 . S
C644 C645 1.390 . S
C644 N647 1.391 . S
C645 H617 0.930 . S
C645 C644 1.390 . S
C645 C646 1.392 . S
C646 H618 0.929 . S
C646 C643 1.391 . S
C646 C645 1.392 . S
N647 Co591 2.257 . S
N647 C644 1.391 . S
N647 C648 1.388 . S
C648 H619 0.930 . S
C648 C643 1.391 . S
C648 N647 1.388 . S
Co649 O651 2.143 . S
Co649 O657 2.074 . S
Co649 O660 2.093 . S
Co649 O673 2.097 . S
Co649 N690 2.151 . S
Co649 N698 2.214 . S
Co650 O651 2.160 . S
Co650 O656 2.058 . S
Co650 O666 2.057 . S
Co650 O681 2.037 . S
Co650 N685 2.145 . S
Co650 N706 2.257 . S
O651 Co649 2.143 . S
O651 Co650 2.160 . S
C652 O653 1.278 . S
C652 O660 1.224 . S
O653 C652 1.278 . S
C654 O655 1.245 . S
C654 O666 1.232 . S
O655 C654 1.245 . S
O656 Co650 2.058 . S
O656 C682 1.269 . S
O657 Co649 2.074 . S
O657 C682 1.257 . S
H658 C683 0.930 . S
H659 C689 0.930 . S
O660 Co649 2.093 . S
O660 C652 1.224 . S
H661 C693 0.927 1_455 S
H662 C695 0.930 . S
H663 C696 0.930 . S
H664 C694 0.929 . S
H665 C697 0.928 . S
O666 Co650 2.057 . S
O666 C654 1.232 . S
H667 C686 0.929 . S
H668 C687 0.929 . S
H669 C699 0.931 . S
H670 C691 0.929 1_455 S
H671 C700 0.930 . S
H672 C692 0.931 . S
O673 Co649 2.097 . S
O673 C701 1.214 . S
H674 C702 0.929 . S
H675 C703 0.929 . S
H676 C704 0.930 . S
H677 C705 0.929 . S
H678 C707 0.930 . S
H679 C684 0.930 . S
H680 C688 0.930 . S
O681 Co650 2.037 . S
O681 C701 1.234 . S
C682 O656 1.269 . S
C682 O657 1.257 . S
C683 H658 0.930 . S
C683 C686 1.388 . S
C683 C688 1.418 . S
C684 H679 0.930 . S
C684 C687 1.404 . S
C684 C688 1.353 . S
N685 Co650 2.145 . S
N685 C686 1.397 . S
N685 C687 1.334 . S
C686 H667 0.929 . S
C686 C683 1.388 . S
C686 N685 1.397 . S
C687 H668 0.929 . S
C687 C684 1.404 . S
C687 N685 1.334 . S
C688 H680 0.930 . S
C688 C683 1.418 . S
C688 C684 1.353 . S
C689 H659 0.930 . S
C689 N690 1.330 . S
C689 C691 1.446 . S
N690 Co649 2.151 . S
N690 C689 1.330 . S
N690 C694 1.418 . S
C691 H670 0.929 1_655 S
C691 C689 1.446 . S
C691 C692 1.332 1_655 S
C692 H672 0.931 . S
C692 C691 1.332 1_455 S
C692 C693 1.267 1_455 S
C693 H661 0.927 1_655 S
C693 C692 1.267 1_655 S
C693 C694 1.251 . S
C694 H664 0.929 . S
C694 N690 1.418 . S
C694 C693 1.251 . S
C695 H662 0.930 . S
C695 C697 1.406 . S
C695 C700 1.261 . S
C696 H663 0.930 . S
C696 N698 1.325 . S
C696 C699 1.357 . S
C697 H665 0.928 . S
C697 C695 1.406 . S
C697 N698 1.261 . S
N698 Co649 2.214 . S
N698 C696 1.325 . S
N698 C697 1.261 . S
C699 H669 0.931 . S
C699 C696 1.357 . S
C699 C700 1.312 . S
C700 H671 0.930 . S
C700 C695 1.261 . S
C700 C699 1.312 . S
C701 O673 1.214 . S
C701 O681 1.234 . S
C702 H674 0.929 . S
C702 C705 1.391 . S
C702 C707 1.391 . S
C703 H675 0.929 . S
C703 C704 1.390 . S
C703 N706 1.391 . S
C704 H676 0.930 . S
C704 C703 1.390 . S
C704 C705 1.392 . S
C705 H677 0.929 . S
C705 C702 1.391 . S
C705 C704 1.392 . S
N706 Co650 2.257 . S
N706 C703 1.391 . S
N706 C707 1.388 . S
C707 H678 0.930 . S
C707 C702 1.391 . S
C707 N706 1.388 . S
Co708 O710 2.143 . S
Co708 O716 2.074 . S
Co708 O719 2.093 . S
Co708 O732 2.097 . S
Co708 N749 2.151 . S
Co708 N757 2.214 . S
Co709 O710 2.160 . S
Co709 O715 2.058 . S
Co709 O725 2.057 . S
Co709 O740 2.037 . S
Co709 N744 2.145 . S
Co709 N765 2.257 . S
O710 Co708 2.143 . S
O710 Co709 2.160 . S
C711 O712 1.278 . S
C711 O719 1.224 . S
O712 C711 1.278 . S
C713 O714 1.245 . S
C713 O725 1.232 . S
O714 C713 1.245 . S
O715 Co709 2.058 . S
O715 C741 1.269 . S
O716 Co708 2.074 . S
O716 C741 1.257 . S
H717 C742 0.930 . S
H718 C748 0.930 . S
O719 Co708 2.093 . S
O719 C711 1.224 . S
H720 C752 0.929 . S
H721 C754 0.930 . S
H722 C755 0.930 . S
H723 C753 0.929 . S
H724 C756 0.928 . S
O725 Co709 2.057 . S
O725 C713 1.232 . S
H726 C745 0.929 . S
H727 C746 0.929 . S
H728 C758 0.931 . S
H729 C750 0.929 . S
H730 C759 0.930 . S
H731 C751 0.931 . S
O732 Co708 2.097 . S
O732 C760 1.214 . S
H733 C761 0.929 . S
H734 C762 0.929 . S
H735 C763 0.930 . S
H736 C764 0.929 . S
H737 C766 0.930 . S
H738 C743 0.930 . S
H739 C747 0.930 . S
O740 Co709 2.037 . S
O740 C760 1.234 . S
C741 O715 1.269 . S
C741 O716 1.257 . S
C742 H717 0.930 . S
C742 C745 1.388 . S
C742 C747 1.418 . S
C743 H738 0.930 . S
C743 C746 1.404 . S
C743 C747 1.353 . S
N744 Co709 2.145 . S
N744 C745 1.397 . S
N744 C746 1.334 . S
C745 H726 0.929 . S
C745 C742 1.388 . S
C745 N744 1.397 . S
C746 H727 0.929 . S
C746 C743 1.404 . S
C746 N744 1.334 . S
C747 H739 0.930 . S
C747 C742 1.418 . S
C747 C743 1.353 . S
C748 H718 0.930 . S
C748 N749 1.330 . S
C748 C750 1.446 . S
N749 Co708 2.151 . S
N749 C748 1.330 . S
N749 C753 1.418 . S
C750 H729 0.929 . S
C750 C748 1.446 . S
C750 C751 1.332 . S
C751 H731 0.931 . S
C751 C750 1.332 . S
C751 C752 1.267 . S
C752 H720 0.929 . S
C752 C751 1.267 . S
C752 C753 1.251 . S
C753 H723 0.929 . S
C753 N749 1.418 . S
C753 C752 1.251 . S
C754 H721 0.930 . S
C754 C756 1.406 . S
C754 C759 1.261 . S
C755 H722 0.930 . S
C755 N757 1.325 . S
C755 C758 1.357 . S
C756 H724 0.928 . S
C756 C754 1.406 . S
C756 N757 1.261 . S
N757 Co708 2.214 . S
N757 C755 1.325 . S
N757 C756 1.261 . S
C758 H728 0.931 . S
C758 C755 1.357 . S
C758 C759 1.312 . S
C759 H730 0.930 . S
C759 C754 1.261 . S
C759 C758 1.312 . S
C760 O732 1.214 . S
C760 O740 1.234 . S
C761 H733 0.929 . S
C761 C764 1.391 . S
C761 C766 1.391 . S
C762 H734 0.929 . S
C762 C763 1.390 . S
C762 N765 1.391 . S
C763 H735 0.930 . S
C763 C762 1.390 . S
C763 C764 1.392 . S
C764 H736 0.929 . S
C764 C761 1.391 . S
C764 C763 1.392 . S
N765 Co709 2.257 . S
N765 C762 1.391 . S
N765 C766 1.388 . S
C766 H737 0.930 . S
C766 C761 1.391 . S
C766 N765 1.388 . S
Co767 O769 2.143 . S
Co767 O775 2.074 . S
Co767 O778 2.093 . S
Co767 O791 2.097 . S
Co767 N808 2.151 . S
Co767 N816 2.214 . S
Co768 O769 2.160 . S
Co768 O774 2.058 . S
Co768 O784 2.057 . S
Co768 O799 2.037 . S
Co768 N803 2.145 . S
Co768 N824 2.257 . S
O769 Co767 2.143 . S
O769 Co768 2.160 . S
C770 O771 1.278 . S
C770 O778 1.224 . S
O771 C770 1.278 . S
C772 O773 1.245 . S
C772 O784 1.232 . S
O773 C772 1.245 . S
O774 Co768 2.058 . S
O774 C800 1.269 . S
O775 Co767 2.074 . S
O775 C800 1.257 . S
H776 C801 0.930 . S
H777 C807 0.930 . S
O778 Co767 2.093 . S
O778 C770 1.224 . S
H779 C811 0.927 1_455 S
H780 C813 0.930 . S
H781 C814 0.930 . S
H782 C812 0.929 . S
H783 C815 0.928 . S
O784 Co768 2.057 . S
O784 C772 1.232 . S
H785 C804 0.929 . S
H786 C805 0.929 . S
H787 C817 0.931 . S
H788 C809 0.929 1_455 S
H789 C818 0.930 . S
H790 C810 0.931 . S
O791 Co767 2.097 . S
O791 C819 1.214 . S
H792 C820 0.929 . S
H793 C821 0.929 . S
H794 C822 0.930 . S
H795 C823 0.929 . S
H796 C825 0.930 . S
H797 C802 0.930 . S
H798 C806 0.930 . S
O799 Co768 2.037 . S
O799 C819 1.234 . S
C800 O774 1.269 . S
C800 O775 1.257 . S
C801 H776 0.930 . S
C801 C804 1.388 . S
C801 C806 1.418 . S
C802 H797 0.930 . S
C802 C805 1.404 . S
C802 C806 1.353 . S
N803 Co768 2.145 . S
N803 C804 1.397 . S
N803 C805 1.334 . S
C804 H785 0.929 . S
C804 C801 1.388 . S
C804 N803 1.397 . S
C805 H786 0.929 . S
C805 C802 1.404 . S
C805 N803 1.334 . S
C806 H798 0.930 . S
C806 C801 1.418 . S
C806 C802 1.353 . S
C807 H777 0.930 . S
C807 N808 1.330 . S
C807 C809 1.446 . S
N808 Co767 2.151 . S
N808 C807 1.330 . S
N808 C812 1.418 . S
C809 H788 0.929 1_655 S
C809 C807 1.446 . S
C809 C810 1.332 1_655 S
C810 H790 0.931 . S
C810 C809 1.332 1_455 S
C810 C811 1.267 1_455 S
C811 H779 0.927 1_655 S
C811 C810 1.267 1_655 S
C811 C812 1.251 . S
C812 H782 0.929 . S
C812 N808 1.418 . S
C812 C811 1.251 . S
C813 H780 0.930 . S
C813 C815 1.406 . S
C813 C818 1.261 . S
C814 H781 0.930 . S
C814 N816 1.325 . S
C814 C817 1.357 . S
C815 H783 0.928 . S
C815 C813 1.406 . S
C815 N816 1.261 . S
N816 Co767 2.214 . S
N816 C814 1.325 . S
N816 C815 1.261 . S
C817 H787 0.931 . S
C817 C814 1.357 . S
C817 C818 1.312 . S
C818 H789 0.930 . S
C818 C813 1.261 . S
C818 C817 1.312 . S
C819 O791 1.214 . S
C819 O799 1.234 . S
C820 H792 0.929 . S
C820 C823 1.391 . S
C820 C825 1.391 . S
C821 H793 0.929 . S
C821 C822 1.390 . S
C821 N824 1.391 . S
C822 H794 0.930 . S
C822 C821 1.390 . S
C822 C823 1.392 . S
C823 H795 0.929 . S
C823 C820 1.391 . S
C823 C822 1.392 . S
N824 Co768 2.257 . S
N824 C821 1.391 . S
N824 C825 1.388 . S
C825 H796 0.930 . S
C825 C820 1.391 . S
C825 N824 1.388 . S
Co826 O828 2.143 . S
Co826 O834 2.074 . S
Co826 O837 2.093 . S
Co826 O850 2.097 . S
Co826 N867 2.151 . S
Co826 N875 2.214 . S
Co827 O828 2.160 . S
Co827 O833 2.058 . S
Co827 O843 2.057 . S
Co827 O858 2.037 . S
Co827 N862 2.145 . S
Co827 N883 2.257 . S
O828 Co826 2.143 . S
O828 Co827 2.160 . S
C829 O830 1.278 . S
C829 O837 1.224 . S
O830 C829 1.278 . S
C831 O832 1.245 . S
C831 O843 1.232 . S
O832 C831 1.245 . S
O833 Co827 2.058 . S
O833 C859 1.269 . S
O834 Co826 2.074 . S
O834 C859 1.257 . S
H835 C860 0.930 . S
H836 C866 0.930 . S
O837 Co826 2.093 . S
O837 C829 1.224 . S
H838 C870 0.927 1_545 S
H839 C872 0.930 . S
H840 C873 0.930 . S
H841 C871 0.929 . S
H842 C874 0.928 . S
O843 Co827 2.057 . S
O843 C831 1.232 . S
H844 C863 0.929 . S
H845 C864 0.929 . S
H846 C876 0.931 . S
H847 C868 0.929 1_545 S
H848 C877 0.930 . S
H849 C869 0.931 . S
O850 Co826 2.097 . S
O850 C878 1.214 . S
H851 C879 0.929 . S
H852 C880 0.929 . S
H853 C881 0.930 . S
H854 C882 0.929 . S
H855 C884 0.930 . S
H856 C861 0.930 . S
H857 C865 0.930 . S
O858 Co827 2.037 . S
O858 C878 1.234 . S
C859 O833 1.269 . S
C859 O834 1.257 . S
C860 H835 0.930 . S
C860 C863 1.388 . S
C860 C865 1.418 . S
C861 H856 0.930 . S
C861 C864 1.404 . S
C861 C865 1.353 . S
N862 Co827 2.145 . S
N862 C863 1.397 . S
N862 C864 1.334 . S
C863 H844 0.929 . S
C863 C860 1.388 . S
C863 N862 1.397 . S
C864 H845 0.929 . S
C864 C861 1.404 . S
C864 N862 1.334 . S
C865 H857 0.930 . S
C865 C860 1.418 . S
C865 C861 1.353 . S
C866 H836 0.930 . S
C866 N867 1.330 . S
C866 C868 1.446 . S
N867 Co826 2.151 . S
N867 C866 1.330 . S
N867 C871 1.418 . S
C868 H847 0.929 1_565 S
C868 C866 1.446 . S
C868 C869 1.332 1_565 S
C869 H849 0.931 . S
C869 C868 1.332 1_545 S
C869 C870 1.267 1_545 S
C870 H838 0.927 1_565 S
C870 C869 1.267 1_565 S
C870 C871 1.251 . S
C871 H841 0.929 . S
C871 N867 1.418 . S
C871 C870 1.251 . S
C872 H839 0.930 . S
C872 C874 1.406 . S
C872 C877 1.261 . S
C873 H840 0.930 . S
C873 N875 1.325 . S
C873 C876 1.357 . S
C874 H842 0.928 . S
C874 C872 1.406 . S
C874 N875 1.261 . S
N875 Co826 2.214 . S
N875 C873 1.325 . S
N875 C874 1.261 . S
C876 H846 0.931 . S
C876 C873 1.357 . S
C876 C877 1.312 . S
C877 H848 0.930 . S
C877 C872 1.261 . S
C877 C876 1.312 . S
C878 O850 1.214 . S
C878 O858 1.234 . S
C879 H851 0.929 . S
C879 C882 1.391 . S
C879 C884 1.391 . S
C880 H852 0.929 . S
C880 C881 1.390 . S
C880 N883 1.391 . S
C881 H853 0.930 . S
C881 C880 1.390 . S
C881 C882 1.392 . S
C882 H854 0.929 . S
C882 C879 1.391 . S
C882 C881 1.392 . S
N883 Co827 2.257 . S
N883 C880 1.391 . S
N883 C884 1.388 . S
C884 H855 0.930 . S
C884 C879 1.391 . S
C884 N883 1.388 . S
Co885 O887 2.143 . S
Co885 O893 2.074 . S
Co885 O896 2.093 . S
Co885 O909 2.097 . S
Co885 N926 2.151 . S
Co885 N934 2.214 . S
Co886 O887 2.160 . S
Co886 O892 2.058 . S
Co886 O902 2.057 . S
Co886 O917 2.037 . S
Co886 N921 2.145 . S
Co886 N942 2.257 . S
O887 Co885 2.143 . S
O887 Co886 2.160 . S
C888 O889 1.278 . S
C888 O896 1.224 . S
O889 C888 1.278 . S
C890 O891 1.245 . S
C890 O902 1.232 . S
O891 C890 1.245 . S
O892 Co886 2.058 . S
O892 C918 1.269 . S
O893 Co885 2.074 . S
O893 C918 1.257 . S
H894 C919 0.930 . S
H895 C925 0.930 . S
O896 Co885 2.093 . S
O896 C888 1.224 . S
H897 C929 0.929 . S
H898 C931 0.930 . S
H899 C932 0.930 . S
H900 C930 0.929 . S
H901 C933 0.928 . S
O902 Co886 2.057 . S
O902 C890 1.232 . S
H903 C922 0.929 . S
H904 C923 0.929 . S
H905 C935 0.931 . S
H906 C927 0.929 . S
H907 C936 0.930 . S
H908 C928 0.931 . S
O909 Co885 2.097 . S
O909 C937 1.214 . S
H910 C938 0.929 . S
H911 C939 0.929 . S
H912 C940 0.930 . S
H913 C941 0.929 . S
H914 C943 0.930 . S
H915 C920 0.930 . S
H916 C924 0.930 . S
O917 Co886 2.037 . S
O917 C937 1.234 . S
C918 O892 1.269 . S
C918 O893 1.257 . S
C919 H894 0.930 . S
C919 C922 1.388 . S
C919 C924 1.418 . S
C920 H915 0.930 . S
C920 C923 1.404 . S
C920 C924 1.353 . S
N921 Co886 2.145 . S
N921 C922 1.397 . S
N921 C923 1.334 . S
C922 H903 0.929 . S
C922 C919 1.388 . S
C922 N921 1.397 . S
C923 H904 0.929 . S
C923 C920 1.404 . S
C923 N921 1.334 . S
C924 H916 0.930 . S
C924 C919 1.418 . S
C924 C920 1.353 . S
C925 H895 0.930 . S
C925 N926 1.330 . S
C925 C927 1.446 . S
N926 Co885 2.151 . S
N926 C925 1.330 . S
N926 C930 1.418 . S
C927 H906 0.929 . S
C927 C925 1.446 . S
C927 C928 1.332 . S
C928 H908 0.931 . S
C928 C927 1.332 . S
C928 C929 1.267 . S
C929 H897 0.929 . S
C929 C928 1.267 . S
C929 C930 1.251 . S
C930 H900 0.929 . S
C930 N926 1.418 . S
C930 C929 1.251 . S
C931 H898 0.930 . S
C931 C933 1.406 . S
C931 C936 1.261 . S
C932 H899 0.930 . S
C932 N934 1.325 . S
C932 C935 1.357 . S
C933 H901 0.928 . S
C933 C931 1.406 . S
C933 N934 1.261 . S
N934 Co885 2.214 . S
N934 C932 1.325 . S
N934 C933 1.261 . S
C935 H905 0.931 . S
C935 C932 1.357 . S
C935 C936 1.312 . S
C936 H907 0.930 . S
C936 C931 1.261 . S
C936 C935 1.312 . S
C937 O909 1.214 . S
C937 O917 1.234 . S
C938 H910 0.929 . S
C938 C941 1.391 . S
C938 C943 1.391 . S
C939 H911 0.929 . S
C939 C940 1.390 . S
C939 N942 1.391 . S
C940 H912 0.930 . S
C940 C939 1.390 . S
C940 C941 1.392 . S
C941 H913 0.929 . S
C941 C938 1.391 . S
C941 C940 1.392 . S
N942 Co886 2.257 . S
N942 C939 1.391 . S
N942 C943 1.388 . S
C943 H914 0.930 . S
C943 C938 1.391 . S
C943 N942 1.388 . S
H944 C950 0.930 . S
H945 C954 0.930 . S
H946 C959 0.929 . S
H947 C957 0.929 . S
H948 C952 0.950 . S
H949 C958 0.950 . S
C950 H944 0.930 . S
C950 C951 1.367 . S
C950 C958 1.378 . S
C951 C950 1.367 . S
C951 C959 1.433 . S
C952 H948 0.950 . S
C952 C954 1.378 . S
C952 C956 1.350 . S
C953 C956 1.463 1_556 S
C953 C958 1.350 . S
C953 N961 1.427 . S
C954 H945 0.930 . S
C954 C952 1.378 . S
C954 C955 1.367 . S
C955 C954 1.367 . S
C955 C957 1.433 . S
C956 C952 1.350 . S
C956 C953 1.463 1_554 S
C956 N960 1.427 . S
C957 H947 0.929 . S
C957 C955 1.433 . S
C957 N960 1.384 . S
C958 H949 0.950 . S
C958 C950 1.378 . S
C958 C953 1.350 . S
C959 H946 0.929 . S
C959 C951 1.433 . S
C959 N961 1.384 . S
N960 C956 1.427 . S
N960 C957 1.384 . S
N961 C953 1.427 . S
N961 C959 1.384 . S
H962 C968 0.930 . S
H963 C972 0.930 . S
H964 C977 0.929 . S
H965 C975 0.929 . S
H966 C970 0.929 . S
H967 C976 0.929 . S
C968 H962 0.930 . S
C968 C969 1.367 . S
C968 C976 1.378 . S
C969 C968 1.367 . S
C969 C977 1.433 . S
C970 H966 0.929 . S
C970 C972 1.378 . S
C970 C974 1.350 . S
C971 C974 1.463 . S
C971 C976 1.350 . S
C971 N979 1.427 . S
C972 H963 0.930 . S
C972 C970 1.378 . S
C972 C973 1.367 . S
C973 C972 1.367 . S
C973 C975 1.433 . S
C974 C970 1.350 . S
C974 C971 1.463 . S
C974 N978 1.427 . S
C975 H965 0.929 . S
C975 C973 1.433 . S
C975 N978 1.384 . S
C976 H967 0.929 . S
C976 C968 1.378 . S
C976 C971 1.350 . S
C977 H964 0.929 . S
C977 C969 1.433 . S
C977 N979 1.384 . S
N978 C974 1.427 . S
N978 C975 1.384 . S
N979 C971 1.427 . S
N979 C977 1.384 . S
H980 C986 0.930 . S
H981 C990 0.930 . S
H982 C995 0.929 . S
H983 C993 0.929 . S
H984 C988 0.929 . S
H985 C994 0.929 . S
C986 H980 0.930 . S
C986 C987 1.367 . S
C986 C994 1.378 . S
C987 C986 1.367 . S
C987 C995 1.433 . S
C988 H984 0.929 . S
C988 C990 1.378 . S
C988 C992 1.350 . S
C989 C992 1.463 1_556 S
C989 C994 1.350 . S
C989 N997 1.427 . S
C990 H981 0.930 . S
C990 C988 1.378 . S
C990 C991 1.367 . S
C991 C990 1.367 . S
C991 C993 1.433 . S
C992 C988 1.350 . S
C992 C989 1.463 1_554 S
C992 N996 1.427 . S
C993 H983 0.929 . S
C993 C991 1.433 . S
C993 N996 1.384 . S
C994 H985 0.929 . S
C994 C986 1.378 . S
C994 C989 1.350 . S
C995 H982 0.929 . S
C995 C987 1.433 . S
C995 N997 1.384 . S
N996 C992 1.427 . S
N996 C993 1.384 . S
N997 C989 1.427 . S
N997 C995 1.384 . S
H998 C1004 0.930 . S
H999 C1008 0.930 . S
H1000 C1013 0.929 . S
H1001 C1011 0.929 . S
H1002 C1006 0.929 . S
H1003 C1012 0.929 . S
C1004 H998 0.930 . S
C1004 C1005 1.367 . S
C1004 C1012 1.378 . S
C1005 C1004 1.367 . S
C1005 C1013 1.433 . S
C1006 H1002 0.929 . S
C1006 C1008 1.378 . S
C1006 C1010 1.350 . S
C1007 C1010 1.463 . S
C1007 C1012 1.350 . S
C1007 N1015 1.427 . S
C1008 H999 0.930 . S
C1008 C1006 1.378 . S
C1008 C1009 1.367 . S
C1009 C1008 1.367 . S
C1009 C1011 1.433 . S
C1010 C1006 1.350 . S
C1010 C1007 1.463 . S
C1010 N1014 1.427 . S
C1011 H1001 0.929 . S
C1011 C1009 1.433 . S
C1011 N1014 1.384 . S
C1012 H1003 0.929 . S
C1012 C1004 1.378 . S
C1012 C1007 1.350 . S
C1013 H1000 0.929 . S
C1013 C1005 1.433 . S
C1013 N1015 1.384 . S
N1014 C1010 1.427 . S
N1014 C1011 1.384 . S
N1015 C1007 1.427 . S
N1015 C1013 1.384 . S
H1016 C1022 0.930 . S
H1017 C1026 0.930 . S
H1018 C1031 0.929 . S
H1019 C1029 0.929 . S
H1020 C1024 0.929 1_554 S
H1021 C1030 0.929 1_556 S
C1022 H1016 0.930 . S
C1022 C1023 1.367 . S
C1022 C1030 1.378 . S
C1023 C1022 1.367 . S
C1023 C1031 1.433 . S
C1024 H1020 0.929 1_556 S
C1024 C1026 1.378 . S
C1024 C1028 1.350 . S
C1025 C1028 1.463 1_554 S
C1025 C1030 1.350 . S
C1025 N1033 1.427 . S
C1026 H1017 0.930 . S
C1026 C1024 1.378 . S
C1026 C1027 1.367 . S
C1027 C1026 1.367 . S
C1027 C1029 1.433 . S
C1028 C1024 1.350 . S
C1028 C1025 1.463 1_556 S
C1028 N1032 1.427 . S
C1029 H1019 0.929 . S
C1029 C1027 1.433 . S
C1029 N1032 1.384 . S
C1030 H1021 0.929 1_554 S
C1030 C1022 1.378 . S
C1030 C1025 1.350 . S
C1031 H1018 0.929 . S
C1031 C1023 1.433 . S
C1031 N1033 1.384 . S
N1032 C1028 1.427 . S
N1032 C1029 1.384 . S
N1033 C1025 1.427 . S
N1033 C1031 1.384 . S
H1034 C1040 0.930 . S
H1035 C1044 0.930 . S
H1036 C1049 0.929 . S
H1037 C1047 0.929 . S
H1038 C1042 0.929 . S
H1039 C1048 0.929 . S
C1040 H1034 0.930 . S
C1040 C1041 1.367 . S
C1040 C1048 1.378 . S
C1041 C1040 1.367 . S
C1041 C1049 1.433 . S
C1042 H1038 0.929 . S
C1042 C1044 1.378 . S
C1042 C1046 1.350 . S
C1043 C1046 1.463 . S
C1043 C1048 1.350 . S
C1043 N1051 1.427 . S
C1044 H1035 0.930 . S
C1044 C1042 1.378 . S
C1044 C1045 1.367 . S
C1045 C1044 1.367 . S
C1045 C1047 1.433 . S
C1046 C1042 1.350 . S
C1046 C1043 1.463 . S
C1046 N1050 1.427 . S
C1047 H1037 0.929 . S
C1047 C1045 1.433 . S
C1047 N1050 1.384 . S
C1048 H1039 0.929 . S
C1048 C1040 1.378 . S
C1048 C1043 1.350 . S
C1049 H1036 0.929 . S
C1049 C1041 1.433 . S
C1049 N1051 1.384 . S
N1050 C1046 1.427 . S
N1050 C1047 1.384 . S
N1051 C1043 1.427 . S
N1051 C1049 1.384 . S
H1052 C1058 0.930 . S
H1053 C1062 0.930 . S
H1054 C1067 0.929 . S
H1055 C1065 0.929 . S
H1056 C1060 0.929 . S
H1057 C1066 0.929 . S
C1058 H1052 0.930 . S
C1058 C1059 1.367 . S
C1058 C1066 1.378 . S
C1059 C1058 1.367 . S
C1059 C1067 1.433 . S
C1060 H1056 0.929 . S
C1060 C1062 1.378 . S
C1060 C1064 1.350 . S
C1061 C1064 1.463 1_556 S
C1061 C1066 1.350 . S
C1061 N1069 1.427 . S
C1062 H1053 0.930 . S
C1062 C1060 1.378 . S
C1062 C1063 1.367 . S
C1063 C1062 1.367 . S
C1063 C1065 1.433 . S
C1064 C1060 1.350 . S
C1064 C1061 1.463 1_554 S
C1064 N1068 1.427 . S
C1065 H1055 0.929 . S
C1065 C1063 1.433 . S
C1065 N1068 1.384 . S
C1066 H1057 0.929 . S
C1066 C1058 1.378 . S
C1066 C1061 1.350 . S
C1067 H1054 0.929 . S
C1067 C1059 1.433 . S
C1067 N1069 1.384 . S
N1068 C1064 1.427 . S
N1068 C1065 1.384 . S
N1069 C1061 1.427 . S
N1069 C1067 1.384 . S
H1070 C1076 0.930 . S
H1071 C1080 0.930 . S
H1072 C1085 0.929 . S
H1073 C1083 0.929 . S
H1074 C1078 0.929 . S
H1075 C1084 0.929 . S
C1076 H1070 0.930 . S
C1076 C1077 1.367 . S
C1076 C1084 1.378 . S
C1077 C1076 1.367 . S
C1077 C1085 1.433 . S
C1078 H1074 0.929 . S
C1078 C1080 1.378 . S
C1078 C1082 1.350 . S
C1079 C1082 1.463 . S
C1079 C1084 1.350 . S
C1079 N1087 1.427 . S
C1080 H1071 0.930 . S
C1080 C1078 1.378 . S
C1080 C1081 1.367 . S
C1081 C1080 1.367 . S
C1081 C1083 1.433 . S
C1082 C1078 1.350 . S
C1082 C1079 1.463 . S
C1082 N1086 1.427 . S
C1083 H1073 0.929 . S
C1083 C1081 1.433 . S
C1083 N1086 1.384 . S
C1084 H1075 0.929 . S
C1084 C1076 1.378 . S
C1084 C1079 1.350 . S
C1085 H1072 0.929 . S
C1085 C1077 1.433 . S
C1085 N1087 1.384 . S
N1086 C1082 1.427 . S
N1086 C1083 1.384 . S
N1087 C1079 1.427 . S
N1087 C1085 1.384 . S
H1088 C1094 0.930 . S
H1089 C1098 0.930 . S
H1090 C1103 0.929 . S
H1091 C1101 0.929 . S
H1092 C1096 0.929 . S
H1093 C1102 0.929 . S
C1094 H1088 0.930 . S
C1094 C1095 1.367 . S
C1094 C1102 1.378 . S
C1095 C1094 1.367 . S
C1095 C1103 1.433 . S
C1096 H1092 0.929 . S
C1096 C1098 1.378 . S
C1096 C1100 1.350 . S
C1097 C1100 1.463 . S
C1097 C1102 1.350 . S
C1097 N1105 1.427 . S
C1098 H1089 0.930 . S
C1098 C1096 1.378 . S
C1098 C1099 1.367 . S
C1099 C1098 1.367 . S
C1099 C1101 1.433 . S
C1100 C1096 1.350 . S
C1100 C1097 1.463 . S
C1100 N1104 1.427 . S
C1101 H1091 0.929 . S
C1101 C1099 1.433 . S
C1101 N1104 1.384 . S
C1102 H1093 0.929 . S
C1102 C1094 1.378 . S
C1102 C1097 1.350 . S
C1103 H1090 0.929 . S
C1103 C1095 1.433 . S
C1103 N1105 1.384 . S
N1104 C1100 1.427 . S
N1104 C1101 1.384 . S
N1105 C1097 1.427 . S
N1105 C1103 1.384 . S
H1106 C1112 0.930 . S
H1107 C1116 0.930 . S
H1108 C1121 0.929 . S
H1109 C1119 0.929 . S
H1110 C1114 0.929 . S
H1111 C1120 0.929 . S
C1112 H1106 0.930 . S
C1112 C1113 1.367 . S
C1112 C1120 1.378 . S
C1113 C1112 1.367 . S
C1113 C1121 1.433 . S
C1114 H1110 0.929 . S
C1114 C1116 1.378 . S
C1114 C1118 1.350 . S
C1115 C1118 1.463 . S
C1115 C1120 1.350 . S
C1115 N1123 1.427 . S
C1116 H1107 0.930 . S
C1116 C1114 1.378 . S
C1116 C1117 1.367 . S
C1117 C1116 1.367 . S
C1117 C1119 1.433 . S
C1118 C1114 1.350 . S
C1118 C1115 1.463 . S
C1118 N1122 1.427 . S
C1119 H1109 0.929 . S
C1119 C1117 1.433 . S
C1119 N1122 1.384 . S
C1120 H1111 0.929 . S
C1120 C1112 1.378 . S
C1120 C1115 1.350 . S
C1121 H1108 0.929 . S
C1121 C1113 1.433 . S
C1121 N1123 1.384 . S
N1122 C1118 1.427 . S
N1122 C1119 1.384 . S
N1123 C1115 1.427 . S
N1123 C1121 1.384 . S
H1124 C1130 0.930 . S
H1125 C1134 0.930 . S
H1126 C1139 0.929 . S
H1127 C1137 0.929 . S
H1128 C1132 0.929 . S
H1129 C1138 0.929 . S
C1130 H1124 0.930 . S
C1130 C1131 1.367 . S
C1130 C1138 1.378 . S
C1131 C1130 1.367 . S
C1131 C1139 1.433 . S
C1132 H1128 0.929 . S
C1132 C1134 1.378 . S
C1132 C1136 1.350 . S
C1133 C1136 1.463 . S
C1133 C1138 1.350 . S
C1133 N1141 1.427 . S
C1134 H1125 0.930 . S
C1134 C1132 1.378 . S
C1134 C1135 1.367 . S
C1135 C1134 1.367 . S
C1135 C1137 1.433 . S
C1136 C1132 1.350 . S
C1136 C1133 1.463 . S
C1136 N1140 1.427 . S
C1137 H1127 0.929 . S
C1137 C1135 1.433 . S
C1137 N1140 1.384 . S
C1138 H1129 0.929 . S
C1138 C1130 1.378 . S
C1138 C1133 1.350 . S
C1139 H1126 0.929 . S
C1139 C1131 1.433 . S
C1139 N1141 1.384 . S
N1140 C1136 1.427 . S
N1140 C1137 1.384 . S
N1141 C1133 1.427 . S
N1141 C1139 1.384 . S
H1142 C1148 0.930 . S
H1143 C1152 0.930 . S
H1144 C1157 0.929 . S
H1145 C1155 0.929 . S
H1146 C1150 0.929 . S
H1147 C1156 0.929 . S
C1148 H1142 0.930 . S
C1148 C1149 1.367 . S
C1148 C1156 1.378 . S
C1149 C1148 1.367 . S
C1149 C1157 1.433 . S
C1150 H1146 0.929 . S
C1150 C1152 1.378 . S
C1150 C1154 1.350 . S
C1151 C1154 1.463 . S
C1151 C1156 1.350 . S
C1151 N1159 1.427 . S
C1152 H1143 0.930 . S
C1152 C1150 1.378 . S
C1152 C1153 1.367 . S
C1153 C1152 1.367 . S
C1153 C1155 1.433 . S
C1154 C1150 1.350 . S
C1154 C1151 1.463 . S
C1154 N1158 1.427 . S
C1155 H1145 0.929 . S
C1155 C1153 1.433 . S
C1155 N1158 1.384 . S
C1156 H1147 0.929 . S
C1156 C1148 1.378 . S
C1156 C1151 1.350 . S
C1157 H1144 0.929 . S
C1157 C1149 1.433 . S
C1157 N1159 1.384 . S
N1158 C1154 1.427 . S
N1158 C1155 1.384 . S
N1159 C1151 1.427 . S
N1159 C1157 1.384 . S
H1160 C1166 0.930 . S
H1161 C1170 0.930 . S
H1162 C1175 0.929 . S
H1163 C1173 0.929 . S
H1164 C1168 0.929 . S
H1165 C1174 0.929 . S
C1166 H1160 0.930 . S
C1166 C1167 1.367 . S
C1166 C1174 1.378 . S
C1167 C1166 1.367 . S
C1167 C1175 1.433 . S
C1168 H1164 0.929 . S
C1168 C1170 1.378 . S
C1168 C1172 1.350 . S
C1169 C1172 1.463 . S
C1169 C1174 1.350 . S
C1169 N1177 1.427 . S
C1170 H1161 0.930 . S
C1170 C1168 1.378 . S
C1170 C1171 1.367 . S
C1171 C1170 1.367 . S
C1171 C1173 1.433 . S
C1172 C1168 1.350 . S
C1172 C1169 1.463 . S
C1172 N1176 1.427 . S
C1173 H1163 0.929 . S
C1173 C1171 1.433 . S
C1173 N1176 1.384 . S
C1174 H1165 0.929 . S
C1174 C1166 1.378 . S
C1174 C1169 1.350 . S
C1175 H1162 0.929 . S
C1175 C1167 1.433 . S
C1175 N1177 1.384 . S
N1176 C1172 1.427 . S
N1176 C1173 1.384 . S
N1177 C1169 1.427 . S
N1177 C1175 1.384 . S
H1178 C1184 0.930 . S
H1179 C1188 0.930 . S
H1180 C1193 0.929 . S
H1181 C1191 0.929 . S
H1182 C1186 0.929 . S
H1183 C1192 0.929 . S
C1184 H1178 0.930 . S
C1184 C1185 1.367 . S
C1184 C1192 1.378 . S
C1185 C1184 1.367 . S
C1185 C1193 1.433 . S
C1186 H1182 0.929 . S
C1186 C1188 1.378 . S
C1186 C1190 1.350 . S
C1187 C1190 1.463 . S
C1187 C1192 1.350 . S
C1187 N1195 1.427 . S
C1188 H1179 0.930 . S
C1188 C1186 1.378 . S
C1188 C1189 1.367 . S
C1189 C1188 1.367 . S
C1189 C1191 1.433 . S
C1190 C1186 1.350 . S
C1190 C1187 1.463 . S
C1190 N1194 1.427 . S
C1191 H1181 0.929 . S
C1191 C1189 1.433 . S
C1191 N1194 1.384 . S
C1192 H1183 0.929 . S
C1192 C1184 1.378 . S
C1192 C1187 1.350 . S
C1193 H1180 0.929 . S
C1193 C1185 1.433 . S
C1193 N1195 1.384 . S
N1194 C1190 1.427 . S
N1194 C1191 1.384 . S
N1195 C1187 1.427 . S
N1195 C1193 1.384 . S
H1196 C1202 0.930 . S
H1197 C1206 0.930 . S
H1198 C1211 0.929 . S
H1199 C1209 0.929 . S
H1200 C1204 0.929 . S
H1201 C1210 0.929 . S
C1202 H1196 0.930 . S
C1202 C1203 1.367 . S
C1202 C1210 1.378 . S
C1203 C1202 1.367 . S
C1203 C1211 1.433 . S
C1204 H1200 0.929 . S
C1204 C1206 1.378 . S
C1204 C1208 1.350 . S
C1205 C1208 1.463 . S
C1205 C1210 1.350 . S
C1205 N1213 1.427 . S
C1206 H1197 0.930 . S
C1206 C1204 1.378 . S
C1206 C1207 1.367 . S
C1207 C1206 1.367 . S
C1207 C1209 1.433 . S
C1208 C1204 1.350 . S
C1208 C1205 1.463 . S
C1208 N1212 1.427 . S
C1209 H1199 0.929 . S
C1209 C1207 1.433 . S
C1209 N1212 1.384 . S
C1210 H1201 0.929 . S
C1210 C1202 1.378 . S
C1210 C1205 1.350 . S
C1211 H1198 0.929 . S
C1211 C1203 1.433 . S
C1211 N1213 1.384 . S
N1212 C1208 1.427 . S
N1212 C1209 1.384 . S
N1213 C1205 1.427 . S
N1213 C1211 1.384 . S
H1214 C1220 0.930 . S
H1215 C1224 0.930 . S
H1216 C1229 0.929 . S
H1217 C1227 0.929 . S
H1218 C1222 0.929 . S
H1219 C1228 0.929 . S
C1220 H1214 0.930 . S
C1220 C1221 1.367 . S
C1220 C1228 1.378 . S
C1221 C1220 1.367 . S
C1221 C1229 1.433 . S
C1222 H1218 0.929 . S
C1222 C1224 1.378 . S
C1222 C1226 1.350 . S
C1223 C1226 1.463 . S
C1223 C1228 1.350 . S
C1223 N1231 1.427 . S
C1224 H1215 0.930 . S
C1224 C1222 1.378 . S
C1224 C1225 1.367 . S
C1225 C1224 1.367 . S
C1225 C1227 1.433 . S
C1226 C1222 1.350 . S
C1226 C1223 1.463 . S
C1226 N1230 1.427 . S
C1227 H1217 0.929 . S
C1227 C1225 1.433 . S
C1227 N1230 1.384 . S
C1228 H1219 0.929 . S
C1228 C1220 1.378 . S
C1228 C1223 1.350 . S
C1229 H1216 0.929 . S
C1229 C1221 1.433 . S
C1229 N1231 1.384 . S
N1230 C1226 1.427 . S
N1230 C1227 1.384 . S
N1231 C1223 1.427 . S
N1231 C1229 1.384 . S
H1232 C1238 0.930 . S
H1233 C1242 0.930 . S
H1234 C1247 0.929 . S
H1235 C1245 0.929 . S
H1236 C1240 0.929 . S
H1237 C1246 0.929 . S
C1238 H1232 0.930 . S
C1238 C1239 1.367 . S
C1238 C1246 1.378 . S
C1239 C1238 1.367 . S
C1239 C1247 1.433 . S
C1240 H1236 0.929 . S
C1240 C1242 1.378 . S
C1240 C1244 1.350 . S
C1241 C1244 1.463 . S
C1241 C1246 1.350 . S
C1241 N1249 1.427 . S
C1242 H1233 0.930 . S
C1242 C1240 1.378 . S
C1242 C1243 1.367 . S
C1243 C1242 1.367 . S
C1243 C1245 1.433 . S
C1244 C1240 1.350 . S
C1244 C1241 1.463 . S
C1244 N1248 1.427 . S
C1245 H1235 0.929 . S
C1245 C1243 1.433 . S
C1245 N1248 1.384 . S
C1246 H1237 0.929 . S
C1246 C1238 1.378 . S
C1246 C1241 1.350 . S
C1247 H1234 0.929 . S
C1247 C1239 1.433 . S
C1247 N1249 1.384 . S
N1248 C1244 1.427 . S
N1248 C1245 1.384 . S
N1249 C1241 1.427 . S
N1249 C1247 1.384 . S
H1250 C1256 0.930 . S
H1251 C1260 0.930 . S
H1252 C1265 0.929 . S
H1253 C1263 0.929 . S
H1254 C1258 0.929 . S
H1255 C1264 0.929 . S
C1256 H1250 0.930 . S
C1256 C1257 1.367 . S
C1256 C1264 1.378 . S
C1257 C1256 1.367 . S
C1257 C1265 1.433 . S
C1258 H1254 0.929 . S
C1258 C1260 1.378 . S
C1258 C1262 1.350 . S
C1259 C1262 1.463 . S
C1259 C1264 1.350 . S
C1259 N1267 1.427 . S
C1260 H1251 0.930 . S
C1260 C1258 1.378 . S
C1260 C1261 1.367 . S
C1261 C1260 1.367 . S
C1261 C1263 1.433 . S
C1262 C1258 1.350 . S
C1262 C1259 1.463 . S
C1262 N1266 1.427 . S
C1263 H1253 0.929 . S
C1263 C1261 1.433 . S
C1263 N1266 1.384 . S
C1264 H1255 0.929 . S
C1264 C1256 1.378 . S
C1264 C1259 1.350 . S
C1265 H1252 0.929 . S
C1265 C1257 1.433 . S
C1265 N1267 1.384 . S
N1266 C1262 1.427 . S
N1266 C1263 1.384 . S
N1267 C1259 1.427 . S
N1267 C1265 1.384 . S
H1268 C1274 0.930 . S
H1269 C1278 0.930 . S
H1270 C1283 0.929 . S
H1271 C1281 0.929 . S
H1272 C1276 0.929 . S
H1273 C1282 0.929 . S
C1274 H1268 0.930 . S
C1274 C1275 1.367 . S
C1274 C1282 1.378 . S
C1275 C1274 1.367 . S
C1275 C1283 1.433 . S
C1276 H1272 0.929 . S
C1276 C1278 1.378 . S
C1276 C1280 1.350 . S
C1277 C1280 1.463 . S
C1277 C1282 1.350 . S
C1277 N1285 1.427 . S
C1278 H1269 0.930 . S
C1278 C1276 1.378 . S
C1278 C1279 1.367 . S
C1279 C1278 1.367 . S
C1279 C1281 1.433 . S
C1280 C1276 1.350 . S
C1280 C1277 1.463 . S
C1280 N1284 1.427 . S
C1281 H1271 0.929 . S
C1281 C1279 1.433 . S
C1281 N1284 1.384 . S
C1282 H1273 0.929 . S
C1282 C1274 1.378 . S
C1282 C1277 1.350 . S
C1283 H1270 0.929 . S
C1283 C1275 1.433 . S
C1283 N1285 1.384 . S
N1284 C1280 1.427 . S
N1284 C1281 1.384 . S
N1285 C1277 1.427 . S
N1285 C1283 1.384 . S
H1286 C1292 0.930 . S
H1287 C1296 0.930 . S
H1288 C1301 0.929 . S
H1289 C1299 0.929 . S
H1290 C1294 0.929 . S
H1291 C1300 0.929 . S
C1292 H1286 0.930 . S
C1292 C1293 1.367 . S
C1292 C1300 1.378 . S
C1293 C1292 1.367 . S
C1293 C1301 1.433 . S
C1294 H1290 0.929 . S
C1294 C1296 1.378 . S
C1294 C1298 1.350 . S
C1295 C1298 1.463 . S
C1295 C1300 1.350 . S
C1295 N1303 1.427 . S
C1296 H1287 0.930 . S
C1296 C1294 1.378 . S
C1296 C1297 1.367 . S
C1297 C1296 1.367 . S
C1297 C1299 1.433 . S
C1298 C1294 1.350 . S
C1298 C1295 1.463 . S
C1298 N1302 1.427 . S
C1299 H1289 0.929 . S
C1299 C1297 1.433 . S
C1299 N1302 1.384 . S
C1300 H1291 0.929 . S
C1300 C1292 1.378 . S
C1300 C1295 1.350 . S
C1301 H1288 0.929 . S
C1301 C1293 1.433 . S
C1301 N1303 1.384 . S
N1302 C1298 1.427 . S
N1302 C1299 1.384 . S
N1303 C1295 1.427 . S
N1303 C1301 1.384 . S
H1304 C1310 0.930 . S
H1305 C1314 0.930 . S
H1306 C1319 0.929 . S
H1307 C1317 0.929 . S
H1308 C1312 0.929 . S
H1309 C1318 0.929 . S
C1310 H1304 0.930 . S
C1310 C1311 1.367 . S
C1310 C1318 1.378 . S
C1311 C1310 1.367 . S
C1311 C1319 1.433 . S
C1312 H1308 0.929 . S
C1312 C1314 1.378 . S
C1312 C1316 1.350 . S
C1313 C1316 1.463 . S
C1313 C1318 1.350 . S
C1313 N1321 1.427 . S
C1314 H1305 0.930 . S
C1314 C1312 1.378 . S
C1314 C1315 1.367 . S
C1315 C1314 1.367 . S
C1315 C1317 1.433 . S
C1316 C1312 1.350 . S
C1316 C1313 1.463 . S
C1316 N1320 1.427 . S
C1317 H1307 0.929 . S
C1317 C1315 1.433 . S
C1317 N1320 1.384 . S
C1318 H1309 0.929 . S
C1318 C1310 1.378 . S
C1318 C1313 1.350 . S
C1319 H1306 0.929 . S
C1319 C1311 1.433 . S
C1319 N1321 1.384 . S
N1320 C1316 1.427 . S
N1320 C1317 1.384 . S
N1321 C1313 1.427 . S
N1321 C1319 1.384 . S
H1322 C1328 0.930 . S
H1323 C1332 0.930 . S
H1324 C1337 0.929 . S
H1325 C1335 0.929 . S
H1326 C1330 0.929 . S
H1327 C1336 0.929 . S
C1328 H1322 0.930 . S
C1328 C1329 1.367 . S
C1328 C1336 1.378 . S
C1329 C1328 1.367 . S
C1329 C1337 1.433 . S
C1330 H1326 0.929 . S
C1330 C1332 1.378 . S
C1330 C1334 1.350 . S
C1331 C1334 1.463 . S
C1331 C1336 1.350 . S
C1331 N1339 1.427 . S
C1332 H1323 0.930 . S
C1332 C1330 1.378 . S
C1332 C1333 1.367 . S
C1333 C1332 1.367 . S
C1333 C1335 1.433 . S
C1334 C1330 1.350 . S
C1334 C1331 1.463 . S
C1334 N1338 1.427 . S
C1335 H1325 0.929 . S
C1335 C1333 1.433 . S
C1335 N1338 1.384 . S
C1336 H1327 0.929 . S
C1336 C1328 1.378 . S
C1336 C1331 1.350 . S
C1337 H1324 0.929 . S
C1337 C1329 1.433 . S
C1337 N1339 1.384 . S
N1338 C1334 1.427 . S
N1338 C1335 1.384 . S
N1339 C1331 1.427 . S
N1339 C1337 1.384 . S
H1340 C1346 0.930 . S
H1341 C1350 0.930 . S
H1342 C1355 0.929 . S
H1343 C1353 0.929 . S
H1344 C1348 0.929 . S
H1345 C1354 0.929 . S
C1346 H1340 0.930 . S
C1346 C1347 1.367 . S
C1346 C1354 1.378 . S
C1347 C1346 1.367 . S
C1347 C1355 1.433 . S
C1348 H1344 0.929 . S
C1348 C1350 1.378 . S
C1348 C1352 1.350 . S
C1349 C1352 1.463 . S
C1349 C1354 1.350 . S
C1349 N1357 1.427 . S
C1350 H1341 0.930 . S
C1350 C1348 1.378 . S
C1350 C1351 1.367 . S
C1351 C1350 1.367 . S
C1351 C1353 1.433 . S
C1352 C1348 1.350 . S
C1352 C1349 1.463 . S
C1352 N1356 1.427 . S
C1353 H1343 0.929 . S
C1353 C1351 1.433 . S
C1353 N1356 1.384 . S
C1354 H1345 0.929 . S
C1354 C1346 1.378 . S
C1354 C1349 1.350 . S
C1355 H1342 0.929 . S
C1355 C1347 1.433 . S
C1355 N1357 1.384 . S
N1356 C1352 1.427 . S
N1356 C1353 1.384 . S
N1357 C1349 1.427 . S
N1357 C1355 1.384 . S
H1358 C1364 0.930 . S
H1359 C1368 0.930 . S
H1360 C1373 0.929 . S
H1361 C1371 0.929 . S
H1362 C1366 0.929 . S
H1363 C1372 0.929 . S
C1364 H1358 0.930 . S
C1364 C1365 1.367 . S
C1364 C1372 1.378 . S
C1365 C1364 1.367 . S
C1365 C1373 1.433 . S
C1366 H1362 0.929 . S
C1366 C1368 1.378 . S
C1366 C1370 1.350 . S
C1367 C1370 1.463 . S
C1367 C1372 1.350 . S
C1367 N1375 1.427 . S
C1368 H1359 0.930 . S
C1368 C1366 1.378 . S
C1368 C1369 1.367 . S
C1369 C1368 1.367 . S
C1369 C1371 1.433 . S
C1370 C1366 1.350 . S
C1370 C1367 1.463 . S
C1370 N1374 1.427 . S
C1371 H1361 0.929 . S
C1371 C1369 1.433 . S
C1371 N1374 1.384 . S
C1372 H1363 0.929 . S
C1372 C1364 1.378 . S
C1372 C1367 1.350 . S
C1373 H1360 0.929 . S
C1373 C1365 1.433 . S
C1373 N1375 1.384 . S
N1374 C1370 1.427 . S
N1374 C1371 1.384 . S
N1375 C1367 1.427 . S
N1375 C1373 1.384 . S
H1376 C1382 0.930 . S
H1377 C1386 0.930 . S
H1378 C1391 0.929 . S
H1379 C1389 0.929 . S
H1380 C1384 0.929 . S
H1381 C1390 0.929 . S
C1382 H1376 0.930 . S
C1382 C1383 1.371 . S
C1382 C1390 1.373 1_545 S
C1383 C1382 1.371 . S
C1383 C1391 1.433 . S
C1384 H1380 0.929 . S
C1384 C1386 1.378 . S
C1384 C1388 1.350 . S
C1385 C1388 1.463 . S
C1385 C1390 1.350 . S
C1385 N1393 1.449 . S
C1386 H1377 0.930 . S
C1386 C1384 1.378 . S
C1386 C1387 1.367 . S
C1387 C1386 1.367 . S
C1387 C1389 1.433 . S
C1388 C1384 1.350 . S
C1388 C1385 1.463 . S
C1388 N1392 1.427 . S
C1389 H1379 0.929 . S
C1389 C1387 1.433 . S
C1389 N1392 1.384 . S
C1390 H1381 0.929 . S
C1390 C1382 1.373 1_565 S
C1390 C1385 1.350 . S
C1391 H1378 0.929 . S
C1391 C1383 1.433 . S
C1391 N1393 1.361 1_545 S
N1392 C1388 1.427 . S
N1392 C1389 1.384 . S
N1393 C1385 1.449 . S
N1393 C1391 1.361 1_565 S
H1394 C1400 0.930 . S
H1395 C1404 0.930 . S
H1396 C1409 0.929 . S
H1397 C1407 0.929 . S
H1398 C1402 0.929 . S
H1399 C1408 0.929 . S
C1400 H1394 0.930 . S
C1400 C1401 1.367 . S
C1400 C1408 1.378 . S
C1401 C1400 1.367 . S
C1401 C1409 1.433 . S
C1402 H1398 0.929 . S
C1402 C1404 1.378 . S
C1402 C1406 1.350 . S
C1403 C1406 1.463 . S
C1403 C1408 1.350 . S
C1403 N1411 1.427 . S
C1404 H1395 0.930 . S
C1404 C1402 1.378 . S
C1404 C1405 1.367 . S
C1405 C1404 1.367 . S
C1405 C1407 1.433 . S
C1406 C1402 1.350 . S
C1406 C1403 1.463 . S
C1406 N1410 1.427 . S
C1407 H1397 0.929 . S
C1407 C1405 1.433 . S
C1407 N1410 1.384 . S
C1408 H1399 0.929 . S
C1408 C1400 1.378 . S
C1408 C1403 1.350 . S
C1409 H1396 0.929 . S
C1409 C1401 1.433 . S
C1409 N1411 1.384 . S
N1410 C1406 1.427 . S
N1410 C1407 1.384 . S
N1411 C1403 1.427 . S
N1411 C1409 1.384 . S
H1412 C1418 0.930 . S
H1413 C1422 0.930 . S
H1414 C1427 0.929 . S
H1415 C1425 0.929 . S
H1416 C1420 0.929 . S
H1417 C1426 0.929 . S
C1418 H1412 0.930 . S
C1418 C1419 1.367 . S
C1418 C1426 1.378 . S
C1419 C1418 1.367 . S
C1419 C1427 1.433 . S
C1420 H1416 0.929 . S
C1420 C1422 1.378 . S
C1420 C1424 1.350 1_655 S
C1421 C1424 1.463 . S
C1421 C1426 1.350 . S
C1421 N1429 1.427 . S
C1422 H1413 0.930 . S
C1422 C1420 1.378 . S
C1422 C1423 1.367 . S
C1423 C1422 1.367 . S
C1423 C1425 1.433 1_655 S
C1424 C1420 1.350 1_455 S
C1424 C1421 1.463 . S
C1424 N1428 1.427 . S
C1425 H1415 0.929 . S
C1425 C1423 1.433 1_455 S
C1425 N1428 1.384 . S
C1426 H1417 0.929 . S
C1426 C1418 1.378 . S
C1426 C1421 1.350 . S
C1427 H1414 0.929 . S
C1427 C1419 1.433 . S
C1427 N1429 1.384 . S
N1428 C1424 1.427 . S
N1428 C1425 1.384 . S
N1429 C1421 1.427 . S
N1429 C1427 1.384 . S
H1430 C1436 0.930 . S
H1431 C1440 0.930 . S
H1432 C1445 0.929 . S
H1433 C1443 0.929 . S
H1434 C1438 0.929 . S
H1435 C1444 0.929 . S
C1436 H1430 0.930 . S
C1436 C1437 1.367 1_545 S
C1436 C1444 1.378 . S
C1437 C1436 1.367 1_565 S
C1437 C1445 1.433 . S
C1438 H1434 0.929 . S
C1438 C1440 1.378 . S
C1438 C1442 1.350 1_455 S
C1439 C1442 1.463 . S
C1439 C1444 1.350 . S
C1439 N1447 1.427 1_545 S
C1440 H1431 0.930 . S
C1440 C1438 1.378 . S
C1440 C1441 1.367 . S
C1441 C1440 1.367 . S
C1441 C1443 1.433 1_455 S
C1442 C1438 1.350 1_655 S
C1442 C1439 1.463 . S
C1442 N1446 1.427 . S
C1443 H1433 0.929 . S
C1443 C1441 1.433 1_655 S
C1443 N1446 1.384 . S
C1444 H1435 0.929 . S
C1444 C1436 1.378 . S
C1444 C1439 1.350 . S
C1445 H1432 0.929 . S
C1445 C1437 1.433 . S
C1445 N1447 1.384 . S
N1446 C1442 1.427 . S
N1446 C1443 1.384 . S
N1447 C1439 1.427 1_565 S
N1447 C1445 1.384 . S
H1448 C1454 0.930 . S
H1449 C1458 0.930 . S
H1450 C1463 0.929 . S
H1451 C1461 0.929 . S
H1452 C1456 0.929 . S
H1453 C1462 0.929 . S
C1454 H1448 0.930 . S
C1454 C1455 1.367 . S
C1454 C1462 1.378 . S
C1455 C1454 1.367 . S
C1455 C1463 1.433 . S
C1456 H1452 0.929 . S
C1456 C1458 1.378 . S
C1456 C1460 1.350 . S
C1457 C1460 1.463 . S
C1457 C1462 1.350 . S
C1457 N1465 1.427 . S
C1458 H1449 0.930 . S
C1458 C1456 1.378 . S
C1458 C1459 1.367 . S
C1459 C1458 1.367 . S
C1459 C1461 1.433 . S
C1460 C1456 1.350 . S
C1460 C1457 1.463 . S
C1460 N1464 1.427 . S
C1461 H1451 0.929 . S
C1461 C1459 1.433 . S
C1461 N1464 1.384 . S
C1462 H1453 0.929 . S
C1462 C1454 1.378 . S
C1462 C1457 1.350 . S
C1463 H1450 0.929 . S
C1463 C1455 1.433 . S
C1463 N1465 1.384 . S
N1464 C1460 1.427 . S
N1464 C1461 1.384 . S
N1465 C1457 1.427 . S
N1465 C1463 1.384 . S
H1466 C1472 0.930 . S
H1467 C1476 0.930 . S
H1468 C1481 0.929 . S
H1469 C1479 0.929 . S
H1470 C1474 0.929 . S
H1471 C1480 0.929 . S
C1472 H1466 0.930 . S
C1472 C1473 1.367 . S
C1472 C1480 1.378 1_455 S
C1473 C1472 1.367 . S
C1473 C1481 1.433 . S
C1474 H1470 0.929 . S
C1474 C1476 1.378 . S
C1474 C1478 1.350 . S
C1475 C1478 1.463 . S
C1475 C1480 1.350 . S
C1475 N1483 1.427 . S
C1476 H1467 0.930 . S
C1476 C1474 1.378 . S
C1476 C1477 1.367 . S
C1477 C1476 1.367 . S
C1477 C1479 1.433 . S
C1478 C1474 1.350 . S
C1478 C1475 1.463 . S
C1478 N1482 1.427 . S
C1479 H1469 0.929 . S
C1479 C1477 1.433 . S
C1479 N1482 1.384 . S
C1480 H1471 0.929 . S
C1480 C1472 1.378 1_655 S
C1480 C1475 1.350 . S
C1481 H1468 0.929 . S
C1481 C1473 1.433 . S
C1481 N1483 1.384 1_455 S
N1482 C1478 1.427 . S
N1482 C1479 1.384 . S
N1483 C1475 1.427 . S
N1483 C1481 1.384 1_655 S
H1484 C1490 0.930 . S
H1485 C1494 0.930 . S
H1486 C1499 0.929 . S
H1487 C1497 0.929 . S
H1488 C1492 0.929 . S
H1489 C1498 0.929 . S
C1490 H1484 0.930 . S
C1490 C1491 1.367 . S
C1490 C1498 1.378 1_655 S
C1491 C1490 1.367 . S
C1491 C1499 1.433 . S
C1492 H1488 0.929 . S
C1492 C1494 1.378 1_565 S
C1492 C1496 1.350 . S
C1493 C1496 1.463 . S
C1493 C1498 1.350 . S
C1493 N1501 1.427 . S
C1494 H1485 0.930 . S
C1494 C1492 1.378 1_545 S
C1494 C1495 1.367 . S
C1495 C1494 1.367 . S
C1495 C1497 1.433 . S
C1496 C1492 1.350 . S
C1496 C1493 1.463 . S
C1496 N1500 1.427 . S
C1497 H1487 0.929 . S
C1497 C1495 1.433 . S
C1497 N1500 1.384 1_545 S
C1498 H1489 0.929 . S
C1498 C1490 1.378 1_455 S
C1498 C1493 1.350 . S
C1499 H1486 0.929 . S
C1499 C1491 1.433 . S
C1499 N1501 1.384 1_655 S
N1500 C1496 1.427 . S
N1500 C1497 1.384 1_565 S
N1501 C1493 1.427 . S
N1501 C1499 1.384 1_455 S
H1502 C1508 0.930 . S
H1503 C1512 0.930 . S
H1504 C1517 0.929 . S
H1505 C1515 0.929 . S
H1506 C1510 0.929 . S
H1507 C1516 0.929 . S
C1508 H1502 0.930 . S
C1508 C1509 1.367 1_545 S
C1508 C1516 1.378 . S
C1509 C1508 1.367 1_565 S
C1509 C1517 1.433 . S
C1510 H1506 0.929 . S
C1510 C1512 1.378 . S
C1510 C1514 1.350 . S
C1511 C1514 1.463 . S
C1511 C1516 1.350 . S
C1511 N1519 1.427 1_545 S
C1512 H1503 0.930 . S
C1512 C1510 1.378 . S
C1512 C1513 1.367 . S
C1513 C1512 1.367 . S
C1513 C1515 1.433 . S
C1514 C1510 1.350 . S
C1514 C1511 1.463 . S
C1514 N1518 1.427 . S
C1515 H1505 0.929 . S
C1515 C1513 1.433 . S
C1515 N1518 1.384 . S
C1516 H1507 0.929 . S
C1516 C1508 1.378 . S
C1516 C1511 1.350 . S
C1517 H1504 0.929 . S
C1517 C1509 1.433 . S
C1517 N1519 1.384 . S
N1518 C1514 1.427 . S
N1518 C1515 1.384 . S
N1519 C1511 1.427 1_565 S
N1519 C1517 1.384 . S
C951 C416 1.581 . S
C955 C3 1.584 . S
C969 C239 1.570 . S
C973 C62 1.569 . S
C987 C298 1.577 . S
C991 C121 1.582 . S
C1005 C180 1.578 . S
C1009 C357 1.582 . S
C1023 C888 1.586 . S
C1027 C475 1.585 . S
C1041 C711 1.576 . S
C1045 C534 1.572 . S
C1059 C593 1.579 . S
C1063 C770 1.583 . S
C1077 C652 1.586 . S
C1081 C829 1.585 . S
C1095 C170 1.155 . S
C1099 C52 1.161 . S
C1113 C111 1.161 . S
C1117 C229 1.155 . S
C1131 C288 1.166 . S
C1135 C406 1.158 . S
C1149 C465 1.166 . S
C1153 C347 1.159 . S
C1167 C524 1.161 . S
C1171 C642 1.154 . S
C1185 C583 1.164 . S
C1189 C701 1.156 . S
C1203 C878 1.166 . S
C1207 C760 1.165 . S
C1221 C819 1.164 . S
C1225 C937 1.166 . S
C1239 C387 1.371 . S
C1243 C33 1.379 . S
C1257 C92 1.366 . S
C1261 C446 1.373 . S
C1275 C151 1.380 . S
C1279 C269 1.373 . S
C1293 C210 1.381 . S
C1297 C328 1.374 . S
C1311 C505 1.380 . S
C1315 C859 1.372 . S
C1329 C564 1.374 . S
C1333 C918 1.381 . S
C1347 C623 1.366 . S
C1351 C741 1.372 . S
C1365 C682 1.377 . S
C1369 C800 1.381 . S
C1383 C5 1.374 . S
C1387 C890 1.373 . S
C1401 C713 1.376 . S
C1405 C64 1.371 . S
C1419 C123 1.373 . S
C1423 C772 1.374 . S
C1437 C831 1.373 . S
C1441 C182 1.374 . S
C1455 C536 1.374 . S
C1459 C241 1.373 . S
C1473 C300 1.371 . S
C1477 C595 1.376 . S
C1491 C654 1.371 . S
C1495 C359 1.376 . S
C1509 C477 1.370 . S
C1513 C418 1.377 . S
