# Generated by pormake.
# Topology umd, (4)-cn, num edge types: 1
# Building blocks:
#     Node 0, Type 0, BuildingBlock: ESEHIV_clean_sbu_0, # of connection points: 4
#     Node 1, Type 0, BuildingBlock: ESEHIV_clean_sbu_0, # of connection points: 4
#     Node 2, Type 0, BuildingBlock: ESEHIV_clean_sbu_0, # of connection points: 4
#     Node 3, Type 0, BuildingBlock: ESEHIV_clean_sbu_0, # of connection points: 4
#     Node 4, Type 0, BuildingBlock: ESEHIV_clean_sbu_0, # of connection points: 4
#     Node 5, Type 0, BuildingBlock: ESEHIV_clean_sbu_0, # of connection points: 4
#     Node 6, Type 0, BuildingBlock: ESEHIV_clean_sbu_0, # of connection points: 4
#     Node 7, Type 0, BuildingBlock: ESEHIV_clean_sbu_0, # of connection points: 4
#     Node 8, Type 0, BuildingBlock: ESEHIV_clean_sbu_0, # of connection points: 4
#     Node 9, Type 0, BuildingBlock: ESEHIV_clean_sbu_0, # of connection points: 4
#     Node 10, Type 0, BuildingBlock: ESEHIV_clean_sbu_0, # of connection points: 4
#     Node 11, Type 0, BuildingBlock: ESEHIV_clean_sbu_0, # of connection points: 4
#     Node 12, Type 0, BuildingBlock: ESEHIV_clean_sbu_0, # of connection points: 4
#     Node 13, Type 0, BuildingBlock: ESEHIV_clean_sbu_0, # of connection points: 4
#     Node 14, Type 0, BuildingBlock: ESEHIV_clean_sbu_0, # of connection points: 4
#     Node 15, Type 0, BuildingBlock: ESEHIV_clean_sbu_0, # of connection points: 4
#     Edge 16, Type (0, 0), BuildingBlock: KIFKEQ_clean_linker_1, # of connection points: 2
#     Edge 17, Type (0, 0), BuildingBlock: KIFKEQ_clean_linker_1, # of connection points: 2
#     Edge 18, Type (0, 0), BuildingBlock: KIFKEQ_clean_linker_1, # of connection points: 2
#     Edge 19, Type (0, 0), BuildingBlock: KIFKEQ_clean_linker_1, # of connection points: 2
#     Edge 20, Type (0, 0), BuildingBlock: KIFKEQ_clean_linker_1, # of connection points: 2
#     Edge 21, Type (0, 0), BuildingBlock: KIFKEQ_clean_linker_1, # of connection points: 2
#     Edge 22, Type (0, 0), BuildingBlock: KIFKEQ_clean_linker_1, # of connection points: 2
#     Edge 23, Type (0, 0), BuildingBlock: KIFKEQ_clean_linker_1, # of connection points: 2
#     Edge 24, Type (0, 0), BuildingBlock: KIFKEQ_clean_linker_1, # of connection points: 2
#     Edge 25, Type (0, 0), BuildingBlock: KIFKEQ_clean_linker_1, # of connection points: 2
#     Edge 26, Type (0, 0), BuildingBlock: KIFKEQ_clean_linker_1, # of connection points: 2
#     Edge 27, Type (0, 0), BuildingBlock: KIFKEQ_clean_linker_1, # of connection points: 2
#     Edge 28, Type (0, 0), BuildingBlock: KIFKEQ_clean_linker_1, # of connection points: 2
#     Edge 29, Type (0, 0), BuildingBlock: KIFKEQ_clean_linker_1, # of connection points: 2
#     Edge 30, Type (0, 0), BuildingBlock: KIFKEQ_clean_linker_1, # of connection points: 2
#     Edge 31, Type (0, 0), BuildingBlock: KIFKEQ_clean_linker_1, # of connection points: 2
#     Edge 32, Type (0, 0), BuildingBlock: KIFKEQ_clean_linker_1, # of connection points: 2
#     Edge 33, Type (0, 0), BuildingBlock: KIFKEQ_clean_linker_1, # of connection points: 2
#     Edge 34, Type (0, 0), BuildingBlock: KIFKEQ_clean_linker_1, # of connection points: 2
#     Edge 35, Type (0, 0), BuildingBlock: KIFKEQ_clean_linker_1, # of connection points: 2
#     Edge 36, Type (0, 0), BuildingBlock: KIFKEQ_clean_linker_1, # of connection points: 2
#     Edge 37, Type (0, 0), BuildingBlock: KIFKEQ_clean_linker_1, # of connection points: 2
#     Edge 38, Type (0, 0), BuildingBlock: KIFKEQ_clean_linker_1, # of connection points: 2
#     Edge 39, Type (0, 0), BuildingBlock: KIFKEQ_clean_linker_1, # of connection points: 2
#     Edge 40, Type (0, 0), BuildingBlock: KIFKEQ_clean_linker_1, # of connection points: 2
#     Edge 41, Type (0, 0), BuildingBlock: KIFKEQ_clean_linker_1, # of connection points: 2
#     Edge 42, Type (0, 0), BuildingBlock: KIFKEQ_clean_linker_1, # of connection points: 2
#     Edge 43, Type (0, 0), BuildingBlock: KIFKEQ_clean_linker_1, # of connection points: 2
#     Edge 44, Type (0, 0), BuildingBlock: KIFKEQ_clean_linker_1, # of connection points: 2
#     Edge 45, Type (0, 0), BuildingBlock: KIFKEQ_clean_linker_1, # of connection points: 2
#     Edge 46, Type (0, 0), BuildingBlock: KIFKEQ_clean_linker_1, # of connection points: 2
#     Edge 47, Type (0, 0), BuildingBlock: KIFKEQ_clean_linker_1, # of connection points: 2
# Relax obj value: 0.041
# Max RMSD: 0.125
# Mean RMSD: 0.125
data_MOF--net-umd--node1-ESEHIV_clean_sbu_0--edge1-KIFKEQ_clean_linker_1
_symmetry_space_group_name_H-M    P1
_symmetry_Int_Tables_number       1
_symmetry_cell_setting            triclinic
loop_
_symmetry_equiv_pos_as_xyz
'x, y, z'
_cell_length_a     48.323438
_cell_length_b     48.24177
_cell_length_c     55.582894
_cell_angle_alpha  89.617096
_cell_angle_beta   89.757523
_cell_angle_gamma 90.121725
loop_
_atom_site_label
_atom_site_type_symbol
_atom_site_fract_x
_atom_site_fract_y
_atom_site_fract_z
_atom_type_partial_charge
Cu0 Cu 0.17848 0.43692 0.16003 0.0
N1 N 0.13988 0.43766 0.16059 0.0
N2 N 0.09658 0.45363 0.16254 0.0
C3 C 0.12372 0.45979 0.16493 0.0
C4 C 0.09572 0.42663 0.1564 0.0
C5 C 0.12246 0.41691 0.15502 0.0
O6 O 0.19155 0.46235 0.1847 0.0
C7 C 0.21254 0.45148 0.11832 0.0
O8 O 0.23443 0.45122 0.13225 0.0
H9 H 0.13174 0.48001 0.16957 0.0
H10 H 0.12877 0.39632 0.14975 0.0
N11 N 0.19048 0.40088 0.16705 0.0
N12 N 0.2162 0.36256 0.1702 0.0
C13 C 0.21458 0.38856 0.16107 0.0
C14 C 0.17646 0.38197 0.1802 0.0
C15 C 0.1922 0.35841 0.18219 0.0
C16 C 0.18452 0.45649 0.20629 0.0
O17 O 0.16985 0.43397 0.21028 0.0
H18 H 0.23081 0.39864 0.15078 0.0
H19 H 0.15625 0.3852 0.18811 0.0
O20 O 0.1887 0.4469 0.12731 0.0
H21 H 0.07715 0.41498 0.15238 0.0
H22 H 0.18636 0.33961 0.19168 0.0
Cu23 Cu 0.60172 0.17724 0.66336 0.0
N24 N 0.6 0.13853 0.66395 0.0
N25 N 0.58259 0.09564 0.66616 0.0
C26 C 0.57783 0.12286 0.66983 0.0
C27 C 0.60866 0.09413 0.65754 0.0
C28 C 0.61921 0.12061 0.65592 0.0
O29 O 0.58233 0.19108 0.69155 0.0
C30 C 0.58186 0.21238 0.62412 0.0
O31 O 0.58468 0.23395 0.63819 0.0
H32 H 0.55838 0.13129 0.67608 0.0
H33 H 0.63904 0.12644 0.64834 0.0
N34 N 0.63856 0.18902 0.66539 0.0
N35 N 0.67587 0.21648 0.66507 0.0
C36 C 0.64843 0.21469 0.66085 0.0
C37 C 0.66046 0.17428 0.67313 0.0
C38 C 0.68354 0.19107 0.67272 0.0
C39 C 0.55623 0.1925 0.69422 0.0
O40 O 0.54007 0.18628 0.67607 0.0
H41 H 0.63572 0.23183 0.65494 0.0
H42 H 0.65963 0.15308 0.67947 0.0
O43 O 0.5868 0.1882 0.63229 0.0
H44 H 0.6188 0.07537 0.65161 0.0
H45 H 0.70409 0.1854 0.67865 0.0
Cu46 Cu 0.84886 0.59076 0.17568 0.0
N47 N 0.88728 0.59211 0.17892 0.0
N48 N 0.93154 0.5785 0.17784 0.0
C49 C 0.90562 0.5742 0.16949 0.0
C50 C 0.92929 0.60038 0.19278 0.0
C51 C 0.90204 0.60867 0.19341 0.0
O52 O 0.83488 0.56467 0.19969 0.0
C53 C 0.81731 0.58336 0.13195 0.0
O54 O 0.79552 0.59136 0.14427 0.0
H55 H 0.89974 0.5578 0.15737 0.0
H56 H 0.89344 0.62488 0.20448 0.0
N57 N 0.83413 0.62489 0.18477 0.0
N58 N 0.8085 0.66322 0.1875 0.0
C59 C 0.81865 0.64356 0.17265 0.0
C60 C 0.83395 0.63332 0.20778 0.0
C61 C 0.81825 0.65688 0.20954 0.0
C62 C 0.84623 0.54167 0.20499 0.0
O63 O 0.86599 0.53207 0.19108 0.0
H64 H 0.81367 0.64201 0.15375 0.0
H65 H 0.84364 0.62226 0.22249 0.0
O66 O 0.84059 0.58119 0.14242 0.0
H67 H 0.94579 0.60896 0.20353 0.0
H68 H 0.81367 0.66807 0.22589 0.0
Cu69 Cu 0.43343 0.85262 0.66161 0.0
N70 N 0.43541 0.89131 0.6597 0.0
N71 N 0.45147 0.93471 0.66147 0.0
C72 C 0.45713 0.90762 0.66513 0.0
C73 C 0.42513 0.93552 0.65359 0.0
C74 C 0.41533 0.9087 0.65241 0.0
O75 O 0.4566 0.84014 0.68813 0.0
C76 C 0.46073 0.84784 0.61645 0.0
O77 O 0.47516 0.86906 0.6242 0.0
H78 H 0.47672 0.89987 0.67162 0.0
H79 H 0.39504 0.90226 0.64645 0.0
N80 N 0.39718 0.84281 0.66951 0.0
N81 N 0.35791 0.81877 0.67406 0.0
C82 C 0.38339 0.81944 0.6639 0.0
C83 C 0.37994 0.85739 0.68361 0.0
C84 C 0.3557 0.84269 0.68639 0.0
C85 C 0.48289 0.84134 0.68837 0.0
O86 O 0.49621 0.84907 0.6688 0.0
H87 H 0.39221 0.80294 0.65324 0.0
H88 H 0.38485 0.87717 0.6916 0.0
O89 O 0.44265 0.83686 0.6303 0.0
H90 H 0.41403 0.95408 0.64844 0.0
H91 H 0.33786 0.84917 0.69674 0.0
Cu92 Cu 0.18415 0.60122 0.39556 0.0
N93 N 0.14576 0.59876 0.39884 0.0
N94 N 0.10313 0.58058 0.39938 0.0
C95 C 0.12987 0.57688 0.39294 0.0
C96 C 0.10226 0.60581 0.40974 0.0
C97 C 0.12859 0.61687 0.40952 0.0
O98 O 0.19518 0.57752 0.36898 0.0
C99 C 0.20159 0.60754 0.44311 0.0
O100 O 0.19316 0.63299 0.43901 0.0
H101 H 0.13795 0.55844 0.38448 0.0
H102 H 0.13495 0.63633 0.41733 0.0
N103 N 0.19496 0.63772 0.38863 0.0
N104 N 0.22116 0.67582 0.38585 0.0
C105 C 0.22075 0.64823 0.39011 0.0
C106 C 0.17861 0.6593 0.38287 0.0
C107 C 0.1947 0.68286 0.38125 0.0
C108 C 0.18811 0.58491 0.34783 0.0
O109 O 0.1745 0.60825 0.34503 0.0
H110 H 0.23866 0.63606 0.39507 0.0
H111 H 0.15649 0.65809 0.38027 0.0
O112 O 0.20006 0.58978 0.42628 0.0
H113 H 0.08417 0.6151 0.41787 0.0
H114 H 0.18752 0.70354 0.37694 0.0
Cu115 Cu 0.43362 0.17984 0.89593 0.0
N116 N 0.43572 0.14191 0.90218 0.0
N117 N 0.45226 0.09875 0.90387 0.0
C118 C 0.45697 0.12512 0.89659 0.0
C119 C 0.42709 0.09904 0.91448 0.0
C120 C 0.417 0.12574 0.91352 0.0
O121 O 0.45399 0.18668 0.86622 0.0
C122 C 0.42998 0.20076 0.94229 0.0
O123 O 0.40475 0.19105 0.93986 0.0
H124 H 0.47546 0.13214 0.88731 0.0
H125 H 0.39753 0.13292 0.9208 0.0
N126 N 0.39689 0.18947 0.88978 0.0
N127 N 0.35816 0.21425 0.88542 0.0
C128 C 0.38519 0.21471 0.89158 0.0
C129 C 0.37673 0.17254 0.88203 0.0
C130 C 0.35282 0.18769 0.8794 0.0
C131 C 0.47572 0.20098 0.86237 0.0
O132 O 0.4876 0.21399 0.88027 0.0
H133 H 0.39645 0.23303 0.89701 0.0
H134 H 0.37926 0.15069 0.87842 0.0
O135 O 0.44687 0.19885 0.92467 0.0
H136 H 0.41701 0.0814 0.9229 0.0
H137 H 0.33302 0.17964 0.87369 0.0
Cu138 Cu 0.86407 0.42682 0.40881 0.0
N139 N 0.90278 0.42783 0.40856 0.0
N140 N 0.94606 0.44451 0.40669 0.0
C141 C 0.91912 0.44906 0.4014 0.0
C142 C 0.94651 0.41936 0.41752 0.0
C143 C 0.91988 0.40934 0.41886 0.0
O144 O 0.85044 0.44495 0.37989 0.0
C145 C 0.82896 0.4487 0.44705 0.0
O146 O 0.80751 0.44567 0.43287 0.0
H147 H 0.91116 0.46805 0.39369 0.0
H148 H 0.91334 0.39044 0.42778 0.0
N149 N 0.85151 0.3901 0.40804 0.0
N150 N 0.82277 0.35369 0.40834 0.0
C151 C 0.82525 0.38135 0.41135 0.0
C152 C 0.86601 0.36722 0.4024 0.0
C153 C 0.8484 0.34472 0.40279 0.0
C154 C 0.85032 0.47085 0.37549 0.0
O155 O 0.85814 0.48821 0.39227 0.0
H156 H 0.80822 0.39503 0.41547 0.0
H157 H 0.88765 0.36695 0.39744 0.0
O158 O 0.85311 0.44321 0.43923 0.0
H159 H 0.96464 0.4091 0.42461 0.0
H160 H 0.85379 0.32362 0.39825 0.0
Cu161 Cu 0.59709 0.85354 0.89494 0.0
N162 N 0.59553 0.89162 0.90044 0.0
N163 N 0.57967 0.93505 0.90344 0.0
C164 C 0.57524 0.90943 0.89437 0.0
C165 C 0.60375 0.93301 0.91562 0.0
C166 C 0.61323 0.90626 0.91396 0.0
O167 O 0.5742 0.84477 0.86703 0.0
C168 C 0.60025 0.82499 0.93995 0.0
O169 O 0.6266 0.82294 0.9346 0.0
H170 H 0.5571 0.90327 0.88439 0.0
H171 H 0.63139 0.89782 0.92261 0.0
N172 N 0.63392 0.84357 0.88826 0.0
N173 N 0.67237 0.81862 0.88238 0.0
C174 C 0.64471 0.81791 0.88628 0.0
C175 C 0.6553 0.86105 0.88474 0.0
C176 C 0.67895 0.84582 0.88128 0.0
C177 C 0.58497 0.84674 0.8461 0.0
O178 O 0.61087 0.85469 0.84399 0.0
H179 H 0.6325 0.79919 0.88819 0.0
H180 H 0.65391 0.88339 0.88481 0.0
O181 O 0.58381 0.83628 0.92493 0.0
H182 H 0.61378 0.94946 0.92543 0.0
H183 H 0.69952 0.85431 0.87891 0.0
Cu184 Cu 0.85644 0.60028 0.90788 0.0
N185 N 0.89498 0.59849 0.90719 0.0
N186 N 0.93799 0.58199 0.90355 0.0
C187 C 0.91088 0.57774 0.89883 0.0
C188 C 0.93902 0.60635 0.91535 0.0
C189 C 0.91251 0.61634 0.91769 0.0
O190 O 0.84215 0.5771 0.88204 0.0
C191 C 0.82249 0.58678 0.95015 0.0
O192 O 0.80021 0.58999 0.93697 0.0
H193 H 0.90257 0.55964 0.88998 0.0
H194 H 0.90628 0.63483 0.92717 0.0
N195 N 0.84563 0.63691 0.90189 0.0
N196 N 0.81948 0.6739 0.89388 0.0
C197 C 0.81991 0.6477 0.90259 0.0
C198 C 0.86186 0.65706 0.89259 0.0
C199 C 0.8458 0.67985 0.88761 0.0
C200 C 0.84818 0.58548 0.86084 0.0
O201 O 0.86327 0.60801 0.85838 0.0
H202 H 0.80172 0.6362 0.90817 0.0
H203 H 0.88365 0.65491 0.8886 0.0
O204 O 0.84629 0.5893 0.9405 0.0
H205 H 0.95743 0.61569 0.92282 0.0
H206 H 0.85281 0.69914 0.87957 0.0
Cu207 Cu 0.44575 0.85556 0.39146 0.0
N208 N 0.44307 0.89392 0.38889 0.0
N209 N 0.45616 0.93838 0.38823 0.0
C210 C 0.46437 0.91176 0.39065 0.0
C211 C 0.4285 0.9371 0.38485 0.0
C212 C 0.4205 0.90962 0.38526 0.0
O213 O 0.4757 0.84546 0.36981 0.0
C214 C 0.45361 0.82509 0.43667 0.0
O215 O 0.44971 0.80174 0.42513 0.0
H216 H 0.48541 0.90523 0.39403 0.0
H217 H 0.39973 0.90165 0.38307 0.0
N218 N 0.41297 0.83973 0.38025 0.0
N219 N 0.37643 0.81212 0.37479 0.0
C220 C 0.39612 0.82055 0.39034 0.0
C221 C 0.40336 0.84373 0.35782 0.0
C222 C 0.38091 0.82671 0.35437 0.0
C223 C 0.47573 0.8237 0.35698 0.0
O224 O 0.457 0.80442 0.36101 0.0
H225 H 0.39886 0.8121 0.40825 0.0
H226 H 0.41272 0.85746 0.34463 0.0
O227 O 0.45297 0.84802 0.42525 0.0
H228 H 0.41501 0.95468 0.38202 0.0
H229 H 0.369 0.82491 0.33799 0.0
Cu230 Cu 0.18361 0.44252 0.89511 0.0
N231 N 0.14512 0.44108 0.89551 0.0
N232 N 0.10094 0.45455 0.89487 0.0
C233 C 0.12765 0.46249 0.89247 0.0
C234 C 0.10176 0.42707 0.89958 0.0
C235 C 0.12905 0.41883 0.89995 0.0
O236 O 0.19375 0.47051 0.87144 0.0
C237 C 0.21853 0.45171 0.93717 0.0
O238 O 0.24037 0.44573 0.92408 0.0
H239 H 0.13448 0.48357 0.88925 0.0
H240 H 0.13669 0.39815 0.90348 0.0
N241 N 0.19634 0.40815 0.88453 0.0
N242 N 0.22104 0.36981 0.87789 0.0
C243 C 0.21748 0.39215 0.89215 0.0
C244 C 0.18613 0.39535 0.86507 0.0
C245 C 0.20123 0.37176 0.86093 0.0
C246 C 0.21567 0.46939 0.85871 0.0
O247 O 0.23434 0.45043 0.86356 0.0
H248 H 0.23051 0.39715 0.90727 0.0
H249 H 0.16913 0.40305 0.85435 0.0
O250 O 0.19458 0.45155 0.92774 0.0
H251 H 0.08394 0.41383 0.90256 0.0
H252 H 0.1979 0.35722 0.84648 0.0
Cu253 Cu 0.58552 0.19105 0.40066 0.0
N254 N 0.5886 0.15264 0.40059 0.0
N255 N 0.57598 0.10812 0.39872 0.0
C256 C 0.56737 0.13475 0.39866 0.0
C257 C 0.6038 0.10946 0.40084 0.0
C258 C 0.61153 0.13698 0.40195 0.0
O259 O 0.55803 0.19928 0.37626 0.0
C260 C 0.57687 0.22459 0.44347 0.0
O261 O 0.58609 0.24613 0.43126 0.0
H262 H 0.54601 0.14126 0.39745 0.0
H263 H 0.63235 0.14503 0.40345 0.0
N264 N 0.61929 0.20627 0.39064 0.0
N265 N 0.65817 0.23117 0.38745 0.0
C266 C 0.63768 0.22237 0.4023 0.0
C267 C 0.62886 0.20441 0.36795 0.0
C268 C 0.6527 0.21982 0.36588 0.0
C269 C 0.55822 0.22084 0.36292 0.0
O270 O 0.57485 0.24149 0.36819 0.0
H271 H 0.63567 0.22828 0.42096 0.0
H272 H 0.61863 0.19322 0.3537 0.0
O273 O 0.57468 0.20119 0.43321 0.0
H274 H 0.61767 0.09188 0.40115 0.0
H275 H 0.66493 0.22271 0.34969 0.0
Cu276 Cu 0.84646 0.44773 0.67107 0.0
N277 N 0.88474 0.44416 0.67208 0.0
N278 N 0.92932 0.45652 0.67236 0.0
C279 C 0.90286 0.46528 0.67076 0.0
C280 C 0.92765 0.42866 0.6747 0.0
C281 C 0.90008 0.4211 0.67455 0.0
O282 O 0.83786 0.47681 0.69402 0.0
C283 C 0.81427 0.45667 0.62743 0.0
O284 O 0.79198 0.44949 0.63958 0.0
H285 H 0.8966 0.48665 0.66842 0.0
H286 H 0.89179 0.40033 0.67628 0.0
N287 N 0.8306 0.4143 0.68136 0.0
N288 N 0.8047 0.37608 0.68456 0.0
C289 C 0.81349 0.39674 0.66985 0.0
C290 C 0.83315 0.40399 0.70379 0.0
C291 C 0.81707 0.38056 0.70588 0.0
C292 C 0.81789 0.47621 0.70905 0.0
O293 O 0.79893 0.45679 0.70738 0.0
H294 H 0.8069 0.39942 0.65142 0.0
H295 H 0.84529 0.41344 0.71785 0.0
O296 O 0.83759 0.45751 0.63795 0.0
H297 H 0.94501 0.41473 0.67677 0.0
H298 H 0.81443 0.36792 0.7219 0.0
Cu299 Cu 0.60694 0.86212 0.1611 0.0
N300 N 0.60557 0.90031 0.15572 0.0
N301 N 0.58878 0.94334 0.15239 0.0
C302 C 0.58373 0.91699 0.15966 0.0
C303 C 0.61486 0.94308 0.14356 0.0
C304 C 0.62509 0.91654 0.14555 0.0
O305 O 0.58665 0.85379 0.19049 0.0
C306 C 0.60989 0.84544 0.11417 0.0
O307 O 0.63389 0.85785 0.11687 0.0
H308 H 0.56427 0.90964 0.16702 0.0
H309 H 0.64518 0.90949 0.13958 0.0
N310 N 0.6434 0.85083 0.16631 0.0
N311 N 0.68073 0.82368 0.16814 0.0
C312 C 0.6534 0.82504 0.16333 0.0
C313 C 0.66501 0.86625 0.17354 0.0
C314 C 0.68813 0.84958 0.17456 0.0
C315 C 0.56698 0.83658 0.19356 0.0
O316 O 0.55745 0.82264 0.17512 0.0
H317 H 0.6409 0.80773 0.15746 0.0
H318 H 0.66402 0.88802 0.17792 0.0
O319 O 0.59332 0.84427 0.13205 0.0
H320 H 0.62586 0.96075 0.13615 0.0
H321 H 0.70862 0.85589 0.18013 0.0
Cu322 Cu 0.17998 0.59311 0.66192 0.0
N323 N 0.14147 0.59323 0.66218 0.0
N324 N 0.09762 0.5784 0.6633 0.0
C325 C 0.1246 0.57107 0.66408 0.0
C326 C 0.09771 0.60629 0.66084 0.0
C327 C 0.12474 0.61533 0.6601 0.0
O328 O 0.19141 0.56602 0.68583 0.0
C329 C 0.21525 0.58398 0.62036 0.0
O330 O 0.23661 0.58909 0.63418 0.0
H331 H 0.13209 0.55002 0.66557 0.0
H332 H 0.13175 0.63654 0.65815 0.0
N333 N 0.19193 0.62824 0.67139 0.0
N334 N 0.21473 0.66832 0.67514 0.0
C335 C 0.21212 0.6447 0.66237 0.0
C336 C 0.18159 0.64186 0.69043 0.0
C337 C 0.1955 0.66656 0.69276 0.0
C338 C 0.21316 0.56851 0.69848 0.0
O339 O 0.23084 0.58845 0.69343 0.0
H340 H 0.22459 0.63956 0.64685 0.0
H341 H 0.16528 0.63408 0.70203 0.0
O342 O 0.19095 0.58424 0.62923 0.0
H343 H 0.07958 0.61937 0.65988 0.0
H344 H 0.19227 0.68168 0.70679 0.0
Cu345 Cu 0.4445 0.18876 0.16186 0.0
N346 N 0.44536 0.15 0.1648 0.0
N347 N 0.46063 0.10625 0.16312 0.0
C348 C 0.46543 0.13296 0.15683 0.0
C349 C 0.43626 0.10648 0.17506 0.0
C350 C 0.4269 0.13338 0.176 0.0
O351 O 0.46842 0.20495 0.18625 0.0
C352 C 0.45386 0.22145 0.1187 0.0
O353 O 0.44719 0.24326 0.13148 0.0
H354 H 0.48336 0.14015 0.14685 0.0
H355 H 0.40809 0.14021 0.18463 0.0
N356 N 0.40887 0.201 0.16954 0.0
N357 N 0.36832 0.22311 0.17075 0.0
C358 C 0.39139 0.21804 0.15767 0.0
C359 C 0.39657 0.19569 0.19084 0.0
C360 C 0.37152 0.20899 0.19155 0.0
C361 C 0.49081 0.19397 0.19358 0.0
O362 O 0.50106 0.17272 0.18196 0.0
H363 H 0.39556 0.22685 0.14007 0.0
H364 H 0.40571 0.18368 0.20524 0.0
O365 O 0.45462 0.19769 0.12875 0.0
H366 H 0.42631 0.08867 0.1833 0.0
H367 H 0.3573 0.20934 0.20666 0.0
H368 H 0.04487 0.44045 0.17737 0.0
H369 H 0.09565 0.50875 0.15284 0.0
H370 H 1.00522 0.4713 0.18045 0.0
H371 H 0.05586 0.53966 0.15531 0.0
H372 H 0.98536 0.59222 0.18599 0.0
H373 H 0.02551 0.56223 0.1827 0.0
H374 H 0.97338 0.49628 0.15638 0.0
H375 H 0.9331 0.52555 0.16103 0.0
C376 C 0.04747 0.46205 0.17244 0.0
C377 C 0.07337 0.47215 0.16485 0.0
C378 C 0.02472 0.47976 0.17409 0.0
C379 C 0.02721 0.508 0.16796 0.0
C380 C 0.05322 0.51814 0.1605 0.0
C381 C 0.07606 0.50043 0.15906 0.0
C382 C 0.98233 0.57128 0.17968 0.0
C383 C 0.95572 0.56142 0.174 0.0
C384 C 1.00551 0.55413 0.1775 0.0
C385 C 1.00275 0.52671 0.16942 0.0
C386 C 0.97628 0.51709 0.16311 0.0
C387 C 0.9531 0.53414 0.16545 0.0
H388 H 0.43868 0.98654 0.67591 0.0
H389 H 0.50647 0.93506 0.65281 0.0
H390 H 0.47019 0.02587 0.67968 0.0
H391 H 0.53788 0.97437 0.65553 0.0
H392 H 0.59359 0.04314 0.68 0.0
H393 H 0.56146 1.00411 0.68127 0.0
H394 H 0.4957 0.05804 0.65696 0.0
H395 H 0.52776 0.0971 0.6568 0.0
C396 C 0.46033 0.98375 0.67149 0.0
C397 C 0.47015 0.95777 0.66412 0.0
C398 C 0.47842 1.00628 0.67354 0.0
C399 C 0.50671 1.00346 0.6679 0.0
C400 C 0.51643 0.97733 0.66056 0.0
C401 C 0.49841 0.95474 0.65888 0.0
C402 C 0.5722 0.04656 0.6751 0.0
C403 C 0.56316 0.07308 0.66829 0.0
C404 C 0.55377 0.02419 0.67567 0.0
C405 C 0.5259 0.02772 0.669 0.0
C406 C 0.51682 0.05449 0.6626 0.0
C407 C 0.53519 0.07693 0.66242 0.0
H408 H 0.10703 0.52447 0.39863 0.0
H409 H 0.04825 0.59174 0.39649 0.0
H410 H 0.06911 0.49114 0.39808 0.0
H411 H 1.01022 0.55833 0.3966 0.0
H412 H 0.94967 0.48869 0.37599 0.0
H413 H 0.98788 0.52163 0.37222 0.0
H414 H 0.03297 0.47664 0.42675 0.0
H415 H 0.99496 0.4441 0.43083 0.0
C416 C 0.08605 0.53219 0.39779 0.0
C417 C 0.08072 0.56084 0.39771 0.0
C418 C 0.06428 0.51306 0.39773 0.0
C419 C 0.03663 0.52207 0.39746 0.0
C420 C 0.03128 0.55069 0.39667 0.0
C421 C 0.05307 0.56985 0.39686 0.0
C422 C 0.96763 0.48585 0.38727 0.0
C423 C 0.96903 0.46356 0.40371 0.0
C424 C 0.98957 0.50474 0.38507 0.0
C425 C 1.01351 0.5017 0.39912 0.0
C426 C 1.01504 0.47931 0.41534 0.0
C427 C 0.99312 0.46056 0.41765 0.0
H428 H 0.5812 0.98138 0.93127 0.0
H429 H 0.53674 0.94364 0.87248 0.0
H430 H 0.55077 0.02111 0.92935 0.0
H431 H 0.50581 0.98347 0.87113 0.0
H432 H 0.43811 0.04465 0.89967 0.0
H433 H 0.46942 1.00495 0.89805 0.0
H434 H 0.53955 0.06038 0.90143 0.0
H435 H 0.50828 0.09997 0.90339 0.0
C436 C 0.56522 0.98148 0.91774 0.0
C437 C 0.56169 0.95899 0.902 0.0
C438 C 0.54768 1.00441 0.91671 0.0
C439 C 0.52594 1.00544 0.90008 0.0
C440 C 0.52226 0.98311 0.8843 0.0
C441 C 0.54002 0.96023 0.88515 0.0
C442 C 0.4602 0.04832 0.90009 0.0
C443 C 0.47071 0.07544 0.90176 0.0
C444 C 0.47812 0.02563 0.89892 0.0
C445 C 0.50692 0.02957 0.89967 0.0
C446 C 0.51743 0.0567 0.901 0.0
C447 C 0.49953 0.07939 0.90192 0.0
H448 H 0.93583 0.52606 0.89786 0.0
H449 H 0.99227 0.59558 0.89944 0.0
H450 H 0.97477 0.4946 0.89312 0.0
H451 H 0.03123 0.56407 0.89581 0.0
H452 H 0.09502 0.50241 0.8696 0.0
H453 H 0.05482 0.53288 0.86911 0.0
H454 H 1.01195 0.47696 0.91762 0.0
H455 H 0.05199 0.44647 0.91789 0.0
C456 C 0.95647 0.53471 0.897 0.0
C457 C 0.96085 0.56342 0.8992 0.0
C458 C 0.97887 0.5166 0.89457 0.0
C459 C 1.00618 0.52675 0.89427 0.0
C460 C 1.01049 0.55551 0.89577 0.0
C461 C 0.98812 0.5736 0.89817 0.0
C462 C 0.07703 0.49667 0.88019 0.0
C463 C 0.07679 0.47204 0.89385 0.0
C464 C 0.05398 0.51413 0.87991 0.0
C465 C 0.03014 0.50743 0.89337 0.0
C466 C 0.02975 0.48257 0.90672 0.0
C467 C 0.05277 0.46507 0.90692 0.0
H468 H 0.52499 0.10422 0.37863 0.0
H469 H 0.58815 0.0561 0.41437 0.0
H470 H 0.49594 0.06312 0.37597 0.0
H471 H 0.55909 1.01491 0.41154 0.0
H472 H 0.51128 0.942 0.37895 0.0
H473 H 0.54044 0.98307 0.38141 0.0
H474 H 0.46945 0.03171 0.40221 0.0
H475 H 0.44025 0.99058 0.39991 0.0
C476 C 0.53264 0.08497 0.38612 0.0
C477 C 0.55895 0.0836 0.39682 0.0
C478 C 0.51594 0.06137 0.38457 0.0
C479 C 0.52515 0.03574 0.39359 0.0
C480 C 0.55152 0.03426 0.40413 0.0
C481 C 0.5682 0.0579 0.40574 0.0
C482 C 0.50187 0.96135 0.38428 0.0
C483 C 0.47335 0.96287 0.3893 0.0
C484 C 0.51863 0.98493 0.38567 0.0
C485 C 0.50729 1.01067 0.39204 0.0
C486 C 0.47877 1.01227 0.39692 0.0
C487 C 0.46201 0.98867 0.39559 0.0
H488 H 0.93346 0.51109 0.68345 0.0
H489 H 0.98145 0.44067 0.66002 0.0
H490 H 0.97456 0.54012 0.68121 0.0
H491 H 0.02274 0.46982 0.65809 0.0
H492 H 0.09494 0.52638 0.68244 0.0
H493 H 0.05447 0.49621 0.68478 0.0
H494 H 1.00544 0.55918 0.64968 0.0
H495 H 0.04582 0.58918 0.647 0.0
C496 C 0.95268 0.50178 0.67764 0.0
C497 C 0.95398 0.47349 0.67173 0.0
C498 C 0.97629 0.51847 0.6764 0.0
C499 C 1.00186 0.50731 0.66934 0.0
C500 C 1.00336 0.47896 0.66381 0.0
C501 C 0.97968 0.46225 0.66494 0.0
C502 C 0.07565 0.53373 0.67498 0.0
C503 C 0.07375 0.56035 0.66459 0.0
C504 C 0.05243 0.51641 0.67636 0.0
C505 C 0.02674 0.52536 0.66752 0.0
C506 C 0.02484 0.55186 0.65703 0.0
C507 C 0.04805 0.5691 0.65553 0.0
H508 H 0.44615 0.05185 0.16227 0.0
H509 H 0.5164 0.10711 0.15658 0.0
H510 H 0.47699 1.01213 0.15906 0.0
H511 H 0.54713 0.06741 0.15317 0.0
H512 H 0.5903 0.98982 0.12449 0.0
H513 H 0.55896 0.02918 0.12603 0.0
H514 H 0.51293 0.98926 0.18335 0.0
H515 H 0.54441 0.94995 0.18201 0.0
C516 C 0.46814 0.05558 0.16039 0.0
C517 C 0.47872 0.08277 0.15976 0.0
C518 C 0.48582 0.03278 0.15856 0.0
C519 C 0.51452 0.0366 0.15596 0.0
C520 C 0.52508 0.06375 0.15486 0.0
C521 C 0.50741 0.08656 0.15677 0.0
C522 C 0.5737 0.98946 0.1376 0.0
C523 C 0.57002 0.96661 0.15317 0.0
C524 C 0.55568 1.01206 0.13843 0.0
C525 C 0.53344 1.01237 0.1548 0.0
C526 C 0.52962 0.9895 0.17028 0.0
C527 C 0.5477 0.96692 0.1695 0.0
H528 H 0.21067 0.53266 0.347 0.0
H529 H 0.17689 0.59635 0.30075 0.0
H530 H 0.21512 0.50195 0.31241 0.0
H531 H 0.18082 0.56561 0.26643 0.0
H532 H 0.20563 0.50961 0.20499 0.0
H533 H 0.2116 0.54107 0.23903 0.0
H534 H 0.18275 0.47683 0.28756 0.0
H535 H 0.17731 0.44554 0.25393 0.0
C536 C 0.20441 0.5402 0.32946 0.0
C537 C 0.19319 0.56688 0.32672 0.0
C538 C 0.20684 0.52257 0.30963 0.0
C539 C 0.19818 0.53123 0.28661 0.0
C540 C 0.18799 0.55832 0.28378 0.0
C541 C 0.18552 0.57589 0.30357 0.0
C542 C 0.20096 0.50216 0.22298 0.0
C543 C 0.19081 0.47513 0.22669 0.0
C544 C 0.20422 0.5202 0.24247 0.0
C545 C 0.19758 0.51152 0.26606 0.0
C546 C 0.18842 0.48416 0.26974 0.0
C547 C 0.18506 0.46625 0.25035 0.0
H548 H 0.50162 0.19867 0.70668 0.0
H549 H 0.58391 0.1986 0.73675 0.0
H550 H 0.48208 0.20376 0.74693 0.0
H551 H 0.56439 0.2028 0.77699 0.0
H552 H 0.52136 0.22998 0.84615 0.0
H553 H 0.54032 0.23139 0.8053 0.0
H554 H 0.47579 0.17572 0.78192 0.0
H555 H 0.45657 0.17491 0.82229 0.0
C556 C 0.51557 0.19985 0.72184 0.0
C557 C 0.54433 0.19807 0.71842 0.0
C558 C 0.50435 0.20258 0.74499 0.0
C559 C 0.5216 0.20341 0.76535 0.0
C560 C 0.55043 0.20253 0.76181 0.0
C561 C 0.56164 0.19996 0.73866 0.0
C562 C 0.51117 0.21817 0.83225 0.0
C563 C 0.48743 0.20235 0.83759 0.0
C564 C 0.52211 0.21886 0.80881 0.0
C565 C 0.50957 0.20374 0.79017 0.0
C566 C 0.48575 0.18807 0.79559 0.0
C567 C 0.47483 0.18742 0.81891 0.0
H568 H 0.86655 0.49265 0.22252 0.0
H569 H 0.81469 0.5619 0.242 0.0
H570 H 0.86371 0.47511 0.26369 0.0
H571 H 0.81172 0.54418 0.28316 0.0
H572 H 0.84969 0.52446 0.35863 0.0
H573 H 0.84457 0.54013 0.31703 0.0
H574 H 0.83251 0.45549 0.29452 0.0
H575 H 0.83783 0.43976 0.33598 0.0
C576 C 0.85413 0.50388 0.23545 0.0
C577 C 0.84096 0.52875 0.22892 0.0
C578 C 0.85243 0.49377 0.25907 0.0
C579 C 0.83766 0.50837 0.27679 0.0
C580 C 0.82358 0.53265 0.27003 0.0
C581 C 0.8251 0.54266 0.24636 0.0
C582 C 0.84563 0.50921 0.34487 0.0
C583 C 0.84436 0.48083 0.35069 0.0
C584 C 0.84256 0.51821 0.32101 0.0
C585 C 0.83829 0.49904 0.3024 0.0
C586 C 0.83615 0.47076 0.30835 0.0
C587 C 0.83906 0.46178 0.33219 0.0
H588 H 0.6052 0.83059 0.80291 0.0
H589 H 0.52875 0.85023 0.83933 0.0
H590 H 0.58046 0.82514 0.76531 0.0
H591 H 0.50385 0.84613 0.80126 0.0
H592 H 0.46315 0.82044 0.73118 0.0
H593 H 0.48718 0.81795 0.76968 0.0
H594 H 0.56019 0.85333 0.73622 0.0
H595 H 0.53663 0.85465 0.6978 0.0
C596 C 0.58301 0.83378 0.80284 0.0
C597 C 0.56894 0.84106 0.82403 0.0
C598 C 0.5688 0.83086 0.78119 0.0
C599 C 0.54014 0.83568 0.77998 0.0
C600 C 0.52586 0.84202 0.80144 0.0
C601 C 0.54011 0.84449 0.82328 0.0
C602 C 0.48447 0.82733 0.73203 0.0
C603 C 0.49799 0.83766 0.71136 0.0
C604 C 0.49819 0.82614 0.75418 0.0
C605 C 0.5257 0.83546 0.75624 0.0
C606 C 0.53925 0.8454 0.7354 0.0
C607 C 0.52565 0.84631 0.71327 0.0
H608 H 0.84937 0.60462 0.81487 0.0
H609 H 0.82722 0.5324 0.85714 0.0
H610 H 0.83877 0.57987 0.77821 0.0
H611 H 0.81715 0.50713 0.82003 0.0
H612 H 0.78265 0.47639 0.74796 0.0
H613 H 0.78695 0.50344 0.7848 0.0
H614 H 0.85988 0.54352 0.75566 0.0
H615 H 0.85529 0.5171 0.71887 0.0
C616 C 0.84222 0.58338 0.81636 0.0
C617 C 0.83944 0.57039 0.83897 0.0
C618 C 0.83624 0.56913 0.79526 0.0
C619 C 0.82749 0.54136 0.79607 0.0
C620 C 0.82371 0.52857 0.81874 0.0
C621 C 0.82957 0.54298 0.84 0.0
C622 C 0.79937 0.49127 0.74929 0.0
C623 C 0.81858 0.4946 0.73038 0.0
C624 C 0.80197 0.50658 0.77053 0.0
C625 C 0.82378 0.52564 0.77328 0.0
C626 C 0.84258 0.52935 0.7541 0.0
C627 C 0.84 0.51409 0.73296 0.0
H628 H 0.48067 0.78126 0.32464 0.0
H629 H 0.50955 0.86434 0.33891 0.0
H630 H 0.50453 0.78223 0.28585 0.0
H631 H 0.53246 0.8657 0.29999 0.0
H632 H 0.58813 0.85488 0.23602 0.0
H633 H 0.56915 0.84897 0.27625 0.0
H634 H 0.50005 0.80337 0.24707 0.0
H635 H 0.51971 0.80846 0.20673 0.0
C636 C 0.49231 0.79963 0.31962 0.0
C637 C 0.49315 0.82272 0.33492 0.0
C638 C 0.50576 0.8003 0.29724 0.0
C639 C 0.52027 0.82413 0.28958 0.0
C640 C 0.52184 0.84683 0.3053 0.0
C641 C 0.50858 0.84609 0.32769 0.0
C642 C 0.56891 0.84351 0.23814 0.0
C643 C 0.55533 0.83232 0.21808 0.0
C644 C 0.55794 0.84022 0.26128 0.0
C645 C 0.5329 0.82587 0.26503 0.0
C646 C 0.51954 0.81425 0.24498 0.0
C647 C 0.53069 0.81734 0.22178 0.0
H648 H 0.17652 0.50348 0.83921 0.0
H649 H 0.25949 0.47306 0.82729 0.0
H650 H 0.17772 0.52663 0.80016 0.0
H651 H 0.26059 0.49637 0.78807 0.0
H652 H 0.25707 0.56745 0.7296 0.0
H653 H 0.25936 0.54438 0.76888 0.0
H654 H 0.17811 0.5096 0.75755 0.0
H655 H 0.17573 0.5325 0.71844 0.0
C656 C 0.19516 0.50198 0.82841 0.0
C657 C 0.21787 0.48626 0.83637 0.0
C658 C 0.19573 0.51507 0.80592 0.0
C659 C 0.2191 0.51299 0.79091 0.0
C660 C 0.2423 0.49833 0.79926 0.0
C661 C 0.24164 0.48497 0.82171 0.0
C662 C 0.23984 0.55461 0.73536 0.0
C663 C 0.21616 0.55194 0.7209 0.0
C664 C 0.24118 0.54139 0.75785 0.0
C665 C 0.21876 0.52551 0.76642 0.0
C666 C 0.19551 0.52212 0.75161 0.0
C667 C 0.19427 0.53506 0.72909 0.0
H668 H 0.53263 0.17658 0.34214 0.0
H669 H 0.55335 0.26267 0.32941 0.0
H670 H 0.51678 0.17261 0.30079 0.0
H671 H 0.53704 0.25858 0.28787 0.0
H672 H 0.47716 0.23857 0.22178 0.0
H673 H 0.49186 0.2473 0.26322 0.0
H674 H 0.54417 0.175 0.26081 0.0
H675 H 0.52992 0.16638 0.21956 0.0
C676 C 0.53338 0.19482 0.33068 0.0
C677 C 0.54446 0.21993 0.3391 0.0
C678 C 0.52448 0.19244 0.30691 0.0
C679 C 0.52607 0.21517 0.29104 0.0
C680 C 0.53565 0.24073 0.29973 0.0
C681 C 0.54495 0.24304 0.3235 0.0
C682 C 0.49212 0.22479 0.22998 0.0
C683 C 0.50227 0.2017 0.21735 0.0
C684 C 0.5005 0.22981 0.25368 0.0
C685 C 0.51882 0.21159 0.26531 0.0
C686 C 0.52968 0.18913 0.25241 0.0
C687 C 0.52166 0.18435 0.22868 0.0
H688 H 0.26023 0.43558 0.96761 0.0
H689 H 0.18212 0.47882 0.96599 0.0
H690 H 0.26049 0.43839 1.01154 0.0
H691 H 0.18287 0.4827 1.00954 0.0
H692 H 0.17148 0.44881 0.08505 0.0
H693 H 0.17528 0.45175 0.04174 0.0
H694 H 0.26334 0.46586 0.04762 0.0
H695 H 0.25961 0.46193 0.09148 0.0
C696 C 0.24342 0.44619 0.9766 0.0
C697 C 0.22096 0.45661 0.96337 0.0
C698 C 0.2436 0.44791 1.00179 0.0
C699 C 0.22145 0.46036 1.01421 0.0
C700 C 0.19989 0.47224 1.00072 0.0
C701 C 0.19953 0.47018 0.97569 0.0
C702 C 0.1917 0.45272 0.07724 0.0
C703 C 0.21525 0.45514 0.09185 0.0
C704 C 0.19386 0.45463 0.05226 0.0
C705 C 0.2196 0.45929 0.04103 0.0
C706 C 0.24321 0.46203 0.05561 0.0
C707 C 0.24106 0.45996 0.08077 0.0
H708 H 0.59596 0.26382 0.47487 0.0
H709 H 0.54693 0.18903 0.47168 0.0
H710 H 0.59339 0.26252 0.51874 0.0
H711 H 0.54334 0.1883 0.51534 0.0
H712 H 0.57795 0.17195 0.59025 0.0
H713 H 0.57321 0.17727 0.54715 0.0
H714 H 0.56714 0.2661 0.55522 0.0
H715 H 0.57292 0.26077 0.59872 0.0
C716 C 0.5841 0.24746 0.48351 0.0
C717 C 0.57195 0.22633 0.46979 0.0
C718 C 0.58252 0.24675 0.50872 0.0
C719 C 0.5685 0.22505 0.52074 0.0
C720 C 0.55496 0.20491 0.50683 0.0
C721 C 0.55685 0.20542 0.48173 0.0
C722 C 0.57535 0.19266 0.58296 0.0
C723 C 0.57594 0.21594 0.59805 0.0
C724 C 0.5724 0.19572 0.55812 0.0
C725 C 0.56971 0.22214 0.54752 0.0
C726 C 0.56951 0.24545 0.56266 0.0
C727 C 0.57261 0.24238 0.58764 0.0
H728 H 0.77659 0.6009 0.10123 0.0
H729 H 0.85443 0.55718 0.10274 0.0
H730 H 0.77669 0.59909 0.05738 0.0
H731 H 0.85401 0.55422 0.05907 0.0
H732 H 0.86452 0.58696 0.98273 0.0
H733 H 0.8616 0.58356 1.02612 0.0
H734 H 0.77294 0.57292 1.02153 0.0
H735 H 0.77583 0.57747 0.97774 0.0
C736 C 0.79347 0.59042 0.09222 0.0
C737 C 0.81564 0.57944 0.1055 0.0
C738 C 0.79348 0.58925 0.06701 0.0
C739 C 0.81553 0.57679 0.05447 0.0
C740 C 0.83701 0.56465 0.06794 0.0
C741 C 0.83717 0.56615 0.09306 0.0
C742 C 0.84436 0.5837 0.99087 0.0
C743 C 0.82039 0.58254 0.97664 0.0
C744 C 0.8427 0.58153 1.0159 0.0
C745 C 0.81703 0.57782 1.02756 0.0
C746 C 0.79305 0.57612 1.0133 0.0
C747 C 0.7947 0.57854 0.98814 0.0
H748 H 0.49952 0.8647 0.58371 0.0
H749 H 0.4275 0.81208 0.59118 0.0
H750 H 0.50047 0.85599 0.54066 0.0
H751 H 0.42817 0.80375 0.54782 0.0
H752 H 0.44854 0.78178 0.46901 0.0
H753 H 0.45294 0.78367 0.5129 0.0
H754 H 0.47128 0.87119 0.5079 0.0
H755 H 0.4673 0.86928 0.46448 0.0
C756 C 0.484 0.85106 0.57621 0.0
C757 C 0.46324 0.83936 0.59089 0.0
C758 C 0.48447 0.84617 0.55147 0.0
C759 C 0.46414 0.82953 0.54068 0.0
C760 C 0.44421 0.81659 0.55553 0.0
C761 C 0.44377 0.82145 0.58039 0.0
C762 C 0.45376 0.80134 0.47732 0.0
C763 C 0.45755 0.82537 0.46318 0.0
C764 C 0.45612 0.80245 0.50246 0.0
C765 C 0.46259 0.82756 0.51395 0.0
C766 C 0.46675 0.8514 0.4997 0.0
C767 C 0.46426 0.85033 0.47472 0.0
H768 H 0.22328 0.64136 0.47697 0.0
H769 H 0.19925 0.55635 0.46492 0.0
H770 H 0.23166 0.63083 0.51924 0.0
H771 H 0.20739 0.54581 0.50758 0.0
H772 H 0.17892 0.56111 0.58875 0.0
H773 H 0.18111 0.56244 0.54491 0.0
H774 H 0.26101 0.60238 0.54824 0.0
H775 H 0.25896 0.60087 0.59227 0.0
C776 C 0.22022 0.62029 0.4833 0.0
C777 C 0.21044 0.59972 0.46769 0.0
C778 C 0.22521 0.61421 0.5075 0.0
C779 C 0.22012 0.58751 0.51674 0.0
C780 C 0.21139 0.5666 0.50093 0.0
C781 C 0.20686 0.57258 0.47654 0.0
C782 C 0.1972 0.56972 0.58015 0.0
C783 C 0.21866 0.58111 0.59398 0.0
C784 C 0.19853 0.57029 0.55503 0.0
C785 C 0.22118 0.58261 0.54315 0.0
C786 C 0.24324 0.59287 0.55694 0.0
C787 C 0.24211 0.59191 0.58213 0.0
H788 H 0.39762 0.22607 0.97532 0.0
H789 H 0.48122 0.19783 0.96344 0.0
H790 H 0.40848 0.2358 1.01717 0.0
H791 H 0.49213 0.20734 1.00575 0.0
H792 H 0.47584 0.18312 0.0881 0.0
H793 H 0.47487 0.18361 0.04421 0.0
H794 H 0.43743 0.26475 0.04513 0.0
H795 H 0.43847 0.26437 0.08912 0.0
C796 C 0.41852 0.22247 0.98158 0.0
C797 C 0.43855 0.21111 0.96615 0.0
C798 C 0.42478 0.22818 1.00555 0.0
C799 C 0.45113 0.22225 1.01481 0.0
C800 C 0.4716 0.212 0.99912 0.0
C801 C 0.46544 0.20675 0.9749 0.0
C802 C 0.46785 0.2013 0.07896 0.0
C803 C 0.45698 0.22359 0.09215 0.0
C804 C 0.46749 0.20165 0.05378 0.0
C805 C 0.45596 0.22416 0.04119 0.0
C806 C 0.44629 0.24703 0.05434 0.0
C807 C 0.44698 0.24684 0.07954 0.0
H808 H 0.86895 0.45193 0.48136 0.0
H809 H 0.78063 0.45965 0.47167 0.0
H810 H 0.86321 0.45735 0.5243 0.0
H811 H 0.77489 0.46621 0.51502 0.0
H812 H 0.77486 0.43865 0.59573 0.0
H813 H 0.7769 0.44057 0.55184 0.0
H814 H 0.85295 0.48767 0.5557 0.0
H815 H 0.85147 0.48459 0.59936 0.0
C816 C 0.84827 0.4553 0.48834 0.0
C817 C 0.82524 0.45523 0.47297 0.0
C818 C 0.84498 0.45864 0.51311 0.0
C819 C 0.81856 0.46231 0.52333 0.0
C820 C 0.79552 0.46307 0.50788 0.0
C821 C 0.79882 0.45953 0.48298 0.0
C822 C 0.79181 0.4497 0.58716 0.0
C823 C 0.81319 0.46115 0.60102 0.0
C824 C 0.79294 0.45093 0.56195 0.0
C825 C 0.81533 0.46392 0.55006 0.0
C826 C 0.83579 0.47679 0.5641 0.0
C827 C 0.83486 0.47521 0.5892 0.0
H828 H 0.55845 0.83932 0.09341 0.0
H829 H 0.64574 0.82696 0.08078 0.0
H830 H 0.549 0.82724 0.05125 0.0
H831 H 0.63658 0.81522 0.03933 0.0
H832 H 0.61996 0.78438 0.96891 0.0
H833 H 0.61604 0.78181 1.01257 0.0
H834 H 0.55885 0.85049 1.01155 0.0
H835 H 0.56206 0.85232 0.96758 0.0
C836 C 0.57548 0.83345 0.0818 0.0
C837 C 0.60283 0.83421 0.09029 0.0
C838 C 0.57012 0.82672 0.05768 0.0
C839 C 0.59201 0.82016 0.04191 0.0
C840 C 0.61912 0.81966 0.05096 0.0
C841 C 0.62444 0.82666 0.07474 0.0
C842 C 0.60582 0.7983 0.97796 0.0
C843 C 0.5916 0.81877 0.96494 0.0
C844 C 0.60368 0.79694 1.00298 0.0
C845 C 0.58771 0.81642 1.0156 0.0
C846 C 0.57131 0.83516 1.00239 0.0
C847 C 0.57315 0.83624 0.9772 0.0
H848 H 0.25312 0.35733 0.13345 0.0
H849 H 0.23096 0.3243 0.20327 0.0
H850 H 0.29002 0.3227 0.1301 0.0
H851 H 0.26762 0.29027 0.20019 0.0
H852 H 0.31459 0.21505 0.18104 0.0
H853 H 0.27753 0.24902 0.17829 0.0
H854 H 0.33464 0.30823 0.14688 0.0
H855 H 0.37164 0.27355 0.14908 0.0
C856 C 0.25628 0.34285 0.14813 0.0
C857 C 0.23888 0.34329 0.16848 0.0
C858 C 0.27737 0.32302 0.14622 0.0
C859 C 0.28148 0.30335 0.16468 0.0
C860 C 0.26454 0.30448 0.18528 0.0
C861 C 0.24351 0.32408 0.18711 0.0
C862 C 0.31907 0.23521 0.17325 0.0
C863 C 0.34596 0.24181 0.16551 0.0
C864 C 0.29793 0.25476 0.17181 0.0
C865 C 0.30324 0.28162 0.1629 0.0
C866 C 0.32983 0.28775 0.15382 0.0
C867 C 0.351 0.26794 0.15504 0.0
H868 H 0.79914 0.34757 0.64306 0.0
H869 H 0.76516 0.35653 0.71446 0.0
H870 H 0.76635 0.30965 0.63529 0.0
H871 H 0.73238 0.31908 0.70672 0.0
H872 H 0.66081 0.26885 0.67605 0.0
H873 H 0.69109 0.30948 0.67824 0.0
H874 H 0.76011 0.25995 0.65439 0.0
H875 H 0.7298 0.21926 0.65234 0.0
C876 C 0.78448 0.34159 0.65695 0.0
C877 C 0.78476 0.35477 0.6794 0.0
C878 C 0.76587 0.31991 0.65257 0.0
C879 C 0.74683 0.31154 0.67041 0.0
C880 C 0.74668 0.32526 0.6926 0.0
C881 C 0.76557 0.34649 0.69711 0.0
C882 C 0.68232 0.26678 0.67089 0.0
C883 C 0.69302 0.24091 0.66414 0.0
C884 C 0.69966 0.28995 0.67228 0.0
C885 C 0.72792 0.28778 0.66654 0.0
C886 C 0.73837 0.2622 0.65877 0.0
C887 C 0.72112 0.23893 0.65778 0.0
H888 H 0.76587 0.67935 0.21533 0.0
H889 H 0.80646 0.69534 0.14736 0.0
H890 H 0.73386 0.71732 0.20769 0.0
H891 H 0.7742 0.73374 0.13959 0.0
H892 H 0.7355 0.82185 0.15779 0.0
H893 H 0.76565 0.78119 0.1596 0.0
H894 H 0.69547 0.73005 0.17887 0.0
H895 H 0.66542 0.77066 0.17726 0.0
C896 C 0.76789 0.69104 0.19871 0.0
C897 C 0.78877 0.68462 0.18202 0.0
C898 C 0.7494 0.71259 0.19423 0.0
C899 C 0.75154 0.72847 0.17305 0.0
C900 C 0.77219 0.72187 0.15612 0.0
C901 C 0.7905 0.6999 0.16046 0.0
C902 C 0.72654 0.80189 0.16233 0.0
C903 C 0.69814 0.79948 0.16757 0.0
C904 C 0.74372 0.7786 0.1631 0.0
C905 C 0.73289 0.7525 0.16943 0.0
C906 C 0.70438 0.74996 0.17406 0.0
C907 C 0.68716 0.77317 0.17301 0.0
H908 H 0.26687 0.66409 0.65713 0.0
H909 H 0.20793 0.72237 0.68588 0.0
H910 H 0.30199 0.70066 0.65545 0.0
H911 H 0.2427 0.75887 0.684 0.0
H912 H 0.31896 0.8062 0.70752 0.0
H913 H 0.28422 0.76989 0.70575 0.0
H914 H 0.31588 0.7446 0.63651 0.0
H915 H 0.35098 0.78114 0.63837 0.0
C916 C 0.26129 0.6848 0.66271 0.0
C917 C 0.23473 0.69027 0.67192 0.0
C918 C 0.2814 0.70576 0.66175 0.0
C919 C 0.27528 0.73262 0.66991 0.0
C920 C 0.24834 0.73826 0.67815 0.0
C921 C 0.22837 0.71735 0.67919 0.0
C922 C 0.3184 0.79314 0.69178 0.0
C923 C 0.33764 0.79679 0.67299 0.0
C924 C 0.29842 0.77228 0.69074 0.0
C925 C 0.29702 0.75449 0.67085 0.0
C926 C 0.31649 0.75782 0.65216 0.0
C927 C 0.33661 0.77875 0.65323 0.0
H928 H 0.34692 0.80124 0.41527 0.0
H929 H 0.35975 0.77467 0.34214 0.0
H930 H 0.30998 0.76652 0.42011 0.0
H931 H 0.3232 0.74001 0.34693 0.0
H932 H 0.27364 0.664 0.37243 0.0
H933 H 0.31324 0.69581 0.3718 0.0
H934 H 0.26157 0.76075 0.40033 0.0
H935 H 0.22202 0.72898 0.40087 0.0
C936 C 0.34202 0.78777 0.40038 0.0
C937 C 0.35598 0.79073 0.37829 0.0
C938 C 0.32086 0.76807 0.40307 0.0
C939 C 0.31376 0.75062 0.38387 0.0
C940 C 0.32836 0.75305 0.36207 0.0
C941 C 0.34908 0.77302 0.35926 0.0
C942 C 0.27087 0.68498 0.37878 0.0
C943 C 0.24474 0.6941 0.38653 0.0
C944 C 0.29344 0.70319 0.37832 0.0
C945 C 0.29043 0.73072 0.38601 0.0
C946 C 0.26451 0.73959 0.39446 0.0
C947 C 0.24184 0.72152 0.39454 0.0
H948 H 0.31184 0.2189 0.85838 0.0
H949 H 0.36085 0.2619 0.91125 0.0
H950 H 0.27928 0.25709 0.85762 0.0
H951 H 0.32869 0.30086 0.90971 0.0
H952 H 0.24701 0.35114 0.9181 0.0
H953 H 0.28118 0.31384 0.92053 0.0
H954 H 0.27744 0.30426 0.84339 0.0
H955 H 0.2434 0.34112 0.84105 0.0
C956 C 0.3157 0.23646 0.8699 0.0
C957 C 0.33904 0.23722 0.88488 0.0
C958 C 0.29716 0.25858 0.86923 0.0
C959 C 0.30146 0.28216 0.88347 0.0
C960 C 0.32468 0.28293 0.89862 0.0
C961 C 0.34329 0.26072 0.89929 0.0
C962 C 0.2537 0.34118 0.90168 0.0
C963 C 0.24219 0.34883 0.87943 0.0
C964 C 0.27329 0.31985 0.90306 0.0
C965 C 0.2818 0.30582 0.88218 0.0
C966 C 0.27085 0.31412 0.85989 0.0
C967 C 0.25129 0.33528 0.85855 0.0
H968 H 0.67904 0.27041 0.35776 0.0
H969 H 0.68715 0.23516 0.42891 0.0
H970 H 0.71785 0.30144 0.36549 0.0
H971 H 0.72629 0.26639 0.43675 0.0
H972 H 0.8173 0.3 0.42187 0.0
H973 H 0.77561 0.27129 0.41919 0.0
H974 H 0.72988 0.34185 0.39266 0.0
H975 H 0.77154 0.37046 0.39522 0.0
C976 C 0.68917 0.26933 0.37508 0.0
C977 C 0.68025 0.25025 0.39268 0.0
C978 C 0.7112 0.28728 0.37959 0.0
C979 C 0.72506 0.28634 0.40173 0.0
C980 C 0.71601 0.26745 0.41949 0.0
C981 C 0.69359 0.24974 0.41509 0.0
C982 C 0.79828 0.30937 0.41561 0.0
C983 C 0.79772 0.33743 0.40863 0.0
C984 C 0.77439 0.29303 0.41429 0.0
C985 C 0.74955 0.30434 0.40565 0.0
C986 C 0.7488 0.33256 0.39926 0.0
C987 C 0.77259 0.34898 0.40088 0.0
H988 H 0.80942 0.70664 0.85557 0.0
H989 H 0.77624 0.68074 0.92422 0.0
H990 H 0.77134 0.73908 0.85053 0.0
H991 H 0.73857 0.71424 0.91997 0.0
H992 H 0.66421 0.76608 0.89955 0.0
H993 H 0.6976 0.72839 0.90022 0.0
H994 H 0.75803 0.78179 0.86576 0.0
H995 H 0.72427 0.81854 0.86356 0.0
C996 C 0.79394 0.70808 0.86964 0.0
C997 C 0.79585 0.69151 0.8904 0.0
C998 C 0.77216 0.72675 0.86686 0.0
C999 C 0.75202 0.72974 0.88502 0.0
C1000 C 0.75348 0.71239 0.90548 0.0
C1001 C 0.77509 0.69329 0.90803 0.0
C1002 C 0.6844 0.76963 0.89165 0.0
C1003 C 0.69145 0.79559 0.88161 0.0
C1004 C 0.70374 0.74805 0.89235 0.0
C1005 C 0.73066 0.75193 0.88314 0.0
C1006 C 0.73745 0.77773 0.87272 0.0
C1007 C 0.7181 0.79911 0.87179 0.0
loop_
_geom_bond_atom_site_label_1
_geom_bond_atom_site_label_2
_geom_bond_distance
_geom_bond_site_symmetry_2
_ccdc_geom_bond_type
Cu0 N1 1.999 . S
Cu0 O6 1.974 . S
Cu0 N11 1.985 . S
Cu0 O20 1.959 . S
N1 Cu0 1.999 . S
N1 C3 1.263 . S
N1 C5 1.389 . S
N2 C3 1.358 . S
N2 C4 1.400 . S
C3 N1 1.263 . S
C3 N2 1.358 . S
C3 H9 0.930 . S
C4 N2 1.400 . S
C4 C5 1.351 . S
C4 H21 0.930 . S
C5 N1 1.389 . S
C5 C4 1.351 . S
C5 H10 0.930 . S
O6 Cu0 1.974 . S
O6 C16 1.282 . S
C7 O8 1.261 . S
C7 O20 1.251 . S
O8 C7 1.261 . S
H9 C3 0.930 . S
H10 C5 0.930 . S
N11 Cu0 1.985 . S
N11 C13 1.335 . S
N11 C14 1.390 . S
N12 C13 1.345 . S
N12 C15 1.336 . S
C13 N11 1.335 . S
C13 N12 1.345 . S
C13 H18 0.930 . S
C14 N11 1.390 . S
C14 C15 1.346 . S
C14 H19 0.930 . S
C15 N12 1.336 . S
C15 C14 1.346 . S
C15 H22 0.929 . S
C16 O6 1.282 . S
C16 O17 1.216 . S
O17 C16 1.216 . S
H18 C13 0.930 . S
H19 C14 0.930 . S
O20 Cu0 1.959 . S
O20 C7 1.251 . S
H21 C4 0.930 . S
H22 C15 0.929 . S
Cu23 N24 1.999 . S
Cu23 O29 1.974 . S
Cu23 N34 1.985 . S
Cu23 O43 1.959 . S
N24 Cu23 1.999 . S
N24 C26 1.263 . S
N24 C28 1.389 . S
N25 C26 1.358 . S
N25 C27 1.400 . S
C26 N24 1.263 . S
C26 N25 1.358 . S
C26 H32 0.930 . S
C27 N25 1.400 . S
C27 C28 1.351 . S
C27 H44 0.930 . S
C28 N24 1.389 . S
C28 C27 1.351 . S
C28 H33 0.930 . S
O29 Cu23 1.974 . S
O29 C39 1.282 . S
C30 O31 1.261 . S
C30 O43 1.251 . S
O31 C30 1.261 . S
H32 C26 0.930 . S
H33 C28 0.930 . S
N34 Cu23 1.985 . S
N34 C36 1.335 . S
N34 C37 1.390 . S
N35 C36 1.345 . S
N35 C38 1.336 . S
C36 N34 1.335 . S
C36 N35 1.345 . S
C36 H41 0.930 . S
C37 N34 1.390 . S
C37 C38 1.346 . S
C37 H42 0.930 . S
C38 N35 1.336 . S
C38 C37 1.346 . S
C38 H45 0.929 . S
C39 O29 1.282 . S
C39 O40 1.216 . S
O40 C39 1.216 . S
H41 C36 0.930 . S
H42 C37 0.930 . S
O43 Cu23 1.959 . S
O43 C30 1.251 . S
H44 C27 0.930 . S
H45 C38 0.929 . S
Cu46 N47 1.999 . S
Cu46 O52 1.974 . S
Cu46 N57 1.985 . S
Cu46 O66 1.959 . S
N47 Cu46 1.999 . S
N47 C49 1.263 . S
N47 C51 1.389 . S
N48 C49 1.358 . S
N48 C50 1.400 . S
C49 N47 1.263 . S
C49 N48 1.358 . S
C49 H55 0.930 . S
C50 N48 1.400 . S
C50 C51 1.351 . S
C50 H67 0.930 . S
C51 N47 1.389 . S
C51 C50 1.351 . S
C51 H56 0.930 . S
O52 Cu46 1.974 . S
O52 C62 1.282 . S
C53 O54 1.261 . S
C53 O66 1.251 . S
O54 C53 1.261 . S
H55 C49 0.930 . S
H56 C51 0.930 . S
N57 Cu46 1.985 . S
N57 C59 1.335 . S
N57 C60 1.390 . S
N58 C59 1.345 . S
N58 C61 1.336 . S
C59 N57 1.335 . S
C59 N58 1.345 . S
C59 H64 0.930 . S
C60 N57 1.390 . S
C60 C61 1.346 . S
C60 H65 0.930 . S
C61 N58 1.336 . S
C61 C60 1.346 . S
C61 H68 0.929 . S
C62 O52 1.282 . S
C62 O63 1.216 . S
O63 C62 1.216 . S
H64 C59 0.930 . S
H65 C60 0.930 . S
O66 Cu46 1.959 . S
O66 C53 1.251 . S
H67 C50 0.930 . S
H68 C61 0.929 . S
Cu69 N70 1.999 . S
Cu69 O75 1.974 . S
Cu69 N80 1.985 . S
Cu69 O89 1.959 . S
N70 Cu69 1.999 . S
N70 C72 1.263 . S
N70 C74 1.389 . S
N71 C72 1.358 . S
N71 C73 1.400 . S
C72 N70 1.263 . S
C72 N71 1.358 . S
C72 H78 0.930 . S
C73 N71 1.400 . S
C73 C74 1.351 . S
C73 H90 0.930 . S
C74 N70 1.389 . S
C74 C73 1.351 . S
C74 H79 0.930 . S
O75 Cu69 1.974 . S
O75 C85 1.282 . S
C76 O77 1.261 . S
C76 O89 1.251 . S
O77 C76 1.261 . S
H78 C72 0.930 . S
H79 C74 0.930 . S
N80 Cu69 1.985 . S
N80 C82 1.335 . S
N80 C83 1.390 . S
N81 C82 1.345 . S
N81 C84 1.336 . S
C82 N80 1.335 . S
C82 N81 1.345 . S
C82 H87 0.930 . S
C83 N80 1.390 . S
C83 C84 1.346 . S
C83 H88 0.930 . S
C84 N81 1.336 . S
C84 C83 1.346 . S
C84 H91 0.929 . S
C85 O75 1.282 . S
C85 O86 1.216 . S
O86 C85 1.216 . S
H87 C82 0.930 . S
H88 C83 0.930 . S
O89 Cu69 1.959 . S
O89 C76 1.251 . S
H90 C73 0.930 . S
H91 C84 0.929 . S
Cu92 N93 1.999 . S
Cu92 O98 1.974 . S
Cu92 N103 1.985 . S
Cu92 O112 1.959 . S
N93 Cu92 1.999 . S
N93 C95 1.263 . S
N93 C97 1.389 . S
N94 C95 1.358 . S
N94 C96 1.400 . S
C95 N93 1.263 . S
C95 N94 1.358 . S
C95 H101 0.930 . S
C96 N94 1.400 . S
C96 C97 1.351 . S
C96 H113 0.930 . S
C97 N93 1.389 . S
C97 C96 1.351 . S
C97 H102 0.930 . S
O98 Cu92 1.974 . S
O98 C108 1.282 . S
C99 O100 1.261 . S
C99 O112 1.251 . S
O100 C99 1.261 . S
H101 C95 0.930 . S
H102 C97 0.930 . S
N103 Cu92 1.985 . S
N103 C105 1.335 . S
N103 C106 1.390 . S
N104 C105 1.345 . S
N104 C107 1.336 . S
C105 N103 1.335 . S
C105 N104 1.345 . S
C105 H110 0.930 . S
C106 N103 1.390 . S
C106 C107 1.346 . S
C106 H111 0.930 . S
C107 N104 1.336 . S
C107 C106 1.346 . S
C107 H114 0.929 . S
C108 O98 1.282 . S
C108 O109 1.216 . S
O109 C108 1.216 . S
H110 C105 0.930 . S
H111 C106 0.930 . S
O112 Cu92 1.959 . S
O112 C99 1.251 . S
H113 C96 0.930 . S
H114 C107 0.929 . S
Cu115 N116 1.999 . S
Cu115 O121 1.974 . S
Cu115 N126 1.985 . S
Cu115 O135 1.959 . S
N116 Cu115 1.999 . S
N116 C118 1.263 . S
N116 C120 1.389 . S
N117 C118 1.358 . S
N117 C119 1.400 . S
C118 N116 1.263 . S
C118 N117 1.358 . S
C118 H124 0.930 . S
C119 N117 1.400 . S
C119 C120 1.351 . S
C119 H136 0.930 . S
C120 N116 1.389 . S
C120 C119 1.351 . S
C120 H125 0.930 . S
O121 Cu115 1.974 . S
O121 C131 1.282 . S
C122 O123 1.261 . S
C122 O135 1.251 . S
O123 C122 1.261 . S
H124 C118 0.930 . S
H125 C120 0.930 . S
N126 Cu115 1.985 . S
N126 C128 1.335 . S
N126 C129 1.390 . S
N127 C128 1.345 . S
N127 C130 1.336 . S
C128 N126 1.335 . S
C128 N127 1.345 . S
C128 H133 0.930 . S
C129 N126 1.390 . S
C129 C130 1.346 . S
C129 H134 0.930 . S
C130 N127 1.336 . S
C130 C129 1.346 . S
C130 H137 0.929 . S
C131 O121 1.282 . S
C131 O132 1.216 . S
O132 C131 1.216 . S
H133 C128 0.930 . S
H134 C129 0.930 . S
O135 Cu115 1.959 . S
O135 C122 1.251 . S
H136 C119 0.930 . S
H137 C130 0.929 . S
Cu138 N139 1.999 . S
Cu138 O144 1.974 . S
Cu138 N149 1.985 . S
Cu138 O158 1.959 . S
N139 Cu138 1.999 . S
N139 C141 1.263 . S
N139 C143 1.389 . S
N140 C141 1.358 . S
N140 C142 1.400 . S
C141 N139 1.263 . S
C141 N140 1.358 . S
C141 H147 0.930 . S
C142 N140 1.400 . S
C142 C143 1.351 . S
C142 H159 0.930 . S
C143 N139 1.389 . S
C143 C142 1.351 . S
C143 H148 0.930 . S
O144 Cu138 1.974 . S
O144 C154 1.282 . S
C145 O146 1.261 . S
C145 O158 1.251 . S
O146 C145 1.261 . S
H147 C141 0.930 . S
H148 C143 0.930 . S
N149 Cu138 1.985 . S
N149 C151 1.335 . S
N149 C152 1.390 . S
N150 C151 1.345 . S
N150 C153 1.336 . S
C151 N149 1.335 . S
C151 N150 1.345 . S
C151 H156 0.930 . S
C152 N149 1.390 . S
C152 C153 1.346 . S
C152 H157 0.930 . S
C153 N150 1.336 . S
C153 C152 1.346 . S
C153 H160 0.929 . S
C154 O144 1.282 . S
C154 O155 1.216 . S
O155 C154 1.216 . S
H156 C151 0.930 . S
H157 C152 0.930 . S
O158 Cu138 1.959 . S
O158 C145 1.251 . S
H159 C142 0.930 . S
H160 C153 0.929 . S
Cu161 N162 1.999 . S
Cu161 O167 1.974 . S
Cu161 N172 1.985 . S
Cu161 O181 1.959 . S
N162 Cu161 1.999 . S
N162 C164 1.263 . S
N162 C166 1.389 . S
N163 C164 1.358 . S
N163 C165 1.400 . S
C164 N162 1.263 . S
C164 N163 1.358 . S
C164 H170 0.930 . S
C165 N163 1.400 . S
C165 C166 1.351 . S
C165 H182 0.930 . S
C166 N162 1.389 . S
C166 C165 1.351 . S
C166 H171 0.930 . S
O167 Cu161 1.974 . S
O167 C177 1.282 . S
C168 O169 1.261 . S
C168 O181 1.251 . S
O169 C168 1.261 . S
H170 C164 0.930 . S
H171 C166 0.930 . S
N172 Cu161 1.985 . S
N172 C174 1.335 . S
N172 C175 1.390 . S
N173 C174 1.345 . S
N173 C176 1.336 . S
C174 N172 1.335 . S
C174 N173 1.345 . S
C174 H179 0.930 . S
C175 N172 1.390 . S
C175 C176 1.346 . S
C175 H180 0.930 . S
C176 N173 1.336 . S
C176 C175 1.346 . S
C176 H183 0.929 . S
C177 O167 1.282 . S
C177 O178 1.216 . S
O178 C177 1.216 . S
H179 C174 0.930 . S
H180 C175 0.930 . S
O181 Cu161 1.959 . S
O181 C168 1.251 . S
H182 C165 0.930 . S
H183 C176 0.929 . S
Cu184 N185 1.999 . S
Cu184 O190 1.974 . S
Cu184 N195 1.985 . S
Cu184 O204 1.959 . S
N185 Cu184 1.999 . S
N185 C187 1.263 . S
N185 C189 1.389 . S
N186 C187 1.358 . S
N186 C188 1.400 . S
C187 N185 1.263 . S
C187 N186 1.358 . S
C187 H193 0.930 . S
C188 N186 1.400 . S
C188 C189 1.351 . S
C188 H205 0.930 . S
C189 N185 1.389 . S
C189 C188 1.351 . S
C189 H194 0.930 . S
O190 Cu184 1.974 . S
O190 C200 1.282 . S
C191 O192 1.261 . S
C191 O204 1.251 . S
O192 C191 1.261 . S
H193 C187 0.930 . S
H194 C189 0.930 . S
N195 Cu184 1.985 . S
N195 C197 1.335 . S
N195 C198 1.390 . S
N196 C197 1.345 . S
N196 C199 1.336 . S
C197 N195 1.335 . S
C197 N196 1.345 . S
C197 H202 0.930 . S
C198 N195 1.390 . S
C198 C199 1.346 . S
C198 H203 0.930 . S
C199 N196 1.336 . S
C199 C198 1.346 . S
C199 H206 0.929 . S
C200 O190 1.282 . S
C200 O201 1.216 . S
O201 C200 1.216 . S
H202 C197 0.930 . S
H203 C198 0.930 . S
O204 Cu184 1.959 . S
O204 C191 1.251 . S
H205 C188 0.930 . S
H206 C199 0.929 . S
Cu207 N208 1.999 . S
Cu207 O213 1.974 . S
Cu207 N218 1.985 . S
Cu207 O227 1.959 . S
N208 Cu207 1.999 . S
N208 C210 1.263 . S
N208 C212 1.389 . S
N209 C210 1.358 . S
N209 C211 1.400 . S
C210 N208 1.263 . S
C210 N209 1.358 . S
C210 H216 0.930 . S
C211 N209 1.400 . S
C211 C212 1.351 . S
C211 H228 0.930 . S
C212 N208 1.389 . S
C212 C211 1.351 . S
C212 H217 0.930 . S
O213 Cu207 1.974 . S
O213 C223 1.282 . S
C214 O215 1.261 . S
C214 O227 1.251 . S
O215 C214 1.261 . S
H216 C210 0.930 . S
H217 C212 0.930 . S
N218 Cu207 1.985 . S
N218 C220 1.335 . S
N218 C221 1.390 . S
N219 C220 1.345 . S
N219 C222 1.336 . S
C220 N218 1.335 . S
C220 N219 1.345 . S
C220 H225 0.930 . S
C221 N218 1.390 . S
C221 C222 1.346 . S
C221 H226 0.930 . S
C222 N219 1.336 . S
C222 C221 1.346 . S
C222 H229 0.929 . S
C223 O213 1.282 . S
C223 O224 1.216 . S
O224 C223 1.216 . S
H225 C220 0.930 . S
H226 C221 0.930 . S
O227 Cu207 1.959 . S
O227 C214 1.251 . S
H228 C211 0.930 . S
H229 C222 0.929 . S
Cu230 N231 1.999 . S
Cu230 O236 1.974 . S
Cu230 N241 1.985 . S
Cu230 O250 1.959 . S
N231 Cu230 1.999 . S
N231 C233 1.263 . S
N231 C235 1.389 . S
N232 C233 1.358 . S
N232 C234 1.400 . S
C233 N231 1.263 . S
C233 N232 1.358 . S
C233 H239 0.930 . S
C234 N232 1.400 . S
C234 C235 1.351 . S
C234 H251 0.930 . S
C235 N231 1.389 . S
C235 C234 1.351 . S
C235 H240 0.930 . S
O236 Cu230 1.974 . S
O236 C246 1.282 . S
C237 O238 1.261 . S
C237 O250 1.251 . S
O238 C237 1.261 . S
H239 C233 0.930 . S
H240 C235 0.930 . S
N241 Cu230 1.985 . S
N241 C243 1.335 . S
N241 C244 1.390 . S
N242 C243 1.345 . S
N242 C245 1.336 . S
C243 N241 1.335 . S
C243 N242 1.345 . S
C243 H248 0.930 . S
C244 N241 1.390 . S
C244 C245 1.346 . S
C244 H249 0.930 . S
C245 N242 1.336 . S
C245 C244 1.346 . S
C245 H252 0.929 . S
C246 O236 1.282 . S
C246 O247 1.216 . S
O247 C246 1.216 . S
H248 C243 0.930 . S
H249 C244 0.930 . S
O250 Cu230 1.959 . S
O250 C237 1.251 . S
H251 C234 0.930 . S
H252 C245 0.929 . S
Cu253 N254 1.999 . S
Cu253 O259 1.974 . S
Cu253 N264 1.985 . S
Cu253 O273 1.959 . S
N254 Cu253 1.999 . S
N254 C256 1.263 . S
N254 C258 1.389 . S
N255 C256 1.358 . S
N255 C257 1.400 . S
C256 N254 1.263 . S
C256 N255 1.358 . S
C256 H262 0.930 . S
C257 N255 1.400 . S
C257 C258 1.351 . S
C257 H274 0.930 . S
C258 N254 1.389 . S
C258 C257 1.351 . S
C258 H263 0.930 . S
O259 Cu253 1.974 . S
O259 C269 1.282 . S
C260 O261 1.261 . S
C260 O273 1.251 . S
O261 C260 1.261 . S
H262 C256 0.930 . S
H263 C258 0.930 . S
N264 Cu253 1.985 . S
N264 C266 1.335 . S
N264 C267 1.390 . S
N265 C266 1.345 . S
N265 C268 1.336 . S
C266 N264 1.335 . S
C266 N265 1.345 . S
C266 H271 0.930 . S
C267 N264 1.390 . S
C267 C268 1.346 . S
C267 H272 0.930 . S
C268 N265 1.336 . S
C268 C267 1.346 . S
C268 H275 0.929 . S
C269 O259 1.282 . S
C269 O270 1.216 . S
O270 C269 1.216 . S
H271 C266 0.930 . S
H272 C267 0.930 . S
O273 Cu253 1.959 . S
O273 C260 1.251 . S
H274 C257 0.930 . S
H275 C268 0.929 . S
Cu276 N277 1.999 . S
Cu276 O282 1.974 . S
Cu276 N287 1.985 . S
Cu276 O296 1.959 . S
N277 Cu276 1.999 . S
N277 C279 1.263 . S
N277 C281 1.389 . S
N278 C279 1.358 . S
N278 C280 1.400 . S
C279 N277 1.263 . S
C279 N278 1.358 . S
C279 H285 0.930 . S
C280 N278 1.400 . S
C280 C281 1.351 . S
C280 H297 0.930 . S
C281 N277 1.389 . S
C281 C280 1.351 . S
C281 H286 0.930 . S
O282 Cu276 1.974 . S
O282 C292 1.282 . S
C283 O284 1.261 . S
C283 O296 1.251 . S
O284 C283 1.261 . S
H285 C279 0.930 . S
H286 C281 0.930 . S
N287 Cu276 1.985 . S
N287 C289 1.335 . S
N287 C290 1.390 . S
N288 C289 1.345 . S
N288 C291 1.336 . S
C289 N287 1.335 . S
C289 N288 1.345 . S
C289 H294 0.930 . S
C290 N287 1.390 . S
C290 C291 1.346 . S
C290 H295 0.930 . S
C291 N288 1.336 . S
C291 C290 1.346 . S
C291 H298 0.929 . S
C292 O282 1.282 . S
C292 O293 1.216 . S
O293 C292 1.216 . S
H294 C289 0.930 . S
H295 C290 0.930 . S
O296 Cu276 1.959 . S
O296 C283 1.251 . S
H297 C280 0.930 . S
H298 C291 0.929 . S
Cu299 N300 1.999 . S
Cu299 O305 1.974 . S
Cu299 N310 1.985 . S
Cu299 O319 1.959 . S
N300 Cu299 1.999 . S
N300 C302 1.263 . S
N300 C304 1.389 . S
N301 C302 1.358 . S
N301 C303 1.400 . S
C302 N300 1.263 . S
C302 N301 1.358 . S
C302 H308 0.930 . S
C303 N301 1.400 . S
C303 C304 1.351 . S
C303 H320 0.930 . S
C304 N300 1.389 . S
C304 C303 1.351 . S
C304 H309 0.930 . S
O305 Cu299 1.974 . S
O305 C315 1.282 . S
C306 O307 1.261 . S
C306 O319 1.251 . S
O307 C306 1.261 . S
H308 C302 0.930 . S
H309 C304 0.930 . S
N310 Cu299 1.985 . S
N310 C312 1.335 . S
N310 C313 1.390 . S
N311 C312 1.345 . S
N311 C314 1.336 . S
C312 N310 1.335 . S
C312 N311 1.345 . S
C312 H317 0.930 . S
C313 N310 1.390 . S
C313 C314 1.346 . S
C313 H318 0.930 . S
C314 N311 1.336 . S
C314 C313 1.346 . S
C314 H321 0.929 . S
C315 O305 1.282 . S
C315 O316 1.216 . S
O316 C315 1.216 . S
H317 C312 0.930 . S
H318 C313 0.930 . S
O319 Cu299 1.959 . S
O319 C306 1.251 . S
H320 C303 0.930 . S
H321 C314 0.929 . S
Cu322 N323 1.999 . S
Cu322 O328 1.974 . S
Cu322 N333 1.985 . S
Cu322 O342 1.959 . S
N323 Cu322 1.999 . S
N323 C325 1.263 . S
N323 C327 1.389 . S
N324 C325 1.358 . S
N324 C326 1.400 . S
C325 N323 1.263 . S
C325 N324 1.358 . S
C325 H331 0.930 . S
C326 N324 1.400 . S
C326 C327 1.351 . S
C326 H343 0.930 . S
C327 N323 1.389 . S
C327 C326 1.351 . S
C327 H332 0.930 . S
O328 Cu322 1.974 . S
O328 C338 1.282 . S
C329 O330 1.261 . S
C329 O342 1.251 . S
O330 C329 1.261 . S
H331 C325 0.930 . S
H332 C327 0.930 . S
N333 Cu322 1.985 . S
N333 C335 1.335 . S
N333 C336 1.390 . S
N334 C335 1.345 . S
N334 C337 1.336 . S
C335 N333 1.335 . S
C335 N334 1.345 . S
C335 H340 0.930 . S
C336 N333 1.390 . S
C336 C337 1.346 . S
C336 H341 0.930 . S
C337 N334 1.336 . S
C337 C336 1.346 . S
C337 H344 0.929 . S
C338 O328 1.282 . S
C338 O339 1.216 . S
O339 C338 1.216 . S
H340 C335 0.930 . S
H341 C336 0.930 . S
O342 Cu322 1.959 . S
O342 C329 1.251 . S
H343 C326 0.930 . S
H344 C337 0.929 . S
Cu345 N346 1.999 . S
Cu345 O351 1.974 . S
Cu345 N356 1.985 . S
Cu345 O365 1.959 . S
N346 Cu345 1.999 . S
N346 C348 1.263 . S
N346 C350 1.389 . S
N347 C348 1.358 . S
N347 C349 1.400 . S
C348 N346 1.263 . S
C348 N347 1.358 . S
C348 H354 0.930 . S
C349 N347 1.400 . S
C349 C350 1.351 . S
C349 H366 0.930 . S
C350 N346 1.389 . S
C350 C349 1.351 . S
C350 H355 0.930 . S
O351 Cu345 1.974 . S
O351 C361 1.282 . S
C352 O353 1.261 . S
C352 O365 1.251 . S
O353 C352 1.261 . S
H354 C348 0.930 . S
H355 C350 0.930 . S
N356 Cu345 1.985 . S
N356 C358 1.335 . S
N356 C359 1.390 . S
N357 C358 1.345 . S
N357 C360 1.336 . S
C358 N356 1.335 . S
C358 N357 1.345 . S
C358 H363 0.930 . S
C359 N356 1.390 . S
C359 C360 1.346 . S
C359 H364 0.930 . S
C360 N357 1.336 . S
C360 C359 1.346 . S
C360 H367 0.929 . S
C361 O351 1.282 . S
C361 O362 1.216 . S
O362 C361 1.216 . S
H363 C358 0.930 . S
H364 C359 0.930 . S
O365 Cu345 1.959 . S
O365 C352 1.251 . S
H366 C349 0.930 . S
H367 C360 0.929 . S
H368 C376 0.950 . S
H369 C381 0.950 . S
H370 C378 0.950 . S
H371 C380 0.950 . S
H372 C382 0.950 . S
H373 C384 0.950 . S
H374 C386 0.950 . S
H375 C387 0.950 . S
C376 H368 0.950 . S
C376 C377 1.386 . S
C376 C378 1.391 . S
C377 C376 1.386 . S
C377 C381 1.393 . S
C378 H370 0.950 . S
C378 C376 1.391 . S
C378 C379 1.400 . S
C379 C378 1.400 . S
C379 C380 1.398 . S
C379 C385 1.491 1_455 S
C380 H371 0.950 . S
C380 C379 1.398 . S
C380 C381 1.391 . S
C381 H369 0.950 . S
C381 C377 1.393 . S
C381 C380 1.391 . S
C382 H372 0.950 . S
C382 C383 1.386 . S
C382 C384 1.391 . S
C383 C382 1.386 . S
C383 C387 1.393 . S
C384 H373 0.950 . S
C384 C382 1.391 . S
C384 C385 1.400 . S
C385 C379 1.491 1_655 S
C385 C384 1.400 . S
C385 C386 1.398 . S
C386 H374 0.950 . S
C386 C385 1.398 . S
C386 C387 1.391 . S
C387 H375 0.950 . S
C387 C383 1.393 . S
C387 C386 1.391 . S
H388 C396 0.950 . S
H389 C401 0.950 . S
H390 C398 0.950 . S
H391 C400 0.950 . S
H392 C402 0.950 . S
H393 C404 0.950 . S
H394 C406 0.950 . S
H395 C407 0.950 . S
C396 H388 0.950 . S
C396 C397 1.386 . S
C396 C398 1.391 . S
C397 C396 1.386 . S
C397 C401 1.393 . S
C398 H390 0.950 . S
C398 C396 1.391 . S
C398 C399 1.400 . S
C399 C398 1.400 . S
C399 C400 1.398 . S
C399 C405 1.491 1_565 S
C400 H391 0.950 . S
C400 C399 1.398 . S
C400 C401 1.391 . S
C401 H389 0.950 . S
C401 C397 1.393 . S
C401 C400 1.391 . S
C402 H392 0.950 . S
C402 C403 1.386 . S
C402 C404 1.391 . S
C403 C402 1.386 . S
C403 C407 1.393 . S
C404 H393 0.950 . S
C404 C402 1.391 . S
C404 C405 1.400 . S
C405 C399 1.491 1_545 S
C405 C404 1.400 . S
C405 C406 1.398 . S
C406 H394 0.950 . S
C406 C405 1.398 . S
C406 C407 1.391 . S
C407 H395 0.950 . S
C407 C403 1.393 . S
C407 C406 1.391 . S
H408 C416 0.950 . S
H409 C421 0.950 . S
H410 C418 0.950 . S
H411 C420 0.950 . S
H412 C422 0.950 . S
H413 C424 0.950 . S
H414 C426 0.950 . S
H415 C427 0.950 . S
C416 H408 0.950 . S
C416 C417 1.386 . S
C416 C418 1.391 . S
C417 C416 1.386 . S
C417 C421 1.393 . S
C418 H410 0.950 . S
C418 C416 1.391 . S
C418 C419 1.400 . S
C419 C418 1.400 . S
C419 C420 1.398 . S
C419 C425 1.491 1_455 S
C420 H411 0.950 . S
C420 C419 1.398 . S
C420 C421 1.391 . S
C421 H409 0.950 . S
C421 C417 1.393 . S
C421 C420 1.391 . S
C422 H412 0.950 . S
C422 C423 1.386 . S
C422 C424 1.391 . S
C423 C422 1.386 . S
C423 C427 1.393 . S
C424 H413 0.950 . S
C424 C422 1.391 . S
C424 C425 1.400 . S
C425 C419 1.491 1_655 S
C425 C424 1.400 . S
C425 C426 1.398 . S
C426 H414 0.950 . S
C426 C425 1.398 . S
C426 C427 1.391 . S
C427 H415 0.950 . S
C427 C423 1.393 . S
C427 C426 1.391 . S
H428 C436 0.950 . S
H429 C441 0.950 . S
H430 C438 0.950 . S
H431 C440 0.950 . S
H432 C442 0.950 . S
H433 C444 0.950 . S
H434 C446 0.950 . S
H435 C447 0.950 . S
C436 H428 0.950 . S
C436 C437 1.386 . S
C436 C438 1.391 . S
C437 C436 1.386 . S
C437 C441 1.393 . S
C438 H430 0.950 . S
C438 C436 1.391 . S
C438 C439 1.400 . S
C439 C438 1.400 . S
C439 C440 1.398 . S
C439 C445 1.491 1_565 S
C440 H431 0.950 . S
C440 C439 1.398 . S
C440 C441 1.391 . S
C441 H429 0.950 . S
C441 C437 1.393 . S
C441 C440 1.391 . S
C442 H432 0.950 . S
C442 C443 1.386 . S
C442 C444 1.391 . S
C443 C442 1.386 . S
C443 C447 1.393 . S
C444 H433 0.950 . S
C444 C442 1.391 . S
C444 C445 1.400 . S
C445 C439 1.491 1_545 S
C445 C444 1.400 . S
C445 C446 1.398 . S
C446 H434 0.950 . S
C446 C445 1.398 . S
C446 C447 1.391 . S
C447 H435 0.950 . S
C447 C443 1.393 . S
C447 C446 1.391 . S
H448 C456 0.950 . S
H449 C461 0.950 . S
H450 C458 0.950 . S
H451 C460 0.950 . S
H452 C462 0.950 . S
H453 C464 0.950 . S
H454 C466 0.950 . S
H455 C467 0.950 . S
C456 H448 0.950 . S
C456 C457 1.386 . S
C456 C458 1.391 . S
C457 C456 1.386 . S
C457 C461 1.393 . S
C458 H450 0.950 . S
C458 C456 1.391 . S
C458 C459 1.400 . S
C459 C458 1.400 . S
C459 C460 1.398 . S
C459 C465 1.491 1_655 S
C460 H451 0.950 . S
C460 C459 1.398 . S
C460 C461 1.391 . S
C461 H449 0.950 . S
C461 C457 1.393 . S
C461 C460 1.391 . S
C462 H452 0.950 . S
C462 C463 1.386 . S
C462 C464 1.391 . S
C463 C462 1.386 . S
C463 C467 1.393 . S
C464 H453 0.950 . S
C464 C462 1.391 . S
C464 C465 1.400 . S
C465 C459 1.491 1_455 S
C465 C464 1.400 . S
C465 C466 1.398 . S
C466 H454 0.950 . S
C466 C465 1.398 . S
C466 C467 1.391 . S
C467 H455 0.950 . S
C467 C463 1.393 . S
C467 C466 1.391 . S
H468 C476 0.950 . S
H469 C481 0.950 . S
H470 C478 0.950 . S
H471 C480 0.950 . S
H472 C482 0.950 . S
H473 C484 0.950 . S
H474 C486 0.950 . S
H475 C487 0.950 . S
C476 H468 0.950 . S
C476 C477 1.386 . S
C476 C478 1.391 . S
C477 C476 1.386 . S
C477 C481 1.393 . S
C478 H470 0.950 . S
C478 C476 1.391 . S
C478 C479 1.400 . S
C479 C478 1.400 . S
C479 C480 1.398 . S
C479 C485 1.491 1_545 S
C480 H471 0.950 . S
C480 C479 1.398 . S
C480 C481 1.391 . S
C481 H469 0.950 . S
C481 C477 1.393 . S
C481 C480 1.391 . S
C482 H472 0.950 . S
C482 C483 1.386 . S
C482 C484 1.391 . S
C483 C482 1.386 . S
C483 C487 1.393 . S
C484 H473 0.950 . S
C484 C482 1.391 . S
C484 C485 1.400 . S
C485 C479 1.491 1_565 S
C485 C484 1.400 . S
C485 C486 1.398 . S
C486 H474 0.950 . S
C486 C485 1.398 . S
C486 C487 1.391 . S
C487 H475 0.950 . S
C487 C483 1.393 . S
C487 C486 1.391 . S
H488 C496 0.950 . S
H489 C501 0.950 . S
H490 C498 0.950 . S
H491 C500 0.950 . S
H492 C502 0.950 . S
H493 C504 0.950 . S
H494 C506 0.950 . S
H495 C507 0.950 . S
C496 H488 0.950 . S
C496 C497 1.386 . S
C496 C498 1.391 . S
C497 C496 1.386 . S
C497 C501 1.393 . S
C498 H490 0.950 . S
C498 C496 1.391 . S
C498 C499 1.400 . S
C499 C498 1.400 . S
C499 C500 1.398 . S
C499 C505 1.491 1_655 S
C500 H491 0.950 . S
C500 C499 1.398 . S
C500 C501 1.391 . S
C501 H489 0.950 . S
C501 C497 1.393 . S
C501 C500 1.391 . S
C502 H492 0.950 . S
C502 C503 1.386 . S
C502 C504 1.391 . S
C503 C502 1.386 . S
C503 C507 1.393 . S
C504 H493 0.950 . S
C504 C502 1.391 . S
C504 C505 1.400 . S
C505 C499 1.491 1_455 S
C505 C504 1.400 . S
C505 C506 1.398 . S
C506 H494 0.950 . S
C506 C505 1.398 . S
C506 C507 1.391 . S
C507 H495 0.950 . S
C507 C503 1.393 . S
C507 C506 1.391 . S
H508 C516 0.950 . S
H509 C521 0.950 . S
H510 C518 0.950 . S
H511 C520 0.950 . S
H512 C522 0.950 . S
H513 C524 0.950 . S
H514 C526 0.950 . S
H515 C527 0.950 . S
C516 H508 0.950 . S
C516 C517 1.386 . S
C516 C518 1.391 . S
C517 C516 1.386 . S
C517 C521 1.393 . S
C518 H510 0.950 . S
C518 C516 1.391 . S
C518 C519 1.400 . S
C519 C518 1.400 . S
C519 C520 1.398 . S
C519 C525 1.491 1_545 S
C520 H511 0.950 . S
C520 C519 1.398 . S
C520 C521 1.391 . S
C521 H509 0.950 . S
C521 C517 1.393 . S
C521 C520 1.391 . S
C522 H512 0.950 . S
C522 C523 1.386 . S
C522 C524 1.391 . S
C523 C522 1.386 . S
C523 C527 1.393 . S
C524 H513 0.950 . S
C524 C522 1.391 . S
C524 C525 1.400 . S
C525 C519 1.491 1_565 S
C525 C524 1.400 . S
C525 C526 1.398 . S
C526 H514 0.950 . S
C526 C525 1.398 . S
C526 C527 1.391 . S
C527 H515 0.950 . S
C527 C523 1.393 . S
C527 C526 1.391 . S
H528 C536 0.950 . S
H529 C541 0.950 . S
H530 C538 0.950 . S
H531 C540 0.950 . S
H532 C542 0.950 . S
H533 C544 0.950 . S
H534 C546 0.950 . S
H535 C547 0.950 . S
C536 H528 0.950 . S
C536 C537 1.386 . S
C536 C538 1.391 . S
C537 C536 1.386 . S
C537 C541 1.393 . S
C538 H530 0.950 . S
C538 C536 1.391 . S
C538 C539 1.400 . S
C539 C538 1.400 . S
C539 C540 1.398 . S
C539 C545 1.491 . S
C540 H531 0.950 . S
C540 C539 1.398 . S
C540 C541 1.391 . S
C541 H529 0.950 . S
C541 C537 1.393 . S
C541 C540 1.391 . S
C542 H532 0.950 . S
C542 C543 1.386 . S
C542 C544 1.391 . S
C543 C542 1.386 . S
C543 C547 1.393 . S
C544 H533 0.950 . S
C544 C542 1.391 . S
C544 C545 1.400 . S
C545 C539 1.491 . S
C545 C544 1.400 . S
C545 C546 1.398 . S
C546 H534 0.950 . S
C546 C545 1.398 . S
C546 C547 1.391 . S
C547 H535 0.950 . S
C547 C543 1.393 . S
C547 C546 1.391 . S
H548 C556 0.950 . S
H549 C561 0.950 . S
H550 C558 0.950 . S
H551 C560 0.950 . S
H552 C562 0.950 . S
H553 C564 0.950 . S
H554 C566 0.950 . S
H555 C567 0.950 . S
C556 H548 0.950 . S
C556 C557 1.386 . S
C556 C558 1.391 . S
C557 C556 1.386 . S
C557 C561 1.393 . S
C558 H550 0.950 . S
C558 C556 1.391 . S
C558 C559 1.400 . S
C559 C558 1.400 . S
C559 C560 1.398 . S
C559 C565 1.491 . S
C560 H551 0.950 . S
C560 C559 1.398 . S
C560 C561 1.391 . S
C561 H549 0.950 . S
C561 C557 1.393 . S
C561 C560 1.391 . S
C562 H552 0.950 . S
C562 C563 1.386 . S
C562 C564 1.391 . S
C563 C562 1.386 . S
C563 C567 1.393 . S
C564 H553 0.950 . S
C564 C562 1.391 . S
C564 C565 1.400 . S
C565 C559 1.491 . S
C565 C564 1.400 . S
C565 C566 1.398 . S
C566 H554 0.950 . S
C566 C565 1.398 . S
C566 C567 1.391 . S
C567 H555 0.950 . S
C567 C563 1.393 . S
C567 C566 1.391 . S
H568 C576 0.950 . S
H569 C581 0.950 . S
H570 C578 0.950 . S
H571 C580 0.950 . S
H572 C582 0.950 . S
H573 C584 0.950 . S
H574 C586 0.950 . S
H575 C587 0.950 . S
C576 H568 0.950 . S
C576 C577 1.386 . S
C576 C578 1.391 . S
C577 C576 1.386 . S
C577 C581 1.393 . S
C578 H570 0.950 . S
C578 C576 1.391 . S
C578 C579 1.400 . S
C579 C578 1.400 . S
C579 C580 1.398 . S
C579 C585 1.491 . S
C580 H571 0.950 . S
C580 C579 1.398 . S
C580 C581 1.391 . S
C581 H569 0.950 . S
C581 C577 1.393 . S
C581 C580 1.391 . S
C582 H572 0.950 . S
C582 C583 1.386 . S
C582 C584 1.391 . S
C583 C582 1.386 . S
C583 C587 1.393 . S
C584 H573 0.950 . S
C584 C582 1.391 . S
C584 C585 1.400 . S
C585 C579 1.491 . S
C585 C584 1.400 . S
C585 C586 1.398 . S
C586 H574 0.950 . S
C586 C585 1.398 . S
C586 C587 1.391 . S
C587 H575 0.950 . S
C587 C583 1.393 . S
C587 C586 1.391 . S
H588 C596 0.950 . S
H589 C601 0.950 . S
H590 C598 0.950 . S
H591 C600 0.950 . S
H592 C602 0.950 . S
H593 C604 0.950 . S
H594 C606 0.950 . S
H595 C607 0.950 . S
C596 H588 0.950 . S
C596 C597 1.386 . S
C596 C598 1.391 . S
C597 C596 1.386 . S
C597 C601 1.393 . S
C598 H590 0.950 . S
C598 C596 1.391 . S
C598 C599 1.400 . S
C599 C598 1.400 . S
C599 C600 1.398 . S
C599 C605 1.491 . S
C600 H591 0.950 . S
C600 C599 1.398 . S
C600 C601 1.391 . S
C601 H589 0.950 . S
C601 C597 1.393 . S
C601 C600 1.391 . S
C602 H592 0.950 . S
C602 C603 1.386 . S
C602 C604 1.391 . S
C603 C602 1.386 . S
C603 C607 1.393 . S
C604 H593 0.950 . S
C604 C602 1.391 . S
C604 C605 1.400 . S
C605 C599 1.491 . S
C605 C604 1.400 . S
C605 C606 1.398 . S
C606 H594 0.950 . S
C606 C605 1.398 . S
C606 C607 1.391 . S
C607 H595 0.950 . S
C607 C603 1.393 . S
C607 C606 1.391 . S
H608 C616 0.950 . S
H609 C621 0.950 . S
H610 C618 0.950 . S
H611 C620 0.950 . S
H612 C622 0.950 . S
H613 C624 0.950 . S
H614 C626 0.950 . S
H615 C627 0.950 . S
C616 H608 0.950 . S
C616 C617 1.386 . S
C616 C618 1.391 . S
C617 C616 1.386 . S
C617 C621 1.393 . S
C618 H610 0.950 . S
C618 C616 1.391 . S
C618 C619 1.400 . S
C619 C618 1.400 . S
C619 C620 1.398 . S
C619 C625 1.491 . S
C620 H611 0.950 . S
C620 C619 1.398 . S
C620 C621 1.391 . S
C621 H609 0.950 . S
C621 C617 1.393 . S
C621 C620 1.391 . S
C622 H612 0.950 . S
C622 C623 1.386 . S
C622 C624 1.391 . S
C623 C622 1.386 . S
C623 C627 1.393 . S
C624 H613 0.950 . S
C624 C622 1.391 . S
C624 C625 1.400 . S
C625 C619 1.491 . S
C625 C624 1.400 . S
C625 C626 1.398 . S
C626 H614 0.950 . S
C626 C625 1.398 . S
C626 C627 1.391 . S
C627 H615 0.950 . S
C627 C623 1.393 . S
C627 C626 1.391 . S
H628 C636 0.950 . S
H629 C641 0.950 . S
H630 C638 0.950 . S
H631 C640 0.950 . S
H632 C642 0.950 . S
H633 C644 0.950 . S
H634 C646 0.950 . S
H635 C647 0.950 . S
C636 H628 0.950 . S
C636 C637 1.386 . S
C636 C638 1.391 . S
C637 C636 1.386 . S
C637 C641 1.393 . S
C638 H630 0.950 . S
C638 C636 1.391 . S
C638 C639 1.400 . S
C639 C638 1.400 . S
C639 C640 1.398 . S
C639 C645 1.491 . S
C640 H631 0.950 . S
C640 C639 1.398 . S
C640 C641 1.391 . S
C641 H629 0.950 . S
C641 C637 1.393 . S
C641 C640 1.391 . S
C642 H632 0.950 . S
C642 C643 1.386 . S
C642 C644 1.391 . S
C643 C642 1.386 . S
C643 C647 1.393 . S
C644 H633 0.950 . S
C644 C642 1.391 . S
C644 C645 1.400 . S
C645 C639 1.491 . S
C645 C644 1.400 . S
C645 C646 1.398 . S
C646 H634 0.950 . S
C646 C645 1.398 . S
C646 C647 1.391 . S
C647 H635 0.950 . S
C647 C643 1.393 . S
C647 C646 1.391 . S
H648 C656 0.950 . S
H649 C661 0.950 . S
H650 C658 0.950 . S
H651 C660 0.950 . S
H652 C662 0.950 . S
H653 C664 0.950 . S
H654 C666 0.950 . S
H655 C667 0.950 . S
C656 H648 0.950 . S
C656 C657 1.386 . S
C656 C658 1.391 . S
C657 C656 1.386 . S
C657 C661 1.393 . S
C658 H650 0.950 . S
C658 C656 1.391 . S
C658 C659 1.400 . S
C659 C658 1.400 . S
C659 C660 1.398 . S
C659 C665 1.491 . S
C660 H651 0.950 . S
C660 C659 1.398 . S
C660 C661 1.391 . S
C661 H649 0.950 . S
C661 C657 1.393 . S
C661 C660 1.391 . S
C662 H652 0.950 . S
C662 C663 1.386 . S
C662 C664 1.391 . S
C663 C662 1.386 . S
C663 C667 1.393 . S
C664 H653 0.950 . S
C664 C662 1.391 . S
C664 C665 1.400 . S
C665 C659 1.491 . S
C665 C664 1.400 . S
C665 C666 1.398 . S
C666 H654 0.950 . S
C666 C665 1.398 . S
C666 C667 1.391 . S
C667 H655 0.950 . S
C667 C663 1.393 . S
C667 C666 1.391 . S
H668 C676 0.950 . S
H669 C681 0.950 . S
H670 C678 0.950 . S
H671 C680 0.950 . S
H672 C682 0.950 . S
H673 C684 0.950 . S
H674 C686 0.950 . S
H675 C687 0.950 . S
C676 H668 0.950 . S
C676 C677 1.386 . S
C676 C678 1.391 . S
C677 C676 1.386 . S
C677 C681 1.393 . S
C678 H670 0.950 . S
C678 C676 1.391 . S
C678 C679 1.400 . S
C679 C678 1.400 . S
C679 C680 1.398 . S
C679 C685 1.491 . S
C680 H671 0.950 . S
C680 C679 1.398 . S
C680 C681 1.391 . S
C681 H669 0.950 . S
C681 C677 1.393 . S
C681 C680 1.391 . S
C682 H672 0.950 . S
C682 C683 1.386 . S
C682 C684 1.391 . S
C683 C682 1.386 . S
C683 C687 1.393 . S
C684 H673 0.950 . S
C684 C682 1.391 . S
C684 C685 1.400 . S
C685 C679 1.491 . S
C685 C684 1.400 . S
C685 C686 1.398 . S
C686 H674 0.950 . S
C686 C685 1.398 . S
C686 C687 1.391 . S
C687 H675 0.950 . S
C687 C683 1.393 . S
C687 C686 1.391 . S
H688 C696 0.950 . S
H689 C701 0.950 . S
H690 C698 0.950 . S
H691 C700 0.950 . S
H692 C702 0.950 . S
H693 C704 0.950 . S
H694 C706 0.950 . S
H695 C707 0.950 . S
C696 H688 0.950 . S
C696 C697 1.386 . S
C696 C698 1.391 . S
C697 C696 1.386 . S
C697 C701 1.393 . S
C698 H690 0.950 . S
C698 C696 1.391 . S
C698 C699 1.400 . S
C699 C698 1.400 . S
C699 C700 1.398 . S
C699 C705 1.491 1_556 S
C700 H691 0.950 . S
C700 C699 1.398 . S
C700 C701 1.391 . S
C701 H689 0.950 . S
C701 C697 1.393 . S
C701 C700 1.391 . S
C702 H692 0.950 . S
C702 C703 1.386 . S
C702 C704 1.391 . S
C703 C702 1.386 . S
C703 C707 1.393 . S
C704 H693 0.950 . S
C704 C702 1.391 . S
C704 C705 1.400 . S
C705 C699 1.491 1_554 S
C705 C704 1.400 . S
C705 C706 1.398 . S
C706 H694 0.950 . S
C706 C705 1.398 . S
C706 C707 1.391 . S
C707 H695 0.950 . S
C707 C703 1.393 . S
C707 C706 1.391 . S
H708 C716 0.950 . S
H709 C721 0.950 . S
H710 C718 0.950 . S
H711 C720 0.950 . S
H712 C722 0.950 . S
H713 C724 0.950 . S
H714 C726 0.950 . S
H715 C727 0.950 . S
C716 H708 0.950 . S
C716 C717 1.386 . S
C716 C718 1.391 . S
C717 C716 1.386 . S
C717 C721 1.393 . S
C718 H710 0.950 . S
C718 C716 1.391 . S
C718 C719 1.400 . S
C719 C718 1.400 . S
C719 C720 1.398 . S
C719 C725 1.491 . S
C720 H711 0.950 . S
C720 C719 1.398 . S
C720 C721 1.391 . S
C721 H709 0.950 . S
C721 C717 1.393 . S
C721 C720 1.391 . S
C722 H712 0.950 . S
C722 C723 1.386 . S
C722 C724 1.391 . S
C723 C722 1.386 . S
C723 C727 1.393 . S
C724 H713 0.950 . S
C724 C722 1.391 . S
C724 C725 1.400 . S
C725 C719 1.491 . S
C725 C724 1.400 . S
C725 C726 1.398 . S
C726 H714 0.950 . S
C726 C725 1.398 . S
C726 C727 1.391 . S
C727 H715 0.950 . S
C727 C723 1.393 . S
C727 C726 1.391 . S
H728 C736 0.950 . S
H729 C741 0.950 . S
H730 C738 0.950 . S
H731 C740 0.950 . S
H732 C742 0.950 . S
H733 C744 0.950 . S
H734 C746 0.950 . S
H735 C747 0.950 . S
C736 H728 0.950 . S
C736 C737 1.386 . S
C736 C738 1.391 . S
C737 C736 1.386 . S
C737 C741 1.393 . S
C738 H730 0.950 . S
C738 C736 1.391 . S
C738 C739 1.400 . S
C739 C738 1.400 . S
C739 C740 1.398 . S
C739 C745 1.491 1_554 S
C740 H731 0.950 . S
C740 C739 1.398 . S
C740 C741 1.391 . S
C741 H729 0.950 . S
C741 C737 1.393 . S
C741 C740 1.391 . S
C742 H732 0.950 . S
C742 C743 1.386 . S
C742 C744 1.391 . S
C743 C742 1.386 . S
C743 C747 1.393 . S
C744 H733 0.950 . S
C744 C742 1.391 . S
C744 C745 1.400 . S
C745 C739 1.491 1_556 S
C745 C744 1.400 . S
C745 C746 1.398 . S
C746 H734 0.950 . S
C746 C745 1.398 . S
C746 C747 1.391 . S
C747 H735 0.950 . S
C747 C743 1.393 . S
C747 C746 1.391 . S
H748 C756 0.950 . S
H749 C761 0.950 . S
H750 C758 0.950 . S
H751 C760 0.950 . S
H752 C762 0.950 . S
H753 C764 0.950 . S
H754 C766 0.950 . S
H755 C767 0.950 . S
C756 H748 0.950 . S
C756 C757 1.386 . S
C756 C758 1.391 . S
C757 C756 1.386 . S
C757 C761 1.393 . S
C758 H750 0.950 . S
C758 C756 1.391 . S
C758 C759 1.400 . S
C759 C758 1.400 . S
C759 C760 1.398 . S
C759 C765 1.491 . S
C760 H751 0.950 . S
C760 C759 1.398 . S
C760 C761 1.391 . S
C761 H749 0.950 . S
C761 C757 1.393 . S
C761 C760 1.391 . S
C762 H752 0.950 . S
C762 C763 1.386 . S
C762 C764 1.391 . S
C763 C762 1.386 . S
C763 C767 1.393 . S
C764 H753 0.950 . S
C764 C762 1.391 . S
C764 C765 1.400 . S
C765 C759 1.491 . S
C765 C764 1.400 . S
C765 C766 1.398 . S
C766 H754 0.950 . S
C766 C765 1.398 . S
C766 C767 1.391 . S
C767 H755 0.950 . S
C767 C763 1.393 . S
C767 C766 1.391 . S
H768 C776 0.950 . S
H769 C781 0.950 . S
H770 C778 0.950 . S
H771 C780 0.950 . S
H772 C782 0.950 . S
H773 C784 0.950 . S
H774 C786 0.950 . S
H775 C787 0.950 . S
C776 H768 0.950 . S
C776 C777 1.386 . S
C776 C778 1.391 . S
C777 C776 1.386 . S
C777 C781 1.393 . S
C778 H770 0.950 . S
C778 C776 1.391 . S
C778 C779 1.400 . S
C779 C778 1.400 . S
C779 C780 1.398 . S
C779 C785 1.491 . S
C780 H771 0.950 . S
C780 C779 1.398 . S
C780 C781 1.391 . S
C781 H769 0.950 . S
C781 C777 1.393 . S
C781 C780 1.391 . S
C782 H772 0.950 . S
C782 C783 1.386 . S
C782 C784 1.391 . S
C783 C782 1.386 . S
C783 C787 1.393 . S
C784 H773 0.950 . S
C784 C782 1.391 . S
C784 C785 1.400 . S
C785 C779 1.491 . S
C785 C784 1.400 . S
C785 C786 1.398 . S
C786 H774 0.950 . S
C786 C785 1.398 . S
C786 C787 1.391 . S
C787 H775 0.950 . S
C787 C783 1.393 . S
C787 C786 1.391 . S
H788 C796 0.950 . S
H789 C801 0.950 . S
H790 C798 0.950 . S
H791 C800 0.950 . S
H792 C802 0.950 . S
H793 C804 0.950 . S
H794 C806 0.950 . S
H795 C807 0.950 . S
C796 H788 0.950 . S
C796 C797 1.386 . S
C796 C798 1.391 . S
C797 C796 1.386 . S
C797 C801 1.393 . S
C798 H790 0.950 . S
C798 C796 1.391 . S
C798 C799 1.400 . S
C799 C798 1.400 . S
C799 C800 1.398 . S
C799 C805 1.491 1_556 S
C800 H791 0.950 . S
C800 C799 1.398 . S
C800 C801 1.391 . S
C801 H789 0.950 . S
C801 C797 1.393 . S
C801 C800 1.391 . S
C802 H792 0.950 . S
C802 C803 1.386 . S
C802 C804 1.391 . S
C803 C802 1.386 . S
C803 C807 1.393 . S
C804 H793 0.950 . S
C804 C802 1.391 . S
C804 C805 1.400 . S
C805 C799 1.491 1_554 S
C805 C804 1.400 . S
C805 C806 1.398 . S
C806 H794 0.950 . S
C806 C805 1.398 . S
C806 C807 1.391 . S
C807 H795 0.950 . S
C807 C803 1.393 . S
C807 C806 1.391 . S
H808 C816 0.950 . S
H809 C821 0.950 . S
H810 C818 0.950 . S
H811 C820 0.950 . S
H812 C822 0.950 . S
H813 C824 0.950 . S
H814 C826 0.950 . S
H815 C827 0.950 . S
C816 H808 0.950 . S
C816 C817 1.386 . S
C816 C818 1.391 . S
C817 C816 1.386 . S
C817 C821 1.393 . S
C818 H810 0.950 . S
C818 C816 1.391 . S
C818 C819 1.400 . S
C819 C818 1.400 . S
C819 C820 1.398 . S
C819 C825 1.491 . S
C820 H811 0.950 . S
C820 C819 1.398 . S
C820 C821 1.391 . S
C821 H809 0.950 . S
C821 C817 1.393 . S
C821 C820 1.391 . S
C822 H812 0.950 . S
C822 C823 1.386 . S
C822 C824 1.391 . S
C823 C822 1.386 . S
C823 C827 1.393 . S
C824 H813 0.950 . S
C824 C822 1.391 . S
C824 C825 1.400 . S
C825 C819 1.491 . S
C825 C824 1.400 . S
C825 C826 1.398 . S
C826 H814 0.950 . S
C826 C825 1.398 . S
C826 C827 1.391 . S
C827 H815 0.950 . S
C827 C823 1.393 . S
C827 C826 1.391 . S
H828 C836 0.950 . S
H829 C841 0.950 . S
H830 C838 0.950 . S
H831 C840 0.950 . S
H832 C842 0.950 . S
H833 C844 0.950 . S
H834 C846 0.950 . S
H835 C847 0.950 . S
C836 H828 0.950 . S
C836 C837 1.386 . S
C836 C838 1.391 . S
C837 C836 1.386 . S
C837 C841 1.393 . S
C838 H830 0.950 . S
C838 C836 1.391 . S
C838 C839 1.400 . S
C839 C838 1.400 . S
C839 C840 1.398 . S
C839 C845 1.491 1_554 S
C840 H831 0.950 . S
C840 C839 1.398 . S
C840 C841 1.391 . S
C841 H829 0.950 . S
C841 C837 1.393 . S
C841 C840 1.391 . S
C842 H832 0.950 . S
C842 C843 1.386 . S
C842 C844 1.391 . S
C843 C842 1.386 . S
C843 C847 1.393 . S
C844 H833 0.950 . S
C844 C842 1.391 . S
C844 C845 1.400 . S
C845 C839 1.491 1_556 S
C845 C844 1.400 . S
C845 C846 1.398 . S
C846 H834 0.950 . S
C846 C845 1.398 . S
C846 C847 1.391 . S
C847 H835 0.950 . S
C847 C843 1.393 . S
C847 C846 1.391 . S
H848 C856 0.950 . S
H849 C861 0.950 . S
H850 C858 0.950 . S
H851 C860 0.950 . S
H852 C862 0.950 . S
H853 C864 0.950 . S
H854 C866 0.950 . S
H855 C867 0.950 . S
C856 H848 0.950 . S
C856 C857 1.386 . S
C856 C858 1.391 . S
C857 C856 1.386 . S
C857 C861 1.393 . S
C858 H850 0.950 . S
C858 C856 1.391 . S
C858 C859 1.400 . S
C859 C858 1.400 . S
C859 C860 1.398 . S
C859 C865 1.491 . S
C860 H851 0.950 . S
C860 C859 1.398 . S
C860 C861 1.391 . S
C861 H849 0.950 . S
C861 C857 1.393 . S
C861 C860 1.391 . S
C862 H852 0.950 . S
C862 C863 1.386 . S
C862 C864 1.391 . S
C863 C862 1.386 . S
C863 C867 1.393 . S
C864 H853 0.950 . S
C864 C862 1.391 . S
C864 C865 1.400 . S
C865 C859 1.491 . S
C865 C864 1.400 . S
C865 C866 1.398 . S
C866 H854 0.950 . S
C866 C865 1.398 . S
C866 C867 1.391 . S
C867 H855 0.950 . S
C867 C863 1.393 . S
C867 C866 1.391 . S
H868 C876 0.950 . S
H869 C881 0.950 . S
H870 C878 0.950 . S
H871 C880 0.950 . S
H872 C882 0.950 . S
H873 C884 0.950 . S
H874 C886 0.950 . S
H875 C887 0.950 . S
C876 H868 0.950 . S
C876 C877 1.386 . S
C876 C878 1.391 . S
C877 C876 1.386 . S
C877 C881 1.393 . S
C878 H870 0.950 . S
C878 C876 1.391 . S
C878 C879 1.400 . S
C879 C878 1.400 . S
C879 C880 1.398 . S
C879 C885 1.491 . S
C880 H871 0.950 . S
C880 C879 1.398 . S
C880 C881 1.391 . S
C881 H869 0.950 . S
C881 C877 1.393 . S
C881 C880 1.391 . S
C882 H872 0.950 . S
C882 C883 1.386 . S
C882 C884 1.391 . S
C883 C882 1.386 . S
C883 C887 1.393 . S
C884 H873 0.950 . S
C884 C882 1.391 . S
C884 C885 1.400 . S
C885 C879 1.491 . S
C885 C884 1.400 . S
C885 C886 1.398 . S
C886 H874 0.950 . S
C886 C885 1.398 . S
C886 C887 1.391 . S
C887 H875 0.950 . S
C887 C883 1.393 . S
C887 C886 1.391 . S
H888 C896 0.950 . S
H889 C901 0.950 . S
H890 C898 0.950 . S
H891 C900 0.950 . S
H892 C902 0.950 . S
H893 C904 0.950 . S
H894 C906 0.950 . S
H895 C907 0.950 . S
C896 H888 0.950 . S
C896 C897 1.386 . S
C896 C898 1.391 . S
C897 C896 1.386 . S
C897 C901 1.393 . S
C898 H890 0.950 . S
C898 C896 1.391 . S
C898 C899 1.400 . S
C899 C898 1.400 . S
C899 C900 1.398 . S
C899 C905 1.491 . S
C900 H891 0.950 . S
C900 C899 1.398 . S
C900 C901 1.391 . S
C901 H889 0.950 . S
C901 C897 1.393 . S
C901 C900 1.391 . S
C902 H892 0.950 . S
C902 C903 1.386 . S
C902 C904 1.391 . S
C903 C902 1.386 . S
C903 C907 1.393 . S
C904 H893 0.950 . S
C904 C902 1.391 . S
C904 C905 1.400 . S
C905 C899 1.491 . S
C905 C904 1.400 . S
C905 C906 1.398 . S
C906 H894 0.950 . S
C906 C905 1.398 . S
C906 C907 1.391 . S
C907 H895 0.950 . S
C907 C903 1.393 . S
C907 C906 1.391 . S
H908 C916 0.950 . S
H909 C921 0.950 . S
H910 C918 0.950 . S
H911 C920 0.950 . S
H912 C922 0.950 . S
H913 C924 0.950 . S
H914 C926 0.950 . S
H915 C927 0.950 . S
C916 H908 0.950 . S
C916 C917 1.386 . S
C916 C918 1.391 . S
C917 C916 1.386 . S
C917 C921 1.393 . S
C918 H910 0.950 . S
C918 C916 1.391 . S
C918 C919 1.400 . S
C919 C918 1.400 . S
C919 C920 1.398 . S
C919 C925 1.491 . S
C920 H911 0.950 . S
C920 C919 1.398 . S
C920 C921 1.391 . S
C921 H909 0.950 . S
C921 C917 1.393 . S
C921 C920 1.391 . S
C922 H912 0.950 . S
C922 C923 1.386 . S
C922 C924 1.391 . S
C923 C922 1.386 . S
C923 C927 1.393 . S
C924 H913 0.950 . S
C924 C922 1.391 . S
C924 C925 1.400 . S
C925 C919 1.491 . S
C925 C924 1.400 . S
C925 C926 1.398 . S
C926 H914 0.950 . S
C926 C925 1.398 . S
C926 C927 1.391 . S
C927 H915 0.950 . S
C927 C923 1.393 . S
C927 C926 1.391 . S
H928 C936 0.950 . S
H929 C941 0.950 . S
H930 C938 0.950 . S
H931 C940 0.950 . S
H932 C942 0.950 . S
H933 C944 0.950 . S
H934 C946 0.950 . S
H935 C947 0.950 . S
C936 H928 0.950 . S
C936 C937 1.386 . S
C936 C938 1.391 . S
C937 C936 1.386 . S
C937 C941 1.393 . S
C938 H930 0.950 . S
C938 C936 1.391 . S
C938 C939 1.400 . S
C939 C938 1.400 . S
C939 C940 1.398 . S
C939 C945 1.491 . S
C940 H931 0.950 . S
C940 C939 1.398 . S
C940 C941 1.391 . S
C941 H929 0.950 . S
C941 C937 1.393 . S
C941 C940 1.391 . S
C942 H932 0.950 . S
C942 C943 1.386 . S
C942 C944 1.391 . S
C943 C942 1.386 . S
C943 C947 1.393 . S
C944 H933 0.950 . S
C944 C942 1.391 . S
C944 C945 1.400 . S
C945 C939 1.491 . S
C945 C944 1.400 . S
C945 C946 1.398 . S
C946 H934 0.950 . S
C946 C945 1.398 . S
C946 C947 1.391 . S
C947 H935 0.950 . S
C947 C943 1.393 . S
C947 C946 1.391 . S
H948 C956 0.950 . S
H949 C961 0.950 . S
H950 C958 0.950 . S
H951 C960 0.950 . S
H952 C962 0.950 . S
H953 C964 0.950 . S
H954 C966 0.950 . S
H955 C967 0.950 . S
C956 H948 0.950 . S
C956 C957 1.386 . S
C956 C958 1.391 . S
C957 C956 1.386 . S
C957 C961 1.393 . S
C958 H950 0.950 . S
C958 C956 1.391 . S
C958 C959 1.400 . S
C959 C958 1.400 . S
C959 C960 1.398 . S
C959 C965 1.491 . S
C960 H951 0.950 . S
C960 C959 1.398 . S
C960 C961 1.391 . S
C961 H949 0.950 . S
C961 C957 1.393 . S
C961 C960 1.391 . S
C962 H952 0.950 . S
C962 C963 1.386 . S
C962 C964 1.391 . S
C963 C962 1.386 . S
C963 C967 1.393 . S
C964 H953 0.950 . S
C964 C962 1.391 . S
C964 C965 1.400 . S
C965 C959 1.491 . S
C965 C964 1.400 . S
C965 C966 1.398 . S
C966 H954 0.950 . S
C966 C965 1.398 . S
C966 C967 1.391 . S
C967 H955 0.950 . S
C967 C963 1.393 . S
C967 C966 1.391 . S
H968 C976 0.950 . S
H969 C981 0.950 . S
H970 C978 0.950 . S
H971 C980 0.950 . S
H972 C982 0.950 . S
H973 C984 0.950 . S
H974 C986 0.950 . S
H975 C987 0.950 . S
C976 H968 0.950 . S
C976 C977 1.386 . S
C976 C978 1.391 . S
C977 C976 1.386 . S
C977 C981 1.393 . S
C978 H970 0.950 . S
C978 C976 1.391 . S
C978 C979 1.400 . S
C979 C978 1.400 . S
C979 C980 1.398 . S
C979 C985 1.491 . S
C980 H971 0.950 . S
C980 C979 1.398 . S
C980 C981 1.391 . S
C981 H969 0.950 . S
C981 C977 1.393 . S
C981 C980 1.391 . S
C982 H972 0.950 . S
C982 C983 1.386 . S
C982 C984 1.391 . S
C983 C982 1.386 . S
C983 C987 1.393 . S
C984 H973 0.950 . S
C984 C982 1.391 . S
C984 C985 1.400 . S
C985 C979 1.491 . S
C985 C984 1.400 . S
C985 C986 1.398 . S
C986 H974 0.950 . S
C986 C985 1.398 . S
C986 C987 1.391 . S
C987 H975 0.950 . S
C987 C983 1.393 . S
C987 C986 1.391 . S
H988 C996 0.950 . S
H989 C1001 0.950 . S
H990 C998 0.950 . S
H991 C1000 0.950 . S
H992 C1002 0.950 . S
H993 C1004 0.950 . S
H994 C1006 0.950 . S
H995 C1007 0.950 . S
C996 H988 0.950 . S
C996 C997 1.386 . S
C996 C998 1.391 . S
C997 C996 1.386 . S
C997 C1001 1.393 . S
C998 H990 0.950 . S
C998 C996 1.391 . S
C998 C999 1.400 . S
C999 C998 1.400 . S
C999 C1000 1.398 . S
C999 C1005 1.491 . S
C1000 H991 0.950 . S
C1000 C999 1.398 . S
C1000 C1001 1.391 . S
C1001 H989 0.950 . S
C1001 C997 1.393 . S
C1001 C1000 1.391 . S
C1002 H992 0.950 . S
C1002 C1003 1.386 . S
C1002 C1004 1.391 . S
C1003 C1002 1.386 . S
C1003 C1007 1.393 . S
C1004 H993 0.950 . S
C1004 C1002 1.391 . S
C1004 C1005 1.400 . S
C1005 C999 1.491 . S
C1005 C1004 1.400 . S
C1005 C1006 1.398 . S
C1006 H994 0.950 . S
C1006 C1005 1.398 . S
C1006 C1007 1.391 . S
C1007 H995 0.950 . S
C1007 C1003 1.393 . S
C1007 C1006 1.391 . S
C377 N2 1.544 . S
C383 N48 1.530 . S
C397 N71 1.544 . S
C403 N25 1.530 . S
C417 N94 1.519 . S
C423 N140 1.527 . S
C437 N163 1.531 . S
C443 N117 1.520 . S
C457 N186 1.551 . S
C463 N232 1.543 . S
C477 N255 1.523 . S
C483 N209 1.518 . S
C497 N278 1.522 . S
C503 N324 1.519 . S
C517 N347 1.518 . S
C523 N301 1.524 . S
C537 C108 1.629 . S
C543 C16 1.635 . S
C557 C39 1.632 . S
C563 C131 1.621 . S
C577 C62 1.622 . S
C583 C154 1.615 . S
C597 C177 1.615 . S
C603 C85 1.619 . S
C617 C200 1.619 . S
C623 C292 1.615 . S
C637 C223 1.632 . S
C643 C315 1.634 . S
C657 C246 1.615 . S
C663 C338 1.620 . S
C677 C269 1.622 . S
C683 C361 1.615 . S
C697 C237 1.646 . S
C703 C7 1.660 . S
C717 C260 1.645 . S
C723 C30 1.660 . S
C737 C53 1.659 . S
C743 C191 1.646 . S
C757 C76 1.651 . S
C763 C214 1.654 . S
C777 C99 1.660 . S
C783 C329 1.645 . S
C797 C122 1.657 . S
C803 C352 1.648 . S
C817 C145 1.645 . S
C823 C283 1.660 . S
C837 C306 1.659 . S
C843 C168 1.646 . S
C857 N12 1.552 . S
C863 N357 1.572 . S
C877 N288 1.552 . S
C883 N35 1.572 . S
C897 N58 1.555 . S
C903 N311 1.568 . S
C917 N334 1.569 . S
C923 N81 1.554 . S
C937 N219 1.553 . S
C943 N104 1.571 . S
C957 N127 1.558 . S
C963 N242 1.566 . S
C977 N265 1.571 . S
C983 N150 1.553 . S
C997 N196 1.562 . S
C1003 N173 1.561 . S
