# Generated by pormake.
# Topology wna, (6)-cn, num edge types: 1
# Building blocks:
#     Node 0, Type 0, BuildingBlock: CUKXOW_clean_sbu_0, # of connection points: 6
#     Node 1, Type 0, BuildingBlock: CUKXOW_clean_sbu_0, # of connection points: 6
#     Node 2, Type 0, BuildingBlock: CUKXOW_clean_sbu_0, # of connection points: 6
#     Node 3, Type 0, BuildingBlock: CUKXOW_clean_sbu_0, # of connection points: 6
#     Node 4, Type 0, BuildingBlock: CUKXOW_clean_sbu_0, # of connection points: 6
#     Node 5, Type 0, BuildingBlock: CUKXOW_clean_sbu_0, # of connection points: 6
#     Node 6, Type 0, BuildingBlock: CUKXOW_clean_sbu_0, # of connection points: 6
#     Node 7, Type 0, BuildingBlock: CUKXOW_clean_sbu_0, # of connection points: 6
#     Node 8, Type 0, BuildingBlock: CUKXOW_clean_sbu_0, # of connection points: 6
#     Node 9, Type 0, BuildingBlock: CUKXOW_clean_sbu_0, # of connection points: 6
#     Node 10, Type 0, BuildingBlock: CUKXOW_clean_sbu_0, # of connection points: 6
#     Node 11, Type 0, BuildingBlock: CUKXOW_clean_sbu_0, # of connection points: 6
#     Node 12, Type 0, BuildingBlock: CUKXOW_clean_sbu_0, # of connection points: 6
#     Node 13, Type 0, BuildingBlock: CUKXOW_clean_sbu_0, # of connection points: 6
#     Node 14, Type 0, BuildingBlock: CUKXOW_clean_sbu_0, # of connection points: 6
#     Node 15, Type 0, BuildingBlock: CUKXOW_clean_sbu_0, # of connection points: 6
#     Node 16, Type 0, BuildingBlock: CUKXOW_clean_sbu_0, # of connection points: 6
#     Node 17, Type 0, BuildingBlock: CUKXOW_clean_sbu_0, # of connection points: 6
#     Node 18, Type 0, BuildingBlock: CUKXOW_clean_sbu_0, # of connection points: 6
#     Node 19, Type 0, BuildingBlock: CUKXOW_clean_sbu_0, # of connection points: 6
#     Node 20, Type 0, BuildingBlock: CUKXOW_clean_sbu_0, # of connection points: 6
#     Node 21, Type 0, BuildingBlock: CUKXOW_clean_sbu_0, # of connection points: 6
#     Node 22, Type 0, BuildingBlock: CUKXOW_clean_sbu_0, # of connection points: 6
#     Node 23, Type 0, BuildingBlock: CUKXOW_clean_sbu_0, # of connection points: 6
#     Node 24, Type 0, BuildingBlock: CUKXOW_clean_sbu_0, # of connection points: 6
#     Node 25, Type 0, BuildingBlock: CUKXOW_clean_sbu_0, # of connection points: 6
#     Node 26, Type 0, BuildingBlock: CUKXOW_clean_sbu_0, # of connection points: 6
#     Node 27, Type 0, BuildingBlock: CUKXOW_clean_sbu_0, # of connection points: 6
#     Node 28, Type 0, BuildingBlock: CUKXOW_clean_sbu_0, # of connection points: 6
#     Node 29, Type 0, BuildingBlock: CUKXOW_clean_sbu_0, # of connection points: 6
#     Node 30, Type 0, BuildingBlock: CUKXOW_clean_sbu_0, # of connection points: 6
#     Node 31, Type 0, BuildingBlock: CUKXOW_clean_sbu_0, # of connection points: 6
#     Node 32, Type 0, BuildingBlock: CUKXOW_clean_sbu_0, # of connection points: 6
#     Node 33, Type 0, BuildingBlock: CUKXOW_clean_sbu_0, # of connection points: 6
#     Node 34, Type 0, BuildingBlock: CUKXOW_clean_sbu_0, # of connection points: 6
#     Node 35, Type 0, BuildingBlock: CUKXOW_clean_sbu_0, # of connection points: 6
#     Edge 36, Type (0, 0), BuildingBlock: OJICUG_clean_linker_0, # of connection points: 2
#     Edge 37, Type (0, 0), BuildingBlock: OJICUG_clean_linker_0, # of connection points: 2
#     Edge 38, Type (0, 0), BuildingBlock: OJICUG_clean_linker_0, # of connection points: 2
#     Edge 39, Type (0, 0), BuildingBlock: OJICUG_clean_linker_0, # of connection points: 2
#     Edge 40, Type (0, 0), BuildingBlock: OJICUG_clean_linker_0, # of connection points: 2
#     Edge 41, Type (0, 0), BuildingBlock: OJICUG_clean_linker_0, # of connection points: 2
#     Edge 42, Type (0, 0), BuildingBlock: OJICUG_clean_linker_0, # of connection points: 2
#     Edge 43, Type (0, 0), BuildingBlock: OJICUG_clean_linker_0, # of connection points: 2
#     Edge 44, Type (0, 0), BuildingBlock: OJICUG_clean_linker_0, # of connection points: 2
#     Edge 45, Type (0, 0), BuildingBlock: OJICUG_clean_linker_0, # of connection points: 2
#     Edge 46, Type (0, 0), BuildingBlock: OJICUG_clean_linker_0, # of connection points: 2
#     Edge 47, Type (0, 0), BuildingBlock: OJICUG_clean_linker_0, # of connection points: 2
#     Edge 48, Type (0, 0), BuildingBlock: OJICUG_clean_linker_0, # of connection points: 2
#     Edge 49, Type (0, 0), BuildingBlock: OJICUG_clean_linker_0, # of connection points: 2
#     Edge 50, Type (0, 0), BuildingBlock: OJICUG_clean_linker_0, # of connection points: 2
#     Edge 51, Type (0, 0), BuildingBlock: OJICUG_clean_linker_0, # of connection points: 2
#     Edge 52, Type (0, 0), BuildingBlock: OJICUG_clean_linker_0, # of connection points: 2
#     Edge 53, Type (0, 0), BuildingBlock: OJICUG_clean_linker_0, # of connection points: 2
#     Edge 54, Type (0, 0), BuildingBlock: OJICUG_clean_linker_0, # of connection points: 2
#     Edge 55, Type (0, 0), BuildingBlock: OJICUG_clean_linker_0, # of connection points: 2
#     Edge 56, Type (0, 0), BuildingBlock: OJICUG_clean_linker_0, # of connection points: 2
#     Edge 57, Type (0, 0), BuildingBlock: OJICUG_clean_linker_0, # of connection points: 2
#     Edge 58, Type (0, 0), BuildingBlock: OJICUG_clean_linker_0, # of connection points: 2
#     Edge 59, Type (0, 0), BuildingBlock: OJICUG_clean_linker_0, # of connection points: 2
#     Edge 60, Type (0, 0), BuildingBlock: OJICUG_clean_linker_0, # of connection points: 2
#     Edge 61, Type (0, 0), BuildingBlock: OJICUG_clean_linker_0, # of connection points: 2
#     Edge 62, Type (0, 0), BuildingBlock: OJICUG_clean_linker_0, # of connection points: 2
#     Edge 63, Type (0, 0), BuildingBlock: OJICUG_clean_linker_0, # of connection points: 2
#     Edge 64, Type (0, 0), BuildingBlock: OJICUG_clean_linker_0, # of connection points: 2
#     Edge 65, Type (0, 0), BuildingBlock: OJICUG_clean_linker_0, # of connection points: 2
#     Edge 66, Type (0, 0), BuildingBlock: OJICUG_clean_linker_0, # of connection points: 2
#     Edge 67, Type (0, 0), BuildingBlock: OJICUG_clean_linker_0, # of connection points: 2
#     Edge 68, Type (0, 0), BuildingBlock: OJICUG_clean_linker_0, # of connection points: 2
#     Edge 69, Type (0, 0), BuildingBlock: OJICUG_clean_linker_0, # of connection points: 2
#     Edge 70, Type (0, 0), BuildingBlock: OJICUG_clean_linker_0, # of connection points: 2
#     Edge 71, Type (0, 0), BuildingBlock: OJICUG_clean_linker_0, # of connection points: 2
#     Edge 72, Type (0, 0), BuildingBlock: OJICUG_clean_linker_0, # of connection points: 2
#     Edge 73, Type (0, 0), BuildingBlock: OJICUG_clean_linker_0, # of connection points: 2
#     Edge 74, Type (0, 0), BuildingBlock: OJICUG_clean_linker_0, # of connection points: 2
#     Edge 75, Type (0, 0), BuildingBlock: OJICUG_clean_linker_0, # of connection points: 2
#     Edge 76, Type (0, 0), BuildingBlock: OJICUG_clean_linker_0, # of connection points: 2
#     Edge 77, Type (0, 0), BuildingBlock: OJICUG_clean_linker_0, # of connection points: 2
#     Edge 78, Type (0, 0), BuildingBlock: OJICUG_clean_linker_0, # of connection points: 2
#     Edge 79, Type (0, 0), BuildingBlock: OJICUG_clean_linker_0, # of connection points: 2
#     Edge 80, Type (0, 0), BuildingBlock: OJICUG_clean_linker_0, # of connection points: 2
#     Edge 81, Type (0, 0), BuildingBlock: OJICUG_clean_linker_0, # of connection points: 2
#     Edge 82, Type (0, 0), BuildingBlock: OJICUG_clean_linker_0, # of connection points: 2
#     Edge 83, Type (0, 0), BuildingBlock: OJICUG_clean_linker_0, # of connection points: 2
#     Edge 84, Type (0, 0), BuildingBlock: OJICUG_clean_linker_0, # of connection points: 2
#     Edge 85, Type (0, 0), BuildingBlock: OJICUG_clean_linker_0, # of connection points: 2
#     Edge 86, Type (0, 0), BuildingBlock: OJICUG_clean_linker_0, # of connection points: 2
#     Edge 87, Type (0, 0), BuildingBlock: OJICUG_clean_linker_0, # of connection points: 2
#     Edge 88, Type (0, 0), BuildingBlock: OJICUG_clean_linker_0, # of connection points: 2
#     Edge 89, Type (0, 0), BuildingBlock: OJICUG_clean_linker_0, # of connection points: 2
#     Edge 90, Type (0, 0), BuildingBlock: OJICUG_clean_linker_0, # of connection points: 2
#     Edge 91, Type (0, 0), BuildingBlock: OJICUG_clean_linker_0, # of connection points: 2
#     Edge 92, Type (0, 0), BuildingBlock: OJICUG_clean_linker_0, # of connection points: 2
#     Edge 93, Type (0, 0), BuildingBlock: OJICUG_clean_linker_0, # of connection points: 2
#     Edge 94, Type (0, 0), BuildingBlock: OJICUG_clean_linker_0, # of connection points: 2
#     Edge 95, Type (0, 0), BuildingBlock: OJICUG_clean_linker_0, # of connection points: 2
#     Edge 96, Type (0, 0), BuildingBlock: OJICUG_clean_linker_0, # of connection points: 2
#     Edge 97, Type (0, 0), BuildingBlock: OJICUG_clean_linker_0, # of connection points: 2
#     Edge 98, Type (0, 0), BuildingBlock: OJICUG_clean_linker_0, # of connection points: 2
#     Edge 99, Type (0, 0), BuildingBlock: OJICUG_clean_linker_0, # of connection points: 2
#     Edge 100, Type (0, 0), BuildingBlock: OJICUG_clean_linker_0, # of connection points: 2
#     Edge 101, Type (0, 0), BuildingBlock: OJICUG_clean_linker_0, # of connection points: 2
#     Edge 102, Type (0, 0), BuildingBlock: OJICUG_clean_linker_0, # of connection points: 2
#     Edge 103, Type (0, 0), BuildingBlock: OJICUG_clean_linker_0, # of connection points: 2
#     Edge 104, Type (0, 0), BuildingBlock: OJICUG_clean_linker_0, # of connection points: 2
#     Edge 105, Type (0, 0), BuildingBlock: OJICUG_clean_linker_0, # of connection points: 2
#     Edge 106, Type (0, 0), BuildingBlock: OJICUG_clean_linker_0, # of connection points: 2
#     Edge 107, Type (0, 0), BuildingBlock: OJICUG_clean_linker_0, # of connection points: 2
#     Edge 108, Type (0, 0), BuildingBlock: OJICUG_clean_linker_0, # of connection points: 2
#     Edge 109, Type (0, 0), BuildingBlock: OJICUG_clean_linker_0, # of connection points: 2
#     Edge 110, Type (0, 0), BuildingBlock: OJICUG_clean_linker_0, # of connection points: 2
#     Edge 111, Type (0, 0), BuildingBlock: OJICUG_clean_linker_0, # of connection points: 2
#     Edge 112, Type (0, 0), BuildingBlock: OJICUG_clean_linker_0, # of connection points: 2
#     Edge 113, Type (0, 0), BuildingBlock: OJICUG_clean_linker_0, # of connection points: 2
#     Edge 114, Type (0, 0), BuildingBlock: OJICUG_clean_linker_0, # of connection points: 2
#     Edge 115, Type (0, 0), BuildingBlock: OJICUG_clean_linker_0, # of connection points: 2
#     Edge 116, Type (0, 0), BuildingBlock: OJICUG_clean_linker_0, # of connection points: 2
#     Edge 117, Type (0, 0), BuildingBlock: OJICUG_clean_linker_0, # of connection points: 2
#     Edge 118, Type (0, 0), BuildingBlock: OJICUG_clean_linker_0, # of connection points: 2
#     Edge 119, Type (0, 0), BuildingBlock: OJICUG_clean_linker_0, # of connection points: 2
#     Edge 120, Type (0, 0), BuildingBlock: OJICUG_clean_linker_0, # of connection points: 2
#     Edge 121, Type (0, 0), BuildingBlock: OJICUG_clean_linker_0, # of connection points: 2
#     Edge 122, Type (0, 0), BuildingBlock: OJICUG_clean_linker_0, # of connection points: 2
#     Edge 123, Type (0, 0), BuildingBlock: OJICUG_clean_linker_0, # of connection points: 2
#     Edge 124, Type (0, 0), BuildingBlock: OJICUG_clean_linker_0, # of connection points: 2
#     Edge 125, Type (0, 0), BuildingBlock: OJICUG_clean_linker_0, # of connection points: 2
#     Edge 126, Type (0, 0), BuildingBlock: OJICUG_clean_linker_0, # of connection points: 2
#     Edge 127, Type (0, 0), BuildingBlock: OJICUG_clean_linker_0, # of connection points: 2
#     Edge 128, Type (0, 0), BuildingBlock: OJICUG_clean_linker_0, # of connection points: 2
#     Edge 129, Type (0, 0), BuildingBlock: OJICUG_clean_linker_0, # of connection points: 2
#     Edge 130, Type (0, 0), BuildingBlock: OJICUG_clean_linker_0, # of connection points: 2
#     Edge 131, Type (0, 0), BuildingBlock: OJICUG_clean_linker_0, # of connection points: 2
#     Edge 132, Type (0, 0), BuildingBlock: OJICUG_clean_linker_0, # of connection points: 2
#     Edge 133, Type (0, 0), BuildingBlock: OJICUG_clean_linker_0, # of connection points: 2
#     Edge 134, Type (0, 0), BuildingBlock: OJICUG_clean_linker_0, # of connection points: 2
#     Edge 135, Type (0, 0), BuildingBlock: OJICUG_clean_linker_0, # of connection points: 2
#     Edge 136, Type (0, 0), BuildingBlock: OJICUG_clean_linker_0, # of connection points: 2
#     Edge 137, Type (0, 0), BuildingBlock: OJICUG_clean_linker_0, # of connection points: 2
#     Edge 138, Type (0, 0), BuildingBlock: OJICUG_clean_linker_0, # of connection points: 2
#     Edge 139, Type (0, 0), BuildingBlock: OJICUG_clean_linker_0, # of connection points: 2
#     Edge 140, Type (0, 0), BuildingBlock: OJICUG_clean_linker_0, # of connection points: 2
#     Edge 141, Type (0, 0), BuildingBlock: OJICUG_clean_linker_0, # of connection points: 2
#     Edge 142, Type (0, 0), BuildingBlock: OJICUG_clean_linker_0, # of connection points: 2
#     Edge 143, Type (0, 0), BuildingBlock: OJICUG_clean_linker_0, # of connection points: 2
# Relax obj value: 0.215
# Max RMSD: 0.249
# Mean RMSD: 0.236
data_MOF--net-wna--node1-CUKXOW_clean_sbu_0--edge1-OJICUG_clean_linker_0
_symmetry_space_group_name_H-M    P1
_symmetry_Int_Tables_number       1
_symmetry_cell_setting            triclinic
loop_
_symmetry_equiv_pos_as_xyz
'x, y, z'
_cell_length_a     33.486264
_cell_length_b     33.569597
_cell_length_c     51.234948
_cell_angle_alpha  90.05855
_cell_angle_beta   90.01788
_cell_angle_gamma 119.85412
loop_
_atom_site_label
_atom_site_type_symbol
_atom_site_fract_x
_atom_site_fract_y
_atom_site_fract_z
_atom_type_partial_charge
Tb0 Tb 0.12694 0.27473 0.20746 0.0
C1 C 0.11064 0.17468 0.19769 0.0
Tb2 Tb 0.03059 0.19835 0.19378 0.0
O3 O 0.10109 0.28469 0.2449 0.0
O4 O 0.07169 0.21979 0.22763 0.0
O5 O 0.14067 0.21817 0.20265 0.0
C6 C 0.95134 0.11967 0.19127 0.0
O7 O 0.06622 0.15931 0.19416 0.0
C8 C 0.07344 0.25195 0.15456 0.0
C9 C 0.05033 0.30024 0.20014 0.0
O10 O 0.98386 0.13483 0.17401 0.0
O11 O 0.96279 0.14956 0.21008 0.0
O12 O 0.02902 0.2288 0.15714 0.0
O13 O 0.09215 0.2407 0.17246 0.0
O14 O 0.01902 0.25584 0.20274 0.0
O15 O 0.09514 0.31546 0.19817 0.0
C16 C 0.21806 0.32782 0.20928 0.0
O17 O 0.19158 0.33035 0.19157 0.0
O18 O 0.19287 0.29725 0.22646 0.0
C19 C 0.06846 0.24211 0.24645 0.0
Tb20 Tb 0.71024 0.84772 0.20614 0.0
C21 C 0.81066 0.93 0.19609 0.0
Tb22 Tb 0.78525 0.82608 0.1929 0.0
O23 O 0.6997 0.81118 0.24342 0.0
O24 O 0.76485 0.84677 0.22667 0.0
O25 O 0.76697 0.9172 0.20011 0.0
C26 C 0.86352 0.82415 0.1905 0.0
O27 O 0.82566 0.90049 0.19359 0.0
C28 C 0.73215 0.81581 0.15326 0.0
C29 C 0.6829 0.74604 0.19886 0.0
O30 O 0.83348 0.80616 0.20925 0.0
O31 O 0.84864 0.84168 0.17318 0.0
O32 O 0.75425 0.79356 0.15644 0.0
O33 O 0.74382 0.84622 0.17095 0.0
O34 O 0.72688 0.75836 0.20315 0.0
O35 O 0.66887 0.77624 0.19529 0.0
C36 C 0.65878 0.88754 0.21025 0.0
O37 O 0.69039 0.89206 0.2265 0.0
O38 O 0.65434 0.8585 0.19208 0.0
C39 C 0.7424 0.82134 0.24542 0.0
Tb40 Tb 0.13648 0.8575 0.20979 0.0
C41 C 0.05395 0.87496 0.19797 0.0
Tb42 Tb 0.15799 0.95397 0.19623 0.0
O43 O 0.17101 0.88341 0.24768 0.0
O44 O 0.13588 0.91266 0.22983 0.0
O45 O 0.06695 0.8445 0.20291 0.0
C46 C 0.16019 0.03408 0.19338 0.0
O47 O 0.08331 0.91936 0.19532 0.0
C48 C 0.17099 0.91167 0.1573 0.0
C49 C 0.2385 0.93225 0.2042 0.0
O50 O 0.14359 0.00199 0.17587 0.0
O51 O 0.1769 0.02165 0.21267 0.0
O52 O 0.19266 0.95588 0.16049 0.0
O53 O 0.13969 0.89286 0.1745 0.0
O54 O 0.22557 0.96361 0.20781 0.0
O55 O 0.2087 0.8881 0.20051 0.0
C56 C 0.09774 0.76641 0.21247 0.0
O57 O 0.12714 0.79208 0.19476 0.0
O58 O 0.09229 0.79236 0.22914 0.0
C59 C 0.16046 0.91572 0.24914 0.0
Tb60 Tb 0.26856 0.1241 0.36248 0.0
C61 C 0.16804 0.10728 0.37142 0.0
Tb62 Tb 0.19268 0.02746 0.37509 0.0
O63 O 0.27787 0.09879 0.32465 0.0
O64 O 0.21289 0.06984 0.34191 0.0
O65 O 0.21042 0.13632 0.36353 0.0
C66 C 0.11428 0.94788 0.37652 0.0
O67 O 0.15414 0.0639 0.37735 0.0
C68 C 0.24762 0.06789 0.41432 0.0
C69 C 0.29507 0.04851 0.36774 0.0
O70 O 0.12956 0.97897 0.39461 0.0
O71 O 0.14386 0.961 0.35746 0.0
O72 O 0.22453 0.02372 0.4109 0.0
O73 O 0.23569 0.08731 0.3972 0.0
O74 O 0.25075 0.01758 0.36377 0.0
O75 O 0.30959 0.09265 0.37191 0.0
C76 C 0.3229 0.21513 0.36425 0.0
O77 O 0.309 0.19067 0.3431 0.0
O78 O 0.3076 0.18811 0.38429 0.0
C79 C 0.23487 0.06699 0.32272 0.0
Tb80 Tb 0.85324 0.13706 0.35556 0.0
C81 C 0.87099 0.05432 0.3672 0.0
Tb82 Tb 0.94843 0.15807 0.3751 0.0
O83 O 0.88381 0.17484 0.3194 0.0
O84 O 0.91305 0.14087 0.33904 0.0
O85 O 0.84148 0.06736 0.35964 0.0
C86 C 0.02892 0.16013 0.37878 0.0
O87 O 0.91416 0.08361 0.3737 0.0
C88 C 0.89597 0.16281 0.41114 0.0
C89 C 0.92758 0.23922 0.36724 0.0
O90 O -0.00415 0.14251 0.39577 0.0
O91 O 0.01739 0.17838 0.35992 0.0
O92 O 0.94067 0.18447 0.41245 0.0
O93 O 0.88269 0.1355 0.39191 0.0
O94 O 0.95993 0.22707 0.3671 0.0
O95 O 0.88279 0.20915 0.36582 0.0
C96 C 0.76216 0.09754 0.35047 0.0
O97 O 0.78969 0.09339 0.3343 0.0
O98 O 0.78633 0.1262 0.36888 0.0
C99 C 0.91835 0.16738 0.32031 0.0
Tb100 Tb 0.8412 0.70934 0.35748 0.0
C101 C 0.9242 0.80881 0.36942 0.0
Tb102 Tb 0.82043 0.78507 0.37206 0.0
O103 O 0.80624 0.70119 0.31985 0.0
O104 O 0.84126 0.76517 0.33812 0.0
O105 O 0.91105 0.76579 0.36329 0.0
C106 C 0.81921 0.86365 0.37381 0.0
O107 O 0.89502 0.8239 0.37341 0.0
C108 C 0.80819 0.72948 0.4105 0.0
C109 C 0.73895 0.68319 0.36407 0.0
O110 O 0.83506 0.84815 0.39181 0.0
O111 O 0.80246 0.83402 0.35478 0.0
O112 O 0.78708 0.75292 0.40813 0.0
O113 O 0.83886 0.7416 0.39293 0.0
O114 O 0.75188 0.7277 0.36218 0.0
O115 O 0.76858 0.66797 0.36593 0.0
C116 C 0.88018 0.65693 0.35504 0.0
O117 O 0.88532 0.68789 0.33817 0.0
O118 O 0.85082 0.65357 0.37274 0.0
C119 C 0.81622 0.74386 0.31893 0.0
Tb120 Tb 0.95184 0.78772 0.87345 0.0
C121 C 0.92966 0.68466 0.8658 0.0
Tb122 Tb 0.85482 0.71305 0.85945 0.0
O123 O 0.95389 0.75593 0.90944 0.0
O124 O 0.89038 0.74477 0.89477 0.0
O125 O 0.96168 0.72906 0.86384 0.0
C126 C 0.76358 0.66146 0.85583 0.0
O127 O 0.88498 0.67031 0.86763 0.0
C128 C 0.91371 0.74731 0.82058 0.0
C129 C 0.87256 0.81303 0.87273 0.0
O130 O 0.78868 0.65731 0.87385 0.0
O131 O 0.79015 0.693 0.83948 0.0
O132 O 0.88111 0.7047 0.82166 0.0
O133 O 0.91031 0.76854 0.83989 0.0
O134 O 0.84226 0.77006 0.86658 0.0
O135 O 0.9169 0.82753 0.87606 0.0
C136 C 0.03238 0.86548 0.87369 0.0
O137 O 0.00218 0.85098 0.8923 0.0
O138 O 0.01792 0.83526 0.85494 0.0
C139 C 0.90942 0.73266 0.91208 0.0
Tb140 Tb 0.19777 0.15956 0.87005 0.0
C141 C 0.2989 0.2403 0.86028 0.0
Tb142 Tb 0.27133 0.13749 0.85031 0.0
O143 O 0.23375 0.18828 0.90671 0.0
O144 O 0.24204 0.13818 0.88684 0.0
O145 O 0.25443 0.22806 0.86072 0.0
C146 C 0.32375 0.0986 0.84693 0.0
O147 O 0.31379 0.21033 0.85882 0.0
C148 C 0.235 0.16604 0.81496 0.0
C149 C 0.17136 0.05543 0.8636 0.0
O150 O 0.29198 0.09313 0.83041 0.0
O151 O 0.32785 0.12824 0.86461 0.0
O152 O 0.27687 0.1732 0.81353 0.0
O153 O 0.21479 0.14057 0.83423 0.0
O154 O 0.21335 0.06803 0.85518 0.0
O155 O 0.15789 0.08505 0.87019 0.0
C156 C 0.11976 0.16241 0.87387 0.0
O157 O 0.13564 0.14558 0.89113 0.0
O158 O 0.1488 0.17929 0.8546 0.0
C159 C 0.2569 0.16668 0.90552 0.0
Tb160 Tb 0.82441 0.0341 0.87582 0.0
C161 C 0.74214 0.05304 0.86672 0.0
Tb162 Tb 0.84459 0.12827 0.85583 0.0
O163 O 0.79682 0.04183 0.9128 0.0
O164 O 0.84599 0.09978 0.89243 0.0
O165 O 0.75494 0.02126 0.86717 0.0
C166 C 0.88062 0.21851 0.84996 0.0
O167 O 0.77188 0.09778 0.86519 0.0
C168 C 0.8151 0.06309 0.82073 0.0
C169 C 0.9284 0.11201 0.86821 0.0
O170 O 0.85366 0.19447 0.86897 0.0
O171 O 0.88544 0.1913 0.83389 0.0
O172 O 0.80707 0.09714 0.81971 0.0
O173 O 0.84172 0.06882 0.83956 0.0
O174 O 0.91497 0.14103 0.86023 0.0
O175 O 0.89918 0.06896 0.87479 0.0
C176 C 0.82261 0.95397 0.88012 0.0
O177 O 0.84098 0.98763 0.89671 0.0
O178 O 0.80368 0.9648 0.86128 0.0
C179 C 0.81814 0.08638 0.91139 0.0
Tb180 Tb 0.78421 0.95419 0.69212 0.0
C181 C 0.68229 0.93368 0.69856 0.0
Tb182 Tb 0.70859 0.85839 0.7056 0.0
O183 O 0.7528 0.9556 0.65568 0.0
O184 O 0.74212 0.89268 0.6704 0.0
O185 O 0.72643 0.96469 0.7027 0.0
C186 C 0.65495 0.76826 0.71182 0.0
O187 O 0.66783 0.88948 0.69486 0.0
C188 C 0.74162 0.91669 0.74478 0.0
C189 C 0.80829 0.87447 0.69473 0.0
O190 O 0.68729 0.79576 0.72752 0.0
O191 O 0.65154 0.7918 0.69264 0.0
O192 O 0.69875 0.88505 0.74275 0.0
O193 O 0.76386 0.91329 0.72598 0.0
O194 O 0.76455 0.84421 0.69904 0.0
O195 O 0.82376 0.91899 0.69228 0.0
C196 C 0.86281 0.03401 0.69006 0.0
O197 O 0.84767 0.00204 0.67247 0.0
O198 O 0.83288 0.02169 0.7089 0.0
C199 C 0.7305 0.91134 0.65266 0.0
Tb200 Tb 0.03016 0.82834 0.69388 0.0
C201 C 0.05086 0.74731 0.70307 0.0
Tb202 Tb 0.12609 0.84935 0.70976 0.0
O203 O 0.02971 0.79411 0.65828 0.0
O204 O 0.09253 0.84575 0.67365 0.0
O205 O 0.01917 0.7603 0.70453 0.0
C206 C 0.21717 0.8883 0.71393 0.0
O207 O 0.09568 0.77683 0.70158 0.0
C208 C 0.06543 0.82418 0.74765 0.0
C209 C 0.10919 0.93198 0.69689 0.0
O210 O 0.19031 0.89321 0.7302 0.0
O211 O 0.19239 0.85927 0.6958 0.0
O212 O 0.09846 0.81449 0.74716 0.0
O213 O 0.06947 0.84921 0.7284 0.0
O214 O 0.13912 0.91895 0.70341 0.0
O215 O 0.06513 0.90274 0.69261 0.0
C216 C 0.94984 0.82594 0.69024 0.0
O217 O 0.98255 0.84304 0.67308 0.0
O218 O 0.9618 0.80892 0.70957 0.0
C219 C 0.07421 0.81457 0.65632 0.0
Tb220 Tb 0.15761 0.20033 0.69101 0.0
C221 C 0.23824 0.3028 0.69825 0.0
Tb222 Tb 0.1359 0.27631 0.70297 0.0
O223 O 0.1924 0.23148 0.65496 0.0
O224 O 0.13948 0.24225 0.66868 0.0
O225 O 0.22509 0.25861 0.70237 0.0
C226 C 0.09881 0.33041 0.7008 0.0
O227 O 0.20843 0.31712 0.69369 0.0
C228 C 0.15899 0.24305 0.743 0.0
C229 C 0.05303 0.17555 0.69525 0.0
O230 O 0.10983 0.3172 0.72205 0.0
O231 O 0.11026 0.31455 0.68083 0.0
O232 O 0.17007 0.28597 0.74102 0.0
O233 O 0.13471 0.22116 0.72371 0.0
O234 O 0.06589 0.21812 0.70249 0.0
O235 O 0.08272 0.16164 0.6895 0.0
C236 C 0.15896 0.12183 0.68981 0.0
O237 O 0.14307 0.137 0.67167 0.0
O238 O 0.17548 0.15162 0.70877 0.0
C239 C 0.17045 0.25383 0.65141 0.0
Tb240 Tb 0.78714 0.59862 0.53868 0.0
C241 C 0.76962 0.49841 0.52878 0.0
Tb242 Tb 0.69066 0.5243 0.5223 0.0
O243 O 0.76028 0.60491 0.57662 0.0
O244 O 0.72959 0.54215 0.55692 0.0
O245 O 0.7983 0.54007 0.53775 0.0
C246 C 0.61046 0.44661 0.5194 0.0
O247 O 0.72689 0.48537 0.52136 0.0
C248 C 0.73616 0.58112 0.48483 0.0
C249 C 0.71234 0.62674 0.53127 0.0
O250 O 0.64384 0.46032 0.50274 0.0
O251 O 0.62154 0.47762 0.53746 0.0
O252 O 0.69153 0.55757 0.48613 0.0
O253 O 0.75321 0.56816 0.50282 0.0
O254 O 0.68032 0.58229 0.53251 0.0
O255 O 0.75713 0.64128 0.53008 0.0
C256 C 0.87871 0.65201 0.53764 0.0
O257 O 0.85384 0.63718 0.55863 0.0
O258 O 0.85182 0.63818 0.51743 0.0
C259 C 0.72604 0.56284 0.57658 0.0
Tb260 Tb 0.37368 0.17478 0.54068 0.0
C261 C 0.47421 0.25663 0.53145 0.0
Tb262 Tb 0.44961 0.15227 0.52917 0.0
O263 O 0.36403 0.14173 0.57905 0.0
O264 O 0.42896 0.17593 0.56163 0.0
O265 O 0.43196 0.24421 0.5392 0.0
C266 C 0.52836 0.15089 0.5289 0.0
O267 O 0.48812 0.22682 0.52616 0.0
C268 C 0.39573 0.13908 0.4895 0.0
C269 C 0.34682 0.07263 0.53633 0.0
O270 O 0.49894 0.13622 0.54806 0.0
O271 O 0.51257 0.16479 0.51003 0.0
O272 O 0.41776 0.11682 0.49322 0.0
O273 O 0.40782 0.17024 0.50668 0.0
O274 O 0.39096 0.0853 0.5406 0.0
O275 O 0.33265 0.10248 0.53171 0.0
C276 C 0.32061 0.21295 0.53648 0.0
O277 O 0.33425 0.20401 0.55831 0.0
O278 O 0.3352 0.19857 0.51725 0.0
C279 C 0.40694 0.1522 0.58104 0.0
Tb280 Tb 0.80334 0.18684 0.54746 0.0
C281 C 0.71958 0.20322 0.53579 0.0
Tb282 Tb 0.82315 0.28106 0.52714 0.0
O283 O 0.84061 0.21839 0.58378 0.0
O284 O 0.80631 0.24649 0.56332 0.0
O285 O 0.73315 0.17454 0.54409 0.0
C286 C 0.82392 0.36055 0.52287 0.0
O287 O 0.74848 0.24589 0.52845 0.0
C288 C 0.8289 0.22828 0.49175 0.0
C289 C 0.90548 0.26228 0.53615 0.0
O290 O 0.80681 0.32734 0.50596 0.0
O291 O 0.84239 0.34975 0.54196 0.0
O292 O 0.85023 0.27282 0.4901 0.0
O293 O 0.80142 0.21529 0.51089 0.0
O294 O 0.8926 0.294 0.53566 0.0
O295 O 0.87596 0.21752 0.53795 0.0
C296 C 0.7654 0.09585 0.55062 0.0
O297 O 0.76003 0.12185 0.56739 0.0
O298 O 0.79455 0.12157 0.53285 0.0
C299 C 0.8328 0.25264 0.58227 0.0
Tb300 Tb 0.94027 0.46548 0.6927 0.0
C301 C 0.83969 0.44882 0.69898 0.0
Tb302 Tb 0.86227 0.36874 0.70466 0.0
O303 O 0.95137 0.43987 0.65521 0.0
O304 O 0.88614 0.41107 0.6715 0.0
O305 O 0.88414 0.479 0.70014 0.0
C306 C 0.78405 0.289 0.70673 0.0
O307 O 0.82347 0.40395 0.69804 0.0
C308 C 0.91268 0.41277 0.74538 0.0
C309 C 0.96427 0.38871 0.70035 0.0
O310 O 0.79739 0.32242 0.72332 0.0
O311 O 0.8154 0.30001 0.6888 0.0
O312 O 0.89039 0.36847 0.74279 0.0
O313 O 0.90253 0.43022 0.72647 0.0
O314 O 0.92036 0.35828 0.69514 0.0
O315 O 0.97899 0.43283 0.70469 0.0
C316 C -0.00738 0.5562 0.68966 0.0
O317 O 0.96063 0.53024 0.67329 0.0
O318 O -0.00297 0.53069 0.70725 0.0
C319 C 0.90865 0.40781 0.65287 0.0
Tb320 Tb 0.52266 0.47211 0.69405 0.0
C321 C 0.5471 0.3935 0.69998 0.0
Tb322 Tb 0.62292 0.49893 0.70898 0.0
O323 O 0.53761 0.46223 0.65286 0.0
O324 O 0.58884 0.50777 0.67742 0.0
O325 O 0.51553 0.40442 0.69371 0.0
C326 C 0.70308 0.50383 0.69943 0.0
O327 O 0.5897 0.42415 0.70693 0.0
C328 C 0.5724 0.49096 0.74922 0.0
C329 C 0.59453 0.57603 0.70613 0.0
O330 O 0.66735 0.48534 0.68426 0.0
O331 O 0.69429 0.52122 0.7199 0.0
O332 O 0.61729 0.51109 0.74985 0.0
O333 O 0.55871 0.46951 0.72762 0.0
O334 O 0.62885 0.56653 0.70487 0.0
O335 O 0.55008 0.54431 0.70426 0.0
C336 C 0.43213 0.43653 0.69986 0.0
O337 O 0.45571 0.46065 0.67976 0.0
O338 O 0.46007 0.43518 0.71685 0.0
C339 C 0.58184 0.48965 0.65536 0.0
Tb340 Tb 0.51095 0.04597 0.69385 0.0
C341 C 0.595 0.14596 0.70169 0.0
Tb342 Tb 0.49149 0.12277 0.70819 0.0
O343 O 0.47327 0.03584 0.65705 0.0
O344 O 0.51005 0.10101 0.67407 0.0
O345 O 0.5813 0.10373 0.69344 0.0
C346 C 0.49294 0.20254 0.70874 0.0
O347 O 0.5661 0.16003 0.70886 0.0
C348 C 0.48134 0.06889 0.74718 0.0
C349 C 0.40923 0.02089 0.70234 0.0
O350 O 0.5086 0.18727 0.72696 0.0
O351 O 0.47451 0.1719 0.69032 0.0
O352 O 0.46024 0.09243 0.74515 0.0
O353 O 0.51051 0.08007 0.72884 0.0
O354 O 0.42218 0.06533 0.69994 0.0
O355 O 0.43884 0.00558 0.70388 0.0
C356 C 0.54712 0.99109 0.69546 0.0
O357 O 0.53922 0.00736 0.67432 0.0
O358 O 0.53289 0.00421 0.71547 0.0
C359 C 0.4835 0.0786 0.65555 0.0
Tb360 Tb 0.61873 0.12212 0.20765 0.0
C361 C 0.59859 0.02013 0.2011 0.0
Tb362 Tb 0.52161 0.04527 0.19435 0.0
O363 O 0.62047 0.09163 0.24444 0.0
O364 O 0.55766 0.07979 0.22884 0.0
O365 O 0.62992 0.06452 0.19844 0.0
C366 C 0.43096 0.99082 0.19841 0.0
O367 O 0.55382 0.00488 0.20347 0.0
C368 C 0.57977 0.07752 0.15532 0.0
C369 C 0.53868 0.14591 0.20059 0.0
O370 O 0.45348 0.00424 0.17657 0.0
O371 O 0.45966 0.00668 0.21774 0.0
O372 O 0.54708 0.03484 0.15692 0.0
O373 O 0.57673 0.1 0.17415 0.0
O374 O 0.50971 0.10339 0.19298 0.0
O375 O 0.58174 0.16001 0.20763 0.0
C376 C 0.69804 0.20081 0.2094 0.0
O377 O 0.66616 0.18583 0.22705 0.0
O378 O 0.68586 0.17078 0.19061 0.0
C379 C 0.576 0.06847 0.24689 0.0
Tb380 Tb 0.8635 0.49395 0.2055 0.0
C381 C 0.96589 0.57484 0.19865 0.0
Tb382 Tb 0.93879 0.4727 0.19143 0.0
O383 O 0.895 0.52717 0.24164 0.0
O384 O 0.90646 0.47509 0.22699 0.0
O385 O 0.92145 0.56219 0.19615 0.0
C386 C -0.00942 0.433 0.18826 0.0
O387 O 0.9808 0.54499 0.20047 0.0
C388 C 0.90489 0.49815 0.15266 0.0
C389 C 0.83867 0.39025 0.20309 0.0
O390 O -0.0057 0.462 0.20629 0.0
O391 O 0.95959 0.42857 0.17154 0.0
O392 O 0.94769 0.50831 0.15395 0.0
O393 O 0.88334 0.47294 0.17167 0.0
O394 O 0.88184 0.40314 0.19724 0.0
O395 O 0.82381 0.41963 0.20689 0.0
C396 C 0.78565 0.49696 0.20633 0.0
O397 O 0.81574 0.51297 0.18753 0.0
O398 O 0.80022 0.48068 0.2246 0.0
C399 C 0.91821 0.50593 0.24446 0.0
Tb400 Tb 0.49165 0.36735 0.20158 0.0
C401 C 0.40973 0.3875 0.19417 0.0
Tb402 Tb 0.51188 0.46402 0.18855 0.0
O403 O 0.45671 0.36429 0.23748 0.0
O404 O 0.50871 0.42773 0.22333 0.0
O405 O 0.42318 0.35636 0.19146 0.0
C406 C 0.54785 0.55472 0.19178 0.0
O407 O 0.43901 0.43213 0.19678 0.0
C408 C 0.48798 0.40656 0.1491 0.0
C409 C 0.59549 0.44722 0.19756 0.0
O410 O 0.54114 0.53178 0.17025 0.0
O411 O 0.53252 0.52635 0.21124 0.0
O412 O 0.47731 0.43885 0.15074 0.0
O413 O 0.51294 0.40948 0.16824 0.0
O414 O 0.58214 0.47616 0.18945 0.0
O415 O 0.56632 0.404 0.20379 0.0
C416 C 0.49064 0.28777 0.20328 0.0
O417 O 0.50574 0.31874 0.22145 0.0
O418 O 0.47492 0.30108 0.18391 0.0
C419 C 0.47768 0.40852 0.24061 0.0
Tb420 Tb 0.45135 0.28691 1.02067 0.0
C421 C 0.35002 0.26792 1.02965 0.0
Tb422 Tb 0.37682 0.19193 0.03954 0.0
O423 O 0.41686 0.28067 0.98349 0.0
O424 O 0.40757 0.22225 1.00349 0.0
O425 O 0.39463 0.29952 1.02955 0.0
C426 C 0.32232 0.10112 0.03848 0.0
O427 O 0.33483 0.22305 1.03059 0.0
C428 C 0.4122 0.25603 0.0753 0.0
C429 C 0.47763 0.20901 1.03 0.0
O430 O 0.34029 0.1254 0.05946 0.0
O431 O 0.33371 0.12819 1.01848 0.0
O432 O 0.36992 0.22208 0.07602 0.0
O433 O 0.43317 0.25067 0.05635 0.0
O434 O 0.43609 0.18116 0.03964 0.0
O435 O 0.49034 0.25084 1.02127 0.0
C436 C 0.5295 0.36688 1.01745 0.0
O437 O 0.5146 0.33398 1.00038 0.0
O438 O 0.49953 0.35535 0.03619 0.0
C439 C 0.39346 0.23609 0.98456 0.0
Tb440 Tb 0.69861 0.15927 1.02717 0.0
C441 C 0.71973 0.07846 0.03536 0.0
Tb442 Tb 0.79474 0.18095 0.04617 0.0
O443 O 0.70566 0.13207 0.98989 0.0
O444 O 0.76409 0.18134 1.01006 0.0
O445 O 0.68734 0.09056 0.03555 0.0
C446 C 0.88612 0.22071 0.04971 0.0
O447 O 0.76455 0.10848 0.0367 0.0
C448 C 0.73034 0.15177 0.08181 0.0
C449 C 0.7764 0.26314 0.03388 0.0
O450 O 0.85941 0.22532 0.0663 0.0
O451 O 0.86099 0.19137 1.03181 0.0
O452 O 0.76503 0.14451 0.08284 0.0
O453 O 0.73535 0.17759 0.06277 0.0
O454 O 0.80603 0.2504 0.04169 0.0
O455 O 0.73317 0.23372 1.02759 0.0
C456 C 0.61793 0.15715 1.02423 0.0
O457 O 0.65006 0.17346 1.00665 0.0
O458 O 0.6305 0.14022 0.04332 0.0
C459 C 0.7504 0.15369 0.99099 0.0
Tb460 Tb 0.824 0.53058 1.02602 0.0
C461 C 0.90495 0.63281 0.03384 0.0
Tb462 Tb 0.80217 0.60566 0.04014 0.0
O463 O 0.85779 0.56277 0.99005 0.0
O464 O 0.80542 0.57364 1.00487 0.0
O465 O 0.89227 0.5884 0.03593 0.0
C466 C 0.76292 0.65776 0.04269 0.0
O467 O 0.87498 0.64764 1.03184 0.0
C468 C 0.82731 0.57173 0.079 0.0
C469 C 0.71985 0.50592 1.02703 0.0
O470 O 0.75715 0.62614 0.05923 0.0
O471 O 0.79289 0.66182 1.0252 0.0
O472 O 0.83684 0.61424 0.07793 0.0
O473 O 0.80246 0.55026 0.05978 0.0
O474 O 0.73264 0.5489 0.0332 0.0
O475 O 0.74942 0.49108 1.02371 0.0
C476 C 0.82686 0.45291 1.02512 0.0
O477 O 0.81109 0.46773 1.0067 0.0
O478 O 0.8425 0.48266 0.04411 0.0
C479 C 0.83633 0.58583 0.98746 0.0
Tb480 Tb 0.45771 0.93972 0.87432 0.0
C481 C 0.4422 0.84015 0.86299 0.0
Tb482 Tb 0.36204 0.86355 0.85889 0.0
O483 O 0.42916 0.9487 0.91111 0.0
O484 O 0.40109 0.88423 0.89353 0.0
O485 O 0.47176 0.88327 0.86916 0.0
C486 C 0.28343 0.78415 0.85711 0.0
O487 O 0.39806 0.82498 0.85868 0.0
C488 C 0.40659 0.91822 0.82034 0.0
C489 C 0.38177 0.96564 0.86453 0.0
O490 O 0.31597 0.79891 0.83986 0.0
O491 O 0.29424 0.81505 0.87527 0.0
O492 O 0.36199 0.89407 0.82194 0.0
O493 O 0.4245 0.90692 0.83872 0.0
O494 O 0.35014 0.92122 0.86676 0.0
O495 O 0.42671 0.98075 0.8639 0.0
C496 C 0.54898 -0.00722 0.87811 0.0
O497 O 0.52249 0.96196 0.89485 0.0
O498 O 0.52366 -0.00447 0.85971 0.0
C499 C 0.39643 0.9061 0.91215 0.0
Tb500 Tb 0.04379 0.51502 0.87214 0.0
C501 C 0.14443 0.59385 0.86402 0.0
Tb502 Tb 0.11705 0.49096 0.85325 0.0
O503 O 0.07217 0.52474 0.9125 0.0
O504 O 0.07816 0.48135 0.88692 0.0
O505 O 0.10068 0.58224 0.86247 0.0
C506 C 0.19345 0.48524 0.84996 0.0
O507 O 0.15792 0.56297 0.86459 0.0
C508 C 0.06701 0.49547 0.81564 0.0
C509 C 0.01297 0.4109 0.85967 0.0
O510 O 0.16398 0.46893 0.86904 0.0
O511 O 0.17882 0.50304 0.83261 0.0
O512 O 0.09007 0.47375 0.81419 0.0
O513 O 0.07866 0.51929 0.83655 0.0
O514 O 0.0571 0.42202 0.85681 0.0
O515 O -0.00062 0.44142 0.86479 0.0
C516 C 0.98617 0.54841 0.87656 0.0
O517 O 0.01617 0.55195 0.89374 0.0
O518 O 0.98608 0.52272 0.85747 0.0
C519 C 0.09084 0.49933 0.90888 0.0
Tb520 Tb 0.46803 0.52251 0.87314 0.0
C521 C 0.38427 0.53829 0.86029 0.0
Tb522 Tb 0.48782 0.61822 0.8576 0.0
O523 O 0.50323 0.5501 0.91056 0.0
O524 O 0.46803 0.57888 0.89209 0.0
O525 O 0.39788 0.50887 0.867 0.0
C526 C 0.49047 0.69871 0.85569 0.0
O527 O 0.41315 0.58242 0.85614 0.0
C528 C 0.49932 0.57313 0.81958 0.0
C529 C 0.57004 0.59855 0.86555 0.0
O530 O 0.47371 0.66713 0.83785 0.0
O531 O 0.50693 0.68547 0.8747 0.0
O532 O 0.52038 0.61764 0.82132 0.0
O533 O 0.46938 0.5558 0.83754 0.0
O534 O 0.55667 0.62986 0.86721 0.0
O535 O 0.54071 0.55373 0.86427 0.0
C536 C 0.43092 0.43157 0.87581 0.0
O537 O 0.42524 0.45716 0.89269 0.0
O538 O 0.45968 0.45761 0.85797 0.0
C539 C 0.49344 0.583 0.91124 0.0
Tb540 Tb 0.60663 0.79658 1.02189 0.0
C541 C 0.50727 0.78152 0.03385 0.0
Tb542 Tb 0.53108 0.70178 0.03851 0.0
O543 O 0.61341 0.76796 0.98464 0.0
O544 O 0.54983 0.73982 1.00353 0.0
O545 O 0.55015 0.81066 1.02691 0.0
C546 C 0.45262 0.62268 0.0427 0.0
O547 O 0.49231 0.73772 0.03891 0.0
C548 C 0.58854 0.7478 0.07594 0.0
C549 C 0.63198 0.71986 1.02952 0.0
O550 O 0.46879 0.65572 0.05966 0.0
O551 O 0.48136 0.63356 1.02334 0.0
O552 O 0.5655 0.70329 0.07445 0.0
O553 O 0.5755 0.76471 0.05794 0.0
O554 O 0.58721 0.68886 1.02831 0.0
O555 O 0.64775 0.76477 1.03057 0.0
C556 C 0.66104 0.88742 1.01914 0.0
O557 O 0.63013 0.86193 1.00208 0.0
O558 O 0.66308 0.8613 0.0372 0.0
C559 C 0.57071 0.7351 0.98436 0.0
Tb560 Tb 0.1891 0.80683 1.02682 0.0
C561 C 0.20721 0.72511 0.03985 0.0
Tb562 Tb 0.28624 0.82889 0.03989 0.0
O563 O 0.2144 0.84124 0.98892 0.0
O564 O 0.24431 0.80651 1.00642 0.0
O565 O 0.17655 0.738 0.03506 0.0
C566 C 0.36716 0.83195 0.04133 0.0
O567 O 0.25186 0.75444 0.04165 0.0
C568 C 0.24419 0.84146 0.07914 0.0
C569 C 0.26352 0.9088 0.03278 0.0
O570 O 0.33616 0.81599 0.05948 0.0
O571 O 0.35319 0.84759 1.02225 0.0
O572 O 0.2885 0.86336 0.07582 0.0
O573 O 0.22526 0.81031 0.06189 0.0
O574 O 0.29505 0.89614 1.02878 0.0
O575 O 0.21931 0.87884 0.03655 0.0
C576 C 0.09758 0.76608 1.02323 0.0
O577 O 0.12454 0.76079 1.00723 0.0
O578 O 0.12246 0.7965 0.04077 0.0
C579 C 0.24695 0.831 0.98718 0.0
Tb580 Tb 0.17995 0.38387 1.02594 0.0
C581 C 0.26215 0.48327 0.03872 0.0
Tb582 Tb 0.15791 0.45774 0.04394 0.0
O583 O 0.14691 0.37893 0.98811 0.0
O584 O 0.17813 0.4407 1.00862 0.0
O585 O 0.24936 0.44028 0.03273 0.0
C586 C 0.15522 0.53516 0.04928 0.0
O587 O 0.2326 0.49791 0.04292 0.0
C588 C 0.14896 0.40039 0.08076 0.0
C589 C 0.07722 0.35598 0.03459 0.0
O590 O 0.17618 0.52098 0.06473 0.0
O591 O 0.13418 0.5048 1.03102 0.0
O592 O 0.12752 0.42366 0.08025 0.0
O593 O 0.1781 0.41375 0.06233 0.0
O594 O 0.0896 0.40042 0.03371 0.0
O595 O 0.10744 0.34131 0.0349 0.0
C596 C 0.2193 0.33183 1.021 0.0
O597 O 0.22476 0.36452 1.00537 0.0
O598 O 0.18965 0.32679 0.03896 0.0
C599 C 0.15395 0.42067 0.98886 0.0
Tb600 Tb 0.28651 0.45132 0.53515 0.0
C601 C 0.26479 0.34903 0.52893 0.0
Tb602 Tb 0.18902 0.37553 0.52288 0.0
O603 O 0.28947 0.42071 0.57145 0.0
O604 O 0.22582 0.40981 0.55742 0.0
O605 O 0.29609 0.39296 0.52455 0.0
C606 C 0.09767 0.32262 0.52115 0.0
O607 O 0.22058 0.33491 0.53283 0.0
C608 C 0.24625 0.40831 0.48308 0.0
C609 C 0.20665 0.47568 0.53352 0.0
O610 O 0.12294 0.35316 0.50398 0.0
O611 O 0.12419 0.32013 0.53886 0.0
O612 O 0.21416 0.36557 0.48501 0.0
O613 O 0.24344 0.43025 0.50218 0.0
O614 O 0.17598 0.43212 0.52929 0.0
O615 O 0.25131 0.49089 0.53563 0.0
C616 C 0.36602 0.52997 0.53723 0.0
O617 O 0.33437 0.51429 0.555 0.0
O618 O 0.35359 0.50053 0.5181 0.0
C619 C 0.24521 0.39846 0.57487 0.0
Tb620 Tb 0.52922 0.82395 0.53802 0.0
C621 C 0.63182 0.90564 0.53216 0.0
Tb622 Tb 0.6056 0.80378 0.52291 0.0
O623 O 0.56007 0.85444 0.57496 0.0
O624 O 0.57243 0.80441 0.55835 0.0
O625 O 0.58727 0.89297 0.52982 0.0
C626 C 0.657 0.76346 0.51976 0.0
O627 O 0.64689 0.87577 0.53306 0.0
C628 C 0.57219 0.83142 0.48495 0.0
C629 C 0.50513 0.7205 0.53298 0.0
O630 O 0.62684 0.76017 0.50274 0.0
O631 O 0.66032 0.79193 0.53804 0.0
O632 O 0.6148 0.84077 0.48595 0.0
O633 O 0.55029 0.8053 0.50363 0.0
O634 O 0.54845 0.73388 0.52722 0.0
O635 O 0.49005 0.74949 0.53758 0.0
C636 C 0.45021 0.8248 0.54035 0.0
O637 O 0.46577 0.80814 0.55785 0.0
O638 O 0.48006 0.84262 0.52148 0.0
C639 C 0.58381 0.83356 0.57676 0.0
Tb640 Tb 0.15481 0.69334 0.54193 0.0
C641 C 0.07278 0.71341 0.53608 0.0
Tb642 Tb 0.17449 0.78994 0.52972 0.0
O643 O 0.12205 0.69086 0.57872 0.0
O644 O 0.17379 0.75379 0.56402 0.0
O645 O 0.08639 0.68279 0.53163 0.0
C646 C 0.21124 0.88082 0.5331 0.0
O647 O 0.10221 0.75763 0.54021 0.0
C648 C 0.14947 0.73273 0.48992 0.0
C649 C 0.25867 0.77308 0.53572 0.0
O650 O 0.20049 0.85749 0.5115 0.0
O651 O 0.19948 0.85276 0.55263 0.0
O652 O 0.13849 0.76474 0.49216 0.0
O653 O 0.17504 0.73572 0.50873 0.0
O654 O 0.24484 0.80221 0.52872 0.0
O655 O 0.22973 0.72975 0.54196 0.0
C656 C 0.15477 0.61419 0.5428 0.0
O657 O 0.1715 0.64559 0.5607 0.0
O658 O 0.13662 0.62668 0.52432 0.0
C659 C 0.14403 0.7351 0.58194 0.0
Tb660 Tb 0.11536 0.61781 0.36193 0.0
C661 C 0.01335 0.59801 0.36949 0.0
Tb662 Tb 0.03975 0.52221 0.37727 0.0
O663 O 0.0826 0.61801 0.32581 0.0
O664 O 0.07159 0.55546 0.34149 0.0
O665 O 0.05796 0.62942 0.37137 0.0
C666 C 0.98664 0.43117 0.38062 0.0
O667 O -0.00184 0.55323 0.36814 0.0
C668 C 0.07436 0.58293 0.41531 0.0
C669 C 0.13935 0.53806 0.36504 0.0
O670 O 0.01772 0.45738 0.39739 0.0
O671 O 0.98369 0.45662 0.36244 0.0
O672 O 0.03164 0.55025 0.41448 0.0
O673 O 0.09571 0.57845 0.39635 0.0
O674 O 0.0964 0.50862 0.37167 0.0
O675 O 0.15432 0.58205 0.3606 0.0
C676 C 0.19382 0.6976 0.35975 0.0
O677 O 0.17803 0.66615 0.34182 0.0
O678 O 0.1646 0.68476 0.37898 0.0
C679 C 0.05939 0.57357 0.32368 0.0
Tb680 Tb 0.35828 0.48761 0.35733 0.0
C681 C 0.38037 0.40736 0.36462 0.0
Tb682 Tb 0.45547 0.50927 0.37037 0.0
O683 O 0.35636 0.45394 0.32116 0.0
O684 O 0.41955 0.50677 0.33541 0.0
O685 O 0.34899 0.42023 0.36849 0.0
C686 C 0.5468 0.54935 0.3738 0.0
O687 O 0.42461 0.43712 0.36067 0.0
C688 C 0.3975 0.48459 0.4098 0.0
C689 C 0.43723 0.5915 0.35953 0.0
O690 O 0.51996 0.55342 0.39045 0.0
O691 O 0.52192 0.52047 0.35563 0.0
O692 O 0.42995 0.47421 0.40809 0.0
O693 O 0.40041 0.50934 0.39068 0.0
O694 O 0.46795 0.57858 0.36398 0.0
O695 O 0.3927 0.56213 0.35696 0.0
C696 C 0.27785 0.48555 0.35596 0.0
O697 O 0.30914 0.50194 0.33797 0.0
O698 O 0.29118 0.46879 0.37477 0.0
C699 C 0.4007 0.47595 0.31799 0.0
Tb700 Tb 0.4885 0.86091 0.35683 0.0
C701 C 0.57041 0.96326 0.36267 0.0
Tb702 Tb 0.4685 0.93728 0.37157 0.0
O703 O 0.51978 0.89144 0.32 0.0
O704 O 0.46963 0.90394 0.33638 0.0
O705 O 0.55774 0.91885 0.36508 0.0
C706 C 0.4305 0.99073 0.36961 0.0
O707 O 0.54049 0.97825 0.36134 0.0
C708 C 0.49634 0.9046 0.40969 0.0
C709 C 0.3848 0.83698 0.36438 0.0
O710 O 0.44172 0.97759 0.39087 0.0
O711 O 0.44247 0.97535 0.34966 0.0
O712 O 0.50611 0.94726 0.40836 0.0
O713 O 0.46983 0.88222 0.39114 0.0
O714 O 0.39859 0.87906 0.37292 0.0
O715 O 0.41366 0.8232 0.3566 0.0
C716 C 0.48831 0.78179 0.35415 0.0
O717 O 0.4711 0.79727 0.33696 0.0
O718 O 0.50709 0.81163 0.37296 0.0
C719 C 0.49897 0.91522 0.31811 0.0
C720 C 0.10594 0.10554 0.17746 0.0
C721 C 0.12695 0.1415 0.19553 0.0
H722 H 0.10127 0.04426 0.16222 0.0
C723 C 0.16182 0.14407 0.21194 0.0
H724 H 0.07925 0.10308 0.16446 0.0
C725 C 0.17382 0.1096 0.21108 0.0
C726 C 0.152 0.07319 0.19326 0.0
H727 H 0.17841 0.17161 0.22606 0.0
H728 H 0.19947 0.11101 0.22452 0.0
C729 C 0.11877 0.07206 0.1761 0.0
C730 C 0.87496 0.0583 0.20822 0.0
C731 C 0.9127 0.07226 0.19142 0.0
H732 H 0.81183 0.00159 0.22243 0.0
C733 C 0.91534 0.03961 0.17548 0.0
H734 H 0.87238 0.08296 0.22072 0.0
C735 C 0.88185 -0.00654 0.17698 0.0
C736 C 0.84438 0.9792 0.19393 0.0
H737 H 0.94422 0.04943 0.16243 0.0
H738 H 0.88538 0.96887 0.1649 0.0
C739 C 0.84052 0.01199 0.20917 0.0
C740 C -0.00959 0.88138 0.17744 0.0
C741 C 0.00462 0.85898 0.19503 0.0
H742 H 0.93424 0.88663 0.16175 0.0
C743 C 0.97157 0.82247 0.21013 0.0
H744 H 0.01523 0.90935 0.16544 0.0
C745 C 0.92502 0.81001 0.20845 0.0
C746 C 0.91111 0.83305 0.19108 0.0
H747 H 0.9819 0.80476 0.22386 0.0
H748 H 0.90015 0.78298 0.22091 0.0
C749 C 0.94404 0.86813 0.17523 0.0
C750 C 0.09904 0.10298 0.3925 0.0
C751 C 0.13462 0.12362 0.3741 0.0
H752 H 0.03875 0.09955 0.40888 0.0
C753 C 0.13727 0.15913 0.35831 0.0
H754 H 0.09641 0.07591 0.40514 0.0
C755 C 0.10359 0.17224 0.36016 0.0
C756 C 0.06761 0.15087 0.37832 0.0
H757 H 0.16444 0.17566 0.34397 0.0
H758 H 0.10522 0.19843 0.34715 0.0
C759 C 0.06623 0.11681 0.39479 0.0
C760 C 0.86104 0.94342 0.39042 0.0
C761 C 0.82837 0.91127 0.37311 0.0
H762 H 0.9006 0.01387 0.40173 0.0
C763 C 0.80809 0.92605 0.35431 0.0
H764 H 0.8774 0.93301 0.40504 0.0
C765 C 0.82087 0.9726 0.35273 0.0
C766 C 0.855 0.0049 0.36944 0.0
H767 H 0.78294 0.90182 0.3407 0.0
H768 H 0.80521 0.98351 0.33796 0.0
C769 C 0.87462 0.98979 0.38841 0.0
C770 C 0.00624 0.83965 0.35593 0.0
C771 C 0.97357 0.8417 0.37225 0.0
H772 H 0.07726 0.87273 0.34413 0.0
C773 C 0.9881 0.87672 0.39092 0.0
H774 H -0.00437 0.81284 0.34136 0.0
C775 C 0.0344 0.90978 0.39297 0.0
C776 C 0.06689 0.90917 0.37592 0.0
H777 H 0.96357 0.87874 0.40387 0.0
H778 H 0.04443 0.93688 0.4073 0.0
C779 C 0.0527 0.8737 0.3575 0.0
C780 C 0.81943 0.84311 0.86137 0.0
C781 C 0.85659 0.8466 0.87602 0.0
H782 H 0.77973 0.87506 0.85086 0.0
C783 C 0.87982 0.88368 0.89327 0.0
H784 H 0.80099 0.81486 0.84788 0.0
C785 C 0.86689 0.91715 0.89548 0.0
C786 C 0.83121 0.91491 0.88 0.0
H787 H 0.90833 0.88705 0.90495 0.0
H788 H 0.88613 0.94581 0.9086 0.0
C789 C 0.80725 0.87742 0.86307 0.0
C790 C 0.1383 0.97305 0.84997 0.0
C791 C 0.1381 0.00615 0.86674 0.0
H792 H 0.10407 0.90182 0.83874 0.0
C793 C 0.1051 0.99201 0.88664 0.0
H794 H 0.16353 0.98321 0.83449 0.0
C795 C 0.07231 0.94581 0.8895 0.0
C796 C 0.07111 0.91287 0.87214 0.0
H797 H 0.1045 0.01673 0.90002 0.0
H798 H 0.04684 0.93617 0.90481 0.0
C799 C 0.10451 0.92666 0.85242 0.0
C800 C -0.00657 0.10828 0.88928 0.0
C801 C 0.97815 0.12816 0.87054 0.0
H802 H 0.05039 0.10473 0.90544 0.0
C803 C 0.01056 0.1623 0.85394 0.0
H804 H 0.96934 0.08225 0.90252 0.0
C805 C 0.0572 0.1747 0.85532 0.0
C806 C 0.07211 0.154 0.8738 0.0
H807 H -0.00036 0.17818 0.83932 0.0
H808 H 0.08137 0.19975 0.8417 0.0
C809 C 0.03994 0.12143 0.89108 0.0
C810 C 0.83866 0.8228 0.70808 0.0
C811 C 0.84163 0.85835 0.69225 0.0
H812 H 0.87163 0.78488 0.72024 0.0
C813 C 0.87825 0.88032 0.67465 0.0
H814 H 0.81064 0.80548 0.72184 0.0
C815 C 0.912 0.86776 0.67323 0.0
C816 C 0.91047 0.83385 0.68989 0.0
H817 H 0.88104 0.90758 0.66212 0.0
H818 H 0.94035 0.886 0.65977 0.0
C819 C 0.87336 0.81106 0.70718 0.0
C820 C 0.11749 0.04193 0.67344 0.0
C821 C 0.15046 0.07446 0.69049 0.0
H822 H 0.07818 0.97123 0.66249 0.0
C823 C 0.17188 0.06033 0.70891 0.0
H824 H 0.1003 0.05188 0.6591 0.0
C825 C 0.15982 0.01398 0.71045 0.0
C826 C 0.12529 0.98128 0.69409 0.0
H827 H 0.1973 0.08488 0.72229 0.0
H828 H 0.17617 0.00348 0.72501 0.0
C829 C 0.1046 -0.00426 0.67545 0.0
C830 C 0.94254 0.07274 0.67312 0.0
C831 C 0.91021 0.07308 0.69041 0.0
H832 H 0.01303 0.10454 0.66145 0.0
C833 C 0.92462 0.10878 0.70873 0.0
H834 H 0.93243 0.04555 0.65884 0.0
C835 C 0.97103 0.14331 0.7099 0.0
C836 C 0.00357 0.14169 0.69323 0.0
H837 H 0.90026 0.10962 0.72231 0.0
H838 H 0.9817 0.1703 0.72436 0.0
C839 C 0.98877 0.10635 0.67471 0.0
C840 C 0.78014 0.39695 0.50617 0.0
C841 C 0.81405 0.39871 0.52302 0.0
H842 H 0.73901 0.42659 0.49515 0.0
C843 C 0.8347 0.43454 0.54129 0.0
H844 H 0.76342 0.36952 0.49199 0.0
C845 C 0.82111 0.46779 0.54286 0.0
C846 C 0.78586 0.46491 0.52662 0.0
H847 H 0.86073 0.43642 0.5546 0.0
H848 H 0.83718 0.4949 0.55727 0.0
C849 C 0.76585 0.4294 0.50813 0.0
C850 C 0.50425 0.33946 0.54257 0.0
C851 C 0.50713 0.30575 0.52771 0.0
H852 H 0.5355 0.41131 0.55175 0.0
C853 C 0.54189 0.31922 0.50889 0.0
H854 H 0.47758 0.32984 0.55715 0.0
C855 C 0.57384 0.36547 0.50532 0.0
C856 C 0.57229 0.39909 0.52088 0.0
H857 H 0.54447 0.29397 0.49692 0.0
H858 H 0.60082 0.3747 0.49098 0.0
C859 C 0.53708 0.38591 0.53941 0.0
C860 C 0.60777 0.19045 0.51164 0.0
C861 C 0.57607 0.16001 0.52991 0.0
H862 H 0.67802 0.22844 0.49957 0.0
C863 C 0.5914 0.14197 0.54972 0.0
H864 H 0.59694 0.20505 0.49621 0.0
C865 C 0.63811 0.15482 0.55133 0.0
C866 C 0.66996 0.18682 0.53361 0.0
H867 H 0.56752 0.11857 0.56407 0.0
H868 H 0.64953 0.14098 0.56688 0.0
C869 C 0.65427 0.20414 0.51366 0.0
C870 C 0.76767 0.44294 0.68212 0.0
C871 C 0.80694 0.46573 0.69786 0.0
H872 H 0.70491 0.43867 0.66957 0.0
C873 C 0.81416 0.50414 0.71254 0.0
H874 H 0.76176 0.41361 0.67039 0.0
C875 C 0.78103 0.51797 0.71254 0.0
C876 C 0.74127 0.49442 0.69717 0.0
H877 H 0.84443 0.52227 0.72475 0.0
H878 H 0.78601 0.54632 0.72487 0.0
C879 C 0.73545 0.45759 0.68148 0.0
C880 C 0.5394 0.28346 0.72288 0.0
C881 C 0.50426 0.25069 0.70694 0.0
H882 H 0.58123 0.35442 0.73264 0.0
C883 C 0.48323 0.26501 0.68842 0.0
H884 H 0.5565 0.27332 0.73717 0.0
C885 C 0.49703 0.31166 0.68608 0.0
C886 C 0.53289 0.34448 0.70173 0.0
H887 H 0.45632 0.24028 0.67579 0.0
H888 H 0.48018 0.32212 0.67181 0.0
C889 C 0.55395 0.32994 0.7201 0.0
C890 C 0.70527 0.24747 0.72466 0.0
C891 C 0.73734 0.24891 0.70655 0.0
H892 H 0.63526 0.21392 0.73709 0.0
C893 C 0.7231 0.21415 0.6876 0.0
H894 H 0.71527 0.27372 0.73953 0.0
C895 C 0.67687 0.17914 0.68643 0.0
C896 C 0.6445 0.17932 0.70383 0.0
H897 H 0.74732 0.21467 0.6734 0.0
H898 H 0.66613 0.15314 0.67135 0.0
C899 C 0.65934 0.21333 0.72319 0.0
C900 C 0.54075 0.21348 0.22124 0.0
C901 C 0.52278 0.17952 0.20185 0.0
H902 H 0.54346 0.27342 0.23716 0.0
C903 C 0.49125 0.17926 0.18363 0.0
H904 H 0.56472 0.21413 0.23568 0.0
C905 C 0.4796 0.21402 0.18416 0.0
C906 C 0.49849 0.24844 0.20335 0.0
H907 H 0.477 0.1533 0.16849 0.0
H908 H 0.45657 0.21439 0.16944 0.0
C909 C 0.52833 0.24726 0.22215 0.0
C910 C 0.76941 0.32681 0.22385 0.0
C911 C 0.80531 0.34104 0.20576 0.0
H912 H 0.70819 0.27093 0.23957 0.0
C913 C 0.80771 0.30822 0.18978 0.0
H914 H 0.76704 0.35142 0.23653 0.0
C915 C 0.77326 0.26196 0.19111 0.0
C916 C 0.73696 0.24807 0.20897 0.0
H917 H 0.83516 0.31856 0.17563 0.0
H918 H 0.77462 0.2373 0.17802 0.0
C919 C 0.73591 0.2807 0.22567 0.0
C920 C 0.70578 0.45803 0.22291 0.0
C921 C 0.73837 0.48901 0.2052 0.0
H922 H 0.63501 0.42015 0.23399 0.0
C923 C 0.72421 0.50845 0.18555 0.0
H924 H 0.71572 0.44241 0.2382 0.0
C925 C 0.67772 0.4962 0.18343 0.0
C926 C 0.64496 0.46349 0.20049 0.0
H927 H 0.7488 0.5323 0.17162 0.0
H928 H 0.66718 0.51093 0.16794 0.0
C929 C 0.65951 0.44501 0.2204 0.0
C930 C 0.54458 0.14713 0.04391 0.0
C931 C 0.57896 0.16608 1.02466 0.0
H932 H 0.48474 0.14535 0.06055 0.0
C933 C 0.57845 0.19746 1.00678 0.0
H934 H 0.5444 0.12303 0.05803 0.0
C935 C 0.54538 0.21103 1.00861 0.0
C936 C 0.51139 0.19286 1.02807 0.0
H937 H 0.6046 0.21282 0.99179 0.0
H938 H 0.54657 0.23596 0.99476 0.0
C939 C 0.51063 0.15999 0.0454 0.0
C940 C 0.77336 0.32681 1.01133 0.0
C941 C 0.79237 0.31238 1.03102 0.0
H942 H 0.77072 0.38292 0.99365 0.0
C943 C 0.82574 0.34515 0.04786 0.0
H944 H 0.748 0.3023 0.99791 0.0
C945 C 0.83823 0.39154 0.04573 0.0
C946 C 0.81843 0.40561 1.02627 0.0
H947 H 0.84091 0.3347 0.06317 0.0
H948 H 0.86266 0.41615 0.05948 0.0
C949 C 0.78667 0.37302 1.00879 0.0
C950 C 0.59031 0.44221 0.03572 0.0
C951 C 0.57704 0.40564 1.01813 0.0
H952 H 0.64644 0.50363 0.05199 0.0
C953 C 0.61061 0.40383 1.00258 0.0
H954 H 0.56498 0.44415 0.04798 0.0
C955 C 0.65693 0.43679 1.00538 0.0
C956 C 0.67051 0.47288 1.02331 0.0
H957 H 0.60133 0.37586 0.98896 0.0
H958 H 0.68222 0.43381 0.99362 0.0
C959 C 0.63676 0.47605 0.03802 0.0
C960 C 0.43846 0.77271 0.84095 0.0
C961 C 0.45867 0.80715 0.86 0.0
H962 H 0.43391 0.71235 0.82428 0.0
C963 C 0.49256 0.80804 0.87657 0.0
H964 H 0.41254 0.77153 0.82778 0.0
C965 C 0.5042 0.77335 0.87493 0.0
C966 C 0.48298 0.73832 0.8562 0.0
H967 H 0.50855 0.83434 0.89144 0.0
H968 H 0.52898 0.77338 0.88855 0.0
C969 C 0.4509 0.739 0.83886 0.0
C970 C 0.22018 0.65602 0.84872 0.0
C971 C 0.17951 0.64272 0.86268 0.0
H972 H 0.28413 0.71154 0.83544 0.0
C973 C 0.17231 0.67646 0.87451 0.0
H974 H 0.22629 0.63067 0.83924 0.0
C975 C 0.20607 0.72294 0.87286 0.0
C976 C 0.24644 0.73606 0.85856 0.0
H977 H 0.14103 0.66682 0.88535 0.0
H978 H 0.20054 0.7485 0.88254 0.0
C979 C 0.25301 0.70229 0.84636 0.0
C980 C 0.32058 0.54162 0.83753 0.0
C981 C 0.33478 0.52124 0.85651 0.0
H982 H 0.26439 0.5448 0.82004 0.0
C983 C 0.30151 0.48562 0.872 0.0
H984 H 0.34551 0.56876 0.82513 0.0
C985 C 0.25485 0.4724 0.86943 0.0
C986 C 0.24097 0.49373 0.85081 0.0
H987 H 0.31173 0.46934 0.88675 0.0
H988 H 0.22987 0.44635 0.88232 0.0
C989 C 0.2741 0.5276 0.83448 0.0
C990 C 0.44058 0.77925 0.05614 0.0
C991 C 0.47442 0.79824 0.03672 0.0
H992 H 0.38112 0.77634 0.0732 0.0
C993 C 0.47516 0.83154 1.01979 0.0
H994 H 0.43957 0.75386 0.06959 0.0
C995 C 0.44088 0.84383 1.0215 0.0
C996 C 0.40647 0.82389 0.04064 0.0
H997 H 0.50103 0.84662 1.00464 0.0
H998 H 0.44076 0.86812 1.00764 0.0
C999 C 0.40732 0.79237 0.05829 0.0
C1000 C 0.15211 0.64229 1.03031 0.0
C1001 C 0.191 0.676 0.04369 0.0
H1002 H 0.11032 0.57049 1.02133 0.0
C1003 C 0.21522 0.66253 0.06044 0.0
H1004 H 0.13287 0.65196 1.01729 0.0
C1005 C 0.20156 0.61624 0.06332 0.0
C1006 C 0.16414 0.58265 0.049 0.0
H1007 H 0.245 0.68783 0.07119 0.0
H1008 H 0.22159 0.60697 0.07596 0.0
C1009 C 0.13914 0.59586 1.03266 0.0
C1010 C 0.32662 0.55349 0.05837 0.0
C1011 C 0.31157 0.51666 0.04087 0.0
H1012 H 0.38353 0.61513 0.07312 0.0
C1013 C 0.34389 0.51293 1.02506 0.0
H1014 H 0.30243 0.55688 0.07092 0.0
C1015 C 0.3904 0.54691 1.02593 0.0
C1016 C 0.40513 0.58414 0.04315 0.0
H1017 H 0.33297 0.48474 1.0114 0.0
H1018 H 0.4146 0.54448 1.01293 0.0
C1019 C 0.37305 0.58661 0.05973 0.0
C1020 C 0.21334 0.54528 0.55438 0.0
C1021 C 0.19064 0.50894 0.53669 0.0
H1022 H 0.21853 0.60618 0.57063 0.0
C1023 C 0.15374 0.50557 0.52187 0.0
H1024 H 0.24163 0.54836 0.56617 0.0
C1025 C 0.14108 0.53943 0.52398 0.0
C1026 C 0.16429 0.57602 0.54154 0.0
H1027 H 0.13581 0.47772 0.50807 0.0
H1028 H 0.11365 0.5373 0.51179 0.0
C1029 C 0.19988 0.57814 0.55704 0.0
C1030 C 0.43586 0.65568 0.55288 0.0
C1031 C 0.47192 0.67105 0.53482 0.0
H1032 H 0.37506 0.59874 0.56817 0.0
C1033 C 0.47485 0.6391 0.5183 0.0
H1034 H 0.43307 0.67956 0.56597 0.0
C1035 C 0.44083 0.59259 0.51915 0.0
C1036 C 0.40447 0.57755 0.53706 0.0
H1037 H 0.50245 0.65031 0.50418 0.0
H1038 H 0.44264 0.56862 0.50569 0.0
C1039 C 0.40284 0.60936 0.55422 0.0
C1040 C 0.38705 0.83612 0.52167 0.0
C1041 C 0.40239 0.81567 0.54003 0.0
H1042 H 0.32892 0.83918 0.50615 0.0
C1043 C 0.37061 0.78291 0.55738 0.0
H1044 H 0.41096 0.86135 0.50802 0.0
C1045 C 0.3241 0.76946 0.55587 0.0
C1046 C 0.30838 0.78922 0.53736 0.0
H1047 H 0.38141 0.76642 0.57169 0.0
H1048 H 0.30037 0.74343 0.56923 0.0
C1049 C 0.34029 0.82341 0.52059 0.0
C1050 C 0.20667 0.54136 0.34281 0.0
C1051 C 0.17215 0.52131 0.3618 0.0
H1052 H 0.26616 0.54446 0.32564 0.0
C1053 C 0.17035 0.48653 0.37788 0.0
H1054 H 0.20851 0.56791 0.33001 0.0
C1055 C 0.20413 0.47365 0.37575 0.0
C1056 C 0.23912 0.49449 0.357 0.0
H1057 H 0.14393 0.4706 0.39268 0.0
H1058 H 0.20336 0.4481 0.38896 0.0
C1059 C 0.23945 0.52767 0.34021 0.0
C1060 C 0.43001 0.65531 0.34024 0.0
C1061 C 0.45304 0.64077 0.35718 0.0
H1062 H 0.42433 0.71171 0.32557 0.0
C1063 C 0.49007 0.67343 0.37222 0.0
H1064 H 0.40161 0.63082 0.3283 0.0
C1065 C 0.50253 0.71989 0.37111 0.0
C1066 C 0.47894 0.73415 0.35435 0.0
H1067 H 0.50828 0.66285 0.38547 0.0
H1068 H 0.53008 0.74445 0.38347 0.0
C1069 C 0.44324 0.70163 0.33858 0.0
C1070 C 0.27276 0.73689 0.34171 0.0
C1071 C 0.24134 0.7364 0.36 0.0
H1072 H 0.34271 0.76869 0.32912 0.0
C1073 C 0.25686 0.77073 0.37926 0.0
H1074 H 0.26179 0.71077 0.32669 0.0
C1075 C 0.3035 0.80466 0.38038 0.0
C1076 C 0.33514 0.80374 0.36269 0.0
H1077 H 0.2332 0.77089 0.39362 0.0
H1078 H 0.31504 0.83056 0.39555 0.0
C1079 C 0.31919 0.76986 0.34321 0.0
C1080 C 0.29543 0.3846 0.19151 0.0
C1081 C 0.26758 0.34498 0.2061 0.0
H1082 H 0.3632 0.42967 0.17655 0.0
C1083 C 0.28639 0.31882 0.21595 0.0
H1084 H 0.2814 0.40491 0.18349 0.0
C1085 C 0.33219 0.33169 0.21103 0.0
C1086 C 0.3604 0.37178 0.19693 0.0
H1087 H 0.26535 0.28766 0.22691 0.0
H1088 H 0.34586 0.31096 0.21889 0.0
C1089 C 0.34188 0.39844 0.18739 0.0
C1090 C 0.65353 -0.00357 0.21736 0.0
C1091 C 0.61402 0.98622 0.20294 0.0
H1092 H 0.69748 0.97217 0.23175 0.0
C1093 C 0.58797 0.94247 0.19161 0.0
H1094 H 0.67374 0.02971 0.22656 0.0
C1095 C 0.60199 0.90974 0.19413 0.0
C1096 C 0.64128 0.91988 0.20881 0.0
H1097 H 0.5572 0.93389 0.18048 0.0
H1098 H 0.58221 0.87663 0.1847 0.0
C1099 C 0.66667 0.9633 0.22059 0.0
C1100 C 0.0221 0.69755 0.22163 0.0
C1101 C 0.06581 0.71672 0.21 0.0
H1102 H 0.95569 0.63778 0.22636 0.0
C1103 C 0.07648 0.68898 0.19434 0.0
H1104 H 0.01281 0.71836 0.23356 0.0
C1105 C 0.04392 0.64255 0.19061 0.0
C1106 C -0.00017 0.62385 0.20172 0.0
H1107 H 0.10982 0.70318 0.185 0.0
H1108 H 0.05288 0.62146 0.17871 0.0
C1109 C 0.98919 0.65169 0.21723 0.0
C1110 C 0.3704 0.29393 0.34597 0.0
C1111 C 0.34051 0.26484 0.36528 0.0
H1112 H 0.40738 0.36272 0.33109 0.0
C1113 C 0.32363 0.28277 0.38434 0.0
H1114 H 0.38328 0.28058 0.33091 0.0
C1115 C 0.33561 0.329 0.38374 0.0
C1116 C 0.36607 0.35829 0.3647 0.0
H1117 H 0.29981 0.26066 0.39914 0.0
H1118 H 0.32145 0.34191 0.39829 0.0
C1119 C 0.38389 0.34062 0.34601 0.0
C1120 C 0.63718 0.04174 0.37052 0.0
C1121 C 0.61954 -0.00245 0.3598 0.0
H1122 H 0.69677 0.10827 0.37619 0.0
C1123 C 0.64853 0.98742 0.34496 0.0
H1124 H 0.61531 0.05037 0.38194 0.0
C1125 C 0.69441 0.021 0.34082 0.0
C1126 C 0.7124 0.06483 0.35209 0.0
H1127 H 0.63552 0.95383 0.33617 0.0
H1128 H 0.71619 0.01215 0.32947 0.0
C1129 C 0.6835 0.0749 0.36707 0.0
C1130 C 0.95745 0.66592 0.34768 0.0
C1131 C 0.91279 0.63986 0.35789 0.0
H1132 H 0.0248 0.67393 0.34426 0.0
C1133 C 0.90158 0.60043 0.37256 0.0
H1134 H 0.96718 0.69693 0.33663 0.0
C1135 C 0.93443 0.58677 0.37648 0.0
C1136 C 0.97934 0.61336 0.36662 0.0
H1137 H 0.86752 0.58017 0.38087 0.0
H1138 H 0.92492 0.55576 0.38748 0.0
C1139 C -0.00937 0.6532 0.35236 0.0
C1140 C 0.63838 0.58964 0.87524 0.0
C1141 C 0.61945 0.61419 0.8633 0.0
H1142 H 0.69965 0.58587 0.88257 0.0
C1143 C 0.64769 0.65277 0.84809 0.0
H1144 H 0.61704 0.55959 0.88698 0.0
C1145 C 0.69416 0.66665 0.84481 0.0
C1146 C 0.71351 0.64295 0.85728 0.0
H1147 H 0.63367 0.67178 0.83837 0.0
H1148 H 0.71525 0.69679 0.83308 0.0
C1149 C 0.68536 0.60442 0.87262 0.0
C1150 C 0.37972 0.07733 0.8654 0.0
C1151 C 0.34106 0.0662 0.84986 0.0
H1152 H 0.42322 0.05397 0.88207 0.0
C1153 C 0.31559 0.02166 0.83946 0.0
H1154 H 0.39953 0.11129 0.87388 0.0
C1155 C 0.32793 0.98847 0.845 0.0
C1156 C 0.36673 -0.00038 0.86041 0.0
H1157 H 0.28519 0.01199 0.82771 0.0
H1158 H 0.30764 0.95433 0.83682 0.0
C1159 C 0.39294 0.0445 0.87026 0.0
C1160 C 0.90199 0.29702 0.86638 0.0
C1161 C 0.91145 0.26857 0.85054 0.0
H1162 H 0.92669 0.3651 0.88139 0.0
C1163 C 0.95363 0.28745 0.83729 0.0
H1164 H 0.86981 0.28301 0.87698 0.0
C1165 C 0.98659 0.33354 0.84057 0.0
C1166 C 0.97751 0.36216 0.85649 0.0
H1167 H 0.96204 0.26616 0.82518 0.0
H1168 H 0.01921 0.34679 0.83051 0.0
C1169 C 0.93455 0.34375 0.86899 0.0
C1170 C 0.58212 0.64195 0.69588 0.0
C1171 C 0.60688 0.62434 0.70898 0.0
H1172 H 0.57859 0.70243 0.68608 0.0
C1173 C 0.64489 0.65366 0.72436 0.0
H1174 H 0.5527 0.61982 0.68383 0.0
C1175 C 0.65848 0.70001 0.72637 0.0
C1176 C 0.63528 0.71824 0.71232 0.0
H1177 H 0.66439 0.64082 0.73471 0.0
H1178 H 0.68855 0.72195 0.73805 0.0
C1179 C 0.59676 0.68894 0.69718 0.0
C1180 C 0.34208 0.94292 0.69396 0.0
C1181 C 0.36005 0.98697 0.70493 0.0
H1182 H 0.282 0.87683 0.68794 0.0
C1183 C 0.33127 -0.00257 0.71971 0.0
H1184 H 0.36384 0.93412 0.68256 0.0
C1185 C 0.28525 0.96426 0.72361 0.0
C1186 C 0.26693 0.92055 0.71215 0.0
H1187 H 0.34455 0.03094 0.72865 0.0
H1188 H 0.26368 0.97334 0.73499 0.0
C1189 C 0.29556 0.91015 0.69716 0.0
C1190 C 0.03349 0.39069 0.71956 0.0
C1191 C -0.00132 0.37381 0.7005 0.0
H1192 H 0.09254 0.38935 0.73483 0.0
C1193 C -0.00173 0.3443 0.68101 0.0
H1194 H 0.03431 0.41353 0.73478 0.0
C1195 C 0.03262 0.33228 0.68037 0.0
C1196 C 0.06678 0.34824 0.69977 0.0
H1197 H 0.97181 0.33103 0.66611 0.0
H1198 H 0.0315 0.30917 0.66523 0.0
C1199 C 0.06682 0.37721 0.7195 0.0
C1200 C 0.95786 0.69965 0.55613 0.0
C1201 C 0.92876 0.67018 0.53661 0.0
H1202 H 0.02706 0.73763 0.57072 0.0
C1203 C 0.94725 0.65496 0.51694 0.0
H1204 H 0.94421 0.71143 0.57161 0.0
C1205 C -0.00603 0.66811 0.51712 0.0
C1206 C 0.02324 0.69814 0.53638 0.0
H1207 H 0.92526 0.63164 0.50189 0.0
H1208 H 0.00729 0.65529 0.50203 0.0
C1209 C 0.00502 0.71437 0.55568 0.0
C1210 C 0.27396 0.24729 0.55222 0.0
C1211 C 0.30393 0.24574 0.53373 0.0
H1212 H 0.23712 0.28097 0.56463 0.0
C1213 C 0.32143 0.27862 0.51367 0.0
H1214 H 0.26054 0.22257 0.568 0.0
C1215 C 0.30983 0.31324 0.51244 0.0
C1216 C 0.2792 0.31431 0.53066 0.0
H1217 H 0.34529 0.27846 0.49945 0.0
H1218 H 0.32424 0.33868 0.49708 0.0
C1219 C 0.26089 0.28076 0.55036 0.0
C1220 C 0.71173 0.97254 0.52784 0.0
C1221 C 0.66593 0.95462 0.53618 0.0
H1222 H 0.77939 0.03191 0.52565 0.0
C1223 C 0.65387 0.98303 0.55017 0.0
H1224 H 0.72195 0.95126 0.51709 0.0
C1225 C 0.68708 0.02828 0.55605 0.0
C1226 C 0.73264 0.04646 0.5473 0.0
H1227 H 0.61899 0.96994 0.55713 0.0
H1228 H 0.67673 0.0495 0.56677 0.0
C1229 C 0.74464 0.0184 0.53293 0.0
C1230 C 0.06251 0.68028 0.71076 0.0
C1231 C 0.03573 0.69822 0.70057 0.0
H1232 H 0.0694 0.62036 0.71559 0.0
C1233 C -0.00401 0.66961 0.68619 0.0
H1234 H 0.09348 0.70193 0.72182 0.0
C1235 C 0.98347 0.62391 0.68175 0.0
C1236 C 0.00967 0.60564 0.69229 0.0
H1237 H 0.97519 0.68284 0.67783 0.0
H1238 H 0.9525 0.60256 0.67061 0.0
C1239 C 0.04906 0.63396 0.70704 0.0
C1240 C 0.31774 0.33224 0.71562 0.0
C1241 C 0.28765 0.33767 0.69893 0.0
H1242 H 0.38672 0.36041 0.72963 0.0
C1243 C 0.30499 0.37727 0.68324 0.0
H1244 H 0.30527 0.30229 0.72804 0.0
C1245 C 0.35195 0.41019 0.68368 0.0
C1246 C 0.38194 0.40474 0.70047 0.0
H1247 H 0.28242 0.38228 0.67018 0.0
H1248 H 0.36481 0.43966 0.67085 0.0
C1249 C 0.36427 0.36578 0.71667 0.0
C1250 C 0.6146 0.9325 0.67782 0.0
C1251 C 0.64766 0.94825 0.69786 0.0
H1252 H 0.55691 0.93467 0.66106 0.0
C1253 C 0.64614 0.97634 0.7176 0.0
H1254 H 0.61519 0.91061 0.66245 0.0
C1255 C 0.61161 0.98816 0.71747 0.0
C1256 C 0.57929 0.97345 0.69706 0.0
H1257 H 0.67118 0.98858 0.73328 0.0
H1258 H 0.61117 0.01015 0.73283 0.0
C1259 C 0.58121 0.94588 0.67711 0.0
C1260 C 0.31884 0.97965 0.22066 0.0
C1261 C 0.28765 0.94663 0.20324 0.0
H1262 H 0.38901 0.01797 0.23339 0.0
C1263 C 0.30355 0.92655 0.18489 0.0
H1264 H 0.30724 -0.00463 0.23501 0.0
C1265 C 0.35035 0.94054 0.18336 0.0
C1266 C 0.38139 0.97316 0.20097 0.0
H1267 H 0.27995 0.90078 0.17134 0.0
H1268 H 0.36224 0.92585 0.16853 0.0
C1269 C 0.36533 -0.00783 0.21986 0.0
C1270 C 0.98351 0.35731 0.17832 0.0
C1271 C 0.00806 0.40063 0.19033 0.0
H1272 H 0.97692 0.29097 0.17279 0.0
C1273 C 0.04633 0.41057 0.20594 0.0
H1274 H 0.95348 0.34857 0.16643 0.0
C1275 C 0.06016 0.37778 0.20918 0.0
C1276 C 0.03489 0.33413 0.19763 0.0
H1277 H 0.06548 0.44356 0.21558 0.0
H1278 H 0.09017 0.38626 0.22103 0.0
C1279 C -0.00356 0.32413 0.18223 0.0
C1280 C 0.58374 0.63458 0.17449 0.0
C1281 C 0.57977 0.60423 0.1944 0.0
H1282 H 0.61943 0.70417 0.16077 0.0
C1283 C 0.61 0.62073 0.21582 0.0
H1284 H 0.56112 0.62238 0.15768 0.0
C1285 C 0.64454 0.66679 0.21699 0.0
C1286 C 0.64813 0.69721 0.19725 0.0
H1287 H 0.60801 0.59765 0.23119 0.0
H1288 H 0.66804 0.67871 0.23341 0.0
C1289 C 0.61713 0.68104 0.17619 0.0
C1290 C 0.26003 0.97423 0.05338 0.0
C1291 C 0.27796 0.95787 0.03398 0.0
H1292 H 0.26118 0.03329 0.07052 0.0
C1293 C 0.30918 0.98859 1.01572 0.0
H1294 H 0.23575 0.95098 0.06763 0.0
C1295 C 0.32187 0.035 1.01665 0.0
C1296 C 0.30494 0.05156 0.03647 0.0
H1297 H 0.32326 0.97664 1.00057 0.0
H1298 H 0.34612 0.05824 1.00237 0.0
C1299 C 0.27429 0.02103 0.055 0.0
C1300 C 0.01061 0.27639 1.02824 0.0
C1301 C 0.02805 0.32141 0.03771 0.0
H1302 H 0.9514 0.20897 1.02435 0.0
C1303 C -0.00111 0.33223 0.05191 0.0
H1304 H 0.03249 0.26712 1.01731 0.0
C1305 C 0.95336 0.29858 0.05687 0.0
C1306 C 0.93566 0.25385 0.04701 0.0
H1307 H 0.01158 0.36643 0.05976 0.0
H1308 H 0.93161 0.30801 0.06782 0.0
C1309 C 0.9645 0.24308 1.03244 0.0
C1310 C 0.68612 0.64975 0.05016 0.0
C1311 C 0.73088 0.67554 0.04005 0.0
H1312 H 0.61929 0.64279 0.05387 0.0
C1313 C 0.74278 0.7156 1.02583 0.0
H1314 H 0.67588 0.61832 0.06089 0.0
C1315 C 0.71051 0.7301 1.02225 0.0
C1316 C 0.6655 0.70379 1.03203 0.0
H1317 H 0.77695 0.7357 1.01763 0.0
H1318 H 0.72054 0.76155 1.0116 0.0
C1319 C 0.65353 0.66334 0.04583 0.0
C1320 C 0.66493 0.00123 0.88591 0.0
C1321 C 0.69287 0.03833 0.86961 0.0
H1322 H 0.59786 0.95902 0.90208 0.0
C1323 C 0.67375 0.06223 0.85708 0.0
H1324 H 0.67898 0.98267 0.89609 0.0
C1325 C 0.62697 0.04819 0.86014 0.0
C1326 C 0.59912 0.01106 0.87648 0.0
H1327 H 0.69473 0.09112 0.84448 0.0
H1328 H 0.61255 0.06611 0.84965 0.0
C1329 C 0.61867 0.98812 0.88958 0.0
C1330 C 0.91886 0.60669 0.85569 0.0
C1331 C 0.94414 0.64976 0.86797 0.0
H1332 H 0.91275 0.54068 0.84837 0.0
C1333 C 0.98161 0.65812 0.88385 0.0
H1334 H 0.88957 0.59935 0.84346 0.0
C1335 C -0.00652 0.62404 0.88754 0.0
C1336 C 0.96903 0.58134 0.87479 0.0
H1337 H 0.00121 0.69072 0.89384 0.0
H1338 H 0.02279 0.63172 0.89983 0.0
C1339 C 0.93179 0.57305 0.85865 0.0
C1340 C 0.32355 0.31601 0.88098 0.0
C1341 C 0.33329 0.28911 0.86405 0.0
H1342 H 0.34774 0.38174 0.89871 0.0
C1343 C 0.37675 0.30863 0.85206 0.0
H1344 H 0.29061 0.30154 0.89082 0.0
C1345 C 0.40936 0.35495 0.85626 0.0
C1346 C 0.39944 0.38177 0.8732 0.0
H1347 H 0.38511 0.28837 0.83906 0.0
H1348 H 0.44208 0.36984 0.84616 0.0
C1349 C 0.35651 0.3617 0.88577 0.0
C1350 C 0.65636 0.95737 1.00932 0.0
C1351 C 0.67934 0.93723 1.02176 0.0
H1352 H 0.65036 0.01754 1.00461 0.0
C1353 C 0.71608 0.96394 0.0387 0.0
H1354 H 0.62754 0.9374 0.9964 0.0
C1355 C 0.72963 0.01018 0.04306 0.0
C1356 C 0.70554 0.02976 1.03126 0.0
H1357 H 0.73399 0.94899 0.04869 0.0
H1358 H 0.75822 0.03034 0.05609 0.0
C1359 C 0.66894 0.00301 1.0143 0.0
C1360 C 0.98362 0.65648 1.01756 0.0
C1361 C 0.95427 0.66701 1.03172 0.0
H1362 H 0.05164 0.68041 1.00301 0.0
C1363 C 0.97193 0.71122 0.04245 0.0
H1364 H 0.97069 0.62288 1.00878 0.0
C1365 C 0.01861 0.74404 0.03957 0.0
C1366 C 0.04777 0.73354 1.02514 0.0
H1367 H 0.94978 0.72014 0.05336 0.0
H1368 H 0.03184 0.77752 0.04854 0.0
C1369 C 0.02976 0.68962 1.01399 0.0
C1370 C 0.29359 0.33646 1.00943 0.0
C1371 C 0.25063 0.31279 1.02193 0.0
H1372 H 0.35905 0.34145 1.00268 0.0
C1373 C 0.24021 0.27378 0.03688 0.0
H1374 H 0.30275 0.36695 0.99798 0.0
C1375 C 0.2723 0.25868 0.03919 0.0
C1376 C 0.3158 0.28328 1.02728 0.0
H1377 H 0.20746 0.25518 0.04687 0.0
H1378 H 0.26354 0.22843 0.05076 0.0
C1379 C 0.32605 0.32222 1.01235 0.0
C1380 C 0.02734 0.32673 0.51109 0.0
C1381 C 0.04775 0.30431 0.52384 0.0
H1382 H 0.9666 0.33175 0.50568 0.0
C1383 C 0.02106 0.26775 0.54078 0.0
H1384 H 0.04728 0.35539 0.49813 0.0
C1385 C 0.97449 0.25371 0.54476 0.0
C1386 C 0.95456 0.2771 0.53253 0.0
H1387 H 0.03621 0.25026 0.551 0.0
H1388 H 0.95432 0.22521 0.55777 0.0
C1389 C 0.98136 0.31365 0.51566 0.0
C1390 C 0.71222 0.73944 0.53664 0.0
C1391 C 0.67304 0.72986 0.52198 0.0
H1392 H 0.75586 0.71416 0.55076 0.0
C1393 C 0.64634 0.68588 0.51103 0.0
H1394 H 0.73301 0.7729 0.54551 0.0
C1395 C 0.65818 0.65187 0.51493 0.0
C1396 C 0.6978 0.66157 0.52915 0.0
H1397 H 0.61552 0.67734 0.49996 0.0
H1398 H 0.63694 0.61829 0.50626 0.0
C1399 C 0.72501 0.70579 0.53977 0.0
C1400 C 0.24282 0.96067 0.51654 0.0
C1401 C 0.24363 0.93035 0.53498 0.0
H1402 H 0.27448 0.03021 0.50314 0.0
C1403 C 0.27852 0.94696 0.55402 0.0
H1404 H 0.21645 0.9484 0.50157 0.0
C1405 C 0.31292 -0.00683 0.55417 0.0
C1406 C 0.31183 0.02363 0.53589 0.0
H1407 H 0.28013 0.92389 0.56821 0.0
H1408 H 0.33995 0.00516 0.56872 0.0
C1409 C 0.27611 0.00721 0.51736 0.0
C1410 C -0.00809 0.36174 0.39126 0.0
C1411 C 0.96849 0.38124 0.37863 0.0
H1412 H -0.00194 0.3018 0.39689 0.0
C1413 C 0.9311 0.35362 0.3623 0.0
H1414 H 0.02122 0.3824 0.40374 0.0
C1415 C 0.91733 0.30712 0.35874 0.0
C1416 C 0.94179 0.28811 0.37076 0.0
H1417 H 0.9128 0.36802 0.35217 0.0
H1418 H 0.88827 0.28631 0.34614 0.0
C1419 C 0.97908 0.3158 0.38709 0.0
C1420 C 0.67198 0.60594 0.3538 0.0
C1421 C 0.6897 0.64911 0.36588 0.0
H1422 H 0.61207 0.54021 0.34652 0.0
C1423 C 0.66065 0.65839 0.3812 0.0
H1424 H 0.69401 0.59806 0.342 0.0
C1425 C 0.6146 0.62491 0.38456 0.0
C1426 C 0.59651 0.58203 0.37208 0.0
H1427 H 0.67378 0.69116 0.39102 0.0
H1428 H 0.59285 0.63307 0.39643 0.0
C1429 C 0.62541 0.57285 0.35651 0.0
C1430 C 0.32752 0.00114 0.35016 0.0
C1431 C 0.32979 0.0338 0.36806 0.0
H1432 H 0.35931 0.9635 0.33601 0.0
C1433 C 0.36644 0.05352 0.38602 0.0
H1434 H 0.29971 0.98561 0.33611 0.0
C1435 C 0.39959 0.03977 0.38656 0.0
C1436 C 0.39772 0.00773 0.36836 0.0
H1437 H 0.36899 0.07895 0.39996 0.0
H1438 H 0.42679 0.05435 0.40103 0.0
C1439 C 0.36177 0.98888 0.34998 0.0
C1440 C 0.16116 0.34579 0.10961 0.0
C1441 C 0.13213 0.359 0.09709 0.0
H1442 H 0.16561 0.30127 0.13857 0.0
C1443 C 0.08506 0.3356 0.10289 0.0
H1444 H 0.19778 0.36389 0.10566 0.0
C1445 C 0.06707 0.30058 0.12107 0.0
C1446 C 0.09563 0.28813 0.13455 0.0
H1447 H 0.06189 0.34524 0.09384 0.0
H1448 H 0.03049 0.28419 0.12509 0.0
C1449 C 0.14294 0.31054 0.12854 0.0
C1450 C 0.64024 0.812 0.10708 0.0
C1451 C 0.62914 0.77163 0.09311 0.0
H1452 H 0.68171 0.85809 0.138 0.0
C1453 C 0.65374 0.74887 0.09817 0.0
H1454 H 0.62118 0.82978 0.10372 0.0
C1455 C 0.68775 0.76483 0.11709 0.0
C1456 C 0.69786 0.80371 0.13211 0.0
H1457 H 0.64575 0.71751 0.08796 0.0
H1458 H 0.70508 0.74532 0.12049 0.0
C1459 C 0.67438 0.82786 0.12676 0.0
C1460 C 0.23202 0.91653 0.12881 0.0
C1461 C 0.18694 0.88973 0.13809 0.0
H1462 H 0.28453 0.92213 0.10346 0.0
C1463 C 0.15917 0.84535 0.12774 0.0
H1464 H 0.25449 0.9508 0.13632 0.0
C1465 C 0.17661 0.82877 0.10796 0.0
C1466 C 0.22212 0.85621 0.09898 0.0
H1467 H 0.12412 0.82415 0.13448 0.0
H1468 H 0.15497 0.79475 0.09995 0.0
C1469 C 0.2494 0.89994 0.10986 0.0
C1470 C 0.3391 0.07881 0.46069 0.0
C1471 C 0.35786 0.12365 0.47036 0.0
H1472 H 0.29007 0.02677 0.4359 0.0
C1473 C 0.34081 0.15176 0.46101 0.0
H1474 H 0.35139 0.05621 0.46742 0.0
C1475 C 0.30523 0.13471 0.44222 0.0
C1476 C 0.28629 0.08933 0.43304 0.0
H1477 H 0.35528 0.18676 0.46788 0.0
H1478 H 0.29216 0.15649 0.43529 0.0
C1479 C 0.30365 0.06181 0.44259 0.0
C1480 C 0.83914 0.18581 0.42567 0.0
C1481 C 0.86687 0.16653 0.43146 0.0
H1482 H 0.80537 0.22107 0.44077 0.0
C1483 C 0.87461 0.16029 0.45768 0.0
H1484 H 0.83304 0.19162 0.4057 0.0
C1485 C 0.85735 0.17565 0.47778 0.0
C1486 C 0.83339 0.19891 0.47193 0.0
H1487 H 0.8964 0.146 0.4626 0.0
H1488 H 0.86623 0.17268 0.49766 0.0
C1489 C 0.82321 0.20262 0.44576 0.0
C1490 C 0.75164 0.67855 0.44273 0.0
C1491 C 0.79371 0.69252 0.43011 0.0
H1492 H 0.70156 0.63326 0.46967 0.0
C1493 C 0.81951 0.67132 0.43685 0.0
H1494 H 0.73073 0.69396 0.43811 0.0
C1495 C 0.80265 0.63614 0.45584 0.0
C1496 C 0.75967 0.62172 0.46772 0.0
H1497 H 0.85222 0.68171 0.42747 0.0
H1498 H 0.82215 0.61926 0.46049 0.0
C1499 C 0.73484 0.64365 0.46102 0.0
C1500 C 0.91489 0.67783 0.94135 0.0
C1501 C 0.8874 0.69469 0.93105 0.0
H1502 H 0.92022 0.63116 0.96698 0.0
C1503 C 0.84174 0.6761 0.93989 0.0
H1504 H 0.95016 0.69124 0.93501 0.0
C1505 C 0.82436 0.64123 0.95905 0.0
C1506 C 0.85238 0.62437 0.9689 0.0
H1507 H 0.81997 0.68879 0.93232 0.0
H1508 H 0.78918 0.62697 0.96572 0.0
C1509 C 0.89764 0.64318 0.95979 0.0
C1510 C 0.27893 0.16424 0.95148 0.0
C1511 C 0.29168 0.17254 0.92511 0.0
H1512 H 0.30136 0.17567 0.9912 0.0
C1513 C 0.33863 0.19551 0.91864 0.0
H1514 H 0.24291 0.14713 0.95696 0.0
C1515 C 0.37212 0.21354 0.93828 0.0
C1516 C 0.35929 0.20741 0.96467 0.0
H1517 H 0.34972 0.20279 0.8986 0.0
H1518 H 0.408 0.23432 0.93283 0.0
C1519 C 0.31249 0.18079 0.97112 0.0
C1520 C 0.7901 0.13967 0.92484 0.0
C1521 C 0.81296 0.11548 0.9311 0.0
H1522 H 0.75169 0.1705 0.93938 0.0
C1523 C 0.82195 0.11123 0.95739 0.0
H1524 H 0.78237 0.14334 0.90484 0.0
C1525 C 0.80601 0.12855 0.97718 0.0
C1526 C 0.77926 0.14875 0.97097 0.0
H1527 H 0.83909 0.09223 0.96269 0.0
H1528 H 0.81154 0.12262 0.99721 0.0
C1529 C 0.7726 0.15539 0.94464 0.0
C1530 C 0.63937 0.82333 0.60626 0.0
C1531 C 0.62414 0.85116 0.59432 0.0
H1532 H 0.68495 0.82016 0.6351 0.0
C1533 C 0.64503 0.89765 0.60126 0.0
H1534 H 0.62335 0.78718 0.60143 0.0
C1535 C 0.67982 0.91622 0.61971 0.0
C1536 C 0.69437 0.88877 0.63249 0.0
H1537 H 0.63389 0.91997 0.5927 0.0
H1538 H 0.69443 0.95229 0.62448 0.0
C1539 C 0.67414 0.84202 0.62558 0.0
C1540 C 0.08622 0.73136 0.61292 0.0
C1541 C 0.12981 0.75779 0.60168 0.0
H1542 H 0.03537 0.72875 0.63863 0.0
C1543 C 0.15761 0.80371 0.60983 0.0
H1544 H 0.06392 0.69587 0.60726 0.0
C1545 C 0.14111 0.82286 0.62861 0.0
C1546 C 0.09655 0.79625 0.63895 0.0
H1547 H 0.19181 0.82452 0.60185 0.0
H1548 H 0.16239 0.85841 0.6344 0.0
C1549 C 0.06978 0.75033 0.63104 0.0
C1550 C 0.25161 0.34828 0.60741 0.0
C1551 C 0.22341 0.36225 0.59486 0.0
H1552 H 0.25674 0.30361 0.63477 0.0
C1553 C 0.17664 0.34156 0.60188 0.0
H1554 H 0.28778 0.36341 0.60256 0.0
C1555 C 0.15865 0.307 0.62116 0.0
C1556 C 0.18725 0.29257 0.633 0.0
H1557 H 0.15429 0.35199 0.59255 0.0
H1558 H 0.12252 0.29079 0.62622 0.0
C1559 C 0.23375 0.31377 0.62594 0.0
C1560 C 0.97196 0.48419 0.76991 0.0
C1561 C 0.94926 0.43646 0.7652 0.0
H1562 H 0.02708 0.54121 0.79078 0.0
C1563 C 0.96266 0.40942 0.77935 0.0
H1564 H 0.96207 0.50579 0.75928 0.0
C1565 C -0.00073 0.42931 0.7966 0.0
C1566 C 0.02302 0.4768 0.80119 0.0
H1567 H 0.94626 0.37266 0.77624 0.0
H1568 H 0.01041 0.40729 0.80545 0.0
C1569 C 0.00861 0.50432 0.78809 0.0
C1570 C 0.57451 0.55637 0.77196 0.0
C1571 C 0.54887 0.50975 0.76527 0.0
H1572 H 0.57886 0.61205 0.79382 0.0
C1573 C 0.50498 0.48273 0.77641 0.0
H1574 H 0.60865 0.57806 0.76409 0.0
C1575 C 0.48786 0.50245 0.79448 0.0
C1576 C 0.51431 0.54936 0.80103 0.0
H1577 H 0.48489 0.44645 0.77193 0.0
H1578 H 0.45437 0.48128 0.80325 0.0
C1579 C 0.5574 0.57591 0.78924 0.0
C1580 C 0.41943 0.01011 0.77404 0.0
C1581 C 0.46498 0.0296 0.76531 0.0
H1582 H 0.36621 0.96044 0.79784 0.0
C1583 C 0.49301 0.01278 0.77522 0.0
H1584 H 0.3969 0.02223 0.76692 0.0
C1585 C 0.47525 0.97704 0.79388 0.0
C1586 C 0.4292 0.95753 0.80218 0.0
H1587 H 0.52849 0.02772 0.76899 0.0
H1588 H 0.49702 0.96433 0.80142 0.0
C1589 C 0.40178 0.97452 0.79192 0.0
C1590 C 0.50802 0.01122 0.27407 0.0
C1591 C 0.55329 0.0289 0.26477 0.0
H1592 H 0.45456 0.96083 0.29886 0.0
C1593 C 0.57943 0.00945 0.2735 0.0
H1594 H 0.48745 0.02618 0.26789 0.0
C1595 C 0.56108 0.973 0.29083 0.0
C1596 C 0.51615 0.95508 0.3004 0.0
H1597 H 0.61439 0.02219 0.26677 0.0
H1598 H 0.58261 0.95897 0.29684 0.0
C1599 C 0.48953 0.97446 0.292 0.0
C1600 C -0.00156 0.57556 0.29832 0.0
C1601 C 0.02033 0.55085 0.3053 0.0
H1602 H 0.95001 0.58076 0.2741 0.0
C1603 C 0.00759 0.50899 0.29254 0.0
H1604 H 0.00752 0.60797 0.30765 0.0
C1605 C 0.97425 0.49326 0.27239 0.0
C1606 C 0.95317 0.51904 0.26534 0.0
H1607 H 0.02446 0.48958 0.2974 0.0
H1608 H 0.96527 0.4615 0.26232 0.0
C1609 C 0.96536 0.55988 0.27888 0.0
C1610 C 0.41406 0.40404 0.26658 0.0
C1611 C 0.46031 0.43013 0.25911 0.0
H1612 H 0.35983 0.39819 0.29057 0.0
C1613 C 0.48816 0.47321 0.27093 0.0
H1614 H 0.39168 0.37069 0.25796 0.0
C1615 C 0.46968 0.48906 0.2905 0.0
C1616 C 0.42316 0.46219 0.29786 0.0
H1617 H 0.52412 0.49374 0.26567 0.0
H1618 H 0.49148 0.52193 0.29976 0.0
C1619 C 0.39574 0.4199 0.28542 0.0
C1620 C 0.97523 0.23169 0.29244 0.0
C1621 C 0.95758 0.18683 0.302 0.0
H1622 H 0.02543 0.28493 0.26787 0.0
C1623 C 0.97715 0.16054 0.29355 0.0
H1624 H 0.96075 0.25264 0.29878 0.0
C1625 C 0.01291 0.17836 0.2752 0.0
C1626 C 0.03093 0.22343 0.26588 0.0
H1627 H 0.964 0.12582 0.30063 0.0
H1628 H 0.02684 0.15714 0.2685 0.0
C1629 C 0.01223 0.25017 0.2749 0.0
C1630 C 0.82492 0.80811 0.29045 0.0
C1631 C 0.7972 0.76344 0.30011 0.0
H1632 H 0.82952 0.86085 0.26482 0.0
C1633 C 0.75107 0.73808 0.292 0.0
H1634 H 0.86056 0.82834 0.29649 0.0
C1635 C 0.73279 0.7574 0.27479 0.0
C1636 C 0.76087 0.80164 0.26458 0.0
H1637 H 0.72893 0.7037 0.29939 0.0
H1638 H 0.69697 0.73745 0.26907 0.0
C1639 C 0.80719 0.82666 0.2724 0.0
C1640 C 0.24337 0.01052 0.2945 0.0
C1641 C 0.21613 0.02863 0.30369 0.0
H1642 H 0.24634 0.95909 0.27085 0.0
C1643 C 0.17042 0.00913 0.29495 0.0
H1644 H 0.27869 0.02489 0.30098 0.0
C1645 C 0.15259 0.97285 0.2769 0.0
C1646 C 0.17947 0.95405 0.26818 0.0
H1647 H 0.14871 0.02247 0.30175 0.0
H1648 H 0.1175 0.95896 0.27009 0.0
C1649 C 0.22487 0.97287 0.27736 0.0
C1650 C 0.97065 0.81225 0.79296 0.0
C1651 C 0.95195 0.76669 0.80158 0.0
H1652 H 0.02043 0.86569 0.7683 0.0
C1653 C 0.97061 0.7401 0.79223 0.0
H1654 H 0.95679 0.83339 0.79993 0.0
C1655 C 0.00808 0.75911 0.775 0.0
C1656 C 0.0263 0.80443 0.76606 0.0
H1657 H 0.95692 0.70497 0.79872 0.0
H1658 H 0.02234 0.73816 0.76833 0.0
C1659 C 0.0069 0.83066 0.77491 0.0
C1660 C 0.15106 0.17864 0.77103 0.0
C1661 C 0.17785 0.22411 0.76229 0.0
H1662 H 0.14784 0.12509 0.79545 0.0
C1663 C 0.22319 0.25067 0.77143 0.0
H1664 H 0.11599 0.15754 0.7642 0.0
C1665 C 0.24194 0.23153 0.78839 0.0
C1666 C 0.215 0.1862 0.7973 0.0
H1667 H 0.24453 0.28575 0.76488 0.0
H1668 H 0.27733 0.25231 0.79477 0.0
C1669 C 0.16918 0.16015 0.78885 0.0
C1670 C 0.82388 0.00749 0.79208 0.0
C1671 C 0.79617 0.0243 0.80223 0.0
H1672 H 0.82857 0.96102 0.765 0.0
C1673 C 0.7504 0.00505 0.79373 0.0
H1674 H 0.85937 0.02207 0.79829 0.0
C1675 C 0.73238 0.96918 0.77554 0.0
C1676 C 0.76041 0.95332 0.76472 0.0
H1677 H 0.72843 0.0175 0.80137 0.0
H1678 H 0.69682 0.95457 0.76947 0.0
C1679 C 0.80638 0.97286 0.77303 0.0
C1680 C 0.65301 0.5533 0.63543 0.0
C1681 C 0.6172 0.50732 0.63438 0.0
H1682 H 0.71445 0.60678 0.61791 0.0
C1683 C 0.61755 0.47911 0.61421 0.0
H1684 H 0.65391 0.57593 0.6508 0.0
C1685 C 0.65345 0.49662 0.59571 0.0
C1686 C 0.68859 0.54304 0.59645 0.0
H1687 H 0.59095 0.44334 0.61321 0.0
H1688 H 0.65401 0.47368 0.58107 0.0
C1689 C 0.68786 0.57103 0.61659 0.0
C1690 C 0.41774 0.0708 0.62823 0.0
C1691 C 0.46361 0.09735 0.63667 0.0
H1692 H 0.36324 0.06811 0.60468 0.0
C1693 C 0.4903 0.14226 0.62709 0.0
H1694 H 0.39636 0.03619 0.63549 0.0
C1695 C 0.4719 0.15986 0.60883 0.0
C1696 C 0.42587 0.1336 0.60065 0.0
H1697 H 0.52573 0.16342 0.63331 0.0
H1698 H 0.49352 0.19423 0.6013 0.0
C1699 C 0.39876 0.08911 0.61076 0.0
C1700 C 0.84368 0.34835 0.62623 0.0
C1701 C 0.89012 0.36948 0.63386 0.0
H1702 H 0.78958 0.29562 0.60311 0.0
C1703 C 0.91787 0.3525 0.62398 0.0
H1704 H 0.82157 0.36083 0.63358 0.0
C1705 C 0.89904 0.31397 0.60749 0.0
C1706 C 0.85269 0.29311 0.59973 0.0
H1707 H 0.95378 0.36825 0.62954 0.0
H1708 H 0.92083 0.30085 0.60051 0.0
C1709 C 0.8254 0.31113 0.60885 0.0
C1710 C 0.67357 0.08774 0.10988 0.0
C1711 C 0.69107 0.13243 0.10007 0.0
H1712 H 0.62332 0.03472 0.13454 0.0
C1713 C 0.67121 0.15865 0.10818 0.0
H1714 H 0.68827 0.06686 0.1038 0.0
C1715 C 0.6353 0.14093 0.12643 0.0
C1716 C 0.61741 0.09603 0.13598 0.0
H1717 H 0.68425 0.19323 0.1009 0.0
H1718 H 0.62114 0.1621 0.13286 0.0
C1719 C 0.63641 0.06934 0.12731 0.0
C1720 C 0.91176 0.56201 0.12426 0.0
C1721 C 0.88535 0.51687 0.13357 0.0
H1722 H 0.9134 0.61527 0.10022 0.0
C1723 C 0.83976 0.48992 0.12482 0.0
H1724 H 0.9469 0.58354 0.13085 0.0
C1725 C 0.82117 0.50749 0.10667 0.0
C1726 C 0.84721 0.55295 0.09781 0.0
H1727 H 0.81873 0.45501 0.13173 0.0
H1728 H 0.78614 0.48584 0.09993 0.0
C1729 C 0.89255 0.58019 0.10691 0.0
C1730 C 0.49594 0.35035 0.12049 0.0
C1731 C 0.46906 0.36881 0.12975 0.0
H1732 H 0.4994 0.30107 0.09512 0.0
C1733 C 0.42365 0.35039 0.12069 0.0
H1734 H 0.53106 0.36403 0.1272 0.0
C1735 C 0.40506 0.31334 0.10318 0.0
C1736 C 0.43211 0.29528 0.09365 0.0
H1737 H 0.40218 0.36388 0.12766 0.0
H1738 H 0.36968 0.29916 0.09682 0.0
C1739 C 0.47792 0.31452 0.10215 0.0
C1740 C 0.33857 0.91305 0.94 0.0
C1741 C 0.35804 0.88681 0.93123 0.0
H1742 H 0.28691 0.91524 0.96391 0.0
C1743 C 0.34045 0.84194 0.9408 0.0
H1744 H 0.35134 0.94765 0.9328 0.0
C1745 C 0.30484 0.82408 0.95932 0.0
C1746 C 0.28481 0.85002 0.96775 0.0
H1747 H 0.35489 0.82101 0.93436 0.0
H1748 H 0.29247 0.78971 0.96677 0.0
C1749 C 0.30167 0.89449 0.95769 0.0
C1750 C 0.11445 0.41606 0.94658 0.0
C1751 C 0.13879 0.44191 0.96849 0.0
H1752 H 0.08106 0.41419 0.91061 0.0
C1753 C 0.14829 0.48768 0.97047 0.0
H1754 H 0.10685 0.38088 0.9443 0.0
C1755 C 0.13217 0.50651 0.95143 0.0
C1756 C 0.10784 0.48044 0.92956 0.0
H1757 H 0.16837 0.50901 0.98661 0.0
H1758 H 0.13947 0.54161 0.95355 0.0
C1759 C 0.09968 0.43522 0.92724 0.0
C1760 C 0.48662 0.64109 0.93892 0.0
C1761 C 0.51301 0.62187 0.92996 0.0
H1762 H 0.4838 0.69109 0.96399 0.0
C1763 C 0.55842 0.64014 0.93901 0.0
H1764 H 0.45151 0.62756 0.93225 0.0
C1765 C 0.57741 0.67753 0.95632 0.0
C1766 C 0.55076 0.69616 0.9657 0.0
H1767 H 0.57955 0.62607 0.9323 0.0
H1768 H 0.61269 0.69133 0.96277 0.0
C1769 C 0.50502 0.67728 0.95707 0.0
C1770 C 0.30193 0.47215 0.45455 0.0
C1771 C 0.28429 0.4272 0.46395 0.0
H1772 H 0.35077 0.52496 0.42926 0.0
C1773 C 0.3043 0.40126 0.45558 0.0
H1774 H 0.28709 0.49283 0.46078 0.0
C1775 C 0.34214 0.42043 0.43858 0.0
C1776 C 0.35906 0.465 0.42871 0.0
H1777 H 0.29137 0.36659 0.46265 0.0
H1778 H 0.35764 0.40015 0.4328 0.0
C1779 C 0.33831 0.49051 0.43661 0.0
C1780 C 0.56108 0.91288 0.43804 0.0
C1781 C 0.51573 0.88587 0.42892 0.0
H1782 H 0.61497 0.91618 0.4624 0.0
C1783 C 0.48911 0.84079 0.4383 0.0
H1784 H 0.58237 0.94767 0.431 0.0
C1785 C 0.50718 0.8234 0.45692 0.0
C1786 C 0.55283 0.8501 0.46566 0.0
H1787 H 0.45404 0.8193 0.43158 0.0
H1788 H 0.48574 0.78878 0.46416 0.0
C1789 C 0.57976 0.89485 0.45587 0.0
C1790 C 0.15657 0.67499 0.46218 0.0
C1791 C 0.13063 0.69522 0.47031 0.0
H1792 H 0.15955 0.62452 0.43764 0.0
C1793 C 0.08624 0.6786 0.45997 0.0
H1794 H 0.1909 0.68721 0.46984 0.0
C1795 C 0.06762 0.64152 0.44243 0.0
C1796 C 0.0938 0.6217 0.43407 0.0
H1797 H 0.06556 0.6936 0.4659 0.0
H1798 H 0.03303 0.62882 0.43506 0.0
C1799 C 0.13869 0.63922 0.4438 0.0
loop_
_geom_bond_atom_site_label_1
_geom_bond_atom_site_label_2
_geom_bond_distance
_geom_bond_site_symmetry_2
_ccdc_geom_bond_type
Tb0 O3 2.453 . S
Tb0 O4 2.596 . S
Tb0 O5 2.374 . S
Tb0 O13 2.343 . S
Tb0 O15 2.353 . S
Tb0 O17 2.427 . S
Tb0 O18 2.513 . S
C1 O5 1.251 . S
C1 O7 1.263 . S
Tb2 O4 2.343 . S
Tb2 O7 2.353 . S
Tb2 O10 2.427 . S
Tb2 O11 2.513 1_455 S
Tb2 O12 2.453 . S
Tb2 O13 2.596 . S
Tb2 O14 2.374 . S
O3 Tb0 2.453 . S
O3 C19 1.245 . S
O4 Tb0 2.596 . S
O4 Tb2 2.343 . S
O4 C19 1.259 . S
O5 Tb0 2.374 . S
O5 C1 1.251 . S
C6 O10 1.275 1_655 S
C6 O11 1.246 . S
O7 C1 1.263 . S
O7 Tb2 2.353 . S
C8 O12 1.245 . S
C8 O13 1.259 . S
C9 O14 1.250 . S
C9 O15 1.263 . S
O10 Tb2 2.427 . S
O10 C6 1.275 1_455 S
O11 Tb2 2.513 1_655 S
O11 C6 1.246 . S
O12 Tb2 2.453 . S
O12 C8 1.245 . S
O13 Tb0 2.343 . S
O13 Tb2 2.596 . S
O13 C8 1.259 . S
O14 Tb2 2.374 . S
O14 C9 1.250 . S
O15 Tb0 2.353 . S
O15 C9 1.263 . S
C16 O17 1.275 . S
C16 O18 1.246 . S
O17 Tb0 2.427 . S
O17 C16 1.275 . S
O18 Tb0 2.513 . S
O18 C16 1.246 . S
C19 O3 1.245 . S
C19 O4 1.259 . S
Tb20 O23 2.453 . S
Tb20 O24 2.596 . S
Tb20 O25 2.374 . S
Tb20 O33 2.343 . S
Tb20 O35 2.353 . S
Tb20 O37 2.427 . S
Tb20 O38 2.513 . S
C21 O25 1.251 . S
C21 O27 1.263 . S
Tb22 O24 2.343 . S
Tb22 O27 2.353 . S
Tb22 O30 2.427 . S
Tb22 O31 2.513 . S
Tb22 O32 2.453 . S
Tb22 O33 2.596 . S
Tb22 O34 2.374 . S
O23 Tb20 2.453 . S
O23 C39 1.245 . S
O24 Tb20 2.596 . S
O24 Tb22 2.343 . S
O24 C39 1.259 . S
O25 Tb20 2.374 . S
O25 C21 1.251 . S
C26 O30 1.275 . S
C26 O31 1.246 . S
O27 C21 1.263 . S
O27 Tb22 2.353 . S
C28 O32 1.245 . S
C28 O33 1.259 . S
C29 O34 1.250 . S
C29 O35 1.263 . S
O30 Tb22 2.427 . S
O30 C26 1.275 . S
O31 Tb22 2.513 . S
O31 C26 1.246 . S
O32 Tb22 2.453 . S
O32 C28 1.245 . S
O33 Tb20 2.343 . S
O33 Tb22 2.596 . S
O33 C28 1.259 . S
O34 Tb22 2.374 . S
O34 C29 1.250 . S
O35 Tb20 2.353 . S
O35 C29 1.263 . S
C36 O37 1.275 . S
C36 O38 1.246 . S
O37 Tb20 2.427 . S
O37 C36 1.275 . S
O38 Tb20 2.513 . S
O38 C36 1.246 . S
C39 O23 1.245 . S
C39 O24 1.259 . S
Tb40 O43 2.453 . S
Tb40 O44 2.596 . S
Tb40 O45 2.374 . S
Tb40 O53 2.343 . S
Tb40 O55 2.353 . S
Tb40 O57 2.427 . S
Tb40 O58 2.513 . S
C41 O45 1.251 . S
C41 O47 1.263 . S
Tb42 O44 2.343 . S
Tb42 O47 2.353 . S
Tb42 O50 2.427 . S
Tb42 O51 2.513 1_565 S
Tb42 O52 2.453 . S
Tb42 O53 2.596 . S
Tb42 O54 2.374 . S
O43 Tb40 2.453 . S
O43 C59 1.245 . S
O44 Tb40 2.596 . S
O44 Tb42 2.343 . S
O44 C59 1.259 . S
O45 Tb40 2.374 . S
O45 C41 1.251 . S
C46 O50 1.275 1_545 S
C46 O51 1.246 . S
O47 C41 1.263 . S
O47 Tb42 2.353 . S
C48 O52 1.245 . S
C48 O53 1.259 . S
C49 O54 1.250 . S
C49 O55 1.263 . S
O50 Tb42 2.427 . S
O50 C46 1.275 1_565 S
O51 Tb42 2.513 1_545 S
O51 C46 1.246 . S
O52 Tb42 2.453 . S
O52 C48 1.245 . S
O53 Tb40 2.343 . S
O53 Tb42 2.596 . S
O53 C48 1.259 . S
O54 Tb42 2.374 . S
O54 C49 1.250 . S
O55 Tb40 2.353 . S
O55 C49 1.263 . S
C56 O57 1.275 . S
C56 O58 1.246 . S
O57 Tb40 2.427 . S
O57 C56 1.275 . S
O58 Tb40 2.513 . S
O58 C56 1.246 . S
C59 O43 1.245 . S
C59 O44 1.259 . S
Tb60 O63 2.453 . S
Tb60 O64 2.596 . S
Tb60 O65 2.374 . S
Tb60 O73 2.343 . S
Tb60 O75 2.353 . S
Tb60 O77 2.427 . S
Tb60 O78 2.513 . S
C61 O65 1.251 . S
C61 O67 1.263 . S
Tb62 O64 2.343 . S
Tb62 O67 2.353 . S
Tb62 O70 2.427 . S
Tb62 O71 2.513 1_545 S
Tb62 O72 2.453 . S
Tb62 O73 2.596 . S
Tb62 O74 2.374 . S
O63 Tb60 2.453 . S
O63 C79 1.245 . S
O64 Tb60 2.596 . S
O64 Tb62 2.343 . S
O64 C79 1.259 . S
O65 Tb60 2.374 . S
O65 C61 1.251 . S
C66 O70 1.275 1_565 S
C66 O71 1.246 . S
O67 C61 1.263 . S
O67 Tb62 2.353 . S
C68 O72 1.245 . S
C68 O73 1.259 . S
C69 O74 1.250 . S
C69 O75 1.263 . S
O70 Tb62 2.427 . S
O70 C66 1.275 1_545 S
O71 Tb62 2.513 1_565 S
O71 C66 1.246 . S
O72 Tb62 2.453 . S
O72 C68 1.245 . S
O73 Tb60 2.343 . S
O73 Tb62 2.596 . S
O73 C68 1.259 . S
O74 Tb62 2.374 . S
O74 C69 1.250 . S
O75 Tb60 2.353 . S
O75 C69 1.263 . S
C76 O77 1.275 . S
C76 O78 1.246 . S
O77 Tb60 2.427 . S
O77 C76 1.275 . S
O78 Tb60 2.513 . S
O78 C76 1.246 . S
C79 O63 1.245 . S
C79 O64 1.259 . S
Tb80 O83 2.453 . S
Tb80 O84 2.596 . S
Tb80 O85 2.374 . S
Tb80 O93 2.343 . S
Tb80 O95 2.353 . S
Tb80 O97 2.427 . S
Tb80 O98 2.513 . S
C81 O85 1.251 . S
C81 O87 1.263 . S
Tb82 O84 2.343 . S
Tb82 O87 2.353 . S
Tb82 O90 2.427 . S
Tb82 O91 2.513 1_655 S
Tb82 O92 2.453 . S
Tb82 O93 2.596 . S
Tb82 O94 2.374 . S
O83 Tb80 2.453 . S
O83 C99 1.245 . S
O84 Tb80 2.596 . S
O84 Tb82 2.343 . S
O84 C99 1.259 . S
O85 Tb80 2.374 . S
O85 C81 1.251 . S
C86 O90 1.275 1_455 S
C86 O91 1.246 . S
O87 C81 1.263 . S
O87 Tb82 2.353 . S
C88 O92 1.245 . S
C88 O93 1.259 . S
C89 O94 1.250 . S
C89 O95 1.263 . S
O90 Tb82 2.427 . S
O90 C86 1.275 1_655 S
O91 Tb82 2.513 1_455 S
O91 C86 1.246 . S
O92 Tb82 2.453 . S
O92 C88 1.245 . S
O93 Tb80 2.343 . S
O93 Tb82 2.596 . S
O93 C88 1.259 . S
O94 Tb82 2.374 . S
O94 C89 1.250 . S
O95 Tb80 2.353 . S
O95 C89 1.263 . S
C96 O97 1.275 . S
C96 O98 1.246 . S
O97 Tb80 2.427 . S
O97 C96 1.275 . S
O98 Tb80 2.513 . S
O98 C96 1.246 . S
C99 O83 1.245 . S
C99 O84 1.259 . S
Tb100 O103 2.453 . S
Tb100 O104 2.596 . S
Tb100 O105 2.374 . S
Tb100 O113 2.343 . S
Tb100 O115 2.353 . S
Tb100 O117 2.427 . S
Tb100 O118 2.513 . S
C101 O105 1.251 . S
C101 O107 1.263 . S
Tb102 O104 2.343 . S
Tb102 O107 2.353 . S
Tb102 O110 2.427 . S
Tb102 O111 2.513 . S
Tb102 O112 2.453 . S
Tb102 O113 2.596 . S
Tb102 O114 2.374 . S
O103 Tb100 2.453 . S
O103 C119 1.245 . S
O104 Tb100 2.596 . S
O104 Tb102 2.343 . S
O104 C119 1.259 . S
O105 Tb100 2.374 . S
O105 C101 1.251 . S
C106 O110 1.275 . S
C106 O111 1.246 . S
O107 C101 1.263 . S
O107 Tb102 2.353 . S
C108 O112 1.245 . S
C108 O113 1.259 . S
C109 O114 1.250 . S
C109 O115 1.263 . S
O110 Tb102 2.427 . S
O110 C106 1.275 . S
O111 Tb102 2.513 . S
O111 C106 1.246 . S
O112 Tb102 2.453 . S
O112 C108 1.245 . S
O113 Tb100 2.343 . S
O113 Tb102 2.596 . S
O113 C108 1.259 . S
O114 Tb102 2.374 . S
O114 C109 1.250 . S
O115 Tb100 2.353 . S
O115 C109 1.263 . S
C116 O117 1.275 . S
C116 O118 1.246 . S
O117 Tb100 2.427 . S
O117 C116 1.275 . S
O118 Tb100 2.513 . S
O118 C116 1.246 . S
C119 O103 1.245 . S
C119 O104 1.259 . S
Tb120 O123 2.453 . S
Tb120 O124 2.596 . S
Tb120 O125 2.374 . S
Tb120 O133 2.343 . S
Tb120 O135 2.353 . S
Tb120 O137 2.427 . S
Tb120 O138 2.513 1_655 S
C121 O125 1.251 . S
C121 O127 1.263 . S
Tb122 O124 2.343 . S
Tb122 O127 2.353 . S
Tb122 O130 2.427 . S
Tb122 O131 2.513 . S
Tb122 O132 2.453 . S
Tb122 O133 2.596 . S
Tb122 O134 2.374 . S
O123 Tb120 2.453 . S
O123 C139 1.245 . S
O124 Tb120 2.596 . S
O124 Tb122 2.343 . S
O124 C139 1.259 . S
O125 Tb120 2.374 . S
O125 C121 1.251 . S
C126 O130 1.275 . S
C126 O131 1.246 . S
O127 C121 1.263 . S
O127 Tb122 2.353 . S
C128 O132 1.245 . S
C128 O133 1.259 . S
C129 O134 1.250 . S
C129 O135 1.263 . S
O130 Tb122 2.427 . S
O130 C126 1.275 . S
O131 Tb122 2.513 . S
O131 C126 1.246 . S
O132 Tb122 2.453 . S
O132 C128 1.245 . S
O133 Tb120 2.343 . S
O133 Tb122 2.596 . S
O133 C128 1.259 . S
O134 Tb122 2.374 . S
O134 C129 1.250 . S
O135 Tb120 2.353 . S
O135 C129 1.263 . S
C136 O137 1.275 1_455 S
C136 O138 1.246 . S
O137 Tb120 2.427 . S
O137 C136 1.275 1_655 S
O138 Tb120 2.513 1_455 S
O138 C136 1.246 . S
C139 O123 1.245 . S
C139 O124 1.259 . S
Tb140 O143 2.453 . S
Tb140 O144 2.596 . S
Tb140 O145 2.374 . S
Tb140 O153 2.343 . S
Tb140 O155 2.353 . S
Tb140 O157 2.427 . S
Tb140 O158 2.513 . S
C141 O145 1.251 . S
C141 O147 1.263 . S
Tb142 O144 2.343 . S
Tb142 O147 2.353 . S
Tb142 O150 2.427 . S
Tb142 O151 2.513 . S
Tb142 O152 2.453 . S
Tb142 O153 2.596 . S
Tb142 O154 2.374 . S
O143 Tb140 2.453 . S
O143 C159 1.245 . S
O144 Tb140 2.596 . S
O144 Tb142 2.343 . S
O144 C159 1.259 . S
O145 Tb140 2.374 . S
O145 C141 1.251 . S
C146 O150 1.275 . S
C146 O151 1.246 . S
O147 C141 1.263 . S
O147 Tb142 2.353 . S
C148 O152 1.245 . S
C148 O153 1.259 . S
C149 O154 1.250 . S
C149 O155 1.263 . S
O150 Tb142 2.427 . S
O150 C146 1.275 . S
O151 Tb142 2.513 . S
O151 C146 1.246 . S
O152 Tb142 2.453 . S
O152 C148 1.245 . S
O153 Tb140 2.343 . S
O153 Tb142 2.596 . S
O153 C148 1.259 . S
O154 Tb142 2.374 . S
O154 C149 1.250 . S
O155 Tb140 2.353 . S
O155 C149 1.263 . S
C156 O157 1.275 . S
C156 O158 1.246 . S
O157 Tb140 2.427 . S
O157 C156 1.275 . S
O158 Tb140 2.513 . S
O158 C156 1.246 . S
C159 O143 1.245 . S
C159 O144 1.259 . S
Tb160 O163 2.453 . S
Tb160 O164 2.596 . S
Tb160 O165 2.374 . S
Tb160 O173 2.343 . S
Tb160 O175 2.353 . S
Tb160 O177 2.427 . S
Tb160 O178 2.513 1_545 S
C161 O165 1.251 . S
C161 O167 1.263 . S
Tb162 O164 2.343 . S
Tb162 O167 2.353 . S
Tb162 O170 2.427 . S
Tb162 O171 2.513 . S
Tb162 O172 2.453 . S
Tb162 O173 2.596 . S
Tb162 O174 2.374 . S
O163 Tb160 2.453 . S
O163 C179 1.245 . S
O164 Tb160 2.596 . S
O164 Tb162 2.343 . S
O164 C179 1.259 . S
O165 Tb160 2.374 . S
O165 C161 1.251 . S
C166 O170 1.275 . S
C166 O171 1.246 . S
O167 C161 1.263 . S
O167 Tb162 2.353 . S
C168 O172 1.245 . S
C168 O173 1.259 . S
C169 O174 1.250 . S
C169 O175 1.263 . S
O170 Tb162 2.427 . S
O170 C166 1.275 . S
O171 Tb162 2.513 . S
O171 C166 1.246 . S
O172 Tb162 2.453 . S
O172 C168 1.245 . S
O173 Tb160 2.343 . S
O173 Tb162 2.596 . S
O173 C168 1.259 . S
O174 Tb162 2.374 . S
O174 C169 1.250 . S
O175 Tb160 2.353 . S
O175 C169 1.263 . S
C176 O177 1.275 1_565 S
C176 O178 1.246 . S
O177 Tb160 2.427 . S
O177 C176 1.275 1_545 S
O178 Tb160 2.513 1_565 S
O178 C176 1.246 . S
C179 O163 1.245 . S
C179 O164 1.259 . S
Tb180 O183 2.453 . S
Tb180 O184 2.596 . S
Tb180 O185 2.374 . S
Tb180 O193 2.343 . S
Tb180 O195 2.353 . S
Tb180 O197 2.427 . S
Tb180 O198 2.513 1_565 S
C181 O185 1.251 . S
C181 O187 1.263 . S
Tb182 O184 2.343 . S
Tb182 O187 2.353 . S
Tb182 O190 2.427 . S
Tb182 O191 2.513 . S
Tb182 O192 2.453 . S
Tb182 O193 2.596 . S
Tb182 O194 2.374 . S
O183 Tb180 2.453 . S
O183 C199 1.245 . S
O184 Tb180 2.596 . S
O184 Tb182 2.343 . S
O184 C199 1.259 . S
O185 Tb180 2.374 . S
O185 C181 1.251 . S
C186 O190 1.275 . S
C186 O191 1.246 . S
O187 C181 1.263 . S
O187 Tb182 2.353 . S
C188 O192 1.245 . S
C188 O193 1.259 . S
C189 O194 1.250 . S
C189 O195 1.263 . S
O190 Tb182 2.427 . S
O190 C186 1.275 . S
O191 Tb182 2.513 . S
O191 C186 1.246 . S
O192 Tb182 2.453 . S
O192 C188 1.245 . S
O193 Tb180 2.343 . S
O193 Tb182 2.596 . S
O193 C188 1.259 . S
O194 Tb182 2.374 . S
O194 C189 1.250 . S
O195 Tb180 2.353 . S
O195 C189 1.263 . S
C196 O197 1.275 1_545 S
C196 O198 1.246 . S
O197 Tb180 2.427 . S
O197 C196 1.275 1_565 S
O198 Tb180 2.513 1_545 S
O198 C196 1.246 . S
C199 O183 1.245 . S
C199 O184 1.259 . S
Tb200 O203 2.453 . S
Tb200 O204 2.596 . S
Tb200 O205 2.374 . S
Tb200 O213 2.343 . S
Tb200 O215 2.353 . S
Tb200 O217 2.427 . S
Tb200 O218 2.513 1_455 S
C201 O205 1.251 . S
C201 O207 1.263 . S
Tb202 O204 2.343 . S
Tb202 O207 2.353 . S
Tb202 O210 2.427 . S
Tb202 O211 2.513 . S
Tb202 O212 2.453 . S
Tb202 O213 2.596 . S
Tb202 O214 2.374 . S
O203 Tb200 2.453 . S
O203 C219 1.245 . S
O204 Tb200 2.596 . S
O204 Tb202 2.343 . S
O204 C219 1.259 . S
O205 Tb200 2.374 . S
O205 C201 1.251 . S
C206 O210 1.275 . S
C206 O211 1.246 . S
O207 C201 1.263 . S
O207 Tb202 2.353 . S
C208 O212 1.245 . S
C208 O213 1.259 . S
C209 O214 1.250 . S
C209 O215 1.263 . S
O210 Tb202 2.427 . S
O210 C206 1.275 . S
O211 Tb202 2.513 . S
O211 C206 1.246 . S
O212 Tb202 2.453 . S
O212 C208 1.245 . S
O213 Tb200 2.343 . S
O213 Tb202 2.596 . S
O213 C208 1.259 . S
O214 Tb202 2.374 . S
O214 C209 1.250 . S
O215 Tb200 2.353 . S
O215 C209 1.263 . S
C216 O217 1.275 1_655 S
C216 O218 1.246 . S
O217 Tb200 2.427 . S
O217 C216 1.275 1_455 S
O218 Tb200 2.513 1_655 S
O218 C216 1.246 . S
C219 O203 1.245 . S
C219 O204 1.259 . S
Tb220 O223 2.453 . S
Tb220 O224 2.596 . S
Tb220 O225 2.374 . S
Tb220 O233 2.343 . S
Tb220 O235 2.353 . S
Tb220 O237 2.427 . S
Tb220 O238 2.513 . S
C221 O225 1.251 . S
C221 O227 1.263 . S
Tb222 O224 2.343 . S
Tb222 O227 2.353 . S
Tb222 O230 2.427 . S
Tb222 O231 2.513 . S
Tb222 O232 2.453 . S
Tb222 O233 2.596 . S
Tb222 O234 2.374 . S
O223 Tb220 2.453 . S
O223 C239 1.245 . S
O224 Tb220 2.596 . S
O224 Tb222 2.343 . S
O224 C239 1.259 . S
O225 Tb220 2.374 . S
O225 C221 1.251 . S
C226 O230 1.275 . S
C226 O231 1.246 . S
O227 C221 1.263 . S
O227 Tb222 2.353 . S
C228 O232 1.245 . S
C228 O233 1.259 . S
C229 O234 1.250 . S
C229 O235 1.263 . S
O230 Tb222 2.427 . S
O230 C226 1.275 . S
O231 Tb222 2.513 . S
O231 C226 1.246 . S
O232 Tb222 2.453 . S
O232 C228 1.245 . S
O233 Tb220 2.343 . S
O233 Tb222 2.596 . S
O233 C228 1.259 . S
O234 Tb222 2.374 . S
O234 C229 1.250 . S
O235 Tb220 2.353 . S
O235 C229 1.263 . S
C236 O237 1.275 . S
C236 O238 1.246 . S
O237 Tb220 2.427 . S
O237 C236 1.275 . S
O238 Tb220 2.513 . S
O238 C236 1.246 . S
C239 O223 1.245 . S
C239 O224 1.259 . S
Tb240 O243 2.453 . S
Tb240 O244 2.596 . S
Tb240 O245 2.374 . S
Tb240 O253 2.343 . S
Tb240 O255 2.353 . S
Tb240 O257 2.427 . S
Tb240 O258 2.513 . S
C241 O245 1.251 . S
C241 O247 1.263 . S
Tb242 O244 2.343 . S
Tb242 O247 2.353 . S
Tb242 O250 2.427 . S
Tb242 O251 2.513 . S
Tb242 O252 2.453 . S
Tb242 O253 2.596 . S
Tb242 O254 2.374 . S
O243 Tb240 2.453 . S
O243 C259 1.245 . S
O244 Tb240 2.596 . S
O244 Tb242 2.343 . S
O244 C259 1.259 . S
O245 Tb240 2.374 . S
O245 C241 1.251 . S
C246 O250 1.275 . S
C246 O251 1.246 . S
O247 C241 1.263 . S
O247 Tb242 2.353 . S
C248 O252 1.245 . S
C248 O253 1.259 . S
C249 O254 1.250 . S
C249 O255 1.263 . S
O250 Tb242 2.427 . S
O250 C246 1.275 . S
O251 Tb242 2.513 . S
O251 C246 1.246 . S
O252 Tb242 2.453 . S
O252 C248 1.245 . S
O253 Tb240 2.343 . S
O253 Tb242 2.596 . S
O253 C248 1.259 . S
O254 Tb242 2.374 . S
O254 C249 1.250 . S
O255 Tb240 2.353 . S
O255 C249 1.263 . S
C256 O257 1.275 . S
C256 O258 1.246 . S
O257 Tb240 2.427 . S
O257 C256 1.275 . S
O258 Tb240 2.513 . S
O258 C256 1.246 . S
C259 O243 1.245 . S
C259 O244 1.259 . S
Tb260 O263 2.453 . S
Tb260 O264 2.596 . S
Tb260 O265 2.374 . S
Tb260 O273 2.343 . S
Tb260 O275 2.353 . S
Tb260 O277 2.427 . S
Tb260 O278 2.513 . S
C261 O265 1.251 . S
C261 O267 1.263 . S
Tb262 O264 2.343 . S
Tb262 O267 2.353 . S
Tb262 O270 2.427 . S
Tb262 O271 2.513 . S
Tb262 O272 2.453 . S
Tb262 O273 2.596 . S
Tb262 O274 2.374 . S
O263 Tb260 2.453 . S
O263 C279 1.245 . S
O264 Tb260 2.596 . S
O264 Tb262 2.343 . S
O264 C279 1.259 . S
O265 Tb260 2.374 . S
O265 C261 1.251 . S
C266 O270 1.275 . S
C266 O271 1.246 . S
O267 C261 1.263 . S
O267 Tb262 2.353 . S
C268 O272 1.245 . S
C268 O273 1.259 . S
C269 O274 1.250 . S
C269 O275 1.263 . S
O270 Tb262 2.427 . S
O270 C266 1.275 . S
O271 Tb262 2.513 . S
O271 C266 1.246 . S
O272 Tb262 2.453 . S
O272 C268 1.245 . S
O273 Tb260 2.343 . S
O273 Tb262 2.596 . S
O273 C268 1.259 . S
O274 Tb262 2.374 . S
O274 C269 1.250 . S
O275 Tb260 2.353 . S
O275 C269 1.263 . S
C276 O277 1.275 . S
C276 O278 1.246 . S
O277 Tb260 2.427 . S
O277 C276 1.275 . S
O278 Tb260 2.513 . S
O278 C276 1.246 . S
C279 O263 1.245 . S
C279 O264 1.259 . S
Tb280 O283 2.453 . S
Tb280 O284 2.596 . S
Tb280 O285 2.374 . S
Tb280 O293 2.343 . S
Tb280 O295 2.353 . S
Tb280 O297 2.427 . S
Tb280 O298 2.513 . S
C281 O285 1.251 . S
C281 O287 1.263 . S
Tb282 O284 2.343 . S
Tb282 O287 2.353 . S
Tb282 O290 2.427 . S
Tb282 O291 2.513 . S
Tb282 O292 2.453 . S
Tb282 O293 2.596 . S
Tb282 O294 2.374 . S
O283 Tb280 2.453 . S
O283 C299 1.245 . S
O284 Tb280 2.596 . S
O284 Tb282 2.343 . S
O284 C299 1.259 . S
O285 Tb280 2.374 . S
O285 C281 1.251 . S
C286 O290 1.275 . S
C286 O291 1.246 . S
O287 C281 1.263 . S
O287 Tb282 2.353 . S
C288 O292 1.245 . S
C288 O293 1.259 . S
C289 O294 1.250 . S
C289 O295 1.263 . S
O290 Tb282 2.427 . S
O290 C286 1.275 . S
O291 Tb282 2.513 . S
O291 C286 1.246 . S
O292 Tb282 2.453 . S
O292 C288 1.245 . S
O293 Tb280 2.343 . S
O293 Tb282 2.596 . S
O293 C288 1.259 . S
O294 Tb282 2.374 . S
O294 C289 1.250 . S
O295 Tb280 2.353 . S
O295 C289 1.263 . S
C296 O297 1.275 . S
C296 O298 1.246 . S
O297 Tb280 2.427 . S
O297 C296 1.275 . S
O298 Tb280 2.513 . S
O298 C296 1.246 . S
C299 O283 1.245 . S
C299 O284 1.259 . S
Tb300 O303 2.453 . S
Tb300 O304 2.596 . S
Tb300 O305 2.374 . S
Tb300 O313 2.343 . S
Tb300 O315 2.353 . S
Tb300 O317 2.427 1_655 S
Tb300 O318 2.513 . S
C301 O305 1.251 . S
C301 O307 1.263 . S
Tb302 O304 2.343 . S
Tb302 O307 2.353 . S
Tb302 O310 2.427 . S
Tb302 O311 2.513 . S
Tb302 O312 2.453 . S
Tb302 O313 2.596 . S
Tb302 O314 2.374 . S
O303 Tb300 2.453 . S
O303 C319 1.245 . S
O304 Tb300 2.596 . S
O304 Tb302 2.343 . S
O304 C319 1.259 . S
O305 Tb300 2.374 . S
O305 C301 1.251 . S
C306 O310 1.275 . S
C306 O311 1.246 . S
O307 C301 1.263 . S
O307 Tb302 2.353 . S
C308 O312 1.245 . S
C308 O313 1.259 . S
C309 O314 1.250 . S
C309 O315 1.263 . S
O310 Tb302 2.427 . S
O310 C306 1.275 . S
O311 Tb302 2.513 . S
O311 C306 1.246 . S
O312 Tb302 2.453 . S
O312 C308 1.245 . S
O313 Tb300 2.343 . S
O313 Tb302 2.596 . S
O313 C308 1.259 . S
O314 Tb302 2.374 . S
O314 C309 1.250 . S
O315 Tb300 2.353 . S
O315 C309 1.263 . S
C316 O317 1.275 . S
C316 O318 1.246 1_455 S
O317 Tb300 2.427 1_455 S
O317 C316 1.275 . S
O318 Tb300 2.513 . S
O318 C316 1.246 1_655 S
C319 O303 1.245 . S
C319 O304 1.259 . S
Tb320 O323 2.453 . S
Tb320 O324 2.596 . S
Tb320 O325 2.374 . S
Tb320 O333 2.343 . S
Tb320 O335 2.353 . S
Tb320 O337 2.427 . S
Tb320 O338 2.513 . S
C321 O325 1.251 . S
C321 O327 1.263 . S
Tb322 O324 2.343 . S
Tb322 O327 2.353 . S
Tb322 O330 2.427 . S
Tb322 O331 2.513 . S
Tb322 O332 2.453 . S
Tb322 O333 2.596 . S
Tb322 O334 2.374 . S
O323 Tb320 2.453 . S
O323 C339 1.245 . S
O324 Tb320 2.596 . S
O324 Tb322 2.343 . S
O324 C339 1.259 . S
O325 Tb320 2.374 . S
O325 C321 1.251 . S
C326 O330 1.275 . S
C326 O331 1.246 . S
O327 C321 1.263 . S
O327 Tb322 2.353 . S
C328 O332 1.245 . S
C328 O333 1.259 . S
C329 O334 1.250 . S
C329 O335 1.263 . S
O330 Tb322 2.427 . S
O330 C326 1.275 . S
O331 Tb322 2.513 . S
O331 C326 1.246 . S
O332 Tb322 2.453 . S
O332 C328 1.245 . S
O333 Tb320 2.343 . S
O333 Tb322 2.596 . S
O333 C328 1.259 . S
O334 Tb322 2.374 . S
O334 C329 1.250 . S
O335 Tb320 2.353 . S
O335 C329 1.263 . S
C336 O337 1.275 . S
C336 O338 1.246 . S
O337 Tb320 2.427 . S
O337 C336 1.275 . S
O338 Tb320 2.513 . S
O338 C336 1.246 . S
C339 O323 1.245 . S
C339 O324 1.259 . S
Tb340 O343 2.453 . S
Tb340 O344 2.596 . S
Tb340 O345 2.374 . S
Tb340 O353 2.343 . S
Tb340 O355 2.353 . S
Tb340 O357 2.427 1_545 S
Tb340 O358 2.513 . S
C341 O345 1.251 . S
C341 O347 1.263 . S
Tb342 O344 2.343 . S
Tb342 O347 2.353 . S
Tb342 O350 2.427 . S
Tb342 O351 2.513 . S
Tb342 O352 2.453 . S
Tb342 O353 2.596 . S
Tb342 O354 2.374 . S
O343 Tb340 2.453 . S
O343 C359 1.245 . S
O344 Tb340 2.596 . S
O344 Tb342 2.343 . S
O344 C359 1.259 . S
O345 Tb340 2.374 . S
O345 C341 1.251 . S
C346 O350 1.275 . S
C346 O351 1.246 . S
O347 C341 1.263 . S
O347 Tb342 2.353 . S
C348 O352 1.245 . S
C348 O353 1.259 . S
C349 O354 1.250 . S
C349 O355 1.263 . S
O350 Tb342 2.427 . S
O350 C346 1.275 . S
O351 Tb342 2.513 . S
O351 C346 1.246 . S
O352 Tb342 2.453 . S
O352 C348 1.245 . S
O353 Tb340 2.343 . S
O353 Tb342 2.596 . S
O353 C348 1.259 . S
O354 Tb342 2.374 . S
O354 C349 1.250 . S
O355 Tb340 2.353 . S
O355 C349 1.263 . S
C356 O357 1.275 . S
C356 O358 1.246 1_565 S
O357 Tb340 2.427 1_565 S
O357 C356 1.275 . S
O358 Tb340 2.513 . S
O358 C356 1.246 1_545 S
C359 O343 1.245 . S
C359 O344 1.259 . S
Tb360 O363 2.453 . S
Tb360 O364 2.596 . S
Tb360 O365 2.374 . S
Tb360 O373 2.343 . S
Tb360 O375 2.353 . S
Tb360 O377 2.427 . S
Tb360 O378 2.513 . S
C361 O365 1.251 . S
C361 O367 1.263 . S
Tb362 O364 2.343 . S
Tb362 O367 2.353 . S
Tb362 O370 2.427 1_545 S
Tb362 O371 2.513 . S
Tb362 O372 2.453 . S
Tb362 O373 2.596 . S
Tb362 O374 2.374 . S
O363 Tb360 2.453 . S
O363 C379 1.245 . S
O364 Tb360 2.596 . S
O364 Tb362 2.343 . S
O364 C379 1.259 . S
O365 Tb360 2.374 . S
O365 C361 1.251 . S
C366 O370 1.275 . S
C366 O371 1.246 1_565 S
O367 C361 1.263 . S
O367 Tb362 2.353 . S
C368 O372 1.245 . S
C368 O373 1.259 . S
C369 O374 1.250 . S
C369 O375 1.263 . S
O370 Tb362 2.427 1_565 S
O370 C366 1.275 . S
O371 Tb362 2.513 . S
O371 C366 1.246 1_545 S
O372 Tb362 2.453 . S
O372 C368 1.245 . S
O373 Tb360 2.343 . S
O373 Tb362 2.596 . S
O373 C368 1.259 . S
O374 Tb362 2.374 . S
O374 C369 1.250 . S
O375 Tb360 2.353 . S
O375 C369 1.263 . S
C376 O377 1.275 . S
C376 O378 1.246 . S
O377 Tb360 2.427 . S
O377 C376 1.275 . S
O378 Tb360 2.513 . S
O378 C376 1.246 . S
C379 O363 1.245 . S
C379 O364 1.259 . S
Tb380 O383 2.453 . S
Tb380 O384 2.596 . S
Tb380 O385 2.374 . S
Tb380 O393 2.343 . S
Tb380 O395 2.353 . S
Tb380 O397 2.427 . S
Tb380 O398 2.513 . S
C381 O385 1.251 . S
C381 O387 1.263 . S
Tb382 O384 2.343 . S
Tb382 O387 2.353 . S
Tb382 O390 2.427 1_655 S
Tb382 O391 2.513 . S
Tb382 O392 2.453 . S
Tb382 O393 2.596 . S
Tb382 O394 2.374 . S
O383 Tb380 2.453 . S
O383 C399 1.245 . S
O384 Tb380 2.596 . S
O384 Tb382 2.343 . S
O384 C399 1.259 . S
O385 Tb380 2.374 . S
O385 C381 1.251 . S
C386 O390 1.275 . S
C386 O391 1.246 1_455 S
O387 C381 1.263 . S
O387 Tb382 2.353 . S
C388 O392 1.245 . S
C388 O393 1.259 . S
C389 O394 1.250 . S
C389 O395 1.263 . S
O390 Tb382 2.427 1_455 S
O390 C386 1.275 . S
O391 Tb382 2.513 . S
O391 C386 1.246 1_655 S
O392 Tb382 2.453 . S
O392 C388 1.245 . S
O393 Tb380 2.343 . S
O393 Tb382 2.596 . S
O393 C388 1.259 . S
O394 Tb382 2.374 . S
O394 C389 1.250 . S
O395 Tb380 2.353 . S
O395 C389 1.263 . S
C396 O397 1.275 . S
C396 O398 1.246 . S
O397 Tb380 2.427 . S
O397 C396 1.275 . S
O398 Tb380 2.513 . S
O398 C396 1.246 . S
C399 O383 1.245 . S
C399 O384 1.259 . S
Tb400 O403 2.453 . S
Tb400 O404 2.596 . S
Tb400 O405 2.374 . S
Tb400 O413 2.343 . S
Tb400 O415 2.353 . S
Tb400 O417 2.427 . S
Tb400 O418 2.513 . S
C401 O405 1.251 . S
C401 O407 1.263 . S
Tb402 O404 2.343 . S
Tb402 O407 2.353 . S
Tb402 O410 2.427 . S
Tb402 O411 2.513 . S
Tb402 O412 2.453 . S
Tb402 O413 2.596 . S
Tb402 O414 2.374 . S
O403 Tb400 2.453 . S
O403 C419 1.245 . S
O404 Tb400 2.596 . S
O404 Tb402 2.343 . S
O404 C419 1.259 . S
O405 Tb400 2.374 . S
O405 C401 1.251 . S
C406 O410 1.275 . S
C406 O411 1.246 . S
O407 C401 1.263 . S
O407 Tb402 2.353 . S
C408 O412 1.245 . S
C408 O413 1.259 . S
C409 O414 1.250 . S
C409 O415 1.263 . S
O410 Tb402 2.427 . S
O410 C406 1.275 . S
O411 Tb402 2.513 . S
O411 C406 1.246 . S
O412 Tb402 2.453 . S
O412 C408 1.245 . S
O413 Tb400 2.343 . S
O413 Tb402 2.596 . S
O413 C408 1.259 . S
O414 Tb402 2.374 . S
O414 C409 1.250 . S
O415 Tb400 2.353 . S
O415 C409 1.263 . S
C416 O417 1.275 . S
C416 O418 1.246 . S
O417 Tb400 2.427 . S
O417 C416 1.275 . S
O418 Tb400 2.513 . S
O418 C416 1.246 . S
C419 O403 1.245 . S
C419 O404 1.259 . S
Tb420 O423 2.453 . S
Tb420 O424 2.596 . S
Tb420 O425 2.374 . S
Tb420 O433 2.343 1_556 S
Tb420 O435 2.353 . S
Tb420 O437 2.427 . S
Tb420 O438 2.513 . S
C421 O425 1.251 . S
C421 O427 1.263 1_556 S
Tb422 O424 2.343 1_554 S
Tb422 O427 2.353 . S
Tb422 O430 2.427 . S
Tb422 O431 2.513 . S
Tb422 O432 2.453 . S
Tb422 O433 2.596 . S
Tb422 O434 2.374 . S
O423 Tb420 2.453 . S
O423 C439 1.245 . S
O424 Tb420 2.596 . S
O424 Tb422 2.343 1_556 S
O424 C439 1.259 . S
O425 Tb420 2.374 . S
O425 C421 1.251 . S
C426 O430 1.280 . S
C426 O431 1.247 . S
O427 C421 1.263 1_554 S
O427 Tb422 2.353 . S
C428 O432 1.245 . S
C428 O433 1.259 . S
C429 O434 1.250 . S
C429 O435 1.263 1_554 S
O430 Tb422 2.427 . S
O430 C426 1.280 . S
O431 Tb422 2.513 . S
O431 C426 1.247 . S
O432 Tb422 2.453 . S
O432 C428 1.245 . S
O433 Tb420 2.343 1_554 S
O433 Tb422 2.596 . S
O433 C428 1.259 . S
O434 Tb422 2.374 . S
O434 C429 1.250 . S
O435 Tb420 2.353 . S
O435 C429 1.263 1_556 S
C436 O437 1.283 . S
C436 O438 1.247 . S
O437 Tb420 2.427 . S
O437 C436 1.283 . S
O438 Tb420 2.513 . S
O438 C436 1.247 . S
C439 O423 1.245 . S
C439 O424 1.259 . S
Tb440 O443 2.453 . S
Tb440 O444 2.596 . S
Tb440 O445 2.374 . S
Tb440 O453 2.343 1_556 S
Tb440 O455 2.353 . S
Tb440 O457 2.427 . S
Tb440 O458 2.513 . S
C441 O445 1.251 . S
C441 O447 1.263 1_556 S
Tb442 O444 2.343 1_554 S
Tb442 O447 2.353 . S
Tb442 O450 2.427 . S
Tb442 O451 2.513 . S
Tb442 O452 2.453 . S
Tb442 O453 2.596 . S
Tb442 O454 2.374 . S
O443 Tb440 2.453 . S
O443 C459 1.245 . S
O444 Tb440 2.596 . S
O444 Tb442 2.343 1_556 S
O444 C459 1.259 . S
O445 Tb440 2.374 . S
O445 C441 1.251 . S
C446 O450 1.280 . S
C446 O451 1.247 . S
O447 C441 1.263 1_554 S
O447 Tb442 2.353 . S
C448 O452 1.245 . S
C448 O453 1.259 . S
C449 O454 1.250 . S
C449 O455 1.263 1_554 S
O450 Tb442 2.427 . S
O450 C446 1.280 . S
O451 Tb442 2.513 . S
O451 C446 1.247 . S
O452 Tb442 2.453 . S
O452 C448 1.245 . S
O453 Tb440 2.343 1_554 S
O453 Tb442 2.596 . S
O453 C448 1.259 . S
O454 Tb442 2.374 . S
O454 C449 1.250 . S
O455 Tb440 2.353 . S
O455 C449 1.263 1_556 S
C456 O457 1.283 . S
C456 O458 1.247 . S
O457 Tb440 2.427 . S
O457 C456 1.283 . S
O458 Tb440 2.513 . S
O458 C456 1.247 . S
C459 O443 1.245 . S
C459 O444 1.259 . S
Tb460 O463 2.453 . S
Tb460 O464 2.596 . S
Tb460 O465 2.374 . S
Tb460 O473 2.343 1_556 S
Tb460 O475 2.353 . S
Tb460 O477 2.427 . S
Tb460 O478 2.513 . S
C461 O465 1.251 . S
C461 O467 1.263 1_556 S
Tb462 O464 2.343 1_554 S
Tb462 O467 2.353 . S
Tb462 O470 2.427 . S
Tb462 O471 2.513 . S
Tb462 O472 2.453 . S
Tb462 O473 2.596 . S
Tb462 O474 2.374 . S
O463 Tb460 2.453 . S
O463 C479 1.245 . S
O464 Tb460 2.596 . S
O464 Tb462 2.343 1_556 S
O464 C479 1.259 . S
O465 Tb460 2.374 . S
O465 C461 1.251 . S
C466 O470 1.280 . S
C466 O471 1.247 . S
O467 C461 1.263 1_554 S
O467 Tb462 2.353 . S
C468 O472 1.245 . S
C468 O473 1.259 . S
C469 O474 1.250 . S
C469 O475 1.263 1_554 S
O470 Tb462 2.427 . S
O470 C466 1.280 . S
O471 Tb462 2.513 . S
O471 C466 1.247 . S
O472 Tb462 2.453 . S
O472 C468 1.245 . S
O473 Tb460 2.343 1_554 S
O473 Tb462 2.596 . S
O473 C468 1.259 . S
O474 Tb462 2.374 . S
O474 C469 1.250 . S
O475 Tb460 2.353 . S
O475 C469 1.263 1_556 S
C476 O477 1.283 . S
C476 O478 1.247 . S
O477 Tb460 2.427 . S
O477 C476 1.283 . S
O478 Tb460 2.513 . S
O478 C476 1.247 . S
C479 O463 1.245 . S
C479 O464 1.259 . S
Tb480 O483 2.453 . S
Tb480 O484 2.596 . S
Tb480 O485 2.374 . S
Tb480 O493 2.343 . S
Tb480 O495 2.353 . S
Tb480 O497 2.427 1_565 S
Tb480 O498 2.513 . S
C481 O485 1.251 . S
C481 O487 1.263 . S
Tb482 O484 2.343 . S
Tb482 O487 2.353 . S
Tb482 O490 2.427 . S
Tb482 O491 2.513 . S
Tb482 O492 2.453 . S
Tb482 O493 2.596 . S
Tb482 O494 2.374 . S
O483 Tb480 2.453 . S
O483 C499 1.245 . S
O484 Tb480 2.596 . S
O484 Tb482 2.343 . S
O484 C499 1.259 . S
O485 Tb480 2.374 . S
O485 C481 1.251 . S
C486 O490 1.275 . S
C486 O491 1.246 . S
O487 C481 1.263 . S
O487 Tb482 2.353 . S
C488 O492 1.245 . S
C488 O493 1.259 . S
C489 O494 1.250 . S
C489 O495 1.263 . S
O490 Tb482 2.427 . S
O490 C486 1.275 . S
O491 Tb482 2.513 . S
O491 C486 1.246 . S
O492 Tb482 2.453 . S
O492 C488 1.245 . S
O493 Tb480 2.343 . S
O493 Tb482 2.596 . S
O493 C488 1.259 . S
O494 Tb482 2.374 . S
O494 C489 1.250 . S
O495 Tb480 2.353 . S
O495 C489 1.263 . S
C496 O497 1.275 . S
C496 O498 1.246 1_545 S
O497 Tb480 2.427 1_545 S
O497 C496 1.275 . S
O498 Tb480 2.513 . S
O498 C496 1.246 1_565 S
C499 O483 1.245 . S
C499 O484 1.259 . S
Tb500 O503 2.453 . S
Tb500 O504 2.596 . S
Tb500 O505 2.374 . S
Tb500 O513 2.343 . S
Tb500 O515 2.353 . S
Tb500 O517 2.427 1_455 S
Tb500 O518 2.513 . S
C501 O505 1.251 . S
C501 O507 1.263 . S
Tb502 O504 2.343 . S
Tb502 O507 2.353 . S
Tb502 O510 2.427 . S
Tb502 O511 2.513 . S
Tb502 O512 2.453 . S
Tb502 O513 2.596 . S
Tb502 O514 2.374 . S
O503 Tb500 2.453 . S
O503 C519 1.245 . S
O504 Tb500 2.596 . S
O504 Tb502 2.343 . S
O504 C519 1.259 . S
O505 Tb500 2.374 . S
O505 C501 1.251 . S
C506 O510 1.275 . S
C506 O511 1.246 . S
O507 C501 1.263 . S
O507 Tb502 2.353 . S
C508 O512 1.245 . S
C508 O513 1.259 . S
C509 O514 1.250 . S
C509 O515 1.263 . S
O510 Tb502 2.427 . S
O510 C506 1.275 . S
O511 Tb502 2.513 . S
O511 C506 1.246 . S
O512 Tb502 2.453 . S
O512 C508 1.245 . S
O513 Tb500 2.343 . S
O513 Tb502 2.596 . S
O513 C508 1.259 . S
O514 Tb502 2.374 . S
O514 C509 1.250 . S
O515 Tb500 2.353 . S
O515 C509 1.263 . S
C516 O517 1.275 . S
C516 O518 1.246 1_655 S
O517 Tb500 2.427 1_655 S
O517 C516 1.275 . S
O518 Tb500 2.513 . S
O518 C516 1.246 1_455 S
C519 O503 1.245 . S
C519 O504 1.259 . S
Tb520 O523 2.453 . S
Tb520 O524 2.596 . S
Tb520 O525 2.374 . S
Tb520 O533 2.343 . S
Tb520 O535 2.353 . S
Tb520 O537 2.427 . S
Tb520 O538 2.513 . S
C521 O525 1.251 . S
C521 O527 1.263 . S
Tb522 O524 2.343 . S
Tb522 O527 2.353 . S
Tb522 O530 2.427 . S
Tb522 O531 2.513 . S
Tb522 O532 2.453 . S
Tb522 O533 2.596 . S
Tb522 O534 2.374 . S
O523 Tb520 2.453 . S
O523 C539 1.245 . S
O524 Tb520 2.596 . S
O524 Tb522 2.343 . S
O524 C539 1.259 . S
O525 Tb520 2.374 . S
O525 C521 1.251 . S
C526 O530 1.275 . S
C526 O531 1.246 . S
O527 C521 1.263 . S
O527 Tb522 2.353 . S
C528 O532 1.245 . S
C528 O533 1.259 . S
C529 O534 1.250 . S
C529 O535 1.263 . S
O530 Tb522 2.427 . S
O530 C526 1.275 . S
O531 Tb522 2.513 . S
O531 C526 1.246 . S
O532 Tb522 2.453 . S
O532 C528 1.245 . S
O533 Tb520 2.343 . S
O533 Tb522 2.596 . S
O533 C528 1.259 . S
O534 Tb522 2.374 . S
O534 C529 1.250 . S
O535 Tb520 2.353 . S
O535 C529 1.263 . S
C536 O537 1.275 . S
C536 O538 1.246 . S
O537 Tb520 2.427 . S
O537 C536 1.275 . S
O538 Tb520 2.513 . S
O538 C536 1.246 . S
C539 O523 1.245 . S
C539 O524 1.259 . S
Tb540 O543 2.453 . S
Tb540 O544 2.596 . S
Tb540 O545 2.374 . S
Tb540 O553 2.343 1_556 S
Tb540 O555 2.353 . S
Tb540 O557 2.427 . S
Tb540 O558 2.513 . S
C541 O545 1.251 . S
C541 O547 1.263 1_556 S
Tb542 O544 2.343 1_554 S
Tb542 O547 2.353 . S
Tb542 O550 2.427 . S
Tb542 O551 2.513 . S
Tb542 O552 2.453 . S
Tb542 O553 2.596 . S
Tb542 O554 2.374 . S
O543 Tb540 2.453 . S
O543 C559 1.245 . S
O544 Tb540 2.596 . S
O544 Tb542 2.343 1_556 S
O544 C559 1.259 . S
O545 Tb540 2.374 . S
O545 C541 1.251 . S
C546 O550 1.283 . S
C546 O551 1.247 . S
O547 C541 1.263 1_554 S
O547 Tb542 2.353 . S
C548 O552 1.245 . S
C548 O553 1.259 . S
C549 O554 1.250 . S
C549 O555 1.263 1_554 S
O550 Tb542 2.427 . S
O550 C546 1.283 . S
O551 Tb542 2.513 . S
O551 C546 1.247 . S
O552 Tb542 2.453 . S
O552 C548 1.245 . S
O553 Tb540 2.343 1_554 S
O553 Tb542 2.596 . S
O553 C548 1.259 . S
O554 Tb542 2.374 . S
O554 C549 1.250 . S
O555 Tb540 2.353 . S
O555 C549 1.263 1_556 S
C556 O557 1.280 . S
C556 O558 1.247 . S
O557 Tb540 2.427 . S
O557 C556 1.280 . S
O558 Tb540 2.513 . S
O558 C556 1.247 . S
C559 O543 1.245 . S
C559 O544 1.259 . S
Tb560 O563 2.453 . S
Tb560 O564 2.596 . S
Tb560 O565 2.374 . S
Tb560 O573 2.343 1_556 S
Tb560 O575 2.353 . S
Tb560 O577 2.427 . S
Tb560 O578 2.513 . S
C561 O565 1.251 . S
C561 O567 1.263 1_556 S
Tb562 O564 2.343 1_554 S
Tb562 O567 2.353 . S
Tb562 O570 2.427 . S
Tb562 O571 2.513 . S
Tb562 O572 2.453 . S
Tb562 O573 2.596 . S
Tb562 O574 2.374 . S
O563 Tb560 2.453 . S
O563 C579 1.245 . S
O564 Tb560 2.596 . S
O564 Tb562 2.343 1_556 S
O564 C579 1.259 . S
O565 Tb560 2.374 . S
O565 C561 1.251 . S
C566 O570 1.283 . S
C566 O571 1.247 . S
O567 C561 1.263 1_554 S
O567 Tb562 2.353 . S
C568 O572 1.245 . S
C568 O573 1.259 . S
C569 O574 1.250 . S
C569 O575 1.263 1_554 S
O570 Tb562 2.427 . S
O570 C566 1.283 . S
O571 Tb562 2.513 . S
O571 C566 1.247 . S
O572 Tb562 2.453 . S
O572 C568 1.245 . S
O573 Tb560 2.343 1_554 S
O573 Tb562 2.596 . S
O573 C568 1.259 . S
O574 Tb562 2.374 . S
O574 C569 1.250 . S
O575 Tb560 2.353 . S
O575 C569 1.263 1_556 S
C576 O577 1.280 . S
C576 O578 1.247 . S
O577 Tb560 2.427 . S
O577 C576 1.280 . S
O578 Tb560 2.513 . S
O578 C576 1.247 . S
C579 O563 1.245 . S
C579 O564 1.259 . S
Tb580 O583 2.453 . S
Tb580 O584 2.596 . S
Tb580 O585 2.374 . S
Tb580 O593 2.343 1_556 S
Tb580 O595 2.353 . S
Tb580 O597 2.427 . S
Tb580 O598 2.513 . S
C581 O585 1.251 . S
C581 O587 1.263 1_556 S
Tb582 O584 2.343 1_554 S
Tb582 O587 2.353 . S
Tb582 O590 2.427 . S
Tb582 O591 2.513 . S
Tb582 O592 2.453 . S
Tb582 O593 2.596 . S
Tb582 O594 2.374 . S
O583 Tb580 2.453 . S
O583 C599 1.245 . S
O584 Tb580 2.596 . S
O584 Tb582 2.343 1_556 S
O584 C599 1.259 . S
O585 Tb580 2.374 . S
O585 C581 1.251 . S
C586 O590 1.283 . S
C586 O591 1.247 . S
O587 C581 1.263 1_554 S
O587 Tb582 2.353 . S
C588 O592 1.245 . S
C588 O593 1.259 . S
C589 O594 1.250 . S
C589 O595 1.263 1_554 S
O590 Tb582 2.427 . S
O590 C586 1.283 . S
O591 Tb582 2.513 . S
O591 C586 1.247 . S
O592 Tb582 2.453 . S
O592 C588 1.245 . S
O593 Tb580 2.343 1_554 S
O593 Tb582 2.596 . S
O593 C588 1.259 . S
O594 Tb582 2.374 . S
O594 C589 1.250 . S
O595 Tb580 2.353 . S
O595 C589 1.263 1_556 S
C596 O597 1.280 . S
C596 O598 1.247 . S
O597 Tb580 2.427 . S
O597 C596 1.280 . S
O598 Tb580 2.513 . S
O598 C596 1.247 . S
C599 O583 1.245 . S
C599 O584 1.259 . S
Tb600 O603 2.453 . S
Tb600 O604 2.596 . S
Tb600 O605 2.374 . S
Tb600 O613 2.343 . S
Tb600 O615 2.353 . S
Tb600 O617 2.427 . S
Tb600 O618 2.513 . S
C601 O605 1.251 . S
C601 O607 1.263 . S
Tb602 O604 2.343 . S
Tb602 O607 2.353 . S
Tb602 O610 2.427 . S
Tb602 O611 2.513 . S
Tb602 O612 2.453 . S
Tb602 O613 2.596 . S
Tb602 O614 2.374 . S
O603 Tb600 2.453 . S
O603 C619 1.245 . S
O604 Tb600 2.596 . S
O604 Tb602 2.343 . S
O604 C619 1.259 . S
O605 Tb600 2.374 . S
O605 C601 1.251 . S
C606 O610 1.275 . S
C606 O611 1.246 . S
O607 C601 1.263 . S
O607 Tb602 2.353 . S
C608 O612 1.245 . S
C608 O613 1.259 . S
C609 O614 1.250 . S
C609 O615 1.263 . S
O610 Tb602 2.427 . S
O610 C606 1.275 . S
O611 Tb602 2.513 . S
O611 C606 1.246 . S
O612 Tb602 2.453 . S
O612 C608 1.245 . S
O613 Tb600 2.343 . S
O613 Tb602 2.596 . S
O613 C608 1.259 . S
O614 Tb602 2.374 . S
O614 C609 1.250 . S
O615 Tb600 2.353 . S
O615 C609 1.263 . S
C616 O617 1.275 . S
C616 O618 1.246 . S
O617 Tb600 2.427 . S
O617 C616 1.275 . S
O618 Tb600 2.513 . S
O618 C616 1.246 . S
C619 O603 1.245 . S
C619 O604 1.259 . S
Tb620 O623 2.453 . S
Tb620 O624 2.596 . S
Tb620 O625 2.374 . S
Tb620 O633 2.343 . S
Tb620 O635 2.353 . S
Tb620 O637 2.427 . S
Tb620 O638 2.513 . S
C621 O625 1.251 . S
C621 O627 1.263 . S
Tb622 O624 2.343 . S
Tb622 O627 2.353 . S
Tb622 O630 2.427 . S
Tb622 O631 2.513 . S
Tb622 O632 2.453 . S
Tb622 O633 2.596 . S
Tb622 O634 2.374 . S
O623 Tb620 2.453 . S
O623 C639 1.245 . S
O624 Tb620 2.596 . S
O624 Tb622 2.343 . S
O624 C639 1.259 . S
O625 Tb620 2.374 . S
O625 C621 1.251 . S
C626 O630 1.275 . S
C626 O631 1.246 . S
O627 C621 1.263 . S
O627 Tb622 2.353 . S
C628 O632 1.245 . S
C628 O633 1.259 . S
C629 O634 1.250 . S
C629 O635 1.263 . S
O630 Tb622 2.427 . S
O630 C626 1.275 . S
O631 Tb622 2.513 . S
O631 C626 1.246 . S
O632 Tb622 2.453 . S
O632 C628 1.245 . S
O633 Tb620 2.343 . S
O633 Tb622 2.596 . S
O633 C628 1.259 . S
O634 Tb622 2.374 . S
O634 C629 1.250 . S
O635 Tb620 2.353 . S
O635 C629 1.263 . S
C636 O637 1.275 . S
C636 O638 1.246 . S
O637 Tb620 2.427 . S
O637 C636 1.275 . S
O638 Tb620 2.513 . S
O638 C636 1.246 . S
C639 O623 1.245 . S
C639 O624 1.259 . S
Tb640 O643 2.453 . S
Tb640 O644 2.596 . S
Tb640 O645 2.374 . S
Tb640 O653 2.343 . S
Tb640 O655 2.353 . S
Tb640 O657 2.427 . S
Tb640 O658 2.513 . S
C641 O645 1.251 . S
C641 O647 1.263 . S
Tb642 O644 2.343 . S
Tb642 O647 2.353 . S
Tb642 O650 2.427 . S
Tb642 O651 2.513 . S
Tb642 O652 2.453 . S
Tb642 O653 2.596 . S
Tb642 O654 2.374 . S
O643 Tb640 2.453 . S
O643 C659 1.245 . S
O644 Tb640 2.596 . S
O644 Tb642 2.343 . S
O644 C659 1.259 . S
O645 Tb640 2.374 . S
O645 C641 1.251 . S
C646 O650 1.275 . S
C646 O651 1.246 . S
O647 C641 1.263 . S
O647 Tb642 2.353 . S
C648 O652 1.245 . S
C648 O653 1.259 . S
C649 O654 1.250 . S
C649 O655 1.263 . S
O650 Tb642 2.427 . S
O650 C646 1.275 . S
O651 Tb642 2.513 . S
O651 C646 1.246 . S
O652 Tb642 2.453 . S
O652 C648 1.245 . S
O653 Tb640 2.343 . S
O653 Tb642 2.596 . S
O653 C648 1.259 . S
O654 Tb642 2.374 . S
O654 C649 1.250 . S
O655 Tb640 2.353 . S
O655 C649 1.263 . S
C656 O657 1.275 . S
C656 O658 1.246 . S
O657 Tb640 2.427 . S
O657 C656 1.275 . S
O658 Tb640 2.513 . S
O658 C656 1.246 . S
C659 O643 1.245 . S
C659 O644 1.259 . S
Tb660 O663 2.453 . S
Tb660 O664 2.596 . S
Tb660 O665 2.374 . S
Tb660 O673 2.343 . S
Tb660 O675 2.353 . S
Tb660 O677 2.427 . S
Tb660 O678 2.513 . S
C661 O665 1.251 . S
C661 O667 1.263 . S
Tb662 O664 2.343 . S
Tb662 O667 2.353 . S
Tb662 O670 2.427 1_455 S
Tb662 O671 2.513 . S
Tb662 O672 2.453 . S
Tb662 O673 2.596 . S
Tb662 O674 2.374 . S
O663 Tb660 2.453 . S
O663 C679 1.245 . S
O664 Tb660 2.596 . S
O664 Tb662 2.343 . S
O664 C679 1.259 . S
O665 Tb660 2.374 . S
O665 C661 1.251 . S
C666 O670 1.275 . S
C666 O671 1.246 1_655 S
O667 C661 1.263 . S
O667 Tb662 2.353 . S
C668 O672 1.245 . S
C668 O673 1.259 . S
C669 O674 1.250 . S
C669 O675 1.263 . S
O670 Tb662 2.427 1_655 S
O670 C666 1.275 . S
O671 Tb662 2.513 . S
O671 C666 1.246 1_455 S
O672 Tb662 2.453 . S
O672 C668 1.245 . S
O673 Tb660 2.343 . S
O673 Tb662 2.596 . S
O673 C668 1.259 . S
O674 Tb662 2.374 . S
O674 C669 1.250 . S
O675 Tb660 2.353 . S
O675 C669 1.263 . S
C676 O677 1.275 . S
C676 O678 1.246 . S
O677 Tb660 2.427 . S
O677 C676 1.275 . S
O678 Tb660 2.513 . S
O678 C676 1.246 . S
C679 O663 1.245 . S
C679 O664 1.259 . S
Tb680 O683 2.453 . S
Tb680 O684 2.596 . S
Tb680 O685 2.374 . S
Tb680 O693 2.343 . S
Tb680 O695 2.353 . S
Tb680 O697 2.427 . S
Tb680 O698 2.513 . S
C681 O685 1.251 . S
C681 O687 1.263 . S
Tb682 O684 2.343 . S
Tb682 O687 2.353 . S
Tb682 O690 2.427 . S
Tb682 O691 2.513 . S
Tb682 O692 2.453 . S
Tb682 O693 2.596 . S
Tb682 O694 2.374 . S
O683 Tb680 2.453 . S
O683 C699 1.245 . S
O684 Tb680 2.596 . S
O684 Tb682 2.343 . S
O684 C699 1.259 . S
O685 Tb680 2.374 . S
O685 C681 1.251 . S
C686 O690 1.275 . S
C686 O691 1.246 . S
O687 C681 1.263 . S
O687 Tb682 2.353 . S
C688 O692 1.245 . S
C688 O693 1.259 . S
C689 O694 1.250 . S
C689 O695 1.263 . S
O690 Tb682 2.427 . S
O690 C686 1.275 . S
O691 Tb682 2.513 . S
O691 C686 1.246 . S
O692 Tb682 2.453 . S
O692 C688 1.245 . S
O693 Tb680 2.343 . S
O693 Tb682 2.596 . S
O693 C688 1.259 . S
O694 Tb682 2.374 . S
O694 C689 1.250 . S
O695 Tb680 2.353 . S
O695 C689 1.263 . S
C696 O697 1.275 . S
C696 O698 1.246 . S
O697 Tb680 2.427 . S
O697 C696 1.275 . S
O698 Tb680 2.513 . S
O698 C696 1.246 . S
C699 O683 1.245 . S
C699 O684 1.259 . S
Tb700 O703 2.453 . S
Tb700 O704 2.596 . S
Tb700 O705 2.374 . S
Tb700 O713 2.343 . S
Tb700 O715 2.353 . S
Tb700 O717 2.427 . S
Tb700 O718 2.513 . S
C701 O705 1.251 . S
C701 O707 1.263 . S
Tb702 O704 2.343 . S
Tb702 O707 2.353 . S
Tb702 O710 2.427 1_565 S
Tb702 O711 2.513 . S
Tb702 O712 2.453 . S
Tb702 O713 2.596 . S
Tb702 O714 2.374 . S
O703 Tb700 2.453 . S
O703 C719 1.245 . S
O704 Tb700 2.596 . S
O704 Tb702 2.343 . S
O704 C719 1.259 . S
O705 Tb700 2.374 . S
O705 C701 1.251 . S
C706 O710 1.275 . S
C706 O711 1.246 1_545 S
O707 C701 1.263 . S
O707 Tb702 2.353 . S
C708 O712 1.245 . S
C708 O713 1.259 . S
C709 O714 1.250 . S
C709 O715 1.263 . S
O710 Tb702 2.427 1_545 S
O710 C706 1.275 . S
O711 Tb702 2.513 . S
O711 C706 1.246 1_565 S
O712 Tb702 2.453 . S
O712 C708 1.245 . S
O713 Tb700 2.343 . S
O713 Tb702 2.596 . S
O713 C708 1.259 . S
O714 Tb702 2.374 . S
O714 C709 1.250 . S
O715 Tb700 2.353 . S
O715 C709 1.263 . S
C716 O717 1.275 . S
C716 O718 1.246 . S
O717 Tb700 2.427 . S
O717 C716 1.275 . S
O718 Tb700 2.513 . S
O718 C716 1.246 . S
C719 O703 1.245 . S
C719 O704 1.259 . S
C720 C721 1.387 . S
C720 H724 0.950 . S
C720 C729 1.390 . S
C721 C720 1.387 . S
C721 C723 1.387 . S
H722 C729 0.950 . S
C723 C721 1.387 . S
C723 C725 1.390 . S
C723 H727 0.950 . S
H724 C720 0.950 . S
C725 C723 1.390 . S
C725 C726 1.387 . S
C725 H728 0.950 . S
C726 C725 1.387 . S
C726 C729 1.387 . S
H727 C723 0.950 . S
H728 C725 0.950 . S
C729 C720 1.390 . S
C729 H722 0.950 . S
C729 C726 1.387 . S
C730 C731 1.387 . S
C730 H734 0.950 . S
C730 C739 1.390 . S
C731 C730 1.387 . S
C731 C733 1.387 . S
H732 C739 0.950 . S
C733 C731 1.387 . S
C733 C735 1.390 . S
C733 H737 0.950 . S
H734 C730 0.950 . S
C735 C733 1.390 . S
C735 C736 1.387 . S
C735 H738 0.950 . S
C736 C735 1.387 . S
C736 C739 1.387 . S
H737 C733 0.950 . S
H738 C735 0.950 . S
C739 C730 1.390 . S
C739 H732 0.950 . S
C739 C736 1.387 . S
C740 C741 1.387 . S
C740 H744 0.950 . S
C740 C749 1.390 . S
C741 C740 1.387 . S
C741 C743 1.387 . S
H742 C749 0.950 . S
C743 C741 1.387 . S
C743 C745 1.390 . S
C743 H747 0.950 . S
H744 C740 0.950 . S
C745 C743 1.390 . S
C745 C746 1.387 . S
C745 H748 0.950 . S
C746 C745 1.387 . S
C746 C749 1.387 . S
H747 C743 0.950 . S
H748 C745 0.950 . S
C749 C740 1.390 . S
C749 H742 0.950 . S
C749 C746 1.387 . S
C750 C751 1.387 . S
C750 H754 0.950 . S
C750 C759 1.390 . S
C751 C750 1.387 . S
C751 C753 1.387 . S
H752 C759 0.950 . S
C753 C751 1.387 . S
C753 C755 1.390 . S
C753 H757 0.950 . S
H754 C750 0.950 . S
C755 C753 1.390 . S
C755 C756 1.387 . S
C755 H758 0.950 . S
C756 C755 1.387 . S
C756 C759 1.387 . S
H757 C753 0.950 . S
H758 C755 0.950 . S
C759 C750 1.390 . S
C759 H752 0.950 . S
C759 C756 1.387 . S
C760 C761 1.387 . S
C760 H764 0.950 . S
C760 C769 1.390 . S
C761 C760 1.387 . S
C761 C763 1.387 . S
H762 C769 0.950 . S
C763 C761 1.387 . S
C763 C765 1.390 . S
C763 H767 0.950 . S
H764 C760 0.950 . S
C765 C763 1.390 . S
C765 C766 1.387 . S
C765 H768 0.950 . S
C766 C765 1.387 . S
C766 C769 1.387 . S
H767 C763 0.950 . S
H768 C765 0.950 . S
C769 C760 1.390 . S
C769 H762 0.950 . S
C769 C766 1.387 . S
C770 C771 1.387 . S
C770 H774 0.950 . S
C770 C779 1.390 . S
C771 C770 1.387 . S
C771 C773 1.387 . S
H772 C779 0.950 . S
C773 C771 1.387 . S
C773 C775 1.390 . S
C773 H777 0.950 . S
H774 C770 0.950 . S
C775 C773 1.390 . S
C775 C776 1.387 . S
C775 H778 0.950 . S
C776 C775 1.387 . S
C776 C779 1.387 . S
H777 C773 0.950 . S
H778 C775 0.950 . S
C779 C770 1.390 . S
C779 H772 0.950 . S
C779 C776 1.387 . S
C780 C781 1.387 . S
C780 H784 0.950 . S
C780 C789 1.390 . S
C781 C780 1.387 . S
C781 C783 1.387 . S
H782 C789 0.950 . S
C783 C781 1.387 . S
C783 C785 1.390 . S
C783 H787 0.950 . S
H784 C780 0.950 . S
C785 C783 1.390 . S
C785 C786 1.387 . S
C785 H788 0.950 . S
C786 C785 1.387 . S
C786 C789 1.387 . S
H787 C783 0.950 . S
H788 C785 0.950 . S
C789 C780 1.390 . S
C789 H782 0.950 . S
C789 C786 1.387 . S
C790 C791 1.387 . S
C790 H794 0.950 . S
C790 C799 1.390 . S
C791 C790 1.387 . S
C791 C793 1.387 . S
H792 C799 0.950 . S
C793 C791 1.387 . S
C793 C795 1.390 . S
C793 H797 0.950 . S
H794 C790 0.950 . S
C795 C793 1.390 . S
C795 C796 1.387 . S
C795 H798 0.950 . S
C796 C795 1.387 . S
C796 C799 1.387 . S
H797 C793 0.950 . S
H798 C795 0.950 . S
C799 C790 1.390 . S
C799 H792 0.950 . S
C799 C796 1.387 . S
C800 C801 1.387 . S
C800 H804 0.950 . S
C800 C809 1.390 . S
C801 C800 1.387 . S
C801 C803 1.387 . S
H802 C809 0.950 . S
C803 C801 1.387 . S
C803 C805 1.390 . S
C803 H807 0.950 . S
H804 C800 0.950 . S
C805 C803 1.390 . S
C805 C806 1.387 . S
C805 H808 0.950 . S
C806 C805 1.387 . S
C806 C809 1.387 . S
H807 C803 0.950 . S
H808 C805 0.950 . S
C809 C800 1.390 . S
C809 H802 0.950 . S
C809 C806 1.387 . S
C810 C811 1.387 . S
C810 H814 0.950 . S
C810 C819 1.390 . S
C811 C810 1.387 . S
C811 C813 1.387 . S
H812 C819 0.950 . S
C813 C811 1.387 . S
C813 C815 1.390 . S
C813 H817 0.950 . S
H814 C810 0.950 . S
C815 C813 1.390 . S
C815 C816 1.387 . S
C815 H818 0.950 . S
C816 C815 1.387 . S
C816 C819 1.387 . S
H817 C813 0.950 . S
H818 C815 0.950 . S
C819 C810 1.390 . S
C819 H812 0.950 . S
C819 C816 1.387 . S
C820 C821 1.387 . S
C820 H824 0.950 . S
C820 C829 1.390 . S
C821 C820 1.387 . S
C821 C823 1.387 . S
H822 C829 0.950 . S
C823 C821 1.387 . S
C823 C825 1.390 . S
C823 H827 0.950 . S
H824 C820 0.950 . S
C825 C823 1.390 . S
C825 C826 1.387 . S
C825 H828 0.950 . S
C826 C825 1.387 . S
C826 C829 1.387 . S
H827 C823 0.950 . S
H828 C825 0.950 . S
C829 C820 1.390 . S
C829 H822 0.950 . S
C829 C826 1.387 . S
C830 C831 1.387 . S
C830 H834 0.950 . S
C830 C839 1.390 . S
C831 C830 1.387 . S
C831 C833 1.387 . S
H832 C839 0.950 . S
C833 C831 1.387 . S
C833 C835 1.390 . S
C833 H837 0.950 . S
H834 C830 0.950 . S
C835 C833 1.390 . S
C835 C836 1.387 . S
C835 H838 0.950 . S
C836 C835 1.387 . S
C836 C839 1.387 . S
H837 C833 0.950 . S
H838 C835 0.950 . S
C839 C830 1.390 . S
C839 H832 0.950 . S
C839 C836 1.387 . S
C840 C841 1.387 . S
C840 H844 0.950 . S
C840 C849 1.390 . S
C841 C840 1.387 . S
C841 C843 1.387 . S
H842 C849 0.950 . S
C843 C841 1.387 . S
C843 C845 1.390 . S
C843 H847 0.950 . S
H844 C840 0.950 . S
C845 C843 1.390 . S
C845 C846 1.387 . S
C845 H848 0.950 . S
C846 C845 1.387 . S
C846 C849 1.387 . S
H847 C843 0.950 . S
H848 C845 0.950 . S
C849 C840 1.390 . S
C849 H842 0.950 . S
C849 C846 1.387 . S
C850 C851 1.387 . S
C850 H854 0.950 . S
C850 C859 1.390 . S
C851 C850 1.387 . S
C851 C853 1.387 . S
H852 C859 0.950 . S
C853 C851 1.387 . S
C853 C855 1.390 . S
C853 H857 0.950 . S
H854 C850 0.950 . S
C855 C853 1.390 . S
C855 C856 1.387 . S
C855 H858 0.950 . S
C856 C855 1.387 . S
C856 C859 1.387 . S
H857 C853 0.950 . S
H858 C855 0.950 . S
C859 C850 1.390 . S
C859 H852 0.950 . S
C859 C856 1.387 . S
C860 C861 1.387 . S
C860 H864 0.950 . S
C860 C869 1.390 . S
C861 C860 1.387 . S
C861 C863 1.387 . S
H862 C869 0.950 . S
C863 C861 1.387 . S
C863 C865 1.390 . S
C863 H867 0.950 . S
H864 C860 0.950 . S
C865 C863 1.390 . S
C865 C866 1.387 . S
C865 H868 0.950 . S
C866 C865 1.387 . S
C866 C869 1.387 . S
H867 C863 0.950 . S
H868 C865 0.950 . S
C869 C860 1.390 . S
C869 H862 0.950 . S
C869 C866 1.387 . S
C870 C871 1.387 . S
C870 H874 0.950 . S
C870 C879 1.390 . S
C871 C870 1.387 . S
C871 C873 1.387 . S
H872 C879 0.950 . S
C873 C871 1.387 . S
C873 C875 1.390 . S
C873 H877 0.950 . S
H874 C870 0.950 . S
C875 C873 1.390 . S
C875 C876 1.387 . S
C875 H878 0.950 . S
C876 C875 1.387 . S
C876 C879 1.387 . S
H877 C873 0.950 . S
H878 C875 0.950 . S
C879 C870 1.390 . S
C879 H872 0.950 . S
C879 C876 1.387 . S
C880 C881 1.387 . S
C880 H884 0.950 . S
C880 C889 1.390 . S
C881 C880 1.387 . S
C881 C883 1.387 . S
H882 C889 0.950 . S
C883 C881 1.387 . S
C883 C885 1.390 . S
C883 H887 0.950 . S
H884 C880 0.950 . S
C885 C883 1.390 . S
C885 C886 1.387 . S
C885 H888 0.950 . S
C886 C885 1.387 . S
C886 C889 1.387 . S
H887 C883 0.950 . S
H888 C885 0.950 . S
C889 C880 1.390 . S
C889 H882 0.950 . S
C889 C886 1.387 . S
C890 C891 1.387 . S
C890 H894 0.950 . S
C890 C899 1.390 . S
C891 C890 1.387 . S
C891 C893 1.387 . S
H892 C899 0.950 . S
C893 C891 1.387 . S
C893 C895 1.390 . S
C893 H897 0.950 . S
H894 C890 0.950 . S
C895 C893 1.390 . S
C895 C896 1.387 . S
C895 H898 0.950 . S
C896 C895 1.387 . S
C896 C899 1.387 . S
H897 C893 0.950 . S
H898 C895 0.950 . S
C899 C890 1.390 . S
C899 H892 0.950 . S
C899 C896 1.387 . S
C900 C901 1.387 . S
C900 H904 0.950 . S
C900 C909 1.390 . S
C901 C900 1.387 . S
C901 C903 1.387 . S
H902 C909 0.950 . S
C903 C901 1.387 . S
C903 C905 1.390 . S
C903 H907 0.950 . S
H904 C900 0.950 . S
C905 C903 1.390 . S
C905 C906 1.387 . S
C905 H908 0.950 . S
C906 C905 1.387 . S
C906 C909 1.387 . S
H907 C903 0.950 . S
H908 C905 0.950 . S
C909 C900 1.390 . S
C909 H902 0.950 . S
C909 C906 1.387 . S
C910 C911 1.387 . S
C910 H914 0.950 . S
C910 C919 1.390 . S
C911 C910 1.387 . S
C911 C913 1.387 . S
H912 C919 0.950 . S
C913 C911 1.387 . S
C913 C915 1.390 . S
C913 H917 0.950 . S
H914 C910 0.950 . S
C915 C913 1.390 . S
C915 C916 1.387 . S
C915 H918 0.950 . S
C916 C915 1.387 . S
C916 C919 1.387 . S
H917 C913 0.950 . S
H918 C915 0.950 . S
C919 C910 1.390 . S
C919 H912 0.950 . S
C919 C916 1.387 . S
C920 C921 1.387 . S
C920 H924 0.950 . S
C920 C929 1.390 . S
C921 C920 1.387 . S
C921 C923 1.387 . S
H922 C929 0.950 . S
C923 C921 1.387 . S
C923 C925 1.390 . S
C923 H927 0.950 . S
H924 C920 0.950 . S
C925 C923 1.390 . S
C925 C926 1.387 . S
C925 H928 0.950 . S
C926 C925 1.387 . S
C926 C929 1.387 . S
H927 C923 0.950 . S
H928 C925 0.950 . S
C929 C920 1.390 . S
C929 H922 0.950 . S
C929 C926 1.387 . S
C930 C931 1.387 . S
C930 H934 0.950 . S
C930 C939 1.390 . S
C931 C930 1.387 . S
C931 C933 1.387 1_554 S
H932 C939 0.950 . S
C933 C931 1.387 1_556 S
C933 C935 1.390 . S
C933 H937 0.950 . S
H934 C930 0.950 . S
C935 C933 1.390 . S
C935 C936 1.387 1_556 S
C935 H938 0.950 . S
C936 C935 1.387 1_554 S
C936 C939 1.387 . S
H937 C933 0.950 . S
H938 C935 0.950 . S
C939 C930 1.390 . S
C939 H932 0.950 . S
C939 C936 1.387 . S
C940 C941 1.387 1_556 S
C940 H944 0.950 . S
C940 C949 1.390 . S
C941 C940 1.387 1_554 S
C941 C943 1.387 . S
H942 C949 0.950 . S
C943 C941 1.387 . S
C943 C945 1.390 . S
C943 H947 0.950 . S
H944 C940 0.950 . S
C945 C943 1.390 . S
C945 C946 1.387 . S
C945 H948 0.950 . S
C946 C945 1.387 . S
C946 C949 1.387 1_554 S
H947 C943 0.950 . S
H948 C945 0.950 . S
C949 C940 1.390 . S
C949 H942 0.950 . S
C949 C946 1.387 1_556 S
C950 C951 1.387 . S
C950 H954 0.950 . S
C950 C959 1.390 . S
C951 C950 1.387 . S
C951 C953 1.387 1_554 S
H952 C959 0.950 . S
C953 C951 1.387 1_556 S
C953 C955 1.390 . S
C953 H957 0.950 . S
H954 C950 0.950 . S
C955 C953 1.390 . S
C955 C956 1.387 1_556 S
C955 H958 0.950 . S
C956 C955 1.387 1_554 S
C956 C959 1.387 . S
H957 C953 0.950 . S
H958 C955 0.950 . S
C959 C950 1.390 . S
C959 H952 0.950 . S
C959 C956 1.387 . S
C960 C961 1.387 . S
C960 H964 0.950 . S
C960 C969 1.390 . S
C961 C960 1.387 . S
C961 C963 1.387 . S
H962 C969 0.950 . S
C963 C961 1.387 . S
C963 C965 1.390 . S
C963 H967 0.950 . S
H964 C960 0.950 . S
C965 C963 1.390 . S
C965 C966 1.387 . S
C965 H968 0.950 . S
C966 C965 1.387 . S
C966 C969 1.387 . S
H967 C963 0.950 . S
H968 C965 0.950 . S
C969 C960 1.390 . S
C969 H962 0.950 . S
C969 C966 1.387 . S
C970 C971 1.387 . S
C970 H974 0.950 . S
C970 C979 1.390 . S
C971 C970 1.387 . S
C971 C973 1.387 . S
H972 C979 0.950 . S
C973 C971 1.387 . S
C973 C975 1.390 . S
C973 H977 0.950 . S
H974 C970 0.950 . S
C975 C973 1.390 . S
C975 C976 1.387 . S
C975 H978 0.950 . S
C976 C975 1.387 . S
C976 C979 1.387 . S
H977 C973 0.950 . S
H978 C975 0.950 . S
C979 C970 1.390 . S
C979 H972 0.950 . S
C979 C976 1.387 . S
C980 C981 1.387 . S
C980 H984 0.950 . S
C980 C989 1.390 . S
C981 C980 1.387 . S
C981 C983 1.387 . S
H982 C989 0.950 . S
C983 C981 1.387 . S
C983 C985 1.390 . S
C983 H987 0.950 . S
H984 C980 0.950 . S
C985 C983 1.390 . S
C985 C986 1.387 . S
C985 H988 0.950 . S
C986 C985 1.387 . S
C986 C989 1.387 . S
H987 C983 0.950 . S
H988 C985 0.950 . S
C989 C980 1.390 . S
C989 H982 0.950 . S
C989 C986 1.387 . S
C990 C991 1.387 1_554 S
C990 H994 0.950 . S
C990 C999 1.390 . S
C991 C990 1.387 1_556 S
C991 C993 1.387 . S
H992 C999 0.950 . S
C993 C991 1.387 . S
C993 C995 1.390 . S
C993 H997 0.950 . S
H994 C990 0.950 . S
C995 C993 1.390 . S
C995 C996 1.387 . S
C995 H998 0.950 . S
C996 C995 1.387 . S
C996 C999 1.387 1_556 S
H997 C993 0.950 . S
H998 C995 0.950 . S
C999 C990 1.390 . S
C999 H992 0.950 . S
C999 C996 1.387 1_554 S
C1000 C1001 1.387 . S
C1000 H1004 0.950 . S
C1000 C1009 1.390 . S
C1001 C1000 1.387 . S
C1001 C1003 1.387 1_556 S
H1002 C1009 0.950 . S
C1003 C1001 1.387 1_554 S
C1003 C1005 1.390 . S
C1003 H1007 0.950 . S
H1004 C1000 0.950 . S
C1005 C1003 1.390 . S
C1005 C1006 1.387 1_554 S
C1005 H1008 0.950 . S
C1006 C1005 1.387 1_556 S
C1006 C1009 1.387 . S
H1007 C1003 0.950 . S
H1008 C1005 0.950 . S
C1009 C1000 1.390 . S
C1009 H1002 0.950 . S
C1009 C1006 1.387 . S
C1010 C1011 1.387 1_554 S
C1010 H1014 0.950 . S
C1010 C1019 1.390 . S
C1011 C1010 1.387 1_556 S
C1011 C1013 1.387 . S
H1012 C1019 0.950 . S
C1013 C1011 1.387 . S
C1013 C1015 1.390 . S
C1013 H1017 0.950 . S
H1014 C1010 0.950 . S
C1015 C1013 1.390 . S
C1015 C1016 1.387 . S
C1015 H1018 0.950 . S
C1016 C1015 1.387 . S
C1016 C1019 1.387 1_556 S
H1017 C1013 0.950 . S
H1018 C1015 0.950 . S
C1019 C1010 1.390 . S
C1019 H1012 0.950 . S
C1019 C1016 1.387 1_554 S
C1020 C1021 1.387 . S
C1020 H1024 0.950 . S
C1020 C1029 1.390 . S
C1021 C1020 1.387 . S
C1021 C1023 1.387 . S
H1022 C1029 0.950 . S
C1023 C1021 1.387 . S
C1023 C1025 1.390 . S
C1023 H1027 0.950 . S
H1024 C1020 0.950 . S
C1025 C1023 1.390 . S
C1025 C1026 1.387 . S
C1025 H1028 0.950 . S
C1026 C1025 1.387 . S
C1026 C1029 1.387 . S
H1027 C1023 0.950 . S
H1028 C1025 0.950 . S
C1029 C1020 1.390 . S
C1029 H1022 0.950 . S
C1029 C1026 1.387 . S
C1030 C1031 1.387 . S
C1030 H1034 0.950 . S
C1030 C1039 1.390 . S
C1031 C1030 1.387 . S
C1031 C1033 1.387 . S
H1032 C1039 0.950 . S
C1033 C1031 1.387 . S
C1033 C1035 1.390 . S
C1033 H1037 0.950 . S
H1034 C1030 0.950 . S
C1035 C1033 1.390 . S
C1035 C1036 1.387 . S
C1035 H1038 0.950 . S
C1036 C1035 1.387 . S
C1036 C1039 1.387 . S
H1037 C1033 0.950 . S
H1038 C1035 0.950 . S
C1039 C1030 1.390 . S
C1039 H1032 0.950 . S
C1039 C1036 1.387 . S
C1040 C1041 1.387 . S
C1040 H1044 0.950 . S
C1040 C1049 1.390 . S
C1041 C1040 1.387 . S
C1041 C1043 1.387 . S
H1042 C1049 0.950 . S
C1043 C1041 1.387 . S
C1043 C1045 1.390 . S
C1043 H1047 0.950 . S
H1044 C1040 0.950 . S
C1045 C1043 1.390 . S
C1045 C1046 1.387 . S
C1045 H1048 0.950 . S
C1046 C1045 1.387 . S
C1046 C1049 1.387 . S
H1047 C1043 0.950 . S
H1048 C1045 0.950 . S
C1049 C1040 1.390 . S
C1049 H1042 0.950 . S
C1049 C1046 1.387 . S
C1050 C1051 1.387 . S
C1050 H1054 0.950 . S
C1050 C1059 1.390 . S
C1051 C1050 1.387 . S
C1051 C1053 1.387 . S
H1052 C1059 0.950 . S
C1053 C1051 1.387 . S
C1053 C1055 1.390 . S
C1053 H1057 0.950 . S
H1054 C1050 0.950 . S
C1055 C1053 1.390 . S
C1055 C1056 1.387 . S
C1055 H1058 0.950 . S
C1056 C1055 1.387 . S
C1056 C1059 1.387 . S
H1057 C1053 0.950 . S
H1058 C1055 0.950 . S
C1059 C1050 1.390 . S
C1059 H1052 0.950 . S
C1059 C1056 1.387 . S
C1060 C1061 1.387 . S
C1060 H1064 0.950 . S
C1060 C1069 1.390 . S
C1061 C1060 1.387 . S
C1061 C1063 1.387 . S
H1062 C1069 0.950 . S
C1063 C1061 1.387 . S
C1063 C1065 1.390 . S
C1063 H1067 0.950 . S
H1064 C1060 0.950 . S
C1065 C1063 1.390 . S
C1065 C1066 1.387 . S
C1065 H1068 0.950 . S
C1066 C1065 1.387 . S
C1066 C1069 1.387 . S
H1067 C1063 0.950 . S
H1068 C1065 0.950 . S
C1069 C1060 1.390 . S
C1069 H1062 0.950 . S
C1069 C1066 1.387 . S
C1070 C1071 1.387 . S
C1070 H1074 0.950 . S
C1070 C1079 1.390 . S
C1071 C1070 1.387 . S
C1071 C1073 1.387 . S
H1072 C1079 0.950 . S
C1073 C1071 1.387 . S
C1073 C1075 1.390 . S
C1073 H1077 0.950 . S
H1074 C1070 0.950 . S
C1075 C1073 1.390 . S
C1075 C1076 1.387 . S
C1075 H1078 0.950 . S
C1076 C1075 1.387 . S
C1076 C1079 1.387 . S
H1077 C1073 0.950 . S
H1078 C1075 0.950 . S
C1079 C1070 1.390 . S
C1079 H1072 0.950 . S
C1079 C1076 1.387 . S
C1080 C1081 1.387 . S
C1080 H1084 0.950 . S
C1080 C1089 1.390 . S
C1081 C1080 1.387 . S
C1081 C1083 1.387 . S
H1082 C1089 0.950 . S
C1083 C1081 1.387 . S
C1083 C1085 1.390 . S
C1083 H1087 0.950 . S
H1084 C1080 0.950 . S
C1085 C1083 1.390 . S
C1085 C1086 1.387 . S
C1085 H1088 0.950 . S
C1086 C1085 1.387 . S
C1086 C1089 1.387 . S
H1087 C1083 0.950 . S
H1088 C1085 0.950 . S
C1089 C1080 1.390 . S
C1089 H1082 0.950 . S
C1089 C1086 1.387 . S
C1090 C1091 1.387 . S
C1090 H1094 0.950 1_565 S
C1090 C1099 1.390 . S
C1091 C1090 1.387 . S
C1091 C1093 1.387 . S
H1092 C1099 0.950 . S
C1093 C1091 1.387 . S
C1093 C1095 1.390 . S
C1093 H1097 0.950 . S
H1094 C1090 0.950 1_545 S
C1095 C1093 1.390 . S
C1095 C1096 1.387 . S
C1095 H1098 0.950 . S
C1096 C1095 1.387 . S
C1096 C1099 1.387 . S
H1097 C1093 0.950 . S
H1098 C1095 0.950 . S
C1099 C1090 1.390 . S
C1099 H1092 0.950 . S
C1099 C1096 1.387 . S
C1100 C1101 1.387 . S
C1100 H1104 0.950 . S
C1100 C1109 1.390 . S
C1101 C1100 1.387 . S
C1101 C1103 1.387 . S
H1102 C1109 0.950 1_655 S
C1103 C1101 1.387 . S
C1103 C1105 1.390 . S
C1103 H1107 0.950 . S
H1104 C1100 0.950 . S
C1105 C1103 1.390 . S
C1105 C1106 1.387 . S
C1105 H1108 0.950 . S
C1106 C1105 1.387 . S
C1106 C1109 1.387 . S
H1107 C1103 0.950 . S
H1108 C1105 0.950 . S
C1109 C1100 1.390 . S
C1109 H1102 0.950 1_455 S
C1109 C1106 1.387 . S
C1110 C1111 1.387 . S
C1110 H1114 0.950 . S
C1110 C1119 1.390 . S
C1111 C1110 1.387 . S
C1111 C1113 1.387 . S
H1112 C1119 0.950 . S
C1113 C1111 1.387 . S
C1113 C1115 1.390 . S
C1113 H1117 0.950 . S
H1114 C1110 0.950 . S
C1115 C1113 1.390 . S
C1115 C1116 1.387 . S
C1115 H1118 0.950 . S
C1116 C1115 1.387 . S
C1116 C1119 1.387 . S
H1117 C1113 0.950 . S
H1118 C1115 0.950 . S
C1119 C1110 1.390 . S
C1119 H1112 0.950 . S
C1119 C1116 1.387 . S
C1120 C1121 1.387 . S
C1120 H1124 0.950 . S
C1120 C1129 1.390 . S
C1121 C1120 1.387 . S
C1121 C1123 1.387 . S
H1122 C1129 0.950 . S
C1123 C1121 1.387 . S
C1123 C1125 1.390 . S
C1123 H1127 0.950 1_545 S
H1124 C1120 0.950 . S
C1125 C1123 1.390 . S
C1125 C1126 1.387 . S
C1125 H1128 0.950 . S
C1126 C1125 1.387 . S
C1126 C1129 1.387 . S
H1127 C1123 0.950 1_565 S
H1128 C1125 0.950 . S
C1129 C1120 1.390 . S
C1129 H1122 0.950 . S
C1129 C1126 1.387 . S
C1130 C1131 1.387 . S
C1130 H1134 0.950 . S
C1130 C1139 1.390 . S
C1131 C1130 1.387 . S
C1131 C1133 1.387 . S
H1132 C1139 0.950 . S
C1133 C1131 1.387 . S
C1133 C1135 1.390 . S
C1133 H1137 0.950 . S
H1134 C1130 0.950 . S
C1135 C1133 1.390 . S
C1135 C1136 1.387 . S
C1135 H1138 0.950 . S
C1136 C1135 1.387 . S
C1136 C1139 1.387 . S
H1137 C1133 0.950 . S
H1138 C1135 0.950 . S
C1139 C1130 1.390 . S
C1139 H1132 0.950 . S
C1139 C1136 1.387 . S
C1140 C1141 1.387 . S
C1140 H1144 0.950 . S
C1140 C1149 1.390 . S
C1141 C1140 1.387 . S
C1141 C1143 1.387 . S
H1142 C1149 0.950 . S
C1143 C1141 1.387 . S
C1143 C1145 1.390 . S
C1143 H1147 0.950 . S
H1144 C1140 0.950 . S
C1145 C1143 1.390 . S
C1145 C1146 1.387 . S
C1145 H1148 0.950 . S
C1146 C1145 1.387 . S
C1146 C1149 1.387 . S
H1147 C1143 0.950 . S
H1148 C1145 0.950 . S
C1149 C1140 1.390 . S
C1149 H1142 0.950 . S
C1149 C1146 1.387 . S
C1150 C1151 1.387 . S
C1150 H1154 0.950 . S
C1150 C1159 1.390 . S
C1151 C1150 1.387 . S
C1151 C1153 1.387 . S
H1152 C1159 0.950 . S
C1153 C1151 1.387 . S
C1153 C1155 1.390 . S
C1153 H1157 0.950 . S
H1154 C1150 0.950 . S
C1155 C1153 1.390 . S
C1155 C1156 1.387 . S
C1155 H1158 0.950 1_545 S
C1156 C1155 1.387 . S
C1156 C1159 1.387 . S
H1157 C1153 0.950 . S
H1158 C1155 0.950 1_565 S
C1159 C1150 1.390 . S
C1159 H1152 0.950 . S
C1159 C1156 1.387 . S
C1160 C1161 1.387 . S
C1160 H1164 0.950 . S
C1160 C1169 1.390 . S
C1161 C1160 1.387 . S
C1161 C1163 1.387 . S
H1162 C1169 0.950 . S
C1163 C1161 1.387 . S
C1163 C1165 1.390 . S
C1163 H1167 0.950 . S
H1164 C1160 0.950 . S
C1165 C1163 1.390 . S
C1165 C1166 1.386 . S
C1165 H1168 0.951 1_655 S
C1166 C1165 1.386 . S
C1166 C1169 1.387 . S
H1167 C1163 0.950 . S
H1168 C1165 0.951 1_455 S
C1169 C1160 1.390 . S
C1169 H1162 0.950 . S
C1169 C1166 1.387 . S
C1170 C1171 1.387 . S
C1170 H1174 0.950 . S
C1170 C1179 1.390 . S
C1171 C1170 1.387 . S
C1171 C1173 1.387 . S
H1172 C1179 0.950 . S
C1173 C1171 1.387 . S
C1173 C1175 1.390 . S
C1173 H1177 0.950 . S
H1174 C1170 0.950 . S
C1175 C1173 1.390 . S
C1175 C1176 1.387 . S
C1175 H1178 0.950 . S
C1176 C1175 1.387 . S
C1176 C1179 1.387 . S
H1177 C1173 0.950 . S
H1178 C1175 0.950 . S
C1179 C1170 1.390 . S
C1179 H1172 0.950 . S
C1179 C1176 1.387 . S
C1180 C1181 1.387 . S
C1180 H1184 0.950 . S
C1180 C1189 1.390 . S
C1181 C1180 1.387 . S
C1181 C1183 1.387 . S
H1182 C1189 0.950 . S
C1183 C1181 1.387 . S
C1183 C1185 1.390 . S
C1183 H1187 0.950 . S
H1184 C1180 0.950 . S
C1185 C1183 1.390 . S
C1185 C1186 1.387 . S
C1185 H1188 0.950 . S
C1186 C1185 1.387 . S
C1186 C1189 1.387 . S
H1187 C1183 0.950 . S
H1188 C1185 0.950 . S
C1189 C1180 1.390 . S
C1189 H1182 0.950 . S
C1189 C1186 1.387 . S
C1190 C1191 1.387 . S
C1190 H1194 0.950 . S
C1190 C1199 1.390 . S
C1191 C1190 1.387 . S
C1191 C1193 1.387 . S
H1192 C1199 0.950 . S
C1193 C1191 1.387 . S
C1193 C1195 1.390 . S
C1193 H1197 0.950 . S
H1194 C1190 0.950 . S
C1195 C1193 1.390 . S
C1195 C1196 1.387 . S
C1195 H1198 0.950 . S
C1196 C1195 1.387 . S
C1196 C1199 1.387 . S
H1197 C1193 0.950 . S
H1198 C1195 0.950 . S
C1199 C1190 1.390 . S
C1199 H1192 0.950 . S
C1199 C1196 1.387 . S
C1200 C1201 1.387 1_455 S
C1200 H1204 0.950 . S
C1200 C1209 1.390 . S
C1201 C1200 1.387 1_655 S
C1201 C1203 1.387 . S
H1202 C1209 0.950 . S
C1203 C1201 1.387 . S
C1203 C1205 1.390 1_655 S
C1203 H1207 0.950 . S
H1204 C1200 0.950 . S
C1205 C1203 1.390 1_455 S
C1205 C1206 1.387 . S
C1205 H1208 0.950 . S
C1206 C1205 1.387 . S
C1206 C1209 1.387 . S
H1207 C1203 0.950 . S
H1208 C1205 0.950 . S
C1209 C1200 1.390 . S
C1209 H1202 0.950 . S
C1209 C1206 1.387 . S
C1210 C1211 1.387 . S
C1210 H1214 0.950 . S
C1210 C1219 1.390 . S
C1211 C1210 1.387 . S
C1211 C1213 1.387 . S
H1212 C1219 0.950 . S
C1213 C1211 1.387 . S
C1213 C1215 1.390 . S
C1213 H1217 0.950 . S
H1214 C1210 0.950 . S
C1215 C1213 1.390 . S
C1215 C1216 1.387 . S
C1215 H1218 0.950 . S
C1216 C1215 1.387 . S
C1216 C1219 1.387 . S
H1217 C1213 0.950 . S
H1218 C1215 0.950 . S
C1219 C1210 1.390 . S
C1219 H1212 0.950 . S
C1219 C1216 1.387 . S
C1220 C1221 1.387 . S
C1220 H1224 0.950 . S
C1220 C1229 1.390 1_565 S
C1221 C1220 1.387 . S
C1221 C1223 1.387 . S
H1222 C1229 0.950 . S
C1223 C1221 1.387 . S
C1223 C1225 1.405 . S
C1223 H1227 0.950 . S
H1224 C1220 0.950 . S
C1225 C1223 1.405 . S
C1225 C1226 1.384 1_565 S
C1225 H1228 0.939 1_565 S
C1226 C1225 1.384 1_545 S
C1226 C1229 1.387 . S
H1227 C1223 0.950 . S
H1228 C1225 0.939 1_545 S
C1229 C1220 1.390 1_545 S
C1229 H1222 0.950 . S
C1229 C1226 1.387 . S
C1230 C1231 1.387 . S
C1230 H1234 0.950 . S
C1230 C1239 1.390 . S
C1231 C1230 1.387 . S
C1231 C1233 1.387 . S
H1232 C1239 0.950 . S
C1233 C1231 1.387 . S
C1233 C1235 1.390 . S
C1233 H1237 0.950 . S
H1234 C1230 0.950 . S
C1235 C1233 1.390 . S
C1235 C1236 1.387 . S
C1235 H1238 0.950 . S
C1236 C1235 1.387 . S
C1236 C1239 1.387 . S
H1237 C1233 0.950 . S
H1238 C1235 0.950 . S
C1239 C1230 1.390 . S
C1239 H1232 0.950 . S
C1239 C1236 1.387 . S
C1240 C1241 1.387 . S
C1240 H1244 0.950 . S
C1240 C1249 1.390 . S
C1241 C1240 1.387 . S
C1241 C1243 1.387 . S
H1242 C1249 0.950 . S
C1243 C1241 1.387 . S
C1243 C1245 1.390 . S
C1243 H1247 0.950 . S
H1244 C1240 0.950 . S
C1245 C1243 1.390 . S
C1245 C1246 1.387 . S
C1245 H1248 0.950 . S
C1246 C1245 1.387 . S
C1246 C1249 1.387 . S
H1247 C1243 0.950 . S
H1248 C1245 0.950 . S
C1249 C1240 1.390 . S
C1249 H1242 0.950 . S
C1249 C1246 1.387 . S
C1250 C1251 1.387 . S
C1250 H1254 0.950 . S
C1250 C1259 1.390 . S
C1251 C1250 1.387 . S
C1251 C1253 1.387 . S
H1252 C1259 0.950 . S
C1253 C1251 1.387 . S
C1253 C1255 1.390 . S
C1253 H1257 0.950 . S
H1254 C1250 0.950 . S
C1255 C1253 1.390 . S
C1255 C1256 1.387 . S
C1255 H1258 0.950 . S
C1256 C1255 1.387 . S
C1256 C1259 1.387 . S
H1257 C1253 0.950 . S
H1258 C1255 0.950 . S
C1259 C1250 1.390 . S
C1259 H1252 0.950 . S
C1259 C1256 1.387 . S
C1260 C1261 1.387 . S
C1260 H1264 0.950 . S
C1260 C1269 1.390 . S
C1261 C1260 1.387 . S
C1261 C1263 1.387 . S
H1262 C1269 0.950 . S
C1263 C1261 1.387 . S
C1263 C1265 1.390 . S
C1263 H1267 0.950 . S
H1264 C1260 0.950 . S
C1265 C1263 1.390 . S
C1265 C1266 1.387 . S
C1265 H1268 0.950 . S
C1266 C1265 1.387 . S
C1266 C1269 1.387 . S
H1267 C1263 0.950 . S
H1268 C1265 0.950 . S
C1269 C1260 1.390 . S
C1269 H1262 0.950 . S
C1269 C1266 1.387 . S
C1270 C1271 1.387 . S
C1270 H1274 0.950 1_455 S
C1270 C1279 1.390 . S
C1271 C1270 1.387 . S
C1271 C1273 1.387 . S
H1272 C1279 0.950 . S
C1273 C1271 1.387 . S
C1273 C1275 1.390 . S
C1273 H1277 0.950 . S
H1274 C1270 0.950 1_655 S
C1275 C1273 1.390 . S
C1275 C1276 1.387 . S
C1275 H1278 0.950 . S
C1276 C1275 1.387 . S
C1276 C1279 1.387 . S
H1277 C1273 0.950 . S
H1278 C1275 0.950 . S
C1279 C1270 1.390 . S
C1279 H1272 0.950 . S
C1279 C1276 1.387 . S
C1280 C1281 1.387 . S
C1280 H1284 0.950 . S
C1280 C1289 1.390 . S
C1281 C1280 1.387 . S
C1281 C1283 1.387 . S
H1282 C1289 0.950 . S
C1283 C1281 1.387 . S
C1283 C1285 1.390 . S
C1283 H1287 0.950 . S
H1284 C1280 0.950 . S
C1285 C1283 1.390 . S
C1285 C1286 1.387 . S
C1285 H1288 0.950 . S
C1286 C1285 1.387 . S
C1286 C1289 1.387 . S
H1287 C1283 0.950 . S
H1288 C1285 0.950 . S
C1289 C1280 1.390 . S
C1289 H1282 0.950 . S
C1289 C1286 1.387 . S
C1290 C1291 1.387 . S
C1290 H1294 0.950 . S
C1290 C1299 1.390 1_565 S
C1291 C1290 1.387 . S
C1291 C1293 1.387 1_554 S
H1292 C1299 0.950 . S
C1293 C1291 1.387 1_556 S
C1293 C1295 1.390 1_565 S
C1293 H1297 0.950 . S
H1294 C1290 0.950 . S
C1295 C1293 1.390 1_545 S
C1295 C1296 1.387 . S
C1295 H1298 0.950 . S
C1296 C1295 1.387 . S
C1296 C1299 1.387 1_556 S
H1297 C1293 0.950 . S
H1298 C1295 0.950 . S
C1299 C1290 1.390 1_545 S
C1299 H1292 0.950 . S
C1299 C1296 1.387 1_554 S
C1300 C1301 1.387 1_556 S
C1300 H1304 0.950 . S
C1300 C1309 1.370 1_455 S
C1301 C1300 1.387 1_554 S
C1301 C1303 1.387 . S
H1302 C1309 0.958 . S
C1303 C1301 1.387 . S
C1303 C1305 1.390 1_455 S
C1303 H1307 0.950 . S
H1304 C1300 0.950 . S
C1305 C1303 1.390 1_655 S
C1305 C1306 1.387 1_554 S
C1305 H1308 0.950 . S
C1306 C1305 1.387 1_556 S
C1306 C1309 1.400 . S
H1307 C1303 0.950 . S
H1308 C1305 0.950 . S
C1309 C1300 1.370 1_655 S
C1309 H1302 0.958 . S
C1309 C1306 1.400 . S
C1310 C1311 1.387 1_554 S
C1310 H1314 0.950 . S
C1310 C1319 1.390 . S
C1311 C1310 1.387 1_556 S
C1311 C1313 1.387 . S
H1312 C1319 0.950 . S
C1313 C1311 1.387 . S
C1313 C1315 1.390 . S
C1313 H1317 0.950 . S
H1314 C1310 0.950 . S
C1315 C1313 1.390 . S
C1315 C1316 1.387 1_556 S
C1315 H1318 0.950 . S
C1316 C1315 1.387 1_554 S
C1316 C1319 1.387 . S
H1317 C1313 0.950 . S
H1318 C1315 0.950 . S
C1319 C1310 1.390 . S
C1319 H1312 0.950 . S
C1319 C1316 1.387 . S
C1320 C1321 1.387 . S
C1320 H1324 0.950 . S
C1320 C1329 1.390 . S
C1321 C1320 1.387 . S
C1321 C1323 1.387 . S
H1322 C1329 0.950 . S
C1323 C1321 1.387 . S
C1323 C1325 1.390 . S
C1323 H1327 0.950 . S
H1324 C1320 0.950 . S
C1325 C1323 1.390 . S
C1325 C1326 1.387 . S
C1325 H1328 0.950 . S
C1326 C1325 1.387 . S
C1326 C1329 1.387 . S
H1327 C1323 0.950 . S
H1328 C1325 0.950 . S
C1329 C1320 1.390 . S
C1329 H1322 0.950 . S
C1329 C1326 1.387 . S
C1330 C1331 1.387 . S
C1330 H1334 0.950 . S
C1330 C1339 1.390 . S
C1331 C1330 1.387 . S
C1331 C1333 1.387 . S
H1332 C1339 0.950 . S
C1333 C1331 1.387 . S
C1333 C1335 1.390 . S
C1333 H1337 0.950 . S
H1334 C1330 0.950 . S
C1335 C1333 1.390 . S
C1335 C1336 1.387 . S
C1335 H1338 0.950 . S
C1336 C1335 1.387 . S
C1336 C1339 1.387 . S
H1337 C1333 0.950 . S
H1338 C1335 0.950 . S
C1339 C1330 1.390 . S
C1339 H1332 0.950 . S
C1339 C1336 1.387 . S
C1340 C1341 1.387 . S
C1340 H1344 0.950 . S
C1340 C1349 1.390 . S
C1341 C1340 1.387 . S
C1341 C1343 1.387 . S
H1342 C1349 0.950 . S
C1343 C1341 1.387 . S
C1343 C1345 1.390 . S
C1343 H1347 0.950 . S
H1344 C1340 0.950 . S
C1345 C1343 1.390 . S
C1345 C1346 1.387 . S
C1345 H1348 0.950 . S
C1346 C1345 1.387 . S
C1346 C1349 1.387 . S
H1347 C1343 0.950 . S
H1348 C1345 0.950 . S
C1349 C1340 1.390 . S
C1349 H1342 0.950 . S
C1349 C1346 1.387 . S
C1350 C1351 1.387 1_556 S
C1350 H1354 0.950 . S
C1350 C1359 1.390 1_565 S
C1351 C1350 1.387 1_554 S
C1351 C1353 1.375 1_565 S
H1352 C1359 0.950 . S
C1353 C1351 1.375 1_545 S
C1353 C1355 1.415 . S
C1353 H1357 0.938 1_545 S
H1354 C1350 0.950 . S
C1355 C1353 1.415 . S
C1355 C1356 1.387 1_554 S
C1355 H1358 0.950 . S
C1356 C1355 1.387 1_556 S
C1356 C1359 1.387 . S
H1357 C1353 0.938 1_565 S
H1358 C1355 0.950 . S
C1359 C1350 1.390 1_545 S
C1359 H1352 0.950 . S
C1359 C1356 1.387 . S
C1360 C1361 1.387 . S
C1360 H1364 0.950 . S
C1360 C1369 1.390 1_655 S
C1361 C1360 1.387 . S
C1361 C1363 1.387 1_556 S
H1362 C1369 0.950 . S
C1363 C1361 1.387 1_554 S
C1363 C1365 1.390 1_655 S
C1363 H1367 0.950 . S
H1364 C1360 0.950 . S
C1365 C1363 1.390 1_455 S
C1365 C1366 1.387 . S
C1365 H1368 0.950 . S
C1366 C1365 1.387 . S
C1366 C1369 1.387 1_554 S
H1367 C1363 0.950 . S
H1368 C1365 0.950 . S
C1369 C1360 1.390 1_455 S
C1369 H1362 0.950 . S
C1369 C1366 1.387 1_556 S
C1370 C1371 1.387 1_556 S
C1370 H1374 0.950 . S
C1370 C1379 1.390 . S
C1371 C1370 1.387 1_554 S
C1371 C1373 1.387 . S
H1372 C1379 0.950 . S
C1373 C1371 1.387 . S
C1373 C1375 1.390 . S
C1373 H1377 0.950 . S
H1374 C1370 0.950 . S
C1375 C1373 1.390 . S
C1375 C1376 1.387 1_554 S
C1375 H1378 0.950 . S
C1376 C1375 1.387 1_556 S
C1376 C1379 1.387 . S
H1377 C1373 0.950 . S
H1378 C1375 0.950 . S
C1379 C1370 1.390 . S
C1379 H1372 0.950 . S
C1379 C1376 1.387 . S
C1380 C1381 1.387 1_655 S
C1380 H1384 0.953 . S
C1380 C1389 1.390 . S
C1381 C1380 1.387 1_455 S
C1381 C1383 1.387 . S
H1382 C1389 0.950 . S
C1383 C1381 1.387 . S
C1383 C1385 1.390 1_455 S
C1383 H1387 0.950 . S
H1384 C1380 0.953 . S
C1385 C1383 1.390 1_655 S
C1385 C1386 1.387 . S
C1385 H1388 0.950 . S
C1386 C1385 1.387 . S
C1386 C1389 1.387 . S
H1387 C1383 0.950 . S
H1388 C1385 0.950 . S
C1389 C1380 1.390 . S
C1389 H1382 0.950 . S
C1389 C1386 1.387 . S
C1390 C1391 1.387 . S
C1390 H1394 0.950 . S
C1390 C1399 1.390 . S
C1391 C1390 1.387 . S
C1391 C1393 1.387 . S
H1392 C1399 0.950 . S
C1393 C1391 1.387 . S
C1393 C1395 1.390 . S
C1393 H1397 0.950 . S
H1394 C1390 0.950 . S
C1395 C1393 1.390 . S
C1395 C1396 1.387 . S
C1395 H1398 0.950 . S
C1396 C1395 1.387 . S
C1396 C1399 1.387 . S
H1397 C1393 0.950 . S
H1398 C1395 0.950 . S
C1399 C1390 1.390 . S
C1399 H1392 0.950 . S
C1399 C1396 1.387 . S
C1400 C1401 1.387 1_545 S
C1400 H1404 0.950 1_545 S
C1400 C1409 1.390 . S
C1401 C1400 1.387 1_565 S
C1401 C1403 1.387 . S
H1402 C1409 0.950 . S
C1403 C1401 1.387 . S
C1403 C1405 1.390 1_565 S
C1403 H1407 0.950 . S
H1404 C1400 0.950 1_565 S
C1405 C1403 1.390 1_545 S
C1405 C1406 1.387 . S
C1405 H1408 0.950 . S
C1406 C1405 1.387 . S
C1406 C1409 1.387 . S
H1407 C1403 0.950 . S
H1408 C1405 0.950 . S
C1409 C1400 1.390 . S
C1409 H1402 0.950 . S
C1409 C1406 1.387 . S
C1410 C1411 1.387 . S
C1410 H1414 0.950 . S
C1410 C1419 1.390 . S
C1411 C1410 1.387 . S
C1411 C1413 1.387 . S
H1412 C1419 0.950 . S
C1413 C1411 1.387 . S
C1413 C1415 1.390 . S
C1413 H1417 0.950 . S
H1414 C1410 0.950 . S
C1415 C1413 1.390 . S
C1415 C1416 1.387 . S
C1415 H1418 0.950 . S
C1416 C1415 1.387 . S
C1416 C1419 1.387 . S
H1417 C1413 0.950 . S
H1418 C1415 0.950 . S
C1419 C1410 1.390 . S
C1419 H1412 0.950 . S
C1419 C1416 1.387 . S
C1420 C1421 1.387 . S
C1420 H1424 0.950 . S
C1420 C1429 1.390 . S
C1421 C1420 1.387 . S
C1421 C1423 1.387 . S
H1422 C1429 0.950 . S
C1423 C1421 1.387 . S
C1423 C1425 1.390 . S
C1423 H1427 0.950 . S
H1424 C1420 0.950 . S
C1425 C1423 1.390 . S
C1425 C1426 1.387 . S
C1425 H1428 0.950 . S
C1426 C1425 1.387 . S
C1426 C1429 1.387 . S
H1427 C1423 0.950 . S
H1428 C1425 0.950 . S
C1429 C1420 1.390 . S
C1429 H1422 0.950 . S
C1429 C1426 1.387 . S
C1430 C1431 1.387 . S
C1430 H1434 0.950 . S
C1430 C1439 1.390 . S
C1431 C1430 1.387 . S
C1431 C1433 1.387 . S
H1432 C1439 0.950 . S
C1433 C1431 1.387 . S
C1433 C1435 1.390 . S
C1433 H1437 0.950 . S
H1434 C1430 0.950 . S
C1435 C1433 1.390 . S
C1435 C1436 1.387 . S
C1435 H1438 0.950 . S
C1436 C1435 1.387 . S
C1436 C1439 1.387 . S
H1437 C1433 0.950 . S
H1438 C1435 0.950 . S
C1439 C1430 1.390 . S
C1439 H1432 0.950 . S
C1439 C1436 1.387 . S
C1440 C1441 1.387 . S
C1440 H1444 0.950 . S
C1440 C1449 1.390 . S
C1441 C1440 1.387 . S
C1441 C1443 1.387 . S
H1442 C1449 0.950 . S
C1443 C1441 1.387 . S
C1443 C1445 1.390 . S
C1443 H1447 0.950 . S
H1444 C1440 0.950 . S
C1445 C1443 1.390 . S
C1445 C1446 1.387 . S
C1445 H1448 0.950 . S
C1446 C1445 1.387 . S
C1446 C1449 1.387 . S
H1447 C1443 0.950 . S
H1448 C1445 0.950 . S
C1449 C1440 1.390 . S
C1449 H1442 0.950 . S
C1449 C1446 1.387 . S
C1450 C1451 1.387 . S
C1450 H1454 0.950 . S
C1450 C1459 1.390 . S
C1451 C1450 1.387 . S
C1451 C1453 1.387 . S
H1452 C1459 0.950 . S
C1453 C1451 1.387 . S
C1453 C1455 1.390 . S
C1453 H1457 0.950 . S
H1454 C1450 0.950 . S
C1455 C1453 1.390 . S
C1455 C1456 1.387 . S
C1455 H1458 0.950 . S
C1456 C1455 1.387 . S
C1456 C1459 1.387 . S
H1457 C1453 0.950 . S
H1458 C1455 0.950 . S
C1459 C1450 1.390 . S
C1459 H1452 0.950 . S
C1459 C1456 1.387 . S
C1460 C1461 1.387 . S
C1460 H1464 0.950 . S
C1460 C1469 1.390 . S
C1461 C1460 1.387 . S
C1461 C1463 1.387 . S
H1462 C1469 0.950 . S
C1463 C1461 1.387 . S
C1463 C1465 1.390 . S
C1463 H1467 0.950 . S
H1464 C1460 0.950 . S
C1465 C1463 1.390 . S
C1465 C1466 1.387 . S
C1465 H1468 0.950 . S
C1466 C1465 1.387 . S
C1466 C1469 1.387 . S
H1467 C1463 0.950 . S
H1468 C1465 0.950 . S
C1469 C1460 1.390 . S
C1469 H1462 0.950 . S
C1469 C1466 1.387 . S
C1470 C1471 1.387 . S
C1470 H1474 0.950 . S
C1470 C1479 1.390 . S
C1471 C1470 1.387 . S
C1471 C1473 1.387 . S
H1472 C1479 0.950 . S
C1473 C1471 1.387 . S
C1473 C1475 1.390 . S
C1473 H1477 0.950 . S
H1474 C1470 0.950 . S
C1475 C1473 1.390 . S
C1475 C1476 1.387 . S
C1475 H1478 0.950 . S
C1476 C1475 1.387 . S
C1476 C1479 1.387 . S
H1477 C1473 0.950 . S
H1478 C1475 0.950 . S
C1479 C1470 1.390 . S
C1479 H1472 0.950 . S
C1479 C1476 1.387 . S
C1480 C1481 1.387 . S
C1480 H1484 0.950 . S
C1480 C1489 1.390 . S
C1481 C1480 1.387 . S
C1481 C1483 1.387 . S
H1482 C1489 0.950 . S
C1483 C1481 1.387 . S
C1483 C1485 1.390 . S
C1483 H1487 0.950 . S
H1484 C1480 0.950 . S
C1485 C1483 1.390 . S
C1485 C1486 1.387 . S
C1485 H1488 0.950 . S
C1486 C1485 1.387 . S
C1486 C1489 1.387 . S
H1487 C1483 0.950 . S
H1488 C1485 0.950 . S
C1489 C1480 1.390 . S
C1489 H1482 0.950 . S
C1489 C1486 1.387 . S
C1490 C1491 1.387 . S
C1490 H1494 0.950 . S
C1490 C1499 1.390 . S
C1491 C1490 1.387 . S
C1491 C1493 1.387 . S
H1492 C1499 0.950 . S
C1493 C1491 1.387 . S
C1493 C1495 1.390 . S
C1493 H1497 0.950 . S
H1494 C1490 0.950 . S
C1495 C1493 1.390 . S
C1495 C1496 1.387 . S
C1495 H1498 0.950 . S
C1496 C1495 1.387 . S
C1496 C1499 1.387 . S
H1497 C1493 0.950 . S
H1498 C1495 0.950 . S
C1499 C1490 1.390 . S
C1499 H1492 0.950 . S
C1499 C1496 1.387 . S
C1500 C1501 1.387 . S
C1500 H1504 0.950 . S
C1500 C1509 1.390 . S
C1501 C1500 1.387 . S
C1501 C1503 1.387 . S
H1502 C1509 0.950 . S
C1503 C1501 1.387 . S
C1503 C1505 1.390 . S
C1503 H1507 0.950 . S
H1504 C1500 0.950 . S
C1505 C1503 1.390 . S
C1505 C1506 1.387 . S
C1505 H1508 0.950 . S
C1506 C1505 1.387 . S
C1506 C1509 1.387 . S
H1507 C1503 0.950 . S
H1508 C1505 0.950 . S
C1509 C1500 1.390 . S
C1509 H1502 0.950 . S
C1509 C1506 1.387 . S
C1510 C1511 1.387 . S
C1510 H1514 0.950 . S
C1510 C1519 1.390 . S
C1511 C1510 1.387 . S
C1511 C1513 1.387 . S
H1512 C1519 0.950 . S
C1513 C1511 1.387 . S
C1513 C1515 1.390 . S
C1513 H1517 0.950 . S
H1514 C1510 0.950 . S
C1515 C1513 1.390 . S
C1515 C1516 1.387 . S
C1515 H1518 0.950 . S
C1516 C1515 1.387 . S
C1516 C1519 1.387 . S
H1517 C1513 0.950 . S
H1518 C1515 0.950 . S
C1519 C1510 1.390 . S
C1519 H1512 0.950 . S
C1519 C1516 1.387 . S
C1520 C1521 1.387 . S
C1520 H1524 0.950 . S
C1520 C1529 1.390 . S
C1521 C1520 1.387 . S
C1521 C1523 1.387 . S
H1522 C1529 0.950 . S
C1523 C1521 1.387 . S
C1523 C1525 1.390 . S
C1523 H1527 0.950 . S
H1524 C1520 0.950 . S
C1525 C1523 1.390 . S
C1525 C1526 1.387 . S
C1525 H1528 0.950 . S
C1526 C1525 1.387 . S
C1526 C1529 1.387 . S
H1527 C1523 0.950 . S
H1528 C1525 0.950 . S
C1529 C1520 1.390 . S
C1529 H1522 0.950 . S
C1529 C1526 1.387 . S
C1530 C1531 1.387 . S
C1530 H1534 0.950 . S
C1530 C1539 1.390 . S
C1531 C1530 1.387 . S
C1531 C1533 1.387 . S
H1532 C1539 0.950 . S
C1533 C1531 1.387 . S
C1533 C1535 1.390 . S
C1533 H1537 0.950 . S
H1534 C1530 0.950 . S
C1535 C1533 1.390 . S
C1535 C1536 1.387 . S
C1535 H1538 0.950 . S
C1536 C1535 1.387 . S
C1536 C1539 1.387 . S
H1537 C1533 0.950 . S
H1538 C1535 0.950 . S
C1539 C1530 1.390 . S
C1539 H1532 0.950 . S
C1539 C1536 1.387 . S
C1540 C1541 1.387 . S
C1540 H1544 0.950 . S
C1540 C1549 1.390 . S
C1541 C1540 1.387 . S
C1541 C1543 1.387 . S
H1542 C1549 0.950 . S
C1543 C1541 1.387 . S
C1543 C1545 1.390 . S
C1543 H1547 0.950 . S
H1544 C1540 0.950 . S
C1545 C1543 1.390 . S
C1545 C1546 1.387 . S
C1545 H1548 0.950 . S
C1546 C1545 1.387 . S
C1546 C1549 1.387 . S
H1547 C1543 0.950 . S
H1548 C1545 0.950 . S
C1549 C1540 1.390 . S
C1549 H1542 0.950 . S
C1549 C1546 1.387 . S
C1550 C1551 1.387 . S
C1550 H1554 0.950 . S
C1550 C1559 1.390 . S
C1551 C1550 1.387 . S
C1551 C1553 1.387 . S
H1552 C1559 0.950 . S
C1553 C1551 1.387 . S
C1553 C1555 1.390 . S
C1553 H1557 0.950 . S
H1554 C1550 0.950 . S
C1555 C1553 1.390 . S
C1555 C1556 1.387 . S
C1555 H1558 0.950 . S
C1556 C1555 1.387 . S
C1556 C1559 1.387 . S
H1557 C1553 0.950 . S
H1558 C1555 0.950 . S
C1559 C1550 1.390 . S
C1559 H1552 0.950 . S
C1559 C1556 1.387 . S
C1560 C1561 1.387 1_455 S
C1560 H1564 0.950 . S
C1560 C1569 1.390 . S
C1561 C1560 1.387 1_655 S
C1561 C1563 1.387 . S
H1562 C1569 0.950 . S
C1563 C1561 1.387 . S
C1563 C1565 1.390 . S
C1563 H1567 0.950 . S
H1564 C1560 0.950 . S
C1565 C1563 1.390 . S
C1565 C1566 1.387 1_655 S
C1565 H1568 0.950 . S
C1566 C1565 1.387 1_455 S
C1566 C1569 1.387 . S
H1567 C1563 0.950 . S
H1568 C1565 0.950 . S
C1569 C1560 1.390 . S
C1569 H1562 0.950 . S
C1569 C1566 1.387 . S
C1570 C1571 1.387 . S
C1570 H1574 0.950 . S
C1570 C1579 1.390 . S
C1571 C1570 1.387 . S
C1571 C1573 1.387 . S
H1572 C1579 0.950 . S
C1573 C1571 1.387 . S
C1573 C1575 1.390 . S
C1573 H1577 0.950 . S
H1574 C1570 0.950 . S
C1575 C1573 1.390 . S
C1575 C1576 1.387 . S
C1575 H1578 0.950 . S
C1576 C1575 1.387 . S
C1576 C1579 1.387 . S
H1577 C1573 0.950 . S
H1578 C1575 0.950 . S
C1579 C1570 1.390 . S
C1579 H1572 0.950 . S
C1579 C1576 1.387 . S
C1580 C1581 1.387 . S
C1580 H1584 0.950 . S
C1580 C1589 1.390 1_545 S
C1581 C1580 1.387 . S
C1581 C1583 1.387 . S
H1582 C1589 0.950 . S
C1583 C1581 1.387 . S
C1583 C1585 1.390 1_545 S
C1583 H1587 0.950 . S
H1584 C1580 0.950 . S
C1585 C1583 1.390 1_565 S
C1585 C1586 1.387 . S
C1585 H1588 0.950 . S
C1586 C1585 1.387 . S
C1586 C1589 1.387 . S
H1587 C1583 0.950 . S
H1588 C1585 0.950 . S
C1589 C1580 1.390 1_565 S
C1589 H1582 0.950 . S
C1589 C1586 1.387 . S
C1590 C1591 1.387 . S
C1590 H1594 0.950 . S
C1590 C1599 1.390 1_545 S
C1591 C1590 1.387 . S
C1591 C1593 1.387 . S
H1592 C1599 0.950 . S
C1593 C1591 1.387 . S
C1593 C1595 1.390 1_545 S
C1593 H1597 0.950 . S
H1594 C1590 0.950 . S
C1595 C1593 1.390 1_565 S
C1595 C1596 1.387 . S
C1595 H1598 0.950 . S
C1596 C1595 1.387 . S
C1596 C1599 1.387 . S
H1597 C1593 0.950 . S
H1598 C1595 0.950 . S
C1599 C1590 1.390 1_565 S
C1599 H1592 0.950 . S
C1599 C1596 1.387 . S
C1600 C1601 1.387 1_655 S
C1600 H1604 0.950 . S
C1600 C1609 1.390 . S
C1601 C1600 1.387 1_455 S
C1601 C1603 1.387 . S
H1602 C1609 0.950 . S
C1603 C1601 1.387 . S
C1603 C1605 1.390 . S
C1603 H1607 0.950 . S
H1604 C1600 0.950 . S
C1605 C1603 1.390 . S
C1605 C1606 1.387 1_455 S
C1605 H1608 0.950 . S
C1606 C1605 1.387 1_655 S
C1606 C1609 1.387 . S
H1607 C1603 0.950 . S
H1608 C1605 0.950 . S
C1609 C1600 1.390 . S
C1609 H1602 0.950 . S
C1609 C1606 1.387 . S
C1610 C1611 1.387 . S
C1610 H1614 0.950 . S
C1610 C1619 1.390 . S
C1611 C1610 1.387 . S
C1611 C1613 1.387 . S
H1612 C1619 0.950 . S
C1613 C1611 1.387 . S
C1613 C1615 1.390 . S
C1613 H1617 0.950 . S
H1614 C1610 0.950 . S
C1615 C1613 1.390 . S
C1615 C1616 1.387 . S
C1615 H1618 0.950 . S
C1616 C1615 1.387 . S
C1616 C1619 1.387 . S
H1617 C1613 0.950 . S
H1618 C1615 0.950 . S
C1619 C1610 1.390 . S
C1619 H1612 0.950 . S
C1619 C1616 1.387 . S
C1620 C1621 1.387 . S
C1620 H1624 0.950 . S
C1620 C1629 1.390 1_655 S
C1621 C1620 1.387 . S
C1621 C1623 1.387 . S
H1622 C1629 0.950 . S
C1623 C1621 1.387 . S
C1623 C1625 1.390 1_655 S
C1623 H1627 0.950 . S
H1624 C1620 0.950 . S
C1625 C1623 1.390 1_455 S
C1625 C1626 1.387 . S
C1625 H1628 0.950 . S
C1626 C1625 1.387 . S
C1626 C1629 1.387 . S
H1627 C1623 0.950 . S
H1628 C1625 0.950 . S
C1629 C1620 1.390 1_455 S
C1629 H1622 0.950 . S
C1629 C1626 1.387 . S
C1630 C1631 1.387 . S
C1630 H1634 0.950 . S
C1630 C1639 1.390 . S
C1631 C1630 1.387 . S
C1631 C1633 1.387 . S
H1632 C1639 0.950 . S
C1633 C1631 1.387 . S
C1633 C1635 1.390 . S
C1633 H1637 0.950 . S
H1634 C1630 0.950 . S
C1635 C1633 1.390 . S
C1635 C1636 1.387 . S
C1635 H1638 0.950 . S
C1636 C1635 1.387 . S
C1636 C1639 1.387 . S
H1637 C1633 0.950 . S
H1638 C1635 0.950 . S
C1639 C1630 1.390 . S
C1639 H1632 0.950 . S
C1639 C1636 1.387 . S
C1640 C1641 1.387 . S
C1640 H1644 0.950 . S
C1640 C1649 1.390 1_545 S
C1641 C1640 1.387 . S
C1641 C1643 1.387 . S
H1642 C1649 0.950 . S
C1643 C1641 1.387 . S
C1643 C1645 1.390 1_545 S
C1643 H1647 0.950 . S
H1644 C1640 0.950 . S
C1645 C1643 1.390 1_565 S
C1645 C1646 1.387 . S
C1645 H1648 0.950 . S
C1646 C1645 1.387 . S
C1646 C1649 1.387 . S
H1647 C1643 0.950 . S
H1648 C1645 0.950 . S
C1649 C1640 1.390 1_565 S
C1649 H1642 0.950 . S
C1649 C1646 1.387 . S
C1650 C1651 1.387 . S
C1650 H1654 0.950 . S
C1650 C1659 1.390 1_655 S
C1651 C1650 1.387 . S
C1651 C1653 1.387 . S
H1652 C1659 0.950 . S
C1653 C1651 1.387 . S
C1653 C1655 1.390 1_655 S
C1653 H1657 0.950 . S
H1654 C1650 0.950 . S
C1655 C1653 1.390 1_455 S
C1655 C1656 1.387 . S
C1655 H1658 0.950 . S
C1656 C1655 1.387 . S
C1656 C1659 1.387 . S
H1657 C1653 0.950 . S
H1658 C1655 0.950 . S
C1659 C1650 1.390 1_455 S
C1659 H1652 0.950 . S
C1659 C1656 1.387 . S
C1660 C1661 1.387 . S
C1660 H1664 0.950 . S
C1660 C1669 1.390 . S
C1661 C1660 1.387 . S
C1661 C1663 1.387 . S
H1662 C1669 0.950 . S
C1663 C1661 1.387 . S
C1663 C1665 1.390 . S
C1663 H1667 0.950 . S
H1664 C1660 0.950 . S
C1665 C1663 1.390 . S
C1665 C1666 1.387 . S
C1665 H1668 0.950 . S
C1666 C1665 1.387 . S
C1666 C1669 1.387 . S
H1667 C1663 0.950 . S
H1668 C1665 0.950 . S
C1669 C1660 1.390 . S
C1669 H1662 0.950 . S
C1669 C1666 1.387 . S
C1670 C1671 1.387 . S
C1670 H1674 0.950 . S
C1670 C1679 1.390 1_545 S
C1671 C1670 1.387 . S
C1671 C1673 1.387 . S
H1672 C1679 0.950 . S
C1673 C1671 1.387 . S
C1673 C1675 1.390 1_545 S
C1673 H1677 0.950 . S
H1674 C1670 0.950 . S
C1675 C1673 1.390 1_565 S
C1675 C1676 1.387 . S
C1675 H1678 0.950 . S
C1676 C1675 1.387 . S
C1676 C1679 1.387 . S
H1677 C1673 0.950 . S
H1678 C1675 0.950 . S
C1679 C1670 1.390 1_565 S
C1679 H1672 0.950 . S
C1679 C1676 1.387 . S
C1680 C1681 1.387 . S
C1680 H1684 0.950 . S
C1680 C1689 1.390 . S
C1681 C1680 1.387 . S
C1681 C1683 1.387 . S
H1682 C1689 0.950 . S
C1683 C1681 1.387 . S
C1683 C1685 1.390 . S
C1683 H1687 0.950 . S
H1684 C1680 0.950 . S
C1685 C1683 1.390 . S
C1685 C1686 1.387 . S
C1685 H1688 0.950 . S
C1686 C1685 1.387 . S
C1686 C1689 1.387 . S
H1687 C1683 0.950 . S
H1688 C1685 0.950 . S
C1689 C1680 1.390 . S
C1689 H1682 0.950 . S
C1689 C1686 1.387 . S
C1690 C1691 1.387 . S
C1690 H1694 0.950 . S
C1690 C1699 1.390 . S
C1691 C1690 1.387 . S
C1691 C1693 1.387 . S
H1692 C1699 0.950 . S
C1693 C1691 1.387 . S
C1693 C1695 1.390 . S
C1693 H1697 0.950 . S
H1694 C1690 0.950 . S
C1695 C1693 1.390 . S
C1695 C1696 1.387 . S
C1695 H1698 0.950 . S
C1696 C1695 1.387 . S
C1696 C1699 1.387 . S
H1697 C1693 0.950 . S
H1698 C1695 0.950 . S
C1699 C1690 1.390 . S
C1699 H1692 0.950 . S
C1699 C1696 1.387 . S
C1700 C1701 1.387 . S
C1700 H1704 0.950 . S
C1700 C1709 1.390 . S
C1701 C1700 1.387 . S
C1701 C1703 1.387 . S
H1702 C1709 0.950 . S
C1703 C1701 1.387 . S
C1703 C1705 1.390 . S
C1703 H1707 0.950 . S
H1704 C1700 0.950 . S
C1705 C1703 1.390 . S
C1705 C1706 1.387 . S
C1705 H1708 0.950 . S
C1706 C1705 1.387 . S
C1706 C1709 1.387 . S
H1707 C1703 0.950 . S
H1708 C1705 0.950 . S
C1709 C1700 1.390 . S
C1709 H1702 0.950 . S
C1709 C1706 1.387 . S
C1710 C1711 1.387 . S
C1710 H1714 0.950 . S
C1710 C1719 1.390 . S
C1711 C1710 1.387 . S
C1711 C1713 1.387 . S
H1712 C1719 0.950 . S
C1713 C1711 1.387 . S
C1713 C1715 1.390 . S
C1713 H1717 0.950 . S
H1714 C1710 0.950 . S
C1715 C1713 1.390 . S
C1715 C1716 1.387 . S
C1715 H1718 0.950 . S
C1716 C1715 1.387 . S
C1716 C1719 1.387 . S
H1717 C1713 0.950 . S
H1718 C1715 0.950 . S
C1719 C1710 1.390 . S
C1719 H1712 0.950 . S
C1719 C1716 1.387 . S
C1720 C1721 1.387 . S
C1720 H1724 0.950 . S
C1720 C1729 1.390 . S
C1721 C1720 1.387 . S
C1721 C1723 1.387 . S
H1722 C1729 0.950 . S
C1723 C1721 1.387 . S
C1723 C1725 1.390 . S
C1723 H1727 0.950 . S
H1724 C1720 0.950 . S
C1725 C1723 1.390 . S
C1725 C1726 1.387 . S
C1725 H1728 0.950 . S
C1726 C1725 1.387 . S
C1726 C1729 1.387 . S
H1727 C1723 0.950 . S
H1728 C1725 0.950 . S
C1729 C1720 1.390 . S
C1729 H1722 0.950 . S
C1729 C1726 1.387 . S
C1730 C1731 1.387 . S
C1730 H1734 0.950 . S
C1730 C1739 1.390 . S
C1731 C1730 1.387 . S
C1731 C1733 1.387 . S
H1732 C1739 0.950 . S
C1733 C1731 1.387 . S
C1733 C1735 1.390 . S
C1733 H1737 0.950 . S
H1734 C1730 0.950 . S
C1735 C1733 1.390 . S
C1735 C1736 1.387 . S
C1735 H1738 0.950 . S
C1736 C1735 1.387 . S
C1736 C1739 1.387 . S
H1737 C1733 0.950 . S
H1738 C1735 0.950 . S
C1739 C1730 1.390 . S
C1739 H1732 0.950 . S
C1739 C1736 1.387 . S
C1740 C1741 1.387 . S
C1740 H1744 0.950 . S
C1740 C1749 1.390 . S
C1741 C1740 1.387 . S
C1741 C1743 1.387 . S
H1742 C1749 0.950 . S
C1743 C1741 1.387 . S
C1743 C1745 1.390 . S
C1743 H1747 0.950 . S
H1744 C1740 0.950 . S
C1745 C1743 1.390 . S
C1745 C1746 1.387 . S
C1745 H1748 0.950 . S
C1746 C1745 1.387 . S
C1746 C1749 1.387 . S
H1747 C1743 0.950 . S
H1748 C1745 0.950 . S
C1749 C1740 1.390 . S
C1749 H1742 0.950 . S
C1749 C1746 1.387 . S
C1750 C1751 1.387 . S
C1750 H1754 0.950 . S
C1750 C1759 1.390 . S
C1751 C1750 1.387 . S
C1751 C1753 1.387 . S
H1752 C1759 0.950 . S
C1753 C1751 1.387 . S
C1753 C1755 1.390 . S
C1753 H1757 0.950 . S
H1754 C1750 0.950 . S
C1755 C1753 1.390 . S
C1755 C1756 1.387 . S
C1755 H1758 0.950 . S
C1756 C1755 1.387 . S
C1756 C1759 1.387 . S
H1757 C1753 0.950 . S
H1758 C1755 0.950 . S
C1759 C1750 1.390 . S
C1759 H1752 0.950 . S
C1759 C1756 1.387 . S
C1760 C1761 1.387 . S
C1760 H1764 0.950 . S
C1760 C1769 1.390 . S
C1761 C1760 1.387 . S
C1761 C1763 1.387 . S
H1762 C1769 0.950 . S
C1763 C1761 1.387 . S
C1763 C1765 1.390 . S
C1763 H1767 0.950 . S
H1764 C1760 0.950 . S
C1765 C1763 1.390 . S
C1765 C1766 1.387 . S
C1765 H1768 0.950 . S
C1766 C1765 1.387 . S
C1766 C1769 1.387 . S
H1767 C1763 0.950 . S
H1768 C1765 0.950 . S
C1769 C1760 1.390 . S
C1769 H1762 0.950 . S
C1769 C1766 1.387 . S
C1770 C1771 1.387 . S
C1770 H1774 0.950 . S
C1770 C1779 1.390 . S
C1771 C1770 1.387 . S
C1771 C1773 1.387 . S
H1772 C1779 0.950 . S
C1773 C1771 1.387 . S
C1773 C1775 1.390 . S
C1773 H1777 0.950 . S
H1774 C1770 0.950 . S
C1775 C1773 1.390 . S
C1775 C1776 1.387 . S
C1775 H1778 0.950 . S
C1776 C1775 1.387 . S
C1776 C1779 1.387 . S
H1777 C1773 0.950 . S
H1778 C1775 0.950 . S
C1779 C1770 1.390 . S
C1779 H1772 0.950 . S
C1779 C1776 1.387 . S
C1780 C1781 1.387 . S
C1780 H1784 0.950 . S
C1780 C1789 1.390 . S
C1781 C1780 1.387 . S
C1781 C1783 1.387 . S
H1782 C1789 0.950 . S
C1783 C1781 1.387 . S
C1783 C1785 1.390 . S
C1783 H1787 0.950 . S
H1784 C1780 0.950 . S
C1785 C1783 1.390 . S
C1785 C1786 1.387 . S
C1785 H1788 0.950 . S
C1786 C1785 1.387 . S
C1786 C1789 1.387 . S
H1787 C1783 0.950 . S
H1788 C1785 0.950 . S
C1789 C1780 1.390 . S
C1789 H1782 0.950 . S
C1789 C1786 1.387 . S
C1790 C1791 1.387 . S
C1790 H1794 0.950 . S
C1790 C1799 1.390 . S
C1791 C1790 1.387 . S
C1791 C1793 1.387 . S
H1792 C1799 0.950 . S
C1793 C1791 1.387 . S
C1793 C1795 1.390 . S
C1793 H1797 0.950 . S
H1794 C1790 0.950 . S
C1795 C1793 1.390 . S
C1795 C1796 1.387 . S
C1795 H1798 0.950 . S
C1796 C1795 1.387 . S
C1796 C1799 1.387 . S
H1797 C1793 0.950 . S
H1798 C1795 0.950 . S
C1799 C1790 1.390 . S
C1799 H1792 0.950 . S
C1799 C1796 1.387 . S
C721 C1 1.498 . S
C726 C46 1.471 . S
C731 C6 1.470 . S
C736 C21 1.497 1_545 S
C741 C41 1.498 1_655 S
C746 C26 1.471 . S
C751 C61 1.514 . S
C756 C86 1.488 . S
C761 C106 1.488 . S
C766 C81 1.514 1_565 S
C771 C101 1.513 1_455 S
C776 C66 1.486 . S
C781 C129 1.498 . S
C786 C176 1.471 . S
C791 C149 1.498 1_565 S
C796 C136 1.471 . S
C801 C169 1.497 1_455 S
C806 C156 1.470 . S
C811 C189 1.514 . S
C816 C216 1.488 . S
C821 C236 1.486 . S
C826 C209 1.513 1_545 S
C831 C196 1.486 . S
C836 C229 1.513 1_655 S
C841 C286 1.490 . S
C846 C241 1.519 . S
C851 C261 1.519 . S
C856 C246 1.488 . S
C861 C266 1.490 . S
C866 C281 1.519 . S
C871 C301 1.524 . S
C876 C326 1.495 . S
C881 C346 1.497 . S
C886 C321 1.525 . S
C891 C306 1.497 . S
C896 C341 1.525 . S
C901 C369 1.526 . S
C906 C416 1.490 . S
C911 C389 1.526 . S
C916 C376 1.490 . S
C921 C396 1.489 . S
C926 C409 1.526 . S
C931 C456 1.427 1_554 S
C936 C429 1.458 . S
C941 C449 1.457 . S
C946 C476 1.425 1_554 S
C951 C436 1.427 1_554 S
C956 C469 1.458 . S
C961 C481 1.526 . S
C966 C526 1.491 . S
C971 C501 1.526 . S
C976 C486 1.491 . S
C981 C521 1.526 . S
C986 C506 1.491 . S
C991 C541 1.458 . S
C996 C566 1.427 1_556 S
C1001 C561 1.457 . S
C1006 C586 1.425 1_556 S
C1011 C581 1.458 . S
C1016 C546 1.427 1_556 S
C1021 C609 1.519 . S
C1026 C656 1.488 . S
C1031 C629 1.519 . S
C1036 C616 1.488 . S
C1041 C636 1.490 . S
C1046 C649 1.519 . S
C1051 C669 1.524 . S
C1056 C696 1.495 . S
C1061 C689 1.524 . S
C1066 C716 1.495 . S
C1071 C676 1.495 . S
C1076 C709 1.524 . S
C1081 C16 1.508 . S
C1086 C401 1.534 . S
C1091 C361 1.533 1_565 S
C1096 C36 1.509 . S
C1101 C56 1.509 . S
C1106 C381 1.533 1_455 S
C1111 C76 1.360 . S
C1116 C681 1.388 . S
C1121 C701 1.390 1_545 S
C1126 C96 1.357 . S
C1131 C116 1.360 . S
C1136 C661 1.388 1_655 S
C1141 C529 1.534 . S
C1146 C126 1.507 . S
C1151 C146 1.509 . S
C1156 C489 1.533 1_545 S
C1161 C166 1.508 . S
C1166 C509 1.534 1_655 S
C1171 C329 1.388 . S
C1176 C186 1.360 . S
C1181 C349 1.388 1_565 S
C1186 C206 1.359 . S
C1191 C309 1.390 1_455 S
C1196 C226 1.356 . S
C1201 C256 1.440 . S
C1206 C641 1.466 . S
C1211 C276 1.440 . S
C1216 C601 1.467 . S
C1221 C621 1.468 . S
C1226 C296 1.438 . S
C1231 C201 1.407 . S
C1236 C316 1.372 . S
C1241 C221 1.407 . S
C1246 C336 1.372 . S
C1251 C181 1.406 . S
C1256 C356 1.375 . S
C1261 C49 1.522 . S
C1266 C366 1.496 . S
C1271 C386 1.495 . S
C1276 C9 1.524 . S
C1281 C406 1.493 . S
C1286 C29 1.524 . S
C1291 C569 1.402 . S
C1296 C426 1.351 1_556 S
C1301 C589 1.402 . S
C1306 C446 1.355 1_556 S
C1311 C466 1.353 1_556 S
C1316 C549 1.404 . S
C1321 C161 1.522 . S
C1326 C496 1.496 . S
C1331 C121 1.524 . S
C1336 C516 1.494 . S
C1341 C141 1.522 . S
C1346 C536 1.496 . S
C1351 C556 1.355 1_554 S
C1356 C441 1.401 . S
C1361 C461 1.403 . S
C1366 C576 1.355 1_554 S
C1371 C596 1.355 1_554 S
C1376 C421 1.401 . S
C1381 C606 1.437 . S
C1386 C289 1.468 . S
C1391 C626 1.438 . S
C1396 C249 1.466 . S
C1401 C646 1.437 . S
C1406 C269 1.467 . S
C1411 C666 1.372 . S
C1416 C89 1.407 . S
C1421 C109 1.405 . S
C1426 C686 1.375 . S
C1431 C69 1.405 . S
C1436 C706 1.375 . S
C1441 C588 1.897 . S
C1446 C8 1.906 . S
C1451 C548 1.895 . S
C1456 C28 1.903 . S
C1461 C48 1.908 . S
C1466 C568 1.890 . S
C1471 C268 2.084 . S
C1476 C68 2.075 . S
C1481 C88 2.076 . S
C1486 C288 2.086 . S
C1491 C108 2.075 . S
C1496 C248 2.084 . S
C1501 C139 1.911 . S
C1506 C479 1.892 . S
C1511 C159 1.908 . S
C1516 C439 1.891 . S
C1521 C179 1.909 . S
C1526 C459 1.890 . S
C1531 C639 2.084 . S
C1536 C199 2.076 . S
C1541 C659 2.085 . S
C1546 C219 2.078 . S
C1551 C619 2.086 . S
C1556 C239 2.078 . S
C1561 C308 2.126 . S
C1566 C508 2.139 . S
C1571 C328 2.124 . S
C1576 C528 2.136 . S
C1581 C348 2.124 . S
C1586 C488 2.137 . S
C1591 C379 2.137 . S
C1596 C719 2.124 . S
C1601 C679 2.126 . S
C1606 C399 2.137 . S
C1611 C419 2.137 . S
C1616 C699 2.124 . S
C1621 C99 1.484 . S
C1626 C19 1.487 . S
C1631 C119 1.482 . S
C1636 C39 1.487 . S
C1641 C79 1.484 . S
C1646 C59 1.487 . S
C1651 C128 1.488 . S
C1656 C208 1.483 . S
C1661 C228 1.485 . S
C1666 C148 1.486 . S
C1671 C168 1.487 . S
C1676 C188 1.484 . S
C1681 C339 1.545 . S
C1686 C259 1.550 . S
C1691 C359 1.547 . S
C1696 C279 1.547 . S
C1701 C319 1.545 . S
C1706 C299 1.548 . S
C1711 C448 1.631 . S
C1716 C368 1.656 . S
C1721 C388 1.656 . S
C1726 C468 1.631 . S
C1731 C408 1.655 . S
C1736 C428 1.633 . S
C1741 C499 1.655 . S
C1746 C579 1.632 . S
C1751 C599 1.631 . S
C1756 C519 1.657 . S
C1761 C539 1.654 . S
C1766 C559 1.633 . S
C1771 C608 1.549 . S
C1776 C688 1.546 . S
C1781 C708 1.544 . S
C1786 C628 1.549 . S
C1791 C648 1.549 . S
C1796 C668 1.546 . S
