# Generated by pormake.
# Topology umk, (4)-cn, num edge types: 1
# Building blocks:
#     Node 0, Type 0, BuildingBlock: GALJAG_clean_sbu_0, # of connection points: 4
#     Node 1, Type 0, BuildingBlock: GALJAG_clean_sbu_0, # of connection points: 4
#     Node 2, Type 0, BuildingBlock: GALJAG_clean_sbu_0, # of connection points: 4
#     Node 3, Type 0, BuildingBlock: GALJAG_clean_sbu_0, # of connection points: 4
#     Node 4, Type 0, BuildingBlock: GALJAG_clean_sbu_0, # of connection points: 4
#     Node 5, Type 0, BuildingBlock: GALJAG_clean_sbu_0, # of connection points: 4
#     Node 6, Type 0, BuildingBlock: GALJAG_clean_sbu_0, # of connection points: 4
#     Node 7, Type 0, BuildingBlock: GALJAG_clean_sbu_0, # of connection points: 4
#     Node 8, Type 0, BuildingBlock: GALJAG_clean_sbu_0, # of connection points: 4
#     Node 9, Type 0, BuildingBlock: GALJAG_clean_sbu_0, # of connection points: 4
#     Node 10, Type 0, BuildingBlock: GALJAG_clean_sbu_0, # of connection points: 4
#     Node 11, Type 0, BuildingBlock: GALJAG_clean_sbu_0, # of connection points: 4
#     Node 12, Type 0, BuildingBlock: GALJAG_clean_sbu_0, # of connection points: 4
#     Node 13, Type 0, BuildingBlock: GALJAG_clean_sbu_0, # of connection points: 4
#     Node 14, Type 0, BuildingBlock: GALJAG_clean_sbu_0, # of connection points: 4
#     Node 15, Type 0, BuildingBlock: GALJAG_clean_sbu_0, # of connection points: 4
#     Node 16, Type 0, BuildingBlock: GALJAG_clean_sbu_0, # of connection points: 4
#     Node 17, Type 0, BuildingBlock: GALJAG_clean_sbu_0, # of connection points: 4
#     Node 18, Type 0, BuildingBlock: GALJAG_clean_sbu_0, # of connection points: 4
#     Node 19, Type 0, BuildingBlock: GALJAG_clean_sbu_0, # of connection points: 4
#     Node 20, Type 0, BuildingBlock: GALJAG_clean_sbu_0, # of connection points: 4
#     Node 21, Type 0, BuildingBlock: GALJAG_clean_sbu_0, # of connection points: 4
#     Node 22, Type 0, BuildingBlock: GALJAG_clean_sbu_0, # of connection points: 4
#     Node 23, Type 0, BuildingBlock: GALJAG_clean_sbu_0, # of connection points: 4
#     Edge 24, Type (0, 0), BuildingBlock: MIFKUJ_clean_linker_0, # of connection points: 2
#     Edge 25, Type (0, 0), BuildingBlock: MIFKUJ_clean_linker_0, # of connection points: 2
#     Edge 26, Type (0, 0), BuildingBlock: MIFKUJ_clean_linker_0, # of connection points: 2
#     Edge 27, Type (0, 0), BuildingBlock: MIFKUJ_clean_linker_0, # of connection points: 2
#     Edge 28, Type (0, 0), BuildingBlock: MIFKUJ_clean_linker_0, # of connection points: 2
#     Edge 29, Type (0, 0), BuildingBlock: MIFKUJ_clean_linker_0, # of connection points: 2
#     Edge 30, Type (0, 0), BuildingBlock: MIFKUJ_clean_linker_0, # of connection points: 2
#     Edge 31, Type (0, 0), BuildingBlock: MIFKUJ_clean_linker_0, # of connection points: 2
#     Edge 32, Type (0, 0), BuildingBlock: MIFKUJ_clean_linker_0, # of connection points: 2
#     Edge 33, Type (0, 0), BuildingBlock: MIFKUJ_clean_linker_0, # of connection points: 2
#     Edge 34, Type (0, 0), BuildingBlock: MIFKUJ_clean_linker_0, # of connection points: 2
#     Edge 35, Type (0, 0), BuildingBlock: MIFKUJ_clean_linker_0, # of connection points: 2
#     Edge 36, Type (0, 0), BuildingBlock: MIFKUJ_clean_linker_0, # of connection points: 2
#     Edge 37, Type (0, 0), BuildingBlock: MIFKUJ_clean_linker_0, # of connection points: 2
#     Edge 38, Type (0, 0), BuildingBlock: MIFKUJ_clean_linker_0, # of connection points: 2
#     Edge 39, Type (0, 0), BuildingBlock: MIFKUJ_clean_linker_0, # of connection points: 2
#     Edge 40, Type (0, 0), BuildingBlock: MIFKUJ_clean_linker_0, # of connection points: 2
#     Edge 41, Type (0, 0), BuildingBlock: MIFKUJ_clean_linker_0, # of connection points: 2
#     Edge 42, Type (0, 0), BuildingBlock: MIFKUJ_clean_linker_0, # of connection points: 2
#     Edge 43, Type (0, 0), BuildingBlock: MIFKUJ_clean_linker_0, # of connection points: 2
#     Edge 44, Type (0, 0), BuildingBlock: MIFKUJ_clean_linker_0, # of connection points: 2
#     Edge 45, Type (0, 0), BuildingBlock: MIFKUJ_clean_linker_0, # of connection points: 2
#     Edge 46, Type (0, 0), BuildingBlock: MIFKUJ_clean_linker_0, # of connection points: 2
#     Edge 47, Type (0, 0), BuildingBlock: MIFKUJ_clean_linker_0, # of connection points: 2
#     Edge 48, Type (0, 0), BuildingBlock: MIFKUJ_clean_linker_0, # of connection points: 2
#     Edge 49, Type (0, 0), BuildingBlock: MIFKUJ_clean_linker_0, # of connection points: 2
#     Edge 50, Type (0, 0), BuildingBlock: MIFKUJ_clean_linker_0, # of connection points: 2
#     Edge 51, Type (0, 0), BuildingBlock: MIFKUJ_clean_linker_0, # of connection points: 2
#     Edge 52, Type (0, 0), BuildingBlock: MIFKUJ_clean_linker_0, # of connection points: 2
#     Edge 53, Type (0, 0), BuildingBlock: MIFKUJ_clean_linker_0, # of connection points: 2
#     Edge 54, Type (0, 0), BuildingBlock: MIFKUJ_clean_linker_0, # of connection points: 2
#     Edge 55, Type (0, 0), BuildingBlock: MIFKUJ_clean_linker_0, # of connection points: 2
#     Edge 56, Type (0, 0), BuildingBlock: MIFKUJ_clean_linker_0, # of connection points: 2
#     Edge 57, Type (0, 0), BuildingBlock: MIFKUJ_clean_linker_0, # of connection points: 2
#     Edge 58, Type (0, 0), BuildingBlock: MIFKUJ_clean_linker_0, # of connection points: 2
#     Edge 59, Type (0, 0), BuildingBlock: MIFKUJ_clean_linker_0, # of connection points: 2
#     Edge 60, Type (0, 0), BuildingBlock: MIFKUJ_clean_linker_0, # of connection points: 2
#     Edge 61, Type (0, 0), BuildingBlock: MIFKUJ_clean_linker_0, # of connection points: 2
#     Edge 62, Type (0, 0), BuildingBlock: MIFKUJ_clean_linker_0, # of connection points: 2
#     Edge 63, Type (0, 0), BuildingBlock: MIFKUJ_clean_linker_0, # of connection points: 2
#     Edge 64, Type (0, 0), BuildingBlock: MIFKUJ_clean_linker_0, # of connection points: 2
#     Edge 65, Type (0, 0), BuildingBlock: MIFKUJ_clean_linker_0, # of connection points: 2
#     Edge 66, Type (0, 0), BuildingBlock: MIFKUJ_clean_linker_0, # of connection points: 2
#     Edge 67, Type (0, 0), BuildingBlock: MIFKUJ_clean_linker_0, # of connection points: 2
#     Edge 68, Type (0, 0), BuildingBlock: MIFKUJ_clean_linker_0, # of connection points: 2
#     Edge 69, Type (0, 0), BuildingBlock: MIFKUJ_clean_linker_0, # of connection points: 2
#     Edge 70, Type (0, 0), BuildingBlock: MIFKUJ_clean_linker_0, # of connection points: 2
#     Edge 71, Type (0, 0), BuildingBlock: MIFKUJ_clean_linker_0, # of connection points: 2
# Relax obj value: 0.088
# Max RMSD: 0.064
# Mean RMSD: 0.064
data_MOF--net-umk--node1-GALJAG_clean_sbu_0--edge1-MIFKUJ_clean_linker_0
_symmetry_space_group_name_H-M    P1
_symmetry_Int_Tables_number       1
_symmetry_cell_setting            triclinic
loop_
_symmetry_equiv_pos_as_xyz
'x, y, z'
_cell_length_a     82.615629
_cell_length_b     82.614573
_cell_length_c     61.061782
_cell_angle_alpha  89.989247
_cell_angle_beta   90.002808
_cell_angle_gamma 119.9994
loop_
_atom_site_label
_atom_site_type_symbol
_atom_site_fract_x
_atom_site_fract_y
_atom_site_fract_z
_atom_type_partial_charge
In0 In 0.33219 0.46833 0.08891 0.0
O1 O 0.31613 0.45942 0.05673 0.0
O2 O 0.30186 0.46135 0.08463 0.0
C3 C 0.34365 0.44316 0.08293 0.0
C4 C 0.35899 0.50184 0.07392 0.0
C5 C 0.32717 0.47172 0.13213 0.0
O6 O 0.32738 0.43849 0.08931 0.0
O7 O 0.35399 0.46039 0.0794 0.0
O8 O 0.33166 0.48493 0.11877 0.0
O9 O 0.32518 0.45693 0.12371 0.0
C10 C 0.30128 0.45791 0.06443 0.0
O11 O 0.36212 0.49289 0.08849 0.0
O12 O 0.34227 0.49411 0.06741 0.0
In13 In 0.86212 0.32958 0.59044 0.0
O14 O 0.85442 0.30419 0.56891 0.0
O15 O 0.83231 0.30746 0.58179 0.0
C16 C 0.89942 0.34367 0.59264 0.0
C17 C 0.859 0.35432 0.5645 0.0
C18 C 0.85394 0.32428 0.63359 0.0
O19 O 0.88833 0.3269 0.5874 0.0
O20 O 0.8917 0.3532 0.5966 0.0
O21 O 0.85383 0.33723 0.62277 0.0
O22 O 0.85774 0.31371 0.62254 0.0
C23 C 0.83704 0.29796 0.56999 0.0
O24 O 0.85341 0.3514 0.58411 0.0
O25 O 0.86612 0.34475 0.55801 0.0
In26 In 0.52818 0.86017 0.08922 0.0
O27 O 0.54685 0.85039 0.07326 0.0
O28 O 0.51798 0.83061 0.07722 0.0
C29 C 0.55147 0.8975 0.08918 0.0
C30 C 0.50067 0.85925 0.06448 0.0
C31 C 0.52611 0.85102 0.13197 0.0
O32 O 0.55469 0.88659 0.07795 0.0
O33 O 0.53668 0.88956 0.10036 0.0
O34 O 0.51188 0.84765 0.12086 0.0
O35 O 0.54126 0.85863 0.12139 0.0
C36 C 0.5337 0.83387 0.07026 0.0
O37 O 0.49904 0.85653 0.08491 0.0
O38 O 0.51609 0.86239 0.05662 0.0
In39 In 0.66883 0.53222 0.59363 0.0
O40 O 0.69681 0.55082 0.57651 0.0
O41 O 0.68804 0.52205 0.58103 0.0
C42 C 0.65372 0.55466 0.59308 0.0
C43 C 0.64272 0.50402 0.56931 0.0
C44 C 0.67654 0.53037 0.63631 0.0
O45 O 0.66926 0.55938 0.58421 0.0
O46 O 0.64608 0.53889 0.60224 0.0
O47 O 0.66515 0.5162 0.62549 0.0
O48 O 0.68425 0.54539 0.62553 0.0
C49 C 0.70021 0.53768 0.57348 0.0
O50 O 0.64337 0.50309 0.58991 0.0
O51 O 0.65522 0.51914 0.56103 0.0
In52 In 0.13906 0.66831 0.09192 0.0
O53 O 0.14538 0.69085 0.06651 0.0
O54 O 0.16822 0.6928 0.08469 0.0
C55 C 0.10163 0.65388 0.09212 0.0
C56 C 0.14323 0.64265 0.06905 0.0
C57 C 0.14793 0.6756 0.13479 0.0
O58 O 0.11287 0.67095 0.08851 0.0
O59 O 0.10926 0.64421 0.09563 0.0
O60 O 0.15259 0.66582 0.12344 0.0
O61 O 0.13918 0.68202 0.12441 0.0
C62 C 0.16278 0.69955 0.06976 0.0
O63 O 0.14349 0.64313 0.08971 0.0
O64 O 0.14089 0.65506 0.06005 0.0
In65 In 0.47379 0.1417 0.58773 0.0
O66 O 0.50355 0.14698 0.58417 0.0
O67 O 0.48627 0.13876 0.55582 0.0
C68 C 0.47533 0.15129 0.63031 0.0
C69 C 0.46926 0.16799 0.56697 0.0
C70 C 0.45058 0.10426 0.58763 0.0
O71 O 0.4891 0.15223 0.62026 0.0
O72 O 0.46081 0.14574 0.61882 0.0
O73 O 0.44669 0.11527 0.57767 0.0
O74 O 0.46591 0.11216 0.59775 0.0
C75 C 0.50201 0.14325 0.56396 0.0
O76 O 0.45589 0.15157 0.56992 0.0
O77 O 0.48468 0.17117 0.57489 0.0
In78 In 0.5287 0.66433 0.91011 0.0
O79 O 0.54767 0.69153 0.92842 0.0
O80 O 0.51963 0.68459 0.922 0.0
C81 C 0.5519 0.6503 0.90774 0.0
C82 C 0.50227 0.63997 0.93775 0.0
C83 C 0.52475 0.66931 0.8671 0.0
O84 O 0.55716 0.66647 0.91511 0.0
O85 O 0.53512 0.64143 0.90148 0.0
O86 O 0.51246 0.65567 0.87791 0.0
O87 O 0.53886 0.6806 0.87807 0.0
C88 C 0.53509 0.69584 0.93068 0.0
O89 O 0.49828 0.64429 0.91949 0.0
O90 O 0.51951 0.64778 0.94187 0.0
In91 In 0.86522 0.53147 0.41515 0.0
O92 O 0.86206 0.50233 0.4158 0.0
O93 O 0.8624 0.515 0.4462 0.0
C94 C 0.85849 0.53229 0.37187 0.0
C95 C 0.8403 0.53867 0.43505 0.0
C96 C 0.90254 0.55309 0.41967 0.0
O97 O 0.84923 0.51794 0.3835 0.0
O98 O 0.87082 0.54627 0.3821 0.0
O99 O 0.89133 0.5581 0.42671 0.0
O100 O 0.89488 0.5373 0.41046 0.0
C101 C 0.86124 0.50102 0.43641 0.0
O102 O 0.85753 0.55055 0.43432 0.0
O103 O 0.83572 0.52356 0.42523 0.0
In104 In 0.33203 0.86487 0.90836 0.0
O105 O 0.35704 0.86019 0.91175 0.0
O106 O 0.34699 0.86681 0.94038 0.0
C107 C 0.32444 0.85658 0.86555 0.0
C108 C 0.30069 0.83898 0.92868 0.0
C109 C 0.34487 0.90198 0.90683 0.0
O110 O 0.33523 0.85275 0.87613 0.0
O111 O 0.31716 0.86415 0.8767 0.0
O112 O 0.3294 0.89064 0.91548 0.0
O113 O 0.35384 0.89461 0.89916 0.0
C114 C 0.3587 0.86305 0.93213 0.0
O115 O 0.30779 0.85627 0.9321 0.0
O116 O 0.30917 0.83474 0.91465 0.0
In117 In 0.47082 0.338 0.40885 0.0
O118 O 0.45354 0.30977 0.42582 0.0
O119 O 0.48245 0.31971 0.42063 0.0
C120 C 0.44463 0.34846 0.4086 0.0
C121 C 0.49795 0.36413 0.43447 0.0
C122 C 0.47432 0.33407 0.3654 0.0
O123 O 0.44189 0.3336 0.41776 0.0
O124 O 0.46043 0.35787 0.39974 0.0
O125 O 0.48514 0.34869 0.37587 0.0
O126 O 0.46193 0.32113 0.37693 0.0
C127 C 0.46718 0.30709 0.42846 0.0
O128 O 0.50112 0.36022 0.41555 0.0
O129 O 0.4811 0.35492 0.44043 0.0
In130 In 0.13795 0.47032 0.91163 0.0
O131 O 0.14836 0.50142 0.91714 0.0
O132 O 0.13748 0.48315 0.94443 0.0
C133 C 0.14559 0.47295 0.86838 0.0
C134 C 0.16127 0.46082 0.93118 0.0
C135 C 0.10034 0.44846 0.91091 0.0
O136 O 0.14663 0.48636 0.87939 0.0
O137 O 0.14095 0.45827 0.87925 0.0
O138 O 0.11103 0.44209 0.91509 0.0
O139 O 0.1086 0.46573 0.90695 0.0
C140 C 0.14448 0.49962 0.9373 0.0
O141 O 0.144 0.45271 0.93522 0.0
O142 O 0.16681 0.47359 0.91696 0.0
In143 In 0.66852 0.13547 0.4066 0.0
O144 O 0.6932 0.14257 0.42917 0.0
O145 O 0.69172 0.16505 0.41431 0.0
C146 C 0.65357 0.09798 0.40521 0.0
C147 C 0.64352 0.13869 0.43191 0.0
C148 C 0.67463 0.1449 0.36381 0.0
O149 O 0.67059 0.10887 0.40959 0.0
O150 O 0.64431 0.10601 0.40145 0.0
O151 O 0.66397 0.14804 0.37561 0.0
O152 O 0.68247 0.13724 0.37368 0.0
C153 C 0.70037 0.16003 0.42712 0.0
O154 O 0.64419 0.14081 0.41139 0.0
O155 O 0.65548 0.13503 0.43963 0.0
In156 In 0.67012 0.53064 0.9133 0.0
O157 O 0.6923 0.54681 0.93914 0.0
O158 O 0.69567 0.52747 0.91951 0.0
C159 C 0.65443 0.55249 0.91111 0.0
C160 C 0.64567 0.50098 0.93742 0.0
C161 C 0.67737 0.52928 0.87048 0.0
O162 O 0.67126 0.55881 0.91659 0.0
O163 O 0.64565 0.53529 0.90672 0.0
O164 O 0.6659 0.515 0.88112 0.0
O165 O 0.68542 0.54417 0.88155 0.0
C166 C 0.70186 0.53915 0.93498 0.0
O167 O 0.64833 0.4996 0.91732 0.0
O168 O 0.65532 0.51718 0.94521 0.0
In169 In 0.13948 0.6658 0.41163 0.0
O170 O 0.15882 0.69709 0.41719 0.0
O171 O 0.14882 0.67945 0.44516 0.0
C172 C 0.10225 0.65235 0.41521 0.0
C173 C 0.14636 0.63906 0.42684 0.0
C174 C 0.14923 0.67444 0.36909 0.0
O175 O 0.11403 0.66646 0.42582 0.0
O176 O 0.10927 0.64531 0.40282 0.0
O177 O 0.15472 0.66532 0.3804 0.0
O178 O 0.13923 0.67945 0.37935 0.0
C179 C 0.15878 0.6958 0.43779 0.0
O180 O 0.15882 0.65609 0.42625 0.0
O181 O 0.13078 0.63557 0.4192 0.0
In182 In 0.46762 0.13765 0.90523 0.0
O183 O 0.4481 0.1461 0.92208 0.0
O184 O 0.47737 0.16379 0.9258 0.0
C185 C 0.442 0.10108 0.90168 0.0
C186 C 0.49518 0.13676 0.92797 0.0
C187 C 0.47242 0.15001 0.86338 0.0
O188 O 0.44037 0.1117 0.91527 0.0
O189 O 0.45646 0.10896 0.88986 0.0
O190 O 0.48366 0.14623 0.87291 0.0
O191 O 0.45893 0.1479 0.87507 0.0
C192 C 0.46124 0.16073 0.93049 0.0
O193 O 0.49828 0.14971 0.9147 0.0
O194 O 0.47827 0.1242 0.92959 0.0
In195 In 0.33015 0.46928 0.40781 0.0
O196 O 0.31612 0.4638 0.44121 0.0
O197 O 0.29906 0.45882 0.41316 0.0
C198 C 0.34209 0.44426 0.40834 0.0
C199 C 0.35722 0.50178 0.42499 0.0
C200 C 0.32311 0.47248 0.36526 0.0
O201 O 0.32798 0.44176 0.41913 0.0
O202 O 0.34999 0.45923 0.39749 0.0
O203 O 0.33205 0.48653 0.37748 0.0
O204 O 0.31743 0.45698 0.37463 0.0
C205 C 0.30009 0.45894 0.43378 0.0
O206 O 0.34102 0.49892 0.42098 0.0
O207 O 0.35983 0.48849 0.41987 0.0
In208 In 0.86223 0.33186 0.91174 0.0
O209 O 0.85369 0.3046 0.93002 0.0
O210 O 0.83229 0.31025 0.92027 0.0
C211 C 0.89984 0.34783 0.9131 0.0
C212 C 0.85717 0.35546 0.93754 0.0
C213 C 0.8553 0.32662 0.86828 0.0
O214 O 0.88913 0.33126 0.91938 0.0
O215 O 0.89158 0.35614 0.90616 0.0
O216 O 0.85367 0.33873 0.87908 0.0
O217 O 0.86011 0.31688 0.87945 0.0
C218 C 0.83647 0.29935 0.92998 0.0
O219 O 0.85425 0.35429 0.91716 0.0
O220 O 0.86263 0.34472 0.9449 0.0
In221 In 0.52718 0.86052 0.40942 0.0
O222 O 0.49789 0.85672 0.41222 0.0
O223 O 0.51227 0.85824 0.44167 0.0
C224 C 0.52603 0.85249 0.36632 0.0
C225 C 0.53475 0.83599 0.42953 0.0
C226 C 0.55002 0.89797 0.41014 0.0
O227 O 0.51145 0.84716 0.37764 0.0
O228 O 0.54109 0.86155 0.37682 0.0
O229 O 0.55574 0.88674 0.41446 0.0
O230 O 0.53287 0.8903 0.40562 0.0
C231 C 0.49767 0.85651 0.43289 0.0
O232 O 0.54452 0.85342 0.43233 0.0
O233 O 0.52132 0.83095 0.41632 0.0
In234 In 0.4677 0.33192 0.08635 0.0
O235 O 0.49841 0.35485 0.08478 0.0
O236 O 0.48384 0.34418 0.05476 0.0
C237 C 0.47148 0.33108 0.1303 0.0
C238 C 0.46024 0.29928 0.06794 0.0
C239 C 0.44216 0.34304 0.08103 0.0
O240 O 0.47838 0.34609 0.11953 0.0
O241 O 0.46287 0.31647 0.11891 0.0
O242 O 0.43824 0.32789 0.0903 0.0
O243 O 0.45874 0.35234 0.07432 0.0
C244 C 0.49895 0.35551 0.06411 0.0
O245 O 0.4489 0.3053 0.06712 0.0
O246 O 0.47513 0.30956 0.07834 0.0
In247 In 0.13591 0.46775 0.59076 0.0
O248 O 0.15022 0.49882 0.58163 0.0
O249 O 0.12822 0.47934 0.56131 0.0
C250 C 0.1443 0.47177 0.63381 0.0
C251 C 0.15902 0.45903 0.56916 0.0
C252 C 0.09889 0.44405 0.59497 0.0
O253 O 0.14305 0.48407 0.62286 0.0
O254 O 0.14159 0.45763 0.62296 0.0
O255 O 0.11007 0.43852 0.58949 0.0
O256 O 0.10641 0.4614 0.59827 0.0
C257 C 0.14031 0.49616 0.56481 0.0
O258 O 0.14174 0.45111 0.56515 0.0
O259 O 0.16448 0.47098 0.58431 0.0
In260 In 0.66348 0.13468 0.08761 0.0
O261 O 0.69178 0.14344 0.07121 0.0
O262 O 0.68068 0.16162 0.06874 0.0
C263 C 0.65121 0.09775 0.08934 0.0
C264 C 0.63539 0.13488 0.06522 0.0
C265 C 0.67051 0.14531 0.13007 0.0
O266 O 0.66346 0.10842 0.07574 0.0
O267 O 0.64539 0.10579 0.10206 0.0
O268 O 0.65639 0.14352 0.12 0.0
O269 O 0.68128 0.14206 0.11865 0.0
C270 C 0.69375 0.1586 0.06389 0.0
O271 O 0.64545 0.14756 0.07866 0.0
O272 O 0.63939 0.1221 0.0632 0.0
In273 In 0.52617 0.66455 0.58932 0.0
O274 O 0.49526 0.64759 0.57974 0.0
O275 O 0.51501 0.64527 0.55974 0.0
C276 C 0.52289 0.66912 0.63258 0.0
C277 C 0.53418 0.69649 0.56843 0.0
C278 C 0.54965 0.65087 0.59183 0.0
O279 O 0.51061 0.65537 0.62191 0.0
O280 O 0.53668 0.68068 0.62136 0.0
O281 O 0.55487 0.66717 0.58489 0.0
O282 O 0.53272 0.64166 0.59755 0.0
C283 C 0.49813 0.64041 0.56302 0.0
O284 O 0.54461 0.68942 0.56721 0.0
O285 O 0.52004 0.68767 0.58051 0.0
In286 In 0.86474 0.52935 0.09355 0.0
O287 O 0.8525 0.49769 0.08956 0.0
O288 O 0.86581 0.51519 0.06217 0.0
C289 C 0.85754 0.5266 0.13692 0.0
C290 C 0.84155 0.53775 0.07183 0.0
C291 C 0.90204 0.55328 0.09449 0.0
O292 O 0.8621 0.51607 0.12702 0.0
O293 O 0.85629 0.53836 0.12489 0.0
O294 O 0.89043 0.5589 0.09272 0.0
O295 O 0.89482 0.53581 0.09572 0.0
C296 C 0.8574 0.49884 0.06979 0.0
O297 O 0.85858 0.54474 0.06689 0.0
O298 O 0.83625 0.5268 0.08805 0.0
In299 In 0.33096 0.866 0.58764 0.0
O300 O 0.35359 0.85793 0.5836 0.0
O301 O 0.34424 0.86554 0.55512 0.0
C302 C 0.32477 0.85935 0.63098 0.0
C303 C 0.29791 0.84148 0.5692 0.0
C304 C 0.34743 0.90365 0.58695 0.0
O305 O 0.33423 0.85408 0.61997 0.0
O306 O 0.31819 0.86772 0.62006 0.0
O307 O 0.33092 0.89317 0.58033 0.0
O308 O 0.3555 0.89513 0.59393 0.0
C309 C 0.35499 0.86038 0.56313 0.0
O310 O 0.3061 0.85878 0.56526 0.0
O311 O 0.30621 0.83661 0.58273 0.0
H312 H 0.31543 0.44432 0.16291 0.0
H313 H 0.31217 0.44709 0.20226 0.0
H314 H 0.33006 0.50556 0.19439 0.0
H315 H 0.33344 0.5029 0.15483 0.0
H316 H 0.34826 0.49914 0.22799 0.0
H317 H 0.28506 0.47545 0.20511 0.0
H318 H 0.25584 0.45417 0.1857 0.0
H319 H 0.25064 0.40782 0.22319 0.0
H320 H 0.27998 0.42878 0.24261 0.0
H321 H 0.33193 0.50397 0.34155 0.0
H322 H 0.32987 0.50638 0.30176 0.0
H323 H 0.30728 0.44684 0.29577 0.0
H324 H 0.30873 0.44429 0.33542 0.0
H325 H 0.28994 0.4575 0.2686 0.0
H326 H 0.3546 0.47939 0.28715 0.0
H327 H 0.38447 0.49959 0.30603 0.0
H328 H 0.38746 0.54811 0.27627 0.0
H329 H 0.35747 0.5282 0.25743 0.0
C330 C 0.31857 0.45775 0.16952 0.0
C331 C 0.32467 0.4734 0.15581 0.0
C332 C 0.31661 0.45929 0.19199 0.0
C333 C 0.32067 0.47648 0.2012 0.0
C334 C 0.32678 0.49215 0.18757 0.0
C335 C 0.32867 0.4906 0.16501 0.0
C336 C 0.31922 0.47809 0.2252 0.0
C337 C 0.33541 0.49034 0.23687 0.0
C338 C 0.30255 0.46632 0.23675 0.0
C339 C 0.2848 0.45369 0.22522 0.0
C340 C 0.27776 0.4607 0.20911 0.0
C341 C 0.26116 0.4487 0.19813 0.0
C342 C 0.25141 0.42965 0.20319 0.0
C343 C 0.25821 0.42258 0.21929 0.0
C344 C 0.27481 0.43452 0.23031 0.0
C345 C 0.32633 0.49139 0.33173 0.0
C346 C 0.32059 0.47396 0.34155 0.0
C347 C 0.32525 0.49279 0.309 0.0
C348 C 0.3187 0.47683 0.29573 0.0
C349 C 0.31237 0.45935 0.30565 0.0
C350 C 0.31326 0.45792 0.32833 0.0
C351 C 0.31911 0.47823 0.27146 0.0
C352 C 0.30272 0.46655 0.25973 0.0
C353 C 0.33566 0.49037 0.25985 0.0
C354 C 0.3537 0.50234 0.2711 0.0
C355 C 0.36156 0.49438 0.28477 0.0
C356 C 0.37852 0.50577 0.29544 0.0
C357 C 0.38782 0.52513 0.29241 0.0
C358 C 0.38021 0.53312 0.27864 0.0
C359 C 0.36324 0.52179 0.26796 0.0
H360 H 0.40095 0.53392 0.30068 0.0
H361 H 0.23856 0.42038 0.19466 0.0
H362 H 0.84949 0.34772 0.66113 0.0
H363 H 0.84784 0.34638 0.70112 0.0
H364 H 0.85078 0.29571 0.70026 0.0
H365 H 0.85243 0.29695 0.66017 0.0
H366 H 0.82503 0.29437 0.73047 0.0
H367 H 0.88889 0.33468 0.71126 0.0
H368 H 0.91542 0.36082 0.69229 0.0
H369 H 0.90293 0.39979 0.7237 0.0
H370 H 0.87611 0.37383 0.74263 0.0
H371 H 0.85485 0.29962 0.84202 0.0
H372 H 0.85238 0.29761 0.802 0.0
H373 H 0.84788 0.34741 0.80042 0.0
H374 H 0.85022 0.34945 0.84038 0.0
H375 H 0.87446 0.34843 0.77141 0.0
H376 H 0.81023 0.30674 0.79113 0.0
H377 H 0.78449 0.27988 0.81018 0.0
H378 H 0.79899 0.24264 0.77802 0.0
H379 H 0.82499 0.26934 0.75901 0.0
C380 C 0.84959 0.33619 0.66943 0.0
C381 C 0.8512 0.32249 0.65755 0.0
C382 C 0.84871 0.33548 0.69227 0.0
C383 C 0.84942 0.32107 0.70362 0.0
C384 C 0.85025 0.30696 0.69178 0.0
C385 C 0.85124 0.30771 0.66891 0.0
C386 C 0.85006 0.32123 0.72786 0.0
C387 C 0.83594 0.30607 0.73945 0.0
C388 C 0.86424 0.3366 0.73951 0.0
C389 C 0.88036 0.35228 0.72819 0.0
C390 C 0.89169 0.34881 0.71398 0.0
C391 C 0.90681 0.36359 0.70326 0.0
C392 C 0.91084 0.38195 0.70675 0.0
C393 C 0.89978 0.38556 0.721 0.0
C394 C 0.88462 0.37081 0.73173 0.0
C395 C 0.85317 0.31004 0.83314 0.0
C396 C 0.85272 0.32469 0.8443 0.0
C397 C 0.85173 0.30885 0.81031 0.0
C398 C 0.84989 0.32233 0.79829 0.0
C399 C 0.84929 0.33687 0.80942 0.0
C400 C 0.85056 0.33798 0.83223 0.0
C401 C 0.84928 0.32168 0.77405 0.0
C402 C 0.8635 0.33674 0.76245 0.0
C403 C 0.83533 0.30613 0.76244 0.0
C404 C 0.81968 0.29006 0.77382 0.0
C405 C 0.80803 0.29285 0.78827 0.0
C406 C 0.79337 0.27765 0.79903 0.0
C407 C 0.79014 0.25957 0.79536 0.0
C408 C 0.80153 0.25666 0.78087 0.0
C409 C 0.81622 0.27181 0.77009 0.0
H410 H 0.77878 0.24782 0.8037 0.0
H411 H 0.92256 0.39338 0.69844 0.0
H412 H 0.49537 0.83445 0.33985 0.0
H413 H 0.49492 0.83136 0.29994 0.0
H414 H 0.55521 0.86029 0.2991 0.0
H415 H 0.55575 0.86361 0.33891 0.0
H416 H 0.54196 0.87469 0.2697 0.0
H417 H 0.5296 0.8134 0.28956 0.0
H418 H 0.51313 0.78293 0.30836 0.0
H419 H 0.46221 0.77013 0.2753 0.0
H420 H 0.47833 0.80066 0.25653 0.0
H421 H 0.55539 0.85994 0.15943 0.0
H422 H 0.55459 0.85731 0.19933 0.0
H423 H 0.49458 0.83217 0.19839 0.0
H424 H 0.49524 0.83471 0.15836 0.0
H425 H 0.50716 0.81519 0.22849 0.0
H426 H 0.5194 0.87666 0.20933 0.0
H427 H 0.53586 0.90707 0.19039 0.0
H428 H 0.58706 0.91947 0.22245 0.0
H429 H 0.57095 0.88898 0.24133 0.0
C430 C 0.50851 0.83998 0.33116 0.0
C431 C 0.5256 0.8493 0.34248 0.0
C432 C 0.50824 0.83814 0.30838 0.0
C433 C 0.52504 0.8455 0.29655 0.0
C434 C 0.54209 0.85451 0.3079 0.0
C435 C 0.54237 0.85636 0.33065 0.0
C436 C 0.52492 0.84474 0.27228 0.0
C437 C 0.53459 0.86164 0.26072 0.0
C438 C 0.51486 0.82777 0.26055 0.0
C439 C 0.50513 0.8094 0.27181 0.0
C440 C 0.51485 0.80416 0.28644 0.0
C441 C 0.50559 0.78686 0.29706 0.0
C442 C 0.48662 0.77462 0.29307 0.0
C443 C 0.4769 0.77964 0.2784 0.0
C444 C 0.48609 0.79693 0.26775 0.0
C445 C 0.54199 0.85364 0.16768 0.0
C446 C 0.52538 0.84766 0.1558 0.0
C447 C 0.54157 0.85219 0.19047 0.0
C448 C 0.52455 0.84476 0.2018 0.0
C449 C 0.50785 0.83797 0.18993 0.0
C450 C 0.50827 0.83949 0.1671 0.0
C451 C 0.52436 0.8451 0.22605 0.0
C452 C 0.51458 0.82819 0.23755 0.0
C453 C 0.53431 0.86206 0.23779 0.0
C454 C 0.54401 0.88045 0.22656 0.0
C455 C 0.5342 0.8858 0.2122 0.0
C456 C 0.54346 0.90306 0.2015 0.0
C457 C 0.56251 0.91517 0.20517 0.0
C458 C 0.57231 0.91006 0.2196 0.0
C459 C 0.56312 0.8928 0.23031 0.0
H460 H 0.56965 0.92853 0.19687 0.0
H461 H 0.47948 0.76124 0.3013 0.0
H462 H 0.65937 0.49965 0.84263 0.0
H463 H 0.66241 0.49972 0.8028 0.0
H464 H 0.70508 0.55795 0.8047 0.0
H465 H 0.70183 0.55805 0.84451 0.0
H466 H 0.67963 0.55215 0.77472 0.0
H467 H 0.7156 0.52319 0.79337 0.0
H468 H 0.72188 0.50017 0.81136 0.0
H469 H 0.67584 0.45561 0.77692 0.0
H470 H 0.66912 0.47836 0.75895 0.0
H471 H 0.70158 0.55868 0.66237 0.0
H472 H 0.70488 0.55821 0.70213 0.0
H473 H 0.66159 0.50022 0.70365 0.0
H474 H 0.65852 0.50049 0.66381 0.0
H475 H 0.68915 0.50657 0.73185 0.0
H476 H 0.65188 0.5349 0.7153 0.0
H477 H 0.64497 0.55754 0.69744 0.0
H478 H 0.69288 0.60288 0.72835 0.0
H479 H 0.70023 0.58051 0.74617 0.0
C480 C 0.66955 0.51241 0.83458 0.0
C481 C 0.68034 0.52886 0.84667 0.0
C482 C 0.67134 0.51241 0.81182 0.0
C483 C 0.68409 0.5288 0.80076 0.0
C484 C 0.69516 0.54514 0.81288 0.0
C485 C 0.69332 0.54517 0.83563 0.0
C486 C 0.68505 0.52923 0.77646 0.0
C487 C 0.68206 0.5424 0.76538 0.0
C488 C 0.6877 0.51618 0.76423 0.0
C489 C 0.69176 0.50248 0.77495 0.0
C490 C 0.70672 0.50847 0.78976 0.0
C491 C 0.71038 0.49547 0.79993 0.0
C492 C 0.69924 0.47644 0.79532 0.0
C493 C 0.68445 0.47036 0.78049 0.0
C494 C 0.68072 0.48331 0.77029 0.0
C495 C 0.6929 0.54578 0.67115 0.0
C496 C 0.67968 0.52966 0.66002 0.0
C497 C 0.69476 0.54554 0.69387 0.0
C498 C 0.68325 0.52927 0.7059 0.0
C499 C 0.67058 0.51294 0.69471 0.0
C500 C 0.6688 0.51313 0.67195 0.0
C501 C 0.68376 0.5295 0.7302 0.0
C502 C 0.68691 0.51642 0.74126 0.0
C503 C 0.68119 0.54258 0.74246 0.0
C504 C 0.67671 0.55604 0.73188 0.0
C505 C 0.66102 0.54971 0.71816 0.0
C506 C 0.65701 0.56249 0.70807 0.0
C507 C 0.6685 0.58164 0.71171 0.0
C508 C 0.684 0.58805 0.72552 0.0
C509 C 0.68809 0.57532 0.73563 0.0
H510 H 0.66538 0.59151 0.70387 0.0
H511 H 0.70209 0.46639 0.80322 0.0
H512 H 0.16704 0.66179 0.34219 0.0
H513 H 0.17009 0.66486 0.30228 0.0
H514 H 0.14294 0.69791 0.30267 0.0
H515 H 0.13959 0.69465 0.34241 0.0
H516 H 0.12708 0.67038 0.27385 0.0
H517 H 0.18983 0.71742 0.29142 0.0
H518 H 0.22074 0.73025 0.3089 0.0
H519 H 0.23011 0.69025 0.27474 0.0
H520 H 0.19912 0.677 0.25727 0.0
H521 H 0.13861 0.69559 0.1624 0.0
H522 H 0.14183 0.69787 0.20225 0.0
H523 H 0.16773 0.66367 0.20101 0.0
H524 H 0.16478 0.66155 0.16105 0.0
H525 H 0.18494 0.69215 0.23016 0.0
H526 H 0.12192 0.64465 0.2135 0.0
H527 H 0.09051 0.63106 0.19706 0.0
H528 H 0.08152 0.67168 0.2303 0.0
H529 H 0.11297 0.6857 0.24669 0.0
C530 C 0.16197 0.66993 0.33377 0.0
C531 C 0.153 0.67791 0.34539 0.0
C532 C 0.16378 0.67173 0.31098 0.0
C533 C 0.1568 0.68168 0.29948 0.0
C534 C 0.14839 0.69015 0.31119 0.0
C535 C 0.14652 0.6883 0.33391 0.0
C536 C 0.15693 0.6821 0.27517 0.0
C537 C 0.13979 0.67546 0.26432 0.0
C538 C 0.17343 0.68816 0.26273 0.0
C539 C 0.19207 0.6961 0.27321 0.0
C540 C 0.19841 0.71125 0.28778 0.0
C541 C 0.21596 0.71862 0.29766 0.0
C542 C 0.22736 0.71104 0.29298 0.0
C543 C 0.22125 0.69609 0.27837 0.0
C544 C 0.2037 0.68866 0.26846 0.0
C545 C 0.14516 0.68871 0.17059 0.0
C546 C 0.15133 0.67828 0.15863 0.0
C547 C 0.14692 0.68996 0.19337 0.0
C548 C 0.15475 0.6807 0.20463 0.0
C549 C 0.16159 0.67089 0.19265 0.0
C550 C 0.15986 0.66965 0.16984 0.0
C551 C 0.15511 0.68064 0.22893 0.0
C552 C 0.17227 0.68721 0.23974 0.0
C553 C 0.13862 0.6745 0.24142 0.0
C554 C 0.11987 0.66634 0.23115 0.0
C555 C 0.11332 0.65082 0.21711 0.0
C556 C 0.0955 0.64301 0.20784 0.0
C557 C 0.08405 0.65052 0.21263 0.0
C558 C 0.09041 0.66589 0.22661 0.0
C559 C 0.10823 0.67377 0.23589 0.0
H560 H 0.07021 0.64438 0.20562 0.0
H561 H 0.24095 0.71677 0.30064 0.0
H562 H 0.4482 0.15563 0.8385 0.0
H563 H 0.44932 0.16041 0.79883 0.0
H564 H 0.50132 0.16008 0.79562 0.0
H565 H 0.50035 0.15543 0.83528 0.0
H566 H 0.50102 0.18668 0.76821 0.0
H567 H 0.46152 0.12105 0.785 0.0
H568 H 0.43516 0.09417 0.80328 0.0
H569 H 0.39664 0.10792 0.77304 0.0
H570 H 0.42282 0.13506 0.75483 0.0
H571 H 0.50345 0.15901 0.65917 0.0
H572 H 0.50333 0.16319 0.69873 0.0
H573 H 0.44844 0.15719 0.69442 0.0
H574 H 0.44829 0.15247 0.65483 0.0
H575 H 0.4491 0.13614 0.72582 0.0
H576 H 0.48829 0.20004 0.70586 0.0
H577 H 0.51461 0.22696 0.68762 0.0
H578 H 0.55357 0.21705 0.72341 0.0
H579 H 0.52747 0.1899 0.74165 0.0
C580 C 0.46 0.15684 0.82938 0.0
C581 C 0.47411 0.15499 0.83994 0.0
C582 C 0.4606 0.15953 0.80674 0.0
C583 C 0.47529 0.16036 0.79429 0.0
C584 C 0.48986 0.15946 0.80494 0.0
C585 C 0.48925 0.15673 0.82757 0.0
C586 C 0.47484 0.16083 0.77004 0.0
C587 C 0.48975 0.1756 0.75888 0.0
C588 C 0.45989 0.14659 0.75796 0.0
C589 C 0.44414 0.13019 0.76876 0.0
C590 C 0.44744 0.11842 0.78239 0.0
C591 C 0.43253 0.10313 0.79271 0.0
C592 C 0.41424 0.09937 0.78937 0.0
C593 C 0.41082 0.11087 0.77565 0.0
C594 C 0.42568 0.1262 0.76531 0.0
C595 C 0.49144 0.15879 0.66661 0.0
C596 C 0.47587 0.15538 0.65393 0.0
C597 C 0.49143 0.16129 0.68923 0.0
C598 C 0.47596 0.16073 0.69956 0.0
C599 C 0.46055 0.15771 0.68682 0.0
C600 C 0.46049 0.15505 0.66421 0.0
C601 C 0.47538 0.16197 0.72379 0.0
C602 C 0.46028 0.14743 0.73503 0.0
C603 C 0.49014 0.17647 0.73589 0.0
C604 C 0.5059 0.19283 0.72501 0.0
C605 C 0.50246 0.20351 0.70973 0.0
C606 C 0.51735 0.21883 0.69941 0.0
C607 C 0.53575 0.22369 0.70432 0.0
C608 C 0.5393 0.21326 0.71961 0.0
C609 C 0.52447 0.19792 0.72997 0.0
H610 H 0.54725 0.23555 0.69631 0.0
H611 H 0.40271 0.08752 0.79738 0.0
H612 H 0.54758 0.69756 0.65874 0.0
H613 H 0.54683 0.69957 0.69865 0.0
H614 H 0.49513 0.64688 0.7004 0.0
H615 H 0.49564 0.64492 0.66043 0.0
H616 H 0.49456 0.67166 0.72908 0.0
H617 H 0.53615 0.64873 0.71096 0.0
H618 H 0.56293 0.64937 0.69229 0.0
H619 H 0.60036 0.70165 0.72324 0.0
H620 H 0.57375 0.70145 0.74187 0.0
H621 H 0.49679 0.64556 0.8397 0.0
H622 H 0.49559 0.64769 0.79985 0.0
H623 H 0.54807 0.69965 0.80078 0.0
H624 H 0.5495 0.69744 0.84062 0.0
H625 H 0.54843 0.67656 0.77068 0.0
H626 H 0.50661 0.69855 0.79039 0.0
H627 H 0.47962 0.69751 0.809 0.0
H628 H 0.44242 0.64661 0.77531 0.0
H629 H 0.46922 0.6472 0.75672 0.0
C630 C 0.53597 0.68648 0.66761 0.0
C631 C 0.52174 0.67101 0.6565 0.0
C632 C 0.53559 0.68762 0.69041 0.0
C633 C 0.52107 0.67323 0.70251 0.0
C634 C 0.50648 0.65811 0.69138 0.0
C635 C 0.50683 0.65698 0.66856 0.0
C636 C 0.52147 0.67358 0.7268 0.0
C637 C 0.50624 0.67255 0.73821 0.0
C638 C 0.5369 0.67511 0.73866 0.0
C639 C 0.55294 0.67517 0.72763 0.0
C640 C 0.55007 0.66043 0.71366 0.0
C641 C 0.56522 0.6607 0.7031 0.0
C642 C 0.58333 0.67556 0.70653 0.0
C643 C 0.58633 0.69016 0.72058 0.0
C644 C 0.57122 0.68997 0.73115 0.0
C645 C 0.50797 0.65754 0.83143 0.0
C646 C 0.52325 0.67133 0.84326 0.0
C647 C 0.50723 0.65878 0.80866 0.0
C648 C 0.52167 0.67391 0.79733 0.0
C649 C 0.53678 0.68786 0.80918 0.0
C650 C 0.53755 0.6866 0.83194 0.0
C651 C 0.52152 0.67467 0.77305 0.0
C652 C 0.53679 0.67583 0.7616 0.0
C653 C 0.50611 0.6732 0.76119 0.0
C654 C 0.48995 0.67284 0.77231 0.0
C655 C 0.49269 0.68705 0.78708 0.0
C656 C 0.47742 0.68656 0.7976 0.0
C657 C 0.45932 0.67198 0.79338 0.0
C658 C 0.45645 0.65789 0.77858 0.0
C659 C 0.47167 0.65831 0.76803 0.0
H660 H 0.44752 0.67162 0.80154 0.0
H661 H 0.59504 0.67575 0.69833 0.0
H662 H 0.82797 0.50854 0.34758 0.0
H663 H 0.82493 0.50765 0.30764 0.0
H664 H 0.88109 0.5545 0.3024 0.0
H665 H 0.88367 0.5561 0.34224 0.0
H666 H 0.86208 0.55866 0.27337 0.0
H667 H 0.8688 0.50646 0.29485 0.0
H668 H 0.86098 0.4775 0.31483 0.0
H669 H 0.80672 0.44967 0.28479 0.0
H670 H 0.81414 0.47856 0.26484 0.0
H671 H 0.86919 0.51034 0.16699 0.0
H672 H 0.86714 0.51125 0.20681 0.0
H673 H 0.8371 0.54134 0.20073 0.0
H674 H 0.84003 0.5413 0.16084 0.0
H675 H 0.84167 0.49844 0.23534 0.0
H676 H 0.8461 0.57047 0.24334 0.0
H677 H 0.85937 0.60043 0.22343 0.0
H678 H 0.9009 0.59035 0.19453 0.0
H679 H 0.88804 0.56047 0.21447 0.0
C680 C 0.83955 0.51875 0.33785 0.0
C681 C 0.85608 0.53234 0.34794 0.0
C682 C 0.83787 0.51816 0.31503 0.0
C683 C 0.85293 0.53075 0.30188 0.0
C684 C 0.86925 0.54462 0.31208 0.0
C685 C 0.87075 0.54551 0.33488 0.0
C686 C 0.85202 0.52923 0.27756 0.0
C687 C 0.85756 0.54546 0.26509 0.0
C688 C 0.84645 0.51211 0.26661 0.0
C689 C 0.84195 0.49472 0.27855 0.0
C690 C 0.85516 0.4942 0.29263 0.0
C691 C 0.85081 0.47779 0.30393 0.0
C692 C 0.83335 0.46177 0.30113 0.0
C693 C 0.82022 0.4621 0.28698 0.0
C694 C 0.8245 0.47848 0.27566 0.0
C695 C 0.8621 0.5171 0.17416 0.0
C696 C 0.8549 0.52589 0.16087 0.0
C697 C 0.86088 0.51757 0.19694 0.0
C698 C 0.85221 0.52661 0.20688 0.0
C699 C 0.84428 0.53469 0.19353 0.0
C700 C 0.84585 0.53457 0.17073 0.0
C701 C 0.85196 0.52791 0.23118 0.0
C702 C 0.84609 0.51161 0.24363 0.0
C703 C 0.85802 0.54512 0.24213 0.0
C704 C 0.86596 0.56314 0.23019 0.0
C705 C 0.85809 0.57468 0.23278 0.0
C706 C 0.86554 0.59164 0.22148 0.0
C707 C 0.88092 0.59726 0.20766 0.0
C708 C 0.88894 0.58595 0.20517 0.0
C709 C 0.88157 0.569 0.21645 0.0
H710 H 0.88665 0.61038 0.19892 0.0
H711 H 0.83 0.44908 0.30989 0.0
H712 H 0.3371 0.84127 0.65773 0.0
H713 H 0.33455 0.83848 0.69764 0.0
H714 H 0.30441 0.86864 0.69824 0.0
H715 H 0.30703 0.8716 0.65834 0.0
H716 H 0.33239 0.88233 0.72809 0.0
H717 H 0.28183 0.82203 0.70762 0.0
H718 H 0.26692 0.79173 0.68841 0.0
H719 H 0.30362 0.77676 0.72103 0.0
H720 H 0.31895 0.80711 0.74022 0.0
H721 H 0.30508 0.8674 0.83894 0.0
H722 H 0.30297 0.86551 0.79899 0.0
H723 H 0.33543 0.83775 0.79814 0.0
H724 H 0.33762 0.83959 0.83819 0.0
H725 H 0.30562 0.82228 0.76856 0.0
H726 H 0.35691 0.88231 0.7877 0.0
H727 H 0.37261 0.9126 0.80693 0.0
H728 H 0.33543 0.92808 0.77658 0.0
H729 H 0.3193 0.89773 0.75741 0.0
C730 C 0.32979 0.84717 0.66635 0.0
C731 C 0.32227 0.85666 0.65492 0.0
C732 C 0.32829 0.84551 0.68914 0.0
C733 C 0.31918 0.85324 0.70089 0.0
C734 C 0.31149 0.86256 0.68948 0.0
C735 C 0.31295 0.86419 0.66669 0.0
C736 C 0.31838 0.85234 0.72516 0.0
C737 C 0.32625 0.86918 0.73692 0.0
C738 C 0.31087 0.8352 0.73668 0.0
C739 C 0.30166 0.81693 0.7252 0.0
C740 C 0.28683 0.81235 0.71056 0.0
C741 C 0.27828 0.79515 0.6997 0.0
C742 C 0.28435 0.78235 0.70346 0.0
C743 C 0.29895 0.7867 0.71812 0.0
C744 C 0.30756 0.8039 0.72901 0.0
C745 C 0.31159 0.8607 0.83028 0.0
C746 C 0.32162 0.85375 0.84166 0.0
C747 C 0.31041 0.85967 0.80746 0.0
C748 C 0.31922 0.85168 0.79563 0.0
C749 C 0.32856 0.844 0.807 0.0
C750 C 0.32984 0.84511 0.82984 0.0
C751 C 0.3195 0.85225 0.77138 0.0
C752 C 0.31164 0.83539 0.75967 0.0
C753 C 0.3271 0.86937 0.75986 0.0
C754 C 0.33677 0.88766 0.7713 0.0
C755 C 0.35197 0.8921 0.78528 0.0
C756 C 0.36097 0.90929 0.79614 0.0
C757 C 0.35499 0.92224 0.79302 0.0
C758 C 0.34002 0.91803 0.77901 0.0
C759 C 0.33095 0.90083 0.76812 0.0
H760 H 0.36203 0.93555 0.8014 0.0
H761 H 0.27771 0.76904 0.69504 0.0
H762 H 0.45545 0.30309 0.33954 0.0
H763 H 0.45576 0.30169 0.29941 0.0
H764 H 0.49524 0.36084 0.29695 0.0
H765 H 0.49518 0.3623 0.33696 0.0
H766 H 0.4639 0.34913 0.26915 0.0
H767 H 0.51059 0.33241 0.28671 0.0
H768 H 0.52266 0.31396 0.30497 0.0
H769 H 0.48035 0.26409 0.27369 0.0
H770 H 0.46786 0.28222 0.25548 0.0
H771 H 0.48974 0.36075 0.15794 0.0
H772 H 0.49066 0.36019 0.19793 0.0
H773 H 0.4568 0.30005 0.19716 0.0
H774 H 0.4561 0.30049 0.15708 0.0
H775 H 0.48425 0.31118 0.22678 0.0
H776 H 0.43743 0.32665 0.20894 0.0
H777 H 0.42418 0.34401 0.1906 0.0
H778 H 0.46448 0.39456 0.22257 0.0
H779 H 0.47818 0.37756 0.24085 0.0
C780 C 0.46432 0.31574 0.33043 0.0
C781 C 0.47531 0.3328 0.34136 0.0
C782 C 0.46449 0.31492 0.30755 0.0
C783 C 0.47553 0.33117 0.29527 0.0
C784 C 0.48661 0.34816 0.30616 0.0
C785 C 0.48662 0.34895 0.329 0.0
C786 C 0.47515 0.33062 0.27102 0.0
C787 C 0.46857 0.34103 0.25985 0.0
C788 C 0.48066 0.31955 0.259 0.0
C789 C 0.48816 0.30864 0.26992 0.0
C790 C 0.50375 0.31748 0.28389 0.0
C791 C 0.51069 0.30709 0.29419 0.0
C792 C 0.50224 0.28786 0.29055 0.0
C793 C 0.48686 0.27899 0.27653 0.0
C794 C 0.47986 0.28932 0.2662 0.0
C795 C 0.48257 0.3474 0.16628 0.0
C796 C 0.47276 0.33067 0.1544 0.0
C797 C 0.48304 0.3471 0.18913 0.0
C798 C 0.47356 0.33009 0.20054 0.0
C799 C 0.46417 0.31333 0.18869 0.0
C800 C 0.46375 0.31361 0.16581 0.0
C801 C 0.4732 0.32988 0.22484 0.0
C802 C 0.47956 0.31927 0.23605 0.0
C803 C 0.46725 0.34059 0.23693 0.0
C804 C 0.45895 0.35086 0.22611 0.0
C805 C 0.44356 0.3415 0.21194 0.0
C806 C 0.43595 0.35127 0.20157 0.0
C807 C 0.44351 0.37038 0.20537 0.0
C808 C 0.45866 0.37975 0.21961 0.0
C809 C 0.46634 0.37006 0.23 0.0
H810 H 0.4376 0.37792 0.19731 0.0
H811 H 0.50764 0.27984 0.29853 0.0
H812 H 0.14781 0.49947 0.66124 0.0
H813 H 0.15109 0.50066 0.70112 0.0
H814 H 0.15181 0.4488 0.70008 0.0
H815 H 0.14821 0.44737 0.66027 0.0
H816 H 0.12789 0.44783 0.72996 0.0
H817 H 0.19165 0.49085 0.7105 0.0
H818 H 0.21717 0.51835 0.69208 0.0
H819 H 0.20213 0.5543 0.72636 0.0
H820 H 0.17636 0.52698 0.74478 0.0
H821 H 0.14815 0.44762 0.84208 0.0
H822 H 0.15113 0.44852 0.80218 0.0
H823 H 0.15221 0.50129 0.80078 0.0
H824 H 0.14983 0.50073 0.84073 0.0
H825 H 0.17631 0.5017 0.77205 0.0
H826 H 0.11185 0.45937 0.78974 0.0
H827 H 0.08569 0.43225 0.80793 0.0
H828 H 0.10124 0.3955 0.77656 0.0
H829 H 0.12766 0.42244 0.7584 0.0
C830 C 0.14886 0.48843 0.6695 0.0
C831 C 0.14772 0.47331 0.65766 0.0
C832 C 0.15081 0.48917 0.69228 0.0
C833 C 0.15184 0.47489 0.70358 0.0
C834 C 0.15105 0.45996 0.6917 0.0
C835 C 0.14903 0.45919 0.66896 0.0
C836 C 0.15267 0.47495 0.72785 0.0
C837 C 0.13867 0.45948 0.73915 0.0
C838 C 0.16642 0.49038 0.73985 0.0
C839 C 0.18197 0.50684 0.72887 0.0
C840 C 0.1937 0.5046 0.71399 0.0
C841 C 0.20823 0.52016 0.70357 0.0
C842 C 0.21124 0.53805 0.70801 0.0
C843 C 0.19977 0.54043 0.72292 0.0
C844 C 0.18522 0.52491 0.73338 0.0
C845 C 0.14918 0.45948 0.83326 0.0
C846 C 0.14862 0.47403 0.84447 0.0
C847 C 0.15081 0.45995 0.81047 0.0
C848 C 0.15154 0.47481 0.79844 0.0
C849 C 0.15162 0.48966 0.8097 0.0
C850 C 0.15021 0.4893 0.83252 0.0
C851 C 0.15154 0.47456 0.77413 0.0
C852 C 0.16562 0.49 0.76283 0.0
C853 C 0.13778 0.45916 0.76208 0.0
C854 C 0.12184 0.44294 0.77289 0.0
C855 C 0.10977 0.44551 0.78684 0.0
C856 C 0.09488 0.43017 0.79713 0.0
C857 C 0.09183 0.41217 0.79345 0.0
C858 C 0.10363 0.40946 0.77942 0.0
C859 C 0.11855 0.42475 0.76911 0.0
H860 H 0.0803 0.40031 0.80143 0.0
H861 H 0.22249 0.55008 0.69992 0.0
H862 H 0.65687 0.15859 0.33874 0.0
H863 H 0.65844 0.16249 0.29895 0.0
H864 H 0.69876 0.14392 0.29541 0.0
H865 H 0.6973 0.14002 0.33527 0.0
H866 H 0.70725 0.1741 0.2675 0.0
H867 H 0.65476 0.11361 0.28521 0.0
H868 H 0.62539 0.09199 0.30415 0.0
H869 H 0.59847 0.11979 0.27526 0.0
H870 H 0.62778 0.14177 0.25638 0.0
H871 H 0.69673 0.14448 0.15649 0.0
H872 H 0.69952 0.14836 0.19623 0.0
H873 H 0.65389 0.15973 0.19679 0.0
H874 H 0.65071 0.15532 0.15709 0.0
H875 H 0.64841 0.13495 0.22655 0.0
H876 H 0.70015 0.19436 0.20683 0.0
H877 H 0.72948 0.21626 0.18801 0.0
H878 H 0.75782 0.19136 0.22038 0.0
H879 H 0.72859 0.16912 0.23917 0.0
C880 C 0.66622 0.15553 0.32952 0.0
C881 C 0.67686 0.14885 0.34008 0.0
C882 C 0.66708 0.15774 0.3068 0.0
C883 C 0.67857 0.1533 0.29425 0.0
C884 C 0.6898 0.14741 0.30483 0.0
C885 C 0.6889 0.14512 0.32757 0.0
C886 C 0.67799 0.15373 0.27002 0.0
C887 C 0.69445 0.16545 0.25847 0.0
C888 C 0.66118 0.14273 0.25836 0.0
C889 C 0.64351 0.12945 0.26958 0.0
C890 C 0.64262 0.11521 0.28304 0.0
C891 C 0.62597 0.10288 0.29374 0.0
C892 C 0.61009 0.10455 0.29096 0.0
C893 C 0.61079 0.11853 0.27742 0.0
C894 C 0.62741 0.13092 0.26671 0.0
C895 C 0.68745 0.14804 0.16506 0.0
C896 C 0.67346 0.14955 0.15371 0.0
C897 C 0.68912 0.15036 0.18777 0.0
C898 C 0.67702 0.15451 0.19952 0.0
C899 C 0.66338 0.15652 0.18809 0.0
C900 C 0.6616 0.15405 0.16541 0.0
C901 C 0.6777 0.15541 0.22382 0.0
C902 C 0.66123 0.14381 0.23546 0.0
C903 C 0.6945 0.16659 0.23551 0.0
C904 C 0.71213 0.17996 0.22426 0.0
C905 C 0.7126 0.19345 0.20981 0.0
C906 C 0.72921 0.20594 0.19917 0.0
C907 C 0.74549 0.20517 0.20296 0.0
C908 C 0.7452 0.19193 0.21744 0.0
C909 C 0.72861 0.17939 0.22811 0.0
H910 H 0.75834 0.21485 0.19471 0.0
H911 H 0.59721 0.09499 0.29926 0.0
H912 H 0.15396 0.44026 0.96846 0.0
H913 H 0.17609 0.43574 0.99059 0.0
H914 H 0.21959 0.46702 0.94345 0.0
H915 H 0.1976 0.47192 0.92136 0.0
H916 H 0.21711 0.43199 0.96129 0.0
H917 H 0.22017 0.49007 0.98345 0.0
H918 H 0.20602 0.50863 0.99586 0.0
H919 H 0.18439 0.47402 0.05303 0.0
H920 H 0.19817 0.45507 0.04075 0.0
H921 H 0.30051 0.46003 0.02006 0.0
H922 H 0.27469 0.4564 0.99723 0.0
H923 H 0.23951 0.44254 0.05448 0.0
H924 H 0.26571 0.44711 0.07754 0.0
H925 H 0.23543 0.46603 0.03208 0.0
H926 H 0.23376 0.40939 0.01323 0.0
H927 H 0.246 0.38899 0.00149 0.0
H928 H 0.26254 0.41761 0.93975 0.0
H929 H 0.25063 0.43836 0.95122 0.0
C930 C 0.16818 0.44598 0.96266 0.0
C931 C 0.17412 0.45654 0.94328 0.0
C932 C 0.18077 0.44337 0.97531 0.0
C933 C 0.19942 0.4511 0.96863 0.0
C934 C 0.20521 0.46092 0.94878 0.0
C935 C 0.19268 0.46377 0.93628 0.0
C936 C 0.2132 0.45015 0.98316 0.0
C937 C 0.2213 0.43952 0.97671 0.0
C938 C 0.21808 0.45949 0.00354 0.0
C939 C 0.21001 0.47103 0.01106 0.0
C940 C 0.21226 0.48632 0.99857 0.0
C941 C 0.20433 0.49693 0.0056 0.0
C942 C 0.19427 0.49247 0.02519 0.0
C943 C 0.19216 0.47744 0.03784 0.0
C944 C 0.20003 0.46677 0.03086 0.0
C945 C 0.28719 0.45598 0.02774 0.0
C946 C 0.28508 0.45385 0.05055 0.0
C947 C 0.27238 0.45378 0.01464 0.0
C948 C 0.255 0.44891 0.02404 0.0
C949 C 0.25276 0.44629 0.04682 0.0
C950 C 0.2677 0.44885 0.05998 0.0
C951 C 0.23967 0.4479 0.0103 0.0
C952 C 0.23122 0.45825 0.01684 0.0
C953 C 0.23427 0.43801 0.99018 0.0
C954 C 0.24143 0.42553 0.98317 0.0
C955 C 0.24013 0.41142 0.99721 0.0
C956 C 0.24699 0.39978 0.99059 0.0
C957 C 0.25507 0.40203 0.96991 0.0
C958 C 0.25628 0.41589 0.95577 0.0
C959 C 0.24946 0.42758 0.96231 0.0
H960 H 0.26038 0.393 0.96481 0.0
H961 H 0.18814 0.5007 0.0306 0.0
H962 H 0.71925 0.15244 0.45842 0.0
H963 H 0.744 0.17482 0.48257 0.0
H964 H 0.74258 0.22032 0.44967 0.0
H965 H 0.71797 0.19806 0.42537 0.0
H966 H 0.77808 0.22906 0.45882 0.0
H967 H 0.71953 0.20412 0.49668 0.0
H968 H 0.68961 0.17921 0.51154 0.0
H969 H 0.71903 0.16013 0.55238 0.0
H970 H 0.74914 0.1848 0.53752 0.0
H971 H 0.79942 0.28391 0.56735 0.0
H972 H 0.77731 0.25908 0.54321 0.0
H973 H 0.82158 0.25031 0.51964 0.0
H974 H 0.84386 0.27542 0.54347 0.0
H975 H 0.76494 0.22281 0.53865 0.0
H976 H 0.81498 0.24051 0.46496 0.0
H977 H 0.84314 0.26759 0.44959 0.0
H978 H 0.82777 0.30495 0.4797 0.0
H979 H 0.79941 0.2781 0.49498 0.0
C980 C 0.72439 0.16723 0.45615 0.0
C981 C 0.71662 0.17352 0.44011 0.0
C982 C 0.73847 0.17998 0.47 0.0
C983 C 0.74494 0.19919 0.46807 0.0
C984 C 0.73777 0.20554 0.45144 0.0
C985 C 0.72368 0.19281 0.43761 0.0
C986 C 0.75848 0.21263 0.48405 0.0
C987 C 0.77528 0.22763 0.47629 0.0
C988 C 0.75463 0.21096 0.50678 0.0
C989 C 0.73657 0.19617 0.51581 0.0
C990 C 0.71961 0.19452 0.5087 0.0
C991 C 0.70262 0.18046 0.51714 0.0
C992 C 0.70242 0.16806 0.53284 0.0
C993 C 0.71921 0.16972 0.54018 0.0
C994 C 0.73624 0.18375 0.53177 0.0
C995 C 0.80441 0.27658 0.55718 0.0
C996 C 0.82338 0.28169 0.55715 0.0
C997 C 0.79175 0.26236 0.54343 0.0
C998 C 0.79785 0.25302 0.52942 0.0
C999 C 0.81664 0.25755 0.53007 0.0
C1000 C 0.82933 0.27184 0.54375 0.0
C1001 C 0.78466 0.23917 0.51347 0.0
C1002 C 0.76788 0.22411 0.52122 0.0
C1003 C 0.78832 0.24106 0.49067 0.0
C1004 C 0.8052 0.2573 0.48131 0.0
C1005 C 0.81759 0.25451 0.46823 0.0
C1006 C 0.83358 0.26981 0.45954 0.0
C1007 C 0.83727 0.28798 0.46373 0.0
C1008 C 0.82493 0.29087 0.47654 0.0
C1009 C 0.80891 0.27562 0.48524 0.0
H1010 H 0.84967 0.29981 0.45701 0.0
H1011 H 0.68925 0.15718 0.53936 0.0
H1012 H 0.56639 0.83609 0.05693 0.0
H1013 H 0.56994 0.81327 0.0349 0.0
H1014 H 0.51 0.77742 0.03371 0.0
H1015 H 0.50644 0.79979 0.05629 0.0
H1016 H 0.52543 0.75704 0.03876 0.0
H1017 H 0.53542 0.8073 0.99026 0.0
H1018 H 0.55062 0.84001 0.9776 0.0
H1019 H 0.60335 0.8417 0.97377 0.0
H1020 H 0.58849 0.80905 0.98669 0.0
H1021 H 0.50827 0.70377 0.94322 0.0
H1022 H 0.51158 0.72828 0.96826 0.0
H1023 H 0.5707 0.74851 0.97359 0.0
H1024 H 0.56748 0.72375 0.94861 0.0
H1025 H 0.55962 0.77713 0.96814 0.0
H1026 H 0.54721 0.72452 0.01337 0.0
H1027 H 0.53015 0.69125 0.02387 0.0
H1028 H 0.47973 0.69361 0.03179 0.0
H1029 H 0.49644 0.72686 0.02102 0.0
C1030 C 0.55401 0.82325 0.05212 0.0
C1031 C 0.53614 0.81974 0.05823 0.0
C1032 C 0.55604 0.81027 0.03944 0.0
C1033 C 0.54022 0.79375 0.03233 0.0
C1034 C 0.52242 0.79005 0.03898 0.0
C1035 C 0.5204 0.80287 0.05185 0.0
C1036 C 0.54197 0.78046 0.01751 0.0
C1037 C 0.53284 0.76146 0.02329 0.0
C1038 C 0.55196 0.78623 0.99748 0.0
C1039 C 0.5609 0.80583 0.98969 0.0
C1040 C 0.55029 0.8147 0.98688 0.0
C1041 C 0.55883 0.83322 0.97963 0.0
C1042 C 0.57795 0.84295 0.97495 0.0
C1043 C 0.58855 0.83416 0.97745 0.0
C1044 C 0.58007 0.81565 0.98472 0.0
C1045 C 0.52203 0.71354 0.94951 0.0
C1046 C 0.53762 0.71182 0.94404 0.0
C1047 C 0.52387 0.72748 0.96386 0.0
C1048 C 0.54134 0.74003 0.97288 0.0
C1049 C 0.55711 0.73888 0.96679 0.0
C1050 C 0.55524 0.72476 0.95258 0.0
C1051 C 0.54279 0.75384 0.98929 0.0
C1052 C 0.55248 0.77285 0.98379 0.0
C1053 C 0.5331 0.74808 0.00943 0.0
C1054 C 0.52306 0.72816 0.01624 0.0
C1055 C 0.53246 0.71792 0.01721 0.0
C1056 C 0.52286 0.69907 0.02323 0.0
C1057 C 0.50387 0.69032 0.02847 0.0
C1058 C 0.49445 0.70041 0.02773 0.0
C1059 C 0.50398 0.71927 0.0217 0.0
H1060 H 0.49646 0.67572 0.03314 0.0
H1061 H 0.58454 0.85729 0.96934 0.0
H1062 H 0.70497 0.51026 0.55573 0.0
H1063 H 0.73089 0.51367 0.53337 0.0
H1064 H 0.75847 0.57362 0.54084 0.0
H1065 H 0.73192 0.57024 0.56248 0.0
H1066 H 0.76191 0.5662 0.50078 0.0
H1067 H 0.77343 0.54574 0.56861 0.0
H1068 H 0.76637 0.52622 0.60169 0.0
H1069 H 0.75311 0.47836 0.56181 0.0
H1070 H 0.75984 0.49752 0.52846 0.0
H1071 H 0.84587 0.57044 0.45596 0.0
H1072 H 0.82391 0.57356 0.48031 0.0
H1073 H 0.78258 0.51595 0.46832 0.0
H1074 H 0.80421 0.51279 0.44388 0.0
H1075 H 0.79001 0.52615 0.51345 0.0
H1076 H 0.77666 0.54796 0.44549 0.0
H1077 H 0.78522 0.56883 0.41344 0.0
H1078 H 0.80465 0.61637 0.45595 0.0
H1079 H 0.79643 0.59579 0.48827 0.0
C1080 C 0.71662 0.52417 0.55276 0.0
C1081 C 0.71651 0.53998 0.56097 0.0
C1082 C 0.73151 0.52611 0.54005 0.0
C1083 C 0.74689 0.54389 0.53578 0.0
C1084 C 0.74682 0.55975 0.54399 0.0
C1085 C 0.7317 0.55782 0.5564 0.0
C1086 C 0.76265 0.54575 0.52212 0.0
C1087 C 0.7683 0.55771 0.50385 0.0
C1088 C 0.77102 0.53465 0.52598 0.0
C1089 C 0.76704 0.52306 0.54601 0.0
C1090 C 0.7689 0.53102 0.56688 0.0
C1091 C 0.76497 0.52002 0.58569 0.0
C1092 C 0.75927 0.50106 0.58385 0.0
C1093 C 0.75752 0.49305 0.56321 0.0
C1094 C 0.76142 0.50399 0.54435 0.0
C1095 C 0.83201 0.55853 0.45832 0.0
C1096 C 0.82675 0.54136 0.44806 0.0
C1097 C 0.81951 0.56034 0.4722 0.0
C1098 C 0.80168 0.54496 0.47612 0.0
C1099 C 0.79631 0.52795 0.46554 0.0
C1100 C 0.80867 0.5262 0.45151 0.0
C1101 C 0.78875 0.54613 0.49196 0.0
C1102 C 0.78373 0.5348 0.51066 0.0
C1103 C 0.78127 0.55803 0.48871 0.0
C1104 C 0.78615 0.57037 0.46928 0.0
C1105 C 0.78292 0.56288 0.448 0.0
C1106 C 0.78767 0.57465 0.42979 0.0
C1107 C 0.79553 0.59392 0.43266 0.0
C1108 C 0.7986 0.60145 0.45375 0.0
C1109 C 0.79389 0.58974 0.47202 0.0
H1110 H 0.79919 0.60301 0.41854 0.0
H1111 H 0.75622 0.49256 0.59843 0.0
H1112 H 0.28006 0.80154 0.92056 0.0
H1113 H 0.25443 0.77781 0.94259 0.0
H1114 H 0.25997 0.82055 0.98765 0.0
H1115 H 0.28505 0.84435 0.96522 0.0
H1116 H 0.25397 0.76635 0.98152 0.0
H1117 H 0.2195 0.80875 0.01274 0.0
H1118 H 0.21323 0.83326 0.99935 0.0
H1119 H 0.21532 0.81738 0.93291 0.0
H1120 H 0.22135 0.79262 0.9459 0.0
H1121 H 0.20053 0.72159 0.07474 0.0
H1122 H 0.22243 0.74565 0.04958 0.0
H1123 H 0.17652 0.73646 0.00769 0.0
H1124 H 0.15454 0.71281 0.03309 0.0
H1125 H 0.20061 0.77211 0.00924 0.0
H1126 H 0.20375 0.71703 0.99576 0.0
H1127 H 0.20728 0.68986 0.00489 0.0
H1128 H 0.26305 0.72656 0.02795 0.0
H1129 H 0.25977 0.75394 0.01922 0.0
C1130 C 0.27562 0.80587 0.93501 0.0
C1131 C 0.28448 0.82478 0.94115 0.0
C1132 C 0.26103 0.7923 0.94764 0.0
C1133 C 0.25513 0.79737 0.96671 0.0
C1134 C 0.26395 0.8163 0.97277 0.0
C1135 C 0.27836 0.82989 0.95999 0.0
C1136 C 0.24035 0.78282 0.9808 0.0
C1137 C 0.24228 0.76761 0.98751 0.0
C1138 C 0.22484 0.78418 0.98828 0.0
C1139 C 0.22106 0.79895 0.98031 0.0
C1140 C 0.21855 0.81044 0.99528 0.0
C1141 C 0.21505 0.82439 0.98776 0.0
C1142 C 0.21394 0.82692 0.96529 0.0
C1143 C 0.21626 0.81546 0.9503 0.0
C1144 C 0.21975 0.80149 0.95774 0.0
C1145 C 0.19511 0.72487 0.0603 0.0
C1146 C 0.17586 0.71527 0.0558 0.0
C1147 C 0.20763 0.73852 0.04587 0.0
C1148 C 0.20114 0.7426 0.02653 0.0
C1149 C 0.18185 0.73352 0.02246 0.0
C1150 C 0.16931 0.71998 0.03698 0.0
C1151 C 0.2145 0.75593 0.01026 0.0
C1152 C 0.21229 0.77087 0.00318 0.0
C1153 C 0.22938 0.75397 0.0018 0.0
C1154 C 0.23145 0.73754 0.00702 0.0
C1155 C 0.21672 0.7193 0.00292 0.0
C1156 C 0.21868 0.70386 0.008 0.0
C1157 C 0.23536 0.70648 0.01705 0.0
C1158 C 0.25013 0.72455 0.02097 0.0
C1159 C 0.24824 0.74004 0.01594 0.0
H1160 H 0.23685 0.69451 0.02098 0.0
H1161 H 0.21124 0.83773 0.9595 0.0
H1162 H 0.49723 0.20148 0.55247 0.0
H1163 H 0.49458 0.22421 0.52958 0.0
H1164 H 0.43449 0.1895 0.52985 0.0
H1165 H 0.43715 0.16627 0.55221 0.0
H1166 H 0.44571 0.20174 0.4903 0.0
H1167 H 0.45762 0.23089 0.56022 0.0
H1168 H 0.47369 0.24278 0.59555 0.0
H1169 H 0.5241 0.28124 0.56187 0.0
H1170 H 0.50841 0.2694 0.52631 0.0
H1171 H 0.43565 0.27705 0.4449 0.0
H1172 H 0.43391 0.25229 0.46867 0.0
H1173 H 0.4938 0.27695 0.46502 0.0
H1174 H 0.49565 0.30161 0.44123 0.0
H1175 H 0.4798 0.26945 0.50779 0.0
H1176 H 0.46703 0.23815 0.43763 0.0
H1177 H 0.44983 0.22619 0.40293 0.0
H1178 H 0.39916 0.19185 0.43858 0.0
H1179 H 0.41601 0.20381 0.47351 0.0
C1180 C 0.48344 0.19874 0.54781 0.0
C1181 C 0.46739 0.18215 0.55421 0.0
C1182 C 0.48192 0.2118 0.53479 0.0
C1183 C 0.46431 0.20875 0.52827 0.0
C1184 C 0.44822 0.19219 0.53473 0.0
C1185 C 0.44975 0.17898 0.54756 0.0
C1186 C 0.46286 0.2226 0.51411 0.0
C1187 C 0.45289 0.2165 0.49435 0.0
C1188 C 0.47238 0.24192 0.51921 0.0
C1189 C 0.48187 0.24915 0.54058 0.0
C1190 C 0.47217 0.24179 0.56034 0.0
C1191 C 0.4812 0.24854 0.58041 0.0
C1192 C 0.49991 0.26273 0.58096 0.0
C1193 C 0.50961 0.27024 0.56142 0.0
C1194 C 0.50065 0.26353 0.5413 0.0
C1195 C 0.44841 0.27706 0.44898 0.0
C1196 C 0.46579 0.29125 0.44122 0.0
C1197 C 0.44739 0.26292 0.46253 0.0
C1198 C 0.46374 0.26282 0.46858 0.0
C1199 C 0.48104 0.27681 0.46056 0.0
C1200 C 0.48206 0.29084 0.44689 0.0
C1201 C 0.46299 0.24858 0.48392 0.0
C1202 C 0.47251 0.25465 0.50391 0.0
C1203 C 0.45286 0.22925 0.47916 0.0
C1204 C 0.44274 0.22204 0.45817 0.0
C1205 C 0.45218 0.22818 0.43807 0.0
C1206 C 0.44251 0.22137 0.41836 0.0
C1207 C 0.4234 0.20831 0.41855 0.0
C1208 C 0.41395 0.20199 0.43846 0.0
C1209 C 0.42356 0.20877 0.45821 0.0
H1210 H 0.41594 0.20306 0.40327 0.0
H1211 H 0.50688 0.26793 0.59651 0.0
H1212 H 0.80834 0.53421 0.08472 0.0
H1213 H 0.7859 0.53779 0.06204 0.0
H1214 H 0.82256 0.55106 0.00626 0.0
H1215 H 0.84546 0.54866 0.02926 0.0
H1216 H 0.80759 0.57109 0.00351 0.0
H1217 H 0.7829 0.50579 0.01623 0.0
H1218 H 0.77252 0.47707 0.03791 0.0
H1219 H 0.73062 0.48534 0.0691 0.0
H1220 H 0.74092 0.51426 0.04779 0.0
H1221 H 0.72879 0.53045 0.92481 0.0
H1222 H 0.75428 0.5337 0.94848 0.0
H1223 H 0.73643 0.5576 0.9992 0.0
H1224 H 0.71129 0.55494 0.97546 0.0
H1225 H 0.7416 0.51961 0.00415 0.0
H1226 H 0.76931 0.587 0.98883 0.0
H1227 H 0.77988 0.61341 0.9631 0.0
H1228 H 0.81637 0.59748 0.93179 0.0
H1229 H 0.80577 0.57079 0.95716 0.0
C1230 C 0.81164 0.53809 0.06767 0.0
C1231 C 0.82854 0.54106 0.05867 0.0
C1232 C 0.79877 0.54 0.05467 0.0
C1233 C 0.80228 0.54423 0.03225 0.0
C1234 C 0.81946 0.54775 0.02346 0.0
C1235 C 0.83253 0.54633 0.0366 0.0
C1236 C 0.78791 0.54448 0.01781 0.0
C1237 C 0.7932 0.55975 0.00365 0.0
C1238 C 0.76907 0.52969 0.01779 0.0
C1239 C 0.76281 0.51229 0.03059 0.0
C1240 C 0.77155 0.50155 0.02782 0.0
C1241 C 0.76568 0.48523 0.04003 0.0
C1242 C 0.75095 0.47941 0.05492 0.0
C1243 C 0.74204 0.48988 0.05759 0.0
C1244 C 0.74788 0.50623 0.04544 0.0
C1245 C 0.73049 0.53665 0.94088 0.0
C1246 C 0.71812 0.54247 0.94832 0.0
C1247 C 0.74502 0.53851 0.95432 0.0
C1248 C 0.74719 0.54596 0.97544 0.0
C1249 C 0.735 0.55197 0.98283 0.0
C1250 C 0.72071 0.55046 0.96926 0.0
C1251 C 0.76135 0.54623 0.99034 0.0
C1252 C 0.75599 0.53097 0.00435 0.0
C1253 C 0.78016 0.56072 0.98982 0.0
C1254 C 0.78657 0.57679 0.97468 0.0
C1255 C 0.77942 0.589 0.97629 0.0
C1256 C 0.78546 0.60405 0.96182 0.0
C1257 C 0.79874 0.60708 0.94577 0.0
C1258 C 0.80605 0.5951 0.9442 0.0
C1259 C 0.80005 0.58002 0.95863 0.0
H1260 H 0.8034 0.61874 0.93458 0.0
H1261 H 0.74642 0.46677 0.06435 0.0
H1262 H 0.16699 0.69515 0.48084 0.0
H1263 H 0.18797 0.72157 0.5038 0.0
H1264 H 0.19717 0.75938 0.45027 0.0
H1265 H 0.17675 0.73281 0.42693 0.0
H1266 H 0.22876 0.7681 0.46745 0.0
H1267 H 0.17058 0.75618 0.49738 0.0
H1268 H 0.13904 0.73745 0.51312 0.0
H1269 H 0.1619 0.72338 0.56823 0.0
H1270 H 0.19357 0.74182 0.55267 0.0
H1271 H 0.28102 0.8479 0.53453 0.0
H1272 H 0.2545 0.82463 0.51309 0.0
H1273 H 0.24958 0.78109 0.55628 0.0
H1274 H 0.27615 0.80424 0.57774 0.0
H1275 H 0.21464 0.7775 0.54383 0.0
H1276 H 0.27247 0.78763 0.51103 0.0
H1277 H 0.30382 0.80716 0.49508 0.0
H1278 H 0.28055 0.82568 0.4447 0.0
H1279 H 0.24908 0.80647 0.46058 0.0
C1280 C 0.17334 0.70912 0.47404 0.0
C1281 C 0.17026 0.71195 0.45211 0.0
C1282 C 0.18525 0.72425 0.48723 0.0
C1283 C 0.19398 0.74255 0.47891 0.0
C1284 C 0.1906 0.74541 0.45709 0.0
C1285 C 0.1789 0.73024 0.44378 0.0
C1286 C 0.20756 0.75852 0.49254 0.0
C1287 C 0.22548 0.77035 0.48398 0.0
C1288 C 0.20348 0.76134 0.51428 0.0
C1289 C 0.18445 0.75029 0.52376 0.0
C1290 C 0.16888 0.74899 0.51278 0.0
C1291 C 0.15097 0.73844 0.52169 0.0
C1292 C 0.14846 0.7292 0.54164 0.0
C1293 C 0.16386 0.73054 0.55277 0.0
C1294 C 0.1818 0.74106 0.54393 0.0
C1295 C 0.27413 0.8334 0.53963 0.0
C1296 C 0.28072 0.82784 0.5577 0.0
C1297 C 0.25901 0.82015 0.52736 0.0
C1298 C 0.25021 0.80115 0.53303 0.0
C1299 C 0.25619 0.79569 0.55168 0.0
C1300 C 0.27141 0.80891 0.56384 0.0
C1301 C 0.23566 0.78681 0.5187 0.0
C1302 C 0.21768 0.77531 0.52717 0.0
C1303 C 0.23958 0.78439 0.4968 0.0
C1304 C 0.25847 0.79579 0.48713 0.0
C1305 C 0.27406 0.79599 0.49666 0.0
C1306 C 0.29185 0.80698 0.48762 0.0
C1307 C 0.29419 0.8177 0.46893 0.0
C1308 C 0.27873 0.8174 0.4592 0.0
C1309 C 0.26091 0.80646 0.46821 0.0
H1310 H 0.30797 0.82619 0.46195 0.0
H1311 H 0.13459 0.72104 0.54851 0.0
H1312 H 0.42829 0.15967 0.93998 0.0
H1313 H 0.42369 0.18012 0.96531 0.0
H1314 H 0.48267 0.20968 0.97992 0.0
H1315 H 0.48738 0.1895 0.95469 0.0
H1316 H 0.45989 0.19978 0.01724 0.0
H1317 H 0.46584 0.22851 0.94584 0.0
H1318 H 0.45662 0.22868 0.90746 0.0
H1319 H 0.40169 0.21531 0.92841 0.0
H1320 H 0.41052 0.21482 0.96692 0.0
H1321 H 0.48495 0.28701 0.06211 0.0
H1322 H 0.4805 0.2601 0.04094 0.0
H1323 H 0.42359 0.24565 0.02706 0.0
H1324 H 0.42822 0.27309 0.04771 0.0
H1325 H 0.4394 0.2436 0.99126 0.0
H1326 H 0.43418 0.21912 0.0628 0.0
H1327 H 0.44259 0.21848 0.1014 0.0
H1328 H 0.49421 0.22234 0.08131 0.0
H1329 H 0.48625 0.22329 0.04259 0.0
C1330 C 0.44025 0.17056 0.94858 0.0
C1331 C 0.4582 0.17305 0.94533 0.0
C1332 C 0.4376 0.18221 0.96301 0.0
C1333 C 0.45285 0.19639 0.97444 0.0
C1334 C 0.47073 0.19877 0.9713 0.0
C1335 C 0.4734 0.1873 0.95679 0.0
C1336 C 0.45047 0.20901 0.98959 0.0
C1337 C 0.45548 0.20943 0.01162 0.0
C1338 C 0.44404 0.22105 0.98234 0.0
C1339 C 0.43876 0.22139 0.95921 0.0
C1340 C 0.45174 0.22544 0.94224 0.0
C1341 C 0.4466 0.22563 0.92047 0.0
C1342 C 0.42856 0.22194 0.91549 0.0
C1343 C 0.41564 0.21812 0.93228 0.0
C1344 C 0.42071 0.21789 0.95408 0.0
C1345 C 0.47141 0.278 0.05476 0.0
C1346 C 0.45692 0.28212 0.05658 0.0
C1347 C 0.46884 0.26253 0.04275 0.0
C1348 C 0.4516 0.25063 0.03268 0.0
C1349 C 0.43698 0.25458 0.03475 0.0
C1350 C 0.43963 0.27022 0.04659 0.0
C1351 C 0.44937 0.23482 0.01893 0.0
C1352 C 0.44347 0.23375 0.99713 0.0
C1353 C 0.4548 0.22202 0.02647 0.0
C1354 C 0.45965 0.22138 0.04976 0.0
C1355 C 0.44738 0.21996 0.06661 0.0
C1356 C 0.45206 0.21952 0.08851 0.0
C1357 C 0.46894 0.2204 0.0938 0.0
C1358 C 0.48115 0.22167 0.07719 0.0
C1359 C 0.47654 0.22213 0.05525 0.0
H1360 H 0.47254 0.22006 0.11077 0.0
H1361 H 0.42461 0.2221 0.89863 0.0
H1362 H 0.19574 0.47165 0.57769 0.0
H1363 H 0.21821 0.46866 0.55457 0.0
H1364 H 0.17459 0.43639 0.50785 0.0
H1365 H 0.15188 0.43894 0.53129 0.0
H1366 H 0.19743 0.42253 0.51159 0.0
H1367 H 0.20454 0.48244 0.49888 0.0
H1368 H 0.20864 0.51332 0.50812 0.0
H1369 H 0.26176 0.52933 0.53756 0.0
H1370 H 0.25786 0.49842 0.52877 0.0
H1371 H 0.26335 0.44413 0.42239 0.0
H1372 H 0.23775 0.44092 0.44578 0.0
H1373 H 0.27563 0.46291 0.50055 0.0
H1374 H 0.30117 0.46586 0.47745 0.0
H1375 H 0.2546 0.48144 0.49071 0.0
H1376 H 0.24569 0.4194 0.50169 0.0
H1377 H 0.24045 0.38875 0.48927 0.0
H1378 H 0.18908 0.37742 0.45854 0.0
H1379 H 0.19416 0.40814 0.47052 0.0
C1380 C 0.19089 0.46375 0.56261 0.0
C1381 C 0.17211 0.45566 0.55619 0.0
C1382 C 0.20375 0.46212 0.54936 0.0
C1383 C 0.19815 0.45264 0.52927 0.0
C1384 C 0.17923 0.44385 0.52325 0.0
C1385 C 0.16629 0.44533 0.53662 0.0
C1386 C 0.21223 0.45258 0.51426 0.0
C1387 C 0.20981 0.43543 0.5068 0.0
C1388 C 0.22839 0.46941 0.50799 0.0
C1389 C 0.23082 0.48803 0.51334 0.0
C1390 C 0.21703 0.49248 0.50748 0.0
C1391 C 0.21933 0.51001 0.51261 0.0
C1392 C 0.23543 0.52326 0.52346 0.0
C1393 C 0.24928 0.51903 0.52917 0.0
C1394 C 0.24705 0.50152 0.52411 0.0
C1395 C 0.26614 0.44802 0.4395 0.0
C1396 C 0.28423 0.45527 0.44812 0.0
C1397 C 0.25152 0.44616 0.45281 0.0
C1398 C 0.25487 0.4517 0.47483 0.0
C1399 C 0.27283 0.45857 0.48357 0.0
C1400 C 0.28736 0.46018 0.47038 0.0
C1401 C 0.23997 0.45143 0.4885 0.0
C1402 C 0.24221 0.46857 0.49555 0.0
C1403 C 0.22349 0.43464 0.49393 0.0
C1404 C 0.22041 0.41615 0.4868 0.0
C1405 C 0.23337 0.41045 0.49211 0.0
C1406 C 0.23041 0.39304 0.48519 0.0
C1407 C 0.21447 0.38117 0.47307 0.0
C1408 C 0.20143 0.38665 0.4679 0.0
C1409 C 0.20434 0.40405 0.47477 0.0
H1410 H 0.2122 0.3677 0.46772 0.0
H1411 H 0.23719 0.53683 0.5274 0.0
H1412 H 0.84119 0.27215 0.94953 0.0
H1413 H 0.81849 0.2462 0.97235 0.0
H1414 H 0.77781 0.26341 0.96075 0.0
H1415 H 0.80021 0.28912 0.93782 0.0
H1416 H 0.78422 0.25906 0.00568 0.0
H1417 H 0.77192 0.22612 0.93643 0.0
H1418 H 0.78072 0.21465 0.90382 0.0
H1419 H 0.79897 0.18469 0.94496 0.0
H1420 H 0.79051 0.1962 0.97784 0.0
H1421 H 0.69792 0.18941 0.04297 0.0
H1422 H 0.7242 0.2116 0.02083 0.0
H1423 H 0.75241 0.18032 0.03233 0.0
H1424 H 0.72569 0.15759 0.05424 0.0
H1425 H 0.7561 0.19127 0.99038 0.0
H1426 H 0.7663 0.22125 0.05934 0.0
H1427 H 0.75846 0.23266 0.09273 0.0
H1428 H 0.74621 0.26855 0.05391 0.0
H1429 H 0.75371 0.25716 0.02023 0.0
C1430 C 0.82732 0.27022 0.95163 0.0
C1431 C 0.82247 0.28266 0.94195 0.0
C1432 C 0.81439 0.25542 0.96463 0.0
C1433 C 0.79653 0.25297 0.96823 0.0
C1434 C 0.79156 0.26512 0.95817 0.0
C1435 C 0.80435 0.27975 0.94502 0.0
C1436 C 0.78323 0.23842 0.98338 0.0
C1437 C 0.77795 0.24423 0.00229 0.0
C1438 C 0.77573 0.21913 0.97935 0.0
C1439 C 0.78081 0.21221 0.95959 0.0
C1440 C 0.77799 0.21724 0.93853 0.0
C1441 C 0.78287 0.2107 0.91999 0.0
C1442 C 0.79046 0.199 0.92232 0.0
C1443 C 0.79313 0.19378 0.94318 0.0
C1444 C 0.78828 0.2003 0.96177 0.0
C1445 C 0.70971 0.18723 0.04085 0.0
C1446 C 0.70983 0.17185 0.05048 0.0
C1447 C 0.72477 0.19998 0.02825 0.0
C1448 C 0.74044 0.19783 0.02528 0.0
C1449 C 0.7405 0.18229 0.03453 0.0
C1450 C 0.72528 0.16937 0.04707 0.0
C1451 C 0.75658 0.21192 0.01238 0.0
C1452 C 0.76251 0.20608 0.99397 0.0
C1453 C 0.76492 0.23125 0.01701 0.0
C1454 C 0.76046 0.23825 0.03723 0.0
C1455 C 0.76181 0.23148 0.0579 0.0
C1456 C 0.75744 0.23796 0.07688 0.0
C1457 C 0.75181 0.2513 0.07544 0.0
C1458 C 0.75057 0.25822 0.055 0.0
C1459 C 0.75491 0.25177 0.03596 0.0
H1460 H 0.74843 0.2563 0.09015 0.0
H1461 H 0.79423 0.19394 0.90795 0.0
H1462 H 0.5141 0.79795 0.42821 0.0
H1463 H 0.51751 0.77575 0.45149 0.0
H1464 H 0.56609 0.82129 0.48191 0.0
H1465 H 0.56256 0.84361 0.45893 0.0
H1466 H 0.54385 0.76646 0.4582 0.0
H1467 H 0.56493 0.81162 0.53648 0.0
H1468 H 0.56154 0.83716 0.55264 0.0
H1469 H 0.51091 0.8192 0.5162 0.0
H1470 H 0.51388 0.79343 0.50009 0.0
H1471 H 0.5631 0.71745 0.54045 0.0
H1472 H 0.56679 0.74313 0.51693 0.0
H1473 H 0.51602 0.73797 0.5435 0.0
H1474 H 0.51247 0.71264 0.56726 0.0
H1475 H 0.54138 0.77362 0.53863 0.0
H1476 H 0.51621 0.71785 0.49457 0.0
H1477 H 0.51575 0.6903 0.47829 0.0
H1478 H 0.56788 0.72596 0.44595 0.0
H1479 H 0.56877 0.75372 0.46229 0.0
C1480 C 0.52562 0.80322 0.43971 0.0
C1481 C 0.53796 0.82251 0.44191 0.0
C1482 C 0.52759 0.79052 0.45293 0.0
C1483 C 0.54191 0.79689 0.46861 0.0
C1484 C 0.55478 0.8161 0.47013 0.0
C1485 C 0.55277 0.82882 0.45696 0.0
C1486 C 0.54264 0.78349 0.48414 0.0
C1487 C 0.54347 0.7681 0.47579 0.0
C1488 C 0.54183 0.78547 0.50708 0.0
C1489 C 0.53977 0.80076 0.5169 0.0
C1490 C 0.55306 0.81311 0.53198 0.0
C1491 C 0.55121 0.82762 0.54112 0.0
C1492 C 0.53606 0.82984 0.53538 0.0
C1493 C 0.52268 0.81751 0.52057 0.0
C1494 C 0.52445 0.80297 0.51141 0.0
C1495 C 0.55286 0.72196 0.54143 0.0
C1496 C 0.53744 0.71299 0.55558 0.0
C1497 C 0.55494 0.73656 0.52794 0.0
C1498 C 0.54155 0.74229 0.52827 0.0
C1499 C 0.52653 0.73378 0.54298 0.0
C1500 C 0.52448 0.71927 0.5565 0.0
C1501 C 0.5426 0.75657 0.51271 0.0
C1502 C 0.54209 0.77213 0.52106 0.0
C1503 C 0.54321 0.75448 0.48976 0.0
C1504 C 0.54266 0.73783 0.47985 0.0
C1505 C 0.52764 0.7198 0.48412 0.0
C1506 C 0.52729 0.70415 0.47486 0.0
C1507 C 0.5418 0.70638 0.46114 0.0
C1508 C 0.55667 0.72426 0.45661 0.0
C1509 C 0.5571 0.73995 0.46586 0.0
H1510 H 0.54151 0.69425 0.45399 0.0
H1511 H 0.53466 0.8411 0.54246 0.0
H1512 H 0.37644 0.44962 0.06485 0.0
H1513 H 0.38852 0.42807 0.06249 0.0
H1514 H 0.3385 0.38499 0.09347 0.0
H1515 H 0.32624 0.40656 0.09584 0.0
H1516 H 0.37127 0.38938 0.11207 0.0
H1517 H 0.34422 0.38049 0.04101 0.0
H1518 H 0.33766 0.39008 0.00539 0.0
H1519 H 0.39596 0.41727 0.98892 0.0
H1520 H 0.40292 0.40808 0.02457 0.0
H1521 H 0.40617 0.32661 0.09616 0.0
H1522 H 0.38497 0.33932 0.09447 0.0
H1523 H 0.42706 0.38771 0.05991 0.0
H1524 H 0.44811 0.37503 0.06127 0.0
H1525 H 0.39309 0.3757 0.04248 0.0
H1526 H 0.42068 0.38885 0.11486 0.0
H1527 H 0.42816 0.38046 0.15073 0.0
H1528 H 0.36964 0.34634 0.16486 0.0
H1529 H 0.36182 0.35433 0.12892 0.0
C1530 C 0.36793 0.43552 0.07101 0.0
C1531 C 0.3504 0.42975 0.08052 0.0
C1532 C 0.37482 0.4232 0.06957 0.0
C1533 C 0.36433 0.4049 0.07765 0.0
C1534 C 0.34677 0.39905 0.08708 0.0
C1535 C 0.33978 0.41135 0.08836 0.0
C1536 C 0.37222 0.39229 0.07697 0.0
C1537 C 0.37567 0.38601 0.09683 0.0
C1538 C 0.37823 0.38821 0.05709 0.0
C1539 C 0.3741 0.39369 0.03555 0.0
C1540 C 0.35567 0.38863 0.02986 0.0
C1541 C 0.35187 0.39397 0.00965 0.0
C1542 C 0.36639 0.4043 0.99492 0.0
C1543 C 0.38473 0.40927 0.00035 0.0
C1544 C 0.3886 0.40397 0.02055 0.0
C1545 C 0.4108 0.33988 0.08804 0.0
C1546 C 0.42881 0.34989 0.07895 0.0
C1547 C 0.39872 0.34713 0.08714 0.0
C1548 C 0.40452 0.36454 0.07725 0.0
C1549 C 0.42229 0.37424 0.0676 0.0
C1550 C 0.43433 0.36701 0.06847 0.0
C1551 C 0.39254 0.37319 0.07761 0.0
C1552 C 0.38836 0.37875 0.05769 0.0
C1553 C 0.38597 0.37672 0.09745 0.0
C1554 C 0.39067 0.372 0.1191 0.0
C1555 C 0.40941 0.37944 0.12554 0.0
C1556 C 0.41371 0.37478 0.14589 0.0
C1557 C 0.39939 0.36282 0.16003 0.0
C1558 C 0.38073 0.35556 0.15387 0.0
C1559 C 0.37635 0.36015 0.13352 0.0
H1560 H 0.40274 0.35923 0.17578 0.0
H1561 H 0.36342 0.40842 0.97928 0.0
H1562 H 0.07913 0.40611 0.58907 0.0
H1563 H 0.04515 0.38557 0.59128 0.0
H1564 H 0.03885 0.43302 0.60719 0.0
H1565 H 0.07267 0.45347 0.60539 0.0
H1566 H 0.01651 0.40361 0.63225 0.0
H1567 H 0.03169 0.41514 0.55502 0.0
H1568 H 0.04777 0.41494 0.52107 0.0
H1569 H 0.02332 0.35537 0.5258 0.0
H1570 H 0.00728 0.35526 0.55995 0.0
H1571 H 0.92542 0.37955 0.60237 0.0
H1572 H 0.95919 0.39303 0.60506 0.0
H1573 H 0.9535 0.33949 0.58943 0.0
H1574 H 0.91952 0.3259 0.58633 0.0
H1575 H 0.98168 0.36742 0.56673 0.0
H1576 H 0.96279 0.35574 0.64151 0.0
H1577 H 0.94605 0.3564 0.67464 0.0
H1578 H 0.9771 0.41639 0.67445 0.0
H1579 H 0.99381 0.41612 0.64111 0.0
C1580 C 0.07047 0.41211 0.59314 0.0
C1581 C 0.07852 0.4314 0.59694 0.0
C1582 C 0.05109 0.40038 0.59435 0.0
C1583 C 0.03946 0.4078 0.5992 0.0
C1584 C 0.04755 0.42699 0.60347 0.0
C1585 C 0.06688 0.43868 0.60233 0.0
C1586 C 0.01882 0.39585 0.59921 0.0
C1587 C 0.00888 0.39575 0.6179 0.0
C1588 C 0.00889 0.38516 0.58071 0.0
C1589 C 0.01848 0.38522 0.56016 0.0
C1590 C 0.02987 0.40202 0.54891 0.0
C1591 C 0.03895 0.40196 0.52962 0.0
C1592 C 0.03662 0.38516 0.52132 0.0
C1593 C 0.02515 0.36838 0.53227 0.0
C1594 C 0.01605 0.36836 0.55158 0.0
C1595 C 0.93133 0.37061 0.59954 0.0
C1596 C 0.91984 0.35165 0.59421 0.0
C1597 C 0.95063 0.37831 0.60121 0.0
C1598 C 0.95882 0.36718 0.59781 0.0
C1599 C 0.94742 0.34828 0.59224 0.0
C1600 C 0.92805 0.34055 0.5905 0.0
C1601 C 0.97937 0.37559 0.59956 0.0
C1602 C 0.98929 0.37499 0.58123 0.0
C1603 C 0.98928 0.38568 0.61839 0.0
C1604 C 0.97949 0.3859 0.6387 0.0
C1605 C 0.96598 0.36908 0.64845 0.0
C1606 C 0.9565 0.36938 0.66728 0.0
C1607 C 0.96049 0.38642 0.67662 0.0
C1608 C 0.97402 0.4032 0.66719 0.0
C1609 C 0.98352 0.40298 0.64834 0.0
H1610 H 0.95313 0.38663 0.69119 0.0
H1611 H 0.04366 0.38514 0.50638 0.0
H1612 H 0.5483 0.92282 0.1145 0.0
H1613 H 0.56728 0.9568 0.11309 0.0
H1614 H 0.60088 0.9527 0.06169 0.0
H1615 H 0.58206 0.91848 0.06331 0.0
H1616 H 0.62232 0.97947 0.09117 0.0
H1617 H 0.56762 0.96349 0.04924 0.0
H1618 H 0.53386 0.94814 0.0414 0.0
H1619 H 0.52644 0.97741 0.09504 0.0
H1620 H 0.56012 0.99273 0.10343 0.0
H1621 H 0.66048 0.07679 0.06299 0.0
H1622 H 0.64551 0.0426 0.0619 0.0
H1623 H 0.6091 0.0385 0.11488 0.0
H1624 H 0.62386 0.0725 0.11599 0.0
H1625 H 0.58997 0.01585 0.08071 0.0
H1626 H 0.64477 0.0304 0.12357 0.0
H1627 H 0.67863 0.04581 0.13079 0.0
H1628 H 0.68596 0.01943 0.07405 0.0
H1629 H 0.65215 0.00406 0.06633 0.0
C1630 C 0.55977 0.92912 0.10294 0.0
C1631 C 0.56362 0.91801 0.08889 0.0
C1632 C 0.57057 0.94856 0.10211 0.0
C1633 C 0.58527 0.95728 0.08701 0.0
C1634 C 0.58953 0.94623 0.07338 0.0
C1635 C 0.57876 0.92672 0.07429 0.0
C1636 C 0.59588 0.97795 0.08534 0.0
C1637 C 0.61531 0.98744 0.08853 0.0
C1638 C 0.58668 0.98833 0.08209 0.0
C1639 C 0.56639 0.97916 0.07706 0.0
C1640 C 0.55877 0.96655 0.05947 0.0
C1641 C 0.53965 0.95787 0.05492 0.0
C1642 C 0.52802 0.96178 0.06773 0.0
C1643 C 0.53548 0.97439 0.08513 0.0
C1644 C 0.55459 0.98309 0.08978 0.0
C1645 C 0.6494 0.06858 0.07453 0.0
C1646 C 0.6433 0.07729 0.08954 0.0
C1647 C 0.6409 0.04908 0.07392 0.0
C1648 C 0.62622 0.03804 0.08834 0.0
C1649 C 0.62037 0.04677 0.10357 0.0
C1650 C 0.62886 0.0662 0.10422 0.0
C1651 C 0.61632 0.01737 0.08711 0.0
C1652 C 0.597 0.00788 0.08323 0.0
C1653 C 0.62565 0.00704 0.08958 0.0
C1654 C 0.64597 0.01625 0.09423 0.0
C1655 C 0.65362 0.02802 0.11252 0.0
C1656 C 0.6728 0.03672 0.11673 0.0
C1657 C 0.68445 0.03365 0.10285 0.0
C1658 C 0.67693 0.02183 0.08477 0.0
C1659 C 0.65776 0.01311 0.08048 0.0
H1660 H 0.69929 0.04039 0.10614 0.0
H1661 H 0.51323 0.95509 0.06415 0.0
H1662 H 0.61904 0.54521 0.6077 0.0
H1663 H 0.60356 0.56373 0.60597 0.0
H1664 H 0.65237 0.60885 0.5754 0.0
H1665 H 0.66806 0.59026 0.57706 0.0
H1666 H 0.63735 0.62079 0.6088 0.0
H1667 H 0.6162 0.58304 0.54427 0.0
H1668 H 0.60258 0.55432 0.52196 0.0
H1669 H 0.55152 0.53177 0.55867 0.0
H1670 H 0.56491 0.56024 0.58142 0.0
H1671 H 0.58633 0.66727 0.57926 0.0
H1672 H 0.60618 0.65299 0.57879 0.0
H1673 H 0.56081 0.60212 0.6055 0.0
H1674 H 0.54093 0.61618 0.6058 0.0
H1675 H 0.57631 0.59518 0.57081 0.0
H1676 H 0.59785 0.6316 0.63692 0.0
H1677 H 0.61078 0.66039 0.65902 0.0
H1678 H 0.6606 0.68524 0.61979 0.0
H1679 H 0.64784 0.65667 0.59724 0.0
C1680 C 0.62653 0.55908 0.60064 0.0
C1681 C 0.64475 0.56627 0.59243 0.0
C1682 C 0.61763 0.56962 0.5996 0.0
C1683 C 0.62675 0.58756 0.59034 0.0
C1684 C 0.64509 0.59499 0.58254 0.0
C1685 C 0.654 0.58436 0.58345 0.0
C1686 C 0.61689 0.59837 0.58885 0.0
C1687 C 0.62417 0.61539 0.60017 0.0
C1688 C 0.59954 0.59111 0.57793 0.0
C1689 C 0.59162 0.57374 0.56465 0.0
C1690 C 0.60214 0.57188 0.54775 0.0
C1691 C 0.59444 0.55566 0.53499 0.0
C1692 C 0.57619 0.54126 0.53888 0.0
C1693 C 0.56565 0.54296 0.55565 0.0
C1694 C 0.57328 0.55914 0.56848 0.0
C1695 C 0.58066 0.65309 0.58515 0.0
C1696 C 0.56208 0.64282 0.59252 0.0
C1697 C 0.59202 0.64498 0.58494 0.0
C1698 C 0.58498 0.62652 0.59218 0.0
C1699 C 0.5665 0.61637 0.59978 0.0
C1700 C 0.55518 0.62444 0.6 0.0
C1701 C 0.59651 0.61739 0.59117 0.0
C1702 C 0.58957 0.60069 0.57931 0.0
C1703 C 0.61409 0.62491 0.60167 0.0
C1704 C 0.6218 0.64208 0.61523 0.0
C1705 C 0.61149 0.64327 0.63288 0.0
C1706 C 0.61881 0.65953 0.64552 0.0
C1707 C 0.63648 0.67466 0.64077 0.0
C1708 C 0.64689 0.67352 0.62342 0.0
C1709 C 0.63964 0.65729 0.61071 0.0
H1710 H 0.64212 0.68724 0.65057 0.0
H1711 H 0.57017 0.52882 0.52882 0.0
H1712 H 0.92151 0.59131 0.08895 0.0
H1713 H 0.95559 0.61189 0.08952 0.0
H1714 H 0.96249 0.56426 0.10181 0.0
H1715 H 0.92866 0.54375 0.10134 0.0
H1716 H 0.98447 0.59377 0.12852 0.0
H1717 H 0.96887 0.58261 0.05125 0.0
H1718 H 0.95264 0.58317 0.01761 0.0
H1719 H 0.97751 0.64275 0.02293 0.0
H1720 H 0.9937 0.6425 0.0568 0.0
H1721 H 0.07532 0.61762 0.09946 0.0
H1722 H 0.04147 0.60408 0.10065 0.0
H1723 H 0.04765 0.6581 0.08682 0.0
H1724 H 0.08172 0.67179 0.08535 0.0
H1725 H 0.01922 0.63011 0.063 0.0
H1726 H 0.03782 0.64196 0.13753 0.0
H1727 H 0.05474 0.6418 0.17061 0.0
H1728 H 0.02439 0.58177 0.17106 0.0
H1729 H 0.0075 0.58157 0.13764 0.0
C1730 C 0.93033 0.58528 0.09181 0.0
C1731 C 0.92246 0.56594 0.09505 0.0
C1732 C 0.94976 0.59702 0.09208 0.0
C1733 C 0.96153 0.58956 0.09562 0.0
C1734 C 0.95364 0.57029 0.09911 0.0
C1735 C 0.93431 0.55859 0.09875 0.0
C1736 C 0.98213 0.60159 0.09552 0.0
C1737 C 0.99208 0.60166 0.11417 0.0
C1738 C 0.992 0.61237 0.07705 0.0
C1739 C 0.9823 0.61251 0.05669 0.0
C1740 C 0.97074 0.59581 0.04535 0.0
C1741 C 0.96158 0.59607 0.02622 0.0
C1742 C 0.96399 0.61297 0.01818 0.0
C1743 C 0.97562 0.62966 0.02921 0.0
C1744 C 0.9848 0.62947 0.04836 0.0
C1745 C 0.0695 0.62664 0.09665 0.0
C1746 C 0.08115 0.64578 0.09244 0.0
C1747 C 0.05016 0.61889 0.09741 0.0
C1748 C 0.04208 0.63014 0.09414 0.0
C1749 C 0.05363 0.64921 0.08947 0.0
C1750 C 0.07306 0.657 0.0887 0.0
C1751 C 0.02154 0.62181 0.09577 0.0
C1752 C 0.01161 0.62248 0.07748 0.0
C1753 C 0.01165 0.61176 0.11462 0.0
C1754 C 0.02148 0.61176 0.13498 0.0
C1755 C 0.03482 0.62871 0.1446 0.0
C1756 C 0.04441 0.62869 0.16343 0.0
C1757 C 0.04067 0.61178 0.17295 0.0
C1758 C 0.02728 0.59486 0.16367 0.0
C1759 C 0.01768 0.59481 0.14478 0.0
H1760 H 0.04813 0.61178 0.18753 0.0
H1761 H 0.95689 0.61315 0.00336 0.0
H1762 H 0.45743 0.07847 0.60653 0.0
H1763 H 0.43841 0.04448 0.60447 0.0
H1764 H 0.39775 0.04946 0.56511 0.0
H1765 H 0.41674 0.08365 0.56723 0.0
H1766 H 0.38141 0.02262 0.59726 0.0
H1767 H 0.42739 0.03866 0.54103 0.0
H1768 H 0.45895 0.05327 0.52486 0.0
H1769 H 0.47387 0.0224 0.56902 0.0
H1770 H 0.44252 0.00784 0.58571 0.0
H1771 H 0.33446 0.92538 0.56904 0.0
H1772 H 0.35054 0.95958 0.56753 0.0
H1773 H 0.3973 0.96249 0.60256 0.0
H1774 H 0.38153 0.92842 0.60363 0.0
H1775 H 0.40925 0.98562 0.56915 0.0
H1776 H 0.36476 0.97161 0.6274 0.0
H1777 H 0.33337 0.95663 0.64404 0.0
H1778 H 0.31594 0.98347 0.59697 0.0
H1779 H 0.34718 0.99842 0.57986 0.0
C1780 C 0.44441 0.07236 0.59748 0.0
C1781 C 0.4386 0.08371 0.58696 0.0
C1782 C 0.43361 0.05293 0.59623 0.0
C1783 C 0.41681 0.04446 0.58437 0.0
C1784 C 0.41072 0.05574 0.57426 0.0
C1785 C 0.42158 0.07524 0.57546 0.0
C1786 C 0.40571 0.02382 0.58265 0.0
C1787 C 0.38736 0.01451 0.59077 0.0
C1788 C 0.41363 0.01327 0.57455 0.0
C1789 C 0.43262 0.02225 0.56473 0.0
C1790 C 0.43745 0.03512 0.54745 0.0
C1791 C 0.4553 0.04337 0.53816 0.0
C1792 C 0.4684 0.03875 0.54591 0.0
C1793 C 0.46371 0.02595 0.56302 0.0
C1794 C 0.4459 0.01769 0.5724 0.0
C1795 C 0.34814 0.93334 0.57646 0.0
C1796 C 0.35675 0.92425 0.58646 0.0
C1797 C 0.35729 0.95288 0.57567 0.0
C1798 C 0.37507 0.96362 0.58511 0.0
C1799 C 0.38361 0.95451 0.59513 0.0
C1800 C 0.37456 0.93503 0.59579 0.0
C1801 C 0.38508 0.98436 0.58424 0.0
C1802 C 0.40322 0.9937 0.57552 0.0
C1803 C 0.37701 0.99491 0.59191 0.0
C1804 C 0.35824 0.98597 0.6022 0.0
C1805 C 0.35419 0.9742 0.62049 0.0
C1806 C 0.33643 0.96574 0.63003 0.0
C1807 C 0.32265 0.96905 0.62153 0.0
C1808 C 0.32662 0.98089 0.60351 0.0
C1809 C 0.34435 0.98937 0.5939 0.0
H1810 H 0.30891 0.96249 0.62894 0.0
H1811 H 0.48216 0.04503 0.53861 0.0
H1812 H 0.5886 0.66638 0.92012 0.0
H1813 H 0.60806 0.65166 0.9208 0.0
H1814 H 0.56206 0.60079 0.89503 0.0
H1815 H 0.54259 0.61531 0.89441 0.0
H1816 H 0.57799 0.59438 0.93045 0.0
H1817 H 0.59843 0.62913 0.86278 0.0
H1818 H 0.6113 0.6575 0.8399 0.0
H1819 H 0.6618 0.68253 0.8779 0.0
H1820 H 0.64911 0.65439 0.9012 0.0
H1821 H 0.61898 0.54181 0.89818 0.0
H1822 H 0.60364 0.56052 0.89799 0.0
H1823 H 0.65409 0.60803 0.92225 0.0
H1824 H 0.6697 0.58939 0.92213 0.0
H1825 H 0.6379 0.61813 0.89036 0.0
H1826 H 0.61845 0.58303 0.95679 0.0
H1827 H 0.60582 0.55482 0.97989 0.0
H1828 H 0.55372 0.53087 0.94511 0.0
H1829 H 0.56613 0.55884 0.92157 0.0
C1830 C 0.58271 0.6521 0.91447 0.0
C1831 C 0.56408 0.64197 0.90723 0.0
C1832 C 0.59384 0.64374 0.91482 0.0
C1833 C 0.5865 0.62516 0.9079 0.0
C1834 C 0.56797 0.61513 0.90048 0.0
C1835 C 0.55689 0.62347 0.90008 0.0
C1836 C 0.59781 0.61582 0.90897 0.0
C1837 C 0.591 0.59947 0.92151 0.0
C1838 C 0.61509 0.62284 0.8979 0.0
C1839 C 0.62273 0.63974 0.88389 0.0
C1840 C 0.61221 0.64075 0.86638 0.0
C1841 C 0.61949 0.65677 0.85331 0.0
C1842 C 0.63733 0.67183 0.85749 0.0
C1843 C 0.64796 0.67087 0.87471 0.0
C1844 C 0.64074 0.65488 0.88784 0.0
C1845 C 0.62684 0.55625 0.90342 0.0
C1846 C 0.64549 0.56411 0.91032 0.0
C1847 C 0.61804 0.56691 0.90337 0.0
C1848 C 0.62764 0.58557 0.91044 0.0
C1849 C 0.64642 0.59363 0.91681 0.0
C1850 C 0.65529 0.58296 0.91679 0.0
C1851 C 0.61784 0.59646 0.91144 0.0
C1852 C 0.62496 0.61312 0.89941 0.0
C1853 C 0.60085 0.58979 0.92307 0.0
C1854 C 0.59328 0.57298 0.9373 0.0
C1855 C 0.60434 0.57169 0.95396 0.0
C1856 C 0.59722 0.55575 0.96715 0.0
C1857 C 0.57899 0.54105 0.96394 0.0
C1858 C 0.56784 0.54227 0.94757 0.0
C1859 C 0.57491 0.55818 0.93431 0.0
H1860 H 0.5735 0.52871 0.97417 0.0
H1861 H 0.64294 0.68422 0.84735 0.0
H1862 H 0.92274 0.58729 0.43948 0.0
H1863 H 0.95687 0.60631 0.44248 0.0
H1864 H 0.96256 0.56416 0.40724 0.0
H1865 H 0.92865 0.54504 0.40453 0.0
H1866 H 0.98523 0.57601 0.44171 0.0
H1867 H 0.96955 0.60466 0.38247 0.0
H1868 H 0.95353 0.61998 0.36566 0.0
H1869 H 0.97911 0.66467 0.41239 0.0
H1870 H 0.9951 0.64947 0.42966 0.0
H1871 H 0.07513 0.62008 0.39718 0.0
H1872 H 0.04139 0.60558 0.4019 0.0
H1873 H 0.04925 0.65135 0.44311 0.0
H1874 H 0.08328 0.66603 0.43851 0.0
H1875 H 0.02022 0.64027 0.41133 0.0
H1876 H 0.03884 0.61296 0.46766 0.0
H1877 H 0.05541 0.59776 0.48318 0.0
H1878 H 0.02453 0.55041 0.44109 0.0
H1879 H 0.00794 0.56547 0.42507 0.0
C1880 C 0.93131 0.5821 0.43242 0.0
C1881 C 0.92305 0.5647 0.42174 0.0
C1882 C 0.95078 0.593 0.43408 0.0
C1883 C 0.96227 0.58671 0.42494 0.0
C1884 C 0.95398 0.56927 0.41446 0.0
C1885 C 0.93459 0.55839 0.41286 0.0
C1886 C 0.98295 0.59817 0.42608 0.0
C1887 C 0.99287 0.59002 0.43497 0.0
C1888 C 0.99292 0.61667 0.41789 0.0
C1889 C 0.98333 0.62582 0.40751 0.0
C1890 C 0.97163 0.61767 0.38927 0.0
C1891 C 0.96258 0.62635 0.37964 0.0
C1892 C 0.96525 0.64325 0.388 0.0
C1893 C 0.97702 0.65155 0.40597 0.0
C1894 C 0.98609 0.64292 0.41567 0.0
C1895 C 0.06972 0.62712 0.4072 0.0
C1896 C 0.08184 0.64415 0.41755 0.0
C1897 C 0.05044 0.61879 0.40993 0.0
C1898 C 0.04287 0.62731 0.42304 0.0
C1899 C 0.05487 0.64456 0.43299 0.0
C1900 C 0.07425 0.65288 0.43039 0.0
C1901 C 0.0224 0.61786 0.42637 0.0
C1902 C 0.01255 0.62637 0.41839 0.0
C1903 C 0.01245 0.59965 0.4353 0.0
C1904 C 0.02223 0.59041 0.44506 0.0
C1905 C 0.03567 0.59936 0.4616 0.0
C1906 C 0.04506 0.59076 0.4705 0.0
C1907 C 0.04106 0.57314 0.46309 0.0
C1908 C 0.02762 0.56407 0.4468 0.0
C1909 C 0.01819 0.57262 0.43783 0.0
H1910 H 0.04835 0.5665 0.47 0.0
H1911 H 0.95823 0.64995 0.38052 0.0
H1912 H 0.40999 0.08078 0.92544 0.0
H1913 H 0.38939 0.0468 0.92533 0.0
H1914 H 0.42373 0.04166 0.87568 0.0
H1915 H 0.4441 0.07557 0.8754 0.0
H1916 H 0.3875 0.01823 0.86759 0.0
H1917 H 0.42877 0.03471 0.92999 0.0
H1918 H 0.44325 0.0513 0.96439 0.0
H1919 H 0.38925 0.02638 0.99498 0.0
H1920 H 0.37443 0.00983 0.96063 0.0
H1921 H 0.37429 0.92766 0.88284 0.0
H1922 H 0.38649 0.96136 0.88107 0.0
H1923 H 0.34394 0.95594 0.92628 0.0
H1924 H 0.3315 0.92205 0.928 0.0
H1925 H 0.38012 0.98432 0.93732 0.0
H1926 H 0.33945 0.96477 0.87558 0.0
H1927 H 0.32552 0.94802 0.84111 0.0
H1928 H 0.37883 0.97828 0.8092 0.0
H1929 H 0.39316 0.99505 0.84357 0.0
C1930 C 0.41302 0.0724 0.91436 0.0
C1931 C 0.42872 0.08079 0.90055 0.0
C1932 C 0.40128 0.053 0.91436 0.0
C1933 C 0.40518 0.04168 0.90072 0.0
C1934 C 0.42046 0.05012 0.88635 0.0
C1935 C 0.43213 0.06949 0.88627 0.0
C1936 C 0.39396 0.02101 0.90205 0.0
C1937 C 0.38597 0.01081 0.8828 0.0
C1938 C 0.39157 0.01134 0.92201 0.0
C1939 C 0.40048 0.02121 0.94268 0.0
C1940 C 0.41997 0.03288 0.944 0.0
C1941 C 0.42825 0.04226 0.96349 0.0
C1942 C 0.41717 0.03994 0.98184 0.0
C1943 C 0.39781 0.02819 0.98074 0.0
C1944 C 0.38946 0.0188 0.96127 0.0
C1945 C 0.36748 0.93362 0.89234 0.0
C1946 C 0.35197 0.92226 0.90558 0.0
C1947 C 0.3744 0.95285 0.89122 0.0
C1948 C 0.366 0.96108 0.9034 0.0
C1949 C 0.35054 0.9498 0.9167 0.0
C1950 C 0.34346 0.93049 0.91764 0.0
C1951 C 0.37397 0.98158 0.9028 0.0
C1952 C 0.38139 0.99175 0.92217 0.0
C1953 C 0.37593 0.9912 0.88293 0.0
C1954 C 0.36741 0.98109 0.86222 0.0
C1955 C 0.34825 0.96774 0.86127 0.0
C1956 C 0.34027 0.95827 0.84174 0.0
C1957 C 0.35128 0.96209 0.82298 0.0
C1958 C 0.37031 0.97536 0.82374 0.0
C1959 C 0.37837 0.98487 0.84324 0.0
H1960 H 0.34505 0.95479 0.80786 0.0
H1961 H 0.4236 0.04721 0.99691 0.0
H1962 H 0.37249 0.44784 0.38691 0.0
H1963 H 0.38465 0.4264 0.38709 0.0
H1964 H 0.33979 0.38901 0.42977 0.0
H1965 H 0.32762 0.41074 0.42995 0.0
H1966 H 0.37301 0.39377 0.44336 0.0
H1967 H 0.33931 0.37742 0.37644 0.0
H1968 H 0.32878 0.38273 0.34076 0.0
H1969 H 0.38489 0.40803 0.3161 0.0
H1970 H 0.39582 0.40313 0.35174 0.0
H1971 H 0.41036 0.3321 0.42871 0.0
H1972 H 0.38784 0.34328 0.42872 0.0
H1973 H 0.42509 0.38991 0.38806 0.0
H1974 H 0.44744 0.37882 0.38785 0.0
H1975 H 0.38909 0.37382 0.37397 0.0
H1976 H 0.4229 0.39486 0.44302 0.0
H1977 H 0.43353 0.38997 0.47888 0.0
H1978 H 0.37652 0.35537 0.4993 0.0
H1979 H 0.36557 0.35987 0.46341 0.0
C1980 C 0.36513 0.43503 0.39628 0.0
C1981 C 0.34907 0.43093 0.40837 0.0
C1982 C 0.37205 0.42272 0.39626 0.0
C1983 C 0.36294 0.40594 0.40813 0.0
C1984 C 0.34695 0.40183 0.42039 0.0
C1985 C 0.34001 0.41422 0.42045 0.0
C1986 C 0.37074 0.39321 0.40817 0.0
C1987 C 0.37613 0.38901 0.42821 0.0
C1988 C 0.37492 0.38712 0.3884 0.0
C1989 C 0.3684 0.38997 0.36683 0.0
C1990 C 0.34943 0.38422 0.36346 0.0
C1991 C 0.34339 0.38714 0.34323 0.0
C1992 C 0.35616 0.39573 0.32618 0.0
C1993 C 0.37501 0.40137 0.32932 0.0
C1994 C 0.38113 0.39849 0.34952 0.0
C1995 C 0.41367 0.34469 0.41971 0.0
C1996 C 0.43068 0.35464 0.40835 0.0
C1997 C 0.40083 0.35106 0.41977 0.0
C1998 C 0.40486 0.36747 0.40848 0.0
C1999 C 0.42168 0.37719 0.39682 0.0
C2000 C 0.43448 0.37087 0.3968 0.0
C2001 C 0.39196 0.37505 0.40906 0.0
C2002 C 0.38558 0.37822 0.38912 0.0
C2003 C 0.38683 0.38014 0.4289 0.0
C2004 C 0.39343 0.37751 0.45046 0.0
C2005 C 0.41264 0.38609 0.4551 0.0
C2006 C 0.41872 0.38341 0.47543 0.0
C2007 C 0.40571 0.37232 0.49133 0.0
C2008 C 0.38659 0.36392 0.48695 0.0
C2009 C 0.38044 0.36654 0.46662 0.0
H2010 H 0.41044 0.37026 0.50707 0.0
H2011 H 0.35146 0.39799 0.31053 0.0
H2012 H 0.07503 0.45897 0.89976 0.0
H2013 H 0.04101 0.44023 0.90155 0.0
H2014 H 0.04508 0.39312 0.92502 0.0
H2015 H 0.07925 0.41175 0.9228 0.0
H2016 H 0.01783 0.38238 0.89502 0.0
H2017 H 0.03576 0.41943 0.96021 0.0
H2018 H 0.05204 0.44851 0.98177 0.0
H2019 H 0.02153 0.47041 0.94804 0.0
H2020 H 0.00527 0.44159 0.92603 0.0
H2021 H 0.92124 0.33287 0.9265 0.0
H2022 H 0.95547 0.34851 0.92773 0.0
H2023 H 0.95895 0.39897 0.90259 0.0
H2024 H 0.9249 0.38356 0.90154 0.0
H2025 H 0.98249 0.40627 0.93657 0.0
H2026 H 0.96658 0.37042 0.86959 0.0
H2027 H 0.95068 0.34168 0.84741 0.0
H2028 H 0.97751 0.31762 0.88465 0.0
H2029 H 0.99339 0.34615 0.90726 0.0
C2030 C 0.06869 0.44461 0.90524 0.0
C2031 C 0.07977 0.43684 0.91126 0.0
C2032 C 0.04925 0.43393 0.90636 0.0
C2033 C 0.04052 0.41538 0.91381 0.0
C2034 C 0.05154 0.40744 0.91934 0.0
C2035 C 0.07103 0.4181 0.91809 0.0
C2036 C 0.01989 0.40438 0.91586 0.0
C2037 C 0.01011 0.38743 0.90442 0.0
C2038 C 0.00982 0.41112 0.92789 0.0
C2039 C 0.01939 0.42838 0.94135 0.0
C2040 C 0.0326 0.43049 0.9573 0.0
C2041 C 0.04182 0.44693 0.96961 0.0
C2042 C 0.03785 0.46131 0.96624 0.0
C2043 C 0.0246 0.45926 0.95061 0.0
C2044 C 0.01536 0.44287 0.93823 0.0
C2045 C 0.92933 0.3473 0.92124 0.0
C2046 C 0.92042 0.35699 0.91388 0.0
C2047 C 0.94886 0.35619 0.92189 0.0
C2048 C 0.95974 0.37487 0.91511 0.0
C2049 C 0.95082 0.38457 0.90793 0.0
C2050 C 0.93137 0.37571 0.90726 0.0
C2051 C 0.98043 0.38446 0.91541 0.0
C2052 C 0.99023 0.40113 0.92736 0.0
C2053 C 0.9905 0.37746 0.90388 0.0
C2054 C 0.98099 0.36033 0.89028 0.0
C2055 C 0.96896 0.35894 0.87317 0.0
C2056 C 0.95998 0.3427 0.8605 0.0
C2057 C 0.96304 0.32781 0.86466 0.0
C2058 C 0.97513 0.32915 0.88147 0.0
C2059 C 0.98413 0.34535 0.89421 0.0
H2060 H 0.95607 0.31525 0.85482 0.0
H2061 H 0.04501 0.47403 0.97577 0.0
H2062 H 0.54007 0.92432 0.40299 0.0
H2063 H 0.56046 0.95816 0.4014 0.0
H2064 H 0.60831 0.95186 0.41471 0.0
H2065 H 0.58785 0.91784 0.4167 0.0
H2066 H 0.60952 0.98033 0.43812 0.0
H2067 H 0.60043 0.96123 0.36325 0.0
H2068 H 0.58234 0.94476 0.33038 0.0
H2069 H 0.55396 0.97633 0.33241 0.0
H2070 H 0.57168 0.99281 0.36549 0.0
H2071 H 0.67047 0.07708 0.41193 0.0
H2072 H 0.6556 0.04289 0.41177 0.0
H2073 H 0.60234 0.03853 0.3979 0.0
H2074 H 0.61711 0.07251 0.39765 0.0
H2075 H 0.60755 0.01512 0.37287 0.0
H2076 H 0.61433 0.03171 0.44979 0.0
H2077 H 0.63204 0.04789 0.48299 0.0
H2078 H 0.6648 0.02096 0.47695 0.0
H2079 H 0.64743 0.00479 0.44353 0.0
C2080 C 0.55493 0.93012 0.40562 0.0
C2081 C 0.5624 0.91845 0.40984 0.0
C2082 C 0.56657 0.94946 0.40461 0.0
C2083 C 0.58594 0.9575 0.40756 0.0
C2084 C 0.59341 0.94591 0.41227 0.0
C2085 C 0.58173 0.92651 0.41336 0.0
C2086 C 0.59824 0.97802 0.40572 0.0
C2087 C 0.60937 0.98793 0.4237 0.0
C2088 C 0.59788 0.98792 0.38699 0.0
C2089 C 0.58731 0.97817 0.36695 0.0
C2090 C 0.59025 0.96458 0.35677 0.0
C2091 C 0.58007 0.95525 0.33809 0.0
C2092 C 0.56699 0.95947 0.32934 0.0
C2093 C 0.56409 0.97307 0.33922 0.0
C2094 C 0.57422 0.98243 0.35792 0.0
C2095 C 0.65561 0.0688 0.40879 0.0
C2096 C 0.64493 0.07744 0.40484 0.0
C2097 C 0.64712 0.04929 0.40879 0.0
C2098 C 0.62783 0.03817 0.40501 0.0
C2099 C 0.61725 0.04683 0.40081 0.0
C2100 C 0.6257 0.06626 0.40074 0.0
C2101 C 0.61843 0.01747 0.40549 0.0
C2102 C 0.60788 0.00751 0.38719 0.0
C2103 C 0.61935 0.00756 0.42391 0.0
C2104 C 0.62974 0.01722 0.44403 0.0
C2105 C 0.62541 0.02936 0.45545 0.0
C2106 C 0.63537 0.0385 0.47432 0.0
C2107 C 0.64958 0.0355 0.48204 0.0
C2108 C 0.65382 0.0233 0.47093 0.0
C2109 C 0.64392 0.01413 0.45203 0.0
H2110 H 0.65727 0.0426 0.49665 0.0
H2111 H 0.55912 0.95223 0.31488 0.0
H2112 H 0.46437 0.62441 0.93476 0.0
H2113 H 0.44078 0.6031 0.96085 0.0
H2114 H 0.48425 0.60507 0.00184 0.0
H2115 H 0.50789 0.62636 0.97587 0.0
H2116 H 0.45545 0.56929 0.99513 0.0
H2117 H 0.46319 0.62835 0.01696 0.0
H2118 H 0.46467 0.65864 0.01158 0.0
H2119 H 0.40755 0.6304 0.99009 0.0
H2120 H 0.4058 0.59992 0.99495 0.0
H2121 H 0.39628 0.52 0.08348 0.0
H2122 H 0.42146 0.54598 0.06328 0.0
H2123 H 0.38085 0.54803 0.02069 0.0
H2124 H 0.35562 0.52226 0.041 0.0
H2125 H 0.40935 0.58294 0.0301 0.0
H2126 H 0.40233 0.52436 0.00546 0.0
H2127 H 0.4006 0.49388 0.01008 0.0
H2128 H 0.45634 0.52127 0.03615 0.0
H2129 H 0.45828 0.55191 0.03199 0.0
C2130 C 0.46888 0.6203 0.94934 0.0
C2131 C 0.48795 0.62702 0.95329 0.0
C2132 C 0.45542 0.60822 0.96427 0.0
C2133 C 0.4608 0.60266 0.98335 0.0
C2134 C 0.47983 0.60924 0.98723 0.0
C2135 C 0.4933 0.6214 0.9724 0.0
C2136 C 0.44655 0.58958 0.999 0.0
C2137 C 0.44557 0.5724 0.00307 0.0
C2138 C 0.43345 0.59352 0.00897 0.0
C2139 C 0.43442 0.61184 0.00613 0.0
C2140 C 0.45099 0.62859 0.01091 0.0
C2141 C 0.45187 0.6458 0.00799 0.0
C2142 C 0.43623 0.64645 0.00047 0.0
C2143 C 0.41966 0.62988 0.99589 0.0
C2144 C 0.41871 0.61263 0.99874 0.0
C2145 C 0.39271 0.52619 0.07004 0.0
C2146 C 0.374 0.519 0.06368 0.0
C2147 C 0.4071 0.54098 0.05847 0.0
C2148 C 0.40303 0.54872 0.04027 0.0
C2149 C 0.38431 0.54223 0.03465 0.0
C2150 C 0.36991 0.52747 0.04623 0.0
C2151 C 0.41823 0.56264 0.02615 0.0
C2152 C 0.41935 0.57993 0.02231 0.0
C2153 C 0.43146 0.5588 0.01629 0.0
C2154 C 0.43037 0.5404 0.01864 0.0
C2155 C 0.41416 0.52387 0.01233 0.0
C2156 C 0.41315 0.50657 0.01485 0.0
C2157 C 0.42833 0.50563 0.02346 0.0
C2158 C 0.44458 0.52201 0.02952 0.0
C2159 C 0.44565 0.53935 0.02708 0.0
H2160 H 0.42752 0.49222 0.0254 0.0
H2161 H 0.43695 0.65979 0.99823 0.0
H2162 H 0.86693 0.36038 0.52092 0.0
H2163 H 0.86571 0.38386 0.4977 0.0
H2164 H 0.8474 0.40317 0.55295 0.0
H2165 H 0.84813 0.37936 0.57611 0.0
H2166 H 0.82835 0.40185 0.51756 0.0
H2167 H 0.89314 0.42674 0.53499 0.0
H2168 H 0.9229 0.42668 0.53766 0.0
H2169 H 0.92354 0.42061 0.46788 0.0
H2170 H 0.89363 0.42037 0.46482 0.0
H2171 H 0.85382 0.49299 0.47975 0.0
H2172 H 0.85166 0.46632 0.49974 0.0
H2173 H 0.86266 0.44553 0.4401 0.0
H2174 H 0.86469 0.47216 0.4199 0.0
H2175 H 0.88472 0.4467 0.47591 0.0
H2176 H 0.82015 0.42376 0.45911 0.0
H2177 H 0.79096 0.42497 0.4575 0.0
H2178 H 0.79067 0.42881 0.52761 0.0
H2179 H 0.82002 0.42789 0.52962 0.0
C2180 C 0.86259 0.3696 0.52809 0.0
C2181 C 0.85773 0.36813 0.55035 0.0
C2182 C 0.86196 0.38305 0.51483 0.0
C2183 C 0.85674 0.39547 0.52366 0.0
C2184 C 0.8515 0.39376 0.54579 0.0
C2185 C 0.85198 0.3802 0.55902 0.0
C2186 C 0.857 0.41043 0.50993 0.0
C2187 C 0.84074 0.41177 0.50865 0.0
C2188 C 0.87305 0.42316 0.49792 0.0
C2189 C 0.89105 0.42334 0.4997 0.0
C2190 C 0.89955 0.42524 0.52023 0.0
C2191 C 0.91646 0.42529 0.52181 0.0
C2192 C 0.92507 0.42359 0.50296 0.0
C2193 C 0.91683 0.42189 0.48247 0.0
C2194 C 0.89991 0.42181 0.4808 0.0
C2195 C 0.85569 0.48269 0.47087 0.0
C2196 C 0.85942 0.48463 0.44827 0.0
C2197 C 0.85439 0.46745 0.48229 0.0
C2198 C 0.85689 0.45393 0.47135 0.0
C2199 C 0.86065 0.45582 0.44879 0.0
C2200 C 0.86175 0.47098 0.43729 0.0
C2201 C 0.85613 0.43813 0.48369 0.0
C2202 C 0.87231 0.43667 0.48472 0.0
C2203 C 0.84008 0.42544 0.49564 0.0
C2204 C 0.82239 0.42592 0.49449 0.0
C2205 C 0.81395 0.42502 0.47417 0.0
C2206 C 0.79736 0.42562 0.47319 0.0
C2207 C 0.78899 0.42701 0.49244 0.0
C2208 C 0.79718 0.42775 0.51272 0.0
C2209 C 0.81378 0.42717 0.51379 0.0
H2210 H 0.77614 0.42748 0.49165 0.0
H2211 H 0.93816 0.42363 0.50421 0.0
H2212 H 0.38788 0.85908 0.91777 0.0
H2213 H 0.41204 0.85812 0.94003 0.0
H2214 H 0.38608 0.86369 0.99869 0.0
H2215 H 0.36225 0.86517 0.97651 0.0
H2216 H 0.42233 0.8857 0.0011 0.0
H2217 H 0.38163 0.82129 0.9827 0.0
H2218 H 0.36371 0.79439 0.95821 0.0
H2219 H 0.41446 0.80508 0.92636 0.0
H2220 H 0.43267 0.83222 0.95048 0.0
H2221 H 0.46847 0.85781 0.07806 0.0
H2222 H 0.4443 0.85815 0.05513 0.0
H2223 H 0.47513 0.86032 0.99714 0.0
H2224 H 0.49938 0.86008 0.01993 0.0
H2225 H 0.43678 0.8344 0.99427 0.0
H2226 H 0.47728 0.89886 0.01373 0.0
H2227 H 0.49467 0.92504 0.03931 0.0
H2228 H 0.44329 0.91326 0.07042 0.0
H2229 H 0.42561 0.88681 0.04521 0.0
C2230 C 0.38733 0.86007 0.93541 0.0
C2231 C 0.37317 0.86216 0.94541 0.0
C2232 C 0.40109 0.85944 0.94812 0.0
C2233 C 0.40075 0.86061 0.97107 0.0
C2234 C 0.38664 0.86277 0.98103 0.0
C2235 C 0.37299 0.86355 0.96834 0.0
C2236 C 0.41523 0.85985 0.98474 0.0
C2237 C 0.4253 0.87434 0.99978 0.0
C2238 C 0.41939 0.84523 0.98276 0.0
C2239 C 0.40848 0.8289 0.96825 0.0
C2240 C 0.38895 0.818 0.97036 0.0
C2241 C 0.37875 0.80269 0.95656 0.0
C2242 C 0.38794 0.79806 0.94069 0.0
C2243 C 0.40736 0.8087 0.93863 0.0
C2244 C 0.41763 0.82404 0.95238 0.0
C2245 C 0.47006 0.85831 0.06043 0.0
C2246 C 0.48582 0.85899 0.05077 0.0
C2247 C 0.45629 0.85855 0.04737 0.0
C2248 C 0.45802 0.85938 0.02447 0.0
C2249 C 0.47356 0.85969 0.01478 0.0
C2250 C 0.48741 0.85962 0.02783 0.0
C2251 C 0.44373 0.86016 0.0106 0.0
C2252 C 0.43375 0.84572 0.99553 0.0
C2253 C 0.43955 0.87473 0.01267 0.0
C2254 C 0.45014 0.89073 0.02772 0.0
C2255 C 0.4697 0.90176 0.02614 0.0
C2256 C 0.47961 0.91667 0.04055 0.0
C2257 C 0.4701 0.92078 0.05652 0.0
C2258 C 0.45065 0.91004 0.05806 0.0
C2259 C 0.44067 0.89509 0.0437 0.0
H2260 H 0.47778 0.93232 0.06769 0.0
H2261 H 0.38002 0.7862 0.93003 0.0
H2262 H 0.53438 0.38797 0.42368 0.0
H2263 H 0.55902 0.41115 0.4472 0.0
H2264 H 0.51991 0.39495 0.50082 0.0
H2265 H 0.49508 0.3721 0.47716 0.0
H2266 H 0.54047 0.43149 0.49933 0.0
H2267 H 0.55301 0.38096 0.49797 0.0
H2268 H 0.55869 0.35707 0.48127 0.0
H2269 H 0.60786 0.40003 0.44951 0.0
H2270 H 0.60233 0.42418 0.46579 0.0
H2271 H 0.60958 0.47472 0.58311 0.0
H2272 H 0.58506 0.45021 0.56046 0.0
H2273 H 0.61898 0.47421 0.50286 0.0
H2274 H 0.64338 0.49898 0.52532 0.0
H2275 H 0.60116 0.43334 0.50741 0.0
H2276 H 0.5877 0.48369 0.50934 0.0
H2277 H 0.58242 0.507 0.5281 0.0
H2278 H 0.53436 0.46313 0.5606 0.0
H2279 H 0.53973 0.43951 0.54248 0.0
C2280 C 0.53104 0.38936 0.44048 0.0
C2281 C 0.51283 0.3782 0.44862 0.0
C2282 C 0.54515 0.40254 0.45394 0.0
C2283 C 0.5414 0.4046 0.47589 0.0
C2284 C 0.52315 0.39359 0.48396 0.0
C2285 C 0.50899 0.38051 0.47045 0.0
C2286 C 0.55645 0.41837 0.49034 0.0
C2287 C 0.55362 0.43169 0.50132 0.0
C2288 C 0.57376 0.41885 0.49273 0.0
C2289 C 0.57715 0.40437 0.48293 0.0
C2290 C 0.56495 0.38531 0.48729 0.0
C2291 C 0.56816 0.37172 0.47792 0.0
C2292 C 0.58359 0.37703 0.46429 0.0
C2293 C 0.59589 0.39594 0.46005 0.0
C2294 C 0.59274 0.40958 0.46936 0.0
C2295 C 0.61183 0.4747 0.56564 0.0
C2296 C 0.62831 0.48877 0.55592 0.0
C2297 C 0.59784 0.46073 0.55275 0.0
C2298 C 0.60026 0.46048 0.53004 0.0
C2299 C 0.61692 0.47419 0.52038 0.0
C2300 C 0.63077 0.48835 0.5332 0.0
C2301 C 0.5851 0.44633 0.51621 0.0
C2302 C 0.58794 0.433 0.5054 0.0
C2303 C 0.56775 0.44571 0.51415 0.0
C2304 C 0.56426 0.45984 0.52475 0.0
C2305 C 0.57612 0.47901 0.52066 0.0
C2306 C 0.57309 0.49228 0.53116 0.0
C2307 C 0.55806 0.48657 0.54556 0.0
C2308 C 0.54602 0.46754 0.54946 0.0
C2309 C 0.54907 0.4542 0.5391 0.0
H2310 H 0.55572 0.49687 0.55367 0.0
H2311 H 0.58605 0.36649 0.45706 0.0
H2312 H 0.14194 0.49986 0.98172 0.0
H2313 H 0.14407 0.52497 0.00487 0.0
H2314 H 0.15439 0.55959 0.94776 0.0
H2315 H 0.15284 0.53467 0.92456 0.0
H2316 H 0.17554 0.58011 0.98065 0.0
H2317 H 0.11066 0.53529 0.97115 0.0
H2318 H 0.08254 0.50397 0.97164 0.0
H2319 H 0.08862 0.5002 0.04099 0.0
H2320 H 0.11695 0.5314 0.04086 0.0
H2321 H 0.147 0.64162 0.02486 0.0
H2322 H 0.1493 0.61784 0.00346 0.0
H2323 H 0.14589 0.58794 0.06279 0.0
H2324 H 0.1436 0.61175 0.08437 0.0
H2325 H 0.12191 0.56521 0.02964 0.0
H2326 H 0.18673 0.61194 0.03813 0.0
H2327 H 0.21364 0.644 0.0362 0.0
H2328 H 0.20615 0.6449 0.96672 0.0
H2329 H 0.17901 0.61293 0.96827 0.0
C2330 C 0.14481 0.51288 0.97412 0.0
C2331 C 0.14706 0.51527 0.95133 0.0
C2332 C 0.14595 0.52719 0.98735 0.0
C2333 C 0.14901 0.54403 0.97801 0.0
C2334 C 0.15194 0.54669 0.95532 0.0
C2335 C 0.15101 0.53244 0.94208 0.0
C2336 C 0.1485 0.55856 0.99181 0.0
C2337 C 0.16373 0.57689 0.99119 0.0
C2338 C 0.13319 0.55431 0.00578 0.0
C2339 C 0.11604 0.53561 0.00595 0.0
C2340 C 0.10608 0.52773 0.98648 0.0
C2341 C 0.09009 0.51001 0.98669 0.0
C2342 C 0.08383 0.50008 0.00632 0.0
C2343 C 0.0935 0.50789 0.02579 0.0
C2344 C 0.10952 0.5256 0.02566 0.0
C2345 C 0.14681 0.63002 0.03337 0.0
C2346 C 0.14513 0.62853 0.05628 0.0
C2347 C 0.1482 0.6165 0.02113 0.0
C2348 C 0.1479 0.60122 0.03158 0.0
C2349 C 0.14618 0.59966 0.05445 0.0
C2350 C 0.14493 0.61327 0.06674 0.0
C2351 C 0.14894 0.58668 0.0185 0.0
C2352 C 0.13376 0.56837 0.0192 0.0
C2353 C 0.16416 0.59101 0.00439 0.0
C2354 C 0.18074 0.61009 0.00335 0.0
C2355 C 0.19075 0.61901 0.02245 0.0
C2356 C 0.20605 0.63716 0.02143 0.0
C2357 C 0.21157 0.6465 0.00136 0.0
C2358 C 0.20185 0.63766 0.98226 0.0
C2359 C 0.18652 0.61951 0.9832 0.0
H2360 H 0.22339 0.66056 0.00061 0.0
H2361 H 0.07146 0.48635 0.00646 0.0
H2362 H 0.50352 0.1408 0.51964 0.0
H2363 H 0.52838 0.14095 0.49787 0.0
H2364 H 0.55964 0.14669 0.55683 0.0
H2365 H 0.535 0.14714 0.57867 0.0
H2366 H 0.58245 0.16817 0.52587 0.0
H2367 H 0.53438 0.10466 0.5309 0.0
H2368 H 0.50228 0.07804 0.52853 0.0
H2369 H 0.50194 0.08631 0.45914 0.0
H2370 H 0.53392 0.11337 0.46119 0.0
H2371 H 0.64206 0.13874 0.47653 0.0
H2372 H 0.61855 0.14025 0.49949 0.0
H2373 H 0.58995 0.14284 0.44166 0.0
H2374 H 0.61345 0.14141 0.41857 0.0
H2375 H 0.56626 0.11668 0.47296 0.0
H2376 H 0.61539 0.18144 0.46981 0.0
H2377 H 0.64788 0.20716 0.47395 0.0
H2378 H 0.64664 0.19425 0.54227 0.0
H2379 H 0.6142 0.16828 0.53846 0.0
C2380 C 0.51571 0.14215 0.52796 0.0
C2381 C 0.51728 0.14383 0.55085 0.0
C2382 C 0.52989 0.14217 0.51551 0.0
C2383 C 0.54573 0.1435 0.52575 0.0
C2384 C 0.54752 0.1456 0.54859 0.0
C2385 C 0.53342 0.14579 0.56105 0.0
C2386 C 0.56026 0.1424 0.51259 0.0
C2387 C 0.57893 0.15678 0.51452 0.0
C2388 C 0.55566 0.12761 0.49764 0.0
C2389 C 0.53651 0.11117 0.49624 0.0
C2390 C 0.52742 0.1009 0.51515 0.0
C2391 C 0.50924 0.08572 0.51387 0.0
C2392 C 0.50006 0.08046 0.4937 0.0
C2393 C 0.50906 0.0904 0.47476 0.0
C2394 C 0.52722 0.10568 0.47598 0.0
C2395 C 0.63079 0.13969 0.46871 0.0
C2396 C 0.62958 0.13999 0.44577 0.0
C2397 C 0.61742 0.14059 0.48184 0.0
C2398 C 0.6026 0.14175 0.47224 0.0
C2399 C 0.60131 0.14196 0.44934 0.0
C2400 C 0.61476 0.14121 0.4362 0.0
C2401 C 0.58831 0.14254 0.48608 0.0
C2402 C 0.56971 0.12805 0.48432 0.0
C2403 C 0.59302 0.15704 0.50144 0.0
C2404 C 0.61243 0.17281 0.5038 0.0
C2405 C 0.62209 0.184 0.48568 0.0
C2406 C 0.64049 0.19864 0.48797 0.0
C2407 C 0.64934 0.2023 0.50835 0.0
C2408 C 0.63977 0.19138 0.52649 0.0
C2409 C 0.62137 0.17672 0.52428 0.0
H2410 H 0.66359 0.21363 0.51009 0.0
H2411 H 0.48598 0.06868 0.49274 0.0
H2412 H 0.53057 0.38556 0.08011 0.0
H2413 H 0.55702 0.40942 0.05904 0.0
H2414 H 0.53135 0.37999 0.99921 0.0
H2415 H 0.50482 0.35617 0.02013 0.0
H2416 H 0.57042 0.39349 0.00156 0.0
H2417 H 0.52654 0.4153 0.01157 0.0
H2418 H 0.50646 0.42348 0.03323 0.0
H2419 H 0.55444 0.46463 0.06851 0.0
H2420 H 0.57478 0.45648 0.04727 0.0
H2421 H 0.61986 0.4659 0.92358 0.0
H2422 H 0.59632 0.44024 0.94581 0.0
H2423 H 0.61747 0.4745 0.00373 0.0
H2424 H 0.64064 0.5003 0.98152 0.0
H2425 H 0.58118 0.45819 0.00318 0.0
H2426 H 0.6255 0.43769 0.99304 0.0
H2427 H 0.64604 0.42953 0.97231 0.0
H2428 H 0.59844 0.38625 0.93857 0.0
H2429 H 0.57763 0.39432 0.95889 0.0
C2430 C 0.53066 0.38409 0.06249 0.0
C2431 C 0.51561 0.36909 0.05173 0.0
C2432 C 0.54574 0.39773 0.05049 0.0
C2433 C 0.54603 0.3965 0.02758 0.0
C2434 C 0.53136 0.38116 0.01688 0.0
C2435 C 0.5162 0.36763 0.02884 0.0
C2436 C 0.56117 0.41168 0.01465 0.0
C2437 C 0.57271 0.40761 0.00171 0.0
C2438 C 0.56434 0.43015 0.01529 0.0
C2439 C 0.55215 0.43513 0.028 0.0
C2440 C 0.53279 0.42598 0.02408 0.0
C2441 C 0.52136 0.43063 0.03625 0.0
C2442 C 0.52916 0.44453 0.05228 0.0
C2443 C 0.54842 0.45384 0.05612 0.0
C2444 C 0.5599 0.44922 0.04401 0.0
C2445 C 0.61954 0.46789 0.94107 0.0
C2446 C 0.63205 0.48509 0.95082 0.0
C2447 C 0.60615 0.4532 0.95379 0.0
C2448 C 0.60523 0.45537 0.97651 0.0
C2449 C 0.61789 0.47249 0.98625 0.0
C2450 C 0.63115 0.48721 0.97354 0.0
C2451 C 0.59062 0.44011 0.99003 0.0
C2452 C 0.57906 0.44413 0.00307 0.0
C2453 C 0.58756 0.42164 0.98958 0.0
C2454 C 0.60003 0.41673 0.97734 0.0
C2455 C 0.61943 0.42653 0.98107 0.0
C2456 C 0.63111 0.4219 0.96942 0.0
C2457 C 0.62355 0.40741 0.95409 0.0
C2458 C 0.60428 0.39748 0.95042 0.0
C2459 C 0.59253 0.40207 0.96202 0.0
H2460 H 0.63262 0.40385 0.94508 0.0
H2461 H 0.5203 0.44812 0.06169 0.0
H2462 H 0.12318 0.60143 0.42525 0.0
H2463 H 0.12496 0.57772 0.44732 0.0
H2464 H 0.17676 0.62017 0.4757 0.0
H2465 H 0.1753 0.64398 0.45316 0.0
H2466 H 0.17711 0.58764 0.46967 0.0
H2467 H 0.13636 0.60629 0.50242 0.0
H2468 H 0.11031 0.61279 0.50371 0.0
H2469 H 0.07145 0.55545 0.4882 0.0
H2470 H 0.09731 0.54866 0.48649 0.0
H2471 H 0.16773 0.53299 0.56582 0.0
H2472 H 0.17123 0.55803 0.54119 0.0
H2473 H 0.12158 0.51866 0.50629 0.0
H2474 H 0.11802 0.49367 0.53071 0.0
H2475 H 0.12166 0.55108 0.51706 0.0
H2476 H 0.16323 0.53284 0.48423 0.0
H2477 H 0.18951 0.52667 0.48454 0.0
H2478 H 0.22725 0.58383 0.50202 0.0
H2479 H 0.20112 0.59027 0.50214 0.0
C2480 C 0.13512 0.60568 0.43591 0.0
C2481 C 0.149 0.62457 0.43768 0.0
C2482 C 0.13609 0.59213 0.44856 0.0
C2483 C 0.15077 0.59725 0.46352 0.0
C2484 C 0.16526 0.61594 0.46435 0.0
C2485 C 0.1644 0.62952 0.45149 0.0
C2486 C 0.15014 0.58331 0.47934 0.0
C2487 C 0.16511 0.57981 0.48023 0.0
C2488 C 0.13441 0.573 0.49305 0.0
C2489 C 0.1188 0.57701 0.49415 0.0
C2490 C 0.12228 0.59509 0.49913 0.0
C2491 C 0.10755 0.59883 0.49995 0.0
C2492 C 0.08925 0.58455 0.496 0.0
C2493 C 0.08564 0.5665 0.49123 0.0
C2494 C 0.10033 0.5627 0.49035 0.0
C2495 C 0.15759 0.52971 0.55288 0.0
C2496 C 0.1426 0.5114 0.55018 0.0
C2497 C 0.15965 0.54398 0.53879 0.0
C2498 C 0.14671 0.54014 0.52186 0.0
C2499 C 0.13171 0.52189 0.51925 0.0
C2500 C 0.12972 0.50764 0.53319 0.0
C2501 C 0.14844 0.55515 0.50709 0.0
C2502 C 0.13369 0.55893 0.50651 0.0
C2503 C 0.1644 0.56575 0.49386 0.0
C2504 C 0.18018 0.56199 0.49342 0.0
C2505 C 0.17711 0.54406 0.4883 0.0
C2506 C 0.19198 0.54052 0.48837 0.0
C2507 C 0.21003 0.55483 0.49337 0.0
C2508 C 0.21326 0.57274 0.4982 0.0
C2509 C 0.19842 0.57635 0.49817 0.0
H2510 H 0.22152 0.55205 0.49346 0.0
H2511 H 0.07787 0.58746 0.49672 0.0
H2512 H 0.60532 0.10537 0.04638 0.0
H2513 H 0.58139 0.10599 0.02349 0.0
H2514 H 0.60879 0.16597 0.03069 0.0
H2515 H 0.63212 0.16518 0.05471 0.0
H2516 H 0.57386 0.15344 0.03176 0.0
H2517 H 0.61291 0.14312 0.98299 0.0
H2518 H 0.62988 0.12785 0.96876 0.0
H2519 H 0.57802 0.07645 0.96067 0.0
H2520 H 0.56076 0.09135 0.97513 0.0
H2521 H 0.52999 0.16604 0.93652 0.0
H2522 H 0.55401 0.16603 0.96014 0.0
H2523 H 0.51799 0.1072 0.97263 0.0
H2524 H 0.49374 0.10719 0.94947 0.0
H2525 H 0.55767 0.12006 0.96052 0.0
H2526 H 0.51946 0.13271 0.01028 0.0
H2527 H 0.50417 0.15025 0.02248 0.0
H2528 H 0.5575 0.20063 0.02574 0.0
H2529 H 0.57308 0.18343 0.01322 0.0
C2530 C 0.60614 0.11866 0.04316 0.0
C2531 C 0.62058 0.13524 0.05217 0.0
C2532 C 0.59255 0.11904 0.02993 0.0
C2533 C 0.59352 0.13609 0.02483 0.0
C2534 C 0.60775 0.15264 0.03427 0.0
C2535 C 0.62109 0.1522 0.04797 0.0
C2536 C 0.57974 0.13666 0.00963 0.0
C2537 C 0.57057 0.14634 0.01606 0.0
C2538 C 0.57524 0.12731 0.98914 0.0
C2539 C 0.58556 0.11831 0.98033 0.0
C2540 C 0.60514 0.12853 0.9783 0.0
C2541 C 0.61481 0.11994 0.97018 0.0
C2542 C 0.60504 0.10118 0.96386 0.0
C2543 C 0.58557 0.09098 0.96559 0.0
C2544 C 0.57583 0.09949 0.97373 0.0
C2545 C 0.52725 0.1531 0.94422 0.0
C2546 C 0.51003 0.13661 0.94122 0.0
C2547 C 0.54093 0.15313 0.95772 0.0
C2548 C 0.53768 0.13662 0.96811 0.0
C2549 C 0.52069 0.12005 0.96471 0.0
C2550 C 0.50688 0.12009 0.95155 0.0
C2551 C 0.5519 0.13668 0.98282 0.0
C2552 C 0.56112 0.12716 0.97622 0.0
C2553 C 0.55675 0.14652 0.00287 0.0
C2554 C 0.5474 0.15682 0.01058 0.0
C2555 C 0.5279 0.14756 0.0134 0.0
C2556 C 0.51919 0.15743 0.02041 0.0
C2557 C 0.52985 0.17656 0.02482 0.0
C2558 C 0.54926 0.18583 0.02229 0.0
C2559 C 0.55803 0.17602 0.01525 0.0
H2560 H 0.52308 0.18418 0.03025 0.0
H2561 H 0.61255 0.09455 0.95758 0.0
H2562 H 0.4623 0.63385 0.56074 0.0
H2563 H 0.43764 0.61284 0.53554 0.0
H2564 H 0.4752 0.59644 0.50731 0.0
H2565 H 0.50004 0.61798 0.53179 0.0
H2566 H 0.45686 0.60107 0.47618 0.0
H2567 H 0.43954 0.5687 0.54541 0.0
H2568 H 0.43164 0.56484 0.58473 0.0
H2569 H 0.38508 0.57301 0.57212 0.0
H2570 H 0.39285 0.57715 0.53274 0.0
H2571 H 0.39388 0.51243 0.43081 0.0
H2572 H 0.41711 0.53881 0.4523 0.0
H2573 H 0.37637 0.55545 0.46659 0.0
H2574 H 0.35299 0.52904 0.44497 0.0
H2575 H 0.39467 0.55287 0.50364 0.0
H2576 H 0.41092 0.58161 0.43289 0.0
H2577 H 0.41898 0.58385 0.39371 0.0
H2578 H 0.46798 0.58069 0.40948 0.0
H2579 H 0.46007 0.57817 0.44875 0.0
C2580 C 0.46525 0.62573 0.54916 0.0
C2581 C 0.48304 0.62747 0.54826 0.0
C2582 C 0.45114 0.61368 0.53482 0.0
C2583 C 0.45446 0.60284 0.51969 0.0
C2584 C 0.47229 0.60466 0.51878 0.0
C2585 C 0.48645 0.61691 0.53284 0.0
C2586 C 0.43947 0.58955 0.50476 0.0
C2587 C 0.44332 0.59043 0.48224 0.0
C2588 C 0.4216 0.57595 0.51253 0.0
C2589 C 0.4169 0.57344 0.53618 0.0
C2590 C 0.4277 0.56981 0.55105 0.0
C2591 C 0.42323 0.56755 0.57334 0.0
C2592 C 0.4079 0.56873 0.58093 0.0
C2593 C 0.39697 0.57213 0.56623 0.0
C2594 C 0.40139 0.57442 0.54392 0.0
C2595 C 0.38992 0.52184 0.43829 0.0
C2596 C 0.37164 0.5187 0.43623 0.0
C2597 C 0.40322 0.53693 0.45051 0.0
C2598 C 0.39847 0.54912 0.46093 0.0
C2599 C 0.3803 0.54621 0.45862 0.0
C2600 C 0.36701 0.53119 0.44621 0.0
C2601 C 0.41224 0.56421 0.47523 0.0
C2602 C 0.40814 0.56366 0.4976 0.0
C2603 C 0.42996 0.57794 0.46738 0.0
C2604 C 0.43482 0.57956 0.44377 0.0
C2605 C 0.42334 0.58126 0.428 0.0
C2606 C 0.4279 0.5826 0.40577 0.0
C2607 C 0.44396 0.58238 0.3991 0.0
C2608 C 0.45553 0.58086 0.41466 0.0
C2609 C 0.45103 0.57949 0.43691 0.0
H2610 H 0.44746 0.58342 0.38189 0.0
H2611 H 0.40446 0.56698 0.59819 0.0
H2612 H 0.8523 0.38431 0.9246 0.0
H2613 H 0.85019 0.40729 0.94794 0.0
H2614 H 0.85452 0.37939 0.00546 0.0
H2615 H 0.85689 0.35647 0.9822 0.0
H2616 H 0.82615 0.39051 0.00748 0.0
H2617 H 0.89159 0.41562 0.99119 0.0
H2618 H 0.91856 0.42498 0.96666 0.0
H2619 H 0.90659 0.46394 0.93421 0.0
H2620 H 0.87937 0.45458 0.95835 0.0
H2621 H 0.84886 0.46413 0.08431 0.0
H2622 H 0.84664 0.43828 0.06234 0.0
H2623 H 0.85633 0.471 0.0036 0.0
H2624 H 0.85933 0.49704 0.02556 0.0
H2625 H 0.87731 0.45648 0.00268 0.0
H2626 H 0.8123 0.43232 0.01791 0.0
H2627 H 0.78445 0.42282 0.04092 0.0
H2628 H 0.79408 0.38235 0.07355 0.0
H2629 H 0.82215 0.39178 0.05092 0.0
C2630 C 0.85268 0.383 0.94222 0.0
C2631 C 0.85487 0.36869 0.95161 0.0
C2632 C 0.85148 0.39612 0.9555 0.0
C2633 C 0.85228 0.39503 0.97838 0.0
C2634 C 0.85385 0.38041 0.98783 0.0
C2635 C 0.8553 0.36742 0.97454 0.0
C2636 C 0.85238 0.40971 0.99234 0.0
C2637 C 0.8374 0.40492 0.00669 0.0
C2638 C 0.86688 0.42851 0.99084 0.0
C2639 C 0.88333 0.43426 0.97642 0.0
C2640 C 0.89462 0.42606 0.9787 0.0
C2641 C 0.90996 0.43139 0.96489 0.0
C2642 C 0.91426 0.44501 0.94884 0.0
C2643 C 0.90324 0.45337 0.94662 0.0
C2644 C 0.88785 0.44807 0.96037 0.0
C2645 C 0.85032 0.46569 0.06668 0.0
C2646 C 0.85433 0.48258 0.05662 0.0
C2647 C 0.84897 0.45089 0.05412 0.0
C2648 C 0.85117 0.45261 0.03125 0.0
C2649 C 0.85466 0.46934 0.0212 0.0
C2650 C 0.85632 0.4842 0.03376 0.0
C2651 C 0.85089 0.43747 0.01781 0.0
C2652 C 0.86594 0.44213 0.00355 0.0
C2653 C 0.83632 0.41861 0.01924 0.0
C2654 C 0.81944 0.4129 0.03287 0.0
C2655 C 0.80857 0.4215 0.03011 0.0
C2656 C 0.79273 0.41611 0.04307 0.0
C2657 C 0.78753 0.40203 0.05873 0.0
C2658 C 0.79814 0.39328 0.06143 0.0
C2659 C 0.81401 0.39863 0.04853 0.0
H2660 H 0.77526 0.39788 0.06874 0.0
H2661 H 0.92614 0.44912 0.93817 0.0
H2662 H 0.49214 0.85104 0.47692 0.0
H2663 H 0.46658 0.84974 0.49859 0.0
H2664 H 0.44216 0.85748 0.43991 0.0
H2665 H 0.46764 0.85868 0.4181 0.0
H2666 H 0.44524 0.88134 0.47404 0.0
H2667 H 0.4221 0.81588 0.46258 0.0
H2668 H 0.42362 0.78683 0.46305 0.0
H2669 H 0.4311 0.79118 0.53282 0.0
H2670 H 0.42989 0.82042 0.53273 0.0
H2671 H 0.35944 0.86403 0.51887 0.0
H2672 H 0.38274 0.86165 0.49662 0.0
H2673 H 0.40459 0.84937 0.55451 0.0
H2674 H 0.38106 0.85144 0.57689 0.0
H2675 H 0.40271 0.82745 0.52068 0.0
H2676 H 0.42673 0.89274 0.53271 0.0
H2677 H 0.42608 0.92225 0.53308 0.0
H2678 H 0.41819 0.91893 0.46337 0.0
H2679 H 0.41852 0.88923 0.46263 0.0
C2680 C 0.48126 0.85235 0.46862 0.0
C2681 C 0.48186 0.85497 0.44583 0.0
C2682 C 0.46665 0.85154 0.48101 0.0
C2683 C 0.45245 0.85343 0.47082 0.0
C2684 C 0.45299 0.85598 0.44806 0.0
C2685 C 0.4675 0.85661 0.43563 0.0
C2686 C 0.43739 0.85337 0.48404 0.0
C2687 C 0.43574 0.86945 0.48398 0.0
C2688 C 0.42542 0.83806 0.4975 0.0
C2689 C 0.42609 0.82045 0.49761 0.0
C2690 C 0.42423 0.81074 0.478 0.0
C2691 C 0.425 0.79422 0.4782 0.0
C2692 C 0.42751 0.78719 0.49794 0.0
C2693 C 0.42919 0.79665 0.51753 0.0
C2694 C 0.42845 0.81319 0.51742 0.0
C2695 C 0.36915 0.86074 0.52686 0.0
C2696 C 0.36853 0.85805 0.54964 0.0
C2697 C 0.38249 0.85944 0.51413 0.0
C2698 C 0.39558 0.85561 0.52395 0.0
C2699 C 0.39465 0.85239 0.54662 0.0
C2700 C 0.38125 0.85363 0.55938 0.0
C2701 C 0.41048 0.8554 0.5106 0.0
C2702 C 0.41216 0.83931 0.51069 0.0
C2703 C 0.42261 0.87077 0.49728 0.0
C2704 C 0.42245 0.88866 0.49765 0.0
C2705 C 0.4247 0.89822 0.51748 0.0
C2706 C 0.42442 0.915 0.51776 0.0
C2707 C 0.42204 0.92244 0.49827 0.0
C2708 C 0.42 0.91314 0.47846 0.0
C2709 C 0.42024 0.89634 0.4781 0.0
H2710 H 0.42183 0.93543 0.49852 0.0
H2711 H 0.4281 0.77439 0.49806 0.0
loop_
_geom_bond_atom_site_label_1
_geom_bond_atom_site_label_2
_geom_bond_distance
_geom_bond_site_symmetry_2
_ccdc_geom_bond_type
In0 O1 2.294 . S
In0 O2 2.326 . S
In0 O6 2.266 . S
In0 O7 2.326 . S
In0 O8 2.266 . S
In0 O9 2.326 . S
In0 O11 2.294 . S
In0 O12 2.326 . S
O1 In0 2.294 . S
O1 C10 1.240 . S
O2 In0 2.326 . S
O2 C10 1.252 . S
C3 O6 1.252 . S
C3 O7 1.260 . S
C4 O11 1.240 . S
C4 O12 1.252 . S
C5 O8 1.252 . S
C5 O9 1.260 . S
O6 In0 2.266 . S
O6 C3 1.252 . S
O7 In0 2.326 . S
O7 C3 1.260 . S
O8 In0 2.266 . S
O8 C5 1.252 . S
O9 In0 2.326 . S
O9 C5 1.260 . S
C10 O1 1.240 . S
C10 O2 1.252 . S
O11 In0 2.294 . S
O11 C4 1.240 . S
O12 In0 2.326 . S
O12 C4 1.252 . S
In13 O14 2.294 . S
In13 O15 2.326 . S
In13 O19 2.266 . S
In13 O20 2.326 . S
In13 O21 2.266 . S
In13 O22 2.326 . S
In13 O24 2.294 . S
In13 O25 2.326 . S
O14 In13 2.294 . S
O14 C23 1.240 . S
O15 In13 2.326 . S
O15 C23 1.252 . S
C16 O19 1.252 . S
C16 O20 1.260 . S
C17 O24 1.240 . S
C17 O25 1.252 . S
C18 O21 1.252 . S
C18 O22 1.260 . S
O19 In13 2.266 . S
O19 C16 1.252 . S
O20 In13 2.326 . S
O20 C16 1.260 . S
O21 In13 2.266 . S
O21 C18 1.252 . S
O22 In13 2.326 . S
O22 C18 1.260 . S
C23 O14 1.240 . S
C23 O15 1.252 . S
O24 In13 2.294 . S
O24 C17 1.240 . S
O25 In13 2.326 . S
O25 C17 1.252 . S
In26 O27 2.294 . S
In26 O28 2.326 . S
In26 O32 2.266 . S
In26 O33 2.326 . S
In26 O34 2.266 . S
In26 O35 2.326 . S
In26 O37 2.294 . S
In26 O38 2.326 . S
O27 In26 2.294 . S
O27 C36 1.240 . S
O28 In26 2.326 . S
O28 C36 1.252 . S
C29 O32 1.252 . S
C29 O33 1.260 . S
C30 O37 1.240 . S
C30 O38 1.252 . S
C31 O34 1.252 . S
C31 O35 1.260 . S
O32 In26 2.266 . S
O32 C29 1.252 . S
O33 In26 2.326 . S
O33 C29 1.260 . S
O34 In26 2.266 . S
O34 C31 1.252 . S
O35 In26 2.326 . S
O35 C31 1.260 . S
C36 O27 1.240 . S
C36 O28 1.252 . S
O37 In26 2.294 . S
O37 C30 1.240 . S
O38 In26 2.326 . S
O38 C30 1.252 . S
In39 O40 2.294 . S
In39 O41 2.326 . S
In39 O45 2.266 . S
In39 O46 2.326 . S
In39 O47 2.266 . S
In39 O48 2.326 . S
In39 O50 2.294 . S
In39 O51 2.326 . S
O40 In39 2.294 . S
O40 C49 1.240 . S
O41 In39 2.326 . S
O41 C49 1.252 . S
C42 O45 1.252 . S
C42 O46 1.260 . S
C43 O50 1.240 . S
C43 O51 1.252 . S
C44 O47 1.252 . S
C44 O48 1.260 . S
O45 In39 2.266 . S
O45 C42 1.252 . S
O46 In39 2.326 . S
O46 C42 1.260 . S
O47 In39 2.266 . S
O47 C44 1.252 . S
O48 In39 2.326 . S
O48 C44 1.260 . S
C49 O40 1.240 . S
C49 O41 1.252 . S
O50 In39 2.294 . S
O50 C43 1.240 . S
O51 In39 2.326 . S
O51 C43 1.252 . S
In52 O53 2.294 . S
In52 O54 2.326 . S
In52 O58 2.266 . S
In52 O59 2.326 . S
In52 O60 2.266 . S
In52 O61 2.326 . S
In52 O63 2.294 . S
In52 O64 2.326 . S
O53 In52 2.294 . S
O53 C62 1.240 . S
O54 In52 2.326 . S
O54 C62 1.252 . S
C55 O58 1.252 . S
C55 O59 1.260 . S
C56 O63 1.240 . S
C56 O64 1.252 . S
C57 O60 1.252 . S
C57 O61 1.260 . S
O58 In52 2.266 . S
O58 C55 1.252 . S
O59 In52 2.326 . S
O59 C55 1.260 . S
O60 In52 2.266 . S
O60 C57 1.252 . S
O61 In52 2.326 . S
O61 C57 1.260 . S
C62 O53 1.240 . S
C62 O54 1.252 . S
O63 In52 2.294 . S
O63 C56 1.240 . S
O64 In52 2.326 . S
O64 C56 1.252 . S
In65 O66 2.294 . S
In65 O67 2.326 . S
In65 O71 2.266 . S
In65 O72 2.326 . S
In65 O73 2.266 . S
In65 O74 2.326 . S
In65 O76 2.294 . S
In65 O77 2.326 . S
O66 In65 2.294 . S
O66 C75 1.240 . S
O67 In65 2.326 . S
O67 C75 1.252 . S
C68 O71 1.252 . S
C68 O72 1.260 . S
C69 O76 1.240 . S
C69 O77 1.252 . S
C70 O73 1.252 . S
C70 O74 1.260 . S
O71 In65 2.266 . S
O71 C68 1.252 . S
O72 In65 2.326 . S
O72 C68 1.260 . S
O73 In65 2.266 . S
O73 C70 1.252 . S
O74 In65 2.326 . S
O74 C70 1.260 . S
C75 O66 1.240 . S
C75 O67 1.252 . S
O76 In65 2.294 . S
O76 C69 1.240 . S
O77 In65 2.326 . S
O77 C69 1.252 . S
In78 O79 2.294 . S
In78 O80 2.326 . S
In78 O84 2.266 . S
In78 O85 2.326 . S
In78 O86 2.266 . S
In78 O87 2.326 . S
In78 O89 2.294 . S
In78 O90 2.326 . S
O79 In78 2.294 . S
O79 C88 1.240 . S
O80 In78 2.326 . S
O80 C88 1.252 . S
C81 O84 1.252 . S
C81 O85 1.260 . S
C82 O89 1.240 . S
C82 O90 1.252 . S
C83 O86 1.252 . S
C83 O87 1.260 . S
O84 In78 2.266 . S
O84 C81 1.252 . S
O85 In78 2.326 . S
O85 C81 1.260 . S
O86 In78 2.266 . S
O86 C83 1.252 . S
O87 In78 2.326 . S
O87 C83 1.260 . S
C88 O79 1.240 . S
C88 O80 1.252 . S
O89 In78 2.294 . S
O89 C82 1.240 . S
O90 In78 2.326 . S
O90 C82 1.252 . S
In91 O92 2.294 . S
In91 O93 2.326 . S
In91 O97 2.266 . S
In91 O98 2.326 . S
In91 O99 2.266 . S
In91 O100 2.326 . S
In91 O102 2.294 . S
In91 O103 2.326 . S
O92 In91 2.294 . S
O92 C101 1.240 . S
O93 In91 2.326 . S
O93 C101 1.252 . S
C94 O97 1.252 . S
C94 O98 1.260 . S
C95 O102 1.240 . S
C95 O103 1.252 . S
C96 O99 1.252 . S
C96 O100 1.260 . S
O97 In91 2.266 . S
O97 C94 1.252 . S
O98 In91 2.326 . S
O98 C94 1.260 . S
O99 In91 2.266 . S
O99 C96 1.252 . S
O100 In91 2.326 . S
O100 C96 1.260 . S
C101 O92 1.240 . S
C101 O93 1.252 . S
O102 In91 2.294 . S
O102 C95 1.240 . S
O103 In91 2.326 . S
O103 C95 1.252 . S
In104 O105 2.294 . S
In104 O106 2.326 . S
In104 O110 2.266 . S
In104 O111 2.326 . S
In104 O112 2.266 . S
In104 O113 2.326 . S
In104 O115 2.294 . S
In104 O116 2.326 . S
O105 In104 2.294 . S
O105 C114 1.240 . S
O106 In104 2.326 . S
O106 C114 1.252 . S
C107 O110 1.252 . S
C107 O111 1.260 . S
C108 O115 1.240 . S
C108 O116 1.252 . S
C109 O112 1.252 . S
C109 O113 1.260 . S
O110 In104 2.266 . S
O110 C107 1.252 . S
O111 In104 2.326 . S
O111 C107 1.260 . S
O112 In104 2.266 . S
O112 C109 1.252 . S
O113 In104 2.326 . S
O113 C109 1.260 . S
C114 O105 1.240 . S
C114 O106 1.252 . S
O115 In104 2.294 . S
O115 C108 1.240 . S
O116 In104 2.326 . S
O116 C108 1.252 . S
In117 O118 2.294 . S
In117 O119 2.326 . S
In117 O123 2.266 . S
In117 O124 2.326 . S
In117 O125 2.266 . S
In117 O126 2.326 . S
In117 O128 2.294 . S
In117 O129 2.326 . S
O118 In117 2.294 . S
O118 C127 1.240 . S
O119 In117 2.326 . S
O119 C127 1.252 . S
C120 O123 1.252 . S
C120 O124 1.260 . S
C121 O128 1.240 . S
C121 O129 1.252 . S
C122 O125 1.252 . S
C122 O126 1.260 . S
O123 In117 2.266 . S
O123 C120 1.252 . S
O124 In117 2.326 . S
O124 C120 1.260 . S
O125 In117 2.266 . S
O125 C122 1.252 . S
O126 In117 2.326 . S
O126 C122 1.260 . S
C127 O118 1.240 . S
C127 O119 1.252 . S
O128 In117 2.294 . S
O128 C121 1.240 . S
O129 In117 2.326 . S
O129 C121 1.252 . S
In130 O131 2.294 . S
In130 O132 2.326 . S
In130 O136 2.266 . S
In130 O137 2.326 . S
In130 O138 2.266 . S
In130 O139 2.326 . S
In130 O141 2.294 . S
In130 O142 2.326 . S
O131 In130 2.294 . S
O131 C140 1.240 . S
O132 In130 2.326 . S
O132 C140 1.252 . S
C133 O136 1.252 . S
C133 O137 1.260 . S
C134 O141 1.240 . S
C134 O142 1.252 . S
C135 O138 1.252 . S
C135 O139 1.260 . S
O136 In130 2.266 . S
O136 C133 1.252 . S
O137 In130 2.326 . S
O137 C133 1.260 . S
O138 In130 2.266 . S
O138 C135 1.252 . S
O139 In130 2.326 . S
O139 C135 1.260 . S
C140 O131 1.240 . S
C140 O132 1.252 . S
O141 In130 2.294 . S
O141 C134 1.240 . S
O142 In130 2.326 . S
O142 C134 1.252 . S
In143 O144 2.294 . S
In143 O145 2.326 . S
In143 O149 2.266 . S
In143 O150 2.326 . S
In143 O151 2.266 . S
In143 O152 2.326 . S
In143 O154 2.294 . S
In143 O155 2.326 . S
O144 In143 2.294 . S
O144 C153 1.240 . S
O145 In143 2.326 . S
O145 C153 1.252 . S
C146 O149 1.252 . S
C146 O150 1.260 . S
C147 O154 1.240 . S
C147 O155 1.252 . S
C148 O151 1.252 . S
C148 O152 1.260 . S
O149 In143 2.266 . S
O149 C146 1.252 . S
O150 In143 2.326 . S
O150 C146 1.260 . S
O151 In143 2.266 . S
O151 C148 1.252 . S
O152 In143 2.326 . S
O152 C148 1.260 . S
C153 O144 1.240 . S
C153 O145 1.252 . S
O154 In143 2.294 . S
O154 C147 1.240 . S
O155 In143 2.326 . S
O155 C147 1.252 . S
In156 O157 2.294 . S
In156 O158 2.326 . S
In156 O162 2.266 . S
In156 O163 2.326 . S
In156 O164 2.266 . S
In156 O165 2.326 . S
In156 O167 2.294 . S
In156 O168 2.326 . S
O157 In156 2.294 . S
O157 C166 1.240 . S
O158 In156 2.326 . S
O158 C166 1.252 . S
C159 O162 1.252 . S
C159 O163 1.260 . S
C160 O167 1.240 . S
C160 O168 1.252 . S
C161 O164 1.252 . S
C161 O165 1.260 . S
O162 In156 2.266 . S
O162 C159 1.252 . S
O163 In156 2.326 . S
O163 C159 1.260 . S
O164 In156 2.266 . S
O164 C161 1.252 . S
O165 In156 2.326 . S
O165 C161 1.260 . S
C166 O157 1.240 . S
C166 O158 1.252 . S
O167 In156 2.294 . S
O167 C160 1.240 . S
O168 In156 2.326 . S
O168 C160 1.252 . S
In169 O170 2.294 . S
In169 O171 2.326 . S
In169 O175 2.266 . S
In169 O176 2.326 . S
In169 O177 2.266 . S
In169 O178 2.326 . S
In169 O180 2.294 . S
In169 O181 2.326 . S
O170 In169 2.294 . S
O170 C179 1.240 . S
O171 In169 2.326 . S
O171 C179 1.252 . S
C172 O175 1.252 . S
C172 O176 1.260 . S
C173 O180 1.240 . S
C173 O181 1.252 . S
C174 O177 1.252 . S
C174 O178 1.260 . S
O175 In169 2.266 . S
O175 C172 1.252 . S
O176 In169 2.326 . S
O176 C172 1.260 . S
O177 In169 2.266 . S
O177 C174 1.252 . S
O178 In169 2.326 . S
O178 C174 1.260 . S
C179 O170 1.240 . S
C179 O171 1.252 . S
O180 In169 2.294 . S
O180 C173 1.240 . S
O181 In169 2.326 . S
O181 C173 1.252 . S
In182 O183 2.294 . S
In182 O184 2.326 . S
In182 O188 2.266 . S
In182 O189 2.326 . S
In182 O190 2.266 . S
In182 O191 2.326 . S
In182 O193 2.294 . S
In182 O194 2.326 . S
O183 In182 2.294 . S
O183 C192 1.240 . S
O184 In182 2.326 . S
O184 C192 1.252 . S
C185 O188 1.252 . S
C185 O189 1.260 . S
C186 O193 1.240 . S
C186 O194 1.252 . S
C187 O190 1.252 . S
C187 O191 1.260 . S
O188 In182 2.266 . S
O188 C185 1.252 . S
O189 In182 2.326 . S
O189 C185 1.260 . S
O190 In182 2.266 . S
O190 C187 1.252 . S
O191 In182 2.326 . S
O191 C187 1.260 . S
C192 O183 1.240 . S
C192 O184 1.252 . S
O193 In182 2.294 . S
O193 C186 1.240 . S
O194 In182 2.326 . S
O194 C186 1.252 . S
In195 O196 2.294 . S
In195 O197 2.326 . S
In195 O201 2.266 . S
In195 O202 2.326 . S
In195 O203 2.266 . S
In195 O204 2.326 . S
In195 O206 2.294 . S
In195 O207 2.326 . S
O196 In195 2.294 . S
O196 C205 1.240 . S
O197 In195 2.326 . S
O197 C205 1.252 . S
C198 O201 1.252 . S
C198 O202 1.260 . S
C199 O206 1.240 . S
C199 O207 1.252 . S
C200 O203 1.252 . S
C200 O204 1.260 . S
O201 In195 2.266 . S
O201 C198 1.252 . S
O202 In195 2.326 . S
O202 C198 1.260 . S
O203 In195 2.266 . S
O203 C200 1.252 . S
O204 In195 2.326 . S
O204 C200 1.260 . S
C205 O196 1.240 . S
C205 O197 1.252 . S
O206 In195 2.294 . S
O206 C199 1.240 . S
O207 In195 2.326 . S
O207 C199 1.252 . S
In208 O209 2.294 . S
In208 O210 2.326 . S
In208 O214 2.266 . S
In208 O215 2.326 . S
In208 O216 2.266 . S
In208 O217 2.326 . S
In208 O219 2.294 . S
In208 O220 2.326 . S
O209 In208 2.294 . S
O209 C218 1.240 . S
O210 In208 2.326 . S
O210 C218 1.252 . S
C211 O214 1.252 . S
C211 O215 1.260 . S
C212 O219 1.240 . S
C212 O220 1.252 . S
C213 O216 1.252 . S
C213 O217 1.260 . S
O214 In208 2.266 . S
O214 C211 1.252 . S
O215 In208 2.326 . S
O215 C211 1.260 . S
O216 In208 2.266 . S
O216 C213 1.252 . S
O217 In208 2.326 . S
O217 C213 1.260 . S
C218 O209 1.240 . S
C218 O210 1.252 . S
O219 In208 2.294 . S
O219 C212 1.240 . S
O220 In208 2.326 . S
O220 C212 1.252 . S
In221 O222 2.294 . S
In221 O223 2.326 . S
In221 O227 2.266 . S
In221 O228 2.326 . S
In221 O229 2.266 . S
In221 O230 2.326 . S
In221 O232 2.294 . S
In221 O233 2.326 . S
O222 In221 2.294 . S
O222 C231 1.240 . S
O223 In221 2.326 . S
O223 C231 1.252 . S
C224 O227 1.252 . S
C224 O228 1.260 . S
C225 O232 1.240 . S
C225 O233 1.252 . S
C226 O229 1.252 . S
C226 O230 1.260 . S
O227 In221 2.266 . S
O227 C224 1.252 . S
O228 In221 2.326 . S
O228 C224 1.260 . S
O229 In221 2.266 . S
O229 C226 1.252 . S
O230 In221 2.326 . S
O230 C226 1.260 . S
C231 O222 1.240 . S
C231 O223 1.252 . S
O232 In221 2.294 . S
O232 C225 1.240 . S
O233 In221 2.326 . S
O233 C225 1.252 . S
In234 O235 2.294 . S
In234 O236 2.326 . S
In234 O240 2.266 . S
In234 O241 2.326 . S
In234 O242 2.266 . S
In234 O243 2.326 . S
In234 O245 2.294 . S
In234 O246 2.326 . S
O235 In234 2.294 . S
O235 C244 1.240 . S
O236 In234 2.326 . S
O236 C244 1.252 . S
C237 O240 1.252 . S
C237 O241 1.260 . S
C238 O245 1.240 . S
C238 O246 1.252 . S
C239 O242 1.252 . S
C239 O243 1.260 . S
O240 In234 2.266 . S
O240 C237 1.252 . S
O241 In234 2.326 . S
O241 C237 1.260 . S
O242 In234 2.266 . S
O242 C239 1.252 . S
O243 In234 2.326 . S
O243 C239 1.260 . S
C244 O235 1.240 . S
C244 O236 1.252 . S
O245 In234 2.294 . S
O245 C238 1.240 . S
O246 In234 2.326 . S
O246 C238 1.252 . S
In247 O248 2.294 . S
In247 O249 2.326 . S
In247 O253 2.266 . S
In247 O254 2.326 . S
In247 O255 2.266 . S
In247 O256 2.326 . S
In247 O258 2.294 . S
In247 O259 2.326 . S
O248 In247 2.294 . S
O248 C257 1.240 . S
O249 In247 2.326 . S
O249 C257 1.252 . S
C250 O253 1.252 . S
C250 O254 1.260 . S
C251 O258 1.240 . S
C251 O259 1.252 . S
C252 O255 1.252 . S
C252 O256 1.260 . S
O253 In247 2.266 . S
O253 C250 1.252 . S
O254 In247 2.326 . S
O254 C250 1.260 . S
O255 In247 2.266 . S
O255 C252 1.252 . S
O256 In247 2.326 . S
O256 C252 1.260 . S
C257 O248 1.240 . S
C257 O249 1.252 . S
O258 In247 2.294 . S
O258 C251 1.240 . S
O259 In247 2.326 . S
O259 C251 1.252 . S
In260 O261 2.294 . S
In260 O262 2.326 . S
In260 O266 2.266 . S
In260 O267 2.326 . S
In260 O268 2.266 . S
In260 O269 2.326 . S
In260 O271 2.294 . S
In260 O272 2.326 . S
O261 In260 2.294 . S
O261 C270 1.240 . S
O262 In260 2.326 . S
O262 C270 1.252 . S
C263 O266 1.252 . S
C263 O267 1.260 . S
C264 O271 1.240 . S
C264 O272 1.252 . S
C265 O268 1.252 . S
C265 O269 1.260 . S
O266 In260 2.266 . S
O266 C263 1.252 . S
O267 In260 2.326 . S
O267 C263 1.260 . S
O268 In260 2.266 . S
O268 C265 1.252 . S
O269 In260 2.326 . S
O269 C265 1.260 . S
C270 O261 1.240 . S
C270 O262 1.252 . S
O271 In260 2.294 . S
O271 C264 1.240 . S
O272 In260 2.326 . S
O272 C264 1.252 . S
In273 O274 2.294 . S
In273 O275 2.326 . S
In273 O279 2.266 . S
In273 O280 2.326 . S
In273 O281 2.266 . S
In273 O282 2.326 . S
In273 O284 2.294 . S
In273 O285 2.326 . S
O274 In273 2.294 . S
O274 C283 1.240 . S
O275 In273 2.326 . S
O275 C283 1.252 . S
C276 O279 1.252 . S
C276 O280 1.260 . S
C277 O284 1.240 . S
C277 O285 1.252 . S
C278 O281 1.252 . S
C278 O282 1.260 . S
O279 In273 2.266 . S
O279 C276 1.252 . S
O280 In273 2.326 . S
O280 C276 1.260 . S
O281 In273 2.266 . S
O281 C278 1.252 . S
O282 In273 2.326 . S
O282 C278 1.260 . S
C283 O274 1.240 . S
C283 O275 1.252 . S
O284 In273 2.294 . S
O284 C277 1.240 . S
O285 In273 2.326 . S
O285 C277 1.252 . S
In286 O287 2.294 . S
In286 O288 2.326 . S
In286 O292 2.266 . S
In286 O293 2.326 . S
In286 O294 2.266 . S
In286 O295 2.326 . S
In286 O297 2.294 . S
In286 O298 2.326 . S
O287 In286 2.294 . S
O287 C296 1.240 . S
O288 In286 2.326 . S
O288 C296 1.252 . S
C289 O292 1.252 . S
C289 O293 1.260 . S
C290 O297 1.240 . S
C290 O298 1.252 . S
C291 O294 1.252 . S
C291 O295 1.260 . S
O292 In286 2.266 . S
O292 C289 1.252 . S
O293 In286 2.326 . S
O293 C289 1.260 . S
O294 In286 2.266 . S
O294 C291 1.252 . S
O295 In286 2.326 . S
O295 C291 1.260 . S
C296 O287 1.240 . S
C296 O288 1.252 . S
O297 In286 2.294 . S
O297 C290 1.240 . S
O298 In286 2.326 . S
O298 C290 1.252 . S
In299 O300 2.294 . S
In299 O301 2.326 . S
In299 O305 2.266 . S
In299 O306 2.326 . S
In299 O307 2.266 . S
In299 O308 2.326 . S
In299 O310 2.294 . S
In299 O311 2.326 . S
O300 In299 2.294 . S
O300 C309 1.240 . S
O301 In299 2.326 . S
O301 C309 1.252 . S
C302 O305 1.252 . S
C302 O306 1.260 . S
C303 O310 1.240 . S
C303 O311 1.252 . S
C304 O307 1.252 . S
C304 O308 1.260 . S
O305 In299 2.266 . S
O305 C302 1.252 . S
O306 In299 2.326 . S
O306 C302 1.260 . S
O307 In299 2.266 . S
O307 C304 1.252 . S
O308 In299 2.326 . S
O308 C304 1.260 . S
C309 O300 1.240 . S
C309 O301 1.252 . S
O310 In299 2.294 . S
O310 C303 1.240 . S
O311 In299 2.326 . S
O311 C303 1.252 . S
H312 C330 0.951 . S
H313 C332 0.951 . S
H314 C334 0.950 . S
H315 C335 0.950 . S
H316 C337 0.950 . S
H317 C340 0.950 . S
H318 C341 0.950 . S
H319 C343 0.950 . S
H320 C344 0.950 . S
H321 C345 0.951 . S
H322 C347 0.951 . S
H323 C349 0.950 . S
H324 C350 0.950 . S
H325 C352 0.950 . S
H326 C355 0.950 . S
H327 C356 0.950 . S
H328 C358 0.950 . S
H329 C359 0.950 . S
C330 H312 0.951 . S
C330 C331 1.366 . S
C330 C332 1.388 . S
C331 C330 1.366 . S
C331 C335 1.385 . S
C332 H313 0.951 . S
C332 C330 1.388 . S
C332 C333 1.366 . S
C333 C332 1.366 . S
C333 C334 1.414 . S
C333 C336 1.499 . S
C334 H314 0.950 . S
C334 C333 1.414 . S
C334 C335 1.374 . S
C335 H315 0.950 . S
C335 C331 1.385 . S
C335 C334 1.374 . S
C336 C333 1.499 . S
C336 C337 1.373 . S
C336 C338 1.389 . S
C337 H316 0.950 . S
C337 C336 1.373 . S
C337 C353 1.377 . S
C338 C336 1.389 . S
C338 C339 1.524 . S
C338 C352 1.377 . S
C339 C338 1.524 . S
C339 C340 1.397 . S
C339 C344 1.363 . S
C340 H317 0.950 . S
C340 C339 1.397 . S
C340 C341 1.334 . S
C341 H318 0.950 . S
C341 C340 1.334 . S
C341 C342 1.287 . S
C342 C341 1.287 . S
C342 C343 1.524 . S
C342 H361 0.913 . S
C343 H319 0.950 . S
C343 C342 1.524 . S
C343 C344 1.415 . S
C344 H320 0.950 . S
C344 C339 1.363 . S
C344 C343 1.415 . S
C345 H321 0.951 . S
C345 C346 1.366 . S
C345 C347 1.388 . S
C346 C345 1.366 . S
C346 C350 1.385 . S
C347 H322 0.951 . S
C347 C345 1.388 . S
C347 C348 1.366 . S
C348 C347 1.366 . S
C348 C349 1.414 . S
C348 C351 1.499 . S
C349 H323 0.950 . S
C349 C348 1.414 . S
C349 C350 1.374 . S
C350 H324 0.950 . S
C350 C346 1.385 . S
C350 C349 1.374 . S
C351 C348 1.499 . S
C351 C352 1.373 . S
C351 C353 1.389 . S
C352 H325 0.950 . S
C352 C338 1.377 . S
C352 C351 1.373 . S
C353 C337 1.377 . S
C353 C351 1.389 . S
C353 C354 1.524 . S
C354 C353 1.524 . S
C354 C355 1.397 . S
C354 C359 1.363 . S
C355 H326 0.950 . S
C355 C354 1.397 . S
C355 C356 1.334 . S
C356 H327 0.950 . S
C356 C355 1.334 . S
C356 C357 1.287 . S
C357 C356 1.287 . S
C357 C358 1.524 . S
C357 H360 0.999 . S
C358 H328 0.950 . S
C358 C357 1.524 . S
C358 C359 1.415 . S
C359 H329 0.950 . S
C359 C354 1.363 . S
C359 C358 1.415 . S
H360 C357 0.999 . S
H361 C342 0.913 . S
H362 C380 0.951 . S
H363 C382 0.951 . S
H364 C384 0.950 . S
H365 C385 0.950 . S
H366 C387 0.950 . S
H367 C390 0.950 . S
H368 C391 0.950 . S
H369 C393 0.950 . S
H370 C394 0.950 . S
H371 C395 0.951 . S
H372 C397 0.951 . S
H373 C399 0.950 . S
H374 C400 0.950 . S
H375 C402 0.950 . S
H376 C405 0.950 . S
H377 C406 0.950 . S
H378 C408 0.950 . S
H379 C409 0.950 . S
C380 H362 0.951 . S
C380 C381 1.366 . S
C380 C382 1.388 . S
C381 C380 1.366 . S
C381 C385 1.385 . S
C382 H363 0.951 . S
C382 C380 1.388 . S
C382 C383 1.366 . S
C383 C382 1.366 . S
C383 C384 1.414 . S
C383 C386 1.499 . S
C384 H364 0.950 . S
C384 C383 1.414 . S
C384 C385 1.374 . S
C385 H365 0.950 . S
C385 C381 1.385 . S
C385 C384 1.374 . S
C386 C383 1.499 . S
C386 C387 1.373 . S
C386 C388 1.389 . S
C387 H366 0.950 . S
C387 C386 1.373 . S
C387 C403 1.377 . S
C388 C386 1.389 . S
C388 C389 1.524 . S
C388 C402 1.377 . S
C389 C388 1.524 . S
C389 C390 1.397 . S
C389 C394 1.363 . S
C390 H367 0.950 . S
C390 C389 1.397 . S
C390 C391 1.334 . S
C391 H368 0.950 . S
C391 C390 1.334 . S
C391 C392 1.287 . S
C392 C391 1.287 . S
C392 C393 1.524 . S
C392 H411 0.913 . S
C393 H369 0.950 . S
C393 C392 1.524 . S
C393 C394 1.415 . S
C394 H370 0.950 . S
C394 C389 1.363 . S
C394 C393 1.415 . S
C395 H371 0.951 . S
C395 C396 1.366 . S
C395 C397 1.388 . S
C396 C395 1.366 . S
C396 C400 1.385 . S
C397 H372 0.951 . S
C397 C395 1.388 . S
C397 C398 1.366 . S
C398 C397 1.366 . S
C398 C399 1.414 . S
C398 C401 1.499 . S
C399 H373 0.950 . S
C399 C398 1.414 . S
C399 C400 1.374 . S
C400 H374 0.950 . S
C400 C396 1.385 . S
C400 C399 1.374 . S
C401 C398 1.499 . S
C401 C402 1.373 . S
C401 C403 1.389 . S
C402 H375 0.950 . S
C402 C388 1.377 . S
C402 C401 1.373 . S
C403 C387 1.377 . S
C403 C401 1.389 . S
C403 C404 1.524 . S
C404 C403 1.524 . S
C404 C405 1.397 . S
C404 C409 1.363 . S
C405 H376 0.950 . S
C405 C404 1.397 . S
C405 C406 1.334 . S
C406 H377 0.950 . S
C406 C405 1.334 . S
C406 C407 1.287 . S
C407 C406 1.287 . S
C407 C408 1.524 . S
C407 H410 0.999 . S
C408 H378 0.950 . S
C408 C407 1.524 . S
C408 C409 1.415 . S
C409 H379 0.950 . S
C409 C404 1.363 . S
C409 C408 1.415 . S
H410 C407 0.999 . S
H411 C392 0.913 . S
H412 C430 0.951 . S
H413 C432 0.951 . S
H414 C434 0.950 . S
H415 C435 0.950 . S
H416 C437 0.950 . S
H417 C440 0.950 . S
H418 C441 0.950 . S
H419 C443 0.950 . S
H420 C444 0.950 . S
H421 C445 0.951 . S
H422 C447 0.951 . S
H423 C449 0.950 . S
H424 C450 0.950 . S
H425 C452 0.950 . S
H426 C455 0.950 . S
H427 C456 0.950 . S
H428 C458 0.950 . S
H429 C459 0.950 . S
C430 H412 0.951 . S
C430 C431 1.366 . S
C430 C432 1.388 . S
C431 C430 1.366 . S
C431 C435 1.385 . S
C432 H413 0.951 . S
C432 C430 1.388 . S
C432 C433 1.366 . S
C433 C432 1.366 . S
C433 C434 1.414 . S
C433 C436 1.499 . S
C434 H414 0.950 . S
C434 C433 1.414 . S
C434 C435 1.374 . S
C435 H415 0.950 . S
C435 C431 1.385 . S
C435 C434 1.374 . S
C436 C433 1.499 . S
C436 C437 1.373 . S
C436 C438 1.389 . S
C437 H416 0.950 . S
C437 C436 1.373 . S
C437 C453 1.377 . S
C438 C436 1.389 . S
C438 C439 1.524 . S
C438 C452 1.377 . S
C439 C438 1.524 . S
C439 C440 1.397 . S
C439 C444 1.363 . S
C440 H417 0.950 . S
C440 C439 1.397 . S
C440 C441 1.334 . S
C441 H418 0.950 . S
C441 C440 1.334 . S
C441 C442 1.287 . S
C442 C441 1.287 . S
C442 C443 1.524 . S
C442 H461 0.913 . S
C443 H419 0.950 . S
C443 C442 1.524 . S
C443 C444 1.415 . S
C444 H420 0.950 . S
C444 C439 1.363 . S
C444 C443 1.415 . S
C445 H421 0.951 . S
C445 C446 1.366 . S
C445 C447 1.388 . S
C446 C445 1.366 . S
C446 C450 1.385 . S
C447 H422 0.951 . S
C447 C445 1.388 . S
C447 C448 1.366 . S
C448 C447 1.366 . S
C448 C449 1.414 . S
C448 C451 1.499 . S
C449 H423 0.950 . S
C449 C448 1.414 . S
C449 C450 1.374 . S
C450 H424 0.950 . S
C450 C446 1.385 . S
C450 C449 1.374 . S
C451 C448 1.499 . S
C451 C452 1.373 . S
C451 C453 1.389 . S
C452 H425 0.950 . S
C452 C438 1.377 . S
C452 C451 1.373 . S
C453 C437 1.377 . S
C453 C451 1.389 . S
C453 C454 1.524 . S
C454 C453 1.524 . S
C454 C455 1.397 . S
C454 C459 1.363 . S
C455 H426 0.950 . S
C455 C454 1.397 . S
C455 C456 1.334 . S
C456 H427 0.950 . S
C456 C455 1.334 . S
C456 C457 1.287 . S
C457 C456 1.287 . S
C457 C458 1.524 . S
C457 H460 0.999 . S
C458 H428 0.950 . S
C458 C457 1.524 . S
C458 C459 1.415 . S
C459 H429 0.950 . S
C459 C454 1.363 . S
C459 C458 1.415 . S
H460 C457 0.999 . S
H461 C442 0.913 . S
H462 C480 0.951 . S
H463 C482 0.951 . S
H464 C484 0.950 . S
H465 C485 0.950 . S
H466 C487 0.950 . S
H467 C490 0.950 . S
H468 C491 0.950 . S
H469 C493 0.950 . S
H470 C494 0.950 . S
H471 C495 0.951 . S
H472 C497 0.951 . S
H473 C499 0.950 . S
H474 C500 0.950 . S
H475 C502 0.950 . S
H476 C505 0.950 . S
H477 C506 0.950 . S
H478 C508 0.950 . S
H479 C509 0.950 . S
C480 H462 0.951 . S
C480 C481 1.366 . S
C480 C482 1.388 . S
C481 C480 1.366 . S
C481 C485 1.385 . S
C482 H463 0.951 . S
C482 C480 1.388 . S
C482 C483 1.366 . S
C483 C482 1.366 . S
C483 C484 1.414 . S
C483 C486 1.499 . S
C484 H464 0.950 . S
C484 C483 1.414 . S
C484 C485 1.374 . S
C485 H465 0.950 . S
C485 C481 1.385 . S
C485 C484 1.374 . S
C486 C483 1.499 . S
C486 C487 1.373 . S
C486 C488 1.389 . S
C487 H466 0.950 . S
C487 C486 1.373 . S
C487 C503 1.377 . S
C488 C486 1.389 . S
C488 C489 1.524 . S
C488 C502 1.377 . S
C489 C488 1.524 . S
C489 C490 1.397 . S
C489 C494 1.363 . S
C490 H467 0.950 . S
C490 C489 1.397 . S
C490 C491 1.334 . S
C491 H468 0.950 . S
C491 C490 1.334 . S
C491 C492 1.287 . S
C492 C491 1.287 . S
C492 C493 1.524 . S
C492 H511 0.913 . S
C493 H469 0.950 . S
C493 C492 1.524 . S
C493 C494 1.415 . S
C494 H470 0.950 . S
C494 C489 1.363 . S
C494 C493 1.415 . S
C495 H471 0.951 . S
C495 C496 1.366 . S
C495 C497 1.388 . S
C496 C495 1.366 . S
C496 C500 1.385 . S
C497 H472 0.951 . S
C497 C495 1.388 . S
C497 C498 1.366 . S
C498 C497 1.366 . S
C498 C499 1.414 . S
C498 C501 1.499 . S
C499 H473 0.950 . S
C499 C498 1.414 . S
C499 C500 1.374 . S
C500 H474 0.950 . S
C500 C496 1.385 . S
C500 C499 1.374 . S
C501 C498 1.499 . S
C501 C502 1.373 . S
C501 C503 1.389 . S
C502 H475 0.950 . S
C502 C488 1.377 . S
C502 C501 1.373 . S
C503 C487 1.377 . S
C503 C501 1.389 . S
C503 C504 1.524 . S
C504 C503 1.524 . S
C504 C505 1.397 . S
C504 C509 1.363 . S
C505 H476 0.950 . S
C505 C504 1.397 . S
C505 C506 1.334 . S
C506 H477 0.950 . S
C506 C505 1.334 . S
C506 C507 1.287 . S
C507 C506 1.287 . S
C507 C508 1.524 . S
C507 H510 0.999 . S
C508 H478 0.950 . S
C508 C507 1.524 . S
C508 C509 1.415 . S
C509 H479 0.950 . S
C509 C504 1.363 . S
C509 C508 1.415 . S
H510 C507 0.999 . S
H511 C492 0.913 . S
H512 C530 0.951 . S
H513 C532 0.951 . S
H514 C534 0.950 . S
H515 C535 0.950 . S
H516 C537 0.950 . S
H517 C540 0.950 . S
H518 C541 0.950 . S
H519 C543 0.950 . S
H520 C544 0.950 . S
H521 C545 0.951 . S
H522 C547 0.951 . S
H523 C549 0.950 . S
H524 C550 0.950 . S
H525 C552 0.950 . S
H526 C555 0.950 . S
H527 C556 0.950 . S
H528 C558 0.950 . S
H529 C559 0.950 . S
C530 H512 0.951 . S
C530 C531 1.366 . S
C530 C532 1.388 . S
C531 C530 1.366 . S
C531 C535 1.385 . S
C532 H513 0.951 . S
C532 C530 1.388 . S
C532 C533 1.366 . S
C533 C532 1.366 . S
C533 C534 1.414 . S
C533 C536 1.499 . S
C534 H514 0.950 . S
C534 C533 1.414 . S
C534 C535 1.374 . S
C535 H515 0.950 . S
C535 C531 1.385 . S
C535 C534 1.374 . S
C536 C533 1.499 . S
C536 C537 1.373 . S
C536 C538 1.389 . S
C537 H516 0.950 . S
C537 C536 1.373 . S
C537 C553 1.377 . S
C538 C536 1.389 . S
C538 C539 1.524 . S
C538 C552 1.377 . S
C539 C538 1.524 . S
C539 C540 1.397 . S
C539 C544 1.363 . S
C540 H517 0.950 . S
C540 C539 1.397 . S
C540 C541 1.334 . S
C541 H518 0.950 . S
C541 C540 1.334 . S
C541 C542 1.287 . S
C542 C541 1.287 . S
C542 C543 1.524 . S
C542 H561 0.913 . S
C543 H519 0.950 . S
C543 C542 1.524 . S
C543 C544 1.415 . S
C544 H520 0.950 . S
C544 C539 1.363 . S
C544 C543 1.415 . S
C545 H521 0.951 . S
C545 C546 1.366 . S
C545 C547 1.388 . S
C546 C545 1.366 . S
C546 C550 1.385 . S
C547 H522 0.951 . S
C547 C545 1.388 . S
C547 C548 1.366 . S
C548 C547 1.366 . S
C548 C549 1.414 . S
C548 C551 1.499 . S
C549 H523 0.950 . S
C549 C548 1.414 . S
C549 C550 1.374 . S
C550 H524 0.950 . S
C550 C546 1.385 . S
C550 C549 1.374 . S
C551 C548 1.499 . S
C551 C552 1.373 . S
C551 C553 1.389 . S
C552 H525 0.950 . S
C552 C538 1.377 . S
C552 C551 1.373 . S
C553 C537 1.377 . S
C553 C551 1.389 . S
C553 C554 1.524 . S
C554 C553 1.524 . S
C554 C555 1.397 . S
C554 C559 1.363 . S
C555 H526 0.950 . S
C555 C554 1.397 . S
C555 C556 1.334 . S
C556 H527 0.950 . S
C556 C555 1.334 . S
C556 C557 1.287 . S
C557 C556 1.287 . S
C557 C558 1.524 . S
C557 H560 0.999 . S
C558 H528 0.950 . S
C558 C557 1.524 . S
C558 C559 1.415 . S
C559 H529 0.950 . S
C559 C554 1.363 . S
C559 C558 1.415 . S
H560 C557 0.999 . S
H561 C542 0.913 . S
H562 C580 0.951 . S
H563 C582 0.951 . S
H564 C584 0.950 . S
H565 C585 0.950 . S
H566 C587 0.950 . S
H567 C590 0.950 . S
H568 C591 0.950 . S
H569 C593 0.950 . S
H570 C594 0.950 . S
H571 C595 0.951 . S
H572 C597 0.951 . S
H573 C599 0.950 . S
H574 C600 0.950 . S
H575 C602 0.950 . S
H576 C605 0.950 . S
H577 C606 0.950 . S
H578 C608 0.950 . S
H579 C609 0.950 . S
C580 H562 0.951 . S
C580 C581 1.366 . S
C580 C582 1.388 . S
C581 C580 1.366 . S
C581 C585 1.385 . S
C582 H563 0.951 . S
C582 C580 1.388 . S
C582 C583 1.366 . S
C583 C582 1.366 . S
C583 C584 1.414 . S
C583 C586 1.499 . S
C584 H564 0.950 . S
C584 C583 1.414 . S
C584 C585 1.374 . S
C585 H565 0.950 . S
C585 C581 1.385 . S
C585 C584 1.374 . S
C586 C583 1.499 . S
C586 C587 1.373 . S
C586 C588 1.389 . S
C587 H566 0.950 . S
C587 C586 1.373 . S
C587 C603 1.377 . S
C588 C586 1.389 . S
C588 C589 1.524 . S
C588 C602 1.377 . S
C589 C588 1.524 . S
C589 C590 1.397 . S
C589 C594 1.363 . S
C590 H567 0.950 . S
C590 C589 1.397 . S
C590 C591 1.334 . S
C591 H568 0.950 . S
C591 C590 1.334 . S
C591 C592 1.287 . S
C592 C591 1.287 . S
C592 C593 1.524 . S
C592 H611 0.913 . S
C593 H569 0.950 . S
C593 C592 1.524 . S
C593 C594 1.415 . S
C594 H570 0.950 . S
C594 C589 1.363 . S
C594 C593 1.415 . S
C595 H571 0.951 . S
C595 C596 1.366 . S
C595 C597 1.388 . S
C596 C595 1.366 . S
C596 C600 1.385 . S
C597 H572 0.951 . S
C597 C595 1.388 . S
C597 C598 1.366 . S
C598 C597 1.366 . S
C598 C599 1.414 . S
C598 C601 1.499 . S
C599 H573 0.950 . S
C599 C598 1.414 . S
C599 C600 1.374 . S
C600 H574 0.950 . S
C600 C596 1.385 . S
C600 C599 1.374 . S
C601 C598 1.499 . S
C601 C602 1.373 . S
C601 C603 1.389 . S
C602 H575 0.950 . S
C602 C588 1.377 . S
C602 C601 1.373 . S
C603 C587 1.377 . S
C603 C601 1.389 . S
C603 C604 1.524 . S
C604 C603 1.524 . S
C604 C605 1.397 . S
C604 C609 1.363 . S
C605 H576 0.950 . S
C605 C604 1.397 . S
C605 C606 1.334 . S
C606 H577 0.950 . S
C606 C605 1.334 . S
C606 C607 1.287 . S
C607 C606 1.287 . S
C607 C608 1.524 . S
C607 H610 0.999 . S
C608 H578 0.950 . S
C608 C607 1.524 . S
C608 C609 1.415 . S
C609 H579 0.950 . S
C609 C604 1.363 . S
C609 C608 1.415 . S
H610 C607 0.999 . S
H611 C592 0.913 . S
H612 C630 0.951 . S
H613 C632 0.951 . S
H614 C634 0.950 . S
H615 C635 0.950 . S
H616 C637 0.950 . S
H617 C640 0.950 . S
H618 C641 0.950 . S
H619 C643 0.950 . S
H620 C644 0.950 . S
H621 C645 0.951 . S
H622 C647 0.951 . S
H623 C649 0.950 . S
H624 C650 0.950 . S
H625 C652 0.950 . S
H626 C655 0.950 . S
H627 C656 0.950 . S
H628 C658 0.950 . S
H629 C659 0.950 . S
C630 H612 0.951 . S
C630 C631 1.366 . S
C630 C632 1.388 . S
C631 C630 1.366 . S
C631 C635 1.385 . S
C632 H613 0.951 . S
C632 C630 1.388 . S
C632 C633 1.366 . S
C633 C632 1.366 . S
C633 C634 1.414 . S
C633 C636 1.499 . S
C634 H614 0.950 . S
C634 C633 1.414 . S
C634 C635 1.374 . S
C635 H615 0.950 . S
C635 C631 1.385 . S
C635 C634 1.374 . S
C636 C633 1.499 . S
C636 C637 1.373 . S
C636 C638 1.389 . S
C637 H616 0.950 . S
C637 C636 1.373 . S
C637 C653 1.377 . S
C638 C636 1.389 . S
C638 C639 1.524 . S
C638 C652 1.377 . S
C639 C638 1.524 . S
C639 C640 1.397 . S
C639 C644 1.363 . S
C640 H617 0.950 . S
C640 C639 1.397 . S
C640 C641 1.334 . S
C641 H618 0.950 . S
C641 C640 1.334 . S
C641 C642 1.287 . S
C642 C641 1.287 . S
C642 C643 1.524 . S
C642 H661 0.913 . S
C643 H619 0.950 . S
C643 C642 1.524 . S
C643 C644 1.415 . S
C644 H620 0.950 . S
C644 C639 1.363 . S
C644 C643 1.415 . S
C645 H621 0.951 . S
C645 C646 1.366 . S
C645 C647 1.388 . S
C646 C645 1.366 . S
C646 C650 1.385 . S
C647 H622 0.951 . S
C647 C645 1.388 . S
C647 C648 1.366 . S
C648 C647 1.366 . S
C648 C649 1.414 . S
C648 C651 1.499 . S
C649 H623 0.950 . S
C649 C648 1.414 . S
C649 C650 1.374 . S
C650 H624 0.950 . S
C650 C646 1.385 . S
C650 C649 1.374 . S
C651 C648 1.499 . S
C651 C652 1.373 . S
C651 C653 1.389 . S
C652 H625 0.950 . S
C652 C638 1.377 . S
C652 C651 1.373 . S
C653 C637 1.377 . S
C653 C651 1.389 . S
C653 C654 1.524 . S
C654 C653 1.524 . S
C654 C655 1.397 . S
C654 C659 1.363 . S
C655 H626 0.950 . S
C655 C654 1.397 . S
C655 C656 1.334 . S
C656 H627 0.950 . S
C656 C655 1.334 . S
C656 C657 1.287 . S
C657 C656 1.287 . S
C657 C658 1.524 . S
C657 H660 0.999 . S
C658 H628 0.950 . S
C658 C657 1.524 . S
C658 C659 1.415 . S
C659 H629 0.950 . S
C659 C654 1.363 . S
C659 C658 1.415 . S
H660 C657 0.999 . S
H661 C642 0.913 . S
H662 C680 0.951 . S
H663 C682 0.951 . S
H664 C684 0.950 . S
H665 C685 0.950 . S
H666 C687 0.950 . S
H667 C690 0.950 . S
H668 C691 0.950 . S
H669 C693 0.950 . S
H670 C694 0.950 . S
H671 C695 0.951 . S
H672 C697 0.951 . S
H673 C699 0.950 . S
H674 C700 0.950 . S
H675 C702 0.950 . S
H676 C705 0.950 . S
H677 C706 0.950 . S
H678 C708 0.950 . S
H679 C709 0.950 . S
C680 H662 0.951 . S
C680 C681 1.366 . S
C680 C682 1.388 . S
C681 C680 1.366 . S
C681 C685 1.385 . S
C682 H663 0.951 . S
C682 C680 1.388 . S
C682 C683 1.366 . S
C683 C682 1.366 . S
C683 C684 1.414 . S
C683 C686 1.499 . S
C684 H664 0.950 . S
C684 C683 1.414 . S
C684 C685 1.374 . S
C685 H665 0.950 . S
C685 C681 1.385 . S
C685 C684 1.374 . S
C686 C683 1.499 . S
C686 C687 1.373 . S
C686 C688 1.389 . S
C687 H666 0.950 . S
C687 C686 1.373 . S
C687 C703 1.377 . S
C688 C686 1.389 . S
C688 C689 1.524 . S
C688 C702 1.377 . S
C689 C688 1.524 . S
C689 C690 1.397 . S
C689 C694 1.363 . S
C690 H667 0.950 . S
C690 C689 1.397 . S
C690 C691 1.334 . S
C691 H668 0.950 . S
C691 C690 1.334 . S
C691 C692 1.287 . S
C692 C691 1.287 . S
C692 C693 1.524 . S
C692 H711 0.913 . S
C693 H669 0.950 . S
C693 C692 1.524 . S
C693 C694 1.415 . S
C694 H670 0.950 . S
C694 C689 1.363 . S
C694 C693 1.415 . S
C695 H671 0.951 . S
C695 C696 1.366 . S
C695 C697 1.388 . S
C696 C695 1.366 . S
C696 C700 1.385 . S
C697 H672 0.951 . S
C697 C695 1.388 . S
C697 C698 1.366 . S
C698 C697 1.366 . S
C698 C699 1.414 . S
C698 C701 1.499 . S
C699 H673 0.950 . S
C699 C698 1.414 . S
C699 C700 1.374 . S
C700 H674 0.950 . S
C700 C696 1.385 . S
C700 C699 1.374 . S
C701 C698 1.499 . S
C701 C702 1.373 . S
C701 C703 1.389 . S
C702 H675 0.950 . S
C702 C688 1.377 . S
C702 C701 1.373 . S
C703 C687 1.377 . S
C703 C701 1.389 . S
C703 C704 1.524 . S
C704 C703 1.524 . S
C704 C705 1.397 . S
C704 C709 1.363 . S
C705 H676 0.950 . S
C705 C704 1.397 . S
C705 C706 1.334 . S
C706 H677 0.950 . S
C706 C705 1.334 . S
C706 C707 1.287 . S
C707 C706 1.287 . S
C707 C708 1.524 . S
C707 H710 0.999 . S
C708 H678 0.950 . S
C708 C707 1.524 . S
C708 C709 1.415 . S
C709 H679 0.950 . S
C709 C704 1.363 . S
C709 C708 1.415 . S
H710 C707 0.999 . S
H711 C692 0.913 . S
H712 C730 0.951 . S
H713 C732 0.951 . S
H714 C734 0.950 . S
H715 C735 0.950 . S
H716 C737 0.950 . S
H717 C740 0.950 . S
H718 C741 0.950 . S
H719 C743 0.950 . S
H720 C744 0.950 . S
H721 C745 0.951 . S
H722 C747 0.951 . S
H723 C749 0.950 . S
H724 C750 0.950 . S
H725 C752 0.950 . S
H726 C755 0.950 . S
H727 C756 0.950 . S
H728 C758 0.950 . S
H729 C759 0.950 . S
C730 H712 0.951 . S
C730 C731 1.366 . S
C730 C732 1.388 . S
C731 C730 1.366 . S
C731 C735 1.385 . S
C732 H713 0.951 . S
C732 C730 1.388 . S
C732 C733 1.366 . S
C733 C732 1.366 . S
C733 C734 1.414 . S
C733 C736 1.499 . S
C734 H714 0.950 . S
C734 C733 1.414 . S
C734 C735 1.374 . S
C735 H715 0.950 . S
C735 C731 1.385 . S
C735 C734 1.374 . S
C736 C733 1.499 . S
C736 C737 1.373 . S
C736 C738 1.389 . S
C737 H716 0.950 . S
C737 C736 1.373 . S
C737 C753 1.377 . S
C738 C736 1.389 . S
C738 C739 1.524 . S
C738 C752 1.377 . S
C739 C738 1.524 . S
C739 C740 1.397 . S
C739 C744 1.363 . S
C740 H717 0.950 . S
C740 C739 1.397 . S
C740 C741 1.334 . S
C741 H718 0.950 . S
C741 C740 1.334 . S
C741 C742 1.287 . S
C742 C741 1.287 . S
C742 C743 1.524 . S
C742 H761 0.913 . S
C743 H719 0.950 . S
C743 C742 1.524 . S
C743 C744 1.415 . S
C744 H720 0.950 . S
C744 C739 1.363 . S
C744 C743 1.415 . S
C745 H721 0.951 . S
C745 C746 1.366 . S
C745 C747 1.388 . S
C746 C745 1.366 . S
C746 C750 1.385 . S
C747 H722 0.951 . S
C747 C745 1.388 . S
C747 C748 1.366 . S
C748 C747 1.366 . S
C748 C749 1.414 . S
C748 C751 1.499 . S
C749 H723 0.950 . S
C749 C748 1.414 . S
C749 C750 1.374 . S
C750 H724 0.950 . S
C750 C746 1.385 . S
C750 C749 1.374 . S
C751 C748 1.499 . S
C751 C752 1.373 . S
C751 C753 1.389 . S
C752 H725 0.950 . S
C752 C738 1.377 . S
C752 C751 1.373 . S
C753 C737 1.377 . S
C753 C751 1.389 . S
C753 C754 1.524 . S
C754 C753 1.524 . S
C754 C755 1.397 . S
C754 C759 1.363 . S
C755 H726 0.950 . S
C755 C754 1.397 . S
C755 C756 1.334 . S
C756 H727 0.950 . S
C756 C755 1.334 . S
C756 C757 1.287 . S
C757 C756 1.287 . S
C757 C758 1.524 . S
C757 H760 0.999 . S
C758 H728 0.950 . S
C758 C757 1.524 . S
C758 C759 1.415 . S
C759 H729 0.950 . S
C759 C754 1.363 . S
C759 C758 1.415 . S
H760 C757 0.999 . S
H761 C742 0.913 . S
H762 C780 0.951 . S
H763 C782 0.951 . S
H764 C784 0.950 . S
H765 C785 0.950 . S
H766 C787 0.950 . S
H767 C790 0.950 . S
H768 C791 0.950 . S
H769 C793 0.950 . S
H770 C794 0.950 . S
H771 C795 0.951 . S
H772 C797 0.951 . S
H773 C799 0.950 . S
H774 C800 0.950 . S
H775 C802 0.950 . S
H776 C805 0.950 . S
H777 C806 0.950 . S
H778 C808 0.950 . S
H779 C809 0.950 . S
C780 H762 0.951 . S
C780 C781 1.366 . S
C780 C782 1.388 . S
C781 C780 1.366 . S
C781 C785 1.385 . S
C782 H763 0.951 . S
C782 C780 1.388 . S
C782 C783 1.366 . S
C783 C782 1.366 . S
C783 C784 1.414 . S
C783 C786 1.499 . S
C784 H764 0.950 . S
C784 C783 1.414 . S
C784 C785 1.374 . S
C785 H765 0.950 . S
C785 C781 1.385 . S
C785 C784 1.374 . S
C786 C783 1.499 . S
C786 C787 1.373 . S
C786 C788 1.389 . S
C787 H766 0.950 . S
C787 C786 1.373 . S
C787 C803 1.377 . S
C788 C786 1.389 . S
C788 C789 1.524 . S
C788 C802 1.377 . S
C789 C788 1.524 . S
C789 C790 1.397 . S
C789 C794 1.363 . S
C790 H767 0.950 . S
C790 C789 1.397 . S
C790 C791 1.334 . S
C791 H768 0.950 . S
C791 C790 1.334 . S
C791 C792 1.287 . S
C792 C791 1.287 . S
C792 C793 1.524 . S
C792 H811 0.913 . S
C793 H769 0.950 . S
C793 C792 1.524 . S
C793 C794 1.415 . S
C794 H770 0.950 . S
C794 C789 1.363 . S
C794 C793 1.415 . S
C795 H771 0.951 . S
C795 C796 1.366 . S
C795 C797 1.388 . S
C796 C795 1.366 . S
C796 C800 1.385 . S
C797 H772 0.951 . S
C797 C795 1.388 . S
C797 C798 1.366 . S
C798 C797 1.366 . S
C798 C799 1.414 . S
C798 C801 1.499 . S
C799 H773 0.950 . S
C799 C798 1.414 . S
C799 C800 1.374 . S
C800 H774 0.950 . S
C800 C796 1.385 . S
C800 C799 1.374 . S
C801 C798 1.499 . S
C801 C802 1.373 . S
C801 C803 1.389 . S
C802 H775 0.950 . S
C802 C788 1.377 . S
C802 C801 1.373 . S
C803 C787 1.377 . S
C803 C801 1.389 . S
C803 C804 1.524 . S
C804 C803 1.524 . S
C804 C805 1.397 . S
C804 C809 1.363 . S
C805 H776 0.950 . S
C805 C804 1.397 . S
C805 C806 1.334 . S
C806 H777 0.950 . S
C806 C805 1.334 . S
C806 C807 1.287 . S
C807 C806 1.287 . S
C807 C808 1.524 . S
C807 H810 0.999 . S
C808 H778 0.950 . S
C808 C807 1.524 . S
C808 C809 1.415 . S
C809 H779 0.950 . S
C809 C804 1.363 . S
C809 C808 1.415 . S
H810 C807 0.999 . S
H811 C792 0.913 . S
H812 C830 0.951 . S
H813 C832 0.951 . S
H814 C834 0.950 . S
H815 C835 0.950 . S
H816 C837 0.950 . S
H817 C840 0.950 . S
H818 C841 0.950 . S
H819 C843 0.950 . S
H820 C844 0.950 . S
H821 C845 0.951 . S
H822 C847 0.951 . S
H823 C849 0.950 . S
H824 C850 0.950 . S
H825 C852 0.950 . S
H826 C855 0.950 . S
H827 C856 0.950 . S
H828 C858 0.950 . S
H829 C859 0.950 . S
C830 H812 0.951 . S
C830 C831 1.366 . S
C830 C832 1.388 . S
C831 C830 1.366 . S
C831 C835 1.385 . S
C832 H813 0.951 . S
C832 C830 1.388 . S
C832 C833 1.366 . S
C833 C832 1.366 . S
C833 C834 1.414 . S
C833 C836 1.499 . S
C834 H814 0.950 . S
C834 C833 1.414 . S
C834 C835 1.374 . S
C835 H815 0.950 . S
C835 C831 1.385 . S
C835 C834 1.374 . S
C836 C833 1.499 . S
C836 C837 1.373 . S
C836 C838 1.389 . S
C837 H816 0.950 . S
C837 C836 1.373 . S
C837 C853 1.377 . S
C838 C836 1.389 . S
C838 C839 1.524 . S
C838 C852 1.377 . S
C839 C838 1.524 . S
C839 C840 1.397 . S
C839 C844 1.363 . S
C840 H817 0.950 . S
C840 C839 1.397 . S
C840 C841 1.334 . S
C841 H818 0.950 . S
C841 C840 1.334 . S
C841 C842 1.287 . S
C842 C841 1.287 . S
C842 C843 1.524 . S
C842 H861 0.913 . S
C843 H819 0.950 . S
C843 C842 1.524 . S
C843 C844 1.415 . S
C844 H820 0.950 . S
C844 C839 1.363 . S
C844 C843 1.415 . S
C845 H821 0.951 . S
C845 C846 1.366 . S
C845 C847 1.388 . S
C846 C845 1.366 . S
C846 C850 1.385 . S
C847 H822 0.951 . S
C847 C845 1.388 . S
C847 C848 1.366 . S
C848 C847 1.366 . S
C848 C849 1.414 . S
C848 C851 1.499 . S
C849 H823 0.950 . S
C849 C848 1.414 . S
C849 C850 1.374 . S
C850 H824 0.950 . S
C850 C846 1.385 . S
C850 C849 1.374 . S
C851 C848 1.499 . S
C851 C852 1.373 . S
C851 C853 1.389 . S
C852 H825 0.950 . S
C852 C838 1.377 . S
C852 C851 1.373 . S
C853 C837 1.377 . S
C853 C851 1.389 . S
C853 C854 1.524 . S
C854 C853 1.524 . S
C854 C855 1.397 . S
C854 C859 1.363 . S
C855 H826 0.950 . S
C855 C854 1.397 . S
C855 C856 1.334 . S
C856 H827 0.950 . S
C856 C855 1.334 . S
C856 C857 1.287 . S
C857 C856 1.287 . S
C857 C858 1.524 . S
C857 H860 0.999 . S
C858 H828 0.950 . S
C858 C857 1.524 . S
C858 C859 1.415 . S
C859 H829 0.950 . S
C859 C854 1.363 . S
C859 C858 1.415 . S
H860 C857 0.999 . S
H861 C842 0.913 . S
H862 C880 0.951 . S
H863 C882 0.951 . S
H864 C884 0.950 . S
H865 C885 0.950 . S
H866 C887 0.950 . S
H867 C890 0.950 . S
H868 C891 0.950 . S
H869 C893 0.950 . S
H870 C894 0.950 . S
H871 C895 0.951 . S
H872 C897 0.951 . S
H873 C899 0.950 . S
H874 C900 0.950 . S
H875 C902 0.950 . S
H876 C905 0.950 . S
H877 C906 0.950 . S
H878 C908 0.950 . S
H879 C909 0.950 . S
C880 H862 0.951 . S
C880 C881 1.366 . S
C880 C882 1.388 . S
C881 C880 1.366 . S
C881 C885 1.385 . S
C882 H863 0.951 . S
C882 C880 1.388 . S
C882 C883 1.366 . S
C883 C882 1.366 . S
C883 C884 1.414 . S
C883 C886 1.499 . S
C884 H864 0.950 . S
C884 C883 1.414 . S
C884 C885 1.374 . S
C885 H865 0.950 . S
C885 C881 1.385 . S
C885 C884 1.374 . S
C886 C883 1.499 . S
C886 C887 1.373 . S
C886 C888 1.389 . S
C887 H866 0.950 . S
C887 C886 1.373 . S
C887 C903 1.377 . S
C888 C886 1.389 . S
C888 C889 1.524 . S
C888 C902 1.377 . S
C889 C888 1.524 . S
C889 C890 1.397 . S
C889 C894 1.363 . S
C890 H867 0.950 . S
C890 C889 1.397 . S
C890 C891 1.334 . S
C891 H868 0.950 . S
C891 C890 1.334 . S
C891 C892 1.287 . S
C892 C891 1.287 . S
C892 C893 1.524 . S
C892 H911 0.913 . S
C893 H869 0.950 . S
C893 C892 1.524 . S
C893 C894 1.415 . S
C894 H870 0.950 . S
C894 C889 1.363 . S
C894 C893 1.415 . S
C895 H871 0.951 . S
C895 C896 1.366 . S
C895 C897 1.388 . S
C896 C895 1.366 . S
C896 C900 1.385 . S
C897 H872 0.951 . S
C897 C895 1.388 . S
C897 C898 1.366 . S
C898 C897 1.366 . S
C898 C899 1.414 . S
C898 C901 1.499 . S
C899 H873 0.950 . S
C899 C898 1.414 . S
C899 C900 1.374 . S
C900 H874 0.950 . S
C900 C896 1.385 . S
C900 C899 1.374 . S
C901 C898 1.499 . S
C901 C902 1.373 . S
C901 C903 1.389 . S
C902 H875 0.950 . S
C902 C888 1.377 . S
C902 C901 1.373 . S
C903 C887 1.377 . S
C903 C901 1.389 . S
C903 C904 1.524 . S
C904 C903 1.524 . S
C904 C905 1.397 . S
C904 C909 1.363 . S
C905 H876 0.950 . S
C905 C904 1.397 . S
C905 C906 1.334 . S
C906 H877 0.950 . S
C906 C905 1.334 . S
C906 C907 1.287 . S
C907 C906 1.287 . S
C907 C908 1.524 . S
C907 H910 0.999 . S
C908 H878 0.950 . S
C908 C907 1.524 . S
C908 C909 1.415 . S
C909 H879 0.950 . S
C909 C904 1.363 . S
C909 C908 1.415 . S
H910 C907 0.999 . S
H911 C892 0.913 . S
H912 C930 0.951 . S
H913 C932 0.951 . S
H914 C934 0.950 . S
H915 C935 0.950 . S
H916 C937 0.950 . S
H917 C940 0.950 1_556 S
H918 C941 0.950 1_556 S
H919 C943 0.950 . S
H920 C944 0.950 . S
H921 C945 0.951 . S
H922 C947 0.951 . S
H923 C949 0.950 . S
H924 C950 0.950 . S
H925 C952 0.950 . S
H926 C955 0.950 1_554 S
H927 C956 0.950 1_554 S
H928 C958 0.950 . S
H929 C959 0.950 . S
C930 H912 0.951 . S
C930 C931 1.366 . S
C930 C932 1.388 . S
C931 C930 1.366 . S
C931 C935 1.385 . S
C932 H913 0.951 . S
C932 C930 1.388 . S
C932 C933 1.366 . S
C933 C932 1.366 . S
C933 C934 1.414 . S
C933 C936 1.499 . S
C934 H914 0.950 . S
C934 C933 1.414 . S
C934 C935 1.374 . S
C935 H915 0.950 . S
C935 C931 1.385 . S
C935 C934 1.374 . S
C936 C933 1.499 . S
C936 C937 1.373 . S
C936 C938 1.389 1_556 S
C937 H916 0.950 . S
C937 C936 1.373 . S
C937 C953 1.377 . S
C938 C936 1.389 1_554 S
C938 C939 1.524 . S
C938 C952 1.377 . S
C939 C938 1.524 . S
C939 C940 1.397 . S
C939 C944 1.363 . S
C940 H917 0.950 1_554 S
C940 C939 1.397 . S
C940 C941 1.334 . S
C941 H918 0.950 1_554 S
C941 C940 1.334 . S
C941 C942 1.287 . S
C942 C941 1.287 . S
C942 C943 1.524 . S
C942 H961 0.913 . S
C943 H919 0.950 . S
C943 C942 1.524 . S
C943 C944 1.415 . S
C944 H920 0.950 . S
C944 C939 1.363 . S
C944 C943 1.415 . S
C945 H921 0.951 . S
C945 C946 1.366 . S
C945 C947 1.388 . S
C946 C945 1.366 . S
C946 C950 1.385 . S
C947 H922 0.951 . S
C947 C945 1.388 . S
C947 C948 1.366 . S
C948 C947 1.366 . S
C948 C949 1.414 . S
C948 C951 1.499 . S
C949 H923 0.950 . S
C949 C948 1.414 . S
C949 C950 1.374 . S
C950 H924 0.950 . S
C950 C946 1.385 . S
C950 C949 1.374 . S
C951 C948 1.499 . S
C951 C952 1.373 . S
C951 C953 1.389 1_554 S
C952 H925 0.950 . S
C952 C938 1.377 . S
C952 C951 1.373 . S
C953 C937 1.377 . S
C953 C951 1.389 1_556 S
C953 C954 1.524 . S
C954 C953 1.524 . S
C954 C955 1.397 . S
C954 C959 1.363 . S
C955 H926 0.950 1_556 S
C955 C954 1.397 . S
C955 C956 1.334 . S
C956 H927 0.950 1_556 S
C956 C955 1.334 . S
C956 C957 1.287 . S
C957 C956 1.287 . S
C957 C958 1.524 . S
C957 H960 0.999 . S
C958 H928 0.950 . S
C958 C957 1.524 . S
C958 C959 1.415 . S
C959 H929 0.950 . S
C959 C954 1.363 . S
C959 C958 1.415 . S
H960 C957 0.999 . S
H961 C942 0.913 . S
H962 C980 0.951 . S
H963 C982 0.951 . S
H964 C984 0.950 . S
H965 C985 0.950 . S
H966 C987 0.950 . S
H967 C990 0.950 . S
H968 C991 0.950 . S
H969 C993 0.950 . S
H970 C994 0.950 . S
H971 C995 0.951 . S
H972 C997 0.951 . S
H973 C999 0.950 . S
H974 C1000 0.950 . S
H975 C1002 0.950 . S
H976 C1005 0.950 . S
H977 C1006 0.950 . S
H978 C1008 0.950 . S
H979 C1009 0.950 . S
C980 H962 0.951 . S
C980 C981 1.366 . S
C980 C982 1.388 . S
C981 C980 1.366 . S
C981 C985 1.385 . S
C982 H963 0.951 . S
C982 C980 1.388 . S
C982 C983 1.366 . S
C983 C982 1.366 . S
C983 C984 1.414 . S
C983 C986 1.499 . S
C984 H964 0.950 . S
C984 C983 1.414 . S
C984 C985 1.374 . S
C985 H965 0.950 . S
C985 C981 1.385 . S
C985 C984 1.374 . S
C986 C983 1.499 . S
C986 C987 1.373 . S
C986 C988 1.389 . S
C987 H966 0.950 . S
C987 C986 1.373 . S
C987 C1003 1.377 . S
C988 C986 1.389 . S
C988 C989 1.524 . S
C988 C1002 1.377 . S
C989 C988 1.524 . S
C989 C990 1.397 . S
C989 C994 1.363 . S
C990 H967 0.950 . S
C990 C989 1.397 . S
C990 C991 1.334 . S
C991 H968 0.950 . S
C991 C990 1.334 . S
C991 C992 1.287 . S
C992 C991 1.287 . S
C992 C993 1.524 . S
C992 H1011 0.913 . S
C993 H969 0.950 . S
C993 C992 1.524 . S
C993 C994 1.415 . S
C994 H970 0.950 . S
C994 C989 1.363 . S
C994 C993 1.415 . S
C995 H971 0.951 . S
C995 C996 1.366 . S
C995 C997 1.388 . S
C996 C995 1.366 . S
C996 C1000 1.385 . S
C997 H972 0.951 . S
C997 C995 1.388 . S
C997 C998 1.366 . S
C998 C997 1.366 . S
C998 C999 1.414 . S
C998 C1001 1.499 . S
C999 H973 0.950 . S
C999 C998 1.414 . S
C999 C1000 1.374 . S
C1000 H974 0.950 . S
C1000 C996 1.385 . S
C1000 C999 1.374 . S
C1001 C998 1.499 . S
C1001 C1002 1.373 . S
C1001 C1003 1.389 . S
C1002 H975 0.950 . S
C1002 C988 1.377 . S
C1002 C1001 1.373 . S
C1003 C987 1.377 . S
C1003 C1001 1.389 . S
C1003 C1004 1.524 . S
C1004 C1003 1.524 . S
C1004 C1005 1.397 . S
C1004 C1009 1.363 . S
C1005 H976 0.950 . S
C1005 C1004 1.397 . S
C1005 C1006 1.334 . S
C1006 H977 0.950 . S
C1006 C1005 1.334 . S
C1006 C1007 1.287 . S
C1007 C1006 1.287 . S
C1007 C1008 1.524 . S
C1007 H1010 0.999 . S
C1008 H978 0.950 . S
C1008 C1007 1.524 . S
C1008 C1009 1.415 . S
C1009 H979 0.950 . S
C1009 C1004 1.363 . S
C1009 C1008 1.415 . S
H1010 C1007 0.999 . S
H1011 C992 0.913 . S
H1012 C1030 0.951 . S
H1013 C1032 0.951 . S
H1014 C1034 0.950 . S
H1015 C1035 0.950 . S
H1016 C1037 0.950 . S
H1017 C1040 0.950 . S
H1018 C1041 0.950 . S
H1019 C1043 0.950 . S
H1020 C1044 0.950 . S
H1021 C1045 0.951 . S
H1022 C1047 0.951 . S
H1023 C1049 0.950 . S
H1024 C1050 0.950 . S
H1025 C1052 0.950 . S
H1026 C1055 0.950 . S
H1027 C1056 0.950 . S
H1028 C1058 0.950 . S
H1029 C1059 0.950 . S
C1030 H1012 0.951 . S
C1030 C1031 1.366 . S
C1030 C1032 1.388 . S
C1031 C1030 1.366 . S
C1031 C1035 1.385 . S
C1032 H1013 0.951 . S
C1032 C1030 1.388 . S
C1032 C1033 1.366 . S
C1033 C1032 1.366 . S
C1033 C1034 1.414 . S
C1033 C1036 1.499 . S
C1034 H1014 0.950 . S
C1034 C1033 1.414 . S
C1034 C1035 1.374 . S
C1035 H1015 0.950 . S
C1035 C1031 1.385 . S
C1035 C1034 1.374 . S
C1036 C1033 1.499 . S
C1036 C1037 1.373 . S
C1036 C1038 1.389 1_554 S
C1037 H1016 0.950 . S
C1037 C1036 1.373 . S
C1037 C1053 1.377 . S
C1038 C1036 1.389 1_556 S
C1038 C1039 1.524 . S
C1038 C1052 1.377 . S
C1039 C1038 1.524 . S
C1039 C1040 1.397 . S
C1039 C1044 1.363 . S
C1040 H1017 0.950 . S
C1040 C1039 1.397 . S
C1040 C1041 1.334 . S
C1041 H1018 0.950 . S
C1041 C1040 1.334 . S
C1041 C1042 1.287 . S
C1042 C1041 1.287 . S
C1042 C1043 1.524 . S
C1042 H1061 0.913 . S
C1043 H1019 0.950 . S
C1043 C1042 1.524 . S
C1043 C1044 1.415 . S
C1044 H1020 0.950 . S
C1044 C1039 1.363 . S
C1044 C1043 1.415 . S
C1045 H1021 0.951 . S
C1045 C1046 1.366 . S
C1045 C1047 1.388 . S
C1046 C1045 1.366 . S
C1046 C1050 1.385 . S
C1047 H1022 0.951 . S
C1047 C1045 1.388 . S
C1047 C1048 1.366 . S
C1048 C1047 1.366 . S
C1048 C1049 1.414 . S
C1048 C1051 1.499 . S
C1049 H1023 0.950 . S
C1049 C1048 1.414 . S
C1049 C1050 1.374 . S
C1050 H1024 0.950 . S
C1050 C1046 1.385 . S
C1050 C1049 1.374 . S
C1051 C1048 1.499 . S
C1051 C1052 1.373 . S
C1051 C1053 1.389 1_556 S
C1052 H1025 0.950 . S
C1052 C1038 1.377 . S
C1052 C1051 1.373 . S
C1053 C1037 1.377 . S
C1053 C1051 1.389 1_554 S
C1053 C1054 1.524 . S
C1054 C1053 1.524 . S
C1054 C1055 1.397 . S
C1054 C1059 1.363 . S
C1055 H1026 0.950 . S
C1055 C1054 1.397 . S
C1055 C1056 1.334 . S
C1056 H1027 0.950 . S
C1056 C1055 1.334 . S
C1056 C1057 1.287 . S
C1057 C1056 1.287 . S
C1057 C1058 1.524 . S
C1057 H1060 0.999 . S
C1058 H1028 0.950 . S
C1058 C1057 1.524 . S
C1058 C1059 1.415 . S
C1059 H1029 0.950 . S
C1059 C1054 1.363 . S
C1059 C1058 1.415 . S
H1060 C1057 0.999 . S
H1061 C1042 0.913 . S
H1062 C1080 0.951 . S
H1063 C1082 0.951 . S
H1064 C1084 0.950 . S
H1065 C1085 0.950 . S
H1066 C1087 0.950 . S
H1067 C1090 0.950 . S
H1068 C1091 0.950 . S
H1069 C1093 0.950 . S
H1070 C1094 0.950 . S
H1071 C1095 0.951 . S
H1072 C1097 0.951 . S
H1073 C1099 0.950 . S
H1074 C1100 0.950 . S
H1075 C1102 0.950 . S
H1076 C1105 0.950 . S
H1077 C1106 0.950 . S
H1078 C1108 0.950 . S
H1079 C1109 0.950 . S
C1080 H1062 0.951 . S
C1080 C1081 1.366 . S
C1080 C1082 1.388 . S
C1081 C1080 1.366 . S
C1081 C1085 1.385 . S
C1082 H1063 0.951 . S
C1082 C1080 1.388 . S
C1082 C1083 1.366 . S
C1083 C1082 1.366 . S
C1083 C1084 1.414 . S
C1083 C1086 1.499 . S
C1084 H1064 0.950 . S
C1084 C1083 1.414 . S
C1084 C1085 1.374 . S
C1085 H1065 0.950 . S
C1085 C1081 1.385 . S
C1085 C1084 1.374 . S
C1086 C1083 1.499 . S
C1086 C1087 1.373 . S
C1086 C1088 1.389 . S
C1087 H1066 0.950 . S
C1087 C1086 1.373 . S
C1087 C1103 1.377 . S
C1088 C1086 1.389 . S
C1088 C1089 1.524 . S
C1088 C1102 1.377 . S
C1089 C1088 1.524 . S
C1089 C1090 1.397 . S
C1089 C1094 1.363 . S
C1090 H1067 0.950 . S
C1090 C1089 1.397 . S
C1090 C1091 1.334 . S
C1091 H1068 0.950 . S
C1091 C1090 1.334 . S
C1091 C1092 1.287 . S
C1092 C1091 1.287 . S
C1092 C1093 1.524 . S
C1092 H1111 0.913 . S
C1093 H1069 0.950 . S
C1093 C1092 1.524 . S
C1093 C1094 1.415 . S
C1094 H1070 0.950 . S
C1094 C1089 1.363 . S
C1094 C1093 1.415 . S
C1095 H1071 0.951 . S
C1095 C1096 1.366 . S
C1095 C1097 1.388 . S
C1096 C1095 1.366 . S
C1096 C1100 1.385 . S
C1097 H1072 0.951 . S
C1097 C1095 1.388 . S
C1097 C1098 1.366 . S
C1098 C1097 1.366 . S
C1098 C1099 1.414 . S
C1098 C1101 1.499 . S
C1099 H1073 0.950 . S
C1099 C1098 1.414 . S
C1099 C1100 1.374 . S
C1100 H1074 0.950 . S
C1100 C1096 1.385 . S
C1100 C1099 1.374 . S
C1101 C1098 1.499 . S
C1101 C1102 1.373 . S
C1101 C1103 1.389 . S
C1102 H1075 0.950 . S
C1102 C1088 1.377 . S
C1102 C1101 1.373 . S
C1103 C1087 1.377 . S
C1103 C1101 1.389 . S
C1103 C1104 1.524 . S
C1104 C1103 1.524 . S
C1104 C1105 1.397 . S
C1104 C1109 1.363 . S
C1105 H1076 0.950 . S
C1105 C1104 1.397 . S
C1105 C1106 1.334 . S
C1106 H1077 0.950 . S
C1106 C1105 1.334 . S
C1106 C1107 1.287 . S
C1107 C1106 1.287 . S
C1107 C1108 1.524 . S
C1107 H1110 0.999 . S
C1108 H1078 0.950 . S
C1108 C1107 1.524 . S
C1108 C1109 1.415 . S
C1109 H1079 0.950 . S
C1109 C1104 1.363 . S
C1109 C1108 1.415 . S
H1110 C1107 0.999 . S
H1111 C1092 0.913 . S
H1112 C1130 0.951 . S
H1113 C1132 0.951 . S
H1114 C1134 0.950 . S
H1115 C1135 0.950 . S
H1116 C1137 0.950 . S
H1117 C1140 0.950 . S
H1118 C1141 0.950 . S
H1119 C1143 0.950 . S
H1120 C1144 0.950 . S
H1121 C1145 0.951 . S
H1122 C1147 0.951 . S
H1123 C1149 0.950 . S
H1124 C1150 0.950 . S
H1125 C1152 0.950 . S
H1126 C1155 0.950 . S
H1127 C1156 0.950 . S
H1128 C1158 0.950 . S
H1129 C1159 0.950 . S
C1130 H1112 0.951 . S
C1130 C1131 1.366 . S
C1130 C1132 1.388 . S
C1131 C1130 1.366 . S
C1131 C1135 1.385 . S
C1132 H1113 0.951 . S
C1132 C1130 1.388 . S
C1132 C1133 1.366 . S
C1133 C1132 1.366 . S
C1133 C1134 1.414 . S
C1133 C1136 1.499 . S
C1134 H1114 0.950 . S
C1134 C1133 1.414 . S
C1134 C1135 1.374 . S
C1135 H1115 0.950 . S
C1135 C1131 1.385 . S
C1135 C1134 1.374 . S
C1136 C1133 1.499 . S
C1136 C1137 1.373 1_556 S
C1136 C1138 1.389 . S
C1137 H1116 0.950 . S
C1137 C1136 1.373 1_554 S
C1137 C1153 1.377 . S
C1138 C1136 1.389 . S
C1138 C1139 1.524 . S
C1138 C1152 1.377 . S
C1139 C1138 1.524 . S
C1139 C1140 1.397 . S
C1139 C1144 1.363 . S
C1140 H1117 0.950 . S
C1140 C1139 1.397 . S
C1140 C1141 1.334 . S
C1141 H1118 0.950 . S
C1141 C1140 1.334 . S
C1141 C1142 1.287 . S
C1142 C1141 1.287 . S
C1142 C1143 1.524 . S
C1142 H1161 0.913 . S
C1143 H1119 0.950 . S
C1143 C1142 1.524 . S
C1143 C1144 1.415 . S
C1144 H1120 0.950 . S
C1144 C1139 1.363 . S
C1144 C1143 1.415 . S
C1145 H1121 0.951 . S
C1145 C1146 1.366 . S
C1145 C1147 1.388 . S
C1146 C1145 1.366 . S
C1146 C1150 1.385 . S
C1147 H1122 0.951 . S
C1147 C1145 1.388 . S
C1147 C1148 1.366 . S
C1148 C1147 1.366 . S
C1148 C1149 1.414 . S
C1148 C1151 1.499 . S
C1149 H1123 0.950 . S
C1149 C1148 1.414 . S
C1149 C1150 1.374 . S
C1150 H1124 0.950 . S
C1150 C1146 1.385 . S
C1150 C1149 1.374 . S
C1151 C1148 1.499 . S
C1151 C1152 1.373 1_554 S
C1151 C1153 1.389 . S
C1152 H1125 0.950 . S
C1152 C1138 1.377 . S
C1152 C1151 1.373 1_556 S
C1153 C1137 1.377 . S
C1153 C1151 1.389 . S
C1153 C1154 1.524 . S
C1154 C1153 1.524 . S
C1154 C1155 1.397 . S
C1154 C1159 1.363 . S
C1155 H1126 0.950 . S
C1155 C1154 1.397 . S
C1155 C1156 1.334 . S
C1156 H1127 0.950 . S
C1156 C1155 1.334 . S
C1156 C1157 1.287 . S
C1157 C1156 1.287 . S
C1157 C1158 1.524 . S
C1157 H1160 0.999 . S
C1158 H1128 0.950 . S
C1158 C1157 1.524 . S
C1158 C1159 1.415 . S
C1159 H1129 0.950 . S
C1159 C1154 1.363 . S
C1159 C1158 1.415 . S
H1160 C1157 0.999 . S
H1161 C1142 0.913 . S
H1162 C1180 0.951 . S
H1163 C1182 0.951 . S
H1164 C1184 0.950 . S
H1165 C1185 0.950 . S
H1166 C1187 0.950 . S
H1167 C1190 0.950 . S
H1168 C1191 0.950 . S
H1169 C1193 0.950 . S
H1170 C1194 0.950 . S
H1171 C1195 0.951 . S
H1172 C1197 0.951 . S
H1173 C1199 0.950 . S
H1174 C1200 0.950 . S
H1175 C1202 0.950 . S
H1176 C1205 0.950 . S
H1177 C1206 0.950 . S
H1178 C1208 0.950 . S
H1179 C1209 0.950 . S
C1180 H1162 0.951 . S
C1180 C1181 1.366 . S
C1180 C1182 1.388 . S
C1181 C1180 1.366 . S
C1181 C1185 1.385 . S
C1182 H1163 0.951 . S
C1182 C1180 1.388 . S
C1182 C1183 1.366 . S
C1183 C1182 1.366 . S
C1183 C1184 1.414 . S
C1183 C1186 1.499 . S
C1184 H1164 0.950 . S
C1184 C1183 1.414 . S
C1184 C1185 1.374 . S
C1185 H1165 0.950 . S
C1185 C1181 1.385 . S
C1185 C1184 1.374 . S
C1186 C1183 1.499 . S
C1186 C1187 1.373 . S
C1186 C1188 1.389 . S
C1187 H1166 0.950 . S
C1187 C1186 1.373 . S
C1187 C1203 1.377 . S
C1188 C1186 1.389 . S
C1188 C1189 1.524 . S
C1188 C1202 1.377 . S
C1189 C1188 1.524 . S
C1189 C1190 1.397 . S
C1189 C1194 1.363 . S
C1190 H1167 0.950 . S
C1190 C1189 1.397 . S
C1190 C1191 1.334 . S
C1191 H1168 0.950 . S
C1191 C1190 1.334 . S
C1191 C1192 1.287 . S
C1192 C1191 1.287 . S
C1192 C1193 1.524 . S
C1192 H1211 0.913 . S
C1193 H1169 0.950 . S
C1193 C1192 1.524 . S
C1193 C1194 1.415 . S
C1194 H1170 0.950 . S
C1194 C1189 1.363 . S
C1194 C1193 1.415 . S
C1195 H1171 0.951 . S
C1195 C1196 1.366 . S
C1195 C1197 1.388 . S
C1196 C1195 1.366 . S
C1196 C1200 1.385 . S
C1197 H1172 0.951 . S
C1197 C1195 1.388 . S
C1197 C1198 1.366 . S
C1198 C1197 1.366 . S
C1198 C1199 1.414 . S
C1198 C1201 1.499 . S
C1199 H1173 0.950 . S
C1199 C1198 1.414 . S
C1199 C1200 1.374 . S
C1200 H1174 0.950 . S
C1200 C1196 1.385 . S
C1200 C1199 1.374 . S
C1201 C1198 1.499 . S
C1201 C1202 1.373 . S
C1201 C1203 1.389 . S
C1202 H1175 0.950 . S
C1202 C1188 1.377 . S
C1202 C1201 1.373 . S
C1203 C1187 1.377 . S
C1203 C1201 1.389 . S
C1203 C1204 1.524 . S
C1204 C1203 1.524 . S
C1204 C1205 1.397 . S
C1204 C1209 1.363 . S
C1205 H1176 0.950 . S
C1205 C1204 1.397 . S
C1205 C1206 1.334 . S
C1206 H1177 0.950 . S
C1206 C1205 1.334 . S
C1206 C1207 1.287 . S
C1207 C1206 1.287 . S
C1207 C1208 1.524 . S
C1207 H1210 0.999 . S
C1208 H1178 0.950 . S
C1208 C1207 1.524 . S
C1208 C1209 1.415 . S
C1209 H1179 0.950 . S
C1209 C1204 1.363 . S
C1209 C1208 1.415 . S
H1210 C1207 0.999 . S
H1211 C1192 0.913 . S
H1212 C1230 0.951 . S
H1213 C1232 0.951 . S
H1214 C1234 0.950 . S
H1215 C1235 0.950 . S
H1216 C1237 0.950 . S
H1217 C1240 0.950 . S
H1218 C1241 0.950 . S
H1219 C1243 0.950 . S
H1220 C1244 0.950 . S
H1221 C1245 0.951 . S
H1222 C1247 0.951 . S
H1223 C1249 0.950 . S
H1224 C1250 0.950 . S
H1225 C1252 0.950 . S
H1226 C1255 0.950 . S
H1227 C1256 0.950 . S
H1228 C1258 0.950 . S
H1229 C1259 0.950 . S
C1230 H1212 0.951 . S
C1230 C1231 1.366 . S
C1230 C1232 1.388 . S
C1231 C1230 1.366 . S
C1231 C1235 1.385 . S
C1232 H1213 0.951 . S
C1232 C1230 1.388 . S
C1232 C1233 1.366 . S
C1233 C1232 1.366 . S
C1233 C1234 1.414 . S
C1233 C1236 1.499 . S
C1234 H1214 0.950 . S
C1234 C1233 1.414 . S
C1234 C1235 1.374 . S
C1235 H1215 0.950 . S
C1235 C1231 1.385 . S
C1235 C1234 1.374 . S
C1236 C1233 1.499 . S
C1236 C1237 1.373 1_554 S
C1236 C1238 1.389 . S
C1237 H1216 0.950 . S
C1237 C1236 1.373 1_556 S
C1237 C1253 1.377 . S
C1238 C1236 1.389 . S
C1238 C1239 1.524 . S
C1238 C1252 1.377 . S
C1239 C1238 1.524 . S
C1239 C1240 1.397 . S
C1239 C1244 1.363 . S
C1240 H1217 0.950 . S
C1240 C1239 1.397 . S
C1240 C1241 1.334 . S
C1241 H1218 0.950 . S
C1241 C1240 1.334 . S
C1241 C1242 1.287 . S
C1242 C1241 1.287 . S
C1242 C1243 1.524 . S
C1242 H1261 0.913 . S
C1243 H1219 0.950 . S
C1243 C1242 1.524 . S
C1243 C1244 1.415 . S
C1244 H1220 0.950 . S
C1244 C1239 1.363 . S
C1244 C1243 1.415 . S
C1245 H1221 0.951 . S
C1245 C1246 1.366 . S
C1245 C1247 1.388 . S
C1246 C1245 1.366 . S
C1246 C1250 1.385 . S
C1247 H1222 0.951 . S
C1247 C1245 1.388 . S
C1247 C1248 1.366 . S
C1248 C1247 1.366 . S
C1248 C1249 1.414 . S
C1248 C1251 1.499 . S
C1249 H1223 0.950 . S
C1249 C1248 1.414 . S
C1249 C1250 1.374 . S
C1250 H1224 0.950 . S
C1250 C1246 1.385 . S
C1250 C1249 1.374 . S
C1251 C1248 1.499 . S
C1251 C1252 1.373 1_556 S
C1251 C1253 1.389 . S
C1252 H1225 0.950 . S
C1252 C1238 1.377 . S
C1252 C1251 1.373 1_554 S
C1253 C1237 1.377 . S
C1253 C1251 1.389 . S
C1253 C1254 1.524 . S
C1254 C1253 1.524 . S
C1254 C1255 1.397 . S
C1254 C1259 1.363 . S
C1255 H1226 0.950 . S
C1255 C1254 1.397 . S
C1255 C1256 1.334 . S
C1256 H1227 0.950 . S
C1256 C1255 1.334 . S
C1256 C1257 1.287 . S
C1257 C1256 1.287 . S
C1257 C1258 1.524 . S
C1257 H1260 0.999 . S
C1258 H1228 0.950 . S
C1258 C1257 1.524 . S
C1258 C1259 1.415 . S
C1259 H1229 0.950 . S
C1259 C1254 1.363 . S
C1259 C1258 1.415 . S
H1260 C1257 0.999 . S
H1261 C1242 0.913 . S
H1262 C1280 0.951 . S
H1263 C1282 0.951 . S
H1264 C1284 0.950 . S
H1265 C1285 0.950 . S
H1266 C1287 0.950 . S
H1267 C1290 0.950 . S
H1268 C1291 0.950 . S
H1269 C1293 0.950 . S
H1270 C1294 0.950 . S
H1271 C1295 0.951 . S
H1272 C1297 0.951 . S
H1273 C1299 0.950 . S
H1274 C1300 0.950 . S
H1275 C1302 0.950 . S
H1276 C1305 0.950 . S
H1277 C1306 0.950 . S
H1278 C1308 0.950 . S
H1279 C1309 0.950 . S
C1280 H1262 0.951 . S
C1280 C1281 1.366 . S
C1280 C1282 1.388 . S
C1281 C1280 1.366 . S
C1281 C1285 1.385 . S
C1282 H1263 0.951 . S
C1282 C1280 1.388 . S
C1282 C1283 1.366 . S
C1283 C1282 1.366 . S
C1283 C1284 1.414 . S
C1283 C1286 1.499 . S
C1284 H1264 0.950 . S
C1284 C1283 1.414 . S
C1284 C1285 1.374 . S
C1285 H1265 0.950 . S
C1285 C1281 1.385 . S
C1285 C1284 1.374 . S
C1286 C1283 1.499 . S
C1286 C1287 1.373 . S
C1286 C1288 1.389 . S
C1287 H1266 0.950 . S
C1287 C1286 1.373 . S
C1287 C1303 1.377 . S
C1288 C1286 1.389 . S
C1288 C1289 1.524 . S
C1288 C1302 1.377 . S
C1289 C1288 1.524 . S
C1289 C1290 1.397 . S
C1289 C1294 1.363 . S
C1290 H1267 0.950 . S
C1290 C1289 1.397 . S
C1290 C1291 1.334 . S
C1291 H1268 0.950 . S
C1291 C1290 1.334 . S
C1291 C1292 1.287 . S
C1292 C1291 1.287 . S
C1292 C1293 1.524 . S
C1292 H1311 0.913 . S
C1293 H1269 0.950 . S
C1293 C1292 1.524 . S
C1293 C1294 1.415 . S
C1294 H1270 0.950 . S
C1294 C1289 1.363 . S
C1294 C1293 1.415 . S
C1295 H1271 0.951 . S
C1295 C1296 1.366 . S
C1295 C1297 1.388 . S
C1296 C1295 1.366 . S
C1296 C1300 1.385 . S
C1297 H1272 0.951 . S
C1297 C1295 1.388 . S
C1297 C1298 1.366 . S
C1298 C1297 1.366 . S
C1298 C1299 1.414 . S
C1298 C1301 1.499 . S
C1299 H1273 0.950 . S
C1299 C1298 1.414 . S
C1299 C1300 1.374 . S
C1300 H1274 0.950 . S
C1300 C1296 1.385 . S
C1300 C1299 1.374 . S
C1301 C1298 1.499 . S
C1301 C1302 1.373 . S
C1301 C1303 1.389 . S
C1302 H1275 0.950 . S
C1302 C1288 1.377 . S
C1302 C1301 1.373 . S
C1303 C1287 1.377 . S
C1303 C1301 1.389 . S
C1303 C1304 1.524 . S
C1304 C1303 1.524 . S
C1304 C1305 1.397 . S
C1304 C1309 1.363 . S
C1305 H1276 0.950 . S
C1305 C1304 1.397 . S
C1305 C1306 1.334 . S
C1306 H1277 0.950 . S
C1306 C1305 1.334 . S
C1306 C1307 1.287 . S
C1307 C1306 1.287 . S
C1307 C1308 1.524 . S
C1307 H1310 0.999 . S
C1308 H1278 0.950 . S
C1308 C1307 1.524 . S
C1308 C1309 1.415 . S
C1309 H1279 0.950 . S
C1309 C1304 1.363 . S
C1309 C1308 1.415 . S
H1310 C1307 0.999 . S
H1311 C1292 0.913 . S
H1312 C1330 0.951 . S
H1313 C1332 0.951 . S
H1314 C1334 0.950 . S
H1315 C1335 0.950 . S
H1316 C1337 0.950 . S
H1317 C1340 0.950 . S
H1318 C1341 0.950 . S
H1319 C1343 0.950 . S
H1320 C1344 0.950 . S
H1321 C1345 0.951 . S
H1322 C1347 0.951 . S
H1323 C1349 0.950 . S
H1324 C1350 0.950 . S
H1325 C1352 0.950 . S
H1326 C1355 0.950 . S
H1327 C1356 0.950 . S
H1328 C1358 0.950 . S
H1329 C1359 0.950 . S
C1330 H1312 0.951 . S
C1330 C1331 1.366 . S
C1330 C1332 1.388 . S
C1331 C1330 1.366 . S
C1331 C1335 1.385 . S
C1332 H1313 0.951 . S
C1332 C1330 1.388 . S
C1332 C1333 1.366 . S
C1333 C1332 1.366 . S
C1333 C1334 1.414 . S
C1333 C1336 1.499 . S
C1334 H1314 0.950 . S
C1334 C1333 1.414 . S
C1334 C1335 1.374 . S
C1335 H1315 0.950 . S
C1335 C1331 1.385 . S
C1335 C1334 1.374 . S
C1336 C1333 1.499 . S
C1336 C1337 1.373 1_556 S
C1336 C1338 1.389 . S
C1337 H1316 0.950 . S
C1337 C1336 1.373 1_554 S
C1337 C1353 1.377 . S
C1338 C1336 1.389 . S
C1338 C1339 1.524 . S
C1338 C1352 1.377 . S
C1339 C1338 1.524 . S
C1339 C1340 1.397 . S
C1339 C1344 1.363 . S
C1340 H1317 0.950 . S
C1340 C1339 1.397 . S
C1340 C1341 1.334 . S
C1341 H1318 0.950 . S
C1341 C1340 1.334 . S
C1341 C1342 1.287 . S
C1342 C1341 1.287 . S
C1342 C1343 1.524 . S
C1342 H1361 0.913 . S
C1343 H1319 0.950 . S
C1343 C1342 1.524 . S
C1343 C1344 1.415 . S
C1344 H1320 0.950 . S
C1344 C1339 1.363 . S
C1344 C1343 1.415 . S
C1345 H1321 0.951 . S
C1345 C1346 1.366 . S
C1345 C1347 1.388 . S
C1346 C1345 1.366 . S
C1346 C1350 1.385 . S
C1347 H1322 0.951 . S
C1347 C1345 1.388 . S
C1347 C1348 1.366 . S
C1348 C1347 1.366 . S
C1348 C1349 1.414 . S
C1348 C1351 1.499 . S
C1349 H1323 0.950 . S
C1349 C1348 1.414 . S
C1349 C1350 1.374 . S
C1350 H1324 0.950 . S
C1350 C1346 1.385 . S
C1350 C1349 1.374 . S
C1351 C1348 1.499 . S
C1351 C1352 1.373 1_554 S
C1351 C1353 1.389 . S
C1352 H1325 0.950 . S
C1352 C1338 1.377 . S
C1352 C1351 1.373 1_556 S
C1353 C1337 1.377 . S
C1353 C1351 1.389 . S
C1353 C1354 1.524 . S
C1354 C1353 1.524 . S
C1354 C1355 1.397 . S
C1354 C1359 1.363 . S
C1355 H1326 0.950 . S
C1355 C1354 1.397 . S
C1355 C1356 1.334 . S
C1356 H1327 0.950 . S
C1356 C1355 1.334 . S
C1356 C1357 1.287 . S
C1357 C1356 1.287 . S
C1357 C1358 1.524 . S
C1357 H1360 0.999 . S
C1358 H1328 0.950 . S
C1358 C1357 1.524 . S
C1358 C1359 1.415 . S
C1359 H1329 0.950 . S
C1359 C1354 1.363 . S
C1359 C1358 1.415 . S
H1360 C1357 0.999 . S
H1361 C1342 0.913 . S
H1362 C1380 0.951 . S
H1363 C1382 0.951 . S
H1364 C1384 0.950 . S
H1365 C1385 0.950 . S
H1366 C1387 0.950 . S
H1367 C1390 0.950 . S
H1368 C1391 0.950 . S
H1369 C1393 0.950 . S
H1370 C1394 0.950 . S
H1371 C1395 0.951 . S
H1372 C1397 0.951 . S
H1373 C1399 0.950 . S
H1374 C1400 0.950 . S
H1375 C1402 0.950 . S
H1376 C1405 0.950 . S
H1377 C1406 0.950 . S
H1378 C1408 0.950 . S
H1379 C1409 0.950 . S
C1380 H1362 0.951 . S
C1380 C1381 1.366 . S
C1380 C1382 1.388 . S
C1381 C1380 1.366 . S
C1381 C1385 1.385 . S
C1382 H1363 0.951 . S
C1382 C1380 1.388 . S
C1382 C1383 1.366 . S
C1383 C1382 1.366 . S
C1383 C1384 1.414 . S
C1383 C1386 1.499 . S
C1384 H1364 0.950 . S
C1384 C1383 1.414 . S
C1384 C1385 1.374 . S
C1385 H1365 0.950 . S
C1385 C1381 1.385 . S
C1385 C1384 1.374 . S
C1386 C1383 1.499 . S
C1386 C1387 1.373 . S
C1386 C1388 1.389 . S
C1387 H1366 0.950 . S
C1387 C1386 1.373 . S
C1387 C1403 1.377 . S
C1388 C1386 1.389 . S
C1388 C1389 1.524 . S
C1388 C1402 1.377 . S
C1389 C1388 1.524 . S
C1389 C1390 1.397 . S
C1389 C1394 1.363 . S
C1390 H1367 0.950 . S
C1390 C1389 1.397 . S
C1390 C1391 1.334 . S
C1391 H1368 0.950 . S
C1391 C1390 1.334 . S
C1391 C1392 1.287 . S
C1392 C1391 1.287 . S
C1392 C1393 1.524 . S
C1392 H1411 0.913 . S
C1393 H1369 0.950 . S
C1393 C1392 1.524 . S
C1393 C1394 1.415 . S
C1394 H1370 0.950 . S
C1394 C1389 1.363 . S
C1394 C1393 1.415 . S
C1395 H1371 0.951 . S
C1395 C1396 1.366 . S
C1395 C1397 1.388 . S
C1396 C1395 1.366 . S
C1396 C1400 1.385 . S
C1397 H1372 0.951 . S
C1397 C1395 1.388 . S
C1397 C1398 1.366 . S
C1398 C1397 1.366 . S
C1398 C1399 1.414 . S
C1398 C1401 1.499 . S
C1399 H1373 0.950 . S
C1399 C1398 1.414 . S
C1399 C1400 1.374 . S
C1400 H1374 0.950 . S
C1400 C1396 1.385 . S
C1400 C1399 1.374 . S
C1401 C1398 1.499 . S
C1401 C1402 1.373 . S
C1401 C1403 1.389 . S
C1402 H1375 0.950 . S
C1402 C1388 1.377 . S
C1402 C1401 1.373 . S
C1403 C1387 1.377 . S
C1403 C1401 1.389 . S
C1403 C1404 1.524 . S
C1404 C1403 1.524 . S
C1404 C1405 1.397 . S
C1404 C1409 1.363 . S
C1405 H1376 0.950 . S
C1405 C1404 1.397 . S
C1405 C1406 1.334 . S
C1406 H1377 0.950 . S
C1406 C1405 1.334 . S
C1406 C1407 1.287 . S
C1407 C1406 1.287 . S
C1407 C1408 1.524 . S
C1407 H1410 0.999 . S
C1408 H1378 0.950 . S
C1408 C1407 1.524 . S
C1408 C1409 1.415 . S
C1409 H1379 0.950 . S
C1409 C1404 1.363 . S
C1409 C1408 1.415 . S
H1410 C1407 0.999 . S
H1411 C1392 0.913 . S
H1412 C1430 0.951 . S
H1413 C1432 0.951 . S
H1414 C1434 0.950 . S
H1415 C1435 0.950 . S
H1416 C1437 0.950 . S
H1417 C1440 0.950 . S
H1418 C1441 0.950 . S
H1419 C1443 0.950 . S
H1420 C1444 0.950 . S
H1421 C1445 0.951 . S
H1422 C1447 0.951 . S
H1423 C1449 0.950 . S
H1424 C1450 0.950 . S
H1425 C1452 0.950 . S
H1426 C1455 0.950 . S
H1427 C1456 0.950 . S
H1428 C1458 0.950 . S
H1429 C1459 0.950 . S
C1430 H1412 0.951 . S
C1430 C1431 1.366 . S
C1430 C1432 1.388 . S
C1431 C1430 1.366 . S
C1431 C1435 1.385 . S
C1432 H1413 0.951 . S
C1432 C1430 1.388 . S
C1432 C1433 1.366 . S
C1433 C1432 1.366 . S
C1433 C1434 1.414 . S
C1433 C1436 1.499 . S
C1434 H1414 0.950 . S
C1434 C1433 1.414 . S
C1434 C1435 1.374 . S
C1435 H1415 0.950 . S
C1435 C1431 1.385 . S
C1435 C1434 1.374 . S
C1436 C1433 1.499 . S
C1436 C1437 1.373 1_556 S
C1436 C1438 1.389 . S
C1437 H1416 0.950 . S
C1437 C1436 1.373 1_554 S
C1437 C1453 1.377 . S
C1438 C1436 1.389 . S
C1438 C1439 1.524 . S
C1438 C1452 1.377 . S
C1439 C1438 1.524 . S
C1439 C1440 1.397 . S
C1439 C1444 1.363 . S
C1440 H1417 0.950 . S
C1440 C1439 1.397 . S
C1440 C1441 1.334 . S
C1441 H1418 0.950 . S
C1441 C1440 1.334 . S
C1441 C1442 1.287 . S
C1442 C1441 1.287 . S
C1442 C1443 1.524 . S
C1442 H1461 0.913 . S
C1443 H1419 0.950 . S
C1443 C1442 1.524 . S
C1443 C1444 1.415 . S
C1444 H1420 0.950 . S
C1444 C1439 1.363 . S
C1444 C1443 1.415 . S
C1445 H1421 0.951 . S
C1445 C1446 1.366 . S
C1445 C1447 1.388 . S
C1446 C1445 1.366 . S
C1446 C1450 1.385 . S
C1447 H1422 0.951 . S
C1447 C1445 1.388 . S
C1447 C1448 1.366 . S
C1448 C1447 1.366 . S
C1448 C1449 1.414 . S
C1448 C1451 1.499 . S
C1449 H1423 0.950 . S
C1449 C1448 1.414 . S
C1449 C1450 1.374 . S
C1450 H1424 0.950 . S
C1450 C1446 1.385 . S
C1450 C1449 1.374 . S
C1451 C1448 1.499 . S
C1451 C1452 1.373 1_554 S
C1451 C1453 1.389 . S
C1452 H1425 0.950 . S
C1452 C1438 1.377 . S
C1452 C1451 1.373 1_556 S
C1453 C1437 1.377 . S
C1453 C1451 1.389 . S
C1453 C1454 1.524 . S
C1454 C1453 1.524 . S
C1454 C1455 1.397 . S
C1454 C1459 1.363 . S
C1455 H1426 0.950 . S
C1455 C1454 1.397 . S
C1455 C1456 1.334 . S
C1456 H1427 0.950 . S
C1456 C1455 1.334 . S
C1456 C1457 1.287 . S
C1457 C1456 1.287 . S
C1457 C1458 1.524 . S
C1457 H1460 0.999 . S
C1458 H1428 0.950 . S
C1458 C1457 1.524 . S
C1458 C1459 1.415 . S
C1459 H1429 0.950 . S
C1459 C1454 1.363 . S
C1459 C1458 1.415 . S
H1460 C1457 0.999 . S
H1461 C1442 0.913 . S
H1462 C1480 0.951 . S
H1463 C1482 0.951 . S
H1464 C1484 0.950 . S
H1465 C1485 0.950 . S
H1466 C1487 0.950 . S
H1467 C1490 0.950 . S
H1468 C1491 0.950 . S
H1469 C1493 0.950 . S
H1470 C1494 0.950 . S
H1471 C1495 0.951 . S
H1472 C1497 0.951 . S
H1473 C1499 0.950 . S
H1474 C1500 0.950 . S
H1475 C1502 0.950 . S
H1476 C1505 0.950 . S
H1477 C1506 0.950 . S
H1478 C1508 0.950 . S
H1479 C1509 0.950 . S
C1480 H1462 0.951 . S
C1480 C1481 1.366 . S
C1480 C1482 1.388 . S
C1481 C1480 1.366 . S
C1481 C1485 1.385 . S
C1482 H1463 0.951 . S
C1482 C1480 1.388 . S
C1482 C1483 1.366 . S
C1483 C1482 1.366 . S
C1483 C1484 1.414 . S
C1483 C1486 1.499 . S
C1484 H1464 0.950 . S
C1484 C1483 1.414 . S
C1484 C1485 1.374 . S
C1485 H1465 0.950 . S
C1485 C1481 1.385 . S
C1485 C1484 1.374 . S
C1486 C1483 1.499 . S
C1486 C1487 1.373 . S
C1486 C1488 1.389 . S
C1487 H1466 0.950 . S
C1487 C1486 1.373 . S
C1487 C1503 1.377 . S
C1488 C1486 1.389 . S
C1488 C1489 1.524 . S
C1488 C1502 1.377 . S
C1489 C1488 1.524 . S
C1489 C1490 1.397 . S
C1489 C1494 1.363 . S
C1490 H1467 0.950 . S
C1490 C1489 1.397 . S
C1490 C1491 1.334 . S
C1491 H1468 0.950 . S
C1491 C1490 1.334 . S
C1491 C1492 1.287 . S
C1492 C1491 1.287 . S
C1492 C1493 1.524 . S
C1492 H1511 0.913 . S
C1493 H1469 0.950 . S
C1493 C1492 1.524 . S
C1493 C1494 1.415 . S
C1494 H1470 0.950 . S
C1494 C1489 1.363 . S
C1494 C1493 1.415 . S
C1495 H1471 0.951 . S
C1495 C1496 1.366 . S
C1495 C1497 1.388 . S
C1496 C1495 1.366 . S
C1496 C1500 1.385 . S
C1497 H1472 0.951 . S
C1497 C1495 1.388 . S
C1497 C1498 1.366 . S
C1498 C1497 1.366 . S
C1498 C1499 1.414 . S
C1498 C1501 1.499 . S
C1499 H1473 0.950 . S
C1499 C1498 1.414 . S
C1499 C1500 1.374 . S
C1500 H1474 0.950 . S
C1500 C1496 1.385 . S
C1500 C1499 1.374 . S
C1501 C1498 1.499 . S
C1501 C1502 1.373 . S
C1501 C1503 1.389 . S
C1502 H1475 0.950 . S
C1502 C1488 1.377 . S
C1502 C1501 1.373 . S
C1503 C1487 1.377 . S
C1503 C1501 1.389 . S
C1503 C1504 1.524 . S
C1504 C1503 1.524 . S
C1504 C1505 1.397 . S
C1504 C1509 1.363 . S
C1505 H1476 0.950 . S
C1505 C1504 1.397 . S
C1505 C1506 1.334 . S
C1506 H1477 0.950 . S
C1506 C1505 1.334 . S
C1506 C1507 1.287 . S
C1507 C1506 1.287 . S
C1507 C1508 1.524 . S
C1507 H1510 0.999 . S
C1508 H1478 0.950 . S
C1508 C1507 1.524 . S
C1508 C1509 1.415 . S
C1509 H1479 0.950 . S
C1509 C1504 1.363 . S
C1509 C1508 1.415 . S
H1510 C1507 0.999 . S
H1511 C1492 0.913 . S
H1512 C1530 0.951 . S
H1513 C1532 0.951 . S
H1514 C1534 0.950 . S
H1515 C1535 0.950 . S
H1516 C1537 0.950 . S
H1517 C1540 0.950 . S
H1518 C1541 0.950 . S
H1519 C1543 0.950 . S
H1520 C1544 0.950 . S
H1521 C1545 0.951 . S
H1522 C1547 0.951 . S
H1523 C1549 0.950 . S
H1524 C1550 0.950 . S
H1525 C1552 0.950 . S
H1526 C1555 0.950 . S
H1527 C1556 0.950 . S
H1528 C1558 0.950 . S
H1529 C1559 0.950 . S
C1530 H1512 0.951 . S
C1530 C1531 1.366 . S
C1530 C1532 1.388 . S
C1531 C1530 1.366 . S
C1531 C1535 1.385 . S
C1532 H1513 0.951 . S
C1532 C1530 1.388 . S
C1532 C1533 1.366 . S
C1533 C1532 1.366 . S
C1533 C1534 1.414 . S
C1533 C1536 1.499 . S
C1534 H1514 0.950 . S
C1534 C1533 1.414 . S
C1534 C1535 1.374 . S
C1535 H1515 0.950 . S
C1535 C1531 1.385 . S
C1535 C1534 1.374 . S
C1536 C1533 1.499 . S
C1536 C1537 1.373 . S
C1536 C1538 1.389 . S
C1537 H1516 0.950 . S
C1537 C1536 1.373 . S
C1537 C1553 1.377 . S
C1538 C1536 1.389 . S
C1538 C1539 1.524 . S
C1538 C1552 1.377 . S
C1539 C1538 1.524 . S
C1539 C1540 1.397 . S
C1539 C1544 1.363 . S
C1540 H1517 0.950 . S
C1540 C1539 1.397 . S
C1540 C1541 1.334 . S
C1541 H1518 0.950 . S
C1541 C1540 1.334 . S
C1541 C1542 1.287 . S
C1542 C1541 1.287 . S
C1542 C1543 1.524 . S
C1542 H1561 0.913 . S
C1543 H1519 0.950 . S
C1543 C1542 1.524 . S
C1543 C1544 1.415 . S
C1544 H1520 0.950 . S
C1544 C1539 1.363 . S
C1544 C1543 1.415 . S
C1545 H1521 0.951 . S
C1545 C1546 1.366 . S
C1545 C1547 1.388 . S
C1546 C1545 1.366 . S
C1546 C1550 1.385 . S
C1547 H1522 0.951 . S
C1547 C1545 1.388 . S
C1547 C1548 1.366 . S
C1548 C1547 1.366 . S
C1548 C1549 1.414 . S
C1548 C1551 1.499 . S
C1549 H1523 0.950 . S
C1549 C1548 1.414 . S
C1549 C1550 1.374 . S
C1550 H1524 0.950 . S
C1550 C1546 1.385 . S
C1550 C1549 1.374 . S
C1551 C1548 1.499 . S
C1551 C1552 1.373 . S
C1551 C1553 1.389 . S
C1552 H1525 0.950 . S
C1552 C1538 1.377 . S
C1552 C1551 1.373 . S
C1553 C1537 1.377 . S
C1553 C1551 1.389 . S
C1553 C1554 1.524 . S
C1554 C1553 1.524 . S
C1554 C1555 1.397 . S
C1554 C1559 1.363 . S
C1555 H1526 0.950 . S
C1555 C1554 1.397 . S
C1555 C1556 1.334 . S
C1556 H1527 0.950 . S
C1556 C1555 1.334 . S
C1556 C1557 1.287 . S
C1557 C1556 1.287 . S
C1557 C1558 1.524 . S
C1557 H1560 0.999 . S
C1558 H1528 0.950 . S
C1558 C1557 1.524 . S
C1558 C1559 1.415 . S
C1559 H1529 0.950 . S
C1559 C1554 1.363 . S
C1559 C1558 1.415 . S
H1560 C1557 0.999 . S
H1561 C1542 0.913 . S
H1562 C1580 0.951 . S
H1563 C1582 0.951 . S
H1564 C1584 0.950 . S
H1565 C1585 0.950 . S
H1566 C1587 0.950 . S
H1567 C1590 0.950 . S
H1568 C1591 0.950 . S
H1569 C1593 0.950 . S
H1570 C1594 0.950 . S
H1571 C1595 0.951 . S
H1572 C1597 0.951 . S
H1573 C1599 0.950 . S
H1574 C1600 0.950 . S
H1575 C1602 0.950 . S
H1576 C1605 0.950 . S
H1577 C1606 0.950 . S
H1578 C1608 0.950 . S
H1579 C1609 0.950 . S
C1580 H1562 0.951 . S
C1580 C1581 1.366 . S
C1580 C1582 1.388 . S
C1581 C1580 1.366 . S
C1581 C1585 1.385 . S
C1582 H1563 0.951 . S
C1582 C1580 1.388 . S
C1582 C1583 1.366 . S
C1583 C1582 1.366 . S
C1583 C1584 1.414 . S
C1583 C1586 1.499 . S
C1584 H1564 0.950 . S
C1584 C1583 1.414 . S
C1584 C1585 1.374 . S
C1585 H1565 0.950 . S
C1585 C1581 1.385 . S
C1585 C1584 1.374 . S
C1586 C1583 1.499 . S
C1586 C1587 1.373 . S
C1586 C1588 1.389 . S
C1587 H1566 0.950 . S
C1587 C1586 1.373 . S
C1587 C1603 1.377 1_455 S
C1588 C1586 1.389 . S
C1588 C1589 1.524 . S
C1588 C1602 1.377 1_455 S
C1589 C1588 1.524 . S
C1589 C1590 1.397 . S
C1589 C1594 1.363 . S
C1590 H1567 0.950 . S
C1590 C1589 1.397 . S
C1590 C1591 1.334 . S
C1591 H1568 0.950 . S
C1591 C1590 1.334 . S
C1591 C1592 1.287 . S
C1592 C1591 1.287 . S
C1592 C1593 1.524 . S
C1592 H1611 0.913 . S
C1593 H1569 0.950 . S
C1593 C1592 1.524 . S
C1593 C1594 1.415 . S
C1594 H1570 0.950 . S
C1594 C1589 1.363 . S
C1594 C1593 1.415 . S
C1595 H1571 0.951 . S
C1595 C1596 1.366 . S
C1595 C1597 1.388 . S
C1596 C1595 1.366 . S
C1596 C1600 1.385 . S
C1597 H1572 0.951 . S
C1597 C1595 1.388 . S
C1597 C1598 1.366 . S
C1598 C1597 1.366 . S
C1598 C1599 1.414 . S
C1598 C1601 1.499 . S
C1599 H1573 0.950 . S
C1599 C1598 1.414 . S
C1599 C1600 1.374 . S
C1600 H1574 0.950 . S
C1600 C1596 1.385 . S
C1600 C1599 1.374 . S
C1601 C1598 1.499 . S
C1601 C1602 1.373 . S
C1601 C1603 1.389 . S
C1602 H1575 0.950 . S
C1602 C1588 1.377 1_655 S
C1602 C1601 1.373 . S
C1603 C1587 1.377 1_655 S
C1603 C1601 1.389 . S
C1603 C1604 1.524 . S
C1604 C1603 1.524 . S
C1604 C1605 1.397 . S
C1604 C1609 1.363 . S
C1605 H1576 0.950 . S
C1605 C1604 1.397 . S
C1605 C1606 1.334 . S
C1606 H1577 0.950 . S
C1606 C1605 1.334 . S
C1606 C1607 1.287 . S
C1607 C1606 1.287 . S
C1607 C1608 1.524 . S
C1607 H1610 0.999 . S
C1608 H1578 0.950 . S
C1608 C1607 1.524 . S
C1608 C1609 1.415 . S
C1609 H1579 0.950 . S
C1609 C1604 1.363 . S
C1609 C1608 1.415 . S
H1610 C1607 0.999 . S
H1611 C1592 0.913 . S
H1612 C1630 0.951 . S
H1613 C1632 0.951 . S
H1614 C1634 0.950 . S
H1615 C1635 0.950 . S
H1616 C1637 0.950 . S
H1617 C1640 0.950 . S
H1618 C1641 0.950 . S
H1619 C1643 0.950 . S
H1620 C1644 0.950 . S
H1621 C1645 0.951 . S
H1622 C1647 0.951 . S
H1623 C1649 0.950 . S
H1624 C1650 0.950 . S
H1625 C1652 0.950 . S
H1626 C1655 0.950 . S
H1627 C1656 0.950 . S
H1628 C1658 0.950 . S
H1629 C1659 0.950 . S
C1630 H1612 0.951 . S
C1630 C1631 1.366 . S
C1630 C1632 1.388 . S
C1631 C1630 1.366 . S
C1631 C1635 1.385 . S
C1632 H1613 0.951 . S
C1632 C1630 1.388 . S
C1632 C1633 1.366 . S
C1633 C1632 1.366 . S
C1633 C1634 1.414 . S
C1633 C1636 1.499 . S
C1634 H1614 0.950 . S
C1634 C1633 1.414 . S
C1634 C1635 1.374 . S
C1635 H1615 0.950 . S
C1635 C1631 1.385 . S
C1635 C1634 1.374 . S
C1636 C1633 1.499 . S
C1636 C1637 1.373 . S
C1636 C1638 1.389 . S
C1637 H1616 0.950 . S
C1637 C1636 1.373 . S
C1637 C1653 1.377 1_565 S
C1638 C1636 1.389 . S
C1638 C1639 1.524 . S
C1638 C1652 1.377 1_565 S
C1639 C1638 1.524 . S
C1639 C1640 1.397 . S
C1639 C1644 1.363 . S
C1640 H1617 0.950 . S
C1640 C1639 1.397 . S
C1640 C1641 1.334 . S
C1641 H1618 0.950 . S
C1641 C1640 1.334 . S
C1641 C1642 1.287 . S
C1642 C1641 1.287 . S
C1642 C1643 1.524 . S
C1642 H1661 0.913 . S
C1643 H1619 0.950 . S
C1643 C1642 1.524 . S
C1643 C1644 1.415 . S
C1644 H1620 0.950 . S
C1644 C1639 1.363 . S
C1644 C1643 1.415 . S
C1645 H1621 0.951 . S
C1645 C1646 1.366 . S
C1645 C1647 1.388 . S
C1646 C1645 1.366 . S
C1646 C1650 1.385 . S
C1647 H1622 0.951 . S
C1647 C1645 1.388 . S
C1647 C1648 1.366 . S
C1648 C1647 1.366 . S
C1648 C1649 1.414 . S
C1648 C1651 1.499 . S
C1649 H1623 0.950 . S
C1649 C1648 1.414 . S
C1649 C1650 1.374 . S
C1650 H1624 0.950 . S
C1650 C1646 1.385 . S
C1650 C1649 1.374 . S
C1651 C1648 1.499 . S
C1651 C1652 1.373 . S
C1651 C1653 1.389 . S
C1652 H1625 0.950 . S
C1652 C1638 1.377 1_545 S
C1652 C1651 1.373 . S
C1653 C1637 1.377 1_545 S
C1653 C1651 1.389 . S
C1653 C1654 1.524 . S
C1654 C1653 1.524 . S
C1654 C1655 1.397 . S
C1654 C1659 1.363 . S
C1655 H1626 0.950 . S
C1655 C1654 1.397 . S
C1655 C1656 1.334 . S
C1656 H1627 0.950 . S
C1656 C1655 1.334 . S
C1656 C1657 1.287 . S
C1657 C1656 1.287 . S
C1657 C1658 1.524 . S
C1657 H1660 0.999 . S
C1658 H1628 0.950 . S
C1658 C1657 1.524 . S
C1658 C1659 1.415 . S
C1659 H1629 0.950 . S
C1659 C1654 1.363 . S
C1659 C1658 1.415 . S
H1660 C1657 0.999 . S
H1661 C1642 0.913 . S
H1662 C1680 0.951 . S
H1663 C1682 0.951 . S
H1664 C1684 0.950 . S
H1665 C1685 0.950 . S
H1666 C1687 0.950 . S
H1667 C1690 0.950 . S
H1668 C1691 0.950 . S
H1669 C1693 0.950 . S
H1670 C1694 0.950 . S
H1671 C1695 0.951 . S
H1672 C1697 0.951 . S
H1673 C1699 0.950 . S
H1674 C1700 0.950 . S
H1675 C1702 0.950 . S
H1676 C1705 0.950 . S
H1677 C1706 0.950 . S
H1678 C1708 0.950 . S
H1679 C1709 0.950 . S
C1680 H1662 0.951 . S
C1680 C1681 1.366 . S
C1680 C1682 1.388 . S
C1681 C1680 1.366 . S
C1681 C1685 1.385 . S
C1682 H1663 0.951 . S
C1682 C1680 1.388 . S
C1682 C1683 1.366 . S
C1683 C1682 1.366 . S
C1683 C1684 1.414 . S
C1683 C1686 1.499 . S
C1684 H1664 0.950 . S
C1684 C1683 1.414 . S
C1684 C1685 1.374 . S
C1685 H1665 0.950 . S
C1685 C1681 1.385 . S
C1685 C1684 1.374 . S
C1686 C1683 1.499 . S
C1686 C1687 1.373 . S
C1686 C1688 1.389 . S
C1687 H1666 0.950 . S
C1687 C1686 1.373 . S
C1687 C1703 1.377 . S
C1688 C1686 1.389 . S
C1688 C1689 1.524 . S
C1688 C1702 1.377 . S
C1689 C1688 1.524 . S
C1689 C1690 1.397 . S
C1689 C1694 1.363 . S
C1690 H1667 0.950 . S
C1690 C1689 1.397 . S
C1690 C1691 1.334 . S
C1691 H1668 0.950 . S
C1691 C1690 1.334 . S
C1691 C1692 1.287 . S
C1692 C1691 1.287 . S
C1692 C1693 1.524 . S
C1692 H1711 0.913 . S
C1693 H1669 0.950 . S
C1693 C1692 1.524 . S
C1693 C1694 1.415 . S
C1694 H1670 0.950 . S
C1694 C1689 1.363 . S
C1694 C1693 1.415 . S
C1695 H1671 0.951 . S
C1695 C1696 1.366 . S
C1695 C1697 1.388 . S
C1696 C1695 1.366 . S
C1696 C1700 1.385 . S
C1697 H1672 0.951 . S
C1697 C1695 1.388 . S
C1697 C1698 1.366 . S
C1698 C1697 1.366 . S
C1698 C1699 1.414 . S
C1698 C1701 1.499 . S
C1699 H1673 0.950 . S
C1699 C1698 1.414 . S
C1699 C1700 1.374 . S
C1700 H1674 0.950 . S
C1700 C1696 1.385 . S
C1700 C1699 1.374 . S
C1701 C1698 1.499 . S
C1701 C1702 1.373 . S
C1701 C1703 1.389 . S
C1702 H1675 0.950 . S
C1702 C1688 1.377 . S
C1702 C1701 1.373 . S
C1703 C1687 1.377 . S
C1703 C1701 1.389 . S
C1703 C1704 1.524 . S
C1704 C1703 1.524 . S
C1704 C1705 1.397 . S
C1704 C1709 1.363 . S
C1705 H1676 0.950 . S
C1705 C1704 1.397 . S
C1705 C1706 1.334 . S
C1706 H1677 0.950 . S
C1706 C1705 1.334 . S
C1706 C1707 1.287 . S
C1707 C1706 1.287 . S
C1707 C1708 1.524 . S
C1707 H1710 0.999 . S
C1708 H1678 0.950 . S
C1708 C1707 1.524 . S
C1708 C1709 1.415 . S
C1709 H1679 0.950 . S
C1709 C1704 1.363 . S
C1709 C1708 1.415 . S
H1710 C1707 0.999 . S
H1711 C1692 0.913 . S
H1712 C1730 0.951 . S
H1713 C1732 0.951 . S
H1714 C1734 0.950 . S
H1715 C1735 0.950 . S
H1716 C1737 0.950 . S
H1717 C1740 0.950 . S
H1718 C1741 0.950 . S
H1719 C1743 0.950 . S
H1720 C1744 0.950 . S
H1721 C1745 0.951 . S
H1722 C1747 0.951 . S
H1723 C1749 0.950 . S
H1724 C1750 0.950 . S
H1725 C1752 0.950 . S
H1726 C1755 0.950 . S
H1727 C1756 0.950 . S
H1728 C1758 0.950 . S
H1729 C1759 0.950 . S
C1730 H1712 0.951 . S
C1730 C1731 1.366 . S
C1730 C1732 1.388 . S
C1731 C1730 1.366 . S
C1731 C1735 1.385 . S
C1732 H1713 0.951 . S
C1732 C1730 1.388 . S
C1732 C1733 1.366 . S
C1733 C1732 1.366 . S
C1733 C1734 1.414 . S
C1733 C1736 1.499 . S
C1734 H1714 0.950 . S
C1734 C1733 1.414 . S
C1734 C1735 1.374 . S
C1735 H1715 0.950 . S
C1735 C1731 1.385 . S
C1735 C1734 1.374 . S
C1736 C1733 1.499 . S
C1736 C1737 1.373 . S
C1736 C1738 1.389 . S
C1737 H1716 0.950 . S
C1737 C1736 1.373 . S
C1737 C1753 1.377 1_655 S
C1738 C1736 1.389 . S
C1738 C1739 1.524 . S
C1738 C1752 1.377 1_655 S
C1739 C1738 1.524 . S
C1739 C1740 1.397 . S
C1739 C1744 1.363 . S
C1740 H1717 0.950 . S
C1740 C1739 1.397 . S
C1740 C1741 1.334 . S
C1741 H1718 0.950 . S
C1741 C1740 1.334 . S
C1741 C1742 1.287 . S
C1742 C1741 1.287 . S
C1742 C1743 1.524 . S
C1742 H1761 0.913 . S
C1743 H1719 0.950 . S
C1743 C1742 1.524 . S
C1743 C1744 1.415 . S
C1744 H1720 0.950 . S
C1744 C1739 1.363 . S
C1744 C1743 1.415 . S
C1745 H1721 0.951 . S
C1745 C1746 1.366 . S
C1745 C1747 1.388 . S
C1746 C1745 1.366 . S
C1746 C1750 1.385 . S
C1747 H1722 0.951 . S
C1747 C1745 1.388 . S
C1747 C1748 1.366 . S
C1748 C1747 1.366 . S
C1748 C1749 1.414 . S
C1748 C1751 1.499 . S
C1749 H1723 0.950 . S
C1749 C1748 1.414 . S
C1749 C1750 1.374 . S
C1750 H1724 0.950 . S
C1750 C1746 1.385 . S
C1750 C1749 1.374 . S
C1751 C1748 1.499 . S
C1751 C1752 1.373 . S
C1751 C1753 1.389 . S
C1752 H1725 0.950 . S
C1752 C1738 1.377 1_455 S
C1752 C1751 1.373 . S
C1753 C1737 1.377 1_455 S
C1753 C1751 1.389 . S
C1753 C1754 1.524 . S
C1754 C1753 1.524 . S
C1754 C1755 1.397 . S
C1754 C1759 1.363 . S
C1755 H1726 0.950 . S
C1755 C1754 1.397 . S
C1755 C1756 1.334 . S
C1756 H1727 0.950 . S
C1756 C1755 1.334 . S
C1756 C1757 1.287 . S
C1757 C1756 1.287 . S
C1757 C1758 1.524 . S
C1757 H1760 0.999 . S
C1758 H1728 0.950 . S
C1758 C1757 1.524 . S
C1758 C1759 1.415 . S
C1759 H1729 0.950 . S
C1759 C1754 1.363 . S
C1759 C1758 1.415 . S
H1760 C1757 0.999 . S
H1761 C1742 0.913 . S
H1762 C1780 0.951 . S
H1763 C1782 0.951 . S
H1764 C1784 0.950 . S
H1765 C1785 0.950 . S
H1766 C1787 0.950 . S
H1767 C1790 0.950 . S
H1768 C1791 0.950 . S
H1769 C1793 0.950 . S
H1770 C1794 0.950 . S
H1771 C1795 0.951 . S
H1772 C1797 0.951 . S
H1773 C1799 0.950 . S
H1774 C1800 0.950 . S
H1775 C1802 0.950 . S
H1776 C1805 0.950 . S
H1777 C1806 0.950 . S
H1778 C1808 0.950 . S
H1779 C1809 0.950 . S
C1780 H1762 0.951 . S
C1780 C1781 1.366 . S
C1780 C1782 1.388 . S
C1781 C1780 1.366 . S
C1781 C1785 1.385 . S
C1782 H1763 0.951 . S
C1782 C1780 1.388 . S
C1782 C1783 1.366 . S
C1783 C1782 1.366 . S
C1783 C1784 1.414 . S
C1783 C1786 1.499 . S
C1784 H1764 0.950 . S
C1784 C1783 1.414 . S
C1784 C1785 1.374 . S
C1785 H1765 0.950 . S
C1785 C1781 1.385 . S
C1785 C1784 1.374 . S
C1786 C1783 1.499 . S
C1786 C1787 1.373 . S
C1786 C1788 1.389 . S
C1787 H1766 0.950 . S
C1787 C1786 1.373 . S
C1787 C1803 1.377 1_545 S
C1788 C1786 1.389 . S
C1788 C1789 1.524 . S
C1788 C1802 1.377 1_545 S
C1789 C1788 1.524 . S
C1789 C1790 1.397 . S
C1789 C1794 1.363 . S
C1790 H1767 0.950 . S
C1790 C1789 1.397 . S
C1790 C1791 1.334 . S
C1791 H1768 0.950 . S
C1791 C1790 1.334 . S
C1791 C1792 1.287 . S
C1792 C1791 1.287 . S
C1792 C1793 1.524 . S
C1792 H1811 0.913 . S
C1793 H1769 0.950 . S
C1793 C1792 1.524 . S
C1793 C1794 1.415 . S
C1794 H1770 0.950 . S
C1794 C1789 1.363 . S
C1794 C1793 1.415 . S
C1795 H1771 0.951 . S
C1795 C1796 1.366 . S
C1795 C1797 1.388 . S
C1796 C1795 1.366 . S
C1796 C1800 1.385 . S
C1797 H1772 0.951 . S
C1797 C1795 1.388 . S
C1797 C1798 1.366 . S
C1798 C1797 1.366 . S
C1798 C1799 1.414 . S
C1798 C1801 1.499 . S
C1799 H1773 0.950 . S
C1799 C1798 1.414 . S
C1799 C1800 1.374 . S
C1800 H1774 0.950 . S
C1800 C1796 1.385 . S
C1800 C1799 1.374 . S
C1801 C1798 1.499 . S
C1801 C1802 1.373 . S
C1801 C1803 1.389 . S
C1802 H1775 0.950 . S
C1802 C1788 1.377 1_565 S
C1802 C1801 1.373 . S
C1803 C1787 1.377 1_565 S
C1803 C1801 1.389 . S
C1803 C1804 1.524 . S
C1804 C1803 1.524 . S
C1804 C1805 1.397 . S
C1804 C1809 1.363 . S
C1805 H1776 0.950 . S
C1805 C1804 1.397 . S
C1805 C1806 1.334 . S
C1806 H1777 0.950 . S
C1806 C1805 1.334 . S
C1806 C1807 1.287 . S
C1807 C1806 1.287 . S
C1807 C1808 1.524 . S
C1807 H1810 0.999 . S
C1808 H1778 0.950 . S
C1808 C1807 1.524 . S
C1808 C1809 1.415 . S
C1809 H1779 0.950 . S
C1809 C1804 1.363 . S
C1809 C1808 1.415 . S
H1810 C1807 0.999 . S
H1811 C1792 0.913 . S
H1812 C1830 0.951 . S
H1813 C1832 0.951 . S
H1814 C1834 0.950 . S
H1815 C1835 0.950 . S
H1816 C1837 0.950 . S
H1817 C1840 0.950 . S
H1818 C1841 0.950 . S
H1819 C1843 0.950 . S
H1820 C1844 0.950 . S
H1821 C1845 0.951 . S
H1822 C1847 0.951 . S
H1823 C1849 0.950 . S
H1824 C1850 0.950 . S
H1825 C1852 0.950 . S
H1826 C1855 0.950 . S
H1827 C1856 0.950 . S
H1828 C1858 0.950 . S
H1829 C1859 0.950 . S
C1830 H1812 0.951 . S
C1830 C1831 1.366 . S
C1830 C1832 1.388 . S
C1831 C1830 1.366 . S
C1831 C1835 1.385 . S
C1832 H1813 0.951 . S
C1832 C1830 1.388 . S
C1832 C1833 1.366 . S
C1833 C1832 1.366 . S
C1833 C1834 1.414 . S
C1833 C1836 1.499 . S
C1834 H1814 0.950 . S
C1834 C1833 1.414 . S
C1834 C1835 1.374 . S
C1835 H1815 0.950 . S
C1835 C1831 1.385 . S
C1835 C1834 1.374 . S
C1836 C1833 1.499 . S
C1836 C1837 1.373 . S
C1836 C1838 1.389 . S
C1837 H1816 0.950 . S
C1837 C1836 1.373 . S
C1837 C1853 1.377 . S
C1838 C1836 1.389 . S
C1838 C1839 1.524 . S
C1838 C1852 1.377 . S
C1839 C1838 1.524 . S
C1839 C1840 1.397 . S
C1839 C1844 1.363 . S
C1840 H1817 0.950 . S
C1840 C1839 1.397 . S
C1840 C1841 1.334 . S
C1841 H1818 0.950 . S
C1841 C1840 1.334 . S
C1841 C1842 1.287 . S
C1842 C1841 1.287 . S
C1842 C1843 1.524 . S
C1842 H1861 0.913 . S
C1843 H1819 0.950 . S
C1843 C1842 1.524 . S
C1843 C1844 1.415 . S
C1844 H1820 0.950 . S
C1844 C1839 1.363 . S
C1844 C1843 1.415 . S
C1845 H1821 0.951 . S
C1845 C1846 1.366 . S
C1845 C1847 1.388 . S
C1846 C1845 1.366 . S
C1846 C1850 1.385 . S
C1847 H1822 0.951 . S
C1847 C1845 1.388 . S
C1847 C1848 1.366 . S
C1848 C1847 1.366 . S
C1848 C1849 1.414 . S
C1848 C1851 1.499 . S
C1849 H1823 0.950 . S
C1849 C1848 1.414 . S
C1849 C1850 1.374 . S
C1850 H1824 0.950 . S
C1850 C1846 1.385 . S
C1850 C1849 1.374 . S
C1851 C1848 1.499 . S
C1851 C1852 1.373 . S
C1851 C1853 1.389 . S
C1852 H1825 0.950 . S
C1852 C1838 1.377 . S
C1852 C1851 1.373 . S
C1853 C1837 1.377 . S
C1853 C1851 1.389 . S
C1853 C1854 1.524 . S
C1854 C1853 1.524 . S
C1854 C1855 1.397 . S
C1854 C1859 1.363 . S
C1855 H1826 0.950 . S
C1855 C1854 1.397 . S
C1855 C1856 1.334 . S
C1856 H1827 0.950 . S
C1856 C1855 1.334 . S
C1856 C1857 1.287 . S
C1857 C1856 1.287 . S
C1857 C1858 1.524 . S
C1857 H1860 0.999 . S
C1858 H1828 0.950 . S
C1858 C1857 1.524 . S
C1858 C1859 1.415 . S
C1859 H1829 0.950 . S
C1859 C1854 1.363 . S
C1859 C1858 1.415 . S
H1860 C1857 0.999 . S
H1861 C1842 0.913 . S
H1862 C1880 0.951 . S
H1863 C1882 0.951 . S
H1864 C1884 0.950 . S
H1865 C1885 0.950 . S
H1866 C1887 0.950 . S
H1867 C1890 0.950 . S
H1868 C1891 0.950 . S
H1869 C1893 0.950 . S
H1870 C1894 0.950 . S
H1871 C1895 0.951 . S
H1872 C1897 0.951 . S
H1873 C1899 0.950 . S
H1874 C1900 0.950 . S
H1875 C1902 0.950 . S
H1876 C1905 0.950 . S
H1877 C1906 0.950 . S
H1878 C1908 0.950 . S
H1879 C1909 0.950 . S
C1880 H1862 0.951 . S
C1880 C1881 1.366 . S
C1880 C1882 1.388 . S
C1881 C1880 1.366 . S
C1881 C1885 1.385 . S
C1882 H1863 0.951 . S
C1882 C1880 1.388 . S
C1882 C1883 1.366 . S
C1883 C1882 1.366 . S
C1883 C1884 1.414 . S
C1883 C1886 1.499 . S
C1884 H1864 0.950 . S
C1884 C1883 1.414 . S
C1884 C1885 1.374 . S
C1885 H1865 0.950 . S
C1885 C1881 1.385 . S
C1885 C1884 1.374 . S
C1886 C1883 1.499 . S
C1886 C1887 1.373 . S
C1886 C1888 1.389 . S
C1887 H1866 0.950 . S
C1887 C1886 1.373 . S
C1887 C1903 1.377 1_655 S
C1888 C1886 1.389 . S
C1888 C1889 1.524 . S
C1888 C1902 1.377 1_655 S
C1889 C1888 1.524 . S
C1889 C1890 1.397 . S
C1889 C1894 1.363 . S
C1890 H1867 0.950 . S
C1890 C1889 1.397 . S
C1890 C1891 1.334 . S
C1891 H1868 0.950 . S
C1891 C1890 1.334 . S
C1891 C1892 1.287 . S
C1892 C1891 1.287 . S
C1892 C1893 1.524 . S
C1892 H1911 0.913 . S
C1893 H1869 0.950 . S
C1893 C1892 1.524 . S
C1893 C1894 1.415 . S
C1894 H1870 0.950 . S
C1894 C1889 1.363 . S
C1894 C1893 1.415 . S
C1895 H1871 0.951 . S
C1895 C1896 1.366 . S
C1895 C1897 1.388 . S
C1896 C1895 1.366 . S
C1896 C1900 1.385 . S
C1897 H1872 0.951 . S
C1897 C1895 1.388 . S
C1897 C1898 1.366 . S
C1898 C1897 1.366 . S
C1898 C1899 1.414 . S
C1898 C1901 1.499 . S
C1899 H1873 0.950 . S
C1899 C1898 1.414 . S
C1899 C1900 1.374 . S
C1900 H1874 0.950 . S
C1900 C1896 1.385 . S
C1900 C1899 1.374 . S
C1901 C1898 1.499 . S
C1901 C1902 1.373 . S
C1901 C1903 1.389 . S
C1902 H1875 0.950 . S
C1902 C1888 1.377 1_455 S
C1902 C1901 1.373 . S
C1903 C1887 1.377 1_455 S
C1903 C1901 1.389 . S
C1903 C1904 1.524 . S
C1904 C1903 1.524 . S
C1904 C1905 1.397 . S
C1904 C1909 1.363 . S
C1905 H1876 0.950 . S
C1905 C1904 1.397 . S
C1905 C1906 1.334 . S
C1906 H1877 0.950 . S
C1906 C1905 1.334 . S
C1906 C1907 1.287 . S
C1907 C1906 1.287 . S
C1907 C1908 1.524 . S
C1907 H1910 0.999 . S
C1908 H1878 0.950 . S
C1908 C1907 1.524 . S
C1908 C1909 1.415 . S
C1909 H1879 0.950 . S
C1909 C1904 1.363 . S
C1909 C1908 1.415 . S
H1910 C1907 0.999 . S
H1911 C1892 0.913 . S
H1912 C1930 0.951 . S
H1913 C1932 0.951 . S
H1914 C1934 0.950 . S
H1915 C1935 0.950 . S
H1916 C1937 0.950 . S
H1917 C1940 0.950 . S
H1918 C1941 0.950 . S
H1919 C1943 0.950 . S
H1920 C1944 0.950 . S
H1921 C1945 0.951 . S
H1922 C1947 0.951 . S
H1923 C1949 0.950 . S
H1924 C1950 0.950 . S
H1925 C1952 0.950 . S
H1926 C1955 0.950 . S
H1927 C1956 0.950 . S
H1928 C1958 0.950 . S
H1929 C1959 0.950 . S
C1930 H1912 0.951 . S
C1930 C1931 1.366 . S
C1930 C1932 1.388 . S
C1931 C1930 1.366 . S
C1931 C1935 1.385 . S
C1932 H1913 0.951 . S
C1932 C1930 1.388 . S
C1932 C1933 1.366 . S
C1933 C1932 1.366 . S
C1933 C1934 1.414 . S
C1933 C1936 1.499 . S
C1934 H1914 0.950 . S
C1934 C1933 1.414 . S
C1934 C1935 1.374 . S
C1935 H1915 0.950 . S
C1935 C1931 1.385 . S
C1935 C1934 1.374 . S
C1936 C1933 1.499 . S
C1936 C1937 1.373 . S
C1936 C1938 1.389 . S
C1937 H1916 0.950 . S
C1937 C1936 1.373 . S
C1937 C1953 1.377 1_545 S
C1938 C1936 1.389 . S
C1938 C1939 1.524 . S
C1938 C1952 1.377 1_545 S
C1939 C1938 1.524 . S
C1939 C1940 1.397 . S
C1939 C1944 1.363 . S
C1940 H1917 0.950 . S
C1940 C1939 1.397 . S
C1940 C1941 1.334 . S
C1941 H1918 0.950 . S
C1941 C1940 1.334 . S
C1941 C1942 1.287 . S
C1942 C1941 1.287 . S
C1942 C1943 1.524 . S
C1942 H1961 0.913 . S
C1943 H1919 0.950 . S
C1943 C1942 1.524 . S
C1943 C1944 1.415 . S
C1944 H1920 0.950 . S
C1944 C1939 1.363 . S
C1944 C1943 1.415 . S
C1945 H1921 0.951 . S
C1945 C1946 1.366 . S
C1945 C1947 1.388 . S
C1946 C1945 1.366 . S
C1946 C1950 1.385 . S
C1947 H1922 0.951 . S
C1947 C1945 1.388 . S
C1947 C1948 1.366 . S
C1948 C1947 1.366 . S
C1948 C1949 1.414 . S
C1948 C1951 1.499 . S
C1949 H1923 0.950 . S
C1949 C1948 1.414 . S
C1949 C1950 1.374 . S
C1950 H1924 0.950 . S
C1950 C1946 1.385 . S
C1950 C1949 1.374 . S
C1951 C1948 1.499 . S
C1951 C1952 1.373 . S
C1951 C1953 1.389 . S
C1952 H1925 0.950 . S
C1952 C1938 1.377 1_565 S
C1952 C1951 1.373 . S
C1953 C1937 1.377 1_565 S
C1953 C1951 1.389 . S
C1953 C1954 1.524 . S
C1954 C1953 1.524 . S
C1954 C1955 1.397 . S
C1954 C1959 1.363 . S
C1955 H1926 0.950 . S
C1955 C1954 1.397 . S
C1955 C1956 1.334 . S
C1956 H1927 0.950 . S
C1956 C1955 1.334 . S
C1956 C1957 1.287 . S
C1957 C1956 1.287 . S
C1957 C1958 1.524 . S
C1957 H1960 0.999 . S
C1958 H1928 0.950 . S
C1958 C1957 1.524 . S
C1958 C1959 1.415 . S
C1959 H1929 0.950 . S
C1959 C1954 1.363 . S
C1959 C1958 1.415 . S
H1960 C1957 0.999 . S
H1961 C1942 0.913 . S
H1962 C1980 0.951 . S
H1963 C1982 0.951 . S
H1964 C1984 0.950 . S
H1965 C1985 0.950 . S
H1966 C1987 0.950 . S
H1967 C1990 0.950 . S
H1968 C1991 0.950 . S
H1969 C1993 0.950 . S
H1970 C1994 0.950 . S
H1971 C1995 0.951 . S
H1972 C1997 0.951 . S
H1973 C1999 0.950 . S
H1974 C2000 0.950 . S
H1975 C2002 0.950 . S
H1976 C2005 0.950 . S
H1977 C2006 0.950 . S
H1978 C2008 0.950 . S
H1979 C2009 0.950 . S
C1980 H1962 0.951 . S
C1980 C1981 1.366 . S
C1980 C1982 1.388 . S
C1981 C1980 1.366 . S
C1981 C1985 1.385 . S
C1982 H1963 0.951 . S
C1982 C1980 1.388 . S
C1982 C1983 1.366 . S
C1983 C1982 1.366 . S
C1983 C1984 1.414 . S
C1983 C1986 1.499 . S
C1984 H1964 0.950 . S
C1984 C1983 1.414 . S
C1984 C1985 1.374 . S
C1985 H1965 0.950 . S
C1985 C1981 1.385 . S
C1985 C1984 1.374 . S
C1986 C1983 1.499 . S
C1986 C1987 1.373 . S
C1986 C1988 1.389 . S
C1987 H1966 0.950 . S
C1987 C1986 1.373 . S
C1987 C2003 1.377 . S
C1988 C1986 1.389 . S
C1988 C1989 1.524 . S
C1988 C2002 1.377 . S
C1989 C1988 1.524 . S
C1989 C1990 1.397 . S
C1989 C1994 1.363 . S
C1990 H1967 0.950 . S
C1990 C1989 1.397 . S
C1990 C1991 1.334 . S
C1991 H1968 0.950 . S
C1991 C1990 1.334 . S
C1991 C1992 1.287 . S
C1992 C1991 1.287 . S
C1992 C1993 1.524 . S
C1992 H2011 0.913 . S
C1993 H1969 0.950 . S
C1993 C1992 1.524 . S
C1993 C1994 1.415 . S
C1994 H1970 0.950 . S
C1994 C1989 1.363 . S
C1994 C1993 1.415 . S
C1995 H1971 0.951 . S
C1995 C1996 1.366 . S
C1995 C1997 1.388 . S
C1996 C1995 1.366 . S
C1996 C2000 1.385 . S
C1997 H1972 0.951 . S
C1997 C1995 1.388 . S
C1997 C1998 1.366 . S
C1998 C1997 1.366 . S
C1998 C1999 1.414 . S
C1998 C2001 1.499 . S
C1999 H1973 0.950 . S
C1999 C1998 1.414 . S
C1999 C2000 1.374 . S
C2000 H1974 0.950 . S
C2000 C1996 1.385 . S
C2000 C1999 1.374 . S
C2001 C1998 1.499 . S
C2001 C2002 1.373 . S
C2001 C2003 1.389 . S
C2002 H1975 0.950 . S
C2002 C1988 1.377 . S
C2002 C2001 1.373 . S
C2003 C1987 1.377 . S
C2003 C2001 1.389 . S
C2003 C2004 1.524 . S
C2004 C2003 1.524 . S
C2004 C2005 1.397 . S
C2004 C2009 1.363 . S
C2005 H1976 0.950 . S
C2005 C2004 1.397 . S
C2005 C2006 1.334 . S
C2006 H1977 0.950 . S
C2006 C2005 1.334 . S
C2006 C2007 1.287 . S
C2007 C2006 1.287 . S
C2007 C2008 1.524 . S
C2007 H2010 0.999 . S
C2008 H1978 0.950 . S
C2008 C2007 1.524 . S
C2008 C2009 1.415 . S
C2009 H1979 0.950 . S
C2009 C2004 1.363 . S
C2009 C2008 1.415 . S
H2010 C2007 0.999 . S
H2011 C1992 0.913 . S
H2012 C2030 0.951 . S
H2013 C2032 0.951 . S
H2014 C2034 0.950 . S
H2015 C2035 0.950 . S
H2016 C2037 0.950 . S
H2017 C2040 0.950 . S
H2018 C2041 0.950 . S
H2019 C2043 0.950 . S
H2020 C2044 0.950 . S
H2021 C2045 0.951 . S
H2022 C2047 0.951 . S
H2023 C2049 0.950 . S
H2024 C2050 0.950 . S
H2025 C2052 0.950 . S
H2026 C2055 0.950 . S
H2027 C2056 0.950 . S
H2028 C2058 0.950 . S
H2029 C2059 0.950 . S
C2030 H2012 0.951 . S
C2030 C2031 1.366 . S
C2030 C2032 1.388 . S
C2031 C2030 1.366 . S
C2031 C2035 1.385 . S
C2032 H2013 0.951 . S
C2032 C2030 1.388 . S
C2032 C2033 1.366 . S
C2033 C2032 1.366 . S
C2033 C2034 1.414 . S
C2033 C2036 1.499 . S
C2034 H2014 0.950 . S
C2034 C2033 1.414 . S
C2034 C2035 1.374 . S
C2035 H2015 0.950 . S
C2035 C2031 1.385 . S
C2035 C2034 1.374 . S
C2036 C2033 1.499 . S
C2036 C2037 1.373 . S
C2036 C2038 1.389 . S
C2037 H2016 0.950 . S
C2037 C2036 1.373 . S
C2037 C2053 1.377 1_455 S
C2038 C2036 1.389 . S
C2038 C2039 1.524 . S
C2038 C2052 1.377 1_455 S
C2039 C2038 1.524 . S
C2039 C2040 1.397 . S
C2039 C2044 1.363 . S
C2040 H2017 0.950 . S
C2040 C2039 1.397 . S
C2040 C2041 1.334 . S
C2041 H2018 0.950 . S
C2041 C2040 1.334 . S
C2041 C2042 1.287 . S
C2042 C2041 1.287 . S
C2042 C2043 1.524 . S
C2042 H2061 0.913 . S
C2043 H2019 0.950 . S
C2043 C2042 1.524 . S
C2043 C2044 1.415 . S
C2044 H2020 0.950 . S
C2044 C2039 1.363 . S
C2044 C2043 1.415 . S
C2045 H2021 0.951 . S
C2045 C2046 1.366 . S
C2045 C2047 1.388 . S
C2046 C2045 1.366 . S
C2046 C2050 1.385 . S
C2047 H2022 0.951 . S
C2047 C2045 1.388 . S
C2047 C2048 1.366 . S
C2048 C2047 1.366 . S
C2048 C2049 1.414 . S
C2048 C2051 1.499 . S
C2049 H2023 0.950 . S
C2049 C2048 1.414 . S
C2049 C2050 1.374 . S
C2050 H2024 0.950 . S
C2050 C2046 1.385 . S
C2050 C2049 1.374 . S
C2051 C2048 1.499 . S
C2051 C2052 1.373 . S
C2051 C2053 1.389 . S
C2052 H2025 0.950 . S
C2052 C2038 1.377 1_655 S
C2052 C2051 1.373 . S
C2053 C2037 1.377 1_655 S
C2053 C2051 1.389 . S
C2053 C2054 1.524 . S
C2054 C2053 1.524 . S
C2054 C2055 1.397 . S
C2054 C2059 1.363 . S
C2055 H2026 0.950 . S
C2055 C2054 1.397 . S
C2055 C2056 1.334 . S
C2056 H2027 0.950 . S
C2056 C2055 1.334 . S
C2056 C2057 1.287 . S
C2057 C2056 1.287 . S
C2057 C2058 1.524 . S
C2057 H2060 0.999 . S
C2058 H2028 0.950 . S
C2058 C2057 1.524 . S
C2058 C2059 1.415 . S
C2059 H2029 0.950 . S
C2059 C2054 1.363 . S
C2059 C2058 1.415 . S
H2060 C2057 0.999 . S
H2061 C2042 0.913 . S
H2062 C2080 0.951 . S
H2063 C2082 0.951 . S
H2064 C2084 0.950 . S
H2065 C2085 0.950 . S
H2066 C2087 0.950 . S
H2067 C2090 0.950 . S
H2068 C2091 0.950 . S
H2069 C2093 0.950 . S
H2070 C2094 0.950 . S
H2071 C2095 0.951 . S
H2072 C2097 0.951 . S
H2073 C2099 0.950 . S
H2074 C2100 0.950 . S
H2075 C2102 0.950 . S
H2076 C2105 0.950 . S
H2077 C2106 0.950 . S
H2078 C2108 0.950 . S
H2079 C2109 0.950 . S
C2080 H2062 0.951 . S
C2080 C2081 1.366 . S
C2080 C2082 1.388 . S
C2081 C2080 1.366 . S
C2081 C2085 1.385 . S
C2082 H2063 0.951 . S
C2082 C2080 1.388 . S
C2082 C2083 1.366 . S
C2083 C2082 1.366 . S
C2083 C2084 1.414 . S
C2083 C2086 1.499 . S
C2084 H2064 0.950 . S
C2084 C2083 1.414 . S
C2084 C2085 1.374 . S
C2085 H2065 0.950 . S
C2085 C2081 1.385 . S
C2085 C2084 1.374 . S
C2086 C2083 1.499 . S
C2086 C2087 1.373 . S
C2086 C2088 1.389 . S
C2087 H2066 0.950 . S
C2087 C2086 1.373 . S
C2087 C2103 1.377 1_565 S
C2088 C2086 1.389 . S
C2088 C2089 1.524 . S
C2088 C2102 1.377 1_565 S
C2089 C2088 1.524 . S
C2089 C2090 1.397 . S
C2089 C2094 1.363 . S
C2090 H2067 0.950 . S
C2090 C2089 1.397 . S
C2090 C2091 1.334 . S
C2091 H2068 0.950 . S
C2091 C2090 1.334 . S
C2091 C2092 1.287 . S
C2092 C2091 1.287 . S
C2092 C2093 1.524 . S
C2092 H2111 0.913 . S
C2093 H2069 0.950 . S
C2093 C2092 1.524 . S
C2093 C2094 1.415 . S
C2094 H2070 0.950 . S
C2094 C2089 1.363 . S
C2094 C2093 1.415 . S
C2095 H2071 0.951 . S
C2095 C2096 1.366 . S
C2095 C2097 1.388 . S
C2096 C2095 1.366 . S
C2096 C2100 1.385 . S
C2097 H2072 0.951 . S
C2097 C2095 1.388 . S
C2097 C2098 1.366 . S
C2098 C2097 1.366 . S
C2098 C2099 1.414 . S
C2098 C2101 1.499 . S
C2099 H2073 0.950 . S
C2099 C2098 1.414 . S
C2099 C2100 1.374 . S
C2100 H2074 0.950 . S
C2100 C2096 1.385 . S
C2100 C2099 1.374 . S
C2101 C2098 1.499 . S
C2101 C2102 1.373 . S
C2101 C2103 1.389 . S
C2102 H2075 0.950 . S
C2102 C2088 1.377 1_545 S
C2102 C2101 1.373 . S
C2103 C2087 1.377 1_545 S
C2103 C2101 1.389 . S
C2103 C2104 1.524 . S
C2104 C2103 1.524 . S
C2104 C2105 1.397 . S
C2104 C2109 1.363 . S
C2105 H2076 0.950 . S
C2105 C2104 1.397 . S
C2105 C2106 1.334 . S
C2106 H2077 0.950 . S
C2106 C2105 1.334 . S
C2106 C2107 1.287 . S
C2107 C2106 1.287 . S
C2107 C2108 1.524 . S
C2107 H2110 0.999 . S
C2108 H2078 0.950 . S
C2108 C2107 1.524 . S
C2108 C2109 1.415 . S
C2109 H2079 0.950 . S
C2109 C2104 1.363 . S
C2109 C2108 1.415 . S
H2110 C2107 0.999 . S
H2111 C2092 0.913 . S
H2112 C2130 0.951 . S
H2113 C2132 0.951 . S
H2114 C2134 0.950 . S
H2115 C2135 0.950 . S
H2116 C2137 0.950 . S
H2117 C2140 0.950 . S
H2118 C2141 0.950 . S
H2119 C2143 0.950 . S
H2120 C2144 0.950 . S
H2121 C2145 0.951 . S
H2122 C2147 0.951 . S
H2123 C2149 0.950 . S
H2124 C2150 0.950 . S
H2125 C2152 0.950 . S
H2126 C2155 0.950 . S
H2127 C2156 0.950 . S
H2128 C2158 0.950 . S
H2129 C2159 0.950 . S
C2130 H2112 0.951 . S
C2130 C2131 1.366 . S
C2130 C2132 1.388 . S
C2131 C2130 1.366 . S
C2131 C2135 1.385 . S
C2132 H2113 0.951 . S
C2132 C2130 1.388 . S
C2132 C2133 1.366 . S
C2133 C2132 1.366 . S
C2133 C2134 1.414 . S
C2133 C2136 1.499 . S
C2134 H2114 0.950 . S
C2134 C2133 1.414 . S
C2134 C2135 1.374 . S
C2135 H2115 0.950 . S
C2135 C2131 1.385 . S
C2135 C2134 1.374 . S
C2136 C2133 1.499 . S
C2136 C2137 1.373 . S
C2136 C2138 1.389 . S
C2137 H2116 0.950 . S
C2137 C2136 1.373 . S
C2137 C2153 1.377 1_556 S
C2138 C2136 1.389 . S
C2138 C2139 1.524 . S
C2138 C2152 1.377 1_556 S
C2139 C2138 1.524 . S
C2139 C2140 1.397 1_556 S
C2139 C2144 1.363 . S
C2140 H2117 0.950 . S
C2140 C2139 1.397 1_554 S
C2140 C2141 1.334 . S
C2141 H2118 0.950 . S
C2141 C2140 1.334 . S
C2141 C2142 1.287 . S
C2142 C2141 1.287 . S
C2142 C2143 1.524 1_554 S
C2142 H2161 0.913 . S
C2143 H2119 0.950 . S
C2143 C2142 1.524 1_556 S
C2143 C2144 1.415 . S
C2144 H2120 0.950 . S
C2144 C2139 1.363 . S
C2144 C2143 1.415 . S
C2145 H2121 0.951 . S
C2145 C2146 1.366 . S
C2145 C2147 1.388 . S
C2146 C2145 1.366 . S
C2146 C2150 1.385 . S
C2147 H2122 0.951 . S
C2147 C2145 1.388 . S
C2147 C2148 1.366 . S
C2148 C2147 1.366 . S
C2148 C2149 1.414 . S
C2148 C2151 1.499 . S
C2149 H2123 0.950 . S
C2149 C2148 1.414 . S
C2149 C2150 1.374 . S
C2150 H2124 0.950 . S
C2150 C2146 1.385 . S
C2150 C2149 1.374 . S
C2151 C2148 1.499 . S
C2151 C2152 1.373 . S
C2151 C2153 1.389 . S
C2152 H2125 0.950 . S
C2152 C2138 1.377 1_554 S
C2152 C2151 1.373 . S
C2153 C2137 1.377 1_554 S
C2153 C2151 1.389 . S
C2153 C2154 1.524 . S
C2154 C2153 1.524 . S
C2154 C2155 1.397 1_554 S
C2154 C2159 1.363 . S
C2155 H2126 0.950 . S
C2155 C2154 1.397 1_556 S
C2155 C2156 1.334 . S
C2156 H2127 0.950 . S
C2156 C2155 1.334 . S
C2156 C2157 1.287 . S
C2157 C2156 1.287 . S
C2157 C2158 1.524 1_556 S
C2157 H2160 0.999 . S
C2158 H2128 0.950 . S
C2158 C2157 1.524 1_554 S
C2158 C2159 1.415 . S
C2159 H2129 0.950 . S
C2159 C2154 1.363 . S
C2159 C2158 1.415 . S
H2160 C2157 0.999 . S
H2161 C2142 0.913 . S
H2162 C2180 0.951 . S
H2163 C2182 0.951 . S
H2164 C2184 0.950 . S
H2165 C2185 0.950 . S
H2166 C2187 0.950 . S
H2167 C2190 0.950 . S
H2168 C2191 0.950 . S
H2169 C2193 0.950 . S
H2170 C2194 0.950 . S
H2171 C2195 0.951 . S
H2172 C2197 0.951 . S
H2173 C2199 0.950 . S
H2174 C2200 0.950 . S
H2175 C2202 0.950 . S
H2176 C2205 0.950 . S
H2177 C2206 0.950 . S
H2178 C2208 0.950 . S
H2179 C2209 0.950 . S
C2180 H2162 0.951 . S
C2180 C2181 1.366 . S
C2180 C2182 1.388 . S
C2181 C2180 1.366 . S
C2181 C2185 1.385 . S
C2182 H2163 0.951 . S
C2182 C2180 1.388 . S
C2182 C2183 1.366 . S
C2183 C2182 1.366 . S
C2183 C2184 1.414 . S
C2183 C2186 1.499 . S
C2184 H2164 0.950 . S
C2184 C2183 1.414 . S
C2184 C2185 1.374 . S
C2185 H2165 0.950 . S
C2185 C2181 1.385 . S
C2185 C2184 1.374 . S
C2186 C2183 1.499 . S
C2186 C2187 1.373 . S
C2186 C2188 1.389 . S
C2187 H2166 0.950 . S
C2187 C2186 1.373 . S
C2187 C2203 1.377 . S
C2188 C2186 1.389 . S
C2188 C2189 1.524 . S
C2188 C2202 1.377 . S
C2189 C2188 1.524 . S
C2189 C2190 1.397 . S
C2189 C2194 1.363 . S
C2190 H2167 0.950 . S
C2190 C2189 1.397 . S
C2190 C2191 1.334 . S
C2191 H2168 0.950 . S
C2191 C2190 1.334 . S
C2191 C2192 1.287 . S
C2192 C2191 1.287 . S
C2192 C2193 1.524 . S
C2192 H2211 0.913 . S
C2193 H2169 0.950 . S
C2193 C2192 1.524 . S
C2193 C2194 1.415 . S
C2194 H2170 0.950 . S
C2194 C2189 1.363 . S
C2194 C2193 1.415 . S
C2195 H2171 0.951 . S
C2195 C2196 1.366 . S
C2195 C2197 1.388 . S
C2196 C2195 1.366 . S
C2196 C2200 1.385 . S
C2197 H2172 0.951 . S
C2197 C2195 1.388 . S
C2197 C2198 1.366 . S
C2198 C2197 1.366 . S
C2198 C2199 1.414 . S
C2198 C2201 1.499 . S
C2199 H2173 0.950 . S
C2199 C2198 1.414 . S
C2199 C2200 1.374 . S
C2200 H2174 0.950 . S
C2200 C2196 1.385 . S
C2200 C2199 1.374 . S
C2201 C2198 1.499 . S
C2201 C2202 1.373 . S
C2201 C2203 1.389 . S
C2202 H2175 0.950 . S
C2202 C2188 1.377 . S
C2202 C2201 1.373 . S
C2203 C2187 1.377 . S
C2203 C2201 1.389 . S
C2203 C2204 1.524 . S
C2204 C2203 1.524 . S
C2204 C2205 1.397 . S
C2204 C2209 1.363 . S
C2205 H2176 0.950 . S
C2205 C2204 1.397 . S
C2205 C2206 1.334 . S
C2206 H2177 0.950 . S
C2206 C2205 1.334 . S
C2206 C2207 1.287 . S
C2207 C2206 1.287 . S
C2207 C2208 1.524 . S
C2207 H2210 0.999 . S
C2208 H2178 0.950 . S
C2208 C2207 1.524 . S
C2208 C2209 1.415 . S
C2209 H2179 0.950 . S
C2209 C2204 1.363 . S
C2209 C2208 1.415 . S
H2210 C2207 0.999 . S
H2211 C2192 0.913 . S
H2212 C2230 0.951 . S
H2213 C2232 0.951 . S
H2214 C2234 0.914 1_554 S
H2215 C2235 0.950 . S
H2216 C2237 0.950 . S
H2217 C2240 0.950 . S
H2218 C2241 0.950 . S
H2219 C2243 0.950 . S
H2220 C2244 0.950 . S
H2221 C2245 0.951 . S
H2222 C2247 0.951 . S
H2223 C2249 0.914 1_556 S
H2224 C2250 0.950 . S
H2225 C2252 0.950 . S
H2226 C2255 0.950 . S
H2227 C2256 0.950 . S
H2228 C2258 0.950 . S
H2229 C2259 0.950 . S
C2230 H2212 0.951 . S
C2230 C2231 1.366 . S
C2230 C2232 1.388 . S
C2231 C2230 1.366 . S
C2231 C2235 1.385 . S
C2232 H2213 0.951 . S
C2232 C2230 1.388 . S
C2232 C2233 1.366 . S
C2233 C2232 1.366 . S
C2233 C2234 1.414 . S
C2233 C2236 1.499 . S
C2234 H2214 0.914 1_556 S
C2234 C2233 1.414 . S
C2234 C2235 1.374 . S
C2235 H2215 0.950 . S
C2235 C2231 1.385 . S
C2235 C2234 1.374 . S
C2236 C2233 1.499 . S
C2236 C2237 1.373 1_556 S
C2236 C2238 1.389 . S
C2237 H2216 0.950 . S
C2237 C2236 1.373 1_554 S
C2237 C2253 1.377 . S
C2238 C2236 1.389 . S
C2238 C2239 1.524 . S
C2238 C2252 1.377 . S
C2239 C2238 1.524 . S
C2239 C2240 1.397 . S
C2239 C2244 1.363 . S
C2240 H2217 0.950 . S
C2240 C2239 1.397 . S
C2240 C2241 1.334 . S
C2241 H2218 0.950 . S
C2241 C2240 1.334 . S
C2241 C2242 1.287 . S
C2242 C2241 1.287 . S
C2242 C2243 1.524 . S
C2242 H2261 0.913 . S
C2243 H2219 0.950 . S
C2243 C2242 1.524 . S
C2243 C2244 1.415 . S
C2244 H2220 0.950 . S
C2244 C2239 1.363 . S
C2244 C2243 1.415 . S
C2245 H2221 0.951 . S
C2245 C2246 1.366 . S
C2245 C2247 1.388 . S
C2246 C2245 1.366 . S
C2246 C2250 1.385 . S
C2247 H2222 0.951 . S
C2247 C2245 1.388 . S
C2247 C2248 1.366 . S
C2248 C2247 1.366 . S
C2248 C2249 1.414 . S
C2248 C2251 1.499 . S
C2249 H2223 0.914 1_554 S
C2249 C2248 1.414 . S
C2249 C2250 1.374 . S
C2250 H2224 0.950 . S
C2250 C2246 1.385 . S
C2250 C2249 1.374 . S
C2251 C2248 1.499 . S
C2251 C2252 1.373 1_554 S
C2251 C2253 1.389 . S
C2252 H2225 0.950 . S
C2252 C2238 1.377 . S
C2252 C2251 1.373 1_556 S
C2253 C2237 1.377 . S
C2253 C2251 1.389 . S
C2253 C2254 1.524 . S
C2254 C2253 1.524 . S
C2254 C2255 1.397 . S
C2254 C2259 1.363 . S
C2255 H2226 0.950 . S
C2255 C2254 1.397 . S
C2255 C2256 1.334 . S
C2256 H2227 0.950 . S
C2256 C2255 1.334 . S
C2256 C2257 1.287 . S
C2257 C2256 1.287 . S
C2257 C2258 1.524 . S
C2257 H2260 0.999 . S
C2258 H2228 0.950 . S
C2258 C2257 1.524 . S
C2258 C2259 1.415 . S
C2259 H2229 0.950 . S
C2259 C2254 1.363 . S
C2259 C2258 1.415 . S
H2260 C2257 0.999 . S
H2261 C2242 0.913 . S
H2262 C2280 0.951 . S
H2263 C2282 0.951 . S
H2264 C2284 0.950 . S
H2265 C2285 0.950 . S
H2266 C2287 0.950 . S
H2267 C2290 0.950 . S
H2268 C2291 0.950 . S
H2269 C2293 0.950 . S
H2270 C2294 0.950 . S
H2271 C2295 0.951 . S
H2272 C2297 0.951 . S
H2273 C2299 0.950 . S
H2274 C2300 0.950 . S
H2275 C2302 0.950 . S
H2276 C2305 0.950 . S
H2277 C2306 0.950 . S
H2278 C2308 0.950 . S
H2279 C2309 0.950 . S
C2280 H2262 0.951 . S
C2280 C2281 1.366 . S
C2280 C2282 1.388 . S
C2281 C2280 1.366 . S
C2281 C2285 1.385 . S
C2282 H2263 0.951 . S
C2282 C2280 1.388 . S
C2282 C2283 1.366 . S
C2283 C2282 1.366 . S
C2283 C2284 1.414 . S
C2283 C2286 1.499 . S
C2284 H2264 0.950 . S
C2284 C2283 1.414 . S
C2284 C2285 1.374 . S
C2285 H2265 0.950 . S
C2285 C2281 1.385 . S
C2285 C2284 1.374 . S
C2286 C2283 1.499 . S
C2286 C2287 1.373 . S
C2286 C2288 1.389 . S
C2287 H2266 0.950 . S
C2287 C2286 1.373 . S
C2287 C2303 1.377 . S
C2288 C2286 1.389 . S
C2288 C2289 1.524 . S
C2288 C2302 1.377 . S
C2289 C2288 1.524 . S
C2289 C2290 1.397 . S
C2289 C2294 1.363 . S
C2290 H2267 0.950 . S
C2290 C2289 1.397 . S
C2290 C2291 1.334 . S
C2291 H2268 0.950 . S
C2291 C2290 1.334 . S
C2291 C2292 1.287 . S
C2292 C2291 1.287 . S
C2292 C2293 1.524 . S
C2292 H2311 0.913 . S
C2293 H2269 0.950 . S
C2293 C2292 1.524 . S
C2293 C2294 1.415 . S
C2294 H2270 0.950 . S
C2294 C2289 1.363 . S
C2294 C2293 1.415 . S
C2295 H2271 0.951 . S
C2295 C2296 1.366 . S
C2295 C2297 1.388 . S
C2296 C2295 1.366 . S
C2296 C2300 1.385 . S
C2297 H2272 0.951 . S
C2297 C2295 1.388 . S
C2297 C2298 1.366 . S
C2298 C2297 1.366 . S
C2298 C2299 1.414 . S
C2298 C2301 1.499 . S
C2299 H2273 0.950 . S
C2299 C2298 1.414 . S
C2299 C2300 1.374 . S
C2300 H2274 0.950 . S
C2300 C2296 1.385 . S
C2300 C2299 1.374 . S
C2301 C2298 1.499 . S
C2301 C2302 1.373 . S
C2301 C2303 1.389 . S
C2302 H2275 0.950 . S
C2302 C2288 1.377 . S
C2302 C2301 1.373 . S
C2303 C2287 1.377 . S
C2303 C2301 1.389 . S
C2303 C2304 1.524 . S
C2304 C2303 1.524 . S
C2304 C2305 1.397 . S
C2304 C2309 1.363 . S
C2305 H2276 0.950 . S
C2305 C2304 1.397 . S
C2305 C2306 1.334 . S
C2306 H2277 0.950 . S
C2306 C2305 1.334 . S
C2306 C2307 1.287 . S
C2307 C2306 1.287 . S
C2307 C2308 1.524 . S
C2307 H2310 0.999 . S
C2308 H2278 0.950 . S
C2308 C2307 1.524 . S
C2308 C2309 1.415 . S
C2309 H2279 0.950 . S
C2309 C2304 1.363 . S
C2309 C2308 1.415 . S
H2310 C2307 0.999 . S
H2311 C2292 0.913 . S
H2312 C2330 0.951 . S
H2313 C2332 1.002 . S
H2314 C2334 0.950 . S
H2315 C2335 0.950 . S
H2316 C2337 0.950 . S
H2317 C2340 0.950 . S
H2318 C2341 0.950 . S
H2319 C2343 0.950 . S
H2320 C2344 0.950 . S
H2321 C2345 0.951 . S
H2322 C2347 1.002 . S
H2323 C2349 0.950 . S
H2324 C2350 0.950 . S
H2325 C2352 0.950 . S
H2326 C2355 0.950 . S
H2327 C2356 0.950 . S
H2328 C2358 0.950 . S
H2329 C2359 0.950 . S
C2330 H2312 0.951 . S
C2330 C2331 1.366 . S
C2330 C2332 1.388 . S
C2331 C2330 1.366 . S
C2331 C2335 1.385 . S
C2332 H2313 1.002 . S
C2332 C2330 1.388 . S
C2332 C2333 1.366 . S
C2333 C2332 1.366 . S
C2333 C2334 1.414 . S
C2333 C2336 1.499 . S
C2334 H2314 0.950 . S
C2334 C2333 1.414 . S
C2334 C2335 1.374 . S
C2335 H2315 0.950 . S
C2335 C2331 1.385 . S
C2335 C2334 1.374 . S
C2336 C2333 1.499 . S
C2336 C2337 1.373 . S
C2336 C2338 1.367 1_556 S
C2337 H2316 0.950 . S
C2337 C2336 1.373 . S
C2337 C2353 1.398 . S
C2338 C2336 1.367 1_554 S
C2338 C2339 1.526 . S
C2338 C2352 1.398 . S
C2339 C2338 1.526 . S
C2339 C2340 1.397 1_554 S
C2339 C2344 1.363 . S
C2340 H2317 0.950 . S
C2340 C2339 1.397 1_556 S
C2340 C2341 1.334 . S
C2341 H2318 0.950 . S
C2341 C2340 1.334 . S
C2341 C2342 1.287 . S
C2342 C2341 1.287 . S
C2342 C2343 1.524 1_556 S
C2342 H2361 0.913 . S
C2343 H2319 0.950 . S
C2343 C2342 1.524 1_554 S
C2343 C2344 1.415 . S
C2344 H2320 0.950 . S
C2344 C2339 1.363 . S
C2344 C2343 1.415 . S
C2345 H2321 0.951 . S
C2345 C2346 1.366 . S
C2345 C2347 1.388 . S
C2346 C2345 1.366 . S
C2346 C2350 1.385 . S
C2347 H2322 1.002 . S
C2347 C2345 1.388 . S
C2347 C2348 1.366 . S
C2348 C2347 1.366 . S
C2348 C2349 1.414 . S
C2348 C2351 1.499 . S
C2349 H2323 0.950 . S
C2349 C2348 1.414 . S
C2349 C2350 1.374 . S
C2350 H2324 0.950 . S
C2350 C2346 1.385 . S
C2350 C2349 1.374 . S
C2351 C2348 1.499 . S
C2351 C2352 1.373 . S
C2351 C2353 1.367 1_554 S
C2352 H2325 0.950 . S
C2352 C2338 1.398 . S
C2352 C2351 1.373 . S
C2353 C2337 1.398 . S
C2353 C2351 1.367 1_556 S
C2353 C2354 1.526 . S
C2354 C2353 1.526 . S
C2354 C2355 1.397 1_556 S
C2354 C2359 1.363 . S
C2355 H2326 0.950 . S
C2355 C2354 1.397 1_554 S
C2355 C2356 1.334 . S
C2356 H2327 0.950 . S
C2356 C2355 1.334 . S
C2356 C2357 1.287 . S
C2357 C2356 1.287 . S
C2357 C2358 1.524 1_554 S
C2357 H2360 0.999 . S
C2358 H2328 0.950 . S
C2358 C2357 1.524 1_556 S
C2358 C2359 1.415 . S
C2359 H2329 0.950 . S
C2359 C2354 1.363 . S
C2359 C2358 1.415 . S
H2360 C2357 0.999 . S
H2361 C2342 0.913 . S
H2362 C2380 0.951 . S
H2363 C2382 0.951 . S
H2364 C2384 0.950 . S
H2365 C2385 0.950 . S
H2366 C2387 0.950 . S
H2367 C2390 0.950 . S
H2368 C2391 0.950 . S
H2369 C2393 0.950 . S
H2370 C2394 0.950 . S
H2371 C2395 0.951 . S
H2372 C2397 0.951 . S
H2373 C2399 0.950 . S
H2374 C2400 0.950 . S
H2375 C2402 0.950 . S
H2376 C2405 0.950 . S
H2377 C2406 0.950 . S
H2378 C2408 0.950 . S
H2379 C2409 0.950 . S
C2380 H2362 0.951 . S
C2380 C2381 1.366 . S
C2380 C2382 1.388 . S
C2381 C2380 1.366 . S
C2381 C2385 1.385 . S
C2382 H2363 0.951 . S
C2382 C2380 1.388 . S
C2382 C2383 1.366 . S
C2383 C2382 1.366 . S
C2383 C2384 1.414 . S
C2383 C2386 1.499 . S
C2384 H2364 0.950 . S
C2384 C2383 1.414 . S
C2384 C2385 1.374 . S
C2385 H2365 0.950 . S
C2385 C2381 1.385 . S
C2385 C2384 1.374 . S
C2386 C2383 1.499 . S
C2386 C2387 1.373 . S
C2386 C2388 1.389 . S
C2387 H2366 0.950 . S
C2387 C2386 1.373 . S
C2387 C2403 1.377 . S
C2388 C2386 1.389 . S
C2388 C2389 1.524 . S
C2388 C2402 1.377 . S
C2389 C2388 1.524 . S
C2389 C2390 1.397 . S
C2389 C2394 1.363 . S
C2390 H2367 0.950 . S
C2390 C2389 1.397 . S
C2390 C2391 1.334 . S
C2391 H2368 0.950 . S
C2391 C2390 1.334 . S
C2391 C2392 1.287 . S
C2392 C2391 1.287 . S
C2392 C2393 1.524 . S
C2392 H2411 0.913 . S
C2393 H2369 0.950 . S
C2393 C2392 1.524 . S
C2393 C2394 1.415 . S
C2394 H2370 0.950 . S
C2394 C2389 1.363 . S
C2394 C2393 1.415 . S
C2395 H2371 0.951 . S
C2395 C2396 1.366 . S
C2395 C2397 1.388 . S
C2396 C2395 1.366 . S
C2396 C2400 1.385 . S
C2397 H2372 0.951 . S
C2397 C2395 1.388 . S
C2397 C2398 1.366 . S
C2398 C2397 1.366 . S
C2398 C2399 1.414 . S
C2398 C2401 1.499 . S
C2399 H2373 0.950 . S
C2399 C2398 1.414 . S
C2399 C2400 1.374 . S
C2400 H2374 0.950 . S
C2400 C2396 1.385 . S
C2400 C2399 1.374 . S
C2401 C2398 1.499 . S
C2401 C2402 1.373 . S
C2401 C2403 1.389 . S
C2402 H2375 0.950 . S
C2402 C2388 1.377 . S
C2402 C2401 1.373 . S
C2403 C2387 1.377 . S
C2403 C2401 1.389 . S
C2403 C2404 1.524 . S
C2404 C2403 1.524 . S
C2404 C2405 1.397 . S
C2404 C2409 1.363 . S
C2405 H2376 0.950 . S
C2405 C2404 1.397 . S
C2405 C2406 1.334 . S
C2406 H2377 0.950 . S
C2406 C2405 1.334 . S
C2406 C2407 1.287 . S
C2407 C2406 1.287 . S
C2407 C2408 1.524 . S
C2407 H2410 0.999 . S
C2408 H2378 0.950 . S
C2408 C2407 1.524 . S
C2408 C2409 1.415 . S
C2409 H2379 0.950 . S
C2409 C2404 1.363 . S
C2409 C2408 1.415 . S
H2410 C2407 0.999 . S
H2411 C2392 0.913 . S
H2412 C2430 0.951 . S
H2413 C2432 0.951 . S
H2414 C2434 0.930 1_556 S
H2415 C2435 0.950 . S
H2416 C2437 0.950 . S
H2417 C2440 0.950 . S
H2418 C2441 0.950 . S
H2419 C2443 0.950 . S
H2420 C2444 0.950 . S
H2421 C2445 0.951 . S
H2422 C2447 0.951 . S
H2423 C2449 0.930 1_554 S
H2424 C2450 0.950 . S
H2425 C2452 0.950 . S
H2426 C2455 0.950 . S
H2427 C2456 0.950 . S
H2428 C2458 0.950 . S
H2429 C2459 0.950 . S
C2430 H2412 0.951 . S
C2430 C2431 1.366 . S
C2430 C2432 1.388 . S
C2431 C2430 1.366 . S
C2431 C2435 1.385 . S
C2432 H2413 0.951 . S
C2432 C2430 1.388 . S
C2432 C2433 1.366 . S
C2433 C2432 1.366 . S
C2433 C2434 1.414 . S
C2433 C2436 1.499 . S
C2434 H2414 0.930 1_554 S
C2434 C2433 1.414 . S
C2434 C2435 1.374 . S
C2435 H2415 0.950 . S
C2435 C2431 1.385 . S
C2435 C2434 1.374 . S
C2436 C2433 1.499 . S
C2436 C2437 1.373 1_554 S
C2436 C2438 1.389 . S
C2437 H2416 0.950 . S
C2437 C2436 1.373 1_556 S
C2437 C2453 1.377 . S
C2438 C2436 1.389 . S
C2438 C2439 1.524 . S
C2438 C2452 1.377 . S
C2439 C2438 1.524 . S
C2439 C2440 1.397 . S
C2439 C2444 1.363 . S
C2440 H2417 0.950 . S
C2440 C2439 1.397 . S
C2440 C2441 1.334 . S
C2441 H2418 0.950 . S
C2441 C2440 1.334 . S
C2441 C2442 1.287 . S
C2442 C2441 1.287 . S
C2442 C2443 1.524 . S
C2442 H2461 0.913 . S
C2443 H2419 0.950 . S
C2443 C2442 1.524 . S
C2443 C2444 1.415 . S
C2444 H2420 0.950 . S
C2444 C2439 1.363 . S
C2444 C2443 1.415 . S
C2445 H2421 0.951 . S
C2445 C2446 1.366 . S
C2445 C2447 1.388 . S
C2446 C2445 1.366 . S
C2446 C2450 1.385 . S
C2447 H2422 0.951 . S
C2447 C2445 1.388 . S
C2447 C2448 1.366 . S
C2448 C2447 1.366 . S
C2448 C2449 1.414 . S
C2448 C2451 1.499 . S
C2449 H2423 0.930 1_556 S
C2449 C2448 1.414 . S
C2449 C2450 1.374 . S
C2450 H2424 0.950 . S
C2450 C2446 1.385 . S
C2450 C2449 1.374 . S
C2451 C2448 1.499 . S
C2451 C2452 1.373 1_556 S
C2451 C2453 1.389 . S
C2452 H2425 0.950 . S
C2452 C2438 1.377 . S
C2452 C2451 1.373 1_554 S
C2453 C2437 1.377 . S
C2453 C2451 1.389 . S
C2453 C2454 1.524 . S
C2454 C2453 1.524 . S
C2454 C2455 1.397 . S
C2454 C2459 1.363 . S
C2455 H2426 0.950 . S
C2455 C2454 1.397 . S
C2455 C2456 1.334 . S
C2456 H2427 0.950 . S
C2456 C2455 1.334 . S
C2456 C2457 1.287 . S
C2457 C2456 1.287 . S
C2457 C2458 1.524 . S
C2457 H2460 0.999 . S
C2458 H2428 0.950 . S
C2458 C2457 1.524 . S
C2458 C2459 1.415 . S
C2459 H2429 0.950 . S
C2459 C2454 1.363 . S
C2459 C2458 1.415 . S
H2460 C2457 0.999 . S
H2461 C2442 0.913 . S
H2462 C2480 0.951 . S
H2463 C2482 0.951 . S
H2464 C2484 0.950 . S
H2465 C2485 0.950 . S
H2466 C2487 0.950 . S
H2467 C2490 0.950 . S
H2468 C2491 0.950 . S
H2469 C2493 0.950 . S
H2470 C2494 0.950 . S
H2471 C2495 0.951 . S
H2472 C2497 0.951 . S
H2473 C2499 0.950 . S
H2474 C2500 0.950 . S
H2475 C2502 0.950 . S
H2476 C2505 0.950 . S
H2477 C2506 0.950 . S
H2478 C2508 0.950 . S
H2479 C2509 0.950 . S
C2480 H2462 0.951 . S
C2480 C2481 1.366 . S
C2480 C2482 1.388 . S
C2481 C2480 1.366 . S
C2481 C2485 1.385 . S
C2482 H2463 0.951 . S
C2482 C2480 1.388 . S
C2482 C2483 1.366 . S
C2483 C2482 1.366 . S
C2483 C2484 1.414 . S
C2483 C2486 1.499 . S
C2484 H2464 0.950 . S
C2484 C2483 1.414 . S
C2484 C2485 1.374 . S
C2485 H2465 0.950 . S
C2485 C2481 1.385 . S
C2485 C2484 1.374 . S
C2486 C2483 1.499 . S
C2486 C2487 1.373 . S
C2486 C2488 1.389 . S
C2487 H2466 0.950 . S
C2487 C2486 1.373 . S
C2487 C2503 1.377 . S
C2488 C2486 1.389 . S
C2488 C2489 1.524 . S
C2488 C2502 1.377 . S
C2489 C2488 1.524 . S
C2489 C2490 1.397 . S
C2489 C2494 1.363 . S
C2490 H2467 0.950 . S
C2490 C2489 1.397 . S
C2490 C2491 1.334 . S
C2491 H2468 0.950 . S
C2491 C2490 1.334 . S
C2491 C2492 1.287 . S
C2492 C2491 1.287 . S
C2492 C2493 1.524 . S
C2492 H2511 0.913 . S
C2493 H2469 0.950 . S
C2493 C2492 1.524 . S
C2493 C2494 1.415 . S
C2494 H2470 0.950 . S
C2494 C2489 1.363 . S
C2494 C2493 1.415 . S
C2495 H2471 0.951 . S
C2495 C2496 1.366 . S
C2495 C2497 1.388 . S
C2496 C2495 1.366 . S
C2496 C2500 1.385 . S
C2497 H2472 0.951 . S
C2497 C2495 1.388 . S
C2497 C2498 1.366 . S
C2498 C2497 1.366 . S
C2498 C2499 1.414 . S
C2498 C2501 1.499 . S
C2499 H2473 0.950 . S
C2499 C2498 1.414 . S
C2499 C2500 1.374 . S
C2500 H2474 0.950 . S
C2500 C2496 1.385 . S
C2500 C2499 1.374 . S
C2501 C2498 1.499 . S
C2501 C2502 1.373 . S
C2501 C2503 1.389 . S
C2502 H2475 0.950 . S
C2502 C2488 1.377 . S
C2502 C2501 1.373 . S
C2503 C2487 1.377 . S
C2503 C2501 1.389 . S
C2503 C2504 1.524 . S
C2504 C2503 1.524 . S
C2504 C2505 1.397 . S
C2504 C2509 1.363 . S
C2505 H2476 0.950 . S
C2505 C2504 1.397 . S
C2505 C2506 1.334 . S
C2506 H2477 0.950 . S
C2506 C2505 1.334 . S
C2506 C2507 1.287 . S
C2507 C2506 1.287 . S
C2507 C2508 1.524 . S
C2507 H2510 0.999 . S
C2508 H2478 0.950 . S
C2508 C2507 1.524 . S
C2508 C2509 1.415 . S
C2509 H2479 0.950 . S
C2509 C2504 1.363 . S
C2509 C2508 1.415 . S
H2510 C2507 0.999 . S
H2511 C2492 0.913 . S
H2512 C2530 0.951 . S
H2513 C2532 0.951 . S
H2514 C2534 0.950 . S
H2515 C2535 0.950 . S
H2516 C2537 0.950 . S
H2517 C2540 0.950 . S
H2518 C2541 0.950 . S
H2519 C2543 0.950 . S
H2520 C2544 0.950 . S
H2521 C2545 0.951 . S
H2522 C2547 0.951 . S
H2523 C2549 0.950 . S
H2524 C2550 0.950 . S
H2525 C2552 0.950 . S
H2526 C2555 0.950 . S
H2527 C2556 0.950 . S
H2528 C2558 0.950 . S
H2529 C2559 0.950 . S
C2530 H2512 0.951 . S
C2530 C2531 1.366 . S
C2530 C2532 1.388 . S
C2531 C2530 1.366 . S
C2531 C2535 1.385 . S
C2532 H2513 0.951 . S
C2532 C2530 1.388 . S
C2532 C2533 1.366 . S
C2533 C2532 1.366 . S
C2533 C2534 1.414 . S
C2533 C2536 1.499 . S
C2534 H2514 0.950 . S
C2534 C2533 1.414 . S
C2534 C2535 1.374 . S
C2535 H2515 0.950 . S
C2535 C2531 1.385 . S
C2535 C2534 1.374 . S
C2536 C2533 1.499 . S
C2536 C2537 1.373 . S
C2536 C2538 1.389 1_554 S
C2537 H2516 0.950 . S
C2537 C2536 1.373 . S
C2537 C2553 1.377 . S
C2538 C2536 1.389 1_556 S
C2538 C2539 1.524 . S
C2538 C2552 1.377 . S
C2539 C2538 1.524 . S
C2539 C2540 1.397 . S
C2539 C2544 1.363 . S
C2540 H2517 0.950 . S
C2540 C2539 1.397 . S
C2540 C2541 1.334 . S
C2541 H2518 0.950 . S
C2541 C2540 1.334 . S
C2541 C2542 1.287 . S
C2542 C2541 1.287 . S
C2542 C2543 1.524 . S
C2542 H2561 0.913 . S
C2543 H2519 0.950 . S
C2543 C2542 1.524 . S
C2543 C2544 1.415 . S
C2544 H2520 0.950 . S
C2544 C2539 1.363 . S
C2544 C2543 1.415 . S
C2545 H2521 0.951 . S
C2545 C2546 1.366 . S
C2545 C2547 1.388 . S
C2546 C2545 1.366 . S
C2546 C2550 1.385 . S
C2547 H2522 0.951 . S
C2547 C2545 1.388 . S
C2547 C2548 1.366 . S
C2548 C2547 1.366 . S
C2548 C2549 1.414 . S
C2548 C2551 1.499 . S
C2549 H2523 0.950 . S
C2549 C2548 1.414 . S
C2549 C2550 1.374 . S
C2550 H2524 0.950 . S
C2550 C2546 1.385 . S
C2550 C2549 1.374 . S
C2551 C2548 1.499 . S
C2551 C2552 1.373 . S
C2551 C2553 1.389 1_556 S
C2552 H2525 0.950 . S
C2552 C2538 1.377 . S
C2552 C2551 1.373 . S
C2553 C2537 1.377 . S
C2553 C2551 1.389 1_554 S
C2553 C2554 1.524 . S
C2554 C2553 1.524 . S
C2554 C2555 1.397 . S
C2554 C2559 1.363 . S
C2555 H2526 0.950 . S
C2555 C2554 1.397 . S
C2555 C2556 1.334 . S
C2556 H2527 0.950 . S
C2556 C2555 1.334 . S
C2556 C2557 1.287 . S
C2557 C2556 1.287 . S
C2557 C2558 1.524 . S
C2557 H2560 0.999 . S
C2558 H2528 0.950 . S
C2558 C2557 1.524 . S
C2558 C2559 1.415 . S
C2559 H2529 0.950 . S
C2559 C2554 1.363 . S
C2559 C2558 1.415 . S
H2560 C2557 0.999 . S
H2561 C2542 0.913 . S
H2562 C2580 0.951 . S
H2563 C2582 0.951 . S
H2564 C2584 0.950 . S
H2565 C2585 0.950 . S
H2566 C2587 0.950 . S
H2567 C2590 0.950 . S
H2568 C2591 0.950 . S
H2569 C2593 0.950 . S
H2570 C2594 0.950 . S
H2571 C2595 0.951 . S
H2572 C2597 0.951 . S
H2573 C2599 0.950 . S
H2574 C2600 0.950 . S
H2575 C2602 0.950 . S
H2576 C2605 0.950 . S
H2577 C2606 0.950 . S
H2578 C2608 0.950 . S
H2579 C2609 0.950 . S
C2580 H2562 0.951 . S
C2580 C2581 1.366 . S
C2580 C2582 1.388 . S
C2581 C2580 1.366 . S
C2581 C2585 1.385 . S
C2582 H2563 0.951 . S
C2582 C2580 1.388 . S
C2582 C2583 1.366 . S
C2583 C2582 1.366 . S
C2583 C2584 1.414 . S
C2583 C2586 1.499 . S
C2584 H2564 0.950 . S
C2584 C2583 1.414 . S
C2584 C2585 1.374 . S
C2585 H2565 0.950 . S
C2585 C2581 1.385 . S
C2585 C2584 1.374 . S
C2586 C2583 1.499 . S
C2586 C2587 1.373 . S
C2586 C2588 1.389 . S
C2587 H2566 0.950 . S
C2587 C2586 1.373 . S
C2587 C2603 1.377 . S
C2588 C2586 1.389 . S
C2588 C2589 1.524 . S
C2588 C2602 1.377 . S
C2589 C2588 1.524 . S
C2589 C2590 1.397 . S
C2589 C2594 1.363 . S
C2590 H2567 0.950 . S
C2590 C2589 1.397 . S
C2590 C2591 1.334 . S
C2591 H2568 0.950 . S
C2591 C2590 1.334 . S
C2591 C2592 1.287 . S
C2592 C2591 1.287 . S
C2592 C2593 1.524 . S
C2592 H2611 0.913 . S
C2593 H2569 0.950 . S
C2593 C2592 1.524 . S
C2593 C2594 1.415 . S
C2594 H2570 0.950 . S
C2594 C2589 1.363 . S
C2594 C2593 1.415 . S
C2595 H2571 0.951 . S
C2595 C2596 1.366 . S
C2595 C2597 1.388 . S
C2596 C2595 1.366 . S
C2596 C2600 1.385 . S
C2597 H2572 0.951 . S
C2597 C2595 1.388 . S
C2597 C2598 1.366 . S
C2598 C2597 1.366 . S
C2598 C2599 1.414 . S
C2598 C2601 1.499 . S
C2599 H2573 0.950 . S
C2599 C2598 1.414 . S
C2599 C2600 1.374 . S
C2600 H2574 0.950 . S
C2600 C2596 1.385 . S
C2600 C2599 1.374 . S
C2601 C2598 1.499 . S
C2601 C2602 1.373 . S
C2601 C2603 1.389 . S
C2602 H2575 0.950 . S
C2602 C2588 1.377 . S
C2602 C2601 1.373 . S
C2603 C2587 1.377 . S
C2603 C2601 1.389 . S
C2603 C2604 1.524 . S
C2604 C2603 1.524 . S
C2604 C2605 1.397 . S
C2604 C2609 1.363 . S
C2605 H2576 0.950 . S
C2605 C2604 1.397 . S
C2605 C2606 1.334 . S
C2606 H2577 0.950 . S
C2606 C2605 1.334 . S
C2606 C2607 1.287 . S
C2607 C2606 1.287 . S
C2607 C2608 1.524 . S
C2607 H2610 0.999 . S
C2608 H2578 0.950 . S
C2608 C2607 1.524 . S
C2608 C2609 1.415 . S
C2609 H2579 0.950 . S
C2609 C2604 1.363 . S
C2609 C2608 1.415 . S
H2610 C2607 0.999 . S
H2611 C2592 0.913 . S
H2612 C2630 0.951 . S
H2613 C2632 0.951 . S
H2614 C2634 0.922 1_554 S
H2615 C2635 0.950 . S
H2616 C2637 0.950 . S
H2617 C2640 0.950 . S
H2618 C2641 0.950 . S
H2619 C2643 0.950 . S
H2620 C2644 0.950 . S
H2621 C2645 0.951 . S
H2622 C2647 0.951 . S
H2623 C2649 0.922 1_556 S
H2624 C2650 0.950 . S
H2625 C2652 0.950 . S
H2626 C2655 0.950 . S
H2627 C2656 0.950 . S
H2628 C2658 0.950 . S
H2629 C2659 0.950 . S
C2630 H2612 0.951 . S
C2630 C2631 1.366 . S
C2630 C2632 1.388 . S
C2631 C2630 1.366 . S
C2631 C2635 1.385 . S
C2632 H2613 0.951 . S
C2632 C2630 1.388 . S
C2632 C2633 1.366 . S
C2633 C2632 1.366 . S
C2633 C2634 1.414 . S
C2633 C2636 1.499 . S
C2634 H2614 0.922 1_556 S
C2634 C2633 1.414 . S
C2634 C2635 1.374 . S
C2635 H2615 0.950 . S
C2635 C2631 1.385 . S
C2635 C2634 1.374 . S
C2636 C2633 1.499 . S
C2636 C2637 1.373 1_556 S
C2636 C2638 1.389 . S
C2637 H2616 0.950 . S
C2637 C2636 1.373 1_554 S
C2637 C2653 1.377 . S
C2638 C2636 1.389 . S
C2638 C2639 1.524 . S
C2638 C2652 1.377 . S
C2639 C2638 1.524 . S
C2639 C2640 1.397 . S
C2639 C2644 1.363 . S
C2640 H2617 0.950 . S
C2640 C2639 1.397 . S
C2640 C2641 1.334 . S
C2641 H2618 0.950 . S
C2641 C2640 1.334 . S
C2641 C2642 1.287 . S
C2642 C2641 1.287 . S
C2642 C2643 1.524 . S
C2642 H2661 0.913 . S
C2643 H2619 0.950 . S
C2643 C2642 1.524 . S
C2643 C2644 1.415 . S
C2644 H2620 0.950 . S
C2644 C2639 1.363 . S
C2644 C2643 1.415 . S
C2645 H2621 0.951 . S
C2645 C2646 1.366 . S
C2645 C2647 1.388 . S
C2646 C2645 1.366 . S
C2646 C2650 1.385 . S
C2647 H2622 0.951 . S
C2647 C2645 1.388 . S
C2647 C2648 1.366 . S
C2648 C2647 1.366 . S
C2648 C2649 1.414 . S
C2648 C2651 1.499 . S
C2649 H2623 0.922 1_554 S
C2649 C2648 1.414 . S
C2649 C2650 1.374 . S
C2650 H2624 0.950 . S
C2650 C2646 1.385 . S
C2650 C2649 1.374 . S
C2651 C2648 1.499 . S
C2651 C2652 1.373 1_554 S
C2651 C2653 1.389 . S
C2652 H2625 0.950 . S
C2652 C2638 1.377 . S
C2652 C2651 1.373 1_556 S
C2653 C2637 1.377 . S
C2653 C2651 1.389 . S
C2653 C2654 1.524 . S
C2654 C2653 1.524 . S
C2654 C2655 1.397 . S
C2654 C2659 1.363 . S
C2655 H2626 0.950 . S
C2655 C2654 1.397 . S
C2655 C2656 1.334 . S
C2656 H2627 0.950 . S
C2656 C2655 1.334 . S
C2656 C2657 1.287 . S
C2657 C2656 1.287 . S
C2657 C2658 1.524 . S
C2657 H2660 0.999 . S
C2658 H2628 0.950 . S
C2658 C2657 1.524 . S
C2658 C2659 1.415 . S
C2659 H2629 0.950 . S
C2659 C2654 1.363 . S
C2659 C2658 1.415 . S
H2660 C2657 0.999 . S
H2661 C2642 0.913 . S
H2662 C2680 0.951 . S
H2663 C2682 0.951 . S
H2664 C2684 0.950 . S
H2665 C2685 0.950 . S
H2666 C2687 0.950 . S
H2667 C2690 0.950 . S
H2668 C2691 0.950 . S
H2669 C2693 0.950 . S
H2670 C2694 0.950 . S
H2671 C2695 0.951 . S
H2672 C2697 0.951 . S
H2673 C2699 0.950 . S
H2674 C2700 0.950 . S
H2675 C2702 0.950 . S
H2676 C2705 0.950 . S
H2677 C2706 0.950 . S
H2678 C2708 0.950 . S
H2679 C2709 0.950 . S
C2680 H2662 0.951 . S
C2680 C2681 1.366 . S
C2680 C2682 1.388 . S
C2681 C2680 1.366 . S
C2681 C2685 1.385 . S
C2682 H2663 0.951 . S
C2682 C2680 1.388 . S
C2682 C2683 1.366 . S
C2683 C2682 1.366 . S
C2683 C2684 1.414 . S
C2683 C2686 1.499 . S
C2684 H2664 0.950 . S
C2684 C2683 1.414 . S
C2684 C2685 1.374 . S
C2685 H2665 0.950 . S
C2685 C2681 1.385 . S
C2685 C2684 1.374 . S
C2686 C2683 1.499 . S
C2686 C2687 1.373 . S
C2686 C2688 1.389 . S
C2687 H2666 0.950 . S
C2687 C2686 1.373 . S
C2687 C2703 1.377 . S
C2688 C2686 1.389 . S
C2688 C2689 1.524 . S
C2688 C2702 1.377 . S
C2689 C2688 1.524 . S
C2689 C2690 1.397 . S
C2689 C2694 1.363 . S
C2690 H2667 0.950 . S
C2690 C2689 1.397 . S
C2690 C2691 1.334 . S
C2691 H2668 0.950 . S
C2691 C2690 1.334 . S
C2691 C2692 1.287 . S
C2692 C2691 1.287 . S
C2692 C2693 1.524 . S
C2692 H2711 0.913 . S
C2693 H2669 0.950 . S
C2693 C2692 1.524 . S
C2693 C2694 1.415 . S
C2694 H2670 0.950 . S
C2694 C2689 1.363 . S
C2694 C2693 1.415 . S
C2695 H2671 0.951 . S
C2695 C2696 1.366 . S
C2695 C2697 1.388 . S
C2696 C2695 1.366 . S
C2696 C2700 1.385 . S
C2697 H2672 0.951 . S
C2697 C2695 1.388 . S
C2697 C2698 1.366 . S
C2698 C2697 1.366 . S
C2698 C2699 1.414 . S
C2698 C2701 1.499 . S
C2699 H2673 0.950 . S
C2699 C2698 1.414 . S
C2699 C2700 1.374 . S
C2700 H2674 0.950 . S
C2700 C2696 1.385 . S
C2700 C2699 1.374 . S
C2701 C2698 1.499 . S
C2701 C2702 1.373 . S
C2701 C2703 1.389 . S
C2702 H2675 0.950 . S
C2702 C2688 1.377 . S
C2702 C2701 1.373 . S
C2703 C2687 1.377 . S
C2703 C2701 1.389 . S
C2703 C2704 1.524 . S
C2704 C2703 1.524 . S
C2704 C2705 1.397 . S
C2704 C2709 1.363 . S
C2705 H2676 0.950 . S
C2705 C2704 1.397 . S
C2705 C2706 1.334 . S
C2706 H2677 0.950 . S
C2706 C2705 1.334 . S
C2706 C2707 1.287 . S
C2707 C2706 1.287 . S
C2707 C2708 1.524 . S
C2707 H2710 0.999 . S
C2708 H2678 0.950 . S
C2708 C2707 1.524 . S
C2708 C2709 1.415 . S
C2709 H2679 0.950 . S
C2709 C2704 1.363 . S
C2709 C2708 1.415 . S
H2710 C2707 0.999 . S
H2711 C2692 0.913 . S
C331 C5 1.438 . S
C346 C200 1.438 . S
C381 C18 1.438 . S
C396 C213 1.438 . S
C431 C224 1.438 . S
C446 C31 1.438 . S
C481 C161 1.438 . S
C496 C44 1.438 . S
C531 C174 1.438 . S
C546 C57 1.438 . S
C581 C187 1.438 . S
C596 C68 1.438 . S
C631 C276 1.438 . S
C646 C83 1.438 . S
C681 C94 1.438 . S
C696 C289 1.438 . S
C731 C302 1.438 . S
C746 C107 1.438 . S
C781 C122 1.438 . S
C796 C237 1.438 . S
C831 C250 1.438 . S
C846 C133 1.438 . S
C881 C148 1.438 . S
C896 C265 1.438 . S
C931 C134 1.494 . S
C946 C10 1.494 . S
C981 C153 1.494 . S
C996 C23 1.494 . S
C1031 C36 1.494 . S
C1046 C88 1.494 . S
C1081 C49 1.494 . S
C1096 C95 1.493 . S
C1131 C108 1.494 . S
C1146 C62 1.494 . S
C1181 C69 1.493 . S
C1196 C127 1.493 . S
C1231 C290 1.494 . S
C1246 C166 1.493 . S
C1281 C179 1.494 . S
C1296 C303 1.494 . S
C1331 C192 1.493 . S
C1346 C238 1.493 . S
C1381 C251 1.494 . S
C1396 C205 1.494 . S
C1431 C218 1.493 . S
C1446 C270 1.493 . S
C1481 C225 1.494 . S
C1496 C277 1.494 . S
C1531 C3 1.562 . S
C1546 C239 1.562 . S
C1581 C252 1.562 . S
C1596 C16 1.562 . S
C1631 C29 1.562 . S
C1646 C263 1.562 . S
C1681 C42 1.562 . S
C1696 C278 1.562 . S
C1731 C291 1.562 . S
C1746 C55 1.562 . S
C1781 C70 1.562 . S
C1796 C304 1.562 . S
C1831 C81 1.562 . S
C1846 C159 1.562 . S
C1881 C96 1.562 . S
C1896 C172 1.562 . S
C1931 C185 1.562 . S
C1946 C109 1.562 . S
C1981 C198 1.562 . S
C1996 C120 1.562 . S
C2031 C135 1.562 . S
C2046 C211 1.562 . S
C2081 C226 1.562 . S
C2096 C146 1.562 . S
C2131 C82 1.486 . S
C2146 C4 1.486 . S
C2181 C17 1.487 . S
C2196 C101 1.486 . S
C2231 C114 1.486 . S
C2246 C30 1.487 . S
C2281 C121 1.486 . S
C2296 C43 1.486 . S
C2331 C140 1.487 . S
C2346 C56 1.486 . S
C2381 C75 1.487 . S
C2396 C147 1.486 . S
C2431 C244 1.486 . S
C2446 C160 1.486 . S
C2481 C173 1.486 . S
C2496 C257 1.486 . S
C2531 C264 1.487 . S
C2546 C186 1.486 . S
C2581 C283 1.486 . S
C2596 C199 1.486 . S
C2631 C212 1.487 . S
C2646 C296 1.486 . S
C2681 C231 1.486 . S
C2696 C309 1.487 . S
