# Generated by pormake.
# Topology uom, (4)-cn, num edge types: 1
# Building blocks:
#     Node 0, Type 0, BuildingBlock: NAWXER_clean_sbu_0, # of connection points: 4
#     Node 1, Type 0, BuildingBlock: NAWXER_clean_sbu_0, # of connection points: 4
#     Node 2, Type 0, BuildingBlock: NAWXER_clean_sbu_0, # of connection points: 4
#     Node 3, Type 0, BuildingBlock: NAWXER_clean_sbu_0, # of connection points: 4
#     Node 4, Type 0, BuildingBlock: NAWXER_clean_sbu_0, # of connection points: 4
#     Node 5, Type 0, BuildingBlock: NAWXER_clean_sbu_0, # of connection points: 4
#     Edge 6, Type (0, 0), BuildingBlock: KIFKEQ_clean_linker_1, # of connection points: 2
#     Edge 7, Type (0, 0), BuildingBlock: KIFKEQ_clean_linker_1, # of connection points: 2
#     Edge 8, Type (0, 0), BuildingBlock: KIFKEQ_clean_linker_1, # of connection points: 2
#     Edge 9, Type (0, 0), BuildingBlock: KIFKEQ_clean_linker_1, # of connection points: 2
#     Edge 10, Type (0, 0), BuildingBlock: KIFKEQ_clean_linker_1, # of connection points: 2
#     Edge 11, Type (0, 0), BuildingBlock: KIFKEQ_clean_linker_1, # of connection points: 2
#     Edge 12, Type (0, 0), BuildingBlock: KIFKEQ_clean_linker_1, # of connection points: 2
#     Edge 13, Type (0, 0), BuildingBlock: KIFKEQ_clean_linker_1, # of connection points: 2
#     Edge 14, Type (0, 0), BuildingBlock: KIFKEQ_clean_linker_1, # of connection points: 2
#     Edge 15, Type (0, 0), BuildingBlock: KIFKEQ_clean_linker_1, # of connection points: 2
#     Edge 16, Type (0, 0), BuildingBlock: KIFKEQ_clean_linker_1, # of connection points: 2
#     Edge 17, Type (0, 0), BuildingBlock: KIFKEQ_clean_linker_1, # of connection points: 2
# Relax obj value: 0.104
# Max RMSD: 0.115
# Mean RMSD: 0.115
data_MOF--net-uom--node1-NAWXER_clean_sbu_0--edge1-KIFKEQ_clean_linker_1
_symmetry_space_group_name_H-M    P1
_symmetry_Int_Tables_number       1
_symmetry_cell_setting            triclinic
loop_
_symmetry_equiv_pos_as_xyz
'x, y, z'
_cell_length_a     29.172086
_cell_length_b     29.35586
_cell_length_c     39.331296
_cell_angle_alpha  90.292438
_cell_angle_beta   90.142473
_cell_angle_gamma 120.37804
loop_
_atom_site_label
_atom_site_type_symbol
_atom_site_fract_x
_atom_site_fract_y
_atom_site_fract_z
_atom_type_partial_charge
C0 C 0.22549 0.94014 1.004 0.0
C1 C 0.28611 0.03749 0.11378 0.0
O2 O 0.25746 0.9899 1.00126 0.0
Zn3 Zn 0.3047 0.05757 0.03303 0.0
O4 O 0.21756 0.91892 0.03322 0.0
Zn5 Zn 0.26095 0.98467 0.05994 0.0
O6 O 0.21993 0.02544 0.04719 0.0
O7 O 0.27335 0.09845 1.01873 0.0
O8 O 0.25918 0.9875 0.10999 0.0
O9 O 0.30504 0.0665 0.08736 0.0
O10 O 0.37716 0.08148 1.02116 0.0
O11 O 0.34063 0.00594 0.04861 0.0
C12 C 0.22807 0.06696 0.03143 0.0
C13 C 0.38084 0.04375 0.03376 0.0
C14 C 0.35892 0.38111 0.36524 0.0
C15 C 0.1822 0.23128 0.38399 0.0
O16 O 0.36086 0.34246 0.37894 0.0
Zn17 Zn 0.30447 0.26185 0.39331 0.0
O18 O 0.31439 0.37466 0.35573 0.0
Zn19 Zn 0.27067 0.30365 0.37128 0.0
O20 O 0.28408 0.31339 0.42578 0.0
O21 O 0.31779 0.26458 0.44225 0.0
O22 O 0.19484 0.27429 0.36905 0.0
O23 O 0.21882 0.22204 0.39355 0.0
O24 O 0.31932 0.21684 0.36391 0.0
O25 O 0.28419 0.25599 0.33536 0.0
C26 C 0.30168 0.29646 0.44959 0.0
C27 C 0.30259 0.22447 0.33588 0.0
C28 C 0.18695 0.34228 0.67994 0.0
C29 C 0.08643 0.31074 0.78717 0.0
O30 O 0.13676 0.3225 0.67655 0.0
Zn31 Zn 0.06722 0.29629 0.70638 0.0
O32 O 0.20762 0.35298 0.70963 0.0
Zn33 Zn 0.14087 0.32999 0.73482 0.0
O34 O 0.10276 0.24822 0.72476 0.0
O35 O 0.02918 0.22249 0.69484 0.0
O36 O 0.13664 0.33153 0.78478 0.0
O37 O 0.05807 0.29693 0.76003 0.0
O38 O 0.0409 0.33973 0.69032 0.0
O39 O 0.11726 0.38423 0.71821 0.0
C40 C 0.06174 0.21199 0.7093 0.0
C41 C 0.07896 0.38325 0.70146 0.0
C42 C 0.724 0.03995 0.02821 0.0
C43 C 0.87721 0.02195 1.00874 0.0
O44 O 0.76549 0.07705 0.04298 0.0
Zn45 Zn 0.84617 0.09685 0.0506 0.0
O46 O 0.72662 0.00308 1.0131 0.0
Zn47 Zn 0.80021 0.02748 1.02094 0.0
O48 O 0.80621 0.01194 0.07366 0.0
O49 O 0.8532 0.08891 0.09929 0.0
O50 O 0.82999 0.98929 0.99916 0.0
O51 O 0.88718 0.06114 0.0281 0.0
O52 O 0.88742 0.1658 0.02936 0.0
O53 O 0.84209 0.10073 0.99276 0.0
C54 C 0.82772 0.0388 0.10083 0.0
C55 C 0.8751 0.1498 0.99872 0.0
C56 C 0.8253 0.92514 0.4107 0.0
C57 C 0.682 0.74575 0.38601 0.0
O58 O 0.77645 0.90658 0.41757 0.0
Zn59 Zn 0.75334 0.83637 0.39971 0.0
O60 O 0.84102 0.89596 0.39671 0.0
Zn61 Zn 0.80832 0.81666 0.37814 0.0
O62 O 0.82632 0.83025 0.3298 0.0
O63 O 0.77045 0.85533 0.34672 0.0
O64 O 0.72769 0.75382 0.377 0.0
O65 O 0.6785 0.78298 0.39999 0.0
O66 O 0.78884 0.80808 0.4358 0.0
O67 O 0.84284 0.78961 0.40782 0.0
C68 C 0.79899 0.85194 0.32321 0.0
C69 C 0.8222 0.79178 0.43583 0.0
C70 C 0.07133 0.71878 0.69819 0.0
C71 C 0.07906 0.88591 0.69611 0.0
O72 O 0.02945 0.71627 0.7105 0.0
Zn73 Zn 0.00038 0.76827 0.72112 0.0
O74 O 0.11032 0.76293 0.68922 0.0
Zn75 Zn 0.07895 0.80439 0.70009 0.0
O76 O 0.0783 0.80457 0.75448 0.0
O77 O 0.99527 0.76919 0.77112 0.0
O78 O 0.11731 0.87847 0.68915 0.0
O79 O 0.03586 0.84882 0.70857 0.0
O80 O 0.93835 0.74093 0.69046 0.0
O81 O 0.01488 0.77596 0.66351 0.0
C82 C 0.04442 0.79068 0.77856 0.0
C83 C 0.96409 0.75379 0.66259 0.0
H84 H 0.33676 0.14309 0.12795 0.0
H85 H 0.25062 0.99118 0.17672 0.0
H86 H 0.34272 0.18684 0.18174 0.0
H87 H 0.25662 0.03554 0.23103 0.0
H88 H 0.32247 0.14252 0.32854 0.0
H89 H 0.32053 0.09603 0.27608 0.0
H90 H 0.28054 0.19636 0.21887 0.0
H91 H 0.28254 0.24261 0.27091 0.0
C92 C 0.31929 0.11884 0.15019 0.0
C93 C 0.29294 0.06336 0.14776 0.0
C94 C 0.32247 0.14411 0.18111 0.0
C95 C 0.29969 0.11485 0.21077 0.0
C96 C 0.27481 0.05938 0.20874 0.0
C97 C 0.27124 0.03391 0.17757 0.0
C98 C 0.31347 0.15477 0.30474 0.0
C99 C 0.30286 0.19656 0.30406 0.0
C100 C 0.312 0.12785 0.27468 0.0
C101 C 0.30057 0.14248 0.24313 0.0
C102 C 0.29018 0.18437 0.24256 0.0
C103 C 0.2911 0.21083 0.27253 0.0
H104 H 0.29576 0.38151 0.47099 0.0
H105 H 0.30375 0.24798 0.50901 0.0
H106 H 0.28108 0.40257 0.52829 0.0
H107 H 0.28737 0.26828 0.56672 0.0
H108 H 0.27596 0.33294 0.67146 0.0
H109 H 0.31529 0.32895 0.61697 0.0
H110 H 0.20434 0.36003 0.56373 0.0
H111 H 0.16627 0.36456 0.61736 0.0
C112 C 0.29477 0.35679 0.49166 0.0
C113 C 0.30014 0.31255 0.4853 0.0
C114 C 0.28619 0.36882 0.52459 0.0
C115 C 0.28203 0.33662 0.55216 0.0
C116 C 0.29057 0.29412 0.54616 0.0
C117 C 0.29971 0.2823 0.51306 0.0
C118 C 0.26118 0.3403 0.64808 0.0
C119 C 0.21814 0.34921 0.64869 0.0
C120 C 0.2832 0.33738 0.61687 0.0
C121 C 0.26304 0.34414 0.58586 0.0
C122 C 0.2216 0.3554 0.58693 0.0
C123 C 0.19949 0.35777 0.6178 0.0
H124 H 0.97099 0.24324 0.9991 0.0
H125 H 0.84581 0.13337 0.93207 0.0
H126 H 0.02459 0.29081 0.94962 0.0
H127 H 0.89906 0.17994 0.88311 0.0
H128 H 0.98593 0.28972 0.79916 0.0
H129 H 0.9357 0.26052 0.85155 0.0
H130 H 0.07317 0.27524 0.90354 0.0
H131 H 0.1243 0.3059 0.85075 0.0
C132 C 0.95441 0.22993 0.97388 0.0
C133 C 0.90394 0.18459 0.96959 0.0
C134 C 0.98541 0.25678 0.94552 0.0
C135 C 0.96634 0.23922 0.91229 0.0
C136 C 0.91496 0.19518 0.9082 0.0
C137 C 0.88432 0.16827 0.93639 0.0
C138 C 0.00584 0.28735 0.82179 0.0
C139 C 0.05908 0.29957 0.82058 0.0
C140 C 0.97684 0.27035 0.85189 0.0
C141 C -3e-05 0.26461 0.88174 0.0
C142 C 0.0541 0.27942 0.88109 0.0
C143 C 0.08341 0.29684 0.85081 0.0
H144 H 0.85161 0.08036 0.16552 0.0
H145 H 0.79577 0.93446 0.10967 0.0
H146 H 0.84534 0.0344 0.21855 0.0
H147 H 0.78987 0.88874 0.16266 0.0
H148 H 0.84201 0.84186 0.26312 0.0
H149 H 0.84972 0.88681 0.20915 0.0
H150 H 0.77246 0.96467 0.25413 0.0
H151 H 0.76443 0.91995 0.30758 0.0
C152 C 0.83804 0.03855 0.16451 0.0
C153 C 0.82394 0.01115 0.13328 0.0
C154 C 0.83429 0.01215 0.19493 0.0
C155 C 0.81709 0.95784 0.19486 0.0
C156 C 0.80368 0.93062 0.1636 0.0
C157 C 0.8067 0.95683 0.13324 0.0
C158 C 0.82646 0.86836 0.2614 0.0
C159 C 0.80242 0.87702 0.28973 0.0
C160 C 0.83076 0.89402 0.23047 0.0
C161 C 0.81195 0.92959 0.22738 0.0
C162 C 0.78792 0.93807 0.25571 0.0
C163 C 0.78294 0.91197 0.28633 0.0
H164 H 0.00982 0.77409 0.60002 0.0
H165 H 0.85916 0.72282 0.64885 0.0
H166 H 0.97206 0.77723 0.54584 0.0
H167 H 0.82039 0.72427 0.59383 0.0
H168 H 0.7936 0.80323 0.50013 0.0
H169 H 0.82322 0.78662 0.55407 0.0
H170 H 0.91445 0.73066 0.50029 0.0
H171 H 0.88609 0.74906 0.44619 0.0
C172 C 0.96819 0.76252 0.59916 0.0
C173 C 0.93768 0.74842 0.62906 0.0
C174 C 0.94632 0.76398 0.5678 0.0
C175 C 0.89302 0.75116 0.56513 0.0
C176 C 0.86181 0.7352 0.59485 0.0
C177 C 0.88387 0.73385 0.62642 0.0
C178 C 0.81974 0.78706 0.49972 0.0
C179 C 0.83772 0.77789 0.46865 0.0
C180 C 0.83646 0.77709 0.53082 0.0
C181 C 0.87151 0.75738 0.53185 0.0
C182 C 0.88823 0.74672 0.50069 0.0
C183 C 0.87174 0.75701 0.46955 0.0
H184 H 0.18359 0.97566 0.95711 0.0
H185 H 0.19458 0.83856 0.98222 0.0
H186 H 0.13348 0.93158 0.90565 0.0
H187 H 0.14555 0.79477 0.92945 0.0
H188 H 0.13342 0.79551 0.80483 0.0
H189 H 0.17136 0.82367 0.86195 0.0
H190 H 0.0394 0.84294 0.89016 0.0
H191 H 0.00033 0.81303 0.83322 0.0
C192 C 0.1753 0.93597 0.95158 0.0
C193 C 0.19335 0.91068 0.97365 0.0
C194 C 0.14623 0.91063 0.92219 0.0
C195 C 0.13544 0.8597 0.91353 0.0
C196 C 0.15324 0.83404 0.93558 0.0
C197 C 0.18118 0.85898 0.96572 0.0
C198 C 0.11193 0.8048 0.8234 0.0
C199 C 0.06382 0.80206 0.81444 0.0
C200 C 0.13359 0.82065 0.85617 0.0
C201 C 0.10837 0.83545 0.88055 0.0
C202 C 0.05964 0.83162 0.8719 0.0
C203 C 0.03721 0.81437 0.83935 0.0
H204 H 0.20326 0.09792 0.97229 0.0
H205 H 0.14698 0.04253 0.07372 0.0
H206 H 0.11397 0.07915 0.95589 0.0
H207 H 0.05871 0.02407 0.05758 0.0
H208 H 0.89864 0.94322 1.01905 0.0
H209 H 0.98821 0.95556 1.01788 0.0
H210 H 0.04783 0.10882 0.97225 0.0
H211 H 0.9585 0.09608 0.97319 0.0
C212 C 0.17226 0.08347 0.99127 0.0
C213 C 0.18154 0.07166 1.02422 0.0
C214 C 0.12123 0.07188 0.98177 0.0
C215 C 0.07936 0.04827 1.00516 0.0
C216 C 0.08992 0.04031 0.03872 0.0
C217 C 0.14054 0.05186 0.04815 0.0
C218 C 0.93049 0.97813 1.00721 0.0
C219 C 0.92252 0.01888 0.99641 0.0
C220 C 0.98164 0.98555 1.00687 0.0
C221 C 0.02477 0.03374 0.99576 0.0
C222 C 0.01527 0.07149 0.98099 0.0
C223 C 0.96431 0.06418 0.98151 0.0
H224 H 0.89185 0.97044 0.46423 0.0
H225 H 0.85028 0.00276 0.36573 0.0
H226 H 0.97641 0.05391 0.46255 0.0
H227 H 0.93526 0.08526 0.36318 0.0
H228 H 0.14378 0.1371 0.4161 0.0
H229 H 0.05219 0.07253 0.42854 0.0
H230 H 0.00105 0.17319 0.3829 0.0
H231 H 0.09349 0.23795 0.36969 0.0
C232 C 0.90001 0.99668 0.44293 0.0
C233 C 0.86466 0.98106 0.41537 0.0
C234 C 0.94866 0.04398 0.44163 0.0
C235 C 0.96307 0.07573 0.4124 0.0
C236 C 0.92539 0.06207 0.38616 0.0
C237 C 0.87659 0.01496 0.38763 0.0
C238 C 0.11317 0.14574 0.40877 0.0
C239 C 0.126 0.19256 0.39164 0.0
C240 C 0.06053 0.10892 0.41634 0.0
C241 C 0.01919 0.1179 0.40709 0.0
C242 C 0.03196 0.16504 0.3903 0.0
C243 C 0.08488 0.20206 0.38269 0.0
H244 H 0.01435 0.14082 0.65743 0.0
H245 H 0.10252 0.16915 0.75128 0.0
H246 H 0.02436 0.0642 0.64583 0.0
H247 H 0.11206 0.09305 0.73991 0.0
H248 H 0.16432 0.98627 0.70074 0.0
H249 H 0.1603 0.06771 0.69826 0.0
H250 H 0.99354 0.97642 0.67175 0.0
H251 H 0.99782 0.89602 0.67375 0.0
C252 C 0.03479 0.12996 0.67583 0.0
C253 C 0.05772 0.16061 0.70518 0.0
C254 C 0.04113 0.08677 0.66901 0.0
C255 C 0.07034 0.07397 0.69153 0.0
C256 C 0.09103 0.10331 0.72157 0.0
C257 C 0.08478 0.14623 0.72833 0.0
C258 C 0.12743 0.98416 0.69351 0.0
C259 C 0.08113 0.9354 0.68827 0.0
C260 C 0.12495 0.03036 0.69225 0.0
C261 C 0.07631 0.02786 0.68543 0.0
C262 C 0.03142 0.97938 0.67707 0.0
C263 C 0.03381 0.93345 0.67858 0.0
H264 H 0.62649 0.96281 1.00556 0.0
H265 H 0.70784 0.11864 0.05121 0.0
H266 H 0.54359 0.96419 1.0057 0.0
H267 H 0.62476 0.1197 0.0515 0.0
H268 H 0.47756 0.1226 1.01176 0.0
H269 H 0.5608 0.12173 1.00959 0.0
H270 H 0.48099 0.96318 0.04928 0.0
H271 H 0.39784 0.96373 0.05129 0.0
C272 C 0.6267 0.99732 1.01564 0.0
C273 C 0.6737 0.04058 0.02844 0.0
C274 C 0.57919 0.99799 1.01584 0.0
C275 C 0.57782 0.04206 0.0286 0.0
C276 C 0.62484 0.08545 0.04118 0.0
C277 C 0.67228 0.08464 0.04123 0.0
C278 C 0.47776 0.08751 1.01992 0.0
C279 C 0.43114 0.04326 0.03173 0.0
C280 C 0.52544 0.08715 1.01884 0.0
C281 C 0.52728 0.0424 0.02928 0.0
C282 C 0.48059 0.99801 0.04075 0.0
C283 C 0.43306 0.99849 0.04208 0.0
H284 H 0.67812 0.65803 0.35904 0.0
H285 H 0.57789 0.71371 0.40028 0.0
H286 H 0.60074 0.57057 0.35086 0.0
H287 H 0.50031 0.62562 0.39242 0.0
H288 H 0.36685 0.47379 0.3446 0.0
H289 H 0.44478 0.56229 0.34754 0.0
H290 H 0.53811 0.49727 0.38638 0.0
H291 H 0.4605 0.40879 0.3831 0.0
C292 C 0.63956 0.65169 0.36636 0.0
C293 C 0.63428 0.69296 0.38043 0.0
C294 C 0.59521 0.60138 0.36179 0.0
C295 C 0.54438 0.59104 0.37106 0.0
C296 C 0.53888 0.63245 0.38468 0.0
C297 C 0.58337 0.68285 0.38938 0.0
C298 C 0.40414 0.47826 0.35338 0.0
C299 C 0.40737 0.43412 0.36364 0.0
C300 C 0.44868 0.52907 0.35534 0.0
C301 C 0.49756 0.53689 0.3674 0.0
C302 C 0.50117 0.4926 0.37669 0.0
C303 C 0.4566 0.44183 0.37489 0.0
H304 H 0.99233 0.61888 0.71158 0.0
H305 H 0.15411 0.70833 0.67543 0.0
H306 H 0.9954 0.53805 0.70692 0.0
H307 H 0.15669 0.62669 0.67029 0.0
H308 H 0.15736 0.48234 0.71854 0.0
H309 H 0.15632 0.56409 0.71261 0.0
H310 H 0.0017 0.47876 0.66455 0.0
H311 H 0.00215 0.39633 0.67096 0.0
C312 C 0.02845 0.62126 0.70239 0.0
C313 C 0.07319 0.66999 0.69416 0.0
C314 C 0.02994 0.57485 0.69939 0.0
C315 C 0.07619 0.57626 0.68814 0.0
C316 C 0.12067 0.62477 0.67924 0.0
C317 C 0.11916 0.67134 0.68217 0.0
C318 C 0.12324 0.48095 0.70649 0.0
C319 C 0.0795 0.43288 0.69559 0.0
C320 C 0.12295 0.52788 0.7028 0.0
C321 C 0.07891 0.52756 0.68819 0.0
C322 C 0.03591 0.47981 0.67621 0.0
C323 C 0.03622 0.43277 0.67984 0.0
loop_
_geom_bond_atom_site_label_1
_geom_bond_atom_site_label_2
_geom_bond_distance
_geom_bond_site_symmetry_2
_ccdc_geom_bond_type
C0 O2 1.247 . S
C0 O4 1.258 . S
C1 O8 1.247 . S
C1 O9 1.258 . S
O2 C0 1.247 . S
O2 Zn3 2.028 1_556 S
Zn3 O2 2.028 1_554 S
Zn3 O7 2.035 . S
Zn3 O9 2.035 . S
Zn3 O10 2.028 . S
O4 C0 1.258 . S
O4 Zn5 2.035 1_556 S
Zn5 O4 2.035 1_554 S
Zn5 O6 2.028 . S
Zn5 O8 2.028 . S
Zn5 O11 2.035 . S
O6 Zn5 2.028 . S
O6 C12 1.247 . S
O7 Zn3 2.035 . S
O7 C12 1.258 . S
O8 C1 1.247 . S
O8 Zn5 2.028 . S
O9 C1 1.258 . S
O9 Zn3 2.035 . S
O10 Zn3 2.028 . S
O10 C13 1.247 . S
O11 Zn5 2.035 . S
O11 C13 1.258 . S
C12 O6 1.247 . S
C12 O7 1.258 . S
C13 O10 1.247 . S
C13 O11 1.258 . S
C14 O16 1.247 . S
C14 O18 1.258 . S
C15 O22 1.247 . S
C15 O23 1.258 . S
O16 C14 1.247 . S
O16 Zn17 2.028 . S
Zn17 O16 2.028 . S
Zn17 O21 2.035 . S
Zn17 O23 2.035 . S
Zn17 O24 2.028 . S
O18 C14 1.258 . S
O18 Zn19 2.035 . S
Zn19 O18 2.035 . S
Zn19 O20 2.028 . S
Zn19 O22 2.028 . S
Zn19 O25 2.035 . S
O20 Zn19 2.028 . S
O20 C26 1.247 . S
O21 Zn17 2.035 . S
O21 C26 1.258 . S
O22 C15 1.247 . S
O22 Zn19 2.028 . S
O23 C15 1.258 . S
O23 Zn17 2.035 . S
O24 Zn17 2.028 . S
O24 C27 1.247 . S
O25 Zn19 2.035 . S
O25 C27 1.258 . S
C26 O20 1.247 . S
C26 O21 1.258 . S
C27 O24 1.247 . S
C27 O25 1.258 . S
C28 O30 1.247 1_455 S
C28 O32 1.258 . S
C29 O36 1.247 1_655 S
C29 O37 1.258 . S
O30 C28 1.247 1_655 S
O30 Zn31 2.028 . S
Zn31 O30 2.028 . S
Zn31 O35 2.035 . S
Zn31 O37 2.035 . S
Zn31 O38 2.028 . S
O32 C28 1.258 . S
O32 Zn33 2.035 . S
Zn33 O32 2.035 . S
Zn33 O34 2.028 . S
Zn33 O36 2.028 . S
Zn33 O39 2.035 . S
O34 Zn33 2.028 . S
O34 C40 1.247 . S
O35 Zn31 2.035 . S
O35 C40 1.258 1_655 S
O36 C29 1.247 1_455 S
O36 Zn33 2.028 . S
O37 C29 1.258 . S
O37 Zn31 2.035 . S
O38 Zn31 2.028 . S
O38 C41 1.247 1_655 S
O39 Zn33 2.035 . S
O39 C41 1.258 . S
C40 O34 1.247 . S
C40 O35 1.258 1_455 S
C41 O38 1.247 1_455 S
C41 O39 1.258 . S
C42 O44 1.247 . S
C42 O46 1.258 1_545 S
C43 O50 1.247 1_545 S
C43 O51 1.258 . S
O44 C42 1.247 . S
O44 Zn45 2.028 . S
Zn45 O44 2.028 . S
Zn45 O49 2.035 . S
Zn45 O51 2.035 . S
Zn45 O52 2.028 1_554 S
O46 C42 1.258 1_565 S
O46 Zn47 2.035 . S
Zn47 O46 2.035 . S
Zn47 O48 2.028 . S
Zn47 O50 2.028 . S
Zn47 O53 2.035 1_554 S
O48 Zn47 2.028 . S
O48 C54 1.247 . S
O49 Zn45 2.035 . S
O49 C54 1.258 1_545 S
O50 C43 1.247 1_565 S
O50 Zn47 2.028 . S
O51 C43 1.258 . S
O51 Zn45 2.035 . S
O52 Zn45 2.028 1_556 S
O52 C55 1.247 . S
O53 Zn47 2.035 1_556 S
O53 C55 1.258 1_565 S
C54 O48 1.247 . S
C54 O49 1.258 1_565 S
C55 O52 1.247 . S
C55 O53 1.258 1_545 S
C56 O58 1.247 . S
C56 O60 1.258 . S
C57 O64 1.247 . S
C57 O65 1.258 . S
O58 C56 1.247 . S
O58 Zn59 2.028 . S
Zn59 O58 2.028 . S
Zn59 O63 2.035 . S
Zn59 O65 2.035 . S
Zn59 O66 2.028 . S
O60 C56 1.258 . S
O60 Zn61 2.035 . S
Zn61 O60 2.035 . S
Zn61 O62 2.028 . S
Zn61 O64 2.028 . S
Zn61 O67 2.035 . S
O62 Zn61 2.028 . S
O62 C68 1.247 . S
O63 Zn59 2.035 . S
O63 C68 1.258 . S
O64 C57 1.247 . S
O64 Zn61 2.028 . S
O65 C57 1.258 . S
O65 Zn59 2.035 . S
O66 Zn59 2.028 . S
O66 C69 1.247 . S
O67 Zn61 2.035 . S
O67 C69 1.258 . S
C68 O62 1.247 . S
C68 O63 1.258 . S
C69 O66 1.247 . S
C69 O67 1.258 . S
C70 O72 1.247 . S
C70 O74 1.258 . S
C71 O78 1.247 . S
C71 O79 1.258 . S
O72 C70 1.247 . S
O72 Zn73 2.028 . S
Zn73 O72 2.028 . S
Zn73 O77 2.035 . S
Zn73 O79 2.035 . S
Zn73 O80 2.028 . S
O74 C70 1.258 . S
O74 Zn75 2.035 . S
Zn75 O74 2.035 . S
Zn75 O76 2.028 . S
Zn75 O78 2.028 . S
Zn75 O81 2.035 . S
O76 Zn75 2.028 . S
O76 C82 1.247 . S
O77 Zn73 2.035 . S
O77 C82 1.258 . S
O78 C71 1.247 . S
O78 Zn75 2.028 . S
O79 C71 1.258 . S
O79 Zn73 2.035 . S
O80 Zn73 2.028 . S
O80 C83 1.247 . S
O81 Zn75 2.035 . S
O81 C83 1.258 . S
C82 O76 1.247 . S
C82 O77 1.258 . S
C83 O80 1.247 . S
C83 O81 1.258 . S
H84 C92 0.950 . S
H85 C97 0.950 . S
H86 C94 0.950 . S
H87 C96 0.950 . S
H88 C98 0.950 . S
H89 C100 0.950 . S
H90 C102 0.950 . S
H91 C103 0.950 . S
C92 H84 0.950 . S
C92 C93 1.386 . S
C92 C94 1.391 . S
C93 C92 1.386 . S
C93 C97 1.393 . S
C94 H86 0.950 . S
C94 C92 1.391 . S
C94 C95 1.400 . S
C95 C94 1.400 . S
C95 C96 1.398 . S
C95 C101 1.491 . S
C96 H87 0.950 . S
C96 C95 1.398 . S
C96 C97 1.391 . S
C97 H85 0.950 . S
C97 C93 1.393 . S
C97 C96 1.391 . S
C98 H88 0.950 . S
C98 C99 1.386 . S
C98 C100 1.391 . S
C99 C98 1.386 . S
C99 C103 1.393 . S
C100 H89 0.950 . S
C100 C98 1.391 . S
C100 C101 1.400 . S
C101 C95 1.491 . S
C101 C100 1.400 . S
C101 C102 1.398 . S
C102 H90 0.950 . S
C102 C101 1.398 . S
C102 C103 1.391 . S
C103 H91 0.950 . S
C103 C99 1.393 . S
C103 C102 1.391 . S
H104 C112 0.950 . S
H105 C117 0.950 . S
H106 C114 0.950 . S
H107 C116 0.950 . S
H108 C118 0.950 . S
H109 C120 0.950 . S
H110 C122 0.950 . S
H111 C123 0.950 . S
C112 H104 0.950 . S
C112 C113 1.386 . S
C112 C114 1.391 . S
C113 C112 1.386 . S
C113 C117 1.393 . S
C114 H106 0.950 . S
C114 C112 1.391 . S
C114 C115 1.400 . S
C115 C114 1.400 . S
C115 C116 1.398 . S
C115 C121 1.491 . S
C116 H107 0.950 . S
C116 C115 1.398 . S
C116 C117 1.391 . S
C117 H105 0.950 . S
C117 C113 1.393 . S
C117 C116 1.391 . S
C118 H108 0.950 . S
C118 C119 1.386 . S
C118 C120 1.391 . S
C119 C118 1.386 . S
C119 C123 1.393 . S
C120 H109 0.950 . S
C120 C118 1.391 . S
C120 C121 1.400 . S
C121 C115 1.491 . S
C121 C120 1.400 . S
C121 C122 1.398 . S
C122 H110 0.950 . S
C122 C121 1.398 . S
C122 C123 1.391 . S
C123 H111 0.950 . S
C123 C119 1.393 . S
C123 C122 1.391 . S
H124 C132 0.950 . S
H125 C137 0.950 . S
H126 C134 0.950 . S
H127 C136 0.950 . S
H128 C138 0.950 . S
H129 C140 0.950 . S
H130 C142 0.950 . S
H131 C143 0.950 . S
C132 H124 0.950 . S
C132 C133 1.386 . S
C132 C134 1.391 . S
C133 C132 1.386 . S
C133 C137 1.393 . S
C134 H126 0.950 . S
C134 C132 1.391 . S
C134 C135 1.400 . S
C135 C134 1.400 . S
C135 C136 1.398 . S
C135 C141 1.491 . S
C136 H127 0.950 . S
C136 C135 1.398 . S
C136 C137 1.391 . S
C137 H125 0.950 . S
C137 C133 1.393 . S
C137 C136 1.391 . S
C138 H128 0.950 . S
C138 C139 1.386 . S
C138 C140 1.391 . S
C139 C138 1.386 . S
C139 C143 1.393 . S
C140 H129 0.950 . S
C140 C138 1.391 . S
C140 C141 1.400 . S
C141 C135 1.491 . S
C141 C140 1.400 . S
C141 C142 1.398 . S
C142 H130 0.950 . S
C142 C141 1.398 . S
C142 C143 1.391 . S
C143 H131 0.950 . S
C143 C139 1.393 . S
C143 C142 1.391 . S
H144 C152 0.950 1_545 S
H145 C157 0.950 . S
H146 C154 0.950 . S
H147 C156 0.950 . S
H148 C158 0.950 . S
H149 C160 0.950 . S
H150 C162 0.950 . S
H151 C163 0.950 . S
C152 H144 0.950 1_565 S
C152 C153 1.386 . S
C152 C154 1.391 . S
C153 C152 1.386 . S
C153 C157 1.393 . S
C154 H146 0.950 . S
C154 C152 1.391 . S
C154 C155 1.400 . S
C155 C154 1.400 . S
C155 C156 1.398 . S
C155 C161 1.491 . S
C156 H147 0.950 . S
C156 C155 1.398 . S
C156 C157 1.391 . S
C157 H145 0.950 . S
C157 C153 1.393 . S
C157 C156 1.391 . S
C158 H148 0.950 . S
C158 C159 1.386 . S
C158 C160 1.391 . S
C159 C158 1.386 . S
C159 C163 1.393 . S
C160 H149 0.950 . S
C160 C158 1.391 . S
C160 C161 1.400 . S
C161 C155 1.491 . S
C161 C160 1.400 . S
C161 C162 1.398 . S
C162 H150 0.950 . S
C162 C161 1.398 . S
C162 C163 1.391 . S
C163 H151 0.950 . S
C163 C159 1.393 . S
C163 C162 1.391 . S
H164 C172 0.950 . S
H165 C177 0.950 . S
H166 C174 0.950 . S
H167 C176 0.950 . S
H168 C178 0.950 . S
H169 C180 0.950 . S
H170 C182 0.950 . S
H171 C183 0.950 . S
C172 H164 0.950 . S
C172 C173 1.386 . S
C172 C174 1.391 . S
C173 C172 1.386 . S
C173 C177 1.393 1_455 S
C174 H166 0.950 . S
C174 C172 1.391 . S
C174 C175 1.400 1_455 S
C175 C174 1.400 1_655 S
C175 C176 1.398 . S
C175 C181 1.491 . S
C176 H167 0.950 . S
C176 C175 1.398 . S
C176 C177 1.391 . S
C177 H165 0.950 . S
C177 C173 1.393 1_655 S
C177 C176 1.391 . S
C178 H168 0.950 . S
C178 C179 1.386 . S
C178 C180 1.391 . S
C179 C178 1.386 . S
C179 C183 1.393 . S
C180 H169 0.950 . S
C180 C178 1.391 . S
C180 C181 1.400 . S
C181 C175 1.491 . S
C181 C180 1.400 . S
C181 C182 1.398 . S
C182 H170 0.950 . S
C182 C181 1.398 . S
C182 C183 1.391 . S
C183 H171 0.950 . S
C183 C179 1.393 . S
C183 C182 1.391 . S
H184 C192 0.950 . S
H185 C197 0.959 . S
H186 C194 0.950 . S
H187 C196 0.950 . S
H188 C198 0.950 . S
H189 C200 0.950 . S
H190 C202 0.950 . S
H191 C203 0.950 . S
C192 H184 0.950 . S
C192 C193 1.386 . S
C192 C194 1.391 . S
C193 C192 1.386 . S
C193 C197 1.379 1_545 S
C194 H186 0.950 . S
C194 C192 1.391 . S
C194 C195 1.400 1_545 S
C195 C194 1.400 1_565 S
C195 C196 1.398 . S
C195 C201 1.491 . S
C196 H187 0.950 . S
C196 C195 1.398 . S
C196 C197 1.396 . S
C197 H185 0.959 . S
C197 C193 1.379 1_565 S
C197 C196 1.396 . S
C198 H188 0.950 . S
C198 C199 1.386 . S
C198 C200 1.391 . S
C199 C198 1.386 . S
C199 C203 1.393 . S
C200 H189 0.950 . S
C200 C198 1.391 . S
C200 C201 1.400 . S
C201 C195 1.491 . S
C201 C200 1.400 . S
C201 C202 1.398 . S
C202 H190 0.950 . S
C202 C201 1.398 . S
C202 C203 1.391 . S
C203 H191 0.950 . S
C203 C199 1.393 . S
C203 C202 1.391 . S
H204 C212 0.950 1_556 S
H205 C217 0.950 . S
H206 C214 0.950 1_556 S
H207 C216 0.950 1_565 S
H208 C218 0.950 . S
H209 C220 0.950 1_455 S
H210 C222 0.950 1_556 S
H211 C223 0.950 1_556 S
C212 H204 0.950 1_554 S
C212 C213 1.386 . S
C212 C214 1.391 . S
C213 C212 1.386 . S
C213 C217 1.393 . S
C214 H206 0.950 1_554 S
C214 C212 1.391 . S
C214 C215 1.400 . S
C215 C214 1.400 . S
C215 C216 1.398 . S
C215 C221 1.491 . S
C216 H207 0.950 1_545 S
C216 C215 1.398 . S
C216 C217 1.391 . S
C217 H205 0.950 . S
C217 C213 1.393 . S
C217 C216 1.391 . S
C218 H208 0.950 . S
C218 C219 1.386 1_565 S
C218 C220 1.391 . S
C219 C218 1.386 1_545 S
C219 C223 1.393 . S
C220 H209 0.950 1_655 S
C220 C218 1.391 . S
C220 C221 1.400 1_665 S
C221 C215 1.491 . S
C221 C220 1.400 1_445 S
C221 C222 1.398 . S
C222 H210 0.950 1_554 S
C222 C221 1.398 . S
C222 C223 1.391 1_455 S
C223 H211 0.950 1_554 S
C223 C219 1.393 . S
C223 C222 1.391 1_655 S
H224 C232 0.950 . S
H225 C237 0.950 . S
H226 C234 0.950 1_545 S
H227 C236 0.950 1_545 S
H228 C238 0.950 . S
H229 C240 0.950 . S
H230 C242 0.950 . S
H231 C243 0.950 . S
C232 H224 0.950 . S
C232 C233 1.386 . S
C232 C234 1.391 . S
C233 C232 1.386 . S
C233 C237 1.393 . S
C234 H226 0.950 1_565 S
C234 C232 1.391 . S
C234 C235 1.400 1_665 S
C235 C234 1.400 1_445 S
C235 C236 1.398 1_545 S
C235 C241 1.491 . S
C236 H227 0.950 1_565 S
C236 C235 1.398 1_565 S
C236 C237 1.391 1_455 S
C237 H225 0.950 . S
C237 C233 1.393 . S
C237 C236 1.391 1_655 S
C238 H228 0.950 . S
C238 C239 1.386 . S
C238 C240 1.391 . S
C239 C238 1.386 . S
C239 C243 1.393 . S
C240 H229 0.950 . S
C240 C238 1.391 . S
C240 C241 1.400 . S
C241 C235 1.491 . S
C241 C240 1.400 . S
C241 C242 1.398 . S
C242 H230 0.950 . S
C242 C241 1.398 . S
C242 C243 1.391 . S
C243 H231 0.950 . S
C243 C239 1.393 . S
C243 C242 1.391 . S
H244 C252 0.950 . S
H245 C257 0.950 . S
H246 C254 0.951 1_655 S
H247 C256 0.950 . S
H248 C258 0.950 . S
H249 C260 0.950 . S
H250 C262 0.950 . S
H251 C263 0.950 . S
C252 H244 0.950 . S
C252 C253 1.386 1_655 S
C252 C254 1.391 1_655 S
C253 C252 1.386 1_455 S
C253 C257 1.393 . S
C254 H246 0.951 1_455 S
C254 C252 1.391 1_455 S
C254 C255 1.400 . S
C255 C254 1.400 . S
C255 C256 1.398 . S
C255 C261 1.491 . S
C256 H247 0.950 . S
C256 C255 1.398 . S
C256 C257 1.391 . S
C257 H245 0.950 . S
C257 C253 1.393 . S
C257 C256 1.391 . S
C258 H248 0.950 . S
C258 C259 1.386 . S
C258 C260 1.391 1_565 S
C259 C258 1.386 . S
C259 C263 1.393 . S
C260 H249 0.950 . S
C260 C258 1.391 1_545 S
C260 C261 1.400 . S
C261 C255 1.491 . S
C261 C260 1.400 . S
C261 C262 1.398 1_545 S
C262 H250 0.950 . S
C262 C261 1.398 1_565 S
C262 C263 1.391 . S
C263 H251 0.950 . S
C263 C259 1.393 . S
C263 C262 1.391 . S
H264 C272 0.950 . S
H265 C277 0.950 . S
H266 C274 0.950 . S
H267 C276 0.950 . S
H268 C278 0.950 . S
H269 C280 0.950 . S
H270 C282 0.950 1_565 S
H271 C283 0.950 . S
C272 H264 0.950 . S
C272 C273 1.386 1_565 S
C272 C274 1.391 . S
C273 C272 1.386 1_545 S
C273 C277 1.393 . S
C274 H266 0.950 . S
C274 C272 1.391 . S
C274 C275 1.400 1_565 S
C275 C274 1.400 1_545 S
C275 C276 1.398 . S
C275 C281 1.491 . S
C276 H267 0.950 . S
C276 C275 1.398 . S
C276 C277 1.391 . S
C277 H265 0.950 . S
C277 C273 1.393 . S
C277 C276 1.391 . S
C278 H268 0.950 . S
C278 C279 1.386 . S
C278 C280 1.391 . S
C279 C278 1.386 . S
C279 C283 1.393 . S
C280 H269 0.950 . S
C280 C278 1.391 . S
C280 C281 1.400 . S
C281 C275 1.491 . S
C281 C280 1.400 . S
C281 C282 1.398 . S
C282 H270 0.950 1_545 S
C282 C281 1.398 . S
C282 C283 1.391 . S
C283 H271 0.950 . S
C283 C279 1.393 . S
C283 C282 1.391 . S
H284 C292 0.950 . S
H285 C297 0.950 . S
H286 C294 0.950 . S
H287 C296 0.950 . S
H288 C298 0.950 . S
H289 C300 0.950 . S
H290 C302 0.950 . S
H291 C303 0.950 . S
C292 H284 0.950 . S
C292 C293 1.386 . S
C292 C294 1.391 . S
C293 C292 1.386 . S
C293 C297 1.393 . S
C294 H286 0.950 . S
C294 C292 1.391 . S
C294 C295 1.400 . S
C295 C294 1.400 . S
C295 C296 1.398 . S
C295 C301 1.491 . S
C296 H287 0.950 . S
C296 C295 1.398 . S
C296 C297 1.391 . S
C297 H285 0.950 . S
C297 C293 1.393 . S
C297 C296 1.391 . S
C298 H288 0.950 . S
C298 C299 1.386 . S
C298 C300 1.391 . S
C299 C298 1.386 . S
C299 C303 1.393 . S
C300 H289 0.950 . S
C300 C298 1.391 . S
C300 C301 1.400 . S
C301 C295 1.491 . S
C301 C300 1.400 . S
C301 C302 1.398 . S
C302 H290 0.950 . S
C302 C301 1.398 . S
C302 C303 1.391 . S
C303 H291 0.950 . S
C303 C299 1.393 . S
C303 C302 1.391 . S
H304 C312 0.950 . S
H305 C317 0.950 . S
H306 C314 0.950 1_655 S
H307 C316 0.950 . S
H308 C318 0.950 . S
H309 C320 0.950 . S
H310 C322 0.950 . S
H311 C323 0.950 . S
C312 H304 0.950 . S
C312 C313 1.386 . S
C312 C314 1.391 . S
C313 C312 1.386 . S
C313 C317 1.393 . S
C314 H306 0.950 1_455 S
C314 C312 1.391 . S
C314 C315 1.400 . S
C315 C314 1.400 . S
C315 C316 1.398 . S
C315 C321 1.491 . S
C316 H307 0.950 . S
C316 C315 1.398 . S
C316 C317 1.391 . S
C317 H305 0.950 . S
C317 C313 1.393 . S
C317 C316 1.391 . S
C318 H308 0.950 . S
C318 C319 1.386 . S
C318 C320 1.391 . S
C319 C318 1.386 . S
C319 C323 1.393 1_455 S
C320 H309 0.950 . S
C320 C318 1.391 . S
C320 C321 1.400 . S
C321 C315 1.491 . S
C321 C320 1.400 . S
C321 C322 1.398 1_455 S
C322 H310 0.950 . S
C322 C321 1.398 1_655 S
C322 C323 1.391 . S
C323 H311 0.950 . S
C323 C319 1.393 1_655 S
C323 C322 1.391 . S
C93 C1 1.735 . S
C99 C27 1.711 . S
C113 C26 1.737 . S
C119 C28 1.715 . S
C133 C55 1.699 . S
C139 C29 1.740 . S
C153 C54 1.741 . S
C159 C68 1.703 . S
C173 C83 1.708 . S
C179 C69 1.735 . S
C193 C0 1.712 . S
C199 C82 1.740 . S
C213 C12 1.101 . S
C219 C43 1.108 . S
C233 C56 1.124 . S
C239 C15 1.121 . S
C253 C40 1.099 . S
C259 C71 1.104 . S
C273 C42 1.554 . S
C279 C13 1.561 . S
C293 C57 1.555 . S
C299 C14 1.558 . S
C313 C70 1.564 . S
C319 C41 1.561 . S
