# Generated by pormake.
# Topology smk, (6)-cn, num edge types: 1
# Building blocks:
#     Node 0, Type 0, BuildingBlock: FUNLAD_clean_sbu_0, # of connection points: 6
#     Node 1, Type 0, BuildingBlock: FUNLAD_clean_sbu_0, # of connection points: 6
#     Node 2, Type 0, BuildingBlock: FUNLAD_clean_sbu_0, # of connection points: 6
#     Node 3, Type 0, BuildingBlock: FUNLAD_clean_sbu_0, # of connection points: 6
#     Node 4, Type 0, BuildingBlock: FUNLAD_clean_sbu_0, # of connection points: 6
#     Node 5, Type 0, BuildingBlock: FUNLAD_clean_sbu_0, # of connection points: 6
#     Edge 6, Type (0, 0), BuildingBlock: UVAHIK_clean_linker_0, # of connection points: 2
#     Edge 7, Type (0, 0), BuildingBlock: UVAHIK_clean_linker_0, # of connection points: 2
#     Edge 8, Type (0, 0), BuildingBlock: UVAHIK_clean_linker_0, # of connection points: 2
#     Edge 9, Type (0, 0), BuildingBlock: UVAHIK_clean_linker_0, # of connection points: 2
#     Edge 10, Type (0, 0), BuildingBlock: UVAHIK_clean_linker_0, # of connection points: 2
#     Edge 11, Type (0, 0), BuildingBlock: UVAHIK_clean_linker_0, # of connection points: 2
#     Edge 12, Type (0, 0), BuildingBlock: UVAHIK_clean_linker_0, # of connection points: 2
#     Edge 13, Type (0, 0), BuildingBlock: UVAHIK_clean_linker_0, # of connection points: 2
#     Edge 14, Type (0, 0), BuildingBlock: UVAHIK_clean_linker_0, # of connection points: 2
#     Edge 15, Type (0, 0), BuildingBlock: UVAHIK_clean_linker_0, # of connection points: 2
#     Edge 16, Type (0, 0), BuildingBlock: UVAHIK_clean_linker_0, # of connection points: 2
#     Edge 17, Type (0, 0), BuildingBlock: UVAHIK_clean_linker_0, # of connection points: 2
#     Edge 18, Type (0, 0), BuildingBlock: UVAHIK_clean_linker_0, # of connection points: 2
#     Edge 19, Type (0, 0), BuildingBlock: UVAHIK_clean_linker_0, # of connection points: 2
#     Edge 20, Type (0, 0), BuildingBlock: UVAHIK_clean_linker_0, # of connection points: 2
#     Edge 21, Type (0, 0), BuildingBlock: UVAHIK_clean_linker_0, # of connection points: 2
#     Edge 22, Type (0, 0), BuildingBlock: UVAHIK_clean_linker_0, # of connection points: 2
#     Edge 23, Type (0, 0), BuildingBlock: UVAHIK_clean_linker_0, # of connection points: 2
# Relax obj value: 0.390
# Max RMSD: 0.246
# Mean RMSD: 0.246
data_MOF--net-smk--node1-FUNLAD_clean_sbu_0--edge1-UVAHIK_clean_linker_0
_symmetry_space_group_name_H-M    P1
_symmetry_Int_Tables_number       1
_symmetry_cell_setting            triclinic
loop_
_symmetry_equiv_pos_as_xyz
'x, y, z'
_cell_length_a     59.851675
_cell_length_b     59.848544
_cell_length_c     18.907207
_cell_angle_alpha  89.939281
_cell_angle_beta   89.899276
_cell_angle_gamma 119.88966
loop_
_atom_site_label
_atom_site_type_symbol
_atom_site_fract_x
_atom_site_fract_y
_atom_site_fract_z
_atom_type_partial_charge
C0 C 0.49203 0.28141 0.39266 0.0
N1 N 0.53469 0.34879 0.50562 0.0
C2 C 0.5544 0.34878 0.46946 0.0
C3 C 0.57506 0.3717 0.4446 0.0
C4 C 0.57588 0.3951 0.45784 0.0
C5 C 0.55609 0.39495 0.49826 0.0
C6 C 0.53535 0.37134 0.52127 0.0
Zn7 Zn 0.50313 0.31274 0.52384 0.0
C8 C 0.45331 0.31045 0.48815 0.0
N9 N 0.43881 0.23533 0.5429 0.0
C10 C 0.44374 0.21609 0.52575 0.0
C11 C 0.41448 0.22991 0.56005 0.0
C12 C 0.39399 0.20437 0.55906 0.0
C13 C 0.39879 0.18432 0.54175 0.0
C14 C 0.42408 0.19045 0.52576 0.0
Zn15 Zn 0.46938 0.27255 0.53283 0.0
O16 O 0.50661 0.30321 0.42019 0.0
C17 C 0.51947 0.27609 0.57596 0.0
O18 O 0.47373 0.26404 0.42856 0.0
H19 H 0.4108 0.24538 0.57297 0.0
H20 H 0.55372 0.33081 0.45737 0.0
H21 H 0.46288 0.22059 0.50991 0.0
O22 O 0.52793 0.29952 0.55942 0.0
O23 O 0.49556 0.26011 0.56902 0.0
H24 H 0.51945 0.37098 0.54959 0.0
O25 O 0.46541 0.28181 0.63616 0.0
O26 O 0.49875 0.32125 0.62787 0.0
O27 O 0.44427 0.28648 0.49993 0.0
O28 O 0.47756 0.32563 0.49132 0.0
C29 C 0.48019 0.30376 0.66351 0.0
H30 H 0.59012 0.37111 0.41419 0.0
H31 H 0.55616 0.41274 0.50941 0.0
H32 H 0.37466 0.20033 0.5715 0.0
H33 H 0.42847 0.17558 0.51085 0.0
C34 C 0.30257 0.46413 0.83029 0.0
N35 N 0.35443 0.52393 0.70327 0.0
C36 C 0.35792 0.53783 0.76332 0.0
C37 C 0.38064 0.56082 0.77468 0.0
C38 C 0.40036 0.56996 0.72408 0.0
C39 C 0.39694 0.55499 0.66347 0.0
C40 C 0.3735 0.53187 0.65377 0.0
Zn41 Zn 0.31799 0.4921 0.69531 0.0
C42 C 0.31722 0.4439 0.65055 0.0
N43 N 0.23997 0.42834 0.69556 0.0
C44 C 0.2271 0.4285 0.75483 0.0
C45 C 0.22771 0.41038 0.64407 0.0
C46 C 0.20133 0.39206 0.65099 0.0
C47 C 0.18765 0.39255 0.71108 0.0
C48 C 0.20112 0.41079 0.76376 0.0
Zn49 Zn 0.27768 0.45843 0.69244 0.0
O50 O 0.32112 0.48309 0.79953 0.0
C51 C 0.27897 0.50774 0.72993 0.0
O52 O 0.28163 0.45069 0.79758 0.0
H53 H 0.23818 0.41057 0.59716 0.0
H54 H 0.34277 0.53139 0.80245 0.0
H55 H 0.23685 0.44284 0.79532 0.0
O56 O 0.30297 0.51597 0.72587 0.0
O57 O 0.26348 0.48385 0.72118 0.0
H58 H 0.3704 0.5206 0.60635 0.0
O59 O 0.27477 0.46675 0.58775 0.0
O60 O 0.31417 0.50023 0.59087 0.0
O61 O 0.29297 0.43414 0.6602 0.0
O62 O 0.33221 0.46788 0.66174 0.0
C63 C 0.29331 0.48619 0.55767 0.0
H64 H 0.38266 0.57155 0.82267 0.0
H65 H 0.41181 0.56146 0.62329 0.0
H66 H 0.19162 0.37825 0.60911 0.0
H67 H 0.19157 0.4116 0.81162 0.0
C68 C 0.81373 0.24351 0.78097 0.0
N69 N 0.75696 0.23312 0.92131 0.0
C70 C 0.75637 0.25207 0.88289 0.0
C71 C 0.73335 0.25176 0.87087 0.0
C72 C 0.7102 0.23161 0.89769 0.0
C73 C 0.71102 0.21201 0.93686 0.0
C74 C 0.73484 0.21322 0.94849 0.0
Zn75 Zn 0.79309 0.23651 0.92505 0.0
C76 C 0.79196 0.18639 0.90954 0.0
N77 N 0.87018 0.24824 0.91523 0.0
C78 C 0.88663 0.26975 0.87799 0.0
C79 C 0.87836 0.23252 0.943 0.0
C80 C 0.90412 0.23854 0.93421 0.0
C81 C 0.92146 0.26105 0.89739 0.0
C82 C 0.9123 0.27656 0.86884 0.0
Zn83 Zn 0.83301 0.24197 0.92169 0.0
O84 O 0.79426 0.23979 0.81643 0.0
C85 C 0.83339 0.29163 0.94667 0.0
O86 O 0.83384 0.24687 0.81226 0.0
H87 H 0.86497 0.21538 0.97187 0.0
H88 H 0.77377 0.2673 0.85929 0.0
H89 H 0.87985 0.28176 0.85469 0.0
O90 O 0.80938 0.27659 0.93935 0.0
O91 O 0.84847 0.28254 0.9406 0.0
H92 H 0.73556 0.19808 -0.0221 0.0
O93 O 0.83083 0.23563 0.02975 0.0
O94 O 0.79215 0.23191 0.0336 0.0
O95 O 0.8164 0.20103 0.90767 0.0
O96 O 0.77758 0.19641 0.91437 0.0
C97 C 0.81077 0.2313 0.06414 0.0
H98 H 0.73363 0.26688 0.83864 0.0
H99 H 0.69353 0.196 0.95807 0.0
H100 H 0.91051 0.22606 0.95691 0.0
H101 H 0.9249 0.29381 0.83899 0.0
C102 C 0.61943 0.84873 0.16771 0.0
N103 N 0.57861 0.87142 0.04002 0.0
C104 C 0.55771 0.8507 0.069 0.0
C105 C 0.53514 0.85121 0.08225 0.0
C106 C 0.53366 0.8733 0.06602 0.0
C107 C 0.55542 0.89457 0.03598 0.0
C108 C 0.57785 0.89317 0.02307 0.0
Zn109 Zn 0.61096 0.86752 0.03264 0.0
C110 C 0.65952 0.91563 0.06822 0.0
N111 N 0.67574 0.85462 0.03056 0.0
C112 C 0.6698 0.83106 0.05647 0.0
C113 C 0.7005 0.87228 0.01309 0.0
C114 C 0.72032 0.86635 0.02172 0.0
C115 C 0.71441 0.84196 0.0477 0.0
C116 C 0.68875 0.8243 0.06497 0.0
Zn117 Zn 0.64508 0.86147 0.02901 0.0
O118 O 0.60485 0.85531 0.13695 0.0
C119 C 0.59619 0.81426 -0.01477 0.0
O120 O 0.63834 0.84983 0.13456 0.0
H121 H 0.70497 0.89106 -0.00645 0.0
H122 H 0.55864 0.83376 0.08402 0.0
H123 H 0.65032 0.81747 0.07245 0.0
O124 O 0.58748 0.82931 -0.00217 0.0
O125 O 0.62005 0.82239 -0.0056 0.0
H126 H 0.59472 0.90958 0.00082 0.0
O127 O 0.65131 0.87356 0.92443 0.0
O128 O 0.618 0.87992 0.92838 0.0
O129 O 0.66923 0.90107 0.05938 0.0
O130 O 0.63519 0.90597 0.06433 0.0
C131 C 0.63694 0.8809 0.89495 0.0
H132 H 0.51921 0.83461 0.10728 0.0
H133 H 0.55512 0.91204 0.02282 0.0
H134 H 0.73994 0.88055 0.00796 0.0
H135 H 0.68339 0.80552 0.08668 0.0
C136 C 0.88912 0.63642 0.12926 0.0
N137 N 0.88117 0.57693 0.2569 0.0
C138 C 0.87017 0.56249 0.19809 0.0
C139 C 0.87032 0.53965 0.18682 0.0
C140 C 0.88208 0.53136 0.23601 0.0
C141 C 0.89418 0.54687 0.29529 0.0
C142 C 0.89334 0.56974 0.30509 0.0
Zn143 Zn 0.87656 0.60881 0.26453 0.0
C144 C 0.92418 0.65702 0.30802 0.0
N145 N 0.86273 0.67301 0.26344 0.0
C146 C 0.85003 0.67295 0.20372 0.0
C147 C 0.86819 0.69097 0.31486 0.0
C148 C 0.86028 0.70943 0.3073 0.0
C149 C 0.84652 0.70912 0.24657 0.0
C150 C 0.84198 0.69085 0.19404 0.0
Zn151 Zn 0.87022 0.64275 0.2672 0.0
O152 O 0.88838 0.61729 0.16002 0.0
C153 C 0.82202 0.5935 0.23095 0.0
O154 O 0.88196 0.6502 0.16201 0.0
H155 H 0.87818 0.69069 0.36218 0.0
H156 H 0.86082 0.56845 0.15971 0.0
H157 H 0.84554 0.65857 0.16338 0.0
O158 O 0.83759 0.585 0.23526 0.0
O159 O 0.83063 0.61748 0.2389 0.0
H160 H 0.90204 0.58149 0.3514 0.0
O161 O 0.85901 0.63472 0.37198 0.0
O162 O 0.8649 0.60113 0.36928 0.0
O163 O 0.90976 0.66692 0.29893 0.0
O164 O 0.91508 0.63301 0.2969 0.0
C165 C 0.85812 0.61531 0.40233 0.0
H166 H 0.86111 0.52842 0.13995 0.0
H167 H 0.90348 0.54102 0.33434 0.0
H168 H 0.8642 0.72322 0.34916 0.0
H169 H 0.83202 0.69017 0.14561 0.0
C170 C 0.26187 0.82056 0.55625 0.0
N171 N 0.23858 0.75334 0.44338 0.0
C172 C 0.25905 0.75413 0.47701 0.0
C173 C 0.25842 0.7316 0.49846 0.0
C174 C 0.23662 0.70754 0.48487 0.0
C175 C 0.21576 0.7071 0.44907 0.0
C176 C 0.21714 0.73038 0.42877 0.0
Zn177 Zn 0.2421 0.78905 0.42534 0.0
C178 C 0.19424 0.79065 0.4606 0.0
N179 N 0.25422 0.86618 0.40564 0.0
C180 C 0.27819 0.88553 0.42321 0.0
C181 C 0.23524 0.87143 0.38782 0.0
C182 C 0.24007 0.89693 0.3883 0.0
C183 C 0.26476 0.91709 0.40579 0.0
C184 C 0.28395 0.91112 0.42268 0.0
Zn185 Zn 0.24814 0.82912 0.41584 0.0
O186 O 0.255 0.79878 0.52894 0.0
C187 C 0.29505 0.82628 0.37328 0.0
O188 O 0.26066 0.83775 0.52017 0.0
H189 H 0.21623 0.85586 0.37466 0.0
H190 H 0.27584 0.77243 0.48932 0.0
H191 H 0.29287 0.88118 0.4397 0.0
O192 O 0.28019 0.80281 0.38935 0.0
O193 O 0.28694 0.84215 0.38032 0.0
H194 H 0.20095 0.73009 0.40252 0.0
O195 O 0.2353 0.81972 0.31227 0.0
O196 O 0.22933 0.78031 0.32148 0.0
O197 O 0.20893 0.81462 0.44825 0.0
O198 O 0.20357 0.77563 0.45809 0.0
C199 C 0.22832 0.79773 0.2853 0.0
H200 H 0.27473 0.7332 0.52749 0.0
H201 H 0.19857 0.68904 0.43705 0.0
H202 H 0.22474 0.90087 0.37528 0.0
H203 H 0.30308 0.92609 0.43778 0.0
C204 C 0.51619 0.29629 0.28011 0.0
C205 C 0.49423 0.27804 0.31693 0.0
C206 C 0.51563 0.29784 0.20693 0.0
C207 C 0.47816 0.26743 0.04659 0.0
H208 H 0.49816 0.33795 -0.00365 0.0
C209 C 0.45545 0.28936 0.77533 0.0
C210 C 0.4777 0.30731 0.73899 0.0
C211 C 0.45561 0.28798 0.84862 0.0
C212 C 0.49254 0.31823 0.00981 0.0
H213 H 0.45579 0.24502 0.30665 0.0
H214 H 0.4547 0.24795 0.17844 0.0
H215 H 0.50551 0.32802 0.11624 0.0
H216 H 0.51629 0.34005 0.75007 0.0
H217 H 0.51667 0.33741 0.87845 0.0
H218 H 0.46522 0.25764 0.94014 0.0
C219 C 0.47227 0.26106 0.20601 0.0
C220 C 0.49699 0.31257 0.07788 0.0
C221 C 0.47287 0.25941 0.27932 0.0
C222 C 0.49898 0.32587 0.77701 0.0
C223 C 0.49918 0.3244 0.85043 0.0
C224 C 0.47371 0.27309 -0.02146 0.0
C225 C 0.4931 0.28122 0.16996 0.0
C226 C 0.48991 0.28715 0.09663 0.0
C227 C 0.47804 0.30449 0.88615 0.0
C228 C 0.48085 0.29852 0.95973 0.0
H229 H 0.53312 0.31053 0.30807 0.0
H230 H 0.53216 0.3131 0.17972 0.0
H231 H 0.47261 0.24772 0.05997 0.0
H232 H 0.43857 0.2752 0.74703 0.0
H233 H 0.43886 0.2729 0.87555 0.0
C234 C 0.26946 0.47376 0.44439 0.0
C235 C 0.29177 0.49048 0.4822 0.0
C236 C 0.27019 0.47323 0.37107 0.0
C237 C 0.31746 0.48093 0.24315 0.0
H238 H 0.26385 0.46681 0.10649 0.0
C239 C 0.32653 0.47676 0.94333 0.0
C240 C 0.30416 0.45999 0.90581 0.0
C241 C 0.32586 0.47753 0.01663 0.0
C242 C 0.27871 0.47026 0.14466 0.0
H243 H 0.33108 0.52233 0.47377 0.0
H244 H 0.33223 0.52135 0.34515 0.0
H245 H 0.26034 0.48029 0.2257 0.0
H246 H 0.26479 0.42831 0.91474 0.0
H247 H 0.26374 0.42968 0.04335 0.0
H248 H 0.33581 0.47086 0.16214 0.0
C249 C 0.31448 0.50831 0.3724 0.0
C250 C 0.27686 0.4783 0.21218 0.0
C251 C 0.31377 0.50886 0.44577 0.0
C252 C 0.28214 0.4418 0.94255 0.0
C253 C 0.28149 0.44258 0.01589 0.0
C254 C 0.31931 0.47289 0.17563 0.0
C255 C 0.2932 0.48946 0.33513 0.0
C256 C 0.29623 0.4837 0.26176 0.0
C257 C 0.30284 0.46149 0.05283 0.0
C258 C 0.29991 0.46745 0.12609 0.0
H259 H 0.25208 0.45971 0.47133 0.0
H260 H 0.2535 0.45858 0.3432 0.0
H261 H 0.33231 0.48436 0.28134 0.0
H262 H 0.34391 0.49068 0.91614 0.0
H263 H 0.3426 0.49221 0.04425 0.0
C264 C 0.79118 0.22617 0.1823 0.0
C265 C 0.80789 0.22287 0.13743 0.0
C266 C 0.78774 0.21733 0.25148 0.0
C267 C 0.77731 0.1922 0.39151 0.0
H268 H 0.84217 0.21421 0.48727 0.0
C269 C 0.78721 0.21455 0.68635 0.0
C270 C 0.81033 0.23632 0.70679 0.0
C271 C 0.78499 0.20391 0.61988 0.0
C272 C 0.82391 0.20805 0.46128 0.0
H273 H 0.83298 0.20654 0.12692 0.0
H274 H 0.82656 0.19056 0.24817 0.0
H275 H 0.84027 0.21023 0.35978 0.0
H276 H 0.84908 0.26441 0.67503 0.0
H277 H 0.84444 0.24754 0.55534 0.0
H278 H 0.7617 0.19328 0.49141 0.0
C279 C 0.81664 0.20052 0.23052 0.0
C280 C 0.82266 0.20519 0.38824 0.0
C281 C 0.82046 0.20983 0.16156 0.0
C282 C 0.831 0.24782 0.65947 0.0
C283 C 0.82847 0.23771 0.59181 0.0
C284 C 0.77875 0.19585 0.46417 0.0
C285 C 0.80056 0.20456 0.27646 0.0
C286 C 0.79974 0.19894 0.35246 0.0
C287 C 0.80554 0.21538 0.57171 0.0
C288 C 0.80248 0.20536 0.49906 0.0
H289 H 0.78121 0.23607 0.16439 0.0
H290 H 0.7758 0.22147 0.28598 0.0
H291 H 0.75916 0.1864 0.36527 0.0
H292 H 0.77128 0.20486 0.72316 0.0
H293 H 0.76728 0.18648 0.60684 0.0
C294 C 0.59712 0.84514 0.28104 0.0
C295 C 0.61675 0.84384 0.24384 0.0
C296 C 0.59862 0.84797 0.35401 0.0
C297 C 0.64955 0.87881 0.48153 0.0
H298 H 0.59387 0.85257 0.61845 0.0
C299 C 0.66 0.88672 0.78138 0.0
C300 C 0.64056 0.88786 0.82 0.0
C301 C 0.65951 0.88686 0.70797 0.0
C302 C 0.60945 0.86043 0.58017 0.0
H303 H 0.65117 0.8406 0.25365 0.0
H304 H 0.65356 0.84524 0.38181 0.0
H305 H 0.58554 0.83468 0.49949 0.0
H306 H 0.60776 0.894 0.8134 0.0
H307 H 0.60693 0.89411 0.68467 0.0
H308 H 0.67354 0.90427 0.56281 0.0
C309 C 0.63754 0.84488 0.35419 0.0
C310 C 0.60475 0.84997 0.51269 0.0
C311 C 0.63607 0.84209 0.28112 0.0
C312 C 0.62261 0.89245 0.7847 0.0
C313 C 0.62212 0.89256 0.71126 0.0
C314 C 0.65427 0.88922 0.54915 0.0
C315 C 0.61966 0.84935 0.39036 0.0
C316 C 0.6248 0.85897 0.46311 0.0
C317 C 0.6396 0.88817 0.67278 0.0
C318 C 0.63427 0.88002 0.59889 0.0
H319 H 0.58173 0.84607 0.25352 0.0
H320 H 0.58452 0.85125 0.38095 0.0
H321 H 0.66516 0.88652 0.44337 0.0
H322 H 0.6744 0.88372 0.80748 0.0
H323 H 0.67324 0.88352 0.67917 0.0
C324 C 0.84722 0.62829 0.51576 0.0
C325 C 0.85231 0.61117 0.47785 0.0
C326 C 0.84848 0.6288 0.58906 0.0
C327 C 0.88729 0.61986 0.71643 0.0
H328 H 0.84879 0.63537 0.85363 0.0
C329 C 0.90007 0.62336 0.0161 0.0
C330 C 0.89498 0.64052 0.05379 0.0
C331 C 0.89881 0.62276 0.94279 0.0
C332 C 0.85993 0.63154 0.8153 0.0
H333 H 0.8588 0.57863 0.48607 0.0
H334 H 0.86094 0.57958 0.61467 0.0
H335 H 0.83167 0.62219 0.73457 0.0
H336 H 0.88844 0.67302 0.04524 0.0
H337 H 0.88631 0.67194 0.91662 0.0
H338 H 0.91554 0.62921 0.79716 0.0
C339 C 0.85664 0.59294 0.5875 0.0
C340 C 0.84996 0.62367 0.74787 0.0
C341 C 0.85539 0.59242 0.51416 0.0
C342 C 0.89188 0.65922 0.01728 0.0
C343 C 0.89062 0.65861 0.94394 0.0
C344 C 0.89725 0.62773 0.78386 0.0
C345 C 0.85474 0.61215 0.62486 0.0
C346 C 0.86357 0.61776 0.69812 0.0
C347 C 0.89253 0.63937 0.9068 0.0
C348 C 0.88365 0.63366 0.83359 0.0
H349 H 0.84429 0.64263 0.48892 0.0
H350 H 0.84685 0.64372 0.61702 0.0
H351 H 0.89843 0.61603 0.67808 0.0
H352 H 0.90298 0.60904 0.04313 0.0
H353 H 0.90043 0.60781 0.915 0.0
C354 C 0.22459 0.77474 0.1729 0.0
C355 C 0.22256 0.794 0.20969 0.0
C356 C 0.22643 0.77576 0.09947 0.0
C357 C 0.22242 0.80887 0.93983 0.0
H358 H 0.28541 0.80928 0.8876 0.0
C359 C 0.26572 0.84351 0.66879 0.0
C360 C 0.26762 0.82421 0.63185 0.0
C361 C 0.26391 0.84246 0.74223 0.0
C362 C 0.26783 0.80923 0.90166 0.0
H363 H 0.21713 0.82712 0.19936 0.0
H364 H 0.2205 0.82896 0.07133 0.0
H365 H 0.26814 0.79654 0.00699 0.0
H366 H 0.27286 0.79096 0.64186 0.0
H367 H 0.26956 0.78907 0.76993 0.0
H368 H 0.22212 0.82157 0.83452 0.0
C369 C 0.22093 0.81328 0.09879 0.0
C370 C 0.25775 0.80162 0.96937 0.0
C371 C 0.21918 0.81232 0.17207 0.0
C372 C 0.27091 0.8058 0.66929 0.0
C373 C 0.2692 0.80481 0.74258 0.0
C374 C 0.2325 0.81649 0.87214 0.0
C375 C 0.22607 0.79592 0.06248 0.0
C376 C 0.23497 0.80137 -0.01114 0.0
C377 C 0.26419 0.82223 0.77906 0.0
C378 C 0.25529 0.81674 0.85266 0.0
H379 H 0.22691 0.7602 0.20078 0.0
H380 H 0.22987 0.76187 0.07203 0.0
H381 H 0.20483 0.80881 0.95387 0.0
H382 H 0.26349 0.85812 0.64102 0.0
H383 H 0.26056 0.85638 0.76981 0.0
C384 C 0.35657 0.15026 0.49204 0.0
C385 C 0.37774 0.15713 0.53675 0.0
C386 C 0.33885 0.12425 0.47895 0.0
C387 C 0.32038 0.06973 0.42067 0.0
H388 H 0.29485 0.01742 0.56753 0.0
C389 C 0.29248 0.96369 0.37498 0.0
C390 C 0.27073 0.94427 0.41006 0.0
C391 C 0.30058 0.98967 0.3869 0.0
C392 C 0.30151 0.0318 0.52595 0.0
H393 H 0.3963 0.14237 0.60555 0.0
H394 H 0.36511 0.09702 0.58408 0.0
H395 H 0.31788 0.06304 0.60004 0.0
H396 H 0.23996 0.93667 0.48357 0.0
H397 H 0.25441 0.98232 0.50549 0.0
H398 H 0.305 0.03848 0.34655 0.0
C399 C 0.36222 0.11163 0.5588 0.0
C400 C 0.31485 0.05789 0.54456 0.0
C401 C 0.38014 0.13757 0.57089 0.0
C402 C 0.25666 0.9513 0.45541 0.0
C403 C 0.26504 0.97736 0.46833 0.0
C404 C 0.30737 0.04363 0.40204 0.0
C405 C 0.34174 0.10467 0.51138 0.0
C406 C 0.32482 0.07714 0.49211 0.0
C407 C 0.28735 0.99682 0.43509 0.0
C408 C 0.29819 0.02438 0.45447 0.0
H409 H 0.35443 0.16498 0.46462 0.0
H410 H 0.32319 0.11943 0.44239 0.0
H411 H 0.32801 0.08411 0.37906 0.0
H412 H 0.30368 0.95874 0.33988 0.0
H413 H 0.31797 1.00418 0.36098 0.0
C414 C 0.44612 0.34804 0.47367 0.0
C415 C 0.43582 0.32131 0.48176 0.0
C416 C 0.43043 0.3591 0.48052 0.0
C417 C 0.36975 0.34679 0.56628 0.0
H418 H 0.3833 0.40865 0.46491 0.0
C419 C 0.31298 0.40093 0.61936 0.0
C420 C 0.32822 0.42788 0.62516 0.0
C421 C 0.32376 0.38617 0.59522 0.0
C422 C 0.37933 0.39143 0.49389 0.0
H423 H 0.40052 0.28511 0.49956 0.0
H424 H 0.37303 0.30439 0.51013 0.0
H425 H 0.40575 0.38574 0.43056 0.0
H426 H 0.36675 0.46038 0.60953 0.0
H427 H 0.38534 0.43479 0.56773 0.0
H428 H 0.34351 0.35274 0.63008 0.0
C429 C 0.39339 0.31686 0.49985 0.0
C430 C 0.39223 0.37828 0.47423 0.0
C431 C 0.40913 0.30576 0.49301 0.0
C432 C 0.35439 0.43968 0.60585 0.0
C433 C 0.36505 0.42501 0.58127 0.0
C434 C 0.35674 0.35989 0.58571 0.0
C435 C 0.40396 0.34376 0.4955 0.0
C436 C 0.38804 0.35607 0.51108 0.0
C437 C 0.34992 0.39808 0.57562 0.0
C438 C 0.36178 0.38268 0.55072 0.0
H439 H 0.46658 0.36065 0.46521 0.0
H440 H 0.43939 0.37988 0.4775 0.0
H441 H 0.36623 0.32997 0.59657 0.0
H442 H 0.29276 0.39122 0.63369 0.0
H443 H 0.31154 0.36547 0.59117 0.0
C444 C 0.9679 0.29475 0.90298 0.0
C445 C 0.94914 0.26913 0.88861 0.0
C446 C 0.99377 0.3038 0.88699 0.0
C447 C 0.03578 0.29257 0.76811 0.0
H448 H 0.08899 0.34404 0.88799 0.0
C449 C 0.14774 0.3483 0.70878 0.0
C450 C 0.15939 0.37504 0.71995 0.0
C451 C 0.12181 0.33188 0.72768 0.0
C452 C 0.07436 0.32966 0.85394 0.0
H453 H 0.94286 0.23263 0.84802 0.0
H454 H 0.9885 0.24851 0.82006 0.0
H455 H 0.04464 0.3208 0.93004 0.0
H456 H 0.15238 0.40564 0.75374 0.0
H457 H 0.10769 0.37722 0.78709 0.0
H458 H 0.06586 0.30195 0.69159 0.0
C459 C 0.98301 0.26159 0.84342 0.0
C460 C 0.04893 0.31636 0.87797 0.0
C461 C 0.95697 0.25243 0.86005 0.0
C462 C 0.14421 0.38509 0.74617 0.0
C463 C 0.11859 0.36881 0.76536 0.0
C464 C 0.06142 0.30584 0.74414 0.0
C465 C 1.00167 0.2875 0.85604 0.0
C466 C 0.02914 0.29828 0.83453 0.0
C467 C 0.10728 0.342 0.75828 0.0
C468 C 0.08079 0.32512 0.78603 0.0
H469 H 0.96244 0.30803 0.92519 0.0
H470 H 1.00746 0.32393 0.8966 0.0
H471 H 0.021 0.27883 0.73318 0.0
H472 H 0.15895 0.34001 0.68864 0.0
H473 H 0.11348 0.31126 0.72128 0.0
C474 C 0.66484 0.95981 0.07257 0.0
C475 C 0.6762 0.94414 0.06941 0.0
C476 C 0.67924 0.98612 0.05736 0.0
C477 C 0.74439 0.04231 0.03769 0.0
H478 H 0.71093 0.06435 0.90131 0.0
C479 C 0.79545 0.14624 0.92149 0.0
C480 C 0.78016 0.15793 0.91504 0.0
C481 C 0.78413 0.11981 0.93648 0.0
C482 C 0.72051 0.0587 0.94 0.0
H483 H 0.71222 0.94444 0.05275 0.0
H484 H 0.73752 0.99068 0.02737 0.0
H485 H 0.68907 0.01992 0.94238 0.0
H486 H 0.74085 0.15069 0.91739 0.0
H487 H 0.72134 0.10519 0.94425 0.0
H488 H 0.77562 0.08133 0.03661 0.0
C489 C 0.71735 0.98239 0.0411 0.0
C490 C 0.70794 0.03316 0.96353 0.0
C491 C 0.70285 0.9559 0.05588 0.0
C492 C 0.75327 0.1424 0.92156 0.0
C493 C 0.74201 0.11613 0.93675 0.0
C494 C 0.75692 0.06805 0.01466 0.0
C495 C 0.70544 0.99756 0.03908 0.0
C496 C 0.71954 0.02471 0.0133 0.0
C497 C 0.75725 0.10447 0.94543 0.0
C498 C 0.74499 0.07668 0.96612 0.0
H499 H 0.64443 0.95152 0.08316 0.0
H500 H 0.66964 0.99741 0.0577 0.0
H501 H 0.75382 0.03636 0.07608 0.0
H502 H 0.81623 0.15762 0.91701 0.0
H503 H 0.79647 0.11147 0.94171 0.0
C504 C 0.81146 0.71745 0.20714 0.0
C505 C 0.8361 0.72695 0.23675 0.0
C506 C 0.80264 0.73414 0.18746 0.0
C507 C 0.80669 0.79582 0.21357 0.0
H508 H 0.78232 0.78608 0.01987 0.0
C509 C 0.7572 0.85035 0.09599 0.0
C510 C 0.73442 0.83447 0.05853 0.0
C511 C 0.77405 0.84133 0.11448 0.0
C512 C 0.78893 0.78904 0.07415 0.0
H513 H 0.87003 0.76143 0.27359 0.0
H514 H 0.85407 0.79082 0.2405 0.0
H515 H 0.80261 0.76227 0.06404 0.0
H516 H 0.71214 0.79731 0.00792 0.0
H517 H 0.74106 0.78157 0.04023 0.0
H518 H 0.7918 0.82167 0.22469 0.0
C519 C 0.84194 0.77033 0.23165 0.0
C520 C 0.80065 0.77546 0.09931 0.0
C521 C 0.85099 0.75352 0.25081 0.0
C522 C 0.72946 0.80995 0.03718 0.0
C523 C 0.74622 0.80101 0.05529 0.0
C524 C 0.79465 0.8093 0.18852 0.0
C525 C 0.81799 0.76079 0.19774 0.0
C526 C 0.80901 0.77814 0.16974 0.0
C527 C 0.76854 0.81636 0.09518 0.0
C528 C 0.78492 0.80545 0.11903 0.0
H529 H 0.79915 0.69703 0.19741 0.0
H530 H 0.78385 0.7262 0.16294 0.0
H531 H 0.81296 0.79821 0.26812 0.0
H532 H 0.76144 0.86928 0.11353 0.0
H533 H 0.79118 0.85374 0.14466 0.0
C534 C 0.96306 0.69991 0.33809 0.0
C535 C 0.95127 0.67294 0.33243 0.0
C536 C 0.98868 0.71457 0.36103 0.0
C537 C 0.03946 0.70911 0.459 0.0
H538 H 0.08711 0.77059 0.35534 0.0
C539 C 0.14968 0.75285 0.47519 0.0
C540 C 0.16589 0.7796 0.46722 0.0
C541 C 0.12293 0.74166 0.46899 0.0
C542 C 0.07403 0.75376 0.38588 0.0
H543 H 0.95725 0.64031 0.34713 0.0
H544 H 1.00159 0.66574 0.38685 0.0
H545 H 0.04154 0.74784 0.32391 0.0
H546 H 0.16641 0.8157 0.45015 0.0
H547 H 0.11968 0.79621 0.44074 0.0
H548 H 0.07187 0.71479 0.52052 0.0
C549 C 0.99107 0.67561 0.37412 0.0
C550 C 0.04786 0.74067 0.36765 0.0
C551 C 0.96564 0.66102 0.35074 0.0
C552 C 0.15454 0.79503 0.45659 0.0
C553 C 0.12772 0.78381 0.45042 0.0
C554 C 0.06557 0.72225 0.47745 0.0
C555 C 1.00297 0.70256 0.37955 0.0
C556 C 0.03034 0.71788 0.40306 0.0
C557 C 0.11159 0.75689 0.4548 0.0
C558 C 0.08333 0.74448 0.44026 0.0
H559 H 0.95256 0.70971 0.32451 0.0
H560 H 0.99723 0.73529 0.36498 0.0
H561 H 0.02641 0.6919 0.48829 0.0
H562 H 0.15769 0.74031 0.48315 0.0
H563 H 0.11128 0.72087 0.47199 0.0
C564 C 0.60095 0.42059 0.35291 0.0
C565 C 0.59696 0.41907 0.42634 0.0
C566 C 0.62257 0.44157 0.32281 0.0
C567 C 0.6783 0.50727 0.36134 0.0
H568 H 0.70995 0.48977 0.20823 0.0
C569 C 0.78485 0.54839 0.22785 0.0
C570 C 0.79386 0.57502 0.22968 0.0
C571 C 0.75898 0.53063 0.24154 0.0
C572 C 0.70149 0.49505 0.25111 0.0
H573 H 0.61191 0.43852 0.52591 0.0
H574 H 0.65032 0.47494 0.47398 0.0
H575 H 0.66891 0.45713 0.25596 0.0
H576 H 0.78224 0.60379 0.24274 0.0
H577 H 0.73684 0.57272 0.26463 0.0
H578 H 0.7118 0.54483 0.35912 0.0
C579 C 0.63646 0.46027 0.43906 0.0
C580 C 0.67762 0.47635 0.27798 0.0
C581 C 0.61451 0.43939 0.46906 0.0
C582 C 0.77597 0.58341 0.24098 0.0
C583 C 0.74998 0.56558 0.25443 0.0
C584 C 0.70235 0.52596 0.33485 0.0
C585 C 0.64109 0.46137 0.36557 0.0
C586 C 0.66577 0.48205 0.33409 0.0
C587 C 0.74128 0.53897 0.25695 0.0
C588 C 0.71447 0.51998 0.28006 0.0
H589 H 0.58752 0.4052 0.31883 0.0
H590 H 0.62496 0.44198 0.26598 0.0
H591 H 0.66969 0.51258 0.40377 0.0
H592 H 0.79804 0.54118 0.2195 0.0
H593 H 0.75322 0.51039 0.24366 0.0
C594 C 0.2434 0.51847 0.72052 0.0
C595 C 0.26958 0.5265 0.7313 0.0
C596 C 0.23556 0.53654 0.70625 0.0
C597 C 0.25954 0.60778 0.70124 0.0
H598 H 0.21035 0.58952 0.54829 0.0
C599 C 0.25862 0.68207 0.51213 0.0
C600 C 0.23585 0.68354 0.51064 0.0
C601 C 0.2591 0.66139 0.54471 0.0
C602 C 0.22386 0.59474 0.59162 0.0
H603 H 0.30777 0.56 0.74018 0.0
H604 H 0.29442 0.59114 0.71408 0.0
H605 H 0.21777 0.55646 0.60116 0.0
H606 H 0.19528 0.66325 0.53908 0.0
H607 H 0.19602 0.62635 0.59342 0.0
H608 H 0.26675 0.64641 0.68809 0.0
C609 C 0.27968 0.57104 0.71745 0.0
C610 C 0.22805 0.57581 0.62237 0.0
C611 C 0.28744 0.55305 0.73219 0.0
C612 C 0.21313 0.66279 0.53881 0.0
C613 C 0.21354 0.64175 0.57039 0.0
C614 C 0.25568 0.62671 0.66965 0.0
C615 C 0.25375 0.56305 0.70216 0.0
C616 C 0.24644 0.5822 0.67651 0.0
C617 C 0.23672 0.64128 0.57521 0.0
C618 C 0.23822 0.62047 0.61364 0.0
H619 H 0.2291 0.49816 0.71961 0.0
H620 H 0.21536 0.52965 0.69631 0.0
H621 H 0.27332 0.61341 0.74396 0.0
H622 H 0.27633 0.69719 0.48916 0.0
H623 H 0.2771 0.6612 0.54661 0.0
C624 C 0.68499 0.25432 0.88307 0.0
C625 C 0.68572 0.23121 0.88083 0.0
C626 C 0.6645 0.25582 0.85316 0.0
C627 C 0.59823 0.22221 0.79297 0.0
H628 H 0.62319 0.27607 0.65049 0.0
C629 C 0.52912 0.24206 0.62073 0.0
C630 C 0.53723 0.2681 0.60669 0.0
C631 C 0.54592 0.23505 0.65247 0.0
C632 C 0.6158 0.26116 0.69063 0.0
H633 H 0.66441 0.19097 0.85063 0.0
H634 H 0.62797 0.19351 0.7995 0.0
H635 H 0.65364 0.26816 0.71515 0.0
H636 H 0.56929 0.30716 0.61575 0.0
H637 H 0.59805 0.29516 0.67224 0.0
H638 H 0.56039 0.21587 0.77038 0.0
C639 C 0.64359 0.21048 0.82384 0.0
C640 C 0.63329 0.25655 0.72738 0.0
C641 C 0.66435 0.20901 0.85335 0.0
C642 C 0.56244 0.28689 0.625 0.0
C643 C 0.57907 0.27995 0.65716 0.0
C644 C 0.58063 0.2271 0.75678 0.0
C645 C 0.64404 0.23418 0.8211 0.0
C646 C 0.62478 0.23735 0.77967 0.0
C647 C 0.57115 0.25394 0.67122 0.0
C648 C 0.58927 0.24699 0.70597 0.0
H649 H 0.70091 0.27164 0.9051 0.0
H650 H 0.66509 0.27422 0.85281 0.0
H651 H 0.59122 0.20727 0.83305 0.0
H652 H 0.50979 0.2271 0.6073 0.0
H653 H 0.5392 0.21482 0.6618 0.0
C654 C 0.552 0.77917 0.95381 0.0
C655 C 0.57852 0.78789 0.95872 0.0
C656 C 0.53504 0.75473 0.92736 0.0
C657 C 0.53082 0.70251 0.81543 0.0
H658 H 0.46406 0.6639 0.90648 0.0
C659 C 0.44853 0.59863 0.73481 0.0
C660 C 0.42363 0.59549 0.73554 0.0
C661 C 0.46969 0.62179 0.75832 0.0
C662 C 0.48257 0.67449 0.88017 0.0
H663 H 0.60801 0.77764 0.93939 0.0
H664 H 0.57812 0.73457 0.89307 0.0
H665 H 0.4968 0.70412 0.95835 0.0
H666 H 0.40163 0.61464 0.75551 0.0
H667 H 0.43826 0.65478 0.79569 0.0
H668 H 0.51617 0.6726 0.7368 0.0
C669 C 0.5706 0.74689 0.90956 0.0
C670 C 0.50135 0.69755 0.90992 0.0
C671 C 0.58768 0.77146 0.93647 0.0
C672 C 0.42054 0.61638 0.75554 0.0
C673 C 0.4415 0.63932 0.77888 0.0
C674 C 0.51193 0.67922 0.78561 0.0
C675 C 0.54405 0.73823 0.90502 0.0
C676 C 0.52547 0.71223 0.87703 0.0
C677 C 0.46615 0.64201 0.78289 0.0
C678 C 0.48737 0.66535 0.81677 0.0
H679 H 0.54422 0.79128 0.97012 0.0
H680 H 0.51481 0.7489 0.92346 0.0
H681 H 0.54921 0.71339 0.78874 0.0
H682 H 0.4514 0.58277 0.71979 0.0
H683 H 0.48852 0.62339 0.76061 0.0
C684 C 0.85643 0.48441 0.21076 0.0
C685 C 0.8805 0.5061 0.22477 0.0
C686 C 0.85462 0.4613 0.18931 0.0
C687 C 0.89156 0.43598 0.09846 0.0
H688 H 0.83237 0.37049 0.15093 0.0
C689 C 0.86871 0.33454 -0.00909 0.0
C690 C 0.84285 0.31843 0.97097 0.0
C691 C 0.87636 0.35824 0.02417 0.0
C692 C 0.84899 0.38864 0.13564 0.0
H693 H 0.92156 0.52045 0.22994 0.0
H694 H 0.91845 0.47963 0.19257 0.0
H695 H 0.84053 0.40954 0.2125 0.0
H696 H 0.80516 0.31535 0.96672 0.0
H697 H 0.81847 0.35633 0.02439 0.0
H698 H 0.89973 0.41475 0.02091 0.0
C699 C 0.90097 0.48067 0.19777 0.0
C700 C 0.85368 0.41102 0.17093 0.0
C701 C 0.90276 0.50391 0.21985 0.0
C702 C 0.82518 0.32711 -0.01821 0.0
C703 C 0.83275 0.35055 0.01535 0.0
C704 C 0.88694 0.41343 0.06336 0.0
C705 C 0.87686 0.45921 0.18116 0.0
C706 C 0.87454 0.4351 0.15138 0.0
C707 C 0.85822 0.36606 0.03858 0.0
C708 C 0.86514 0.38966 0.08023 0.0
H709 H 0.83897 0.48559 0.21418 0.0
H710 H 0.83577 0.44537 0.17612 0.0
H711 H 0.90772 0.45422 0.08174 0.0
H712 H 0.8828 0.32843 -0.01664 0.0
H713 H 0.89615 0.36988 0.04131 0.0
C714 C 0.5107 0.89524 0.11836 0.0
C715 C 0.5097 0.87386 0.0842 0.0
C716 C 0.48824 0.89361 0.14684 0.0
C717 C 0.42946 0.84622 0.2293 0.0
H718 H 0.39955 0.88948 0.19212 0.0
C719 C 0.32721 0.81574 0.32232 0.0
C720 C 0.32096 0.83446 0.34353 0.0
C721 C 0.35112 0.82292 0.29195 0.0
C722 C 0.40788 0.87749 0.20414 0.0
H723 H 0.48397 0.83497 0.04734 0.0
H724 H 0.4452 0.832 0.09847 0.0
H725 H 0.43991 0.8988 0.1335 0.0
H726 H 0.3351 0.87552 0.34975 0.0
H727 H 0.3774 0.88819 0.29862 0.0
H728 H 0.39825 0.82521 0.30082 0.0
C729 C 0.46332 0.84986 0.10387 0.0
C730 C 0.43091 0.88279 0.17025 0.0
C731 C 0.48555 0.85157 0.07483 0.0
C732 C 0.33934 0.86063 0.33396 0.0
C733 C 0.36352 0.86787 0.30417 0.0
C734 C 0.40682 0.84118 0.26391 0.0
C735 C 0.46456 0.87053 0.14197 0.0
C736 C 0.44152 0.8668 0.18142 0.0
C737 C 0.36973 0.84907 0.28279 0.0
C738 C 0.39528 0.85629 0.25056 0.0
H739 H 0.52899 0.91265 0.1267 0.0
H740 H 0.48963 0.90982 0.17602 0.0
H741 H 0.43754 0.83387 0.23972 0.0
H742 H 0.31343 0.79539 0.32802 0.0
H743 H 0.35477 0.80781 0.27457 0.0
loop_
_geom_bond_atom_site_label_1
_geom_bond_atom_site_label_2
_geom_bond_distance
_geom_bond_site_symmetry_2
_ccdc_geom_bond_type
C0 O16 1.251 . S
C0 O18 1.254 . S
N1 C2 1.333 . S
N1 C6 1.307 . S
N1 Zn7 2.020 . S
C2 N1 1.333 . S
C2 C3 1.379 . S
C2 H20 0.952 . S
C3 C2 1.379 . S
C3 C4 1.390 . S
C3 H30 0.949 . S
C4 C3 1.390 . S
C4 C5 1.357 . S
C5 C4 1.357 . S
C5 C6 1.370 . S
C5 H31 0.950 . S
C6 N1 1.307 . S
C6 C5 1.370 . S
C6 H24 0.948 . S
Zn7 N1 2.020 . S
Zn7 O16 2.039 . S
Zn7 O22 2.034 . S
Zn7 O26 2.025 . S
Zn7 O28 2.024 . S
C8 O27 1.246 . S
C8 O28 1.249 . S
N9 C10 1.307 . S
N9 C11 1.333 . S
N9 Zn15 2.020 . S
C10 N9 1.307 . S
C10 C14 1.370 . S
C10 H21 0.948 . S
C11 N9 1.333 . S
C11 C12 1.379 . S
C11 H19 0.952 . S
C12 C11 1.379 . S
C12 C13 1.390 . S
C12 H32 0.949 . S
C13 C12 1.390 . S
C13 C14 1.357 . S
C14 C10 1.370 . S
C14 C13 1.357 . S
C14 H33 0.950 . S
Zn15 N9 2.020 . S
Zn15 O18 2.025 . S
Zn15 O23 2.024 . S
Zn15 O25 2.039 . S
Zn15 O27 2.034 . S
O16 C0 1.251 . S
O16 Zn7 2.039 . S
C17 O22 1.246 . S
C17 O23 1.249 . S
O18 C0 1.254 . S
O18 Zn15 2.025 . S
H19 C11 0.952 . S
H20 C2 0.952 . S
H21 C10 0.948 . S
O22 Zn7 2.034 . S
O22 C17 1.246 . S
O23 Zn15 2.024 . S
O23 C17 1.249 . S
H24 C6 0.948 . S
O25 Zn15 2.039 . S
O25 C29 1.251 . S
O26 Zn7 2.025 . S
O26 C29 1.254 . S
O27 C8 1.246 . S
O27 Zn15 2.034 . S
O28 Zn7 2.024 . S
O28 C8 1.249 . S
C29 O25 1.251 . S
C29 O26 1.254 . S
H30 C3 0.949 . S
H31 C5 0.950 . S
H32 C12 0.949 . S
H33 C14 0.950 . S
C34 O50 1.251 . S
C34 O52 1.254 . S
N35 C36 1.333 . S
N35 C40 1.307 . S
N35 Zn41 2.020 . S
C36 N35 1.333 . S
C36 C37 1.379 . S
C36 H54 0.952 . S
C37 C36 1.379 . S
C37 C38 1.390 . S
C37 H64 0.949 . S
C38 C37 1.390 . S
C38 C39 1.357 . S
C39 C38 1.357 . S
C39 C40 1.370 . S
C39 H65 0.950 . S
C40 N35 1.307 . S
C40 C39 1.370 . S
C40 H58 0.948 . S
Zn41 N35 2.020 . S
Zn41 O50 2.039 . S
Zn41 O56 2.034 . S
Zn41 O60 2.025 . S
Zn41 O62 2.024 . S
C42 O61 1.246 . S
C42 O62 1.249 . S
N43 C44 1.307 . S
N43 C45 1.333 . S
N43 Zn49 2.020 . S
C44 N43 1.307 . S
C44 C48 1.370 . S
C44 H55 0.948 . S
C45 N43 1.333 . S
C45 C46 1.379 . S
C45 H53 0.952 . S
C46 C45 1.379 . S
C46 C47 1.390 . S
C46 H66 0.949 . S
C47 C46 1.390 . S
C47 C48 1.357 . S
C48 C44 1.370 . S
C48 C47 1.357 . S
C48 H67 0.950 . S
Zn49 N43 2.020 . S
Zn49 O52 2.025 . S
Zn49 O57 2.024 . S
Zn49 O59 2.039 . S
Zn49 O61 2.034 . S
O50 C34 1.251 . S
O50 Zn41 2.039 . S
C51 O56 1.246 . S
C51 O57 1.249 . S
O52 C34 1.254 . S
O52 Zn49 2.025 . S
H53 C45 0.952 . S
H54 C36 0.952 . S
H55 C44 0.948 . S
O56 Zn41 2.034 . S
O56 C51 1.246 . S
O57 Zn49 2.024 . S
O57 C51 1.249 . S
H58 C40 0.948 . S
O59 Zn49 2.039 . S
O59 C63 1.251 . S
O60 Zn41 2.025 . S
O60 C63 1.254 . S
O61 C42 1.246 . S
O61 Zn49 2.034 . S
O62 Zn41 2.024 . S
O62 C42 1.249 . S
C63 O59 1.251 . S
C63 O60 1.254 . S
H64 C37 0.949 . S
H65 C39 0.950 . S
H66 C46 0.949 . S
H67 C48 0.950 . S
C68 O84 1.251 . S
C68 O86 1.254 . S
N69 C70 1.333 . S
N69 C74 1.307 . S
N69 Zn75 2.020 . S
C70 N69 1.333 . S
C70 C71 1.379 . S
C70 H88 0.952 . S
C71 C70 1.379 . S
C71 C72 1.390 . S
C71 H98 0.949 . S
C72 C71 1.390 . S
C72 C73 1.357 . S
C73 C72 1.357 . S
C73 C74 1.370 . S
C73 H99 0.950 1_556 S
C74 N69 1.307 . S
C74 C73 1.370 . S
C74 H92 0.948 1_556 S
Zn75 N69 2.020 . S
Zn75 O84 2.039 . S
Zn75 O90 2.034 . S
Zn75 O94 2.025 1_556 S
Zn75 O96 2.024 . S
C76 O95 1.246 . S
C76 O96 1.249 . S
N77 C78 1.307 . S
N77 C79 1.344 . S
N77 Zn83 2.020 . S
C78 N77 1.307 . S
C78 C82 1.370 . S
C78 H89 0.948 . S
C79 N77 1.344 . S
C79 C80 1.378 1_556 S
C79 H87 0.942 1_556 S
C80 C79 1.378 1_554 S
C80 C81 1.390 1_554 S
C80 H100 0.949 . S
C81 C80 1.390 1_556 S
C81 C82 1.357 . S
C82 C78 1.370 . S
C82 C81 1.357 . S
C82 H101 0.950 . S
Zn83 N77 2.020 . S
Zn83 O86 2.025 . S
Zn83 O91 2.024 . S
Zn83 O93 2.039 1_556 S
Zn83 O95 2.034 . S
O84 C68 1.251 . S
O84 Zn75 2.039 . S
C85 O90 1.246 . S
C85 O91 1.249 . S
O86 C68 1.254 . S
O86 Zn83 2.025 . S
H87 C79 0.942 1_554 S
H88 C70 0.952 . S
H89 C78 0.948 . S
O90 Zn75 2.034 . S
O90 C85 1.246 . S
O91 Zn83 2.024 . S
O91 C85 1.249 . S
H92 C74 0.948 1_554 S
O93 Zn83 2.039 1_554 S
O93 C97 1.251 . S
O94 Zn75 2.025 1_554 S
O94 C97 1.254 . S
O95 C76 1.246 . S
O95 Zn83 2.034 . S
O96 Zn75 2.024 . S
O96 C76 1.249 . S
C97 O93 1.251 . S
C97 O94 1.254 . S
H98 C71 0.949 . S
H99 C73 0.950 1_554 S
H100 C80 0.949 . S
H101 C82 0.950 . S
C102 O118 1.251 . S
C102 O120 1.254 . S
N103 C104 1.333 . S
N103 C108 1.307 . S
N103 Zn109 2.020 . S
C104 N103 1.333 . S
C104 C105 1.379 . S
C104 H122 0.952 . S
C105 C104 1.379 . S
C105 C106 1.390 . S
C105 H132 0.949 . S
C106 C105 1.390 . S
C106 C107 1.357 . S
C107 C106 1.357 . S
C107 C108 1.370 . S
C107 H133 0.950 1_554 S
C108 N103 1.307 . S
C108 C107 1.370 . S
C108 H126 0.948 1_554 S
Zn109 N103 2.020 . S
Zn109 O118 2.039 . S
Zn109 O124 2.034 . S
Zn109 O128 2.025 1_554 S
Zn109 O130 2.024 . S
C110 O129 1.246 . S
C110 O130 1.249 . S
N111 C112 1.307 . S
N111 C113 1.333 . S
N111 Zn117 2.020 . S
C112 N111 1.307 . S
C112 C116 1.370 . S
C112 H123 0.948 . S
C113 N111 1.333 . S
C113 C114 1.379 1_554 S
C113 H121 0.952 1_554 S
C114 C113 1.379 1_556 S
C114 C115 1.390 1_556 S
C114 H134 0.949 . S
C115 C114 1.390 1_554 S
C115 C116 1.357 . S
C116 C112 1.370 . S
C116 C115 1.357 . S
C116 H135 0.950 . S
Zn117 N111 2.020 . S
Zn117 O120 2.025 . S
Zn117 O125 2.024 . S
Zn117 O127 2.039 1_554 S
Zn117 O129 2.034 . S
O118 C102 1.251 . S
O118 Zn109 2.039 . S
C119 O124 1.246 . S
C119 O125 1.249 . S
O120 C102 1.254 . S
O120 Zn117 2.025 . S
H121 C113 0.952 1_556 S
H122 C104 0.952 . S
H123 C112 0.948 . S
O124 Zn109 2.034 . S
O124 C119 1.246 . S
O125 Zn117 2.024 . S
O125 C119 1.249 . S
H126 C108 0.948 1_556 S
O127 Zn117 2.039 1_556 S
O127 C131 1.251 . S
O128 Zn109 2.025 1_556 S
O128 C131 1.254 . S
O129 C110 1.246 . S
O129 Zn117 2.034 . S
O130 Zn109 2.024 . S
O130 C110 1.249 . S
C131 O127 1.251 . S
C131 O128 1.254 . S
H132 C105 0.949 . S
H133 C107 0.950 1_556 S
H134 C114 0.949 . S
H135 C116 0.950 . S
C136 O152 1.251 . S
C136 O154 1.254 . S
N137 C138 1.333 . S
N137 C142 1.307 . S
N137 Zn143 2.020 . S
C138 N137 1.333 . S
C138 C139 1.379 . S
C138 H156 0.952 . S
C139 C138 1.379 . S
C139 C140 1.390 . S
C139 H166 0.949 . S
C140 C139 1.390 . S
C140 C141 1.357 . S
C141 C140 1.357 . S
C141 C142 1.370 . S
C141 H167 0.950 . S
C142 N137 1.307 . S
C142 C141 1.370 . S
C142 H160 0.948 . S
Zn143 N137 2.020 . S
Zn143 O152 2.039 . S
Zn143 O158 2.034 . S
Zn143 O162 2.025 . S
Zn143 O164 2.024 . S
C144 O163 1.246 . S
C144 O164 1.249 . S
N145 C146 1.307 . S
N145 C147 1.333 . S
N145 Zn151 2.020 . S
C146 N145 1.307 . S
C146 C150 1.370 . S
C146 H157 0.948 . S
C147 N145 1.333 . S
C147 C148 1.379 . S
C147 H155 0.952 . S
C148 C147 1.379 . S
C148 C149 1.390 . S
C148 H168 0.949 . S
C149 C148 1.390 . S
C149 C150 1.357 . S
C150 C146 1.370 . S
C150 C149 1.357 . S
C150 H169 0.950 . S
Zn151 N145 2.020 . S
Zn151 O154 2.025 . S
Zn151 O159 2.024 . S
Zn151 O161 2.039 . S
Zn151 O163 2.034 . S
O152 C136 1.251 . S
O152 Zn143 2.039 . S
C153 O158 1.246 . S
C153 O159 1.249 . S
O154 C136 1.254 . S
O154 Zn151 2.025 . S
H155 C147 0.952 . S
H156 C138 0.952 . S
H157 C146 0.948 . S
O158 Zn143 2.034 . S
O158 C153 1.246 . S
O159 Zn151 2.024 . S
O159 C153 1.249 . S
H160 C142 0.948 . S
O161 Zn151 2.039 . S
O161 C165 1.251 . S
O162 Zn143 2.025 . S
O162 C165 1.254 . S
O163 C144 1.246 . S
O163 Zn151 2.034 . S
O164 Zn143 2.024 . S
O164 C144 1.249 . S
C165 O161 1.251 . S
C165 O162 1.254 . S
H166 C139 0.949 . S
H167 C141 0.950 . S
H168 C148 0.949 . S
H169 C150 0.950 . S
C170 O186 1.251 . S
C170 O188 1.254 . S
N171 C172 1.333 . S
N171 C176 1.307 . S
N171 Zn177 2.020 . S
C172 N171 1.333 . S
C172 C173 1.379 . S
C172 H190 0.952 . S
C173 C172 1.379 . S
C173 C174 1.390 . S
C173 H200 0.949 . S
C174 C173 1.390 . S
C174 C175 1.357 . S
C175 C174 1.357 . S
C175 C176 1.370 . S
C175 H201 0.950 . S
C176 N171 1.307 . S
C176 C175 1.370 . S
C176 H194 0.948 . S
Zn177 N171 2.020 . S
Zn177 O186 2.039 . S
Zn177 O192 2.034 . S
Zn177 O196 2.025 . S
Zn177 O198 2.024 . S
C178 O197 1.246 . S
C178 O198 1.249 . S
N179 C180 1.307 . S
N179 C181 1.333 . S
N179 Zn185 2.020 . S
C180 N179 1.307 . S
C180 C184 1.370 . S
C180 H191 0.948 . S
C181 N179 1.333 . S
C181 C182 1.379 . S
C181 H189 0.952 . S
C182 C181 1.379 . S
C182 C183 1.390 . S
C182 H202 0.949 . S
C183 C182 1.390 . S
C183 C184 1.357 . S
C184 C180 1.370 . S
C184 C183 1.357 . S
C184 H203 0.950 . S
Zn185 N179 2.020 . S
Zn185 O188 2.025 . S
Zn185 O193 2.024 . S
Zn185 O195 2.039 . S
Zn185 O197 2.034 . S
O186 C170 1.251 . S
O186 Zn177 2.039 . S
C187 O192 1.246 . S
C187 O193 1.249 . S
O188 C170 1.254 . S
O188 Zn185 2.025 . S
H189 C181 0.952 . S
H190 C172 0.952 . S
H191 C180 0.948 . S
O192 Zn177 2.034 . S
O192 C187 1.246 . S
O193 Zn185 2.024 . S
O193 C187 1.249 . S
H194 C176 0.948 . S
O195 Zn185 2.039 . S
O195 C199 1.251 . S
O196 Zn177 2.025 . S
O196 C199 1.254 . S
O197 C178 1.246 . S
O197 Zn185 2.034 . S
O198 Zn177 2.024 . S
O198 C178 1.249 . S
C199 O195 1.251 . S
C199 O196 1.254 . S
H200 C173 0.949 . S
H201 C175 0.950 . S
H202 C182 0.949 . S
H203 C184 0.950 . S
C204 C205 1.349 . S
C204 C206 1.327 . S
C204 H229 0.950 . S
C205 C204 1.349 . S
C205 C221 1.349 . S
C206 C204 1.327 . S
C206 C225 1.429 . S
C206 H230 0.950 . S
C207 C224 1.574 . S
C207 C226 1.368 . S
C207 H231 0.949 . S
H208 C212 0.949 . S
C209 C210 1.349 . S
C209 C211 1.327 . S
C209 H232 0.950 . S
C210 C209 1.349 . S
C210 C222 1.349 . S
C211 C209 1.327 . S
C211 C227 1.429 . S
C211 H233 0.950 . S
C212 H208 0.949 . S
C212 C220 1.574 . S
C212 C228 1.368 . S
H213 C221 0.950 . S
H214 C219 0.950 . S
H215 C220 0.949 . S
H216 C222 0.950 . S
H217 C223 0.950 . S
H218 C224 0.949 . S
C219 H214 0.950 . S
C219 C221 1.327 . S
C219 C225 1.429 . S
C220 C212 1.574 . S
C220 H215 0.949 . S
C220 C226 1.368 . S
C221 C205 1.349 . S
C221 H213 0.950 . S
C221 C219 1.327 . S
C222 C210 1.349 . S
C222 H216 0.950 . S
C222 C223 1.327 . S
C223 H217 0.950 . S
C223 C222 1.327 . S
C223 C227 1.429 . S
C224 C207 1.574 . S
C224 H218 0.949 . S
C224 C228 1.368 . S
C225 C206 1.429 . S
C225 C219 1.429 . S
C225 C226 1.523 . S
C226 C207 1.368 . S
C226 C220 1.368 . S
C226 C225 1.523 . S
C227 C211 1.429 . S
C227 C223 1.429 . S
C227 C228 1.523 1_556 S
C228 C212 1.368 . S
C228 C224 1.368 . S
C228 C227 1.523 1_554 S
H229 C204 0.950 . S
H230 C206 0.950 . S
H231 C207 0.949 . S
H232 C209 0.950 . S
H233 C211 0.950 . S
C234 C235 1.349 . S
C234 C236 1.327 . S
C234 H259 0.950 . S
C235 C234 1.349 . S
C235 C251 1.349 . S
C236 C234 1.327 . S
C236 C255 1.429 . S
C236 H260 0.950 . S
C237 C254 1.574 . S
C237 C256 1.368 . S
C237 H261 0.949 . S
H238 C242 0.949 . S
C239 C240 1.349 . S
C239 C241 1.327 1_556 S
C239 H262 0.950 . S
C240 C239 1.349 . S
C240 C252 1.349 . S
C241 C239 1.327 1_554 S
C241 C257 1.429 . S
C241 H263 0.950 . S
C242 H238 0.949 . S
C242 C250 1.574 . S
C242 C258 1.368 . S
H243 C251 0.950 . S
H244 C249 0.950 . S
H245 C250 0.949 . S
H246 C252 0.950 . S
H247 C253 0.950 . S
H248 C254 0.949 . S
C249 H244 0.950 . S
C249 C251 1.327 . S
C249 C255 1.429 . S
C250 C242 1.574 . S
C250 H245 0.949 . S
C250 C256 1.368 . S
C251 C235 1.349 . S
C251 H243 0.950 . S
C251 C249 1.327 . S
C252 C240 1.349 . S
C252 H246 0.950 . S
C252 C253 1.327 1_556 S
C253 H247 0.950 . S
C253 C252 1.327 1_554 S
C253 C257 1.429 . S
C254 C237 1.574 . S
C254 H248 0.949 . S
C254 C258 1.368 . S
C255 C236 1.429 . S
C255 C249 1.429 . S
C255 C256 1.523 . S
C256 C237 1.368 . S
C256 C250 1.368 . S
C256 C255 1.523 . S
C257 C241 1.429 . S
C257 C253 1.429 . S
C257 C258 1.523 . S
C258 C242 1.368 . S
C258 C254 1.368 . S
C258 C257 1.523 . S
H259 C234 0.950 . S
H260 C236 0.950 . S
H261 C237 0.949 . S
H262 C239 0.950 . S
H263 C241 0.950 . S
C264 C265 1.349 . S
C264 C266 1.327 . S
C264 H289 0.950 . S
C265 C264 1.349 . S
C265 C281 1.349 . S
C266 C264 1.327 . S
C266 C285 1.429 . S
C266 H290 0.950 . S
C267 C284 1.574 . S
C267 C286 1.368 . S
C267 H291 0.949 . S
H268 C272 0.949 . S
C269 C270 1.349 . S
C269 C271 1.327 . S
C269 H292 0.950 . S
C270 C269 1.349 . S
C270 C282 1.349 . S
C271 C269 1.327 . S
C271 C287 1.429 . S
C271 H293 0.950 . S
C272 H268 0.949 . S
C272 C280 1.574 . S
C272 C288 1.368 . S
H273 C281 0.950 . S
H274 C279 0.950 . S
H275 C280 0.949 . S
H276 C282 0.950 . S
H277 C283 0.950 . S
H278 C284 0.949 . S
C279 H274 0.950 . S
C279 C281 1.327 . S
C279 C285 1.429 . S
C280 C272 1.574 . S
C280 H275 0.949 . S
C280 C286 1.368 . S
C281 C265 1.349 . S
C281 H273 0.950 . S
C281 C279 1.327 . S
C282 C270 1.349 . S
C282 H276 0.950 . S
C282 C283 1.327 . S
C283 H277 0.950 . S
C283 C282 1.327 . S
C283 C287 1.429 . S
C284 C267 1.574 . S
C284 H278 0.949 . S
C284 C288 1.368 . S
C285 C266 1.429 . S
C285 C279 1.429 . S
C285 C286 1.523 . S
C286 C267 1.368 . S
C286 C280 1.368 . S
C286 C285 1.523 . S
C287 C271 1.429 . S
C287 C283 1.429 . S
C287 C288 1.523 . S
C288 C272 1.368 . S
C288 C284 1.368 . S
C288 C287 1.523 . S
H289 C264 0.950 . S
H290 C266 0.950 . S
H291 C267 0.949 . S
H292 C269 0.950 . S
H293 C271 0.950 . S
C294 C295 1.349 . S
C294 C296 1.327 . S
C294 H319 0.950 . S
C295 C294 1.349 . S
C295 C311 1.349 . S
C296 C294 1.327 . S
C296 C315 1.429 . S
C296 H320 0.950 . S
C297 C314 1.574 . S
C297 C316 1.368 . S
C297 H321 0.949 . S
H298 C302 0.949 . S
C299 C300 1.349 . S
C299 C301 1.327 . S
C299 H322 0.950 . S
C300 C299 1.349 . S
C300 C312 1.349 . S
C301 C299 1.327 . S
C301 C317 1.429 . S
C301 H323 0.950 . S
C302 H298 0.949 . S
C302 C310 1.574 . S
C302 C318 1.368 . S
H303 C311 0.950 . S
H304 C309 0.950 . S
H305 C310 0.949 . S
H306 C312 0.950 . S
H307 C313 0.950 . S
H308 C314 0.949 . S
C309 H304 0.950 . S
C309 C311 1.327 . S
C309 C315 1.429 . S
C310 C302 1.574 . S
C310 H305 0.949 . S
C310 C316 1.368 . S
C311 C295 1.349 . S
C311 H303 0.950 . S
C311 C309 1.327 . S
C312 C300 1.349 . S
C312 H306 0.950 . S
C312 C313 1.327 . S
C313 H307 0.950 . S
C313 C312 1.327 . S
C313 C317 1.429 . S
C314 C297 1.574 . S
C314 H308 0.949 . S
C314 C318 1.368 . S
C315 C296 1.429 . S
C315 C309 1.429 . S
C315 C316 1.523 . S
C316 C297 1.368 . S
C316 C310 1.368 . S
C316 C315 1.523 . S
C317 C301 1.429 . S
C317 C313 1.429 . S
C317 C318 1.523 . S
C318 C302 1.368 . S
C318 C314 1.368 . S
C318 C317 1.523 . S
H319 C294 0.950 . S
H320 C296 0.950 . S
H321 C297 0.949 . S
H322 C299 0.950 . S
H323 C301 0.950 . S
C324 C325 1.349 . S
C324 C326 1.327 . S
C324 H349 0.950 . S
C325 C324 1.349 . S
C325 C341 1.349 . S
C326 C324 1.327 . S
C326 C345 1.429 . S
C326 H350 0.950 . S
C327 C344 1.574 . S
C327 C346 1.368 . S
C327 H351 0.949 . S
H328 C332 0.949 . S
C329 C330 1.349 . S
C329 C331 1.327 1_554 S
C329 H352 0.950 . S
C330 C329 1.349 . S
C330 C342 1.349 . S
C331 C329 1.327 1_556 S
C331 C347 1.429 . S
C331 H353 0.950 . S
C332 H328 0.949 . S
C332 C340 1.574 . S
C332 C348 1.368 . S
H333 C341 0.950 . S
H334 C339 0.950 . S
H335 C340 0.949 . S
H336 C342 0.950 . S
H337 C343 0.950 . S
H338 C344 0.949 . S
C339 H334 0.950 . S
C339 C341 1.327 . S
C339 C345 1.429 . S
C340 C332 1.574 . S
C340 H335 0.949 . S
C340 C346 1.368 . S
C341 C325 1.349 . S
C341 H333 0.950 . S
C341 C339 1.327 . S
C342 C330 1.349 . S
C342 H336 0.950 . S
C342 C343 1.327 1_554 S
C343 H337 0.950 . S
C343 C342 1.327 1_556 S
C343 C347 1.429 . S
C344 C327 1.574 . S
C344 H338 0.949 . S
C344 C348 1.368 . S
C345 C326 1.429 . S
C345 C339 1.429 . S
C345 C346 1.523 . S
C346 C327 1.368 . S
C346 C340 1.368 . S
C346 C345 1.523 . S
C347 C331 1.429 . S
C347 C343 1.429 . S
C347 C348 1.523 . S
C348 C332 1.368 . S
C348 C344 1.368 . S
C348 C347 1.523 . S
H349 C324 0.950 . S
H350 C326 0.950 . S
H351 C327 0.949 . S
H352 C329 0.950 . S
H353 C331 0.950 . S
C354 C355 1.349 . S
C354 C356 1.327 . S
C354 H379 0.950 . S
C355 C354 1.349 . S
C355 C371 1.349 . S
C356 C354 1.327 . S
C356 C375 1.429 . S
C356 H380 0.950 . S
C357 C374 1.574 . S
C357 C376 1.368 . S
C357 H381 0.949 . S
H358 C362 0.949 . S
C359 C360 1.349 . S
C359 C361 1.327 . S
C359 H382 0.950 . S
C360 C359 1.349 . S
C360 C372 1.349 . S
C361 C359 1.327 . S
C361 C377 1.429 . S
C361 H383 0.950 . S
C362 H358 0.949 . S
C362 C370 1.574 . S
C362 C378 1.368 . S
H363 C371 0.950 . S
H364 C369 0.950 . S
H365 C370 0.949 . S
H366 C372 0.950 . S
H367 C373 0.950 . S
H368 C374 0.949 . S
C369 H364 0.950 . S
C369 C371 1.327 . S
C369 C375 1.429 . S
C370 C362 1.574 . S
C370 H365 0.949 . S
C370 C376 1.368 . S
C371 C355 1.349 . S
C371 H363 0.950 . S
C371 C369 1.327 . S
C372 C360 1.349 . S
C372 H366 0.950 . S
C372 C373 1.327 . S
C373 H367 0.950 . S
C373 C372 1.327 . S
C373 C377 1.429 . S
C374 C357 1.574 . S
C374 H368 0.949 . S
C374 C378 1.368 . S
C375 C356 1.429 . S
C375 C369 1.429 . S
C375 C376 1.523 1_554 S
C376 C357 1.368 . S
C376 C370 1.368 . S
C376 C375 1.523 1_556 S
C377 C361 1.429 . S
C377 C373 1.429 . S
C377 C378 1.523 . S
C378 C362 1.368 . S
C378 C374 1.368 . S
C378 C377 1.523 . S
H379 C354 0.950 . S
H380 C356 0.950 . S
H381 C357 0.949 . S
H382 C359 0.950 . S
H383 C361 0.950 . S
C384 C385 1.349 . S
C384 C386 1.327 . S
C384 H409 0.950 . S
C385 C384 1.349 . S
C385 C401 1.349 . S
C386 C384 1.327 . S
C386 C405 1.429 . S
C386 H410 0.950 . S
C387 C404 1.574 . S
C387 C406 1.368 . S
C387 H411 0.949 . S
H388 C392 0.949 . S
C389 C390 1.349 . S
C389 C391 1.327 . S
C389 H412 0.950 . S
C390 C389 1.349 . S
C390 C402 1.349 . S
C391 C389 1.327 . S
C391 C407 1.429 . S
C391 H413 0.950 . S
C392 H388 0.949 . S
C392 C400 1.574 . S
C392 C408 1.368 . S
H393 C401 0.950 . S
H394 C399 0.950 . S
H395 C400 0.949 . S
H396 C402 0.950 . S
H397 C403 0.950 . S
H398 C404 0.949 . S
C399 H394 0.950 . S
C399 C401 1.327 . S
C399 C405 1.429 . S
C400 C392 1.574 . S
C400 H395 0.949 . S
C400 C406 1.368 . S
C401 C385 1.349 . S
C401 H393 0.950 . S
C401 C399 1.327 . S
C402 C390 1.349 . S
C402 H396 0.950 . S
C402 C403 1.327 . S
C403 H397 0.950 . S
C403 C402 1.327 . S
C403 C407 1.429 . S
C404 C387 1.574 . S
C404 H398 0.949 . S
C404 C408 1.368 . S
C405 C386 1.429 . S
C405 C399 1.429 . S
C405 C406 1.523 . S
C406 C387 1.368 . S
C406 C400 1.368 . S
C406 C405 1.523 . S
C407 C391 1.429 . S
C407 C403 1.429 . S
C407 C408 1.523 1_565 S
C408 C392 1.368 . S
C408 C404 1.368 . S
C408 C407 1.523 1_545 S
H409 C384 0.950 . S
H410 C386 0.950 . S
H411 C387 0.949 . S
H412 C389 0.950 . S
H413 C391 0.950 . S
C414 C415 1.349 . S
C414 C416 1.327 . S
C414 H439 0.950 . S
C415 C414 1.349 . S
C415 C431 1.349 . S
C416 C414 1.327 . S
C416 C435 1.429 . S
C416 H440 0.950 . S
C417 C434 1.574 . S
C417 C436 1.368 . S
C417 H441 0.949 . S
H418 C422 0.949 . S
C419 C420 1.349 . S
C419 C421 1.327 . S
C419 H442 0.950 . S
C420 C419 1.349 . S
C420 C432 1.349 . S
C421 C419 1.327 . S
C421 C437 1.429 . S
C421 H443 0.950 . S
C422 H418 0.949 . S
C422 C430 1.574 . S
C422 C438 1.368 . S
H423 C431 0.950 . S
H424 C429 0.950 . S
H425 C430 0.949 . S
H426 C432 0.950 . S
H427 C433 0.950 . S
H428 C434 0.949 . S
C429 H424 0.950 . S
C429 C431 1.327 . S
C429 C435 1.429 . S
C430 C422 1.574 . S
C430 H425 0.949 . S
C430 C436 1.368 . S
C431 C415 1.349 . S
C431 H423 0.950 . S
C431 C429 1.327 . S
C432 C420 1.349 . S
C432 H426 0.950 . S
C432 C433 1.327 . S
C433 H427 0.950 . S
C433 C432 1.327 . S
C433 C437 1.429 . S
C434 C417 1.574 . S
C434 H428 0.949 . S
C434 C438 1.368 . S
C435 C416 1.429 . S
C435 C429 1.429 . S
C435 C436 1.523 . S
C436 C417 1.368 . S
C436 C430 1.368 . S
C436 C435 1.523 . S
C437 C421 1.429 . S
C437 C433 1.429 . S
C437 C438 1.523 . S
C438 C422 1.368 . S
C438 C434 1.368 . S
C438 C437 1.523 . S
H439 C414 0.950 . S
H440 C416 0.950 . S
H441 C417 0.949 . S
H442 C419 0.950 . S
H443 C421 0.950 . S
C444 C445 1.349 . S
C444 C446 1.327 . S
C444 H469 0.950 1_556 S
C445 C444 1.349 . S
C445 C461 1.349 . S
C446 C444 1.327 . S
C446 C465 1.429 . S
C446 H470 0.950 . S
C447 C464 1.574 . S
C447 C466 1.368 . S
C447 H471 0.949 . S
H448 C452 0.949 . S
C449 C450 1.349 . S
C449 C451 1.327 . S
C449 H472 0.950 . S
C450 C449 1.349 . S
C450 C462 1.349 . S
C451 C449 1.327 . S
C451 C467 1.429 . S
C451 H473 0.950 . S
C452 H448 0.949 . S
C452 C460 1.574 . S
C452 C468 1.368 . S
H453 C461 0.950 . S
H454 C459 0.950 . S
H455 C460 0.949 . S
H456 C462 0.950 . S
H457 C463 0.950 . S
H458 C464 0.949 . S
C459 H454 0.950 . S
C459 C461 1.327 . S
C459 C465 1.429 . S
C460 C452 1.574 . S
C460 H455 0.949 . S
C460 C466 1.368 . S
C461 C445 1.349 . S
C461 H453 0.950 . S
C461 C459 1.327 . S
C462 C450 1.349 . S
C462 H456 0.950 . S
C462 C463 1.327 . S
C463 H457 0.950 . S
C463 C462 1.327 . S
C463 C467 1.429 . S
C464 C447 1.574 . S
C464 H458 0.949 . S
C464 C468 1.368 . S
C465 C446 1.429 . S
C465 C459 1.429 . S
C465 C466 1.523 1_655 S
C466 C447 1.368 . S
C466 C460 1.368 . S
C466 C465 1.523 1_455 S
C467 C451 1.429 . S
C467 C463 1.429 . S
C467 C468 1.523 . S
C468 C452 1.368 . S
C468 C464 1.368 . S
C468 C467 1.523 . S
H469 C444 0.950 1_554 S
H470 C446 0.950 . S
H471 C447 0.949 . S
H472 C449 0.950 . S
H473 C451 0.950 . S
C474 C475 1.349 . S
C474 C476 1.327 1_554 S
C474 H499 0.950 1_554 S
C475 C474 1.349 . S
C475 C491 1.349 . S
C476 C474 1.327 1_556 S
C476 C495 1.429 1_556 S
C476 H500 0.950 . S
C477 C494 1.574 . S
C477 C496 1.368 . S
C477 H501 0.949 . S
H478 C482 0.949 . S
C479 C480 1.349 . S
C479 C481 1.327 1_556 S
C479 H502 0.950 1_556 S
C480 C479 1.349 . S
C480 C492 1.349 . S
C481 C479 1.327 1_554 S
C481 C497 1.429 1_554 S
C481 H503 0.950 . S
C482 H478 0.949 . S
C482 C490 1.574 . S
C482 C498 1.368 . S
H483 C491 0.950 . S
H484 C489 0.950 . S
H485 C490 0.949 . S
H486 C492 0.950 . S
H487 C493 0.950 . S
H488 C494 0.949 . S
C489 H484 0.950 . S
C489 C491 1.327 . S
C489 C495 1.429 . S
C490 C482 1.574 . S
C490 H485 0.949 . S
C490 C496 1.368 1_556 S
C491 C475 1.349 . S
C491 H483 0.950 . S
C491 C489 1.327 . S
C492 C480 1.349 . S
C492 H486 0.950 . S
C492 C493 1.327 . S
C493 H487 0.950 . S
C493 C492 1.327 . S
C493 C497 1.429 . S
C494 C477 1.574 . S
C494 H488 0.949 . S
C494 C498 1.368 1_554 S
C495 C476 1.429 1_554 S
C495 C489 1.429 . S
C495 C496 1.523 1_565 S
C496 C477 1.368 . S
C496 C490 1.368 1_554 S
C496 C495 1.523 1_545 S
C497 C481 1.429 1_556 S
C497 C493 1.429 . S
C497 C498 1.523 . S
C498 C482 1.368 . S
C498 C494 1.368 1_556 S
C498 C497 1.523 . S
H499 C474 0.950 1_556 S
H500 C476 0.950 . S
H501 C477 0.949 . S
H502 C479 0.950 1_554 S
H503 C481 0.950 . S
C504 C505 1.349 . S
C504 C506 1.327 . S
C504 H529 0.950 . S
C505 C504 1.349 . S
C505 C521 1.349 . S
C506 C504 1.327 . S
C506 C525 1.429 . S
C506 H530 0.950 . S
C507 C524 1.574 . S
C507 C526 1.368 . S
C507 H531 0.949 . S
H508 C512 0.949 . S
C509 C510 1.349 . S
C509 C511 1.327 . S
C509 H532 0.950 . S
C510 C509 1.349 . S
C510 C522 1.349 . S
C511 C509 1.327 . S
C511 C527 1.429 . S
C511 H533 0.950 . S
C512 H508 0.949 . S
C512 C520 1.574 . S
C512 C528 1.368 . S
H513 C521 0.950 . S
H514 C519 0.950 . S
H515 C520 0.949 . S
H516 C522 0.950 . S
H517 C523 0.950 . S
H518 C524 0.949 . S
C519 H514 0.950 . S
C519 C521 1.327 . S
C519 C525 1.429 . S
C520 C512 1.574 . S
C520 H515 0.949 . S
C520 C526 1.368 . S
C521 C505 1.349 . S
C521 H513 0.950 . S
C521 C519 1.327 . S
C522 C510 1.349 . S
C522 H516 0.950 . S
C522 C523 1.327 . S
C523 H517 0.950 . S
C523 C522 1.327 . S
C523 C527 1.429 . S
C524 C507 1.574 . S
C524 H518 0.949 . S
C524 C528 1.368 . S
C525 C506 1.429 . S
C525 C519 1.429 . S
C525 C526 1.523 . S
C526 C507 1.368 . S
C526 C520 1.368 . S
C526 C525 1.523 . S
C527 C511 1.429 . S
C527 C523 1.429 . S
C527 C528 1.523 . S
C528 C512 1.368 . S
C528 C524 1.368 . S
C528 C527 1.523 . S
H529 C504 0.950 . S
H530 C506 0.950 . S
H531 C507 0.949 . S
H532 C509 0.950 . S
H533 C511 0.950 . S
C534 C535 1.349 . S
C534 C536 1.327 . S
C534 H559 0.950 . S
C535 C534 1.349 . S
C535 C551 1.349 . S
C536 C534 1.327 . S
C536 C555 1.429 . S
C536 H560 0.950 . S
C537 C554 1.574 . S
C537 C556 1.368 . S
C537 H561 0.949 . S
H538 C542 0.949 . S
C539 C540 1.349 . S
C539 C541 1.327 . S
C539 H562 0.950 . S
C540 C539 1.349 . S
C540 C552 1.349 . S
C541 C539 1.327 . S
C541 C557 1.429 . S
C541 H563 0.950 . S
C542 H538 0.949 . S
C542 C550 1.574 . S
C542 C558 1.368 . S
H543 C551 0.950 . S
H544 C549 0.950 . S
H545 C550 0.949 . S
H546 C552 0.950 . S
H547 C553 0.950 . S
H548 C554 0.949 . S
C549 H544 0.950 . S
C549 C551 1.327 . S
C549 C555 1.429 . S
C550 C542 1.574 . S
C550 H545 0.949 . S
C550 C556 1.368 . S
C551 C535 1.349 . S
C551 H543 0.950 . S
C551 C549 1.327 . S
C552 C540 1.349 . S
C552 H546 0.950 . S
C552 C553 1.327 . S
C553 H547 0.950 . S
C553 C552 1.327 . S
C553 C557 1.429 . S
C554 C537 1.574 . S
C554 H548 0.949 . S
C554 C558 1.368 . S
C555 C536 1.429 . S
C555 C549 1.429 . S
C555 C556 1.523 1_655 S
C556 C537 1.368 . S
C556 C550 1.368 . S
C556 C555 1.523 1_455 S
C557 C541 1.429 . S
C557 C553 1.429 . S
C557 C558 1.523 . S
C558 C542 1.368 . S
C558 C554 1.368 . S
C558 C557 1.523 . S
H559 C534 0.950 . S
H560 C536 0.950 . S
H561 C537 0.949 . S
H562 C539 0.950 . S
H563 C541 0.950 . S
C564 C565 1.349 . S
C564 C566 1.327 . S
C564 H589 0.950 . S
C565 C564 1.349 . S
C565 C581 1.349 . S
C566 C564 1.327 . S
C566 C585 1.429 . S
C566 H590 0.950 . S
C567 C584 1.574 . S
C567 C586 1.368 . S
C567 H591 0.949 . S
H568 C572 0.949 . S
C569 C570 1.349 . S
C569 C571 1.327 . S
C569 H592 0.950 . S
C570 C569 1.349 . S
C570 C582 1.349 . S
C571 C569 1.327 . S
C571 C587 1.429 . S
C571 H593 0.950 . S
C572 H568 0.949 . S
C572 C580 1.574 . S
C572 C588 1.368 . S
H573 C581 0.950 . S
H574 C579 0.950 . S
H575 C580 0.949 . S
H576 C582 0.950 . S
H577 C583 0.950 . S
H578 C584 0.949 . S
C579 H574 0.950 . S
C579 C581 1.327 . S
C579 C585 1.429 . S
C580 C572 1.574 . S
C580 H575 0.949 . S
C580 C586 1.368 . S
C581 C565 1.349 . S
C581 H573 0.950 . S
C581 C579 1.327 . S
C582 C570 1.349 . S
C582 H576 0.950 . S
C582 C583 1.327 . S
C583 H577 0.950 . S
C583 C582 1.327 . S
C583 C587 1.429 . S
C584 C567 1.574 . S
C584 H578 0.949 . S
C584 C588 1.368 . S
C585 C566 1.429 . S
C585 C579 1.429 . S
C585 C586 1.523 . S
C586 C567 1.368 . S
C586 C580 1.368 . S
C586 C585 1.523 . S
C587 C571 1.429 . S
C587 C583 1.429 . S
C587 C588 1.523 . S
C588 C572 1.368 . S
C588 C584 1.368 . S
C588 C587 1.523 . S
H589 C564 0.950 . S
H590 C566 0.950 . S
H591 C567 0.949 . S
H592 C569 0.950 . S
H593 C571 0.950 . S
C594 C595 1.349 . S
C594 C596 1.327 . S
C594 H619 0.950 . S
C595 C594 1.349 . S
C595 C611 1.349 . S
C596 C594 1.327 . S
C596 C615 1.429 . S
C596 H620 0.950 . S
C597 C614 1.574 . S
C597 C616 1.368 . S
C597 H621 0.949 . S
H598 C602 0.949 . S
C599 C600 1.349 . S
C599 C601 1.327 . S
C599 H622 0.950 . S
C600 C599 1.349 . S
C600 C612 1.349 . S
C601 C599 1.327 . S
C601 C617 1.429 . S
C601 H623 0.950 . S
C602 H598 0.949 . S
C602 C610 1.574 . S
C602 C618 1.368 . S
H603 C611 0.950 . S
H604 C609 0.950 . S
H605 C610 0.949 . S
H606 C612 0.950 . S
H607 C613 0.950 . S
H608 C614 0.949 . S
C609 H604 0.950 . S
C609 C611 1.327 . S
C609 C615 1.429 . S
C610 C602 1.574 . S
C610 H605 0.949 . S
C610 C616 1.368 . S
C611 C595 1.349 . S
C611 H603 0.950 . S
C611 C609 1.327 . S
C612 C600 1.349 . S
C612 H606 0.950 . S
C612 C613 1.327 . S
C613 H607 0.950 . S
C613 C612 1.327 . S
C613 C617 1.429 . S
C614 C597 1.574 . S
C614 H608 0.949 . S
C614 C618 1.368 . S
C615 C596 1.429 . S
C615 C609 1.429 . S
C615 C616 1.523 . S
C616 C597 1.368 . S
C616 C610 1.368 . S
C616 C615 1.523 . S
C617 C601 1.429 . S
C617 C613 1.429 . S
C617 C618 1.523 . S
C618 C602 1.368 . S
C618 C614 1.368 . S
C618 C617 1.523 . S
H619 C594 0.950 . S
H620 C596 0.950 . S
H621 C597 0.949 . S
H622 C599 0.950 . S
H623 C601 0.950 . S
C624 C625 1.349 . S
C624 C626 1.327 . S
C624 H649 0.950 . S
C625 C624 1.349 . S
C625 C641 1.349 . S
C626 C624 1.327 . S
C626 C645 1.429 . S
C626 H650 0.950 . S
C627 C644 1.574 . S
C627 C646 1.368 . S
C627 H651 0.949 . S
H628 C632 0.949 . S
C629 C630 1.349 . S
C629 C631 1.327 . S
C629 H652 0.950 . S
C630 C629 1.349 . S
C630 C642 1.349 . S
C631 C629 1.327 . S
C631 C647 1.429 . S
C631 H653 0.950 . S
C632 H628 0.949 . S
C632 C640 1.574 . S
C632 C648 1.368 . S
H633 C641 0.950 . S
H634 C639 0.950 . S
H635 C640 0.949 . S
H636 C642 0.950 . S
H637 C643 0.950 . S
H638 C644 0.949 . S
C639 H634 0.950 . S
C639 C641 1.327 . S
C639 C645 1.429 . S
C640 C632 1.574 . S
C640 H635 0.949 . S
C640 C646 1.368 . S
C641 C625 1.349 . S
C641 H633 0.950 . S
C641 C639 1.327 . S
C642 C630 1.349 . S
C642 H636 0.950 . S
C642 C643 1.327 . S
C643 H637 0.950 . S
C643 C642 1.327 . S
C643 C647 1.429 . S
C644 C627 1.574 . S
C644 H638 0.949 . S
C644 C648 1.368 . S
C645 C626 1.429 . S
C645 C639 1.429 . S
C645 C646 1.523 . S
C646 C627 1.368 . S
C646 C640 1.368 . S
C646 C645 1.523 . S
C647 C631 1.429 . S
C647 C643 1.429 . S
C647 C648 1.523 . S
C648 C632 1.368 . S
C648 C644 1.368 . S
C648 C647 1.523 . S
H649 C624 0.950 . S
H650 C626 0.950 . S
H651 C627 0.949 . S
H652 C629 0.950 . S
H653 C631 0.950 . S
C654 C655 1.349 . S
C654 C656 1.327 . S
C654 H679 0.950 . S
C655 C654 1.349 . S
C655 C671 1.349 1_554 S
C656 C654 1.327 . S
C656 C675 1.429 1_554 S
C656 H680 0.950 . S
C657 C674 1.574 . S
C657 C676 1.368 . S
C657 H681 0.949 . S
H658 C662 0.949 . S
C659 C660 1.349 . S
C659 C661 1.327 . S
C659 H682 0.950 . S
C660 C659 1.349 . S
C660 C672 1.349 . S
C661 C659 1.327 . S
C661 C677 1.429 . S
C661 H683 0.950 . S
C662 H658 0.949 . S
C662 C670 1.574 . S
C662 C678 1.368 . S
H663 C671 0.950 . S
H664 C669 0.950 . S
H665 C670 0.949 1_554 S
H666 C672 0.950 . S
H667 C673 0.950 . S
H668 C674 0.949 . S
C669 H664 0.950 . S
C669 C671 1.327 . S
C669 C675 1.429 . S
C670 C662 1.574 . S
C670 H665 0.949 1_556 S
C670 C676 1.368 . S
C671 C655 1.349 1_556 S
C671 H663 0.950 . S
C671 C669 1.327 . S
C672 C660 1.349 . S
C672 H666 0.950 . S
C672 C673 1.327 . S
C673 H667 0.950 . S
C673 C672 1.327 . S
C673 C677 1.429 . S
C674 C657 1.574 . S
C674 H668 0.949 . S
C674 C678 1.368 . S
C675 C656 1.429 1_556 S
C675 C669 1.429 . S
C675 C676 1.523 . S
C676 C657 1.368 . S
C676 C670 1.368 . S
C676 C675 1.523 . S
C677 C661 1.429 . S
C677 C673 1.429 . S
C677 C678 1.523 . S
C678 C662 1.368 . S
C678 C674 1.368 . S
C678 C677 1.523 . S
H679 C654 0.950 . S
H680 C656 0.950 . S
H681 C657 0.949 . S
H682 C659 0.950 . S
H683 C661 0.950 . S
C684 C685 1.349 . S
C684 C686 1.327 . S
C684 H709 0.950 . S
C685 C684 1.349 . S
C685 C701 1.349 . S
C686 C684 1.327 . S
C686 C705 1.429 . S
C686 H710 0.950 . S
C687 C704 1.574 . S
C687 C706 1.368 . S
C687 H711 0.949 . S
H688 C692 0.949 . S
C689 C690 1.349 . S
C689 C691 1.327 . S
C689 H712 0.950 . S
C690 C689 1.349 . S
C690 C702 1.349 1_556 S
C691 C689 1.327 . S
C691 C707 1.429 1_556 S
C691 H713 0.950 . S
C692 H688 0.949 . S
C692 C700 1.574 . S
C692 C708 1.368 . S
H693 C701 0.950 . S
H694 C699 0.950 . S
H695 C700 0.949 . S
H696 C702 0.950 . S
H697 C703 0.950 . S
H698 C704 0.949 1_556 S
C699 H694 0.950 . S
C699 C701 1.327 . S
C699 C705 1.429 . S
C700 C692 1.574 . S
C700 H695 0.949 . S
C700 C706 1.368 . S
C701 C685 1.349 . S
C701 H693 0.950 . S
C701 C699 1.327 . S
C702 C690 1.349 1_554 S
C702 H696 0.950 . S
C702 C703 1.327 . S
C703 H697 0.950 . S
C703 C702 1.327 . S
C703 C707 1.429 . S
C704 C687 1.574 . S
C704 H698 0.949 1_554 S
C704 C708 1.368 . S
C705 C686 1.429 . S
C705 C699 1.429 . S
C705 C706 1.523 . S
C706 C687 1.368 . S
C706 C700 1.368 . S
C706 C705 1.523 . S
C707 C691 1.429 1_554 S
C707 C703 1.429 . S
C707 C708 1.523 . S
C708 C692 1.368 . S
C708 C704 1.368 . S
C708 C707 1.523 . S
H709 C684 0.950 . S
H710 C686 0.950 . S
H711 C687 0.949 . S
H712 C689 0.950 . S
H713 C691 0.950 . S
C714 C715 1.349 . S
C714 C716 1.327 . S
C714 H739 0.950 . S
C715 C714 1.349 . S
C715 C731 1.349 . S
C716 C714 1.327 . S
C716 C735 1.429 . S
C716 H740 0.950 . S
C717 C734 1.574 . S
C717 C736 1.368 . S
C717 H741 0.949 . S
H718 C722 0.949 . S
C719 C720 1.349 . S
C719 C721 1.327 . S
C719 H742 0.950 . S
C720 C719 1.349 . S
C720 C732 1.349 . S
C721 C719 1.327 . S
C721 C737 1.429 . S
C721 H743 0.950 . S
C722 H718 0.949 . S
C722 C730 1.574 . S
C722 C738 1.368 . S
H723 C731 0.950 . S
H724 C729 0.950 . S
H725 C730 0.949 . S
H726 C732 0.950 . S
H727 C733 0.950 . S
H728 C734 0.949 . S
C729 H724 0.950 . S
C729 C731 1.327 . S
C729 C735 1.429 . S
C730 C722 1.574 . S
C730 H725 0.949 . S
C730 C736 1.368 . S
C731 C715 1.349 . S
C731 H723 0.950 . S
C731 C729 1.327 . S
C732 C720 1.349 . S
C732 H726 0.950 . S
C732 C733 1.327 . S
C733 H727 0.950 . S
C733 C732 1.327 . S
C733 C737 1.429 . S
C734 C717 1.574 . S
C734 H728 0.949 . S
C734 C738 1.368 . S
C735 C716 1.429 . S
C735 C729 1.429 . S
C735 C736 1.523 . S
C736 C717 1.368 . S
C736 C730 1.368 . S
C736 C735 1.523 . S
C737 C721 1.429 . S
C737 C733 1.429 . S
C737 C738 1.523 . S
C738 C722 1.368 . S
C738 C734 1.368 . S
C738 C737 1.523 . S
H739 C714 0.950 . S
H740 C716 0.950 . S
H741 C717 0.949 . S
H742 C719 0.950 . S
H743 C721 0.950 . S
C205 C0 0.811 . S
C210 C29 0.811 . S
C235 C63 0.811 . S
C240 C34 0.811 . S
C265 C97 0.811 . S
C270 C68 0.811 . S
C295 C102 0.811 . S
C300 C131 0.811 . S
C325 C165 0.811 . S
C330 C136 0.811 . S
C355 C199 0.811 . S
C360 C170 0.811 . S
C385 C13 1.660 . S
C390 C183 1.660 . S
C415 C8 1.752 . S
C420 C42 1.752 . S
C445 C81 1.660 . S
C450 C47 1.660 . S
C475 C110 1.752 . S
C480 C76 1.752 . S
C505 C149 1.660 . S
C510 C115 1.660 . S
C535 C144 1.752 . S
C540 C178 1.752 . S
C565 C4 1.916 . S
C570 C153 1.967 . S
C595 C51 1.967 . S
C600 C174 1.916 . S
C625 C72 1.916 . S
C630 C17 1.967 . S
C655 C119 1.967 . S
C660 C38 1.916 . S
C685 C140 1.916 . S
C690 C85 1.967 . S
C715 C106 1.916 . S
C720 C187 1.967 . S
