# Generated by pormake.
# Topology lhb, (8)-cn, num edge types: 1
# Building blocks:
#     Node 0, Type 0, BuildingBlock: AJUNOK_clean_sbu_0, # of connection points: 8
#     Node 1, Type 0, BuildingBlock: AJUNOK_clean_sbu_0, # of connection points: 8
#     Node 2, Type 0, BuildingBlock: AJUNOK_clean_sbu_0, # of connection points: 8
#     Node 3, Type 0, BuildingBlock: AJUNOK_clean_sbu_0, # of connection points: 8
#     Node 4, Type 0, BuildingBlock: AJUNOK_clean_sbu_0, # of connection points: 8
#     Node 5, Type 0, BuildingBlock: AJUNOK_clean_sbu_0, # of connection points: 8
#     Node 6, Type 0, BuildingBlock: AJUNOK_clean_sbu_0, # of connection points: 8
#     Node 7, Type 0, BuildingBlock: AJUNOK_clean_sbu_0, # of connection points: 8
#     Edge 8, Type (0, 0), None
#     Edge 9, Type (0, 0), None
#     Edge 10, Type (0, 0), None
#     Edge 11, Type (0, 0), None
#     Edge 12, Type (0, 0), None
#     Edge 13, Type (0, 0), None
#     Edge 14, Type (0, 0), None
#     Edge 15, Type (0, 0), None
#     Edge 16, Type (0, 0), None
#     Edge 17, Type (0, 0), None
#     Edge 18, Type (0, 0), None
#     Edge 19, Type (0, 0), None
#     Edge 20, Type (0, 0), None
#     Edge 21, Type (0, 0), None
#     Edge 22, Type (0, 0), None
#     Edge 23, Type (0, 0), None
#     Edge 24, Type (0, 0), None
#     Edge 25, Type (0, 0), None
#     Edge 26, Type (0, 0), None
#     Edge 27, Type (0, 0), None
#     Edge 28, Type (0, 0), None
#     Edge 29, Type (0, 0), None
#     Edge 30, Type (0, 0), None
#     Edge 31, Type (0, 0), None
#     Edge 32, Type (0, 0), None
#     Edge 33, Type (0, 0), None
#     Edge 34, Type (0, 0), None
#     Edge 35, Type (0, 0), None
#     Edge 36, Type (0, 0), None
#     Edge 37, Type (0, 0), None
#     Edge 38, Type (0, 0), None
#     Edge 39, Type (0, 0), None
# Relax obj value: 0.040
# Max RMSD: 0.127
# Mean RMSD: 0.127
data_MOF--net-lhb--node1-AJUNOK_clean_sbu_0--edge1-none
_symmetry_space_group_name_H-M    P1
_symmetry_Int_Tables_number       1
_symmetry_cell_setting            triclinic
loop_
_symmetry_equiv_pos_as_xyz
'x, y, z'
_cell_length_a     21.79443
_cell_length_b     5.8192466
_cell_length_c     45.951208
_cell_angle_alpha  89.989674
_cell_angle_beta   89.999902
_cell_angle_gamma 89.986118
loop_
_atom_site_label
_atom_site_type_symbol
_atom_site_fract_x
_atom_site_fract_y
_atom_site_fract_z
_atom_type_partial_charge
Cd0 Cd 0.04534 0.98057 1.00565 0.0
Cd1 Cd 0.83628 -0.00016 1.00558 0.0
C2 C 0.07197 0.70639 0.94664 0.0
N3 N 0.043 0.89986 0.95601 0.0
C4 C 0.02247 0.01263 0.90702 0.0
C5 C 0.05318 0.81628 0.89682 0.0
C6 C 0.07699 0.65944 0.91697 0.0
C7 C 0.01789 0.05164 0.93695 0.0
H8 H 0.09296 0.59219 0.96219 0.0
H9 H -0.00438 0.20525 0.94499 0.0
C10 C 0.92433 0.39585 0.00696 0.0
C11 C 0.80545 0.17162 0.07113 0.0
C12 C 0.79539 0.14847 0.10105 0.0
C13 C 0.81408 0.94689 0.11529 0.0
C14 C 0.84416 0.7756 0.09931 0.0
C15 C 0.85366 0.80636 0.06958 0.0
N16 N 0.83396 0.00093 0.05612 0.0
H17 H 0.78854 0.32132 0.05969 0.0
H18 H 0.8748 0.67103 0.05704 0.0
C19 C 0.80976 0.27426 0.94656 0.0
N20 N 0.83866 0.08063 0.95593 0.0
C21 C 0.85907 0.9677 0.90694 0.0
C22 C 0.82842 0.1642 0.89674 0.0
C23 C 0.80471 0.32121 0.91688 0.0
C24 C 0.86368 0.9287 0.93687 0.0
H25 H 0.78883 0.3886 0.9621 0.0
H26 H 0.8859 0.77496 0.94491 0.0
C27 C -0.04271 0.58456 0.00697 0.0
C28 C 0.16081 0.18612 1.00323 0.0
N29 N 0.04758 0.97942 0.05619 0.0
C30 C 0.07606 0.80872 0.07122 0.0
C31 C 0.08608 0.83186 0.10115 0.0
C32 C 0.06738 0.03345 0.11537 0.0
C33 C 0.03733 0.20475 0.09938 0.0
C34 C 0.02785 0.17399 0.06964 0.0
C35 C 0.72081 0.79433 1.00314 0.0
O36 O -0.05015 0.20123 0.00624 0.0
O37 O 0.86627 0.40407 0.00775 0.0
O38 O 0.93177 0.77917 0.00622 0.0
O39 O 0.01536 0.57633 0.0078 0.0
O40 O 0.11216 0.30624 1.00248 0.0
O41 O 0.15552 0.96907 1.00484 0.0
O42 O 0.76945 0.67419 1.0024 0.0
O43 O 0.7261 0.01138 1.00474 0.0
H44 H 0.09298 0.65902 0.05979 0.0
H45 H 0.00673 0.30933 0.05709 0.0
H46 H 0.0027 0.13498 0.89202 0.0
H47 H 0.10148 0.50749 0.90982 0.0
H48 H 0.7714 0.28228 0.11271 0.0
H49 H 0.8597 0.61886 0.1097 0.0
H50 H 0.87876 0.84521 0.89194 0.0
H51 H 0.78027 0.47329 0.90974 0.0
H52 H 0.11005 0.69805 0.11281 0.0
H53 H 0.02178 0.36149 0.10975 0.0
Cd54 Cd 0.29519 0.24967 0.25559 0.0
Cd55 Cd 0.0862 0.23057 0.25565 0.0
C56 C 0.32163 0.52416 0.19657 0.0
N57 N 0.29278 0.33049 0.20594 0.0
C58 C 0.27238 0.21756 0.15695 0.0
C59 C 0.30298 0.41409 0.14675 0.0
C60 C 0.32667 0.57112 0.16689 0.0
C61 C 0.26779 0.17854 0.18688 0.0
H62 H 0.34254 0.63852 0.21211 0.0
H63 H 0.2456 0.02477 0.19492 0.0
C64 C 0.17421 0.83448 0.25698 0.0
C65 C 0.05556 0.0587 0.32123 0.0
C66 C 0.04557 0.08181 0.35115 0.0
C67 C 0.06426 0.28339 0.36538 0.0
C68 C 0.09428 0.45469 0.34938 0.0
C69 C 0.10373 0.42396 0.31964 0.0
N70 N 0.08401 0.22942 0.30619 0.0
H71 H 0.03865 0.909 0.3098 0.0
H72 H 0.12483 0.55931 0.30709 0.0
C73 C 0.05966 0.95632 0.19664 0.0
N74 N 0.08858 0.14983 0.20601 0.0
C75 C 0.10908 0.26264 0.15702 0.0
C76 C 0.07842 0.06626 0.14682 0.0
C77 C 0.05465 0.90937 0.16696 0.0
C78 C 0.11365 0.30165 0.18695 0.0
H79 H 0.03869 0.84208 0.21218 0.0
H80 H 0.13589 0.4553 0.19498 0.0
C81 C 0.20718 0.64575 0.25697 0.0
C82 C 0.41069 0.04423 0.25315 0.0
N83 N 0.29747 0.25082 0.30613 0.0
C84 C 0.32595 0.42153 0.32114 0.0
C85 C 0.33598 0.39845 0.35106 0.0
C86 C 0.3173 0.19691 0.36531 0.0
C87 C 0.28725 0.0256 0.34933 0.0
C88 C 0.27777 0.05629 0.31959 0.0
C89 C -0.0293 0.43606 0.25322 0.0
O90 O 0.19972 0.02907 0.25623 0.0
O91 O 0.11615 0.8263 0.2578 0.0
O92 O 0.18167 0.45116 0.25624 0.0
O93 O 0.26524 0.65393 0.25776 0.0
O94 O 0.36207 0.92405 0.25241 0.0
O95 O 0.40536 0.26127 0.25475 0.0
O96 O 0.01933 0.5562 0.25247 0.0
O97 O -0.02398 0.21901 0.25484 0.0
H98 H 0.34285 0.5712 0.3097 0.0
H99 H 0.25665 0.92095 0.30706 0.0
H100 H 0.25271 0.09506 0.14195 0.0
H101 H 0.35108 0.72322 0.15975 0.0
H102 H 0.02164 0.94798 0.36283 0.0
H103 H 0.10982 0.61142 0.35975 0.0
H104 H 0.12882 0.38502 0.14202 0.0
H105 H 0.03019 0.75738 0.15982 0.0
H106 H 0.35995 0.53228 0.36272 0.0
H107 H 0.27172 0.8689 0.35972 0.0
Cd108 Cd 0.58621 0.7307 0.25555 0.0
Cd109 Cd 0.79521 0.74979 0.25558 0.0
C110 C 0.55978 0.45638 0.19652 0.0
N111 N 0.58864 0.64999 0.2059 0.0
C112 C 0.60916 0.76285 0.15692 0.0
C113 C 0.57855 0.56639 0.1467 0.0
C114 C 0.55479 0.40942 0.16685 0.0
C115 C 0.6137 0.80187 0.18685 0.0
H116 H 0.53882 0.34207 0.21206 0.0
H117 H 0.6359 0.95558 0.19488 0.0
C118 C 0.70719 0.14588 0.25692 0.0
C119 C 0.82595 0.92163 0.32113 0.0
C120 C 0.83602 0.8985 0.35105 0.0
C121 C 0.81734 0.69694 0.36529 0.0
C122 C 0.78727 0.52568 0.34932 0.0
C123 C 0.77775 0.55643 0.31958 0.0
N124 N 0.79745 0.75096 0.30612 0.0
H125 H 0.84285 0.07129 0.30969 0.0
H126 H 0.75661 0.42111 0.30705 0.0
C127 C 0.8217 0.02422 0.19656 0.0
N128 N 0.79285 0.83056 0.20593 0.0
C129 C 0.77243 0.71757 0.15695 0.0
C130 C 0.80302 0.9141 0.14674 0.0
C131 C 0.82672 0.07116 0.16688 0.0
C132 C 0.76785 0.67858 0.18688 0.0
H133 H 0.8426 0.13862 0.2121 0.0
H134 H 0.74566 0.52483 0.19492 0.0
C135 C 0.67423 0.33462 0.25692 0.0
C136 C 0.4707 0.93611 0.25313 0.0
N137 N 0.58396 0.72959 0.30609 0.0
C138 C 0.55548 0.55891 0.32111 0.0
C139 C 0.54544 0.58205 0.35103 0.0
C140 C 0.56412 0.78363 0.36526 0.0
C141 C 0.59416 0.95491 0.34927 0.0
C142 C 0.60366 0.92416 0.31954 0.0
C143 C 0.9107 0.54423 0.2532 0.0
O144 O 0.68169 0.9513 0.25618 0.0
O145 O 0.76526 0.15406 0.25774 0.0
O146 O 0.69973 0.52921 0.25619 0.0
O147 O 0.61616 0.32644 0.25772 0.0
O148 O 0.51932 0.0563 0.25237 0.0
O149 O 0.47604 0.71906 0.25473 0.0
O150 O 0.86207 0.42409 0.25244 0.0
O151 O 0.90538 0.76128 0.25478 0.0
H152 H 0.53858 0.40922 0.30968 0.0
H153 H 0.62477 0.05949 0.30699 0.0
H154 H 0.62889 0.8853 0.14192 0.0
H155 H 0.53037 0.25738 0.1597 0.0
H156 H 0.86 0.03228 0.3627 0.0
H157 H 0.77173 0.36896 0.35971 0.0
H158 H 0.75275 0.59505 0.14195 0.0
H159 H 0.85112 0.22326 0.15973 0.0
H160 H 0.52148 0.44824 0.3627 0.0
H161 H 0.6097 0.11164 0.35965 0.0
Cd162 Cd 0.04536 0.48058 0.50565 0.0
Cd163 Cd 0.8363 0.49984 0.50558 0.0
C164 C 0.07203 0.20642 0.44665 0.0
N165 N 0.04304 0.39984 0.45601 0.0
C166 C 0.02249 0.51252 0.40702 0.0
C167 C 0.05322 0.31622 0.39682 0.0
C168 C 0.07706 0.15944 0.41697 0.0
C169 C 0.01791 0.55155 0.43695 0.0
H170 H 0.09304 0.09228 0.46219 0.0
H171 H -0.00439 0.70513 0.44498 0.0
C172 C 0.92436 0.89585 0.50696 0.0
C173 C 0.80545 0.67163 0.57112 0.0
C174 C 0.79539 0.6485 0.60105 0.0
C175 C 0.81409 0.44693 0.61529 0.0
C176 C 0.84416 0.27563 0.59932 0.0
C177 C 0.85368 0.30637 0.56958 0.0
N178 N 0.83397 0.50094 0.55611 0.0
H179 H 0.78855 0.82133 0.55968 0.0
H180 H 0.87482 0.17104 0.55704 0.0
C181 C 0.8098 0.77426 0.44656 0.0
N182 N 0.83868 0.58061 0.45593 0.0
C183 C 0.85907 0.46763 0.40694 0.0
C184 C 0.82844 0.66413 0.39673 0.0
C185 C 0.80474 0.82119 0.41688 0.0
C186 C 0.86369 0.42864 0.43687 0.0
H187 H 0.78887 0.88863 0.4621 0.0
H188 H 0.8859 0.27489 0.44491 0.0
C189 C -0.04269 0.08456 0.50697 0.0
C190 C 0.16083 0.68616 0.50323 0.0
N191 N 0.0476 0.47944 0.55619 0.0
C192 C 0.07608 0.30874 0.57122 0.0
C193 C 0.0861 0.3319 0.60115 0.0
C194 C 0.0674 0.53349 0.61537 0.0
C195 C 0.03734 0.70478 0.59938 0.0
C196 C 0.02787 0.67401 0.56964 0.0
C197 C 0.72082 0.29437 0.50313 0.0
O198 O -0.05013 0.70123 0.50624 0.0
O199 O 0.86629 0.90407 0.50774 0.0
O200 O 0.93179 0.27918 0.50622 0.0
O201 O 0.01538 0.07634 0.5078 0.0
O202 O 0.11218 0.80626 0.50248 0.0
O203 O 0.15554 0.4691 0.50484 0.0
O204 O 0.76946 0.1742 0.5024 0.0
O205 O 0.72612 0.51141 0.50473 0.0
H206 H 0.093 0.15904 0.5598 0.0
H207 H 0.00675 0.80934 0.55709 0.0
H208 H 0.00271 0.63482 0.39202 0.0
H209 H 0.10157 0.00752 0.40983 0.0
H210 H 0.7714 0.7823 0.6127 0.0
H211 H 0.85971 0.1189 0.6097 0.0
H212 H 0.87876 0.34511 0.39194 0.0
H213 H 0.7803 0.97328 0.40974 0.0
H214 H 0.11007 0.19809 0.61282 0.0
H215 H 0.02179 0.86153 0.60975 0.0
Cd216 Cd 0.08619 0.7307 0.75565 0.0
Cd217 Cd 0.29519 0.7498 0.75559 0.0
C218 C 0.05965 0.45644 0.69664 0.0
N219 N 0.08857 0.64994 0.70601 0.0
C220 C 0.1091 0.76269 0.65702 0.0
C221 C 0.07843 0.56632 0.64682 0.0
C222 C 0.05464 0.40946 0.66697 0.0
C223 C 0.11366 0.80173 0.68695 0.0
H224 H 0.03867 0.34223 0.71218 0.0
H225 H 0.1359 0.95536 0.69498 0.0
C226 C 0.20717 0.14588 0.75697 0.0
C227 C 0.32594 0.92162 0.82114 0.0
C228 C 0.33598 0.89852 0.85107 0.0
C229 C 0.3173 0.69696 0.86531 0.0
C230 C 0.28725 0.52566 0.84933 0.0
C231 C 0.27776 0.55637 0.81959 0.0
N232 N 0.29747 0.75091 0.80613 0.0
H233 H 0.34284 0.0713 0.80971 0.0
H234 H 0.25665 0.42103 0.80706 0.0
C235 C 0.32162 0.0243 0.69657 0.0
N236 N 0.29278 0.83061 0.70594 0.0
C237 C 0.27239 0.71765 0.65696 0.0
C238 C 0.30298 0.9142 0.64675 0.0
C239 C 0.32665 0.07126 0.66689 0.0
C240 C 0.26779 0.67863 0.68689 0.0
H241 H 0.34252 0.13868 0.71211 0.0
H242 H 0.24561 0.52485 0.69492 0.0
C243 C 0.17421 0.33461 0.75698 0.0
C244 C -0.0293 0.9362 0.75322 0.0
N245 N 0.08399 0.72953 0.80619 0.0
C246 C 0.05553 0.55881 0.82122 0.0
C247 C 0.04553 0.58191 0.85115 0.0
C248 C 0.06422 0.78348 0.86538 0.0
C249 C 0.09425 0.95478 0.84938 0.0
C250 C 0.10371 0.92406 0.81964 0.0
C251 C 0.41069 0.54438 0.75315 0.0
O252 O 0.18167 0.95129 0.75625 0.0
O253 O 0.26524 0.15406 0.75776 0.0
O254 O 0.19971 0.5292 0.75623 0.0
O255 O 0.11614 0.32643 0.7578 0.0
O256 O 0.01933 0.05634 0.75247 0.0
O257 O -0.02398 0.71916 0.75483 0.0
O258 O 0.36207 0.42419 0.75241 0.0
O259 O 0.40536 0.76142 0.75475 0.0
H260 H 0.03862 0.40913 0.80979 0.0
H261 H 0.12481 0.05941 0.80709 0.0
H262 H 0.12885 0.88504 0.64202 0.0
H263 H 0.03018 0.25748 0.65982 0.0
H264 H 0.35994 0.03234 0.86273 0.0
H265 H 0.27172 0.36894 0.85972 0.0
H266 H 0.25272 0.59512 0.64196 0.0
H267 H 0.35106 0.22337 0.65975 0.0
H268 H 0.02159 0.44809 0.86282 0.0
H269 H 0.10979 0.1115 0.85976 0.0
Cd270 Cd 0.58621 0.23085 0.75554 0.0
Cd271 Cd 0.79521 0.24994 0.75558 0.0
C272 C 0.55979 0.95653 0.69652 0.0
N273 N 0.58865 0.15013 0.70589 0.0
C274 C 0.60918 0.26298 0.65691 0.0
C275 C 0.57856 0.06652 0.6467 0.0
C276 C 0.5548 0.90956 0.66685 0.0
C277 C 0.61372 0.30201 0.68684 0.0
H278 H 0.53883 0.84222 0.71206 0.0
H279 H 0.63592 0.45571 0.69488 0.0
C280 C 0.70719 0.64604 0.75692 0.0
C281 C 0.82594 0.42174 0.82113 0.0
C282 C 0.836 0.39859 0.85105 0.0
C283 C 0.81733 0.19702 0.8653 0.0
C284 C 0.78726 0.02577 0.84932 0.0
C285 C 0.77774 0.05654 0.81958 0.0
N286 N 0.79745 0.25108 0.80612 0.0
H287 H 0.84285 0.57141 0.80969 0.0
H288 H 0.75661 0.92122 0.80705 0.0
C289 C 0.82168 0.52436 0.69655 0.0
N290 N 0.79285 0.33067 0.70593 0.0
C291 C 0.77244 0.2176 0.65695 0.0
C292 C 0.80302 0.41415 0.64673 0.0
C293 C 0.8267 0.57127 0.66687 0.0
C294 C 0.76786 0.17865 0.68688 0.0
H295 H 0.84257 0.63881 0.71209 0.0
H296 H 0.74569 0.02488 0.69493 0.0
C297 C 0.67423 0.83477 0.75692 0.0
C298 C 0.47071 0.43626 0.75313 0.0
N299 N 0.58397 0.2297 0.80608 0.0
C300 C 0.55549 0.059 0.82111 0.0
C301 C 0.54546 0.0821 0.85103 0.0
C302 C 0.56414 0.28367 0.86526 0.0
C303 C 0.59418 0.45497 0.84928 0.0
C304 C 0.60367 0.42425 0.81954 0.0
C305 C 0.9107 0.04438 0.7532 0.0
O306 O 0.68169 0.45145 0.75618 0.0
O307 O 0.76526 0.65421 0.75774 0.0
O308 O 0.69973 0.02936 0.75619 0.0
O309 O 0.61616 0.82659 0.75771 0.0
O310 O 0.51932 0.55645 0.75237 0.0
O311 O 0.47604 0.21921 0.75473 0.0
O312 O 0.86207 0.92424 0.75244 0.0
O313 O 0.90538 0.26144 0.75478 0.0
H314 H 0.53859 0.90932 0.80968 0.0
H315 H 0.62478 0.55959 0.80699 0.0
H316 H 0.6289 0.38542 0.64191 0.0
H317 H 0.53038 0.75751 0.6597 0.0
H318 H 0.85999 0.53237 0.86271 0.0
H319 H 0.77172 0.86905 0.8597 0.0
H320 H 0.75278 0.09504 0.64196 0.0
H321 H 0.85109 0.72339 0.65972 0.0
H322 H 0.52151 0.94828 0.8627 0.0
H323 H 0.60971 0.61169 0.85965 0.0
Cd324 Cd 0.54534 0.98076 0.50554 0.0
Cd325 Cd 0.33628 2e-05 0.5056 0.0
C326 C 0.57186 0.70651 0.44653 0.0
N327 N 0.54294 0.90005 0.4559 0.0
C328 C 0.52239 0.01282 0.40691 0.0
C329 C 0.55307 0.81643 0.39671 0.0
C330 C 0.57687 0.65953 0.41685 0.0
C331 C 0.51783 0.05185 0.43684 0.0
H332 H 0.59285 0.59227 0.46207 0.0
H333 H 0.49558 0.20551 0.44488 0.0
C334 C 0.42433 0.39605 0.50693 0.0
C335 C 0.30546 0.17178 0.57114 0.0
C336 C 0.29538 0.1486 0.60106 0.0
C337 C 0.31407 0.94702 0.61531 0.0
C338 C 0.34417 0.77577 0.59933 0.0
C339 C 0.35371 0.80657 0.5696 0.0
N340 N 0.33399 0.00114 0.55613 0.0
H341 H 0.28855 0.32147 0.5597 0.0
H342 H 0.37486 0.67126 0.55706 0.0
C343 C 0.30971 0.27436 0.44657 0.0
N344 N 0.33859 0.08072 0.45595 0.0
C345 C 0.359 0.96764 0.40697 0.0
C346 C 0.32837 0.16414 0.39675 0.0
C347 C 0.30466 0.32124 0.41689 0.0
C348 C 0.3636 0.92871 0.4369 0.0
H349 H 0.2888 0.38878 0.46211 0.0
H350 H 0.38581 0.77498 0.44494 0.0
C351 C 0.45729 0.58476 0.50692 0.0
C352 C 0.66082 0.18622 0.50312 0.0
N353 N 0.54765 0.97967 0.55608 0.0
C354 C 0.57616 0.80899 0.5711 0.0
C355 C 0.58621 0.83215 0.60103 0.0
C356 C 0.56752 0.03374 0.61526 0.0
C357 C 0.53745 0.20503 0.59927 0.0
C358 C 0.52794 0.17426 0.56954 0.0
C359 C 0.22082 0.79438 0.50321 0.0
O360 O 0.44985 0.20144 0.50618 0.0
O361 O 0.36627 0.40426 0.50775 0.0
O362 O 0.43177 0.77938 0.5062 0.0
O363 O 0.51536 0.57654 0.50771 0.0
O364 O 0.61219 0.30638 0.50237 0.0
O365 O 0.65552 0.96916 0.50472 0.0
O366 O 0.26947 0.67428 0.50246 0.0
O367 O 0.2261 0.01145 0.50479 0.0
H368 H 0.59306 0.65928 0.55968 0.0
H369 H 0.5068 0.30959 0.55699 0.0
H370 H 0.50263 0.13521 0.39191 0.0
H371 H 0.60134 0.50754 0.40971 0.0
H372 H 0.27137 0.28236 0.61272 0.0
H373 H 0.35971 0.61903 0.60972 0.0
H374 H 0.37869 0.84509 0.39197 0.0
H375 H 0.28024 0.47333 0.40974 0.0
H376 H 0.61019 0.69835 0.61269 0.0
H377 H 0.52191 0.36177 0.60965 0.0
Cd378 Cd 0.54533 0.48068 1.00555 0.0
Cd379 Cd 0.33627 0.49993 1.0056 0.0
C380 C 0.57186 0.20645 0.94653 0.0
N381 N 0.54294 0.39999 0.9559 0.0
C382 C 0.52242 0.51285 0.90692 0.0
C383 C 0.55309 0.31644 0.89671 0.0
C384 C 0.57687 0.15951 0.91685 0.0
C385 C 0.51785 0.55184 0.93684 0.0
H386 H 0.59284 0.09216 0.96207 0.0
H387 H 0.49561 0.70551 0.94488 0.0
C388 C 0.42432 0.89595 0.00692 0.0
C389 C 0.30546 0.67169 0.07114 0.0
C390 C 0.29538 0.64851 0.10106 0.0
C391 C 0.31407 0.44692 0.11531 0.0
C392 C 0.34417 0.27566 0.09933 0.0
C393 C 0.3537 0.30647 0.06959 0.0
N394 N 0.33399 0.50104 0.05613 0.0
H395 H 0.28855 0.82139 0.05971 0.0
H396 H 0.37485 0.17116 0.05706 0.0
C397 C 0.30968 0.77427 0.94657 0.0
N398 N 0.33858 0.58066 0.95595 0.0
C399 C 0.35901 0.4677 0.90697 0.0
C400 C 0.32836 0.66417 0.89675 0.0
C401 C 0.30463 0.82118 0.9169 0.0
C402 C 0.36362 0.42873 0.9369 0.0
H403 H 0.28875 0.88862 0.96212 0.0
H404 H 0.38585 0.27502 0.94494 0.0
C405 C 0.45728 0.08466 0.00692 0.0
C406 C 0.66081 0.68617 1.00313 0.0
N407 N 0.54763 0.47956 0.05609 0.0
C408 C 0.57614 0.30888 0.07111 0.0
C409 C 0.5862 0.33203 0.10103 0.0
C410 C 0.5675 0.53361 0.11526 0.0
C411 C 0.53744 0.70491 0.09927 0.0
C412 C 0.52793 0.67414 0.06954 0.0
C413 C 0.2208 0.29432 1.00321 0.0
O414 O 0.44984 0.70134 0.00618 0.0
O415 O 0.36626 0.90417 0.00774 0.0
O416 O 0.43176 0.27928 0.0062 0.0
O417 O 0.51535 0.07645 0.00771 0.0
O418 O 0.61217 0.80632 1.00237 0.0
O419 O 0.65551 0.46911 1.00473 0.0
O420 O 0.26945 0.17421 1.00246 0.0
O421 O 0.22609 0.51139 1.00479 0.0
H422 H 0.59305 0.15917 0.05968 0.0
H423 H 0.50679 0.80948 0.05699 0.0
H424 H 0.50267 0.63527 0.89191 0.0
H425 H 0.60133 0.0075 0.90971 0.0
H426 H 0.27138 0.78227 0.11272 0.0
H427 H 0.35971 0.11892 0.10971 0.0
H428 H 0.37872 0.3452 0.89197 0.0
H429 H 0.28019 0.97324 0.90975 0.0
H430 H 0.61018 0.19822 0.11269 0.0
H431 H 0.52189 0.86165 0.10965 0.0
loop_
_geom_bond_atom_site_label_1
_geom_bond_atom_site_label_2
_geom_bond_distance
_geom_bond_site_symmetry_2
_ccdc_geom_bond_type
Cd0 N3 2.316 1_554 S
Cd0 N29 2.322 . S
Cd0 O36 2.267 1_554 S
Cd0 O39 2.273 1_545 S
Cd0 O40 2.416 1_554 S
Cd0 O41 2.331 1_545 S
Cd1 N16 2.322 . S
Cd1 N20 2.316 1_554 S
Cd1 O37 2.273 1_565 S
Cd1 O38 2.267 1_554 S
Cd1 O42 2.416 1_554 S
Cd1 O43 2.331 1_565 S
C2 N3 1.332 1_565 S
C2 C6 1.381 . S
C2 H8 0.931 . S
N3 Cd0 2.316 1_556 S
N3 C2 1.332 1_545 S
N3 C7 1.328 . S
C4 C5 1.396 1_545 S
C4 C7 1.378 . S
C4 H46 0.931 . S
C5 C4 1.396 1_565 S
C5 C6 1.382 . S
C6 C2 1.381 . S
C6 C5 1.382 . S
C6 H47 0.930 . S
C7 N3 1.328 . S
C7 C4 1.378 . S
C7 H9 0.930 . S
H8 C2 0.931 . S
H9 C7 0.930 . S
C10 O36 1.238 1_654 S
C10 O37 1.253 . S
C11 C12 1.379 . S
C11 N16 1.337 1_545 S
C11 H17 0.929 . S
C12 C11 1.379 . S
C12 C13 1.380 1_545 S
C12 H48 0.929 . S
C13 C12 1.380 1_565 S
C13 C14 1.399 . S
C14 C13 1.399 . S
C14 C15 1.376 . S
C14 H49 0.931 . S
C15 C14 1.376 . S
C15 N16 1.338 . S
C15 H18 0.930 . S
N16 Cd1 2.322 . S
N16 C11 1.337 1_565 S
N16 C15 1.338 . S
H17 C11 0.929 . S
H18 C15 0.930 . S
C19 N20 1.332 1_545 S
C19 C23 1.381 . S
C19 H25 0.931 . S
N20 Cd1 2.316 1_556 S
N20 C19 1.332 1_565 S
N20 C24 1.328 . S
C21 C22 1.396 1_565 S
C21 C24 1.378 . S
C21 H50 0.931 . S
C22 C21 1.396 1_545 S
C22 C23 1.382 . S
C23 C19 1.381 . S
C23 C22 1.382 . S
C23 H51 0.930 . S
C24 N20 1.328 . S
C24 C21 1.378 . S
C24 H26 0.930 . S
H25 C19 0.931 . S
H26 C24 0.930 . S
C27 O38 1.238 1_454 S
C27 O39 1.253 . S
C28 O40 1.241 . S
C28 O41 1.229 1_546 S
N29 Cd0 2.322 . S
N29 C30 1.337 1_545 S
N29 C34 1.338 . S
C30 N29 1.337 1_565 S
C30 C31 1.379 . S
C30 H44 0.929 . S
C31 C30 1.379 . S
C31 C32 1.380 1_565 S
C31 H52 0.929 . S
C32 C31 1.380 1_545 S
C32 C33 1.399 . S
C33 C32 1.399 . S
C33 C34 1.376 . S
C33 H53 0.931 . S
C34 N29 1.338 . S
C34 C33 1.376 . S
C34 H45 0.930 . S
C35 O42 1.241 . S
C35 O43 1.229 1_566 S
O36 Cd0 2.267 1_556 S
O36 C10 1.238 1_456 S
O37 Cd1 2.273 1_545 S
O37 C10 1.253 . S
O38 Cd1 2.267 1_556 S
O38 C27 1.238 1_656 S
O39 Cd0 2.273 1_565 S
O39 C27 1.253 . S
O40 Cd0 2.416 1_556 S
O40 C28 1.241 . S
O41 Cd0 2.331 1_565 S
O41 C28 1.229 1_564 S
O42 Cd1 2.416 1_556 S
O42 C35 1.241 . S
O43 Cd1 2.331 1_545 S
O43 C35 1.229 1_544 S
H44 C30 0.929 . S
H45 C34 0.930 . S
H46 C4 0.931 . S
H47 C6 0.930 . S
H48 C12 0.929 . S
H49 C14 0.931 . S
H50 C21 0.931 . S
H51 C23 0.930 . S
H52 C31 0.929 . S
H53 C33 0.931 . S
Cd54 N57 2.334 . S
Cd54 N83 2.304 . S
Cd54 O90 2.268 1_545 S
Cd54 O93 2.273 . S
Cd54 O94 2.417 1_545 S
Cd54 O95 2.330 . S
Cd55 N70 2.304 . S
Cd55 N74 2.334 . S
Cd55 O91 2.273 1_545 S
Cd55 O92 2.268 . S
Cd55 O96 2.417 . S
Cd55 O97 2.330 . S
C56 N57 1.332 . S
C56 C60 1.381 . S
C56 H62 0.931 . S
N57 Cd54 2.334 . S
N57 C56 1.332 . S
N57 C61 1.328 . S
C58 C59 1.396 . S
C58 C61 1.378 . S
C58 H100 0.931 1_545 S
C59 C58 1.396 . S
C59 C60 1.382 . S
C60 C56 1.381 . S
C60 C59 1.382 . S
C60 H101 0.930 . S
C61 N57 1.328 . S
C61 C58 1.378 . S
C61 H63 0.930 1_545 S
H62 C56 0.931 . S
H63 C61 0.930 1_565 S
C64 O90 1.238 . S
C64 O91 1.253 . S
C65 C66 1.379 . S
C65 N70 1.337 . S
C65 H71 0.929 1_545 S
C66 C65 1.379 . S
C66 C67 1.380 . S
C66 H102 0.929 1_545 S
C67 C66 1.380 . S
C67 C68 1.399 . S
C68 C67 1.399 . S
C68 C69 1.376 . S
C68 H103 0.931 . S
C69 C68 1.376 . S
C69 N70 1.338 . S
C69 H72 0.930 . S
N70 Cd55 2.304 . S
N70 C65 1.337 . S
N70 C69 1.338 . S
H71 C65 0.929 1_565 S
H72 C69 0.930 . S
C73 N74 1.332 . S
C73 C77 1.381 . S
C73 H79 0.931 1_545 S
N74 Cd55 2.334 . S
N74 C73 1.332 . S
N74 C78 1.328 . S
C75 C76 1.396 . S
C75 C78 1.378 . S
C75 H104 0.931 . S
C76 C75 1.396 . S
C76 C77 1.382 . S
C77 C73 1.381 . S
C77 C76 1.382 . S
C77 H105 0.930 1_545 S
C78 N74 1.328 . S
C78 C75 1.378 . S
C78 H80 0.930 . S
H79 C73 0.931 1_565 S
H80 C78 0.930 . S
C81 O92 1.238 . S
C81 O93 1.253 . S
C82 O94 1.239 1_545 S
C82 O95 1.230 . S
N83 Cd54 2.304 . S
N83 C84 1.337 . S
N83 C88 1.338 . S
C84 N83 1.337 . S
C84 C85 1.379 . S
C84 H98 0.929 . S
C85 C84 1.379 . S
C85 C86 1.380 . S
C85 H106 0.929 . S
C86 C85 1.380 . S
C86 C87 1.399 . S
C87 C86 1.399 . S
C87 C88 1.376 . S
C87 H107 0.931 1_545 S
C88 N83 1.338 . S
C88 C87 1.376 . S
C88 H99 0.930 1_545 S
C89 O96 1.239 . S
C89 O97 1.230 . S
O90 Cd54 2.268 1_565 S
O90 C64 1.238 . S
O91 Cd55 2.273 1_565 S
O91 C64 1.253 . S
O92 Cd55 2.268 . S
O92 C81 1.238 . S
O93 Cd54 2.273 . S
O93 C81 1.253 . S
O94 Cd54 2.417 1_565 S
O94 C82 1.239 1_565 S
O95 Cd54 2.330 . S
O95 C82 1.230 . S
O96 Cd55 2.417 . S
O96 C89 1.239 . S
O97 Cd55 2.330 . S
O97 C89 1.230 . S
H98 C84 0.929 . S
H99 C88 0.930 1_565 S
H100 C58 0.931 1_565 S
H101 C60 0.930 . S
H102 C66 0.929 1_565 S
H103 C68 0.931 . S
H104 C75 0.931 . S
H105 C77 0.930 1_565 S
H106 C85 0.929 . S
H107 C87 0.931 1_565 S
Cd108 N111 2.334 . S
Cd108 N137 2.304 . S
Cd108 O144 2.268 1_565 S
Cd108 O147 2.273 . S
Cd108 O148 2.417 1_565 S
Cd108 O149 2.330 . S
Cd109 N124 2.304 . S
Cd109 N128 2.334 . S
Cd109 O145 2.273 1_565 S
Cd109 O146 2.268 . S
Cd109 O150 2.417 . S
Cd109 O151 2.330 . S
C110 N111 1.332 . S
C110 C114 1.381 . S
C110 H116 0.931 . S
N111 Cd108 2.334 . S
N111 C110 1.332 . S
N111 C115 1.328 . S
C112 C113 1.396 . S
C112 C115 1.378 . S
C112 H154 0.931 1_565 S
C113 C112 1.396 . S
C113 C114 1.382 . S
C114 C110 1.381 . S
C114 C113 1.382 . S
C114 H155 0.930 . S
C115 N111 1.328 . S
C115 C112 1.378 . S
C115 H117 0.930 1_565 S
H116 C110 0.931 . S
H117 C115 0.930 1_545 S
C118 O144 1.238 . S
C118 O145 1.253 . S
C119 C120 1.379 . S
C119 N124 1.337 . S
C119 H125 0.929 1_565 S
C120 C119 1.379 . S
C120 C121 1.380 . S
C120 H156 0.929 1_565 S
C121 C120 1.380 . S
C121 C122 1.399 . S
C122 C121 1.399 . S
C122 C123 1.376 . S
C122 H157 0.931 . S
C123 C122 1.376 . S
C123 N124 1.338 . S
C123 H126 0.930 . S
N124 Cd109 2.304 . S
N124 C119 1.337 . S
N124 C123 1.338 . S
H125 C119 0.929 1_545 S
H126 C123 0.930 . S
C127 N128 1.332 . S
C127 C131 1.381 . S
C127 H133 0.931 1_565 S
N128 Cd109 2.334 . S
N128 C127 1.332 . S
N128 C132 1.328 . S
C129 C130 1.396 . S
C129 C132 1.378 . S
C129 H158 0.931 . S
C130 C129 1.396 . S
C130 C131 1.382 . S
C131 C127 1.381 . S
C131 C130 1.382 . S
C131 H159 0.930 1_565 S
C132 N128 1.328 . S
C132 C129 1.378 . S
C132 H134 0.930 . S
H133 C127 0.931 1_545 S
H134 C132 0.930 . S
C135 O146 1.238 . S
C135 O147 1.253 . S
C136 O148 1.239 1_565 S
C136 O149 1.230 . S
N137 Cd108 2.304 . S
N137 C138 1.337 . S
N137 C142 1.338 . S
C138 N137 1.337 . S
C138 C139 1.379 . S
C138 H152 0.929 . S
C139 C138 1.379 . S
C139 C140 1.380 . S
C139 H160 0.929 . S
C140 C139 1.380 . S
C140 C141 1.399 . S
C141 C140 1.399 . S
C141 C142 1.376 . S
C141 H161 0.931 1_565 S
C142 N137 1.338 . S
C142 C141 1.376 . S
C142 H153 0.930 1_565 S
C143 O150 1.239 . S
C143 O151 1.230 . S
O144 Cd108 2.268 1_545 S
O144 C118 1.238 . S
O145 Cd109 2.273 1_545 S
O145 C118 1.253 . S
O146 Cd109 2.268 . S
O146 C135 1.238 . S
O147 Cd108 2.273 . S
O147 C135 1.253 . S
O148 Cd108 2.417 1_545 S
O148 C136 1.239 1_545 S
O149 Cd108 2.330 . S
O149 C136 1.230 . S
O150 Cd109 2.417 . S
O150 C143 1.239 . S
O151 Cd109 2.330 . S
O151 C143 1.230 . S
H152 C138 0.929 . S
H153 C142 0.930 1_545 S
H154 C112 0.931 1_545 S
H155 C114 0.930 . S
H156 C120 0.929 1_545 S
H157 C122 0.931 . S
H158 C129 0.931 . S
H159 C131 0.930 1_545 S
H160 C139 0.929 . S
H161 C141 0.931 1_545 S
Cd162 N165 2.334 . S
Cd162 N191 2.304 . S
Cd162 O198 2.268 . S
Cd162 O201 2.273 . S
Cd162 O202 2.417 . S
Cd162 O203 2.330 . S
Cd163 N178 2.304 . S
Cd163 N182 2.334 . S
Cd163 O199 2.273 . S
Cd163 O200 2.268 . S
Cd163 O204 2.417 . S
Cd163 O205 2.330 . S
C164 N165 1.332 . S
C164 C168 1.381 . S
C164 H170 0.931 . S
N165 Cd162 2.334 . S
N165 C164 1.332 . S
N165 C169 1.328 . S
C166 C167 1.396 . S
C166 C169 1.378 . S
C166 H208 0.931 . S
C167 C166 1.396 . S
C167 C168 1.382 . S
C168 C164 1.381 . S
C168 C167 1.382 . S
C168 H209 0.930 . S
C169 N165 1.328 . S
C169 C166 1.378 . S
C169 H171 0.930 . S
H170 C164 0.931 . S
H171 C169 0.930 . S
C172 O198 1.238 1_655 S
C172 O199 1.253 . S
C173 C174 1.379 . S
C173 N178 1.337 . S
C173 H179 0.929 . S
C174 C173 1.379 . S
C174 C175 1.380 . S
C174 H210 0.929 . S
C175 C174 1.380 . S
C175 C176 1.399 . S
C176 C175 1.399 . S
C176 C177 1.376 . S
C176 H211 0.931 . S
C177 C176 1.376 . S
C177 N178 1.338 . S
C177 H180 0.930 . S
N178 Cd163 2.304 . S
N178 C173 1.337 . S
N178 C177 1.338 . S
H179 C173 0.929 . S
H180 C177 0.930 . S
C181 N182 1.332 . S
C181 C185 1.381 . S
C181 H187 0.931 . S
N182 Cd163 2.334 . S
N182 C181 1.332 . S
N182 C186 1.328 . S
C183 C184 1.396 . S
C183 C186 1.378 . S
C183 H212 0.931 . S
C184 C183 1.396 . S
C184 C185 1.382 . S
C185 C181 1.381 . S
C185 C184 1.382 . S
C185 H213 0.930 . S
C186 N182 1.328 . S
C186 C183 1.378 . S
C186 H188 0.930 . S
H187 C181 0.931 . S
H188 C186 0.930 . S
C189 O200 1.238 1_455 S
C189 O201 1.253 . S
C190 O202 1.239 . S
C190 O203 1.230 . S
N191 Cd162 2.304 . S
N191 C192 1.337 . S
N191 C196 1.338 . S
C192 N191 1.337 . S
C192 C193 1.379 . S
C192 H206 0.929 . S
C193 C192 1.379 . S
C193 C194 1.380 . S
C193 H214 0.929 . S
C194 C193 1.380 . S
C194 C195 1.399 . S
C195 C194 1.399 . S
C195 C196 1.376 . S
C195 H215 0.931 . S
C196 N191 1.338 . S
C196 C195 1.376 . S
C196 H207 0.930 . S
C197 O204 1.239 . S
C197 O205 1.230 . S
O198 Cd162 2.268 . S
O198 C172 1.238 1_455 S
O199 Cd163 2.273 . S
O199 C172 1.253 . S
O200 Cd163 2.268 . S
O200 C189 1.238 1_655 S
O201 Cd162 2.273 . S
O201 C189 1.253 . S
O202 Cd162 2.417 . S
O202 C190 1.239 . S
O203 Cd162 2.330 . S
O203 C190 1.230 . S
O204 Cd163 2.417 . S
O204 C197 1.239 . S
O205 Cd163 2.330 . S
O205 C197 1.230 . S
H206 C192 0.929 . S
H207 C196 0.930 . S
H208 C166 0.931 . S
H209 C168 0.930 . S
H210 C174 0.929 . S
H211 C176 0.931 . S
H212 C183 0.931 . S
H213 C185 0.930 . S
H214 C193 0.929 . S
H215 C195 0.931 . S
Cd216 N219 2.334 . S
Cd216 N245 2.304 . S
Cd216 O252 2.268 1_565 S
Cd216 O255 2.273 . S
Cd216 O256 2.417 1_565 S
Cd216 O257 2.330 . S
Cd217 N232 2.304 . S
Cd217 N236 2.334 . S
Cd217 O253 2.273 1_565 S
Cd217 O254 2.268 . S
Cd217 O258 2.417 . S
Cd217 O259 2.330 . S
C218 N219 1.332 . S
C218 C222 1.381 . S
C218 H224 0.931 . S
N219 Cd216 2.334 . S
N219 C218 1.332 . S
N219 C223 1.328 . S
C220 C221 1.396 . S
C220 C223 1.378 . S
C220 H262 0.931 1_565 S
C221 C220 1.396 . S
C221 C222 1.382 . S
C222 C218 1.381 . S
C222 C221 1.382 . S
C222 H263 0.930 . S
C223 N219 1.328 . S
C223 C220 1.378 . S
C223 H225 0.930 1_565 S
H224 C218 0.931 . S
H225 C223 0.930 1_545 S
C226 O252 1.238 . S
C226 O253 1.253 . S
C227 C228 1.379 . S
C227 N232 1.337 . S
C227 H233 0.929 1_565 S
C228 C227 1.379 . S
C228 C229 1.380 . S
C228 H264 0.929 1_565 S
C229 C228 1.380 . S
C229 C230 1.399 . S
C230 C229 1.399 . S
C230 C231 1.376 . S
C230 H265 0.931 . S
C231 C230 1.376 . S
C231 N232 1.338 . S
C231 H234 0.930 . S
N232 Cd217 2.304 . S
N232 C227 1.337 . S
N232 C231 1.338 . S
H233 C227 0.929 1_545 S
H234 C231 0.930 . S
C235 N236 1.332 . S
C235 C239 1.381 . S
C235 H241 0.931 1_565 S
N236 Cd217 2.334 . S
N236 C235 1.332 . S
N236 C240 1.328 . S
C237 C238 1.396 . S
C237 C240 1.378 . S
C237 H266 0.931 . S
C238 C237 1.396 . S
C238 C239 1.382 . S
C239 C235 1.381 . S
C239 C238 1.382 . S
C239 H267 0.930 1_565 S
C240 N236 1.328 . S
C240 C237 1.378 . S
C240 H242 0.930 . S
H241 C235 0.931 1_545 S
H242 C240 0.930 . S
C243 O254 1.238 . S
C243 O255 1.253 . S
C244 O256 1.239 1_565 S
C244 O257 1.230 . S
N245 Cd216 2.304 . S
N245 C246 1.337 . S
N245 C250 1.338 . S
C246 N245 1.337 . S
C246 C247 1.379 . S
C246 H260 0.929 . S
C247 C246 1.379 . S
C247 C248 1.380 . S
C247 H268 0.929 . S
C248 C247 1.380 . S
C248 C249 1.399 . S
C249 C248 1.399 . S
C249 C250 1.376 . S
C249 H269 0.931 1_565 S
C250 N245 1.338 . S
C250 C249 1.376 . S
C250 H261 0.930 1_565 S
C251 O258 1.239 . S
C251 O259 1.230 . S
O252 Cd216 2.268 1_545 S
O252 C226 1.238 . S
O253 Cd217 2.273 1_545 S
O253 C226 1.253 . S
O254 Cd217 2.268 . S
O254 C243 1.238 . S
O255 Cd216 2.273 . S
O255 C243 1.253 . S
O256 Cd216 2.417 1_545 S
O256 C244 1.239 1_545 S
O257 Cd216 2.330 . S
O257 C244 1.230 . S
O258 Cd217 2.417 . S
O258 C251 1.239 . S
O259 Cd217 2.330 . S
O259 C251 1.230 . S
H260 C246 0.929 . S
H261 C250 0.930 1_545 S
H262 C220 0.931 1_545 S
H263 C222 0.930 . S
H264 C228 0.929 1_545 S
H265 C230 0.931 . S
H266 C237 0.931 . S
H267 C239 0.930 1_545 S
H268 C247 0.929 . S
H269 C249 0.931 1_545 S
Cd270 N273 2.334 . S
Cd270 N299 2.304 . S
Cd270 O306 2.268 . S
Cd270 O309 2.273 1_545 S
Cd270 O310 2.417 . S
Cd270 O311 2.330 . S
Cd271 N286 2.304 . S
Cd271 N290 2.334 . S
Cd271 O307 2.273 . S
Cd271 O308 2.268 1_545 S
Cd271 O312 2.417 1_545 S
Cd271 O313 2.330 . S
C272 N273 1.332 . S
C272 C276 1.381 . S
C272 H278 0.931 1_545 S
N273 Cd270 2.334 . S
N273 C272 1.332 . S
N273 C277 1.328 . S
C274 C275 1.396 . S
C274 C277 1.378 . S
C274 H316 0.931 . S
C275 C274 1.396 . S
C275 C276 1.382 . S
C276 C272 1.381 . S
C276 C275 1.382 . S
C276 H317 0.930 1_545 S
C277 N273 1.328 . S
C277 C274 1.378 . S
C277 H279 0.930 . S
H278 C272 0.931 1_565 S
H279 C277 0.930 . S
C280 O306 1.238 . S
C280 O307 1.253 . S
C281 C282 1.379 . S
C281 N286 1.337 . S
C281 H287 0.929 . S
C282 C281 1.379 . S
C282 C283 1.380 . S
C282 H318 0.929 . S
C283 C282 1.380 . S
C283 C284 1.399 . S
C284 C283 1.399 . S
C284 C285 1.376 . S
C284 H319 0.931 1_545 S
C285 C284 1.376 . S
C285 N286 1.338 . S
C285 H288 0.930 1_545 S
N286 Cd271 2.304 . S
N286 C281 1.337 . S
N286 C285 1.338 . S
H287 C281 0.929 . S
H288 C285 0.930 1_565 S
C289 N290 1.332 . S
C289 C293 1.381 . S
C289 H295 0.931 . S
N290 Cd271 2.334 . S
N290 C289 1.332 . S
N290 C294 1.328 . S
C291 C292 1.396 . S
C291 C294 1.378 . S
C291 H320 0.931 1_545 S
C292 C291 1.396 . S
C292 C293 1.382 . S
C293 C289 1.381 . S
C293 C292 1.382 . S
C293 H321 0.930 . S
C294 N290 1.328 . S
C294 C291 1.378 . S
C294 H296 0.930 1_545 S
H295 C289 0.931 . S
H296 C294 0.930 1_565 S
C297 O308 1.238 . S
C297 O309 1.253 . S
C298 O310 1.239 . S
C298 O311 1.230 . S
N299 Cd270 2.304 . S
N299 C300 1.337 . S
N299 C304 1.338 . S
C300 N299 1.337 . S
C300 C301 1.379 . S
C300 H314 0.929 1_545 S
C301 C300 1.379 . S
C301 C302 1.380 . S
C301 H322 0.929 1_545 S
C302 C301 1.380 . S
C302 C303 1.399 . S
C303 C302 1.399 . S
C303 C304 1.376 . S
C303 H323 0.931 . S
C304 N299 1.338 . S
C304 C303 1.376 . S
C304 H315 0.930 . S
C305 O312 1.239 1_545 S
C305 O313 1.230 . S
O306 Cd270 2.268 . S
O306 C280 1.238 . S
O307 Cd271 2.273 . S
O307 C280 1.253 . S
O308 Cd271 2.268 1_565 S
O308 C297 1.238 . S
O309 Cd270 2.273 1_565 S
O309 C297 1.253 . S
O310 Cd270 2.417 . S
O310 C298 1.239 . S
O311 Cd270 2.330 . S
O311 C298 1.230 . S
O312 Cd271 2.417 1_565 S
O312 C305 1.239 1_565 S
O313 Cd271 2.330 . S
O313 C305 1.230 . S
H314 C300 0.929 1_565 S
H315 C304 0.930 . S
H316 C274 0.931 . S
H317 C276 0.930 1_565 S
H318 C282 0.929 . S
H319 C284 0.931 1_565 S
H320 C291 0.931 1_565 S
H321 C293 0.930 . S
H322 C301 0.929 1_565 S
H323 C303 0.931 . S
Cd324 N327 2.334 . S
Cd324 N353 2.304 . S
Cd324 O360 2.268 . S
Cd324 O363 2.273 1_545 S
Cd324 O364 2.417 . S
Cd324 O365 2.330 1_545 S
Cd325 N340 2.304 . S
Cd325 N344 2.334 . S
Cd325 O361 2.273 1_565 S
Cd325 O362 2.268 . S
Cd325 O366 2.417 . S
Cd325 O367 2.330 1_565 S
C326 N327 1.332 1_565 S
C326 C330 1.381 . S
C326 H332 0.931 . S
N327 Cd324 2.334 . S
N327 C326 1.332 1_545 S
N327 C331 1.328 . S
C328 C329 1.396 1_545 S
C328 C331 1.378 . S
C328 H370 0.931 . S
C329 C328 1.396 1_565 S
C329 C330 1.382 . S
C330 C326 1.381 . S
C330 C329 1.382 . S
C330 H371 0.930 . S
C331 N327 1.328 . S
C331 C328 1.378 . S
C331 H333 0.930 . S
H332 C326 0.931 . S
H333 C331 0.930 . S
C334 O360 1.238 . S
C334 O361 1.253 . S
C335 C336 1.379 . S
C335 N340 1.337 1_545 S
C335 H341 0.929 . S
C336 C335 1.379 . S
C336 C337 1.380 1_545 S
C336 H372 0.929 . S
C337 C336 1.380 1_565 S
C337 C338 1.399 . S
C338 C337 1.399 . S
C338 C339 1.376 . S
C338 H373 0.931 . S
C339 C338 1.376 . S
C339 N340 1.338 . S
C339 H342 0.930 . S
N340 Cd325 2.304 . S
N340 C335 1.337 1_565 S
N340 C339 1.338 . S
H341 C335 0.929 . S
H342 C339 0.930 . S
C343 N344 1.332 1_545 S
C343 C347 1.381 . S
C343 H349 0.931 . S
N344 Cd325 2.334 . S
N344 C343 1.332 1_565 S
N344 C348 1.328 . S
C345 C346 1.396 1_565 S
C345 C348 1.378 . S
C345 H374 0.931 . S
C346 C345 1.396 1_545 S
C346 C347 1.382 . S
C347 C343 1.381 . S
C347 C346 1.382 . S
C347 H375 0.930 . S
C348 N344 1.328 . S
C348 C345 1.378 . S
C348 H350 0.930 . S
H349 C343 0.931 . S
H350 C348 0.930 . S
C351 O362 1.238 . S
C351 O363 1.253 . S
C352 O364 1.239 . S
C352 O365 1.230 1_545 S
N353 Cd324 2.304 . S
N353 C354 1.337 1_545 S
N353 C358 1.338 . S
C354 N353 1.337 1_565 S
C354 C355 1.379 . S
C354 H368 0.929 . S
C355 C354 1.379 . S
C355 C356 1.380 1_565 S
C355 H376 0.929 . S
C356 C355 1.380 1_545 S
C356 C357 1.399 . S
C357 C356 1.399 . S
C357 C358 1.376 . S
C357 H377 0.931 . S
C358 N353 1.338 . S
C358 C357 1.376 . S
C358 H369 0.930 . S
C359 O366 1.239 . S
C359 O367 1.230 1_565 S
O360 Cd324 2.268 . S
O360 C334 1.238 . S
O361 Cd325 2.273 1_545 S
O361 C334 1.253 . S
O362 Cd325 2.268 . S
O362 C351 1.238 . S
O363 Cd324 2.273 1_565 S
O363 C351 1.253 . S
O364 Cd324 2.417 . S
O364 C352 1.239 . S
O365 Cd324 2.330 1_565 S
O365 C352 1.230 1_565 S
O366 Cd325 2.417 . S
O366 C359 1.239 . S
O367 Cd325 2.330 1_545 S
O367 C359 1.230 1_545 S
H368 C354 0.929 . S
H369 C358 0.930 . S
H370 C328 0.931 . S
H371 C330 0.930 . S
H372 C336 0.929 . S
H373 C338 0.931 . S
H374 C345 0.931 . S
H375 C347 0.930 . S
H376 C355 0.929 . S
H377 C357 0.931 . S
Cd378 N381 2.316 1_554 S
Cd378 N407 2.322 . S
Cd378 O414 2.267 1_554 S
Cd378 O417 2.273 . S
Cd378 O418 2.416 1_554 S
Cd378 O419 2.331 . S
Cd379 N394 2.322 . S
Cd379 N398 2.316 1_554 S
Cd379 O415 2.273 . S
Cd379 O416 2.267 1_554 S
Cd379 O420 2.416 1_554 S
Cd379 O421 2.331 . S
C380 N381 1.332 . S
C380 C384 1.381 . S
C380 H386 0.931 . S
N381 Cd378 2.316 1_556 S
N381 C380 1.332 . S
N381 C385 1.328 . S
C382 C383 1.396 . S
C382 C385 1.378 . S
C382 H424 0.931 . S
C383 C382 1.396 . S
C383 C384 1.382 . S
C384 C380 1.381 . S
C384 C383 1.382 . S
C384 H425 0.930 . S
C385 N381 1.328 . S
C385 C382 1.378 . S
C385 H387 0.930 . S
H386 C380 0.931 . S
H387 C385 0.930 . S
C388 O414 1.238 1_554 S
C388 O415 1.253 . S
C389 C390 1.379 . S
C389 N394 1.337 . S
C389 H395 0.929 . S
C390 C389 1.379 . S
C390 C391 1.380 . S
C390 H426 0.929 . S
C391 C390 1.380 . S
C391 C392 1.399 . S
C392 C391 1.399 . S
C392 C393 1.376 . S
C392 H427 0.931 . S
C393 C392 1.376 . S
C393 N394 1.338 . S
C393 H396 0.930 . S
N394 Cd379 2.322 . S
N394 C389 1.337 . S
N394 C393 1.338 . S
H395 C389 0.929 . S
H396 C393 0.930 . S
C397 N398 1.332 . S
C397 C401 1.381 . S
C397 H403 0.931 . S
N398 Cd379 2.316 1_556 S
N398 C397 1.332 . S
N398 C402 1.328 . S
C399 C400 1.396 . S
C399 C402 1.378 . S
C399 H428 0.931 . S
C400 C399 1.396 . S
C400 C401 1.382 . S
C401 C397 1.381 . S
C401 C400 1.382 . S
C401 H429 0.930 . S
C402 N398 1.328 . S
C402 C399 1.378 . S
C402 H404 0.930 . S
H403 C397 0.931 . S
H404 C402 0.930 . S
C405 O416 1.238 1_554 S
C405 O417 1.253 . S
C406 O418 1.241 . S
C406 O419 1.229 1_556 S
N407 Cd378 2.322 . S
N407 C408 1.337 . S
N407 C412 1.338 . S
C408 N407 1.337 . S
C408 C409 1.379 . S
C408 H422 0.929 . S
C409 C408 1.379 . S
C409 C410 1.380 . S
C409 H430 0.929 . S
C410 C409 1.380 . S
C410 C411 1.399 . S
C411 C410 1.399 . S
C411 C412 1.376 . S
C411 H431 0.931 . S
C412 N407 1.338 . S
C412 C411 1.376 . S
C412 H423 0.930 . S
C413 O420 1.241 . S
C413 O421 1.229 1_556 S
O414 Cd378 2.267 1_556 S
O414 C388 1.238 1_556 S
O415 Cd379 2.273 . S
O415 C388 1.253 . S
O416 Cd379 2.267 1_556 S
O416 C405 1.238 1_556 S
O417 Cd378 2.273 . S
O417 C405 1.253 . S
O418 Cd378 2.416 1_556 S
O418 C406 1.241 . S
O419 Cd378 2.331 . S
O419 C406 1.229 1_554 S
O420 Cd379 2.416 1_556 S
O420 C413 1.241 . S
O421 Cd379 2.331 . S
O421 C413 1.229 1_554 S
H422 C408 0.929 . S
H423 C412 0.930 . S
H424 C382 0.931 . S
H425 C384 0.930 . S
H426 C390 0.929 . S
H427 C392 0.931 . S
H428 C399 0.931 . S
H429 C401 0.930 . S
H430 C409 0.929 . S
H431 C411 0.931 . S
C32 C76 2.261 . S
C13 C130 2.263 . S
C167 C67 2.263 . S
C121 C184 2.265 . S
C194 C221 2.263 . S
C292 C175 2.265 . S
C248 C5 2.265 . S
C283 C22 2.266 . S
C275 C356 2.263 . S
C337 C238 2.264 . S
C383 C302 2.265 . S
C400 C229 2.265 . S
C410 C113 2.262 . S
C59 C391 2.262 . S
C329 C140 2.264 . S
C346 C86 2.263 . S
C27 C10 1.219 1_455 S
C81 C64 1.219 . S
C118 C135 1.219 . S
C172 C189 1.219 1_665 S
C226 C243 1.219 . S
C280 C297 1.219 . S
C351 C334 1.219 . S
C388 C405 1.219 1_565 S
C413 C28 1.299 . S
C35 C406 1.301 . S
C89 C143 1.300 1_455 S
C359 C190 1.300 . S
C197 C352 1.300 . S
C305 C244 1.300 1_645 S
C298 C251 1.300 . S
C136 C82 1.300 1_565 S
