# Generated by pormake.
# Topology bsn, (6)-cn, num edge types: 1
# Building blocks:
#     Node 0, Type 0, BuildingBlock: MIDCAF_clean_sbu_0, # of connection points: 6
#     Node 1, Type 0, BuildingBlock: MIDCAF_clean_sbu_0, # of connection points: 6
#     Node 2, Type 0, BuildingBlock: MIDCAF_clean_sbu_0, # of connection points: 6
#     Node 3, Type 0, BuildingBlock: MIDCAF_clean_sbu_0, # of connection points: 6
#     Edge 4, Type (0, 0), BuildingBlock: XIVTED_clean_linker_0, # of connection points: 2
#     Edge 5, Type (0, 0), BuildingBlock: XIVTED_clean_linker_0, # of connection points: 2
#     Edge 6, Type (0, 0), BuildingBlock: XIVTED_clean_linker_0, # of connection points: 2
#     Edge 7, Type (0, 0), BuildingBlock: XIVTED_clean_linker_0, # of connection points: 2
#     Edge 8, Type (0, 0), BuildingBlock: XIVTED_clean_linker_0, # of connection points: 2
#     Edge 9, Type (0, 0), BuildingBlock: XIVTED_clean_linker_0, # of connection points: 2
#     Edge 10, Type (0, 0), BuildingBlock: XIVTED_clean_linker_0, # of connection points: 2
#     Edge 11, Type (0, 0), BuildingBlock: XIVTED_clean_linker_0, # of connection points: 2
#     Edge 12, Type (0, 0), BuildingBlock: XIVTED_clean_linker_0, # of connection points: 2
#     Edge 13, Type (0, 0), BuildingBlock: XIVTED_clean_linker_0, # of connection points: 2
#     Edge 14, Type (0, 0), BuildingBlock: XIVTED_clean_linker_0, # of connection points: 2
#     Edge 15, Type (0, 0), BuildingBlock: XIVTED_clean_linker_0, # of connection points: 2
# Relax obj value: 0.106
# Max RMSD: 0.165
# Mean RMSD: 0.164
data_MOF--net-bsn--node1-MIDCAF_clean_sbu_0--edge1-XIVTED_clean_linker_0
_symmetry_space_group_name_H-M    P1
_symmetry_Int_Tables_number       1
_symmetry_cell_setting            triclinic
loop_
_symmetry_equiv_pos_as_xyz
'x, y, z'
_cell_length_a     29.905575
_cell_length_b     29.835519
_cell_length_c     15.39409
_cell_angle_alpha  89.933027
_cell_angle_beta   98.247421
_cell_angle_gamma 90.202794
loop_
_atom_site_label
_atom_site_type_symbol
_atom_site_fract_x
_atom_site_fract_y
_atom_site_fract_z
_atom_type_partial_charge
Zn0 Zn 0.96893 0.19644 0.35875 0.0
Zn1 Zn 0.09548 0.29725 0.47201 0.0
Zn2 Zn 0.03353 0.25276 0.39764 0.0
C3 C 0.03195 0.35551 0.38008 0.0
C4 C 0.13306 0.24902 0.35342 0.0
O5 O 0.03714 0.19668 0.49421 0.0
O6 O 0.98523 0.1468 0.44268 0.0
C7 C 0.92766 0.2784 0.36391 0.0
O8 O 1.00631 0.32111 0.38399 0.0
O9 O 0.07391 0.35232 0.40547 0.0
O10 O 0.14463 0.26284 0.4307 0.0
O11 O 0.09086 0.24761 0.32083 0.0
O12 O 0.91866 0.23758 0.3748 0.0
O13 O 0.96895 0.29094 0.36333 0.0
O14 O 0.05073 0.2241 0.27785 0.0
O15 O 0.98558 0.18965 0.23705 0.0
C16 C 0.02388 0.20224 0.22016 0.0
O17 O 0.05059 0.23577 0.53923 0.0
O18 O 0.09105 0.29279 0.59858 0.0
C19 C 0.01878 0.15763 0.49798 0.0
C20 C 0.07008 0.25675 0.60767 0.0
Zn21 Zn 0.97446 0.81993 0.48504 0.0
Zn22 Zn 0.0743 0.69587 0.64499 0.0
Zn23 Zn 0.01996 0.75773 0.57102 0.0
C24 C 0.12596 0.77232 0.65607 0.0
C25 C 0.04086 0.66228 0.48252 0.0
O26 O 0.95958 0.76489 0.6361 0.0
O27 O 0.92617 0.82119 0.55908 0.0
C28 C 0.05278 0.86159 0.54956 0.0
O29 O 0.08805 0.78768 0.61702 0.0
O30 O 0.13003 0.73135 0.6756 0.0
O31 O 0.06952 0.6524 0.54799 0.0
O32 O 0.02016 0.70024 0.47915 0.0
O33 O 0.01755 0.86996 0.49689 0.0
O34 O 0.05917 0.82207 0.58306 0.0
O35 O 0.9995 0.7366 0.43009 0.0
O36 O 0.95883 0.79312 0.36937 0.0
C37 C 0.97559 0.75482 0.36267 0.0
O38 O 0.99028 0.73568 0.68797 0.0
O39 O 0.03909 0.68377 0.74204 0.0
C40 C 0.92657 0.79261 0.61964 0.0
C41 C 1.00404 0.70646 0.74758 0.0
Zn42 Zn 0.49245 0.69995 0.84569 0.0
Zn43 Zn 0.58789 0.83078 -0.00409 0.0
Zn44 Zn 0.54249 0.7663 0.91309 0.0
C45 C 0.58514 0.76764 0.12258 0.0
C46 C 0.50781 0.8695 0.9253 0.0
O47 O 0.57225 0.74456 0.79635 0.0
O48 O 0.52758 0.68798 0.74837 0.0
C49 C 0.52832 0.66966 0.00755 0.0
O50 O 0.56313 0.74771 0.05498 0.0
O51 O 0.60076 0.80649 0.11484 0.0
O52 O 0.54396 0.87958 0.97405 0.0
O53 O 0.50081 0.82895 0.89739 0.0
O54 O 0.49925 0.65731 0.94452 0.0
O55 O 0.5464 0.709 0.00723 0.0
O56 O 0.47323 0.79266 0.86639 0.0
O57 O 0.43544 0.73259 0.81249 0.0
C58 C 0.43661 0.7741 0.8282 0.0
O59 O 0.60227 0.7746 0.84682 0.0
O60 O 0.6375 0.82987 0.92459 0.0
C61 C 0.56051 0.71338 0.7396 0.0
C62 C 0.63609 0.80154 0.86346 0.0
Zn63 Zn 0.57517 0.20105 0.12286 0.0
Zn64 Zn 0.46738 0.32599 0.98579 0.0
Zn65 Zn 0.51783 0.26444 0.06337 0.0
C66 C 0.47698 0.26716 0.85531 0.0
C67 C 0.54342 0.37017 0.06455 0.0
O68 O 0.49198 0.24092 0.17979 0.0
O69 O 0.54831 0.19681 0.2353 0.0
C70 C 0.5298 0.1676 0.96921 0.0
O71 O 0.4981 0.24659 0.92268 0.0
O72 O 0.46104 0.30573 0.8636 0.0
O73 O 0.50499 0.3785 0.02263 0.0
O74 O 0.55558 0.32936 0.08227 0.0
O75 O 0.5584 0.15475 0.03248 0.0
O76 O 0.51408 0.20787 0.96771 0.0
O77 O 0.58637 0.29469 0.10581 0.0
O78 O 0.63177 0.23591 0.12242 0.0
C79 C 0.62646 0.27785 0.12079 0.0
O80 O 0.45655 0.2651 0.1297 0.0
O81 O 0.41518 0.3142 0.04637 0.0
C82 C 0.51136 0.21608 0.24242 0.0
C83 C 0.41892 0.28599 0.10805 0.0
H84 H 0.95655 0.39985 0.41858 0.0
H85 H 0.95568 0.63101 0.4276 0.0
H86 H 0.06941 0.41216 0.27473 0.0
H87 H 0.09518 0.61084 0.39763 0.0
H88 H 0.93754 0.5562 0.36503 0.0
H89 H 0.9452 0.48119 0.40586 0.0
C90 C 0.97764 0.41947 0.38113 0.0
C91 C 0.01449 0.39973 0.34921 0.0
C92 C 0.97191 0.56851 0.37045 0.0
C93 C 1.002 0.49228 0.33411 0.0
C94 C 0.98212 0.61143 0.40471 0.0
C95 C 0.02707 0.62655 0.41847 0.0
C96 C 1.00705 0.54116 0.34957 0.0
C97 C 0.0602 0.60006 0.38864 0.0
C98 C 0.97121 0.46596 0.37369 0.0
C99 C 0.04112 0.42644 0.30171 0.0
N100 N 0.0496 0.55848 0.35643 0.0
N101 N 0.03502 0.4714 0.29736 0.0
H102 H 0.68711 0.87071 0.82215 0.0
H103 H 0.88417 0.71906 0.67925 0.0
H104 H 0.67496 0.72692 0.80132 0.0
H105 H 0.87885 0.86331 0.66323 0.0
H106 H 0.81068 0.71925 0.73435 0.0
H107 H 0.7593 0.86701 0.76808 0.0
C108 C 0.69954 0.83832 0.80486 0.0
C109 C 0.67523 0.79909 0.81598 0.0
C110 C 0.82589 0.75077 0.7192 0.0
C111 C 0.75859 0.79428 0.75569 0.0
C112 C 0.8679 0.75068 0.68894 0.0
C113 C 0.88731 0.79125 0.66694 0.0
C114 C 0.80376 0.79173 0.72748 0.0
C115 C 0.86487 0.83132 0.67928 0.0
C116 C 0.7409 0.83613 0.77439 0.0
C117 C 0.69273 0.75793 0.79279 0.0
N118 N 0.82433 0.83051 0.70841 0.0
N119 N 0.7338 0.75648 0.76434 0.0
H120 H 0.5363 0.40982 0.21833 0.0
H121 H 0.61497 0.6412 0.03236 0.0
H122 H 0.60491 0.42037 -0.00824 0.0
H123 H 0.48515 0.6164 0.11338 0.0
H124 H 0.63922 0.5658 0.08338 0.0
H125 H 0.54835 0.49019 0.24527 0.0
C126 C 0.55633 0.42859 0.17739 0.0
C127 C 0.5698 0.40868 0.1029 0.0
C128 C 0.60619 0.57775 0.09348 0.0
C129 C 0.58294 0.5003 0.13238 0.0
C130 C 0.59247 0.62078 0.06526 0.0
C131 C 0.548 0.6347 0.06871 0.0
C132 C 0.57546 0.54922 0.12713 0.0
C133 C 0.5197 0.60674 0.10981 0.0
C134 C 0.56271 0.47446 0.19224 0.0
C135 C 0.59443 0.43458 0.05028 0.0
N136 N 0.53374 0.56505 0.13665 0.0
N137 N 0.59953 0.47942 0.06504 0.0
H138 H 0.90871 0.32499 0.21131 0.0
H139 H 0.64725 0.32947 0.26666 0.0
H140 H 0.85721 0.29552 0.45237 0.0
H141 H 0.6988 0.28603 0.03364 0.0
H142 H 0.72414 0.35245 0.3302 0.0
H143 H 0.83223 0.34675 0.14437 0.0
C144 C 0.88177 0.32538 0.25147 0.0
C145 C 0.88906 0.30844 0.33732 0.0
C146 C 0.71824 0.33948 0.26384 0.0
C147 C 0.80189 0.33271 0.26138 0.0
C148 C 0.67441 0.32677 0.22735 0.0
C149 C 0.66694 0.30596 0.14493 0.0
C150 C 0.75446 0.33177 0.21685 0.0
C151 C 0.70334 0.30215 0.0973 0.0
C152 C 0.83811 0.33725 0.21299 0.0
C153 C 0.85284 0.30852 0.38599 0.0
N154 N 0.74565 0.31446 0.13426 0.0
N155 N 0.81066 0.31982 0.34705 0.0
H156 H 0.39947 0.21143 0.20368 0.0
H157 H 0.14323 0.28886 0.19911 0.0
H158 H 0.34398 0.33729 0.10049 0.0
H159 H 0.20705 0.19639 0.39318 0.0
H160 H 0.2134 0.29291 0.13475 0.0
H161 H 0.32679 0.19443 0.25455 0.0
C162 C 0.37243 0.23572 0.19297 0.0
C163 C 0.37805 0.27607 0.1487 0.0
C164 C 0.2118 0.27099 0.19037 0.0
C165 C 0.29475 0.25592 0.20235 0.0
C166 C 0.1716 0.26819 0.22605 0.0
C167 C 0.1694 0.2417 0.30032 0.0
C168 C 0.2501 0.24752 0.22998 0.0
C169 C 0.20752 0.21669 0.33496 0.0
C170 C 0.33089 0.22575 0.22089 0.0
C171 C 0.34136 0.30575 0.1343 0.0
N172 N 0.24658 0.2204 0.29984 0.0
N173 N 0.30138 0.29497 0.16049 0.0
H174 H 0.3903 0.831 0.92383 0.0
H175 H 0.16279 0.79766 0.81914 0.0
H176 H 0.3888 0.77439 0.66615 0.0
H177 H 0.1808 0.80844 0.54756 0.0
H178 H 0.241 0.82113 0.86241 0.0
H179 H 0.31136 0.85477 0.88141 0.0
C180 C 0.37369 0.82477 0.85765 0.0
C181 C 0.39541 0.80004 0.79875 0.0
C182 C 0.22763 0.82055 0.79329 0.0
C183 C 0.30555 0.82579 0.75051 0.0
C184 C 0.18284 0.80708 0.76866 0.0
C185 C 0.16559 0.80137 0.67984 0.0
C186 C 0.25561 0.82713 0.72833 0.0
C187 C 0.19297 0.81286 0.61673 0.0
C188 C 0.32854 0.83777 0.83374 0.0
C189 C 0.37274 0.7928 0.71376 0.0
N190 N 0.23707 0.82401 0.64222 0.0
N191 N 0.32892 0.8051 0.69252 0.0
H192 H 0.50767 0.90567 0.76526 0.0
H193 H 0.44239 0.14142 0.95115 0.0
H194 H 0.45088 0.92157 0.00485 0.0
H195 H 0.56896 0.11245 0.86092 0.0
H196 H 0.4151 0.06614 0.90472 0.0
H197 H 0.49696 0.98601 0.73578 0.0
C198 C 0.49022 0.92553 0.80873 0.0
C199 C 0.48006 0.90717 0.88755 0.0
C200 C 0.44801 0.07715 0.89143 0.0
C201 C 0.46818 0.99867 0.85471 0.0
C202 C 0.46345 0.12012 0.91705 0.0
C203 C 0.50795 0.13288 0.90969 0.0
C204 C 0.47701 0.04746 0.85647 0.0
C205 C 0.5344 0.10375 0.86732 0.0
C206 C 0.48471 0.97142 0.79241 0.0
C207 C 0.45883 0.93454 0.94312 0.0
N208 N 0.51872 0.0621 0.84313 0.0
N209 N 0.45428 0.97923 0.92648 0.0
H210 H 0.05413 0.89738 0.7101 0.0
H211 H 0.10753 0.13591 0.51922 0.0
H212 H 0.10661 0.91582 0.46632 0.0
H213 H 0.98075 0.09822 0.60106 0.0
H214 H 0.13876 0.06268 0.5693 0.0
H215 H 0.06221 0.97813 0.73809 0.0
C216 C 0.07018 0.91799 0.66534 0.0
C217 C 0.07958 0.90026 0.58563 0.0
C218 C 0.10481 0.0714 0.5798 0.0
C219 C 0.08873 0.99195 0.61705 0.0
C220 C 0.08703 0.11309 0.55177 0.0
C221 C 0.04142 0.1226 0.55541 0.0
C222 C 0.07703 0.03991 0.61381 0.0
C223 C 0.01597 0.09181 0.5967 0.0
C224 C 0.07425 0.96404 0.68091 0.0
C225 C 0.09911 0.92842 0.52856 0.0
N226 N 0.03399 0.0515 0.62351 0.0
N227 N 0.1023 0.9732 0.54455 0.0
H228 H 0.9665 0.17827 0.07285 0.0
H229 H 0.12975 0.27178 0.75586 0.0
H230 H 0.10581 0.2112 0.16191 0.0
H231 H 1.00587 0.20171 0.66134 0.0
H232 H 0.12315 0.24706 0.90477 0.0
H233 H 0.98169 0.1816 0.92159 0.0
C234 C 1.00053 0.18578 0.0608 0.0
C235 C 0.03478 0.19625 0.13022 0.0
C236 C 0.09775 0.23651 0.85132 0.0
C237 C 0.05217 0.20062 0.957 0.0
C238 C 0.10135 0.25085 0.76644 0.0
C239 C 0.06818 0.23892 0.69637 0.0
C240 C 0.06025 0.21074 0.86643 0.0
C241 C 0.03232 0.21142 0.71345 0.0
C242 C 0.00914 0.18774 0.97425 0.0
C243 C 0.07818 0.20512 0.11039 0.0
N244 N 0.02896 0.19874 0.79706 0.0
N245 N 0.08556 0.20792 0.02554 0.0
H246 H 0.94853 0.7663 0.81566 0.0
H247 H 0.02994 0.69356 0.2946 0.0
H248 H 0.01674 0.64001 0.87038 0.0
H249 H 0.90787 0.77047 0.2289 0.0
H250 H 0.02476 0.67092 0.14062 0.0
H251 H 0.9306 0.76716 0.96538 0.0
C252 C 0.95828 0.73795 0.85781 0.0
C253 C 0.98397 0.70299 0.82991 0.0
C254 C 0.99851 0.69185 0.1605 0.0
C255 C 0.96575 0.70492 0.003 0.0
C256 C 1.00123 0.70434 0.24867 0.0
C257 C 0.96923 0.7337 0.27487 0.0
C258 C 0.96424 0.70985 0.09818 0.0
C259 C 0.93359 0.74811 0.21142 0.0
C260 C 0.94852 0.7387 0.94385 0.0
C261 C 0.99716 0.6679 0.88918 0.0
N262 N 0.93253 0.73676 0.12584 0.0
N263 N 0.98878 0.67023 0.97345 0.0
H264 H 0.53339 0.70263 0.18768 0.0
H265 H 0.55536 0.64322 0.62506 0.0
H266 H 0.64885 0.78863 0.26105 0.0
H267 H 0.60775 0.77787 0.66248 0.0
H268 H 0.56951 0.64577 0.47283 0.0
H269 H 0.53809 0.67851 0.34029 0.0
C270 C 0.56076 0.7151 0.23508 0.0
C271 C 0.59105 0.74721 0.21114 0.0
C272 C 0.57823 0.6746 0.51455 0.0
C273 C 0.5961 0.72078 0.38672 0.0
C274 C 0.57067 0.67306 0.6018 0.0
C275 C 0.57986 0.71067 0.65649 0.0
C276 C 0.59499 0.71411 0.48162 0.0
C277 C 0.60023 0.74809 0.62304 0.0
C278 C 0.56337 0.70151 0.32261 0.0
C279 C 0.62463 0.76389 0.27659 0.0
N280 N 0.60665 0.74905 0.53734 0.0
N281 N 0.62575 0.75109 0.36151 0.0
H282 H 0.45157 0.27275 0.30391 0.0
H283 H 0.40678 0.27872 0.72535 0.0
H284 H 0.53351 0.15612 0.37635 0.0
H285 H 0.53401 0.20978 0.78523 0.0
H286 H 0.40278 0.2563 0.57243 0.0
H287 H 0.43224 0.27579 0.451 0.0
C288 C 0.46414 0.24669 0.3498 0.0
C289 C 0.49369 0.21379 0.32713 0.0
C290 C 0.43178 0.24626 0.61856 0.0
C291 C 0.47218 0.2173 0.49771 0.0
C292 C 0.43386 0.25869 0.70606 0.0
C293 C 0.47133 0.24695 0.76726 0.0
C294 C 0.46806 0.22293 0.59162 0.0
C295 C 0.5048 0.21988 0.73967 0.0
C296 C 0.45306 0.24841 0.43448 0.0
C297 C 0.5105 0.18206 0.39101 0.0
N298 N 0.50278 0.20938 0.65319 0.0
N299 N 0.50008 0.18503 0.47388 0.0
loop_
_geom_bond_atom_site_label_1
_geom_bond_atom_site_label_2
_geom_bond_distance
_geom_bond_site_symmetry_2
_ccdc_geom_bond_type
Zn0 O6 1.920 . S
Zn0 O12 1.898 . S
Zn0 O15 1.905 1_655 S
Zn1 O9 1.905 . S
Zn1 O10 1.898 . S
Zn1 O18 1.920 . S
Zn2 O5 2.080 . S
Zn2 O8 2.114 . S
Zn2 O11 2.120 . S
Zn2 O13 2.120 1_455 S
Zn2 O14 2.114 . S
Zn2 O17 2.080 . S
C3 O8 1.166 . S
C3 O9 1.182 . S
C4 O10 1.167 . S
C4 O11 1.299 . S
O5 Zn2 2.080 . S
O5 C19 1.305 . S
O6 Zn0 1.920 . S
O6 C19 1.234 1_655 S
C7 O12 1.167 . S
C7 O13 1.299 . S
O8 Zn2 2.114 . S
O8 C3 1.166 . S
O9 Zn1 1.905 . S
O9 C3 1.182 . S
O10 Zn1 1.898 . S
O10 C4 1.167 . S
O11 Zn2 2.120 . S
O11 C4 1.299 . S
O12 Zn0 1.898 . S
O12 C7 1.167 . S
O13 Zn2 2.120 1_655 S
O13 C7 1.299 . S
O14 Zn2 2.114 . S
O14 C16 1.166 . S
O15 Zn0 1.905 1_455 S
O15 C16 1.182 . S
C16 O14 1.166 . S
C16 O15 1.182 . S
O17 Zn2 2.080 . S
O17 C20 1.305 . S
O18 Zn1 1.920 . S
O18 C20 1.234 . S
C19 O5 1.305 . S
C19 O6 1.234 1_455 S
C20 O17 1.305 . S
C20 O18 1.234 . S
Zn21 O27 1.920 . S
Zn21 O33 1.898 . S
Zn21 O36 1.905 . S
Zn22 O30 1.905 . S
Zn22 O31 1.898 . S
Zn22 O39 1.920 . S
Zn23 O26 2.080 1_455 S
Zn23 O29 2.114 . S
Zn23 O32 2.120 . S
Zn23 O34 2.120 . S
Zn23 O35 2.114 . S
Zn23 O38 2.080 . S
C24 O29 1.166 . S
C24 O30 1.182 . S
C25 O31 1.167 . S
C25 O32 1.299 . S
O26 Zn23 2.080 1_655 S
O26 C40 1.305 . S
O27 Zn21 1.920 . S
O27 C40 1.234 . S
C28 O33 1.167 1_455 S
C28 O34 1.299 . S
O29 Zn23 2.114 . S
O29 C24 1.166 . S
O30 Zn22 1.905 . S
O30 C24 1.182 . S
O31 Zn22 1.898 . S
O31 C25 1.167 . S
O32 Zn23 2.120 . S
O32 C25 1.299 . S
O33 Zn21 1.898 . S
O33 C28 1.167 1_655 S
O34 Zn23 2.120 . S
O34 C28 1.299 . S
O35 Zn23 2.114 . S
O35 C37 1.166 1_455 S
O36 Zn21 1.905 . S
O36 C37 1.182 . S
C37 O35 1.166 1_655 S
C37 O36 1.182 . S
O38 Zn23 2.080 . S
O38 C41 1.305 . S
O39 Zn22 1.920 . S
O39 C41 1.234 . S
C40 O26 1.305 . S
C40 O27 1.234 . S
C41 O38 1.305 . S
C41 O39 1.234 . S
Zn42 O48 1.920 . S
Zn42 O54 1.898 . S
Zn42 O57 1.905 . S
Zn43 O51 1.905 . S
Zn43 O52 1.898 1_554 S
Zn43 O60 1.920 1_554 S
Zn44 O47 2.080 . S
Zn44 O50 2.114 1_556 S
Zn44 O53 2.120 . S
Zn44 O55 2.120 . S
Zn44 O56 2.114 . S
Zn44 O59 2.080 . S
C45 O50 1.166 . S
C45 O51 1.182 . S
C46 O52 1.167 . S
C46 O53 1.299 . S
O47 Zn44 2.080 . S
O47 C61 1.305 . S
O48 Zn42 1.920 . S
O48 C61 1.234 . S
C49 O54 1.167 . S
C49 O55 1.299 . S
O50 Zn44 2.114 1_554 S
O50 C45 1.166 . S
O51 Zn43 1.905 . S
O51 C45 1.182 . S
O52 Zn43 1.898 1_556 S
O52 C46 1.167 . S
O53 Zn44 2.120 . S
O53 C46 1.299 . S
O54 Zn42 1.898 . S
O54 C49 1.167 . S
O55 Zn44 2.120 . S
O55 C49 1.299 . S
O56 Zn44 2.114 . S
O56 C58 1.166 . S
O57 Zn42 1.905 . S
O57 C58 1.182 . S
C58 O56 1.166 . S
C58 O57 1.182 . S
O59 Zn44 2.080 . S
O59 C62 1.305 . S
O60 Zn43 1.920 1_556 S
O60 C62 1.234 . S
C61 O47 1.305 . S
C61 O48 1.234 . S
C62 O59 1.305 . S
C62 O60 1.234 . S
Zn63 O69 1.920 . S
Zn63 O75 1.898 . S
Zn63 O78 1.905 . S
Zn64 O72 1.905 . S
Zn64 O73 1.898 1_556 S
Zn64 O81 1.920 1_556 S
Zn65 O68 2.080 . S
Zn65 O71 2.114 1_554 S
Zn65 O74 2.120 . S
Zn65 O76 2.120 . S
Zn65 O77 2.114 . S
Zn65 O80 2.080 . S
C66 O71 1.166 . S
C66 O72 1.182 . S
C67 O73 1.167 . S
C67 O74 1.299 . S
O68 Zn65 2.080 . S
O68 C82 1.305 . S
O69 Zn63 1.920 . S
O69 C82 1.234 . S
C70 O75 1.167 . S
C70 O76 1.299 . S
O71 Zn65 2.114 1_556 S
O71 C66 1.166 . S
O72 Zn64 1.905 . S
O72 C66 1.182 . S
O73 Zn64 1.898 1_554 S
O73 C67 1.167 . S
O74 Zn65 2.120 . S
O74 C67 1.299 . S
O75 Zn63 1.898 . S
O75 C70 1.167 . S
O76 Zn65 2.120 . S
O76 C70 1.299 . S
O77 Zn65 2.114 . S
O77 C79 1.166 . S
O78 Zn63 1.905 . S
O78 C79 1.182 . S
C79 O77 1.166 . S
C79 O78 1.182 . S
O80 Zn65 2.080 . S
O80 C83 1.305 . S
O81 Zn64 1.920 1_554 S
O81 C83 1.234 . S
C82 O68 1.305 . S
C82 O69 1.234 . S
C83 O80 1.305 . S
C83 O81 1.234 . S
H84 C90 0.930 . S
H85 C94 0.930 . S
H86 C99 0.929 . S
H87 C97 0.929 . S
H88 C92 0.929 . S
H89 C98 0.929 . S
C90 H84 0.930 . S
C90 C91 1.367 . S
C90 C98 1.378 . S
C91 C90 1.367 . S
C91 C99 1.433 1_455 S
C92 H88 0.929 . S
C92 C94 1.378 . S
C92 C96 1.350 1_655 S
C93 C96 1.463 . S
C93 C98 1.350 . S
C93 N101 1.427 1_455 S
C94 H85 0.930 . S
C94 C92 1.378 . S
C94 C95 1.367 1_655 S
C95 C94 1.367 1_455 S
C95 C97 1.433 . S
C96 C92 1.350 1_455 S
C96 C93 1.463 . S
C96 N100 1.427 . S
C97 H87 0.929 . S
C97 C95 1.433 . S
C97 N100 1.384 . S
C98 H89 0.929 . S
C98 C90 1.378 . S
C98 C93 1.350 . S
C99 H86 0.929 . S
C99 C91 1.433 1_655 S
C99 N101 1.384 . S
N100 C96 1.427 . S
N100 C97 1.384 . S
N101 C93 1.427 1_655 S
N101 C99 1.384 . S
H102 C108 0.930 . S
H103 C112 0.930 . S
H104 C117 0.929 . S
H105 C115 0.929 . S
H106 C110 0.929 . S
H107 C116 0.929 . S
C108 H102 0.930 . S
C108 C109 1.367 . S
C108 C116 1.378 . S
C109 C108 1.367 . S
C109 C117 1.433 . S
C110 H106 0.929 . S
C110 C112 1.378 . S
C110 C114 1.350 . S
C111 C114 1.463 . S
C111 C116 1.350 . S
C111 N119 1.427 . S
C112 H103 0.930 . S
C112 C110 1.378 . S
C112 C113 1.367 . S
C113 C112 1.367 . S
C113 C115 1.433 . S
C114 C110 1.350 . S
C114 C111 1.463 . S
C114 N118 1.427 . S
C115 H105 0.929 . S
C115 C113 1.433 . S
C115 N118 1.384 . S
C116 H107 0.929 . S
C116 C108 1.378 . S
C116 C111 1.350 . S
C117 H104 0.929 . S
C117 C109 1.433 . S
C117 N119 1.384 . S
N118 C114 1.427 . S
N118 C115 1.384 . S
N119 C111 1.427 . S
N119 C117 1.384 . S
H120 C126 0.930 . S
H121 C130 0.930 . S
H122 C135 0.929 . S
H123 C133 0.929 . S
H124 C128 0.929 1_554 S
H125 C134 0.929 . S
C126 H120 0.930 . S
C126 C127 1.367 . S
C126 C134 1.378 . S
C127 C126 1.367 . S
C127 C135 1.433 . S
C128 H124 0.929 1_556 S
C128 C130 1.378 . S
C128 C132 1.350 . S
C129 C132 1.463 1_554 S
C129 C134 1.350 . S
C129 N137 1.427 . S
C130 H121 0.930 . S
C130 C128 1.378 . S
C130 C131 1.367 . S
C131 C130 1.367 . S
C131 C133 1.433 . S
C132 C128 1.350 . S
C132 C129 1.463 1_556 S
C132 N136 1.427 . S
C133 H123 0.929 . S
C133 C131 1.433 . S
C133 N136 1.384 . S
C134 H125 0.929 . S
C134 C126 1.378 . S
C134 C129 1.350 . S
C135 H122 0.929 . S
C135 C127 1.433 . S
C135 N137 1.384 . S
N136 C132 1.427 . S
N136 C133 1.384 . S
N137 C129 1.427 . S
N137 C135 1.384 . S
H138 C144 0.930 . S
H139 C148 0.930 . S
H140 C153 0.929 . S
H141 C151 0.929 . S
H142 C146 0.929 . S
H143 C152 0.929 . S
C144 H138 0.930 . S
C144 C145 1.367 . S
C144 C152 1.378 . S
C145 C144 1.367 . S
C145 C153 1.433 . S
C146 H142 0.929 . S
C146 C148 1.378 . S
C146 C150 1.350 . S
C147 C150 1.463 . S
C147 C152 1.350 . S
C147 N155 1.427 . S
C148 H139 0.930 . S
C148 C146 1.378 . S
C148 C149 1.367 . S
C149 C148 1.367 . S
C149 C151 1.433 . S
C150 C146 1.350 . S
C150 C147 1.463 . S
C150 N154 1.427 . S
C151 H141 0.929 . S
C151 C149 1.433 . S
C151 N154 1.384 . S
C152 H143 0.929 . S
C152 C144 1.378 . S
C152 C147 1.350 . S
C153 H140 0.929 . S
C153 C145 1.433 . S
C153 N155 1.384 . S
N154 C150 1.427 . S
N154 C151 1.384 . S
N155 C147 1.427 . S
N155 C153 1.384 . S
H156 C162 0.930 . S
H157 C166 0.930 . S
H158 C171 0.929 . S
H159 C169 0.929 . S
H160 C164 0.929 . S
H161 C170 0.929 . S
C162 H156 0.930 . S
C162 C163 1.367 . S
C162 C170 1.378 . S
C163 C162 1.367 . S
C163 C171 1.433 . S
C164 H160 0.929 . S
C164 C166 1.378 . S
C164 C168 1.350 . S
C165 C168 1.463 . S
C165 C170 1.350 . S
C165 N173 1.427 . S
C166 H157 0.930 . S
C166 C164 1.378 . S
C166 C167 1.367 . S
C167 C166 1.367 . S
C167 C169 1.433 . S
C168 C164 1.350 . S
C168 C165 1.463 . S
C168 N172 1.427 . S
C169 H159 0.929 . S
C169 C167 1.433 . S
C169 N172 1.384 . S
C170 H161 0.929 . S
C170 C162 1.378 . S
C170 C165 1.350 . S
C171 H158 0.929 . S
C171 C163 1.433 . S
C171 N173 1.384 . S
N172 C168 1.427 . S
N172 C169 1.384 . S
N173 C165 1.427 . S
N173 C171 1.384 . S
H174 C180 0.930 . S
H175 C184 0.930 . S
H176 C189 0.929 . S
H177 C187 0.929 . S
H178 C182 0.929 . S
H179 C188 0.929 . S
C180 H174 0.930 . S
C180 C181 1.367 . S
C180 C188 1.378 . S
C181 C180 1.367 . S
C181 C189 1.433 . S
C182 H178 0.929 . S
C182 C184 1.378 . S
C182 C186 1.350 . S
C183 C186 1.463 . S
C183 C188 1.350 . S
C183 N191 1.427 . S
C184 H175 0.930 . S
C184 C182 1.378 . S
C184 C185 1.367 . S
C185 C184 1.367 . S
C185 C187 1.433 . S
C186 C182 1.350 . S
C186 C183 1.463 . S
C186 N190 1.427 . S
C187 H177 0.929 . S
C187 C185 1.433 . S
C187 N190 1.384 . S
C188 H179 0.929 . S
C188 C180 1.378 . S
C188 C183 1.350 . S
C189 H176 0.929 . S
C189 C181 1.433 . S
C189 N191 1.384 . S
N190 C186 1.427 . S
N190 C187 1.384 . S
N191 C183 1.427 . S
N191 C189 1.384 . S
H192 C198 0.930 . S
H193 C202 0.930 . S
H194 C207 0.929 . S
H195 C205 0.929 . S
H196 C200 0.929 . S
H197 C206 0.929 1_554 S
C198 H192 0.930 . S
C198 C199 1.367 . S
C198 C206 1.378 . S
C199 C198 1.367 . S
C199 C207 1.433 . S
C200 H196 0.929 . S
C200 C202 1.378 1_556 S
C200 C204 1.350 1_556 S
C201 C204 1.463 1_566 S
C201 C206 1.350 . S
C201 N209 1.427 . S
C202 H193 0.930 . S
C202 C200 1.378 1_554 S
C202 C203 1.367 . S
C203 C202 1.367 . S
C203 C205 1.433 . S
C204 C200 1.350 1_554 S
C204 C201 1.463 1_544 S
C204 N208 1.427 . S
C205 H195 0.929 . S
C205 C203 1.433 . S
C205 N208 1.384 . S
C206 H197 0.929 1_556 S
C206 C198 1.378 . S
C206 C201 1.350 . S
C207 H194 0.929 . S
C207 C199 1.433 . S
C207 N209 1.384 . S
N208 C204 1.427 . S
N208 C205 1.384 . S
N209 C201 1.427 . S
N209 C207 1.384 . S
H210 C216 0.930 . S
H211 C220 0.930 . S
H212 C225 0.929 . S
H213 C223 0.929 . S
H214 C218 0.929 . S
H215 C224 0.929 . S
C216 H210 0.930 . S
C216 C217 1.367 1_655 S
C216 C224 1.378 . S
C217 C216 1.367 1_455 S
C217 C225 1.433 . S
C218 H214 0.929 . S
C218 C220 1.378 . S
C218 C222 1.350 . S
C219 C222 1.463 1_565 S
C219 C224 1.350 1_455 S
C219 N227 1.427 . S
C220 H211 0.930 . S
C220 C218 1.378 . S
C220 C221 1.367 . S
C221 C220 1.367 . S
C221 C223 1.433 1_455 S
C222 C218 1.350 . S
C222 C219 1.463 1_545 S
C222 N226 1.427 1_455 S
C223 H213 0.929 . S
C223 C221 1.433 1_655 S
C223 N226 1.384 . S
C224 H215 0.929 . S
C224 C216 1.378 . S
C224 C219 1.350 1_655 S
C225 H212 0.929 . S
C225 C217 1.433 . S
C225 N227 1.384 . S
N226 C222 1.427 1_655 S
N226 C223 1.384 . S
N227 C219 1.427 . S
N227 C225 1.384 . S
H228 C234 0.930 . S
H229 C238 0.930 . S
H230 C243 0.929 1_655 S
H231 C241 0.929 . S
H232 C236 0.929 . S
H233 C242 0.929 . S
C234 H228 0.930 . S
C234 C235 1.367 . S
C234 C242 1.378 1_554 S
C235 C234 1.367 . S
C235 C243 1.433 . S
C236 H232 0.929 . S
C236 C238 1.378 . S
C236 C240 1.350 . S
C237 C240 1.463 . S
C237 C242 1.350 . S
C237 N245 1.427 . S
C238 H229 0.930 . S
C238 C236 1.378 . S
C238 C239 1.367 . S
C239 C238 1.367 . S
C239 C241 1.433 . S
C240 C236 1.350 . S
C240 C237 1.463 . S
C240 N244 1.427 . S
C241 H231 0.929 . S
C241 C239 1.433 . S
C241 N244 1.384 . S
C242 H233 0.929 . S
C242 C234 1.378 1_556 S
C242 C237 1.350 . S
C243 H230 0.929 1_455 S
C243 C235 1.433 . S
C243 N245 1.384 1_554 S
N244 C240 1.427 . S
N244 C241 1.384 . S
N245 C237 1.427 . S
N245 C243 1.384 1_556 S
H246 C252 0.930 . S
H247 C256 0.930 1_455 S
H248 C261 0.929 . S
H249 C259 0.929 . S
H250 C254 0.929 1_455 S
H251 C260 0.929 . S
C252 H246 0.930 . S
C252 C253 1.367 . S
C252 C260 1.378 1_556 S
C253 C252 1.367 . S
C253 C261 1.433 1_655 S
C254 H250 0.929 1_655 S
C254 C256 1.378 . S
C254 C258 1.350 . S
C255 C258 1.463 . S
C255 C260 1.350 . S
C255 N263 1.425 1_655 S
C256 H247 0.930 1_655 S
C256 C254 1.378 . S
C256 C257 1.367 . S
C257 C256 1.367 . S
C257 C259 1.433 . S
C258 C254 1.350 . S
C258 C255 1.463 . S
C258 N262 1.427 . S
C259 H249 0.929 . S
C259 C257 1.433 . S
C259 N262 1.384 . S
C260 H251 0.929 . S
C260 C252 1.378 1_554 S
C260 C255 1.350 . S
C261 H248 0.929 . S
C261 C253 1.433 1_455 S
C261 N263 1.385 1_556 S
N262 C258 1.427 . S
N262 C259 1.384 . S
N263 C255 1.425 1_455 S
N263 C261 1.385 1_554 S
H264 C270 0.930 . S
H265 C274 0.930 . S
H266 C279 0.929 . S
H267 C277 0.929 . S
H268 C272 0.929 . S
H269 C278 0.929 . S
C270 H264 0.930 . S
C270 C271 1.367 . S
C270 C278 1.378 . S
C271 C270 1.367 . S
C271 C279 1.433 . S
C272 H268 0.929 . S
C272 C274 1.378 . S
C272 C276 1.350 . S
C273 C276 1.463 . S
C273 C278 1.350 . S
C273 N281 1.427 . S
C274 H265 0.930 . S
C274 C272 1.378 . S
C274 C275 1.367 . S
C275 C274 1.367 . S
C275 C277 1.433 . S
C276 C272 1.350 . S
C276 C273 1.463 . S
C276 N280 1.427 . S
C277 H267 0.929 . S
C277 C275 1.433 . S
C277 N280 1.384 . S
C278 H269 0.929 . S
C278 C270 1.378 . S
C278 C273 1.350 . S
C279 H266 0.929 . S
C279 C271 1.433 . S
C279 N281 1.384 . S
N280 C276 1.427 . S
N280 C277 1.384 . S
N281 C273 1.427 . S
N281 C279 1.384 . S
H282 C288 0.930 . S
H283 C292 0.930 . S
H284 C297 0.929 . S
H285 C295 0.929 . S
H286 C290 0.929 . S
H287 C296 0.929 . S
C288 H282 0.930 . S
C288 C289 1.367 . S
C288 C296 1.378 . S
C289 C288 1.367 . S
C289 C297 1.433 . S
C290 H286 0.929 . S
C290 C292 1.378 . S
C290 C294 1.350 . S
C291 C294 1.463 . S
C291 C296 1.350 . S
C291 N299 1.427 . S
C292 H283 0.930 . S
C292 C290 1.378 . S
C292 C293 1.367 . S
C293 C292 1.367 . S
C293 C295 1.433 . S
C294 C290 1.350 . S
C294 C291 1.463 . S
C294 N298 1.427 . S
C295 H285 0.929 . S
C295 C293 1.433 . S
C295 N298 1.384 . S
C296 H287 0.929 . S
C296 C288 1.378 . S
C296 C291 1.350 . S
C297 H284 0.929 . S
C297 C289 1.433 . S
C297 N299 1.384 . S
N298 C294 1.427 . S
N298 C295 1.384 . S
N299 C291 1.427 . S
N299 C297 1.384 . S
C91 C3 1.375 . S
C95 C25 1.531 . S
C109 C62 1.257 . S
C113 C40 1.265 . S
C127 C67 1.343 . S
C131 C49 1.509 . S
C145 C7 1.655 . S
C149 C79 1.661 . S
C163 C83 1.265 . S
C167 C4 1.264 . S
C181 C58 1.663 . S
C185 C24 1.684 . S
C199 C46 1.358 . S
C203 C70 1.524 . S
C217 C28 1.342 . S
C221 C19 1.516 . S
C235 C16 1.141 . S
C239 C20 1.120 . S
C253 C41 1.140 1_655 S
C257 C37 1.140 . S
C271 C45 1.119 . S
C275 C61 1.134 . S
C289 C82 1.123 . S
C293 C66 1.127 . S
