# Generated by pormake.
# Topology smu, (6)-cn, num edge types: 1
# Building blocks:
#     Node 0, Type 0, BuildingBlock: MIFKUJ_clean_sbu_0, # of connection points: 6
#     Node 1, Type 0, BuildingBlock: MIFKUJ_clean_sbu_0, # of connection points: 6
#     Node 2, Type 0, BuildingBlock: MIFKUJ_clean_sbu_0, # of connection points: 6
#     Node 3, Type 0, BuildingBlock: MIFKUJ_clean_sbu_0, # of connection points: 6
#     Node 4, Type 0, BuildingBlock: MIFKUJ_clean_sbu_0, # of connection points: 6
#     Node 5, Type 0, BuildingBlock: MIFKUJ_clean_sbu_0, # of connection points: 6
#     Edge 6, Type (0, 0), BuildingBlock: AJUNOK_clean_linker_0, # of connection points: 2
#     Edge 7, Type (0, 0), BuildingBlock: AJUNOK_clean_linker_0, # of connection points: 2
#     Edge 8, Type (0, 0), BuildingBlock: AJUNOK_clean_linker_0, # of connection points: 2
#     Edge 9, Type (0, 0), BuildingBlock: AJUNOK_clean_linker_0, # of connection points: 2
#     Edge 10, Type (0, 0), BuildingBlock: AJUNOK_clean_linker_0, # of connection points: 2
#     Edge 11, Type (0, 0), BuildingBlock: AJUNOK_clean_linker_0, # of connection points: 2
#     Edge 12, Type (0, 0), BuildingBlock: AJUNOK_clean_linker_0, # of connection points: 2
#     Edge 13, Type (0, 0), BuildingBlock: AJUNOK_clean_linker_0, # of connection points: 2
#     Edge 14, Type (0, 0), BuildingBlock: AJUNOK_clean_linker_0, # of connection points: 2
#     Edge 15, Type (0, 0), BuildingBlock: AJUNOK_clean_linker_0, # of connection points: 2
#     Edge 16, Type (0, 0), BuildingBlock: AJUNOK_clean_linker_0, # of connection points: 2
#     Edge 17, Type (0, 0), BuildingBlock: AJUNOK_clean_linker_0, # of connection points: 2
#     Edge 18, Type (0, 0), BuildingBlock: AJUNOK_clean_linker_0, # of connection points: 2
#     Edge 19, Type (0, 0), BuildingBlock: AJUNOK_clean_linker_0, # of connection points: 2
#     Edge 20, Type (0, 0), BuildingBlock: AJUNOK_clean_linker_0, # of connection points: 2
#     Edge 21, Type (0, 0), BuildingBlock: AJUNOK_clean_linker_0, # of connection points: 2
#     Edge 22, Type (0, 0), BuildingBlock: AJUNOK_clean_linker_0, # of connection points: 2
#     Edge 23, Type (0, 0), BuildingBlock: AJUNOK_clean_linker_0, # of connection points: 2
# Relax obj value: 0.243
# Max RMSD: 0.310
# Mean RMSD: 0.310
data_MOF--net-smu--node1-MIFKUJ_clean_sbu_0--edge1-AJUNOK_clean_linker_0
_symmetry_space_group_name_H-M    P1
_symmetry_Int_Tables_number       1
_symmetry_cell_setting            triclinic
loop_
_symmetry_equiv_pos_as_xyz
'x, y, z'
_cell_length_a     26.353678
_cell_length_b     26.459826
_cell_length_c     19.994858
_cell_angle_alpha  90.070637
_cell_angle_beta   90.082211
_cell_angle_gamma 120.45759
loop_
_atom_site_label
_atom_site_type_symbol
_atom_site_fract_x
_atom_site_fract_y
_atom_site_fract_z
_atom_type_partial_charge
Zn0 Zn 0.26757 0.04585 0.22635 0.0
Zn1 Zn 0.43193 0.10594 0.21945 0.0
C2 C 0.21823 0.11288 0.25672 0.0
O3 O 0.20968 0.08144 0.31083 0.0
C4 C 0.54323 0.1027 0.20146 0.0
O5 O 0.51636 0.06074 0.15697 0.0
O6 O 0.18649 0.97587 0.23994 0.0
O7 O 0.30156 0.02837 0.14737 0.0
O8 O 0.39515 0.05261 0.14019 0.0
C9 C 0.15978 0.92692 0.20958 0.0
O10 O 0.1857 0.91655 0.15978 0.0
O11 O 0.25047 0.11074 0.21087 0.0
C12 C 0.46032 0.22318 0.24573 0.0
O13 O 0.4692 0.20869 0.3056 0.0
O14 O 0.43952 0.18413 0.20034 0.0
O15 O 0.39922 0.07576 0.31074 0.0
O16 O 0.30533 0.05085 0.31342 0.0
O17 O 0.51566 0.12491 0.22923 0.0
C18 C 0.34331 0.02815 0.11614 0.0
C19 C 0.35172 0.05922 0.34244 0.0
Zn20 Zn 0.79642 0.7516 0.2149 0.0
Zn21 Zn 0.69029 0.58934 0.21288 0.0
C22 C 0.90908 0.78556 0.25798 0.0
O23 O 0.88631 0.79883 0.3087 0.0
C24 C 0.59877 0.46911 0.17604 0.0
O25 O 0.62078 0.48265 0.11542 0.0
O26 O 0.81689 0.83569 0.2224 0.0
O27 O 0.74737 0.7202 0.13241 0.0
O28 O 0.67944 0.6256 0.12967 0.0
C29 C 0.78608 0.85747 0.20292 0.0
O30 O 0.73604 0.82415 0.17166 0.0
O31 O 0.87548 0.75745 0.20916 0.0
C32 C 0.76235 0.5449 0.24965 0.0
O33 O 0.7248 0.5283 0.29943 0.0
O34 O 0.75958 0.57725 0.20456 0.0
O35 O 0.6893 0.62496 0.30097 0.0
O36 O 0.75607 0.71941 0.30122 0.0
O37 O 0.62039 0.50789 0.22158 0.0
C38 C 0.70543 0.67618 0.10303 0.0
C39 C 0.71679 0.67403 0.33066 0.0
Zn40 Zn 0.96208 0.22 0.22486 0.0
Zn41 Zn 0.90396 0.31833 0.22495 0.0
C42 C 0.88546 0.1053 0.25938 0.0
O43 O 0.91963 0.12705 0.3122 0.0
C44 C 0.88909 0.42163 0.19862 0.0
O45 O 0.92497 0.43528 0.14752 0.0
O46 O 0.02763 0.20294 0.23675 0.0
O47 O 0.98421 0.27192 0.14522 0.0
O48 O 0.95577 0.33796 0.14411 0.0
C49 C 0.05296 0.18987 0.19174 0.0
O50 O 0.03725 0.18763 0.12895 0.0
O51 O 0.89038 0.14023 0.2129 0.0
C52 C 0.79268 0.22775 0.26113 0.0
O53 O 0.80989 0.26056 0.31526 0.0
O54 O 0.82939 0.24074 0.21389 0.0
O55 O 0.94225 0.32592 0.31379 0.0
O56 O 0.96665 0.25758 0.31172 0.0
O57 O 0.8761 0.37627 0.2329 0.0
C58 C 0.98319 0.31476 0.11813 0.0
C59 C 0.96187 0.29666 0.34266 0.0
Zn60 Zn 0.09814 0.43156 0.72834 0.0
Zn61 Zn 0.06123 0.27943 0.73405 0.0
C62 C 0.21239 0.46476 0.77805 0.0
O63 O 0.1902 0.47544 0.83137 0.0
C64 C 0.963 0.16629 0.70197 0.0
O65 O 0.98849 0.18172 0.64323 0.0
O66 O 0.1123 0.51267 0.74367 0.0
O67 O 0.05938 0.40287 0.64045 0.0
O68 O 0.04672 0.3143 0.65256 0.0
C69 C 0.09757 0.54192 0.70631 0.0
O70 O 0.07024 0.51914 0.64956 0.0
O71 O 0.17923 0.4412 0.72752 0.0
C72 C 0.12408 0.2212 0.75539 0.0
O73 O 0.09923 0.21493 0.8141 0.0
O74 O 0.11855 0.25307 0.71191 0.0
O75 O 0.08239 0.32432 0.82123 0.0
O76 O 0.04948 0.38564 0.80631 0.0
O77 O 0.98535 0.20233 0.75042 0.0
C78 C 0.04397 0.35259 0.6171 0.0
C79 C 0.06185 0.35508 0.84438 0.0
Zn80 Zn 0.31238 0.89681 0.71853 0.0
Zn81 Zn 0.21563 0.95636 0.72666 0.0
C82 C 0.21908 0.79021 0.75924 0.0
O83 O 0.2534 0.8083 0.81221 0.0
C84 C 0.19117 0.04856 0.69233 0.0
O85 O 0.18048 0.02399 0.63293 0.0
O86 O 0.36594 0.86367 0.72375 0.0
O87 O 0.33349 0.94826 0.63875 0.0
O88 O 0.26755 0.97639 0.64586 0.0
C89 C 0.42139 0.88991 0.71618 0.0
O90 O 0.45 0.94515 0.69775 0.0
O91 O 0.23226 0.82522 0.71027 0.0
C92 C 0.09446 0.88567 0.75392 0.0
O93 O 0.11391 0.91526 0.81011 0.0
O94 O 0.13191 0.89119 0.7101 0.0
O95 O 0.24983 0.95286 0.81488 0.0
O96 O 0.32384 0.93593 0.80654 0.0
O97 O 0.20694 0.02718 0.73934 0.0
C98 C 0.30926 0.97539 0.61517 0.0
C99 C 0.29227 0.94979 0.84073 0.0
Zn100 Zn 0.57876 0.68452 0.7126 0.0
Zn101 Zn 0.73732 0.79834 0.72091 0.0
C102 C 0.54238 0.76021 0.76078 0.0
O103 O 0.52909 0.72373 0.811 0.0
C104 C 0.85009 0.8082 0.69181 0.0
O105 O 0.83495 0.81137 0.63005 0.0
O106 O 0.49369 0.61739 0.71473 0.0
O107 O 0.61284 0.67703 0.62751 0.0
O108 O 0.70517 0.74959 0.63704 0.0
C109 C 0.46791 0.5895 0.76764 0.0
O110 O 0.49817 0.60181 0.82354 0.0
O111 O 0.57168 0.75686 0.71232 0.0
C112 C 0.7934 0.91999 0.74985 0.0
O113 O 0.79853 0.89948 0.80772 0.0
O114 O 0.76367 0.8836 0.70376 0.0
O115 O 0.69311 0.76979 0.80825 0.0
O116 O 0.61915 0.67852 0.79448 0.0
O117 O 0.81466 0.80129 0.73887 0.0
C118 C 0.66417 0.7079 0.60366 0.0
C119 C 0.65872 0.71853 0.83079 0.0
C120 C 0.26302 0.96555 0.95316 0.0
C121 C 0.30582 0.96482 0.91218 0.0
C122 C 0.27518 0.98384 0.01954 0.0
C123 C 0.33089 1.00255 0.04803 0.0
H124 H 0.21973 0.95279 0.93364 0.0
H125 H 0.24081 0.98497 0.04787 0.0
S126 S 0.45729 0.00482 0.96327 0.0
N127 N 0.40531 0.98104 0.90552 0.0
N128 N 0.42839 0.01583 0.03099 0.0
C129 C 0.37358 0.99989 0.00844 0.0
C130 C 0.36101 0.98087 0.94043 0.0
C131 C 0.72629 0.74045 0.5013 0.0
C132 C 0.67678 0.69648 0.535 0.0
C133 C 0.73889 0.7323 0.43576 0.0
C134 C 0.70266 0.67967 0.40097 0.0
H135 H 0.75521 0.78219 0.52518 0.0
H136 H 0.77739 0.76797 0.41221 0.0
S137 S 0.56862 0.54954 0.4676 0.0
N138 N 0.59195 0.59753 0.52952 0.0
N139 N 0.61568 0.58205 0.40591 0.0
C140 C 0.65339 0.63476 0.43437 0.0
C141 C 0.64038 0.64325 0.50134 0.0
C142 C 0.98665 0.35596 0.00509 0.0
C143 C 0.01058 0.33413 0.05182 0.0
C144 C 0.00515 0.36475 0.93838 0.0
C145 C 0.04804 0.35184 0.91624 0.0
H146 H 0.95134 0.36348 0.01922 0.0
H147 H 0.98376 0.37931 0.90343 0.0
S148 S 0.13231 0.30476 0.02212 0.0
N149 N 0.08532 0.3081 0.07383 0.0
N150 N 0.1195 0.3238 0.94821 0.0
C151 C 0.07516 0.33392 0.96354 0.0
C152 C 0.05659 0.32532 0.03144 0.0
C153 C 0.30164 0.04276 0.45188 0.0
C154 C 0.34789 0.04525 0.41436 0.0
C155 C 0.29133 0.02244 0.51752 0.0
C156 C 0.32658 0.00332 0.54855 0.0
H157 H 0.27195 0.0552 0.42986 0.0
H158 H 0.25388 0.01978 0.54305 0.0
S159 S 0.45738 0.00672 0.47423 0.0
N160 N 0.43241 0.03138 0.41438 0.0
N161 N 0.41292 0.99282 0.53847 0.0
C162 C 0.375 0.00838 0.51284 0.0
C163 C 0.38575 0.02955 0.44567 0.0
C164 C 0.7021 0.75236 0.94431 0.0
C165 C 0.66561 0.70579 0.90128 0.0
C166 C 0.71322 0.74214 0.00968 0.0
C167 C 0.6884 0.68485 0.03516 0.0
H168 H 0.72311 0.79737 0.92727 0.0
H169 H 0.74241 0.7798 0.04005 0.0
S170 S 0.5879 0.54728 0.94381 0.0
N171 N 0.60325 0.59991 0.88933 0.0
N172 N 0.62391 0.58072 0.01271 0.0
C173 C 0.65041 0.63775 -0.00659 0.0
C174 C 0.6391 0.6482 0.92644 0.0
C175 C 0.97679 0.35237 0.44934 0.0
C176 C 0.98235 0.30982 0.41294 0.0
C177 C 0.99712 0.36638 0.51537 0.0
C178 C 0.02332 0.33805 0.54741 0.0
H179 H 0.95668 0.37519 0.42679 0.0
H180 H 0.99173 0.39919 0.54165 0.0
S181 S 0.05145 0.22577 0.47378 0.0
N182 N 0.01783 0.24063 0.41403 0.0
N183 N 0.05651 0.26779 0.53735 0.0
C184 C 0.02975 0.29594 0.51159 0.0
C185 C 0.00911 0.28159 0.44458 0.0
C186 C 0.62801 0.15867 0.27858 0.0
C187 C 0.60598 0.12636 0.21901 0.0
C188 C 0.68806 0.18785 0.29374 0.0
C189 C 0.72896 0.18665 0.2496 0.0
H190 H 0.59882 0.16293 0.31325 0.0
H191 H 0.70258 0.21392 0.33906 0.0
S192 S 0.6933 0.10206 0.09101 0.0
N193 N 0.62902 0.08982 0.11872 0.0
N194 N 0.74245 0.14534 0.14691 0.0
C195 C 0.70724 0.15145 0.1918 0.0
C196 C 0.64565 0.12114 0.17659 0.0
C197 C 0.53497 0.36334 0.14424 0.0
C198 C 0.55523 0.40735 0.19363 0.0
C199 C 0.50084 0.30383 0.16099 0.0
C200 C 0.48598 0.28589 0.22791 0.0
H201 H 0.54744 0.37465 0.09242 0.0
H202 H 0.48879 0.27167 0.12146 0.0
S203 S 0.52001 0.38367 0.37501 0.0
N204 N 0.55166 0.42875 0.31161 0.0
N205 N 0.4882 0.31702 0.34282 0.0
C206 C 0.50248 0.32944 0.2772 0.0
C207 C 0.53688 0.39009 0.26015 0.0
C208 C 0.86153 0.49674 0.16832 0.0
C209 C 0.86159 0.45713 0.21519 0.0
C210 C 0.83143 0.52691 0.18093 0.0
C211 C 0.8004 0.51885 0.24105 0.0
H212 H 0.88329 0.50316 0.12054 0.0
H213 H 0.831 0.55531 0.14225 0.0
S214 S 0.79312 0.42556 0.38378 0.0
N215 N 0.8323 0.41551 0.32669 0.0
N216 N 0.77621 0.47216 0.35045 0.0
C217 C 0.80271 0.48165 0.28975 0.0
C218 C 0.8331 0.45079 0.2768 0.0
C219 C 0.12538 0.64391 0.67286 0.0
C220 C 0.11793 0.6038 0.7234 0.0
C221 C 0.15428 0.70432 0.68596 0.0
C222 C 0.17658 0.72672 0.75012 0.0
H223 H 0.11194 0.62903 0.62195 0.0
H224 H 0.16216 0.73371 0.6445 0.0
S225 S 0.15727 0.63876 0.90264 0.0
N226 N 0.12713 0.58983 0.84209 0.0
N227 N 0.18095 0.70305 0.86685 0.0
C228 C 0.16447 0.68654 0.80232 0.0
C229 C 0.13537 0.62516 0.78891 0.0
C230 C 0.50892 0.87705 0.70248 0.0
C231 C 0.45324 0.85831 0.73067 0.0
C232 C 0.53831 0.8459 0.71351 0.0
C233 C 0.51368 0.79574 0.75436 0.0
H234 H 0.5293 0.91516 0.67029 0.0
H235 H 0.58037 0.86092 0.68945 0.0
S236 S 0.36977 0.72971 0.84195 0.0
N237 N 0.37532 0.78706 0.8026 0.0
N238 N 0.43065 0.72931 0.82394 0.0
C239 C 0.45875 0.77752 0.7843 0.0
C240 C 0.4285 0.80856 0.77225 0.0
C241 C 0.31116 0.50789 0.83269 0.0
C242 C 0.27689 0.48831 0.77404 0.0
C243 C 0.3728 0.538 0.83018 0.0
C244 C 0.4029 0.55047 0.76883 0.0
H245 H 0.29031 0.50147 0.88106 0.0
H246 H 0.39691 0.55376 0.87675 0.0
S247 S 0.33406 0.50367 0.60099 0.0
N248 N 0.27783 0.4794 0.65287 0.0
N249 N 0.39369 0.53659 0.64822 0.0
C250 C 0.36927 0.52869 0.70994 0.0
C251 C 0.30633 0.4974 0.71253 0.0
C252 C 0.17997 0.16094 0.17976 0.0
C253 C 0.18116 0.1394 0.24382 0.0
C254 C 0.13893 0.17794 0.16349 0.0
C255 C 0.09791 0.17461 0.2108 0.0
H256 H 0.2096 0.16289 0.14104 0.0
H257 H 0.13896 0.19318 0.11322 0.0
S258 S 0.08329 0.12278 0.38609 0.0
N259 N 0.13848 0.11747 0.35546 0.0
N260 N 0.06159 0.14913 0.32478 0.0
C261 C 0.09978 0.15492 0.27562 0.0
C262 C 0.14136 0.13747 0.29215 0.0
C263 C 0.99908 0.80848 0.19162 0.0
C264 C 0.97406 0.81381 0.25154 0.0
C265 C 0.05979 0.84306 0.17963 0.0
C266 C 0.09766 0.88455 0.2269 0.0
H267 H 0.97135 0.77928 0.15231 0.0
H268 H 0.07657 0.83922 0.13163 0.0
S269 S 0.05611 0.90947 0.3959 0.0
N270 N 0.99351 0.85913 0.36196 0.0
N271 N 0.10701 0.92422 0.33901 0.0
C272 C 0.07389 0.88753 0.28875 0.0
C273 C 0.01229 0.85209 0.30121 0.0
C274 C 0.86827 0.00614 0.28676 0.0
C275 C 0.85326 0.04105 0.24804 0.0
C276 C 0.84563 0.94687 0.27203 0.0
C277 C 0.80621 0.91956 0.2186 0.0
H278 H 0.89965 0.02506 0.32745 0.0
H279 H 0.85975 0.92242 0.30257 0.0
S280 S 0.74876 0.98996 0.1051 0.0
N281 N 0.79388 0.04319 0.15601 0.0
N282 N 0.7503 0.93101 0.129 0.0
C283 C 0.78857 0.95308 0.1812 0.0
C284 C 0.81236 0.01399 0.19571 0.0
C285 C 0.16052 0.15412 0.78813 0.0
C286 C 0.14893 0.18369 0.73736 0.0
C287 C 0.17613 0.1121 0.77297 0.0
C288 C 0.18026 0.09738 0.70631 0.0
H289 H 0.15602 0.16232 0.84027 0.0
H290 H 0.18304 0.0896 0.81407 0.0
S291 S 0.15919 0.16551 0.55453 0.0
N292 N 0.14649 0.19806 0.61739 0.0
N293 N 0.17552 0.1188 0.58889 0.0
C294 C 0.17119 0.12831 0.65491 0.0
C295 C 0.15572 0.17157 0.67041 0.0
C296 C 0.99044 0.85006 0.78823 0.0
C297 C 0.03052 0.85632 0.73782 0.0
C298 C 0.93161 0.83188 0.77331 0.0
C299 C 0.91027 0.8195 0.70719 0.0
H300 H 0.00502 0.8613 0.8396 0.0
H301 H 0.90337 0.82991 0.81377 0.0
S302 S 0.99503 0.82199 0.55764 0.0
N303 N 0.04302 0.84333 0.61964 0.0
N304 N 0.93261 0.80936 0.59158 0.0
C305 C 0.94891 0.82229 0.65674 0.0
C306 C 0.00888 0.84052 0.67204 0.0
C307 C 0.89937 0.08264 0.77832 0.0
C308 C 0.91366 0.10537 0.71307 0.0
C309 C 0.85837 0.02323 0.78966 0.0
C310 C 0.82948 0.98405 0.73632 0.0
H311 H 0.92175 0.11031 0.82106 0.0
H312 H 0.85068 0.00762 0.84078 0.0
S313 S 0.84635 0.02292 0.55603 0.0
N314 N 0.89198 0.08498 0.59443 0.0
N315 N 0.81488 0.97362 0.61575 0.0
C316 C 0.84089 0.00692 0.67095 0.0
C317 C 0.883 0.06741 0.65935 0.0
loop_
_geom_bond_atom_site_label_1
_geom_bond_atom_site_label_2
_geom_bond_distance
_geom_bond_site_symmetry_2
_ccdc_geom_bond_type
Zn0 O6 1.969 1_545 S
Zn0 O7 1.965 . S
Zn0 O11 2.024 . S
Zn0 O16 1.969 . S
Zn1 O8 1.969 . S
Zn1 O14 1.969 . S
Zn1 O15 1.965 . S
Zn1 O17 2.024 . S
C2 O3 1.229 . S
C2 O11 1.058 . S
O3 C2 1.229 . S
C4 O5 1.229 . S
C4 O17 1.058 . S
O5 C4 1.229 . S
O6 Zn0 1.969 1_565 S
O6 C9 1.267 . S
O7 Zn0 1.965 . S
O7 C18 1.260 . S
O8 Zn1 1.969 . S
O8 C18 1.258 . S
C9 O6 1.267 . S
C9 O10 1.228 . S
O10 C9 1.228 . S
O11 Zn0 2.024 . S
O11 C2 1.058 . S
C12 O13 1.228 . S
C12 O14 1.267 . S
O13 C12 1.228 . S
O14 Zn1 1.969 . S
O14 C12 1.267 . S
O15 Zn1 1.965 . S
O15 C19 1.260 . S
O16 Zn0 1.969 . S
O16 C19 1.258 . S
O17 Zn1 2.024 . S
O17 C4 1.058 . S
C18 O7 1.260 . S
C18 O8 1.258 . S
C19 O15 1.260 . S
C19 O16 1.258 . S
Zn20 O26 1.969 . S
Zn20 O27 1.965 . S
Zn20 O31 2.024 . S
Zn20 O36 1.969 . S
Zn21 O28 1.969 . S
Zn21 O34 1.969 . S
Zn21 O35 1.965 . S
Zn21 O37 2.024 . S
C22 O23 1.229 . S
C22 O31 1.058 . S
O23 C22 1.229 . S
C24 O25 1.229 . S
C24 O37 1.058 . S
O25 C24 1.229 . S
O26 Zn20 1.969 . S
O26 C29 1.267 . S
O27 Zn20 1.965 . S
O27 C38 1.260 . S
O28 Zn21 1.969 . S
O28 C38 1.258 . S
C29 O26 1.267 . S
C29 O30 1.228 . S
O30 C29 1.228 . S
O31 Zn20 2.024 . S
O31 C22 1.058 . S
C32 O33 1.228 . S
C32 O34 1.267 . S
O33 C32 1.228 . S
O34 Zn21 1.969 . S
O34 C32 1.267 . S
O35 Zn21 1.965 . S
O35 C39 1.260 . S
O36 Zn20 1.969 . S
O36 C39 1.258 . S
O37 Zn21 2.024 . S
O37 C24 1.058 . S
C38 O27 1.260 . S
C38 O28 1.258 . S
C39 O35 1.260 . S
C39 O36 1.258 . S
Zn40 O46 1.969 1_655 S
Zn40 O47 1.965 . S
Zn40 O51 2.024 . S
Zn40 O56 1.969 . S
Zn41 O48 1.969 . S
Zn41 O54 1.969 . S
Zn41 O55 1.965 . S
Zn41 O57 2.024 . S
C42 O43 1.229 . S
C42 O51 1.058 . S
O43 C42 1.229 . S
C44 O45 1.229 . S
C44 O57 1.058 . S
O45 C44 1.229 . S
O46 Zn40 1.969 1_455 S
O46 C49 1.267 . S
O47 Zn40 1.965 . S
O47 C58 1.260 . S
O48 Zn41 1.969 . S
O48 C58 1.258 . S
C49 O46 1.267 . S
C49 O50 1.228 . S
O50 C49 1.228 . S
O51 Zn40 2.024 . S
O51 C42 1.058 . S
C52 O53 1.228 . S
C52 O54 1.267 . S
O53 C52 1.228 . S
O54 Zn41 1.969 . S
O54 C52 1.267 . S
O55 Zn41 1.965 . S
O55 C59 1.260 . S
O56 Zn40 1.969 . S
O56 C59 1.258 . S
O57 Zn41 2.024 . S
O57 C44 1.058 . S
C58 O47 1.260 . S
C58 O48 1.258 . S
C59 O55 1.260 . S
C59 O56 1.258 . S
Zn60 O66 1.969 . S
Zn60 O67 1.965 . S
Zn60 O71 2.024 . S
Zn60 O76 1.969 . S
Zn61 O68 1.969 . S
Zn61 O74 1.969 . S
Zn61 O75 1.965 . S
Zn61 O77 2.024 1_455 S
C62 O63 1.229 . S
C62 O71 1.058 . S
O63 C62 1.229 . S
C64 O65 1.229 . S
C64 O77 1.058 . S
O65 C64 1.229 . S
O66 Zn60 1.969 . S
O66 C69 1.267 . S
O67 Zn60 1.965 . S
O67 C78 1.260 . S
O68 Zn61 1.969 . S
O68 C78 1.258 . S
C69 O66 1.267 . S
C69 O70 1.228 . S
O70 C69 1.228 . S
O71 Zn60 2.024 . S
O71 C62 1.058 . S
C72 O73 1.228 . S
C72 O74 1.267 . S
O73 C72 1.228 . S
O74 Zn61 1.969 . S
O74 C72 1.267 . S
O75 Zn61 1.965 . S
O75 C79 1.260 . S
O76 Zn60 1.969 . S
O76 C79 1.258 . S
O77 Zn61 2.024 1_655 S
O77 C64 1.058 . S
C78 O67 1.260 . S
C78 O68 1.258 . S
C79 O75 1.260 . S
C79 O76 1.258 . S
Zn80 O86 1.969 . S
Zn80 O87 1.965 . S
Zn80 O91 2.024 . S
Zn80 O96 1.969 . S
Zn81 O88 1.969 . S
Zn81 O94 1.969 . S
Zn81 O95 1.965 . S
Zn81 O97 2.024 1_565 S
C82 O83 1.229 . S
C82 O91 1.058 . S
O83 C82 1.229 . S
C84 O85 1.229 . S
C84 O97 1.058 . S
O85 C84 1.229 . S
O86 Zn80 1.969 . S
O86 C89 1.267 . S
O87 Zn80 1.965 . S
O87 C98 1.260 . S
O88 Zn81 1.969 . S
O88 C98 1.258 . S
C89 O86 1.267 . S
C89 O90 1.228 . S
O90 C89 1.228 . S
O91 Zn80 2.024 . S
O91 C82 1.058 . S
C92 O93 1.228 . S
C92 O94 1.267 . S
O93 C92 1.228 . S
O94 Zn81 1.969 . S
O94 C92 1.267 . S
O95 Zn81 1.965 . S
O95 C99 1.260 . S
O96 Zn80 1.969 . S
O96 C99 1.258 . S
O97 Zn81 2.024 1_545 S
O97 C84 1.058 . S
C98 O87 1.260 . S
C98 O88 1.258 . S
C99 O95 1.260 . S
C99 O96 1.258 . S
Zn100 O106 1.969 . S
Zn100 O107 1.965 . S
Zn100 O111 2.024 . S
Zn100 O116 1.969 . S
Zn101 O108 1.969 . S
Zn101 O114 1.969 . S
Zn101 O115 1.965 . S
Zn101 O117 2.024 . S
C102 O103 1.229 . S
C102 O111 1.058 . S
O103 C102 1.229 . S
C104 O105 1.229 . S
C104 O117 1.058 . S
O105 C104 1.229 . S
O106 Zn100 1.969 . S
O106 C109 1.267 . S
O107 Zn100 1.965 . S
O107 C118 1.260 . S
O108 Zn101 1.969 . S
O108 C118 1.258 . S
C109 O106 1.267 . S
C109 O110 1.228 . S
O110 C109 1.228 . S
O111 Zn100 2.024 . S
O111 C102 1.058 . S
C112 O113 1.228 . S
C112 O114 1.267 . S
O113 C112 1.228 . S
O114 Zn101 1.969 . S
O114 C112 1.267 . S
O115 Zn101 1.965 . S
O115 C119 1.260 . S
O116 Zn100 1.969 . S
O116 C119 1.258 . S
O117 Zn101 2.024 . S
O117 C104 1.058 . S
C118 O107 1.260 . S
C118 O108 1.258 . S
C119 O115 1.260 . S
C119 O116 1.258 . S
C120 C121 1.369 . S
C120 C122 1.419 1_566 S
C120 H124 0.930 . S
C121 C120 1.369 . S
C121 C130 1.429 . S
C122 C120 1.419 1_544 S
C122 C123 1.363 . S
C122 H125 0.929 . S
C123 C122 1.363 . S
C123 C129 1.428 . S
H124 C120 0.930 . S
H125 C122 0.929 . S
S126 N127 1.613 1_545 S
S126 N128 1.610 1_556 S
N127 S126 1.613 1_565 S
N127 C130 1.350 . S
N128 S126 1.610 1_554 S
N128 C129 1.351 . S
C129 C123 1.428 . S
C129 N128 1.351 . S
C129 C130 1.434 1_544 S
C130 C121 1.429 . S
C130 N127 1.350 . S
C130 C129 1.434 1_566 S
C131 C132 1.369 . S
C131 C133 1.419 . S
C131 H135 0.930 . S
C132 C131 1.369 . S
C132 C141 1.429 . S
C133 C131 1.419 . S
C133 C134 1.363 . S
C133 H136 0.929 . S
C134 C133 1.363 . S
C134 C140 1.428 . S
H135 C131 0.930 . S
H136 C133 0.929 . S
S137 N138 1.613 . S
S137 N139 1.610 . S
N138 S137 1.613 . S
N138 C141 1.350 . S
N139 S137 1.610 . S
N139 C140 1.351 . S
C140 C134 1.428 . S
C140 N139 1.351 . S
C140 C141 1.434 . S
C141 C132 1.429 . S
C141 N138 1.350 . S
C141 C140 1.434 . S
C142 C143 1.369 1_556 S
C142 C144 1.419 1_655 S
C142 H146 0.930 . S
C143 C142 1.369 1_554 S
C143 C152 1.429 1_655 S
C144 C142 1.419 1_455 S
C144 C145 1.363 . S
C144 H147 0.929 . S
C145 C144 1.363 . S
C145 C151 1.428 1_556 S
H146 C142 0.930 . S
H147 C144 0.929 . S
S148 N149 1.613 . S
S148 N150 1.610 . S
N149 S148 1.613 . S
N149 C152 1.350 . S
N150 S148 1.610 . S
N150 C151 1.351 . S
C151 C145 1.428 1_554 S
C151 N150 1.351 . S
C151 C152 1.434 . S
C152 C143 1.429 1_455 S
C152 N149 1.350 . S
C152 C151 1.434 . S
C153 C154 1.369 . S
C153 C155 1.419 1_545 S
C153 H157 0.930 . S
C154 C153 1.369 . S
C154 C163 1.429 . S
C155 C153 1.419 1_565 S
C155 C156 1.363 . S
C155 H158 0.929 . S
C156 C155 1.363 . S
C156 C162 1.428 . S
H157 C153 0.930 . S
H158 C155 0.929 . S
S159 N160 1.613 1_565 S
S159 N161 1.610 . S
N160 S159 1.613 1_545 S
N160 C163 1.350 . S
N161 S159 1.610 . S
N161 C162 1.351 . S
C162 C156 1.428 . S
C162 N161 1.351 . S
C162 C163 1.434 1_565 S
C163 C154 1.429 . S
C163 N160 1.350 . S
C163 C162 1.434 1_545 S
C164 C165 1.369 1_554 S
C164 C166 1.419 . S
C164 H168 0.930 . S
C165 C164 1.369 1_556 S
C165 C174 1.429 . S
C166 C164 1.419 . S
C166 C167 1.363 . S
C166 H169 0.929 . S
C167 C166 1.363 . S
C167 C173 1.428 1_554 S
H168 C164 0.930 . S
H169 C166 0.929 . S
S170 N171 1.613 . S
S170 N172 1.610 . S
N171 S170 1.613 . S
N171 C174 1.350 . S
N172 S170 1.610 . S
N172 C173 1.351 . S
C173 C167 1.428 1_556 S
C173 N172 1.351 . S
C173 C174 1.434 . S
C174 C165 1.429 . S
C174 N171 1.350 . S
C174 C173 1.434 . S
C175 C176 1.369 . S
C175 C177 1.419 . S
C175 H179 0.930 . S
C176 C175 1.369 . S
C176 C185 1.429 1_655 S
C177 C175 1.419 . S
C177 C178 1.363 1_655 S
C177 H180 0.929 . S
C178 C177 1.363 1_455 S
C178 C184 1.428 . S
H179 C175 0.930 . S
H180 C177 0.929 . S
S181 N182 1.613 . S
S181 N183 1.610 . S
N182 S181 1.613 . S
N182 C185 1.350 . S
N183 S181 1.610 . S
N183 C184 1.351 . S
C184 C178 1.428 . S
C184 N183 1.351 . S
C184 C185 1.434 . S
C185 C176 1.429 1_455 S
C185 N182 1.350 . S
C185 C184 1.434 . S
C186 C187 1.369 . S
C186 C188 1.419 . S
C186 H190 0.930 . S
C187 C186 1.369 . S
C187 C196 1.429 . S
C188 C186 1.419 . S
C188 C189 1.363 . S
C188 H191 0.929 . S
C189 C188 1.363 . S
C189 C195 1.428 . S
H190 C186 0.930 . S
H191 C188 0.929 . S
S192 N193 1.613 . S
S192 N194 1.610 . S
N193 S192 1.613 . S
N193 C196 1.350 . S
N194 S192 1.610 . S
N194 C195 1.351 . S
C195 C189 1.428 . S
C195 N194 1.351 . S
C195 C196 1.434 . S
C196 C187 1.429 . S
C196 N193 1.350 . S
C196 C195 1.434 . S
C197 C198 1.369 . S
C197 C199 1.419 . S
C197 H201 0.930 . S
C198 C197 1.369 . S
C198 C207 1.429 . S
C199 C197 1.419 . S
C199 C200 1.363 . S
C199 H202 0.929 . S
C200 C199 1.363 . S
C200 C206 1.428 . S
H201 C197 0.930 . S
H202 C199 0.929 . S
S203 N204 1.613 . S
S203 N205 1.610 . S
N204 S203 1.613 . S
N204 C207 1.350 . S
N205 S203 1.610 . S
N205 C206 1.351 . S
C206 C200 1.428 . S
C206 N205 1.351 . S
C206 C207 1.434 . S
C207 C198 1.429 . S
C207 N204 1.350 . S
C207 C206 1.434 . S
C208 C209 1.369 . S
C208 C210 1.419 . S
C208 H212 0.930 . S
C209 C208 1.369 . S
C209 C218 1.429 . S
C210 C208 1.419 . S
C210 C211 1.363 . S
C210 H213 0.929 . S
C211 C210 1.363 . S
C211 C217 1.428 . S
H212 C208 0.930 . S
H213 C210 0.929 . S
S214 N215 1.613 . S
S214 N216 1.610 . S
N215 S214 1.613 . S
N215 C218 1.350 . S
N216 S214 1.610 . S
N216 C217 1.351 . S
C217 C211 1.428 . S
C217 N216 1.351 . S
C217 C218 1.434 . S
C218 C209 1.429 . S
C218 N215 1.350 . S
C218 C217 1.434 . S
C219 C220 1.369 . S
C219 C221 1.419 . S
C219 H223 0.930 . S
C220 C219 1.369 . S
C220 C229 1.429 . S
C221 C219 1.419 . S
C221 C222 1.363 . S
C221 H224 0.929 . S
C222 C221 1.363 . S
C222 C228 1.428 . S
H223 C219 0.930 . S
H224 C221 0.929 . S
S225 N226 1.613 . S
S225 N227 1.610 . S
N226 S225 1.613 . S
N226 C229 1.350 . S
N227 S225 1.610 . S
N227 C228 1.351 . S
C228 C222 1.428 . S
C228 N227 1.351 . S
C228 C229 1.434 . S
C229 C220 1.429 . S
C229 N226 1.350 . S
C229 C228 1.434 . S
C230 C231 1.369 . S
C230 C232 1.419 . S
C230 H234 0.930 . S
C231 C230 1.369 . S
C231 C240 1.429 . S
C232 C230 1.419 . S
C232 C233 1.363 . S
C232 H235 0.929 . S
C233 C232 1.363 . S
C233 C239 1.428 . S
H234 C230 0.930 . S
H235 C232 0.929 . S
S236 N237 1.613 . S
S236 N238 1.610 . S
N237 S236 1.613 . S
N237 C240 1.350 . S
N238 S236 1.610 . S
N238 C239 1.351 . S
C239 C233 1.428 . S
C239 N238 1.351 . S
C239 C240 1.434 . S
C240 C231 1.429 . S
C240 N237 1.350 . S
C240 C239 1.434 . S
C241 C242 1.369 . S
C241 C243 1.419 . S
C241 H245 0.930 . S
C242 C241 1.369 . S
C242 C251 1.429 . S
C243 C241 1.419 . S
C243 C244 1.363 . S
C243 H246 0.929 . S
C244 C243 1.363 . S
C244 C250 1.428 . S
H245 C241 0.930 . S
H246 C243 0.929 . S
S247 N248 1.613 . S
S247 N249 1.610 . S
N248 S247 1.613 . S
N248 C251 1.350 . S
N249 S247 1.610 . S
N249 C250 1.351 . S
C250 C244 1.428 . S
C250 N249 1.351 . S
C250 C251 1.434 . S
C251 C242 1.429 . S
C251 N248 1.350 . S
C251 C250 1.434 . S
C252 C253 1.369 . S
C252 C254 1.419 . S
C252 H256 0.930 . S
C253 C252 1.369 . S
C253 C262 1.429 . S
C254 C252 1.419 . S
C254 C255 1.363 . S
C254 H257 0.929 . S
C255 C254 1.363 . S
C255 C261 1.428 . S
H256 C252 0.930 . S
H257 C254 0.929 . S
S258 N259 1.613 . S
S258 N260 1.610 . S
N259 S258 1.613 . S
N259 C262 1.350 . S
N260 S258 1.610 . S
N260 C261 1.351 . S
C261 C255 1.428 . S
C261 N260 1.351 . S
C261 C262 1.434 . S
C262 C253 1.429 . S
C262 N259 1.350 . S
C262 C261 1.434 . S
C263 C264 1.369 1_455 S
C263 C265 1.419 . S
C263 H267 0.930 1_455 S
C264 C263 1.369 1_655 S
C264 C273 1.429 1_655 S
C265 C263 1.419 . S
C265 C266 1.363 . S
C265 H268 0.929 . S
C266 C265 1.363 . S
C266 C272 1.428 . S
H267 C263 0.930 1_655 S
H268 C265 0.929 . S
S269 N270 1.613 1_545 S
S269 N271 1.610 1_545 S
N270 S269 1.613 1_565 S
N270 C273 1.350 . S
N271 S269 1.610 1_565 S
N271 C272 1.351 . S
C272 C266 1.428 . S
C272 N271 1.351 . S
C272 C273 1.434 . S
C273 C264 1.429 1_455 S
C273 N270 1.350 . S
C273 C272 1.434 . S
C274 C275 1.369 1_565 S
C274 C276 1.419 . S
C274 H278 0.930 . S
C275 C274 1.369 1_545 S
C275 C284 1.429 1_545 S
C276 C274 1.419 . S
C276 C277 1.363 . S
C276 H279 0.929 . S
C277 C276 1.363 . S
C277 C283 1.428 . S
H278 C274 0.930 . S
H279 C276 0.929 . S
S280 N281 1.613 1_565 S
S280 N282 1.610 . S
N281 S280 1.613 1_545 S
N281 C284 1.350 1_545 S
N282 S280 1.610 . S
N282 C283 1.351 . S
C283 C277 1.428 . S
C283 N282 1.351 . S
C283 C284 1.434 . S
C284 C275 1.429 1_565 S
C284 N281 1.350 1_565 S
C284 C283 1.434 . S
C285 C286 1.369 . S
C285 C287 1.419 . S
C285 H289 0.930 . S
C286 C285 1.369 . S
C286 C295 1.429 . S
C287 C285 1.419 . S
C287 C288 1.363 . S
C287 H290 0.929 . S
C288 C287 1.363 . S
C288 C294 1.428 . S
H289 C285 0.930 . S
H290 C287 0.929 . S
S291 N292 1.613 . S
S291 N293 1.610 . S
N292 S291 1.613 . S
N292 C295 1.350 . S
N293 S291 1.610 . S
N293 C294 1.351 . S
C294 C288 1.428 . S
C294 N293 1.351 . S
C294 C295 1.434 . S
C295 C286 1.429 . S
C295 N292 1.350 . S
C295 C294 1.434 . S
C296 C297 1.369 . S
C296 C298 1.419 . S
C296 H300 0.930 . S
C297 C296 1.369 . S
C297 C306 1.429 . S
C298 C296 1.419 . S
C298 C299 1.363 . S
C298 H301 0.929 . S
C299 C298 1.363 . S
C299 C305 1.428 . S
H300 C296 0.930 . S
H301 C298 0.929 . S
S302 N303 1.613 . S
S302 N304 1.610 . S
N303 S302 1.613 . S
N303 C306 1.350 . S
N304 S302 1.610 . S
N304 C305 1.351 . S
C305 C299 1.428 . S
C305 N304 1.351 . S
C305 C306 1.434 . S
C306 C297 1.429 . S
C306 N303 1.350 . S
C306 C305 1.434 . S
C307 C308 1.369 . S
C307 C309 1.419 . S
C307 H311 0.930 . S
C308 C307 1.369 . S
C308 C317 1.429 . S
C309 C307 1.419 . S
C309 C310 1.363 . S
C309 H312 0.929 . S
C310 C309 1.363 . S
C310 C316 1.428 . S
H311 C307 0.930 . S
H312 C309 0.929 . S
S313 N314 1.613 . S
S313 N315 1.610 1_545 S
N314 S313 1.613 . S
N314 C317 1.350 . S
N315 S313 1.610 1_565 S
N315 C316 1.351 1_565 S
C316 C310 1.428 . S
C316 N315 1.351 1_545 S
C316 C317 1.434 . S
C317 C308 1.429 . S
C317 N314 1.350 . S
C317 C316 1.434 . S
C121 C99 2.223 . S
C123 C18 2.143 . S
C132 C118 2.099 . S
C134 C39 2.217 . S
C143 C58 2.141 . S
C145 C79 2.227 . S
C154 C19 2.212 . S
C156 C98 2.108 . S
C165 C119 2.222 . S
C167 C38 2.144 . S
C176 C59 2.210 . S
C178 C78 2.107 . S
C187 C4 1.432 . S
C189 C52 1.781 . S
C198 C24 1.426 . S
C200 C12 1.782 . S
C209 C44 1.417 . S
C211 C32 1.783 . S
C220 C69 1.539 . S
C222 C82 1.797 . S
C231 C89 1.534 . S
C233 C102 1.797 . S
C242 C62 1.796 . S
C244 C109 1.535 . S
C253 C2 1.300 . S
C255 C49 1.088 . S
C264 C22 1.300 . S
C266 C9 1.079 . S
C275 C42 1.300 . S
C277 C29 1.096 . S
C286 C72 1.280 . S
C288 C84 0.990 . S
C297 C92 1.281 1_655 S
C299 C104 0.988 . S
C308 C64 1.009 . S
C310 C112 1.278 1_545 S
