# Generated by pormake.
# Topology snp, (6)-cn, num edge types: 1
# Building blocks:
#     Node 0, Type 0, BuildingBlock: FUNLAD_clean_sbu_0, # of connection points: 6
#     Node 1, Type 0, BuildingBlock: FUNLAD_clean_sbu_0, # of connection points: 6
#     Node 2, Type 0, BuildingBlock: FUNLAD_clean_sbu_0, # of connection points: 6
#     Node 3, Type 0, BuildingBlock: FUNLAD_clean_sbu_0, # of connection points: 6
#     Edge 4, Type (0, 0), BuildingBlock: EZIPEK_clean_linker_0, # of connection points: 2
#     Edge 5, Type (0, 0), BuildingBlock: EZIPEK_clean_linker_0, # of connection points: 2
#     Edge 6, Type (0, 0), BuildingBlock: EZIPEK_clean_linker_0, # of connection points: 2
#     Edge 7, Type (0, 0), BuildingBlock: EZIPEK_clean_linker_0, # of connection points: 2
#     Edge 8, Type (0, 0), BuildingBlock: EZIPEK_clean_linker_0, # of connection points: 2
#     Edge 9, Type (0, 0), BuildingBlock: EZIPEK_clean_linker_0, # of connection points: 2
#     Edge 10, Type (0, 0), BuildingBlock: EZIPEK_clean_linker_0, # of connection points: 2
#     Edge 11, Type (0, 0), BuildingBlock: EZIPEK_clean_linker_0, # of connection points: 2
#     Edge 12, Type (0, 0), BuildingBlock: EZIPEK_clean_linker_0, # of connection points: 2
#     Edge 13, Type (0, 0), BuildingBlock: EZIPEK_clean_linker_0, # of connection points: 2
#     Edge 14, Type (0, 0), BuildingBlock: EZIPEK_clean_linker_0, # of connection points: 2
#     Edge 15, Type (0, 0), BuildingBlock: EZIPEK_clean_linker_0, # of connection points: 2
# Relax obj value: 1.475
# Max RMSD: 0.258
# Mean RMSD: 0.258
data_MOF--net-snp--node1-FUNLAD_clean_sbu_0--edge1-EZIPEK_clean_linker_0
_symmetry_space_group_name_H-M    P1
_symmetry_Int_Tables_number       1
_symmetry_cell_setting            triclinic
loop_
_symmetry_equiv_pos_as_xyz
'x, y, z'
_cell_length_a     28.747354
_cell_length_b     28.198966
_cell_length_c     14.618723
_cell_angle_alpha  90.342037
_cell_angle_beta   89.841954
_cell_angle_gamma 89.827527
loop_
_atom_site_label
_atom_site_type_symbol
_atom_site_fract_x
_atom_site_fract_y
_atom_site_fract_z
_atom_type_partial_charge
C0 C 0.24676 0.99753 0.88092 0.0
N1 N 0.34387 0.05873 0.07239 0.0
C2 C 0.36476 0.01533 0.07247 0.0
C3 C 0.41325 1.01163 0.075 0.0
C4 C 0.44015 0.05296 0.07824 0.0
C5 C 0.41781 0.0972 0.08123 0.0
C6 C 0.36926 0.0993 0.0778 0.0
Zn7 Zn 0.2738 0.06359 0.05162 0.0
C8 C 0.24411 0.14989 0.9286 0.0
N9 N 0.14862 0.0701 0.97504 0.0
C10 C 0.12254 0.02532 0.89733 0.0
C11 C 0.1243 0.11403 0.05584 0.0
C12 C 0.05541 0.11711 0.09289 0.0
C13 C 1.00117 0.06592 0.98164 0.0
C14 C 0.05154 0.01486 0.88111 0.0
Zn15 Zn 0.20889 0.06471 1.00984 0.0
O16 O 0.27691 1.00053 0.94518 0.0
C17 C 0.21854 0.98055 0.13037 0.0
O18 O 0.2189 0.03215 0.87621 0.0
H19 H 0.14547 0.14287 0.07992 0.0
H20 H 0.34386 0.98359 0.06788 0.0
H21 H 0.14444 1.00124 0.85932 0.0
O22 O 0.25538 1.00363 0.1543 0.0
O23 O 0.19637 0.99822 0.06478 0.0
H24 H 0.35186 0.13335 0.07679 0.0
O25 O 0.19696 0.09481 0.14887 0.0
O26 O 0.26542 0.12269 0.16324 0.0
O27 O 0.20878 0.1315 0.96106 0.0
O28 O 0.2822 0.12609 0.94003 0.0
C29 C 0.22328 0.12325 0.1916 0.0
H30 H 0.42966 0.97701 0.07253 0.0
H31 H 0.4378 0.12968 0.08343 0.0
H32 H 0.04524 0.14604 0.142 0.0
H33 H 0.03775 0.99239 0.82756 0.0
C34 C 0.11196 0.24667 0.43251 0.0
N35 N 0.03797 0.36289 0.577 0.0
C36 C 0.07967 0.38552 0.57293 0.0
C37 C 0.08146 0.43506 0.57212 0.0
C38 C 0.03994 0.46121 0.57579 0.0
C39 C 0.99748 0.43715 0.58137 0.0
C40 C 0.99727 0.38761 0.58173 0.0
Zn41 Zn 0.03558 0.29057 0.57036 0.0
C42 C 0.96097 0.25531 0.42206 0.0
N43 N 0.02546 0.1576 0.53484 0.0
C44 C 0.03358 0.13394 0.43137 0.0
C45 C 0.02474 0.13435 0.63812 0.0
C46 C 0.03436 0.07339 0.65618 0.0
C47 C 0.04485 0.03134 0.53769 0.0
C48 C 0.04531 0.07164 0.41722 0.0
Zn49 Zn 0.03321 0.21902 0.54601 0.0
O50 O 0.09638 0.28798 0.45651 0.0
C51 C 0.10877 0.24053 0.69621 0.0
O52 O 0.08905 0.21196 0.45997 0.0
H53 H 0.02177 0.15656 0.69804 0.0
H54 H 0.11153 0.36509 0.56907 0.0
H55 H 0.0349 0.1564 0.37187 0.0
O56 O 0.09585 0.28326 0.67894 0.0
O57 O 0.08558 0.20927 0.65404 0.0
H58 H 0.96456 0.36883 0.58449 0.0
O59 O 0.97657 0.21591 0.63383 0.0
O60 O 0.97605 0.28723 0.68325 0.0
O61 O 0.98499 0.2196 0.43973 0.0
O62 O 0.97364 0.29421 0.4612 0.0
C63 C 0.95753 0.2458 0.68491 0.0
H64 H 0.11474 0.45282 0.56773 0.0
H65 H 0.96491 0.45652 0.5841 0.0
H66 H 0.03124 0.05826 0.7234 0.0
H67 H 0.05425 0.05891 0.3509 0.0
C68 C 0.83943 0.13475 0.92527 0.0
N69 N 0.73788 0.05178 0.05179 0.0
C70 C 0.71319 0.09303 0.05107 0.0
C71 C 0.66466 0.09233 0.05502 0.0
C72 C 0.64154 0.04879 0.0602 0.0
C73 C 0.66762 1.00669 0.06072 0.0
C74 C 0.71619 1.009 0.05626 0.0
Zn75 Zn 0.80874 0.05601 0.04848 0.0
C76 C 0.86228 0.98927 0.92196 0.0
N77 N 0.93551 0.07237 0.05865 0.0
C78 C 0.95387 0.13068 1.02303 0.0
C79 C 0.96171 1.01432 0.06829 0.0
C80 C 0.02997 1.00016 1.03706 0.0
C81 C 0.073 0.06431 0.99214 0.0
C82 C 0.01841 0.14491 0.9741 0.0
Zn83 Zn 0.87674 0.06641 0.072 0.0
O84 O 0.80379 0.10799 0.9265 0.0
C85 C 0.84933 0.13763 0.19557 0.0
O86 O 0.86996 0.125 0.98239 0.0
H87 H 0.99354 0.9986 0.05721 0.0
H88 H 0.73125 0.12657 0.04766 0.0
H89 H 0.98342 0.14668 0.997 0.0
O90 O 0.81106 0.12605 0.15338 0.0
O91 O 0.88332 0.11112 0.18073 0.0
H92 H 0.73661 0.97673 0.05682 0.0
O93 O 0.8878 1.01032 0.16209 0.0
O94 O 0.81378 0.99979 0.16685 0.0
O95 O 0.88729 0.0202 0.95865 0.0
O96 O 0.81898 0.99095 0.94503 0.0
C97 C 0.8546 0.98658 0.19175 0.0
H98 H 0.64533 0.12536 0.05445 0.0
H99 H 0.65056 0.97256 0.06453 0.0
H100 H 0.04782 0.96339 1.0441 0.0
H101 H 0.03365 0.17822 0.94229 0.0
C102 C 0.11614 0.86314 0.37555 0.0
N103 N 0.12853 0.94736 0.55974 0.0
C104 C 0.13147 0.96956 0.45448 0.0
C105 C 0.12121 0.03077 0.43175 0.0
C106 C 0.1109 0.07466 0.54874 0.0
C107 C 0.11072 0.03659 0.67033 0.0
C108 C 0.12107 0.9745 0.66096 0.0
Zn109 Zn 0.06554 0.90868 0.52479 0.0
C110 C 0.97971 0.88265 0.41873 0.0
N111 N 0.05002 0.76446 0.54875 0.0
C112 C 0.08972 0.73854 0.55815 0.0
C113 C 0.00763 0.74318 0.54428 0.0
C114 C 1.00415 0.69375 0.54882 0.0
C115 C 0.04465 0.66643 0.55866 0.0
C116 C 0.0878 0.68918 0.56362 0.0
Zn117 Zn 0.05634 0.83646 0.54021 0.0
O118 O 0.08931 0.89731 0.39145 0.0
C119 C 0.1441 0.86832 0.64809 0.0
O120 O 0.11466 0.82843 0.4315 0.0
H121 H 0.97657 0.76453 0.5369 0.0
H122 H 0.14901 0.95039 0.40102 0.0
H123 H 0.12302 0.75622 0.56103 0.0
O124 O 0.13679 0.89674 0.58241 0.0
O125 O 0.11261 0.83666 0.65817 0.0
H126 H 0.11651 0.95386 0.72228 0.0
O127 O 0.99919 0.84848 0.64295 0.0
O128 O 0.03057 0.91806 0.66448 0.0
O129 O 0.99789 0.84112 0.42781 0.0
O130 O 0.99975 0.91582 0.4611 0.0
C131 C 0.99805 0.88844 0.6848 0.0
H132 H 0.12878 0.04517 0.36541 0.0
H133 H 0.10735 0.05351 0.73598 0.0
H134 H 0.97036 0.677 0.54479 0.0
H135 H 0.11962 0.66889 0.57094 0.0
C136 C 0.07092 0.08343 0.94803 0.0
C137 C 0.08528 0.037 0.0498 0.0
C138 C 0.02675 0.05174 0.17006 0.0
C139 C 0.01106 0.08174 0.08133 0.0
N140 N 0.97313 0.09208 0.85518 0.0
N141 N 0.09644 1.00413 0.20731 0.0
C142 C 1.00104 0.07063 0.9432 0.0
C143 C 0.07439 0.03609 0.15419 0.0
N144 N 0.09144 0.11285 0.87269 0.0
N145 N 0.99773 0.04032 0.2397 0.0
H146 H 0.08294 0.99256 0.2695 0.0
H147 H 0.08294 0.99256 0.2695 0.0
H148 H 0.96476 0.05581 0.24375 0.0
H149 H 0.00496 1.01261 0.28445 0.0
H150 H 0.06926 0.12736 0.82409 0.0
H151 H 0.12596 0.12363 0.86792 0.0
H152 H 0.99039 0.11087 0.80497 0.0
H153 H 0.93683 0.09126 0.853 0.0
C154 C 0.14319 0.08252 0.54978 0.0
C155 C 0.08191 0.10374 0.54239 0.0
C156 C 0.01199 0.0242 0.53498 0.0
C157 C 0.07357 1.00243 0.54569 0.0
N158 N 0.20534 1.00207 0.55071 0.0
N159 N 0.95067 0.10427 0.51425 0.0
C160 C 0.16199 0.02113 0.55978 0.0
C161 C 0.99356 0.08476 0.52844 0.0
N162 N 0.18075 0.11548 0.53441 0.0
N163 N 0.97266 0.99413 0.54922 0.0
H164 H 0.94575 0.14008 0.50073 0.0
H165 H 0.92143 0.08265 0.50993 0.0
H166 H 0.97653 0.96216 0.58203 0.0
H167 H 0.93914 1.0081 0.54657 0.0
H168 H 0.21502 0.10367 0.52873 0.0
H169 H 0.17352 0.15128 0.52326 0.0
H170 H 0.23405 0.02454 0.55075 0.0
H171 H 0.21126 0.96633 0.5375 0.0
C172 C 0.5673 0.04648 0.1513 0.0
C173 C 0.5899 0.04758 0.06486 0.0
C174 C 0.51445 0.05342 0.98753 0.0
C175 C 0.49175 0.05011 0.07368 0.0
N176 N 0.49518 0.03717 0.23626 0.0
N177 N 0.58609 0.04522 0.9003 0.0
C178 C 0.51782 0.0447 0.15526 0.0
C179 C 0.56374 0.04907 0.98277 0.0
N180 N 0.5932 0.04864 0.22956 0.0
N181 N 0.48884 0.06176 0.91049 0.0
H182 H 0.62219 0.0429 0.89422 0.0
H183 H 0.56902 0.04084 0.83816 0.0
H184 H 0.45258 0.06315 0.91051 0.0
H185 H 0.50336 0.07024 0.84741 0.0
H186 H 0.57903 0.05345 0.29454 0.0
H187 H 0.62949 0.0487 0.22932 0.0
H188 H 0.51189 0.02766 0.29651 0.0
H189 H 0.45901 0.03727 0.24216 0.0
C190 C 0.03858 0.54093 0.65348 0.0
C191 C 0.04079 0.51384 0.57146 0.0
C192 C 0.04728 0.5867 0.48131 0.0
C193 C 0.04221 0.61385 0.56283 0.0
N194 N 0.02743 0.6181 0.72502 0.0
N195 N 0.04096 0.50985 0.4067 0.0
C196 C 0.03619 0.59129 0.64858 0.0
C197 C 0.04343 0.53645 0.48511 0.0
N198 N 0.04017 0.51843 0.73606 0.0
N199 N 0.05676 0.60901 0.40055 0.0
H200 H 0.03908 0.47291 0.40676 0.0
H201 H 0.03742 0.52427 0.34171 0.0
H202 H 0.05801 0.64582 0.39438 0.0
H203 H 0.06635 0.59124 0.34079 0.0
H204 H 0.04388 0.536 0.7984 0.0
H205 H 0.04109 0.4816 0.74219 0.0
H206 H 0.01756 0.60395 0.78769 0.0
H207 H 0.02689 0.65509 0.72451 0.0
C208 C 0.19651 0.22427 0.38025 0.0
C209 C 0.14865 0.23418 0.35984 0.0
C210 C 0.15135 0.16604 0.25808 0.0
C211 C 0.20059 0.16042 0.25901 0.0
N212 N 0.27103 0.19038 0.32916 0.0
N213 N 0.09005 0.22422 0.2466 0.0
C214 C 0.2239 0.19212 0.32152 0.0
C215 C 0.13065 0.20967 0.28453 0.0
N216 N 0.21514 0.24357 0.45738 0.0
N217 N 0.12334 0.12757 0.25279 0.0
H218 H 0.07348 0.25533 0.26827 0.0
H219 H 0.07757 0.20873 0.18698 0.0
H220 H 0.13627 0.09319 0.25006 0.0
H221 H 0.08778 0.13033 0.26528 0.0
H222 H 0.24786 0.23424 0.48208 0.0
H223 H 0.19619 0.26719 0.49841 0.0
H224 H 0.28978 0.21502 0.36748 0.0
H225 H 0.29128 0.16544 0.29442 0.0
C226 C 0.89001 0.18736 0.70422 0.0
C227 C 0.91494 0.22759 0.73991 0.0
C228 C 0.866 0.21784 0.87901 0.0
C229 C 0.85262 0.17101 0.85239 0.0
N230 N 0.85541 0.11087 0.73508 0.0
N231 N 0.92345 0.28091 0.86863 0.0
C232 C 0.86513 0.156 0.76327 0.0
C233 C 0.90157 0.24324 0.82914 0.0
N234 N 0.88835 0.17971 0.61236 0.0
N235 N 0.84302 0.23891 0.95001 0.0
H236 H 0.94857 0.30076 0.83485 0.0
H237 H 0.91835 0.2905 0.9369 0.0
H238 H 0.8162 0.22152 0.98451 0.0
H239 H 0.84784 0.2743 0.96859 0.0
H240 H 0.86674 0.15442 0.58227 0.0
H241 H 0.90458 0.20207 0.56623 0.0
H242 H 0.86916 0.09627 0.67507 0.0
H243 H 0.8361 0.08719 0.77422 0.0
C244 C 0.90318 0.92877 0.40578 0.0
C245 C 0.93512 0.89575 0.3653 0.0
C246 C 0.88863 0.90491 0.22359 0.0
C247 C 0.86714 0.9471 0.25778 0.0
N248 N 0.85372 0.99799 0.38705 0.0
N249 N 0.95533 0.85143 0.22937 0.0
C250 C 0.87382 0.95812 0.35101 0.0
C251 C 0.92652 0.88284 0.27257 0.0
N252 N 0.89963 0.93079 0.498 0.0
N253 N 0.87146 0.88502 0.14572 0.0
H254 H 0.98253 0.83438 0.2629 0.0
H255 H 0.95358 0.84456 0.15933 0.0
H256 H 0.84329 0.9002 0.11145 0.0
H257 H 0.8826 0.85225 0.12042 0.0
H258 H 0.87374 0.94972 0.53252 0.0
H259 H 0.92158 0.9106 0.53807 0.0
H260 H 0.8618 1.01113 0.45188 0.0
H261 H 0.83049 0.01884 0.3499 0.0
C262 C 0.17638 0.88639 0.81401 0.0
C263 C 0.18259 0.88363 0.71727 0.0
C264 C 0.24552 0.94453 0.73382 0.0
C265 C 0.23499 0.95124 0.82778 0.0
N266 N 0.21558 0.90377 0.95742 0.0
N267 N 0.24189 0.89021 0.60311 0.0
C268 C 0.20764 0.91493 0.86861 0.0
C269 C 0.22326 0.90669 0.68277 0.0
N270 N 0.1409 0.86264 0.85494 0.0
N271 N 0.27792 0.97308 0.69425 0.0
H272 H 0.22801 0.86033 0.57112 0.0
H273 H 0.27319 0.90227 0.57594 0.0
H274 H 0.29528 0.99933 0.73136 0.0
H275 H 0.28705 0.97103 0.6254 0.0
H276 H 0.13287 0.86701 0.92406 0.0
H277 H 0.11909 0.83964 0.8195 0.0
H278 H 0.20071 0.87422 0.98842 0.0
H279 H 0.24186 0.92037 0.99461 0.0
C280 C 0.87793 0.93424 0.77752 0.0
C281 C 0.88913 0.95027 0.86699 0.0
C282 C 0.968 0.91316 0.84527 0.0
C283 C 0.95836 0.90202 0.75284 0.0
N284 N 0.89312 0.87122 0.66763 0.0
N285 N 0.93507 0.92726 0.99594 0.0
C286 C 0.91001 0.90349 0.72842 0.0
C287 C 0.93162 0.93162 0.90385 0.0
N288 N 0.837 0.94763 0.73882 0.0
N289 N 0.01116 0.90338 0.87893 0.0
H290 H 0.90867 0.93955 1.03866 0.0
H291 H 0.96165 0.90879 1.02857 0.0
H292 H 0.03737 0.88772 0.83941 0.0
H293 H 0.02112 0.91107 0.94549 0.0
H294 H 0.82857 0.93903 0.67141 0.0
H295 H 0.81296 0.96905 0.77331 0.0
H296 H 0.85765 0.86783 0.65425 0.0
H297 H 0.91435 0.84562 0.63689 0.0
C298 C 0.1531 0.91624 0.15418 0.0
C299 C 0.19822 0.93591 0.17809 0.0
C300 C 0.19726 0.88166 0.31265 0.0
C301 C 0.14979 0.87029 0.2968 0.0
N302 N 0.0868 0.86715 0.19097 0.0
N303 N 0.26937 0.91711 0.25732 0.0
C304 C 0.12992 0.88403 0.21325 0.0
C305 C 0.22223 0.91251 0.25083 0.0
N306 N 0.12976 0.92605 0.07556 0.0
N307 N 0.21791 0.86404 0.38892 0.0
H308 H 0.28917 0.93375 0.20722 0.0
H309 H 0.28973 0.89933 0.30485 0.0
H310 H 0.20142 0.8387 0.42921 0.0
H311 H 0.25044 0.87456 0.41225 0.0
H312 H 0.14135 0.94573 1.0203 0.0
H313 H 0.14135 0.94573 1.0203 0.0
H314 H 0.06885 0.87709 0.1321 0.0
H315 H 0.06978 0.84196 0.23096 0.0
C316 C 0.17617 0.18123 0.73757 0.0
C317 C 0.15224 0.22522 0.75551 0.0
C318 C 0.20694 0.23013 0.88936 0.0
C319 C 0.23253 0.18894 0.85993 0.0
N320 N 0.25004 0.13958 0.73219 0.0
N321 N 0.15348 0.29506 0.85318 0.0
C322 C 0.22164 0.17228 0.7726 0.0
C323 C 0.17103 0.25147 0.83166 0.0
N324 N 0.15271 0.14269 0.70807 0.0
N325 N 0.21501 0.2471 0.9753 0.0
H326 H 0.12538 0.31012 0.81931 0.0
H327 H 0.16865 0.31719 0.90194 0.0
H328 H 0.24139 0.23302 1.01609 0.0
H329 H 0.19444 0.27301 1.00667 0.0
H330 H 0.16803 0.1092 0.71296 0.0
H331 H 0.11705 0.14167 0.69988 0.0
H332 H 0.24244 0.12468 0.6687 0.0
H333 H 0.28232 0.1307 0.76003 0.0
C334 C 0.85022 0.19613 0.33589 0.0
C335 C 0.86242 0.18493 0.24381 0.0
C336 C 0.93117 0.23865 0.26161 0.0
C337 C 0.92065 0.24746 0.35476 0.0
N338 N 0.85866 0.25154 0.4642 0.0
N339 N 0.90502 0.212 0.11306 0.0
C340 C 0.87639 0.23151 0.38668 0.0
C341 C 0.89982 0.2118 0.20525 0.0
N342 N 0.81508 0.1717 0.37651 0.0
N343 N 0.97235 0.25469 0.22726 0.0
H344 H 0.88186 0.19371 0.07209 0.0
H345 H 0.92837 0.23361 0.07824 0.0
H346 H 0.99369 0.27756 0.26456 0.0
H347 H 0.98579 0.24408 0.16408 0.0
H348 H 0.80744 0.1746 0.44605 0.0
H349 H 0.79521 0.147 0.34034 0.0
H350 H 0.82515 0.24476 0.48805 0.0
H351 H 0.87696 0.27765 0.50005 0.0
loop_
_geom_bond_atom_site_label_1
_geom_bond_atom_site_label_2
_geom_bond_distance
_geom_bond_site_symmetry_2
_ccdc_geom_bond_type
C0 O16 1.241 1_565 S
C0 O18 1.249 1_565 S
N1 C2 1.333 1_554 S
N1 C6 1.307 . S
N1 Zn7 2.020 . S
C2 N1 1.333 1_556 S
C2 C3 1.379 . S
C2 H20 0.952 . S
C3 C2 1.379 . S
C3 C4 1.390 1_556 S
C3 H30 0.949 1_545 S
C4 C3 1.390 1_554 S
C4 C5 1.357 . S
C5 C4 1.357 . S
C5 C6 1.370 . S
C5 H31 0.950 . S
C6 N1 1.307 . S
C6 C5 1.370 . S
C6 H24 0.948 . S
Zn7 N1 2.020 . S
Zn7 O16 2.039 1_554 S
Zn7 O22 2.034 . S
Zn7 O26 2.025 . S
Zn7 O28 2.024 1_554 S
C8 O27 1.246 . S
C8 O28 1.249 . S
N9 C10 1.309 . S
N9 C11 1.328 1_556 S
N9 Zn15 2.019 1_556 S
C10 N9 1.309 . S
C10 C14 1.370 . S
C10 H21 0.948 1_545 S
C11 N9 1.328 1_554 S
C11 C12 1.379 . S
C11 H19 0.952 . S
C12 C11 1.379 . S
C12 C13 1.390 . S
C12 H32 0.949 . S
C13 C12 1.390 . S
C13 C14 1.357 1_554 S
C14 C10 1.370 . S
C14 C13 1.357 1_556 S
C14 H33 0.950 1_545 S
Zn15 N9 2.019 1_554 S
Zn15 O18 2.025 1_554 S
Zn15 O23 2.024 . S
Zn15 O25 2.039 . S
Zn15 O27 2.034 1_554 S
O16 C0 1.241 1_545 S
O16 Zn7 2.039 1_556 S
C17 O22 1.246 1_565 S
C17 O23 1.249 1_565 S
O18 C0 1.249 1_545 S
O18 Zn15 2.025 1_556 S
H19 C11 0.952 . S
H20 C2 0.952 . S
H21 C10 0.948 1_565 S
O22 Zn7 2.034 . S
O22 C17 1.246 1_545 S
O23 Zn15 2.024 . S
O23 C17 1.249 1_545 S
H24 C6 0.948 . S
O25 Zn15 2.039 . S
O25 C29 1.251 . S
O26 Zn7 2.025 . S
O26 C29 1.254 . S
O27 C8 1.246 . S
O27 Zn15 2.034 1_556 S
O28 Zn7 2.024 1_556 S
O28 C8 1.249 . S
C29 O25 1.251 . S
C29 O26 1.254 . S
H30 C3 0.949 1_565 S
H31 C5 0.950 . S
H32 C12 0.949 . S
H33 C14 0.950 1_565 S
C34 O50 1.251 . S
C34 O52 1.254 . S
N35 C36 1.333 . S
N35 C40 1.307 1_455 S
N35 Zn41 2.020 . S
C36 N35 1.333 . S
C36 C37 1.379 . S
C36 H54 0.952 . S
C37 C36 1.379 . S
C37 C38 1.390 . S
C37 H64 0.949 . S
C38 C37 1.390 . S
C38 C39 1.357 1_455 S
C39 C38 1.357 1_655 S
C39 C40 1.370 . S
C39 H65 0.950 . S
C40 N35 1.307 1_655 S
C40 C39 1.370 . S
C40 H58 0.948 . S
Zn41 N35 2.020 . S
Zn41 O50 2.039 . S
Zn41 O56 2.034 . S
Zn41 O60 2.025 1_455 S
Zn41 O62 2.024 1_455 S
C42 O61 1.246 . S
C42 O62 1.249 . S
N43 C44 1.307 . S
N43 C45 1.333 1_455 S
N43 Zn49 2.020 . S
C44 N43 1.307 . S
C44 C48 1.370 . S
C44 H55 0.948 . S
C45 N43 1.333 1_655 S
C45 C46 1.379 . S
C45 H53 0.952 . S
C46 C45 1.379 . S
C46 C47 1.390 1_655 S
C46 H66 0.949 . S
C47 C46 1.390 1_455 S
C47 C48 1.357 . S
C48 C44 1.370 . S
C48 C47 1.357 . S
C48 H67 0.950 . S
Zn49 N43 2.020 . S
Zn49 O52 2.025 . S
Zn49 O57 2.024 . S
Zn49 O59 2.039 1_455 S
Zn49 O61 2.034 1_455 S
O50 C34 1.251 . S
O50 Zn41 2.039 . S
C51 O56 1.246 . S
C51 O57 1.249 . S
O52 C34 1.254 . S
O52 Zn49 2.025 . S
H53 C45 0.952 . S
H54 C36 0.952 . S
H55 C44 0.948 . S
O56 Zn41 2.034 . S
O56 C51 1.246 . S
O57 Zn49 2.024 . S
O57 C51 1.249 . S
H58 C40 0.948 . S
O59 Zn49 2.039 1_655 S
O59 C63 1.251 . S
O60 Zn41 2.025 1_655 S
O60 C63 1.254 . S
O61 C42 1.246 . S
O61 Zn49 2.034 1_655 S
O62 Zn41 2.024 1_655 S
O62 C42 1.249 . S
C63 O59 1.251 . S
C63 O60 1.254 . S
H64 C37 0.949 . S
H65 C39 0.950 . S
H66 C46 0.949 . S
H67 C48 0.950 . S
C68 O84 1.251 . S
C68 O86 1.254 . S
N69 C70 1.333 1_554 S
N69 C74 1.307 1_545 S
N69 Zn75 2.020 . S
C70 N69 1.333 1_556 S
C70 C71 1.379 . S
C70 H88 0.952 . S
C71 C70 1.379 . S
C71 C72 1.391 . S
C71 H98 0.949 . S
C72 C71 1.391 . S
C72 C73 1.356 1_546 S
C73 C72 1.356 1_564 S
C73 C74 1.370 . S
C73 H99 0.950 . S
C74 N69 1.307 1_565 S
C74 C73 1.370 . S
C74 H92 0.948 . S
Zn75 N69 2.020 . S
Zn75 O84 2.039 1_554 S
Zn75 O90 2.034 . S
Zn75 O94 2.025 1_545 S
Zn75 O96 2.024 1_544 S
C76 O95 1.246 . S
C76 O96 1.249 . S
N77 C78 1.307 . S
N77 C79 1.333 1_546 S
N77 Zn83 2.020 1_556 S
C78 N77 1.307 . S
C78 C82 1.370 1_655 S
C78 H89 0.948 . S
C79 N77 1.333 1_564 S
C79 C80 1.379 1_655 S
C79 H87 0.952 . S
C80 C79 1.379 1_455 S
C80 C81 1.390 1_565 S
C80 H100 0.949 . S
C81 C80 1.390 1_545 S
C81 C82 1.357 1_554 S
C82 C78 1.370 1_455 S
C82 C81 1.357 1_556 S
C82 H101 0.950 . S
Zn83 N77 2.020 1_554 S
Zn83 O86 2.025 1_554 S
Zn83 O91 2.024 . S
Zn83 O93 2.039 1_545 S
Zn83 O95 2.034 1_544 S
O84 C68 1.251 . S
O84 Zn75 2.039 1_556 S
C85 O90 1.246 . S
C85 O91 1.249 . S
O86 C68 1.254 . S
O86 Zn83 2.025 1_556 S
H87 C79 0.952 . S
H88 C70 0.952 . S
H89 C78 0.948 . S
O90 Zn75 2.034 . S
O90 C85 1.246 . S
O91 Zn83 2.024 . S
O91 C85 1.249 . S
H92 C74 0.948 . S
O93 Zn83 2.039 1_565 S
O93 C97 1.251 . S
O94 Zn75 2.025 1_565 S
O94 C97 1.254 . S
O95 C76 1.246 . S
O95 Zn83 2.034 1_566 S
O96 Zn75 2.024 1_566 S
O96 C76 1.249 . S
C97 O93 1.251 . S
C97 O94 1.254 . S
H98 C71 0.949 . S
H99 C73 0.950 . S
H100 C80 0.949 . S
H101 C82 0.950 . S
C102 O118 1.251 . S
C102 O120 1.254 . S
N103 C104 1.333 . S
N103 C108 1.307 . S
N103 Zn109 2.020 . S
C104 N103 1.333 . S
C104 C105 1.379 1_565 S
C104 H122 0.952 . S
C105 C104 1.379 1_545 S
C105 C106 1.390 . S
C105 H132 0.949 . S
C106 C105 1.390 . S
C106 C107 1.357 . S
C107 C106 1.357 . S
C107 C108 1.370 1_545 S
C107 H133 0.950 1_455 S
C108 N103 1.307 . S
C108 C107 1.370 1_565 S
C108 H126 0.948 1_455 S
Zn109 N103 2.020 . S
Zn109 O118 2.039 . S
Zn109 O124 2.034 . S
Zn109 O128 2.025 . S
Zn109 O130 2.024 . S
C110 O129 1.246 1_655 S
C110 O130 1.249 1_655 S
N111 C112 1.307 . S
N111 C113 1.333 . S
N111 Zn117 2.020 . S
C112 N111 1.307 . S
C112 C116 1.370 . S
C112 H123 0.948 . S
C113 N111 1.333 . S
C113 C114 1.379 . S
C113 H121 0.958 . S
C114 C113 1.379 . S
C114 C115 1.390 . S
C114 H134 0.949 1_455 S
C115 C114 1.390 . S
C115 C116 1.357 . S
C116 C112 1.370 . S
C116 C115 1.357 . S
C116 H135 0.950 . S
Zn117 N111 2.020 . S
Zn117 O120 2.025 . S
Zn117 O125 2.024 . S
Zn117 O127 2.039 . S
Zn117 O129 2.034 . S
O118 C102 1.251 . S
O118 Zn109 2.039 . S
C119 O124 1.246 . S
C119 O125 1.249 . S
O120 C102 1.254 . S
O120 Zn117 2.025 . S
H121 C113 0.958 . S
H122 C104 0.952 . S
H123 C112 0.948 . S
O124 Zn109 2.034 . S
O124 C119 1.246 . S
O125 Zn117 2.024 . S
O125 C119 1.249 . S
H126 C108 0.948 1_655 S
O127 Zn117 2.039 . S
O127 C131 1.251 1_455 S
O128 Zn109 2.025 . S
O128 C131 1.254 1_455 S
O129 C110 1.246 1_455 S
O129 Zn117 2.034 . S
O130 Zn109 2.024 . S
O130 C110 1.249 1_455 S
C131 O127 1.251 1_655 S
C131 O128 1.254 1_655 S
H132 C105 0.949 . S
H133 C107 0.950 1_655 S
H134 C114 0.949 1_655 S
H135 C116 0.950 . S
C136 C137 1.363 1_556 S
C136 C142 1.379 . S
C136 N144 1.356 . S
C137 C136 1.363 1_554 S
C137 C143 1.363 . S
C138 C139 1.363 1_455 S
C138 C143 1.379 . S
C138 N145 1.356 1_455 S
C139 C138 1.363 1_655 S
C139 C142 1.363 1_654 S
N140 C142 1.356 1_655 S
N140 H152 0.984 1_655 S
N140 H153 0.985 . S
N141 C143 1.356 1_565 S
N141 H146 0.984 . S
N141 H147 0.985 . S
C142 C136 1.379 . S
C142 C139 1.363 1_456 S
C142 N140 1.356 1_455 S
C143 C137 1.363 . S
C143 C138 1.379 . S
C143 N141 1.356 1_545 S
N144 C136 1.356 . S
N144 H150 0.984 . S
N144 H151 0.984 . S
N145 C138 1.356 1_655 S
N145 H148 0.984 . S
N145 H149 0.985 . S
H146 N141 0.984 . S
H147 N141 0.985 . S
H148 N145 0.984 . S
H149 N145 0.985 . S
H150 N144 0.984 . S
H151 N144 0.984 . S
H152 N140 0.984 1_455 S
H153 N140 0.985 . S
C154 C155 1.363 . S
C154 C160 1.379 . S
C154 N162 1.356 . S
C155 C154 1.363 . S
C155 C161 1.363 . S
C156 C157 1.363 1_545 S
C156 C161 1.379 . S
C156 N163 1.356 1_445 S
C157 C156 1.363 1_565 S
C157 C160 1.363 1_565 S
N158 C160 1.356 1_565 S
N158 H170 0.984 . S
N158 H171 0.985 . S
N159 C161 1.356 . S
N159 H164 0.984 . S
N159 H165 0.985 1_455 S
C160 C154 1.379 . S
C160 C157 1.363 1_545 S
C160 N158 1.356 1_545 S
C161 C155 1.363 . S
C161 C156 1.379 . S
C161 N159 1.356 . S
N162 C154 1.356 . S
N162 H168 0.984 . S
N162 H169 0.984 . S
N163 C156 1.356 1_665 S
N163 H166 0.984 . S
N163 H167 0.985 1_565 S
H164 N159 0.984 . S
H165 N159 0.985 1_655 S
H166 N163 0.984 . S
H167 N163 0.985 1_545 S
H168 N162 0.984 . S
H169 N162 0.984 . S
H170 N158 0.984 . S
H171 N158 0.985 . S
C172 C173 1.363 1_554 S
C172 C178 1.379 . S
C172 N180 1.356 1_545 S
C173 C172 1.363 1_556 S
C173 C179 1.363 . S
C174 C175 1.363 . S
C174 C179 1.379 . S
C174 N181 1.356 . S
C175 C174 1.363 . S
C175 C178 1.363 1_556 S
N176 C178 1.356 . S
N176 H188 0.990 . S
N176 H189 0.985 . S
N177 C179 1.356 . S
N177 H182 0.984 . S
N177 H183 0.985 . S
C178 C172 1.379 . S
C178 C175 1.363 1_554 S
C178 N176 1.356 . S
C179 C173 1.363 . S
C179 C174 1.379 . S
C179 N177 1.356 . S
N180 C172 1.356 1_565 S
N180 H186 0.984 . S
N180 H187 0.984 . S
N181 C174 1.356 . S
N181 H184 0.984 . S
N181 H185 0.985 . S
H182 N177 0.984 . S
H183 N177 0.985 . S
H184 N181 0.984 . S
H185 N181 0.985 . S
H186 N180 0.984 . S
H187 N180 0.984 . S
H188 N176 0.990 . S
H189 N176 0.985 . S
C190 C191 1.363 . S
C190 C196 1.379 . S
C190 N198 1.356 1_455 S
C191 C190 1.363 . S
C191 C197 1.363 . S
C192 C193 1.363 . S
C192 C197 1.379 . S
C192 N199 1.356 . S
C193 C192 1.363 . S
C193 C196 1.363 . S
N194 C196 1.356 . S
N194 H206 0.984 1_455 S
N194 H207 0.985 . S
N195 C197 1.356 . S
N195 H200 0.984 . S
N195 H201 0.985 . S
C196 C190 1.379 . S
C196 C193 1.363 . S
C196 N194 1.356 . S
C197 C191 1.363 . S
C197 C192 1.379 . S
C197 N195 1.356 . S
N198 C190 1.356 1_655 S
N198 H204 0.984 . S
N198 H205 0.984 . S
N199 C192 1.356 . S
N199 H202 0.984 . S
N199 H203 0.985 . S
H200 N195 0.984 . S
H201 N195 0.985 . S
H202 N199 0.984 . S
H203 N199 0.985 . S
H204 N198 0.984 . S
H205 N198 0.984 . S
H206 N194 0.984 1_655 S
H207 N194 0.985 . S
C208 C209 1.363 . S
C208 C214 1.379 . S
C208 N216 1.356 . S
C209 C208 1.363 . S
C209 C215 1.363 . S
C210 C211 1.363 . S
C210 C215 1.379 . S
C210 N217 1.356 . S
C211 C210 1.363 . S
C211 C214 1.363 . S
N212 C214 1.356 . S
N212 H224 0.984 . S
N212 H225 0.985 . S
N213 C215 1.356 . S
N213 H218 0.984 . S
N213 H219 0.985 . S
C214 C208 1.379 . S
C214 C211 1.363 . S
C214 N212 1.356 . S
C215 C209 1.363 . S
C215 C210 1.379 . S
C215 N213 1.356 . S
N216 C208 1.356 . S
N216 H222 0.984 . S
N216 H223 0.984 . S
N217 C210 1.356 . S
N217 H220 0.984 . S
N217 H221 0.985 . S
H218 N213 0.984 . S
H219 N213 0.985 . S
H220 N217 0.984 . S
H221 N217 0.985 . S
H222 N216 0.984 . S
H223 N216 0.984 . S
H224 N212 0.984 . S
H225 N212 0.985 . S
C226 C227 1.363 . S
C226 C232 1.379 . S
C226 N234 1.356 . S
C227 C226 1.363 . S
C227 C233 1.363 . S
C228 C229 1.363 . S
C228 C233 1.379 . S
C228 N235 1.356 . S
C229 C228 1.363 . S
C229 C232 1.363 . S
N230 C232 1.356 . S
N230 H242 0.984 . S
N230 H243 0.985 . S
N231 C233 1.356 . S
N231 H236 0.984 . S
N231 H237 0.985 1_655 S
C232 C226 1.379 . S
C232 C229 1.363 . S
C232 N230 1.356 . S
C233 C227 1.363 . S
C233 C228 1.379 . S
C233 N231 1.356 . S
N234 C226 1.356 . S
N234 H240 0.984 . S
N234 H241 0.984 . S
N235 C228 1.356 . S
N235 H238 0.984 . S
N235 H239 0.985 . S
H236 N231 0.984 . S
H237 N231 0.985 1_455 S
H238 N235 0.984 . S
H239 N235 0.985 . S
H240 N234 0.984 . S
H241 N234 0.984 . S
H242 N230 0.984 . S
H243 N230 0.985 . S
C244 C245 1.363 . S
C244 C250 1.379 . S
C244 N252 1.356 . S
C245 C244 1.363 . S
C245 C251 1.363 . S
C246 C247 1.363 . S
C246 C251 1.379 . S
C246 N253 1.356 . S
C247 C246 1.363 . S
C247 C250 1.363 . S
N248 C250 1.356 . S
N248 H260 0.984 . S
N248 H261 0.985 . S
N249 C251 1.347 1_455 S
N249 H254 0.989 . S
N249 H255 0.989 . S
C250 C244 1.379 . S
C250 C247 1.363 . S
C250 N248 1.356 . S
C251 C245 1.363 . S
C251 C246 1.379 . S
C251 N249 1.347 1_655 S
N252 C244 1.356 . S
N252 H258 0.984 . S
N252 H259 0.984 . S
N253 C246 1.356 . S
N253 H256 0.984 . S
N253 H257 0.985 . S
H254 N249 0.989 . S
H255 N249 0.989 . S
H256 N253 0.984 . S
H257 N253 0.985 . S
H258 N252 0.984 . S
H259 N252 0.984 . S
H260 N248 0.984 . S
H261 N248 0.985 . S
C262 C263 1.363 . S
C262 C268 1.379 . S
C262 N270 1.356 . S
C263 C262 1.363 . S
C263 C269 1.363 . S
C264 C265 1.363 . S
C264 C269 1.379 . S
C264 N271 1.356 . S
C265 C264 1.363 . S
C265 C268 1.363 . S
N266 C268 1.356 . S
N266 H278 0.984 . S
N266 H279 0.985 . S
N267 C269 1.356 . S
N267 H272 0.984 . S
N267 H273 0.985 . S
C268 C262 1.379 . S
C268 C265 1.363 . S
C268 N266 1.356 . S
C269 C263 1.363 . S
C269 C264 1.379 . S
C269 N267 1.356 . S
N270 C262 1.356 . S
N270 H276 0.984 . S
N270 H277 0.984 . S
N271 C264 1.356 . S
N271 H274 0.984 . S
N271 H275 0.985 . S
H272 N267 0.984 . S
H273 N267 0.985 . S
H274 N271 0.984 . S
H275 N271 0.985 . S
H276 N270 0.984 . S
H277 N270 0.984 . S
H278 N266 0.984 . S
H279 N266 0.985 . S
C280 C281 1.363 . S
C280 C286 1.379 . S
C280 N288 1.356 . S
C281 C280 1.363 . S
C281 C287 1.363 . S
C282 C283 1.363 . S
C282 C287 1.379 . S
C282 N289 1.356 1_655 S
C283 C282 1.363 . S
C283 C286 1.363 . S
N284 C286 1.356 . S
N284 H296 0.984 . S
N284 H297 0.985 . S
N285 C287 1.356 . S
N285 H290 0.984 . S
N285 H291 0.985 . S
C286 C280 1.379 . S
C286 C283 1.363 . S
C286 N284 1.356 . S
C287 C281 1.363 . S
C287 C282 1.379 . S
C287 N285 1.356 . S
N288 C280 1.356 . S
N288 H294 0.984 . S
N288 H295 0.984 . S
N289 C282 1.356 1_455 S
N289 H292 0.984 . S
N289 H293 0.985 . S
H290 N285 0.984 . S
H291 N285 0.985 . S
H292 N289 0.984 . S
H293 N289 0.985 . S
H294 N288 0.984 . S
H295 N288 0.984 . S
H296 N284 0.984 . S
H297 N284 0.985 . S
C298 C299 1.363 . S
C298 C304 1.379 . S
C298 N306 1.356 . S
C299 C298 1.363 . S
C299 C305 1.363 . S
C300 C301 1.363 . S
C300 C305 1.379 . S
C300 N307 1.356 . S
C301 C300 1.363 . S
C301 C304 1.363 . S
N302 C304 1.356 . S
N302 H314 0.984 . S
N302 H315 0.985 . S
N303 C305 1.356 . S
N303 H308 0.984 . S
N303 H309 0.985 . S
C304 C298 1.379 . S
C304 C301 1.363 . S
C304 N302 1.356 . S
C305 C299 1.363 . S
C305 C300 1.379 . S
C305 N303 1.356 . S
N306 C298 1.356 . S
N306 H312 0.984 . S
N306 H313 0.984 . S
N307 C300 1.356 . S
N307 H310 0.984 . S
N307 H311 0.985 . S
H308 N303 0.984 . S
H309 N303 0.985 . S
H310 N307 0.984 . S
H311 N307 0.985 . S
H312 N306 0.984 . S
H313 N306 0.984 . S
H314 N302 0.984 . S
H315 N302 0.985 . S
C316 C317 1.363 . S
C316 C322 1.379 . S
C316 N324 1.356 . S
C317 C316 1.363 . S
C317 C323 1.363 . S
C318 C319 1.363 . S
C318 C323 1.379 . S
C318 N325 1.356 . S
C319 C318 1.363 . S
C319 C322 1.363 . S
N320 C322 1.356 . S
N320 H332 0.984 . S
N320 H333 0.985 . S
N321 C323 1.356 . S
N321 H326 0.984 . S
N321 H327 0.985 . S
C322 C316 1.379 . S
C322 C319 1.363 . S
C322 N320 1.356 . S
C323 C317 1.363 . S
C323 C318 1.379 . S
C323 N321 1.356 . S
N324 C316 1.356 . S
N324 H330 0.984 . S
N324 H331 0.984 . S
N325 C318 1.356 . S
N325 H328 0.984 . S
N325 H329 0.985 . S
H326 N321 0.984 . S
H327 N321 0.985 . S
H328 N325 0.984 . S
H329 N325 0.985 . S
H330 N324 0.984 . S
H331 N324 0.984 . S
H332 N320 0.984 . S
H333 N320 0.985 . S
C334 C335 1.363 . S
C334 C340 1.379 . S
C334 N342 1.356 . S
C335 C334 1.363 . S
C335 C341 1.363 . S
C336 C337 1.363 . S
C336 C341 1.379 . S
C336 N343 1.356 . S
C337 C336 1.363 . S
C337 C340 1.363 . S
N338 C340 1.356 . S
N338 H350 0.984 . S
N338 H351 0.985 . S
N339 C341 1.356 . S
N339 H344 0.984 . S
N339 H345 0.985 . S
C340 C334 1.379 . S
C340 C337 1.363 . S
C340 N338 1.356 . S
C341 C335 1.363 . S
C341 C336 1.379 . S
C341 N339 1.356 . S
N342 C334 1.356 . S
N342 H348 0.984 . S
N342 H349 0.984 . S
N343 C336 1.356 . S
N343 H346 0.984 . S
N343 H347 0.985 . S
H344 N339 0.984 . S
H345 N339 0.985 . S
H346 N343 0.984 . S
H347 N343 0.985 . S
H348 N342 0.984 . S
H349 N342 0.984 . S
H350 N338 0.984 . S
H351 N338 0.985 . S
C137 C81 0.756 . S
C139 C13 0.756 1_655 S
C155 C106 0.751 . S
C157 C47 0.751 1_565 S
C173 C72 1.260 . S
C175 C4 1.260 1_556 S
C191 C38 1.261 . S
C193 C115 1.261 . S
C209 C34 2.078 . S
C211 C29 2.087 . S
C227 C63 2.133 . S
C229 C68 2.124 . S
C245 C110 2.096 . S
C247 C97 2.121 . S
C263 C119 2.110 . S
C265 C0 2.114 . S
C281 C76 2.110 . S
C283 C131 2.107 . S
C299 C17 2.106 . S
C301 C102 2.120 . S
C317 C51 2.124 . S
C319 C8 2.144 . S
C335 C85 2.078 . S
C337 C42 2.097 . S
