# Generated by pormake.
# Topology bcu-f, (3)-cn, num edge types: 1
# Building blocks:
#     Node 0, Type 0, BuildingBlock: WUSLED_clean_sbu_0, # of connection points: 3
#     Node 1, Type 0, BuildingBlock: WUSLED_clean_sbu_0, # of connection points: 3
#     Node 2, Type 0, BuildingBlock: WUSLED_clean_sbu_0, # of connection points: 3
#     Node 3, Type 0, BuildingBlock: WUSLED_clean_sbu_0, # of connection points: 3
#     Node 4, Type 0, BuildingBlock: WUSLED_clean_sbu_0, # of connection points: 3
#     Node 5, Type 0, BuildingBlock: WUSLED_clean_sbu_0, # of connection points: 3
#     Node 6, Type 0, BuildingBlock: WUSLED_clean_sbu_0, # of connection points: 3
#     Node 7, Type 0, BuildingBlock: WUSLED_clean_sbu_0, # of connection points: 3
#     Node 8, Type 0, BuildingBlock: WUSLED_clean_sbu_0, # of connection points: 3
#     Node 9, Type 0, BuildingBlock: WUSLED_clean_sbu_0, # of connection points: 3
#     Node 10, Type 0, BuildingBlock: WUSLED_clean_sbu_0, # of connection points: 3
#     Node 11, Type 0, BuildingBlock: WUSLED_clean_sbu_0, # of connection points: 3
#     Node 12, Type 0, BuildingBlock: WUSLED_clean_sbu_0, # of connection points: 3
#     Node 13, Type 0, BuildingBlock: WUSLED_clean_sbu_0, # of connection points: 3
#     Node 14, Type 0, BuildingBlock: WUSLED_clean_sbu_0, # of connection points: 3
#     Node 15, Type 0, BuildingBlock: WUSLED_clean_sbu_0, # of connection points: 3
#     Edge 16, Type (0, 0), BuildingBlock: XIVTED_clean_linker_0, # of connection points: 2
#     Edge 17, Type (0, 0), BuildingBlock: XIVTED_clean_linker_0, # of connection points: 2
#     Edge 18, Type (0, 0), BuildingBlock: XIVTED_clean_linker_0, # of connection points: 2
#     Edge 19, Type (0, 0), BuildingBlock: XIVTED_clean_linker_0, # of connection points: 2
#     Edge 20, Type (0, 0), BuildingBlock: XIVTED_clean_linker_0, # of connection points: 2
#     Edge 21, Type (0, 0), BuildingBlock: XIVTED_clean_linker_0, # of connection points: 2
#     Edge 22, Type (0, 0), BuildingBlock: XIVTED_clean_linker_0, # of connection points: 2
#     Edge 23, Type (0, 0), BuildingBlock: XIVTED_clean_linker_0, # of connection points: 2
#     Edge 24, Type (0, 0), BuildingBlock: XIVTED_clean_linker_0, # of connection points: 2
#     Edge 25, Type (0, 0), BuildingBlock: XIVTED_clean_linker_0, # of connection points: 2
#     Edge 26, Type (0, 0), BuildingBlock: XIVTED_clean_linker_0, # of connection points: 2
#     Edge 27, Type (0, 0), BuildingBlock: XIVTED_clean_linker_0, # of connection points: 2
#     Edge 28, Type (0, 0), BuildingBlock: XIVTED_clean_linker_0, # of connection points: 2
#     Edge 29, Type (0, 0), BuildingBlock: XIVTED_clean_linker_0, # of connection points: 2
#     Edge 30, Type (0, 0), BuildingBlock: XIVTED_clean_linker_0, # of connection points: 2
#     Edge 31, Type (0, 0), BuildingBlock: XIVTED_clean_linker_0, # of connection points: 2
#     Edge 32, Type (0, 0), BuildingBlock: XIVTED_clean_linker_0, # of connection points: 2
#     Edge 33, Type (0, 0), BuildingBlock: XIVTED_clean_linker_0, # of connection points: 2
#     Edge 34, Type (0, 0), BuildingBlock: XIVTED_clean_linker_0, # of connection points: 2
#     Edge 35, Type (0, 0), BuildingBlock: XIVTED_clean_linker_0, # of connection points: 2
#     Edge 36, Type (0, 0), BuildingBlock: XIVTED_clean_linker_0, # of connection points: 2
#     Edge 37, Type (0, 0), BuildingBlock: XIVTED_clean_linker_0, # of connection points: 2
#     Edge 38, Type (0, 0), BuildingBlock: XIVTED_clean_linker_0, # of connection points: 2
#     Edge 39, Type (0, 0), BuildingBlock: XIVTED_clean_linker_0, # of connection points: 2
# Relax obj value: 0.004
# Max RMSD: 0.006
# Mean RMSD: 0.006
data_MOF--net-bcu-f--node1-WUSLED_clean_sbu_0--edge1-XIVTED_clean_linker_0
_symmetry_space_group_name_H-M    P1
_symmetry_Int_Tables_number       1
_symmetry_cell_setting            triclinic
loop_
_symmetry_equiv_pos_as_xyz
'x, y, z'
_cell_length_a     81.31669
_cell_length_b     81.321545
_cell_length_c     64.86354
_cell_angle_alpha  90.016318
_cell_angle_beta   90.022319
_cell_angle_gamma 90.067167
loop_
_atom_site_label
_atom_site_type_symbol
_atom_site_fract_x
_atom_site_fract_y
_atom_site_fract_z
_atom_type_partial_charge
C0 C 0.31591 0.12615 0.15765 0.0
C1 C 0.3172 0.14329 0.15982 0.0
C2 C 0.32628 0.14008 0.19547 0.0
C3 C 0.32241 0.15018 0.17852 0.0
C4 C 0.32471 0.12293 0.19326 0.0
C5 C 0.31961 0.11605 0.17453 0.0
U6 U 0.29355 0.12806 0.10585 0.0
O7 O 0.30113 0.11938 0.07507 0.0
O8 O 0.27877 0.10952 0.08952 0.0
C9 C 0.28889 0.10886 0.07374 0.0
C10 C 0.31089 0.11862 0.13791 0.0
C11 C 0.29287 0.09236 0.06577 0.0
C12 C 0.29834 0.0632 0.07063 0.0
C13 C 0.29589 0.07896 0.07888 0.0
C14 C 0.29518 0.07419 0.03616 0.0
C15 C 0.29784 0.06059 0.04914 0.0
C16 C 0.29274 0.08987 0.0444 0.0
C17 C 0.27015 0.1668 0.09059 0.0
C18 C 0.26131 0.1727 0.05554 0.0
C19 C 0.24979 0.18802 0.08411 0.0
C20 C 0.25947 0.17899 0.09787 0.0
C21 C 0.25064 0.18508 0.06273 0.0
C22 C 0.27091 0.16361 0.06934 0.0
C23 C 0.28028 0.15747 0.10534 0.0
O24 O 0.29511 0.11548 0.13591 0.0
O25 O 0.31745 0.12508 0.12124 0.0
O26 O 0.29551 0.15455 0.09961 0.0
O27 O 0.27308 0.14464 0.11373 0.0
H28 H 0.31427 0.15134 0.14703 0.0
H29 H 0.32328 0.16344 0.17977 0.0
H30 H 0.32775 0.11478 0.2059 0.0
H31 H 0.31868 0.1028 0.17316 0.0
H32 H 0.30055 0.05306 0.08108 0.0
H33 H 0.29609 0.08064 0.09545 0.0
H34 H 0.29446 0.07266 0.0196 0.0
H35 H 0.29034 0.10004 0.03403 0.0
H36 H 0.26246 0.1702 0.03921 0.0
H37 H 0.24151 0.19721 0.09028 0.0
H38 H 0.25861 0.18153 0.11423 0.0
H39 H 0.27901 0.15416 0.0634 0.0
C40 C 0.88732 0.31895 0.15744 0.0
C41 C 0.87079 0.316 0.16244 0.0
C42 C 0.87423 0.33045 0.19519 0.0
C43 C 0.8643 0.32169 0.18114 0.0
C44 C 0.89085 0.33317 0.1901 0.0
C45 C 0.8973 0.32749 0.17142 0.0
U46 U 0.88376 0.29563 0.10646 0.0
O47 O 0.89202 0.30247 0.07526 0.0
O48 O 0.90167 0.2802 0.09005 0.0
C49 C 0.90229 0.29005 0.07399 0.0
C50 C 0.89428 0.3134 0.13765 0.0
C51 C 0.91873 0.29372 0.06562 0.0
C52 C 0.94795 0.29935 0.06979 0.0
C53 C 0.9323 0.29693 0.0784 0.0
C54 C 0.93651 0.2957 0.03561 0.0
C55 C 0.95026 0.29863 0.04826 0.0
C56 C 0.92095 0.29328 0.04421 0.0
C57 C 0.84424 0.27302 0.09277 0.0
C58 C 0.84223 0.25601 0.06204 0.0
C59 C 0.81792 0.26147 0.08251 0.0
C60 C 0.82735 0.27093 0.09612 0.0
C61 C 0.82524 0.2539 0.06529 0.0
C62 C 0.85164 0.26553 0.07563 0.0
C63 C 0.85396 0.28316 0.10708 0.0
O64 O 0.89694 0.29751 0.13605 0.0
O65 O 0.88751 0.31976 0.12107 0.0
O66 O 0.8572 0.29814 0.10067 0.0
O67 O 0.86674 0.27584 0.11542 0.0
H68 H 0.86289 0.30942 0.1518 0.0
H69 H 0.85142 0.3195 0.18441 0.0
H70 H 0.89895 0.3396 0.20063 0.0
H71 H 0.91012 0.32982 0.16785 0.0
H72 H 0.95822 0.30176 0.07998 0.0
H73 H 0.93084 0.29738 0.09499 0.0
H74 H 0.93782 0.29481 0.01903 0.0
H75 H 0.91064 0.29073 0.0341 0.0
H76 H 0.84822 0.25053 0.04881 0.0
H77 H 0.80492 0.25994 0.0856 0.0
H78 H 0.82145 0.27662 0.10928 0.0
H79 H 0.86467 0.26711 0.07273 0.0
C80 C 0.69294 0.88511 0.15946 0.0
C81 C 0.69616 0.86862 0.16442 0.0
C82 C 0.68109 0.87156 0.19679 0.0
C83 C 0.6903 0.8619 0.18293 0.0
C84 C 0.67809 0.88813 0.19173 0.0
C85 C 0.68394 0.8948 0.17326 0.0
U86 U 0.71653 0.88264 0.10841 0.0
O87 O 0.70974 0.89185 0.07757 0.0
O88 O 0.73208 0.90096 0.09286 0.0
C89 C 0.72215 0.90221 0.07693 0.0
C90 C 0.69867 0.89235 0.13991 0.0
C91 C 0.71855 0.91896 0.06926 0.0
C92 C 0.7199 0.94877 0.07252 0.0
C93 C 0.72161 0.93308 0.08118 0.0
C94 C 0.71149 0.93651 0.04018 0.0
C95 C 0.71507 0.95067 0.05179 0.0
C96 C 0.71325 0.92085 0.04881 0.0
C97 C 0.73935 0.84372 0.09308 0.0
C98 C 0.75527 0.84248 0.06141 0.0
C99 C 0.75278 0.8183 0.08299 0.0
C100 C 0.74303 0.82717 0.09685 0.0
C101 C 0.75904 0.82584 0.06509 0.0
C102 C 0.7455 0.85134 0.07528 0.0
C103 C 0.72908 0.8529 0.10777 0.0
O104 O 0.71458 0.89502 0.13852 0.0
O105 O 0.69236 0.8859 0.12308 0.0
O106 O 0.71412 0.85627 0.10138 0.0
O107 O 0.73632 0.86546 0.11676 0.0
H108 H 0.70309 0.86093 0.15391 0.0
H109 H 0.69272 0.84907 0.18618 0.0
H110 H 0.67131 0.89602 0.20214 0.0
H111 H 0.6814 0.90757 0.16973 0.0
H112 H 0.72254 0.95942 0.08199 0.0
H113 H 0.72568 0.932 0.09702 0.0
H114 H 0.70794 0.93746 0.02413 0.0
H115 H 0.71095 0.91016 0.03926 0.0
H116 H 0.76003 0.84875 0.04794 0.0
H117 H 0.75521 0.80546 0.08618 0.0
H118 H 0.73831 0.82109 0.11048 0.0
H119 H 0.74279 0.86414 0.07215 0.0
C120 C 0.12556 0.69403 0.15814 0.0
C121 C 0.14235 0.69609 0.16251 0.0
C122 C 0.13877 0.6827 0.19593 0.0
C123 C 0.14889 0.69048 0.18123 0.0
C124 C 0.1219 0.6809 0.19148 0.0
C125 C 0.1154 0.68649 0.17278 0.0
U126 U 0.12854 0.71713 0.10684 0.0
O127 O 0.12013 0.70992 0.07579 0.0
O128 O 0.11029 0.73219 0.09045 0.0
C129 C 0.10965 0.72217 0.07455 0.0
C130 C 0.1185 0.69944 0.13833 0.0
C131 C 0.09322 0.7183 0.06608 0.0
C132 C 0.06334 0.71757 0.06864 0.0
C133 C 0.0788 0.71964 0.0779 0.0
C134 C 0.07654 0.71232 0.03585 0.0
C135 C 0.06202 0.71418 0.0474 0.0
C136 C 0.09193 0.71439 0.04509 0.0
C137 C 0.16755 0.74019 0.09225 0.0
C138 C 0.16893 0.75693 0.06124 0.0
C139 C 0.19357 0.75201 0.08131 0.0
C140 C 0.18445 0.74255 0.09524 0.0
C141 C 0.18593 0.75931 0.06412 0.0
C142 C 0.15983 0.74741 0.07515 0.0
C143 C 0.15816 0.73004 0.10687 0.0
O144 O 0.11564 0.71529 0.13662 0.0
O145 O 0.12525 0.69306 0.12175 0.0
O146 O 0.15508 0.71495 0.10073 0.0
O147 O 0.14535 0.73723 0.11532 0.0
H148 H 0.1504 0.7019 0.15137 0.0
H149 H 0.16194 0.69194 0.18399 0.0
H150 H 0.11366 0.67526 0.20252 0.0
H151 H 0.10239 0.68486 0.16972 0.0
H152 H 0.05243 0.7192 0.07798 0.0
H153 H 0.07945 0.72267 0.09414 0.0
H154 H 0.07602 0.70941 0.01957 0.0
H155 H 0.10288 0.7133 0.03567 0.0
H156 H 0.1627 0.76219 0.04804 0.0
H157 H 0.20658 0.75375 0.08412 0.0
H158 H 0.1906 0.73707 0.10837 0.0
H159 H 0.14679 0.74562 0.07252 0.0
C160 C 0.31903 0.88595 0.87008 0.0
C161 C 0.31539 0.86963 0.86468 0.0
C162 C 0.33057 0.87273 0.83241 0.0
C163 C 0.3211 0.86308 0.84601 0.0
C164 C 0.33399 0.88914 0.83789 0.0
C165 C 0.32829 0.89566 0.85653 0.0
U166 U 0.29562 0.88288 0.92114 0.0
O167 O 0.30266 0.89124 0.95226 0.0
O168 O 0.28047 0.9011 0.93743 0.0
C169 C 0.2904 0.90172 0.95343 0.0
C170 C 0.3135 0.89298 0.88984 0.0
C171 C 0.29423 0.91814 0.96194 0.0
C172 C 0.2953 0.948 0.95929 0.0
C173 C 0.29323 0.93253 0.95003 0.0
C174 C 0.2999 0.93483 0.99225 0.0
C175 C 0.29837 0.94933 0.98061 0.0
C176 C 0.29783 0.91943 0.98302 0.0
C177 C 0.27256 0.84378 0.93546 0.0
C178 C 0.25524 0.84236 0.96596 0.0
C179 C 0.26138 0.81758 0.94673 0.0
C180 C 0.27081 0.82677 0.93286 0.0
C181 C 0.25349 0.82525 0.96348 0.0
C182 C 0.26474 0.85154 0.95212 0.0
C183 C 0.28276 0.85324 0.92094 0.0
O184 O 0.29763 0.89581 0.8914 0.0
O185 O 0.31978 0.8862 0.90645 0.0
O186 O 0.29781 0.85634 0.92721 0.0
O187 O 0.27559 0.86605 0.91246 0.0
H188 H 0.30827 0.86194 0.87499 0.0
H189 H 0.31835 0.85036 0.84243 0.0
H190 H 0.34099 0.89704 0.8277 0.0
H191 H 0.33117 0.9083 0.8604 0.0
H192 H 0.29394 0.9589 0.94987 0.0
H193 H 0.29045 0.93187 0.93372 0.0
H194 H 0.30256 0.93535 1.0086 0.0
H195 H 0.29867 0.9085 0.99251 0.0
H196 H 0.2495 0.84863 0.97882 0.0
H197 H 0.26014 0.80447 0.94423 0.0
H198 H 0.27677 0.82059 0.92009 0.0
H199 H 0.26606 0.86467 0.95446 0.0
C200 C 0.125 0.31896 0.86862 0.0
C201 C 0.1414 0.3155 0.86347 0.0
C202 C 0.13844 0.33054 0.83108 0.0
C203 C 0.14806 0.32123 0.84487 0.0
C204 C 0.12193 0.33375 0.83629 0.0
C205 C 0.11531 0.32803 0.85486 0.0
U206 U 0.12761 0.29541 0.91963 0.0
O207 O 0.11958 0.30269 0.95081 0.0
O208 O 0.10906 0.28074 0.93604 0.0
C209 C 0.10878 0.29068 0.95204 0.0
C210 C 0.11789 0.31354 0.88838 0.0
C211 C 0.09252 0.29483 0.96077 0.0
C212 C 0.06261 0.29552 0.95888 0.0
C213 C 0.07792 0.29339 0.94929 0.0
C214 C 0.07631 0.3011 0.99128 0.0
C215 C 0.06161 0.29908 0.98011 0.0
C216 C 0.09156 0.29897 0.98172 0.0
C217 C 0.16592 0.27129 0.93402 0.0
C218 C 0.17061 0.26132 0.96887 0.0
C219 C 0.18774 0.25162 0.94084 0.0
C220 C 0.17892 0.26146 0.92702 0.0
C221 C 0.18375 0.25151 0.96196 0.0
C222 C 0.16173 0.27106 0.95501 0.0
C223 C 0.1568 0.28166 0.91935 0.0
O224 O 0.11466 0.29774 0.88993 0.0
O225 O 0.12489 0.31964 0.90498 0.0
O226 O 0.15422 0.29689 0.92532 0.0
O227 O 0.14376 0.27479 0.91101 0.0
H228 H 0.14908 0.30852 0.87394 0.0
H229 H 0.16084 0.31865 0.8415 0.0
H230 H 0.11406 0.34061 0.82595 0.0
H231 H 0.10261 0.33077 0.85854 0.0
H232 H 0.05155 0.29378 0.94982 0.0
H233 H 0.0783 0.29017 0.9331 0.0
H234 H 0.07604 0.30414 1.00753 0.0
H235 H 0.10265 0.30013 0.99088 0.0
H236 H 0.16709 0.26134 0.98497 0.0
H237 H 0.19787 0.24433 0.93506 0.0
H238 H 0.18229 0.26145 0.91086 0.0
H239 H 0.15161 0.27844 0.96069 0.0
C240 C 0.69643 0.1257 0.86874 0.0
C241 C 0.69517 0.14285 0.86682 0.0
C242 C 0.68545 0.1399 0.83139 0.0
C243 C 0.68967 0.14988 0.84834 0.0
C244 C 0.68689 0.12272 0.83341 0.0
C245 C 0.6923 0.11571 0.85191 0.0
U246 U 0.71892 0.12779 0.92045 0.0
O247 O 0.71259 0.11733 0.9507 0.0
O248 O 0.7355 0.10998 0.93535 0.0
C249 C 0.72557 0.10769 0.95109 0.0
C250 C 0.70208 0.11803 0.88809 0.0
C251 C 0.72321 0.09051 0.95816 0.0
C252 C 0.70632 0.06905 0.97375 0.0
C253 C 0.70775 0.08453 0.9644 0.0
C254 C 0.73567 0.06505 0.97024 0.0
C255 C 0.72033 0.05926 0.97718 0.0
C256 C 0.73709 0.08048 0.96093 0.0
C257 C 0.73945 0.16764 0.93752 0.0
C258 C 0.7566 0.16888 0.96818 0.0
C259 C 0.75026 0.19383 0.9494 0.0
C260 C 0.74098 0.1847 0.93528 0.0
C261 C 0.75822 0.18603 0.966 0.0
C262 C 0.74726 0.15977 0.95409 0.0
C263 C 0.72975 0.15819 0.92246 0.0
O264 O 0.71807 0.11611 0.88982 0.0
O265 O 0.69517 0.1235 0.90509 0.0
O266 O 0.71499 0.15379 0.92861 0.0
O267 O 0.73771 0.14632 0.91303 0.0
H268 H 0.69844 0.15079 0.8796 0.0
H269 H 0.6889 0.16315 0.84725 0.0
H270 H 0.68357 0.11466 0.82078 0.0
H271 H 0.6932 0.10245 0.85309 0.0
H272 H 0.69434 0.06505 0.97903 0.0
H273 H 0.69681 0.09199 0.96268 0.0
H274 H 0.74667 0.05774 0.97229 0.0
H275 H 0.74918 0.0848 0.95644 0.0
H276 H 0.7624 0.16252 0.98092 0.0
H277 H 0.75141 0.20698 0.94712 0.0
H278 H 0.73504 0.19097 0.92256 0.0
H279 H 0.74613 0.14659 0.9561 0.0
C280 C 0.88724 0.69575 0.86951 0.0
C281 C 0.87019 0.69428 0.8665 0.0
C282 C 0.87462 0.68441 0.83136 0.0
C283 C 0.86395 0.68863 0.84763 0.0
C284 C 0.89168 0.68625 0.83441 0.0
C285 C 0.8979 0.69183 0.85328 0.0
U286 U 0.88388 0.71842 0.92115 0.0
O287 O 0.8924 0.71117 0.95211 0.0
O288 O 0.90194 0.73366 0.93767 0.0
C289 C 0.90266 0.72361 0.95353 0.0
C290 C 0.89415 0.70112 0.88945 0.0
C291 C 0.91917 0.71992 0.96167 0.0
C292 C 0.94828 0.71411 0.95708 0.0
C293 C 0.93255 0.71648 0.94871 0.0
C294 C 0.9373 0.71824 0.99139 0.0
C295 C 0.95088 0.71511 0.97854 0.0
C296 C 0.92165 0.72061 0.98303 0.0
C297 C 0.8447 0.74103 0.9358 0.0
C298 C 0.84279 0.75608 0.96809 0.0
C299 C 0.81924 0.75467 0.94526 0.0
C300 C 0.82835 0.74514 0.93141 0.0
C301 C 0.82634 0.76027 0.96379 0.0
C302 C 0.85188 0.74654 0.95423 0.0
C303 C 0.85415 0.731 0.92112 0.0
O304 O 0.89686 0.71699 0.89136 0.0
O305 O 0.8875 0.69452 0.90597 0.0
O306 O 0.85736 0.71592 0.92718 0.0
O307 O 0.8669 0.73837 0.91276 0.0
H308 H 0.86173 0.69731 0.87882 0.0
H309 H 0.85077 0.68724 0.84597 0.0
H310 H 0.90028 0.68344 0.82216 0.0
H311 H 0.91108 0.69299 0.85524 0.0
H312 H 0.95841 0.71153 0.94674 0.0
H313 H 0.93088 0.71584 0.93216 0.0
H314 H 0.93882 0.71936 1.00792 0.0
H315 H 0.91148 0.72333 0.99327 0.0
H316 H 0.84872 0.76034 0.98206 0.0
H317 H 0.80656 0.75745 0.94157 0.0
H318 H 0.82261 0.74093 0.91728 0.0
H319 H 0.86453 0.7435 0.95784 0.0
C320 C 0.81864 0.62572 0.65984 0.0
C321 C 0.81609 0.64243 0.66425 0.0
C322 C 0.83 0.63932 0.69741 0.0
C323 C 0.82172 0.64917 0.68286 0.0
C324 C 0.83231 0.62253 0.69292 0.0
C325 C 0.8267 0.61583 0.67433 0.0
U326 U 0.79563 0.62806 0.60837 0.0
O327 O 0.80291 0.61908 0.57759 0.0
O328 O 0.78051 0.60963 0.59237 0.0
C329 C 0.79063 0.60858 0.57661 0.0
C330 C 0.81324 0.61846 0.64014 0.0
C331 C 0.79447 0.59191 0.56888 0.0
C332 C 0.7937 0.56209 0.57217 0.0
C333 C 0.79187 0.57775 0.58088 0.0
C334 C 0.80135 0.57448 0.53963 0.0
C335 C 0.79819 0.56026 0.55132 0.0
C336 C 0.79947 0.5901 0.54831 0.0
C337 C 0.77234 0.66676 0.59297 0.0
C338 C 0.76256 0.67165 0.55807 0.0
C339 C 0.7525 0.68842 0.58622 0.0
C340 C 0.76233 0.67959 0.60002 0.0
C341 C 0.75252 0.68462 0.56503 0.0
C342 C 0.77232 0.66277 0.57191 0.0
C343 C 0.78256 0.65756 0.60774 0.0
O344 O 0.79739 0.61557 0.63843 0.0
O345 O 0.81965 0.62504 0.62347 0.0
O346 O 0.79771 0.6545 0.6018 0.0
O347 O 0.77538 0.64485 0.61643 0.0
H348 H 0.80989 0.65027 0.65321 0.0
H349 H 0.81986 0.66216 0.68566 0.0
H350 H 0.83835 0.61449 0.70386 0.0
H351 H 0.82871 0.60289 0.67124 0.0
H352 H 0.79139 0.5514 0.5817 0.0
H353 H 0.78805 0.57877 0.59682 0.0
H354 H 0.80463 0.57358 0.52349 0.0
H355 H 0.80142 0.60083 0.53871 0.0
H356 H 0.76308 0.66848 0.54187 0.0
H357 H 0.74473 0.6981 0.59223 0.0
H358 H 0.76208 0.68275 0.61625 0.0
H359 H 0.77991 0.65283 0.56617 0.0
C360 C 0.38601 0.81652 0.65939 0.0
C361 C 0.36903 0.81905 0.66183 0.0
C362 C 0.37322 0.82745 0.69763 0.0
C363 C 0.36271 0.8245 0.68074 0.0
C364 C 0.39018 0.82457 0.69513 0.0
C365 C 0.39649 0.8192 0.67622 0.0
U366 U 0.38318 0.79418 0.60742 0.0
O367 O 0.39187 0.80171 0.57663 0.0
O368 O 0.40146 0.77922 0.59097 0.0
C369 C 0.40219 0.78935 0.5752 0.0
C370 C 0.39307 0.81136 0.63944 0.0
C371 C 0.41871 0.79317 0.56715 0.0
C372 C 0.44783 0.79894 0.57187 0.0
C373 C 0.43209 0.79651 0.58018 0.0
C374 C 0.43686 0.79509 0.53749 0.0
C375 C 0.45044 0.79811 0.55039 0.0
C376 C 0.42119 0.79266 0.54579 0.0
C377 C 0.34434 0.77127 0.59194 0.0
C378 C 0.34299 0.7562 0.55961 0.0
C379 C 0.31903 0.75764 0.58172 0.0
C380 C 0.3279 0.76718 0.59584 0.0
C381 C 0.32645 0.75202 0.56341 0.0
C382 C 0.35185 0.76575 0.57375 0.0
C383 C 0.35355 0.7813 0.6069 0.0
O384 O 0.39594 0.79553 0.63739 0.0
O385 O 0.38651 0.81801 0.62289 0.0
O386 O 0.35669 0.79645 0.60105 0.0
O387 O 0.36628 0.77402 0.61538 0.0
H388 H 0.36069 0.817 0.64906 0.0
H389 H 0.34962 0.82672 0.68197 0.0
H390 H 0.39863 0.82638 0.70784 0.0
H391 H 0.4096 0.81721 0.67471 0.0
H392 H 0.45796 0.80144 0.58225 0.0
H393 H 0.43041 0.797 0.59674 0.0
H394 H 0.43838 0.79409 0.52095 0.0
H395 H 0.41103 0.79001 0.53549 0.0
H396 H 0.34918 0.75193 0.54584 0.0
H397 H 0.30627 0.75488 0.58502 0.0
H398 H 0.3219 0.77139 0.60978 0.0
H399 H 0.36457 0.76878 0.57052 0.0
C400 C 0.1953 0.38674 0.65879 0.0
C401 C 0.19315 0.36972 0.66136 0.0
C402 C 0.18449 0.37387 0.69705 0.0
C403 C 0.18776 0.36336 0.68027 0.0
C404 C 0.18704 0.39089 0.69445 0.0
C405 C 0.19235 0.39723 0.67553 0.0
U406 U 0.21769 0.38419 0.60688 0.0
O407 O 0.20979 0.39219 0.57593 0.0
O408 O 0.232 0.40276 0.59 0.0
C409 C 0.22175 0.40299 0.57431 0.0
C410 C 0.20027 0.39383 0.63877 0.0
C411 C 0.21743 0.41923 0.56564 0.0
C412 C 0.21678 0.44915 0.56741 0.0
C413 C 0.21906 0.43386 0.57701 0.0
C414 C 0.21067 0.43536 0.53522 0.0
C415 C 0.21289 0.45009 0.54627 0.0
C416 C 0.21295 0.42014 0.5448 0.0
C417 C 0.24177 0.34582 0.59211 0.0
C418 C 0.25067 0.34012 0.55704 0.0
C419 C 0.26239 0.32487 0.58553 0.0
C420 C 0.25259 0.33373 0.59933 0.0
C421 C 0.26152 0.32788 0.56417 0.0
C422 C 0.24095 0.34905 0.57088 0.0
C423 C 0.23156 0.35505 0.60688 0.0
O424 O 0.216 0.39718 0.63667 0.0
O425 O 0.19379 0.38693 0.62231 0.0
O426 O 0.21623 0.35756 0.60128 0.0
O427 O 0.23853 0.36813 0.61496 0.0
H428 H 0.19542 0.36137 0.64866 0.0
H429 H 0.1858 0.35023 0.68157 0.0
H430 H 0.18498 0.39935 0.70708 0.0
H431 H 0.19405 0.41038 0.67392 0.0
H432 H 0.21868 0.46023 0.57637 0.0
H433 H 0.22255 0.43352 0.59312 0.0
H434 H 0.20737 0.43559 0.51905 0.0
H435 H 0.21163 0.40903 0.53571 0.0
H436 H 0.24948 0.34267 0.54073 0.0
H437 H 0.27079 0.31577 0.59165 0.0
H438 H 0.2535 0.33117 0.61569 0.0
H439 H 0.23273 0.35841 0.56499 0.0
C440 C 0.62723 0.19528 0.65982 0.0
C441 C 0.64438 0.19408 0.66191 0.0
C442 C 0.64128 0.18468 0.69744 0.0
C443 C 0.65133 0.18876 0.68052 0.0
C444 C 0.62411 0.18615 0.69531 0.0
C445 C 0.61718 0.19136 0.67667 0.0
U446 U 0.6289 0.21753 0.60788 0.0
O447 O 0.6196 0.21 0.57739 0.0
O448 O 0.61036 0.23254 0.59194 0.0
C449 C 0.60905 0.22221 0.57641 0.0
C450 C 0.61962 0.2004 0.64019 0.0
C451 C 0.59226 0.21821 0.56894 0.0
C452 C 0.56274 0.22344 0.56829 0.0
C453 C 0.57821 0.2257 0.5774 0.0
C454 C 0.57497 0.20581 0.54246 0.0
C455 C 0.56097 0.2137 0.55046 0.0
C456 C 0.59041 0.2081 0.55153 0.0
C457 C 0.66781 0.24022 0.59163 0.0
C458 C 0.66912 0.25564 0.55958 0.0
C459 C 0.69331 0.25338 0.58121 0.0
C460 C 0.68439 0.24388 0.5953 0.0
C461 C 0.6858 0.2594 0.56317 0.0
C462 C 0.66022 0.24613 0.57369 0.0
C463 C 0.6586 0.23024 0.60661 0.0
O464 O 0.61677 0.21623 0.63823 0.0
O465 O 0.6258 0.19371 0.62344 0.0
O466 O 0.65525 0.21513 0.60074 0.0
O467 O 0.64603 0.23762 0.61533 0.0
H468 H 0.65238 0.19717 0.64913 0.0
H469 H 0.66459 0.18797 0.68171 0.0
H470 H 0.616 0.18294 0.70792 0.0
H471 H 0.60392 0.19221 0.67537 0.0
H472 H 0.55229 0.22985 0.57477 0.0
H473 H 0.57919 0.23372 0.59067 0.0
H474 H 0.57405 0.19801 0.52897 0.0
H475 H 0.60102 0.20229 0.54454 0.0
H476 H 0.66288 0.26023 0.546 0.0
H477 H 0.70617 0.25581 0.58434 0.0
H478 H 0.69045 0.23936 0.60905 0.0
H479 H 0.64739 0.24342 0.57064 0.0
C480 C 0.81621 0.38683 0.36673 0.0
C481 C 0.81829 0.36979 0.36443 0.0
C482 C 0.82802 0.37369 0.32913 0.0
C483 C 0.82417 0.36328 0.34582 0.0
C484 C 0.82564 0.39074 0.3315 0.0
C485 C 0.81982 0.39722 0.3501 0.0
U486 U 0.79332 0.384 0.41829 0.0
O487 O 0.79962 0.39409 0.44877 0.0
O488 O 0.77684 0.40181 0.43338 0.0
C489 C 0.78672 0.40384 0.44922 0.0
C490 C 0.81038 0.39405 0.38628 0.0
C491 C 0.7892 0.42093 0.45659 0.0
C492 C 0.80635 0.44228 0.47198 0.0
C493 C 0.80477 0.42689 0.46241 0.0
C494 C 0.77692 0.4462 0.46953 0.0
C495 C 0.79238 0.45197 0.47605 0.0
C496 C 0.77535 0.43086 0.46 0.0
C497 C 0.77227 0.34438 0.43477 0.0
C498 C 0.75702 0.34295 0.46694 0.0
C499 C 0.75902 0.31889 0.44504 0.0
C500 C 0.7685 0.32785 0.43097 0.0
C501 C 0.75314 0.32632 0.46321 0.0
C502 C 0.76649 0.35189 0.45284 0.0
C503 C 0.78212 0.35372 0.41978 0.0
O504 O 0.79439 0.39601 0.38787 0.0
O505 O 0.81716 0.38825 0.4032 0.0
O506 O 0.79693 0.35789 0.426 0.0
O507 O 0.77433 0.36575 0.41046 0.0
H508 H 0.81551 0.36154 0.37707 0.0
H509 H 0.82599 0.35013 0.34467 0.0
H510 H 0.82814 0.39912 0.31892 0.0
H511 H 0.81818 0.41039 0.35152 0.0
H512 H 0.81843 0.44629 0.47692 0.0
H513 H 0.81569 0.4195 0.46017 0.0
H514 H 0.76594 0.45344 0.47207 0.0
H515 H 0.76319 0.42654 0.45583 0.0
H516 H 0.75253 0.34913 0.48061 0.0
H517 H 0.75649 0.30607 0.44181 0.0
H518 H 0.7729 0.32186 0.41711 0.0
H519 H 0.76926 0.36469 0.45598 0.0
C520 C 0.62496 0.81532 0.3694 0.0
C521 C 0.64199 0.81736 0.36674 0.0
C522 C 0.63778 0.82593 0.33103 0.0
C523 C 0.64833 0.82265 0.34777 0.0
C524 C 0.62076 0.82349 0.33372 0.0
C525 C 0.61444 0.81828 0.3527 0.0
U526 U 0.62773 0.79355 0.42171 0.0
O527 O 0.61955 0.80173 0.45248 0.0
O528 O 0.60931 0.77921 0.4388 0.0
C529 C 0.60889 0.78965 0.45429 0.0
C530 C 0.61791 0.81047 0.38948 0.0
C531 C 0.59255 0.79391 0.4627 0.0
C532 C 0.56268 0.79486 0.46024 0.0
C533 C 0.57808 0.79253 0.45096 0.0
C534 C 0.57605 0.80049 0.49285 0.0
C535 C 0.56147 0.79855 0.48142 0.0
C536 C 0.59138 0.79816 0.48359 0.0
C537 C 0.66637 0.7702 0.43711 0.0
C538 C 0.67181 0.76162 0.47237 0.0
C539 C 0.6879 0.75032 0.44433 0.0
C540 C 0.67893 0.75977 0.43025 0.0
C541 C 0.6845 0.75119 0.46558 0.0
C542 C 0.66277 0.77098 0.45826 0.0
C543 C 0.65705 0.78008 0.42209 0.0
O544 O 0.61478 0.79472 0.39185 0.0
O545 O 0.6247 0.81723 0.40583 0.0
O546 O 0.65432 0.79545 0.42738 0.0
O547 O 0.64408 0.77284 0.41411 0.0
H548 H 0.65036 0.81508 0.37942 0.0
H549 H 0.66146 0.82452 0.3464 0.0
H550 H 0.61226 0.82556 0.32113 0.0
H551 H 0.60128 0.81667 0.35438 0.0
H552 H 0.55172 0.79317 0.45099 0.0
H553 H 0.57864 0.78923 0.4348 0.0
H554 H 0.57562 0.80363 0.50907 0.0
H555 H 0.60238 0.79929 0.49294 0.0
H556 H 0.66874 0.76241 0.48859 0.0
H557 H 0.69769 0.74253 0.43862 0.0
H558 H 0.68185 0.75898 0.41398 0.0
H559 H 0.65298 0.77883 0.46386 0.0
C560 C 0.19428 0.62503 0.36819 0.0
C561 C 0.19343 0.64209 0.36504 0.0
C562 C 0.183 0.63779 0.33011 0.0
C563 C 0.18782 0.64841 0.3462 0.0
C564 C 0.18421 0.6207 0.33331 0.0
C565 C 0.18976 0.61441 0.35214 0.0
U566 U 0.2171 0.62806 0.41979 0.0
O567 O 0.20974 0.61966 0.45076 0.0
O568 O 0.23204 0.60976 0.43627 0.0
C569 C 0.22201 0.60922 0.45216 0.0
C570 C 0.19958 0.61805 0.38812 0.0
C571 C 0.21809 0.59281 0.46046 0.0
C572 C 0.21247 0.5636 0.45624 0.0
C573 C 0.215 0.57924 0.44765 0.0
C574 C 0.21574 0.57506 0.49046 0.0
C575 C 0.21295 0.5613 0.47778 0.0
C576 C 0.21827 0.59061 0.48188 0.0
C577 C 0.24033 0.66683 0.43467 0.0
C578 C 0.25581 0.66818 0.4667 0.0
C579 C 0.25367 0.69229 0.44494 0.0
C580 C 0.24411 0.68337 0.4309 0.0
C581 C 0.25965 0.68482 0.46304 0.0
C582 C 0.24623 0.65928 0.45265 0.0
C583 C 0.23018 0.6576 0.41988 0.0
O584 O 0.21541 0.61513 0.38998 0.0
O585 O 0.19312 0.6248 0.40466 0.0
O586 O 0.21503 0.6546 0.42588 0.0
O587 O 0.23732 0.64477 0.41145 0.0
H588 H 0.19692 0.65052 0.37723 0.0
H589 H 0.18693 0.66162 0.34443 0.0
H590 H 0.18094 0.61213 0.3212 0.0
H591 H 0.19043 0.60121 0.35421 0.0
H592 H 0.21016 0.55333 0.44601 0.0
H593 H 0.21477 0.58069 0.43105 0.0
H594 H 0.21647 0.57377 0.50705 0.0
H595 H 0.22073 0.60092 0.49203 0.0
H596 H 0.26037 0.66196 0.4803 0.0
H597 H 0.25616 0.70513 0.44176 0.0
H598 H 0.23959 0.68941 0.41714 0.0
H599 H 0.24344 0.64649 0.45579 0.0
C600 C 0.3856 0.19632 0.36614 0.0
C601 C 0.36846 0.19512 0.36397 0.0
C602 C 0.37163 0.18589 0.32837 0.0
C603 C 0.36154 0.18989 0.34528 0.0
C604 C 0.3888 0.18735 0.3306 0.0
C605 C 0.39569 0.19248 0.3493 0.0
U606 U 0.38422 0.21829 0.41841 0.0
O607 O 0.39354 0.21042 0.44875 0.0
O608 O 0.40299 0.23299 0.43443 0.0
C609 C 0.40423 0.22254 0.44983 0.0
C610 C 0.39321 0.20128 0.38586 0.0
C611 C 0.421 0.21839 0.45719 0.0
C612 C 0.43826 0.20573 0.48348 0.0
C613 C 0.42283 0.2081 0.47443 0.0
C614 C 0.45053 0.22361 0.45795 0.0
C615 C 0.45228 0.21371 0.47562 0.0
C616 C 0.43508 0.22595 0.44886 0.0
C617 C 0.34579 0.24144 0.43527 0.0
C618 C 0.34158 0.25085 0.47046 0.0
C619 C 0.32391 0.26079 0.44309 0.0
C620 C 0.33259 0.25123 0.42883 0.0
C621 C 0.32826 0.26066 0.46409 0.0
C622 C 0.35032 0.24139 0.45615 0.0
C623 C 0.35478 0.23147 0.42004 0.0
O624 O 0.39625 0.21707 0.38799 0.0
O625 O 0.38693 0.19456 0.40253 0.0
O626 O 0.35785 0.21621 0.42548 0.0
O627 O 0.36743 0.23877 0.41135 0.0
H628 H 0.36043 0.19814 0.37675 0.0
H629 H 0.34828 0.1891 0.34403 0.0
H630 H 0.39694 0.1842 0.318 0.0
H631 H 0.40895 0.19332 0.35068 0.0
H632 H 0.43916 0.19781 0.49685 0.0
H633 H 0.4122 0.20222 0.48133 0.0
H634 H 0.46099 0.23011 0.45158 0.0
H635 H 0.43412 0.23412 0.43573 0.0
H636 H 0.34538 0.25065 0.48646 0.0
H637 H 0.31363 0.26807 0.43772 0.0
H638 H 0.32894 0.25145 0.41276 0.0
H639 H 0.3606 0.23402 0.4614 0.0
H640 H 0.31315 0.97775 0.96662 0.0
H641 H 0.28503 0.03163 0.064 0.0
H642 H 0.28565 0.95839 0.01809 0.0
H643 H 0.31387 0.05105 1.01371 0.0
H644 H 0.28606 1.00449 0.04795 0.0
H645 H 0.31401 1.00457 0.98377 0.0
C646 C 0.30726 0.97912 0.98149 0.0
C647 C 0.29934 0.96572 0.9909 0.0
C648 C 0.29222 0.01467 0.04045 0.0
C649 C 0.30038 0.99642 1.01073 0.0
C650 C 0.29175 0.03018 0.04971 0.0
C651 C 0.29933 0.04374 0.04021 0.0
C652 C 0.30031 0.01261 0.02147 0.0
C653 C 0.30762 0.04106 0.02148 0.0
C654 C 0.30784 0.99442 0.99134 0.0
C655 C 0.29211 0.96824 1.01034 0.0
N656 N 0.30783 0.02585 1.01271 0.0
N657 N 0.29277 0.98325 0.01954 0.0
H658 H 0.95906 0.31466 1.01256 0.0
H659 H 0.05349 0.28696 0.01822 0.0
H660 H 0.97961 0.28631 0.06254 0.0
H661 H 0.03267 0.31299 0.96646 0.0
H662 H 0.02688 0.28805 0.03549 0.0
H663 H 0.98615 0.3155 0.99629 0.0
C664 C 0.96925 0.3086 0.02014 0.0
C665 C 0.96696 0.30031 0.03894 0.0
C666 C 0.02812 0.29357 0.02038 0.0
C667 C 0.99814 0.30134 0.02038 0.0
C668 C 0.04337 0.29306 1.01053 0.0
C669 C 0.04541 0.29995 0.99083 0.0
C670 C 0.01468 0.30104 1.01053 0.0
C671 C 0.03168 0.30737 0.98153 0.0
C672 C 0.98475 0.30915 1.01085 0.0
C673 C 0.98076 0.29298 0.04818 0.0
N674 N 0.01692 0.30772 0.99145 0.0
N675 N 0.9957 0.2936 0.03877 0.0
H676 H 0.74147 0.04731 1.00646 0.0
H677 H 0.69244 0.96293 0.0242 0.0
H678 H 0.69642 0.03524 0.97464 0.0
H679 H 0.7369 0.97615 0.05659 0.0
H680 H 0.69321 0.98947 1.00642 0.0
H681 H 0.73964 0.02141 0.02523 0.0
C682 C 0.73123 0.03916 1.00328 0.0
C683 C 0.71916 0.04346 0.98876 0.0
C684 C 0.70275 0.98659 0.01749 0.0
C685 C 0.71685 0.01372 1.01056 0.0
C686 C 0.70235 0.97141 0.02761 0.0
C687 C 0.71464 0.96723 0.04192 0.0
C688 C 0.71557 0.99771 0.02161 0.0
C689 C 0.72705 0.97885 0.0459 0.0
C690 C 0.73013 0.0244 0.01416 0.0
C691 C 0.70597 0.03252 0.98574 0.0
N692 N 0.72723 0.99348 0.03575 0.0
N693 N 0.70521 0.01814 0.99648 0.0
H694 H 0.0334 0.69998 0.06165 0.0
H695 H 0.98005 0.72717 0.96335 0.0
H696 H 0.0532 0.72642 1.00956 0.0
H697 H 0.96012 0.69968 0.01451 0.0
H698 H 0.00716 0.72602 0.97951 0.0
H699 H 0.00659 0.69921 0.04445 0.0
C700 C 0.03212 0.70565 0.04663 0.0
C701 C 0.04564 0.71325 0.03707 0.0
C702 C 0.99687 0.72018 0.98718 0.0
C703 C 0.01496 0.71232 0.01718 0.0
C704 C 0.98138 0.72072 0.97786 0.0
C705 C 0.96769 0.71356 0.98757 0.0
C706 C 0.99878 0.71244 1.00641 0.0
C707 C 0.97022 0.70561 1.00657 0.0
C708 C 0.01683 0.70512 0.03675 0.0
C709 C 0.04325 0.7202 0.01745 0.0
N710 N 0.98541 0.70532 0.01538 0.0
N711 N 0.02824 0.7196 1.00822 0.0
H712 H 0.82044 0.5483 0.52303 0.0
H713 H 0.77186 0.46353 0.50624 0.0
H714 H 0.77679 0.5345 0.55671 0.0
H715 H 0.81609 0.47616 0.47303 0.0
H716 H 0.77391 0.48932 0.52523 0.0
H717 H 0.8196 0.52179 0.50516 0.0
C718 C 0.81069 0.5397 0.52671 0.0
C719 C 0.79864 0.54371 0.54141 0.0
C720 C 0.78319 0.48648 0.51381 0.0
C721 C 0.79765 0.51326 0.52099 0.0
C722 C 0.78196 0.47178 0.50281 0.0
C723 C 0.79374 0.46768 0.48783 0.0
C724 C 0.7963 0.49729 0.50986 0.0
C725 C 0.80677 0.47874 0.48449 0.0
C726 C 0.81026 0.52454 0.51654 0.0
C727 C 0.78646 0.53194 0.54571 0.0
N728 N 0.80766 0.49305 0.49535 0.0
N729 N 0.78623 0.51733 0.5355 0.0
H730 H 0.53288 0.81272 0.46708 0.0
H731 H 0.47956 0.78594 0.56556 0.0
H732 H 0.55273 0.78674 0.51948 0.0
H733 H 0.45977 0.81367 0.51454 0.0
H734 H 0.50667 0.78705 0.54942 0.0
H735 H 0.50612 0.81367 0.48436 0.0
C736 C 0.53163 0.8072 0.48219 0.0
C737 C 0.54514 0.79966 0.49182 0.0
C738 C 0.49641 0.79296 0.54178 0.0
C739 C 0.51452 0.8008 0.51178 0.0
C740 C 0.48092 0.79244 0.55109 0.0
C741 C 0.46727 0.79967 0.54141 0.0
C742 C 0.49835 0.80073 0.52258 0.0
C743 C 0.46983 0.80768 0.52245 0.0
C744 C 0.51636 0.80783 0.49211 0.0
C745 C 0.54278 0.79289 0.51155 0.0
N746 N 0.48502 0.80794 0.51365 0.0
N747 N 0.5278 0.79358 0.52081 0.0
H748 H 0.19675 0.55248 0.51337 0.0
H749 H 0.22454 0.45806 0.50789 0.0
H750 H 0.22539 0.53195 0.46362 0.0
H751 H 0.19919 0.47909 0.56004 0.0
H752 H 0.2233 0.48462 0.49052 0.0
H753 H 0.19597 0.52541 0.52971 0.0
C754 C 0.20288 0.5423 0.50585 0.0
C755 C 0.21125 0.5446 0.4871 0.0
C756 C 0.21796 0.48345 0.50573 0.0
C757 C 0.21027 0.51344 0.50574 0.0
C758 C 0.21856 0.46822 0.51564 0.0
C759 C 0.2119 0.46626 0.53549 0.0
C760 C 0.21064 0.49692 0.51566 0.0
C761 C 0.20462 0.48003 0.54486 0.0
C762 C 0.20237 0.52681 0.51518 0.0
C763 C 0.21866 0.53081 0.47794 0.0
N764 N 0.20418 0.49475 0.53487 0.0
N765 N 0.21806 0.51588 0.48738 0.0
H766 H 0.53003 0.21115 0.56751 0.0
H767 H 0.48323 0.21143 0.45857 0.0
H768 H 0.55489 0.21348 0.50879 0.0
H769 H 0.45833 0.21312 0.5173 0.0
H770 H 0.50959 0.21059 0.47669 0.0
H771 H 0.50366 0.21029 0.5494 0.0
C772 C 0.52997 0.2115 0.55082 0.0
C773 C 0.54478 0.21241 0.53971 0.0
C774 C 0.49835 0.21108 0.48561 0.0
C775 C 0.51454 0.21129 0.51881 0.0
C776 C 0.48327 0.21164 0.47526 0.0
C777 C 0.46846 0.21237 0.48637 0.0
C778 C 0.4987 0.21127 0.50728 0.0
C779 C 0.46936 0.21233 0.50803 0.0
C780 C 0.51489 0.21093 0.54048 0.0
C781 C 0.54386 0.21255 0.51806 0.0
N782 N 0.48418 0.21185 0.51774 0.0
N783 N 0.52904 0.21205 0.50836 0.0
H784 H 0.243 0.21798 0.0647 0.0
H785 H 0.19461 0.21977 0.95723 0.0
H786 H 0.23526 0.17483 0.02709 0.0
H787 H 0.19487 0.26016 1.00038 0.0
H788 H 0.21076 0.2035 0.98167 0.0
H789 H 0.22644 0.23392 0.04055 0.0
C790 C 0.23774 0.21179 0.05147 0.0
C791 C 0.24056 0.19496 0.04804 0.0
C792 C 0.20725 0.21591 0.98581 0.0
C793 C 0.22174 0.21332 0.02001 0.0
C794 C 0.19811 0.22524 0.97181 0.0
C795 C 0.19337 0.24137 0.97675 0.0
C796 C 0.21183 0.22278 1.00484 0.0
C797 C 0.19809 0.24773 0.996 0.0
C798 C 0.22834 0.22095 0.0376 0.0
C799 C 0.23366 0.18779 0.03029 0.0
N800 N 0.2071 0.23846 1.00929 0.0
N801 N 0.22461 0.197 0.01696 0.0
H802 H 0.78811 0.17812 0.98307 0.0
H803 H 0.79438 0.2606 0.05038 0.0
H804 H 0.75113 0.21614 0.98295 0.0
H805 H 0.83311 0.22446 0.04698 0.0
H806 H 0.77798 0.244 0.02661 0.0
H807 H 0.80434 0.1944 1.0074 0.0
C808 C 0.78335 0.18985 0.98825 0.0
C809 C 0.76821 0.19576 0.98092 0.0
C810 C 0.79007 0.23969 0.03104 0.0
C811 C 0.78683 0.21456 1.0087 0.0
C812 C 0.79941 0.24912 0.04473 0.0
C813 C 0.81517 0.24392 0.05073 0.0
C814 C 0.79646 0.22488 0.02331 0.0
C815 C 0.82112 0.22905 0.04261 0.0
C816 C 0.79268 0.19919 1.00205 0.0
C817 C 0.7628 0.21117 0.98796 0.0
N818 N 0.81176 0.22005 0.02938 0.0
N819 N 0.77208 0.22 1.00146 0.0
H820 H 0.78299 0.80303 0.07373 0.0
H821 H 0.80425 0.78491 0.95521 0.0
H822 H 0.75876 0.82699 0.02271 0.0
H823 H 0.82618 0.75873 1.00614 0.0
H824 H 0.78806 0.80098 0.9797 0.0
H825 H 0.79946 0.78726 0.04925 0.0
C826 C 0.78106 0.80493 0.05738 0.0
C827 C 0.76939 0.81636 0.05032 0.0
C828 C 0.79642 0.79173 0.98553 0.0
C829 C 0.78842 0.79841 0.02212 0.0
C830 C 0.80562 0.78247 0.97154 0.0
C831 C 0.8166 0.77038 0.97857 0.0
C832 C 0.79817 0.78893 1.00679 0.0
C833 C 0.81804 0.76802 0.99997 0.0
C834 C 0.79055 0.79597 0.04339 0.0
C835 C 0.76771 0.81848 0.02892 0.0
N836 N 0.80893 0.77717 1.01328 0.0
N837 N 0.77708 0.80959 0.01561 0.0
H838 H 0.17743 0.78845 0.04552 0.0
H839 H 0.26076 0.79508 0.98 0.0
H840 H 0.21666 0.75284 0.04867 0.0
H841 H 0.22368 0.83299 0.98092 0.0
H842 H 0.2443 0.77902 1.00425 0.0
H843 H 0.19369 0.8045 0.02096 0.0
C844 C 0.18943 0.78396 0.04098 0.0
C845 C 0.19568 0.76926 0.04921 0.0
C846 C 0.23975 0.79086 0.99918 0.0
C847 C 0.21443 0.78765 0.02116 0.0
C848 C 0.24911 0.79999 0.98521 0.0
C849 C 0.2436 0.81541 0.97835 0.0
C850 C 0.2247 0.7971 1.00633 0.0
C851 C 0.22851 0.82125 0.98593 0.0
C852 C 0.19875 0.79318 0.02704 0.0
C853 C 0.21141 0.76418 0.04295 0.0
N854 N 0.21958 0.81208 0.99945 0.0
N855 N 0.22021 0.77333 0.02929 0.0
H856 H 0.73559 0.67337 0.53103 0.0
H857 H 0.69689 0.76106 0.50291 0.0
H858 H 0.7458 0.71778 0.56525 0.0
H859 H 0.69437 0.719 0.46247 0.0
H860 H 0.7131 0.74483 0.52727 0.0
H861 H 0.71903 0.68939 0.50689 0.0
C862 C 0.73446 0.68649 0.53344 0.0
C863 C 0.74219 0.69419 0.55027 0.0
C864 C 0.70901 0.73915 0.51307 0.0
C865 C 0.72295 0.71261 0.52276 0.0
C866 C 0.69966 0.74838 0.49921 0.0
C867 C 0.69426 0.74139 0.4806 0.0
C868 C 0.71292 0.72274 0.50841 0.0
C869 C 0.69843 0.72495 0.47651 0.0
C870 C 0.72491 0.69563 0.51968 0.0
C871 C 0.73992 0.71122 0.55274 0.0
N872 N 0.70746 0.71618 0.49031 0.0
N873 N 0.73052 0.71982 0.53917 0.0
H874 H 0.25862 0.68369 0.50538 0.0
H875 H 0.32715 0.75352 0.52107 0.0
H876 H 0.28368 0.70779 0.45508 0.0
H877 H 0.30408 0.72744 0.57131 0.0
H878 H 0.31136 0.73691 0.49668 0.0
H879 H 0.27515 0.69958 0.52973 0.0
C880 C 0.26767 0.69224 0.49942 0.0
C881 C 0.26972 0.69437 0.47808 0.0
C882 C 0.30976 0.7348 0.51304 0.0
C883 C 0.28861 0.71282 0.50599 0.0
C884 C 0.31885 0.74423 0.527 0.0
C885 C 0.31697 0.74192 0.54834 0.0
C886 C 0.29865 0.72293 0.5204 0.0
C887 C 0.30579 0.72985 0.55505 0.0
C888 C 0.27705 0.70139 0.51337 0.0
C889 C 0.28148 0.70587 0.47135 0.0
N890 N 0.29707 0.72084 0.54115 0.0
N891 N 0.29045 0.71464 0.48524 0.0
H892 H 0.27676 0.33863 0.52872 0.0
H893 H 0.31791 0.25162 0.50271 0.0
H894 H 0.26979 0.2951 0.56584 0.0
H895 H 0.31713 0.29237 0.46013 0.0
H896 H 0.30212 0.26805 0.5273 0.0
H897 H 0.29311 0.32247 0.50451 0.0
C898 C 0.27856 0.32566 0.53177 0.0
C899 C 0.27178 0.31826 0.54941 0.0
C900 C 0.3054 0.2734 0.51258 0.0
C901 C 0.2908 0.2997 0.52181 0.0
C902 C 0.31451 0.26406 0.49858 0.0
C903 C 0.31885 0.27061 0.4793 0.0
C904 C 0.30066 0.28948 0.50737 0.0
C905 C 0.3139 0.28675 0.4747 0.0
C906 C 0.288 0.31646 0.51796 0.0
C907 C 0.27491 0.30145 0.55266 0.0
N908 N 0.30511 0.29563 0.48864 0.0
N909 N 0.28417 0.29277 0.53902 0.0
H910 H 0.75435 0.32717 0.50555 0.0
H911 H 0.68466 0.25844 0.52082 0.0
H912 H 0.72887 0.30365 0.45512 0.0
H913 H 0.70876 0.2834 0.57123 0.0
H914 H 0.70061 0.27497 0.49654 0.0
H915 H 0.7377 0.31133 0.52982 0.0
C916 C 0.74519 0.31876 0.49955 0.0
C917 C 0.74305 0.31677 0.4782 0.0
C918 C 0.70241 0.27684 0.51291 0.0
C919 C 0.72401 0.29841 0.506 0.0
C920 C 0.69322 0.26747 0.52681 0.0
C921 C 0.69534 0.26949 0.54816 0.0
C922 C 0.71386 0.28836 0.52035 0.0
C923 C 0.70685 0.28121 0.55495 0.0
C924 C 0.73574 0.30964 0.51345 0.0
C925 C 0.73114 0.30545 0.47141 0.0
N926 N 0.71565 0.29018 0.54111 0.0
N927 N 0.72209 0.29672 0.48524 0.0
H928 H 0.38061 0.19409 0.28885 0.0
H929 H 0.31784 0.13129 0.23499 0.0
H930 H 0.34615 0.16411 0.32272 0.0
H931 H 0.34822 0.16541 0.20114 0.0
H932 H 0.32833 0.14282 0.26726 0.0
H933 H 0.3692 0.18345 0.2566 0.0
C934 C 0.37066 0.18524 0.28952 0.0
C935 C 0.36438 0.17997 0.30859 0.0
C936 C 0.33267 0.14783 0.25278 0.0
C937 C 0.35117 0.16774 0.27161 0.0
C938 C 0.32674 0.14118 0.23433 0.0
C939 C 0.33217 0.14734 0.21527 0.0
C940 C 0.34422 0.16069 0.25226 0.0
C941 C 0.34356 0.16036 0.21543 0.0
C942 C 0.36408 0.17923 0.27108 0.0
C943 C 0.35129 0.16866 0.30843 0.0
N944 N 0.34925 0.16653 0.23359 0.0
N945 N 0.3452 0.16287 0.29027 0.0
H946 H 0.81943 0.34498 0.30913 0.0
H947 H 0.8807 0.35998 0.21412 0.0
H948 H 0.85189 0.38683 0.30402 0.0
H949 H 0.85186 0.31576 0.22134 0.0
H950 H 0.86963 0.37023 0.2466 0.0
H951 H 0.83056 0.33427 0.27676 0.0
C952 C 0.82894 0.3519 0.30131 0.0
C953 C 0.83466 0.3669 0.30941 0.0
C954 C 0.86571 0.35827 0.24112 0.0
C955 C 0.84735 0.35475 0.27209 0.0
C956 C 0.87212 0.35234 0.22258 0.0
C957 C 0.86731 0.3369 0.21492 0.0
C958 C 0.85433 0.34875 0.25222 0.0
C959 C 0.85583 0.32779 0.22646 0.0
C960 C 0.83524 0.3458 0.28273 0.0
C961 C 0.84686 0.37538 0.2983 0.0
N962 N 0.84976 0.33383 0.2445 0.0
N963 N 0.85276 0.3692 0.28028 0.0
H964 H 0.65111 0.87721 0.21493 0.0
H965 H 0.66652 0.81729 0.31118 0.0
H966 H 0.69589 0.84954 0.22329 0.0
H967 H 0.62422 0.84897 0.30509 0.0
H968 H 0.67713 0.82808 0.27857 0.0
H969 H 0.64071 0.86605 0.24729 0.0
C970 C 0.65883 0.86886 0.22361 0.0
C971 C 0.67448 0.86443 0.21634 0.0
C972 C 0.66552 0.83264 0.28437 0.0
C973 C 0.66246 0.85135 0.2535 0.0
C974 C 0.65947 0.82655 0.30308 0.0
C975 C 0.6444 0.83217 0.31101 0.0
C976 C 0.65645 0.84446 0.27341 0.0
C977 C 0.63575 0.84402 0.29953 0.0
C978 C 0.65282 0.8624 0.24208 0.0
C979 C 0.6837 0.85322 0.22813 0.0
N980 N 0.64188 0.84974 0.2814 0.0
N981 N 0.67757 0.84711 0.24612 0.0
H982 H 0.15784 0.62558 0.30628 0.0
H983 H 0.16265 0.69655 0.22069 0.0
H984 H 0.19314 0.66524 0.3085 0.0
H985 H 0.13082 0.65417 0.21636 0.0
H986 H 0.17367 0.68574 0.25309 0.0
H987 H 0.14747 0.63634 0.27371 0.0
C988 C 0.16353 0.63649 0.29988 0.0
C989 C 0.17649 0.64442 0.31023 0.0
C990 C 0.16427 0.67881 0.24504 0.0
C991 C 0.1644 0.65703 0.27284 0.0
C992 C 0.15802 0.68494 0.22645 0.0
C993 C 0.14572 0.67631 0.2157 0.0
C994 C 0.15819 0.66394 0.25302 0.0
C995 C 0.14007 0.66143 0.22419 0.0
C996 C 0.1575 0.6427 0.28129 0.0
C997 C 0.18303 0.65877 0.30127 0.0
N998 N 0.14633 0.65576 0.24228 0.0
N999 N 0.17693 0.66459 0.28312 0.0
H1000 H 0.36071 0.87797 0.81444 0.0
H1001 H 0.3441 0.81945 0.71707 0.0
H1002 H 0.31527 0.85144 0.80535 0.0
H1003 H 0.38722 0.84998 0.72397 0.0
H1004 H 0.33361 0.83023 0.74974 0.0
H1005 H 0.37091 0.86697 0.78189 0.0
C1006 C 0.3528 0.86991 0.80556 0.0
C1007 C 0.33702 0.86574 0.8127 0.0
C1008 C 0.34537 0.83455 0.7441 0.0
C1009 C 0.3488 0.85285 0.77531 0.0
C1010 C 0.35135 0.82846 0.72536 0.0
C1011 C 0.36663 0.83376 0.71764 0.0
C1012 C 0.35472 0.84602 0.75532 0.0
C1013 C 0.37553 0.84529 0.72935 0.0
C1014 C 0.3587 0.86355 0.78698 0.0
C1015 C 0.32755 0.85491 0.80063 0.0
N1016 N 0.36946 0.851 0.74752 0.0
N1017 N 0.33357 0.84888 0.78255 0.0
H1018 H 0.19286 0.34499 0.71678 0.0
H1019 H 0.13301 0.3606 0.81302 0.0
H1020 H 0.16149 0.3875 0.72299 0.0
H1021 H 0.16022 0.31558 0.80441 0.0
H1022 H 0.14424 0.37099 0.7807 0.0
H1023 H 0.18192 0.33434 0.74929 0.0
C1024 C 0.18364 0.35208 0.72488 0.0
C1025 C 0.17815 0.36722 0.71701 0.0
C1026 C 0.14777 0.35882 0.78584 0.0
C1027 C 0.16569 0.35513 0.75451 0.0
C1028 C 0.14126 0.35282 0.80429 0.0
C1029 C 0.14555 0.3371 0.8115 0.0
C1030 C 0.15872 0.34911 0.77437 0.0
C1031 C 0.15665 0.32781 0.79964 0.0
C1032 C 0.17746 0.34601 0.74353 0.0
C1033 C 0.16634 0.37592 0.7285 0.0
N1034 N 0.16281 0.33393 0.78168 0.0
N1035 N 0.16054 0.36976 0.74658 0.0
H1036 H 0.66672 0.16288 0.70267 0.0
H1037 H 0.66383 0.16552 0.82626 0.0
H1038 H 0.6325 0.19265 0.73714 0.0
H1039 H 0.69335 0.13116 0.79169 0.0
H1040 H 0.65368 0.17704 0.79383 0.0
H1041 H 0.67806 0.15259 0.73512 0.0
C1042 C 0.66167 0.16736 0.71706 0.0
C1043 C 0.6486 0.17864 0.71712 0.0
C1044 C 0.66239 0.16699 0.79333 0.0
C1045 C 0.66148 0.16679 0.75444 0.0
C1046 C 0.66827 0.16047 0.81186 0.0
C1047 C 0.67945 0.1473 0.81175 0.0
C1048 C 0.66776 0.1604 0.77447 0.0
C1049 C 0.68459 0.14114 0.79256 0.0
C1050 C 0.66808 0.16139 0.7356 0.0
C1051 C 0.64243 0.18382 0.7363 0.0
N1052 N 0.67873 0.14774 0.77474 0.0
N1053 N 0.64892 0.17787 0.75414 0.0
H1054 H 0.81562 0.66261 0.72251 0.0
H1055 H 0.88759 0.66002 0.80698 0.0
H1056 H 0.85906 0.63244 0.71725 0.0
H1057 H 0.84665 0.69367 0.81021 0.0
H1058 H 0.87694 0.64952 0.7744 0.0
H1059 H 0.82639 0.6739 0.7548 0.0
C1060 C 0.82746 0.65841 0.72804 0.0
C1061 C 0.83639 0.64648 0.71707 0.0
C1062 C 0.87027 0.65922 0.7822 0.0
C1063 C 0.84873 0.65926 0.75427 0.0
C1064 C 0.87642 0.66532 0.8008 0.0
C1065 C 0.86809 0.67785 0.81144 0.0
C1066 C 0.8556 0.6656 0.77404 0.0
C1067 C 0.85344 0.6839 0.80276 0.0
C1068 C 0.83356 0.66481 0.74657 0.0
C1069 C 0.85156 0.64138 0.72526 0.0
N1070 N 0.84768 0.67773 0.7846 0.0
N1071 N 0.85721 0.64777 0.7433 0.0
loop_
_geom_bond_atom_site_label_1
_geom_bond_atom_site_label_2
_geom_bond_distance
_geom_bond_site_symmetry_2
_ccdc_geom_bond_type
C0 C1 1.264 . S
C0 C5 1.479 . S
C0 C10 1.465 . S
C1 C0 1.264 . S
C1 C3 1.339 . S
C1 H28 0.931 . S
C2 C3 1.395 . S
C2 C4 1.320 . S
C3 C1 1.339 . S
C3 C2 1.395 . S
C3 H29 0.929 . S
C4 C2 1.320 . S
C4 C5 1.405 . S
C4 H30 0.930 . S
C5 C0 1.479 . S
C5 C4 1.405 . S
C5 H31 0.931 . S
U6 O7 2.454 . S
U6 O8 2.458 . S
U6 C9 2.984 . S
U6 C10 2.847 . S
U6 C23 2.882 . S
U6 O24 2.441 . S
U6 O25 2.420 . S
U6 O26 2.455 . S
U6 O27 2.449 . S
O7 U6 2.454 . S
O7 C9 1.353 . S
O8 U6 2.458 . S
O8 C9 1.286 . S
C9 U6 2.984 . S
C9 O7 1.353 . S
C9 O8 1.286 . S
C9 C11 1.363 . S
C10 C0 1.465 . S
C10 U6 2.847 . S
C10 O24 1.249 . S
C10 O25 1.202 . S
C11 C9 1.363 . S
C11 C13 1.408 . S
C11 C16 1.342 . S
C12 C13 1.310 . S
C12 C15 1.461 . S
C12 H32 0.932 . S
C13 C11 1.408 . S
C13 C12 1.310 . S
C13 H33 0.930 . S
C14 C15 1.474 . S
C14 C16 1.285 . S
C14 H34 0.929 . S
C15 C12 1.461 . S
C15 C14 1.474 . S
C16 C11 1.342 . S
C16 C14 1.285 . S
C16 H35 0.930 . S
C17 C20 1.424 . S
C17 C22 1.245 . S
C17 C23 1.428 . S
C18 C21 1.260 . S
C18 C22 1.477 . S
C18 H36 0.910 1_554 S
C19 C20 1.384 . S
C19 C21 1.479 . S
C19 H37 0.929 . S
C20 C17 1.424 . S
C20 C19 1.384 . S
C20 H38 0.928 . S
C21 C18 1.260 . S
C21 C19 1.479 . S
C22 C17 1.245 . S
C22 C18 1.477 . S
C22 H39 0.932 . S
C23 U6 2.882 . S
C23 C17 1.428 . S
C23 O26 1.301 . S
C23 O27 1.282 . S
O24 U6 2.441 . S
O24 C10 1.249 . S
O25 U6 2.420 . S
O25 C10 1.202 . S
O26 U6 2.455 . S
O26 C23 1.301 . S
O27 U6 2.449 . S
O27 C23 1.282 . S
H28 C1 0.931 . S
H29 C3 0.929 . S
H30 C4 0.930 . S
H31 C5 0.931 . S
H32 C12 0.932 . S
H33 C13 0.930 . S
H34 C14 0.929 . S
H35 C16 0.930 . S
H36 C18 0.910 1_556 S
H37 C19 0.929 . S
H38 C20 0.928 . S
H39 C22 0.932 . S
C40 C41 1.264 . S
C40 C45 1.479 . S
C40 C50 1.465 . S
C41 C40 1.264 . S
C41 C43 1.339 . S
C41 H68 0.931 . S
C42 C43 1.395 . S
C42 C44 1.320 . S
C43 C41 1.339 . S
C43 C42 1.395 . S
C43 H69 0.929 . S
C44 C42 1.320 . S
C44 C45 1.405 . S
C44 H70 0.930 . S
C45 C40 1.479 . S
C45 C44 1.405 . S
C45 H71 0.931 . S
U46 O47 2.454 . S
U46 O48 2.458 . S
U46 C49 2.984 . S
U46 C50 2.847 . S
U46 C63 2.882 . S
U46 O64 2.441 . S
U46 O65 2.420 . S
U46 O66 2.455 . S
U46 O67 2.449 . S
O47 U46 2.454 . S
O47 C49 1.353 . S
O48 U46 2.458 . S
O48 C49 1.286 . S
C49 U46 2.984 . S
C49 O47 1.353 . S
C49 O48 1.286 . S
C49 C51 1.363 . S
C50 C40 1.465 . S
C50 U46 2.847 . S
C50 O64 1.249 . S
C50 O65 1.202 . S
C51 C49 1.363 . S
C51 C53 1.408 . S
C51 C56 1.342 . S
C52 C53 1.310 . S
C52 C55 1.461 . S
C52 H72 0.932 . S
C53 C51 1.408 . S
C53 C52 1.310 . S
C53 H73 0.930 . S
C54 C55 1.474 . S
C54 C56 1.285 . S
C54 H74 0.929 . S
C55 C52 1.461 . S
C55 C54 1.474 . S
C56 C51 1.342 . S
C56 C54 1.285 . S
C56 H75 0.930 . S
C57 C60 1.424 . S
C57 C62 1.245 . S
C57 C63 1.428 . S
C58 C61 1.260 . S
C58 C62 1.477 . S
C58 H76 0.910 1_554 S
C59 C60 1.384 . S
C59 C61 1.479 . S
C59 H77 0.929 . S
C60 C57 1.424 . S
C60 C59 1.384 . S
C60 H78 0.928 . S
C61 C58 1.260 . S
C61 C59 1.479 . S
C62 C57 1.245 . S
C62 C58 1.477 . S
C62 H79 0.932 . S
C63 U46 2.882 . S
C63 C57 1.428 . S
C63 O66 1.301 . S
C63 O67 1.282 . S
O64 U46 2.441 . S
O64 C50 1.249 . S
O65 U46 2.420 . S
O65 C50 1.202 . S
O66 U46 2.455 . S
O66 C63 1.301 . S
O67 U46 2.449 . S
O67 C63 1.282 . S
H68 C41 0.931 . S
H69 C43 0.929 . S
H70 C44 0.930 . S
H71 C45 0.931 . S
H72 C52 0.932 . S
H73 C53 0.930 . S
H74 C54 0.929 . S
H75 C56 0.930 . S
H76 C58 0.910 1_556 S
H77 C59 0.929 . S
H78 C60 0.928 . S
H79 C62 0.932 . S
C80 C81 1.264 . S
C80 C85 1.479 . S
C80 C90 1.465 . S
C81 C80 1.264 . S
C81 C83 1.339 . S
C81 H108 0.931 . S
C82 C83 1.395 . S
C82 C84 1.320 . S
C83 C81 1.339 . S
C83 C82 1.395 . S
C83 H109 0.929 . S
C84 C82 1.320 . S
C84 C85 1.405 . S
C84 H110 0.930 . S
C85 C80 1.479 . S
C85 C84 1.405 . S
C85 H111 0.931 . S
U86 O87 2.454 . S
U86 O88 2.458 . S
U86 C89 2.984 . S
U86 C90 2.847 . S
U86 C103 2.882 . S
U86 O104 2.441 . S
U86 O105 2.420 . S
U86 O106 2.455 . S
U86 O107 2.449 . S
O87 U86 2.454 . S
O87 C89 1.353 . S
O88 U86 2.458 . S
O88 C89 1.286 . S
C89 U86 2.984 . S
C89 O87 1.353 . S
C89 O88 1.286 . S
C89 C91 1.363 . S
C90 C80 1.465 . S
C90 U86 2.847 . S
C90 O104 1.249 . S
C90 O105 1.202 . S
C91 C89 1.363 . S
C91 C93 1.408 . S
C91 C96 1.342 . S
C92 C93 1.310 . S
C92 C95 1.461 . S
C92 H112 0.932 . S
C93 C91 1.408 . S
C93 C92 1.310 . S
C93 H113 0.930 . S
C94 C95 1.474 . S
C94 C96 1.285 . S
C94 H114 0.929 . S
C95 C92 1.461 . S
C95 C94 1.474 . S
C96 C91 1.342 . S
C96 C94 1.285 . S
C96 H115 0.930 . S
C97 C100 1.424 . S
C97 C102 1.245 . S
C97 C103 1.428 . S
C98 C101 1.260 . S
C98 C102 1.477 . S
C98 H116 0.910 1_554 S
C99 C100 1.384 . S
C99 C101 1.479 . S
C99 H117 0.929 . S
C100 C97 1.424 . S
C100 C99 1.384 . S
C100 H118 0.928 . S
C101 C98 1.260 . S
C101 C99 1.479 . S
C102 C97 1.245 . S
C102 C98 1.477 . S
C102 H119 0.932 . S
C103 U86 2.882 . S
C103 C97 1.428 . S
C103 O106 1.301 . S
C103 O107 1.282 . S
O104 U86 2.441 . S
O104 C90 1.249 . S
O105 U86 2.420 . S
O105 C90 1.202 . S
O106 U86 2.455 . S
O106 C103 1.301 . S
O107 U86 2.449 . S
O107 C103 1.282 . S
H108 C81 0.931 . S
H109 C83 0.929 . S
H110 C84 0.930 . S
H111 C85 0.931 . S
H112 C92 0.932 . S
H113 C93 0.930 . S
H114 C94 0.929 . S
H115 C96 0.930 . S
H116 C98 0.910 1_556 S
H117 C99 0.929 . S
H118 C100 0.928 . S
H119 C102 0.932 . S
C120 C121 1.264 . S
C120 C125 1.479 . S
C120 C130 1.465 . S
C121 C120 1.264 . S
C121 C123 1.339 . S
C121 H148 0.931 . S
C122 C123 1.395 . S
C122 C124 1.320 . S
C123 C121 1.339 . S
C123 C122 1.395 . S
C123 H149 0.929 . S
C124 C122 1.320 . S
C124 C125 1.405 . S
C124 H150 0.930 . S
C125 C120 1.479 . S
C125 C124 1.405 . S
C125 H151 0.931 . S
U126 O127 2.454 . S
U126 O128 2.458 . S
U126 C129 2.984 . S
U126 C130 2.847 . S
U126 C143 2.882 . S
U126 O144 2.441 . S
U126 O145 2.420 . S
U126 O146 2.455 . S
U126 O147 2.449 . S
O127 U126 2.454 . S
O127 C129 1.353 . S
O128 U126 2.458 . S
O128 C129 1.286 . S
C129 U126 2.984 . S
C129 O127 1.353 . S
C129 O128 1.286 . S
C129 C131 1.363 . S
C130 C120 1.465 . S
C130 U126 2.847 . S
C130 O144 1.249 . S
C130 O145 1.202 . S
C131 C129 1.363 . S
C131 C133 1.408 . S
C131 C136 1.342 . S
C132 C133 1.310 . S
C132 C135 1.461 . S
C132 H152 0.932 . S
C133 C131 1.408 . S
C133 C132 1.310 . S
C133 H153 0.930 . S
C134 C135 1.474 . S
C134 C136 1.285 . S
C134 H154 0.929 . S
C135 C132 1.461 . S
C135 C134 1.474 . S
C136 C131 1.342 . S
C136 C134 1.285 . S
C136 H155 0.930 . S
C137 C140 1.424 . S
C137 C142 1.245 . S
C137 C143 1.428 . S
C138 C141 1.260 . S
C138 C142 1.477 . S
C138 H156 0.910 1_554 S
C139 C140 1.384 . S
C139 C141 1.479 . S
C139 H157 0.929 . S
C140 C137 1.424 . S
C140 C139 1.384 . S
C140 H158 0.928 . S
C141 C138 1.260 . S
C141 C139 1.479 . S
C142 C137 1.245 . S
C142 C138 1.477 . S
C142 H159 0.932 . S
C143 U126 2.882 . S
C143 C137 1.428 . S
C143 O146 1.301 . S
C143 O147 1.282 . S
O144 U126 2.441 . S
O144 C130 1.249 . S
O145 U126 2.420 . S
O145 C130 1.202 . S
O146 U126 2.455 . S
O146 C143 1.301 . S
O147 U126 2.449 . S
O147 C143 1.282 . S
H148 C121 0.931 . S
H149 C123 0.929 . S
H150 C124 0.930 . S
H151 C125 0.931 . S
H152 C132 0.932 . S
H153 C133 0.930 . S
H154 C134 0.929 . S
H155 C136 0.930 . S
H156 C138 0.910 1_556 S
H157 C139 0.929 . S
H158 C140 0.928 . S
H159 C142 0.932 . S
C160 C161 1.264 . S
C160 C165 1.479 . S
C160 C170 1.465 . S
C161 C160 1.264 . S
C161 C163 1.339 . S
C161 H188 0.931 . S
C162 C163 1.395 . S
C162 C164 1.320 . S
C163 C161 1.339 . S
C163 C162 1.395 . S
C163 H189 0.929 . S
C164 C162 1.320 . S
C164 C165 1.405 . S
C164 H190 0.930 . S
C165 C160 1.479 . S
C165 C164 1.405 . S
C165 H191 0.931 . S
U166 O167 2.454 . S
U166 O168 2.458 . S
U166 C169 2.984 . S
U166 C170 2.847 . S
U166 C183 2.882 . S
U166 O184 2.441 . S
U166 O185 2.420 . S
U166 O186 2.455 . S
U166 O187 2.449 . S
O167 U166 2.454 . S
O167 C169 1.353 . S
O168 U166 2.458 . S
O168 C169 1.286 . S
C169 U166 2.984 . S
C169 O167 1.353 . S
C169 O168 1.286 . S
C169 C171 1.363 . S
C170 C160 1.465 . S
C170 U166 2.847 . S
C170 O184 1.249 . S
C170 O185 1.202 . S
C171 C169 1.363 . S
C171 C173 1.408 . S
C171 C176 1.342 . S
C172 C173 1.310 . S
C172 C175 1.461 . S
C172 H192 0.932 . S
C173 C171 1.408 . S
C173 C172 1.310 . S
C173 H193 0.930 . S
C174 C175 1.474 . S
C174 C176 1.285 . S
C174 H194 0.929 . S
C175 C172 1.461 . S
C175 C174 1.474 . S
C176 C171 1.342 . S
C176 C174 1.285 . S
C176 H195 0.930 . S
C177 C180 1.424 . S
C177 C182 1.245 . S
C177 C183 1.428 . S
C178 C181 1.260 . S
C178 C182 1.477 . S
C178 H196 0.910 1_556 S
C179 C180 1.384 . S
C179 C181 1.479 . S
C179 H197 0.929 . S
C180 C177 1.424 . S
C180 C179 1.384 . S
C180 H198 0.928 . S
C181 C178 1.260 . S
C181 C179 1.479 . S
C182 C177 1.245 . S
C182 C178 1.477 . S
C182 H199 0.932 . S
C183 U166 2.882 . S
C183 C177 1.428 . S
C183 O186 1.301 . S
C183 O187 1.282 . S
O184 U166 2.441 . S
O184 C170 1.249 . S
O185 U166 2.420 . S
O185 C170 1.202 . S
O186 U166 2.455 . S
O186 C183 1.301 . S
O187 U166 2.449 . S
O187 C183 1.282 . S
H188 C161 0.931 . S
H189 C163 0.929 . S
H190 C164 0.930 . S
H191 C165 0.931 . S
H192 C172 0.932 . S
H193 C173 0.930 . S
H194 C174 0.929 . S
H195 C176 0.930 . S
H196 C178 0.910 1_554 S
H197 C179 0.929 . S
H198 C180 0.928 . S
H199 C182 0.932 . S
C200 C201 1.264 . S
C200 C205 1.479 . S
C200 C210 1.465 . S
C201 C200 1.264 . S
C201 C203 1.339 . S
C201 H228 0.931 . S
C202 C203 1.395 . S
C202 C204 1.320 . S
C203 C201 1.339 . S
C203 C202 1.395 . S
C203 H229 0.929 . S
C204 C202 1.320 . S
C204 C205 1.405 . S
C204 H230 0.930 . S
C205 C200 1.479 . S
C205 C204 1.405 . S
C205 H231 0.931 . S
U206 O207 2.454 . S
U206 O208 2.458 . S
U206 C209 2.984 . S
U206 C210 2.847 . S
U206 C223 2.882 . S
U206 O224 2.441 . S
U206 O225 2.420 . S
U206 O226 2.455 . S
U206 O227 2.449 . S
O207 U206 2.454 . S
O207 C209 1.353 . S
O208 U206 2.458 . S
O208 C209 1.286 . S
C209 U206 2.984 . S
C209 O207 1.353 . S
C209 O208 1.286 . S
C209 C211 1.363 . S
C210 C200 1.465 . S
C210 U206 2.847 . S
C210 O224 1.249 . S
C210 O225 1.202 . S
C211 C209 1.363 . S
C211 C213 1.408 . S
C211 C216 1.342 . S
C212 C213 1.310 . S
C212 C215 1.461 . S
C212 H232 0.932 . S
C213 C211 1.408 . S
C213 C212 1.310 . S
C213 H233 0.930 . S
C214 C215 1.474 . S
C214 C216 1.285 . S
C214 H234 0.929 . S
C215 C212 1.461 . S
C215 C214 1.474 . S
C216 C211 1.342 . S
C216 C214 1.285 . S
C216 H235 0.930 . S
C217 C220 1.424 . S
C217 C222 1.245 . S
C217 C223 1.428 . S
C218 C221 1.260 . S
C218 C222 1.477 . S
C218 H236 0.910 1_556 S
C219 C220 1.384 . S
C219 C221 1.479 . S
C219 H237 0.929 . S
C220 C217 1.424 . S
C220 C219 1.384 . S
C220 H238 0.928 . S
C221 C218 1.260 . S
C221 C219 1.479 . S
C222 C217 1.245 . S
C222 C218 1.477 . S
C222 H239 0.932 . S
C223 U206 2.882 . S
C223 C217 1.428 . S
C223 O226 1.301 . S
C223 O227 1.282 . S
O224 U206 2.441 . S
O224 C210 1.249 . S
O225 U206 2.420 . S
O225 C210 1.202 . S
O226 U206 2.455 . S
O226 C223 1.301 . S
O227 U206 2.449 . S
O227 C223 1.282 . S
H228 C201 0.931 . S
H229 C203 0.929 . S
H230 C204 0.930 . S
H231 C205 0.931 . S
H232 C212 0.932 . S
H233 C213 0.930 . S
H234 C214 0.929 . S
H235 C216 0.930 . S
H236 C218 0.910 1_554 S
H237 C219 0.929 . S
H238 C220 0.928 . S
H239 C222 0.932 . S
C240 C241 1.264 . S
C240 C245 1.479 . S
C240 C250 1.465 . S
C241 C240 1.264 . S
C241 C243 1.339 . S
C241 H268 0.931 . S
C242 C243 1.395 . S
C242 C244 1.320 . S
C243 C241 1.339 . S
C243 C242 1.395 . S
C243 H269 0.929 . S
C244 C242 1.320 . S
C244 C245 1.405 . S
C244 H270 0.930 . S
C245 C240 1.479 . S
C245 C244 1.405 . S
C245 H271 0.931 . S
U246 O247 2.454 . S
U246 O248 2.458 . S
U246 C249 2.984 . S
U246 C250 2.847 . S
U246 C263 2.882 . S
U246 O264 2.441 . S
U246 O265 2.420 . S
U246 O266 2.455 . S
U246 O267 2.449 . S
O247 U246 2.454 . S
O247 C249 1.353 . S
O248 U246 2.458 . S
O248 C249 1.286 . S
C249 U246 2.984 . S
C249 O247 1.353 . S
C249 O248 1.286 . S
C249 C251 1.363 . S
C250 C240 1.465 . S
C250 U246 2.847 . S
C250 O264 1.249 . S
C250 O265 1.202 . S
C251 C249 1.363 . S
C251 C253 1.408 . S
C251 C256 1.342 . S
C252 C253 1.310 . S
C252 C255 1.461 . S
C252 H272 0.932 . S
C253 C251 1.408 . S
C253 C252 1.310 . S
C253 H273 0.930 . S
C254 C255 1.474 . S
C254 C256 1.285 . S
C254 H274 0.929 . S
C255 C252 1.461 . S
C255 C254 1.474 . S
C256 C251 1.342 . S
C256 C254 1.285 . S
C256 H275 0.930 . S
C257 C260 1.424 . S
C257 C262 1.245 . S
C257 C263 1.428 . S
C258 C261 1.260 . S
C258 C262 1.477 . S
C258 H276 0.910 1_556 S
C259 C260 1.384 . S
C259 C261 1.479 . S
C259 H277 0.929 . S
C260 C257 1.424 . S
C260 C259 1.384 . S
C260 H278 0.928 . S
C261 C258 1.260 . S
C261 C259 1.479 . S
C262 C257 1.245 . S
C262 C258 1.477 . S
C262 H279 0.932 . S
C263 U246 2.882 . S
C263 C257 1.428 . S
C263 O266 1.301 . S
C263 O267 1.282 . S
O264 U246 2.441 . S
O264 C250 1.249 . S
O265 U246 2.420 . S
O265 C250 1.202 . S
O266 U246 2.455 . S
O266 C263 1.301 . S
O267 U246 2.449 . S
O267 C263 1.282 . S
H268 C241 0.931 . S
H269 C243 0.929 . S
H270 C244 0.930 . S
H271 C245 0.931 . S
H272 C252 0.932 . S
H273 C253 0.930 . S
H274 C254 0.929 . S
H275 C256 0.930 . S
H276 C258 0.910 1_554 S
H277 C259 0.929 . S
H278 C260 0.928 . S
H279 C262 0.932 . S
C280 C281 1.264 . S
C280 C285 1.479 . S
C280 C290 1.465 . S
C281 C280 1.264 . S
C281 C283 1.339 . S
C281 H308 0.931 . S
C282 C283 1.395 . S
C282 C284 1.320 . S
C283 C281 1.339 . S
C283 C282 1.395 . S
C283 H309 0.929 . S
C284 C282 1.320 . S
C284 C285 1.405 . S
C284 H310 0.930 . S
C285 C280 1.479 . S
C285 C284 1.405 . S
C285 H311 0.931 . S
U286 O287 2.454 . S
U286 O288 2.458 . S
U286 C289 2.984 . S
U286 C290 2.847 . S
U286 C303 2.882 . S
U286 O304 2.441 . S
U286 O305 2.420 . S
U286 O306 2.455 . S
U286 O307 2.449 . S
O287 U286 2.454 . S
O287 C289 1.353 . S
O288 U286 2.458 . S
O288 C289 1.286 . S
C289 U286 2.984 . S
C289 O287 1.353 . S
C289 O288 1.286 . S
C289 C291 1.363 . S
C290 C280 1.465 . S
C290 U286 2.847 . S
C290 O304 1.249 . S
C290 O305 1.202 . S
C291 C289 1.363 . S
C291 C293 1.408 . S
C291 C296 1.342 . S
C292 C293 1.310 . S
C292 C295 1.461 . S
C292 H312 0.932 . S
C293 C291 1.408 . S
C293 C292 1.310 . S
C293 H313 0.930 . S
C294 C295 1.474 . S
C294 C296 1.285 . S
C294 H314 0.929 . S
C295 C292 1.461 . S
C295 C294 1.474 . S
C296 C291 1.342 . S
C296 C294 1.285 . S
C296 H315 0.930 . S
C297 C300 1.424 . S
C297 C302 1.245 . S
C297 C303 1.428 . S
C298 C301 1.260 . S
C298 C302 1.477 . S
C298 H316 0.910 1_556 S
C299 C300 1.384 . S
C299 C301 1.479 . S
C299 H317 0.929 . S
C300 C297 1.424 . S
C300 C299 1.384 . S
C300 H318 0.928 . S
C301 C298 1.260 . S
C301 C299 1.479 . S
C302 C297 1.245 . S
C302 C298 1.477 . S
C302 H319 0.932 . S
C303 U286 2.882 . S
C303 C297 1.428 . S
C303 O306 1.301 . S
C303 O307 1.282 . S
O304 U286 2.441 . S
O304 C290 1.249 . S
O305 U286 2.420 . S
O305 C290 1.202 . S
O306 U286 2.455 . S
O306 C303 1.301 . S
O307 U286 2.449 . S
O307 C303 1.282 . S
H308 C281 0.931 . S
H309 C283 0.929 . S
H310 C284 0.930 . S
H311 C285 0.931 . S
H312 C292 0.932 . S
H313 C293 0.930 . S
H314 C294 0.929 . S
H315 C296 0.930 . S
H316 C298 0.910 1_554 S
H317 C299 0.929 . S
H318 C300 0.928 . S
H319 C302 0.932 . S
C320 C321 1.264 . S
C320 C325 1.479 . S
C320 C330 1.465 . S
C321 C320 1.264 . S
C321 C323 1.339 . S
C321 H348 0.931 . S
C322 C323 1.395 . S
C322 C324 1.320 . S
C323 C321 1.339 . S
C323 C322 1.395 . S
C323 H349 0.929 . S
C324 C322 1.320 . S
C324 C325 1.405 . S
C324 H350 0.930 . S
C325 C320 1.479 . S
C325 C324 1.405 . S
C325 H351 0.931 . S
U326 O327 2.454 . S
U326 O328 2.458 . S
U326 C329 2.984 . S
U326 C330 2.847 . S
U326 C343 2.882 . S
U326 O344 2.441 . S
U326 O345 2.420 . S
U326 O346 2.455 . S
U326 O347 2.449 . S
O327 U326 2.454 . S
O327 C329 1.353 . S
O328 U326 2.458 . S
O328 C329 1.286 . S
C329 U326 2.984 . S
C329 O327 1.353 . S
C329 O328 1.286 . S
C329 C331 1.363 . S
C330 C320 1.465 . S
C330 U326 2.847 . S
C330 O344 1.249 . S
C330 O345 1.202 . S
C331 C329 1.363 . S
C331 C333 1.408 . S
C331 C336 1.342 . S
C332 C333 1.310 . S
C332 C335 1.461 . S
C332 H352 0.932 . S
C333 C331 1.408 . S
C333 C332 1.310 . S
C333 H353 0.930 . S
C334 C335 1.474 . S
C334 C336 1.285 . S
C334 H354 0.929 . S
C335 C332 1.461 . S
C335 C334 1.474 . S
C336 C331 1.342 . S
C336 C334 1.285 . S
C336 H355 0.930 . S
C337 C340 1.424 . S
C337 C342 1.245 . S
C337 C343 1.428 . S
C338 C341 1.260 . S
C338 C342 1.477 . S
C338 H356 0.932 . S
C339 C340 1.384 . S
C339 C341 1.479 . S
C339 H357 0.929 . S
C340 C337 1.424 . S
C340 C339 1.384 . S
C340 H358 0.928 . S
C341 C338 1.260 . S
C341 C339 1.479 . S
C342 C337 1.245 . S
C342 C338 1.477 . S
C342 H359 0.932 . S
C343 U326 2.882 . S
C343 C337 1.428 . S
C343 O346 1.301 . S
C343 O347 1.282 . S
O344 U326 2.441 . S
O344 C330 1.249 . S
O345 U326 2.420 . S
O345 C330 1.202 . S
O346 U326 2.455 . S
O346 C343 1.301 . S
O347 U326 2.449 . S
O347 C343 1.282 . S
H348 C321 0.931 . S
H349 C323 0.929 . S
H350 C324 0.930 . S
H351 C325 0.931 . S
H352 C332 0.932 . S
H353 C333 0.930 . S
H354 C334 0.929 . S
H355 C336 0.930 . S
H356 C338 0.932 . S
H357 C339 0.929 . S
H358 C340 0.928 . S
H359 C342 0.932 . S
C360 C361 1.264 . S
C360 C365 1.479 . S
C360 C370 1.465 . S
C361 C360 1.264 . S
C361 C363 1.339 . S
C361 H388 0.931 . S
C362 C363 1.395 . S
C362 C364 1.320 . S
C363 C361 1.339 . S
C363 C362 1.395 . S
C363 H389 0.929 . S
C364 C362 1.320 . S
C364 C365 1.405 . S
C364 H390 0.930 . S
C365 C360 1.479 . S
C365 C364 1.405 . S
C365 H391 0.931 . S
U366 O367 2.454 . S
U366 O368 2.458 . S
U366 C369 2.984 . S
U366 C370 2.847 . S
U366 C383 2.882 . S
U366 O384 2.441 . S
U366 O385 2.420 . S
U366 O386 2.455 . S
U366 O387 2.449 . S
O367 U366 2.454 . S
O367 C369 1.353 . S
O368 U366 2.458 . S
O368 C369 1.286 . S
C369 U366 2.984 . S
C369 O367 1.353 . S
C369 O368 1.286 . S
C369 C371 1.363 . S
C370 C360 1.465 . S
C370 U366 2.847 . S
C370 O384 1.249 . S
C370 O385 1.202 . S
C371 C369 1.363 . S
C371 C373 1.408 . S
C371 C376 1.342 . S
C372 C373 1.310 . S
C372 C375 1.461 . S
C372 H392 0.932 . S
C373 C371 1.408 . S
C373 C372 1.310 . S
C373 H393 0.930 . S
C374 C375 1.474 . S
C374 C376 1.285 . S
C374 H394 0.929 . S
C375 C372 1.461 . S
C375 C374 1.474 . S
C376 C371 1.342 . S
C376 C374 1.285 . S
C376 H395 0.930 . S
C377 C380 1.424 . S
C377 C382 1.245 . S
C377 C383 1.428 . S
C378 C381 1.260 . S
C378 C382 1.477 . S
C378 H396 0.932 . S
C379 C380 1.384 . S
C379 C381 1.479 . S
C379 H397 0.929 . S
C380 C377 1.424 . S
C380 C379 1.384 . S
C380 H398 0.928 . S
C381 C378 1.260 . S
C381 C379 1.479 . S
C382 C377 1.245 . S
C382 C378 1.477 . S
C382 H399 0.932 . S
C383 U366 2.882 . S
C383 C377 1.428 . S
C383 O386 1.301 . S
C383 O387 1.282 . S
O384 U366 2.441 . S
O384 C370 1.249 . S
O385 U366 2.420 . S
O385 C370 1.202 . S
O386 U366 2.455 . S
O386 C383 1.301 . S
O387 U366 2.449 . S
O387 C383 1.282 . S
H388 C361 0.931 . S
H389 C363 0.929 . S
H390 C364 0.930 . S
H391 C365 0.931 . S
H392 C372 0.932 . S
H393 C373 0.930 . S
H394 C374 0.929 . S
H395 C376 0.930 . S
H396 C378 0.932 . S
H397 C379 0.929 . S
H398 C380 0.928 . S
H399 C382 0.932 . S
C400 C401 1.264 . S
C400 C405 1.479 . S
C400 C410 1.465 . S
C401 C400 1.264 . S
C401 C403 1.339 . S
C401 H428 0.931 . S
C402 C403 1.395 . S
C402 C404 1.320 . S
C403 C401 1.339 . S
C403 C402 1.395 . S
C403 H429 0.929 . S
C404 C402 1.320 . S
C404 C405 1.405 . S
C404 H430 0.930 . S
C405 C400 1.479 . S
C405 C404 1.405 . S
C405 H431 0.931 . S
U406 O407 2.454 . S
U406 O408 2.458 . S
U406 C409 2.984 . S
U406 C410 2.847 . S
U406 C423 2.882 . S
U406 O424 2.441 . S
U406 O425 2.420 . S
U406 O426 2.455 . S
U406 O427 2.449 . S
O407 U406 2.454 . S
O407 C409 1.353 . S
O408 U406 2.458 . S
O408 C409 1.286 . S
C409 U406 2.984 . S
C409 O407 1.353 . S
C409 O408 1.286 . S
C409 C411 1.363 . S
C410 C400 1.465 . S
C410 U406 2.847 . S
C410 O424 1.249 . S
C410 O425 1.202 . S
C411 C409 1.363 . S
C411 C413 1.408 . S
C411 C416 1.342 . S
C412 C413 1.310 . S
C412 C415 1.461 . S
C412 H432 0.932 . S
C413 C411 1.408 . S
C413 C412 1.310 . S
C413 H433 0.930 . S
C414 C415 1.474 . S
C414 C416 1.285 . S
C414 H434 0.929 . S
C415 C412 1.461 . S
C415 C414 1.474 . S
C416 C411 1.342 . S
C416 C414 1.285 . S
C416 H435 0.930 . S
C417 C420 1.424 . S
C417 C422 1.245 . S
C417 C423 1.428 . S
C418 C421 1.260 . S
C418 C422 1.477 . S
C418 H436 0.932 . S
C419 C420 1.384 . S
C419 C421 1.479 . S
C419 H437 0.929 . S
C420 C417 1.424 . S
C420 C419 1.384 . S
C420 H438 0.928 . S
C421 C418 1.260 . S
C421 C419 1.479 . S
C422 C417 1.245 . S
C422 C418 1.477 . S
C422 H439 0.932 . S
C423 U406 2.882 . S
C423 C417 1.428 . S
C423 O426 1.301 . S
C423 O427 1.282 . S
O424 U406 2.441 . S
O424 C410 1.249 . S
O425 U406 2.420 . S
O425 C410 1.202 . S
O426 U406 2.455 . S
O426 C423 1.301 . S
O427 U406 2.449 . S
O427 C423 1.282 . S
H428 C401 0.931 . S
H429 C403 0.929 . S
H430 C404 0.930 . S
H431 C405 0.931 . S
H432 C412 0.932 . S
H433 C413 0.930 . S
H434 C414 0.929 . S
H435 C416 0.930 . S
H436 C418 0.932 . S
H437 C419 0.929 . S
H438 C420 0.928 . S
H439 C422 0.932 . S
C440 C441 1.264 . S
C440 C445 1.479 . S
C440 C450 1.465 . S
C441 C440 1.264 . S
C441 C443 1.339 . S
C441 H468 0.931 . S
C442 C443 1.395 . S
C442 C444 1.320 . S
C443 C441 1.339 . S
C443 C442 1.395 . S
C443 H469 0.929 . S
C444 C442 1.320 . S
C444 C445 1.405 . S
C444 H470 0.930 . S
C445 C440 1.479 . S
C445 C444 1.405 . S
C445 H471 0.931 . S
U446 O447 2.454 . S
U446 O448 2.458 . S
U446 C449 2.984 . S
U446 C450 2.847 . S
U446 C463 2.882 . S
U446 O464 2.441 . S
U446 O465 2.420 . S
U446 O466 2.455 . S
U446 O467 2.449 . S
O447 U446 2.454 . S
O447 C449 1.353 . S
O448 U446 2.458 . S
O448 C449 1.286 . S
C449 U446 2.984 . S
C449 O447 1.353 . S
C449 O448 1.286 . S
C449 C451 1.363 . S
C450 C440 1.465 . S
C450 U446 2.847 . S
C450 O464 1.249 . S
C450 O465 1.202 . S
C451 C449 1.363 . S
C451 C453 1.408 . S
C451 C456 1.342 . S
C452 C453 1.310 . S
C452 C455 1.461 . S
C452 H472 0.932 . S
C453 C451 1.408 . S
C453 C452 1.310 . S
C453 H473 0.930 . S
C454 C455 1.474 . S
C454 C456 1.285 . S
C454 H474 0.929 . S
C455 C452 1.461 . S
C455 C454 1.474 . S
C456 C451 1.342 . S
C456 C454 1.285 . S
C456 H475 0.930 . S
C457 C460 1.424 . S
C457 C462 1.245 . S
C457 C463 1.428 . S
C458 C461 1.260 . S
C458 C462 1.477 . S
C458 H476 0.932 . S
C459 C460 1.384 . S
C459 C461 1.479 . S
C459 H477 0.929 . S
C460 C457 1.424 . S
C460 C459 1.384 . S
C460 H478 0.928 . S
C461 C458 1.260 . S
C461 C459 1.479 . S
C462 C457 1.245 . S
C462 C458 1.477 . S
C462 H479 0.932 . S
C463 U446 2.882 . S
C463 C457 1.428 . S
C463 O466 1.301 . S
C463 O467 1.282 . S
O464 U446 2.441 . S
O464 C450 1.249 . S
O465 U446 2.420 . S
O465 C450 1.202 . S
O466 U446 2.455 . S
O466 C463 1.301 . S
O467 U446 2.449 . S
O467 C463 1.282 . S
H468 C441 0.931 . S
H469 C443 0.929 . S
H470 C444 0.930 . S
H471 C445 0.931 . S
H472 C452 0.932 . S
H473 C453 0.930 . S
H474 C454 0.929 . S
H475 C456 0.930 . S
H476 C458 0.932 . S
H477 C459 0.929 . S
H478 C460 0.928 . S
H479 C462 0.932 . S
C480 C481 1.264 . S
C480 C485 1.479 . S
C480 C490 1.465 . S
C481 C480 1.264 . S
C481 C483 1.339 . S
C481 H508 0.931 . S
C482 C483 1.395 . S
C482 C484 1.320 . S
C483 C481 1.339 . S
C483 C482 1.395 . S
C483 H509 0.929 . S
C484 C482 1.320 . S
C484 C485 1.405 . S
C484 H510 0.930 . S
C485 C480 1.479 . S
C485 C484 1.405 . S
C485 H511 0.931 . S
U486 O487 2.454 . S
U486 O488 2.458 . S
U486 C489 2.984 . S
U486 C490 2.847 . S
U486 C503 2.882 . S
U486 O504 2.441 . S
U486 O505 2.420 . S
U486 O506 2.455 . S
U486 O507 2.449 . S
O487 U486 2.454 . S
O487 C489 1.353 . S
O488 U486 2.458 . S
O488 C489 1.286 . S
C489 U486 2.984 . S
C489 O487 1.353 . S
C489 O488 1.286 . S
C489 C491 1.363 . S
C490 C480 1.465 . S
C490 U486 2.847 . S
C490 O504 1.249 . S
C490 O505 1.202 . S
C491 C489 1.363 . S
C491 C493 1.408 . S
C491 C496 1.342 . S
C492 C493 1.310 . S
C492 C495 1.461 . S
C492 H512 0.932 . S
C493 C491 1.408 . S
C493 C492 1.310 . S
C493 H513 0.930 . S
C494 C495 1.474 . S
C494 C496 1.285 . S
C494 H514 0.929 . S
C495 C492 1.461 . S
C495 C494 1.474 . S
C496 C491 1.342 . S
C496 C494 1.285 . S
C496 H515 0.930 . S
C497 C500 1.424 . S
C497 C502 1.245 . S
C497 C503 1.428 . S
C498 C501 1.260 . S
C498 C502 1.477 . S
C498 H516 0.932 . S
C499 C500 1.384 . S
C499 C501 1.479 . S
C499 H517 0.929 . S
C500 C497 1.424 . S
C500 C499 1.384 . S
C500 H518 0.928 . S
C501 C498 1.260 . S
C501 C499 1.479 . S
C502 C497 1.245 . S
C502 C498 1.477 . S
C502 H519 0.932 . S
C503 U486 2.882 . S
C503 C497 1.428 . S
C503 O506 1.301 . S
C503 O507 1.282 . S
O504 U486 2.441 . S
O504 C490 1.249 . S
O505 U486 2.420 . S
O505 C490 1.202 . S
O506 U486 2.455 . S
O506 C503 1.301 . S
O507 U486 2.449 . S
O507 C503 1.282 . S
H508 C481 0.931 . S
H509 C483 0.929 . S
H510 C484 0.930 . S
H511 C485 0.931 . S
H512 C492 0.932 . S
H513 C493 0.930 . S
H514 C494 0.929 . S
H515 C496 0.930 . S
H516 C498 0.932 . S
H517 C499 0.929 . S
H518 C500 0.928 . S
H519 C502 0.932 . S
C520 C521 1.264 . S
C520 C525 1.479 . S
C520 C530 1.465 . S
C521 C520 1.264 . S
C521 C523 1.339 . S
C521 H548 0.931 . S
C522 C523 1.395 . S
C522 C524 1.320 . S
C523 C521 1.339 . S
C523 C522 1.395 . S
C523 H549 0.929 . S
C524 C522 1.320 . S
C524 C525 1.405 . S
C524 H550 0.930 . S
C525 C520 1.479 . S
C525 C524 1.405 . S
C525 H551 0.931 . S
U526 O527 2.454 . S
U526 O528 2.458 . S
U526 C529 2.984 . S
U526 C530 2.847 . S
U526 C543 2.882 . S
U526 O544 2.441 . S
U526 O545 2.420 . S
U526 O546 2.455 . S
U526 O547 2.449 . S
O527 U526 2.454 . S
O527 C529 1.353 . S
O528 U526 2.458 . S
O528 C529 1.286 . S
C529 U526 2.984 . S
C529 O527 1.353 . S
C529 O528 1.286 . S
C529 C531 1.363 . S
C530 C520 1.465 . S
C530 U526 2.847 . S
C530 O544 1.249 . S
C530 O545 1.202 . S
C531 C529 1.363 . S
C531 C533 1.408 . S
C531 C536 1.342 . S
C532 C533 1.310 . S
C532 C535 1.461 . S
C532 H552 0.932 . S
C533 C531 1.408 . S
C533 C532 1.310 . S
C533 H553 0.930 . S
C534 C535 1.474 . S
C534 C536 1.285 . S
C534 H554 0.929 . S
C535 C532 1.461 . S
C535 C534 1.474 . S
C536 C531 1.342 . S
C536 C534 1.285 . S
C536 H555 0.930 . S
C537 C540 1.424 . S
C537 C542 1.245 . S
C537 C543 1.428 . S
C538 C541 1.260 . S
C538 C542 1.477 . S
C538 H556 0.932 . S
C539 C540 1.384 . S
C539 C541 1.479 . S
C539 H557 0.929 . S
C540 C537 1.424 . S
C540 C539 1.384 . S
C540 H558 0.928 . S
C541 C538 1.260 . S
C541 C539 1.479 . S
C542 C537 1.245 . S
C542 C538 1.477 . S
C542 H559 0.932 . S
C543 U526 2.882 . S
C543 C537 1.428 . S
C543 O546 1.301 . S
C543 O547 1.282 . S
O544 U526 2.441 . S
O544 C530 1.249 . S
O545 U526 2.420 . S
O545 C530 1.202 . S
O546 U526 2.455 . S
O546 C543 1.301 . S
O547 U526 2.449 . S
O547 C543 1.282 . S
H548 C521 0.931 . S
H549 C523 0.929 . S
H550 C524 0.930 . S
H551 C525 0.931 . S
H552 C532 0.932 . S
H553 C533 0.930 . S
H554 C534 0.929 . S
H555 C536 0.930 . S
H556 C538 0.932 . S
H557 C539 0.929 . S
H558 C540 0.928 . S
H559 C542 0.932 . S
C560 C561 1.264 . S
C560 C565 1.479 . S
C560 C570 1.465 . S
C561 C560 1.264 . S
C561 C563 1.339 . S
C561 H588 0.931 . S
C562 C563 1.395 . S
C562 C564 1.320 . S
C563 C561 1.339 . S
C563 C562 1.395 . S
C563 H589 0.929 . S
C564 C562 1.320 . S
C564 C565 1.405 . S
C564 H590 0.930 . S
C565 C560 1.479 . S
C565 C564 1.405 . S
C565 H591 0.931 . S
U566 O567 2.454 . S
U566 O568 2.458 . S
U566 C569 2.984 . S
U566 C570 2.847 . S
U566 C583 2.882 . S
U566 O584 2.441 . S
U566 O585 2.420 . S
U566 O586 2.455 . S
U566 O587 2.449 . S
O567 U566 2.454 . S
O567 C569 1.353 . S
O568 U566 2.458 . S
O568 C569 1.286 . S
C569 U566 2.984 . S
C569 O567 1.353 . S
C569 O568 1.286 . S
C569 C571 1.363 . S
C570 C560 1.465 . S
C570 U566 2.847 . S
C570 O584 1.249 . S
C570 O585 1.202 . S
C571 C569 1.363 . S
C571 C573 1.408 . S
C571 C576 1.342 . S
C572 C573 1.310 . S
C572 C575 1.461 . S
C572 H592 0.932 . S
C573 C571 1.408 . S
C573 C572 1.310 . S
C573 H593 0.930 . S
C574 C575 1.474 . S
C574 C576 1.285 . S
C574 H594 0.929 . S
C575 C572 1.461 . S
C575 C574 1.474 . S
C576 C571 1.342 . S
C576 C574 1.285 . S
C576 H595 0.930 . S
C577 C580 1.424 . S
C577 C582 1.245 . S
C577 C583 1.428 . S
C578 C581 1.260 . S
C578 C582 1.477 . S
C578 H596 0.932 . S
C579 C580 1.384 . S
C579 C581 1.479 . S
C579 H597 0.929 . S
C580 C577 1.424 . S
C580 C579 1.384 . S
C580 H598 0.928 . S
C581 C578 1.260 . S
C581 C579 1.479 . S
C582 C577 1.245 . S
C582 C578 1.477 . S
C582 H599 0.932 . S
C583 U566 2.882 . S
C583 C577 1.428 . S
C583 O586 1.301 . S
C583 O587 1.282 . S
O584 U566 2.441 . S
O584 C570 1.249 . S
O585 U566 2.420 . S
O585 C570 1.202 . S
O586 U566 2.455 . S
O586 C583 1.301 . S
O587 U566 2.449 . S
O587 C583 1.282 . S
H588 C561 0.931 . S
H589 C563 0.929 . S
H590 C564 0.930 . S
H591 C565 0.931 . S
H592 C572 0.932 . S
H593 C573 0.930 . S
H594 C574 0.929 . S
H595 C576 0.930 . S
H596 C578 0.932 . S
H597 C579 0.929 . S
H598 C580 0.928 . S
H599 C582 0.932 . S
C600 C601 1.264 . S
C600 C605 1.479 . S
C600 C610 1.465 . S
C601 C600 1.264 . S
C601 C603 1.339 . S
C601 H628 0.931 . S
C602 C603 1.395 . S
C602 C604 1.320 . S
C603 C601 1.339 . S
C603 C602 1.395 . S
C603 H629 0.929 . S
C604 C602 1.320 . S
C604 C605 1.405 . S
C604 H630 0.930 . S
C605 C600 1.479 . S
C605 C604 1.405 . S
C605 H631 0.931 . S
U606 O607 2.454 . S
U606 O608 2.458 . S
U606 C609 2.984 . S
U606 C610 2.847 . S
U606 C623 2.882 . S
U606 O624 2.441 . S
U606 O625 2.420 . S
U606 O626 2.455 . S
U606 O627 2.449 . S
O607 U606 2.454 . S
O607 C609 1.353 . S
O608 U606 2.458 . S
O608 C609 1.286 . S
C609 U606 2.984 . S
C609 O607 1.353 . S
C609 O608 1.286 . S
C609 C611 1.363 . S
C610 C600 1.465 . S
C610 U606 2.847 . S
C610 O624 1.249 . S
C610 O625 1.202 . S
C611 C609 1.363 . S
C611 C613 1.408 . S
C611 C616 1.342 . S
C612 C613 1.310 . S
C612 C615 1.461 . S
C612 H632 0.932 . S
C613 C611 1.408 . S
C613 C612 1.310 . S
C613 H633 0.930 . S
C614 C615 1.474 . S
C614 C616 1.285 . S
C614 H634 0.929 . S
C615 C612 1.461 . S
C615 C614 1.474 . S
C616 C611 1.342 . S
C616 C614 1.285 . S
C616 H635 0.930 . S
C617 C620 1.424 . S
C617 C622 1.245 . S
C617 C623 1.428 . S
C618 C621 1.260 . S
C618 C622 1.477 . S
C618 H636 0.932 . S
C619 C620 1.384 . S
C619 C621 1.479 . S
C619 H637 0.929 . S
C620 C617 1.424 . S
C620 C619 1.384 . S
C620 H638 0.928 . S
C621 C618 1.260 . S
C621 C619 1.479 . S
C622 C617 1.245 . S
C622 C618 1.477 . S
C622 H639 0.932 . S
C623 U606 2.882 . S
C623 C617 1.428 . S
C623 O626 1.301 . S
C623 O627 1.282 . S
O624 U606 2.441 . S
O624 C610 1.249 . S
O625 U606 2.420 . S
O625 C610 1.202 . S
O626 U606 2.455 . S
O626 C623 1.301 . S
O627 U606 2.449 . S
O627 C623 1.282 . S
H628 C601 0.931 . S
H629 C603 0.929 . S
H630 C604 0.930 . S
H631 C605 0.931 . S
H632 C612 0.932 . S
H633 C613 0.930 . S
H634 C614 0.929 . S
H635 C616 0.930 . S
H636 C618 0.932 . S
H637 C619 0.929 . S
H638 C620 0.928 . S
H639 C622 0.932 . S
H640 C646 0.930 . S
H641 C650 0.930 . S
H642 C655 0.929 . S
H643 C653 0.929 . S
H644 C648 0.929 . S
H645 C654 0.929 . S
C646 H640 0.930 . S
C646 C647 1.367 . S
C646 C654 1.378 . S
C647 C646 1.367 . S
C647 C655 1.433 1_556 S
C648 H644 0.929 . S
C648 C650 1.378 . S
C648 C652 1.350 . S
C649 C652 1.463 1_566 S
C649 C654 1.350 . S
C649 N657 1.427 1_556 S
C650 H641 0.930 . S
C650 C648 1.378 . S
C650 C651 1.367 . S
C651 C650 1.367 . S
C651 C653 1.433 1_554 S
C652 C648 1.350 . S
C652 C649 1.463 1_544 S
C652 N656 1.427 1_554 S
C653 H643 0.929 . S
C653 C651 1.433 1_556 S
C653 N656 1.384 . S
C654 H645 0.929 . S
C654 C646 1.378 . S
C654 C649 1.350 . S
C655 H642 0.929 . S
C655 C647 1.433 1_554 S
C655 N657 1.384 . S
N656 C652 1.427 1_556 S
N656 C653 1.384 . S
N657 C649 1.427 1_554 S
N657 C655 1.384 . S
H658 C664 0.943 . S
H659 C668 0.943 . S
H660 C673 0.929 . S
H661 C671 0.929 . S
H662 C666 0.929 . S
H663 C672 0.929 . S
C664 H658 0.943 . S
C664 C665 1.347 1_556 S
C664 C672 1.386 . S
C665 C664 1.347 1_554 S
C665 C673 1.433 . S
C666 H662 0.929 . S
C666 C668 1.386 . S
C666 C670 1.350 1_554 S
C667 C670 1.463 1_654 S
C667 C672 1.350 1_554 S
C667 N675 1.427 . S
C668 H659 0.943 . S
C668 C666 1.386 . S
C668 C669 1.347 1_554 S
C669 C668 1.347 1_556 S
C669 C671 1.433 . S
C670 C666 1.350 1_556 S
C670 C667 1.463 1_456 S
C670 N674 1.427 . S
C671 H661 0.929 . S
C671 C669 1.433 . S
C671 N674 1.384 . S
C672 H663 0.929 . S
C672 C664 1.386 . S
C672 C667 1.350 1_556 S
C673 H660 0.929 . S
C673 C665 1.433 . S
C673 N675 1.384 . S
N674 C670 1.427 . S
N674 C671 1.384 . S
N675 C667 1.427 . S
N675 C673 1.384 . S
H676 C682 0.930 . S
H677 C686 0.930 . S
H678 C691 0.929 . S
H679 C689 0.929 . S
H680 C684 0.929 . S
H681 C690 0.929 . S
C682 H676 0.930 . S
C682 C683 1.367 1_554 S
C682 C690 1.378 . S
C683 C682 1.367 1_556 S
C683 C691 1.433 . S
C684 H680 0.929 . S
C684 C686 1.378 . S
C684 C688 1.350 1_556 S
C685 C688 1.463 1_546 S
C685 C690 1.350 1_556 S
C685 N693 1.427 . S
C686 H677 0.930 . S
C686 C684 1.378 . S
C686 C687 1.367 1_556 S
C687 C686 1.367 1_554 S
C687 C689 1.433 . S
C688 C684 1.350 1_554 S
C688 C685 1.463 1_564 S
C688 N692 1.427 . S
C689 H679 0.929 . S
C689 C687 1.433 . S
C689 N692 1.384 . S
C690 H681 0.929 . S
C690 C682 1.378 . S
C690 C685 1.350 1_554 S
C691 H678 0.929 . S
C691 C683 1.433 . S
C691 N693 1.384 . S
N692 C688 1.427 . S
N692 C689 1.384 . S
N693 C685 1.427 . S
N693 C691 1.384 . S
H694 C700 0.930 . S
H695 C704 0.930 . S
H696 C709 0.929 1_556 S
H697 C707 0.929 1_554 S
H698 C702 0.929 . S
H699 C708 0.929 . S
C700 H694 0.930 . S
C700 C701 1.367 . S
C700 C708 1.378 . S
C701 C700 1.367 . S
C701 C709 1.433 . S
C702 H698 0.929 . S
C702 C704 1.378 . S
C702 C706 1.350 . S
C703 C706 1.463 1_454 S
C703 C708 1.350 . S
C703 N711 1.427 1_554 S
C704 H695 0.930 . S
C704 C702 1.378 . S
C704 C705 1.367 . S
C705 C704 1.367 . S
C705 C707 1.433 . S
C706 C702 1.350 . S
C706 C703 1.463 1_656 S
C706 N710 1.427 1_556 S
C707 H697 0.929 1_556 S
C707 C705 1.433 . S
C707 N710 1.384 1_556 S
C708 H699 0.929 . S
C708 C700 1.378 . S
C708 C703 1.350 . S
C709 H696 0.929 1_554 S
C709 C701 1.433 . S
C709 N711 1.384 1_554 S
N710 C706 1.427 1_554 S
N710 C707 1.384 1_554 S
N711 C703 1.427 1_556 S
N711 C709 1.384 1_556 S
H712 C718 0.930 . S
H713 C722 0.930 . S
H714 C727 0.929 . S
H715 C725 0.929 . S
H716 C720 0.929 . S
H717 C726 0.929 . S
C718 H712 0.930 . S
C718 C719 1.367 . S
C718 C726 1.378 . S
C719 C718 1.367 . S
C719 C727 1.433 . S
C720 H716 0.929 . S
C720 C722 1.378 . S
C720 C724 1.350 . S
C721 C724 1.463 . S
C721 C726 1.350 . S
C721 N729 1.427 . S
C722 H713 0.930 . S
C722 C720 1.378 . S
C722 C723 1.367 . S
C723 C722 1.367 . S
C723 C725 1.433 . S
C724 C720 1.350 . S
C724 C721 1.463 . S
C724 N728 1.427 . S
C725 H715 0.929 . S
C725 C723 1.433 . S
C725 N728 1.384 . S
C726 H717 0.929 . S
C726 C718 1.378 . S
C726 C721 1.350 . S
C727 H714 0.929 . S
C727 C719 1.433 . S
C727 N729 1.384 . S
N728 C724 1.427 . S
N728 C725 1.384 . S
N729 C721 1.427 . S
N729 C727 1.384 . S
H730 C736 0.930 . S
H731 C740 0.930 . S
H732 C745 0.929 . S
H733 C743 0.929 . S
H734 C738 0.929 . S
H735 C744 0.929 . S
C736 H730 0.930 . S
C736 C737 1.367 . S
C736 C744 1.378 . S
C737 C736 1.367 . S
C737 C745 1.433 . S
C738 H734 0.929 . S
C738 C740 1.378 . S
C738 C742 1.350 . S
C739 C742 1.463 . S
C739 C744 1.350 . S
C739 N747 1.427 . S
C740 H731 0.930 . S
C740 C738 1.378 . S
C740 C741 1.367 . S
C741 C740 1.367 . S
C741 C743 1.433 . S
C742 C738 1.350 . S
C742 C739 1.463 . S
C742 N746 1.427 . S
C743 H733 0.929 . S
C743 C741 1.433 . S
C743 N746 1.384 . S
C744 H735 0.929 . S
C744 C736 1.378 . S
C744 C739 1.350 . S
C745 H732 0.929 . S
C745 C737 1.433 . S
C745 N747 1.384 . S
N746 C742 1.427 . S
N746 C743 1.384 . S
N747 C739 1.427 . S
N747 C745 1.384 . S
H748 C754 0.930 . S
H749 C758 0.930 . S
H750 C763 0.929 . S
H751 C761 0.929 . S
H752 C756 0.929 . S
H753 C762 0.929 . S
C754 H748 0.930 . S
C754 C755 1.367 . S
C754 C762 1.378 . S
C755 C754 1.367 . S
C755 C763 1.433 . S
C756 H752 0.929 . S
C756 C758 1.378 . S
C756 C760 1.350 . S
C757 C760 1.463 . S
C757 C762 1.350 . S
C757 N765 1.427 . S
C758 H749 0.930 . S
C758 C756 1.378 . S
C758 C759 1.367 . S
C759 C758 1.367 . S
C759 C761 1.433 . S
C760 C756 1.350 . S
C760 C757 1.463 . S
C760 N764 1.427 . S
C761 H751 0.929 . S
C761 C759 1.433 . S
C761 N764 1.384 . S
C762 H753 0.929 . S
C762 C754 1.378 . S
C762 C757 1.350 . S
C763 H750 0.929 . S
C763 C755 1.433 . S
C763 N765 1.384 . S
N764 C760 1.427 . S
N764 C761 1.384 . S
N765 C757 1.427 . S
N765 C763 1.384 . S
H766 C772 0.930 . S
H767 C776 0.930 . S
H768 C781 0.929 . S
H769 C779 0.929 . S
H770 C774 0.929 . S
H771 C780 0.929 . S
C772 H766 0.930 . S
C772 C773 1.367 . S
C772 C780 1.378 . S
C773 C772 1.367 . S
C773 C781 1.433 . S
C774 H770 0.929 . S
C774 C776 1.378 . S
C774 C778 1.350 . S
C775 C778 1.463 . S
C775 C780 1.350 . S
C775 N783 1.427 . S
C776 H767 0.930 . S
C776 C774 1.378 . S
C776 C777 1.367 . S
C777 C776 1.367 . S
C777 C779 1.433 . S
C778 C774 1.350 . S
C778 C775 1.463 . S
C778 N782 1.427 . S
C779 H769 0.929 . S
C779 C777 1.433 . S
C779 N782 1.384 . S
C780 H771 0.929 . S
C780 C772 1.378 . S
C780 C775 1.350 . S
C781 H768 0.929 . S
C781 C773 1.433 . S
C781 N783 1.384 . S
N782 C778 1.427 . S
N782 C779 1.384 . S
N783 C775 1.427 . S
N783 C781 1.384 . S
H784 C790 0.930 . S
H785 C794 0.930 . S
H786 C799 0.929 . S
H787 C797 0.929 . S
H788 C792 0.929 . S
H789 C798 0.929 . S
C790 H784 0.930 . S
C790 C791 1.367 . S
C790 C798 1.378 . S
C791 C790 1.367 . S
C791 C799 1.433 1_554 S
C792 H788 0.929 . S
C792 C794 1.378 . S
C792 C796 1.350 . S
C793 C796 1.463 1_554 S
C793 C798 1.350 . S
C793 N801 1.427 1_554 S
C794 H785 0.930 . S
C794 C792 1.378 . S
C794 C795 1.367 . S
C795 C794 1.367 . S
C795 C797 1.433 1_556 S
C796 C792 1.350 . S
C796 C793 1.463 1_556 S
C796 N800 1.427 1_556 S
C797 H787 0.929 . S
C797 C795 1.433 1_554 S
C797 N800 1.384 . S
C798 H789 0.929 . S
C798 C790 1.378 . S
C798 C793 1.350 . S
C799 H786 0.929 . S
C799 C791 1.433 1_556 S
C799 N801 1.384 . S
N800 C796 1.427 1_554 S
N800 C797 1.384 . S
N801 C793 1.427 1_556 S
N801 C799 1.384 . S
H802 C808 0.930 . S
H803 C812 0.930 . S
H804 C817 0.929 . S
H805 C815 0.929 . S
H806 C810 0.929 1_556 S
H807 C816 0.929 1_554 S
C808 H802 0.930 . S
C808 C809 1.367 . S
C808 C816 1.378 . S
C809 C808 1.367 . S
C809 C817 1.433 . S
C810 H806 0.929 1_554 S
C810 C812 1.378 . S
C810 C814 1.350 . S
C811 C814 1.463 1_556 S
C811 C816 1.350 . S
C811 N819 1.427 . S
C812 H803 0.930 . S
C812 C810 1.378 . S
C812 C813 1.367 . S
C813 C812 1.367 . S
C813 C815 1.433 . S
C814 C810 1.350 . S
C814 C811 1.463 1_554 S
C814 N818 1.427 . S
C815 H805 0.929 . S
C815 C813 1.433 . S
C815 N818 1.384 . S
C816 H807 0.929 1_556 S
C816 C808 1.378 . S
C816 C811 1.350 . S
C817 H804 0.929 . S
C817 C809 1.433 . S
C817 N819 1.384 . S
N818 C814 1.427 . S
N818 C815 1.384 . S
N819 C811 1.427 . S
N819 C817 1.384 . S
H820 C826 0.930 . S
H821 C830 0.930 . S
H822 C835 0.929 . S
H823 C833 0.929 . S
H824 C828 0.929 . S
H825 C834 0.929 . S
C826 H820 0.930 . S
C826 C827 1.367 . S
C826 C834 1.378 . S
C827 C826 1.367 . S
C827 C835 1.433 1_554 S
C828 H824 0.929 . S
C828 C830 1.378 . S
C828 C832 1.350 . S
C829 C832 1.463 1_554 S
C829 C834 1.350 . S
C829 N837 1.427 1_554 S
C830 H821 0.930 . S
C830 C828 1.378 . S
C830 C831 1.367 . S
C831 C830 1.367 . S
C831 C833 1.433 1_556 S
C832 C828 1.350 . S
C832 C829 1.463 1_556 S
C832 N836 1.427 1_556 S
C833 H823 0.929 . S
C833 C831 1.433 1_554 S
C833 N836 1.384 . S
C834 H825 0.929 . S
C834 C826 1.378 . S
C834 C829 1.350 . S
C835 H822 0.929 . S
C835 C827 1.433 1_556 S
C835 N837 1.384 . S
N836 C832 1.427 1_554 S
N836 C833 1.384 . S
N837 C829 1.427 1_556 S
N837 C835 1.384 . S
H838 C844 0.930 . S
H839 C848 0.930 . S
H840 C853 0.929 . S
H841 C851 0.929 . S
H842 C846 0.937 . S
H843 C852 0.937 . S
C844 H838 0.930 . S
C844 C845 1.367 . S
C844 C852 1.378 . S
C845 C844 1.367 . S
C845 C853 1.433 . S
C846 H842 0.937 . S
C846 C848 1.378 . S
C846 C850 1.350 . S
C847 C850 1.463 1_554 S
C847 C852 1.350 . S
C847 N855 1.427 . S
C848 H839 0.930 . S
C848 C846 1.378 . S
C848 C849 1.367 . S
C849 C848 1.367 . S
C849 C851 1.433 . S
C850 C846 1.350 . S
C850 C847 1.463 1_556 S
C850 N854 1.427 . S
C851 H841 0.929 . S
C851 C849 1.433 . S
C851 N854 1.384 . S
C852 H843 0.937 . S
C852 C844 1.378 . S
C852 C847 1.350 . S
C853 H840 0.929 . S
C853 C845 1.433 . S
C853 N855 1.384 . S
N854 C850 1.427 . S
N854 C851 1.384 . S
N855 C847 1.427 . S
N855 C853 1.384 . S
H856 C862 0.930 . S
H857 C866 0.930 . S
H858 C871 0.929 . S
H859 C869 0.929 . S
H860 C864 0.929 . S
H861 C870 0.929 . S
C862 H856 0.930 . S
C862 C863 1.367 . S
C862 C870 1.378 . S
C863 C862 1.367 . S
C863 C871 1.433 . S
C864 H860 0.929 . S
C864 C866 1.378 . S
C864 C868 1.350 . S
C865 C868 1.463 . S
C865 C870 1.350 . S
C865 N873 1.427 . S
C866 H857 0.930 . S
C866 C864 1.378 . S
C866 C867 1.367 . S
C867 C866 1.367 . S
C867 C869 1.433 . S
C868 C864 1.350 . S
C868 C865 1.463 . S
C868 N872 1.427 . S
C869 H859 0.929 . S
C869 C867 1.433 . S
C869 N872 1.384 . S
C870 H861 0.929 . S
C870 C862 1.378 . S
C870 C865 1.350 . S
C871 H858 0.929 . S
C871 C863 1.433 . S
C871 N873 1.384 . S
N872 C868 1.427 . S
N872 C869 1.384 . S
N873 C865 1.427 . S
N873 C871 1.384 . S
H874 C880 0.930 . S
H875 C884 0.930 . S
H876 C889 0.929 . S
H877 C887 0.929 . S
H878 C882 0.929 . S
H879 C888 0.929 . S
C880 H874 0.930 . S
C880 C881 1.367 . S
C880 C888 1.378 . S
C881 C880 1.367 . S
C881 C889 1.433 . S
C882 H878 0.929 . S
C882 C884 1.378 . S
C882 C886 1.350 . S
C883 C886 1.463 . S
C883 C888 1.350 . S
C883 N891 1.427 . S
C884 H875 0.930 . S
C884 C882 1.378 . S
C884 C885 1.367 . S
C885 C884 1.367 . S
C885 C887 1.433 . S
C886 C882 1.350 . S
C886 C883 1.463 . S
C886 N890 1.427 . S
C887 H877 0.929 . S
C887 C885 1.433 . S
C887 N890 1.384 . S
C888 H879 0.929 . S
C888 C880 1.378 . S
C888 C883 1.350 . S
C889 H876 0.929 . S
C889 C881 1.433 . S
C889 N891 1.384 . S
N890 C886 1.427 . S
N890 C887 1.384 . S
N891 C883 1.427 . S
N891 C889 1.384 . S
H892 C898 0.930 . S
H893 C902 0.930 . S
H894 C907 0.929 . S
H895 C905 0.929 . S
H896 C900 0.929 . S
H897 C906 0.929 . S
C898 H892 0.930 . S
C898 C899 1.367 . S
C898 C906 1.378 . S
C899 C898 1.367 . S
C899 C907 1.433 . S
C900 H896 0.929 . S
C900 C902 1.378 . S
C900 C904 1.350 . S
C901 C904 1.463 . S
C901 C906 1.350 . S
C901 N909 1.427 . S
C902 H893 0.930 . S
C902 C900 1.378 . S
C902 C903 1.367 . S
C903 C902 1.367 . S
C903 C905 1.433 . S
C904 C900 1.350 . S
C904 C901 1.463 . S
C904 N908 1.427 . S
C905 H895 0.929 . S
C905 C903 1.433 . S
C905 N908 1.384 . S
C906 H897 0.929 . S
C906 C898 1.378 . S
C906 C901 1.350 . S
C907 H894 0.929 . S
C907 C899 1.433 . S
C907 N909 1.384 . S
N908 C904 1.427 . S
N908 C905 1.384 . S
N909 C901 1.427 . S
N909 C907 1.384 . S
H910 C916 0.930 . S
H911 C920 0.930 . S
H912 C925 0.929 . S
H913 C923 0.929 . S
H914 C918 0.929 . S
H915 C924 0.929 . S
C916 H910 0.930 . S
C916 C917 1.367 . S
C916 C924 1.378 . S
C917 C916 1.367 . S
C917 C925 1.433 . S
C918 H914 0.929 . S
C918 C920 1.378 . S
C918 C922 1.350 . S
C919 C922 1.463 . S
C919 C924 1.350 . S
C919 N927 1.427 . S
C920 H911 0.930 . S
C920 C918 1.378 . S
C920 C921 1.367 . S
C921 C920 1.367 . S
C921 C923 1.433 . S
C922 C918 1.350 . S
C922 C919 1.463 . S
C922 N926 1.427 . S
C923 H913 0.929 . S
C923 C921 1.433 . S
C923 N926 1.384 . S
C924 H915 0.929 . S
C924 C916 1.378 . S
C924 C919 1.350 . S
C925 H912 0.929 . S
C925 C917 1.433 . S
C925 N927 1.384 . S
N926 C922 1.427 . S
N926 C923 1.384 . S
N927 C919 1.427 . S
N927 C925 1.384 . S
H928 C934 0.930 . S
H929 C938 0.930 . S
H930 C943 0.929 . S
H931 C941 0.929 . S
H932 C936 0.929 . S
H933 C942 0.929 . S
C934 H928 0.930 . S
C934 C935 1.367 . S
C934 C942 1.378 . S
C935 C934 1.367 . S
C935 C943 1.433 . S
C936 H932 0.929 . S
C936 C938 1.378 . S
C936 C940 1.350 . S
C937 C940 1.463 . S
C937 C942 1.350 . S
C937 N945 1.427 . S
C938 H929 0.930 . S
C938 C936 1.378 . S
C938 C939 1.367 . S
C939 C938 1.367 . S
C939 C941 1.433 . S
C940 C936 1.350 . S
C940 C937 1.463 . S
C940 N944 1.427 . S
C941 H931 0.929 . S
C941 C939 1.433 . S
C941 N944 1.384 . S
C942 H933 0.929 . S
C942 C934 1.378 . S
C942 C937 1.350 . S
C943 H930 0.929 . S
C943 C935 1.433 . S
C943 N945 1.384 . S
N944 C940 1.427 . S
N944 C941 1.384 . S
N945 C937 1.427 . S
N945 C943 1.384 . S
H946 C952 0.930 . S
H947 C956 0.930 . S
H948 C961 0.929 . S
H949 C959 0.929 . S
H950 C954 0.929 . S
H951 C960 0.929 . S
C952 H946 0.930 . S
C952 C953 1.367 . S
C952 C960 1.378 . S
C953 C952 1.367 . S
C953 C961 1.433 . S
C954 H950 0.929 . S
C954 C956 1.378 . S
C954 C958 1.350 . S
C955 C958 1.463 . S
C955 C960 1.350 . S
C955 N963 1.427 . S
C956 H947 0.930 . S
C956 C954 1.378 . S
C956 C957 1.367 . S
C957 C956 1.367 . S
C957 C959 1.433 . S
C958 C954 1.350 . S
C958 C955 1.463 . S
C958 N962 1.427 . S
C959 H949 0.929 . S
C959 C957 1.433 . S
C959 N962 1.384 . S
C960 H951 0.929 . S
C960 C952 1.378 . S
C960 C955 1.350 . S
C961 H948 0.929 . S
C961 C953 1.433 . S
C961 N963 1.384 . S
N962 C958 1.427 . S
N962 C959 1.384 . S
N963 C955 1.427 . S
N963 C961 1.384 . S
H964 C970 0.930 . S
H965 C974 0.930 . S
H966 C979 0.929 . S
H967 C977 0.929 . S
H968 C972 0.929 . S
H969 C978 0.929 . S
C970 H964 0.930 . S
C970 C971 1.367 . S
C970 C978 1.378 . S
C971 C970 1.367 . S
C971 C979 1.433 . S
C972 H968 0.929 . S
C972 C974 1.378 . S
C972 C976 1.350 . S
C973 C976 1.463 . S
C973 C978 1.350 . S
C973 N981 1.427 . S
C974 H965 0.930 . S
C974 C972 1.378 . S
C974 C975 1.367 . S
C975 C974 1.367 . S
C975 C977 1.433 . S
C976 C972 1.350 . S
C976 C973 1.463 . S
C976 N980 1.427 . S
C977 H967 0.929 . S
C977 C975 1.433 . S
C977 N980 1.384 . S
C978 H969 0.929 . S
C978 C970 1.378 . S
C978 C973 1.350 . S
C979 H966 0.929 . S
C979 C971 1.433 . S
C979 N981 1.384 . S
N980 C976 1.427 . S
N980 C977 1.384 . S
N981 C973 1.427 . S
N981 C979 1.384 . S
H982 C988 0.930 . S
H983 C992 0.930 . S
H984 C997 0.929 . S
H985 C995 0.929 . S
H986 C990 0.929 . S
H987 C996 0.929 . S
C988 H982 0.930 . S
C988 C989 1.367 . S
C988 C996 1.378 . S
C989 C988 1.367 . S
C989 C997 1.433 . S
C990 H986 0.929 . S
C990 C992 1.378 . S
C990 C994 1.350 . S
C991 C994 1.463 . S
C991 C996 1.350 . S
C991 N999 1.427 . S
C992 H983 0.930 . S
C992 C990 1.378 . S
C992 C993 1.367 . S
C993 C992 1.367 . S
C993 C995 1.433 . S
C994 C990 1.350 . S
C994 C991 1.463 . S
C994 N998 1.427 . S
C995 H985 0.929 . S
C995 C993 1.433 . S
C995 N998 1.384 . S
C996 H987 0.929 . S
C996 C988 1.378 . S
C996 C991 1.350 . S
C997 H984 0.929 . S
C997 C989 1.433 . S
C997 N999 1.384 . S
N998 C994 1.427 . S
N998 C995 1.384 . S
N999 C991 1.427 . S
N999 C997 1.384 . S
H1000 C1006 0.930 . S
H1001 C1010 0.930 . S
H1002 C1015 0.929 . S
H1003 C1013 0.929 . S
H1004 C1008 0.929 . S
H1005 C1014 0.929 . S
C1006 H1000 0.930 . S
C1006 C1007 1.367 . S
C1006 C1014 1.378 . S
C1007 C1006 1.367 . S
C1007 C1015 1.433 . S
C1008 H1004 0.929 . S
C1008 C1010 1.378 . S
C1008 C1012 1.350 . S
C1009 C1012 1.463 . S
C1009 C1014 1.350 . S
C1009 N1017 1.427 . S
C1010 H1001 0.930 . S
C1010 C1008 1.378 . S
C1010 C1011 1.367 . S
C1011 C1010 1.367 . S
C1011 C1013 1.433 . S
C1012 C1008 1.350 . S
C1012 C1009 1.463 . S
C1012 N1016 1.427 . S
C1013 H1003 0.929 . S
C1013 C1011 1.433 . S
C1013 N1016 1.384 . S
C1014 H1005 0.929 . S
C1014 C1006 1.378 . S
C1014 C1009 1.350 . S
C1015 H1002 0.929 . S
C1015 C1007 1.433 . S
C1015 N1017 1.384 . S
N1016 C1012 1.427 . S
N1016 C1013 1.384 . S
N1017 C1009 1.427 . S
N1017 C1015 1.384 . S
H1018 C1024 0.930 . S
H1019 C1028 0.930 . S
H1020 C1033 0.929 . S
H1021 C1031 0.929 . S
H1022 C1026 0.929 . S
H1023 C1032 0.929 . S
C1024 H1018 0.930 . S
C1024 C1025 1.367 . S
C1024 C1032 1.378 . S
C1025 C1024 1.367 . S
C1025 C1033 1.433 . S
C1026 H1022 0.929 . S
C1026 C1028 1.378 . S
C1026 C1030 1.350 . S
C1027 C1030 1.463 . S
C1027 C1032 1.350 . S
C1027 N1035 1.427 . S
C1028 H1019 0.930 . S
C1028 C1026 1.378 . S
C1028 C1029 1.367 . S
C1029 C1028 1.367 . S
C1029 C1031 1.433 . S
C1030 C1026 1.350 . S
C1030 C1027 1.463 . S
C1030 N1034 1.427 . S
C1031 H1021 0.929 . S
C1031 C1029 1.433 . S
C1031 N1034 1.384 . S
C1032 H1023 0.929 . S
C1032 C1024 1.378 . S
C1032 C1027 1.350 . S
C1033 H1020 0.929 . S
C1033 C1025 1.433 . S
C1033 N1035 1.384 . S
N1034 C1030 1.427 . S
N1034 C1031 1.384 . S
N1035 C1027 1.427 . S
N1035 C1033 1.384 . S
H1036 C1042 0.930 . S
H1037 C1046 0.930 . S
H1038 C1051 0.929 . S
H1039 C1049 0.929 . S
H1040 C1044 0.929 . S
H1041 C1050 0.929 . S
C1042 H1036 0.930 . S
C1042 C1043 1.367 . S
C1042 C1050 1.378 . S
C1043 C1042 1.367 . S
C1043 C1051 1.433 . S
C1044 H1040 0.929 . S
C1044 C1046 1.378 . S
C1044 C1048 1.350 . S
C1045 C1048 1.463 . S
C1045 C1050 1.350 . S
C1045 N1053 1.427 . S
C1046 H1037 0.930 . S
C1046 C1044 1.378 . S
C1046 C1047 1.367 . S
C1047 C1046 1.367 . S
C1047 C1049 1.433 . S
C1048 C1044 1.350 . S
C1048 C1045 1.463 . S
C1048 N1052 1.427 . S
C1049 H1039 0.929 . S
C1049 C1047 1.433 . S
C1049 N1052 1.384 . S
C1050 H1041 0.929 . S
C1050 C1042 1.378 . S
C1050 C1045 1.350 . S
C1051 H1038 0.929 . S
C1051 C1043 1.433 . S
C1051 N1053 1.384 . S
N1052 C1048 1.427 . S
N1052 C1049 1.384 . S
N1053 C1045 1.427 . S
N1053 C1051 1.384 . S
H1054 C1060 0.930 . S
H1055 C1064 0.930 . S
H1056 C1069 0.929 . S
H1057 C1067 0.929 . S
H1058 C1062 0.929 . S
H1059 C1068 0.929 . S
C1060 H1054 0.930 . S
C1060 C1061 1.367 . S
C1060 C1068 1.378 . S
C1061 C1060 1.367 . S
C1061 C1069 1.433 . S
C1062 H1058 0.929 . S
C1062 C1064 1.378 . S
C1062 C1066 1.350 . S
C1063 C1066 1.463 . S
C1063 C1068 1.350 . S
C1063 N1071 1.427 . S
C1064 H1055 0.930 . S
C1064 C1062 1.378 . S
C1064 C1065 1.367 . S
C1065 C1064 1.367 . S
C1065 C1067 1.433 . S
C1066 C1062 1.350 . S
C1066 C1063 1.463 . S
C1066 N1070 1.427 . S
C1067 H1057 0.929 . S
C1067 C1065 1.433 . S
C1067 N1070 1.384 . S
C1068 H1059 0.929 . S
C1068 C1060 1.378 . S
C1068 C1063 1.350 . S
C1069 H1056 0.929 . S
C1069 C1061 1.433 . S
C1069 N1071 1.384 . S
N1070 C1066 1.427 . S
N1070 C1067 1.384 . S
N1071 C1063 1.427 . S
N1071 C1069 1.384 . S
C647 C175 1.770 . S
C651 C15 1.768 . S
C665 C55 1.774 . S
C669 C215 1.771 . S
C683 C255 1.772 . S
C687 C95 1.773 . S
C701 C135 1.771 . S
C705 C295 1.768 . S
C719 C335 1.773 . S
C723 C495 1.773 . S
C737 C535 1.771 . S
C741 C375 1.768 . S
C755 C575 1.774 . S
C759 C415 1.771 . S
C773 C455 1.771 . S
C777 C615 1.768 . S
C791 C21 1.803 . S
C795 C221 1.803 . S
C809 C261 1.806 . S
C813 C61 1.804 . S
C827 C101 1.803 . S
C831 C301 1.803 . S
C845 C141 1.806 . S
C849 C181 1.804 . S
C863 C341 1.807 . S
C867 C541 1.805 . S
C881 C581 1.807 . S
C885 C381 1.806 . S
C899 C421 1.807 . S
C903 C621 1.806 . S
C917 C501 1.806 . S
C921 C461 1.807 . S
C935 C602 1.884 . S
C939 C2 1.884 . S
C953 C482 1.889 . S
C957 C42 1.887 . S
C971 C82 1.887 . S
C975 C522 1.889 . S
C989 C562 1.885 . S
C993 C122 1.887 . S
C1007 C162 1.887 . S
C1011 C362 1.889 . S
C1025 C402 1.889 . S
C1029 C202 1.886 . S
C1043 C442 1.890 . S
C1047 C242 1.890 . S
C1061 C322 1.887 . S
C1065 C282 1.885 . S
