# Generated by pormake.
# Topology lcy-e, (6)-cn, num edge types: 1
# Building blocks:
#     Node 0, Type 0, BuildingBlock: CUKXOW_clean_sbu_0, # of connection points: 6
#     Node 1, Type 0, BuildingBlock: CUKXOW_clean_sbu_0, # of connection points: 6
#     Node 2, Type 0, BuildingBlock: CUKXOW_clean_sbu_0, # of connection points: 6
#     Node 3, Type 0, BuildingBlock: CUKXOW_clean_sbu_0, # of connection points: 6
#     Node 4, Type 0, BuildingBlock: CUKXOW_clean_sbu_0, # of connection points: 6
#     Node 5, Type 0, BuildingBlock: CUKXOW_clean_sbu_0, # of connection points: 6
#     Node 6, Type 0, BuildingBlock: CUKXOW_clean_sbu_0, # of connection points: 6
#     Node 7, Type 0, BuildingBlock: CUKXOW_clean_sbu_0, # of connection points: 6
#     Node 8, Type 0, BuildingBlock: CUKXOW_clean_sbu_0, # of connection points: 6
#     Node 9, Type 0, BuildingBlock: CUKXOW_clean_sbu_0, # of connection points: 6
#     Node 10, Type 0, BuildingBlock: CUKXOW_clean_sbu_0, # of connection points: 6
#     Node 11, Type 0, BuildingBlock: CUKXOW_clean_sbu_0, # of connection points: 6
#     Edge 12, Type (0, 0), BuildingBlock: XIVTED_clean_linker_0, # of connection points: 2
#     Edge 13, Type (0, 0), BuildingBlock: XIVTED_clean_linker_0, # of connection points: 2
#     Edge 14, Type (0, 0), BuildingBlock: XIVTED_clean_linker_0, # of connection points: 2
#     Edge 15, Type (0, 0), BuildingBlock: XIVTED_clean_linker_0, # of connection points: 2
#     Edge 16, Type (0, 0), BuildingBlock: XIVTED_clean_linker_0, # of connection points: 2
#     Edge 17, Type (0, 0), BuildingBlock: XIVTED_clean_linker_0, # of connection points: 2
#     Edge 18, Type (0, 0), BuildingBlock: XIVTED_clean_linker_0, # of connection points: 2
#     Edge 19, Type (0, 0), BuildingBlock: XIVTED_clean_linker_0, # of connection points: 2
#     Edge 20, Type (0, 0), BuildingBlock: XIVTED_clean_linker_0, # of connection points: 2
#     Edge 21, Type (0, 0), BuildingBlock: XIVTED_clean_linker_0, # of connection points: 2
#     Edge 22, Type (0, 0), BuildingBlock: XIVTED_clean_linker_0, # of connection points: 2
#     Edge 23, Type (0, 0), BuildingBlock: XIVTED_clean_linker_0, # of connection points: 2
#     Edge 24, Type (0, 0), BuildingBlock: XIVTED_clean_linker_0, # of connection points: 2
#     Edge 25, Type (0, 0), BuildingBlock: XIVTED_clean_linker_0, # of connection points: 2
#     Edge 26, Type (0, 0), BuildingBlock: XIVTED_clean_linker_0, # of connection points: 2
#     Edge 27, Type (0, 0), BuildingBlock: XIVTED_clean_linker_0, # of connection points: 2
#     Edge 28, Type (0, 0), BuildingBlock: XIVTED_clean_linker_0, # of connection points: 2
#     Edge 29, Type (0, 0), BuildingBlock: XIVTED_clean_linker_0, # of connection points: 2
#     Edge 30, Type (0, 0), BuildingBlock: XIVTED_clean_linker_0, # of connection points: 2
#     Edge 31, Type (0, 0), BuildingBlock: XIVTED_clean_linker_0, # of connection points: 2
#     Edge 32, Type (0, 0), BuildingBlock: XIVTED_clean_linker_0, # of connection points: 2
#     Edge 33, Type (0, 0), BuildingBlock: XIVTED_clean_linker_0, # of connection points: 2
#     Edge 34, Type (0, 0), BuildingBlock: XIVTED_clean_linker_0, # of connection points: 2
#     Edge 35, Type (0, 0), BuildingBlock: XIVTED_clean_linker_0, # of connection points: 2
#     Edge 36, Type (0, 0), BuildingBlock: XIVTED_clean_linker_0, # of connection points: 2
#     Edge 37, Type (0, 0), BuildingBlock: XIVTED_clean_linker_0, # of connection points: 2
#     Edge 38, Type (0, 0), BuildingBlock: XIVTED_clean_linker_0, # of connection points: 2
#     Edge 39, Type (0, 0), BuildingBlock: XIVTED_clean_linker_0, # of connection points: 2
#     Edge 40, Type (0, 0), BuildingBlock: XIVTED_clean_linker_0, # of connection points: 2
#     Edge 41, Type (0, 0), BuildingBlock: XIVTED_clean_linker_0, # of connection points: 2
#     Edge 42, Type (0, 0), BuildingBlock: XIVTED_clean_linker_0, # of connection points: 2
#     Edge 43, Type (0, 0), BuildingBlock: XIVTED_clean_linker_0, # of connection points: 2
#     Edge 44, Type (0, 0), BuildingBlock: XIVTED_clean_linker_0, # of connection points: 2
#     Edge 45, Type (0, 0), BuildingBlock: XIVTED_clean_linker_0, # of connection points: 2
#     Edge 46, Type (0, 0), BuildingBlock: XIVTED_clean_linker_0, # of connection points: 2
#     Edge 47, Type (0, 0), BuildingBlock: XIVTED_clean_linker_0, # of connection points: 2
# Relax obj value: 0.161
# Max RMSD: 0.260
# Mean RMSD: 0.229
data_MOF--net-lcy-e--node1-CUKXOW_clean_sbu_0--edge1-XIVTED_clean_linker_0
_symmetry_space_group_name_H-M    P1
_symmetry_Int_Tables_number       1
_symmetry_cell_setting            triclinic
loop_
_symmetry_equiv_pos_as_xyz
'x, y, z'
_cell_length_a     35.051497
_cell_length_b     37.983404
_cell_length_c     38.109644
_cell_angle_alpha  90.030617
_cell_angle_beta   91.482239
_cell_angle_gamma 88.681888
loop_
_atom_site_label
_atom_site_type_symbol
_atom_site_fract_x
_atom_site_fract_y
_atom_site_fract_z
_atom_type_partial_charge
Tb0 Tb 0.16847 0.17428 0.42436 0.0
C1 C 0.09176 0.13064 0.42525 0.0
Tb2 Tb 0.10488 0.19553 0.47596 0.0
O3 O 0.20651 0.15744 0.46824 0.0
O4 O 0.14847 0.15655 0.47288 0.0
O5 O 0.12248 0.13884 0.4071 0.0
C6 C 0.05705 0.2002 0.52888 0.0
O7 O 0.08158 0.14747 0.45429 0.0
C8 C 0.10621 0.231 0.41706 0.0
C9 C 0.17722 0.24118 0.47302 0.0
O10 O 0.04769 0.2056 0.49605 0.0
O11 O 0.09316 0.19204 0.5317 0.0
O12 O 0.09337 0.24441 0.44592 0.0
O13 O 0.11442 0.19919 0.42188 0.0
O14 O 0.15206 0.22736 0.49405 0.0
O15 O 0.1844 0.22758 0.4416 0.0
C16 C 0.21454 0.16079 0.37111 0.0
O17 O 0.20031 0.19159 0.37906 0.0
O18 O 0.20214 0.13749 0.39271 0.0
C19 C 0.17926 0.15289 0.49001 0.0
Tb20 Tb 0.10011 0.91459 0.70181 0.0
C21 C 0.12739 0.83572 0.68389 0.0
Tb22 Tb 0.07416 0.85421 0.74505 0.0
O23 O 0.1358 0.93287 0.7459 0.0
O24 O 0.12682 0.88006 0.73951 0.0
O25 O 0.12183 0.86847 0.6717 0.0
C26 C 0.06738 0.81175 0.7998 0.0
O27 O 0.11614 0.82581 0.71514 0.0
C28 C 0.0367 0.86336 0.68516 0.0
C29 C 0.03406 0.92894 0.75541 0.0
O30 O 0.04736 0.80996 0.77071 0.0
O31 O 0.09072 0.83762 0.79816 0.0
O32 O 0.04019 0.83293 0.70076 0.0
O33 O 0.04958 0.88672 0.70521 0.0
O34 O 0.04454 0.89859 0.77046 0.0
O35 O 0.04821 0.93814 0.7247 0.0
C36 C 0.11895 0.96482 0.65697 0.0
O37 O 0.11313 0.96901 0.69005 0.0
O38 O 0.11369 0.9321 0.64859 0.0
C39 C 0.14197 0.9022 0.75967 0.0
Tb40 Tb 0.43813 0.8224 0.96221 0.0
C41 C 0.36551 0.83444 0.91124 0.0
Tb42 Tb 0.36146 0.78874 0.97704 0.0
O43 O 0.44702 0.79382 0.91365 0.0
O44 O 0.41268 0.77249 0.95161 0.0
O45 O 0.39613 0.84942 0.92586 0.0
C46 C 0.3021 0.74887 0.99045 0.0
O47 O 0.35075 0.8058 0.92415 0.0
C48 C 0.36911 0.8551 0.99617 0.0
C49 C 0.4313 0.77335 0.03021 0.0
O50 O 0.32003 0.74922 0.96115 0.0
O51 O 0.31782 0.77071 0.01228 0.0
O52 O 0.33677 0.84224 0.98577 0.0
O53 O 0.39368 0.83068 0.99713 0.0
O54 O 0.39729 0.76354 0.01793 0.0
O55 O 0.45207 0.797 0.01358 0.0
C56 C 0.4954 0.86754 0.95953 0.0
O57 O 0.49959 0.8334 0.96148 0.0
O58 O 0.45928 0.87583 0.95947 0.0
C59 C 0.42286 0.76944 0.91988 0.0
Tb60 Tb 0.45369 0.13281 0.1369 0.0
C61 C 0.42357 0.2123 0.14232 0.0
Tb62 Tb 0.4878 0.18141 0.19442 0.0
O63 O 0.42595 0.10224 0.17807 0.0
O64 O 0.43668 0.15464 0.1851 0.0
O65 O 0.42626 0.18359 0.1221 0.0
C66 C 0.49892 0.21104 0.25739 0.0
O67 O 0.44317 0.21617 0.17247 0.0
C68 C 0.53008 0.17213 0.13853 0.0
C69 C 0.51692 0.10334 0.18844 0.0
O70 O 0.50432 0.22667 0.22744 0.0
O71 O 0.48699 0.17948 0.25145 0.0
O72 O 0.54373 0.18074 0.16933 0.0
O73 O 0.49425 0.1732 0.13958 0.0
O74 O 0.50767 0.12906 0.21018 0.0
O75 O 0.50377 0.10239 0.15561 0.0
C76 C 0.4316 0.09453 0.08134 0.0
O77 O 0.46665 0.10166 0.09017 0.0
O78 O 0.40896 0.11043 0.10301 0.0
C79 C 0.42447 0.12812 0.20021 0.0
Tb80 Tb 0.60923 0.33966 0.55909 0.0
C81 C 0.69475 0.35681 0.58521 0.0
Tb82 Tb 0.67614 0.30475 0.52398 0.0
O83 O 0.59515 0.29016 0.58455 0.0
O84 O 0.65052 0.29987 0.57378 0.0
O85 O 0.65766 0.36591 0.58583 0.0
C86 C 0.72206 0.25215 0.50228 0.0
O87 O 0.70834 0.33154 0.5646 0.0
C88 C 0.65915 0.36927 0.50168 0.0
C89 C 0.594 0.29371 0.49257 0.0
O90 O 0.70758 0.27725 0.48256 0.0
O91 O 0.71189 0.25767 0.53429 0.0
O92 O 0.69326 0.35492 0.50018 0.0
O93 O 0.63648 0.34603 0.51105 0.0
O94 O 0.62694 0.27777 0.50079 0.0
O95 O 0.58406 0.32352 0.50839 0.0
C96 C 0.55088 0.37788 0.58406 0.0
O97 O 0.54954 0.34573 0.57305 0.0
O98 O 0.58545 0.38907 0.58101 0.0
C99 C 0.62933 0.27658 0.58556 0.0
Tb100 Tb 0.92325 0.42379 0.83544 0.0
C101 C 0.88461 0.35016 0.83915 0.0
Tb102 Tb 0.94742 0.36758 0.78393 0.0
O103 O 0.86649 0.42611 0.81128 0.0
O104 O 0.9139 0.41468 0.78061 0.0
O105 O 0.89542 0.37783 0.8583 0.0
C106 C 0.95191 0.31898 0.73352 0.0
O107 O 0.89747 0.34456 0.80713 0.0
C108 C 0.99059 0.37229 0.84086 0.0
C109 C 0.9915 0.43768 0.78229 0.0
O110 O 0.96511 0.31529 0.76542 0.0
O111 O 0.93626 0.35006 0.72996 0.0
O112 O 1.00344 0.36249 0.81066 0.0
O113 O 0.95494 0.37612 0.83859 0.0
O114 O 0.98101 0.40973 0.76393 0.0
O115 O 0.97463 0.44682 0.81208 0.0
C116 C 0.91304 0.47631 0.88152 0.0
O117 O 0.89558 0.4731 0.85144 0.0
O118 O 0.93666 0.44968 0.88605 0.0
C119 C 0.87784 0.4173 0.78038 0.0
Tb120 Tb 0.85704 0.69974 0.11484 0.0
C121 C 0.93838 0.66223 0.13316 0.0
Tb122 Tb 0.93226 0.72119 0.07603 0.0
O123 O 0.83476 0.67961 0.06422 0.0
O124 O 0.89268 0.68001 0.07539 0.0
O125 O 0.90277 0.66942 0.14341 0.0
C126 C 0.97584 0.72068 0.02037 0.0
O127 O 0.95407 0.67664 0.10546 0.0
C128 C 0.92399 0.75567 0.13532 0.0
C129 C 0.85688 0.76915 0.06811 0.0
O130 O 0.98781 0.72797 0.05216 0.0
O131 O 0.93965 0.71428 0.02016 0.0
O132 O 0.95272 0.76038 0.11479 0.0
O133 O 0.90279 0.7335 0.12078 0.0
O134 O 0.89006 0.75881 0.05501 0.0
O135 O 0.8395 0.75157 0.09322 0.0
C136 C 0.80207 0.68084 0.15807 0.0
O137 O 0.82157 0.65972 0.13827 0.0
O138 O 0.8137 0.71277 0.15376 0.0
C139 C 0.86842 0.67316 0.05181 0.0
Tb140 Tb 0.54624 0.66424 0.34338 0.0
C141 C 0.5603 0.58581 0.37425 0.0
Tb142 Tb 0.50138 0.60318 0.31322 0.0
O143 O 0.49519 0.68386 0.37011 0.0
O144 O 0.50322 0.63071 0.3618 0.0
O145 O 0.57485 0.61787 0.37017 0.0
C146 C 0.44095 0.56424 0.2977 0.0
O147 O 0.52807 0.57654 0.35806 0.0
C148 C 0.56867 0.61223 0.28625 0.0
C149 C 0.49314 0.67784 0.27453 0.0
O150 O 0.47608 0.55562 0.29068 0.0
O151 O 0.44008 0.59459 0.31333 0.0
O152 O 0.55212 0.58186 0.28634 0.0
O153 O 0.54544 0.6352 0.29678 0.0
O154 O 0.47787 0.64669 0.28039 0.0
O155 O 0.52262 0.68892 0.29425 0.0
C156 C 0.59716 0.71258 0.36301 0.0
O157 O 0.56146 0.71284 0.37093 0.0
O158 O 0.60454 0.68463 0.34452 0.0
C159 C 0.4801 0.65327 0.37379 0.0
Tb160 Tb 0.16095 0.4047 0.14265 0.0
C161 C 0.14088 0.40639 0.06224 0.0
Tb162 Tb 0.19111 0.46628 0.09719 0.0
O163 O 0.10343 0.42636 0.13482 0.0
O164 O 0.14963 0.45984 0.13642 0.0
O165 O 0.14494 0.38562 0.09042 0.0
C166 C 0.19809 0.52984 0.07013 0.0
O167 O 0.15227 0.43958 0.06113 0.0
C168 C 0.2361 0.40943 0.09451 0.0
C169 C 0.22129 0.45717 0.17398 0.0
O170 O 0.223 0.51389 0.09061 0.0
O171 O 0.16917 0.50971 0.0639 0.0
O172 O 0.24274 0.43808 0.0772 0.0
O173 O 0.20592 0.41514 0.11038 0.0
O174 O 0.21021 0.48037 0.14973 0.0
O175 O 0.21015 0.42402 0.17316 0.0
C176 C 0.14547 0.36275 0.19545 0.0
O177 O 0.14056 0.3966 0.19474 0.0
O178 O 0.15945 0.3517 0.16584 0.0
C179 C 0.11396 0.45862 0.13163 0.0
Tb180 Tb 0.72308 0.09542 0.85706 0.0
C181 C 0.68853 0.11045 0.93231 0.0
Tb182 Tb 0.75513 0.05585 0.92367 0.0
O183 O 0.66834 0.06954 0.86079 0.0
O184 O 0.71799 0.04486 0.88031 0.0
O185 O 0.69586 0.12413 0.90092 0.0
C186 C 0.77281 1.004 0.96921 0.0
O187 O 0.70433 0.08059 0.94402 0.0
C188 C 0.77848 0.12094 0.91464 0.0
C189 C 0.79555 0.04246 0.85128 0.0
O190 O 0.79661 0.02653 0.95712 0.0
O191 O 0.73889 0.01137 0.95637 0.0
O192 O 0.77739 0.1059 0.94532 0.0
O193 O 0.77051 0.09838 0.89171 0.0
O194 O 0.7903 0.03174 0.8839 0.0
O195 O 0.77445 0.06831 0.83614 0.0
C196 C 0.7095 0.1345 0.79918 0.0
O197 O 0.71179 0.1003 0.80026 0.0
O198 O 0.71501 0.14674 0.8308 0.0
C199 C 0.68212 0.04299 0.8787 0.0
Tb200 Tb 0.84035 0.94002 0.4115 0.0
C201 C 0.85344 0.90101 0.33876 0.0
Tb202 Tb 0.79815 0.96534 0.3444 0.0
O203 O 0.78599 0.92214 0.43164 0.0
O204 O 0.79578 0.92146 0.37836 0.0
O205 O 0.86932 0.91018 0.3695 0.0
C206 C 0.73807 0.9793 0.30191 0.0
O207 O 0.82115 0.91558 0.32636 0.0
C208 C 0.86742 0.98905 0.3535 0.0
C209 C 0.79027 0.0102 0.41547 0.0
O210 O 0.7735 0.98376 0.29384 0.0
O211 O 0.73679 0.96707 0.3336 0.0
O212 O 0.85076 0.9865 0.32264 0.0
O213 O 0.84347 0.98258 0.37644 0.0
O214 O 0.77751 1.0037 0.38297 0.0
O215 O 0.81666 0.98978 0.43165 0.0
C216 C 0.88958 0.91907 0.46271 0.0
O217 O 0.86093 0.90133 0.45073 0.0
O218 O 0.89073 0.94857 0.44569 0.0
C219 C 0.7711 0.91555 0.40083 0.0
Tb220 Tb 0.29906 0.58499 0.66378 0.0
C221 C 0.32783 0.58518 0.58374 0.0
Tb222 Tb 0.26038 0.53677 0.60643 0.0
O223 O 0.32552 0.53813 0.68923 0.0
O224 O 0.31176 0.53769 0.63694 0.0
O225 O 0.32643 0.60267 0.61453 0.0
C226 C 0.2474 0.47669 0.5718 0.0
O227 O 0.30695 0.55702 0.57655 0.0
C228 C 0.22641 0.59866 0.61836 0.0
C229 C 0.22838 0.53837 0.68231 0.0
O230 O 0.24472 0.50808 0.55767 0.0
O231 O 0.25694 0.47978 0.60473 0.0
O232 O 0.20859 0.57222 0.6041 0.0
O233 O 0.26093 0.59009 0.62089 0.0
O234 O 0.23628 0.51883 0.65469 0.0
O235 O 0.24569 0.56864 0.68859 0.0
C236 C 0.3234 0.63367 0.71007 0.0
O237 O 0.28803 0.62578 0.70355 0.0
O238 O 0.34492 0.61531 0.68918 0.0
C239 C 0.32456 0.51845 0.66141 0.0
H240 H 0.19881 0.29755 0.43288 0.0
H241 H 0.2525 0.41283 0.60274 0.0
H242 H 0.19382 0.26147 0.53988 0.0
H243 H 0.22774 0.46147 0.50224 0.0
H244 H 0.24053 0.35549 0.57706 0.0
H245 H 0.2188 0.35567 0.45474 0.0
C246 C 0.20268 0.30162 0.46087 0.0
C247 C 0.19476 0.27459 0.48463 0.0
C248 C 0.23767 0.37857 0.56043 0.0
C249 C 0.21725 0.3408 0.50968 0.0
C250 C 0.24454 0.41146 0.57512 0.0
C251 C 0.2408 0.44212 0.5547 0.0
C252 C 0.22699 0.37585 0.5248 0.0
C253 C 0.2307 0.4385 0.51896 0.0
C254 C 0.21367 0.33486 0.47331 0.0
C255 C 0.19954 0.28149 0.52061 0.0
N256 N 0.22403 0.4059 0.50509 0.0
N257 N 0.21042 0.31373 0.53194 0.0
H258 H 0.83196 0.06428 0.79122 0.0
H259 H 0.99912 0.91769 0.8175 0.0
H260 H 0.83542 0.98285 0.87031 0.0
H261 H 0.9927 0.98529 0.72644 0.0
H262 H 0.94092 0.94545 0.8385 0.0
H263 H 0.89114 0.03868 0.76715 0.0
C264 C 0.84478 0.04091 0.80328 0.0
C265 C 0.82859 0.02592 0.83302 0.0
C266 C 0.95214 0.95442 0.81394 0.0
C267 C 0.8965 0.99692 0.80603 0.0
C268 C 0.98567 0.93861 0.80196 0.0
C269 C 1.00099 0.94897 0.77001 0.0
C270 C 0.93333 0.98102 0.794 0.0
C271 C 0.98203 0.97643 0.75124 0.0
C272 C 0.87868 0.02645 0.78967 0.0
C273 C 0.84674 0.99571 0.84761 0.0
N274 N 0.94912 0.99142 0.76343 0.0
N275 N 0.87954 0.9825 0.83415 0.0
H276 H 0.26916 0.69948 0.94811 0.0
H277 H 0.22994 0.58186 0.10746 0.0
H278 H 0.26981 0.74038 0.05375 0.0
H279 H 0.17412 0.56039 1.00787 0.0
H280 H 0.24258 0.64128 0.08769 0.0
H281 H 0.23107 0.65005 0.96745 0.0
C282 C 0.26053 0.69841 0.97518 0.0
C283 C 0.27314 0.72344 0.99963 0.0
C284 C 0.22698 0.6239 0.07026 0.0
C285 C 0.23032 0.66727 0.02179 0.0
C286 C 0.22005 0.58995 0.08145 0.0
C287 C 0.20144 0.56643 0.05899 0.0
C288 C 0.21629 0.634 0.03593 0.0
C289 C 0.18875 0.57802 0.02573 0.0
C290 C 0.23874 0.67035 0.98614 0.0
C291 C 0.26109 0.72122 0.03426 0.0
N292 N 0.19723 0.61097 0.01475 0.0
N293 N 0.24097 0.69315 0.04451 0.0
H294 H 0.52265 0.07579 0.25392 0.0
H295 H 0.73475 1.00619 0.23493 0.0
H296 H 0.57504 0.07112 0.15286 0.0
H297 H 0.66414 0.97677 0.32069 0.0
H298 H 0.6775 0.02947 0.20333 0.0
H299 H 0.57454 0.03876 0.27834 0.0
C300 C 0.54489 0.06645 0.23677 0.0
C301 C 0.54471 0.07645 0.20141 0.0
C302 C 0.67457 0.01744 0.22884 0.0
C303 C 0.60474 0.03478 0.22929 0.0
C304 C 0.70716 1.00428 0.24687 0.0
C305 C 0.70409 0.98994 0.28055 0.0
C306 C 0.63897 0.01662 0.24497 0.0
C307 C 0.66778 0.9879 0.29487 0.0
C308 C 0.5745 0.04529 0.25068 0.0
C309 C 0.57414 0.0637 0.18025 0.0
N310 N 0.63673 1.00152 0.27722 0.0
N311 N 0.60347 0.04398 0.19468 0.0
H312 H 0.72791 0.23006 0.43445 0.0
H313 H 0.80907 0.0365 0.48117 0.0
H314 H 0.75173 0.1971 0.54119 0.0
H315 H 0.7472 0.06334 0.38502 0.0
H316 H 0.79609 0.09644 0.50284 0.0
H317 H 0.74515 0.1707 0.41437 0.0
C318 C 0.73744 0.21048 0.45359 0.0
C319 C 0.73839 0.21844 0.4895 0.0
C320 C 0.78526 0.08898 0.47709 0.0
C321 C 0.7577 0.15035 0.46682 0.0
C322 C 0.79248 0.05475 0.46476 0.0
C323 C 0.77919 0.04466 0.43121 0.0
C324 C 0.76515 0.11342 0.45549 0.0
C325 C 0.75803 0.06965 0.41107 0.0
C326 C 0.74691 0.17651 0.44218 0.0
C327 C 0.75066 0.19198 0.51324 0.0
N328 N 0.75198 0.1028 0.42339 0.0
N329 N 0.75976 0.15904 0.50151 0.0
H330 H 0.02412 0.49945 0.80784 0.0
H331 H 0.20737 0.47079 0.69014 0.0
H332 H 0.03774 0.41912 0.72864 0.0
H333 H 0.17781 0.57579 0.72493 0.0
H334 H 0.15049 0.44903 0.71684 0.0
H335 H 0.08358 0.52632 0.78805 0.0
C336 C 0.03927 0.48757 0.78627 0.0
C337 C 0.02557 0.45685 0.76997 0.0
C338 C 0.15635 0.47684 0.71893 0.0
C339 C 0.09386 0.48696 0.74791 0.0
C340 C 0.1891 0.48936 0.70378 0.0
C341 C 0.19738 0.52536 0.7048 0.0
C342 C 0.1311 0.50023 0.73558 0.0
C343 C 0.1726 0.54784 0.72346 0.0
C344 C 0.07318 0.50293 0.77505 0.0
C345 C 0.04668 0.4427 0.7422 0.0
N346 N 0.1403 0.53497 0.73792 0.0
N347 N 0.07959 0.4576 0.73242 0.0
H348 H 0.84425 0.98179 0.98987 0.0
H349 H 0.78404 0.79877 0.07489 0.0
H350 H 0.72627 0.95251 0.99326 0.0
H351 H 0.89474 0.8194 0.0332 0.0
H352 H 0.76175 0.85758 0.05428 0.0
H353 H 0.86295 0.92536 0.0166 0.0
C354 C 0.82223 0.96362 0.99667 0.0
C355 C 0.78371 0.97176 0.98924 0.0
C356 C 0.79087 0.84896 0.04972 0.0
C357 C 0.80489 0.90681 0.01966 0.0
C358 C 0.80358 0.81547 0.06144 0.0
C359 C 0.84124 0.80382 0.05555 0.0
C360 C 0.81628 0.87107 0.03274 0.0
C361 C 0.86535 0.82676 0.0381 0.0
C362 C 0.83291 0.93129 0.01174 0.0
C363 C 0.75634 0.94717 0.99857 0.0
N364 N 0.85254 0.8591 0.02756 0.0
N365 N 0.76744 0.91567 0.01321 0.0
H366 H 0.3669 0.58534 0.30354 0.0
H367 H 0.28003 0.41838 0.20454 0.0
H368 H 0.43743 0.49896 0.26711 0.0
H369 H 0.22737 0.52215 0.20298 0.0
H370 H 0.33279 0.44131 0.24111 0.0
H371 H 0.31043 0.55575 0.28033 0.0
C372 C 0.37043 0.55992 0.29098 0.0
C373 C 0.40682 0.54469 0.28682 0.0
C374 C 0.30933 0.45882 0.23314 0.0
C375 C 0.3424 0.51068 0.26043 0.0
C376 C 0.27916 0.44574 0.2126 0.0
C377 C 0.24953 0.46853 0.2007 0.0
C378 C 0.30928 0.49467 0.24222 0.0
C379 C 0.24987 0.50381 0.21145 0.0
C380 C 0.33822 0.54311 0.27771 0.0
C381 C 0.40981 0.51166 0.27052 0.0
N382 N 0.27932 0.51582 0.23154 0.0
N383 N 0.37795 0.49574 0.2577 0.0
H384 H 0.50222 0.1739 0.31805 0.0
H385 H 0.55134 0.33399 0.44574 0.0
H386 H 0.51679 0.27871 0.27783 0.0
H387 H 0.5904 0.2272 0.46569 0.0
H388 H 0.52487 0.3152 0.3885 0.0
H389 H 0.52087 0.19439 0.37663 0.0
C390 C 0.50907 0.20136 0.3216 0.0
C391 C 0.50817 0.22463 0.29297 0.0
C392 C 0.5389 0.29591 0.40564 0.0
C393 C 0.52919 0.24831 0.36024 0.0
C394 C 0.55363 0.30648 0.43842 0.0
C395 C 0.57296 0.28204 0.46057 0.0
C396 C 0.54282 0.26055 0.39533 0.0
C397 C 0.57568 0.24687 0.44947 0.0
C398 C 0.51982 0.21297 0.35505 0.0
C399 C 0.51732 0.25991 0.29918 0.0
N400 N 0.5607 0.23716 0.41774 0.0
N401 N 0.5274 0.27077 0.33224 0.0
H402 H 0.98707 0.23339 0.52805 0.0
H403 H 0.99221 0.25687 0.7365 0.0
H404 H 0.0723 0.18559 0.59765 0.0
H405 H 0.92622 0.32412 0.66551 0.0
H406 H 0.01008 0.21964 0.68687 0.0
H407 H 0.95299 0.25561 0.57922 0.0
C408 C 0.99814 0.227 0.55413 0.0
C409 C 0.03271 0.20813 0.55882 0.0
C410 C 0.99129 0.24228 0.68221 0.0
C411 C 0.99423 0.23341 0.61713 0.0
C412 C 0.98105 0.26346 0.71049 0.0
C413 C 0.95824 0.29379 0.70485 0.0
C414 C 0.97856 0.25157 0.64813 0.0
C415 C 0.94427 0.30111 0.67078 0.0
C416 C 0.97882 0.23978 0.58326 0.0
C417 C 0.0459 0.20044 0.59303 0.0
N418 N 0.95499 0.28032 0.64357 0.0
N419 N 0.02682 0.21342 0.62093 0.0
H420 H 0.10645 0.81496 0.8623 0.0
H421 H 0.95668 0.69549 0.95612 0.0
H422 H 0.01687 0.75915 0.80798 0.0
H423 H 0.04452 0.75208 0.01202 0.0
H424 H 0.98674 0.70901 0.90093 0.0
H425 H 0.09231 0.78348 0.91623 0.0
C426 C 0.08409 0.79573 0.8617 0.0
C427 C 0.06228 0.78995 0.831 0.0
C428 C 0.99985 0.7181 0.92523 0.0
C429 C 0.04591 0.75406 0.89231 0.0
C430 C 0.9827 0.71037 0.95671 0.0
C431 C 0.99789 0.72331 0.98839 0.0
C432 C 0.03207 0.73938 0.92546 0.0
C433 C 0.03184 0.74198 0.98796 0.0
C434 C 0.07608 0.77775 0.89243 0.0
C435 C 0.03397 0.7646 0.83134 0.0
N436 N 0.04751 0.75004 0.9568 0.0
N437 N 0.02626 0.74786 0.86169 0.0
H438 H 0.43127 0.66586 0.23109 0.0
H439 H 0.49225 0.79314 0.07387 0.0
H440 H 0.53048 0.73072 0.23962 0.0
H441 H 0.39849 0.72152 0.06841 0.0
H442 H 0.50703 0.77258 0.1342 0.0
H443 H 0.41809 0.68904 0.17232 0.0
C444 C 0.45014 0.68535 0.22085 0.0
C445 C 0.48207 0.69626 0.24076 0.0
C446 C 0.48334 0.76132 0.11966 0.0
C447 C 0.46726 0.72289 0.17223 0.0
C448 C 0.47501 0.77289 0.08504 0.0
C449 C 0.44402 0.75915 0.06559 0.0
C450 C 0.46049 0.73584 0.13515 0.0
C451 C 0.42262 0.73315 0.08196 0.0
C452 C 0.44266 0.6985 0.18698 0.0
C453 C 0.50535 0.72163 0.22557 0.0
N454 N 0.43115 0.72258 0.11546 0.0
N455 N 0.49763 0.7339 0.19227 0.0
H456 H 0.12612 0.20224 0.35477 0.0
H457 H 0.11357 0.38648 0.25458 0.0
H458 H 0.09623 0.30113 0.40378 0.0
H459 H 0.15905 0.29183 0.20704 0.0
H460 H 0.10268 0.35397 0.30795 0.0
H461 H 0.13474 0.23309 0.29935 0.0
C462 C 0.1215 0.23053 0.3538 0.0
C463 C 0.11072 0.24939 0.38374 0.0
C464 C 0.11499 0.34015 0.28595 0.0
C465 C 0.12 0.28458 0.32062 0.0
C466 C 0.12116 0.35867 0.25538 0.0
C467 C 0.13737 0.34172 0.22649 0.0
C468 C 0.12508 0.3043 0.28777 0.0
C469 C 0.14651 0.30573 0.22886 0.0
C470 C 0.12632 0.24804 0.3222 0.0
C471 C 0.10457 0.28576 0.38119 0.0
N472 N 0.14031 0.28809 0.2592 0.0
N473 N 0.10932 0.30223 0.35008 0.0
H474 H 0.0314 0.92585 0.65045 0.0
H475 H 0.89186 0.85647 0.49791 0.0
H476 H 0.99924 0.81723 0.64175 0.0
H477 H 0.94358 0.95835 0.49631 0.0
H478 H 0.93029 0.84135 0.55064 0.0
H479 H 0.99867 0.93827 0.59435 0.0
C480 C 0.01748 0.90457 0.63663 0.0
C481 C 0.01781 0.87049 0.65078 0.0
C482 C 0.93346 0.86691 0.53862 0.0
C483 C 0.98005 0.88454 0.58656 0.0
C484 C 0.91153 0.87555 0.50857 0.0
C485 C 0.91454 0.90873 0.4929 0.0
C486 C 0.95824 0.89182 0.55329 0.0
C487 C 0.94042 0.93248 0.50766 0.0
C488 C 0.99885 0.91166 0.60455 0.0
C489 C 0.99946 0.84389 0.63176 0.0
N490 N 0.96107 0.92367 0.53719 0.0
N491 N 0.98105 0.85152 0.60069 0.0
H492 H 0.39468 0.65983 0.72162 0.0
H493 H 0.36453 0.7202 0.92043 0.0
H494 H 0.28432 0.65451 0.76837 0.0
H495 H 0.44758 0.76549 0.85352 0.0
H496 H 0.33833 0.68797 0.86919 0.0
H497 H 0.41858 0.69099 0.77382 0.0
C498 C 0.37541 0.66544 0.74279 0.0
C499 C 0.33737 0.65488 0.74045 0.0
C500 C 0.36225 0.70509 0.86591 0.0
C501 C 0.36481 0.68974 0.80088 0.0
C502 C 0.37705 0.72358 0.89513 0.0
C503 C 0.4077 0.74629 0.8913 0.0
C504 C 0.37903 0.70863 0.83291 0.0
C505 C 0.42372 0.74859 0.8579 0.0
C506 C 0.38907 0.68313 0.77264 0.0
C507 C 0.31376 0.66255 0.76892 0.0
N508 N 0.40937 0.73006 0.83026 0.0
N509 N 0.3279 0.67925 0.79807 0.0
H510 H 0.60744 0.17033 0.13425 0.0
H511 H 0.61143 0.12635 0.92801 0.0
H512 H 0.50486 0.16198 0.07026 0.0
H513 H 0.71117 0.1347 0.99557 0.0
H514 H 0.57139 0.1448 0.97742 0.0
H515 H 0.64544 0.16156 0.08205 0.0
C516 C 0.5929 0.16665 0.10914 0.0
C517 C 0.55295 0.1667 0.10665 0.0
C518 C 0.6021 0.14326 0.98121 0.0
C519 C 0.59638 0.15661 0.04635 0.0
C520 C 0.62491 0.13321 0.95291 0.0
C521 C 0.66461 0.1296 0.95771 0.0
C522 C 0.61928 0.1495 0.01443 0.0
C523 C 0.68066 0.1376 0.99075 0.0
C524 C 0.61462 0.16169 0.07923 0.0
C525 C 0.53564 0.16184 0.07336 0.0
N526 N 0.65803 0.14696 0.01777 0.0
N527 N 0.55743 0.15688 0.04451 0.0
H528 H 0.68041 0.22023 0.58664 0.0
H529 H 0.68656 0.20372 0.79579 0.0
H530 H 0.6075 0.2823 0.65318 0.0
H531 H 0.71084 0.1139 0.7302 0.0
H532 H 0.66795 0.23784 0.74316 0.0
H533 H 0.70181 0.1852 0.63838 0.0
C534 C 0.66891 0.22642 0.61206 0.0
C535 C 0.64191 0.25394 0.61561 0.0
C536 C 0.67746 0.21068 0.74028 0.0
C537 C 0.66678 0.21478 0.67477 0.0
C538 C 0.68822 0.19126 0.77028 0.0
C539 C 0.70006 0.15589 0.76737 0.0
C540 C 0.67924 0.19489 0.70696 0.0
C541 C 0.70167 0.14107 0.7336 0.0
C542 C 0.68103 0.20645 0.6415 0.0
C543 C 0.62799 0.261 0.64919 0.0
N544 N 0.69155 0.16066 0.70469 0.0
N545 N 0.64077 0.24179 0.67742 0.0
H546 H 0.16447 0.41457 0.99596 0.0
H547 H 0.9645 0.37391 0.90772 0.0
H548 H 0.0747 0.36963 0.05546 0.0
H549 H 0.068 0.37222 0.84889 0.0
H550 H 1.00296 0.37559 0.96237 0.0
H551 H 0.12892 0.40154 0.94168 0.0
C552 C 0.13745 0.4014 0.99745 0.0
C553 C 0.12239 0.39304 0.03002 0.0
C554 C 0.01721 0.37453 0.9375 0.0
C555 C 0.08111 0.37899 0.96825 0.0
C556 C 0.99534 0.37386 0.90637 0.0
C557 C 0.01325 0.37308 0.87388 0.0
C558 C 0.05716 0.37508 0.93599 0.0
C559 C 0.05319 0.37285 0.87347 0.0
C560 C 0.1172 0.394 0.96653 0.0
C561 C 0.0873 0.37616 0.03072 0.0
N562 N 0.07385 0.37421 0.90409 0.0
N563 N 0.06741 0.37019 1.00019 0.0
H564 H 0.81739 0.84363 0.3151 0.0
H565 H 0.96636 0.80732 0.16562 0.0
H566 H 0.92569 0.89486 0.31334 0.0
H567 H 0.86982 0.7421 0.18318 0.0
H568 H 0.95474 0.83742 0.2214 0.0
H569 H 0.8388 0.80313 0.26963 0.0
C570 C 0.84612 0.8457 0.30557 0.0
C571 C 0.86996 0.87235 0.31785 0.0
C572 C 0.93624 0.81634 0.21319 0.0
C573 C 0.89429 0.82699 0.26496 0.0
C574 C 0.94275 0.79929 0.18132 0.0
C575 C 0.91839 0.77274 0.16955 0.0
C576 C 0.90504 0.8068 0.23323 0.0
C577 C 0.88855 0.76302 0.19092 0.0
C578 C 0.85831 0.82271 0.27952 0.0
C579 C 0.90675 0.87431 0.30464 0.0
N580 N 0.88247 0.78026 0.22157 0.0
N581 N 0.91764 0.85226 0.27834 0.0
H582 H 0.35847 0.54378 0.53331 0.0
H583 H 0.44723 0.69914 0.42095 0.0
H584 H 0.35445 0.6519 0.56794 0.0
H585 H 0.45554 0.58891 0.3945 0.0
H586 H 0.41166 0.68395 0.47343 0.0
H587 H 0.39352 0.56112 0.48231 0.0
C588 C 0.3651 0.57132 0.5303 0.0
C589 C 0.35316 0.59642 0.55508 0.0
C590 C 0.4211 0.66313 0.45605 0.0
C591 C 0.39363 0.61674 0.49571 0.0
C592 C 0.44118 0.67179 0.42591 0.0
C593 C 0.45441 0.64525 0.40317 0.0
C594 C 0.41406 0.62765 0.46352 0.0
C595 C 0.44592 0.61027 0.41115 0.0
C596 C 0.38522 0.58123 0.50096 0.0
C597 C 0.36317 0.63161 0.54968 0.0
N598 N 0.42648 0.60257 0.44055 0.0
N599 N 0.38259 0.64079 0.52043 0.0
H600 H 0.24531 0.09744 0.35057 0.0
H601 H 0.40593 0.18666 0.2375 0.0
H602 H 0.25195 0.20928 0.33316 0.0
H603 H 0.38039 0.07646 0.22785 0.0
H604 H 0.35482 0.1938 0.27926 0.0
H605 H 0.29853 0.08779 0.31071 0.0
C606 C 0.25782 0.11991 0.33814 0.0
C607 C 0.24427 0.1542 0.34504 0.0
C608 C 0.36045 0.16798 0.2682 0.0
C609 C 0.30536 0.14346 0.30015 0.0
C610 C 0.38986 0.16381 0.24456 0.0
C611 C 0.39729 0.13092 0.2291 0.0
C612 C 0.33831 0.13902 0.2767 0.0
C613 C 0.3755 0.10226 0.23917 0.0
C614 C 0.28818 0.1144 0.31551 0.0
C615 C 0.26148 0.18241 0.32845 0.0
N616 N 0.34683 0.10699 0.26231 0.0
N617 N 0.29128 0.17643 0.30696 0.0
H618 H 0.20831 0.08635 0.48726 0.0
H619 H 0.12367 0.03418 0.67232 0.0
H620 H 0.15493 0.16109 0.5566 0.0
H621 H 0.14389 0.95902 0.58958 0.0
H622 H 0.1462 0.08097 0.63472 0.0
H623 H 0.19791 0.03947 0.52998 0.0
C624 C 0.19542 0.09297 0.51202 0.0
C625 C 0.18238 0.12739 0.51871 0.0
C626 C 0.14578 0.05426 0.62478 0.0
C627 C 0.16963 0.07422 0.56696 0.0
C628 C 0.13286 0.02758 0.64615 0.0
C629 C 0.13171 0.99285 0.6338 0.0
C630 C 0.15796 0.04608 0.59092 0.0
C631 C 0.1441 0.9856 0.59986 0.0
C632 C 0.18902 0.06622 0.53608 0.0
C633 C 0.16508 0.13472 0.5506 0.0
N634 N 0.15678 0.01207 0.5795 0.0
N635 N 0.15898 0.10826 0.57358 0.0
H636 H 0.18346 0.94807 0.79978 0.0
H637 H 0.34275 0.8016 0.85208 0.0
H638 H 0.17866 0.83861 0.77025 0.0
H639 H 0.33555 0.90167 0.90502 0.0
H640 H 0.28944 0.81985 0.81334 0.0
H641 H 0.2436 0.93546 0.83243 0.0
C642 C 0.19493 0.92135 0.8004 0.0
C643 C 0.17601 0.89431 0.78237 0.0
C644 C 0.29986 0.83819 0.83292 0.0
C645 C 0.2451 0.87992 0.8189 0.0
C646 C 0.3307 0.82799 0.85466 0.0
C647 C 0.34373 0.85033 0.88148 0.0
C648 C 0.28151 0.87093 0.83817 0.0
C649 C 0.32672 0.88398 0.88421 0.0
C650 C 0.22931 0.91424 0.81886 0.0
C651 C 0.19217 0.86022 0.78388 0.0
N652 N 0.29605 0.89315 0.86308 0.0
N653 N 0.22582 0.85407 0.80163 0.0
H654 H 0.35952 0.07265 0.06418 0.0
H655 H 0.43448 0.88057 0.02455 0.0
H656 H 0.47851 0.04747 0.04875 0.0
H657 H 0.32166 0.91371 0.98857 0.0
H658 H 0.44939 0.94165 0.03727 0.0
H659 H 0.34286 0.01552 0.03837 0.0
C660 C 0.38204 0.05547 0.05459 0.0
C661 C 0.42047 0.06464 0.05878 0.0
C662 C 0.42145 0.93572 0.02631 0.0
C663 C 0.40172 0.99919 0.0303 0.0
C664 C 0.41289 0.90083 0.01905 0.0
C665 C 0.37703 0.89218 1.00488 0.0
C666 C 0.39353 0.96227 0.02046 0.0
C667 C 0.34976 0.91938 0.99928 0.0
C668 C 0.37252 0.02288 0.04001 0.0
C669 C 0.44854 0.0414 0.04611 0.0
N670 N 0.35846 0.95331 1.00737 0.0
N671 N 0.43867 1.00949 0.03304 0.0
H672 H 0.80062 0.41847 0.78085 0.0
H673 H 0.77254 0.35703 0.58229 0.0
H674 H 0.89464 0.40534 0.71092 0.0
H675 H 0.67943 0.39178 0.64668 0.0
H676 H 0.81772 0.37535 0.62818 0.0
H677 H 0.75609 0.40906 0.73175 0.0
C678 C 0.81193 0.41357 0.75507 0.0
C679 C 0.85145 0.41215 0.75003 0.0
C680 C 0.78745 0.37935 0.63215 0.0
C681 C 0.80042 0.40127 0.6935 0.0
C682 C 0.76155 0.36888 0.60595 0.0
C683 C 0.72203 0.37263 0.61072 0.0
C684 C 0.77383 0.39333 0.66364 0.0
C685 C 0.70958 0.3884 0.64182 0.0
C686 C 0.78642 0.40829 0.727 0.0
C687 C 0.86444 0.40589 0.71606 0.0
N688 N 0.73539 0.39777 0.66726 0.0
N689 N 0.83897 0.40042 0.68908 0.0
H690 H 0.85579 0.52563 0.87805 0.0
H691 H 0.93622 0.64031 0.03791 0.0
H692 H 0.95576 0.49474 0.93988 0.0
H693 H 0.81869 0.64751 1.00161 0.0
H694 H 0.94778 0.59304 0.99574 0.0
H695 H 0.84538 0.57565 0.91743 0.0
C696 C 0.87557 0.52941 0.89998 0.0
C697 C 0.90664 0.50601 0.90585 0.0
C698 C 0.91952 0.60506 0.99685 0.0
C699 C 0.89514 0.56344 0.95069 0.0
C700 C 0.91291 0.63225 0.02071 0.0
C701 C 0.87635 0.64781 0.02329 0.0
C702 C 0.88946 0.5935 0.97509 0.0
C703 C 0.84726 0.63619 1.00046 0.0
C704 C 0.86956 0.55793 0.92242 0.0
C705 C 0.93138 0.51211 0.93458 0.0
N706 N 0.85443 0.60968 0.97729 0.0
N707 N 0.92522 0.54039 0.95587 0.0
H708 H 0.75601 0.72318 0.19755 0.0
H709 H 0.62224 0.56666 0.25863 0.0
H710 H 0.77517 0.61474 0.168 0.0
H711 H 0.59712 0.67705 0.2749 0.0
H712 H 0.68125 0.58256 0.22944 0.0
H713 H 0.70073 0.70567 0.23082 0.0
C714 C 0.74866 0.69565 0.19825 0.0
C715 C 0.77002 0.67039 0.17993 0.0
C716 C 0.66286 0.60325 0.2396 0.0
C717 C 0.70673 0.65006 0.21779 0.0
C718 C 0.62925 0.59417 0.25624 0.0
C719 C 0.60491 0.62055 0.26939 0.0
C720 C 0.67208 0.63895 0.23622 0.0
C721 C 0.61524 0.65581 0.26554 0.0
C722 C 0.71706 0.68563 0.21716 0.0
C723 C 0.75932 0.63505 0.18172 0.0
N724 N 0.64794 0.66394 0.24937 0.0
N725 N 0.72836 0.62591 0.20022 0.0
H726 H 0.5877 0.39884 0.50114 0.0
H727 H 0.63711 0.57157 0.39005 0.0
H728 H 0.70208 0.41938 0.46902 0.0
H729 H 0.52374 0.53854 0.41359 0.0
H730 H 0.66352 0.52086 0.42424 0.0
H731 H 0.56585 0.45432 0.47461 0.0
C732 C 0.60832 0.41512 0.48856 0.0
C733 C 0.64674 0.40421 0.48709 0.0
C734 C 0.63288 0.52503 0.42214 0.0
C735 C 0.62177 0.46838 0.45626 0.0
C736 C 0.61784 0.55412 0.4029 0.0
C737 C 0.57814 0.55925 0.39878 0.0
C738 C 0.60797 0.50124 0.43762 0.0
C739 C 0.55452 0.53553 0.4157 0.0
C740 C 0.5958 0.44694 0.47333 0.0
C741 C 0.67214 0.4267 0.47061 0.0
N742 N 0.56971 0.50776 0.43412 0.0
N743 N 0.65921 0.45762 0.45566 0.0
H744 H 0.29461 0.38932 0.05233 0.0
H745 H 0.38271 0.25204 0.18743 0.0
H746 H 0.2349 0.3585 0.1445 0.0
H747 H 0.39891 0.23541 0.07674 0.0
H748 H 0.33486 0.29787 0.17342 0.0
H749 H 0.33911 0.3388 0.06137 0.0
C750 C 0.29075 0.37175 0.07427 0.0
C751 C 0.2612 0.37794 0.09777 0.0
C752 C 0.34882 0.28416 0.15219 0.0
C753 C 0.31201 0.32107 0.10855 0.0
C754 C 0.37635 0.25823 0.16011 0.0
C755 C 0.39492 0.24009 0.13315 0.0
C756 C 0.3403 0.29268 0.11704 0.0
C757 C 0.38515 0.24883 0.09823 0.0
C758 C 0.31597 0.343 0.0793 0.0
C759 C 0.25728 0.35454 0.12578 0.0
N760 N 0.35873 0.27494 0.0911 0.0
N761 N 0.28275 0.32741 0.1307 0.0
H762 H 0.8369 0.30765 0.80284 0.0
H763 H 0.7977 0.17453 0.96066 0.0
H764 H 0.87877 0.32786 0.90814 0.0
H765 H 0.78758 0.14979 0.85047 0.0
H766 H 0.81861 0.23411 0.94508 0.0
H767 H 0.80749 0.25436 0.82328 0.0
C768 C 0.83947 0.3011 0.83048 0.0
C769 C 0.86065 0.32217 0.85373 0.0
C770 C 0.81148 0.21563 0.92441 0.0
C771 C 0.82735 0.26027 0.87744 0.0
C772 C 0.79959 0.18169 0.93326 0.0
C773 C 0.7905 0.15728 0.90679 0.0
C774 C 0.81388 0.22514 0.88886 0.0
C775 C 0.7936 0.16785 0.87175 0.0
C776 C 0.8228 0.27046 0.84214 0.0
C777 C 0.86261 0.31243 0.88935 0.0
N778 N 0.80487 0.20082 0.86389 0.0
N779 N 0.84655 0.28189 0.9001 0.0
H780 H 0.03659 0.45722 0.1333 0.0
H781 H 0.01228 0.66491 0.15432 0.0
H782 H 0.13089 0.52807 0.14119 0.0
H783 H 0.91745 0.59497 0.14631 0.0
H784 H 0.05594 0.61416 0.16005 0.0
H785 H 0.99258 0.50634 0.14502 0.0
C786 C 0.04799 0.48322 0.13736 0.0
C787 C 0.08736 0.48873 0.1361 0.0
C788 C 0.02556 0.60978 0.15791 0.0
C789 C 0.03723 0.54496 0.14997 0.0
C790 C 1.00062 0.63875 0.15514 0.0
C791 C 0.96137 0.63392 0.14989 0.0
C792 C 0.01111 0.57575 0.15475 0.0
C793 C 0.94756 0.59966 0.15067 0.0
C794 C 0.02288 0.51118 0.14434 0.0
C795 C 0.10068 0.52281 0.14174 0.0
N796 N 0.97254 0.57173 0.15227 0.0
N797 N 0.07561 0.54969 0.14834 0.0
H798 H 0.7191 0.89198 0.44755 0.0
H799 H 0.66425 0.72573 0.33117 0.0
H800 H 0.7558 0.87827 0.34113 0.0
H801 H 0.58917 0.76604 0.41033 0.0
H802 H 0.70459 0.77712 0.33996 0.0
H803 H 0.6759 0.84235 0.43914 0.0
C804 C 0.71774 0.87881 0.42235 0.0
C805 C 0.74114 0.88917 0.39506 0.0
C806 C 0.67933 0.77464 0.35546 0.0
C807 C 0.69281 0.83205 0.38562 0.0
C808 C 0.65654 0.74522 0.35067 0.0
C809 C 0.62344 0.74172 0.3701 0.0
C810 C 0.6693 0.80038 0.3803 0.0
C811 C 0.6145 0.76785 0.39483 0.0
C812 C 0.69324 0.85049 0.41761 0.0
C813 C 0.73837 0.87113 0.36293 0.0
N814 N 0.63741 0.79603 0.39939 0.0
N815 N 0.71507 0.8432 0.35926 0.0
H816 H 0.55004 0.43711 0.62562 0.0
H817 H 0.32924 0.47451 0.60518 0.0
H818 H 0.47635 0.36307 0.57344 0.0
H819 H 0.38934 0.50288 0.70085 0.0
H820 H 0.38411 0.43801 0.58859 0.0
H821 H 0.49313 0.46776 0.64864 0.0
C822 C 0.52193 0.42746 0.61895 0.0
C823 C 0.51771 0.39766 0.59761 0.0
C824 C 0.38499 0.45174 0.61351 0.0
C825 C 0.45309 0.43242 0.62337 0.0
C826 C 0.35349 0.47227 0.62318 0.0
C827 C 0.35433 0.49125 0.65474 0.0
C828 C 0.41812 0.4511 0.63498 0.0
C829 C 0.38726 0.4883 0.67649 0.0
C830 C 0.48963 0.44469 0.63227 0.0
C831 C 0.48076 0.38598 0.58985 0.0
N832 N 0.41817 0.46909 0.66592 0.0
N833 N 0.44985 0.40359 0.60239 0.0
H834 H 0.26736 0.65458 0.63985 0.0
H835 H 0.09127 0.79285 0.63773 0.0
H836 H 0.15301 0.62625 0.60858 0.0
H837 H 0.20126 0.81261 0.68556 0.0
H838 H 0.11543 0.73523 0.61754 0.0
H839 H 0.24529 0.715 0.64885 0.0
C840 C 0.23743 0.66105 0.63505 0.0
C841 C 0.21187 0.63516 0.62389 0.0
C842 C 0.13458 0.7525 0.63169 0.0
C843 C 0.18635 0.70497 0.63366 0.0
C844 C 0.121 0.78558 0.64267 0.0
C845 C 0.14473 0.80778 0.66241 0.0
C846 C 0.17208 0.74151 0.64085 0.0
C847 C 0.18247 0.79662 0.66954 0.0
C848 C 0.22488 0.69572 0.64002 0.0
C849 C 0.17358 0.64533 0.61748 0.0
N850 N 0.19492 0.76423 0.65892 0.0
N851 N 0.16192 0.67949 0.62254 0.0
H852 H 0.48787 0.93865 0.95934 0.0
H853 H 0.70194 0.97577 0.90161 0.0
H854 H 0.57182 0.855 0.94752 0.0
H855 H 0.60779 0.05068 0.89434 0.0
H856 H 0.65876 0.93246 0.92662 0.0
H857 H 0.53565 0.9814 0.94451 0.0
C858 C 0.51655 0.9293 0.95385 0.0
C859 C 0.52583 0.89323 0.95432 0.0
C860 C 0.64773 0.95847 0.9197 0.0
C861 C 0.5809 0.94217 0.93694 0.0
C862 C 0.67235 0.98317 0.90563 0.0
C863 C 0.65829 0.01673 0.89582 0.0
C864 C 0.60903 0.96771 0.92418 0.0
C865 C 0.61973 0.02499 0.90127 0.0
C866 C 0.54386 0.95374 0.94529 0.0
C867 C 0.56353 0.88263 0.94729 0.0
N868 N 0.59655 1.00073 0.915 0.0
N869 N 0.58971 0.907 0.9386 0.0
H870 H 0.92352 1.00802 0.30794 0.0
H871 H 0.0508 0.08763 0.4653 0.0
H872 H 0.89451 1.00949 0.41718 0.0
H873 H 0.07331 0.1108 0.35712 0.0
H874 H 1.00007 0.04902 0.4463 0.0
H875 H 0.98352 0.03788 0.32353 0.0
C876 C 0.92996 0.01425 0.33516 0.0
C877 C 0.90432 1.00579 0.36142 0.0
C878 C 0.01612 0.06227 0.42652 0.0
C879 C 0.97245 0.03945 0.37934 0.0
C880 C 0.04526 0.08427 0.4374 0.0
C881 C 0.06598 0.10276 0.41276 0.0
C882 C 1.00704 0.05886 0.39061 0.0
C883 C 0.05791 0.09698 0.37694 0.0
C884 C 0.9641 0.03121 0.34401 0.0
C885 C 0.91379 0.01463 0.3962 0.0
N886 N 0.0286 0.07583 0.36685 0.0
N887 N 0.94693 0.03086 0.40407 0.0
loop_
_geom_bond_atom_site_label_1
_geom_bond_atom_site_label_2
_geom_bond_distance
_geom_bond_site_symmetry_2
_ccdc_geom_bond_type
Tb0 O3 2.453 . S
Tb0 O4 2.596 . S
Tb0 O5 2.374 . S
Tb0 O13 2.343 . S
Tb0 O15 2.353 . S
Tb0 O17 2.427 . S
Tb0 O18 2.513 . S
C1 O5 1.251 . S
C1 O7 1.263 . S
Tb2 O4 2.343 . S
Tb2 O7 2.353 . S
Tb2 O10 2.427 . S
Tb2 O11 2.513 . S
Tb2 O12 2.453 . S
Tb2 O13 2.596 . S
Tb2 O14 2.374 . S
O3 Tb0 2.453 . S
O3 C19 1.245 . S
O4 Tb0 2.596 . S
O4 Tb2 2.343 . S
O4 C19 1.259 . S
O5 Tb0 2.374 . S
O5 C1 1.251 . S
C6 O10 1.275 . S
C6 O11 1.246 . S
O7 C1 1.263 . S
O7 Tb2 2.353 . S
C8 O12 1.245 . S
C8 O13 1.259 . S
C9 O14 1.250 . S
C9 O15 1.263 . S
O10 Tb2 2.427 . S
O10 C6 1.275 . S
O11 Tb2 2.513 . S
O11 C6 1.246 . S
O12 Tb2 2.453 . S
O12 C8 1.245 . S
O13 Tb0 2.343 . S
O13 Tb2 2.596 . S
O13 C8 1.259 . S
O14 Tb2 2.374 . S
O14 C9 1.250 . S
O15 Tb0 2.353 . S
O15 C9 1.263 . S
C16 O17 1.275 . S
C16 O18 1.246 . S
O17 Tb0 2.427 . S
O17 C16 1.275 . S
O18 Tb0 2.513 . S
O18 C16 1.246 . S
C19 O3 1.245 . S
C19 O4 1.259 . S
Tb20 O23 2.453 . S
Tb20 O24 2.596 . S
Tb20 O25 2.374 . S
Tb20 O33 2.343 . S
Tb20 O35 2.353 . S
Tb20 O37 2.427 . S
Tb20 O38 2.513 . S
C21 O25 1.251 . S
C21 O27 1.263 . S
Tb22 O24 2.343 . S
Tb22 O27 2.353 . S
Tb22 O30 2.427 . S
Tb22 O31 2.513 . S
Tb22 O32 2.453 . S
Tb22 O33 2.596 . S
Tb22 O34 2.374 . S
O23 Tb20 2.453 . S
O23 C39 1.245 . S
O24 Tb20 2.596 . S
O24 Tb22 2.343 . S
O24 C39 1.259 . S
O25 Tb20 2.374 . S
O25 C21 1.251 . S
C26 O30 1.275 . S
C26 O31 1.246 . S
O27 C21 1.263 . S
O27 Tb22 2.353 . S
C28 O32 1.245 . S
C28 O33 1.259 . S
C29 O34 1.250 . S
C29 O35 1.263 . S
O30 Tb22 2.427 . S
O30 C26 1.275 . S
O31 Tb22 2.513 . S
O31 C26 1.246 . S
O32 Tb22 2.453 . S
O32 C28 1.245 . S
O33 Tb20 2.343 . S
O33 Tb22 2.596 . S
O33 C28 1.259 . S
O34 Tb22 2.374 . S
O34 C29 1.250 . S
O35 Tb20 2.353 . S
O35 C29 1.263 . S
C36 O37 1.275 . S
C36 O38 1.246 . S
O37 Tb20 2.427 . S
O37 C36 1.275 . S
O38 Tb20 2.513 . S
O38 C36 1.246 . S
C39 O23 1.245 . S
C39 O24 1.259 . S
Tb40 O43 2.453 . S
Tb40 O44 2.596 . S
Tb40 O45 2.374 . S
Tb40 O53 2.343 . S
Tb40 O55 2.353 . S
Tb40 O57 2.427 . S
Tb40 O58 2.513 . S
C41 O45 1.251 . S
C41 O47 1.263 . S
Tb42 O44 2.343 . S
Tb42 O47 2.353 . S
Tb42 O50 2.427 . S
Tb42 O51 2.513 . S
Tb42 O52 2.453 1_556 S
Tb42 O53 2.596 . S
Tb42 O54 2.374 1_556 S
O43 Tb40 2.453 . S
O43 C59 1.245 . S
O44 Tb40 2.596 . S
O44 Tb42 2.343 . S
O44 C59 1.259 . S
O45 Tb40 2.374 . S
O45 C41 1.251 . S
C46 O50 1.275 . S
C46 O51 1.246 . S
O47 C41 1.263 . S
O47 Tb42 2.353 . S
C48 O52 1.243 1_556 S
C48 O53 1.262 . S
C49 O54 1.250 . S
C49 O55 1.263 1_554 S
O50 Tb42 2.427 . S
O50 C46 1.275 . S
O51 Tb42 2.513 . S
O51 C46 1.246 . S
O52 Tb42 2.453 1_554 S
O52 C48 1.243 1_554 S
O53 Tb40 2.343 . S
O53 Tb42 2.596 . S
O53 C48 1.262 . S
O54 Tb42 2.374 1_554 S
O54 C49 1.250 . S
O55 Tb40 2.353 . S
O55 C49 1.263 1_556 S
C56 O57 1.275 . S
C56 O58 1.246 . S
O57 Tb40 2.427 . S
O57 C56 1.275 . S
O58 Tb40 2.513 . S
O58 C56 1.246 . S
C59 O43 1.245 . S
C59 O44 1.259 . S
Tb60 O63 2.453 . S
Tb60 O64 2.596 . S
Tb60 O65 2.374 . S
Tb60 O73 2.343 . S
Tb60 O75 2.353 . S
Tb60 O77 2.427 . S
Tb60 O78 2.513 . S
C61 O65 1.251 . S
C61 O67 1.263 . S
Tb62 O64 2.343 . S
Tb62 O67 2.353 . S
Tb62 O70 2.427 . S
Tb62 O71 2.513 . S
Tb62 O72 2.453 . S
Tb62 O73 2.596 . S
Tb62 O74 2.374 . S
O63 Tb60 2.453 . S
O63 C79 1.245 . S
O64 Tb60 2.596 . S
O64 Tb62 2.343 . S
O64 C79 1.259 . S
O65 Tb60 2.374 . S
O65 C61 1.251 . S
C66 O70 1.275 . S
C66 O71 1.246 . S
O67 C61 1.263 . S
O67 Tb62 2.353 . S
C68 O72 1.245 . S
C68 O73 1.259 . S
C69 O74 1.250 . S
C69 O75 1.263 . S
O70 Tb62 2.427 . S
O70 C66 1.275 . S
O71 Tb62 2.513 . S
O71 C66 1.246 . S
O72 Tb62 2.453 . S
O72 C68 1.245 . S
O73 Tb60 2.343 . S
O73 Tb62 2.596 . S
O73 C68 1.259 . S
O74 Tb62 2.374 . S
O74 C69 1.250 . S
O75 Tb60 2.353 . S
O75 C69 1.263 . S
C76 O77 1.275 . S
C76 O78 1.246 . S
O77 Tb60 2.427 . S
O77 C76 1.275 . S
O78 Tb60 2.513 . S
O78 C76 1.246 . S
C79 O63 1.245 . S
C79 O64 1.259 . S
Tb80 O83 2.453 . S
Tb80 O84 2.596 . S
Tb80 O85 2.374 . S
Tb80 O93 2.343 . S
Tb80 O95 2.353 . S
Tb80 O97 2.427 . S
Tb80 O98 2.513 . S
C81 O85 1.251 . S
C81 O87 1.263 . S
Tb82 O84 2.343 . S
Tb82 O87 2.353 . S
Tb82 O90 2.427 . S
Tb82 O91 2.513 . S
Tb82 O92 2.453 . S
Tb82 O93 2.596 . S
Tb82 O94 2.374 . S
O83 Tb80 2.453 . S
O83 C99 1.245 . S
O84 Tb80 2.596 . S
O84 Tb82 2.343 . S
O84 C99 1.259 . S
O85 Tb80 2.374 . S
O85 C81 1.251 . S
C86 O90 1.275 . S
C86 O91 1.246 . S
O87 C81 1.263 . S
O87 Tb82 2.353 . S
C88 O92 1.245 . S
C88 O93 1.259 . S
C89 O94 1.250 . S
C89 O95 1.263 . S
O90 Tb82 2.427 . S
O90 C86 1.275 . S
O91 Tb82 2.513 . S
O91 C86 1.246 . S
O92 Tb82 2.453 . S
O92 C88 1.245 . S
O93 Tb80 2.343 . S
O93 Tb82 2.596 . S
O93 C88 1.259 . S
O94 Tb82 2.374 . S
O94 C89 1.250 . S
O95 Tb80 2.353 . S
O95 C89 1.263 . S
C96 O97 1.275 . S
C96 O98 1.246 . S
O97 Tb80 2.427 . S
O97 C96 1.275 . S
O98 Tb80 2.513 . S
O98 C96 1.246 . S
C99 O83 1.245 . S
C99 O84 1.259 . S
Tb100 O103 2.453 . S
Tb100 O104 2.596 . S
Tb100 O105 2.374 . S
Tb100 O113 2.343 . S
Tb100 O115 2.353 . S
Tb100 O117 2.427 . S
Tb100 O118 2.513 . S
C101 O105 1.251 . S
C101 O107 1.263 . S
Tb102 O104 2.343 . S
Tb102 O107 2.353 . S
Tb102 O110 2.427 . S
Tb102 O111 2.513 . S
Tb102 O112 2.453 1_655 S
Tb102 O113 2.596 . S
Tb102 O114 2.374 . S
O103 Tb100 2.453 . S
O103 C119 1.245 . S
O104 Tb100 2.596 . S
O104 Tb102 2.343 . S
O104 C119 1.259 . S
O105 Tb100 2.374 . S
O105 C101 1.251 . S
C106 O110 1.275 . S
C106 O111 1.246 . S
O107 C101 1.263 . S
O107 Tb102 2.353 . S
C108 O112 1.245 1_655 S
C108 O113 1.259 . S
C109 O114 1.250 . S
C109 O115 1.263 . S
O110 Tb102 2.427 . S
O110 C106 1.275 . S
O111 Tb102 2.513 . S
O111 C106 1.246 . S
O112 Tb102 2.453 1_455 S
O112 C108 1.245 1_455 S
O113 Tb100 2.343 . S
O113 Tb102 2.596 . S
O113 C108 1.259 . S
O114 Tb102 2.374 . S
O114 C109 1.250 . S
O115 Tb100 2.353 . S
O115 C109 1.263 . S
C116 O117 1.275 . S
C116 O118 1.246 . S
O117 Tb100 2.427 . S
O117 C116 1.275 . S
O118 Tb100 2.513 . S
O118 C116 1.246 . S
C119 O103 1.245 . S
C119 O104 1.259 . S
Tb120 O123 2.453 . S
Tb120 O124 2.596 . S
Tb120 O125 2.374 . S
Tb120 O133 2.343 . S
Tb120 O135 2.353 . S
Tb120 O137 2.427 . S
Tb120 O138 2.513 . S
C121 O125 1.251 . S
C121 O127 1.263 . S
Tb122 O124 2.343 . S
Tb122 O127 2.353 . S
Tb122 O130 2.427 . S
Tb122 O131 2.513 . S
Tb122 O132 2.453 . S
Tb122 O133 2.596 . S
Tb122 O134 2.374 . S
O123 Tb120 2.453 . S
O123 C139 1.245 . S
O124 Tb120 2.596 . S
O124 Tb122 2.343 . S
O124 C139 1.259 . S
O125 Tb120 2.374 . S
O125 C121 1.251 . S
C126 O130 1.275 . S
C126 O131 1.246 . S
O127 C121 1.263 . S
O127 Tb122 2.353 . S
C128 O132 1.245 . S
C128 O133 1.259 . S
C129 O134 1.250 . S
C129 O135 1.263 . S
O130 Tb122 2.427 . S
O130 C126 1.275 . S
O131 Tb122 2.513 . S
O131 C126 1.246 . S
O132 Tb122 2.453 . S
O132 C128 1.245 . S
O133 Tb120 2.343 . S
O133 Tb122 2.596 . S
O133 C128 1.259 . S
O134 Tb122 2.374 . S
O134 C129 1.250 . S
O135 Tb120 2.353 . S
O135 C129 1.263 . S
C136 O137 1.275 . S
C136 O138 1.246 . S
O137 Tb120 2.427 . S
O137 C136 1.275 . S
O138 Tb120 2.513 . S
O138 C136 1.246 . S
C139 O123 1.245 . S
C139 O124 1.259 . S
Tb140 O143 2.453 . S
Tb140 O144 2.596 . S
Tb140 O145 2.374 . S
Tb140 O153 2.343 . S
Tb140 O155 2.353 . S
Tb140 O157 2.427 . S
Tb140 O158 2.513 . S
C141 O145 1.251 . S
C141 O147 1.263 . S
Tb142 O144 2.343 . S
Tb142 O147 2.353 . S
Tb142 O150 2.427 . S
Tb142 O151 2.513 . S
Tb142 O152 2.453 . S
Tb142 O153 2.596 . S
Tb142 O154 2.374 . S
O143 Tb140 2.453 . S
O143 C159 1.245 . S
O144 Tb140 2.596 . S
O144 Tb142 2.343 . S
O144 C159 1.259 . S
O145 Tb140 2.374 . S
O145 C141 1.251 . S
C146 O150 1.275 . S
C146 O151 1.246 . S
O147 C141 1.263 . S
O147 Tb142 2.353 . S
C148 O152 1.245 . S
C148 O153 1.259 . S
C149 O154 1.250 . S
C149 O155 1.263 . S
O150 Tb142 2.427 . S
O150 C146 1.275 . S
O151 Tb142 2.513 . S
O151 C146 1.246 . S
O152 Tb142 2.453 . S
O152 C148 1.245 . S
O153 Tb140 2.343 . S
O153 Tb142 2.596 . S
O153 C148 1.259 . S
O154 Tb142 2.374 . S
O154 C149 1.250 . S
O155 Tb140 2.353 . S
O155 C149 1.263 . S
C156 O157 1.275 . S
C156 O158 1.246 . S
O157 Tb140 2.427 . S
O157 C156 1.275 . S
O158 Tb140 2.513 . S
O158 C156 1.246 . S
C159 O143 1.245 . S
C159 O144 1.259 . S
Tb160 O163 2.453 . S
Tb160 O164 2.596 . S
Tb160 O165 2.374 . S
Tb160 O173 2.343 . S
Tb160 O175 2.353 . S
Tb160 O177 2.427 . S
Tb160 O178 2.513 . S
C161 O165 1.251 . S
C161 O167 1.263 . S
Tb162 O164 2.343 . S
Tb162 O167 2.353 . S
Tb162 O170 2.427 . S
Tb162 O171 2.513 . S
Tb162 O172 2.453 . S
Tb162 O173 2.596 . S
Tb162 O174 2.374 . S
O163 Tb160 2.453 . S
O163 C179 1.245 . S
O164 Tb160 2.596 . S
O164 Tb162 2.343 . S
O164 C179 1.259 . S
O165 Tb160 2.374 . S
O165 C161 1.251 . S
C166 O170 1.275 . S
C166 O171 1.246 . S
O167 C161 1.263 . S
O167 Tb162 2.353 . S
C168 O172 1.245 . S
C168 O173 1.259 . S
C169 O174 1.250 . S
C169 O175 1.263 . S
O170 Tb162 2.427 . S
O170 C166 1.275 . S
O171 Tb162 2.513 . S
O171 C166 1.246 . S
O172 Tb162 2.453 . S
O172 C168 1.245 . S
O173 Tb160 2.343 . S
O173 Tb162 2.596 . S
O173 C168 1.259 . S
O174 Tb162 2.374 . S
O174 C169 1.250 . S
O175 Tb160 2.353 . S
O175 C169 1.263 . S
C176 O177 1.275 . S
C176 O178 1.246 . S
O177 Tb160 2.427 . S
O177 C176 1.275 . S
O178 Tb160 2.513 . S
O178 C176 1.246 . S
C179 O163 1.245 . S
C179 O164 1.259 . S
Tb180 O183 2.453 . S
Tb180 O184 2.596 . S
Tb180 O185 2.374 . S
Tb180 O193 2.343 . S
Tb180 O195 2.353 . S
Tb180 O197 2.427 . S
Tb180 O198 2.513 . S
C181 O185 1.251 . S
C181 O187 1.263 . S
Tb182 O184 2.343 . S
Tb182 O187 2.353 . S
Tb182 O190 2.427 . S
Tb182 O191 2.513 1_545 S
Tb182 O192 2.453 . S
Tb182 O193 2.596 . S
Tb182 O194 2.374 . S
O183 Tb180 2.453 . S
O183 C199 1.242 1_545 S
O184 Tb180 2.596 . S
O184 Tb182 2.343 . S
O184 C199 1.245 1_545 S
O185 Tb180 2.374 . S
O185 C181 1.251 . S
C186 O190 1.275 1_565 S
C186 O191 1.246 . S
O187 C181 1.263 . S
O187 Tb182 2.353 . S
C188 O192 1.245 . S
C188 O193 1.259 . S
C189 O194 1.250 . S
C189 O195 1.263 . S
O190 Tb182 2.427 . S
O190 C186 1.275 1_545 S
O191 Tb182 2.513 1_565 S
O191 C186 1.246 . S
O192 Tb182 2.453 . S
O192 C188 1.245 . S
O193 Tb180 2.343 . S
O193 Tb182 2.596 . S
O193 C188 1.259 . S
O194 Tb182 2.374 . S
O194 C189 1.250 . S
O195 Tb180 2.353 . S
O195 C189 1.263 . S
C196 O197 1.275 . S
C196 O198 1.246 . S
O197 Tb180 2.427 . S
O197 C196 1.275 . S
O198 Tb180 2.513 . S
O198 C196 1.246 . S
C199 O183 1.242 1_565 S
C199 O184 1.245 1_565 S
Tb200 O203 2.453 . S
Tb200 O204 2.596 . S
Tb200 O205 2.374 . S
Tb200 O213 2.343 . S
Tb200 O215 2.353 . S
Tb200 O217 2.427 . S
Tb200 O218 2.513 . S
C201 O205 1.251 . S
C201 O207 1.263 . S
Tb202 O204 2.343 . S
Tb202 O207 2.353 . S
Tb202 O210 2.427 . S
Tb202 O211 2.513 . S
Tb202 O212 2.453 1_565 S
Tb202 O213 2.596 . S
Tb202 O214 2.374 1_565 S
O203 Tb200 2.453 . S
O203 C219 1.245 . S
O204 Tb200 2.596 . S
O204 Tb202 2.343 . S
O204 C219 1.259 . S
O205 Tb200 2.374 . S
O205 C201 1.251 . S
C206 O210 1.275 . S
C206 O211 1.246 . S
O207 C201 1.263 . S
O207 Tb202 2.353 . S
C208 O212 1.245 1_565 S
C208 O213 1.259 . S
C209 O214 1.250 1_565 S
C209 O215 1.263 . S
O210 Tb202 2.427 . S
O210 C206 1.275 . S
O211 Tb202 2.513 . S
O211 C206 1.246 . S
O212 Tb202 2.453 1_545 S
O212 C208 1.245 1_545 S
O213 Tb200 2.343 . S
O213 Tb202 2.596 . S
O213 C208 1.259 . S
O214 Tb202 2.374 1_545 S
O214 C209 1.250 1_545 S
O215 Tb200 2.353 . S
O215 C209 1.263 . S
C216 O217 1.275 . S
C216 O218 1.246 . S
O217 Tb200 2.427 . S
O217 C216 1.275 . S
O218 Tb200 2.513 . S
O218 C216 1.246 . S
C219 O203 1.245 . S
C219 O204 1.259 . S
Tb220 O223 2.453 . S
Tb220 O224 2.596 . S
Tb220 O225 2.374 . S
Tb220 O233 2.343 . S
Tb220 O235 2.353 . S
Tb220 O237 2.427 . S
Tb220 O238 2.513 . S
C221 O225 1.251 . S
C221 O227 1.263 . S
Tb222 O224 2.343 . S
Tb222 O227 2.353 . S
Tb222 O230 2.427 . S
Tb222 O231 2.513 . S
Tb222 O232 2.453 . S
Tb222 O233 2.596 . S
Tb222 O234 2.374 . S
O223 Tb220 2.453 . S
O223 C239 1.245 . S
O224 Tb220 2.596 . S
O224 Tb222 2.343 . S
O224 C239 1.259 . S
O225 Tb220 2.374 . S
O225 C221 1.251 . S
C226 O230 1.275 . S
C226 O231 1.246 . S
O227 C221 1.263 . S
O227 Tb222 2.353 . S
C228 O232 1.245 . S
C228 O233 1.259 . S
C229 O234 1.250 . S
C229 O235 1.263 . S
O230 Tb222 2.427 . S
O230 C226 1.275 . S
O231 Tb222 2.513 . S
O231 C226 1.246 . S
O232 Tb222 2.453 . S
O232 C228 1.245 . S
O233 Tb220 2.343 . S
O233 Tb222 2.596 . S
O233 C228 1.259 . S
O234 Tb222 2.374 . S
O234 C229 1.250 . S
O235 Tb220 2.353 . S
O235 C229 1.263 . S
C236 O237 1.275 . S
C236 O238 1.246 . S
O237 Tb220 2.427 . S
O237 C236 1.275 . S
O238 Tb220 2.513 . S
O238 C236 1.246 . S
C239 O223 1.245 . S
C239 O224 1.259 . S
H240 C246 0.930 . S
H241 C250 0.930 . S
H242 C255 0.929 . S
H243 C253 0.929 . S
H244 C248 0.929 . S
H245 C254 0.929 . S
C246 H240 0.930 . S
C246 C247 1.367 . S
C246 C254 1.378 . S
C247 C246 1.367 . S
C247 C255 1.433 . S
C248 H244 0.929 . S
C248 C250 1.378 . S
C248 C252 1.350 . S
C249 C252 1.463 . S
C249 C254 1.350 . S
C249 N257 1.427 . S
C250 H241 0.930 . S
C250 C248 1.378 . S
C250 C251 1.367 . S
C251 C250 1.367 . S
C251 C253 1.433 . S
C252 C248 1.350 . S
C252 C249 1.463 . S
C252 N256 1.427 . S
C253 H243 0.929 . S
C253 C251 1.433 . S
C253 N256 1.384 . S
C254 H245 0.929 . S
C254 C246 1.378 . S
C254 C249 1.350 . S
C255 H242 0.929 . S
C255 C247 1.433 . S
C255 N257 1.384 . S
N256 C252 1.427 . S
N256 C253 1.384 . S
N257 C249 1.427 . S
N257 C255 1.384 . S
H258 C264 0.930 . S
H259 C268 0.930 . S
H260 C273 0.929 . S
H261 C271 0.929 . S
H262 C266 0.929 . S
H263 C272 0.929 . S
C264 H258 0.930 . S
C264 C265 1.367 . S
C264 C272 1.378 . S
C265 C264 1.367 . S
C265 C273 1.433 1_545 S
C266 H262 0.929 . S
C266 C268 1.378 . S
C266 C270 1.350 . S
C267 C270 1.463 . S
C267 C272 1.350 1_565 S
C267 N275 1.427 . S
C268 H259 0.930 . S
C268 C266 1.378 . S
C268 C269 1.367 . S
C269 C268 1.367 . S
C269 C271 1.433 . S
C270 C266 1.350 . S
C270 C267 1.463 . S
C270 N274 1.427 . S
C271 H261 0.929 . S
C271 C269 1.433 . S
C271 N274 1.384 . S
C272 H263 0.929 . S
C272 C264 1.378 . S
C272 C267 1.350 1_545 S
C273 H260 0.929 . S
C273 C265 1.433 1_565 S
C273 N275 1.384 . S
N274 C270 1.427 . S
N274 C271 1.384 . S
N275 C267 1.427 . S
N275 C273 1.384 . S
H276 C282 0.930 . S
H277 C286 0.930 . S
H278 C291 0.929 . S
H279 C289 0.929 . S
H280 C284 0.929 . S
H281 C290 0.929 . S
C282 H276 0.930 . S
C282 C283 1.367 . S
C282 C290 1.378 . S
C283 C282 1.367 . S
C283 C291 1.433 . S
C284 H280 0.929 . S
C284 C286 1.378 . S
C284 C288 1.350 . S
C285 C288 1.463 . S
C285 C290 1.350 1_554 S
C285 N293 1.427 . S
C286 H277 0.930 . S
C286 C284 1.378 . S
C286 C287 1.367 . S
C287 C286 1.367 . S
C287 C289 1.433 . S
C288 C284 1.350 . S
C288 C285 1.463 . S
C288 N292 1.427 . S
C289 H279 0.929 . S
C289 C287 1.433 . S
C289 N292 1.384 . S
C290 H281 0.929 . S
C290 C282 1.378 . S
C290 C285 1.350 1_556 S
C291 H278 0.929 . S
C291 C283 1.433 . S
C291 N293 1.384 1_556 S
N292 C288 1.427 . S
N292 C289 1.384 . S
N293 C285 1.427 . S
N293 C291 1.384 1_554 S
H294 C300 0.930 . S
H295 C304 0.930 . S
H296 C309 0.929 . S
H297 C307 0.929 . S
H298 C302 0.929 . S
H299 C308 0.929 . S
C300 H294 0.930 . S
C300 C301 1.367 . S
C300 C308 1.378 . S
C301 C300 1.367 . S
C301 C309 1.433 . S
C302 H298 0.929 . S
C302 C304 1.378 . S
C302 C306 1.350 . S
C303 C306 1.463 . S
C303 C308 1.350 . S
C303 N311 1.427 . S
C304 H295 0.930 . S
C304 C302 1.378 . S
C304 C305 1.367 1_545 S
C305 C304 1.367 1_565 S
C305 C307 1.433 . S
C306 C302 1.350 . S
C306 C303 1.463 . S
C306 N310 1.427 1_545 S
C307 H297 0.929 . S
C307 C305 1.433 . S
C307 N310 1.384 . S
C308 H299 0.929 . S
C308 C300 1.378 . S
C308 C303 1.350 . S
C309 H296 0.929 . S
C309 C301 1.433 . S
C309 N311 1.384 . S
N310 C306 1.427 1_565 S
N310 C307 1.384 . S
N311 C303 1.427 . S
N311 C309 1.384 . S
H312 C318 0.930 . S
H313 C322 0.930 . S
H314 C327 0.929 . S
H315 C325 0.929 . S
H316 C320 0.929 . S
H317 C326 0.929 . S
C318 H312 0.930 . S
C318 C319 1.367 . S
C318 C326 1.378 . S
C319 C318 1.367 . S
C319 C327 1.433 . S
C320 H316 0.929 . S
C320 C322 1.378 . S
C320 C324 1.350 . S
C321 C324 1.463 . S
C321 C326 1.350 . S
C321 N329 1.427 . S
C322 H313 0.930 . S
C322 C320 1.378 . S
C322 C323 1.367 . S
C323 C322 1.367 . S
C323 C325 1.433 . S
C324 C320 1.350 . S
C324 C321 1.463 . S
C324 N328 1.427 . S
C325 H315 0.929 . S
C325 C323 1.433 . S
C325 N328 1.384 . S
C326 H317 0.929 . S
C326 C318 1.378 . S
C326 C321 1.350 . S
C327 H314 0.929 . S
C327 C319 1.433 . S
C327 N329 1.384 . S
N328 C324 1.427 . S
N328 C325 1.384 . S
N329 C321 1.427 . S
N329 C327 1.384 . S
H330 C336 0.930 . S
H331 C340 0.930 . S
H332 C345 0.929 . S
H333 C343 0.929 . S
H334 C338 0.929 . S
H335 C344 0.929 . S
C336 H330 0.930 . S
C336 C337 1.367 . S
C336 C344 1.378 . S
C337 C336 1.367 . S
C337 C345 1.433 . S
C338 H334 0.929 . S
C338 C340 1.378 . S
C338 C342 1.350 . S
C339 C342 1.463 . S
C339 C344 1.350 . S
C339 N347 1.427 . S
C340 H331 0.930 . S
C340 C338 1.378 . S
C340 C341 1.367 . S
C341 C340 1.367 . S
C341 C343 1.433 . S
C342 C338 1.350 . S
C342 C339 1.463 . S
C342 N346 1.427 . S
C343 H333 0.929 . S
C343 C341 1.433 . S
C343 N346 1.384 . S
C344 H335 0.929 . S
C344 C336 1.378 . S
C344 C339 1.350 . S
C345 H332 0.929 . S
C345 C337 1.433 . S
C345 N347 1.384 . S
N346 C342 1.427 . S
N346 C343 1.384 . S
N347 C339 1.427 . S
N347 C345 1.384 . S
H348 C354 0.927 1_554 S
H349 C358 0.930 . S
H350 C363 0.929 . S
H351 C361 0.929 . S
H352 C356 0.924 1_556 S
H353 C362 0.929 . S
C354 H348 0.927 1_556 S
C354 C355 1.373 . S
C354 C362 1.375 1_556 S
C355 C354 1.373 . S
C355 C363 1.433 . S
C356 H352 0.924 1_554 S
C356 C358 1.380 . S
C356 C360 1.352 . S
C357 C360 1.465 . S
C357 C362 1.353 . S
C357 N365 1.421 1_554 S
C358 H349 0.930 . S
C358 C356 1.380 . S
C358 C359 1.367 . S
C359 C358 1.367 . S
C359 C361 1.433 . S
C360 C356 1.352 . S
C360 C357 1.465 . S
C360 N364 1.427 . S
C361 H351 0.929 . S
C361 C359 1.433 . S
C361 N364 1.384 . S
C362 H353 0.929 . S
C362 C354 1.375 1_554 S
C362 C357 1.353 . S
C363 H350 0.929 . S
C363 C355 1.433 . S
C363 N365 1.384 . S
N364 C360 1.427 . S
N364 C361 1.384 . S
N365 C357 1.421 1_556 S
N365 C363 1.384 . S
H366 C372 0.930 . S
H367 C376 0.930 . S
H368 C381 0.929 . S
H369 C379 0.929 . S
H370 C374 0.929 . S
H371 C380 0.929 . S
C372 H366 0.930 . S
C372 C373 1.367 . S
C372 C380 1.378 . S
C373 C372 1.367 . S
C373 C381 1.433 . S
C374 H370 0.929 . S
C374 C376 1.378 . S
C374 C378 1.350 . S
C375 C378 1.463 . S
C375 C380 1.350 . S
C375 N383 1.427 . S
C376 H367 0.930 . S
C376 C374 1.378 . S
C376 C377 1.367 . S
C377 C376 1.367 . S
C377 C379 1.433 . S
C378 C374 1.350 . S
C378 C375 1.463 . S
C378 N382 1.427 . S
C379 H369 0.929 . S
C379 C377 1.433 . S
C379 N382 1.384 . S
C380 H371 0.929 . S
C380 C372 1.378 . S
C380 C375 1.350 . S
C381 H368 0.929 . S
C381 C373 1.433 . S
C381 N383 1.384 . S
N382 C378 1.427 . S
N382 C379 1.384 . S
N383 C375 1.427 . S
N383 C381 1.384 . S
H384 C390 0.930 . S
H385 C394 0.930 . S
H386 C399 0.929 . S
H387 C397 0.929 . S
H388 C392 0.929 . S
H389 C398 0.929 . S
C390 H384 0.930 . S
C390 C391 1.367 . S
C390 C398 1.378 . S
C391 C390 1.367 . S
C391 C399 1.433 . S
C392 H388 0.929 . S
C392 C394 1.378 . S
C392 C396 1.350 . S
C393 C396 1.463 . S
C393 C398 1.350 . S
C393 N401 1.427 . S
C394 H385 0.930 . S
C394 C392 1.378 . S
C394 C395 1.367 . S
C395 C394 1.367 . S
C395 C397 1.433 . S
C396 C392 1.350 . S
C396 C393 1.463 . S
C396 N400 1.427 . S
C397 H387 0.929 . S
C397 C395 1.433 . S
C397 N400 1.384 . S
C398 H389 0.929 . S
C398 C390 1.378 . S
C398 C393 1.350 . S
C399 H386 0.929 . S
C399 C391 1.433 . S
C399 N401 1.384 . S
N400 C396 1.427 . S
N400 C397 1.384 . S
N401 C393 1.427 . S
N401 C399 1.384 . S
H402 C408 0.930 . S
H403 C412 0.930 . S
H404 C417 0.929 . S
H405 C415 0.929 . S
H406 C410 0.929 1_455 S
H407 C416 0.929 . S
C408 H402 0.930 . S
C408 C409 1.367 . S
C408 C416 1.378 . S
C409 C408 1.367 . S
C409 C417 1.433 . S
C410 H406 0.929 1_655 S
C410 C412 1.378 . S
C410 C414 1.348 1_655 S
C411 C414 1.470 . S
C411 C416 1.350 . S
C411 N419 1.427 . S
C412 H403 0.930 . S
C412 C410 1.378 . S
C412 C413 1.367 . S
C413 C412 1.367 . S
C413 C415 1.433 . S
C414 C410 1.348 1_455 S
C414 C411 1.470 . S
C414 N418 1.422 1_455 S
C415 H405 0.929 . S
C415 C413 1.433 . S
C415 N418 1.384 . S
C416 H407 0.929 . S
C416 C408 1.378 . S
C416 C411 1.350 . S
C417 H404 0.929 . S
C417 C409 1.433 . S
C417 N419 1.384 . S
N418 C414 1.422 1_655 S
N418 C415 1.384 . S
N419 C411 1.427 . S
N419 C417 1.384 . S
H420 C426 0.930 1_655 S
H421 C430 0.930 . S
H422 C435 0.929 . S
H423 C433 0.929 . S
H424 C428 0.929 . S
H425 C434 0.921 1_655 S
C426 H420 0.930 1_455 S
C426 C427 1.367 . S
C426 C434 1.381 . S
C427 C426 1.367 . S
C427 C435 1.433 . S
C428 H424 0.929 . S
C428 C430 1.378 . S
C428 C432 1.350 . S
C429 C432 1.463 . S
C429 C434 1.354 . S
C429 N437 1.427 . S
C430 H421 0.930 . S
C430 C428 1.378 . S
C430 C431 1.367 1_455 S
C431 C430 1.367 1_655 S
C431 C433 1.433 . S
C432 C428 1.350 . S
C432 C429 1.463 . S
C432 N436 1.427 1_455 S
C433 H423 0.929 . S
C433 C431 1.433 . S
C433 N436 1.384 . S
C434 H425 0.921 1_455 S
C434 C426 1.381 . S
C434 C429 1.354 . S
C435 H422 0.929 . S
C435 C427 1.433 . S
C435 N437 1.384 . S
N436 C432 1.427 1_655 S
N436 C433 1.384 . S
N437 C429 1.427 . S
N437 C435 1.384 . S
H438 C444 0.930 . S
H439 C448 0.930 . S
H440 C453 0.929 . S
H441 C451 0.929 . S
H442 C446 0.929 . S
H443 C452 0.929 . S
C444 H438 0.930 . S
C444 C445 1.367 . S
C444 C452 1.378 . S
C445 C444 1.367 . S
C445 C453 1.433 . S
C446 H442 0.929 . S
C446 C448 1.378 . S
C446 C450 1.350 . S
C447 C450 1.463 . S
C447 C452 1.350 . S
C447 N455 1.427 . S
C448 H439 0.930 . S
C448 C446 1.378 . S
C448 C449 1.367 . S
C449 C448 1.367 . S
C449 C451 1.433 . S
C450 C446 1.350 . S
C450 C447 1.463 . S
C450 N454 1.427 . S
C451 H441 0.929 . S
C451 C449 1.433 . S
C451 N454 1.384 . S
C452 H443 0.929 . S
C452 C444 1.378 . S
C452 C447 1.350 . S
C453 H440 0.929 . S
C453 C445 1.433 . S
C453 N455 1.384 . S
N454 C450 1.427 . S
N454 C451 1.384 . S
N455 C447 1.427 . S
N455 C453 1.384 . S
H456 C462 0.930 . S
H457 C466 0.930 . S
H458 C471 0.929 . S
H459 C469 0.929 . S
H460 C464 0.929 . S
H461 C470 0.929 . S
C462 H456 0.930 . S
C462 C463 1.367 . S
C462 C470 1.378 . S
C463 C462 1.367 . S
C463 C471 1.433 . S
C464 H460 0.929 . S
C464 C466 1.378 . S
C464 C468 1.350 . S
C465 C468 1.463 . S
C465 C470 1.350 . S
C465 N473 1.427 . S
C466 H457 0.930 . S
C466 C464 1.378 . S
C466 C467 1.367 . S
C467 C466 1.367 . S
C467 C469 1.433 . S
C468 C464 1.350 . S
C468 C465 1.463 . S
C468 N472 1.427 . S
C469 H459 0.929 . S
C469 C467 1.433 . S
C469 N472 1.384 . S
C470 H461 0.929 . S
C470 C462 1.378 . S
C470 C465 1.350 . S
C471 H458 0.929 . S
C471 C463 1.433 . S
C471 N473 1.384 . S
N472 C468 1.427 . S
N472 C469 1.384 . S
N473 C465 1.427 . S
N473 C471 1.384 . S
H474 C480 0.930 . S
H475 C484 0.930 . S
H476 C489 0.929 . S
H477 C487 0.929 . S
H478 C482 0.929 . S
H479 C488 0.929 . S
C480 H474 0.930 . S
C480 C481 1.367 . S
C480 C488 1.378 . S
C481 C480 1.367 . S
C481 C489 1.433 1_455 S
C482 H478 0.929 . S
C482 C484 1.378 . S
C482 C486 1.350 . S
C483 C486 1.463 . S
C483 C488 1.350 1_655 S
C483 N491 1.427 . S
C484 H475 0.930 . S
C484 C482 1.378 . S
C484 C485 1.367 . S
C485 C484 1.367 . S
C485 C487 1.433 . S
C486 C482 1.350 . S
C486 C483 1.463 . S
C486 N490 1.427 . S
C487 H477 0.929 . S
C487 C485 1.433 . S
C487 N490 1.384 . S
C488 H479 0.929 . S
C488 C480 1.378 . S
C488 C483 1.350 1_455 S
C489 H476 0.929 . S
C489 C481 1.433 1_655 S
C489 N491 1.384 . S
N490 C486 1.427 . S
N490 C487 1.384 . S
N491 C483 1.427 . S
N491 C489 1.384 . S
H492 C498 0.930 . S
H493 C502 0.930 . S
H494 C507 0.929 . S
H495 C505 0.929 . S
H496 C500 0.929 . S
H497 C506 0.929 . S
C498 H492 0.930 . S
C498 C499 1.367 . S
C498 C506 1.378 . S
C499 C498 1.367 . S
C499 C507 1.433 . S
C500 H496 0.929 . S
C500 C502 1.378 . S
C500 C504 1.350 . S
C501 C504 1.463 . S
C501 C506 1.350 . S
C501 N509 1.427 . S
C502 H493 0.930 . S
C502 C500 1.378 . S
C502 C503 1.367 . S
C503 C502 1.367 . S
C503 C505 1.433 . S
C504 C500 1.350 . S
C504 C501 1.463 . S
C504 N508 1.427 . S
C505 H495 0.929 . S
C505 C503 1.433 . S
C505 N508 1.384 . S
C506 H497 0.929 . S
C506 C498 1.378 . S
C506 C501 1.350 . S
C507 H494 0.929 . S
C507 C499 1.433 . S
C507 N509 1.384 . S
N508 C504 1.427 . S
N508 C505 1.384 . S
N509 C501 1.427 . S
N509 C507 1.384 . S
H510 C516 0.930 . S
H511 C520 0.930 . S
H512 C525 0.929 . S
H513 C523 0.929 . S
H514 C518 0.929 . S
H515 C524 0.929 . S
C516 H510 0.930 . S
C516 C517 1.367 . S
C516 C524 1.378 . S
C517 C516 1.367 . S
C517 C525 1.433 . S
C518 H514 0.929 . S
C518 C520 1.378 . S
C518 C522 1.350 1_556 S
C519 C522 1.463 . S
C519 C524 1.350 . S
C519 N527 1.427 . S
C520 H511 0.930 . S
C520 C518 1.378 . S
C520 C521 1.367 . S
C521 C520 1.367 . S
C521 C523 1.433 . S
C522 C518 1.350 1_554 S
C522 C519 1.463 . S
C522 N526 1.427 . S
C523 H513 0.929 . S
C523 C521 1.433 . S
C523 N526 1.384 1_556 S
C524 H515 0.929 . S
C524 C516 1.378 . S
C524 C519 1.350 . S
C525 H512 0.929 . S
C525 C517 1.433 . S
C525 N527 1.384 . S
N526 C522 1.427 . S
N526 C523 1.384 1_554 S
N527 C519 1.427 . S
N527 C525 1.384 . S
H528 C534 0.930 . S
H529 C538 0.930 . S
H530 C543 0.929 . S
H531 C541 0.929 . S
H532 C536 0.929 . S
H533 C542 0.929 . S
C534 H528 0.930 . S
C534 C535 1.367 . S
C534 C542 1.378 . S
C535 C534 1.367 . S
C535 C543 1.433 . S
C536 H532 0.929 . S
C536 C538 1.378 . S
C536 C540 1.350 . S
C537 C540 1.463 . S
C537 C542 1.350 . S
C537 N545 1.427 . S
C538 H529 0.930 . S
C538 C536 1.378 . S
C538 C539 1.367 . S
C539 C538 1.367 . S
C539 C541 1.433 . S
C540 C536 1.350 . S
C540 C537 1.463 . S
C540 N544 1.427 . S
C541 H531 0.929 . S
C541 C539 1.433 . S
C541 N544 1.384 . S
C542 H533 0.929 . S
C542 C534 1.378 . S
C542 C537 1.350 . S
C543 H530 0.929 . S
C543 C535 1.433 . S
C543 N545 1.384 . S
N544 C540 1.427 . S
N544 C541 1.384 . S
N545 C537 1.427 . S
N545 C543 1.384 . S
H546 C552 0.930 . S
H547 C556 0.930 1_655 S
H548 C561 0.929 . S
H549 C559 0.929 . S
H550 C554 0.929 . S
H551 C560 0.929 . S
C552 H546 0.930 . S
C552 C553 1.367 . S
C552 C560 1.378 1_554 S
C553 C552 1.367 . S
C553 C561 1.433 . S
C554 H550 0.929 . S
C554 C556 1.378 . S
C554 C558 1.350 . S
C555 C558 1.463 . S
C555 C560 1.350 . S
C555 N563 1.427 . S
C556 H547 0.930 1_455 S
C556 C554 1.378 . S
C556 C557 1.367 . S
C557 C556 1.367 . S
C557 C559 1.433 . S
C558 C554 1.350 . S
C558 C555 1.463 . S
C558 N562 1.427 . S
C559 H549 0.929 . S
C559 C557 1.433 . S
C559 N562 1.384 . S
C560 H551 0.929 . S
C560 C552 1.378 1_556 S
C560 C555 1.350 . S
C561 H548 0.929 . S
C561 C553 1.433 . S
C561 N563 1.384 1_554 S
N562 C558 1.427 . S
N562 C559 1.384 . S
N563 C555 1.427 . S
N563 C561 1.384 1_556 S
H564 C570 0.930 . S
H565 C574 0.930 . S
H566 C579 0.929 . S
H567 C577 0.929 . S
H568 C572 0.929 . S
H569 C578 0.929 . S
C570 H564 0.930 . S
C570 C571 1.367 . S
C570 C578 1.378 . S
C571 C570 1.367 . S
C571 C579 1.433 . S
C572 H568 0.929 . S
C572 C574 1.378 . S
C572 C576 1.350 . S
C573 C576 1.463 . S
C573 C578 1.350 . S
C573 N581 1.427 . S
C574 H565 0.930 . S
C574 C572 1.378 . S
C574 C575 1.367 . S
C575 C574 1.367 . S
C575 C577 1.433 . S
C576 C572 1.350 . S
C576 C573 1.463 . S
C576 N580 1.427 . S
C577 H567 0.929 . S
C577 C575 1.433 . S
C577 N580 1.384 . S
C578 H569 0.929 . S
C578 C570 1.378 . S
C578 C573 1.350 . S
C579 H566 0.929 . S
C579 C571 1.433 . S
C579 N581 1.384 . S
N580 C576 1.427 . S
N580 C577 1.384 . S
N581 C573 1.427 . S
N581 C579 1.384 . S
H582 C588 0.930 . S
H583 C592 0.930 . S
H584 C597 0.929 . S
H585 C595 0.929 . S
H586 C590 0.929 . S
H587 C596 0.929 . S
C588 H582 0.930 . S
C588 C589 1.367 . S
C588 C596 1.378 . S
C589 C588 1.367 . S
C589 C597 1.433 . S
C590 H586 0.929 . S
C590 C592 1.378 . S
C590 C594 1.350 . S
C591 C594 1.463 . S
C591 C596 1.350 . S
C591 N599 1.427 . S
C592 H583 0.930 . S
C592 C590 1.378 . S
C592 C593 1.367 . S
C593 C592 1.367 . S
C593 C595 1.433 . S
C594 C590 1.350 . S
C594 C591 1.463 . S
C594 N598 1.427 . S
C595 H585 0.929 . S
C595 C593 1.433 . S
C595 N598 1.384 . S
C596 H587 0.929 . S
C596 C588 1.378 . S
C596 C591 1.350 . S
C597 H584 0.929 . S
C597 C589 1.433 . S
C597 N599 1.384 . S
N598 C594 1.427 . S
N598 C595 1.384 . S
N599 C591 1.427 . S
N599 C597 1.384 . S
H600 C606 0.930 . S
H601 C610 0.930 . S
H602 C615 0.929 . S
H603 C613 0.929 . S
H604 C608 0.929 . S
H605 C614 0.929 . S
C606 H600 0.930 . S
C606 C607 1.367 . S
C606 C614 1.378 . S
C607 C606 1.367 . S
C607 C615 1.433 . S
C608 H604 0.929 . S
C608 C610 1.378 . S
C608 C612 1.350 . S
C609 C612 1.463 . S
C609 C614 1.350 . S
C609 N617 1.427 . S
C610 H601 0.930 . S
C610 C608 1.378 . S
C610 C611 1.367 . S
C611 C610 1.367 . S
C611 C613 1.433 . S
C612 C608 1.350 . S
C612 C609 1.463 . S
C612 N616 1.427 . S
C613 H603 0.929 . S
C613 C611 1.433 . S
C613 N616 1.384 . S
C614 H605 0.929 . S
C614 C606 1.378 . S
C614 C609 1.350 . S
C615 H602 0.929 . S
C615 C607 1.433 . S
C615 N617 1.384 . S
N616 C612 1.427 . S
N616 C613 1.384 . S
N617 C609 1.427 . S
N617 C615 1.384 . S
H618 C624 0.930 . S
H619 C628 0.930 . S
H620 C633 0.929 . S
H621 C631 0.929 . S
H622 C626 0.929 . S
H623 C632 0.929 . S
C624 H618 0.930 . S
C624 C625 1.367 . S
C624 C632 1.378 . S
C625 C624 1.367 . S
C625 C633 1.433 . S
C626 H622 0.929 . S
C626 C628 1.378 . S
C626 C630 1.350 . S
C627 C630 1.463 . S
C627 C632 1.350 . S
C627 N635 1.427 . S
C628 H619 0.930 . S
C628 C626 1.378 . S
C628 C629 1.367 1_545 S
C629 C628 1.367 1_565 S
C629 C631 1.433 . S
C630 C626 1.350 . S
C630 C627 1.463 . S
C630 N634 1.436 . S
C631 H621 0.929 . S
C631 C629 1.433 . S
C631 N634 1.375 1_565 S
C632 H623 0.929 . S
C632 C624 1.378 . S
C632 C627 1.350 . S
C633 H620 0.929 . S
C633 C625 1.433 . S
C633 N635 1.384 . S
N634 C630 1.436 . S
N634 C631 1.375 1_545 S
N635 C627 1.427 . S
N635 C633 1.384 . S
H636 C642 0.930 . S
H637 C646 0.930 . S
H638 C651 0.929 . S
H639 C649 0.929 . S
H640 C644 0.929 . S
H641 C650 0.929 . S
C642 H636 0.930 . S
C642 C643 1.367 . S
C642 C650 1.378 . S
C643 C642 1.367 . S
C643 C651 1.433 . S
C644 H640 0.929 . S
C644 C646 1.378 . S
C644 C648 1.350 . S
C645 C648 1.463 . S
C645 C650 1.350 . S
C645 N653 1.427 . S
C646 H637 0.930 . S
C646 C644 1.378 . S
C646 C647 1.367 . S
C647 C646 1.367 . S
C647 C649 1.433 . S
C648 C644 1.350 . S
C648 C645 1.463 . S
C648 N652 1.427 . S
C649 H639 0.929 . S
C649 C647 1.433 . S
C649 N652 1.384 . S
C650 H641 0.929 . S
C650 C642 1.378 . S
C650 C645 1.350 . S
C651 H638 0.929 . S
C651 C643 1.433 . S
C651 N653 1.384 . S
N652 C648 1.427 . S
N652 C649 1.384 . S
N653 C645 1.427 . S
N653 C651 1.384 . S
H654 C660 0.930 . S
H655 C664 0.930 1_556 S
H656 C669 0.929 . S
H657 C667 0.929 . S
H658 C662 0.929 . S
H659 C668 0.929 . S
C660 H654 0.930 . S
C660 C661 1.367 . S
C660 C668 1.378 1_545 S
C661 C660 1.367 . S
C661 C669 1.433 . S
C662 H658 0.929 . S
C662 C664 1.378 . S
C662 C666 1.350 . S
C663 C666 1.463 . S
C663 C668 1.350 . S
C663 N671 1.427 . S
C664 H655 0.930 1_554 S
C664 C662 1.378 . S
C664 C665 1.367 . S
C665 C664 1.367 . S
C665 C667 1.433 . S
C666 C662 1.350 . S
C666 C663 1.463 . S
C666 N670 1.427 . S
C667 H657 0.929 . S
C667 C665 1.433 . S
C667 N670 1.384 . S
C668 H659 0.929 . S
C668 C660 1.378 1_565 S
C668 C663 1.350 . S
C669 H656 0.929 . S
C669 C661 1.433 . S
C669 N671 1.384 1_545 S
N670 C666 1.427 . S
N670 C667 1.384 . S
N671 C663 1.427 . S
N671 C669 1.384 1_565 S
H672 C678 0.930 . S
H673 C682 0.930 . S
H674 C687 0.929 . S
H675 C685 0.929 . S
H676 C680 0.929 . S
H677 C686 0.929 . S
C678 H672 0.930 . S
C678 C679 1.367 . S
C678 C686 1.378 . S
C679 C678 1.367 . S
C679 C687 1.433 . S
C680 H676 0.929 . S
C680 C682 1.378 . S
C680 C684 1.350 . S
C681 C684 1.463 . S
C681 C686 1.350 . S
C681 N689 1.427 . S
C682 H673 0.930 . S
C682 C680 1.378 . S
C682 C683 1.367 . S
C683 C682 1.367 . S
C683 C685 1.433 . S
C684 C680 1.350 . S
C684 C681 1.463 . S
C684 N688 1.427 . S
C685 H675 0.929 . S
C685 C683 1.433 . S
C685 N688 1.384 . S
C686 H677 0.929 . S
C686 C678 1.378 . S
C686 C681 1.350 . S
C687 H674 0.929 . S
C687 C679 1.433 . S
C687 N689 1.384 . S
N688 C684 1.427 . S
N688 C685 1.384 . S
N689 C681 1.427 . S
N689 C687 1.384 . S
H690 C696 0.930 . S
H691 C700 0.930 . S
H692 C705 0.929 . S
H693 C703 0.929 . S
H694 C698 0.929 1_554 S
H695 C704 0.929 . S
C696 H690 0.930 . S
C696 C697 1.367 . S
C696 C704 1.378 . S
C697 C696 1.367 . S
C697 C705 1.433 . S
C698 H694 0.929 1_556 S
C698 C700 1.378 1_556 S
C698 C702 1.350 . S
C699 C702 1.463 . S
C699 C704 1.350 . S
C699 N707 1.427 . S
C700 H691 0.930 . S
C700 C698 1.378 1_554 S
C700 C701 1.381 . S
C701 C700 1.381 . S
C701 C703 1.402 1_554 S
C702 C698 1.350 . S
C702 C699 1.463 . S
C702 N706 1.427 . S
C703 H693 0.929 . S
C703 C701 1.402 1_556 S
C703 N706 1.384 . S
C704 H695 0.929 . S
C704 C696 1.378 . S
C704 C699 1.350 . S
C705 H692 0.929 . S
C705 C697 1.433 . S
C705 N707 1.384 . S
N706 C702 1.427 . S
N706 C703 1.384 . S
N707 C699 1.427 . S
N707 C705 1.384 . S
H708 C714 0.930 . S
H709 C718 0.930 . S
H710 C723 0.929 . S
H711 C721 0.929 . S
H712 C716 0.929 . S
H713 C722 0.929 . S
C714 H708 0.930 . S
C714 C715 1.367 . S
C714 C722 1.378 . S
C715 C714 1.367 . S
C715 C723 1.433 . S
C716 H712 0.929 . S
C716 C718 1.378 . S
C716 C720 1.350 . S
C717 C720 1.463 . S
C717 C722 1.350 . S
C717 N725 1.427 . S
C718 H709 0.930 . S
C718 C716 1.378 . S
C718 C719 1.367 . S
C719 C718 1.367 . S
C719 C721 1.433 . S
C720 C716 1.350 . S
C720 C717 1.463 . S
C720 N724 1.427 . S
C721 H711 0.929 . S
C721 C719 1.433 . S
C721 N724 1.384 . S
C722 H713 0.929 . S
C722 C714 1.378 . S
C722 C717 1.350 . S
C723 H710 0.929 . S
C723 C715 1.433 . S
C723 N725 1.384 . S
N724 C720 1.427 . S
N724 C721 1.384 . S
N725 C717 1.427 . S
N725 C723 1.384 . S
H726 C732 0.930 . S
H727 C736 0.930 . S
H728 C741 0.929 . S
H729 C739 0.929 . S
H730 C734 0.929 . S
H731 C740 0.929 . S
C732 H726 0.930 . S
C732 C733 1.367 . S
C732 C740 1.378 . S
C733 C732 1.367 . S
C733 C741 1.433 . S
C734 H730 0.929 . S
C734 C736 1.378 . S
C734 C738 1.350 . S
C735 C738 1.463 . S
C735 C740 1.350 . S
C735 N743 1.427 . S
C736 H727 0.930 . S
C736 C734 1.378 . S
C736 C737 1.367 . S
C737 C736 1.367 . S
C737 C739 1.433 . S
C738 C734 1.350 . S
C738 C735 1.463 . S
C738 N742 1.427 . S
C739 H729 0.929 . S
C739 C737 1.433 . S
C739 N742 1.384 . S
C740 H731 0.929 . S
C740 C732 1.378 . S
C740 C735 1.350 . S
C741 H728 0.929 . S
C741 C733 1.433 . S
C741 N743 1.384 . S
N742 C738 1.427 . S
N742 C739 1.384 . S
N743 C735 1.427 . S
N743 C741 1.384 . S
H744 C750 0.930 . S
H745 C754 0.930 . S
H746 C759 0.929 . S
H747 C757 0.929 . S
H748 C752 0.929 . S
H749 C758 0.929 . S
C750 H744 0.930 . S
C750 C751 1.367 . S
C750 C758 1.378 . S
C751 C750 1.367 . S
C751 C759 1.433 . S
C752 H748 0.929 . S
C752 C754 1.378 . S
C752 C756 1.350 . S
C753 C756 1.463 . S
C753 C758 1.350 . S
C753 N761 1.427 . S
C754 H745 0.930 . S
C754 C752 1.378 . S
C754 C755 1.367 . S
C755 C754 1.367 . S
C755 C757 1.433 . S
C756 C752 1.350 . S
C756 C753 1.463 . S
C756 N760 1.427 . S
C757 H747 0.929 . S
C757 C755 1.433 . S
C757 N760 1.384 . S
C758 H749 0.929 . S
C758 C750 1.378 . S
C758 C753 1.350 . S
C759 H746 0.929 . S
C759 C751 1.433 . S
C759 N761 1.384 . S
N760 C756 1.427 . S
N760 C757 1.384 . S
N761 C753 1.427 . S
N761 C759 1.384 . S
H762 C768 0.930 . S
H763 C772 0.930 . S
H764 C777 0.929 . S
H765 C775 0.929 . S
H766 C770 0.929 . S
H767 C776 0.929 . S
C768 H762 0.930 . S
C768 C769 1.367 . S
C768 C776 1.378 . S
C769 C768 1.367 . S
C769 C777 1.433 . S
C770 H766 0.929 . S
C770 C772 1.378 . S
C770 C774 1.350 . S
C771 C774 1.463 . S
C771 C776 1.350 . S
C771 N779 1.427 . S
C772 H763 0.930 . S
C772 C770 1.378 . S
C772 C773 1.367 . S
C773 C772 1.367 . S
C773 C775 1.433 . S
C774 C770 1.350 . S
C774 C771 1.463 . S
C774 N778 1.427 . S
C775 H765 0.929 . S
C775 C773 1.433 . S
C775 N778 1.384 . S
C776 H767 0.929 . S
C776 C768 1.378 . S
C776 C771 1.350 . S
C777 H764 0.929 . S
C777 C769 1.433 . S
C777 N779 1.384 . S
N778 C774 1.427 . S
N778 C775 1.384 . S
N779 C771 1.427 . S
N779 C777 1.384 . S
H780 C786 0.930 . S
H781 C790 0.930 . S
H782 C795 0.929 . S
H783 C793 0.929 . S
H784 C788 0.929 . S
H785 C794 0.929 . S
C786 H780 0.930 . S
C786 C787 1.367 . S
C786 C794 1.378 . S
C787 C786 1.367 . S
C787 C795 1.433 . S
C788 H784 0.929 . S
C788 C790 1.378 1_455 S
C788 C792 1.350 . S
C789 C792 1.463 . S
C789 C794 1.350 . S
C789 N797 1.427 . S
C790 H781 0.930 . S
C790 C788 1.378 1_655 S
C790 C791 1.367 . S
C791 C790 1.367 . S
C791 C793 1.433 . S
C792 C788 1.350 . S
C792 C789 1.463 . S
C792 N796 1.427 1_455 S
C793 H783 0.929 . S
C793 C791 1.433 . S
C793 N796 1.384 . S
C794 H785 0.929 . S
C794 C786 1.378 . S
C794 C789 1.350 . S
C795 H782 0.929 . S
C795 C787 1.433 . S
C795 N797 1.384 . S
N796 C792 1.427 1_655 S
N796 C793 1.384 . S
N797 C789 1.427 . S
N797 C795 1.384 . S
H798 C804 0.930 . S
H799 C808 0.930 . S
H800 C813 0.929 . S
H801 C811 0.929 . S
H802 C806 0.929 . S
H803 C812 0.929 . S
C804 H798 0.930 . S
C804 C805 1.367 . S
C804 C812 1.378 . S
C805 C804 1.367 . S
C805 C813 1.433 . S
C806 H802 0.929 . S
C806 C808 1.378 . S
C806 C810 1.350 . S
C807 C810 1.463 . S
C807 C812 1.350 . S
C807 N815 1.427 . S
C808 H799 0.930 . S
C808 C806 1.378 . S
C808 C809 1.367 . S
C809 C808 1.367 . S
C809 C811 1.433 . S
C810 C806 1.350 . S
C810 C807 1.463 . S
C810 N814 1.427 . S
C811 H801 0.929 . S
C811 C809 1.433 . S
C811 N814 1.384 . S
C812 H803 0.929 . S
C812 C804 1.378 . S
C812 C807 1.350 . S
C813 H800 0.929 . S
C813 C805 1.433 . S
C813 N815 1.384 . S
N814 C810 1.427 . S
N814 C811 1.384 . S
N815 C807 1.427 . S
N815 C813 1.384 . S
H816 C822 0.930 . S
H817 C826 0.930 . S
H818 C831 0.929 . S
H819 C829 0.929 . S
H820 C824 0.929 . S
H821 C830 0.929 . S
C822 H816 0.930 . S
C822 C823 1.367 . S
C822 C830 1.378 . S
C823 C822 1.367 . S
C823 C831 1.433 . S
C824 H820 0.929 . S
C824 C826 1.378 . S
C824 C828 1.350 . S
C825 C828 1.463 . S
C825 C830 1.350 . S
C825 N833 1.427 . S
C826 H817 0.930 . S
C826 C824 1.378 . S
C826 C827 1.367 . S
C827 C826 1.367 . S
C827 C829 1.433 . S
C828 C824 1.350 . S
C828 C825 1.463 . S
C828 N832 1.427 . S
C829 H819 0.929 . S
C829 C827 1.433 . S
C829 N832 1.384 . S
C830 H821 0.929 . S
C830 C822 1.378 . S
C830 C825 1.350 . S
C831 H818 0.929 . S
C831 C823 1.433 . S
C831 N833 1.384 . S
N832 C828 1.427 . S
N832 C829 1.384 . S
N833 C825 1.427 . S
N833 C831 1.384 . S
H834 C840 0.930 . S
H835 C844 0.930 . S
H836 C849 0.929 . S
H837 C847 0.929 . S
H838 C842 0.929 . S
H839 C848 0.929 . S
C840 H834 0.930 . S
C840 C841 1.367 . S
C840 C848 1.378 . S
C841 C840 1.367 . S
C841 C849 1.433 . S
C842 H838 0.929 . S
C842 C844 1.378 . S
C842 C846 1.350 . S
C843 C846 1.463 . S
C843 C848 1.350 . S
C843 N851 1.427 . S
C844 H835 0.930 . S
C844 C842 1.378 . S
C844 C845 1.367 . S
C845 C844 1.367 . S
C845 C847 1.433 . S
C846 C842 1.350 . S
C846 C843 1.463 . S
C846 N850 1.427 . S
C847 H837 0.929 . S
C847 C845 1.433 . S
C847 N850 1.384 . S
C848 H839 0.929 . S
C848 C840 1.378 . S
C848 C843 1.350 . S
C849 H836 0.929 . S
C849 C841 1.433 . S
C849 N851 1.384 . S
N850 C846 1.427 . S
N850 C847 1.384 . S
N851 C843 1.427 . S
N851 C849 1.384 . S
H852 C858 0.930 . S
H853 C862 0.930 . S
H854 C867 0.929 . S
H855 C865 0.929 . S
H856 C860 0.929 . S
H857 C866 0.929 . S
C858 H852 0.930 . S
C858 C859 1.367 . S
C858 C866 1.378 . S
C859 C858 1.367 . S
C859 C867 1.433 . S
C860 H856 0.929 . S
C860 C862 1.378 . S
C860 C864 1.350 . S
C861 C864 1.463 . S
C861 C866 1.350 . S
C861 N869 1.427 . S
C862 H853 0.930 . S
C862 C860 1.378 . S
C862 C863 1.367 . S
C863 C862 1.367 . S
C863 C865 1.433 . S
C864 C860 1.350 . S
C864 C861 1.463 . S
C864 N868 1.427 . S
C865 H855 0.929 . S
C865 C863 1.433 . S
C865 N868 1.384 . S
C866 H857 0.929 . S
C866 C858 1.378 . S
C866 C861 1.350 . S
C867 H854 0.929 . S
C867 C859 1.433 . S
C867 N869 1.384 . S
N868 C864 1.427 . S
N868 C865 1.384 . S
N869 C861 1.427 . S
N869 C867 1.384 . S
H870 C876 0.930 . S
H871 C880 0.930 . S
H872 C885 0.929 . S
H873 C883 0.929 . S
H874 C878 0.929 . S
H875 C884 0.929 . S
C876 H870 0.930 . S
C876 C877 1.367 . S
C876 C884 1.378 . S
C877 C876 1.367 . S
C877 C885 1.433 1_545 S
C878 H874 0.929 . S
C878 C880 1.378 . S
C878 C882 1.350 1_455 S
C879 C882 1.463 . S
C879 C884 1.350 . S
C879 N887 1.427 . S
C880 H871 0.930 . S
C880 C878 1.378 . S
C880 C881 1.367 . S
C881 C880 1.367 . S
C881 C883 1.433 . S
C882 C878 1.350 1_655 S
C882 C879 1.463 . S
C882 N886 1.427 . S
C883 H873 0.929 . S
C883 C881 1.433 . S
C883 N886 1.384 1_455 S
C884 H875 0.929 . S
C884 C876 1.378 . S
C884 C879 1.350 . S
C885 H872 0.929 . S
C885 C877 1.433 1_565 S
C885 N887 1.384 1_565 S
N886 C882 1.427 . S
N886 C883 1.384 1_655 S
N887 C879 1.427 . S
N887 C885 1.384 1_545 S
C247 C9 1.577 . S
C251 C226 1.583 . S
C265 C189 1.711 . S
C269 C29 1.686 1_655 S
C283 C46 1.208 . S
C287 C166 1.182 . S
C301 C69 1.442 . S
C305 C206 1.396 . S
C319 C86 1.544 . S
C323 C209 1.596 1_545 S
C337 C109 1.636 1_455 S
C341 C229 1.646 . S
C355 C186 1.574 . S
C359 C129 1.567 . S
C373 C146 1.399 . S
C377 C169 1.441 . S
C391 C66 1.529 . S
C395 C89 1.567 . S
C409 C6 1.226 . S
C413 C106 1.252 . S
C427 C26 1.232 . S
C431 C126 1.222 1_556 S
C445 C149 1.930 . S
C449 C49 1.919 . S
C463 C8 1.412 . S
C467 C176 1.399 . S
C481 C28 1.394 . S
C485 C216 1.368 . S
C499 C236 1.802 . S
C503 C59 1.780 . S
C517 C68 1.680 . S
C521 C181 1.736 . S
C535 C99 1.717 . S
C539 C196 1.773 . S
C553 C161 1.600 . S
C557 C108 1.537 1_455 S
C571 C201 1.568 . S
C575 C128 1.517 . S
C589 C221 1.798 . S
C593 C159 1.693 . S
C607 C16 1.245 . S
C611 C79 1.187 . S
C625 C19 1.330 . S
C629 C36 1.368 . S
C643 C39 1.173 . S
C647 C41 1.243 . S
C661 C76 1.339 . S
C665 C48 1.404 1_554 S
C679 C119 1.617 . S
C683 C81 1.705 . S
C697 C116 1.832 . S
C701 C139 1.769 . S
C715 C136 1.649 . S
C719 C148 1.662 . S
C733 C88 2.016 . S
C737 C141 2.030 . S
C751 C168 1.540 . S
C755 C61 1.618 . S
C769 C101 1.762 . S
C773 C188 1.713 . S
C787 C179 1.296 . S
C791 C121 1.387 . S
C805 C219 1.457 . S
C809 C156 1.535 . S
C823 C96 1.464 . S
C827 C239 1.436 . S
C841 C228 1.630 . S
C845 C21 1.621 . S
C859 C56 1.566 . S
C863 C199 1.559 . S
C877 C208 1.432 1_545 S
C881 C1 1.491 . S
