# Generated by pormake.
# Topology can, (4)-cn, num edge types: 1
# Building blocks:
#     Node 0, Type 0, BuildingBlock: KUFVIS_clean_sbu_0, # of connection points: 4
#     Node 1, Type 0, BuildingBlock: KUFVIS_clean_sbu_0, # of connection points: 4
#     Node 2, Type 0, BuildingBlock: KUFVIS_clean_sbu_0, # of connection points: 4
#     Node 3, Type 0, BuildingBlock: KUFVIS_clean_sbu_0, # of connection points: 4
#     Node 4, Type 0, BuildingBlock: KUFVIS_clean_sbu_0, # of connection points: 4
#     Node 5, Type 0, BuildingBlock: KUFVIS_clean_sbu_0, # of connection points: 4
#     Node 6, Type 0, BuildingBlock: KUFVIS_clean_sbu_0, # of connection points: 4
#     Node 7, Type 0, BuildingBlock: KUFVIS_clean_sbu_0, # of connection points: 4
#     Node 8, Type 0, BuildingBlock: KUFVIS_clean_sbu_0, # of connection points: 4
#     Node 9, Type 0, BuildingBlock: KUFVIS_clean_sbu_0, # of connection points: 4
#     Node 10, Type 0, BuildingBlock: KUFVIS_clean_sbu_0, # of connection points: 4
#     Node 11, Type 0, BuildingBlock: KUFVIS_clean_sbu_0, # of connection points: 4
#     Edge 12, Type (0, 0), BuildingBlock: MIFKUJ_clean_linker_0, # of connection points: 2
#     Edge 13, Type (0, 0), BuildingBlock: MIFKUJ_clean_linker_0, # of connection points: 2
#     Edge 14, Type (0, 0), BuildingBlock: MIFKUJ_clean_linker_0, # of connection points: 2
#     Edge 15, Type (0, 0), BuildingBlock: MIFKUJ_clean_linker_0, # of connection points: 2
#     Edge 16, Type (0, 0), BuildingBlock: MIFKUJ_clean_linker_0, # of connection points: 2
#     Edge 17, Type (0, 0), BuildingBlock: MIFKUJ_clean_linker_0, # of connection points: 2
#     Edge 18, Type (0, 0), BuildingBlock: MIFKUJ_clean_linker_0, # of connection points: 2
#     Edge 19, Type (0, 0), BuildingBlock: MIFKUJ_clean_linker_0, # of connection points: 2
#     Edge 20, Type (0, 0), BuildingBlock: MIFKUJ_clean_linker_0, # of connection points: 2
#     Edge 21, Type (0, 0), BuildingBlock: MIFKUJ_clean_linker_0, # of connection points: 2
#     Edge 22, Type (0, 0), BuildingBlock: MIFKUJ_clean_linker_0, # of connection points: 2
#     Edge 23, Type (0, 0), BuildingBlock: MIFKUJ_clean_linker_0, # of connection points: 2
#     Edge 24, Type (0, 0), BuildingBlock: MIFKUJ_clean_linker_0, # of connection points: 2
#     Edge 25, Type (0, 0), BuildingBlock: MIFKUJ_clean_linker_0, # of connection points: 2
#     Edge 26, Type (0, 0), BuildingBlock: MIFKUJ_clean_linker_0, # of connection points: 2
#     Edge 27, Type (0, 0), BuildingBlock: MIFKUJ_clean_linker_0, # of connection points: 2
#     Edge 28, Type (0, 0), BuildingBlock: MIFKUJ_clean_linker_0, # of connection points: 2
#     Edge 29, Type (0, 0), BuildingBlock: MIFKUJ_clean_linker_0, # of connection points: 2
#     Edge 30, Type (0, 0), BuildingBlock: MIFKUJ_clean_linker_0, # of connection points: 2
#     Edge 31, Type (0, 0), BuildingBlock: MIFKUJ_clean_linker_0, # of connection points: 2
#     Edge 32, Type (0, 0), BuildingBlock: MIFKUJ_clean_linker_0, # of connection points: 2
#     Edge 33, Type (0, 0), BuildingBlock: MIFKUJ_clean_linker_0, # of connection points: 2
#     Edge 34, Type (0, 0), BuildingBlock: MIFKUJ_clean_linker_0, # of connection points: 2
#     Edge 35, Type (0, 0), BuildingBlock: MIFKUJ_clean_linker_0, # of connection points: 2
# Relax obj value: 0.068
# Max RMSD: 0.070
# Mean RMSD: 0.065
data_MOF--net-can--node1-KUFVIS_clean_sbu_0--edge1-MIFKUJ_clean_linker_0
_symmetry_space_group_name_H-M    P1
_symmetry_Int_Tables_number       1
_symmetry_cell_setting            triclinic
loop_
_symmetry_equiv_pos_as_xyz
'x, y, z'
_cell_length_a     70.95135
_cell_length_b     71.778864
_cell_length_c     35.296683
_cell_angle_alpha  89.976991
_cell_angle_beta   90.008607
_cell_angle_gamma 119.57006
loop_
_atom_site_label
_atom_site_type_symbol
_atom_site_fract_x
_atom_site_fract_y
_atom_site_fract_z
_atom_type_partial_charge
Mn0 Mn 0.06327 0.40134 0.24696 0.0
Mn1 Mn 0.09853 0.4371 0.30985 0.0
C2 C 0.06159 0.43183 0.26144 0.0
C3 C 0.05348 0.38834 0.18548 0.0
C4 C 0.05937 0.39543 0.33319 0.0
O5 O 0.0872 0.39342 0.24934 0.0
O6 O 0.10973 0.41829 0.29108 0.0
C7 C 0.13507 0.46228 0.2576 0.0
N8 N 0.12029 0.4614 0.28321 0.0
C9 C 0.13426 0.49944 0.27884 0.0
C10 C 0.14968 0.50077 0.25251 0.0
C11 C 0.15007 0.48211 0.24184 0.0
C12 C 0.11982 0.47927 0.29378 0.0
H13 H 0.1354 0.44797 0.24925 0.0
C14 C 0.10462 0.40238 0.26885 0.0
O15 O 0.04485 0.37597 0.21463 0.0
O16 O 0.0684 0.40793 0.19197 0.0
N17 N 0.08987 0.45644 0.33021 0.0
C18 C 0.07337 0.45227 0.35467 0.0
C19 C 0.07041 0.46918 0.36742 0.0
C20 C 0.08454 0.4902 0.35524 0.0
C21 C 0.10156 0.49413 0.33047 0.0
C22 C 0.1038 0.47666 0.31888 0.0
H23 H 0.06246 0.43615 0.36414 0.0
O24 O 0.04478 0.41509 0.2478 0.0
O25 O 0.07895 0.43027 0.26622 0.0
O26 O 0.05223 0.38874 0.2999 0.0
O27 O 0.07662 0.41305 0.33996 0.0
C28 C 0.1161 0.51463 0.31619 0.0
C29 C 0.13243 0.51728 0.29037 0.0
H30 H 0.1612 0.51601 0.24012 0.0
H31 H 0.16189 0.483 0.22148 0.0
H32 H 0.05721 0.46602 0.38646 0.0
H33 H 0.08209 0.50317 0.3649 0.0
H34 H 0.11469 0.52842 0.32447 0.0
H35 H 0.14335 0.53308 0.27923 0.0
Mn36 Mn 0.66706 0.05777 0.74345 0.0
Mn37 Mn 0.69979 0.03612 0.74493 0.0
C38 C 0.67735 0.04876 0.68689 0.0
C39 C 0.63282 0.0547 0.74643 0.0
C40 C 0.71606 0.08352 0.75663 0.0
O41 O 0.66495 0.04794 0.79832 0.0
O42 O 0.68562 0.03225 0.79515 0.0
C43 C 0.66648 0.9905 0.75387 0.0
N44 N 0.68346 0.00617 0.73433 0.0
C45 C 0.68349 0.98054 0.69049 0.0
C46 C 0.66606 0.9641 0.71022 0.0
C47 C 0.65745 0.96912 0.74194 0.0
C48 C 0.69171 0.00155 0.70355 0.0
H49 H 0.65989 0.99429 0.77838 0.0
C50 C 0.67313 0.03732 0.8132 0.0
O51 O 0.65015 0.07231 0.75571 0.0
O52 O 0.63529 0.0387 0.73592 0.0
N53 N 0.71441 0.03839 0.69828 0.0
C54 C 0.73053 0.05623 0.68139 0.0
C55 C 0.74091 0.05402 0.64928 0.0
C56 C 0.73471 0.03352 0.6351 0.0
C57 C 0.71785 0.01543 0.65257 0.0
C58 C 0.70823 0.0186 0.68465 0.0
H59 H 0.73562 0.072 0.69258 0.0
O60 O 0.67079 0.06274 0.68757 0.0
O61 O 0.6775 0.04026 0.71942 0.0
O62 O 0.69777 0.08256 0.75248 0.0
O63 O 0.71845 0.06704 0.75529 0.0
C64 C 0.7103 0.99436 0.6396 0.0
C65 C 0.69298 0.97694 0.65828 0.0
H66 H 0.6591 0.94759 0.70116 0.0
H67 H 0.64396 0.95653 0.75726 0.0
H68 H 0.75387 0.06806 0.63582 0.0
H69 H 0.74318 0.03187 0.61108 0.0
H70 H 0.71765 0.99136 0.61528 0.0
H71 H 0.68713 0.96085 0.64768 0.0
Mn72 Mn 0.60542 0.66837 0.23247 0.0
Mn73 Mn 0.6598 0.69824 0.22599 0.0
C74 C 0.62199 0.67477 0.1739 0.0
C75 C 0.57422 0.63535 0.24143 0.0
C76 C 0.63056 0.7174 0.23876 0.0
O77 O 0.61544 0.66815 0.28627 0.0
O78 O 0.65174 0.68728 0.27902 0.0
C79 C 0.67076 0.66386 0.23786 0.0
N80 N 0.67157 0.67985 0.21592 0.0
C81 C 0.69133 0.6733 0.16722 0.0
C82 C 0.69085 0.65687 0.18943 0.0
C83 C 0.6805 0.65212 0.22488 0.0
C84 C 0.68149 0.68456 0.18176 0.0
H85 H 0.66268 0.66003 0.26499 0.0
C86 C 0.6347 0.67623 0.29913 0.0
O87 O 0.57447 0.65321 0.24864 0.0
O88 O 0.59215 0.63671 0.2295 0.0
N89 N 0.66975 0.70952 0.17629 0.0
C90 C 0.66778 0.72507 0.1575 0.0
C91 C 0.67678 0.73133 0.12116 0.0
C92 C 0.68776 0.72162 0.10457 0.0
C93 C 0.68975 0.70579 0.12458 0.0
C94 C 0.68063 0.70036 0.16087 0.0
H95 H 0.65926 0.73252 0.17001 0.0
O96 O 0.60172 0.66954 0.17658 0.0
O97 O 0.6319 0.6761 0.20567 0.0
O98 O 0.61273 0.69969 0.23799 0.0
O99 O 0.64906 0.7186 0.23523 0.0
C100 C 0.70006 0.69493 0.10966 0.0
C101 C 0.7008 0.67865 0.13091 0.0
H102 H 0.69821 0.64767 0.1794 0.0
H103 H 0.67995 0.63938 0.24208 0.0
H104 H 0.67515 0.74353 0.10587 0.0
H105 H 0.69447 0.72632 0.07636 0.0
H106 H 0.70722 0.69876 0.08164 0.0
H107 H 0.70849 0.6702 0.11889 0.0
Mn108 Mn 0.93948 0.59904 0.76297 0.0
Mn109 Mn 0.90084 0.56499 0.82328 0.0
C110 C 0.93847 0.56735 0.78041 0.0
C111 C 0.95165 0.61186 0.7018 0.0
C112 C 0.94117 0.60478 0.84951 0.0
O113 O 0.91735 0.60941 0.76154 0.0
O114 O 0.89294 0.58592 0.80264 0.0
C115 C 0.86592 0.54287 0.76665 0.0
N116 N 0.87859 0.54204 0.79484 0.0
C117 C 0.86039 0.50355 0.79208 0.0
C118 C 0.84704 0.50397 0.76317 0.0
C119 C 0.84988 0.52373 0.75032 0.0
C120 C 0.87612 0.52315 0.8072 0.0
H121 H 0.86805 0.55802 0.75673 0.0
C122 C 0.89967 0.6019 0.78011 0.0
O123 O 0.96016 0.62385 0.73141 0.0
O124 O 0.93573 0.59265 0.70768 0.0
N125 N 0.90584 0.54368 0.84591 0.0
C126 C 0.92065 0.54617 0.87288 0.0
C127 C 0.92003 0.52797 0.88878 0.0
C128 C 0.90407 0.50751 0.87703 0.0
C129 C 0.88914 0.50534 0.84907 0.0
C130 C 0.89036 0.52402 0.83462 0.0
H131 H 0.93275 0.56189 0.88234 0.0
O132 O 0.95611 0.58342 0.76738 0.0
O133 O 0.92163 0.57008 0.78225 0.0
O134 O 0.9493 0.61139 0.81664 0.0
O135 O 0.92315 0.58769 0.85495 0.0
C136 C 0.87318 0.48538 0.83486 0.0
C137 C 0.85889 0.4845 0.8062 0.0
H138 H 0.83466 0.48925 0.75049 0.0
H139 H 0.8397 0.52419 0.72791 0.0
H140 H 0.93164 0.52968 0.9103 0.0
H141 H 0.90324 0.49356 0.88991 0.0
H142 H 0.87193 0.47064 0.84544 0.0
H143 H 0.84686 0.46909 0.79512 0.0
Mn144 Mn 0.33465 0.94242 0.23911 0.0
Mn145 Mn 0.30304 0.96538 0.23843 0.0
C146 C 0.32692 0.95324 0.18225 0.0
C147 C 0.36822 0.94419 0.24495 0.0
C148 C 0.28501 0.91752 0.2459 0.0
O149 O 0.33548 0.95114 0.29406 0.0
O150 O 0.31416 0.96614 0.29063 0.0
C151 C 0.33705 0.0098 0.25582 0.0
N152 N 0.32082 0.99568 0.23291 0.0
C153 C 0.32474 0.02404 0.19159 0.0
C154 C 0.34139 0.03891 0.21488 0.0
C155 C 0.34761 0.03174 0.24707 0.0
C156 C 0.31478 0.00239 0.2018 0.0
H157 H 0.34189 0.00437 0.28058 0.0
C158 C 0.32625 0.96069 0.30908 0.0
O159 O 0.35026 0.92664 0.25178 0.0
O160 O 0.36671 0.96084 0.23518 0.0
N161 N 0.29127 0.96622 0.19014 0.0
C162 C 0.27583 0.94971 0.16945 0.0
C163 C 0.26793 0.95414 0.13617 0.0
C164 C 0.2759 0.97547 0.12468 0.0
C165 C 0.29197 0.99216 0.14613 0.0
C166 C 0.29899 0.98679 0.17932 0.0
H167 H 0.2695 0.93331 0.17842 0.0
O168 O 0.33265 0.93864 0.18321 0.0
O169 O 0.32593 0.96127 0.21488 0.0
O170 O 0.30328 0.91815 0.24508 0.0
O171 O 0.28306 0.93425 0.24349 0.0
C172 C 0.30142 0.01389 0.13571 0.0
C173 C 0.31787 0.02982 0.15833 0.0
H174 H 0.34962 0.05584 0.20816 0.0
H175 H 0.36052 0.0431 0.26508 0.0
H176 H 0.25559 0.94117 0.11961 0.0
H177 H 0.26955 0.97892 0.0994 0.0
H178 H 0.29635 0.0185 0.11009 0.0
H179 H 0.32524 0.04644 0.14974 0.0
Mn180 Mn 0.39969 0.33637 0.73552 0.0
Mn181 Mn 0.3453 0.30544 0.73241 0.0
C182 C 0.38183 0.32957 0.6782 0.0
C183 C 0.43043 0.36989 0.74335 0.0
C184 C 0.37569 0.28734 0.7418 0.0
O185 O 0.39066 0.33627 0.79009 0.0
O186 O 0.35426 0.31648 0.78515 0.0
C187 C 0.33351 0.33905 0.74663 0.0
N188 N 0.33268 0.32327 0.72409 0.0
C189 C 0.3117 0.32937 0.67717 0.0
C190 C 0.31218 0.34557 0.70004 0.0
C191 C 0.32315 0.35043 0.7349 0.0
C192 C 0.32214 0.31843 0.69051 0.0
H193 H 0.34209 0.34299 0.77329 0.0
C194 C 0.37166 0.32782 0.8042 0.0
O195 O 0.43097 0.35233 0.74969 0.0
O196 O 0.41201 0.36792 0.73289 0.0
N197 N 0.33451 0.29405 0.68309 0.0
C198 C 0.33656 0.2788 0.66348 0.0
C199 C 0.32703 0.27251 0.62751 0.0
C200 C 0.31546 0.28193 0.61211 0.0
C201 C 0.31339 0.29744 0.63297 0.0
C202 C 0.32302 0.30288 0.66887 0.0
H203 H 0.34557 0.27161 0.67503 0.0
O204 O 0.40229 0.33535 0.67933 0.0
O205 O 0.37252 0.32798 0.71073 0.0
O206 O 0.39328 0.30526 0.74022 0.0
O207 O 0.35694 0.2857 0.7399 0.0
C208 C 0.30254 0.30804 0.6192 0.0
C209 C 0.3017 0.324 0.64128 0.0
H210 H 0.30437 0.35451 0.69095 0.0
H211 H 0.3237 0.363 0.7526 0.0
H212 H 0.32873 0.26055 0.61156 0.0
H213 H 0.30837 0.27724 0.58414 0.0
H214 H 0.29505 0.30426 0.59145 0.0
H215 H 0.29356 0.33223 0.63018 0.0
Mn216 Mn 0.60129 0.94029 0.26566 0.0
Mn217 Mn 0.65572 0.96469 0.27289 0.0
C218 C 0.61762 0.95097 0.32436 0.0
C219 C 0.56973 0.94204 0.25564 0.0
C220 C 0.62726 0.91678 0.26029 0.0
O221 O 0.61149 0.94951 0.2114 0.0
O222 O 0.64764 0.96823 0.22034 0.0
C223 C 0.66602 0.00969 0.26275 0.0
N224 N 0.66705 0.99439 0.28403 0.0
C225 C 0.68704 0.01992 0.33299 0.0
C226 C 0.6863 0.03598 0.31149 0.0
C227 C 0.67571 0.03083 0.27625 0.0
C228 C 0.67715 0.99916 0.31802 0.0
H229 H 0.65782 0.00579 0.23572 0.0
C230 C 0.63076 0.96157 0.19932 0.0
O231 O 0.57037 0.92451 0.24963 0.0
O232 O 0.58755 0.95865 0.26666 0.0
N233 N 0.66566 0.96275 0.32242 0.0
C234 C 0.66414 0.94524 0.34036 0.0
C235 C 0.67361 0.9476 0.37625 0.0
C236 C 0.68464 0.96792 0.39322 0.0
C237 C 0.68613 0.98573 0.3741 0.0
C238 C 0.67655 0.98243 0.33823 0.0
H239 H 0.65572 0.92958 0.32748 0.0
O240 O 0.59741 0.93629 0.32179 0.0
O241 O 0.62754 0.959 0.29254 0.0
O242 O 0.60915 0.91646 0.26214 0.0
O243 O 0.64553 0.93402 0.26254 0.0
C244 C 0.6965 0.00656 0.38943 0.0
C245 C 0.69689 0.02363 0.36895 0.0
H246 H 0.69368 0.05228 0.32187 0.0
H247 H 0.67499 0.04312 0.25957 0.0
H248 H 0.67238 0.93377 0.39082 0.0
H249 H 0.6918 0.96964 0.421 0.0
H250 H 0.70402 0.0096 0.41714 0.0
H251 H 0.70466 0.03952 0.38126 0.0
Mn252 Mn 0.66244 0.60175 0.74898 0.0
Mn253 Mn 0.66428 0.56433 0.69353 0.0
C254 C 0.63089 0.5698 0.73668 0.0
C255 C 0.66507 0.61757 0.8082 0.0
C256 C 0.66316 0.60284 0.66158 0.0
O257 O 0.69475 0.61155 0.7483 0.0
O258 O 0.69388 0.58641 0.70929 0.0
C259 C 0.67918 0.54605 0.75418 0.0
N260 N 0.66501 0.54331 0.72581 0.0
C261 C 0.64569 0.50514 0.73527 0.0
C262 C 0.66019 0.50752 0.76433 0.0
C263 C 0.67686 0.52808 0.77406 0.0
C264 C 0.64862 0.52366 0.71684 0.0
H265 H 0.69206 0.56182 0.7617 0.0
C266 C 0.70411 0.60321 0.72966 0.0
O267 O 0.66772 0.6281 0.7769 0.0
O268 O 0.66149 0.59808 0.80509 0.0
N269 N 0.63737 0.54152 0.67551 0.0
C270 C 0.62402 0.54212 0.64839 0.0
C271 C 0.60661 0.52289 0.63514 0.0
C272 C 0.60315 0.50326 0.64985 0.0
C273 C 0.61687 0.50304 0.67815 0.0
C274 C 0.63423 0.52268 0.68963 0.0
H275 H 0.62674 0.55714 0.63674 0.0
O276 O 0.63021 0.58672 0.74746 0.0
O277 O 0.65016 0.5718 0.73413 0.0
O278 O 0.66377 0.61155 0.69353 0.0
O279 O 0.66298 0.58502 0.65837 0.0
C280 C 0.61396 0.48411 0.69547 0.0
C281 C 0.62825 0.48518 0.72428 0.0
H282 H 0.65851 0.49371 0.77967 0.0
H283 H 0.68787 0.53005 0.79688 0.0
H284 H 0.59611 0.52323 0.61327 0.0
H285 H 0.59009 0.4884 0.63901 0.0
H286 H 0.60061 0.46868 0.68724 0.0
H287 H 0.62563 0.47056 0.7379 0.0
Mn288 Mn 0.0643 0.66538 0.27839 0.0
Mn289 Mn 0.03866 0.69421 0.28493 0.0
C290 C 0.05265 0.67023 0.33677 0.0
C291 C 0.06333 0.63282 0.26847 0.0
C292 C 0.08735 0.71429 0.27429 0.0
O293 O 0.05536 0.66633 0.224 0.0
O294 O 0.03644 0.68369 0.23183 0.0
C295 C 0.99358 0.65986 0.27115 0.0
N296 N 0.00843 0.67566 0.29378 0.0
C297 C 0.98132 0.66919 0.34083 0.0
C298 C 0.96571 0.65295 0.31791 0.0
C299 C 0.97188 0.64826 0.28295 0.0
C300 C 0.00267 0.68036 0.32743 0.0
H301 H 0.99827 0.65613 0.24435 0.0
C302 C 0.04352 0.67373 0.21119 0.0
O303 O 0.08088 0.65094 0.26258 0.0
O304 O 0.04629 0.63366 0.27925 0.0
N305 N 0.03932 0.70493 0.33486 0.0
C306 C 0.05662 0.71988 0.35485 0.0
C307 C 0.05337 0.72574 0.39119 0.0
C308 C 0.03238 0.71626 0.40652 0.0
C309 C 0.01482 0.701 0.38533 0.0
C310 C 0.01902 0.69588 0.34917 0.0
H311 H 0.0728 0.72716 0.34329 0.0
O312 O 0.06798 0.66539 0.33443 0.0
O313 O 0.0446 0.67207 0.30475 0.0
O314 O 0.08801 0.69686 0.27535 0.0
O315 O 0.06972 0.71496 0.27669 0.0
C316 C 0.99337 0.6903 0.39903 0.0
C317 C 0.97664 0.67439 0.37682 0.0
H318 H 0.94899 0.64384 0.32704 0.0
H319 H 0.95994 0.63567 0.2652 0.0
H320 H 0.06702 0.73748 0.40743 0.0
H321 H 0.02997 0.72066 0.43472 0.0
H322 H 0.98962 0.69397 0.42684 0.0
H323 H 0.96029 0.66604 0.38792 0.0
Mn324 Mn 0.40101 0.06165 0.75758 0.0
Mn325 Mn 0.34674 0.03939 0.76553 0.0
C326 C 0.38481 0.05243 0.8166 0.0
C327 C 0.43181 0.05843 0.74816 0.0
C328 C 0.37664 0.08684 0.75143 0.0
O329 O 0.39038 0.05156 0.70391 0.0
O330 O 0.35426 0.03538 0.71286 0.0
C331 C 0.33447 0.99384 0.75542 0.0
N332 N 0.33424 0.00955 0.77667 0.0
C333 C 0.31289 0.98429 0.82512 0.0
C334 C 0.3128 0.96782 0.80365 0.0
C335 C 0.3237 0.97263 0.76871 0.0
C336 C 0.3239 0.00512 0.81042 0.0
H337 H 0.34284 0.99746 0.72856 0.0
C338 C 0.37093 0.04069 0.6919 0.0
O339 O 0.43178 0.07611 0.74046 0.0
O340 O 0.41387 0.04253 0.76065 0.0
N341 N 0.33723 0.04186 0.81509 0.0
C342 C 0.33989 0.05975 0.83328 0.0
C343 C 0.33053 0.05779 0.86916 0.0
C344 C 0.31838 0.03747 0.88578 0.0
C345 C 0.31569 0.01928 0.86635 0.0
C346 C 0.32538 0.02222 0.83067 0.0
H347 H 0.34916 0.07541 0.82063 0.0
O348 O 0.40518 0.06663 0.81347 0.0
O349 O 0.37462 0.04408 0.78513 0.0
O350 O 0.39432 0.08625 0.75212 0.0
O351 O 0.35804 0.07017 0.75517 0.0
C352 C 0.304 0.99839 0.8812 0.0
C353 C 0.30272 0.98092 0.86073 0.0
H354 H 0.30456 0.95145 0.81383 0.0
H355 H 0.32378 0.96001 0.75205 0.0
H356 H 0.33269 0.07191 0.88396 0.0
H357 H 0.31128 0.03603 0.91354 0.0
H358 H 0.29619 0.99561 0.9086 0.0
H359 H 0.29403 0.96498 0.87279 0.0
Mn360 Mn 0.34382 0.40225 0.25447 0.0
Mn361 Mn 0.34755 0.44195 0.19779 0.0
C362 C 0.37673 0.43324 0.24681 0.0
C363 C 0.33762 0.38577 0.31388 0.0
C364 C 0.34621 0.40182 0.16745 0.0
O365 O 0.31227 0.39476 0.24882 0.0
O366 O 0.31671 0.422 0.21116 0.0
C367 C 0.33346 0.46323 0.25395 0.0
N368 N 0.34842 0.46425 0.22861 0.0
C369 C 0.37142 0.50195 0.24009 0.0
C370 C 0.35619 0.50133 0.26611 0.0
C371 C 0.33716 0.48187 0.27314 0.0
C372 C 0.36684 0.48286 0.22179 0.0
H373 H 0.31884 0.4483 0.2595 0.0
C374 C 0.3048 0.40493 0.23016 0.0
O375 O 0.33562 0.37519 0.28289 0.0
O376 O 0.34243 0.40561 0.31018 0.0
N377 N 0.37628 0.46271 0.18258 0.0
C378 C 0.38985 0.46038 0.15816 0.0
C379 C 0.40973 0.47831 0.14844 0.0
C380 C 0.4154 0.49847 0.16369 0.0
C381 C 0.40117 0.5005 0.18869 0.0
C382 C 0.38147 0.48211 0.19701 0.0
H383 H 0.38563 0.44493 0.14644 0.0
O384 O 0.37598 0.41565 0.25787 0.0
O385 O 0.35818 0.43229 0.2407 0.0
O386 O 0.34438 0.39276 0.19949 0.0
O387 O 0.34742 0.42009 0.16385 0.0
C388 C 0.40594 0.51997 0.20623 0.0
C389 C 0.39112 0.52068 0.23203 0.0
H390 H 0.35901 0.51566 0.28106 0.0
H391 H 0.32538 0.48124 0.29332 0.0
H392 H 0.42069 0.47659 0.12928 0.0
H393 H 0.43076 0.51226 0.15619 0.0
H394 H 0.42112 0.53443 0.20052 0.0
H395 H 0.3951 0.53568 0.24575 0.0
Mn396 Mn 0.93802 0.33589 0.76286 0.0
Mn397 Mn 0.9626 0.30588 0.76709 0.0
C398 C 0.95027 0.33071 0.82078 0.0
C399 C 0.93932 0.36875 0.75389 0.0
C400 C 0.91386 0.28696 0.75919 0.0
O401 O 0.94582 0.33456 0.70769 0.0
O402 O 0.96451 0.31695 0.71476 0.0
C403 C 0.0079 0.33949 0.75228 0.0
N404 N 0.99311 0.32336 0.77445 0.0
C405 C 0.02092 0.32655 0.81732 0.0
C406 C 0.03649 0.34307 0.79475 0.0
C407 C 0.02993 0.34962 0.76218 0.0
C408 C 0.99923 0.31699 0.80593 0.0
H409 H 0.00291 0.34461 0.7273 0.0
C410 C 0.95748 0.32706 0.69452 0.0
O411 O 0.92156 0.35072 0.74885 0.0
O412 O 0.9565 0.3677 0.76302 0.0
N413 N 0.96235 0.29436 0.81605 0.0
C414 C 0.94515 0.2795 0.83635 0.0
C415 C 0.94885 0.27155 0.87022 0.0
C416 C 0.97017 0.27895 0.88277 0.0
C417 C 0.98758 0.2945 0.86174 0.0
C418 C 0.98292 0.30156 0.82789 0.0
H419 H 0.92875 0.2736 0.82662 0.0
O420 O 0.93532 0.33609 0.81903 0.0
O421 O 0.95782 0.32859 0.78835 0.0
O422 O 0.91367 0.30461 0.76078 0.0
O423 O 0.93129 0.28591 0.76017 0.0
C424 C 0.00936 0.30346 0.87324 0.0
C425 C 0.02602 0.31955 0.85114 0.0
H426 H 0.05349 0.351 0.80241 0.0
H427 H 0.04183 0.36245 0.74477 0.0
H428 H 0.93531 0.25964 0.88644 0.0
H429 H 0.97301 0.27259 0.90862 0.0
H430 H 0.01345 0.29835 0.89936 0.0
H431 H 0.04266 0.32661 0.86064 0.0
H432 H 0.03758 0.34829 0.15529 0.0
H433 H 0.02232 0.33638 0.09181 0.0
H434 H 0.03299 0.39987 0.06747 0.0
H435 H 0.04985 0.41206 0.12933 0.0
H436 H 0.98962 0.33115 0.05915 0.0
H437 H 0.03703 0.41207 0.97764 0.0
H438 H 0.07362 0.44374 0.9768 0.0
H439 H 0.09992 0.40658 0.02533 0.0
H440 H 0.06354 0.37463 0.02603 0.0
H441 H 0.9317 0.32081 0.89057 0.0
H442 H 0.94997 0.32912 0.95162 0.0
H443 H 0.01144 0.35186 0.89459 0.0
H444 H 0.9934 0.34805 0.83428 0.0
H445 H 0.02066 0.37525 0.94391 0.0
H446 H 0.97827 0.29828 0.95851 0.0
H447 H 0.94522 0.26257 0.95886 0.0
H448 H 0.91579 0.2848 0.04002 0.0
H449 H 0.94861 0.32047 0.04024 0.0
C450 C 0.03701 0.35972 0.13593 0.0
C451 C 0.04518 0.38114 0.14684 0.0
C452 C 0.02816 0.35291 0.09975 0.0
C453 C 0.02676 0.36726 0.07422 0.0
C454 C 0.03456 0.38859 0.08572 0.0
C455 C 0.04409 0.39555 0.12128 0.0
C456 C 0.01643 0.35982 0.03626 0.0
C457 C 0.99659 0.34065 0.0338 0.0
C458 C 0.02552 0.37187 1.00283 0.0
C459 C 0.04751 0.391 1.00217 0.0
C460 C 0.05063 0.41063 0.98797 0.0
C461 C 0.07134 0.42864 0.98756 0.0
C462 C 0.08907 0.42719 1.0011 0.0
C463 C 0.08616 0.4077 0.01497 0.0
C464 C 0.06549 0.38964 0.01542 0.0
C465 C 0.94911 0.32736 0.89129 0.0
C466 C 0.96104 0.33237 0.85747 0.0
C467 C 0.95961 0.33177 0.92642 0.0
C468 C 0.98224 0.34031 0.92867 0.0
C469 C 0.99402 0.34513 0.8945 0.0
C470 C 0.98364 0.34213 0.85959 0.0
C471 C 0.9939 0.34606 0.96606 0.0
C472 C 0.01387 0.36523 0.96873 0.0
C473 C 0.98551 0.33335 0.99922 0.0
C474 C 0.96572 0.31203 0.99893 0.0
C475 C 0.96463 0.29552 0.97608 0.0
C476 C 0.946 0.27532 0.97627 0.0
C477 C 0.92839 0.2715 0.99917 0.0
C478 C 0.92942 0.2878 0.0222 0.0
C479 C 0.94805 0.30797 0.02229 0.0
H480 H 0.91399 0.25587 0.99921 0.0
H481 H 0.10508 0.44115 1.00079 0.0
H482 H 0.62022 0.93212 0.38956 0.0
H483 H 0.63373 0.94948 0.45141 0.0
H484 H 0.64651 0.00996 0.40368 0.0
H485 H 0.63328 0.99267 0.34195 0.0
H486 H 0.6758 0.98524 0.46835 0.0
H487 H 0.63312 0.03539 0.47489 0.0
H488 H 0.60013 0.03451 0.45036 0.0
H489 H 0.56765 0.9658 0.44647 0.0
H490 H 0.60032 0.96625 0.4715 0.0
H491 H 0.69587 0.07022 0.62162 0.0
H492 H 0.69126 0.0548 0.55784 0.0
H493 H 0.65612 0.99131 0.60516 0.0
H494 H 0.65944 0.00665 0.66838 0.0
H495 H 0.64009 0.01891 0.53931 0.0
H496 H 0.68718 0.97172 0.53114 0.0
H497 H 0.7237 0.97625 0.54007 0.0
H498 H 0.75136 0.04459 0.53594 0.0
H499 H 0.71505 0.04045 0.52698 0.0
C500 C 0.62608 0.94913 0.39243 0.0
C501 C 0.62638 0.96127 0.36107 0.0
C502 C 0.63374 0.95901 0.42758 0.0
C503 C 0.64107 0.98098 0.43206 0.0
C504 C 0.64085 0.99298 0.40084 0.0
C505 C 0.63349 0.98317 0.36563 0.0
C506 C 0.64911 0.99143 0.4693 0.0
C507 C 0.66784 0.99235 0.4842 0.0
C508 C 0.63917 1.00142 0.48904 0.0
C509 C 0.61925 1.00089 0.4747 0.0
C510 C 0.6189 0.02009 0.46895 0.0
C511 C 0.60026 0.01967 0.45494 0.0
C512 C 0.58183 1.00012 0.44674 0.0
C513 C 0.58197 0.98094 0.45269 0.0
C514 C 0.60056 0.98127 0.46674 0.0
C515 C 0.68773 0.05297 0.61844 0.0
C516 C 0.67869 0.03959 0.65012 0.0
C517 C 0.68522 0.0442 0.58209 0.0
C518 C 0.67384 0.02191 0.5769 0.0
C519 C 0.66551 0.00852 0.60866 0.0
C520 C 0.6676 0.0173 0.64485 0.0
C521 C 0.66684 0.01267 0.53853 0.0
C522 C 0.64809 0.01181 0.52353 0.0
C523 C 0.6771 0.0032 0.51819 0.0
C524 C 0.69834 0.00578 0.5294 0.0
C525 C 0.70103 0.98772 0.53286 0.0
C526 C 0.72172 0.99021 0.53754 0.0
C527 C 0.73984 0.0107 0.53872 0.0
C528 C 0.7373 0.02873 0.53527 0.0
C529 C 0.71663 0.02632 0.53084 0.0
H530 H 0.75585 0.01261 0.54225 0.0
H531 H 0.56742 0.99983 0.43585 0.0
H532 H 0.62288 0.69489 0.10799 0.0
H533 H 0.63393 0.68898 0.04525 0.0
H534 H 0.6493 0.64284 0.09374 0.0
H535 H 0.63877 0.64922 0.15639 0.0
H536 H 0.67852 0.66539 0.04277 0.0
H537 H 0.60099 0.62758 0.04648 0.0
H538 H 0.56456 0.6232 0.05572 0.0
H539 H 0.57652 0.66863 0.96691 0.0
H540 H 0.61314 0.67346 0.95746 0.0
H541 H 0.66643 0.60205 0.87828 0.0
H542 H 0.66296 0.61569 0.93995 0.0
H543 H 0.65883 0.66711 0.88458 0.0
H544 H 0.66255 0.65371 0.82275 0.0
H545 H 0.62555 0.64435 0.93751 0.0
H546 H 0.70312 0.67851 0.93117 0.0
H547 H 0.73842 0.68018 0.92301 0.0
H548 H 0.72497 0.63825 0.0183 0.0
H549 H 0.68942 0.63606 0.02667 0.0
C550 C 0.62895 0.68377 0.10513 0.0
C551 C 0.63056 0.67293 0.13694 0.0
C552 C 0.63513 0.68027 0.06935 0.0
C553 C 0.64225 0.66527 0.06459 0.0
C554 C 0.64398 0.65456 0.09659 0.0
C555 C 0.63804 0.65825 0.13238 0.0
C556 C 0.64699 0.65998 0.02621 0.0
C557 C 0.66687 0.66067 0.01986 0.0
C558 C 0.63191 0.65398 0.99605 0.0
C559 C 0.60988 0.65106 1.00155 0.0
C560 C 0.5959 0.63675 0.02911 0.0
C561 C 0.57522 0.63416 0.03435 0.0
C562 C 0.56826 0.64568 0.01199 0.0
C563 C 0.58195 0.65975 0.98425 0.0
C564 C 0.60266 0.66241 0.97892 0.0
C565 C 0.66504 0.61641 0.87924 0.0
C566 C 0.66477 0.62681 0.84562 0.0
C567 C 0.66312 0.62421 0.91452 0.0
C568 C 0.66071 0.64246 0.91688 0.0
C569 C 0.66071 0.65303 0.8834 0.0
C570 C 0.66292 0.64539 0.84811 0.0
C571 C 0.65706 0.6498 0.95415 0.0
C572 C 0.63731 0.64936 0.96032 0.0
C573 C 0.67211 0.65565 0.98428 0.0
C574 C 0.69348 0.65694 0.97928 0.0
C575 C 0.70758 0.66947 0.95015 0.0
C576 C 0.72767 0.67055 0.94554 0.0
C577 C 0.73391 0.65928 0.97005 0.0
C578 C 0.7201 0.64695 0.99929 0.0
C579 C 0.69999 0.64579 0.004 0.0
H580 H 0.74947 0.66014 0.96644 0.0
H581 H 0.55224 0.64366 0.01609 0.0
H582 H 0.07131 0.68643 0.40504 0.0
H583 H 0.05329 0.67834 0.46721 0.0
H584 H 0.99157 0.63922 0.413 0.0
H585 H 0.00966 0.64643 0.35123 0.0
H586 H 0.9942 0.67018 0.47577 0.0
H587 H 0.00892 0.61244 0.44428 0.0
H588 H 0.03318 0.59877 0.4244 0.0
H589 H 0.07398 0.62879 0.52077 0.0
H590 H 0.05011 0.64291 0.54089 0.0
H591 H 0.94406 0.58751 0.63836 0.0
H592 H 0.96048 0.59922 0.5757 0.0
H593 H 0.99556 0.66451 0.61516 0.0
H594 H 0.97948 0.65285 0.6783 0.0
H595 H 0.00586 0.62099 0.55894 0.0
H596 H 0.99625 0.69528 0.53411 0.0
H597 H 0.972 0.70922 0.55259 0.0
H598 H 0.91959 0.64501 0.56768 0.0
H599 H 0.94342 0.63068 0.54872 0.0
C600 C 0.05386 0.67641 0.4065 0.0
C601 C 0.0417 0.66773 0.37338 0.0
C602 C 0.04362 0.67183 0.44186 0.0
C603 C 0.0211 0.65842 0.44452 0.0
C604 C 0.00891 0.6499 0.41141 0.0
C605 C 0.01921 0.65417 0.37619 0.0
C606 C 0.01047 0.65178 0.48197 0.0
C607 C 0.99679 0.65952 0.4941 0.0
C608 C 0.01375 0.63772 0.50556 0.0
C609 C 0.02788 0.62892 0.49384 0.0
C610 C 0.02317 0.61627 0.46105 0.0
C611 C 0.03682 0.60841 0.44977 0.0
C612 C 0.05515 0.61297 0.47124 0.0
C613 C 0.0598 0.62531 0.50413 0.0
C614 C 0.0462 0.63323 0.5155 0.0
C615 C 0.95515 0.60438 0.63368 0.0
C616 C 0.96048 0.61926 0.66328 0.0
C617 C 0.96458 0.61103 0.59791 0.0
C618 C 0.97921 0.63271 0.59081 0.0
C619 C 0.98424 0.6477 0.62004 0.0
C620 C 0.97506 0.64102 0.65606 0.0
C621 C 0.9896 0.63948 0.55306 0.0
C622 C 0.00332 0.63177 0.54084 0.0
C623 C 0.9863 0.65355 0.52941 0.0
C624 C 0.97172 0.66193 0.54052 0.0
C625 C 0.97954 0.68414 0.54131 0.0
C626 C 0.96586 0.69211 0.55184 0.0
C627 C 0.9443 0.67801 0.56147 0.0
C628 C 0.93633 0.65591 0.56042 0.0
C629 C 0.94993 0.64786 0.54984 0.0
H630 H 0.93374 0.68421 0.56965 0.0
H631 H 0.06574 0.60693 0.46244 0.0
H632 H 0.38507 0.07247 0.8823 0.0
H633 H 0.37227 0.05587 0.94479 0.0
H634 H 0.35396 0.9939 0.8968 0.0
H635 H 0.36638 0.01047 0.8345 0.0
H636 H 0.32379 0.99041 0.94359 0.0
H637 H 0.40091 0.02235 0.94858 0.0
H638 H 0.43877 0.05152 0.94327 0.0
H639 H 0.42752 0.08681 0.03006 0.0
H640 H 0.38949 0.05796 0.03552 0.0
H641 H 0.31287 0.93345 0.11435 0.0
H642 H 0.32 0.95019 0.05204 0.0
H643 H 0.34897 0.01258 0.10492 0.0
H644 H 0.34486 0.99573 0.1666 0.0
H645 H 0.373 0.0161 0.0543 0.0
H646 H 0.29393 0.98372 0.04626 0.0
H647 H 0.25582 0.95421 0.04753 0.0
H648 H 0.27081 0.91963 0.965 0.0
H649 H 0.30878 0.94886 0.96301 0.0
C650 C 0.37811 0.0553 0.88527 0.0
C651 C 0.3761 0.0426 0.85369 0.0
C652 C 0.37093 0.04583 0.92088 0.0
C653 C 0.36228 0.02363 0.9256 0.0
C654 C 0.36044 0.01102 0.8939 0.0
C655 C 0.36744 0.02046 0.85834 0.0
C656 C 0.35546 0.01348 0.96355 0.0
C657 C 0.33449 0.99606 0.96788 0.0
C658 C 0.36942 0.02079 0.99528 0.0
C659 C 0.3923 0.0381 0.99217 0.0
C660 C 0.40647 0.03641 0.96633 0.0
C661 C 0.42796 0.05286 0.96333 0.0
C662 C 0.43553 0.07103 0.98624 0.0
C663 C 0.42163 0.07274 0.01229 0.0
C664 C 0.40011 0.05634 0.01537 0.0
C665 C 0.32038 0.95072 0.11254 0.0
C666 C 0.3273 0.96328 0.14549 0.0
C667 C 0.3242 0.96036 0.07678 0.0
C668 C 0.33444 0.9828 0.07319 0.0
C669 C 0.34086 0.99526 0.10644 0.0
C670 C 0.33796 0.98563 0.14199 0.0
C671 C 0.34072 0.99342 0.03518 0.0
C672 C 0.36187 0.01078 0.03053 0.0
C673 C 0.32686 0.98604 1.0031 0.0
C674 C 0.30418 0.96829 0.00501 0.0
C675 C 0.28907 0.96968 0.02879 0.0
C676 C 0.26754 0.95308 0.02952 0.0
C677 C 0.26099 0.93502 0.00669 0.0
C678 C 0.27591 0.93358 0.98281 0.0
C679 C 0.2974 0.95018 0.98176 0.0
H680 H 0.24433 0.9222 0.00736 0.0
H681 H 0.45217 0.08376 0.98388 0.0
H682 H 0.33767 0.3486 0.33134 0.0
H683 H 0.34072 0.33602 0.39427 0.0
H684 H 0.33776 0.38918 0.44517 0.0
H685 H 0.33542 0.40215 0.38236 0.0
H686 H 0.36991 0.38701 0.47372 0.0
H687 H 0.29556 0.33547 0.45219 0.0
H688 H 0.26413 0.30722 0.41801 0.0
H689 H 0.29226 0.26629 0.42307 0.0
H690 H 0.32403 0.29442 0.45683 0.0
H691 H 0.36393 0.35445 0.66383 0.0
H692 H 0.35172 0.36067 0.6026 0.0
H693 H 0.36788 0.3162 0.54965 0.0
H694 H 0.38007 0.30991 0.61123 0.0
H695 H 0.32768 0.31292 0.52353 0.0
H696 H 0.4028 0.36606 0.54313 0.0
H697 H 0.43314 0.39426 0.57953 0.0
H698 H 0.40173 0.43232 0.57945 0.0
H699 H 0.37102 0.40418 0.54354 0.0
C700 C 0.33731 0.3574 0.35599 0.0
C701 C 0.33639 0.37642 0.35186 0.0
C702 C 0.33897 0.35014 0.39203 0.0
C703 C 0.33937 0.36157 0.42467 0.0
C704 C 0.33759 0.38011 0.42052 0.0
C705 C 0.33617 0.38748 0.38455 0.0
C706 C 0.34335 0.35527 0.46283 0.0
C707 C 0.36038 0.37087 0.48471 0.0
C708 C 0.33133 0.33408 0.47709 0.0
C709 C 0.31229 0.31715 0.45669 0.0
C710 C 0.29514 0.32052 0.44572 0.0
C711 C 0.27724 0.30451 0.42648 0.0
C712 C 0.27623 0.285 0.41828 0.0
C713 C 0.29309 0.28143 0.42939 0.0
C714 C 0.31103 0.29739 0.44861 0.0
C715 C 0.36436 0.34563 0.63925 0.0
C716 C 0.37233 0.33127 0.6422 0.0
C717 C 0.35753 0.34929 0.60431 0.0
C718 C 0.35889 0.33889 0.57161 0.0
C719 C 0.36652 0.32423 0.57462 0.0
C720 C 0.37353 0.32071 0.60962 0.0
C721 C 0.35405 0.34469 0.53394 0.0
C722 C 0.33701 0.32903 0.5123 0.0
C723 C 0.36592 0.36585 0.5199 0.0
C724 C 0.38453 0.38293 0.54097 0.0
C725 C 0.40229 0.38038 0.55111 0.0
C726 C 0.41956 0.39636 0.57162 0.0
C727 C 0.41934 0.41505 0.58188 0.0
C728 C 0.40187 0.41782 0.57153 0.0
C729 C 0.38454 0.40187 0.55108 0.0
H730 H 0.43272 0.4274 0.59777 0.0
H731 H 0.26236 0.27262 0.40339 0.0
H732 H 0.9842 0.63574 0.85434 0.0
H733 H 0.0055 0.65063 0.91235 0.0
H734 H 0.94786 0.61485 0.97961 0.0
H735 H 0.92661 0.59981 0.92234 0.0
H736 H 0.00426 0.67386 0.97388 0.0
H737 H 0.95965 0.59262 0.05369 0.0
H738 H 0.94008 0.55408 0.03832 0.0
H739 H 0.97635 0.56652 0.93509 0.0
H740 H 0.99648 0.60507 0.95021 0.0
H741 H 0.01781 0.686 0.17275 0.0
H742 H 0.00476 0.67739 0.10769 0.0
H743 H 0.04058 0.64381 0.09259 0.0
H744 H 0.05356 0.65211 0.15787 0.0
H745 H 1.00058 0.62035 0.06708 0.0
H746 H 0.05708 0.69201 0.04951 0.0
H747 H 0.0785 0.73076 0.06223 0.0
H748 H 0.02319 0.73786 0.03675 0.0
H749 H 1.00134 0.69908 0.02441 0.0
C750 C 0.97601 0.63131 0.88146 0.0
C751 C 0.95373 0.61636 0.88364 0.0
C752 C 0.98821 0.63984 0.91457 0.0
C753 C 0.97832 0.63352 0.95029 0.0
C754 C 0.95589 0.61963 0.95237 0.0
C755 C 0.94376 0.61107 0.9195 0.0
C756 C 0.9914 0.64032 0.9856 0.0
C757 C 0.00353 0.6622 0.99425 0.0
C758 C 0.99092 0.62508 0.01168 0.0
C759 C 0.97946 0.60179 1.003 0.0
C760 C 0.96358 0.58712 0.02787 0.0
C761 C 0.95238 0.56527 0.01917 0.0
C762 C 0.95694 0.55786 0.98572 0.0
C763 C 0.97281 0.57228 0.96097 0.0
C764 C 0.98413 0.59413 0.9696 0.0
C765 C 0.02313 0.67695 0.15558 0.0
C766 C 0.03678 0.66977 0.17074 0.0
C767 C 0.0157 0.67212 0.11824 0.0
C768 C 0.02183 0.6601 0.09507 0.0
C769 C 0.03565 0.65312 0.1099 0.0
C770 C 0.04311 0.65795 0.14727 0.0
C771 C 0.01289 0.65393 0.05609 0.0
C772 C 1.0015 0.63208 0.04669 0.0
C773 C 0.01443 0.66923 0.02907 0.0
C774 C 0.02753 0.69259 0.03631 0.0
C775 C 0.04944 0.7018 0.04689 0.0
C776 C 0.06166 0.72378 0.05399 0.0
C777 C 0.0522 0.73676 0.05037 0.0
C778 C 0.0305 0.72779 0.03956 0.0
C779 C 0.01819 0.70581 0.03246 0.0
H780 H 0.0617 0.75378 0.05588 0.0
H781 H 0.94821 0.54095 0.97901 0.0
H782 H 0.3625 0.96987 0.34999 0.0
H783 H 0.37107 0.98354 0.41474 0.0
H784 H 0.30823 0.97892 0.4244 0.0
H785 H 0.30013 0.96638 0.35893 0.0
H786 H 0.33589 0.01448 0.45221 0.0
H787 H 0.32339 0.94276 0.4694 0.0
H788 H 0.32859 0.91181 0.45661 0.0
H789 H 0.39582 0.94923 0.48649 0.0
H790 H 0.39107 0.98048 0.49908 0.0
H791 H 0.33285 0.0228 0.65213 0.0
H792 H 0.32648 0.00935 0.58722 0.0
H793 H 0.39393 0.02758 0.57614 0.0
H794 H 0.40056 0.04116 0.64123 0.0
H795 H 0.36562 0.98609 0.54942 0.0
H796 H 0.3767 0.05739 0.53453 0.0
H797 H 0.37032 0.0875 0.54834 0.0
H798 H 0.30369 0.04919 0.51534 0.0
H799 H 0.3096 0.01873 0.50184 0.0
C800 C 0.35043 0.97154 0.3661 0.0
C801 C 0.33061 0.96698 0.34944 0.0
C802 C 0.35531 0.9793 0.40324 0.0
C803 C 0.34019 0.98201 0.42489 0.0
C804 C 0.32022 0.97704 0.4084 0.0
C805 C 0.31555 0.96978 0.371 0.0
C806 C 0.34543 0.99082 0.46414 0.0
C807 C 0.34207 0.00799 0.47354 0.0
C808 C 0.35409 0.98286 0.49192 0.0
C809 C 0.35691 0.96401 0.48484 0.0
C810 C 0.33931 0.94441 0.47305 0.0
C811 C 0.34217 0.92682 0.46586 0.0
C812 C 0.36254 0.92857 0.47064 0.0
C813 C 0.38006 0.9479 0.48277 0.0
C814 C 0.37729 0.96555 0.48998 0.0
C815 C 0.3464 0.02405 0.63595 0.0
C816 C 0.36726 0.03317 0.65197 0.0
C817 C 0.34271 0.01638 0.59878 0.0
C818 C 0.35975 0.01758 0.5768 0.0
C819 C 0.38056 0.02652 0.59264 0.0
C820 C 0.38433 0.03438 0.62979 0.0
C821 C 0.35572 0.00939 0.53731 0.0
C822 C 0.35939 0.99245 0.52794 0.0
C823 C 0.3471 0.01737 0.50966 0.0
C824 C 0.34355 0.03572 0.51749 0.0
C825 C 0.36065 0.05533 0.53049 0.0
C826 C 0.35712 0.07247 0.53822 0.0
C827 C 0.3366 0.07024 0.53281 0.0
C828 C 0.31957 0.05089 0.51956 0.0
C829 C 0.32301 0.03369 0.51183 0.0
H830 H 0.3339 0.08353 0.53881 0.0
H831 H 0.36473 0.91494 0.46501 0.0
H832 H 0.39352 0.36631 0.839 0.0
H833 H 0.38883 0.37549 0.90344 0.0
H834 H 0.34121 0.30937 0.92457 0.0
H835 H 0.34464 0.30061 0.85863 0.0
H836 H 0.32751 0.33105 0.95601 0.0
H837 H 0.39732 0.33691 0.96204 0.0
H838 H 0.43477 0.34838 0.94195 0.0
H839 H 0.45206 0.41423 0.95772 0.0
H840 H 0.41465 0.40317 0.97758 0.0
H841 H 0.33586 0.35973 0.15692 0.0
H842 H 0.33995 0.34336 0.09851 0.0
H843 H 0.36561 0.40406 0.04113 0.0
H844 H 0.36101 0.42032 0.0983 0.0
H845 H 0.3906 0.38058 0.03429 0.0
H846 H 0.31817 0.37232 0.02196 0.0
H847 H 0.28071 0.35924 0.0439 0.0
H848 H 0.26925 0.29464 0.04375 0.0
H849 H 0.30678 0.30741 0.02233 0.0
C850 C 0.38217 0.35373 0.85755 0.0
C851 C 0.36959 0.33273 0.84407 0.0
C852 C 0.37962 0.35893 0.8946 0.0
C853 C 0.36514 0.34305 0.91965 0.0
C854 C 0.35259 0.32196 0.90609 0.0
C855 C 0.3546 0.31691 0.86849 0.0
C856 C 0.36246 0.34874 0.95927 0.0
C857 C 0.3414 0.34148 0.9733 0.0
C858 C 0.38046 0.36247 0.98226 0.0
C859 C 0.40312 0.36919 0.97111 0.0
C860 C 0.40909 0.35384 0.96112 0.0
C861 C 0.43031 0.36027 0.94978 0.0
C862 C 0.44577 0.38202 0.9485 0.0
C863 C 0.44007 0.39739 0.95875 0.0
C864 C 0.41887 0.39104 0.97014 0.0
C865 C 0.34231 0.36956 0.13182 0.0
C866 C 0.34813 0.39137 0.13244 0.0
C867 C 0.34465 0.36019 0.09855 0.0
C868 C 0.3532 0.37258 0.06567 0.0
C869 C 0.35911 0.39429 0.06629 0.0
C870 C 0.35638 0.40352 0.09909 0.0
C871 C 0.35586 0.36313 0.03013 0.0
C872 C 0.37688 0.36975 0.01702 0.0
C873 C 0.3379 0.34848 0.00841 0.0
C874 C 0.31534 0.34084 0.02104 0.0
C875 C 0.30773 0.35536 0.02698 0.0
C876 C 0.28647 0.34799 0.03924 0.0
C877 C 0.27263 0.32613 0.04535 0.0
C878 C 0.28 0.31158 0.03909 0.0
C879 C 0.30126 0.31886 0.02688 0.0
H880 H 0.25618 0.32046 0.05484 0.0
H881 H 0.46218 0.38698 0.93961 0.0
H882 H 0.94006 0.33909 0.63598 0.0
H883 H 0.95367 0.34795 0.57062 0.0
H884 H 0.00493 0.33442 0.59766 0.0
H885 H 0.9913 0.32502 0.66223 0.0
H886 H 0.01401 0.37929 0.56134 0.0
H887 H 0.97498 0.30045 0.55142 0.0
H888 H 0.94165 0.26538 0.55634 0.0
H889 H 0.90962 0.28621 0.47775 0.0
H890 H 0.94271 0.32154 0.47284 0.0
H891 H 0.07414 0.38998 0.40089 0.0
H892 H 0.05325 0.37516 0.45888 0.0
H893 H 0.99445 0.36032 0.39893 0.0
H894 H 0.01529 0.37415 0.34019 0.0
H895 H 0.98531 0.33095 0.45007 0.0
H896 H 0.02233 0.40681 0.45223 0.0
H897 H 0.05331 0.44337 0.44595 0.0
H898 H 0.08581 0.43152 0.53758 0.0
H899 H 0.05514 0.39474 0.54407 0.0
C900 C 0.9541 0.3378 0.62787 0.0
C901 C 0.96457 0.33133 0.65439 0.0
C902 C 0.9618 0.34282 0.59059 0.0
C903 C 0.98024 0.34176 0.57953 0.0
C904 C 0.99062 0.33524 0.60575 0.0
C905 C 0.98274 0.32983 0.64264 0.0
C906 C 0.98957 0.34846 0.54122 0.0
C907 C 0.00787 0.36873 0.53699 0.0
C908 C 0.98095 0.33495 0.50937 0.0
C909 C 0.96119 0.3137 0.51218 0.0
C910 C 0.96075 0.29763 0.53554 0.0
C911 C 0.94193 0.27768 0.53824 0.0
C912 C 0.9235 0.27359 0.51748 0.0
C913 C 0.92389 0.28941 0.49388 0.0
C914 C 0.94267 0.30939 0.49111 0.0
C915 C 0.0567 0.38314 0.39995 0.0
C916 C 0.04632 0.3833 0.3662 0.0
C917 C 0.04478 0.37484 0.43314 0.0
C918 C 0.02234 0.36725 0.43361 0.0
C919 C 0.01175 0.36623 0.39938 0.0
C920 C 0.02365 0.37408 0.36583 0.0
C921 C 0.01038 0.36163 0.47023 0.0
C922 C 0.99148 0.34167 0.47419 0.0
C923 C 0.01813 0.3757 0.50176 0.0
C924 C 0.03648 0.39795 0.49845 0.0
C925 C 0.03613 0.41195 0.47092 0.0
C926 C 0.05364 0.43272 0.46731 0.0
C927 C 0.07154 0.43975 0.49128 0.0
C928 C 0.07193 0.42604 0.51901 0.0
C929 C 0.05448 0.40524 0.5227 0.0
H930 H 0.08509 0.45583 0.48841 0.0
H931 H 0.90895 0.25814 0.5196 0.0
H932 H 0.65009 0.04682 0.86516 0.0
H933 H 0.64109 0.03391 0.93056 0.0
H934 H 0.67464 0.99802 0.91677 0.0
H935 H 0.68354 0.01058 0.85171 0.0
H936 H 0.63646 0.97426 0.95175 0.0
H937 H 0.69809 0.04513 0.96387 0.0
H938 H 0.7185 0.08428 0.95475 0.0
H939 H 0.66934 0.09059 0.01488 0.0
H940 H 0.64848 0.05141 0.02391 0.0
H941 H 0.66885 0.98916 0.16391 0.0
H942 H 0.67414 0.00181 0.09861 0.0
H943 H 0.60541 0.96403 0.0784 0.0
H944 H 0.59989 0.95102 0.14377 0.0
H945 H 0.65978 0.02465 0.06035 0.0
H946 H 0.59802 0.94667 0.98581 0.0
H947 H 0.5806 0.90755 0.99499 0.0
H948 H 0.63529 0.91559 0.05998 0.0
H949 H 0.65314 0.9547 0.05076 0.0
C950 C 0.65556 0.03618 0.87603 0.0
C951 C 0.66765 0.02986 0.85308 0.0
C952 C 0.65043 0.02885 0.91346 0.0
C953 C 0.65727 0.01506 0.92863 0.0
C954 C 0.66913 0.00859 0.90568 0.0
C955 C 0.67432 0.01594 0.86845 0.0
C956 C 0.65239 0.00744 0.96849 0.0
C957 C 0.64142 0.98529 0.97548 0.0
C958 C 0.65909 0.02179 0.99952 0.0
C959 C 0.67161 0.04533 0.99418 0.0
C960 C 0.69155 0.05485 0.97487 0.0
C961 C 0.70321 0.07705 0.96977 0.0
C962 C 0.69519 0.08991 0.98413 0.0
C963 C 0.67551 0.0806 0.00371 0.0
C964 C 0.66377 0.0584 0.00884 0.0
C965 C 0.6548 0.9834 0.14566 0.0
C966 C 0.63393 0.96891 0.15922 0.0
C967 C 0.65787 0.9908 0.10831 0.0
C968 C 0.64021 0.98383 0.08352 0.0
C969 C 0.61932 0.96947 0.0969 0.0
C970 C 0.6162 0.96206 0.13434 0.0
C971 C 0.64384 0.99147 0.0436 0.0
C972 C 0.65455 0.01362 0.03661 0.0
C973 C 0.63724 0.97713 0.01257 0.0
C974 C 0.62678 0.95362 0.01796 0.0
C975 C 0.60634 0.94007 1.00197 0.0
C976 C 0.5964 0.9179 0.00718 0.0
C977 C 0.6068 0.9091 0.02817 0.0
C978 C 0.62721 0.92243 0.04386 0.0
C979 C 0.63723 0.9446 0.03869 0.0
H980 H 0.59906 0.89193 0.0322 0.0
H981 H 0.70425 0.10709 0.98016 0.0
H982 H 0.61073 0.63891 0.3371 0.0
H983 H 0.61644 0.62985 0.40103 0.0
H984 H 0.67012 0.694 0.41556 0.0
H985 H 0.66539 0.7025 0.35017 0.0
H986 H 0.68139 0.67002 0.44565 0.0
H987 H 0.61646 0.67309 0.45988 0.0
H988 H 0.5794 0.66576 0.44558 0.0
H989 H 0.55487 0.59867 0.46548 0.0
H990 H 0.59182 0.60555 0.47942 0.0
H991 H 0.67231 0.64455 0.65102 0.0
H992 H 0.66853 0.66082 0.5922 0.0
H993 H 0.64576 0.60073 0.53407 0.0
H994 H 0.65017 0.58459 0.59171 0.0
H995 H 0.6197 0.62735 0.53209 0.0
H996 H 0.6886 0.62744 0.50924 0.0
H997 H 0.72604 0.63772 0.5276 0.0
H998 H 0.74278 0.70394 0.52986 0.0
H999 H 0.70531 0.69398 0.51206 0.0
C1000 C 0.62364 0.65112 0.35408 0.0
C1001 C 0.63751 0.67146 0.33883 0.0
C1002 C 0.62682 0.646 0.39086 0.0
C1003 C 0.64337 0.66138 0.41392 0.0
C1004 C 0.65718 0.6818 0.39864 0.0
C1005 C 0.65443 0.68671 0.36132 0.0
C1006 C 0.64677 0.65576 0.45319 0.0
C1007 C 0.66784 0.66105 0.46463 0.0
C1008 C 0.62927 0.64406 0.47856 0.0
C1009 C 0.60696 0.63984 0.47046 0.0
C1010 C 0.60319 0.65676 0.461 0.0
C1011 C 0.58219 0.65268 0.45298 0.0
C1012 C 0.5648 0.63176 0.45455 0.0
C1013 C 0.56836 0.61487 0.46426 0.0
C1014 C 0.58932 0.61886 0.47228 0.0
C1015 C 0.6666 0.63484 0.62567 0.0
C1016 C 0.66152 0.61323 0.62622 0.0
C1017 C 0.66445 0.64416 0.59216 0.0
C1018 C 0.65682 0.63191 0.55897 0.0
C1019 C 0.65164 0.6104 0.55947 0.0
C1020 C 0.65423 0.60123 0.59254 0.0
C1021 C 0.654 0.64126 0.52346 0.0
C1022 C 0.6331 0.63664 0.51298 0.0
C1023 C 0.67164 0.65402 0.49947 0.0
C1024 C 0.69413 0.65995 0.50985 0.0
C1025 C 0.70021 0.64416 0.51407 0.0
C1026 C 0.72144 0.64993 0.52427 0.0
C1027 C 0.73676 0.67146 0.53004 0.0
C1028 C 0.73089 0.68727 0.52548 0.0
C1029 C 0.70966 0.68157 0.51532 0.0
H1030 H 0.75319 0.6759 0.53792 0.0
H1031 H 0.54856 0.62864 0.44831 0.0
H1032 H 0.03027 0.59316 0.2869 0.0
H1033 H 0.03025 0.55913 0.28462 0.0
H1034 H 0.09535 0.59142 0.24021 0.0
H1035 H 0.09552 0.62564 0.24238 0.0
H1036 H 0.06792 0.55316 0.20261 0.0
H1037 H 0.08767 0.57834 0.33104 0.0
H1038 H 0.08277 0.59157 0.39268 0.0
H1039 H 0.02221 0.53363 0.40848 0.0
H1040 H 0.02656 0.52019 0.34664 0.0
H1041 H 0.09133 0.46909 0.22937 0.0
H1042 H 0.09192 0.50344 0.22994 0.0
H1043 H 0.03153 0.47442 0.29181 0.0
H1044 H 0.03164 0.44027 0.29285 0.0
H1045 H 0.05706 0.51158 0.32081 0.0
H1046 H 0.03535 0.4863 0.19403 0.0
H1047 H 0.03804 0.47227 0.1317 0.0
H1048 H 0.09916 0.52894 0.1117 0.0
H1049 H 0.09697 0.54319 0.17416 0.0
C1050 C 0.04455 0.59304 0.27643 0.0
C1051 C 0.06294 0.6121 0.26493 0.0
C1052 C 0.04453 0.57358 0.27531 0.0
C1053 C 0.06289 0.57282 0.26268 0.0
C1054 C 0.08105 0.59171 0.25017 0.0
C1055 C 0.08114 0.61123 0.25149 0.0
C1056 C 0.06317 0.55231 0.26294 0.0
C1057 C 0.06584 0.54417 0.22849 0.0
C1058 C 0.05983 0.54036 0.29661 0.0
C1059 C 0.05735 0.54835 0.33402 0.0
C1060 C 0.07323 0.56849 0.34752 0.0
C1061 C 0.07056 0.57602 0.38252 0.0
C1062 C 0.05216 0.56347 0.40443 0.0
C1063 C 0.03643 0.54334 0.39145 0.0
C1064 C 0.039 0.53576 0.35644 0.0
C1065 C 0.07842 0.47024 0.24366 0.0
C1066 C 0.06189 0.45243 0.26237 0.0
C1067 C 0.07855 0.48974 0.24342 0.0
C1068 C 0.06167 0.49154 0.26068 0.0
C1069 C 0.04481 0.47349 0.27855 0.0
C1070 C 0.04482 0.45402 0.27908 0.0
C1071 C 0.0617 0.51226 0.26037 0.0
C1072 C 0.05914 0.5205 0.29486 0.0
C1073 C 0.06481 0.52416 0.22664 0.0
C1074 C 0.06608 0.51572 0.18891 0.0
C1075 C 0.04943 0.49571 0.17643 0.0
C1076 C 0.05086 0.48773 0.14107 0.0
C1077 C 0.06879 0.49969 0.11779 0.0
C1078 C 0.08529 0.51969 0.12978 0.0
C1079 C 0.08396 0.52774 0.16514 0.0
H1080 H 0.06987 0.49347 0.09044 0.0
H1081 H 0.05012 0.5693 0.43152 0.0
H1082 H 0.46647 0.08155 0.7018 0.0
H1083 H 0.49959 0.07911 0.69674 0.0
H1084 H 0.47558 0.03026 0.78343 0.0
H1085 H 0.44197 0.03172 0.7866 0.0
H1086 H 0.53034 0.08797 0.73972 0.0
H1087 H 0.49651 0.99796 0.77877 0.0
H1088 H 0.46323 0.96328 0.76915 0.0
H1089 H 0.44772 0.98823 0.67068 0.0
H1090 H 0.48104 0.02296 0.67939 0.0
H1091 H 0.61912 0.0763 0.7918 0.0
H1092 H 0.5842 0.07528 0.79008 0.0
H1093 H 0.56385 0.03014 0.69747 0.0
H1094 H 0.59824 0.03003 0.70112 0.0
H1095 H 0.5313 0.01937 0.73716 0.0
H1096 H 0.58277 0.08686 0.6864 0.0
H1097 H 0.61631 0.12187 0.6837 0.0
H1098 H 0.59678 0.14235 0.78323 0.0
H1099 H 0.56325 0.10736 0.78681 0.0
C1100 C 0.46821 0.07012 0.71939 0.0
C1101 C 0.45162 0.05671 0.74437 0.0
C1102 C 0.48718 0.06878 0.71662 0.0
C1103 C 0.49011 0.05429 0.73932 0.0
C1104 C 0.47357 0.04111 0.7647 0.0
C1105 C 0.45439 0.04205 0.76671 0.0
C1106 C 0.51076 0.05357 0.73757 0.0
C1107 C 0.53048 0.07293 0.73896 0.0
C1108 C 0.51117 0.03404 0.73561 0.0
C1109 C 0.49118 0.01313 0.72998 0.0
C1110 C 0.48604 0.99602 0.75498 0.0
C1111 C 0.46716 0.97636 0.7497 0.0
C1112 C 0.45334 0.97358 0.7194 0.0
C1113 C 0.4584 0.99043 0.69422 0.0
C1114 C 0.47727 0.01012 0.69935 0.0
C1115 C 0.6071 0.06605 0.77129 0.0
C1116 C 0.61137 0.05332 0.74647 0.0
C1117 C 0.58719 0.06561 0.77006 0.0
C1118 C 0.57148 0.05309 0.74292 0.0
C1119 C 0.57563 0.04 0.71863 0.0
C1120 C 0.59531 0.03995 0.72066 0.0
C1121 C 0.55084 0.05376 0.73975 0.0
C1122 C 0.53113 0.03439 0.7376 0.0
C1123 C 0.55046 0.07332 0.73911 0.0
C1124 C 0.57059 0.09442 0.73705 0.0
C1125 C 0.5857 0.09879 0.70785 0.0
C1126 C 0.6047 0.11863 0.70614 0.0
C1127 C 0.6087 0.1343 0.73332 0.0
C1128 C 0.59367 0.13018 0.76222 0.0
C1129 C 0.57466 0.11036 0.76408 0.0
H1130 H 0.62342 0.14965 0.73196 0.0
H1131 H 0.43872 0.95835 0.71538 0.0
H1132 H 0.56829 0.59613 0.22135 0.0
H1133 H 0.53495 0.5616 0.22518 0.0
H1134 H 0.50169 0.59238 0.2742 0.0
H1135 H 0.53506 0.6271 0.27049 0.0
H1136 H 0.49224 0.55418 0.31059 0.0
H1137 H 0.49403 0.57942 0.18388 0.0
H1138 H 0.51033 0.59358 0.12135 0.0
H1139 H 0.51576 0.53744 0.10087 0.0
H1140 H 0.49978 0.52309 0.16357 0.0
H1141 H 0.38455 0.46959 0.28321 0.0
H1142 H 0.4186 0.50366 0.28534 0.0
H1143 H 0.44989 0.47556 0.22053 0.0
H1144 H 0.41545 0.44176 0.21704 0.0
H1145 H 0.46086 0.51265 0.19273 0.0
H1146 H 0.45888 0.48709 0.31857 0.0
H1147 H 0.4431 0.47276 0.38134 0.0
H1148 H 0.43817 0.52899 0.40383 0.0
H1149 H 0.45366 0.54354 0.34096 0.0
C1150 C 0.55392 0.59557 0.23313 0.0
C1151 C 0.55427 0.61436 0.24545 0.0
C1152 C 0.53487 0.57582 0.23519 0.0
C1153 C 0.5158 0.57448 0.24961 0.0
C1154 C 0.51623 0.59311 0.26291 0.0
C1155 C 0.53528 0.61292 0.26066 0.0
C1156 C 0.49535 0.55367 0.25001 0.0
C1157 C 0.48514 0.54521 0.2848 0.0
C1158 C 0.48646 0.54176 0.21643 0.0
C1159 C 0.49593 0.55029 0.1786 0.0
C1160 C 0.49887 0.57018 0.16618 0.0
C1161 C 0.50802 0.57822 0.13068 0.0
C1162 C 0.51414 0.56645 0.1072 0.0
C1163 C 0.51105 0.54657 0.11912 0.0
C1164 C 0.50193 0.53846 0.15462 0.0
C1165 C 0.3987 0.47087 0.26908 0.0
C1166 C 0.39733 0.45351 0.24862 0.0
C1167 C 0.41823 0.49019 0.27085 0.0
C1168 C 0.43692 0.49223 0.25321 0.0
C1169 C 0.43569 0.47448 0.23408 0.0
C1170 C 0.41609 0.4552 0.23213 0.0
C1171 C 0.45749 0.51306 0.25336 0.0
C1172 C 0.46779 0.52157 0.2186 0.0
C1173 C 0.46646 0.52496 0.28701 0.0
C1174 C 0.45727 0.51632 0.32493 0.0
C1175 C 0.4543 0.49634 0.3368 0.0
C1176 C 0.44543 0.48819 0.37241 0.0
C1177 C 0.43959 0.49994 0.39652 0.0
C1178 C 0.44268 0.5199 0.38511 0.0
C1179 C 0.45153 0.52811 0.34951 0.0
H1180 H 0.43272 0.4936 0.42407 0.0
H1181 H 0.52123 0.57272 0.07974 0.0
H1182 H 0.90755 0.5284 0.7544 0.0
H1183 H 0.90788 0.49442 0.75702 0.0
H1184 H 0.97017 0.52642 0.81201 0.0
H1185 H 0.96876 0.55983 0.81295 0.0
H1186 H 0.94927 0.49585 0.72245 0.0
H1187 H 0.963 0.50284 0.86017 0.0
H1188 H 0.9571 0.50474 0.92837 0.0
H1189 H 0.89442 0.44856 0.91975 0.0
H1190 H 0.89939 0.44726 0.85082 0.0
H1191 H 0.97454 0.40898 0.74849 0.0
H1192 H 0.97488 0.4433 0.7527 0.0
H1193 H 0.90525 0.40962 0.76208 0.0
H1194 H 0.90468 0.37534 0.7569 0.0
H1195 H 0.93183 0.44151 0.82301 0.0
H1196 H 0.92094 0.43247 0.68718 0.0
H1197 H 0.9306 0.42706 0.6226 0.0
H1198 H 0.99197 0.48482 0.63193 0.0
H1199 H 0.98279 0.49039 0.69684 0.0
C1200 C 0.92062 0.52782 0.76915 0.0
C1201 C 0.93749 0.54642 0.78545 0.0
C1202 C 0.92094 0.50847 0.77032 0.0
C1203 C 0.93853 0.50753 0.78653 0.0
C1204 C 0.95575 0.5263 0.80171 0.0
C1205 C 0.95511 0.5455 0.80159 0.0
C1206 C 0.94044 0.48801 0.78112 0.0
C1207 C 0.94567 0.48409 0.74464 0.0
C1208 C 0.93567 0.47256 0.80997 0.0
C1209 C 0.93121 0.47557 0.84986 0.0
C1210 C 0.94751 0.49159 0.8723 0.0
C1211 C 0.94446 0.49237 0.91129 0.0
C1212 C 0.92537 0.47682 0.92841 0.0
C1213 C 0.90918 0.46063 0.90648 0.0
C1214 C 0.91198 0.46008 0.86735 0.0
C1215 C 0.95929 0.40891 0.75083 0.0
C1216 C 0.93958 0.38948 0.75242 0.0
C1217 C 0.95952 0.42851 0.75316 0.0
C1218 C 0.94009 0.42892 0.75771 0.0
C1219 C 0.92039 0.40958 0.75849 0.0
C1220 C 0.92011 0.39003 0.75542 0.0
C1221 C 0.94033 0.44939 0.76454 0.0
C1222 C 0.93546 0.45339 0.80103 0.0
C1223 C 0.9458 0.46503 0.73604 0.0
C1224 C 0.95128 0.4617 0.69703 0.0
C1225 C 0.93659 0.44389 0.67562 0.0
C1226 C 0.94195 0.44083 0.63892 0.0
C1227 C 0.96191 0.45555 0.62322 0.0
C1228 C 0.97653 0.4734 0.64415 0.0
C1229 C 0.97124 0.47653 0.68089 0.0
H1230 H 0.96603 0.45315 0.5948 0.0
H1231 H 0.92315 0.47731 0.95866 0.0
H1232 H 0.37565 0.91081 0.25676 0.0
H1233 H 0.41047 0.91173 0.25867 0.0
H1234 H 0.44359 0.98012 0.24097 0.0
H1235 H 0.40866 0.97921 0.238 0.0
H1236 H 0.46104 0.96281 0.19807 0.0
H1237 H 0.4426 0.95818 0.32865 0.0
H1238 H 0.41963 0.94398 0.38549 0.0
H1239 H 0.41718 0.88347 0.37039 0.0
H1240 H 0.43989 0.8972 0.31311 0.0
H1241 H 0.56495 0.97752 0.2541 0.0
H1242 H 0.53105 0.97871 0.25154 0.0
H1243 H 0.49473 0.90972 0.24747 0.0
H1244 H 0.52855 0.90838 0.24951 0.0
H1245 H 0.47999 0.9289 0.3028 0.0
H1246 H 0.49877 0.93511 0.17011 0.0
H1247 H 0.52293 0.95116 0.11514 0.0
H1248 H 0.52634 0.01153 0.1377 0.0
H1249 H 0.50244 0.99591 0.19318 0.0
C1250 C 0.39034 0.92608 0.25344 0.0
C1251 C 0.38941 0.94496 0.24736 0.0
C1252 C 0.41026 0.92659 0.2547 0.0
C1253 C 0.42971 0.94604 0.2505 0.0
C1254 C 0.42882 0.96493 0.24435 0.0
C1255 C 0.40885 0.9644 0.24279 0.0
C1256 C 0.45088 0.94651 0.25177 0.0
C1257 C 0.4653 0.95569 0.22129 0.0
C1258 C 0.45639 0.93699 0.28182 0.0
C1259 C 0.44279 0.92867 0.31636 0.0
C1260 C 0.43703 0.94179 0.33727 0.0
C1261 C 0.42408 0.93384 0.3696 0.0
C1262 C 0.41691 0.91283 0.38149 0.0
C1263 C 0.42273 0.89974 0.36112 0.0
C1264 C 0.43565 0.90761 0.32874 0.0
C1265 C 0.54975 0.96261 0.25237 0.0
C1266 C 0.54939 0.94285 0.25194 0.0
C1267 C 0.53043 0.96333 0.25088 0.0
C1268 C 0.51043 0.9443 0.24929 0.0
C1269 C 0.51002 0.92456 0.24873 0.0
C1270 C 0.52935 0.92384 0.24969 0.0
C1271 C 0.48989 0.94497 0.24899 0.0
C1272 C 0.47567 0.93606 0.27971 0.0
C1273 C 0.48473 0.95502 0.21949 0.0
C1274 C 0.499 0.9644 0.18603 0.0
C1275 C 0.50483 0.95186 0.16355 0.0
C1276 C 0.51844 0.96087 0.13226 0.0
C1277 C 0.52622 0.98237 0.123 0.0
C1278 C 0.52033 0.99489 0.14495 0.0
C1279 C 0.50674 0.98596 0.1763 0.0
H1280 H 0.53675 0.98931 0.09876 0.0
H1281 H 0.40688 0.9067 0.40652 0.0
H1282 H 0.62184 0.53083 0.76488 0.0
H1283 H 0.58711 0.49741 0.7633 0.0
H1284 H 0.55781 0.53084 0.70942 0.0
H1285 H 0.59304 0.56326 0.70647 0.0
H1286 H 0.55237 0.48787 0.79758 0.0
H1287 H 0.52373 0.51102 0.67395 0.0
H1288 H 0.53074 0.52372 0.60765 0.0
H1289 H 0.55924 0.48413 0.58557 0.0
H1290 H 0.55261 0.47155 0.65202 0.0
H1291 H 0.43426 0.4087 0.72649 0.0
H1292 H 0.46701 0.44379 0.72814 0.0
H1293 H 0.50372 0.41454 0.76844 0.0
H1294 H 0.47094 0.37934 0.76709 0.0
H1295 H 0.50316 0.45655 0.68757 0.0
H1296 H 0.54541 0.45081 0.82475 0.0
H1297 H 0.53508 0.43422 0.88807 0.0
H1298 H 0.47478 0.43444 0.88115 0.0
H1299 H 0.48489 0.45138 0.81812 0.0
C1300 C 0.60821 0.5306 0.75067 0.0
C1301 C 0.61042 0.54923 0.73364 0.0
C1302 C 0.58821 0.51162 0.7504 0.0
C1303 C 0.5697 0.51111 0.73472 0.0
C1304 C 0.57182 0.5301 0.71926 0.0
C1305 C 0.59198 0.54884 0.71829 0.0
C1306 C 0.54804 0.49134 0.73795 0.0
C1307 C 0.54178 0.48094 0.77332 0.0
C1308 C 0.53352 0.48254 0.70698 0.0
C1309 C 0.53887 0.49134 0.66823 0.0
C1310 C 0.532 0.50549 0.65511 0.0
C1311 C 0.53577 0.51257 0.61752 0.0
C1312 C 0.54577 0.50502 0.59255 0.0
C1313 C 0.55183 0.49025 0.60507 0.0
C1314 C 0.54832 0.48337 0.64278 0.0
C1315 C 0.44925 0.40974 0.73608 0.0
C1316 C 0.45002 0.39123 0.74658 0.0
C1317 C 0.46796 0.42981 0.73695 0.0
C1318 C 0.48778 0.43182 0.74863 0.0
C1319 C 0.48854 0.41342 0.75983 0.0
C1320 C 0.46982 0.39329 0.75885 0.0
C1321 C 0.50791 0.45295 0.74676 0.0
C1322 C 0.51377 0.46357 0.71182 0.0
C1323 C 0.52188 0.46197 0.77819 0.0
C1324 C 0.51584 0.45218 0.81649 0.0
C1325 C 0.53 0.44743 0.83681 0.0
C1326 C 0.52417 0.43795 0.87265 0.0
C1327 C 0.50426 0.43321 0.88856 0.0
C1328 C 0.49017 0.43805 0.86873 0.0
C1329 C 0.49593 0.44757 0.83293 0.0
H1330 H 0.49976 0.42584 0.91626 0.0
H1331 H 0.54858 0.51041 0.5634 0.0
H1332 H 0.12652 0.39553 0.32499 0.0
H1333 H 0.15709 0.38904 0.31838 0.0
H1334 H 0.15064 0.38819 0.19667 0.0
H1335 H 0.11907 0.39332 0.2035 0.0
H1336 H 0.16452 0.36215 0.21452 0.0
H1337 H 0.18654 0.43436 0.24715 0.0
H1338 H 0.18684 0.46365 0.28409 0.0
H1339 H 0.20908 0.44463 0.38209 0.0
H1340 H 0.20854 0.41496 0.34588 0.0
H1341 H 0.27972 0.40922 0.17624 0.0
H1342 H 0.24231 0.40194 0.18284 0.0
H1343 H 0.23992 0.37855 0.29622 0.0
H1344 H 0.2772 0.38523 0.28947 0.0
H1345 H 0.23033 0.41512 0.28328 0.0
H1346 H 0.21034 0.3434 0.2422 0.0
H1347 H 0.21168 0.31721 0.19871 0.0
H1348 H 0.1884 0.34021 0.10779 0.0
H1349 H 0.18723 0.36678 0.15063 0.0
C1350 C 0.13136 0.39345 0.29689 0.0
C1351 C 0.1206 0.39504 0.26473 0.0
C1352 C 0.14892 0.38991 0.29308 0.0
C1353 C 0.15668 0.38881 0.25697 0.0
C1354 C 0.1451 0.38911 0.22483 0.0
C1355 C 0.12707 0.39205 0.22871 0.0
C1356 C 0.1777 0.38902 0.25289 0.0
C1357 C 0.17891 0.37383 0.2294 0.0
C1358 C 0.19663 0.40429 0.27215 0.0
C1359 C 0.19729 0.4223 0.2939 0.0
C1360 C 0.19137 0.43634 0.27664 0.0
C1361 C 0.19159 0.45302 0.29744 0.0
C1362 C 0.19794 0.45597 0.33543 0.0
C1363 C 0.20414 0.4423 0.35267 0.0
C1364 C 0.20388 0.42555 0.33202 0.0
C1365 C 0.27108 0.40213 0.20231 0.0
C1366 C 0.28137 0.39779 0.23235 0.0
C1367 C 0.24972 0.39795 0.20599 0.0
C1368 C 0.23841 0.38971 0.23998 0.0
C1369 C 0.2484 0.38482 0.2697 0.0
C1370 C 0.26963 0.38856 0.26574 0.0
C1371 C 0.21696 0.38811 0.24551 0.0
C1372 C 0.21581 0.40327 0.26892 0.0
C1373 C 0.19836 0.3733 0.22525 0.0
C1374 C 0.19889 0.35721 0.19956 0.0
C1375 C 0.20569 0.34301 0.21286 0.0
C1376 C 0.20638 0.32806 0.18834 0.0
C1377 C 0.20018 0.32708 0.15049 0.0
C1378 C 0.19322 0.341 0.13711 0.0
C1379 C 0.19251 0.35599 0.16151 0.0
H1380 H 0.20073 0.31551 0.13155 0.0
H1381 H 0.19809 0.46889 0.3515 0.0
H1382 H 0.87262 0.28134 0.75538 0.0
H1383 H 0.83832 0.24751 0.75475 0.0
H1384 H 0.87322 0.21252 0.75912 0.0
H1385 H 0.90749 0.24609 0.75918 0.0
H1386 H 0.84082 0.19455 0.7095 0.0
H1387 H 0.84922 0.21953 0.83826 0.0
H1388 H 0.8547 0.24543 0.88883 0.0
H1389 H 0.79639 0.24519 0.85542 0.0
H1390 H 0.79072 0.21951 0.80428 0.0
H1391 H 0.75816 0.0926 0.76505 0.0
H1392 H 0.79072 0.12773 0.76633 0.0
H1393 H 0.75152 0.15817 0.75806 0.0
H1394 H 0.71872 0.12305 0.75731 0.0
H1395 H 0.78496 0.17911 0.80777 0.0
H1396 H 0.77584 0.15269 0.68053 0.0
H1397 H 0.77002 0.12586 0.6316 0.0
H1398 H 0.82977 0.12846 0.66278 0.0
H1399 H 0.83576 0.15504 0.7124 0.0
C1400 C 0.87303 0.26646 0.75606 0.0
C1401 C 0.8929 0.26653 0.75743 0.0
C1402 C 0.85338 0.24711 0.75586 0.0
C1403 C 0.85317 0.22744 0.75733 0.0
C1404 C 0.87295 0.22747 0.75797 0.0
C1405 C 0.89257 0.24675 0.75808 0.0
C1406 C 0.83241 0.20677 0.75855 0.0
C1407 C 0.82872 0.19112 0.73122 0.0
C1408 C 0.81635 0.20241 0.78636 0.0
C1409 C 0.81968 0.21778 0.81719 0.0
C1410 C 0.83766 0.22513 0.84151 0.0
C1411 C 0.84078 0.23975 0.8703 0.0
C1412 C 0.82594 0.247 0.87527 0.0
C1413 C 0.8079 0.23959 0.8515 0.0
C1414 C 0.80471 0.22499 0.82262 0.0
C1415 C 0.75636 0.10672 0.76387 0.0
C1416 C 0.73574 0.1049 0.7608 0.0
C1417 C 0.77505 0.12682 0.76444 0.0
C1418 C 0.77358 0.14558 0.76163 0.0
C1419 C 0.75304 0.14391 0.7601 0.0
C1420 C 0.7343 0.12378 0.75959 0.0
C1421 C 0.79353 0.16686 0.759 0.0
C1422 C 0.79704 0.18261 0.78596 0.0
C1423 C 0.80945 0.17131 0.73088 0.0
C1424 C 0.80616 0.15573 0.70041 0.0
C1425 C 0.78769 0.14746 0.6771 0.0
C1426 C 0.78435 0.13229 0.64924 0.0
C1427 C 0.79949 0.12542 0.64414 0.0
C1428 C 0.81804 0.13378 0.66679 0.0
C1429 C 0.82143 0.14891 0.69478 0.0
H1430 H 0.79686 0.11365 0.6226 0.0
H1431 H 0.82838 0.25831 0.89758 0.0
H1432 H 0.59472 0.72245 0.24506 0.0
H1433 H 0.59369 0.75592 0.24935 0.0
H1434 H 0.6635 0.79182 0.24541 0.0
H1435 H 0.66475 0.75849 0.24149 0.0
H1436 H 0.64788 0.80787 0.29825 0.0
H1437 H 0.63343 0.78713 0.16736 0.0
H1438 H 0.61426 0.76275 0.11425 0.0
H1439 H 0.55482 0.75996 0.14831 0.0
H1440 H 0.57358 0.7841 0.20198 0.0
H1441 H 0.66221 0.9103 0.25547 0.0
H1442 H 0.66205 0.87628 0.25193 0.0
H1443 H 0.59218 0.84218 0.25399 0.0
H1444 H 0.59212 0.87617 0.25686 0.0
H1445 H 0.60704 0.82481 0.20309 0.0
H1446 H 0.62157 0.84615 0.3332 0.0
H1447 H 0.64079 0.87088 0.38587 0.0
H1448 H 0.69993 0.87253 0.35356 0.0
H1449 H 0.68114 0.84808 0.30027 0.0
C1450 C 0.60989 0.73743 0.24524 0.0
C1451 C 0.62982 0.73768 0.24279 0.0
C1452 C 0.60926 0.75659 0.24755 0.0
C1453 C 0.62851 0.77642 0.24727 0.0
C1454 C 0.64843 0.77672 0.24564 0.0
C1455 C 0.64909 0.7576 0.2433 0.0
C1456 C 0.62794 0.79687 0.24825 0.0
C1457 C 0.63916 0.81168 0.27718 0.0
C1458 C 0.61615 0.80167 0.22129 0.0
C1459 C 0.60486 0.78725 0.18892 0.0
C1460 C 0.61623 0.78119 0.1637 0.0
C1461 C 0.60545 0.76743 0.13347 0.0
C1462 C 0.58332 0.75976 0.12797 0.0
C1463 C 0.57195 0.76588 0.15264 0.0
C1464 C 0.58265 0.77961 0.18296 0.0
C1465 C 0.64676 0.89561 0.255 0.0
C1466 C 0.62717 0.89607 0.25662 0.0
C1467 C 0.64672 0.87612 0.25317 0.0
C1468 C 0.62711 0.85662 0.25327 0.0
C1469 C 0.60752 0.857 0.25398 0.0
C1470 C 0.60753 0.8765 0.25572 0.0
C1471 C 0.62706 0.83585 0.253 0.0
C1472 C 0.61572 0.82098 0.22422 0.0
C1473 C 0.63871 0.83098 0.28015 0.0
C1474 C 0.64998 0.84543 0.31253 0.0
C1475 C 0.63871 0.8519 0.33717 0.0
C1476 C 0.64952 0.86586 0.36715 0.0
C1477 C 0.67158 0.87331 0.373 0.0
C1478 C 0.68285 0.86676 0.34896 0.0
C1479 C 0.67212 0.85284 0.31888 0.0
H1480 H 0.67993 0.88413 0.39621 0.0
H1481 H 0.575 0.74911 0.10454 0.0
H1482 H 0.88814 0.6137 0.71408 0.0
H1483 H 0.85875 0.62202 0.70589 0.0
H1484 H 0.84989 0.61966 0.82719 0.0
H1485 H 0.87834 0.61024 0.83505 0.0
H1486 H 0.81355 0.59597 0.79753 0.0
H1487 H 0.86933 0.66751 0.77054 0.0
H1488 H 0.90187 0.69582 0.73884 0.0
H1489 H 0.86932 0.6776 0.63143 0.0
H1490 H 0.83666 0.64899 0.66242 0.0
H1491 H 0.7297 0.62213 0.79169 0.0
H1492 H 0.76737 0.63032 0.80057 0.0
H1493 H 0.7695 0.61234 0.68481 0.0
H1494 H 0.73184 0.6037 0.67599 0.0
H1495 H 0.81011 0.64975 0.71384 0.0
H1496 H 0.75801 0.57507 0.74014 0.0
H1497 H 0.72552 0.54621 0.77085 0.0
H1498 H 0.75215 0.57172 0.88036 0.0
H1499 H 0.78489 0.60079 0.8501 0.0
C1500 C 0.88023 0.61551 0.73893 0.0
C1501 C 0.8854 0.61127 0.77516 0.0
C1502 C 0.86346 0.62033 0.73431 0.0
C1503 C 0.85201 0.62155 0.76595 0.0
C1504 C 0.85827 0.61867 0.80228 0.0
C1505 C 0.8746 0.61337 0.80679 0.0
C1506 C 0.83204 0.62333 0.76134 0.0
C1507 C 0.81311 0.60814 0.77992 0.0
C1508 C 0.83102 0.63873 0.73751 0.0
C1509 C 0.8506 0.65598 0.71879 0.0
C1510 C 0.86916 0.66944 0.74012 0.0
C1511 C 0.88761 0.68556 0.72228 0.0
C1512 C 0.88768 0.68847 0.68313 0.0
C1513 C 0.86925 0.67531 0.66175 0.0
C1514 C 0.85075 0.65916 0.67945 0.0
C1515 C 0.73841 0.62049 0.76788 0.0
C1516 C 0.72782 0.61215 0.73324 0.0
C1517 C 0.75989 0.62514 0.77298 0.0
C1518 C 0.77118 0.6219 0.74332 0.0
C1519 C 0.76113 0.61507 0.70795 0.0
C1520 C 0.73957 0.61003 0.70305 0.0
C1521 C 0.79216 0.62268 0.75048 0.0
C1522 C 0.811 0.63805 0.7321 0.0
C1523 C 0.79328 0.60757 0.77461 0.0
C1524 C 0.77371 0.59019 0.79291 0.0
C1525 C 0.75684 0.5746 0.77076 0.0
C1526 C 0.7384 0.5582 0.78809 0.0
C1527 C 0.73668 0.5572 0.82757 0.0
C1528 C 0.75347 0.57255 0.84979 0.0
C1529 C 0.772 0.58896 0.83257 0.0
H1530 H 0.72238 0.54448 0.84095 0.0
H1531 H 0.90199 0.70096 0.66938 0.0
H1532 H 0.24281 0.90873 0.24164 0.0
H1533 H 0.20998 0.87396 0.24677 0.0
H1534 H 0.24867 0.84346 0.2632 0.0
H1535 H 0.2817 0.87817 0.25748 0.0
H1536 H 0.2162 0.82092 0.21488 0.0
H1537 H 0.22274 0.852 0.33779 0.0
H1538 H 0.22709 0.87994 0.38324 0.0
H1539 H 0.16804 0.87593 0.34325 0.0
H1540 H 0.16349 0.84816 0.29719 0.0
H1541 H 0.12892 0.72088 0.27684 0.0
H1542 H 0.16277 0.7549 0.27246 0.0
H1543 H 0.12667 0.78832 0.25884 0.0
H1544 H 0.09277 0.7545 0.2641 0.0
H1545 H 0.15855 0.80903 0.30707 0.0
H1546 H 0.1524 0.7786 0.18318 0.0
H1547 H 0.14809 0.75083 0.13737 0.0
H1548 H 0.20633 0.75367 0.17891 0.0
H1549 H 0.21084 0.78127 0.22533 0.0
C1550 C 0.24442 0.89467 0.24648 0.0
C1551 C 0.26499 0.89635 0.24935 0.0
C1552 C 0.22557 0.87477 0.24952 0.0
C1553 C 0.22682 0.8561 0.2559 0.0
C1554 C 0.24729 0.85764 0.25837 0.0
C1555 C 0.26618 0.87754 0.25519 0.0
C1556 C 0.20675 0.83496 0.25971 0.0
C1557 C 0.20373 0.81822 0.23542 0.0
C1558 C 0.19025 0.83154 0.28596 0.0
C1559 C 0.19288 0.84813 0.31381 0.0
C1560 C 0.21076 0.85718 0.33851 0.0
C1561 C 0.21325 0.87297 0.3644 0.0
C1562 C 0.19788 0.87974 0.36607 0.0
C1563 C 0.17995 0.87069 0.3419 0.0
C1564 C 0.17739 0.85491 0.31592 0.0
C1565 C 0.12814 0.73544 0.27277 0.0
C1566 C 0.10804 0.73487 0.27071 0.0
C1567 C 0.14755 0.75491 0.27012 0.0
C1568 C 0.14732 0.7742 0.26485 0.0
C1569 C 0.1273 0.77368 0.26289 0.0
C1570 C 0.1079 0.75426 0.26579 0.0
C1571 C 0.16788 0.79501 0.26202 0.0
C1572 C 0.17102 0.8117 0.28656 0.0
C1573 C 0.18447 0.79837 0.23597 0.0
C1574 C 0.18183 0.78185 0.20798 0.0
C1575 C 0.1642 0.77319 0.18273 0.0
C1576 C 0.16173 0.7575 0.15663 0.0
C1577 C 0.17689 0.75045 0.1553 0.0
C1578 C 0.19459 0.75912 0.18001 0.0
C1579 C 0.19711 0.7748 0.20619 0.0
H1580 H 0.17496 0.7383 0.13507 0.0
H1581 H 0.19984 0.89197 0.38613 0.0
H1582 H 0.41203 0.28285 0.74165 0.0
H1583 H 0.41363 0.2496 0.74388 0.0
H1584 H 0.34391 0.21313 0.75031 0.0
H1585 H 0.3421 0.24618 0.74842 0.0
H1586 H 0.36231 0.198 0.79943 0.0
H1587 H 0.37002 0.21742 0.66763 0.0
H1588 H 0.38644 0.24124 0.61263 0.0
H1589 H 0.44731 0.24425 0.6357 0.0
H1590 H 0.43133 0.22069 0.6912 0.0
H1591 H 0.34275 0.09496 0.75054 0.0
H1592 H 0.34432 0.12964 0.74891 0.0
H1593 H 0.41407 0.16148 0.74354 0.0
H1594 H 0.41272 0.12674 0.74466 0.0
H1595 H 0.39767 0.17985 0.69569 0.0
H1596 H 0.38924 0.15887 0.82608 0.0
H1597 H 0.37227 0.13427 0.87992 0.0
H1598 H 0.31245 0.13389 0.85921 0.0
H1599 H 0.32895 0.15821 0.8048 0.0
C1600 C 0.39702 0.26778 0.74372 0.0
C1601 C 0.37693 0.26728 0.74474 0.0
C1602 C 0.39797 0.24876 0.74483 0.0
C1603 C 0.37887 0.22883 0.74687 0.0
C1604 C 0.35886 0.2283 0.74872 0.0
C1605 C 0.35787 0.24727 0.74753 0.0
C1606 C 0.37963 0.20848 0.74662 0.0
C1607 C 0.36986 0.19395 0.77656 0.0
C1608 C 0.38992 0.20338 0.71723 0.0
C1609 C 0.39954 0.21749 0.68381 0.0
C1610 C 0.38696 0.22331 0.66116 0.0
C1611 C 0.39618 0.23674 0.62987 0.0
C1612 C 0.41792 0.24431 0.62074 0.0
C1613 C 0.43048 0.23841 0.64284 0.0
C1614 C 0.42135 0.22501 0.67421 0.0
C1615 C 0.35847 0.10928 0.74875 0.0
C1616 C 0.37763 0.10797 0.74795 0.0
C1617 C 0.35932 0.12914 0.74799 0.0
C1618 C 0.37932 0.14819 0.74672 0.0
C1619 C 0.39846 0.14699 0.74468 0.0
C1620 C 0.39764 0.12709 0.74541 0.0
C1621 C 0.38017 0.1693 0.74831 0.0
C1622 C 0.39025 0.18397 0.71868 0.0
C1623 C 0.37015 0.17453 0.77798 0.0
C1624 C 0.36029 0.16023 0.81115 0.0
C1625 C 0.37243 0.15344 0.83286 0.0
C1626 C 0.36289 0.13955 0.86349 0.0
C1627 C 0.34128 0.13248 0.87293 0.0
C1628 C 0.32918 0.13936 0.85183 0.0
C1629 C 0.33862 0.15321 0.82111 0.0
H1630 H 0.33392 0.12171 0.89663 0.0
H1631 H 0.42503 0.2547 0.59649 0.0
loop_
_geom_bond_atom_site_label_1
_geom_bond_atom_site_label_2
_geom_bond_distance
_geom_bond_site_symmetry_2
_ccdc_geom_bond_type
Mn0 O5 2.095 . S
Mn0 O15 2.162 . S
Mn0 O16 2.297 . S
Mn0 O24 2.385 . S
Mn0 O25 2.209 . S
Mn0 O26 2.094 . S
Mn1 O6 2.121 . S
Mn1 N8 2.257 . S
Mn1 N17 2.282 . S
Mn1 O25 2.215 . S
Mn1 O27 2.117 . S
C2 O24 1.234 . S
C2 O25 1.283 . S
C3 O15 1.281 . S
C3 O16 1.236 . S
C4 O26 1.240 . S
C4 O27 1.264 . S
O5 Mn0 2.095 . S
O5 C14 1.250 . S
O6 Mn1 2.121 . S
O6 C14 1.258 . S
C7 N8 1.326 . S
C7 C11 1.460 . S
C7 H13 0.929 . S
N8 Mn1 2.257 . S
N8 C7 1.326 . S
N8 C12 1.362 . S
C9 C10 1.258 . S
C9 C12 1.431 . S
C9 C29 1.449 . S
C10 C9 1.258 . S
C10 C11 1.477 . S
C10 H30 0.931 . S
C11 C7 1.460 . S
C11 C10 1.477 . S
C11 H31 0.930 . S
C12 N8 1.362 . S
C12 C9 1.431 . S
C12 C22 1.476 . S
H13 C7 0.929 . S
C14 O5 1.250 . S
C14 O6 1.258 . S
O15 Mn0 2.162 . S
O15 C3 1.281 . S
O16 Mn0 2.297 . S
O16 C3 1.236 . S
N17 Mn1 2.282 . S
N17 C18 1.328 . S
N17 C22 1.318 . S
C18 N17 1.328 . S
C18 C19 1.457 . S
C18 H23 0.929 . S
C19 C18 1.457 . S
C19 C20 1.291 . S
C19 H32 0.931 . S
C20 C19 1.291 . S
C20 C21 1.373 . S
C20 H33 0.929 . S
C21 C20 1.373 . S
C21 C22 1.396 . S
C21 C28 1.403 . S
C22 C12 1.476 . S
C22 N17 1.318 . S
C22 C21 1.396 . S
H23 C18 0.929 . S
O24 Mn0 2.385 . S
O24 C2 1.234 . S
O25 Mn0 2.209 . S
O25 Mn1 2.215 . S
O25 C2 1.283 . S
O26 Mn0 2.094 . S
O26 C4 1.240 . S
O27 Mn1 2.117 . S
O27 C4 1.264 . S
C28 C21 1.403 . S
C28 C29 1.399 . S
C28 H34 0.929 . S
C29 C9 1.449 . S
C29 C28 1.399 . S
C29 H35 0.930 . S
H30 C10 0.931 . S
H31 C11 0.930 . S
H32 C19 0.931 . S
H33 C20 0.929 . S
H34 C28 0.929 . S
H35 C29 0.930 . S
Mn36 O41 2.095 . S
Mn36 O51 2.162 . S
Mn36 O52 2.297 . S
Mn36 O60 2.385 . S
Mn36 O61 2.209 . S
Mn36 O62 2.094 . S
Mn37 O42 2.121 . S
Mn37 N44 2.257 . S
Mn37 N53 2.282 . S
Mn37 O61 2.215 . S
Mn37 O63 2.117 . S
C38 O60 1.234 . S
C38 O61 1.283 . S
C39 O51 1.281 . S
C39 O52 1.236 . S
C40 O62 1.240 . S
C40 O63 1.264 . S
O41 Mn36 2.095 . S
O41 C50 1.250 . S
O42 Mn37 2.121 . S
O42 C50 1.258 . S
C43 N44 1.326 1_565 S
C43 C47 1.460 . S
C43 H49 0.929 . S
N44 Mn37 2.257 . S
N44 C43 1.326 1_545 S
N44 C48 1.362 . S
C45 C46 1.258 . S
C45 C48 1.431 1_565 S
C45 C65 1.449 . S
C46 C45 1.258 . S
C46 C47 1.477 . S
C46 H66 0.931 . S
C47 C43 1.460 . S
C47 C46 1.477 . S
C47 H67 0.930 . S
C48 N44 1.362 . S
C48 C45 1.431 1_545 S
C48 C58 1.476 . S
H49 C43 0.929 . S
C50 O41 1.250 . S
C50 O42 1.258 . S
O51 Mn36 2.162 . S
O51 C39 1.281 . S
O52 Mn36 2.297 . S
O52 C39 1.236 . S
N53 Mn37 2.282 . S
N53 C54 1.328 . S
N53 C58 1.318 . S
C54 N53 1.328 . S
C54 C55 1.457 . S
C54 H59 0.929 . S
C55 C54 1.457 . S
C55 C56 1.291 . S
C55 H68 0.931 . S
C56 C55 1.291 . S
C56 C57 1.373 . S
C56 H69 0.929 . S
C57 C56 1.373 . S
C57 C58 1.396 . S
C57 C64 1.403 . S
C58 C48 1.476 . S
C58 N53 1.318 . S
C58 C57 1.396 . S
H59 C54 0.929 . S
O60 Mn36 2.385 . S
O60 C38 1.234 . S
O61 Mn36 2.209 . S
O61 Mn37 2.215 . S
O61 C38 1.283 . S
O62 Mn36 2.094 . S
O62 C40 1.240 . S
O63 Mn37 2.117 . S
O63 C40 1.264 . S
C64 C57 1.403 . S
C64 C65 1.399 1_545 S
C64 H70 0.929 . S
C65 C45 1.449 . S
C65 C64 1.399 1_565 S
C65 H71 0.930 . S
H66 C46 0.931 . S
H67 C47 0.930 . S
H68 C55 0.931 . S
H69 C56 0.929 . S
H70 C64 0.929 . S
H71 C65 0.930 . S
Mn72 O77 2.095 . S
Mn72 O87 2.162 . S
Mn72 O88 2.297 . S
Mn72 O96 2.385 . S
Mn72 O97 2.209 . S
Mn72 O98 2.094 . S
Mn73 O78 2.121 . S
Mn73 N80 2.257 . S
Mn73 N89 2.282 . S
Mn73 O97 2.215 . S
Mn73 O99 2.117 . S
C74 O96 1.234 . S
C74 O97 1.283 . S
C75 O87 1.281 . S
C75 O88 1.236 . S
C76 O98 1.240 . S
C76 O99 1.264 . S
O77 Mn72 2.095 . S
O77 C86 1.250 . S
O78 Mn73 2.121 . S
O78 C86 1.258 . S
C79 N80 1.326 . S
C79 C83 1.460 . S
C79 H85 0.929 . S
N80 Mn73 2.257 . S
N80 C79 1.326 . S
N80 C84 1.362 . S
C81 C82 1.258 . S
C81 C84 1.431 . S
C81 C101 1.449 . S
C82 C81 1.258 . S
C82 C83 1.477 . S
C82 H102 0.931 . S
C83 C79 1.460 . S
C83 C82 1.477 . S
C83 H103 0.930 . S
C84 N80 1.362 . S
C84 C81 1.431 . S
C84 C94 1.476 . S
H85 C79 0.929 . S
C86 O77 1.250 . S
C86 O78 1.258 . S
O87 Mn72 2.162 . S
O87 C75 1.281 . S
O88 Mn72 2.297 . S
O88 C75 1.236 . S
N89 Mn73 2.282 . S
N89 C90 1.328 . S
N89 C94 1.318 . S
C90 N89 1.328 . S
C90 C91 1.457 . S
C90 H95 0.929 . S
C91 C90 1.457 . S
C91 C92 1.291 . S
C91 H104 0.931 . S
C92 C91 1.291 . S
C92 C93 1.373 . S
C92 H105 0.929 . S
C93 C92 1.373 . S
C93 C94 1.396 . S
C93 C100 1.403 . S
C94 C84 1.476 . S
C94 N89 1.318 . S
C94 C93 1.396 . S
H95 C90 0.929 . S
O96 Mn72 2.385 . S
O96 C74 1.234 . S
O97 Mn72 2.209 . S
O97 Mn73 2.215 . S
O97 C74 1.283 . S
O98 Mn72 2.094 . S
O98 C76 1.240 . S
O99 Mn73 2.117 . S
O99 C76 1.264 . S
C100 C93 1.403 . S
C100 C101 1.399 . S
C100 H106 0.929 . S
C101 C81 1.449 . S
C101 C100 1.399 . S
C101 H107 0.930 . S
H102 C82 0.931 . S
H103 C83 0.930 . S
H104 C91 0.931 . S
H105 C92 0.929 . S
H106 C100 0.929 . S
H107 C101 0.930 . S
Mn108 O113 2.095 . S
Mn108 O123 2.162 . S
Mn108 O124 2.297 . S
Mn108 O132 2.385 . S
Mn108 O133 2.209 . S
Mn108 O134 2.094 . S
Mn109 O114 2.121 . S
Mn109 N116 2.257 . S
Mn109 N125 2.282 . S
Mn109 O133 2.215 . S
Mn109 O135 2.117 . S
C110 O132 1.234 . S
C110 O133 1.283 . S
C111 O123 1.281 . S
C111 O124 1.236 . S
C112 O134 1.240 . S
C112 O135 1.264 . S
O113 Mn108 2.095 . S
O113 C122 1.250 . S
O114 Mn109 2.121 . S
O114 C122 1.258 . S
C115 N116 1.326 . S
C115 C119 1.460 . S
C115 H121 0.929 . S
N116 Mn109 2.257 . S
N116 C115 1.326 . S
N116 C120 1.362 . S
C117 C118 1.258 . S
C117 C120 1.431 . S
C117 C137 1.449 . S
C118 C117 1.258 . S
C118 C119 1.477 . S
C118 H138 0.931 . S
C119 C115 1.460 . S
C119 C118 1.477 . S
C119 H139 0.930 . S
C120 N116 1.362 . S
C120 C117 1.431 . S
C120 C130 1.476 . S
H121 C115 0.929 . S
C122 O113 1.250 . S
C122 O114 1.258 . S
O123 Mn108 2.162 . S
O123 C111 1.281 . S
O124 Mn108 2.297 . S
O124 C111 1.236 . S
N125 Mn109 2.282 . S
N125 C126 1.328 . S
N125 C130 1.318 . S
C126 N125 1.328 . S
C126 C127 1.457 . S
C126 H131 0.929 . S
C127 C126 1.457 . S
C127 C128 1.291 . S
C127 H140 0.931 . S
C128 C127 1.291 . S
C128 C129 1.373 . S
C128 H141 0.929 . S
C129 C128 1.373 . S
C129 C130 1.396 . S
C129 C136 1.403 . S
C130 C120 1.476 . S
C130 N125 1.318 . S
C130 C129 1.396 . S
H131 C126 0.929 . S
O132 Mn108 2.385 . S
O132 C110 1.234 . S
O133 Mn108 2.209 . S
O133 Mn109 2.215 . S
O133 C110 1.283 . S
O134 Mn108 2.094 . S
O134 C112 1.240 . S
O135 Mn109 2.117 . S
O135 C112 1.264 . S
C136 C129 1.403 . S
C136 C137 1.399 . S
C136 H142 0.929 . S
C137 C117 1.449 . S
C137 C136 1.399 . S
C137 H143 0.930 . S
H138 C118 0.931 . S
H139 C119 0.930 . S
H140 C127 0.931 . S
H141 C128 0.929 . S
H142 C136 0.929 . S
H143 C137 0.930 . S
Mn144 O149 2.095 . S
Mn144 O159 2.162 . S
Mn144 O160 2.297 . S
Mn144 O168 2.385 . S
Mn144 O169 2.209 . S
Mn144 O170 2.094 . S
Mn145 O150 2.121 . S
Mn145 N152 2.257 . S
Mn145 N161 2.282 . S
Mn145 O169 2.215 . S
Mn145 O171 2.117 . S
C146 O168 1.234 . S
C146 O169 1.283 . S
C147 O159 1.281 . S
C147 O160 1.236 . S
C148 O170 1.240 . S
C148 O171 1.264 . S
O149 Mn144 2.095 . S
O149 C158 1.250 . S
O150 Mn145 2.121 . S
O150 C158 1.258 . S
C151 N152 1.326 1_545 S
C151 C155 1.460 . S
C151 H157 0.929 . S
N152 Mn145 2.257 . S
N152 C151 1.326 1_565 S
N152 C156 1.362 . S
C153 C154 1.258 . S
C153 C156 1.431 1_545 S
C153 C173 1.449 . S
C154 C153 1.258 . S
C154 C155 1.477 . S
C154 H174 0.931 . S
C155 C151 1.460 . S
C155 C154 1.477 . S
C155 H175 0.930 . S
C156 N152 1.362 . S
C156 C153 1.431 1_565 S
C156 C166 1.476 . S
H157 C151 0.929 . S
C158 O149 1.250 . S
C158 O150 1.258 . S
O159 Mn144 2.162 . S
O159 C147 1.281 . S
O160 Mn144 2.297 . S
O160 C147 1.236 . S
N161 Mn145 2.282 . S
N161 C162 1.328 . S
N161 C166 1.318 . S
C162 N161 1.328 . S
C162 C163 1.457 . S
C162 H167 0.929 . S
C163 C162 1.457 . S
C163 C164 1.291 . S
C163 H176 0.931 . S
C164 C163 1.291 . S
C164 C165 1.373 . S
C164 H177 0.929 . S
C165 C164 1.373 . S
C165 C166 1.396 . S
C165 C172 1.403 . S
C166 C156 1.476 . S
C166 N161 1.318 . S
C166 C165 1.396 . S
H167 C162 0.929 . S
O168 Mn144 2.385 . S
O168 C146 1.234 . S
O169 Mn144 2.209 . S
O169 Mn145 2.215 . S
O169 C146 1.283 . S
O170 Mn144 2.094 . S
O170 C148 1.240 . S
O171 Mn145 2.117 . S
O171 C148 1.264 . S
C172 C165 1.403 . S
C172 C173 1.399 1_565 S
C172 H178 0.929 . S
C173 C153 1.449 . S
C173 C172 1.399 1_545 S
C173 H179 0.930 . S
H174 C154 0.931 . S
H175 C155 0.930 . S
H176 C163 0.931 . S
H177 C164 0.929 . S
H178 C172 0.929 . S
H179 C173 0.930 . S
Mn180 O185 2.095 . S
Mn180 O195 2.162 . S
Mn180 O196 2.297 . S
Mn180 O204 2.385 . S
Mn180 O205 2.209 . S
Mn180 O206 2.094 . S
Mn181 O186 2.121 . S
Mn181 N188 2.257 . S
Mn181 N197 2.282 . S
Mn181 O205 2.215 . S
Mn181 O207 2.117 . S
C182 O204 1.234 . S
C182 O205 1.283 . S
C183 O195 1.281 . S
C183 O196 1.236 . S
C184 O206 1.240 . S
C184 O207 1.264 . S
O185 Mn180 2.095 . S
O185 C194 1.250 . S
O186 Mn181 2.121 . S
O186 C194 1.258 . S
C187 N188 1.326 . S
C187 C191 1.460 . S
C187 H193 0.929 . S
N188 Mn181 2.257 . S
N188 C187 1.326 . S
N188 C192 1.362 . S
C189 C190 1.258 . S
C189 C192 1.431 . S
C189 C209 1.449 . S
C190 C189 1.258 . S
C190 C191 1.477 . S
C190 H210 0.931 . S
C191 C187 1.460 . S
C191 C190 1.477 . S
C191 H211 0.930 . S
C192 N188 1.362 . S
C192 C189 1.431 . S
C192 C202 1.476 . S
H193 C187 0.929 . S
C194 O185 1.250 . S
C194 O186 1.258 . S
O195 Mn180 2.162 . S
O195 C183 1.281 . S
O196 Mn180 2.297 . S
O196 C183 1.236 . S
N197 Mn181 2.282 . S
N197 C198 1.328 . S
N197 C202 1.318 . S
C198 N197 1.328 . S
C198 C199 1.457 . S
C198 H203 0.929 . S
C199 C198 1.457 . S
C199 C200 1.291 . S
C199 H212 0.931 . S
C200 C199 1.291 . S
C200 C201 1.373 . S
C200 H213 0.929 . S
C201 C200 1.373 . S
C201 C202 1.396 . S
C201 C208 1.403 . S
C202 C192 1.476 . S
C202 N197 1.318 . S
C202 C201 1.396 . S
H203 C198 0.929 . S
O204 Mn180 2.385 . S
O204 C182 1.234 . S
O205 Mn180 2.209 . S
O205 Mn181 2.215 . S
O205 C182 1.283 . S
O206 Mn180 2.094 . S
O206 C184 1.240 . S
O207 Mn181 2.117 . S
O207 C184 1.264 . S
C208 C201 1.403 . S
C208 C209 1.399 . S
C208 H214 0.929 . S
C209 C189 1.449 . S
C209 C208 1.399 . S
C209 H215 0.930 . S
H210 C190 0.931 . S
H211 C191 0.930 . S
H212 C199 0.931 . S
H213 C200 0.929 . S
H214 C208 0.929 . S
H215 C209 0.930 . S
Mn216 O221 2.095 . S
Mn216 O231 2.162 . S
Mn216 O232 2.297 . S
Mn216 O240 2.385 . S
Mn216 O241 2.209 . S
Mn216 O242 2.094 . S
Mn217 O222 2.121 . S
Mn217 N224 2.257 . S
Mn217 N233 2.282 . S
Mn217 O241 2.215 . S
Mn217 O243 2.117 . S
C218 O240 1.234 . S
C218 O241 1.283 . S
C219 O231 1.281 . S
C219 O232 1.236 . S
C220 O242 1.240 . S
C220 O243 1.264 . S
O221 Mn216 2.095 . S
O221 C230 1.250 . S
O222 Mn217 2.121 . S
O222 C230 1.258 . S
C223 N224 1.326 1_545 S
C223 C227 1.460 . S
C223 H229 0.929 . S
N224 Mn217 2.257 . S
N224 C223 1.326 1_565 S
N224 C228 1.362 . S
C225 C226 1.258 . S
C225 C228 1.431 1_545 S
C225 C245 1.449 . S
C226 C225 1.258 . S
C226 C227 1.477 . S
C226 H246 0.931 . S
C227 C223 1.460 . S
C227 C226 1.477 . S
C227 H247 0.930 . S
C228 N224 1.362 . S
C228 C225 1.431 1_565 S
C228 C238 1.476 . S
H229 C223 0.929 . S
C230 O221 1.250 . S
C230 O222 1.258 . S
O231 Mn216 2.162 . S
O231 C219 1.281 . S
O232 Mn216 2.297 . S
O232 C219 1.236 . S
N233 Mn217 2.282 . S
N233 C234 1.328 . S
N233 C238 1.318 . S
C234 N233 1.328 . S
C234 C235 1.457 . S
C234 H239 0.929 . S
C235 C234 1.457 . S
C235 C236 1.291 . S
C235 H248 0.931 . S
C236 C235 1.291 . S
C236 C237 1.373 . S
C236 H249 0.929 . S
C237 C236 1.373 . S
C237 C238 1.396 . S
C237 C244 1.403 . S
C238 C228 1.476 . S
C238 N233 1.318 . S
C238 C237 1.396 . S
H239 C234 0.929 . S
O240 Mn216 2.385 . S
O240 C218 1.234 . S
O241 Mn216 2.209 . S
O241 Mn217 2.215 . S
O241 C218 1.283 . S
O242 Mn216 2.094 . S
O242 C220 1.240 . S
O243 Mn217 2.117 . S
O243 C220 1.264 . S
C244 C237 1.403 . S
C244 C245 1.399 1_565 S
C244 H250 0.929 . S
C245 C225 1.449 . S
C245 C244 1.399 1_545 S
C245 H251 0.930 . S
H246 C226 0.931 . S
H247 C227 0.930 . S
H248 C235 0.931 . S
H249 C236 0.929 . S
H250 C244 0.929 . S
H251 C245 0.930 . S
Mn252 O257 2.095 . S
Mn252 O267 2.162 . S
Mn252 O268 2.297 . S
Mn252 O276 2.385 . S
Mn252 O277 2.209 . S
Mn252 O278 2.094 . S
Mn253 O258 2.121 . S
Mn253 N260 2.257 . S
Mn253 N269 2.282 . S
Mn253 O277 2.215 . S
Mn253 O279 2.117 . S
C254 O276 1.234 . S
C254 O277 1.283 . S
C255 O267 1.281 . S
C255 O268 1.236 . S
C256 O278 1.240 . S
C256 O279 1.264 . S
O257 Mn252 2.095 . S
O257 C266 1.250 . S
O258 Mn253 2.121 . S
O258 C266 1.258 . S
C259 N260 1.326 . S
C259 C263 1.460 . S
C259 H265 0.929 . S
N260 Mn253 2.257 . S
N260 C259 1.326 . S
N260 C264 1.362 . S
C261 C262 1.258 . S
C261 C264 1.431 . S
C261 C281 1.449 . S
C262 C261 1.258 . S
C262 C263 1.477 . S
C262 H282 0.931 . S
C263 C259 1.460 . S
C263 C262 1.477 . S
C263 H283 0.930 . S
C264 N260 1.362 . S
C264 C261 1.431 . S
C264 C274 1.476 . S
H265 C259 0.929 . S
C266 O257 1.250 . S
C266 O258 1.258 . S
O267 Mn252 2.162 . S
O267 C255 1.281 . S
O268 Mn252 2.297 . S
O268 C255 1.236 . S
N269 Mn253 2.282 . S
N269 C270 1.328 . S
N269 C274 1.318 . S
C270 N269 1.328 . S
C270 C271 1.457 . S
C270 H275 0.929 . S
C271 C270 1.457 . S
C271 C272 1.291 . S
C271 H284 0.931 . S
C272 C271 1.291 . S
C272 C273 1.373 . S
C272 H285 0.929 . S
C273 C272 1.373 . S
C273 C274 1.396 . S
C273 C280 1.403 . S
C274 C264 1.476 . S
C274 N269 1.318 . S
C274 C273 1.396 . S
H275 C270 0.929 . S
O276 Mn252 2.385 . S
O276 C254 1.234 . S
O277 Mn252 2.209 . S
O277 Mn253 2.215 . S
O277 C254 1.283 . S
O278 Mn252 2.094 . S
O278 C256 1.240 . S
O279 Mn253 2.117 . S
O279 C256 1.264 . S
C280 C273 1.403 . S
C280 C281 1.399 . S
C280 H286 0.929 . S
C281 C261 1.449 . S
C281 C280 1.399 . S
C281 H287 0.930 . S
H282 C262 0.931 . S
H283 C263 0.930 . S
H284 C271 0.931 . S
H285 C272 0.929 . S
H286 C280 0.929 . S
H287 C281 0.930 . S
Mn288 O293 2.095 . S
Mn288 O303 2.162 . S
Mn288 O304 2.297 . S
Mn288 O312 2.385 . S
Mn288 O313 2.209 . S
Mn288 O314 2.094 . S
Mn289 O294 2.121 . S
Mn289 N296 2.257 . S
Mn289 N305 2.282 . S
Mn289 O313 2.215 . S
Mn289 O315 2.117 . S
C290 O312 1.234 . S
C290 O313 1.283 . S
C291 O303 1.281 . S
C291 O304 1.236 . S
C292 O314 1.240 . S
C292 O315 1.264 . S
O293 Mn288 2.095 . S
O293 C302 1.250 . S
O294 Mn289 2.121 . S
O294 C302 1.258 . S
C295 N296 1.326 1_655 S
C295 C299 1.460 . S
C295 H301 0.929 . S
N296 Mn289 2.257 . S
N296 C295 1.326 1_455 S
N296 C300 1.362 . S
C297 C298 1.258 . S
C297 C300 1.431 1_655 S
C297 C317 1.449 . S
C298 C297 1.258 . S
C298 C299 1.477 . S
C298 H318 0.931 . S
C299 C295 1.460 . S
C299 C298 1.477 . S
C299 H319 0.930 . S
C300 N296 1.362 . S
C300 C297 1.431 1_455 S
C300 C310 1.476 . S
H301 C295 0.929 . S
C302 O293 1.250 . S
C302 O294 1.258 . S
O303 Mn288 2.162 . S
O303 C291 1.281 . S
O304 Mn288 2.297 . S
O304 C291 1.236 . S
N305 Mn289 2.282 . S
N305 C306 1.328 . S
N305 C310 1.318 . S
C306 N305 1.328 . S
C306 C307 1.457 . S
C306 H311 0.929 . S
C307 C306 1.457 . S
C307 C308 1.291 . S
C307 H320 0.931 . S
C308 C307 1.291 . S
C308 C309 1.373 . S
C308 H321 0.929 . S
C309 C308 1.373 . S
C309 C310 1.396 . S
C309 C316 1.403 . S
C310 C300 1.476 . S
C310 N305 1.318 . S
C310 C309 1.396 . S
H311 C306 0.929 . S
O312 Mn288 2.385 . S
O312 C290 1.234 . S
O313 Mn288 2.209 . S
O313 Mn289 2.215 . S
O313 C290 1.283 . S
O314 Mn288 2.094 . S
O314 C292 1.240 . S
O315 Mn289 2.117 . S
O315 C292 1.264 . S
C316 C309 1.403 . S
C316 C317 1.399 1_455 S
C316 H322 0.944 . S
C317 C297 1.449 . S
C317 C316 1.399 1_655 S
C317 H323 0.930 . S
H318 C298 0.931 . S
H319 C299 0.930 . S
H320 C307 0.931 . S
H321 C308 0.929 . S
H322 C316 0.944 . S
H323 C317 0.930 . S
Mn324 O329 2.095 . S
Mn324 O339 2.162 . S
Mn324 O340 2.297 . S
Mn324 O348 2.385 . S
Mn324 O349 2.209 . S
Mn324 O350 2.094 . S
Mn325 O330 2.121 . S
Mn325 N332 2.257 . S
Mn325 N341 2.282 . S
Mn325 O349 2.215 . S
Mn325 O351 2.117 . S
C326 O348 1.234 . S
C326 O349 1.283 . S
C327 O339 1.281 . S
C327 O340 1.236 . S
C328 O350 1.240 . S
C328 O351 1.264 . S
O329 Mn324 2.095 . S
O329 C338 1.250 . S
O330 Mn325 2.121 . S
O330 C338 1.258 . S
C331 N332 1.326 1_565 S
C331 C335 1.460 . S
C331 H337 0.929 . S
N332 Mn325 2.257 . S
N332 C331 1.326 1_545 S
N332 C336 1.362 . S
C333 C334 1.258 . S
C333 C336 1.431 1_565 S
C333 C353 1.449 . S
C334 C333 1.258 . S
C334 C335 1.477 . S
C334 H354 0.931 . S
C335 C331 1.460 . S
C335 C334 1.477 . S
C335 H355 0.930 . S
C336 N332 1.362 . S
C336 C333 1.431 1_545 S
C336 C346 1.476 . S
H337 C331 0.929 . S
C338 O329 1.250 . S
C338 O330 1.258 . S
O339 Mn324 2.162 . S
O339 C327 1.281 . S
O340 Mn324 2.297 . S
O340 C327 1.236 . S
N341 Mn325 2.282 . S
N341 C342 1.328 . S
N341 C346 1.318 . S
C342 N341 1.328 . S
C342 C343 1.457 . S
C342 H347 0.929 . S
C343 C342 1.457 . S
C343 C344 1.291 . S
C343 H356 0.931 . S
C344 C343 1.291 . S
C344 C345 1.373 . S
C344 H357 0.929 . S
C345 C344 1.373 . S
C345 C346 1.396 . S
C345 C352 1.403 . S
C346 C336 1.476 . S
C346 N341 1.318 . S
C346 C345 1.396 . S
H347 C342 0.929 . S
O348 Mn324 2.385 . S
O348 C326 1.234 . S
O349 Mn324 2.209 . S
O349 Mn325 2.215 . S
O349 C326 1.283 . S
O350 Mn324 2.094 . S
O350 C328 1.240 . S
O351 Mn325 2.117 . S
O351 C328 1.264 . S
C352 C345 1.403 . S
C352 C353 1.399 1_545 S
C352 H358 0.929 . S
C353 C333 1.449 . S
C353 C352 1.399 1_565 S
C353 H359 0.930 . S
H354 C334 0.931 . S
H355 C335 0.930 . S
H356 C343 0.931 . S
H357 C344 0.929 . S
H358 C352 0.929 . S
H359 C353 0.930 . S
Mn360 O365 2.095 . S
Mn360 O375 2.162 . S
Mn360 O376 2.297 . S
Mn360 O384 2.385 . S
Mn360 O385 2.209 . S
Mn360 O386 2.094 . S
Mn361 O366 2.121 . S
Mn361 N368 2.257 . S
Mn361 N377 2.282 . S
Mn361 O385 2.215 . S
Mn361 O387 2.117 . S
C362 O384 1.234 . S
C362 O385 1.283 . S
C363 O375 1.281 . S
C363 O376 1.236 . S
C364 O386 1.240 . S
C364 O387 1.264 . S
O365 Mn360 2.095 . S
O365 C374 1.250 . S
O366 Mn361 2.121 . S
O366 C374 1.258 . S
C367 N368 1.326 . S
C367 C371 1.460 . S
C367 H373 0.929 . S
N368 Mn361 2.257 . S
N368 C367 1.326 . S
N368 C372 1.362 . S
C369 C370 1.258 . S
C369 C372 1.431 . S
C369 C389 1.449 . S
C370 C369 1.258 . S
C370 C371 1.477 . S
C370 H390 0.931 . S
C371 C367 1.460 . S
C371 C370 1.477 . S
C371 H391 0.930 . S
C372 N368 1.362 . S
C372 C369 1.431 . S
C372 C382 1.476 . S
H373 C367 0.929 . S
C374 O365 1.250 . S
C374 O366 1.258 . S
O375 Mn360 2.162 . S
O375 C363 1.281 . S
O376 Mn360 2.297 . S
O376 C363 1.236 . S
N377 Mn361 2.282 . S
N377 C378 1.328 . S
N377 C382 1.318 . S
C378 N377 1.328 . S
C378 C379 1.457 . S
C378 H383 0.929 . S
C379 C378 1.457 . S
C379 C380 1.291 . S
C379 H392 0.931 . S
C380 C379 1.291 . S
C380 C381 1.373 . S
C380 H393 0.929 . S
C381 C380 1.373 . S
C381 C382 1.396 . S
C381 C388 1.403 . S
C382 C372 1.476 . S
C382 N377 1.318 . S
C382 C381 1.396 . S
H383 C378 0.929 . S
O384 Mn360 2.385 . S
O384 C362 1.234 . S
O385 Mn360 2.209 . S
O385 Mn361 2.215 . S
O385 C362 1.283 . S
O386 Mn360 2.094 . S
O386 C364 1.240 . S
O387 Mn361 2.117 . S
O387 C364 1.264 . S
C388 C381 1.403 . S
C388 C389 1.399 . S
C388 H394 0.929 . S
C389 C369 1.449 . S
C389 C388 1.399 . S
C389 H395 0.930 . S
H390 C370 0.931 . S
H391 C371 0.930 . S
H392 C379 0.931 . S
H393 C380 0.929 . S
H394 C388 0.929 . S
H395 C389 0.930 . S
Mn396 O401 2.095 . S
Mn396 O411 2.162 . S
Mn396 O412 2.297 . S
Mn396 O420 2.385 . S
Mn396 O421 2.209 . S
Mn396 O422 2.094 . S
Mn397 O402 2.121 . S
Mn397 N404 2.257 . S
Mn397 N413 2.282 . S
Mn397 O421 2.215 . S
Mn397 O423 2.117 . S
C398 O420 1.234 . S
C398 O421 1.283 . S
C399 O411 1.281 . S
C399 O412 1.236 . S
C400 O422 1.240 . S
C400 O423 1.264 . S
O401 Mn396 2.095 . S
O401 C410 1.250 . S
O402 Mn397 2.121 . S
O402 C410 1.258 . S
C403 N404 1.326 1_455 S
C403 C407 1.460 . S
C403 H409 0.929 . S
N404 Mn397 2.257 . S
N404 C403 1.326 1_655 S
N404 C408 1.362 . S
C405 C406 1.258 . S
C405 C408 1.431 1_455 S
C405 C425 1.449 . S
C406 C405 1.258 . S
C406 C407 1.477 . S
C406 H426 0.931 . S
C407 C403 1.460 . S
C407 C406 1.477 . S
C407 H427 0.930 . S
C408 N404 1.362 . S
C408 C405 1.431 1_655 S
C408 C418 1.476 . S
H409 C403 0.929 . S
C410 O401 1.250 . S
C410 O402 1.258 . S
O411 Mn396 2.162 . S
O411 C399 1.281 . S
O412 Mn396 2.297 . S
O412 C399 1.236 . S
N413 Mn397 2.282 . S
N413 C414 1.328 . S
N413 C418 1.318 . S
C414 N413 1.328 . S
C414 C415 1.457 . S
C414 H419 0.929 . S
C415 C414 1.457 . S
C415 C416 1.291 . S
C415 H428 0.931 . S
C416 C415 1.291 . S
C416 C417 1.373 . S
C416 H429 0.929 . S
C417 C416 1.373 . S
C417 C418 1.396 . S
C417 C424 1.403 . S
C418 C408 1.476 . S
C418 N413 1.318 . S
C418 C417 1.396 . S
H419 C414 0.929 . S
O420 Mn396 2.385 . S
O420 C398 1.234 . S
O421 Mn396 2.209 . S
O421 Mn397 2.215 . S
O421 C398 1.283 . S
O422 Mn396 2.094 . S
O422 C400 1.240 . S
O423 Mn397 2.117 . S
O423 C400 1.264 . S
C424 C417 1.403 . S
C424 C425 1.399 1_655 S
C424 H430 0.944 . S
C425 C405 1.449 . S
C425 C424 1.399 1_455 S
C425 H431 0.930 . S
H426 C406 0.931 . S
H427 C407 0.930 . S
H428 C415 0.931 . S
H429 C416 0.929 . S
H430 C424 0.944 . S
H431 C425 0.930 . S
H432 C450 0.951 . S
H433 C452 0.951 . S
H434 C454 0.950 . S
H435 C455 0.950 . S
H436 C457 0.950 . S
H437 C460 0.950 . S
H438 C461 0.950 . S
H439 C463 0.950 . S
H440 C464 0.950 . S
H441 C465 0.951 . S
H442 C467 0.951 . S
H443 C469 0.950 . S
H444 C470 0.950 . S
H445 C472 0.950 . S
H446 C475 0.950 . S
H447 C476 0.950 . S
H448 C478 0.952 . S
H449 C479 0.950 1_554 S
C450 H432 0.951 . S
C450 C451 1.366 . S
C450 C452 1.388 . S
C451 C450 1.366 . S
C451 C455 1.385 . S
C452 H433 0.951 . S
C452 C450 1.388 . S
C452 C453 1.366 . S
C453 C452 1.366 . S
C453 C454 1.414 . S
C453 C456 1.499 . S
C454 H434 0.950 . S
C454 C453 1.414 . S
C454 C455 1.374 . S
C455 H435 0.950 . S
C455 C451 1.385 . S
C455 C454 1.374 . S
C456 C453 1.499 . S
C456 C457 1.373 1_455 S
C456 C458 1.389 1_554 S
C457 H436 0.950 . S
C457 C456 1.373 1_655 S
C457 C473 1.377 1_554 S
C458 C456 1.389 1_556 S
C458 C459 1.524 1_556 S
C458 C472 1.377 . S
C459 C458 1.524 1_554 S
C459 C460 1.398 . S
C459 C464 1.362 1_554 S
C460 H437 0.950 . S
C460 C459 1.398 . S
C460 C461 1.334 . S
C461 H438 0.950 . S
C461 C460 1.334 . S
C461 C462 1.287 . S
C462 C461 1.287 . S
C462 C463 1.524 1_554 S
C462 H481 0.913 . S
C463 H439 0.950 . S
C463 C462 1.524 1_556 S
C463 C464 1.415 . S
C464 H440 0.950 . S
C464 C459 1.362 1_556 S
C464 C463 1.415 . S
C465 H441 0.951 . S
C465 C466 1.366 . S
C465 C467 1.388 . S
C466 C465 1.366 . S
C466 C470 1.385 . S
C467 H442 0.951 . S
C467 C465 1.388 . S
C467 C468 1.366 . S
C468 C467 1.366 . S
C468 C469 1.414 . S
C468 C471 1.499 . S
C469 H443 0.950 . S
C469 C468 1.414 . S
C469 C470 1.374 . S
C470 H444 0.950 . S
C470 C466 1.385 . S
C470 C469 1.374 . S
C471 C468 1.499 . S
C471 C472 1.373 1_655 S
C471 C473 1.389 . S
C472 H445 0.950 . S
C472 C458 1.377 . S
C472 C471 1.373 1_455 S
C473 C457 1.377 1_556 S
C473 C471 1.389 . S
C473 C474 1.524 . S
C474 C473 1.524 . S
C474 C475 1.397 . S
C474 C479 1.363 . S
C475 H446 0.950 . S
C475 C474 1.397 . S
C475 C476 1.334 . S
C476 H447 0.950 . S
C476 C475 1.334 . S
C476 C477 1.287 . S
C477 C476 1.287 . S
C477 C478 1.524 . S
C477 H480 0.999 . S
C478 H448 0.952 . S
C478 C477 1.524 . S
C478 C479 1.415 . S
C479 H449 0.950 1_556 S
C479 C474 1.363 . S
C479 C478 1.415 . S
H480 C477 0.999 . S
H481 C462 0.913 . S
H482 C500 0.951 . S
H483 C502 0.951 . S
H484 C504 0.950 . S
H485 C505 0.950 . S
H486 C507 0.950 . S
H487 C510 0.950 . S
H488 C511 0.950 . S
H489 C513 0.950 . S
H490 C514 0.950 1_565 S
H491 C515 0.951 . S
H492 C517 0.951 . S
H493 C519 0.950 . S
H494 C520 0.950 . S
H495 C522 0.950 . S
H496 C525 0.950 . S
H497 C526 0.950 . S
H498 C528 0.950 . S
H499 C529 0.950 1_545 S
C500 H482 0.951 . S
C500 C501 1.366 . S
C500 C502 1.388 . S
C501 C500 1.366 . S
C501 C505 1.385 . S
C502 H483 0.951 . S
C502 C500 1.388 . S
C502 C503 1.366 . S
C503 C502 1.366 . S
C503 C504 1.414 . S
C503 C506 1.499 . S
C504 H484 0.950 . S
C504 C503 1.414 . S
C504 C505 1.374 . S
C505 H485 0.950 . S
C505 C501 1.385 . S
C505 C504 1.374 . S
C506 C503 1.499 . S
C506 C507 1.373 . S
C506 C508 1.389 1_565 S
C507 H486 0.950 . S
C507 C506 1.373 . S
C507 C523 1.377 . S
C508 C506 1.389 1_545 S
C508 C509 1.524 . S
C508 C522 1.377 . S
C509 C508 1.524 . S
C509 C510 1.397 . S
C509 C514 1.363 . S
C510 H487 0.950 . S
C510 C509 1.397 . S
C510 C511 1.334 . S
C511 H488 0.950 . S
C511 C510 1.334 . S
C511 C512 1.287 . S
C512 C511 1.287 . S
C512 C513 1.524 . S
C512 H531 0.913 . S
C513 H489 0.950 . S
C513 C512 1.524 . S
C513 C514 1.415 . S
C514 H490 0.950 1_545 S
C514 C509 1.363 . S
C514 C513 1.415 . S
C515 H491 0.951 . S
C515 C516 1.366 . S
C515 C517 1.388 . S
C516 C515 1.366 . S
C516 C520 1.385 . S
C517 H492 0.951 . S
C517 C515 1.388 . S
C517 C518 1.366 . S
C518 C517 1.366 . S
C518 C519 1.414 . S
C518 C521 1.499 . S
C519 H493 0.950 . S
C519 C518 1.414 . S
C519 C520 1.374 . S
C520 H494 0.950 . S
C520 C516 1.385 . S
C520 C519 1.374 . S
C521 C518 1.499 . S
C521 C522 1.373 . S
C521 C523 1.389 1_545 S
C522 H495 0.950 . S
C522 C508 1.377 . S
C522 C521 1.373 . S
C523 C507 1.377 . S
C523 C521 1.389 1_565 S
C523 C524 1.524 . S
C524 C523 1.524 . S
C524 C525 1.397 . S
C524 C529 1.363 . S
C525 H496 0.950 . S
C525 C524 1.397 . S
C525 C526 1.334 . S
C526 H497 0.950 . S
C526 C525 1.334 . S
C526 C527 1.287 . S
C527 C526 1.287 . S
C527 C528 1.524 . S
C527 H530 0.999 . S
C528 H498 0.950 . S
C528 C527 1.524 . S
C528 C529 1.415 . S
C529 H499 0.950 1_565 S
C529 C524 1.363 . S
C529 C528 1.415 . S
H530 C527 0.999 . S
H531 C512 0.913 . S
H532 C550 0.951 . S
H533 C552 0.951 . S
H534 C554 0.950 . S
H535 C555 0.950 . S
H536 C557 0.950 . S
H537 C560 0.950 . S
H538 C561 0.950 . S
H539 C563 0.950 1_556 S
H540 C564 0.950 1_556 S
H541 C565 0.951 . S
H542 C567 0.951 . S
H543 C569 0.950 . S
H544 C570 0.950 . S
H545 C572 0.950 . S
H546 C575 0.950 . S
H547 C576 0.950 . S
H548 C578 0.950 . S
H549 C579 0.950 . S
C550 H532 0.951 . S
C550 C551 1.366 . S
C550 C552 1.388 . S
C551 C550 1.366 . S
C551 C555 1.385 . S
C552 H533 0.951 . S
C552 C550 1.388 . S
C552 C553 1.366 . S
C553 C552 1.366 . S
C553 C554 1.414 . S
C553 C556 1.499 . S
C554 H534 0.950 . S
C554 C553 1.414 . S
C554 C555 1.374 . S
C555 H535 0.950 . S
C555 C551 1.385 . S
C555 C554 1.374 . S
C556 C553 1.499 . S
C556 C557 1.373 . S
C556 C558 1.389 . S
C557 H536 0.950 . S
C557 C556 1.373 . S
C557 C573 1.377 . S
C558 C556 1.389 . S
C558 C559 1.524 . S
C558 C572 1.377 1_554 S
C559 C558 1.524 . S
C559 C560 1.397 . S
C559 C564 1.363 . S
C560 H537 0.950 . S
C560 C559 1.397 . S
C560 C561 1.334 . S
C561 H538 0.950 . S
C561 C560 1.334 . S
C561 C562 1.287 . S
C562 C561 1.287 . S
C562 C563 1.524 . S
C562 H581 0.913 . S
C563 H539 0.950 1_554 S
C563 C562 1.524 . S
C563 C564 1.415 . S
C564 H540 0.950 1_554 S
C564 C559 1.363 . S
C564 C563 1.415 . S
C565 H541 0.951 . S
C565 C566 1.366 . S
C565 C567 1.388 . S
C566 C565 1.366 . S
C566 C570 1.385 . S
C567 H542 0.951 . S
C567 C565 1.388 . S
C567 C568 1.366 . S
C568 C567 1.366 . S
C568 C569 1.414 . S
C568 C571 1.499 . S
C569 H543 0.950 . S
C569 C568 1.414 . S
C569 C570 1.374 . S
C570 H544 0.950 . S
C570 C566 1.385 . S
C570 C569 1.374 . S
C571 C568 1.499 . S
C571 C572 1.373 . S
C571 C573 1.389 1_556 S
C572 H545 0.950 . S
C572 C558 1.377 1_556 S
C572 C571 1.373 . S
C573 C557 1.377 . S
C573 C571 1.389 1_554 S
C573 C574 1.524 . S
C574 C573 1.524 . S
C574 C575 1.397 1_554 S
C574 C579 1.363 . S
C575 H546 0.950 . S
C575 C574 1.397 1_556 S
C575 C576 1.334 . S
C576 H547 0.950 . S
C576 C575 1.334 . S
C576 C577 1.287 . S
C577 C576 1.287 . S
C577 C578 1.524 1_556 S
C577 H580 0.999 . S
C578 H548 0.950 . S
C578 C577 1.524 1_554 S
C578 C579 1.415 . S
C579 H549 0.950 . S
C579 C574 1.363 . S
C579 C578 1.415 . S
H580 C577 0.999 . S
H581 C562 0.913 . S
H582 C600 0.951 . S
H583 C602 0.951 . S
H584 C604 0.950 1_655 S
H585 C605 0.950 . S
H586 C607 0.932 . S
H587 C610 0.950 . S
H588 C611 0.950 . S
H589 C613 0.950 . S
H590 C614 0.950 . S
H591 C615 0.951 . S
H592 C617 0.951 . S
H593 C619 0.950 1_455 S
H594 C620 0.950 . S
H595 C622 0.950 . S
H596 C625 0.950 . S
H597 C626 0.950 . S
H598 C628 0.950 . S
H599 C629 0.950 . S
C600 H582 0.951 . S
C600 C601 1.366 . S
C600 C602 1.388 . S
C601 C600 1.366 . S
C601 C605 1.385 . S
C602 H583 0.951 . S
C602 C600 1.388 . S
C602 C603 1.366 . S
C603 C602 1.366 . S
C603 C604 1.414 . S
C603 C606 1.499 . S
C604 H584 0.950 1_455 S
C604 C603 1.414 . S
C604 C605 1.374 . S
C605 H585 0.950 . S
C605 C601 1.385 . S
C605 C604 1.374 . S
C606 C603 1.499 . S
C606 C607 1.406 . S
C606 C608 1.389 . S
C607 H586 0.932 . S
C607 C606 1.406 . S
C607 C623 1.364 1_455 S
C608 C606 1.389 . S
C608 C609 1.524 . S
C608 C622 1.377 1_455 S
C609 C608 1.524 . S
C609 C610 1.397 1_455 S
C609 C614 1.363 . S
C610 H587 0.950 . S
C610 C609 1.397 1_655 S
C610 C611 1.334 . S
C611 H588 0.950 . S
C611 C610 1.334 . S
C611 C612 1.287 1_655 S
C612 C611 1.287 1_455 S
C612 C613 1.524 . S
C612 H631 0.913 . S
C613 H589 0.950 . S
C613 C612 1.524 . S
C613 C614 1.415 . S
C614 H590 0.950 . S
C614 C609 1.363 . S
C614 C613 1.415 . S
C615 H591 0.951 . S
C615 C616 1.366 . S
C615 C617 1.388 . S
C616 C615 1.366 . S
C616 C620 1.385 . S
C617 H592 0.951 . S
C617 C615 1.388 . S
C617 C618 1.366 . S
C618 C617 1.366 . S
C618 C619 1.414 . S
C618 C621 1.499 . S
C619 H593 0.950 1_655 S
C619 C618 1.414 . S
C619 C620 1.374 . S
C620 H594 0.950 . S
C620 C616 1.385 . S
C620 C619 1.374 . S
C621 C618 1.499 . S
C621 C622 1.373 . S
C621 C623 1.389 . S
C622 H595 0.950 . S
C622 C608 1.377 1_655 S
C622 C621 1.373 . S
C623 C607 1.364 1_655 S
C623 C621 1.389 . S
C623 C624 1.524 . S
C624 C623 1.524 . S
C624 C625 1.397 1_655 S
C624 C629 1.363 . S
C625 H596 0.950 . S
C625 C624 1.397 1_455 S
C625 C626 1.334 . S
C626 H597 0.950 . S
C626 C625 1.334 . S
C626 C627 1.287 1_455 S
C627 C626 1.287 1_655 S
C627 C628 1.524 . S
C627 H630 0.999 . S
C628 H598 0.950 . S
C628 C627 1.524 . S
C628 C629 1.415 . S
C629 H599 0.950 . S
C629 C624 1.363 . S
C629 C628 1.415 . S
H630 C627 0.999 . S
H631 C612 0.913 . S
H632 C650 0.951 . S
H633 C652 0.951 . S
H634 C654 0.950 1_565 S
H635 C655 0.906 1_565 S
H636 C657 0.950 . S
H637 C660 0.950 . S
H638 C661 0.950 . S
H639 C663 0.953 . S
H640 C664 0.950 . S
H641 C665 0.951 . S
H642 C667 0.951 . S
H643 C669 0.950 1_545 S
H644 C670 0.906 1_545 S
H645 C672 0.950 . S
H646 C675 0.950 . S
H647 C676 0.950 . S
H648 C678 0.953 . S
H649 C679 0.950 . S
C650 H632 0.951 . S
C650 C651 1.366 . S
C650 C652 1.388 . S
C651 C650 1.366 . S
C651 C655 1.385 . S
C652 H633 0.951 . S
C652 C650 1.388 . S
C652 C653 1.366 . S
C653 C652 1.366 . S
C653 C654 1.414 . S
C653 C656 1.499 . S
C654 H634 0.950 1_545 S
C654 C653 1.414 . S
C654 C655 1.374 . S
C655 H635 0.906 1_545 S
C655 C651 1.385 . S
C655 C654 1.374 . S
C656 C653 1.499 . S
C656 C657 1.373 1_545 S
C656 C658 1.389 . S
C657 H636 0.950 . S
C657 C656 1.373 1_565 S
C657 C673 1.377 1_556 S
C658 C656 1.389 . S
C658 C659 1.524 . S
C658 C672 1.377 1_556 S
C659 C658 1.524 . S
C659 C660 1.397 . S
C659 C664 1.363 1_556 S
C660 H637 0.950 . S
C660 C659 1.397 . S
C660 C661 1.334 . S
C661 H638 0.950 . S
C661 C660 1.334 . S
C661 C662 1.287 . S
C662 C661 1.287 . S
C662 C663 1.519 1_556 S
C662 H681 0.913 . S
C663 H639 0.953 . S
C663 C662 1.519 1_554 S
C663 C664 1.416 . S
C664 H640 0.950 . S
C664 C659 1.363 1_554 S
C664 C663 1.416 . S
C665 H641 0.951 . S
C665 C666 1.366 . S
C665 C667 1.388 . S
C666 C665 1.366 . S
C666 C670 1.385 . S
C667 H642 0.951 . S
C667 C665 1.388 . S
C667 C668 1.366 . S
C668 C667 1.366 . S
C668 C669 1.414 . S
C668 C671 1.499 . S
C669 H643 0.950 1_565 S
C669 C668 1.414 . S
C669 C670 1.374 . S
C670 H644 0.906 1_565 S
C670 C666 1.385 . S
C670 C669 1.374 . S
C671 C668 1.499 . S
C671 C672 1.373 1_565 S
C671 C673 1.389 . S
C672 H645 0.950 . S
C672 C658 1.377 1_554 S
C672 C671 1.373 1_545 S
C673 C657 1.377 1_554 S
C673 C671 1.389 . S
C673 C674 1.524 . S
C674 C673 1.524 . S
C674 C675 1.397 . S
C674 C679 1.363 1_554 S
C675 H646 0.950 . S
C675 C674 1.397 . S
C675 C676 1.334 . S
C676 H647 0.950 . S
C676 C675 1.334 . S
C676 C677 1.287 . S
C677 C676 1.287 . S
C677 C678 1.519 1_554 S
C677 H680 0.999 . S
C678 H648 0.953 . S
C678 C677 1.519 1_556 S
C678 C679 1.416 . S
C679 H649 0.950 . S
C679 C674 1.363 1_556 S
C679 C678 1.416 . S
H680 C677 0.999 . S
H681 C662 0.913 . S
H682 C700 0.951 . S
H683 C702 0.951 . S
H684 C704 0.950 . S
H685 C705 0.950 . S
H686 C707 0.950 . S
H687 C710 0.950 . S
H688 C711 0.950 . S
H689 C713 0.950 . S
H690 C714 0.950 . S
H691 C715 0.951 . S
H692 C717 0.951 . S
H693 C719 0.950 . S
H694 C720 0.950 . S
H695 C722 0.950 . S
H696 C725 0.950 . S
H697 C726 0.950 . S
H698 C728 0.950 . S
H699 C729 0.950 . S
C700 H682 0.951 . S
C700 C701 1.366 . S
C700 C702 1.388 . S
C701 C700 1.366 . S
C701 C705 1.385 . S
C702 H683 0.951 . S
C702 C700 1.388 . S
C702 C703 1.366 . S
C703 C702 1.366 . S
C703 C704 1.414 . S
C703 C706 1.499 . S
C704 H684 0.950 . S
C704 C703 1.414 . S
C704 C705 1.374 . S
C705 H685 0.950 . S
C705 C701 1.385 . S
C705 C704 1.374 . S
C706 C703 1.499 . S
C706 C707 1.373 . S
C706 C708 1.389 . S
C707 H686 0.950 . S
C707 C706 1.373 . S
C707 C723 1.377 . S
C708 C706 1.389 . S
C708 C709 1.524 . S
C708 C722 1.377 . S
C709 C708 1.524 . S
C709 C710 1.397 . S
C709 C714 1.363 . S
C710 H687 0.950 . S
C710 C709 1.397 . S
C710 C711 1.334 . S
C711 H688 0.950 . S
C711 C710 1.334 . S
C711 C712 1.287 . S
C712 C711 1.287 . S
C712 C713 1.524 . S
C712 H731 0.913 . S
C713 H689 0.950 . S
C713 C712 1.524 . S
C713 C714 1.415 . S
C714 H690 0.950 . S
C714 C709 1.363 . S
C714 C713 1.415 . S
C715 H691 0.951 . S
C715 C716 1.366 . S
C715 C717 1.388 . S
C716 C715 1.366 . S
C716 C720 1.385 . S
C717 H692 0.951 . S
C717 C715 1.388 . S
C717 C718 1.366 . S
C718 C717 1.366 . S
C718 C719 1.414 . S
C718 C721 1.499 . S
C719 H693 0.950 . S
C719 C718 1.414 . S
C719 C720 1.374 . S
C720 H694 0.950 . S
C720 C716 1.385 . S
C720 C719 1.374 . S
C721 C718 1.499 . S
C721 C722 1.373 . S
C721 C723 1.389 . S
C722 H695 0.950 . S
C722 C708 1.377 . S
C722 C721 1.373 . S
C723 C707 1.377 . S
C723 C721 1.389 . S
C723 C724 1.524 . S
C724 C723 1.524 . S
C724 C725 1.397 . S
C724 C729 1.363 . S
C725 H696 0.950 . S
C725 C724 1.397 . S
C725 C726 1.334 . S
C726 H697 0.950 . S
C726 C725 1.334 . S
C726 C727 1.287 . S
C727 C726 1.287 . S
C727 C728 1.524 . S
C727 H730 0.999 . S
C728 H698 0.950 . S
C728 C727 1.524 . S
C728 C729 1.415 . S
C729 H699 0.950 . S
C729 C724 1.363 . S
C729 C728 1.415 . S
H730 C727 0.999 . S
H731 C712 0.913 . S
H732 C750 0.951 . S
H733 C752 0.951 . S
H734 C754 0.950 . S
H735 C755 0.950 . S
H736 C757 0.950 . S
H737 C760 0.950 . S
H738 C761 0.950 . S
H739 C763 0.950 . S
H740 C764 0.950 1_554 S
H741 C765 0.951 . S
H742 C767 0.951 . S
H743 C769 0.950 . S
H744 C770 0.950 . S
H745 C772 0.950 . S
H746 C775 0.950 . S
H747 C776 0.950 . S
H748 C778 0.950 . S
H749 C779 0.950 1_556 S
C750 H732 0.951 . S
C750 C751 1.366 . S
C750 C752 1.388 . S
C751 C750 1.366 . S
C751 C755 1.385 . S
C752 H733 0.951 . S
C752 C750 1.388 . S
C752 C753 1.366 . S
C753 C752 1.366 . S
C753 C754 1.414 . S
C753 C756 1.499 . S
C754 H734 0.950 . S
C754 C753 1.414 . S
C754 C755 1.374 . S
C755 H735 0.950 . S
C755 C751 1.385 . S
C755 C754 1.374 . S
C756 C753 1.499 . S
C756 C757 1.373 1_655 S
C756 C758 1.389 . S
C757 H736 0.950 . S
C757 C756 1.373 1_455 S
C757 C773 1.377 1_556 S
C758 C756 1.389 . S
C758 C759 1.524 . S
C758 C772 1.377 1_556 S
C759 C758 1.524 . S
C759 C760 1.397 . S
C759 C764 1.363 . S
C760 H737 0.950 . S
C760 C759 1.397 . S
C760 C761 1.334 . S
C761 H738 0.950 . S
C761 C760 1.334 . S
C761 C762 1.287 . S
C762 C761 1.287 . S
C762 C763 1.524 . S
C762 H781 0.913 . S
C763 H739 0.950 . S
C763 C762 1.524 . S
C763 C764 1.415 . S
C764 H740 0.950 1_556 S
C764 C759 1.363 . S
C764 C763 1.415 . S
C765 H741 0.951 . S
C765 C766 1.366 . S
C765 C767 1.388 . S
C766 C765 1.366 . S
C766 C770 1.385 . S
C767 H742 0.951 . S
C767 C765 1.388 . S
C767 C768 1.366 . S
C768 C767 1.366 . S
C768 C769 1.414 . S
C768 C771 1.499 . S
C769 H743 0.950 . S
C769 C768 1.414 . S
C769 C770 1.374 . S
C770 H744 0.950 . S
C770 C766 1.385 . S
C770 C769 1.374 . S
C771 C768 1.499 . S
C771 C772 1.373 1_455 S
C771 C773 1.389 . S
C772 H745 0.950 . S
C772 C758 1.377 1_554 S
C772 C771 1.373 1_655 S
C773 C757 1.377 1_554 S
C773 C771 1.389 . S
C773 C774 1.524 . S
C774 C773 1.524 . S
C774 C775 1.397 . S
C774 C779 1.363 . S
C775 H746 0.950 . S
C775 C774 1.397 . S
C775 C776 1.334 . S
C776 H747 0.950 . S
C776 C775 1.334 . S
C776 C777 1.287 . S
C777 C776 1.287 . S
C777 C778 1.524 . S
C777 H780 0.999 . S
C778 H748 0.950 . S
C778 C777 1.524 . S
C778 C779 1.415 . S
C779 H749 0.950 1_554 S
C779 C774 1.363 . S
C779 C778 1.415 . S
H780 C777 0.999 . S
H781 C762 0.913 . S
H782 C800 0.951 . S
H783 C802 0.951 1_545 S
H784 C804 0.950 . S
H785 C805 0.950 . S
H786 C807 0.950 . S
H787 C810 0.950 . S
H788 C811 0.950 . S
H789 C813 0.950 . S
H790 C814 0.950 1_545 S
H791 C815 0.951 . S
H792 C817 0.951 1_565 S
H793 C819 0.950 . S
H794 C820 0.950 . S
H795 C822 0.950 . S
H796 C825 0.950 . S
H797 C826 0.950 . S
H798 C828 0.950 . S
H799 C829 0.950 1_565 S
C800 H782 0.951 . S
C800 C801 1.366 . S
C800 C802 1.388 . S
C801 C800 1.366 . S
C801 C805 1.385 . S
C802 H783 0.951 1_565 S
C802 C800 1.388 . S
C802 C803 1.366 . S
C803 C802 1.366 . S
C803 C804 1.414 . S
C803 C806 1.499 . S
C804 H784 0.950 . S
C804 C803 1.414 . S
C804 C805 1.374 . S
C805 H785 0.950 . S
C805 C801 1.385 . S
C805 C804 1.374 . S
C806 C803 1.499 . S
C806 C807 1.373 . S
C806 C808 1.389 . S
C807 H786 0.950 . S
C807 C806 1.373 . S
C807 C823 1.377 1_565 S
C808 C806 1.389 . S
C808 C809 1.524 . S
C808 C822 1.377 1_565 S
C809 C808 1.524 . S
C809 C810 1.397 . S
C809 C814 1.363 . S
C810 H787 0.950 . S
C810 C809 1.397 . S
C810 C811 1.334 . S
C811 H788 0.950 . S
C811 C810 1.334 . S
C811 C812 1.287 . S
C812 C811 1.287 . S
C812 C813 1.524 . S
C812 H831 0.913 . S
C813 H789 0.950 . S
C813 C812 1.524 . S
C813 C814 1.415 . S
C814 H790 0.950 1_565 S
C814 C809 1.363 . S
C814 C813 1.415 . S
C815 H791 0.951 . S
C815 C816 1.366 . S
C815 C817 1.388 . S
C816 C815 1.366 . S
C816 C820 1.385 . S
C817 H792 0.951 1_545 S
C817 C815 1.388 . S
C817 C818 1.366 . S
C818 C817 1.366 . S
C818 C819 1.414 . S
C818 C821 1.499 . S
C819 H793 0.950 . S
C819 C818 1.414 . S
C819 C820 1.374 . S
C820 H794 0.950 . S
C820 C816 1.385 . S
C820 C819 1.374 . S
C821 C818 1.499 . S
C821 C822 1.373 . S
C821 C823 1.389 . S
C822 H795 0.950 . S
C822 C808 1.377 1_545 S
C822 C821 1.373 . S
C823 C807 1.377 1_545 S
C823 C821 1.389 . S
C823 C824 1.524 . S
C824 C823 1.524 . S
C824 C825 1.397 . S
C824 C829 1.363 . S
C825 H796 0.950 . S
C825 C824 1.397 . S
C825 C826 1.334 . S
C826 H797 0.950 . S
C826 C825 1.334 . S
C826 C827 1.287 . S
C827 C826 1.287 . S
C827 C828 1.524 . S
C827 H830 0.999 . S
C828 H798 0.950 . S
C828 C827 1.524 . S
C828 C829 1.415 . S
C829 H799 0.950 1_545 S
C829 C824 1.363 . S
C829 C828 1.415 . S
H830 C827 0.999 . S
H831 C812 0.913 . S
H832 C850 0.951 . S
H833 C852 0.951 . S
H834 C854 0.950 . S
H835 C855 0.950 . S
H836 C857 0.950 . S
H837 C860 0.950 . S
H838 C861 0.950 . S
H839 C863 0.950 . S
H840 C864 0.950 . S
H841 C865 0.951 . S
H842 C867 0.951 . S
H843 C869 0.950 . S
H844 C870 0.950 . S
H845 C872 0.950 . S
H846 C875 0.950 . S
H847 C876 0.950 . S
H848 C878 0.950 . S
H849 C879 0.950 . S
C850 H832 0.951 . S
C850 C851 1.366 . S
C850 C852 1.388 . S
C851 C850 1.366 . S
C851 C855 1.385 . S
C852 H833 0.951 . S
C852 C850 1.388 . S
C852 C853 1.366 . S
C853 C852 1.366 . S
C853 C854 1.414 . S
C853 C856 1.499 . S
C854 H834 0.950 . S
C854 C853 1.414 . S
C854 C855 1.374 . S
C855 H835 0.950 . S
C855 C851 1.385 . S
C855 C854 1.374 . S
C856 C853 1.499 . S
C856 C857 1.373 . S
C856 C858 1.389 . S
C857 H836 0.950 . S
C857 C856 1.373 . S
C857 C873 1.377 1_556 S
C858 C856 1.389 . S
C858 C859 1.524 . S
C858 C872 1.377 1_556 S
C859 C858 1.524 . S
C859 C860 1.397 . S
C859 C864 1.363 . S
C860 H837 0.950 . S
C860 C859 1.397 . S
C860 C861 1.334 . S
C861 H838 0.950 . S
C861 C860 1.334 . S
C861 C862 1.287 . S
C862 C861 1.287 . S
C862 C863 1.524 . S
C862 H881 0.913 . S
C863 H839 0.950 . S
C863 C862 1.524 . S
C863 C864 1.415 . S
C864 H840 0.950 . S
C864 C859 1.363 . S
C864 C863 1.415 . S
C865 H841 0.951 . S
C865 C866 1.366 . S
C865 C867 1.388 . S
C866 C865 1.366 . S
C866 C870 1.385 . S
C867 H842 0.951 . S
C867 C865 1.388 . S
C867 C868 1.366 . S
C868 C867 1.366 . S
C868 C869 1.414 . S
C868 C871 1.499 . S
C869 H843 0.950 . S
C869 C868 1.414 . S
C869 C870 1.374 . S
C870 H844 0.950 . S
C870 C866 1.385 . S
C870 C869 1.374 . S
C871 C868 1.499 . S
C871 C872 1.373 . S
C871 C873 1.389 . S
C872 H845 0.950 . S
C872 C858 1.377 1_554 S
C872 C871 1.373 . S
C873 C857 1.377 1_554 S
C873 C871 1.389 . S
C873 C874 1.524 . S
C874 C873 1.524 . S
C874 C875 1.397 . S
C874 C879 1.363 . S
C875 H846 0.950 . S
C875 C874 1.397 . S
C875 C876 1.334 . S
C876 H847 0.950 . S
C876 C875 1.334 . S
C876 C877 1.287 . S
C877 C876 1.287 . S
C877 C878 1.524 . S
C877 H880 0.999 . S
C878 H848 0.950 . S
C878 C877 1.524 . S
C878 C879 1.415 . S
C879 H849 0.950 . S
C879 C874 1.363 . S
C879 C878 1.415 . S
H880 C877 0.999 . S
H881 C862 0.913 . S
H882 C900 0.951 . S
H883 C902 0.951 . S
H884 C904 0.950 1_455 S
H885 C905 0.950 . S
H886 C907 0.950 . S
H887 C910 0.950 . S
H888 C911 0.950 . S
H889 C913 0.950 . S
H890 C914 0.950 . S
H891 C915 0.951 . S
H892 C917 0.951 . S
H893 C919 0.950 1_655 S
H894 C920 0.950 . S
H895 C922 0.950 . S
H896 C925 0.950 . S
H897 C926 0.950 . S
H898 C928 0.950 . S
H899 C929 0.950 . S
C900 H882 0.951 . S
C900 C901 1.366 . S
C900 C902 1.388 . S
C901 C900 1.366 . S
C901 C905 1.385 . S
C902 H883 0.951 . S
C902 C900 1.388 . S
C902 C903 1.366 . S
C903 C902 1.366 . S
C903 C904 1.414 . S
C903 C906 1.499 . S
C904 H884 0.950 1_655 S
C904 C903 1.414 . S
C904 C905 1.374 . S
C905 H885 0.950 . S
C905 C901 1.385 . S
C905 C904 1.374 . S
C906 C903 1.499 . S
C906 C907 1.373 1_655 S
C906 C908 1.389 . S
C907 H886 0.950 . S
C907 C906 1.373 1_455 S
C907 C923 1.377 . S
C908 C906 1.389 . S
C908 C909 1.524 . S
C908 C922 1.377 . S
C909 C908 1.524 . S
C909 C910 1.397 . S
C909 C914 1.363 . S
C910 H887 0.950 . S
C910 C909 1.397 . S
C910 C911 1.334 . S
C911 H888 0.950 . S
C911 C910 1.334 . S
C911 C912 1.287 . S
C912 C911 1.287 . S
C912 C913 1.524 . S
C912 H931 0.913 . S
C913 H889 0.950 . S
C913 C912 1.524 . S
C913 C914 1.415 . S
C914 H890 0.950 . S
C914 C909 1.363 . S
C914 C913 1.415 . S
C915 H891 0.951 . S
C915 C916 1.366 . S
C915 C917 1.388 . S
C916 C915 1.366 . S
C916 C920 1.385 . S
C917 H892 0.951 . S
C917 C915 1.388 . S
C917 C918 1.366 . S
C918 C917 1.366 . S
C918 C919 1.414 . S
C918 C921 1.499 . S
C919 H893 0.950 1_455 S
C919 C918 1.414 . S
C919 C920 1.374 . S
C920 H894 0.950 . S
C920 C916 1.385 . S
C920 C919 1.374 . S
C921 C918 1.499 . S
C921 C922 1.373 1_455 S
C921 C923 1.389 . S
C922 H895 0.950 . S
C922 C908 1.377 . S
C922 C921 1.373 1_655 S
C923 C907 1.377 . S
C923 C921 1.389 . S
C923 C924 1.524 . S
C924 C923 1.524 . S
C924 C925 1.397 . S
C924 C929 1.363 . S
C925 H896 0.950 . S
C925 C924 1.397 . S
C925 C926 1.334 . S
C926 H897 0.950 . S
C926 C925 1.334 . S
C926 C927 1.287 . S
C927 C926 1.287 . S
C927 C928 1.524 . S
C927 H930 0.999 . S
C928 H898 0.950 . S
C928 C927 1.524 . S
C928 C929 1.415 . S
C929 H899 0.950 . S
C929 C924 1.363 . S
C929 C928 1.415 . S
H930 C927 0.999 . S
H931 C912 0.913 . S
H932 C950 0.951 . S
H933 C952 0.951 . S
H934 C954 0.950 1_565 S
H935 C955 0.950 . S
H936 C957 0.950 . S
H937 C960 0.950 . S
H938 C961 0.950 . S
H939 C963 0.950 . S
H940 C964 0.950 . S
H941 C965 0.951 . S
H942 C967 0.951 . S
H943 C969 0.950 1_545 S
H944 C970 0.950 . S
H945 C972 0.950 . S
H946 C975 0.950 . S
H947 C976 0.950 . S
H948 C978 0.950 . S
H949 C979 0.950 . S
C950 H932 0.951 . S
C950 C951 1.366 . S
C950 C952 1.388 . S
C951 C950 1.366 . S
C951 C955 1.385 . S
C952 H933 0.951 . S
C952 C950 1.388 . S
C952 C953 1.366 . S
C953 C952 1.366 . S
C953 C954 1.414 . S
C953 C956 1.499 . S
C954 H934 0.950 1_545 S
C954 C953 1.414 . S
C954 C955 1.374 . S
C955 H935 0.950 . S
C955 C951 1.385 . S
C955 C954 1.374 . S
C956 C953 1.499 . S
C956 C957 1.373 1_545 S
C956 C958 1.389 . S
C957 H936 0.950 . S
C957 C956 1.373 1_565 S
C957 C973 1.377 1_556 S
C958 C956 1.389 . S
C958 C959 1.524 . S
C958 C972 1.377 1_556 S
C959 C958 1.524 . S
C959 C960 1.397 . S
C959 C964 1.363 1_556 S
C960 H937 0.950 . S
C960 C959 1.397 . S
C960 C961 1.334 . S
C961 H938 0.950 . S
C961 C960 1.334 . S
C961 C962 1.287 . S
C962 C961 1.287 . S
C962 C963 1.524 1_556 S
C962 H981 0.913 . S
C963 H939 0.950 . S
C963 C962 1.524 1_554 S
C963 C964 1.415 . S
C964 H940 0.950 . S
C964 C959 1.363 1_554 S
C964 C963 1.415 . S
C965 H941 0.951 . S
C965 C966 1.366 . S
C965 C967 1.388 . S
C966 C965 1.366 . S
C966 C970 1.385 . S
C967 H942 0.951 . S
C967 C965 1.388 . S
C967 C968 1.366 . S
C968 C967 1.366 . S
C968 C969 1.414 . S
C968 C971 1.499 . S
C969 H943 0.950 1_565 S
C969 C968 1.414 . S
C969 C970 1.374 . S
C970 H944 0.950 . S
C970 C966 1.385 . S
C970 C969 1.374 . S
C971 C968 1.499 . S
C971 C972 1.373 1_565 S
C971 C973 1.389 . S
C972 H945 0.950 . S
C972 C958 1.377 1_554 S
C972 C971 1.373 1_545 S
C973 C957 1.377 1_554 S
C973 C971 1.389 . S
C973 C974 1.524 . S
C974 C973 1.524 . S
C974 C975 1.397 . S
C974 C979 1.363 1_554 S
C975 H946 0.950 . S
C975 C974 1.397 . S
C975 C976 1.334 . S
C976 H947 0.950 . S
C976 C975 1.334 . S
C976 C977 1.287 . S
C977 C976 1.287 . S
C977 C978 1.524 1_554 S
C977 H980 0.999 . S
C978 H948 0.950 . S
C978 C977 1.524 1_556 S
C978 C979 1.415 . S
C979 H949 0.950 . S
C979 C974 1.363 1_556 S
C979 C978 1.415 . S
H980 C977 0.999 . S
H981 C962 0.913 . S
H982 C1000 0.951 . S
H983 C1002 0.951 . S
H984 C1004 0.950 . S
H985 C1005 0.950 . S
H986 C1007 0.950 . S
H987 C1010 0.950 . S
H988 C1011 0.950 . S
H989 C1013 0.950 . S
H990 C1014 0.950 . S
H991 C1015 0.951 . S
H992 C1017 0.951 . S
H993 C1019 0.950 . S
H994 C1020 0.950 . S
H995 C1022 0.950 . S
H996 C1025 0.950 . S
H997 C1026 0.950 . S
H998 C1028 0.950 . S
H999 C1029 0.950 . S
C1000 H982 0.951 . S
C1000 C1001 1.366 . S
C1000 C1002 1.388 . S
C1001 C1000 1.366 . S
C1001 C1005 1.385 . S
C1002 H983 0.951 . S
C1002 C1000 1.388 . S
C1002 C1003 1.366 . S
C1003 C1002 1.366 . S
C1003 C1004 1.414 . S
C1003 C1006 1.499 . S
C1004 H984 0.950 . S
C1004 C1003 1.414 . S
C1004 C1005 1.374 . S
C1005 H985 0.950 . S
C1005 C1001 1.385 . S
C1005 C1004 1.374 . S
C1006 C1003 1.499 . S
C1006 C1007 1.373 . S
C1006 C1008 1.389 . S
C1007 H986 0.950 . S
C1007 C1006 1.373 . S
C1007 C1023 1.377 . S
C1008 C1006 1.389 . S
C1008 C1009 1.524 . S
C1008 C1022 1.377 . S
C1009 C1008 1.524 . S
C1009 C1010 1.397 . S
C1009 C1014 1.363 . S
C1010 H987 0.950 . S
C1010 C1009 1.397 . S
C1010 C1011 1.334 . S
C1011 H988 0.950 . S
C1011 C1010 1.334 . S
C1011 C1012 1.287 . S
C1012 C1011 1.287 . S
C1012 C1013 1.524 . S
C1012 H1031 0.913 . S
C1013 H989 0.950 . S
C1013 C1012 1.524 . S
C1013 C1014 1.415 . S
C1014 H990 0.950 . S
C1014 C1009 1.363 . S
C1014 C1013 1.415 . S
C1015 H991 0.951 . S
C1015 C1016 1.366 . S
C1015 C1017 1.388 . S
C1016 C1015 1.366 . S
C1016 C1020 1.385 . S
C1017 H992 0.951 . S
C1017 C1015 1.388 . S
C1017 C1018 1.366 . S
C1018 C1017 1.366 . S
C1018 C1019 1.414 . S
C1018 C1021 1.499 . S
C1019 H993 0.950 . S
C1019 C1018 1.414 . S
C1019 C1020 1.374 . S
C1020 H994 0.950 . S
C1020 C1016 1.385 . S
C1020 C1019 1.374 . S
C1021 C1018 1.499 . S
C1021 C1022 1.373 . S
C1021 C1023 1.389 . S
C1022 H995 0.950 . S
C1022 C1008 1.377 . S
C1022 C1021 1.373 . S
C1023 C1007 1.377 . S
C1023 C1021 1.389 . S
C1023 C1024 1.524 . S
C1024 C1023 1.524 . S
C1024 C1025 1.397 . S
C1024 C1029 1.363 . S
C1025 H996 0.950 . S
C1025 C1024 1.397 . S
C1025 C1026 1.334 . S
C1026 H997 0.950 . S
C1026 C1025 1.334 . S
C1026 C1027 1.287 . S
C1027 C1026 1.287 . S
C1027 C1028 1.524 . S
C1027 H1030 0.999 . S
C1028 H998 0.950 . S
C1028 C1027 1.524 . S
C1028 C1029 1.415 . S
C1029 H999 0.950 . S
C1029 C1024 1.363 . S
C1029 C1028 1.415 . S
H1030 C1027 0.999 . S
H1031 C1012 0.913 . S
H1032 C1050 0.951 . S
H1033 C1052 0.951 . S
H1034 C1054 0.950 . S
H1035 C1055 0.950 . S
H1036 C1057 0.950 . S
H1037 C1060 0.950 . S
H1038 C1061 0.950 . S
H1039 C1063 0.950 . S
H1040 C1064 0.950 . S
H1041 C1065 0.951 . S
H1042 C1067 0.951 . S
H1043 C1069 0.950 . S
H1044 C1070 0.950 . S
H1045 C1072 0.950 . S
H1046 C1075 0.950 . S
H1047 C1076 0.950 . S
H1048 C1078 0.950 . S
H1049 C1079 0.950 . S
C1050 H1032 0.951 . S
C1050 C1051 1.366 . S
C1050 C1052 1.388 . S
C1051 C1050 1.366 . S
C1051 C1055 1.385 . S
C1052 H1033 0.951 . S
C1052 C1050 1.388 . S
C1052 C1053 1.366 . S
C1053 C1052 1.366 . S
C1053 C1054 1.414 . S
C1053 C1056 1.499 . S
C1054 H1034 0.950 . S
C1054 C1053 1.414 . S
C1054 C1055 1.374 . S
C1055 H1035 0.950 . S
C1055 C1051 1.385 . S
C1055 C1054 1.374 . S
C1056 C1053 1.499 . S
C1056 C1057 1.373 . S
C1056 C1058 1.389 . S
C1057 H1036 0.950 . S
C1057 C1056 1.373 . S
C1057 C1073 1.377 . S
C1058 C1056 1.389 . S
C1058 C1059 1.524 . S
C1058 C1072 1.377 . S
C1059 C1058 1.524 . S
C1059 C1060 1.397 . S
C1059 C1064 1.363 . S
C1060 H1037 0.950 . S
C1060 C1059 1.397 . S
C1060 C1061 1.334 . S
C1061 H1038 0.950 . S
C1061 C1060 1.334 . S
C1061 C1062 1.287 . S
C1062 C1061 1.287 . S
C1062 C1063 1.524 1_455 S
C1062 H1081 0.913 1_455 S
C1063 H1039 0.950 . S
C1063 C1062 1.524 1_655 S
C1063 C1064 1.415 1_655 S
C1064 H1040 0.950 . S
C1064 C1059 1.363 . S
C1064 C1063 1.415 1_455 S
C1065 H1041 0.951 . S
C1065 C1066 1.366 . S
C1065 C1067 1.388 . S
C1066 C1065 1.366 . S
C1066 C1070 1.385 . S
C1067 H1042 0.951 . S
C1067 C1065 1.388 . S
C1067 C1068 1.366 . S
C1068 C1067 1.366 . S
C1068 C1069 1.414 . S
C1068 C1071 1.499 . S
C1069 H1043 0.950 . S
C1069 C1068 1.414 . S
C1069 C1070 1.374 . S
C1070 H1044 0.950 . S
C1070 C1066 1.385 . S
C1070 C1069 1.374 . S
C1071 C1068 1.499 . S
C1071 C1072 1.373 . S
C1071 C1073 1.389 . S
C1072 H1045 0.950 . S
C1072 C1058 1.377 . S
C1072 C1071 1.373 . S
C1073 C1057 1.377 . S
C1073 C1071 1.389 . S
C1073 C1074 1.524 . S
C1074 C1073 1.524 . S
C1074 C1075 1.397 . S
C1074 C1079 1.363 . S
C1075 H1046 0.950 . S
C1075 C1074 1.397 . S
C1075 C1076 1.334 . S
C1076 H1047 0.950 . S
C1076 C1075 1.334 . S
C1076 C1077 1.287 . S
C1077 C1076 1.287 . S
C1077 C1078 1.524 . S
C1077 H1080 0.999 . S
C1078 H1048 0.950 . S
C1078 C1077 1.524 . S
C1078 C1079 1.415 . S
C1079 H1049 0.950 . S
C1079 C1074 1.363 . S
C1079 C1078 1.415 . S
H1080 C1077 0.999 . S
H1081 C1062 0.913 1_655 S
H1082 C1100 0.951 . S
H1083 C1102 0.951 . S
H1084 C1104 0.950 . S
H1085 C1105 0.950 . S
H1086 C1107 0.950 . S
H1087 C1110 0.950 . S
H1088 C1111 0.950 . S
H1089 C1113 0.950 . S
H1090 C1114 0.950 . S
H1091 C1115 0.951 . S
H1092 C1117 0.951 . S
H1093 C1119 0.950 . S
H1094 C1120 0.950 . S
H1095 C1122 0.950 . S
H1096 C1125 0.950 . S
H1097 C1126 0.950 . S
H1098 C1128 0.950 . S
H1099 C1129 0.950 . S
C1100 H1082 0.951 . S
C1100 C1101 1.366 . S
C1100 C1102 1.388 . S
C1101 C1100 1.366 . S
C1101 C1105 1.385 . S
C1102 H1083 0.951 . S
C1102 C1100 1.388 . S
C1102 C1103 1.366 . S
C1103 C1102 1.366 . S
C1103 C1104 1.414 . S
C1103 C1106 1.499 . S
C1104 H1084 0.950 . S
C1104 C1103 1.414 . S
C1104 C1105 1.374 . S
C1105 H1085 0.950 . S
C1105 C1101 1.385 . S
C1105 C1104 1.374 . S
C1106 C1103 1.499 . S
C1106 C1107 1.373 . S
C1106 C1108 1.389 . S
C1107 H1086 0.950 . S
C1107 C1106 1.373 . S
C1107 C1123 1.377 . S
C1108 C1106 1.389 . S
C1108 C1109 1.524 . S
C1108 C1122 1.377 . S
C1109 C1108 1.524 . S
C1109 C1110 1.397 . S
C1109 C1114 1.363 . S
C1110 H1087 0.950 . S
C1110 C1109 1.397 . S
C1110 C1111 1.334 1_545 S
C1111 H1088 0.950 . S
C1111 C1110 1.334 1_565 S
C1111 C1112 1.287 . S
C1112 C1111 1.287 . S
C1112 C1113 1.524 . S
C1112 H1131 0.913 . S
C1113 H1089 0.950 . S
C1113 C1112 1.524 . S
C1113 C1114 1.415 1_565 S
C1114 H1090 0.950 . S
C1114 C1109 1.363 . S
C1114 C1113 1.415 1_545 S
C1115 H1091 0.951 . S
C1115 C1116 1.366 . S
C1115 C1117 1.388 . S
C1116 C1115 1.366 . S
C1116 C1120 1.385 . S
C1117 H1092 0.951 . S
C1117 C1115 1.388 . S
C1117 C1118 1.366 . S
C1118 C1117 1.366 . S
C1118 C1119 1.414 . S
C1118 C1121 1.499 . S
C1119 H1093 0.950 . S
C1119 C1118 1.414 . S
C1119 C1120 1.374 . S
C1120 H1094 0.950 . S
C1120 C1116 1.385 . S
C1120 C1119 1.374 . S
C1121 C1118 1.499 . S
C1121 C1122 1.373 . S
C1121 C1123 1.389 . S
C1122 H1095 0.950 . S
C1122 C1108 1.377 . S
C1122 C1121 1.373 . S
C1123 C1107 1.377 . S
C1123 C1121 1.389 . S
C1123 C1124 1.524 . S
C1124 C1123 1.524 . S
C1124 C1125 1.397 . S
C1124 C1129 1.363 . S
C1125 H1096 0.950 . S
C1125 C1124 1.397 . S
C1125 C1126 1.334 . S
C1126 H1097 0.950 . S
C1126 C1125 1.334 . S
C1126 C1127 1.287 . S
C1127 C1126 1.287 . S
C1127 C1128 1.524 . S
C1127 H1130 0.999 . S
C1128 H1098 0.950 . S
C1128 C1127 1.524 . S
C1128 C1129 1.415 . S
C1129 H1099 0.950 . S
C1129 C1124 1.363 . S
C1129 C1128 1.415 . S
H1130 C1127 0.999 . S
H1131 C1112 0.913 . S
H1132 C1150 0.951 . S
H1133 C1152 0.951 . S
H1134 C1154 0.950 . S
H1135 C1155 0.950 . S
H1136 C1157 0.950 . S
H1137 C1160 0.950 . S
H1138 C1161 0.950 . S
H1139 C1163 0.950 . S
H1140 C1164 0.950 . S
H1141 C1165 0.951 . S
H1142 C1167 0.951 . S
H1143 C1169 0.950 . S
H1144 C1170 0.950 . S
H1145 C1172 0.950 . S
H1146 C1175 0.950 . S
H1147 C1176 0.950 . S
H1148 C1178 0.950 . S
H1149 C1179 0.950 . S
C1150 H1132 0.951 . S
C1150 C1151 1.366 . S
C1150 C1152 1.388 . S
C1151 C1150 1.366 . S
C1151 C1155 1.385 . S
C1152 H1133 0.951 . S
C1152 C1150 1.388 . S
C1152 C1153 1.366 . S
C1153 C1152 1.366 . S
C1153 C1154 1.414 . S
C1153 C1156 1.499 . S
C1154 H1134 0.950 . S
C1154 C1153 1.414 . S
C1154 C1155 1.374 . S
C1155 H1135 0.950 . S
C1155 C1151 1.385 . S
C1155 C1154 1.374 . S
C1156 C1153 1.499 . S
C1156 C1157 1.373 . S
C1156 C1158 1.389 . S
C1157 H1136 0.950 . S
C1157 C1156 1.373 . S
C1157 C1173 1.377 . S
C1158 C1156 1.389 . S
C1158 C1159 1.524 . S
C1158 C1172 1.377 . S
C1159 C1158 1.524 . S
C1159 C1160 1.397 . S
C1159 C1164 1.363 . S
C1160 H1137 0.950 . S
C1160 C1159 1.397 . S
C1160 C1161 1.334 . S
C1161 H1138 0.950 . S
C1161 C1160 1.334 . S
C1161 C1162 1.287 . S
C1162 C1161 1.287 . S
C1162 C1163 1.524 . S
C1162 H1181 0.913 . S
C1163 H1139 0.950 . S
C1163 C1162 1.524 . S
C1163 C1164 1.415 . S
C1164 H1140 0.950 . S
C1164 C1159 1.363 . S
C1164 C1163 1.415 . S
C1165 H1141 0.951 . S
C1165 C1166 1.366 . S
C1165 C1167 1.388 . S
C1166 C1165 1.366 . S
C1166 C1170 1.385 . S
C1167 H1142 0.951 . S
C1167 C1165 1.388 . S
C1167 C1168 1.366 . S
C1168 C1167 1.366 . S
C1168 C1169 1.414 . S
C1168 C1171 1.499 . S
C1169 H1143 0.950 . S
C1169 C1168 1.414 . S
C1169 C1170 1.374 . S
C1170 H1144 0.950 . S
C1170 C1166 1.385 . S
C1170 C1169 1.374 . S
C1171 C1168 1.499 . S
C1171 C1172 1.373 . S
C1171 C1173 1.389 . S
C1172 H1145 0.950 . S
C1172 C1158 1.377 . S
C1172 C1171 1.373 . S
C1173 C1157 1.377 . S
C1173 C1171 1.389 . S
C1173 C1174 1.524 . S
C1174 C1173 1.524 . S
C1174 C1175 1.397 . S
C1174 C1179 1.363 . S
C1175 H1146 0.950 . S
C1175 C1174 1.397 . S
C1175 C1176 1.334 . S
C1176 H1147 0.950 . S
C1176 C1175 1.334 . S
C1176 C1177 1.287 . S
C1177 C1176 1.287 . S
C1177 C1178 1.524 . S
C1177 H1180 0.999 . S
C1178 H1148 0.950 . S
C1178 C1177 1.524 . S
C1178 C1179 1.415 . S
C1179 H1149 0.950 . S
C1179 C1174 1.363 . S
C1179 C1178 1.415 . S
H1180 C1177 0.999 . S
H1181 C1162 0.913 . S
H1182 C1200 0.951 . S
H1183 C1202 0.951 . S
H1184 C1204 0.950 . S
H1185 C1205 0.950 . S
H1186 C1207 0.950 . S
H1187 C1210 0.950 . S
H1188 C1211 0.950 . S
H1189 C1213 0.950 . S
H1190 C1214 0.950 . S
H1191 C1215 0.951 . S
H1192 C1217 0.951 . S
H1193 C1219 0.950 . S
H1194 C1220 0.950 . S
H1195 C1222 0.950 . S
H1196 C1225 0.950 . S
H1197 C1226 0.950 . S
H1198 C1228 0.950 . S
H1199 C1229 0.951 . S
C1200 H1182 0.951 . S
C1200 C1201 1.366 . S
C1200 C1202 1.388 . S
C1201 C1200 1.366 . S
C1201 C1205 1.385 . S
C1202 H1183 0.951 . S
C1202 C1200 1.388 . S
C1202 C1203 1.366 . S
C1203 C1202 1.366 . S
C1203 C1204 1.414 . S
C1203 C1206 1.499 . S
C1204 H1184 0.950 . S
C1204 C1203 1.414 . S
C1204 C1205 1.374 . S
C1205 H1185 0.950 . S
C1205 C1201 1.385 . S
C1205 C1204 1.374 . S
C1206 C1203 1.499 . S
C1206 C1207 1.373 . S
C1206 C1208 1.389 . S
C1207 H1186 0.950 . S
C1207 C1206 1.373 . S
C1207 C1223 1.377 . S
C1208 C1206 1.389 . S
C1208 C1209 1.524 . S
C1208 C1222 1.377 . S
C1209 C1208 1.524 . S
C1209 C1210 1.397 . S
C1209 C1214 1.363 . S
C1210 H1187 0.950 . S
C1210 C1209 1.397 . S
C1210 C1211 1.334 . S
C1211 H1188 0.950 . S
C1211 C1210 1.334 . S
C1211 C1212 1.287 . S
C1212 C1211 1.287 . S
C1212 C1213 1.524 . S
C1212 H1231 0.913 . S
C1213 H1189 0.950 . S
C1213 C1212 1.524 . S
C1213 C1214 1.415 . S
C1214 H1190 0.950 . S
C1214 C1209 1.363 . S
C1214 C1213 1.415 . S
C1215 H1191 0.951 . S
C1215 C1216 1.366 . S
C1215 C1217 1.388 . S
C1216 C1215 1.366 . S
C1216 C1220 1.385 . S
C1217 H1192 0.951 . S
C1217 C1215 1.388 . S
C1217 C1218 1.366 . S
C1218 C1217 1.366 . S
C1218 C1219 1.414 . S
C1218 C1221 1.499 . S
C1219 H1193 0.950 . S
C1219 C1218 1.414 . S
C1219 C1220 1.374 . S
C1220 H1194 0.950 . S
C1220 C1216 1.385 . S
C1220 C1219 1.374 . S
C1221 C1218 1.499 . S
C1221 C1222 1.373 . S
C1221 C1223 1.389 . S
C1222 H1195 0.950 . S
C1222 C1208 1.377 . S
C1222 C1221 1.373 . S
C1223 C1207 1.377 . S
C1223 C1221 1.389 . S
C1223 C1224 1.524 . S
C1224 C1223 1.524 . S
C1224 C1225 1.397 . S
C1224 C1229 1.363 . S
C1225 H1196 0.950 . S
C1225 C1224 1.397 . S
C1225 C1226 1.334 . S
C1226 H1197 0.950 . S
C1226 C1225 1.334 . S
C1226 C1227 1.287 . S
C1227 C1226 1.287 . S
C1227 C1228 1.524 1_655 S
C1227 H1230 0.999 1_655 S
C1228 H1198 0.950 . S
C1228 C1227 1.524 1_455 S
C1228 C1229 1.415 1_455 S
C1229 H1199 0.951 . S
C1229 C1224 1.363 . S
C1229 C1228 1.415 1_655 S
H1230 C1227 0.999 1_455 S
H1231 C1212 0.913 . S
H1232 C1250 0.951 . S
H1233 C1252 0.951 . S
H1234 C1254 0.950 . S
H1235 C1255 0.950 . S
H1236 C1257 0.950 . S
H1237 C1260 0.950 . S
H1238 C1261 0.950 . S
H1239 C1263 0.950 . S
H1240 C1264 0.950 . S
H1241 C1265 0.951 . S
H1242 C1267 0.951 . S
H1243 C1269 0.950 . S
H1244 C1270 0.950 . S
H1245 C1272 0.950 . S
H1246 C1275 0.950 . S
H1247 C1276 0.950 . S
H1248 C1278 0.950 . S
H1249 C1279 0.950 . S
C1250 H1232 0.951 . S
C1250 C1251 1.366 . S
C1250 C1252 1.388 . S
C1251 C1250 1.366 . S
C1251 C1255 1.385 . S
C1252 H1233 0.951 . S
C1252 C1250 1.388 . S
C1252 C1253 1.366 . S
C1253 C1252 1.366 . S
C1253 C1254 1.414 . S
C1253 C1256 1.499 . S
C1254 H1234 0.950 . S
C1254 C1253 1.414 . S
C1254 C1255 1.374 . S
C1255 H1235 0.950 . S
C1255 C1251 1.385 . S
C1255 C1254 1.374 . S
C1256 C1253 1.499 . S
C1256 C1257 1.373 . S
C1256 C1258 1.389 . S
C1257 H1236 0.950 . S
C1257 C1256 1.373 . S
C1257 C1273 1.377 . S
C1258 C1256 1.389 . S
C1258 C1259 1.524 . S
C1258 C1272 1.377 . S
C1259 C1258 1.524 . S
C1259 C1260 1.397 . S
C1259 C1264 1.363 . S
C1260 H1237 0.950 . S
C1260 C1259 1.397 . S
C1260 C1261 1.334 . S
C1261 H1238 0.950 . S
C1261 C1260 1.334 . S
C1261 C1262 1.287 . S
C1262 C1261 1.287 . S
C1262 C1263 1.524 . S
C1262 H1281 0.913 . S
C1263 H1239 0.950 . S
C1263 C1262 1.524 . S
C1263 C1264 1.415 . S
C1264 H1240 0.950 . S
C1264 C1259 1.363 . S
C1264 C1263 1.415 . S
C1265 H1241 0.951 . S
C1265 C1266 1.366 . S
C1265 C1267 1.388 . S
C1266 C1265 1.366 . S
C1266 C1270 1.385 . S
C1267 H1242 0.951 . S
C1267 C1265 1.388 . S
C1267 C1268 1.366 . S
C1268 C1267 1.366 . S
C1268 C1269 1.414 . S
C1268 C1271 1.499 . S
C1269 H1243 0.950 . S
C1269 C1268 1.414 . S
C1269 C1270 1.374 . S
C1270 H1244 0.950 . S
C1270 C1266 1.385 . S
C1270 C1269 1.374 . S
C1271 C1268 1.499 . S
C1271 C1272 1.373 . S
C1271 C1273 1.389 . S
C1272 H1245 0.950 . S
C1272 C1258 1.377 . S
C1272 C1271 1.373 . S
C1273 C1257 1.377 . S
C1273 C1271 1.389 . S
C1273 C1274 1.524 . S
C1274 C1273 1.524 . S
C1274 C1275 1.397 . S
C1274 C1279 1.363 . S
C1275 H1246 0.950 . S
C1275 C1274 1.397 . S
C1275 C1276 1.334 . S
C1276 H1247 0.950 . S
C1276 C1275 1.334 . S
C1276 C1277 1.287 . S
C1277 C1276 1.287 . S
C1277 C1278 1.524 . S
C1277 H1280 0.999 . S
C1278 H1248 0.950 . S
C1278 C1277 1.524 . S
C1278 C1279 1.415 . S
C1279 H1249 0.950 . S
C1279 C1274 1.363 . S
C1279 C1278 1.415 . S
H1280 C1277 0.999 . S
H1281 C1262 0.913 . S
H1282 C1300 0.951 . S
H1283 C1302 0.951 . S
H1284 C1304 0.950 . S
H1285 C1305 0.950 . S
H1286 C1307 0.950 . S
H1287 C1310 0.950 . S
H1288 C1311 0.950 . S
H1289 C1313 0.950 . S
H1290 C1314 0.950 . S
H1291 C1315 0.951 . S
H1292 C1317 0.951 . S
H1293 C1319 0.950 . S
H1294 C1320 0.950 . S
H1295 C1322 0.950 . S
H1296 C1325 0.950 . S
H1297 C1326 0.950 . S
H1298 C1328 0.950 . S
H1299 C1329 0.950 . S
C1300 H1282 0.951 . S
C1300 C1301 1.366 . S
C1300 C1302 1.388 . S
C1301 C1300 1.366 . S
C1301 C1305 1.385 . S
C1302 H1283 0.951 . S
C1302 C1300 1.388 . S
C1302 C1303 1.366 . S
C1303 C1302 1.366 . S
C1303 C1304 1.414 . S
C1303 C1306 1.499 . S
C1304 H1284 0.950 . S
C1304 C1303 1.414 . S
C1304 C1305 1.374 . S
C1305 H1285 0.950 . S
C1305 C1301 1.385 . S
C1305 C1304 1.374 . S
C1306 C1303 1.499 . S
C1306 C1307 1.373 . S
C1306 C1308 1.389 . S
C1307 H1286 0.950 . S
C1307 C1306 1.373 . S
C1307 C1323 1.377 . S
C1308 C1306 1.389 . S
C1308 C1309 1.524 . S
C1308 C1322 1.377 . S
C1309 C1308 1.524 . S
C1309 C1310 1.397 . S
C1309 C1314 1.363 . S
C1310 H1287 0.950 . S
C1310 C1309 1.397 . S
C1310 C1311 1.334 . S
C1311 H1288 0.950 . S
C1311 C1310 1.334 . S
C1311 C1312 1.287 . S
C1312 C1311 1.287 . S
C1312 C1313 1.524 . S
C1312 H1331 0.913 . S
C1313 H1289 0.950 . S
C1313 C1312 1.524 . S
C1313 C1314 1.415 . S
C1314 H1290 0.950 . S
C1314 C1309 1.363 . S
C1314 C1313 1.415 . S
C1315 H1291 0.951 . S
C1315 C1316 1.366 . S
C1315 C1317 1.388 . S
C1316 C1315 1.366 . S
C1316 C1320 1.385 . S
C1317 H1292 0.951 . S
C1317 C1315 1.388 . S
C1317 C1318 1.366 . S
C1318 C1317 1.366 . S
C1318 C1319 1.414 . S
C1318 C1321 1.499 . S
C1319 H1293 0.950 . S
C1319 C1318 1.414 . S
C1319 C1320 1.374 . S
C1320 H1294 0.950 . S
C1320 C1316 1.385 . S
C1320 C1319 1.374 . S
C1321 C1318 1.499 . S
C1321 C1322 1.373 . S
C1321 C1323 1.389 . S
C1322 H1295 0.950 . S
C1322 C1308 1.377 . S
C1322 C1321 1.373 . S
C1323 C1307 1.377 . S
C1323 C1321 1.389 . S
C1323 C1324 1.524 . S
C1324 C1323 1.524 . S
C1324 C1325 1.397 . S
C1324 C1329 1.363 . S
C1325 H1296 0.950 . S
C1325 C1324 1.397 . S
C1325 C1326 1.334 . S
C1326 H1297 0.950 . S
C1326 C1325 1.334 . S
C1326 C1327 1.287 . S
C1327 C1326 1.287 . S
C1327 C1328 1.524 . S
C1327 H1330 0.999 . S
C1328 H1298 0.950 . S
C1328 C1327 1.524 . S
C1328 C1329 1.415 . S
C1329 H1299 0.950 . S
C1329 C1324 1.363 . S
C1329 C1328 1.415 . S
H1330 C1327 0.999 . S
H1331 C1312 0.913 . S
H1332 C1350 0.951 . S
H1333 C1352 0.951 . S
H1334 C1354 0.950 . S
H1335 C1355 0.950 . S
H1336 C1357 0.950 . S
H1337 C1360 0.950 . S
H1338 C1361 0.950 . S
H1339 C1363 0.950 . S
H1340 C1364 0.950 . S
H1341 C1365 0.951 . S
H1342 C1367 0.951 . S
H1343 C1369 0.950 . S
H1344 C1370 0.950 . S
H1345 C1372 0.950 . S
H1346 C1375 0.950 . S
H1347 C1376 0.950 . S
H1348 C1378 0.950 . S
H1349 C1379 0.950 . S
C1350 H1332 0.951 . S
C1350 C1351 1.366 . S
C1350 C1352 1.388 . S
C1351 C1350 1.366 . S
C1351 C1355 1.385 . S
C1352 H1333 0.951 . S
C1352 C1350 1.388 . S
C1352 C1353 1.366 . S
C1353 C1352 1.366 . S
C1353 C1354 1.414 . S
C1353 C1356 1.499 . S
C1354 H1334 0.950 . S
C1354 C1353 1.414 . S
C1354 C1355 1.374 . S
C1355 H1335 0.950 . S
C1355 C1351 1.385 . S
C1355 C1354 1.374 . S
C1356 C1353 1.499 . S
C1356 C1357 1.373 . S
C1356 C1358 1.389 . S
C1357 H1336 0.950 . S
C1357 C1356 1.373 . S
C1357 C1373 1.377 . S
C1358 C1356 1.389 . S
C1358 C1359 1.524 . S
C1358 C1372 1.377 . S
C1359 C1358 1.524 . S
C1359 C1360 1.397 . S
C1359 C1364 1.363 . S
C1360 H1337 0.950 . S
C1360 C1359 1.397 . S
C1360 C1361 1.334 . S
C1361 H1338 0.950 . S
C1361 C1360 1.334 . S
C1361 C1362 1.287 . S
C1362 C1361 1.287 . S
C1362 C1363 1.524 . S
C1362 H1381 0.913 . S
C1363 H1339 0.950 . S
C1363 C1362 1.524 . S
C1363 C1364 1.415 . S
C1364 H1340 0.950 . S
C1364 C1359 1.363 . S
C1364 C1363 1.415 . S
C1365 H1341 0.951 . S
C1365 C1366 1.366 . S
C1365 C1367 1.388 . S
C1366 C1365 1.366 . S
C1366 C1370 1.385 . S
C1367 H1342 0.951 . S
C1367 C1365 1.388 . S
C1367 C1368 1.366 . S
C1368 C1367 1.366 . S
C1368 C1369 1.414 . S
C1368 C1371 1.499 . S
C1369 H1343 0.950 . S
C1369 C1368 1.414 . S
C1369 C1370 1.374 . S
C1370 H1344 0.950 . S
C1370 C1366 1.385 . S
C1370 C1369 1.374 . S
C1371 C1368 1.499 . S
C1371 C1372 1.373 . S
C1371 C1373 1.389 . S
C1372 H1345 0.950 . S
C1372 C1358 1.377 . S
C1372 C1371 1.373 . S
C1373 C1357 1.377 . S
C1373 C1371 1.389 . S
C1373 C1374 1.524 . S
C1374 C1373 1.524 . S
C1374 C1375 1.397 . S
C1374 C1379 1.363 . S
C1375 H1346 0.950 . S
C1375 C1374 1.397 . S
C1375 C1376 1.334 . S
C1376 H1347 0.950 . S
C1376 C1375 1.334 . S
C1376 C1377 1.287 . S
C1377 C1376 1.287 . S
C1377 C1378 1.524 . S
C1377 H1380 0.999 . S
C1378 H1348 0.950 . S
C1378 C1377 1.524 . S
C1378 C1379 1.415 . S
C1379 H1349 0.950 . S
C1379 C1374 1.363 . S
C1379 C1378 1.415 . S
H1380 C1377 0.999 . S
H1381 C1362 0.913 . S
H1382 C1400 0.951 . S
H1383 C1402 0.951 . S
H1384 C1404 0.950 . S
H1385 C1405 0.950 . S
H1386 C1407 0.950 . S
H1387 C1410 0.950 . S
H1388 C1411 0.950 . S
H1389 C1413 0.950 . S
H1390 C1414 0.950 . S
H1391 C1415 0.951 . S
H1392 C1417 0.951 . S
H1393 C1419 0.950 . S
H1394 C1420 0.950 . S
H1395 C1422 0.950 . S
H1396 C1425 0.950 . S
H1397 C1426 0.950 . S
H1398 C1428 0.950 . S
H1399 C1429 0.950 . S
C1400 H1382 0.951 . S
C1400 C1401 1.366 . S
C1400 C1402 1.388 . S
C1401 C1400 1.366 . S
C1401 C1405 1.385 . S
C1402 H1383 0.951 . S
C1402 C1400 1.388 . S
C1402 C1403 1.366 . S
C1403 C1402 1.366 . S
C1403 C1404 1.414 . S
C1403 C1406 1.499 . S
C1404 H1384 0.950 . S
C1404 C1403 1.414 . S
C1404 C1405 1.374 . S
C1405 H1385 0.950 . S
C1405 C1401 1.385 . S
C1405 C1404 1.374 . S
C1406 C1403 1.499 . S
C1406 C1407 1.373 . S
C1406 C1408 1.389 . S
C1407 H1386 0.950 . S
C1407 C1406 1.373 . S
C1407 C1423 1.377 . S
C1408 C1406 1.389 . S
C1408 C1409 1.524 . S
C1408 C1422 1.377 . S
C1409 C1408 1.524 . S
C1409 C1410 1.397 . S
C1409 C1414 1.363 . S
C1410 H1387 0.950 . S
C1410 C1409 1.397 . S
C1410 C1411 1.334 . S
C1411 H1388 0.950 . S
C1411 C1410 1.334 . S
C1411 C1412 1.287 . S
C1412 C1411 1.287 . S
C1412 C1413 1.524 . S
C1412 H1431 0.913 . S
C1413 H1389 0.950 . S
C1413 C1412 1.524 . S
C1413 C1414 1.415 . S
C1414 H1390 0.950 . S
C1414 C1409 1.363 . S
C1414 C1413 1.415 . S
C1415 H1391 0.951 . S
C1415 C1416 1.366 . S
C1415 C1417 1.388 . S
C1416 C1415 1.366 . S
C1416 C1420 1.385 . S
C1417 H1392 0.951 . S
C1417 C1415 1.388 . S
C1417 C1418 1.366 . S
C1418 C1417 1.366 . S
C1418 C1419 1.414 . S
C1418 C1421 1.499 . S
C1419 H1393 0.950 . S
C1419 C1418 1.414 . S
C1419 C1420 1.374 . S
C1420 H1394 0.950 . S
C1420 C1416 1.385 . S
C1420 C1419 1.374 . S
C1421 C1418 1.499 . S
C1421 C1422 1.373 . S
C1421 C1423 1.389 . S
C1422 H1395 0.950 . S
C1422 C1408 1.377 . S
C1422 C1421 1.373 . S
C1423 C1407 1.377 . S
C1423 C1421 1.389 . S
C1423 C1424 1.524 . S
C1424 C1423 1.524 . S
C1424 C1425 1.397 . S
C1424 C1429 1.363 . S
C1425 H1396 0.950 . S
C1425 C1424 1.397 . S
C1425 C1426 1.334 . S
C1426 H1397 0.950 . S
C1426 C1425 1.334 . S
C1426 C1427 1.287 . S
C1427 C1426 1.287 . S
C1427 C1428 1.524 . S
C1427 H1430 0.999 . S
C1428 H1398 0.950 . S
C1428 C1427 1.524 . S
C1428 C1429 1.415 . S
C1429 H1399 0.950 . S
C1429 C1424 1.363 . S
C1429 C1428 1.415 . S
H1430 C1427 0.999 . S
H1431 C1412 0.913 . S
H1432 C1450 0.951 . S
H1433 C1452 0.951 . S
H1434 C1454 0.950 . S
H1435 C1455 0.950 . S
H1436 C1457 0.950 . S
H1437 C1460 0.950 . S
H1438 C1461 0.950 . S
H1439 C1463 0.950 . S
H1440 C1464 0.950 . S
H1441 C1465 0.951 . S
H1442 C1467 0.951 . S
H1443 C1469 0.950 . S
H1444 C1470 0.950 . S
H1445 C1472 0.950 . S
H1446 C1475 0.950 . S
H1447 C1476 0.950 . S
H1448 C1478 0.950 . S
H1449 C1479 0.950 . S
C1450 H1432 0.951 . S
C1450 C1451 1.366 . S
C1450 C1452 1.388 . S
C1451 C1450 1.366 . S
C1451 C1455 1.385 . S
C1452 H1433 0.951 . S
C1452 C1450 1.388 . S
C1452 C1453 1.366 . S
C1453 C1452 1.366 . S
C1453 C1454 1.414 . S
C1453 C1456 1.499 . S
C1454 H1434 0.950 . S
C1454 C1453 1.414 . S
C1454 C1455 1.374 . S
C1455 H1435 0.950 . S
C1455 C1451 1.385 . S
C1455 C1454 1.374 . S
C1456 C1453 1.499 . S
C1456 C1457 1.373 . S
C1456 C1458 1.389 . S
C1457 H1436 0.950 . S
C1457 C1456 1.373 . S
C1457 C1473 1.377 . S
C1458 C1456 1.389 . S
C1458 C1459 1.524 . S
C1458 C1472 1.377 . S
C1459 C1458 1.524 . S
C1459 C1460 1.397 . S
C1459 C1464 1.363 . S
C1460 H1437 0.950 . S
C1460 C1459 1.397 . S
C1460 C1461 1.334 . S
C1461 H1438 0.950 . S
C1461 C1460 1.334 . S
C1461 C1462 1.287 . S
C1462 C1461 1.287 . S
C1462 C1463 1.524 . S
C1462 H1481 0.913 . S
C1463 H1439 0.950 . S
C1463 C1462 1.524 . S
C1463 C1464 1.415 . S
C1464 H1440 0.950 . S
C1464 C1459 1.363 . S
C1464 C1463 1.415 . S
C1465 H1441 0.951 . S
C1465 C1466 1.366 . S
C1465 C1467 1.388 . S
C1466 C1465 1.366 . S
C1466 C1470 1.385 . S
C1467 H1442 0.951 . S
C1467 C1465 1.388 . S
C1467 C1468 1.366 . S
C1468 C1467 1.366 . S
C1468 C1469 1.414 . S
C1468 C1471 1.499 . S
C1469 H1443 0.950 . S
C1469 C1468 1.414 . S
C1469 C1470 1.374 . S
C1470 H1444 0.950 . S
C1470 C1466 1.385 . S
C1470 C1469 1.374 . S
C1471 C1468 1.499 . S
C1471 C1472 1.373 . S
C1471 C1473 1.389 . S
C1472 H1445 0.950 . S
C1472 C1458 1.377 . S
C1472 C1471 1.373 . S
C1473 C1457 1.377 . S
C1473 C1471 1.389 . S
C1473 C1474 1.524 . S
C1474 C1473 1.524 . S
C1474 C1475 1.397 . S
C1474 C1479 1.363 . S
C1475 H1446 0.950 . S
C1475 C1474 1.397 . S
C1475 C1476 1.334 . S
C1476 H1447 0.950 . S
C1476 C1475 1.334 . S
C1476 C1477 1.287 . S
C1477 C1476 1.287 . S
C1477 C1478 1.524 . S
C1477 H1480 0.999 . S
C1478 H1448 0.950 . S
C1478 C1477 1.524 . S
C1478 C1479 1.415 . S
C1479 H1449 0.950 . S
C1479 C1474 1.363 . S
C1479 C1478 1.415 . S
H1480 C1477 0.999 . S
H1481 C1462 0.913 . S
H1482 C1500 0.951 . S
H1483 C1502 0.951 . S
H1484 C1504 0.950 . S
H1485 C1505 0.950 . S
H1486 C1507 0.950 . S
H1487 C1510 0.950 . S
H1488 C1511 0.950 . S
H1489 C1513 0.950 . S
H1490 C1514 0.950 . S
H1491 C1515 0.951 . S
H1492 C1517 0.951 . S
H1493 C1519 0.950 . S
H1494 C1520 0.950 . S
H1495 C1522 0.950 . S
H1496 C1525 0.950 . S
H1497 C1526 0.950 . S
H1498 C1528 0.950 . S
H1499 C1529 0.950 . S
C1500 H1482 0.951 . S
C1500 C1501 1.366 . S
C1500 C1502 1.388 . S
C1501 C1500 1.366 . S
C1501 C1505 1.385 . S
C1502 H1483 0.951 . S
C1502 C1500 1.388 . S
C1502 C1503 1.366 . S
C1503 C1502 1.366 . S
C1503 C1504 1.414 . S
C1503 C1506 1.499 . S
C1504 H1484 0.950 . S
C1504 C1503 1.414 . S
C1504 C1505 1.374 . S
C1505 H1485 0.950 . S
C1505 C1501 1.385 . S
C1505 C1504 1.374 . S
C1506 C1503 1.499 . S
C1506 C1507 1.373 . S
C1506 C1508 1.389 . S
C1507 H1486 0.950 . S
C1507 C1506 1.373 . S
C1507 C1523 1.377 . S
C1508 C1506 1.389 . S
C1508 C1509 1.524 . S
C1508 C1522 1.377 . S
C1509 C1508 1.524 . S
C1509 C1510 1.397 . S
C1509 C1514 1.363 . S
C1510 H1487 0.950 . S
C1510 C1509 1.397 . S
C1510 C1511 1.334 . S
C1511 H1488 0.950 . S
C1511 C1510 1.334 . S
C1511 C1512 1.287 . S
C1512 C1511 1.287 . S
C1512 C1513 1.524 . S
C1512 H1531 0.913 . S
C1513 H1489 0.950 . S
C1513 C1512 1.524 . S
C1513 C1514 1.415 . S
C1514 H1490 0.950 . S
C1514 C1509 1.363 . S
C1514 C1513 1.415 . S
C1515 H1491 0.951 . S
C1515 C1516 1.366 . S
C1515 C1517 1.388 . S
C1516 C1515 1.366 . S
C1516 C1520 1.385 . S
C1517 H1492 0.951 . S
C1517 C1515 1.388 . S
C1517 C1518 1.366 . S
C1518 C1517 1.366 . S
C1518 C1519 1.414 . S
C1518 C1521 1.499 . S
C1519 H1493 0.950 . S
C1519 C1518 1.414 . S
C1519 C1520 1.374 . S
C1520 H1494 0.950 . S
C1520 C1516 1.385 . S
C1520 C1519 1.374 . S
C1521 C1518 1.499 . S
C1521 C1522 1.373 . S
C1521 C1523 1.389 . S
C1522 H1495 0.950 . S
C1522 C1508 1.377 . S
C1522 C1521 1.373 . S
C1523 C1507 1.377 . S
C1523 C1521 1.389 . S
C1523 C1524 1.524 . S
C1524 C1523 1.524 . S
C1524 C1525 1.397 . S
C1524 C1529 1.363 . S
C1525 H1496 0.950 . S
C1525 C1524 1.397 . S
C1525 C1526 1.334 . S
C1526 H1497 0.950 . S
C1526 C1525 1.334 . S
C1526 C1527 1.287 . S
C1527 C1526 1.287 . S
C1527 C1528 1.524 . S
C1527 H1530 0.999 . S
C1528 H1498 0.950 . S
C1528 C1527 1.524 . S
C1528 C1529 1.415 . S
C1529 H1499 0.950 . S
C1529 C1524 1.363 . S
C1529 C1528 1.415 . S
H1530 C1527 0.999 . S
H1531 C1512 0.913 . S
H1532 C1550 0.951 . S
H1533 C1552 0.951 . S
H1534 C1554 0.950 . S
H1535 C1555 0.950 . S
H1536 C1557 0.950 . S
H1537 C1560 0.950 . S
H1538 C1561 0.950 . S
H1539 C1563 0.950 . S
H1540 C1564 0.950 . S
H1541 C1565 0.951 . S
H1542 C1567 0.951 . S
H1543 C1569 0.950 . S
H1544 C1570 0.950 . S
H1545 C1572 0.950 . S
H1546 C1575 0.950 . S
H1547 C1576 0.950 . S
H1548 C1578 0.950 . S
H1549 C1579 0.950 . S
C1550 H1532 0.951 . S
C1550 C1551 1.366 . S
C1550 C1552 1.388 . S
C1551 C1550 1.366 . S
C1551 C1555 1.385 . S
C1552 H1533 0.951 . S
C1552 C1550 1.388 . S
C1552 C1553 1.366 . S
C1553 C1552 1.366 . S
C1553 C1554 1.414 . S
C1553 C1556 1.499 . S
C1554 H1534 0.950 . S
C1554 C1553 1.414 . S
C1554 C1555 1.374 . S
C1555 H1535 0.950 . S
C1555 C1551 1.385 . S
C1555 C1554 1.374 . S
C1556 C1553 1.499 . S
C1556 C1557 1.373 . S
C1556 C1558 1.389 . S
C1557 H1536 0.950 . S
C1557 C1556 1.373 . S
C1557 C1573 1.377 . S
C1558 C1556 1.389 . S
C1558 C1559 1.524 . S
C1558 C1572 1.377 . S
C1559 C1558 1.524 . S
C1559 C1560 1.397 . S
C1559 C1564 1.363 . S
C1560 H1537 0.950 . S
C1560 C1559 1.397 . S
C1560 C1561 1.334 . S
C1561 H1538 0.950 . S
C1561 C1560 1.334 . S
C1561 C1562 1.287 . S
C1562 C1561 1.287 . S
C1562 C1563 1.524 . S
C1562 H1581 0.913 . S
C1563 H1539 0.950 . S
C1563 C1562 1.524 . S
C1563 C1564 1.415 . S
C1564 H1540 0.950 . S
C1564 C1559 1.363 . S
C1564 C1563 1.415 . S
C1565 H1541 0.951 . S
C1565 C1566 1.366 . S
C1565 C1567 1.388 . S
C1566 C1565 1.366 . S
C1566 C1570 1.385 . S
C1567 H1542 0.951 . S
C1567 C1565 1.388 . S
C1567 C1568 1.366 . S
C1568 C1567 1.366 . S
C1568 C1569 1.414 . S
C1568 C1571 1.499 . S
C1569 H1543 0.950 . S
C1569 C1568 1.414 . S
C1569 C1570 1.374 . S
C1570 H1544 0.950 . S
C1570 C1566 1.385 . S
C1570 C1569 1.374 . S
C1571 C1568 1.499 . S
C1571 C1572 1.373 . S
C1571 C1573 1.389 . S
C1572 H1545 0.950 . S
C1572 C1558 1.377 . S
C1572 C1571 1.373 . S
C1573 C1557 1.377 . S
C1573 C1571 1.389 . S
C1573 C1574 1.524 . S
C1574 C1573 1.524 . S
C1574 C1575 1.397 . S
C1574 C1579 1.363 . S
C1575 H1546 0.950 . S
C1575 C1574 1.397 . S
C1575 C1576 1.334 . S
C1576 H1547 0.950 . S
C1576 C1575 1.334 . S
C1576 C1577 1.287 . S
C1577 C1576 1.287 . S
C1577 C1578 1.524 . S
C1577 H1580 0.999 . S
C1578 H1548 0.950 . S
C1578 C1577 1.524 . S
C1578 C1579 1.415 . S
C1579 H1549 0.950 . S
C1579 C1574 1.363 . S
C1579 C1578 1.415 . S
H1580 C1577 0.999 . S
H1581 C1562 0.913 . S
H1582 C1600 0.951 . S
H1583 C1602 0.951 . S
H1584 C1604 0.950 . S
H1585 C1605 0.950 . S
H1586 C1607 0.950 . S
H1587 C1610 0.950 . S
H1588 C1611 0.950 . S
H1589 C1613 0.950 . S
H1590 C1614 0.950 . S
H1591 C1615 0.951 . S
H1592 C1617 0.951 . S
H1593 C1619 0.950 . S
H1594 C1620 0.950 . S
H1595 C1622 0.950 . S
H1596 C1625 0.950 . S
H1597 C1626 0.950 . S
H1598 C1628 0.950 . S
H1599 C1629 0.950 . S
C1600 H1582 0.951 . S
C1600 C1601 1.366 . S
C1600 C1602 1.388 . S
C1601 C1600 1.366 . S
C1601 C1605 1.385 . S
C1602 H1583 0.951 . S
C1602 C1600 1.388 . S
C1602 C1603 1.366 . S
C1603 C1602 1.366 . S
C1603 C1604 1.414 . S
C1603 C1606 1.499 . S
C1604 H1584 0.950 . S
C1604 C1603 1.414 . S
C1604 C1605 1.374 . S
C1605 H1585 0.950 . S
C1605 C1601 1.385 . S
C1605 C1604 1.374 . S
C1606 C1603 1.499 . S
C1606 C1607 1.373 . S
C1606 C1608 1.389 . S
C1607 H1586 0.950 . S
C1607 C1606 1.373 . S
C1607 C1623 1.377 . S
C1608 C1606 1.389 . S
C1608 C1609 1.524 . S
C1608 C1622 1.377 . S
C1609 C1608 1.524 . S
C1609 C1610 1.397 . S
C1609 C1614 1.363 . S
C1610 H1587 0.950 . S
C1610 C1609 1.397 . S
C1610 C1611 1.334 . S
C1611 H1588 0.950 . S
C1611 C1610 1.334 . S
C1611 C1612 1.287 . S
C1612 C1611 1.287 . S
C1612 C1613 1.524 . S
C1612 H1631 0.913 . S
C1613 H1589 0.950 . S
C1613 C1612 1.524 . S
C1613 C1614 1.415 . S
C1614 H1590 0.950 . S
C1614 C1609 1.363 . S
C1614 C1613 1.415 . S
C1615 H1591 0.951 . S
C1615 C1616 1.366 . S
C1615 C1617 1.388 . S
C1616 C1615 1.366 . S
C1616 C1620 1.385 . S
C1617 H1592 0.951 . S
C1617 C1615 1.388 . S
C1617 C1618 1.366 . S
C1618 C1617 1.366 . S
C1618 C1619 1.414 . S
C1618 C1621 1.499 . S
C1619 H1593 0.950 . S
C1619 C1618 1.414 . S
C1619 C1620 1.374 . S
C1620 H1594 0.950 . S
C1620 C1616 1.385 . S
C1620 C1619 1.374 . S
C1621 C1618 1.499 . S
C1621 C1622 1.373 . S
C1621 C1623 1.389 . S
C1622 H1595 0.950 . S
C1622 C1608 1.377 . S
C1622 C1621 1.373 . S
C1623 C1607 1.377 . S
C1623 C1621 1.389 . S
C1623 C1624 1.524 . S
C1624 C1623 1.524 . S
C1624 C1625 1.397 . S
C1624 C1629 1.363 . S
C1625 H1596 0.950 . S
C1625 C1624 1.397 . S
C1625 C1626 1.334 . S
C1626 H1597 0.950 . S
C1626 C1625 1.334 . S
C1626 C1627 1.287 . S
C1627 C1626 1.287 . S
C1627 C1628 1.524 . S
C1627 H1630 0.999 . S
C1628 H1598 0.950 . S
C1628 C1627 1.524 . S
C1628 C1629 1.415 . S
C1629 H1599 0.950 . S
C1629 C1624 1.363 . S
C1629 C1628 1.415 . S
H1630 C1627 0.999 . S
H1631 C1612 0.913 . S
C451 C3 1.268 . S
C466 C398 1.245 . S
C501 C218 1.405 . S
C516 C38 1.405 . S
C551 C74 1.246 . S
C566 C255 1.268 . S
C601 C290 1.245 . S
C616 C111 1.268 . S
C651 C326 1.406 . S
C666 C146 1.405 . S
C701 C363 1.268 . S
C716 C182 1.245 . S
C751 C112 1.174 . S
C766 C302 1.181 . S
C801 C158 1.307 . S
C816 C338 1.308 . S
C851 C194 1.181 . S
C866 C364 1.174 . S
C901 C410 1.181 . S
C916 C4 1.174 . S
C951 C50 1.308 . S
C966 C230 1.307 . S
C1001 C86 1.181 . S
C1016 C256 1.174 . S
C1051 C291 1.635 . S
C1066 C2 1.622 . S
C1101 C327 1.613 . S
C1116 C39 1.614 . S
C1151 C75 1.636 . S
C1166 C362 1.623 . S
C1201 C110 1.623 . S
C1216 C399 1.636 . S
C1251 C147 1.613 . S
C1266 C219 1.613 . S
C1301 C254 1.623 . S
C1316 C183 1.636 . S
C1351 C14 1.454 . S
C1366 C374 1.453 . S
C1401 C400 1.536 . S
C1416 C40 1.537 . S
C1451 C76 1.537 . S
C1466 C220 1.538 . S
C1501 C122 1.453 . S
C1516 C266 1.453 . S
C1551 C148 1.537 . S
C1566 C292 1.536 . S
C1601 C184 1.537 . S
C1616 C328 1.538 . S
