# Generated by pormake.
# Topology fcp, (5)-cn, num edge types: 1
# Building blocks:
#     Node 0, Type 0, BuildingBlock: XOMCOT_clean_sbu_1, # of connection points: 5
#     Node 1, Type 0, BuildingBlock: XOMCOT_clean_sbu_1, # of connection points: 5
#     Node 2, Type 0, BuildingBlock: XOMCOT_clean_sbu_1, # of connection points: 5
#     Node 3, Type 0, BuildingBlock: XOMCOT_clean_sbu_1, # of connection points: 5
#     Node 4, Type 0, BuildingBlock: XOMCOT_clean_sbu_1, # of connection points: 5
#     Node 5, Type 0, BuildingBlock: XOMCOT_clean_sbu_1, # of connection points: 5
#     Node 6, Type 0, BuildingBlock: XOMCOT_clean_sbu_1, # of connection points: 5
#     Node 7, Type 0, BuildingBlock: XOMCOT_clean_sbu_1, # of connection points: 5
#     Node 8, Type 0, BuildingBlock: XOMCOT_clean_sbu_1, # of connection points: 5
#     Node 9, Type 0, BuildingBlock: XOMCOT_clean_sbu_1, # of connection points: 5
#     Node 10, Type 0, BuildingBlock: XOMCOT_clean_sbu_1, # of connection points: 5
#     Node 11, Type 0, BuildingBlock: XOMCOT_clean_sbu_1, # of connection points: 5
#     Node 12, Type 0, BuildingBlock: XOMCOT_clean_sbu_1, # of connection points: 5
#     Node 13, Type 0, BuildingBlock: XOMCOT_clean_sbu_1, # of connection points: 5
#     Node 14, Type 0, BuildingBlock: XOMCOT_clean_sbu_1, # of connection points: 5
#     Node 15, Type 0, BuildingBlock: XOMCOT_clean_sbu_1, # of connection points: 5
#     Node 16, Type 0, BuildingBlock: XOMCOT_clean_sbu_1, # of connection points: 5
#     Node 17, Type 0, BuildingBlock: XOMCOT_clean_sbu_1, # of connection points: 5
#     Node 18, Type 0, BuildingBlock: XOMCOT_clean_sbu_1, # of connection points: 5
#     Node 19, Type 0, BuildingBlock: XOMCOT_clean_sbu_1, # of connection points: 5
#     Node 20, Type 0, BuildingBlock: XOMCOT_clean_sbu_1, # of connection points: 5
#     Node 21, Type 0, BuildingBlock: XOMCOT_clean_sbu_1, # of connection points: 5
#     Node 22, Type 0, BuildingBlock: XOMCOT_clean_sbu_1, # of connection points: 5
#     Node 23, Type 0, BuildingBlock: XOMCOT_clean_sbu_1, # of connection points: 5
#     Edge 24, Type (0, 0), BuildingBlock: UVAHIK_clean_linker_0, # of connection points: 2
#     Edge 25, Type (0, 0), BuildingBlock: UVAHIK_clean_linker_0, # of connection points: 2
#     Edge 26, Type (0, 0), BuildingBlock: UVAHIK_clean_linker_0, # of connection points: 2
#     Edge 27, Type (0, 0), BuildingBlock: UVAHIK_clean_linker_0, # of connection points: 2
#     Edge 28, Type (0, 0), BuildingBlock: UVAHIK_clean_linker_0, # of connection points: 2
#     Edge 29, Type (0, 0), BuildingBlock: UVAHIK_clean_linker_0, # of connection points: 2
#     Edge 30, Type (0, 0), BuildingBlock: UVAHIK_clean_linker_0, # of connection points: 2
#     Edge 31, Type (0, 0), BuildingBlock: UVAHIK_clean_linker_0, # of connection points: 2
#     Edge 32, Type (0, 0), BuildingBlock: UVAHIK_clean_linker_0, # of connection points: 2
#     Edge 33, Type (0, 0), BuildingBlock: UVAHIK_clean_linker_0, # of connection points: 2
#     Edge 34, Type (0, 0), BuildingBlock: UVAHIK_clean_linker_0, # of connection points: 2
#     Edge 35, Type (0, 0), BuildingBlock: UVAHIK_clean_linker_0, # of connection points: 2
#     Edge 36, Type (0, 0), BuildingBlock: UVAHIK_clean_linker_0, # of connection points: 2
#     Edge 37, Type (0, 0), BuildingBlock: UVAHIK_clean_linker_0, # of connection points: 2
#     Edge 38, Type (0, 0), BuildingBlock: UVAHIK_clean_linker_0, # of connection points: 2
#     Edge 39, Type (0, 0), BuildingBlock: UVAHIK_clean_linker_0, # of connection points: 2
#     Edge 40, Type (0, 0), BuildingBlock: UVAHIK_clean_linker_0, # of connection points: 2
#     Edge 41, Type (0, 0), BuildingBlock: UVAHIK_clean_linker_0, # of connection points: 2
#     Edge 42, Type (0, 0), BuildingBlock: UVAHIK_clean_linker_0, # of connection points: 2
#     Edge 43, Type (0, 0), BuildingBlock: UVAHIK_clean_linker_0, # of connection points: 2
#     Edge 44, Type (0, 0), BuildingBlock: UVAHIK_clean_linker_0, # of connection points: 2
#     Edge 45, Type (0, 0), BuildingBlock: UVAHIK_clean_linker_0, # of connection points: 2
#     Edge 46, Type (0, 0), BuildingBlock: UVAHIK_clean_linker_0, # of connection points: 2
#     Edge 47, Type (0, 0), BuildingBlock: UVAHIK_clean_linker_0, # of connection points: 2
#     Edge 48, Type (0, 0), BuildingBlock: UVAHIK_clean_linker_0, # of connection points: 2
#     Edge 49, Type (0, 0), BuildingBlock: UVAHIK_clean_linker_0, # of connection points: 2
#     Edge 50, Type (0, 0), BuildingBlock: UVAHIK_clean_linker_0, # of connection points: 2
#     Edge 51, Type (0, 0), BuildingBlock: UVAHIK_clean_linker_0, # of connection points: 2
#     Edge 52, Type (0, 0), BuildingBlock: UVAHIK_clean_linker_0, # of connection points: 2
#     Edge 53, Type (0, 0), BuildingBlock: UVAHIK_clean_linker_0, # of connection points: 2
#     Edge 54, Type (0, 0), BuildingBlock: UVAHIK_clean_linker_0, # of connection points: 2
#     Edge 55, Type (0, 0), BuildingBlock: UVAHIK_clean_linker_0, # of connection points: 2
#     Edge 56, Type (0, 0), BuildingBlock: UVAHIK_clean_linker_0, # of connection points: 2
#     Edge 57, Type (0, 0), BuildingBlock: UVAHIK_clean_linker_0, # of connection points: 2
#     Edge 58, Type (0, 0), BuildingBlock: UVAHIK_clean_linker_0, # of connection points: 2
#     Edge 59, Type (0, 0), BuildingBlock: UVAHIK_clean_linker_0, # of connection points: 2
#     Edge 60, Type (0, 0), BuildingBlock: UVAHIK_clean_linker_0, # of connection points: 2
#     Edge 61, Type (0, 0), BuildingBlock: UVAHIK_clean_linker_0, # of connection points: 2
#     Edge 62, Type (0, 0), BuildingBlock: UVAHIK_clean_linker_0, # of connection points: 2
#     Edge 63, Type (0, 0), BuildingBlock: UVAHIK_clean_linker_0, # of connection points: 2
#     Edge 64, Type (0, 0), BuildingBlock: UVAHIK_clean_linker_0, # of connection points: 2
#     Edge 65, Type (0, 0), BuildingBlock: UVAHIK_clean_linker_0, # of connection points: 2
#     Edge 66, Type (0, 0), BuildingBlock: UVAHIK_clean_linker_0, # of connection points: 2
#     Edge 67, Type (0, 0), BuildingBlock: UVAHIK_clean_linker_0, # of connection points: 2
#     Edge 68, Type (0, 0), BuildingBlock: UVAHIK_clean_linker_0, # of connection points: 2
#     Edge 69, Type (0, 0), BuildingBlock: UVAHIK_clean_linker_0, # of connection points: 2
#     Edge 70, Type (0, 0), BuildingBlock: UVAHIK_clean_linker_0, # of connection points: 2
#     Edge 71, Type (0, 0), BuildingBlock: UVAHIK_clean_linker_0, # of connection points: 2
#     Edge 72, Type (0, 0), BuildingBlock: UVAHIK_clean_linker_0, # of connection points: 2
#     Edge 73, Type (0, 0), BuildingBlock: UVAHIK_clean_linker_0, # of connection points: 2
#     Edge 74, Type (0, 0), BuildingBlock: UVAHIK_clean_linker_0, # of connection points: 2
#     Edge 75, Type (0, 0), BuildingBlock: UVAHIK_clean_linker_0, # of connection points: 2
#     Edge 76, Type (0, 0), BuildingBlock: UVAHIK_clean_linker_0, # of connection points: 2
#     Edge 77, Type (0, 0), BuildingBlock: UVAHIK_clean_linker_0, # of connection points: 2
#     Edge 78, Type (0, 0), BuildingBlock: UVAHIK_clean_linker_0, # of connection points: 2
#     Edge 79, Type (0, 0), BuildingBlock: UVAHIK_clean_linker_0, # of connection points: 2
#     Edge 80, Type (0, 0), BuildingBlock: UVAHIK_clean_linker_0, # of connection points: 2
#     Edge 81, Type (0, 0), BuildingBlock: UVAHIK_clean_linker_0, # of connection points: 2
#     Edge 82, Type (0, 0), BuildingBlock: UVAHIK_clean_linker_0, # of connection points: 2
#     Edge 83, Type (0, 0), BuildingBlock: UVAHIK_clean_linker_0, # of connection points: 2
# Relax obj value: 0.103
# Max RMSD: 0.138
# Mean RMSD: 0.138
data_MOF--net-fcp--node1-XOMCOT_clean_sbu_1--edge1-UVAHIK_clean_linker_0
_symmetry_space_group_name_H-M    P1
_symmetry_Int_Tables_number       1
_symmetry_cell_setting            triclinic
loop_
_symmetry_equiv_pos_as_xyz
'x, y, z'
_cell_length_a     65.02366
_cell_length_b     65.064644
_cell_length_c     65.075862
_cell_angle_alpha  89.996965
_cell_angle_beta   89.986068
_cell_angle_gamma 89.988987
loop_
_atom_site_label
_atom_site_type_symbol
_atom_site_fract_x
_atom_site_fract_y
_atom_site_fract_z
_atom_type_partial_charge
C0 C 0.04426 0.32551 0.15751 0.0
C1 C 0.02597 0.32854 0.1677 0.0
N2 N 0.02939 0.34138 0.18361 0.0
N3 N 0.05914 0.33651 0.16681 0.0
C4 C 0.04969 0.34583 0.18279 0.0
H5 H 0.04659 0.31605 0.14404 0.0
Co6 Co 0.08653 0.33768 0.15834 0.0
C7 C 0.0919 0.38298 0.16848 0.0
O8 O 0.09153 0.38903 0.14923 0.0
N9 N 0.1144 0.33804 0.15016 0.0
C10 C 0.14651 0.34601 0.14129 0.0
C11 C 0.12751 0.35372 0.14643 0.0
C12 C 0.12588 0.32097 0.14699 0.0
N13 N 0.14547 0.32537 0.14165 0.0
O14 O 0.09439 0.32337 0.18279 0.0
H15 H 0.12384 0.3698 0.14714 0.0
H16 H 0.11996 0.30555 0.14866 0.0
O17 O 0.09023 0.36389 0.17291 0.0
C18 C 0.09131 0.30408 0.18139 0.0
O19 O 0.08304 0.2969 0.16442 0.0
N20 N 0.07814 0.35007 0.13327 0.0
C21 C 0.0608 0.35924 0.09496 0.0
C22 C 0.05367 0.36895 0.11283 0.0
C23 C 0.06235 0.36394 0.13188 0.0
C24 C 0.08537 0.34078 0.11591 0.0
C25 C 0.07721 0.34539 0.09667 0.0
H26 H 0.05576 0.37058 0.14561 0.0
H27 H 0.09675 0.32875 0.11692 0.0
H28 H 0.05746 0.35599 0.1934 0.0
H29 H 0.01134 0.32165 0.1638 0.0
H30 H 0.15994 0.35496 0.13722 0.0
H31 H 0.04074 0.37943 0.1123 0.0
H32 H 0.08321 0.3375 0.08329 0.0
C33 C 0.82442 0.45822 0.34306 0.0
C34 C 0.8278 0.47609 0.33229 0.0
N35 N 0.84106 0.47202 0.31688 0.0
N36 N 0.83557 0.44296 0.33458 0.0
C37 C 0.84538 0.45176 0.31852 0.0
H38 H 0.81473 0.45647 0.35645 0.0
Co39 Co 0.83664 0.41625 0.34483 0.0
C40 C 0.88149 0.40828 0.33401 0.0
O41 O 0.88801 0.40925 0.35306 0.0
N42 N 0.83702 0.389 0.35509 0.0
C43 C 0.84507 0.35951 0.37056 0.0
C44 C 0.85186 0.37886 0.36552 0.0
C45 C 0.82127 0.37541 0.35426 0.0
N46 N 0.82578 0.35732 0.36342 0.0
O47 O 0.82165 0.40704 0.32117 0.0
H48 H 0.8664 0.38523 0.37016 0.0
H49 H 0.80643 0.37891 0.34771 0.0
O50 O 0.86243 0.41096 0.32987 0.0
C51 C 0.80243 0.41071 0.32229 0.0
O52 O 0.79535 0.4198 0.33888 0.0
N53 N 0.84974 0.42631 0.3688 0.0
C54 C 0.86122 0.44607 0.40525 0.0
C55 C 0.87077 0.45102 0.38655 0.0
C56 C 0.86462 0.44116 0.36847 0.0
C57 C 0.84019 0.42148 0.38684 0.0
C58 C 0.84592 0.43089 0.40524 0.0
H59 H 0.87137 0.44599 0.35408 0.0
H60 H 0.82735 0.41094 0.3869 0.0
H61 H 0.85595 0.44362 0.30858 0.0
H62 H 0.82098 0.4909 0.33556 0.0
H63 H 0.85365 0.34804 0.37902 0.0
H64 H 0.88254 0.46277 0.38579 0.0
H65 H 0.83762 0.42706 0.41916 0.0
C66 C 0.95907 0.67609 0.15753 0.0
C67 C 0.97734 0.67243 0.16751 0.0
N68 N 0.97363 0.65985 0.18355 0.0
N69 N 0.94387 0.66577 0.16711 0.0
C70 C 0.95316 0.65617 0.18302 0.0
H71 H 0.95693 0.68559 0.14405 0.0
Co72 Co 0.91628 0.66576 0.1591 0.0
C73 C 0.90976 0.62029 0.16818 0.0
O74 O 0.9101 0.61452 0.14886 0.0
N75 N 0.88839 0.66643 0.15144 0.0
C76 C 0.8565 0.65935 0.14128 0.0
C77 C 0.8756 0.65127 0.14531 0.0
C78 C 0.87669 0.68361 0.15079 0.0
N79 N 0.85719 0.67972 0.14473 0.0
O80 O 0.90913 0.67953 0.1842 0.0
H81 H 0.87972 0.6354 0.14331 0.0
H82 H 0.88241 0.69872 0.15471 0.0
O83 O 0.91194 0.63925 0.17295 0.0
C84 C 0.91489 0.69822 0.18516 0.0
O85 O 0.92512 0.70612 0.16965 0.0
N86 N 0.92387 0.65385 0.1335 0.0
C87 C 0.9395 0.64449 0.09444 0.0
C88 C 0.94704 0.6345 0.11201 0.0
C89 C 0.93919 0.63957 0.1314 0.0
C90 C 0.91638 0.66361 0.1165 0.0
C91 C 0.92362 0.65887 0.09691 0.0
H92 H 0.94599 0.63252 0.14482 0.0
H93 H 0.90536 0.67593 0.11805 0.0
H94 H 0.9451 0.64643 0.19383 0.0
H95 H 0.99216 0.67878 0.16339 0.0
H96 H 0.8433 0.65093 0.13567 0.0
H97 H 0.95961 0.62364 0.11096 0.0
H98 H 0.91724 0.66697 0.08385 0.0
C99 C 0.17808 0.5435 0.34452 0.0
C100 C 0.17473 0.52557 0.33384 0.0
N101 N 0.16179 0.52963 0.31816 0.0
N102 N 0.16721 0.55878 0.33574 0.0
C103 C 0.15763 0.54994 0.31957 0.0
H104 H 0.18757 0.54528 0.35806 0.0
Co105 Co 0.16616 0.58571 0.34544 0.0
C106 C 0.12129 0.59301 0.33413 0.0
O107 O 0.1146 0.5918 0.35311 0.0
N108 N 0.16575 0.61316 0.35504 0.0
C109 C 0.15735 0.64321 0.36916 0.0
C110 C 0.15045 0.6239 0.36412 0.0
C111 C 0.18185 0.62636 0.35497 0.0
N112 N 0.17714 0.64477 0.36336 0.0
O113 O 0.1815 0.59433 0.32173 0.0
H114 H 0.13543 0.61805 0.36775 0.0
H115 H 0.19701 0.62236 0.34951 0.0
O116 O 0.14045 0.59075 0.33016 0.0
C117 C 0.20066 0.59054 0.32346 0.0
O118 O 0.2072 0.58199 0.34055 0.0
N119 N 0.15279 0.57624 0.36959 0.0
C120 C 0.14075 0.55782 0.40659 0.0
C121 C 0.13187 0.5518 0.38789 0.0
C122 C 0.13827 0.56101 0.36956 0.0
C123 C 0.16177 0.58201 0.38765 0.0
C124 C 0.15572 0.57332 0.4063 0.0
H125 H 0.13193 0.55548 0.35524 0.0
H126 H 0.1744 0.5928 0.38761 0.0
H127 H 0.14735 0.55811 0.30937 0.0
H128 H 0.18137 0.51073 0.33734 0.0
H129 H 0.14845 0.65511 0.37665 0.0
H130 H 0.12038 0.53976 0.38737 0.0
H131 H 0.16352 0.57795 0.42025 0.0
C132 C 0.04342 0.67951 0.84129 0.0
C133 C 0.02576 0.67582 0.83031 0.0
N134 N 0.02979 0.66121 0.81618 0.0
N135 N 0.05855 0.66727 0.83421 0.0
C136 C 0.04986 0.65639 0.81878 0.0
H137 H 0.04509 0.69017 0.85393 0.0
Co138 Co 0.08466 0.66625 0.84586 0.0
C139 C 0.09543 0.6219 0.83705 0.0
O140 O 0.09723 0.61695 0.8565 0.0
N141 N 0.11142 0.66581 0.85793 0.0
C142 C 0.13778 0.66016 0.87921 0.0
C143 C 0.11857 0.6537 0.87329 0.0
C144 C 0.12688 0.67948 0.85485 0.0
N145 N 0.14297 0.67641 0.86759 0.0
O146 O 0.09528 0.68045 0.82239 0.0
H147 H 0.10995 0.6418 0.88096 0.0
H148 H 0.12604 0.69231 0.84439 0.0
O149 O 0.09037 0.64017 0.83192 0.0
C150 C 0.09243 0.6998 0.82337 0.0
O151 O 0.08348 0.70738 0.83982 0.0
N152 N 0.07301 0.65411 0.86932 0.0
C153 C 0.0503 0.64487 0.90454 0.0
C154 C 0.04894 0.63236 0.88702 0.0
C155 C 0.06015 0.63749 0.86935 0.0
C156 C 0.07444 0.66638 0.88622 0.0
C157 C 0.06352 0.66187 0.90406 0.0
H158 H 0.05768 0.62877 0.85544 0.0
H159 H 0.08362 0.68023 0.8856 0.0
H160 H 0.05788 0.64473 0.81005 0.0
H161 H 0.01109 0.68334 0.83257 0.0
H162 H 0.14686 0.65393 0.89168 0.0
H163 H 0.03845 0.61943 0.88658 0.0
H164 H 0.06497 0.672 0.91719 0.0
C165 C 0.17545 0.46089 0.65888 0.0
C166 C 0.1718 0.47863 0.66976 0.0
N167 N 0.15941 0.47406 0.68573 0.0
N168 N 0.1653 0.44521 0.66781 0.0
C169 C 0.15584 0.45364 0.68429 0.0
H170 H 0.18468 0.4595 0.64511 0.0
Co171 Co 0.16499 0.41836 0.65777 0.0
C172 C 0.12026 0.40953 0.66846 0.0
O173 O 0.1138 0.41026 0.64938 0.0
N174 N 0.16535 0.39106 0.64779 0.0
C175 C 0.15791 0.361 0.63315 0.0
C176 C 0.15067 0.3803 0.63777 0.0
C177 C 0.18151 0.37796 0.64868 0.0
N178 N 0.17734 0.35953 0.64004 0.0
O179 O 0.18011 0.40969 0.68159 0.0
H180 H 0.13594 0.38619 0.63311 0.0
H181 H 0.19615 0.38185 0.65549 0.0
O182 O 0.13925 0.41259 0.67267 0.0
C183 C 0.19906 0.4147 0.68117 0.0
O184 O 0.20607 0.42455 0.66499 0.0
N185 N 0.15172 0.42786 0.63364 0.0
C186 C 0.13986 0.44705 0.59698 0.0
C187 C 0.13019 0.45196 0.61563 0.0
C188 C 0.13653 0.44242 0.6338 0.0
C189 C 0.16134 0.42302 0.61564 0.0
C190 C 0.15544 0.43215 0.59714 0.0
H191 H 0.12969 0.44727 0.64815 0.0
H192 H 0.17438 0.41272 0.61568 0.0
H193 H 0.14611 0.44508 0.69472 0.0
H194 H 0.17789 0.4937 0.66623 0.0
H195 H 0.14973 0.34925 0.62468 0.0
H196 H 0.11819 0.46348 0.61628 0.0
H197 H 0.16382 0.42835 0.58327 0.0
C198 C 0.95957 0.32332 0.84487 0.0
C199 C 0.97761 0.3268 0.83442 0.0
N200 N 0.97368 0.33974 0.81872 0.0
N201 N 0.94431 0.3341 0.83592 0.0
C202 C 0.95331 0.3438 0.8199 0.0
H203 H 0.95767 0.31378 0.85835 0.0
Co204 Co 0.91727 0.33487 0.84542 0.0
C205 C 0.90941 0.37971 0.83448 0.0
O206 O 0.90977 0.38628 0.85353 0.0
N207 N 0.88972 0.33505 0.85492 0.0
C208 C 0.85996 0.34296 0.86996 0.0
C209 C 0.87936 0.34984 0.8652 0.0
C210 C 0.87621 0.31925 0.85386 0.0
N211 N 0.85797 0.32367 0.8628 0.0
O212 O 0.90885 0.31983 0.82149 0.0
H213 H 0.88561 0.36435 0.87 0.0
H214 H 0.87988 0.30443 0.84738 0.0
O215 O 0.91226 0.36067 0.83045 0.0
C216 C 0.91284 0.30071 0.82308 0.0
O217 O 0.92142 0.29412 0.84014 0.0
N218 N 0.92653 0.34783 0.86971 0.0
C219 C 0.94615 0.3576 0.90666 0.0
C220 C 0.95093 0.36828 0.88857 0.0
C221 C 0.94122 0.36288 0.87015 0.0
C222 C 0.92157 0.33754 0.88729 0.0
C223 C 0.93094 0.34237 0.90593 0.0
H224 H 0.94628 0.37007 0.85605 0.0
H225 H 0.91108 0.32466 0.88672 0.0
H226 H 0.9452 0.35403 0.8096 0.0
H227 H 0.99245 0.3202 0.83806 0.0
H228 H 0.84835 0.35147 0.8783 0.0
H229 H 0.96298 0.37976 0.88838 0.0
H230 H 0.92692 0.33362 0.91952 0.0
C231 C 0.82508 0.54147 0.65888 0.0
C232 C 0.82872 0.52338 0.66915 0.0
N233 N 0.84184 0.52722 0.68472 0.0
N234 N 0.83591 0.55668 0.66783 0.0
C235 C 0.84581 0.5476 0.68368 0.0
H236 H 0.81542 0.54341 0.64549 0.0
Co237 Co 0.83651 0.58373 0.65826 0.0
C238 C 0.88187 0.59076 0.66796 0.0
O239 O 0.88804 0.58962 0.6488 0.0
N240 N 0.8364 0.61109 0.64883 0.0
C241 C 0.84401 0.64142 0.63499 0.0
C242 C 0.85148 0.62234 0.64005 0.0
C243 C 0.81986 0.62372 0.64877 0.0
N244 N 0.82407 0.64231 0.64047 0.0
O245 O 0.82233 0.59251 0.68265 0.0
H246 H 0.86677 0.61703 0.63673 0.0
H247 H 0.80482 0.61912 0.65417 0.0
O248 O 0.86282 0.58863 0.67246 0.0
C249 C 0.80359 0.58695 0.68397 0.0
O250 O 0.79554 0.57595 0.66908 0.0
N251 N 0.84892 0.57441 0.63352 0.0
C252 C 0.85999 0.55643 0.59601 0.0
C253 C 0.86942 0.55026 0.61438 0.0
C254 C 0.86349 0.55924 0.63297 0.0
C255 C 0.83943 0.58037 0.61578 0.0
C256 C 0.84497 0.57187 0.59687 0.0
H257 H 0.87029 0.5536 0.64704 0.0
H258 H 0.82681 0.59116 0.61627 0.0
H259 H 0.85619 0.55565 0.69388 0.0
H260 H 0.82217 0.50855 0.66543 0.0
H261 H 0.85264 0.65364 0.62773 0.0
H262 H 0.88099 0.53829 0.61447 0.0
H263 H 0.83678 0.57663 0.58318 0.0
C264 C 0.15867 0.04512 0.32504 0.0
C265 C 0.16896 0.02689 0.32815 0.0
N266 N 0.18407 0.03022 0.34192 0.0
N267 N 0.16725 0.05985 0.33679 0.0
C268 C 0.18277 0.05035 0.3468 0.0
H269 H 0.14561 0.04749 0.31502 0.0
Co270 Co 0.15871 0.08718 0.3379 0.0
C271 C 0.16923 0.09256 0.38317 0.0
O272 O 0.15015 0.09124 0.38961 0.0
N273 N 0.1505 0.115 0.33839 0.0
C274 C 0.1399 0.1464 0.34696 0.0
C275 C 0.14457 0.1271 0.35419 0.0
C276 C 0.14903 0.12732 0.32171 0.0
N277 N 0.14272 0.14652 0.32648 0.0
O278 O 0.18318 0.09501 0.3234 0.0
H279 H 0.14315 0.12236 0.36995 0.0
H280 H 0.15251 0.12229 0.30628 0.0
O281 O 0.17337 0.09115 0.36401 0.0
C282 C 0.18157 0.09188 0.30413 0.0
O283 O 0.1644 0.08384 0.29715 0.0
N284 N 0.13361 0.07878 0.35033 0.0
C285 C 0.09499 0.06207 0.35971 0.0
C286 C 0.11286 0.05452 0.36915 0.0
C287 C 0.13204 0.06289 0.36405 0.0
C288 C 0.1163 0.08629 0.34115 0.0
C289 C 0.09692 0.07852 0.34593 0.0
H290 H 0.14572 0.05607 0.37058 0.0
H291 H 0.1174 0.09771 0.32917 0.0
H292 H 0.19306 0.05806 0.35734 0.0
H293 H 0.16532 0.01225 0.32114 0.0
H294 H 0.13434 0.15918 0.35605 0.0
H295 H 0.11219 0.04154 0.37955 0.0
H296 H 0.0836 0.08492 0.33826 0.0
C297 C 0.54408 0.3429 0.17766 0.0
C298 C 0.52569 0.33298 0.17441 0.0
N299 N 0.52887 0.31756 0.16094 0.0
N300 N 0.55879 0.3339 0.16619 0.0
C301 C 0.54914 0.31837 0.15634 0.0
H302 H 0.54659 0.35604 0.18754 0.0
Co303 Co 0.5861 0.34251 0.16493 0.0
C304 C 0.59154 0.33213 0.11959 0.0
O305 O 0.59067 0.35123 0.11316 0.0
N306 N 0.61389 0.35091 0.16443 0.0
C307 C 0.64543 0.36134 0.15608 0.0
C308 C 0.62622 0.35654 0.14868 0.0
C309 C 0.626 0.35271 0.18124 0.0
N310 N 0.64527 0.35891 0.17661 0.0
O311 O 0.59414 0.31801 0.17915 0.0
H312 H 0.62173 0.35757 0.13283 0.0
H313 H 0.62077 0.34949 0.19665 0.0
O314 O 0.58993 0.328 0.13874 0.0
C315 C 0.59137 0.31929 0.19849 0.0
O316 O 0.58325 0.33623 0.20594 0.0
N317 N 0.57751 0.36752 0.15265 0.0
C318 C 0.55985 0.40574 0.14372 0.0
C319 C 0.55304 0.3879 0.13374 0.0
C320 C 0.56184 0.36889 0.13867 0.0
C321 C 0.58444 0.38485 0.16224 0.0
C322 C 0.5761 0.40406 0.15777 0.0
H323 H 0.55543 0.35515 0.13187 0.0
H324 H 0.59573 0.38379 0.17436 0.0
H325 H 0.55671 0.30816 0.14562 0.0
H326 H 0.51113 0.3368 0.18152 0.0
H327 H 0.65836 0.36667 0.14706 0.0
H328 H 0.54022 0.38843 0.12312 0.0
H329 H 0.58182 0.41742 0.16589 0.0
C330 C 0.84136 0.95983 0.32128 0.0
C331 C 0.83028 0.9775 0.32467 0.0
N332 N 0.81577 0.9735 0.33891 0.0
N333 N 0.83395 0.94474 0.33337 0.0
C334 C 0.81824 0.95346 0.34382 0.0
H335 H 0.85428 0.95813 0.31096 0.0
Co336 Co 0.84548 0.91862 0.33489 0.0
C337 C 0.8356 0.90881 0.37935 0.0
O338 O 0.85491 0.90749 0.38503 0.0
N339 N 0.8574 0.89186 0.33591 0.0
C340 C 0.87819 0.86544 0.34284 0.0
C341 C 0.87208 0.88472 0.34884 0.0
C342 C 0.85491 0.87634 0.32221 0.0
N343 N 0.86738 0.8602 0.32607 0.0
O344 O 0.82217 0.90794 0.32038 0.0
H345 H 0.87922 0.89339 0.36102 0.0
H346 H 0.84509 0.87717 0.30887 0.0
O347 O 0.83102 0.91328 0.36078 0.0
C348 C 0.82347 0.91058 0.30102 0.0
O349 O 0.84015 0.91927 0.2936 0.0
N350 N 0.86883 0.93028 0.3473 0.0
C351 C 0.90425 0.95247 0.35709 0.0
C352 C 0.88641 0.95439 0.3691 0.0
C353 C 0.86866 0.94345 0.36367 0.0
C354 C 0.88603 0.92835 0.33549 0.0
C355 C 0.90396 0.93902 0.34028 0.0
H356 H 0.85456 0.94631 0.37199 0.0
H357 H 0.88561 0.91894 0.3218 0.0
H358 H 0.8092 0.94548 0.35527 0.0
H359 H 0.83275 0.99217 0.31722 0.0
H360 H 0.89025 0.85632 0.3498 0.0
H361 H 0.88585 0.96508 0.38184 0.0
H362 H 0.91733 0.93718 0.33052 0.0
C363 C 0.46006 0.65739 0.17726 0.0
C364 C 0.47817 0.66787 0.17414 0.0
N365 N 0.47462 0.68314 0.1606 0.0
N366 N 0.44514 0.66598 0.16574 0.0
C367 C 0.45444 0.68172 0.15585 0.0
H368 H 0.4579 0.64417 0.18709 0.0
Co369 Co 0.41791 0.65697 0.1648 0.0
C370 C 0.41179 0.66765 0.11962 0.0
O371 O 0.41257 0.64855 0.11318 0.0
N372 N 0.3902 0.64818 0.16464 0.0
C373 C 0.35852 0.63797 0.15657 0.0
C374 C 0.37755 0.64313 0.14896 0.0
C375 C 0.37846 0.64567 0.18163 0.0
N376 N 0.35909 0.63959 0.17717 0.0
O377 O 0.40977 0.68114 0.17956 0.0
H378 H 0.38162 0.64283 0.13297 0.0
H379 H 0.38398 0.64835 0.19706 0.0
O380 O 0.41357 0.67176 0.13878 0.0
C381 C 0.41328 0.67947 0.19875 0.0
O382 O 0.42162 0.66235 0.20551 0.0
N383 N 0.4267 0.63225 0.15208 0.0
C384 C 0.44543 0.59465 0.14282 0.0
C385 C 0.45152 0.6127 0.13276 0.0
C386 C 0.44222 0.6314 0.13788 0.0
C387 C 0.42036 0.61468 0.16164 0.0
C388 C 0.42931 0.59575 0.15706 0.0
H389 H 0.44819 0.64535 0.13111 0.0
H390 H 0.40919 0.61537 0.1739 0.0
H391 H 0.44655 0.69205 0.14547 0.0
H392 H 0.4929 0.66425 0.18098 0.0
H393 H 0.3454 0.63299 0.14763 0.0
H394 H 0.46425 0.61259 0.12202 0.0
H395 H 0.42425 0.5822 0.16531 0.0
C396 C 0.15997 0.95711 0.67612 0.0
C397 C 0.17068 0.97498 0.67266 0.0
N398 N 0.18586 0.97097 0.65915 0.0
N399 N 0.16836 0.94187 0.66488 0.0
C400 C 0.18416 0.95075 0.65472 0.0
H401 H 0.14673 0.95531 0.68603 0.0
Co402 Co 0.1587 0.91491 0.66459 0.0
C403 C 0.16828 0.90706 0.61932 0.0
O404 O 0.14913 0.90764 0.61297 0.0
N405 N 0.14914 0.88764 0.66495 0.0
C406 C 0.13514 0.85724 0.6579 0.0
C407 C 0.13948 0.87649 0.65035 0.0
C408 C 0.15013 0.8749 0.68133 0.0
N409 N 0.14186 0.85626 0.67742 0.0
O410 O 0.1833 0.9061 0.6784 0.0
H411 H 0.13503 0.88204 0.63543 0.0
H412 H 0.15677 0.87924 0.69592 0.0
O413 O 0.17255 0.90981 0.6383 0.0
C414 C 0.18514 0.91161 0.6971 0.0
O415 O 0.17058 0.92278 0.70553 0.0
N416 N 0.13391 0.92425 0.65259 0.0
C417 C 0.09663 0.94385 0.64386 0.0
C418 C 0.11443 0.94857 0.63263 0.0
C419 C 0.13301 0.93885 0.63748 0.0
C420 C 0.11662 0.91929 0.66338 0.0
C421 C 0.09783 0.92868 0.6591 0.0
H422 H 0.14689 0.94385 0.62982 0.0
H423 H 0.11755 0.90879 0.67622 0.0
H424 H 0.19429 0.94255 0.64439 0.0
H425 H 0.16726 0.98988 0.67924 0.0
H426 H 0.127 0.84516 0.64985 0.0
H427 H 0.11429 0.96056 0.62109 0.0
H428 H 0.08449 0.92466 0.66824 0.0
C429 C 0.45748 0.34596 0.82528 0.0
C430 C 0.47575 0.33577 0.82844 0.0
N431 N 0.47233 0.32018 0.84167 0.0
N432 N 0.44262 0.33697 0.83656 0.0
C433 C 0.45206 0.32117 0.84621 0.0
H434 H 0.45518 0.35928 0.8156 0.0
Co435 Co 0.41539 0.34592 0.83787 0.0
C436 C 0.40983 0.3349 0.8831 0.0
O437 O 0.41139 0.35385 0.88983 0.0
N438 N 0.3877 0.35468 0.83856 0.0
C439 C 0.35721 0.36732 0.84763 0.0
C440 C 0.37646 0.36192 0.85444 0.0
C441 C 0.37487 0.35596 0.82223 0.0
N442 N 0.3562 0.36357 0.82732 0.0
O443 O 0.40715 0.32176 0.82319 0.0
H444 H 0.38185 0.36394 0.86991 0.0
H445 H 0.37935 0.3521 0.80671 0.0
O446 O 0.41126 0.33103 0.86387 0.0
C447 C 0.41055 0.32348 0.80398 0.0
O448 O 0.41856 0.34074 0.79718 0.0
N449 N 0.42431 0.37066 0.85045 0.0
C450 C 0.44288 0.40847 0.85918 0.0
C451 C 0.44926 0.39053 0.86927 0.0
C452 C 0.44002 0.37171 0.86441 0.0
C453 C 0.41776 0.38812 0.84083 0.0
C454 C 0.42656 0.40715 0.8452 0.0
H455 H 0.44621 0.35784 0.87115 0.0
H456 H 0.40646 0.38726 0.82869 0.0
H457 H 0.44433 0.3109 0.85675 0.0
H458 H 0.49037 0.33952 0.82144 0.0
H459 H 0.34496 0.37365 0.85695 0.0
H460 H 0.46215 0.39079 0.8798 0.0
H461 H 0.42123 0.4206 0.83696 0.0
C462 C 0.84472 0.04124 0.67739 0.0
C463 C 0.83447 0.02302 0.67415 0.0
N464 N 0.81892 0.02653 0.6609 0.0
N465 N 0.83573 0.05617 0.6662 0.0
C466 C 0.81996 0.04679 0.65645 0.0
H467 H 0.85805 0.04348 0.68708 0.0
Co468 Co 0.84401 0.08362 0.66534 0.0
C469 C 0.83394 0.08933 0.62007 0.0
O470 O 0.85323 0.08927 0.61409 0.0
N471 N 0.85196 0.11157 0.66524 0.0
C472 C 0.86066 0.14372 0.65732 0.0
C473 C 0.85582 0.12468 0.64959 0.0
C474 C 0.85478 0.1231 0.68232 0.0
N475 N 0.86 0.14272 0.67795 0.0
O476 O 0.81943 0.09108 0.67979 0.0
H477 H 0.85542 0.12101 0.63352 0.0
H478 H 0.85296 0.11721 0.69774 0.0
O479 O 0.82945 0.08741 0.63912 0.0
C480 C 0.82105 0.08766 0.69901 0.0
O481 O 0.83835 0.07977 0.70589 0.0
N482 N 0.8692 0.07554 0.65293 0.0
C483 C 0.9077 0.05842 0.64387 0.0
C484 C 0.88989 0.05132 0.634 0.0
C485 C 0.87076 0.05988 0.63895 0.0
C486 C 0.88649 0.08278 0.66236 0.0
C487 C 0.90583 0.07473 0.65782 0.0
H488 H 0.85709 0.05329 0.63218 0.0
H489 H 0.88535 0.09407 0.67446 0.0
H490 H 0.80931 0.0547 0.64643 0.0
H491 H 0.83843 0.00826 0.68072 0.0
H492 H 0.86476 0.15715 0.6484 0.0
H493 H 0.89054 0.03847 0.62344 0.0
H494 H 0.91913 0.08072 0.66583 0.0
C495 C 0.54465 0.66389 0.8203 0.0
C496 C 0.52678 0.67482 0.82315 0.0
N497 N 0.53007 0.68904 0.83786 0.0
N498 N 0.55918 0.67113 0.83314 0.0
C499 C 0.54991 0.68653 0.84358 0.0
H500 H 0.54687 0.65119 0.80981 0.0
Co501 Co 0.58566 0.66039 0.83506 0.0
C502 C 0.59184 0.66959 0.88059 0.0
O503 O 0.59075 0.65042 0.88673 0.0
N504 N 0.61274 0.64954 0.83647 0.0
C505 C 0.64041 0.63112 0.84492 0.0
C506 C 0.62112 0.63726 0.851 0.0
C507 C 0.62742 0.65061 0.82172 0.0
N508 N 0.64434 0.63958 0.8265 0.0
O509 O 0.596 0.68447 0.82166 0.0
H510 H 0.61335 0.63175 0.86452 0.0
H511 H 0.62545 0.65829 0.80716 0.0
O512 O 0.58981 0.67408 0.86156 0.0
C513 C 0.59414 0.68359 0.8022 0.0
O514 O 0.58593 0.66702 0.79406 0.0
N515 N 0.5746 0.63609 0.84639 0.0
C516 C 0.55445 0.59904 0.85469 0.0
C517 C 0.54963 0.61688 0.86581 0.0
C518 C 0.55962 0.63539 0.86113 0.0
C519 C 0.57926 0.61888 0.83537 0.0
C520 C 0.5697 0.60019 0.83951 0.0
H521 H 0.55476 0.64931 0.86881 0.0
H522 H 0.58999 0.61978 0.8227 0.0
H523 H 0.55754 0.69572 0.85513 0.0
H524 H 0.51233 0.6721 0.81537 0.0
H525 H 0.65047 0.62068 0.85308 0.0
H526 H 0.53755 0.61679 0.87727 0.0
H527 H 0.57388 0.58685 0.83047 0.0
C528 C 0.32526 0.15631 0.0424 0.0
C529 C 0.32842 0.1669 0.02437 0.0
N530 N 0.34095 0.18294 0.0283 0.0
N531 N 0.33585 0.16551 0.05762 0.0
C532 C 0.34507 0.18182 0.04864 0.0
H533 H 0.31603 0.14261 0.04431 0.0
Co534 Co 0.33686 0.15637 0.08477 0.0
C535 C 0.3816 0.16842 0.09169 0.0
O536 O 0.38868 0.14956 0.09067 0.0
N537 N 0.33715 0.14742 0.11239 0.0
C538 C 0.34558 0.13553 0.14336 0.0
C539 C 0.35275 0.14021 0.12405 0.0
C540 C 0.32059 0.14663 0.12498 0.0
N541 N 0.32531 0.1396 0.14394 0.0
O542 O 0.32133 0.18012 0.09285 0.0
H543 H 0.36827 0.13778 0.11893 0.0
H544 H 0.30531 0.15117 0.12034 0.0
O545 O 0.36236 0.17198 0.08955 0.0
C546 C 0.30219 0.17854 0.08892 0.0
O547 O 0.29553 0.1615 0.08036 0.0
N548 N 0.35056 0.13212 0.07595 0.0
C549 C 0.36322 0.09487 0.05847 0.0
C550 C 0.37163 0.11357 0.05183 0.0
C551 C 0.36494 0.13201 0.06059 0.0
C552 C 0.34212 0.11403 0.08242 0.0
C553 C 0.34849 0.09526 0.07419 0.0
H554 H 0.37096 0.14629 0.0546 0.0
H555 H 0.32962 0.11407 0.09337 0.0
H556 H 0.355 0.19239 0.05676 0.0
H557 H 0.32187 0.16312 0.00956 0.0
H558 H 0.35452 0.12908 0.15582 0.0
H559 H 0.38295 0.114 0.03962 0.0
H560 H 0.34108 0.08127 0.07933 0.0
C561 C 0.32422 0.84283 0.95962 0.0
C562 C 0.32821 0.83217 0.97738 0.0
N563 N 0.34175 0.81709 0.97305 0.0
N564 N 0.33517 0.83459 0.9441 0.0
C565 C 0.34561 0.8188 0.95269 0.0
H566 H 0.31429 0.85609 0.95814 0.0
Co567 Co 0.33559 0.84567 0.91769 0.0
C568 C 0.37948 0.83574 0.90585 0.0
O569 O 0.38463 0.85509 0.90359 0.0
N570 N 0.33545 0.85716 0.89077 0.0
C571 C 0.3412 0.87728 0.86362 0.0
C572 C 0.34786 0.87187 0.88285 0.0
C573 C 0.32127 0.854 0.87579 0.0
N574 N 0.32444 0.86608 0.85919 0.0
O575 O 0.32053 0.82225 0.90784 0.0
H576 H 0.36023 0.87943 0.89087 0.0
H577 H 0.30819 0.84387 0.87734 0.0
O578 O 0.36127 0.83096 0.91152 0.0
C579 C 0.30169 0.82194 0.91325 0.0
O580 O 0.29442 0.8373 0.92415 0.0
N581 N 0.34878 0.8691 0.92848 0.0
C582 C 0.36144 0.90479 0.94872 0.0
C583 C 0.37238 0.88634 0.95109 0.0
C584 C 0.36566 0.86856 0.94099 0.0
C585 C 0.33761 0.88674 0.92662 0.0
C586 C 0.34389 0.90483 0.93622 0.0
H587 H 0.37357 0.85423 0.94381 0.0
H588 H 0.32343 0.88664 0.91793 0.0
H589 H 0.35636 0.80921 0.94438 0.0
H590 H 0.32167 0.83534 0.99234 0.0
H591 H 0.34782 0.88905 0.85389 0.0
H592 H 0.3858 0.88555 0.96092 0.0
H593 H 0.33456 0.91852 0.93455 0.0
C594 C 0.34477 0.17841 0.54534 0.0
C595 C 0.33457 0.17555 0.52703 0.0
N596 N 0.31859 0.16277 0.53037 0.0
N597 N 0.3354 0.16733 0.56012 0.0
C598 C 0.31938 0.15817 0.5506 0.0
H599 H 0.35831 0.18777 0.54775 0.0
Co600 Co 0.34361 0.16563 0.58753 0.0
C601 C 0.33374 0.12027 0.59211 0.0
O602 O 0.35312 0.1146 0.5927 0.0
N603 N 0.35147 0.16473 0.61549 0.0
C604 C 0.35891 0.15644 0.64787 0.0
C605 C 0.35386 0.14894 0.6288 0.0
C606 C 0.35527 0.18164 0.62699 0.0
N607 N 0.35976 0.17706 0.64674 0.0
O608 O 0.31906 0.17988 0.59542 0.0
H609 H 0.35202 0.13292 0.62535 0.0
H610 H 0.35453 0.19711 0.621 0.0
O611 O 0.32904 0.1393 0.59041 0.0
C612 C 0.32081 0.19924 0.59298 0.0
O613 O 0.33802 0.20639 0.58513 0.0
N614 N 0.36877 0.15335 0.57916 0.0
C615 C 0.40728 0.14402 0.56224 0.0
C616 C 0.38939 0.13457 0.55476 0.0
C617 C 0.37026 0.13966 0.56324 0.0
C618 C 0.38612 0.16241 0.58671 0.0
C619 C 0.40546 0.15771 0.57876 0.0
H620 H 0.35655 0.13318 0.55644 0.0
H621 H 0.38507 0.17429 0.59822 0.0
H622 H 0.30872 0.14798 0.55828 0.0
H623 H 0.33854 0.18249 0.51245 0.0
H624 H 0.36191 0.14735 0.66147 0.0
H625 H 0.39001 0.12423 0.54174 0.0
H626 H 0.41883 0.16539 0.58504 0.0
C627 C 0.67647 0.15709 0.95703 0.0
C628 C 0.67353 0.16742 0.97524 0.0
N629 N 0.66064 0.18328 0.97176 0.0
N630 N 0.66539 0.16629 0.94215 0.0
C631 C 0.65611 0.18235 0.95151 0.0
H632 H 0.68578 0.1435 0.9548 0.0
Co633 Co 0.66368 0.15704 0.91508 0.0
C634 C 0.61884 0.16931 0.90934 0.0
O635 O 0.61177 0.15044 0.9104 0.0
N636 N 0.66281 0.14797 0.88757 0.0
C637 C 0.65414 0.1378 0.85606 0.0
C638 C 0.64685 0.14338 0.87509 0.0
C639 C 0.67963 0.14477 0.87575 0.0
N640 N 0.6748 0.1387 0.85649 0.0
O641 O 0.67915 0.1806 0.90641 0.0
H642 H 0.63088 0.1437 0.87927 0.0
H643 H 0.69519 0.14699 0.88114 0.0
O644 O 0.63815 0.1728 0.91091 0.0
C645 C 0.69838 0.17901 0.90984 0.0
O646 O 0.7052 0.16216 0.91866 0.0
N647 N 0.65003 0.13291 0.92434 0.0
C648 C 0.63795 0.09587 0.94273 0.0
C649 C 0.62967 0.11466 0.94931 0.0
C650 C 0.63608 0.13299 0.9401 0.0
C651 C 0.6582 0.11472 0.91779 0.0
C652 C 0.65216 0.09607 0.92652 0.0
H653 H 0.63023 0.14734 0.9461 0.0
H654 H 0.67035 0.11458 0.90648 0.0
H655 H 0.64573 0.19278 0.94377 0.0
H656 H 0.68036 0.16352 0.98989 0.0
H657 H 0.64492 0.13306 0.84306 0.0
H658 H 0.61871 0.11527 0.96182 0.0
H659 H 0.65947 0.08203 0.92136 0.0
C660 C 0.65947 0.82448 0.54034 0.0
C661 C 0.66994 0.82846 0.52243 0.0
N662 N 0.68539 0.8416 0.52667 0.0
N663 N 0.66817 0.83511 0.55582 0.0
C664 C 0.68407 0.84528 0.54709 0.0
H665 H 0.64608 0.81474 0.54196 0.0
Co666 Co 0.65794 0.83541 0.58255 0.0
C667 C 0.6683 0.87913 0.59431 0.0
O668 O 0.64902 0.88435 0.59707 0.0
N669 N 0.6474 0.83521 0.6099 0.0
C670 C 0.62935 0.84141 0.63843 0.0
C671 C 0.6332 0.84768 0.61865 0.0
C672 C 0.65157 0.82125 0.6248 0.0
N673 N 0.64089 0.82472 0.64226 0.0
O674 O 0.6816 0.82019 0.59143 0.0
H675 H 0.62507 0.8599 0.61096 0.0
H676 H 0.662 0.8085 0.62293 0.0
O677 O 0.67286 0.86096 0.58837 0.0
C678 C 0.6805 0.8011 0.58716 0.0
O679 O 0.66399 0.79434 0.57766 0.0
N680 N 0.63415 0.84855 0.57267 0.0
C681 C 0.59819 0.85877 0.55155 0.0
C682 C 0.61589 0.87098 0.54965 0.0
C683 C 0.6339 0.86538 0.56008 0.0
C684 C 0.61699 0.83672 0.57482 0.0
C685 C 0.59881 0.84172 0.56469 0.0
H686 H 0.6479 0.8738 0.55708 0.0
H687 H 0.61769 0.82273 0.58377 0.0
H688 H 0.6941 0.85563 0.55537 0.0
H689 H 0.66644 0.82214 0.50745 0.0
H690 H 0.61811 0.84798 0.64881 0.0
H691 H 0.61619 0.88396 0.53923 0.0
H692 H 0.58553 0.83183 0.56654 0.0
C693 C 0.67652 0.8453 0.0421 0.0
C694 C 0.67294 0.83479 0.02413 0.0
N695 N 0.65998 0.81913 0.02819 0.0
N696 N 0.6658 0.83642 0.05742 0.0
C697 C 0.65603 0.82037 0.04855 0.0
H698 H 0.68606 0.8588 0.04388 0.0
Co699 Co 0.66525 0.84634 0.08426 0.0
C700 C 0.62093 0.83484 0.0938 0.0
O701 O 0.61436 0.8539 0.09406 0.0
N702 N 0.66545 0.85638 0.11163 0.0
C703 C 0.65834 0.87163 0.14151 0.0
C704 C 0.65104 0.86698 0.12223 0.0
C705 C 0.68153 0.85524 0.12481 0.0
N706 N 0.67757 0.86423 0.14309 0.0
O707 O 0.68083 0.8228 0.09287 0.0
H708 H 0.63657 0.87222 0.11619 0.0
H709 H 0.69605 0.84814 0.12109 0.0
O710 O 0.63982 0.83089 0.08995 0.0
C711 C 0.69995 0.82396 0.08871 0.0
O712 O 0.70675 0.8405 0.07932 0.0
N713 N 0.6515 0.87016 0.0748 0.0
C714 C 0.63907 0.90648 0.05534 0.0
C715 C 0.62934 0.88773 0.05095 0.0
C716 C 0.63596 0.86971 0.06064 0.0
C717 C 0.66115 0.88826 0.07916 0.0
C718 C 0.65498 0.9066 0.06989 0.0
H719 H 0.62911 0.85525 0.05616 0.0
H720 H 0.67441 0.88839 0.08917 0.0
H721 H 0.64576 0.81016 0.05673 0.0
H722 H 0.67944 0.8384 0.00925 0.0
H723 H 0.65043 0.88056 0.15311 0.0
H724 H 0.6171 0.88686 0.03971 0.0
H725 H 0.6634 0.92055 0.07329 0.0
C726 C 0.34663 0.82643 0.4577 0.0
C727 C 0.33647 0.82953 0.47599 0.0
N728 N 0.32018 0.84186 0.47242 0.0
N729 N 0.33693 0.83691 0.44269 0.0
C730 C 0.32075 0.84596 0.45207 0.0
H731 H 0.36035 0.81729 0.45545 0.0
Co732 Co 0.34498 0.83786 0.41519 0.0
C733 C 0.33429 0.88299 0.40949 0.0
O734 O 0.35349 0.88922 0.40948 0.0
N735 N 0.35268 0.83805 0.38722 0.0
C736 C 0.36135 0.84593 0.35507 0.0
C737 C 0.35662 0.85368 0.37413 0.0
C738 C 0.35532 0.82095 0.37568 0.0
N739 N 0.36052 0.8253 0.35605 0.0
O740 O 0.32051 0.82318 0.40786 0.0
H741 H 0.35642 0.86975 0.37786 0.0
H742 H 0.3534 0.80555 0.38159 0.0
O743 O 0.33007 0.86389 0.4115 0.0
C744 C 0.32183 0.80401 0.41168 0.0
O745 O 0.33885 0.79706 0.4201 0.0
N746 N 0.37011 0.85063 0.42303 0.0
C747 C 0.40874 0.86051 0.43944 0.0
C748 C 0.39082 0.86989 0.44697 0.0
C749 C 0.37165 0.86457 0.43872 0.0
C750 C 0.38748 0.84163 0.41541 0.0
C751 C 0.40686 0.84664 0.42306 0.0
H752 H 0.35795 0.87105 0.44555 0.0
H753 H 0.38643 0.82958 0.40407 0.0
H754 H 0.3098 0.85568 0.44419 0.0
H755 H 0.34066 0.82305 0.49072 0.0
H756 H 0.36552 0.85482 0.34165 0.0
H757 H 0.39144 0.88038 0.45987 0.0
H758 H 0.42022 0.83904 0.41664 0.0
C759 C 0.65986 0.17827 0.45946 0.0
C760 C 0.6709 0.17485 0.47714 0.0
N761 N 0.68556 0.16078 0.47307 0.0
N762 N 0.66751 0.16644 0.44428 0.0
C763 C 0.68322 0.156 0.45299 0.0
H764 H 0.64685 0.18849 0.45778 0.0
Co765 Co 0.65708 0.16571 0.41763 0.0
C766 C 0.66666 0.12061 0.40959 0.0
O767 O 0.64746 0.11452 0.41053 0.0
N768 N 0.64663 0.16556 0.39046 0.0
C769 C 0.63081 0.15777 0.36109 0.0
C770 C 0.63558 0.15103 0.38053 0.0
C771 C 0.648 0.18112 0.37672 0.0
N772 N 0.63864 0.17675 0.35871 0.0
O773 O 0.68112 0.18009 0.40826 0.0
H774 H 0.63027 0.13684 0.38714 0.0
H775 H 0.65558 0.19554 0.37984 0.0
O776 O 0.67124 0.13955 0.41229 0.0
C777 C 0.68035 0.19928 0.4122 0.0
O778 O 0.66386 0.2065 0.4214 0.0
N779 N 0.6328 0.15342 0.42783 0.0
C780 C 0.59621 0.14434 0.44847 0.0
C781 C 0.61423 0.13328 0.4527 0.0
C782 C 0.63249 0.13836 0.4425 0.0
C783 C 0.61531 0.16414 0.42347 0.0
C784 C 0.59684 0.15967 0.43337 0.0
H785 H 0.64658 0.13083 0.4471 0.0
H786 H 0.61585 0.17702 0.41298 0.0
H787 H 0.6928 0.14515 0.4448 0.0
H788 H 0.66802 0.1818 0.49198 0.0
H789 H 0.62156 0.14966 0.34989 0.0
H790 H 0.61451 0.1217 0.46466 0.0
H791 H 0.58331 0.16871 0.42978 0.0
C792 C 0.1473 0.52167 0.28388 0.0
C793 C 0.15362 0.51515 0.30348 0.0
C794 C 0.13953 0.50757 0.26963 0.0
C795 C 0.11635 0.45579 0.26534 0.0
H796 H 0.13461 0.45941 0.20874 0.0
C797 C 0.10061 0.39195 0.20505 0.0
C798 C 0.09644 0.39821 0.18479 0.0
C799 C 0.10642 0.40636 0.21994 0.0
C800 C 0.12911 0.45833 0.22442 0.0
H801 H 0.15625 0.48868 0.32357 0.0
H802 H 0.14301 0.46408 0.29866 0.0
H803 H 0.14693 0.48434 0.23375 0.0
H804 H 0.09424 0.42464 0.16456 0.0
H805 H 0.10399 0.44967 0.19052 0.0
H806 H 0.09854 0.42973 0.25597 0.0
C807 C 0.14395 0.48013 0.29434 0.0
C808 C 0.1362 0.47264 0.23877 0.0
C809 C 0.15179 0.49421 0.30854 0.0
C810 C 0.09755 0.41924 0.17995 0.0
C811 C 0.10327 0.4336 0.19482 0.0
C812 C 0.1092 0.44149 0.25095 0.0
C813 C 0.1378 0.48662 0.27468 0.0
C814 C 0.12994 0.47154 0.2594 0.0
C815 C 0.10812 0.42733 0.21492 0.0
C816 C 0.11549 0.44259 0.23031 0.0
H817 H 0.14862 0.53764 0.27941 0.0
H818 H 0.13474 0.51312 0.25469 0.0
H819 H 0.11104 0.45467 0.28107 0.0
H820 H 0.09989 0.37587 0.20929 0.0
H821 H 0.11017 0.40097 0.23523 0.0
C822 C 0.02045 0.35491 0.21805 0.0
C823 C 0.01444 0.34892 0.19819 0.0
C824 C 0.00589 0.36195 0.23223 0.0
C825 C 0.95346 0.38374 0.23636 0.0
H826 H 0.95708 0.3645 0.29262 0.0
C827 C 0.8898 0.39908 0.29733 0.0
C828 C 0.89637 0.40319 0.3175 0.0
C829 C 0.90398 0.39309 0.28223 0.0
C830 C 0.95597 0.37025 0.27704 0.0
H831 H 0.98838 0.34612 0.17757 0.0
H832 H 0.96298 0.35813 0.20237 0.0
H833 H 0.9823 0.35299 0.2675 0.0
H834 H 0.92312 0.40498 0.33738 0.0
H835 H 0.94768 0.39495 0.31114 0.0
H836 H 0.92712 0.40107 0.24597 0.0
C837 C 0.97898 0.35747 0.20695 0.0
C838 C 0.97045 0.36363 0.26263 0.0
C839 C 0.99353 0.35035 0.1928 0.0
C840 C 0.91745 0.40173 0.32207 0.0
C841 C 0.93157 0.39583 0.30703 0.0
C842 C 0.93898 0.39043 0.25082 0.0
C843 C 0.98497 0.36325 0.22688 0.0
C844 C 0.96944 0.37033 0.24213 0.0
C845 C 0.92501 0.39114 0.28699 0.0
C846 C 0.94012 0.38385 0.27138 0.0
H847 H 0.03636 0.35387 0.22279 0.0
H848 H 0.01105 0.36649 0.24739 0.0
H849 H 0.95237 0.38936 0.22074 0.0
H850 H 0.87367 0.40007 0.29329 0.0
H851 H 0.89837 0.38948 0.26699 0.0
C852 C 0.85106 0.50746 0.30737 0.0
C853 C 0.84936 0.48651 0.30228 0.0
C854 C 0.85888 0.52159 0.29321 0.0
C855 C 0.86648 0.52935 0.23772 0.0
H856 H 0.90384 0.57247 0.25503 0.0
C857 C 0.90404 0.58388 0.17914 0.0
C858 C 0.90519 0.60483 0.18428 0.0
C859 C 0.8985 0.56928 0.19385 0.0
C860 C 0.89325 0.56066 0.24998 0.0
H861 H 0.85462 0.46405 0.27825 0.0
H862 H 0.86843 0.48871 0.25355 0.0
H863 H 0.89175 0.5472 0.28 0.0
H864 H 0.90192 0.6268 0.20914 0.0
H865 H 0.89192 0.60131 0.2348 0.0
H866 H 0.8677 0.54288 0.20782 0.0
C867 C 0.86357 0.4942 0.2685 0.0
C868 C 0.88634 0.54616 0.26429 0.0
C869 C 0.85584 0.48003 0.28272 0.0
C870 C 0.90118 0.61078 0.20466 0.0
C871 C 0.89553 0.59614 0.2194 0.0
C872 C 0.87331 0.54387 0.22345 0.0
C873 C 0.86513 0.51516 0.27357 0.0
C874 C 0.87286 0.53034 0.25832 0.0
C875 C 0.89387 0.57523 0.2141 0.0
C876 C 0.88679 0.55972 0.22938 0.0
H877 H 0.84649 0.51295 0.32238 0.0
H878 H 0.8597 0.53764 0.29755 0.0
H879 H 0.85583 0.51758 0.23269 0.0
H880 H 0.90723 0.57871 0.16364 0.0
H881 H 0.89781 0.55328 0.18932 0.0
C882 C 0.08536 0.59939 0.32207 0.0
C883 C 0.10646 0.59801 0.31755 0.0
C884 C 0.07126 0.6052 0.30699 0.0
C885 C 0.0638 0.61029 0.25083 0.0
H886 H 0.02067 0.64805 0.26731 0.0
C887 C 0.00933 0.65009 0.19259 0.0
C888 C 0.98848 0.65201 0.19808 0.0
C889 C 0.02382 0.64289 0.20674 0.0
C890 C 0.03245 0.63731 0.26249 0.0
H891 H 0.12921 0.60115 0.29338 0.0
H892 H 0.10451 0.61156 0.26698 0.0
H893 H 0.04591 0.63665 0.29245 0.0
H894 H 0.9666 0.64771 0.22286 0.0
H895 H 0.9918 0.63488 0.24745 0.0
H896 H 0.05031 0.6111 0.22079 0.0
C897 C 0.0989 0.60797 0.28224 0.0
C898 C 0.04695 0.63076 0.27691 0.0
C899 C 0.11306 0.60209 0.29738 0.0
C900 C 0.98247 0.64631 0.21804 0.0
C901 C 0.99697 0.63916 0.23221 0.0
C902 C 0.04928 0.61688 0.23636 0.0
C903 C 0.07784 0.60986 0.28696 0.0
C904 C 0.06274 0.61708 0.27132 0.0
C905 C 0.01785 0.63746 0.22677 0.0
C906 C 0.03337 0.6304 0.24205 0.0
H907 H 0.07965 0.59616 0.33737 0.0
H908 H 0.05513 0.60605 0.31107 0.0
H909 H 0.07562 0.59958 0.24605 0.0
H910 H 0.01448 0.65406 0.17729 0.0
H911 H 0.03978 0.64192 0.20208 0.0
C912 C 0.14666 0.48166 0.72079 0.0
C913 C 0.15132 0.48824 0.70075 0.0
C914 C 0.13934 0.49561 0.73545 0.0
C915 C 0.11429 0.54633 0.74106 0.0
H916 H 0.13843 0.5455 0.79551 0.0
C917 C 0.10113 0.61164 0.80023 0.0
C918 C 0.09971 0.60621 0.82109 0.0
C919 C 0.1063 0.59689 0.78542 0.0
C920 C 0.13127 0.54578 0.78049 0.0
H921 H 0.15135 0.51452 0.68026 0.0
H922 H 0.13875 0.53883 0.70581 0.0
H923 H 0.14921 0.5202 0.77012 0.0
H924 H 0.1019 0.58084 0.84263 0.0
H925 H 0.11039 0.55515 0.81687 0.0
H926 H 0.09628 0.57185 0.75143 0.0
C927 C 0.14072 0.5229 0.71021 0.0
C928 C 0.13749 0.53127 0.76592 0.0
C929 C 0.14817 0.509 0.69562 0.0
C930 C 0.10305 0.58562 0.82673 0.0
C931 C 0.10807 0.57088 0.81194 0.0
C932 C 0.10796 0.56078 0.75568 0.0
C933 C 0.13635 0.51641 0.73033 0.0
C934 C 0.12916 0.53142 0.74601 0.0
C935 C 0.11003 0.57634 0.79112 0.0
C936 C 0.11643 0.56075 0.77558 0.0
H937 H 0.14902 0.46581 0.72526 0.0
H938 H 0.13596 0.49011 0.75079 0.0
H939 H 0.1074 0.5467 0.72591 0.0
H940 H 0.09868 0.62737 0.79536 0.0
H941 H 0.10787 0.60173 0.76958 0.0
C942 C 0.00923 0.34969 0.8094 0.0
C943 C 0.98832 0.34785 0.80414 0.0
C944 C 0.02351 0.35727 0.79523 0.0
C945 C 0.03161 0.36394 0.7396 0.0
H946 H 0.07447 0.40186 0.75634 0.0
C947 C 0.08434 0.4026 0.68028 0.0
C948 C 0.10539 0.40429 0.68492 0.0
C949 C 0.07024 0.39658 0.69528 0.0
C950 C 0.06274 0.3911 0.75147 0.0
H951 H 0.9661 0.35262 0.77978 0.0
H952 H 0.99097 0.36602 0.75511 0.0
H953 H 0.04939 0.38977 0.78156 0.0
H954 H 0.12804 0.40142 0.7092 0.0
H955 H 0.10337 0.39059 0.73543 0.0
H956 H 0.04498 0.36504 0.70962 0.0
C957 C 0.99633 0.36144 0.77018 0.0
C958 C 0.04835 0.38419 0.76591 0.0
C959 C 0.98203 0.35395 0.7844 0.0
C960 C 0.11194 0.40026 0.70512 0.0
C961 C 0.09777 0.39414 0.72017 0.0
C962 C 0.04601 0.37078 0.7252 0.0
C963 C 0.01726 0.36312 0.77541 0.0
C964 C 0.03257 0.37058 0.76012 0.0
C965 C 0.07677 0.39197 0.71534 0.0
C966 C 0.0617 0.38453 0.73091 0.0
H967 H 0.01459 0.34541 0.82455 0.0
H968 H 0.03953 0.3582 0.79971 0.0
H969 H 0.01991 0.35315 0.73471 0.0
H970 H 0.07869 0.40578 0.66495 0.0
H971 H 0.05415 0.39553 0.69111 0.0
C972 C 0.90177 0.3879 0.79745 0.0
C973 C 0.90496 0.39455 0.81776 0.0
C974 C 0.89652 0.402 0.78205 0.0
C975 C 0.89715 0.45758 0.76941 0.0
H976 H 0.85222 0.44371 0.73283 0.0
C977 C 0.85655 0.51835 0.71871 0.0
C978 C 0.85032 0.51241 0.6989 0.0
C979 C 0.86434 0.50382 0.73254 0.0
C980 C 0.86499 0.44775 0.74271 0.0
H981 H 0.90562 0.42133 0.83765 0.0
H982 H 0.89646 0.44574 0.81092 0.0
H983 H 0.86434 0.41844 0.75767 0.0
H984 H 0.84811 0.48663 0.6779 0.0
H985 H 0.86176 0.4614 0.70187 0.0
H986 H 0.89776 0.48692 0.75453 0.0
C987 C 0.89812 0.4297 0.80682 0.0
C988 C 0.87195 0.43323 0.75695 0.0
C989 C 0.90324 0.41563 0.8222 0.0
C990 C 0.85236 0.49167 0.69316 0.0
C991 C 0.8602 0.47718 0.70693 0.0
C992 C 0.89025 0.47208 0.75512 0.0
C993 C 0.8945 0.42305 0.7866 0.0
C994 C 0.88799 0.43804 0.7706 0.0
C995 C 0.86617 0.48302 0.72685 0.0
C996 C 0.87396 0.46741 0.74169 0.0
H997 H 0.90303 0.37178 0.79349 0.0
H998 H 0.89404 0.39643 0.76656 0.0
H999 H 0.90974 0.46167 0.77952 0.0
H1000 H 0.85499 0.53414 0.72369 0.0
H1001 H 0.86852 0.50883 0.74785 0.0
C1002 C 0.99428 0.65159 0.80656 0.0
C1003 C 0.01539 0.65227 0.80187 0.0
C1004 C 0.98018 0.64343 0.79257 0.0
C1005 C 0.9733 0.63335 0.73743 0.0
H1006 H 0.92818 0.5988 0.75552 0.0
C1007 C 0.91824 0.59574 0.67942 0.0
C1008 C 0.89715 0.59553 0.68418 0.0
C1009 C 0.93277 0.60133 0.69418 0.0
C1010 C 0.94055 0.60861 0.75024 0.0
H1011 H 0.03821 0.64473 0.7788 0.0
H1012 H 0.01357 0.63037 0.75435 0.0
H1013 H 0.95351 0.6109 0.78043 0.0
H1014 H 0.87484 0.60058 0.70844 0.0
H1015 H 0.90023 0.61072 0.73419 0.0
H1016 H 0.96025 0.63141 0.70735 0.0
C1017 C 0.00794 0.63629 0.76885 0.0
C1018 C 0.9551 0.61551 0.76452 0.0
C1019 C 0.02209 0.64434 0.78293 0.0
C1020 C 0.89097 0.60058 0.70426 0.0
C1021 C 0.90555 0.6063 0.71905 0.0
C1022 C 0.95872 0.62655 0.72319 0.0
C1023 C 0.98681 0.63583 0.77348 0.0
C1024 C 0.97163 0.62798 0.75827 0.0
C1025 C 0.92662 0.60699 0.71411 0.0
C1026 C 0.94215 0.61408 0.72939 0.0
H1027 H 0.98861 0.65728 0.82112 0.0
H1028 H 0.964 0.64347 0.79655 0.0
H1029 H 0.98563 0.64323 0.73217 0.0
H1030 H 0.92359 0.59172 0.66418 0.0
H1031 H 0.94887 0.60123 0.68994 0.0
C1032 C 0.18111 0.09872 0.41922 0.0
C1033 C 0.18566 0.09764 0.39813 0.0
C1034 C 0.19605 0.1049 0.43333 0.0
C1035 C 0.25212 0.11203 0.44055 0.0
H1036 H 0.23452 0.14931 0.48361 0.0
C1037 C 0.30937 0.15388 0.49451 0.0
C1038 C 0.30402 0.15522 0.51542 0.0
C1039 C 0.2953 0.14646 0.48004 0.0
C1040 C 0.23966 0.13873 0.47183 0.0
H1041 H 0.20976 0.10165 0.37541 0.0
H1042 H 0.23583 0.11268 0.40009 0.0
H1043 H 0.2096 0.13678 0.4587 0.0
H1044 H 0.27951 0.14992 0.5374 0.0
H1045 H 0.2551 0.13675 0.51226 0.0
H1046 H 0.28226 0.11413 0.45371 0.0
C1047 C 0.2207 0.10858 0.40571 0.0
C1048 C 0.22536 0.13152 0.45754 0.0
C1049 C 0.20573 0.10233 0.39155 0.0
C1050 C 0.28424 0.14894 0.52149 0.0
C1051 C 0.27015 0.14159 0.50702 0.0
C1052 C 0.26646 0.11929 0.45486 0.0
C1053 C 0.21593 0.11023 0.42675 0.0
C1054 C 0.23137 0.11799 0.44177 0.0
C1055 C 0.27549 0.14027 0.48612 0.0
C1056 C 0.26037 0.13266 0.47073 0.0
H1057 H 0.16589 0.09503 0.42488 0.0
H1058 H 0.19196 0.10557 0.44945 0.0
H1059 H 0.25723 0.10147 0.42874 0.0
H1060 H 0.32453 0.15835 0.48931 0.0
H1061 H 0.29985 0.14582 0.46405 0.0
C1062 C 0.59743 0.32005 0.08353 0.0
C1063 C 0.59609 0.31556 0.10463 0.0
C1064 C 0.60291 0.30483 0.06942 0.0
C1065 C 0.63061 0.25571 0.06583 0.0
H1066 H 0.60463 0.25238 0.0123 0.0
C1067 C 0.65102 0.19192 0.00753 0.0
C1068 C 0.65265 0.19758 0.98674 0.0
C1069 C 0.64322 0.20568 0.02207 0.0
C1070 C 0.6122 0.25324 0.0271 0.0
H1071 H 0.59896 0.29133 0.12735 0.0
H1072 H 0.60849 0.2647 0.10264 0.0
H1073 H 0.59211 0.27717 0.03748 0.0
H1074 H 0.64751 0.2223 0.96501 0.0
H1075 H 0.63405 0.24639 0.99037 0.0
H1076 H 0.65089 0.23201 0.0554 0.0
C1077 C 0.6055 0.2801 0.09708 0.0
C1078 C 0.60498 0.26742 0.04155 0.0
C1079 C 0.59992 0.29533 0.11123 0.0
C1080 C 0.64623 0.21734 0.98083 0.0
C1081 C 0.63847 0.23114 0.99539 0.0
C1082 C 0.63787 0.24157 0.05137 0.0
C1083 C 0.60723 0.28473 0.07603 0.0
C1084 C 0.61418 0.26892 0.06104 0.0
C1085 C 0.63688 0.22549 0.0162 0.0
C1086 C 0.62884 0.24023 0.03176 0.0
H1087 H 0.59456 0.33544 0.07789 0.0
H1088 H 0.60431 0.30898 0.05336 0.0
H1089 H 0.63825 0.25668 0.08059 0.0
H1090 H 0.65545 0.1767 0.01257 0.0
H1091 H 0.64189 0.20066 0.03788 0.0
C1092 C 0.71969 0.8559 0.5183 0.0
C1093 C 0.69973 0.85032 0.51218 0.0
C1094 C 0.73375 0.86372 0.50398 0.0
C1095 C 0.74363 0.8657 0.4478 0.0
H1096 H 0.78267 0.90813 0.46288 0.0
C1097 C 0.79849 0.90287 0.38845 0.0
C1098 C 0.81916 0.90458 0.39456 0.0
C1099 C 0.78325 0.89771 0.40275 0.0
C1100 C 0.77192 0.8962 0.45847 0.0
H1101 H 0.67865 0.84941 0.4864 0.0
H1102 H 0.70294 0.86325 0.46158 0.0
H1103 H 0.75741 0.89636 0.48801 0.0
H1104 H 0.83988 0.90278 0.42065 0.0
H1105 H 0.81335 0.89385 0.44548 0.0
H1106 H 0.75815 0.86559 0.41826 0.0
C1107 C 0.70799 0.86108 0.47728 0.0
C1108 C 0.75748 0.88939 0.47289 0.0
C1109 C 0.69403 0.85315 0.49154 0.0
C1110 C 0.82414 0.90154 0.41537 0.0
C1111 C 0.8089 0.89654 0.42967 0.0
C1112 C 0.75798 0.8726 0.43335 0.0
C1113 C 0.72812 0.86628 0.48324 0.0
C1114 C 0.74322 0.87395 0.46779 0.0
C1115 C 0.78831 0.89433 0.42349 0.0
C1116 C 0.77239 0.88782 0.43856 0.0
H1117 H 0.72461 0.85374 0.53404 0.0
H1118 H 0.74918 0.86729 0.5091 0.0
H1119 H 0.73316 0.85354 0.44339 0.0
H1120 H 0.79411 0.90517 0.37255 0.0
H1121 H 0.76748 0.89633 0.39756 0.0
C1122 C 0.35289 0.80836 0.0083 0.0
C1123 C 0.35079 0.80289 0.9875 0.0
C1124 C 0.36105 0.79452 0.02251 0.0
C1125 C 0.3917 0.74664 0.02701 0.0
H1126 H 0.36567 0.74328 0.08054 0.0
C1127 C 0.40599 0.67972 0.08356 0.0
C1128 C 0.40732 0.68424 0.10465 0.0
C1129 C 0.40068 0.69496 0.06941 0.0
C1130 C 0.37332 0.74422 0.06578 0.0
H1131 H 0.35585 0.77858 0.96533 0.0
H1132 H 0.36995 0.75424 0.9902 0.0
H1133 H 0.3532 0.76807 0.05544 0.0
H1134 H 0.40465 0.70853 0.12733 0.0
H1135 H 0.39539 0.73519 0.10254 0.0
H1136 H 0.41161 0.72252 0.03732 0.0
C1137 C 0.36552 0.76939 0.99546 0.0
C1138 C 0.36615 0.75844 0.05136 0.0
C1139 C 0.35741 0.78332 0.98119 0.0
C1140 C 0.40367 0.7045 0.11121 0.0
C1141 C 0.39825 0.71975 0.09702 0.0
C1142 C 0.39882 0.73237 0.04143 0.0
C1143 C 0.36729 0.77477 0.01635 0.0
C1144 C 0.3752 0.75979 0.03175 0.0
C1145 C 0.39652 0.7151 0.07597 0.0
C1146 C 0.38965 0.73093 0.06096 0.0
H1147 H 0.34839 0.82347 0.01361 0.0
H1148 H 0.36259 0.79936 0.03836 0.0
H1149 H 0.39924 0.74748 0.01219 0.0
H1150 H 0.40874 0.66429 0.07794 0.0
H1151 H 0.39927 0.69079 0.05335 0.0
C1152 C 0.28545 0.85475 0.48134 0.0
C1153 C 0.30553 0.84939 0.48731 0.0
C1154 C 0.27127 0.86197 0.4958 0.0
C1155 C 0.26077 0.86287 0.55179 0.0
H1156 H 0.22272 0.90634 0.53711 0.0
C1157 C 0.20529 0.89955 0.611 0.0
C1158 C 0.18488 0.90236 0.60442 0.0
C1159 C 0.22069 0.89418 0.59694 0.0
C1160 C 0.23316 0.8941 0.5414 0.0
H1161 H 0.32651 0.84791 0.51316 0.0
H1162 H 0.30186 0.8606 0.53832 0.0
H1163 H 0.2482 0.89476 0.51215 0.0
H1164 H 0.16479 0.90215 0.57779 0.0
H1165 H 0.19156 0.89278 0.55339 0.0
H1166 H 0.24568 0.86221 0.58104 0.0
C1167 C 0.29693 0.85883 0.52252 0.0
C1168 C 0.24773 0.88742 0.52708 0.0
C1169 C 0.31109 0.85155 0.50808 0.0
C1170 C 0.18033 0.90009 0.58342 0.0
C1171 C 0.19571 0.89483 0.56938 0.0
C1172 C 0.24624 0.8696 0.56614 0.0
C1173 C 0.27682 0.8641 0.51659 0.0
C1174 C 0.26164 0.87161 0.53203 0.0
C1175 C 0.21604 0.89164 0.57598 0.0
C1176 C 0.23215 0.88519 0.56106 0.0
H1177 H 0.28056 0.85301 0.46554 0.0
H1178 H 0.25582 0.86555 0.49072 0.0
H1179 H 0.27103 0.85046 0.55606 0.0
H1180 H 0.20936 0.90124 0.62705 0.0
H1181 H 0.23625 0.89206 0.60247 0.0
C1182 C 0.40374 0.3226 0.91901 0.0
C1183 C 0.40483 0.31828 0.89787 0.0
C1184 C 0.39777 0.30746 0.933 0.0
C1185 C 0.39153 0.25128 0.93971 0.0
H1186 H 0.35412 0.26781 0.98311 0.0
C1187 C 0.35038 0.19278 0.99275 0.0
C1188 C 0.34869 0.19779 0.01372 0.0
C1189 C 0.35779 0.20715 0.97859 0.0
C1190 C 0.36476 0.26297 0.97125 0.0
H1191 H 0.401 0.2944 0.87493 0.0
H1192 H 0.39034 0.26796 0.89939 0.0
H1193 H 0.36619 0.29318 0.95841 0.0
H1194 H 0.35347 0.22197 0.03615 0.0
H1195 H 0.36665 0.24693 0.01152 0.0
H1196 H 0.38997 0.22099 0.95256 0.0
C1197 C 0.39428 0.28307 0.90515 0.0
C1198 C 0.37169 0.27753 0.95707 0.0
C1199 C 0.40031 0.29825 0.89111 0.0
C1200 C 0.3547 0.21751 0.02018 0.0
C1201 C 0.36206 0.23191 0.006 0.0
C1202 C 0.38457 0.23668 0.95391 0.0
C1203 C 0.39267 0.28759 0.92624 0.0
C1204 C 0.38523 0.2719 0.94116 0.0
C1205 C 0.36365 0.22692 0.98503 0.0
C1206 C 0.37113 0.24238 0.96989 0.0
H1207 H 0.40729 0.33779 0.92482 0.0
H1208 H 0.39713 0.31137 0.94917 0.0
H1209 H 0.40213 0.24646 0.92781 0.0
H1210 H 0.34615 0.17767 0.98725 0.0
H1211 H 0.35863 0.20286 0.96254 0.0
C1212 C 0.7967 0.09347 0.61042 0.0
C1213 C 0.81758 0.09366 0.60481 0.0
C1214 C 0.78148 0.09867 0.59611 0.0
C1215 C 0.75438 0.12349 0.56719 0.0
H1216 H 0.76045 0.1095 0.50958 0.0
C1217 C 0.70694 0.16387 0.50429 0.0
C1218 C 0.7001 0.15222 0.48745 0.0
C1219 C 0.72058 0.15547 0.51859 0.0
C1220 C 0.75834 0.11336 0.52563 0.0
H1221 H 0.83876 0.09913 0.5796 0.0
H1222 H 0.81242 0.10854 0.55494 0.0
H1223 H 0.78479 0.09596 0.53456 0.0
H1224 H 0.70211 0.12252 0.47252 0.0
H1225 H 0.72576 0.10773 0.4976 0.0
H1226 H 0.72771 0.14057 0.55833 0.0
C1227 C 0.80768 0.10404 0.57024 0.0
C1228 C 0.77248 0.10579 0.53995 0.0
C1229 C 0.82284 0.09876 0.58448 0.0
C1230 C 0.70731 0.13198 0.48517 0.0
C1231 C 0.72087 0.12351 0.49957 0.0
C1232 C 0.74019 0.13098 0.55289 0.0
C1233 C 0.7868 0.10423 0.57588 0.0
C1234 C 0.77086 0.11099 0.56088 0.0
C1235 C 0.72764 0.13514 0.51651 0.0
C1236 C 0.74214 0.12625 0.53188 0.0
H1237 H 0.79211 0.08948 0.62592 0.0
H1238 H 0.76554 0.09836 0.60092 0.0
H1239 H 0.75272 0.12799 0.58313 0.0
H1240 H 0.70193 0.1796 0.5063 0.0
H1241 H 0.7258 0.16505 0.53116 0.0
C1242 C 0.64556 0.78489 0.01977 0.0
C1243 C 0.65161 0.80469 0.01358 0.0
C1244 C 0.63787 0.77082 0.00543 0.0
C1245 C 0.63721 0.76009 0.94948 0.0
H1246 H 0.59251 0.72328 0.96361 0.0
C1247 C 0.59977 0.70634 0.88948 0.0
C1248 C 0.59639 0.68594 0.89578 0.0
C1249 C 0.60523 0.72143 0.9038 0.0
C1250 C 0.6051 0.73337 0.95948 0.0
H1251 H 0.65356 0.82542 0.98755 0.0
H1252 H 0.64008 0.80103 0.96266 0.0
H1253 H 0.6046 0.7483 0.9888 0.0
H1254 H 0.59557 0.66559 0.92221 0.0
H1255 H 0.60512 0.69185 0.94706 0.0
H1256 H 0.63773 0.74514 0.92019 0.0
C1257 C 0.64172 0.79616 0.97849 0.0
C1258 C 0.61207 0.74768 0.97393 0.0
C1259 C 0.64947 0.81017 0.99279 0.0
C1260 C 0.59809 0.68113 0.91678 0.0
C1261 C 0.60345 0.69622 0.93108 0.0
C1262 C 0.6302 0.74584 0.93502 0.0
C1263 C 0.63596 0.77625 0.98457 0.0
C1264 C 0.62827 0.76118 0.96914 0.0
C1265 C 0.60731 0.7165 0.92474 0.0
C1266 C 0.61413 0.73223 0.93987 0.0
H1267 H 0.6472 0.78011 0.03561 0.0
H1268 H 0.63383 0.75553 0.01062 0.0
H1269 H 0.64995 0.76999 0.94536 0.0
H1270 H 0.59851 0.7106 0.87344 0.0
H1271 H 0.60785 0.73698 0.89846 0.0
C1272 C 0.49286 0.30937 0.15168 0.0
C1273 C 0.51368 0.30361 0.15274 0.0
C1274 C 0.47811 0.29588 0.14376 0.0
C1275 C 0.47246 0.24924 0.11149 0.0
H1276 H 0.41961 0.24453 0.13872 0.0
C1277 C 0.41733 0.1815 0.09728 0.0
C1278 C 0.39608 0.18539 0.09636 0.0
C1279 C 0.4311 0.19705 0.10264 0.0
C1280 C 0.43417 0.24588 0.13075 0.0
H1281 H 0.53523 0.27897 0.14645 0.0
H1282 H 0.50954 0.2554 0.13276 0.0
H1283 H 0.44483 0.26926 0.15128 0.0
H1284 H 0.37268 0.20889 0.09998 0.0
H1285 H 0.39685 0.23614 0.10939 0.0
H1286 H 0.46191 0.22561 0.09118 0.0
C1287 C 0.50465 0.27052 0.13773 0.0
C1288 C 0.44866 0.26005 0.13796 0.0
C1289 C 0.5194 0.28403 0.14561 0.0
C1290 C 0.38895 0.20536 0.10059 0.0
C1291 C 0.40278 0.22094 0.10609 0.0
C1292 C 0.45801 0.23505 0.10432 0.0
C1293 C 0.48381 0.27627 0.13671 0.0
C1294 C 0.46807 0.26176 0.12855 0.0
C1295 C 0.42401 0.21691 0.10729 0.0
C1296 C 0.43877 0.23304 0.114 0.0
H1297 H 0.48794 0.32445 0.15668 0.0
H1298 H 0.46227 0.30096 0.14291 0.0
H1299 H 0.48709 0.25043 0.10361 0.0
H1300 H 0.42339 0.16633 0.09409 0.0
H1301 H 0.44731 0.19334 0.10367 0.0
C1302 C 0.41488 0.82508 0.89518 0.0
C1303 C 0.39495 0.81955 0.90149 0.0
C1304 C 0.42941 0.81006 0.89026 0.0
C1305 C 0.46074 0.77564 0.89031 0.0
H1306 H 0.44341 0.72913 0.85737 0.0
C1307 C 0.517 0.71078 0.86632 0.0
C1308 C 0.51519 0.70332 0.84612 0.0
C1309 C 0.50221 0.72415 0.87444 0.0
C1310 C 0.44853 0.74208 0.86649 0.0
H1311 H 0.37482 0.79377 0.90796 0.0
H1312 H 0.40033 0.76746 0.89947 0.0
H1313 H 0.41793 0.7539 0.8693 0.0
H1314 H 0.49661 0.70455 0.81848 0.0
H1315 H 0.47098 0.72789 0.83252 0.0
H1316 H 0.49143 0.76422 0.88692 0.0
C1317 C 0.40459 0.7835 0.89811 0.0
C1318 C 0.43387 0.75614 0.87356 0.0
C1319 C 0.39001 0.79857 0.90307 0.0
C1320 C 0.49832 0.7097 0.8342 0.0
C1321 C 0.48357 0.72307 0.84229 0.0
C1322 C 0.4754 0.76158 0.88324 0.0
C1323 C 0.42445 0.78908 0.89153 0.0
C1324 C 0.43982 0.77325 0.88533 0.0
C1325 C 0.48526 0.73041 0.86254 0.0
C1326 C 0.46953 0.74476 0.87101 0.0
H1327 H 0.41926 0.84107 0.89374 0.0
H1328 H 0.44442 0.81496 0.88495 0.0
H1329 H 0.46584 0.78849 0.89957 0.0
H1330 H 0.52962 0.70597 0.87604 0.0
H1331 H 0.50388 0.72932 0.89017 0.0
C1332 C 0.20823 0.98316 0.63087 0.0
C1333 C 0.20039 0.98551 0.65086 0.0
C1334 C 0.22173 0.99775 0.62264 0.0
C1335 C 0.23975 0.05154 0.63021 0.0
H1336 H 0.28573 0.03388 0.59667 0.0
C1337 C 0.32288 0.08443 0.60081 0.0
C1338 C 0.31749 0.10471 0.59567 0.0
C1339 C 0.30777 0.06993 0.60546 0.0
C1340 C 0.27303 0.03908 0.60609 0.0
H1341 H 0.20108 0.00465 0.67809 0.0
H1342 H 0.22487 0.02982 0.66399 0.0
H1343 H 0.26144 0.00851 0.60957 0.0
H1344 H 0.29186 0.12546 0.5907 0.0
H1345 H 0.26538 0.09999 0.59845 0.0
H1346 H 0.25184 0.08198 0.62751 0.0
C1347 C 0.22017 0.01707 0.65438 0.0
C1348 C 0.25893 0.02454 0.61329 0.0
C1349 C 0.20657 0.00259 0.66253 0.0
C1350 C 0.29655 0.11001 0.59475 0.0
C1351 C 0.28138 0.09542 0.5993 0.0
C1352 C 0.25391 0.06606 0.62311 0.0
C1353 C 0.22782 0.01495 0.63427 0.0
C1354 C 0.24224 0.03054 0.62566 0.0
C1355 C 0.28681 0.07525 0.60495 0.0
C1356 C 0.27089 0.06 0.61117 0.0
H1357 H 0.20354 0.97031 0.62141 0.0
H1358 H 0.22711 0.99573 0.60702 0.0
H1359 H 0.22689 0.05679 0.63938 0.0
H1360 H 0.33886 0.0798 0.60173 0.0
H1361 H 0.31259 0.05468 0.61005 0.0
C1362 C 0.50823 0.31144 0.85088 0.0
C1363 C 0.48734 0.30594 0.84972 0.0
C1364 C 0.52282 0.29767 0.8586 0.0
C1365 C 0.52801 0.25048 0.89017 0.0
H1366 H 0.58086 0.24579 0.86292 0.0
C1367 C 0.58307 0.18247 0.90401 0.0
C1368 C 0.60433 0.18632 0.90484 0.0
C1369 C 0.56929 0.19806 0.89875 0.0
C1370 C 0.5663 0.24712 0.8709 0.0
H1371 H 0.46552 0.28146 0.85564 0.0
H1372 H 0.49094 0.25739 0.869 0.0
H1373 H 0.55579 0.27082 0.85064 0.0
H1374 H 0.62773 0.20981 0.90123 0.0
H1375 H 0.60356 0.23712 0.89203 0.0
H1376 H 0.53843 0.22656 0.91023 0.0
C1377 C 0.496 0.27252 0.86426 0.0
C1378 C 0.5519 0.26147 0.86385 0.0
C1379 C 0.4814 0.28632 0.85656 0.0
C1380 C 0.61145 0.2063 0.90066 0.0
C1381 C 0.59762 0.22192 0.89529 0.0
C1382 C 0.54239 0.23612 0.89718 0.0
C1383 C 0.51691 0.27801 0.86535 0.0
C1384 C 0.5325 0.26321 0.87329 0.0
C1385 C 0.57638 0.21792 0.89413 0.0
C1386 C 0.56163 0.23412 0.88751 0.0
H1387 H 0.51333 0.32653 0.8461 0.0
H1388 H 0.53872 0.30254 0.85953 0.0
H1389 H 0.51339 0.25167 0.89806 0.0
H1390 H 0.57701 0.16728 0.90716 0.0
H1391 H 0.55307 0.19437 0.89777 0.0
C1392 C 0.79547 0.01446 0.63345 0.0
C1393 C 0.80453 0.01167 0.65287 0.0
C1394 C 0.78167 0.99994 0.62561 0.0
C1395 C 0.76436 0.94584 0.63217 0.0
H1396 H 0.71594 0.96491 0.60313 0.0
C1397 C 0.67957 0.91391 0.60625 0.0
C1398 C 0.68472 0.89434 0.59869 0.0
C1399 C 0.69487 0.9281 0.61127 0.0
C1400 C 0.72933 0.95931 0.61129 0.0
H1401 H 0.8059 0.99154 0.67937 0.0
H1402 H 0.7817 0.96638 0.66586 0.0
H1403 H 0.74103 0.98973 0.61553 0.0
H1404 H 0.71012 0.87448 0.59013 0.0
H1405 H 0.7369 0.89942 0.59868 0.0
H1406 H 0.75225 0.91546 0.62857 0.0
C1407 C 0.78559 0.97955 0.65646 0.0
C1408 C 0.74387 0.97355 0.61819 0.0
C1409 C 0.79944 0.99402 0.66425 0.0
C1410 C 0.70561 0.8894 0.59598 0.0
C1411 C 0.72096 0.90366 0.60099 0.0
C1412 C 0.74978 0.93159 0.6253 0.0
C1413 C 0.77652 0.98231 0.63702 0.0
C1414 C 0.76148 0.96703 0.6289 0.0
C1415 C 0.71577 0.92315 0.60882 0.0
C1416 C 0.73196 0.93816 0.61497 0.0
H1417 H 0.7993 0.02769 0.62413 0.0
H1418 H 0.77525 0.00243 0.61046 0.0
H1419 H 0.77788 0.94023 0.6401 0.0
H1420 H 0.66366 0.91825 0.60861 0.0
H1421 H 0.69027 0.94281 0.61756 0.0
C1422 C 0.48723 0.70578 0.13273 0.0
C1423 C 0.48945 0.69757 0.15258 0.0
C1424 C 0.50184 0.71949 0.12485 0.0
C1425 C 0.55537 0.73832 0.13307 0.0
H1426 H 0.53666 0.78462 0.10061 0.0
C1427 C 0.58603 0.82278 0.10456 0.0
C1428 C 0.60625 0.81803 0.09852 0.0
C1429 C 0.57215 0.80723 0.10963 0.0
C1430 C 0.54217 0.77184 0.10974 0.0
H1431 H 0.50857 0.6976 0.17984 0.0
H1432 H 0.53379 0.72174 0.16634 0.0
H1433 H 0.51185 0.75954 0.11295 0.0
H1434 H 0.6276 0.79307 0.0928 0.0
H1435 H 0.60318 0.76581 0.10139 0.0
H1436 H 0.58559 0.75114 0.13056 0.0
C1437 C 0.52108 0.71723 0.15659 0.0
C1438 C 0.52794 0.75727 0.11661 0.0
C1439 C 0.50656 0.70343 0.16439 0.0
C1440 C 0.61217 0.79727 0.09746 0.0
C1441 C 0.59819 0.78165 0.10249 0.0
C1442 C 0.5696 0.75296 0.12628 0.0
C1443 C 0.51895 0.72543 0.1367 0.0
C1444 C 0.5343 0.74042 0.12856 0.0
C1445 C 0.57801 0.78645 0.10871 0.0
C1446 C 0.56315 0.77006 0.11474 0.0
H1447 H 0.47441 0.70133 0.12312 0.0
H1448 H 0.49982 0.72521 0.10936 0.0
H1449 H 0.5609 0.72537 0.14195 0.0
H1450 H 0.58092 0.83858 0.10566 0.0
H1451 H 0.5569 0.81158 0.11471 0.0
C1452 C 0.20442 0.99833 0.33814 0.0
C1453 C 0.19829 0.01527 0.35005 0.0
C1454 C 0.21815 0.98379 0.34602 0.0
C1455 C 0.25743 0.97667 0.38675 0.0
H1456 H 0.25181 0.9192 0.37202 0.0
C1457 C 0.29689 0.89218 0.40567 0.0
C1458 C 0.3177 0.89803 0.4052 0.0
C1459 C 0.28144 0.90632 0.40063 0.0
C1460 C 0.25347 0.93513 0.37653 0.0
H1461 H 0.20141 0.02996 0.37976 0.0
H1462 H 0.22512 0.00449 0.39367 0.0
H1463 H 0.22624 0.9439 0.36031 0.0
H1464 H 0.33854 0.9234 0.39925 0.0
H1465 H 0.31181 0.94775 0.39011 0.0
H1466 H 0.28439 0.96785 0.40335 0.0
C1467 C 0.21971 0.00265 0.37804 0.0
C1468 C 0.23895 0.94938 0.36955 0.0
C1469 C 0.2061 0.01727 0.37008 0.0
C1470 C 0.32267 0.91836 0.39988 0.0
C1471 C 0.30729 0.93242 0.39475 0.0
C1472 C 0.27187 0.96241 0.39384 0.0
C1473 C 0.22597 0.98573 0.36609 0.0
C1474 C 0.24087 0.97038 0.37435 0.0
C1475 C 0.28647 0.92659 0.39493 0.0
C1476 C 0.27025 0.9415 0.3886 0.0
H1477 H 0.19889 0.99651 0.32257 0.0
H1478 H 0.22292 0.97122 0.33621 0.0
H1479 H 0.25955 0.99271 0.39064 0.0
H1480 H 0.29252 0.87666 0.40982 0.0
H1481 H 0.26556 0.90136 0.40123 0.0
C1482 C 0.7821 0.98121 0.35497 0.0
C1483 C 0.80127 0.9879 0.34754 0.0
C1484 C 0.7679 0.99531 0.36288 0.0
C1485 C 0.76341 0.04771 0.38447 0.0
H1486 H 0.70649 0.04319 0.36739 0.0
C1487 C 0.70308 0.11162 0.40005 0.0
C1488 C 0.68288 0.10539 0.4046 0.0
C1489 C 0.71791 0.09715 0.39416 0.0
C1490 C 0.72225 0.04454 0.37258 0.0
H1491 H 0.82074 0.01461 0.34321 0.0
H1492 H 0.79594 0.03918 0.3568 0.0
H1493 H 0.73146 0.018 0.35545 0.0
H1494 H 0.66268 0.07897 0.4073 0.0
H1495 H 0.68853 0.05386 0.3975 0.0
H1496 H 0.75419 0.07424 0.40166 0.0
C1497 C 0.79189 0.02303 0.35655 0.0
C1498 C 0.73658 0.03008 0.3657 0.0
C1499 C 0.80602 0.00897 0.34853 0.0
C1500 C 0.67802 0.08436 0.40369 0.0
C1501 C 0.69284 0.06993 0.39793 0.0
C1502 C 0.74905 0.06214 0.39145 0.0
C1503 C 0.77261 0.0164 0.36369 0.0
C1504 C 0.75733 0.03152 0.37151 0.0
C1505 C 0.7129 0.07614 0.39279 0.0
C1506 C 0.72828 0.06075 0.38557 0.0
H1507 H 0.77793 0.96512 0.35434 0.0
H1508 H 0.75324 0.98969 0.36844 0.0
H1509 H 0.77925 0.04911 0.38941 0.0
H1510 H 0.70732 0.12771 0.40059 0.0
H1511 H 0.73316 0.10252 0.39015 0.0
C1512 C 0.96603 0.34341 0.93628 0.0
C1513 C 0.95844 0.36061 0.92565 0.0
C1514 C 0.97814 0.34585 0.95377 0.0
C1515 C 0.99007 0.38055 0.9961 0.0
H1516 H 0.03883 0.34655 1.00095 0.0
C1517 C 0.04331 0.38134 0.06825 0.0
C1518 C 0.05008 0.36193 0.07495 0.0
C1519 C 0.03315 0.38346 0.04936 0.0
C1520 C 0.02519 0.35606 0.99992 0.0
H1521 H 0.9575 0.39389 0.92512 0.0
H1522 H 0.97865 0.39819 0.95613 0.0
H1523 H 0.01905 0.34613 0.9692 0.0
H1524 H 0.05065 0.32944 0.06745 0.0
H1525 H 0.03304 0.33308 0.03483 0.0
H1526 H 0.9959 0.38997 0.02714 0.0
C1527 C 0.97515 0.38283 0.95076 0.0
C1528 C 0.01391 0.35586 0.9817 0.0
C1529 C 0.96317 0.38038 0.93301 0.0
C1530 C 0.04618 0.3447 0.06252 0.0
C1531 C 0.03606 0.3468 0.04376 0.0
C1532 C 1.00134 0.38066 0.01446 0.0
C1533 C 0.9829 0.36555 0.96119 0.0
C1534 C 0.99598 0.36772 0.97975 0.0
C1535 C 0.02953 0.36619 0.03684 0.0
C1536 C 0.01876 0.36801 0.01674 0.0
H1537 H 0.9629 0.32799 0.93084 0.0
H1538 H 0.98371 0.33225 0.96161 0.0
H1539 H 0.97626 0.3898 0.99502 0.0
H1540 H 0.04611 0.3949 0.07748 0.0
H1541 H 0.02839 0.39863 0.04443 0.0
C1542 C 0.86806 0.47925 0.42379 0.0
C1543 C 0.86585 0.45776 0.42435 0.0
C1544 C 0.87046 0.49049 0.44195 0.0
C1545 C 0.88352 0.4859 0.49725 0.0
H1546 H 0.84965 0.53466 0.50259 0.0
C1547 C 0.86644 0.52434 0.57551 0.0
C1548 C 0.86458 0.54586 0.57626 0.0
C1549 C 0.86907 0.51422 0.55674 0.0
C1550 C 0.85949 0.5213 0.50128 0.0
H1551 H 0.8653 0.43116 0.44442 0.0
H1552 H 0.86925 0.45078 0.47613 0.0
H1553 H 0.85005 0.51589 0.47027 0.0
H1554 H 0.86492 0.57367 0.55792 0.0
H1555 H 0.86968 0.55604 0.52516 0.0
H1556 H 0.89277 0.4912 0.52838 0.0
C1557 C 0.86923 0.45895 0.46163 0.0
C1558 C 0.85971 0.51051 0.48271 0.0
C1559 C 0.86677 0.44772 0.44347 0.0
C1560 C 0.86601 0.55706 0.55784 0.0
C1561 C 0.8687 0.54694 0.53906 0.0
C1562 C 0.88335 0.49673 0.51583 0.0
C1563 C 0.87075 0.48051 0.46111 0.0
C1564 C 0.87157 0.49257 0.48052 0.0
C1565 C 0.86994 0.52537 0.53824 0.0
C1566 C 0.87117 0.51447 0.51814 0.0
H1567 H 0.86721 0.48751 0.40936 0.0
H1568 H 0.87182 0.50705 0.44099 0.0
H1569 H 0.89303 0.47229 0.49597 0.0
H1570 H 0.8651 0.51522 0.58937 0.0
H1571 H 0.86966 0.49759 0.55669 0.0
C1572 C 0.02657 0.65816 0.93166 0.0
C1573 C 0.03686 0.64144 0.92267 0.0
C1574 C 0.01429 0.65542 0.949 0.0
C1575 C 0.00666 0.62199 0.99359 0.0
H1576 H 0.95586 0.65284 0.99852 0.0
C1577 C 0.95584 0.62173 0.0675 0.0
C1578 C 0.94913 0.64128 0.07391 0.0
C1579 C 0.96515 0.6191 0.04824 0.0
C1580 C 0.97003 0.64416 0.99741 0.0
H1581 H 0.04208 0.60861 0.92465 0.0
H1582 H 0.02047 0.60376 0.95524 0.0
H1583 H 0.97441 0.65276 0.966 0.0
H1584 H 0.94769 0.67348 0.06524 0.0
H1585 H 0.96352 0.66884 0.03183 0.0
H1586 H 0.00246 0.61382 0.02526 0.0
C1587 C 0.02207 0.61903 0.94881 0.0
C1588 C 0.98066 0.6441 0.97878 0.0
C1589 C 0.03431 0.62177 0.93126 0.0
C1590 C 0.95208 0.6581 0.06065 0.0
C1591 C 0.96123 0.65545 0.04145 0.0
C1592 C 0.99599 0.62204 0.01231 0.0
C1593 C 0.01194 0.63587 0.95786 0.0
C1594 C 0.99938 0.6335 0.9768 0.0
C1595 C 0.96783 0.63594 0.03496 0.0
C1596 C 0.97785 0.6336 0.01456 0.0
H1597 H 0.02798 0.67346 0.92524 0.0
H1598 H 0.00692 0.66876 0.95572 0.0
H1599 H 0.02111 0.61375 0.99258 0.0
H1600 H 0.95372 0.60843 0.07728 0.0
H1601 H 0.97002 0.60386 0.04363 0.0
C1602 C 0.1345 0.44843 0.5587 0.0
C1603 C 0.13506 0.45854 0.57779 0.0
C1604 C 0.1319 0.45955 0.54048 0.0
C1605 C 0.14039 0.51132 0.51942 0.0
H1606 H 0.10823 0.4913 0.47342 0.0
C1607 C 0.13373 0.55805 0.44457 0.0
C1608 C 0.13574 0.54702 0.42611 0.0
C1609 C 0.13094 0.54774 0.46322 0.0
C1610 C 0.1174 0.49703 0.48607 0.0
H1611 H 0.13289 0.48831 0.59267 0.0
H1612 H 0.12801 0.50763 0.56097 0.0
H1613 H 0.10819 0.4723 0.5058 0.0
H1614 H 0.13601 0.51649 0.41275 0.0
H1615 H 0.1313 0.49851 0.44525 0.0
H1616 H 0.14999 0.53577 0.4997 0.0
C1617 C 0.12978 0.4911 0.56006 0.0
C1618 C 0.11736 0.48614 0.50463 0.0
C1619 C 0.13233 0.47998 0.57827 0.0
C1620 C 0.13424 0.52547 0.42665 0.0
C1621 C 0.13153 0.51515 0.44531 0.0
C1622 C 0.14048 0.52216 0.50089 0.0
C1623 C 0.12988 0.48107 0.54093 0.0
C1624 C 0.12897 0.49309 0.52148 0.0
C1625 C 0.13019 0.52614 0.46388 0.0
C1626 C 0.1291 0.5151 0.48392 0.0
H1627 H 0.13637 0.43191 0.55781 0.0
H1628 H 0.13219 0.45135 0.526 0.0
H1629 H 0.14981 0.51691 0.53195 0.0
H1630 H 0.13452 0.57468 0.44463 0.0
H1631 H 0.12956 0.55672 0.47716 0.0
C1632 C 0.93203 0.97565 0.34423 0.0
C1633 C 0.92257 0.96557 0.36082 0.0
C1634 C 0.94954 0.98761 0.34725 0.0
C1635 C 0.99388 0.99448 0.38109 0.0
H1636 H 0.99947 0.04561 0.35097 0.0
C1637 C 0.06836 0.04475 0.38214 0.0
C1638 C 0.07466 0.05195 0.36274 0.0
C1639 C 0.04909 0.03534 0.38461 0.0
C1640 C 0.99819 0.03134 0.35944 0.0
H1641 H 0.92392 0.96032 0.39366 0.0
H1642 H 0.95488 0.98133 0.39899 0.0
H1643 H 0.96675 0.02741 0.35063 0.0
H1644 H 0.06597 0.05397 0.33059 0.0
H1645 H 0.03262 0.0379 0.33493 0.0
H1646 H 0.02559 0.99821 0.38941 0.0
C1647 C 0.94864 0.97984 0.38363 0.0
C1648 C 0.97943 0.02093 0.35927 0.0
C1649 C 0.93089 0.96796 0.38062 0.0
C1650 C 0.06142 0.04921 0.34588 0.0
C1651 C 0.04226 0.03994 0.34835 0.0
C1652 C 0.01273 0.00493 0.38124 0.0
C1653 C 0.95813 0.9898 0.36694 0.0
C1654 C 0.97721 0.0021 0.3696 0.0
C1655 C 0.03577 0.03302 0.36774 0.0
C1656 C 0.01523 0.02318 0.36993 0.0
H1657 H 0.92583 0.97432 0.32884 0.0
H1658 H 0.9566 0.99487 0.33403 0.0
H1659 H 0.99265 0.97996 0.38913 0.0
H1660 H 0.07816 0.04666 0.39545 0.0
H1661 H 0.0445 0.03018 0.39976 0.0
C1662 C 0.54442 0.43775 0.1584 0.0
C1663 C 0.54897 0.42567 0.14108 0.0
C1664 C 0.53413 0.45643 0.15633 0.0
C1665 C 0.50049 0.48621 0.12157 0.0
H1666 H 0.51621 0.53085 0.15781 0.0
C1667 C 0.46314 0.56811 0.12079 0.0
C1668 C 0.45727 0.57529 0.14032 0.0
C1669 C 0.47491 0.55015 0.11885 0.0
C1670 C 0.51162 0.51851 0.14761 0.0
H1671 H 0.54604 0.42368 0.10797 0.0
H1672 H 0.52813 0.45663 0.10428 0.0
H1673 H 0.5361 0.49916 0.15782 0.0
H1674 H 0.45941 0.5695 0.17307 0.0
H1675 H 0.4799 0.53838 0.16968 0.0
H1676 H 0.47593 0.50583 0.11143 0.0
C1677 C 0.53244 0.45148 0.1195 0.0
C1678 C 0.52296 0.50031 0.14765 0.0
C1679 C 0.54272 0.43264 0.1216 0.0
C1680 C 0.46343 0.56422 0.1578 0.0
C1681 C 0.47536 0.54651 0.15588 0.0
C1682 C 0.4892 0.50457 0.12141 0.0
C1683 C 0.52813 0.46365 0.13687 0.0
C1684 C 0.51725 0.48372 0.13504 0.0
C1685 C 0.48133 0.53933 0.13642 0.0
C1686 C 0.49438 0.52069 0.13481 0.0
H1687 H 0.54851 0.43259 0.17368 0.0
H1688 H 0.53058 0.46507 0.1701 0.0
H1689 H 0.49559 0.47371 0.11173 0.0
H1690 H 0.45857 0.57634 0.10706 0.0
H1691 H 0.47936 0.54496 0.10367 0.0
C1692 C 0.06976 0.96088 0.62168 0.0
C1693 C 0.0775 0.95608 0.64128 0.0
C1694 C 0.05191 0.97282 0.61961 0.0
C1695 C 0.02107 0.0112 0.6474 0.0
H1696 H 0.97562 0.99371 0.61304 0.0
C1697 C 0.94018 0.04384 0.65849 0.0
C1698 C 0.92779 0.04777 0.64124 0.0
C1699 C 0.95895 0.03368 0.65644 0.0
C1700 C 0.98829 0.99901 0.62244 0.0
H1701 H 0.07286 0.96035 0.67401 0.0
H1702 H 0.0419 0.98104 0.6704 0.0
H1703 H 0.00774 0.97406 0.61296 0.0
H1704 H 0.9254 0.04391 0.60824 0.0
H1705 H 0.95845 0.02615 0.6046 0.0
H1706 H 0.00183 0.03602 0.65701 0.0
C1707 C 0.04952 0.97559 0.65664 0.0
C1708 C 0.00666 0.98773 0.62241 0.0
C1709 C 0.06714 0.96353 0.6587 0.0
C1710 C 0.93457 0.04106 0.62184 0.0
C1711 C 0.95348 0.03087 0.61976 0.0
C1712 C 0.00284 0.0225 0.64734 0.0
C1713 C 0.04173 0.98044 0.6371 0.0
C1714 C 0.02305 0.99345 0.63528 0.0
C1715 C 0.96593 0.02716 0.63706 0.0
C1716 C 0.98602 0.01628 0.63527 0.0
H1717 H 0.07743 0.95531 0.60799 0.0
H1718 H 0.04627 0.97637 0.60436 0.0
H1719 H 0.03359 0.01622 0.65717 0.0
H1720 H 0.93519 0.04827 0.67374 0.0
H1721 H 0.96783 0.0306 0.67017 0.0
C1722 C 0.53649 0.56817 0.84049 0.0
C1723 C 0.54282 0.57959 0.85768 0.0
C1724 C 0.52632 0.54948 0.84291 0.0
C1725 C 0.49625 0.51801 0.87924 0.0
H1726 H 0.51114 0.47446 0.84134 0.0
C1727 C 0.4609 0.43525 0.88072 0.0
C1728 C 0.45453 0.42799 0.86138 0.0
C1729 C 0.47232 0.45348 0.88232 0.0
C1730 C 0.50676 0.48649 0.852 0.0
H1731 H 0.54287 0.5806 0.89097 0.0
H1732 H 0.52503 0.54765 0.89525 0.0
H1733 H 0.52986 0.50682 0.84057 0.0
H1734 H 0.45549 0.43394 0.82859 0.0
H1735 H 0.4752 0.46554 0.83139 0.0
H1736 H 0.47299 0.49747 0.89053 0.0
C1737 C 0.52796 0.5533 0.87988 0.0
C1738 C 0.51745 0.50506 0.85154 0.0
C1739 C 0.53817 0.57214 0.87743 0.0
C1740 C 0.45988 0.43925 0.84374 0.0
C1741 C 0.47139 0.45725 0.84532 0.0
C1742 C 0.48557 0.4993 0.87977 0.0
C1743 C 0.52218 0.54162 0.86261 0.0
C1744 C 0.51201 0.52125 0.86477 0.0
C1745 C 0.47784 0.46453 0.86459 0.0
C1746 C 0.49041 0.48355 0.8658 0.0
H1747 H 0.53932 0.57373 0.82506 0.0
H1748 H 0.52158 0.5412 0.82927 0.0
H1749 H 0.49164 0.5302 0.88961 0.0
H1750 H 0.45697 0.4269 0.89457 0.0
H1751 H 0.47715 0.45872 0.89736 0.0
C1752 C 0.36933 0.07423 0.02646 0.0
C1753 C 0.36841 0.07521 0.04802 0.0
C1754 C 0.37226 0.05542 0.01648 0.0
C1755 C 0.36539 0.99965 0.02488 0.0
H1756 H 0.39497 0.99536 0.97331 0.0
C1757 C 0.37213 0.92267 0.98124 0.0
C1758 C 0.36727 0.92365 0.96021 0.0
C1759 C 0.37544 0.94068 0.99253 0.0
C1760 C 0.38662 0.99634 0.98768 0.0
H1761 H 0.3708 0.05735 0.07603 0.0
H1762 H 0.37625 0.02455 0.05865 0.0
H1763 H 0.39525 0.02776 0.99223 0.0
H1764 H 0.36307 0.9442 0.93434 0.0
H1765 H 0.3688 0.9756 0.95401 0.0
H1766 H 0.35661 0.96829 0.02022 0.0
C1767 C 0.37423 0.03825 0.04941 0.0
C1768 C 0.38673 0.01492 0.99851 0.0
C1769 C 0.37117 0.05705 0.05939 0.0
C1770 C 0.36662 0.94297 0.95055 0.0
C1771 C 0.37008 0.96094 0.96179 0.0
C1772 C 0.36539 0.98105 0.01412 0.0
C1773 C 0.37445 0.03713 0.02781 0.0
C1774 C 0.37584 0.01692 0.0171 0.0
C1775 C 0.37413 0.96004 0.98299 0.0
C1776 C 0.37574 0.97927 0.99524 0.0
H1777 H 0.36694 0.08788 0.01724 0.0
H1778 H 0.372 0.05516 0.99985 0.0
H1779 H 0.35655 1.00066 0.03895 0.0
H1780 H 0.37259 0.90803 0.98915 0.0
H1781 H 0.37872 0.93947 0.0088 0.0
C1782 C 0.44028 0.15821 0.54843 0.0
C1783 C 0.42746 0.14115 0.55183 0.0
C1784 C 0.45917 0.15594 0.53856 0.0
C1785 C 0.48823 0.12216 0.50356 0.0
H1786 H 0.53398 0.15559 0.52214 0.0
C1787 C 0.5697 0.12173 0.46547 0.0
C1788 C 0.5774 0.14144 0.46108 0.0
C1789 C 0.55198 0.11937 0.47753 0.0
C1790 C 0.52134 0.14617 0.51676 0.0
H1791 H 0.42443 0.10829 0.5473 0.0
H1792 H 0.45768 0.10427 0.52999 0.0
H1793 H 0.50204 0.15539 0.54168 0.0
H1794 H 0.57291 0.17405 0.46627 0.0
H1795 H 0.54219 0.16995 0.48724 0.0
H1796 H 0.50771 0.11313 0.47848 0.0
C1797 C 0.45296 0.11945 0.53495 0.0
C1798 C 0.50302 0.14609 0.52791 0.0
C1799 C 0.43394 0.12174 0.54486 0.0
C1800 C 0.5672 0.15868 0.46915 0.0
C1801 C 0.54973 0.15632 0.48135 0.0
C1802 C 0.50669 0.12215 0.49244 0.0
C1803 C 0.46584 0.13654 0.53178 0.0
C1804 C 0.48603 0.13454 0.52116 0.0
C1805 C 0.54192 0.13667 0.4857 0.0
C1806 C 0.52323 0.13458 0.49865 0.0
H1807 H 0.43555 0.17348 0.55307 0.0
H1808 H 0.4684 0.16954 0.5359 0.0
H1809 H 0.47543 0.11317 0.49787 0.0
H1810 H 0.57727 0.10819 0.45942 0.0
H1811 H 0.54631 0.10404 0.4807 0.0
C1812 C 0.63075 0.05787 0.94283 0.0
C1813 C 0.63322 0.07636 0.95372 0.0
C1814 C 0.62816 0.03926 0.95328 0.0
C1815 C 0.61574 0.01678 0.00442 0.0
H1816 H 0.64737 0.9705 0.98419 0.0
C1817 C 0.63363 0.94473 0.05349 0.0
C1818 C 0.63399 0.92549 0.04366 0.0
C1819 C 0.63082 0.96279 0.04216 0.0
C1820 C 0.63817 0.98315 0.9899 0.0
H1821 H 0.63461 0.08977 0.98421 0.0
H1822 H 0.63016 0.05738 0.00241 0.0
H1823 H 0.64726 0.00259 0.96502 0.0
H1824 H 0.63123 0.91018 0.01417 0.0
H1825 H 0.62597 0.94161 0.99449 0.0
H1826 H 0.60701 0.99737 0.02956 0.0
C1827 C 0.62989 0.05726 0.98577 0.0
C1828 C 0.63809 0.00158 0.97887 0.0
C1829 C 0.63243 0.07587 0.97531 0.0
C1830 C 0.63083 0.9247 0.02229 0.0
C1831 C 0.62807 0.94275 0.01096 0.0
C1832 C 0.61584 0.99833 0.01548 0.0
C1833 C 0.62803 0.03867 0.9749 0.0
C1834 C 0.62702 0.0187 0.98607 0.0
C1835 C 0.62837 0.96204 0.0207 0.0
C1836 C 0.6272 0.98134 0.00844 0.0
H1837 H 0.63099 0.05775 0.92619 0.0
H1838 H 0.6264 0.02529 0.94441 0.0
H1839 H 0.6068 0.02956 0.01027 0.0
H1840 H 0.63582 0.94587 0.06995 0.0
H1841 H 0.63128 0.97738 0.05015 0.0
C1842 C 0.43513 0.88306 0.45699 0.0
C1843 C 0.42904 0.86365 0.4496 0.0
C1844 C 0.45424 0.8856 0.46667 0.0
C1845 C 0.50524 0.86068 0.47155 0.0
H1846 H 0.50955 0.89023 0.52312 0.0
C1847 C 0.57055 0.84576 0.5283 0.0
C1848 C 0.57978 0.86239 0.53851 0.0
C1849 C 0.55314 0.84867 0.51616 0.0
C1850 C 0.50867 0.88222 0.50856 0.0
H1851 H 0.43803 0.83158 0.44746 0.0
H1852 H 0.47111 0.83605 0.464 0.0
H1853 H 0.47698 0.89038 0.5042 0.0
H1854 H 0.57809 0.89521 0.54383 0.0
H1855 H 0.5473 0.90035 0.52251 0.0
H1856 H 0.53665 0.85204 0.47609 0.0
C1857 C 0.46142 0.84942 0.46191 0.0
C1858 C 0.49003 0.88231 0.49772 0.0
C1859 C 0.4424 0.84688 0.45236 0.0
C1860 C 0.57129 0.88212 0.53612 0.0
C1861 C 0.55364 0.88503 0.52404 0.0
C1862 C 0.52378 0.86057 0.48235 0.0
C1863 C 0.46765 0.8688 0.4691 0.0
C1864 C 0.48797 0.87105 0.47938 0.0
C1865 C 0.54443 0.8683 0.5139 0.0
C1866 C 0.52556 0.87086 0.50125 0.0
H1867 H 0.42525 0.89632 0.45506 0.0
H1868 H 0.45864 0.90074 0.47201 0.0
H1869 H 0.50432 0.85225 0.45722 0.0
H1870 H 0.57688 0.83041 0.52959 0.0
H1871 H 0.54629 0.83541 0.50877 0.0
C1872 C 0.09686 0.26832 0.19385 0.0
C1873 C 0.09794 0.28956 0.19761 0.0
C1874 C 0.10344 0.25424 0.20857 0.0
C1875 C 0.11198 0.24708 0.26357 0.0
H1876 H 0.1441 0.20026 0.24528 0.0
C1877 C 0.14081 0.18389 0.31952 0.0
C1878 C 0.13929 0.16347 0.31259 0.0
C1879 C 0.13731 0.20032 0.3061 0.0
C1880 C 0.13499 0.21314 0.25063 0.0
H1881 H 0.10659 0.3127 0.21996 0.0
H1882 H 0.11801 0.28786 0.24601 0.0
H1883 H 0.1353 0.22734 0.22099 0.0
H1884 H 0.13258 0.14438 0.28612 0.0
H1885 H 0.12638 0.17291 0.2628 0.0
H1886 H 0.11125 0.23259 0.29313 0.0
C1887 C 0.11205 0.28223 0.23152 0.0
C1888 C 0.13001 0.22869 0.23672 0.0
C1889 C 0.10558 0.29642 0.21662 0.0
C1890 C 0.13423 0.15988 0.29191 0.0
C1891 C 0.13069 0.17628 0.27852 0.0
C1892 C 0.1169 0.23143 0.27752 0.0
C1893 C 0.1112 0.26099 0.22753 0.0
C1894 C 0.11814 0.24564 0.24293 0.0
C1895 C 0.13219 0.19672 0.28543 0.0
C1896 C 0.12816 0.21409 0.2711 0.0
H1897 H 0.09103 0.26245 0.17941 0.0
H1898 H 0.10226 0.23799 0.20517 0.0
H1899 H 0.10269 0.25988 0.26876 0.0
H1900 H 0.14496 0.18721 0.33527 0.0
H1901 H 0.13886 0.21586 0.31187 0.0
C1902 C 0.76659 0.40509 0.30996 0.0
C1903 C 0.78784 0.40369 0.30629 0.0
C1904 C 0.75246 0.3984 0.29531 0.0
C1905 C 0.74557 0.38921 0.24034 0.0
H1906 H 0.6979 0.35836 0.25861 0.0
C1907 C 0.6826 0.36062 0.18402 0.0
C1908 C 0.66209 0.36244 0.19066 0.0
C1909 C 0.6989 0.36412 0.19761 0.0
C1910 C 0.71101 0.36713 0.25326 0.0
H1911 H 0.81095 0.39428 0.28419 0.0
H1912 H 0.78605 0.3827 0.25829 0.0
H1913 H 0.72489 0.36702 0.28307 0.0
H1914 H 0.64271 0.3697 0.21678 0.0
H1915 H 0.67102 0.37594 0.2404 0.0
H1916 H 0.73144 0.38974 0.21062 0.0
C1917 C 0.78044 0.38898 0.27264 0.0
C1918 C 0.72651 0.37202 0.26727 0.0
C1919 C 0.79467 0.39553 0.28747 0.0
C1920 C 0.65828 0.36783 0.21122 0.0
C1921 C 0.67455 0.37138 0.22478 0.0
C1922 C 0.72998 0.38438 0.2263 0.0
C1923 C 0.75918 0.39024 0.2765 0.0
C1924 C 0.7438 0.38342 0.26107 0.0
C1925 C 0.69508 0.36956 0.21817 0.0
C1926 C 0.71234 0.37357 0.23268 0.0
H1927 H 0.76074 0.4113 0.32426 0.0
H1928 H 0.7362 0.39989 0.29863 0.0
H1929 H 0.75862 0.39815 0.23515 0.0
H1930 H 0.68609 0.3562 0.16838 0.0
H1931 H 0.7145 0.36231 0.19206 0.0
C1932 C 0.89071 0.8349 0.31021 0.0
C1933 C 0.8707 0.84248 0.31324 0.0
C1934 C 0.89422 0.81827 0.29714 0.0
C1935 C 0.87293 0.77218 0.27518 0.0
H1936 H 0.91087 0.78186 0.23027 0.0
C1937 C 0.8901 0.71111 0.21174 0.0
C1938 C 0.90971 0.71152 0.20274 0.0
C1939 C 0.88446 0.72616 0.22614 0.0
C1940 C 0.90054 0.77866 0.24292 0.0
H1941 H 0.83863 0.83833 0.30536 0.0
H1942 H 0.84476 0.80863 0.28271 0.0
H1943 H 0.90253 0.80968 0.25373 0.0
H1944 H 0.93923 0.72684 0.20256 0.0
H1945 H 0.93002 0.75212 0.22843 0.0
H1946 H 0.87153 0.74091 0.26493 0.0
C1947 C 0.85766 0.81581 0.29041 0.0
C1948 C 0.89563 0.79473 0.25623 0.0
C1949 C 0.85419 0.83279 0.30321 0.0
C1950 C 0.92393 0.72636 0.20915 0.0
C1951 C 0.91851 0.74102 0.22381 0.0
C1952 C 0.87816 0.75589 0.26206 0.0
C1953 C 0.87776 0.8086 0.28709 0.0
C1954 C 0.88191 0.79162 0.27254 0.0
C1955 C 0.89847 0.74163 0.232 0.0
C1956 C 0.89224 0.75887 0.24585 0.0
H1957 H 0.90374 0.84221 0.31755 0.0
H1958 H 0.90984 0.81296 0.29481 0.0
H1959 H 0.86235 0.76945 0.28775 0.0
H1960 H 0.87881 0.69989 0.20685 0.0
H1961 H 0.86887 0.72612 0.23197 0.0
C1962 C 0.32192 0.63783 0.18523 0.0
C1963 C 0.34253 0.63541 0.19134 0.0
C1964 C 0.30583 0.63334 0.19878 0.0
C1965 C 0.29405 0.60273 0.24486 0.0
H1966 H 0.2469 0.63885 0.25041 0.0
C1967 C 0.23682 0.59337 0.31108 0.0
C1968 C 0.21572 0.59616 0.3073 0.0
C1969 C 0.2514 0.59824 0.29615 0.0
C1970 C 0.25981 0.62845 0.24882 0.0
H1971 H 0.36233 0.62637 0.21656 0.0
H1972 H 0.33429 0.61864 0.24024 0.0
H1973 H 0.27421 0.6474 0.22601 0.0
H1974 H 0.19339 0.60648 0.28484 0.0
H1975 H 0.21901 0.61482 0.25845 0.0
H1976 H 0.27977 0.58372 0.2675 0.0
C1977 C 0.33058 0.62392 0.2249 0.0
C1978 C 0.27548 0.63338 0.23488 0.0
C1979 C 0.34667 0.62855 0.2114 0.0
C1980 C 0.20953 0.60415 0.28821 0.0
C1981 C 0.22422 0.60901 0.27315 0.0
C1982 C 0.27839 0.59776 0.25867 0.0
C1983 C 0.30997 0.62616 0.21872 0.0
C1984 C 0.29291 0.6207 0.23295 0.0
C1985 C 0.24534 0.60595 0.27692 0.0
C1986 C 0.26121 0.61069 0.26108 0.0
H1987 H 0.3182 0.64332 0.16998 0.0
H1988 H 0.29013 0.63512 0.19351 0.0
H1989 H 0.30705 0.59241 0.24342 0.0
H1990 H 0.2422 0.58742 0.32566 0.0
H1991 H 0.26751 0.59612 0.29981 0.0
C1992 C 0.10156 0.73507 0.81162 0.0
C1993 C 0.10033 0.71393 0.8074 0.0
C1994 C 0.1087 0.74879 0.79681 0.0
C1995 C 0.11308 0.75632 0.7416 0.0
H1996 H 0.15039 0.80012 0.75724 0.0
C1997 C 0.13902 0.8189 0.68391 0.0
C1998 C 0.13981 0.83916 0.69138 0.0
C1999 C 0.13643 0.80234 0.69737 0.0
C2000 C 0.13983 0.7881 0.75265 0.0
H2001 H 0.10568 0.69055 0.78428 0.0
H2002 H 0.11794 0.71479 0.75804 0.0
H2003 H 0.14196 0.77321 0.78191 0.0
H2004 H 0.13841 0.85788 0.71889 0.0
H2005 H 0.13365 0.82915 0.74232 0.0
H2006 H 0.11034 0.77156 0.71259 0.0
C2007 C 0.11341 0.72061 0.77296 0.0
C2008 C 0.13509 0.77263 0.76675 0.0
C2009 C 0.10648 0.70677 0.78797 0.0
C2010 C 0.13817 0.84247 0.71265 0.0
C2011 C 0.13548 0.82594 0.7261 0.0
C2012 C 0.1177 0.7719 0.7275 0.0
C2013 C 0.11462 0.74177 0.77729 0.0
C2014 C 0.12138 0.75679 0.76151 0.0
C2015 C 0.13449 0.80566 0.71864 0.0
C2016 C 0.13085 0.78819 0.73298 0.0
H2017 H 0.097 0.74112 0.82645 0.0
H2018 H 0.10919 0.76502 0.80051 0.0
H2019 H 0.10232 0.7444 0.7372 0.0
H2020 H 0.14055 0.81581 0.66764 0.0
H2021 H 0.13607 0.78693 0.69111 0.0
C2022 C 0.32504 0.38353 0.81858 0.0
C2023 C 0.33911 0.36782 0.81382 0.0
C2024 C 0.30863 0.38792 0.80545 0.0
C2025 C 0.27693 0.36666 0.76341 0.0
H2026 H 0.26636 0.42403 0.75117 0.0
C2027 C 0.20814 0.39468 0.71309 0.0
C2028 C 0.21341 0.40918 0.69796 0.0
C2029 C 0.22239 0.38917 0.72832 0.0
C2030 C 0.2691 0.40794 0.75444 0.0
H2031 H 0.34664 0.34411 0.79167 0.0
H2032 H 0.31802 0.35193 0.76856 0.0
H2033 H 0.29354 0.41495 0.77528 0.0
H2034 H 0.23761 0.42944 0.68712 0.0
H2035 H 0.26218 0.41998 0.71357 0.0
H2036 H 0.25265 0.35973 0.74217 0.0
C2037 C 0.31968 0.36076 0.78257 0.0
C2038 C 0.28457 0.40273 0.76838 0.0
C2039 C 0.33621 0.35644 0.79568 0.0
C2040 C 0.23303 0.41821 0.69853 0.0
C2041 C 0.24711 0.41289 0.71378 0.0
C2042 C 0.26131 0.3719 0.74953 0.0
C2043 C 0.30579 0.37667 0.78724 0.0
C2044 C 0.28881 0.38204 0.7729 0.0
C2045 C 0.24202 0.39827 0.72881 0.0
C2046 C 0.25742 0.3926 0.74471 0.0
H2047 H 0.32689 0.39275 0.8323 0.0
H2048 H 0.29811 0.40015 0.80959 0.0
H2049 H 0.2797 0.35059 0.76672 0.0
H2050 H 0.19316 0.38741 0.71301 0.0
H2051 H 0.21802 0.37792 0.73979 0.0
C2052 C 0.91077 0.26467 0.81029 0.0
C2053 C 0.90715 0.2857 0.80693 0.0
C2054 C 0.90554 0.25013 0.79548 0.0
C2055 C 0.87273 0.24138 0.75006 0.0
H2056 H 0.90945 0.19507 0.74199 0.0
C2057 C 0.86098 0.17976 0.68653 0.0
C2058 C 0.86435 0.15916 0.69218 0.0
C2059 C 0.86582 0.19578 0.70001 0.0
C2060 C 0.89894 0.2078 0.7442 0.0
H2061 H 0.89505 0.30795 0.78528 0.0
H2062 H 0.88606 0.28238 0.75907 0.0
H2063 H 0.91904 0.22237 0.76569 0.0
H2064 H 0.87534 0.13929 0.71654 0.0
H2065 H 0.88369 0.16722 0.74014 0.0
H2066 H 0.85268 0.2267 0.7284 0.0
C2067 C 0.89282 0.27721 0.77338 0.0
C2068 C 0.90442 0.22347 0.75778 0.0
C2069 C 0.89805 0.29186 0.78832 0.0
C2070 C 0.87243 0.15495 0.71175 0.0
C2071 C 0.87741 0.17098 0.72519 0.0
C2072 C 0.86727 0.22569 0.73635 0.0
C2073 C 0.89661 0.25616 0.77677 0.0
C2074 C 0.89127 0.24032 0.76113 0.0
C2075 C 0.87429 0.19158 0.71942 0.0
C2076 C 0.88021 0.2086 0.73348 0.0
H2077 H 0.91761 0.25931 0.82449 0.0
H2078 H 0.90828 0.23406 0.79884 0.0
H2079 H 0.86214 0.25401 0.75241 0.0
H2080 H 0.85453 0.18353 0.67167 0.0
H2081 H 0.86333 0.21148 0.69506 0.0
C2082 C 0.67049 0.61583 0.81272 0.0
C2083 C 0.66181 0.63559 0.8135 0.0
C2084 C 0.68686 0.61163 0.79949 0.0
C2085 C 0.73087 0.63243 0.77329 0.0
H2086 H 0.72144 0.58995 0.73263 0.0
C2087 C 0.79022 0.61305 0.70896 0.0
C2088 C 0.79052 0.59284 0.70148 0.0
C2089 C 0.77543 0.61904 0.72348 0.0
C2090 C 0.72462 0.60156 0.74411 0.0
H2091 H 0.66374 0.66656 0.80149 0.0
H2092 H 0.69298 0.65928 0.7786 0.0
H2093 H 0.69422 0.59899 0.75656 0.0
H2094 H 0.77671 0.56271 0.70406 0.0
H2095 H 0.75198 0.57258 0.73023 0.0
H2096 H 0.76156 0.6345 0.76149 0.0
C2097 C 0.68686 0.64709 0.78814 0.0
C2098 C 0.70887 0.60685 0.75769 0.0
C2099 C 0.67013 0.6512 0.80109 0.0
C2100 C 0.77662 0.57846 0.70948 0.0
C2101 C 0.76226 0.58424 0.72431 0.0
C2102 C 0.74687 0.62683 0.75995 0.0
C2103 C 0.69517 0.62719 0.78707 0.0
C2104 C 0.71186 0.62225 0.77242 0.0
C2105 C 0.76094 0.60477 0.73106 0.0
C2106 C 0.74401 0.61118 0.74524 0.0
H2107 H 0.66423 0.60349 0.82196 0.0
H2108 H 0.69303 0.59617 0.79889 0.0
H2109 H 0.73351 0.64433 0.78463 0.0
H2110 H 0.80069 0.62445 0.70279 0.0
H2111 H 0.77488 0.635 0.72811 0.0
C2112 C 0.1934 0.09778 0.2682 0.0
C2113 C 0.19766 0.09838 0.28937 0.0
C2114 C 0.20802 0.10409 0.25389 0.0
C2115 C 0.26316 0.11058 0.24554 0.0
H2116 H 0.24512 0.1439 0.1995 0.0
C2117 C 0.31899 0.13749 0.18142 0.0
C2118 C 0.31156 0.1367 0.16113 0.0
C2119 C 0.30575 0.13442 0.19808 0.0
C2120 C 0.25039 0.13444 0.21214 0.0
H2121 H 0.2208 0.10596 0.31211 0.0
H2122 H 0.24669 0.11687 0.28683 0.0
H2123 H 0.22109 0.1358 0.22705 0.0
H2124 H 0.28436 0.13179 0.14252 0.0
H2125 H 0.26132 0.12627 0.17147 0.0
H2126 H 0.29233 0.10877 0.23035 0.0
C2127 C 0.23187 0.11151 0.28146 0.0
C2128 C 0.23664 0.12987 0.22797 0.0
C2129 C 0.21706 0.10533 0.2959 0.0
C2130 C 0.29055 0.13283 0.15792 0.0
C2131 C 0.27732 0.12969 0.17457 0.0
C2132 C 0.27693 0.11508 0.22961 0.0
C2133 C 0.2274 0.11109 0.2603 0.0
C2134 C 0.24274 0.1176 0.24467 0.0
C2135 C 0.28474 0.13043 0.19487 0.0
C2136 C 0.27061 0.12677 0.21253 0.0
H2137 H 0.17864 0.09251 0.26257 0.0
H2138 H 0.20421 0.10325 0.2377 0.0
H2139 H 0.26825 0.10095 0.25813 0.0
H2140 H 0.33502 0.14074 0.18445 0.0
H2141 H 0.31194 0.1354 0.2135 0.0
C2142 C 0.63419 0.18156 0.32124 0.0
C2143 C 0.63651 0.18995 0.34102 0.0
C2144 C 0.63163 0.19435 0.30413 0.0
C2145 C 0.63797 0.24857 0.287 0.0
H2146 H 0.59747 0.23382 0.2458 0.0
C2147 C 0.60066 0.3078 0.23377 0.0
C2148 C 0.59854 0.30313 0.21279 0.0
C2149 C 0.6074 0.29296 0.24765 0.0
C2150 C 0.60906 0.23798 0.25701 0.0
H2151 H 0.63775 0.21839 0.35831 0.0
H2152 H 0.63304 0.24064 0.32867 0.0
H2153 H 0.60522 0.20986 0.27366 0.0
H2154 H 0.60182 0.27915 0.18991 0.0
H2155 H 0.61332 0.25284 0.2145 0.0
H2156 H 0.64119 0.277 0.27076 0.0
C2157 C 0.63368 0.22419 0.32622 0.0
C2158 C 0.61353 0.22426 0.27298 0.0
C2159 C 0.63635 0.21142 0.34328 0.0
C2160 C 0.60332 0.28318 0.20598 0.0
C2161 C 0.60983 0.26815 0.22003 0.0
C2162 C 0.63338 0.2623 0.27117 0.0
C2163 C 0.63123 0.21584 0.30642 0.0
C2164 C 0.62775 0.22957 0.28842 0.0
C2165 C 0.61202 0.27297 0.24099 0.0
C2166 C 0.61859 0.25733 0.25624 0.0
H2167 H 0.63454 0.1651 0.31894 0.0
H2168 H 0.63009 0.18738 0.2891 0.0
H2169 H 0.64937 0.25297 0.2983 0.0
H2170 H 0.59719 0.32302 0.23954 0.0
H2171 H 0.60868 0.29706 0.26374 0.0
C2172 C 0.81188 0.90167 0.26563 0.0
C2173 C 0.80744 0.90307 0.28672 0.0
C2174 C 0.79698 0.89507 0.25173 0.0
C2175 C 0.74164 0.89259 0.24351 0.0
H2176 H 0.75658 0.8547 0.19997 0.0
C2177 C 0.68371 0.86794 0.18045 0.0
C2178 C 0.69138 0.86646 0.1603 0.0
C2179 C 0.69708 0.87047 0.19711 0.0
C2180 C 0.75218 0.86544 0.2119 0.0
H2181 H 0.78383 0.89857 0.3098 0.0
H2182 H 0.75745 0.88725 0.28524 0.0
H2183 H 0.78123 0.86242 0.22709 0.0
H2184 H 0.71915 0.86676 0.14187 0.0
H2185 H 0.74241 0.87145 0.17074 0.0
H2186 H 0.71285 0.8962 0.22798 0.0
C2187 C 0.77261 0.89123 0.2796 0.0
C2188 C 0.76629 0.86978 0.22749 0.0
C2189 C 0.7877 0.89761 0.29364 0.0
C2190 C 0.71274 0.86749 0.15721 0.0
C2191 C 0.72609 0.87015 0.17382 0.0
C2192 C 0.72755 0.88838 0.2278 0.0
C2193 C 0.77715 0.88987 0.2585 0.0
C2194 C 0.76131 0.88366 0.24327 0.0
C2195 C 0.71846 0.87169 0.194 0.0
C2196 C 0.73278 0.87502 0.21159 0.0
H2197 H 0.82694 0.9057 0.25977 0.0
H2198 H 0.80087 0.89445 0.23555 0.0
H2199 H 0.73746 0.90349 0.25537 0.0
H2200 H 0.66735 0.86693 0.18337 0.0
H2201 H 0.69066 0.87129 0.21244 0.0
C2202 C 0.41092 0.69239 0.23471 0.0
C2203 C 0.40763 0.69576 0.21363 0.0
C2204 C 0.40573 0.70732 0.24915 0.0
C2205 C 0.37343 0.75315 0.25745 0.0
H2206 H 0.4098 0.76088 0.30407 0.0
C2207 C 0.36164 0.81674 0.31902 0.0
C2208 C 0.36483 0.81104 0.33963 0.0
C2209 C 0.36649 0.80323 0.30302 0.0
C2210 C 0.39938 0.75877 0.29125 0.0
H2211 H 0.39618 0.71754 0.19118 0.0
H2212 H 0.38724 0.74395 0.21657 0.0
H2213 H 0.41941 0.73706 0.27688 0.0
H2214 H 0.3755 0.78656 0.35954 0.0
H2215 H 0.38384 0.76292 0.33166 0.0
H2216 H 0.35344 0.775 0.27194 0.0
C2217 C 0.39371 0.72956 0.22186 0.0
C2218 C 0.40489 0.74513 0.27564 0.0
C2219 C 0.39892 0.71449 0.20731 0.0
C2220 C 0.37273 0.79139 0.34387 0.0
C2221 C 0.37771 0.77793 0.32788 0.0
C2222 C 0.36795 0.76692 0.27307 0.0
C2223 C 0.39717 0.72614 0.24296 0.0
C2224 C 0.39186 0.7419 0.25869 0.0
C2225 C 0.37479 0.78375 0.30726 0.0
C2226 C 0.38076 0.76966 0.29028 0.0
H2227 H 0.41746 0.67809 0.2402 0.0
H2228 H 0.4082 0.70395 0.26526 0.0
H2229 H 0.36295 0.75089 0.24472 0.0
H2230 H 0.35533 0.83166 0.31523 0.0
H2231 H 0.36416 0.80821 0.28731 0.0
C2232 C 0.30175 0.85134 0.83238 0.0
C2233 C 0.31153 0.86837 0.84135 0.0
C2234 C 0.28986 0.85372 0.81455 0.0
C2235 C 0.27991 0.89142 0.77214 0.0
H2236 H 0.22938 0.86062 0.76493 0.0
C2237 C 0.21044 0.91855 0.72479 0.0
C2238 C 0.20275 0.90511 0.70978 0.0
C2239 C 0.22579 0.91213 0.73831 0.0
C2240 C 0.24363 0.86908 0.76663 0.0
H2241 H 0.31575 0.90131 0.83933 0.0
H2242 H 0.29461 0.90566 0.80896 0.0
H2243 H 0.25175 0.85304 0.79418 0.0
H2244 H 0.20498 0.87445 0.69701 0.0
H2245 H 0.23159 0.86288 0.72139 0.0
H2246 H 0.27098 0.90831 0.7453 0.0
C2247 C 0.29672 0.89028 0.81494 0.0
C2248 C 0.25649 0.86474 0.78335 0.0
C2249 C 0.30878 0.88784 0.83248 0.0
C2250 C 0.21087 0.88514 0.70834 0.0
C2251 C 0.22591 0.87851 0.7223 0.0
C2252 C 0.26688 0.89598 0.75571 0.0
C2253 C 0.28729 0.87325 0.80551 0.0
C2254 C 0.27459 0.8762 0.78661 0.0
C2255 C 0.2334 0.89197 0.73743 0.0
C2256 C 0.24847 0.8851 0.75302 0.0
H2257 H 0.30371 0.83615 0.8389 0.0
H2258 H 0.28298 0.84022 0.8077 0.0
H2259 H 0.29399 0.90016 0.7737 0.0
H2260 H 0.20439 0.934 0.72622 0.0
H2261 H 0.23125 0.92273 0.74994 0.0
C2262 C 0.40917 0.3101 0.76815 0.0
C2263 C 0.40527 0.30702 0.78917 0.0
C2264 C 0.40437 0.29496 0.75379 0.0
C2265 C 0.37196 0.24943 0.74511 0.0
H2266 H 0.40983 0.24041 0.69992 0.0
C2267 C 0.36038 0.18572 0.68377 0.0
C2268 C 0.36443 0.19113 0.66323 0.0
C2269 C 0.36527 0.19914 0.69982 0.0
C2270 C 0.399 0.24287 0.71233 0.0
H2271 H 0.39315 0.28558 0.8116 0.0
H2272 H 0.38482 0.25885 0.78633 0.0
H2273 H 0.41886 0.26447 0.7271 0.0
H2274 H 0.3768 0.21496 0.64351 0.0
H2275 H 0.38514 0.23848 0.67147 0.0
H2276 H 0.35207 0.22781 0.73019 0.0
C2277 C 0.3915 0.27315 0.78104 0.0
C2278 C 0.40418 0.25665 0.72794 0.0
C2279 C 0.39635 0.28839 0.79551 0.0
C2280 C 0.37334 0.21037 0.65912 0.0
C2281 C 0.37832 0.22375 0.67517 0.0
C2282 C 0.36678 0.23557 0.72948 0.0
C2283 C 0.39557 0.27627 0.76 0.0
C2284 C 0.3906 0.26034 0.74436 0.0
C2285 C 0.37444 0.21825 0.69572 0.0
C2286 C 0.38014 0.23236 0.71277 0.0
H2287 H 0.41591 0.32429 0.76265 0.0
H2288 H 0.40733 0.29807 0.7377 0.0
H2289 H 0.36107 0.25207 0.75743 0.0
H2290 H 0.35329 0.17114 0.68747 0.0
H2291 H 0.36219 0.19439 0.71547 0.0
C2292 C 0.78552 0.10098 0.70731 0.0
C2293 C 0.80448 0.09283 0.71376 0.0
C2294 C 0.7702 0.10575 0.72175 0.0
C2295 C 0.75467 0.09431 0.77554 0.0
H2296 H 0.72351 0.14496 0.77161 0.0
C2297 C 0.70855 0.12642 0.8439 0.0
C2298 C 0.68871 0.13396 0.83987 0.0
C2299 C 0.7218 0.12132 0.82776 0.0
C2300 C 0.73195 0.13065 0.7728 0.0
H2301 H 0.82225 0.08354 0.74046 0.0
H2302 H 0.79594 0.09205 0.76533 0.0
H2303 H 0.74782 0.13589 0.74439 0.0
H2304 H 0.66746 0.14257 0.81567 0.0
H2305 H 0.69058 0.13357 0.7875 0.0
H2306 H 0.73911 0.08921 0.80406 0.0
C2307 C 0.79261 0.09441 0.7492 0.0
C2308 C 0.74583 0.12543 0.75718 0.0
C2309 C 0.80779 0.08965 0.73487 0.0
C2310 C 0.68255 0.13657 0.8193 0.0
C2311 C 0.69586 0.1316 0.80316 0.0
C2312 C 0.74091 0.09957 0.79115 0.0
C2313 C 0.77357 0.10241 0.74288 0.0
C2314 C 0.75758 0.10733 0.75852 0.0
C2315 C 0.71558 0.12377 0.80721 0.0
C2316 C 0.72958 0.11792 0.79011 0.0
H2317 H 0.78251 0.10361 0.69116 0.0
H2318 H 0.75565 0.11179 0.71637 0.0
H2319 H 0.76311 0.08002 0.77686 0.0
H2320 H 0.71372 0.12409 0.85953 0.0
H2321 H 0.737 0.11554 0.83139 0.0
C2322 C 0.60704 0.69485 0.76802 0.0
C2323 C 0.60256 0.6997 0.78857 0.0
C2324 C 0.61445 0.70982 0.75462 0.0
C2325 C 0.61283 0.76439 0.74433 0.0
H2326 H 0.65751 0.75217 0.70676 0.0
C2327 C 0.63586 0.82092 0.67974 0.0
C2328 C 0.64031 0.81215 0.6605 0.0
C2329 C 0.63406 0.80859 0.69725 0.0
C2330 C 0.6449 0.7558 0.71701 0.0
H2331 H 0.60247 0.72404 0.8113 0.0
H2332 H 0.61504 0.7506 0.78749 0.0
H2333 H 0.64926 0.7281 0.73428 0.0
H2334 H 0.64647 0.78354 0.64462 0.0
H2335 H 0.64298 0.76199 0.67493 0.0
H2336 H 0.60773 0.79157 0.72655 0.0
C2337 C 0.61294 0.73505 0.78193 0.0
C2338 C 0.64028 0.74206 0.73285 0.0
C2339 C 0.60583 0.71989 0.79553 0.0
C2340 C 0.64333 0.79082 0.65924 0.0
C2341 C 0.64136 0.77846 0.6767 0.0
C2342 C 0.6173 0.77806 0.72833 0.0
C2343 C 0.6173 0.73011 0.76134 0.0
C2344 C 0.62393 0.74601 0.74641 0.0
C2345 C 0.63652 0.78714 0.69592 0.0
C2346 C 0.63313 0.77372 0.71419 0.0
H2347 H 0.60481 0.67941 0.7622 0.0
H2348 H 0.61745 0.70562 0.73878 0.0
H2349 H 0.60001 0.76772 0.75444 0.0
H2350 H 0.63374 0.83736 0.68123 0.0
H2351 H 0.63069 0.81587 0.71183 0.0
C2352 C 0.29359 0.21352 0.10332 0.0
C2353 C 0.28727 0.19486 0.09447 0.0
C2354 C 0.27907 0.22865 0.10842 0.0
C2355 C 0.2254 0.24461 0.09689 0.0
H2356 H 0.22918 0.27454 0.14826 0.0
C2357 C 0.15743 0.29157 0.12891 0.0
C2358 C 0.16182 0.31111 0.13698 0.0
C2359 C 0.17333 0.27802 0.12381 0.0
C2360 C 0.22802 0.26645 0.13376 0.0
H2361 H 0.26071 0.17739 0.08427 0.0
H2362 H 0.23565 0.20337 0.09337 0.0
H2363 H 0.2562 0.25013 0.13892 0.0
H2364 H 0.18641 0.33148 0.14656 0.0
H2365 H 0.21416 0.30788 0.13754 0.0
H2366 H 0.19713 0.26066 0.09183 0.0
C2367 C 0.25177 0.20663 0.09603 0.0
C2368 C 0.24354 0.25251 0.12838 0.0
C2369 C 0.2662 0.19162 0.09093 0.0
C2370 C 0.1825 0.31665 0.14014 0.0
C2371 C 0.1984 0.30305 0.13516 0.0
C2372 C 0.20989 0.25844 0.1023 0.0
C2373 C 0.25797 0.22538 0.10474 0.0
C2374 C 0.24228 0.24123 0.10998 0.0
C2375 C 0.19401 0.28364 0.12678 0.0
C2376 C 0.21089 0.26937 0.12088 0.0
H2377 H 0.30972 0.21647 0.10624 0.0
H2378 H 0.28439 0.24299 0.11499 0.0
H2379 H 0.22414 0.23654 0.08239 0.0
H2380 H 0.14171 0.28687 0.12614 0.0
H2381 H 0.16942 0.26308 0.1176 0.0
C2382 C 0.28937 0.79483 0.8886 0.0
C2383 C 0.2878 0.80493 0.90759 0.0
C2384 C 0.27452 0.78029 0.88276 0.0
C2385 C 0.22106 0.76406 0.89649 0.0
H2386 H 0.23341 0.71622 0.86317 0.0
C2387 C 0.16767 0.69398 0.89031 0.0
C2388 C 0.16046 0.68968 0.87042 0.0
C2389 C 0.18388 0.70773 0.89329 0.0
C2390 C 0.22981 0.72962 0.87237 0.0
H2391 H 0.27039 0.80696 0.93588 0.0
H2392 H 0.24537 0.78103 0.92639 0.0
H2393 H 0.26093 0.74047 0.87186 0.0
H2394 H 0.16486 0.69592 0.83804 0.0
H2395 H 0.19383 0.71973 0.84328 0.0
H2396 H 0.19018 0.75264 0.89774 0.0
C2397 C 0.25729 0.78486 0.91542 0.0
C2398 C 0.2455 0.74357 0.87729 0.0
C2399 C 0.27178 0.79961 0.921 0.0
C2400 C 0.17013 0.69905 0.85351 0.0
C2401 C 0.18669 0.71252 0.85648 0.0
C2402 C 0.20557 0.74996 0.89192 0.0
C2403 C 0.25805 0.77537 0.89599 0.0
C2404 C 0.24139 0.76086 0.88969 0.0
C2405 C 0.19347 0.71716 0.87644 0.0
C2406 C 0.20983 0.73254 0.88 0.0
H2407 H 0.30155 0.79878 0.87794 0.0
H2408 H 0.27562 0.77343 0.86764 0.0
H2409 H 0.21701 0.77748 0.90546 0.0
H2410 H 0.16036 0.68719 0.90362 0.0
H2411 H 0.18886 0.71112 0.90881 0.0
C2412 C 0.28488 0.20729 0.60527 0.0
C2413 C 0.30474 0.21385 0.59982 0.0
C2414 C 0.27 0.22162 0.61156 0.0
C2415 C 0.26488 0.27386 0.63306 0.0
H2416 H 0.21101 0.27434 0.60761 0.0
C2417 C 0.21235 0.34502 0.63639 0.0
C2418 C 0.19098 0.34217 0.63781 0.0
C2419 C 0.22546 0.32824 0.6335 0.0
C2420 C 0.22584 0.27426 0.61515 0.0
H2421 H 0.32461 0.24053 0.59692 0.0
H2422 H 0.29891 0.26521 0.60794 0.0
H2423 H 0.23501 0.24652 0.59984 0.0
H2424 H 0.16672 0.31933 0.63796 0.0
H2425 H 0.18959 0.29002 0.63317 0.0
H2426 H 0.25591 0.30155 0.64832 0.0
C2427 C 0.29477 0.24909 0.60744 0.0
C2428 C 0.23959 0.2583 0.61067 0.0
C2429 C 0.30946 0.23491 0.60096 0.0
C2430 C 0.18307 0.32209 0.6366 0.0
C2431 C 0.1962 0.30528 0.63383 0.0
C2432 C 0.25113 0.28971 0.63765 0.0
C2433 C 0.27488 0.24266 0.61281 0.0
C2434 C 0.2594 0.25818 0.61926 0.0
C2435 C 0.21757 0.30813 0.63212 0.0
C2436 C 0.23157 0.29036 0.62844 0.0
H2437 H 0.2808 0.19117 0.60452 0.0
H2438 H 0.25478 0.21624 0.61565 0.0
H2439 H 0.27994 0.274 0.64017 0.0
H2440 H 0.21892 0.36029 0.63695 0.0
H2441 H 0.24179 0.33111 0.63187 0.0
C2442 C 0.83694 0.29407 0.8513 0.0
C2443 C 0.84046 0.31021 0.86522 0.0
C2444 C 0.82022 0.28078 0.85394 0.0
C2445 C 0.77027 0.2752 0.8814 0.0
H2446 H 0.78022 0.21698 0.87366 0.0
C2447 C 0.70688 0.21283 0.89285 0.0
C2448 C 0.71321 0.19506 0.90339 0.0
C2449 C 0.72139 0.22749 0.8865 0.0
C2450 C 0.77718 0.23319 0.87594 0.0
H2451 H 0.82909 0.32493 0.89289 0.0
H2452 H 0.80014 0.30176 0.89756 0.0
H2453 H 0.80733 0.24152 0.86584 0.0
H2454 H 0.7397 0.17896 0.9158 0.0
H2455 H 0.76468 0.2044 0.90501 0.0
H2456 H 0.74031 0.2667 0.89223 0.0
C2457 C 0.81004 0.29959 0.88435 0.0
C2458 C 0.79267 0.2473 0.87122 0.0
C2459 C 0.82671 0.31288 0.88169 0.0
C2460 C 0.73425 0.19238 0.90759 0.0
C2461 C 0.74865 0.20693 0.90126 0.0
C2462 C 0.75475 0.26106 0.88614 0.0
C2463 C 0.80664 0.28328 0.87059 0.0
C2464 C 0.78954 0.26847 0.87417 0.0
C2465 C 0.74247 0.22459 0.89051 0.0
C2466 C 0.75816 0.23985 0.88381 0.0
H2467 H 0.847 0.29177 0.83825 0.0
H2468 H 0.8179 0.26857 0.84287 0.0
H2469 H 0.76724 0.29142 0.88359 0.0
H2470 H 0.69079 0.21533 0.88936 0.0
H2471 H 0.71614 0.24092 0.87817 0.0
C2472 C 0.6943 0.76537 0.58881 0.0
C2473 C 0.69632 0.78623 0.59408 0.0
C2474 C 0.70845 0.75087 0.59581 0.0
C2475 C 0.76115 0.74474 0.61542 0.0
H2476 H 0.74071 0.69121 0.63194 0.0
C2477 C 0.79273 0.6619 0.64991 0.0
C2478 C 0.81011 0.65929 0.63731 0.0
C2479 C 0.77922 0.67835 0.64669 0.0
C2480 C 0.7467 0.70613 0.62764 0.0
H2481 H 0.715 0.80824 0.6107 0.0
H2482 H 0.73988 0.78274 0.62303 0.0
H2483 H 0.71651 0.71832 0.62298 0.0
H2484 H 0.82667 0.6719 0.61125 0.0
H2485 H 0.80319 0.70038 0.60561 0.0
H2486 H 0.79137 0.73252 0.62015 0.0
C2487 C 0.72731 0.7777 0.61336 0.0
C2488 C 0.73282 0.72162 0.62226 0.0
C2489 C 0.71305 0.7923 0.60634 0.0
C2490 C 0.81367 0.67359 0.62149 0.0
C2491 C 0.80019 0.68999 0.61827 0.0
C2492 C 0.77506 0.72922 0.62079 0.0
C2493 C 0.72504 0.75678 0.60831 0.0
C2494 C 0.73987 0.741 0.61573 0.0
C2495 C 0.78276 0.69258 0.63078 0.0
C2496 C 0.76801 0.70961 0.62666 0.0
H2497 H 0.68169 0.76013 0.57929 0.0
H2498 H 0.70647 0.73499 0.59124 0.0
H2499 H 0.7671 0.75945 0.6104 0.0
H2500 H 0.78967 0.65136 0.66241 0.0
H2501 H 0.76607 0.68001 0.65677 0.0
C2502 C 0.84479 0.71467 0.13619 0.0
C2503 C 0.84066 0.69422 0.14175 0.0
C2504 C 0.82869 0.7284 0.13229 0.0
C2505 C 0.77336 0.7296 0.11846 0.0
H2506 H 0.77837 0.78716 0.13299 0.0
C2507 C 0.70826 0.78975 0.10493 0.0
C2508 C 0.71481 0.80828 0.09594 0.0
C2509 C 0.72271 0.77535 0.11195 0.0
C2510 C 0.77677 0.77113 0.12878 0.0
H2511 H 0.81636 0.67241 0.14838 0.0
H2512 H 0.78831 0.69636 0.14185 0.0
H2513 H 0.80534 0.76314 0.14298 0.0
H2514 H 0.74164 0.82616 0.08727 0.0
H2515 H 0.76657 0.80124 0.0995 0.0
H2516 H 0.74474 0.73773 0.10423 0.0
C2517 C 0.80397 0.70169 0.13999 0.0
C2518 C 0.79227 0.75737 0.13443 0.0
C2519 C 0.82006 0.68795 0.14377 0.0
C2520 C 0.73602 0.81207 0.09412 0.0
C2521 C 0.75036 0.79785 0.10128 0.0
C2522 C 0.75777 0.74338 0.11292 0.0
C2523 C 0.80806 0.72205 0.134 0.0
C2524 C 0.79093 0.73647 0.12908 0.0
C2525 C 0.74392 0.77935 0.11033 0.0
C2526 C 0.75949 0.76435 0.11772 0.0
H2527 H 0.86046 0.71992 0.13424 0.0
H2528 H 0.83246 0.74386 0.1274 0.0
H2529 H 0.7719 0.71368 0.11385 0.0
H2530 H 0.69203 0.78639 0.10655 0.0
H2531 H 0.7173 0.76123 0.11892 0.0
C2532 C 0.20757 0.66527 0.35316 0.0
C2533 C 0.19063 0.66216 0.36623 0.0
C2534 C 0.22083 0.68192 0.35619 0.0
C2535 C 0.25355 0.7095 0.37466 0.0
H2536 H 0.23358 0.76256 0.39317 0.0
C2537 C 0.30749 0.7685 0.41129 0.0
C2538 C 0.30542 0.78932 0.4059 0.0
C2539 C 0.29287 0.7541 0.40518 0.0
C2540 C 0.23938 0.74791 0.3878 0.0
H2541 H 0.17445 0.67419 0.39278 0.0
H2542 H 0.1976 0.70306 0.39816 0.0
H2543 H 0.20905 0.73559 0.38405 0.0
H2544 H 0.28605 0.81141 0.39017 0.0
H2545 H 0.26032 0.78603 0.37936 0.0
H2546 H 0.28383 0.72177 0.37828 0.0
C2547 C 0.20043 0.69287 0.3853 0.0
C2548 C 0.22535 0.73237 0.38279 0.0
C2549 C 0.18715 0.67625 0.38225 0.0
C2550 C 0.28807 0.79548 0.39457 0.0
C2551 C 0.27333 0.78096 0.38843 0.0
C2552 C 0.26754 0.72499 0.37967 0.0
C2553 C 0.21752 0.69585 0.3724 0.0
C2554 C 0.23228 0.71289 0.37642 0.0
C2555 C 0.27574 0.76005 0.39347 0.0
C2556 C 0.26066 0.74427 0.38662 0.0
H2557 H 0.2105 0.65493 0.34047 0.0
H2558 H 0.23366 0.68392 0.34577 0.0
H2559 H 0.25947 0.69466 0.36999 0.0
H2560 H 0.32055 0.7632 0.42016 0.0
H2561 H 0.29497 0.73822 0.40974 0.0
C2562 C 0.69449 0.23479 0.40984 0.0
C2563 C 0.69663 0.21374 0.40549 0.0
C2564 C 0.70918 0.24891 0.40323 0.0
C2565 C 0.76305 0.25425 0.38722 0.0
H2566 H 0.74377 0.30688 0.36685 0.0
C2567 C 0.81514 0.32606 0.38238 0.0
C2568 C 0.81243 0.33975 0.36587 0.0
C2569 C 0.80188 0.30937 0.3851 0.0
C2570 C 0.74948 0.29219 0.37224 0.0
H2571 H 0.71614 0.19096 0.39096 0.0
H2572 H 0.74205 0.21583 0.37933 0.0
H2573 H 0.71906 0.28003 0.37501 0.0
H2574 H 0.79398 0.3461 0.33885 0.0
H2575 H 0.77082 0.31701 0.34359 0.0
H2576 H 0.79352 0.26651 0.38444 0.0
C2577 C 0.72889 0.2213 0.38795 0.0
C2578 C 0.73527 0.27686 0.37714 0.0
C2579 C 0.71405 0.20708 0.39455 0.0
C2580 C 0.7963 0.3361 0.35194 0.0
C2581 C 0.78304 0.31939 0.35464 0.0
C2582 C 0.7773 0.26964 0.38233 0.0
C2583 C 0.72648 0.24241 0.39207 0.0
C2584 C 0.74184 0.25784 0.38505 0.0
C2585 C 0.78555 0.30591 0.37136 0.0
C2586 C 0.77065 0.28892 0.37507 0.0
H2587 H 0.68136 0.2405 0.41835 0.0
H2588 H 0.70705 0.26497 0.40706 0.0
H2589 H 0.7686 0.2398 0.39334 0.0
H2590 H 0.8272 0.32851 0.39357 0.0
H2591 H 0.80407 0.29953 0.39834 0.0
loop_
_geom_bond_atom_site_label_1
_geom_bond_atom_site_label_2
_geom_bond_distance
_geom_bond_site_symmetry_2
_ccdc_geom_bond_type
C0 C1 1.351 . S
C0 N3 1.368 . S
C0 H5 0.931 . S
C1 C0 1.351 . S
C1 N2 1.373 . S
C1 H29 0.930 . S
N2 C1 1.373 . S
N2 C4 1.340 . S
N3 C0 1.368 . S
N3 C4 1.321 . S
N3 Co6 2.135 . S
C4 N2 1.340 . S
C4 N3 1.321 . S
C4 H28 0.930 . S
H5 C0 0.931 . S
Co6 N3 2.135 . S
Co6 N9 2.121 . S
Co6 O14 2.055 . S
Co6 O17 2.039 . S
Co6 N20 2.140 . S
C7 O8 1.227 . S
C7 O17 1.265 . S
O8 C7 1.227 . S
N9 Co6 2.121 . S
N9 C11 1.375 . S
N9 C12 1.313 . S
C10 C11 1.338 . S
C10 N13 1.377 . S
C10 H30 0.930 . S
C11 N9 1.375 . S
C11 C10 1.338 . S
C11 H15 0.931 . S
C12 N9 1.313 . S
C12 N13 1.344 . S
C12 H16 0.930 . S
N13 C10 1.377 . S
N13 C12 1.344 . S
O14 Co6 2.055 . S
O14 C18 1.253 . S
H15 C11 0.931 . S
H16 C12 0.930 . S
O17 Co6 2.039 . S
O17 C7 1.265 . S
C18 O14 1.253 . S
C18 O19 1.227 . S
O19 C18 1.227 . S
N20 Co6 2.140 . S
N20 C23 1.346 . S
N20 C24 1.345 . S
C21 C22 1.387 . S
C21 C25 1.391 . S
C22 C21 1.387 . S
C22 C23 1.369 . S
C22 H31 0.929 . S
C23 N20 1.346 . S
C23 C22 1.369 . S
C23 H26 0.928 . S
C24 N20 1.345 . S
C24 C25 1.371 . S
C24 H27 0.931 . S
C25 C21 1.391 . S
C25 C24 1.371 . S
C25 H32 0.930 . S
H26 C23 0.928 . S
H27 C24 0.931 . S
H28 C4 0.930 . S
H29 C1 0.930 . S
H30 C10 0.930 . S
H31 C22 0.929 . S
H32 C25 0.930 . S
C33 C34 1.351 . S
C33 N36 1.368 . S
C33 H38 0.931 . S
C34 C33 1.351 . S
C34 N35 1.373 . S
C34 H62 0.930 . S
N35 C34 1.373 . S
N35 C37 1.340 . S
N36 C33 1.368 . S
N36 C37 1.321 . S
N36 Co39 2.135 . S
C37 N35 1.340 . S
C37 N36 1.321 . S
C37 H61 0.930 . S
H38 C33 0.931 . S
Co39 N36 2.135 . S
Co39 N42 2.121 . S
Co39 O47 2.055 . S
Co39 O50 2.039 . S
Co39 N53 2.140 . S
C40 O41 1.227 . S
C40 O50 1.265 . S
O41 C40 1.227 . S
N42 Co39 2.121 . S
N42 C44 1.375 . S
N42 C45 1.313 . S
C43 C44 1.338 . S
C43 N46 1.377 . S
C43 H63 0.930 . S
C44 N42 1.375 . S
C44 C43 1.338 . S
C44 H48 0.931 . S
C45 N42 1.313 . S
C45 N46 1.344 . S
C45 H49 0.930 . S
N46 C43 1.377 . S
N46 C45 1.344 . S
O47 Co39 2.055 . S
O47 C51 1.253 . S
H48 C44 0.931 . S
H49 C45 0.930 . S
O50 Co39 2.039 . S
O50 C40 1.265 . S
C51 O47 1.253 . S
C51 O52 1.227 . S
O52 C51 1.227 . S
N53 Co39 2.140 . S
N53 C56 1.346 . S
N53 C57 1.345 . S
C54 C55 1.387 . S
C54 C58 1.391 . S
C55 C54 1.387 . S
C55 C56 1.369 . S
C55 H64 0.929 . S
C56 N53 1.346 . S
C56 C55 1.369 . S
C56 H59 0.928 . S
C57 N53 1.345 . S
C57 C58 1.371 . S
C57 H60 0.931 . S
C58 C54 1.391 . S
C58 C57 1.371 . S
C58 H65 0.930 . S
H59 C56 0.928 . S
H60 C57 0.931 . S
H61 C37 0.930 . S
H62 C34 0.930 . S
H63 C43 0.930 . S
H64 C55 0.929 . S
H65 C58 0.930 . S
C66 C67 1.351 . S
C66 N69 1.368 . S
C66 H71 0.931 . S
C67 C66 1.351 . S
C67 N68 1.373 . S
C67 H95 0.930 . S
N68 C67 1.373 . S
N68 C70 1.340 . S
N69 C66 1.368 . S
N69 C70 1.321 . S
N69 Co72 2.135 . S
C70 N68 1.340 . S
C70 N69 1.321 . S
C70 H94 0.930 . S
H71 C66 0.931 . S
Co72 N69 2.135 . S
Co72 N75 2.121 . S
Co72 O80 2.055 . S
Co72 O83 2.039 . S
Co72 N86 2.140 . S
C73 O74 1.227 . S
C73 O83 1.265 . S
O74 C73 1.227 . S
N75 Co72 2.121 . S
N75 C77 1.375 . S
N75 C78 1.313 . S
C76 C77 1.338 . S
C76 N79 1.377 . S
C76 H96 0.930 . S
C77 N75 1.375 . S
C77 C76 1.338 . S
C77 H81 0.931 . S
C78 N75 1.313 . S
C78 N79 1.344 . S
C78 H82 0.930 . S
N79 C76 1.377 . S
N79 C78 1.344 . S
O80 Co72 2.055 . S
O80 C84 1.253 . S
H81 C77 0.931 . S
H82 C78 0.930 . S
O83 Co72 2.039 . S
O83 C73 1.265 . S
C84 O80 1.253 . S
C84 O85 1.227 . S
O85 C84 1.227 . S
N86 Co72 2.140 . S
N86 C89 1.346 . S
N86 C90 1.345 . S
C87 C88 1.387 . S
C87 C91 1.391 . S
C88 C87 1.387 . S
C88 C89 1.369 . S
C88 H97 0.929 . S
C89 N86 1.346 . S
C89 C88 1.369 . S
C89 H92 0.928 . S
C90 N86 1.345 . S
C90 C91 1.371 . S
C90 H93 0.931 . S
C91 C87 1.391 . S
C91 C90 1.371 . S
C91 H98 0.930 . S
H92 C89 0.928 . S
H93 C90 0.931 . S
H94 C70 0.930 . S
H95 C67 0.930 . S
H96 C76 0.930 . S
H97 C88 0.929 . S
H98 C91 0.930 . S
C99 C100 1.351 . S
C99 N102 1.368 . S
C99 H104 0.931 . S
C100 C99 1.351 . S
C100 N101 1.373 . S
C100 H128 0.930 . S
N101 C100 1.373 . S
N101 C103 1.340 . S
N102 C99 1.368 . S
N102 C103 1.321 . S
N102 Co105 2.135 . S
C103 N101 1.340 . S
C103 N102 1.321 . S
C103 H127 0.930 . S
H104 C99 0.931 . S
Co105 N102 2.135 . S
Co105 N108 2.121 . S
Co105 O113 2.055 . S
Co105 O116 2.039 . S
Co105 N119 2.140 . S
C106 O107 1.227 . S
C106 O116 1.265 . S
O107 C106 1.227 . S
N108 Co105 2.121 . S
N108 C110 1.375 . S
N108 C111 1.313 . S
C109 C110 1.338 . S
C109 N112 1.377 . S
C109 H129 0.930 . S
C110 N108 1.375 . S
C110 C109 1.338 . S
C110 H114 0.931 . S
C111 N108 1.313 . S
C111 N112 1.344 . S
C111 H115 0.930 . S
N112 C109 1.377 . S
N112 C111 1.344 . S
O113 Co105 2.055 . S
O113 C117 1.253 . S
H114 C110 0.931 . S
H115 C111 0.930 . S
O116 Co105 2.039 . S
O116 C106 1.265 . S
C117 O113 1.253 . S
C117 O118 1.227 . S
O118 C117 1.227 . S
N119 Co105 2.140 . S
N119 C122 1.346 . S
N119 C123 1.345 . S
C120 C121 1.387 . S
C120 C124 1.391 . S
C121 C120 1.387 . S
C121 C122 1.369 . S
C121 H130 0.929 . S
C122 N119 1.346 . S
C122 C121 1.369 . S
C122 H125 0.928 . S
C123 N119 1.345 . S
C123 C124 1.371 . S
C123 H126 0.931 . S
C124 C120 1.391 . S
C124 C123 1.371 . S
C124 H131 0.930 . S
H125 C122 0.928 . S
H126 C123 0.931 . S
H127 C103 0.930 . S
H128 C100 0.930 . S
H129 C109 0.930 . S
H130 C121 0.929 . S
H131 C124 0.930 . S
C132 C133 1.351 . S
C132 N135 1.368 . S
C132 H137 0.931 . S
C133 C132 1.351 . S
C133 N134 1.373 . S
C133 H161 0.930 . S
N134 C133 1.373 . S
N134 C136 1.340 . S
N135 C132 1.368 . S
N135 C136 1.321 . S
N135 Co138 2.135 . S
C136 N134 1.340 . S
C136 N135 1.321 . S
C136 H160 0.930 . S
H137 C132 0.931 . S
Co138 N135 2.135 . S
Co138 N141 2.121 . S
Co138 O146 2.055 . S
Co138 O149 2.039 . S
Co138 N152 2.140 . S
C139 O140 1.227 . S
C139 O149 1.265 . S
O140 C139 1.227 . S
N141 Co138 2.121 . S
N141 C143 1.375 . S
N141 C144 1.313 . S
C142 C143 1.338 . S
C142 N145 1.377 . S
C142 H162 0.930 . S
C143 N141 1.375 . S
C143 C142 1.338 . S
C143 H147 0.931 . S
C144 N141 1.313 . S
C144 N145 1.344 . S
C144 H148 0.930 . S
N145 C142 1.377 . S
N145 C144 1.344 . S
O146 Co138 2.055 . S
O146 C150 1.253 . S
H147 C143 0.931 . S
H148 C144 0.930 . S
O149 Co138 2.039 . S
O149 C139 1.265 . S
C150 O146 1.253 . S
C150 O151 1.227 . S
O151 C150 1.227 . S
N152 Co138 2.140 . S
N152 C155 1.346 . S
N152 C156 1.345 . S
C153 C154 1.387 . S
C153 C157 1.391 . S
C154 C153 1.387 . S
C154 C155 1.369 . S
C154 H163 0.929 . S
C155 N152 1.346 . S
C155 C154 1.369 . S
C155 H158 0.928 . S
C156 N152 1.345 . S
C156 C157 1.371 . S
C156 H159 0.931 . S
C157 C153 1.391 . S
C157 C156 1.371 . S
C157 H164 0.930 . S
H158 C155 0.928 . S
H159 C156 0.931 . S
H160 C136 0.930 . S
H161 C133 0.930 . S
H162 C142 0.930 . S
H163 C154 0.929 . S
H164 C157 0.930 . S
C165 C166 1.351 . S
C165 N168 1.368 . S
C165 H170 0.931 . S
C166 C165 1.351 . S
C166 N167 1.373 . S
C166 H194 0.930 . S
N167 C166 1.373 . S
N167 C169 1.340 . S
N168 C165 1.368 . S
N168 C169 1.321 . S
N168 Co171 2.135 . S
C169 N167 1.340 . S
C169 N168 1.321 . S
C169 H193 0.930 . S
H170 C165 0.931 . S
Co171 N168 2.135 . S
Co171 N174 2.121 . S
Co171 O179 2.055 . S
Co171 O182 2.039 . S
Co171 N185 2.140 . S
C172 O173 1.227 . S
C172 O182 1.265 . S
O173 C172 1.227 . S
N174 Co171 2.121 . S
N174 C176 1.375 . S
N174 C177 1.313 . S
C175 C176 1.338 . S
C175 N178 1.377 . S
C175 H195 0.930 . S
C176 N174 1.375 . S
C176 C175 1.338 . S
C176 H180 0.931 . S
C177 N174 1.313 . S
C177 N178 1.344 . S
C177 H181 0.930 . S
N178 C175 1.377 . S
N178 C177 1.344 . S
O179 Co171 2.055 . S
O179 C183 1.253 . S
H180 C176 0.931 . S
H181 C177 0.930 . S
O182 Co171 2.039 . S
O182 C172 1.265 . S
C183 O179 1.253 . S
C183 O184 1.227 . S
O184 C183 1.227 . S
N185 Co171 2.140 . S
N185 C188 1.346 . S
N185 C189 1.345 . S
C186 C187 1.387 . S
C186 C190 1.391 . S
C187 C186 1.387 . S
C187 C188 1.369 . S
C187 H196 0.929 . S
C188 N185 1.346 . S
C188 C187 1.369 . S
C188 H191 0.928 . S
C189 N185 1.345 . S
C189 C190 1.371 . S
C189 H192 0.931 . S
C190 C186 1.391 . S
C190 C189 1.371 . S
C190 H197 0.930 . S
H191 C188 0.928 . S
H192 C189 0.931 . S
H193 C169 0.930 . S
H194 C166 0.930 . S
H195 C175 0.930 . S
H196 C187 0.929 . S
H197 C190 0.930 . S
C198 C199 1.351 . S
C198 N201 1.368 . S
C198 H203 0.931 . S
C199 C198 1.351 . S
C199 N200 1.373 . S
C199 H227 0.930 . S
N200 C199 1.373 . S
N200 C202 1.340 . S
N201 C198 1.368 . S
N201 C202 1.321 . S
N201 Co204 2.135 . S
C202 N200 1.340 . S
C202 N201 1.321 . S
C202 H226 0.930 . S
H203 C198 0.931 . S
Co204 N201 2.135 . S
Co204 N207 2.121 . S
Co204 O212 2.055 . S
Co204 O215 2.039 . S
Co204 N218 2.140 . S
C205 O206 1.227 . S
C205 O215 1.265 . S
O206 C205 1.227 . S
N207 Co204 2.121 . S
N207 C209 1.375 . S
N207 C210 1.313 . S
C208 C209 1.338 . S
C208 N211 1.377 . S
C208 H228 0.930 . S
C209 N207 1.375 . S
C209 C208 1.338 . S
C209 H213 0.931 . S
C210 N207 1.313 . S
C210 N211 1.344 . S
C210 H214 0.930 . S
N211 C208 1.377 . S
N211 C210 1.344 . S
O212 Co204 2.055 . S
O212 C216 1.253 . S
H213 C209 0.931 . S
H214 C210 0.930 . S
O215 Co204 2.039 . S
O215 C205 1.265 . S
C216 O212 1.253 . S
C216 O217 1.227 . S
O217 C216 1.227 . S
N218 Co204 2.140 . S
N218 C221 1.346 . S
N218 C222 1.345 . S
C219 C220 1.387 . S
C219 C223 1.391 . S
C220 C219 1.387 . S
C220 C221 1.369 . S
C220 H229 0.929 . S
C221 N218 1.346 . S
C221 C220 1.369 . S
C221 H224 0.928 . S
C222 N218 1.345 . S
C222 C223 1.371 . S
C222 H225 0.931 . S
C223 C219 1.391 . S
C223 C222 1.371 . S
C223 H230 0.930 . S
H224 C221 0.928 . S
H225 C222 0.931 . S
H226 C202 0.930 . S
H227 C199 0.930 . S
H228 C208 0.930 . S
H229 C220 0.929 . S
H230 C223 0.930 . S
C231 C232 1.351 . S
C231 N234 1.368 . S
C231 H236 0.931 . S
C232 C231 1.351 . S
C232 N233 1.373 . S
C232 H260 0.930 . S
N233 C232 1.373 . S
N233 C235 1.340 . S
N234 C231 1.368 . S
N234 C235 1.321 . S
N234 Co237 2.135 . S
C235 N233 1.340 . S
C235 N234 1.321 . S
C235 H259 0.930 . S
H236 C231 0.931 . S
Co237 N234 2.135 . S
Co237 N240 2.121 . S
Co237 O245 2.055 . S
Co237 O248 2.039 . S
Co237 N251 2.140 . S
C238 O239 1.227 . S
C238 O248 1.265 . S
O239 C238 1.227 . S
N240 Co237 2.121 . S
N240 C242 1.375 . S
N240 C243 1.313 . S
C241 C242 1.338 . S
C241 N244 1.377 . S
C241 H261 0.930 . S
C242 N240 1.375 . S
C242 C241 1.338 . S
C242 H246 0.931 . S
C243 N240 1.313 . S
C243 N244 1.344 . S
C243 H247 0.930 . S
N244 C241 1.377 . S
N244 C243 1.344 . S
O245 Co237 2.055 . S
O245 C249 1.253 . S
H246 C242 0.931 . S
H247 C243 0.930 . S
O248 Co237 2.039 . S
O248 C238 1.265 . S
C249 O245 1.253 . S
C249 O250 1.227 . S
O250 C249 1.227 . S
N251 Co237 2.140 . S
N251 C254 1.346 . S
N251 C255 1.345 . S
C252 C253 1.387 . S
C252 C256 1.391 . S
C253 C252 1.387 . S
C253 C254 1.369 . S
C253 H262 0.929 . S
C254 N251 1.346 . S
C254 C253 1.369 . S
C254 H257 0.928 . S
C255 N251 1.345 . S
C255 C256 1.371 . S
C255 H258 0.931 . S
C256 C252 1.391 . S
C256 C255 1.371 . S
C256 H263 0.930 . S
H257 C254 0.928 . S
H258 C255 0.931 . S
H259 C235 0.930 . S
H260 C232 0.930 . S
H261 C241 0.930 . S
H262 C253 0.929 . S
H263 C256 0.930 . S
C264 C265 1.351 . S
C264 N267 1.368 . S
C264 H269 0.931 . S
C265 C264 1.351 . S
C265 N266 1.373 . S
C265 H293 0.930 . S
N266 C265 1.373 . S
N266 C268 1.340 . S
N267 C264 1.368 . S
N267 C268 1.321 . S
N267 Co270 2.135 . S
C268 N266 1.340 . S
C268 N267 1.321 . S
C268 H292 0.930 . S
H269 C264 0.931 . S
Co270 N267 2.135 . S
Co270 N273 2.121 . S
Co270 O278 2.055 . S
Co270 O281 2.039 . S
Co270 N284 2.140 . S
C271 O272 1.227 . S
C271 O281 1.265 . S
O272 C271 1.227 . S
N273 Co270 2.121 . S
N273 C275 1.375 . S
N273 C276 1.313 . S
C274 C275 1.338 . S
C274 N277 1.377 . S
C274 H294 0.930 . S
C275 N273 1.375 . S
C275 C274 1.338 . S
C275 H279 0.931 . S
C276 N273 1.313 . S
C276 N277 1.344 . S
C276 H280 0.930 . S
N277 C274 1.377 . S
N277 C276 1.344 . S
O278 Co270 2.055 . S
O278 C282 1.253 . S
H279 C275 0.931 . S
H280 C276 0.930 . S
O281 Co270 2.039 . S
O281 C271 1.265 . S
C282 O278 1.253 . S
C282 O283 1.227 . S
O283 C282 1.227 . S
N284 Co270 2.140 . S
N284 C287 1.346 . S
N284 C288 1.345 . S
C285 C286 1.387 . S
C285 C289 1.391 . S
C286 C285 1.387 . S
C286 C287 1.369 . S
C286 H295 0.929 . S
C287 N284 1.346 . S
C287 C286 1.369 . S
C287 H290 0.928 . S
C288 N284 1.345 . S
C288 C289 1.371 . S
C288 H291 0.931 . S
C289 C285 1.391 . S
C289 C288 1.371 . S
C289 H296 0.930 . S
H290 C287 0.928 . S
H291 C288 0.931 . S
H292 C268 0.930 . S
H293 C265 0.930 . S
H294 C274 0.930 . S
H295 C286 0.929 . S
H296 C289 0.930 . S
C297 C298 1.351 . S
C297 N300 1.368 . S
C297 H302 0.931 . S
C298 C297 1.351 . S
C298 N299 1.373 . S
C298 H326 0.930 . S
N299 C298 1.373 . S
N299 C301 1.340 . S
N300 C297 1.368 . S
N300 C301 1.321 . S
N300 Co303 2.135 . S
C301 N299 1.340 . S
C301 N300 1.321 . S
C301 H325 0.930 . S
H302 C297 0.931 . S
Co303 N300 2.135 . S
Co303 N306 2.121 . S
Co303 O311 2.055 . S
Co303 O314 2.039 . S
Co303 N317 2.140 . S
C304 O305 1.227 . S
C304 O314 1.265 . S
O305 C304 1.227 . S
N306 Co303 2.121 . S
N306 C308 1.375 . S
N306 C309 1.313 . S
C307 C308 1.338 . S
C307 N310 1.377 . S
C307 H327 0.930 . S
C308 N306 1.375 . S
C308 C307 1.338 . S
C308 H312 0.931 . S
C309 N306 1.313 . S
C309 N310 1.344 . S
C309 H313 0.930 . S
N310 C307 1.377 . S
N310 C309 1.344 . S
O311 Co303 2.055 . S
O311 C315 1.253 . S
H312 C308 0.931 . S
H313 C309 0.930 . S
O314 Co303 2.039 . S
O314 C304 1.265 . S
C315 O311 1.253 . S
C315 O316 1.227 . S
O316 C315 1.227 . S
N317 Co303 2.140 . S
N317 C320 1.346 . S
N317 C321 1.345 . S
C318 C319 1.387 . S
C318 C322 1.391 . S
C319 C318 1.387 . S
C319 C320 1.369 . S
C319 H328 0.929 . S
C320 N317 1.346 . S
C320 C319 1.369 . S
C320 H323 0.928 . S
C321 N317 1.345 . S
C321 C322 1.371 . S
C321 H324 0.931 . S
C322 C318 1.391 . S
C322 C321 1.371 . S
C322 H329 0.930 . S
H323 C320 0.928 . S
H324 C321 0.931 . S
H325 C301 0.930 . S
H326 C298 0.930 . S
H327 C307 0.930 . S
H328 C319 0.929 . S
H329 C322 0.930 . S
C330 C331 1.351 . S
C330 N333 1.368 . S
C330 H335 0.931 . S
C331 C330 1.351 . S
C331 N332 1.373 . S
C331 H359 0.930 . S
N332 C331 1.373 . S
N332 C334 1.340 . S
N333 C330 1.368 . S
N333 C334 1.321 . S
N333 Co336 2.135 . S
C334 N332 1.340 . S
C334 N333 1.321 . S
C334 H358 0.930 . S
H335 C330 0.931 . S
Co336 N333 2.135 . S
Co336 N339 2.121 . S
Co336 O344 2.055 . S
Co336 O347 2.039 . S
Co336 N350 2.140 . S
C337 O338 1.227 . S
C337 O347 1.265 . S
O338 C337 1.227 . S
N339 Co336 2.121 . S
N339 C341 1.375 . S
N339 C342 1.313 . S
C340 C341 1.338 . S
C340 N343 1.377 . S
C340 H360 0.930 . S
C341 N339 1.375 . S
C341 C340 1.338 . S
C341 H345 0.931 . S
C342 N339 1.313 . S
C342 N343 1.344 . S
C342 H346 0.930 . S
N343 C340 1.377 . S
N343 C342 1.344 . S
O344 Co336 2.055 . S
O344 C348 1.253 . S
H345 C341 0.931 . S
H346 C342 0.930 . S
O347 Co336 2.039 . S
O347 C337 1.265 . S
C348 O344 1.253 . S
C348 O349 1.227 . S
O349 C348 1.227 . S
N350 Co336 2.140 . S
N350 C353 1.346 . S
N350 C354 1.345 . S
C351 C352 1.387 . S
C351 C355 1.391 . S
C352 C351 1.387 . S
C352 C353 1.369 . S
C352 H361 0.929 . S
C353 N350 1.346 . S
C353 C352 1.369 . S
C353 H356 0.928 . S
C354 N350 1.345 . S
C354 C355 1.371 . S
C354 H357 0.931 . S
C355 C351 1.391 . S
C355 C354 1.371 . S
C355 H362 0.930 . S
H356 C353 0.928 . S
H357 C354 0.931 . S
H358 C334 0.930 . S
H359 C331 0.930 . S
H360 C340 0.930 . S
H361 C352 0.929 . S
H362 C355 0.930 . S
C363 C364 1.351 . S
C363 N366 1.368 . S
C363 H368 0.931 . S
C364 C363 1.351 . S
C364 N365 1.373 . S
C364 H392 0.930 . S
N365 C364 1.373 . S
N365 C367 1.340 . S
N366 C363 1.368 . S
N366 C367 1.321 . S
N366 Co369 2.135 . S
C367 N365 1.340 . S
C367 N366 1.321 . S
C367 H391 0.930 . S
H368 C363 0.931 . S
Co369 N366 2.135 . S
Co369 N372 2.121 . S
Co369 O377 2.055 . S
Co369 O380 2.039 . S
Co369 N383 2.140 . S
C370 O371 1.227 . S
C370 O380 1.265 . S
O371 C370 1.227 . S
N372 Co369 2.121 . S
N372 C374 1.375 . S
N372 C375 1.313 . S
C373 C374 1.338 . S
C373 N376 1.377 . S
C373 H393 0.930 . S
C374 N372 1.375 . S
C374 C373 1.338 . S
C374 H378 0.931 . S
C375 N372 1.313 . S
C375 N376 1.344 . S
C375 H379 0.930 . S
N376 C373 1.377 . S
N376 C375 1.344 . S
O377 Co369 2.055 . S
O377 C381 1.253 . S
H378 C374 0.931 . S
H379 C375 0.930 . S
O380 Co369 2.039 . S
O380 C370 1.265 . S
C381 O377 1.253 . S
C381 O382 1.227 . S
O382 C381 1.227 . S
N383 Co369 2.140 . S
N383 C386 1.346 . S
N383 C387 1.345 . S
C384 C385 1.387 . S
C384 C388 1.391 . S
C385 C384 1.387 . S
C385 C386 1.369 . S
C385 H394 0.929 . S
C386 N383 1.346 . S
C386 C385 1.369 . S
C386 H389 0.928 . S
C387 N383 1.345 . S
C387 C388 1.371 . S
C387 H390 0.931 . S
C388 C384 1.391 . S
C388 C387 1.371 . S
C388 H395 0.930 . S
H389 C386 0.928 . S
H390 C387 0.931 . S
H391 C367 0.930 . S
H392 C364 0.930 . S
H393 C373 0.930 . S
H394 C385 0.929 . S
H395 C388 0.930 . S
C396 C397 1.351 . S
C396 N399 1.368 . S
C396 H401 0.931 . S
C397 C396 1.351 . S
C397 N398 1.373 . S
C397 H425 0.930 . S
N398 C397 1.373 . S
N398 C400 1.340 . S
N399 C396 1.368 . S
N399 C400 1.321 . S
N399 Co402 2.135 . S
C400 N398 1.340 . S
C400 N399 1.321 . S
C400 H424 0.930 . S
H401 C396 0.931 . S
Co402 N399 2.135 . S
Co402 N405 2.121 . S
Co402 O410 2.055 . S
Co402 O413 2.039 . S
Co402 N416 2.140 . S
C403 O404 1.227 . S
C403 O413 1.265 . S
O404 C403 1.227 . S
N405 Co402 2.121 . S
N405 C407 1.375 . S
N405 C408 1.313 . S
C406 C407 1.338 . S
C406 N409 1.377 . S
C406 H426 0.930 . S
C407 N405 1.375 . S
C407 C406 1.338 . S
C407 H411 0.931 . S
C408 N405 1.313 . S
C408 N409 1.344 . S
C408 H412 0.930 . S
N409 C406 1.377 . S
N409 C408 1.344 . S
O410 Co402 2.055 . S
O410 C414 1.253 . S
H411 C407 0.931 . S
H412 C408 0.930 . S
O413 Co402 2.039 . S
O413 C403 1.265 . S
C414 O410 1.253 . S
C414 O415 1.227 . S
O415 C414 1.227 . S
N416 Co402 2.140 . S
N416 C419 1.346 . S
N416 C420 1.345 . S
C417 C418 1.387 . S
C417 C421 1.391 . S
C418 C417 1.387 . S
C418 C419 1.369 . S
C418 H427 0.929 . S
C419 N416 1.346 . S
C419 C418 1.369 . S
C419 H422 0.928 . S
C420 N416 1.345 . S
C420 C421 1.371 . S
C420 H423 0.931 . S
C421 C417 1.391 . S
C421 C420 1.371 . S
C421 H428 0.930 . S
H422 C419 0.928 . S
H423 C420 0.931 . S
H424 C400 0.930 . S
H425 C397 0.930 . S
H426 C406 0.930 . S
H427 C418 0.929 . S
H428 C421 0.930 . S
C429 C430 1.351 . S
C429 N432 1.368 . S
C429 H434 0.931 . S
C430 C429 1.351 . S
C430 N431 1.373 . S
C430 H458 0.930 . S
N431 C430 1.373 . S
N431 C433 1.340 . S
N432 C429 1.368 . S
N432 C433 1.321 . S
N432 Co435 2.135 . S
C433 N431 1.340 . S
C433 N432 1.321 . S
C433 H457 0.930 . S
H434 C429 0.931 . S
Co435 N432 2.135 . S
Co435 N438 2.121 . S
Co435 O443 2.055 . S
Co435 O446 2.039 . S
Co435 N449 2.140 . S
C436 O437 1.227 . S
C436 O446 1.265 . S
O437 C436 1.227 . S
N438 Co435 2.121 . S
N438 C440 1.375 . S
N438 C441 1.313 . S
C439 C440 1.338 . S
C439 N442 1.377 . S
C439 H459 0.930 . S
C440 N438 1.375 . S
C440 C439 1.338 . S
C440 H444 0.931 . S
C441 N438 1.313 . S
C441 N442 1.344 . S
C441 H445 0.930 . S
N442 C439 1.377 . S
N442 C441 1.344 . S
O443 Co435 2.055 . S
O443 C447 1.253 . S
H444 C440 0.931 . S
H445 C441 0.930 . S
O446 Co435 2.039 . S
O446 C436 1.265 . S
C447 O443 1.253 . S
C447 O448 1.227 . S
O448 C447 1.227 . S
N449 Co435 2.140 . S
N449 C452 1.346 . S
N449 C453 1.345 . S
C450 C451 1.387 . S
C450 C454 1.391 . S
C451 C450 1.387 . S
C451 C452 1.369 . S
C451 H460 0.929 . S
C452 N449 1.346 . S
C452 C451 1.369 . S
C452 H455 0.928 . S
C453 N449 1.345 . S
C453 C454 1.371 . S
C453 H456 0.931 . S
C454 C450 1.391 . S
C454 C453 1.371 . S
C454 H461 0.930 . S
H455 C452 0.928 . S
H456 C453 0.931 . S
H457 C433 0.930 . S
H458 C430 0.930 . S
H459 C439 0.930 . S
H460 C451 0.929 . S
H461 C454 0.930 . S
C462 C463 1.351 . S
C462 N465 1.368 . S
C462 H467 0.931 . S
C463 C462 1.351 . S
C463 N464 1.373 . S
C463 H491 0.930 . S
N464 C463 1.373 . S
N464 C466 1.340 . S
N465 C462 1.368 . S
N465 C466 1.321 . S
N465 Co468 2.135 . S
C466 N464 1.340 . S
C466 N465 1.321 . S
C466 H490 0.930 . S
H467 C462 0.931 . S
Co468 N465 2.135 . S
Co468 N471 2.121 . S
Co468 O476 2.055 . S
Co468 O479 2.039 . S
Co468 N482 2.140 . S
C469 O470 1.227 . S
C469 O479 1.265 . S
O470 C469 1.227 . S
N471 Co468 2.121 . S
N471 C473 1.375 . S
N471 C474 1.313 . S
C472 C473 1.338 . S
C472 N475 1.377 . S
C472 H492 0.930 . S
C473 N471 1.375 . S
C473 C472 1.338 . S
C473 H477 0.931 . S
C474 N471 1.313 . S
C474 N475 1.344 . S
C474 H478 0.930 . S
N475 C472 1.377 . S
N475 C474 1.344 . S
O476 Co468 2.055 . S
O476 C480 1.253 . S
H477 C473 0.931 . S
H478 C474 0.930 . S
O479 Co468 2.039 . S
O479 C469 1.265 . S
C480 O476 1.253 . S
C480 O481 1.227 . S
O481 C480 1.227 . S
N482 Co468 2.140 . S
N482 C485 1.346 . S
N482 C486 1.345 . S
C483 C484 1.387 . S
C483 C487 1.391 . S
C484 C483 1.387 . S
C484 C485 1.369 . S
C484 H493 0.929 . S
C485 N482 1.346 . S
C485 C484 1.369 . S
C485 H488 0.928 . S
C486 N482 1.345 . S
C486 C487 1.371 . S
C486 H489 0.931 . S
C487 C483 1.391 . S
C487 C486 1.371 . S
C487 H494 0.930 . S
H488 C485 0.928 . S
H489 C486 0.931 . S
H490 C466 0.930 . S
H491 C463 0.930 . S
H492 C472 0.930 . S
H493 C484 0.929 . S
H494 C487 0.930 . S
C495 C496 1.351 . S
C495 N498 1.368 . S
C495 H500 0.931 . S
C496 C495 1.351 . S
C496 N497 1.373 . S
C496 H524 0.930 . S
N497 C496 1.373 . S
N497 C499 1.340 . S
N498 C495 1.368 . S
N498 C499 1.321 . S
N498 Co501 2.135 . S
C499 N497 1.340 . S
C499 N498 1.321 . S
C499 H523 0.930 . S
H500 C495 0.931 . S
Co501 N498 2.135 . S
Co501 N504 2.121 . S
Co501 O509 2.055 . S
Co501 O512 2.039 . S
Co501 N515 2.140 . S
C502 O503 1.227 . S
C502 O512 1.265 . S
O503 C502 1.227 . S
N504 Co501 2.121 . S
N504 C506 1.375 . S
N504 C507 1.313 . S
C505 C506 1.338 . S
C505 N508 1.377 . S
C505 H525 0.930 . S
C506 N504 1.375 . S
C506 C505 1.338 . S
C506 H510 0.931 . S
C507 N504 1.313 . S
C507 N508 1.344 . S
C507 H511 0.930 . S
N508 C505 1.377 . S
N508 C507 1.344 . S
O509 Co501 2.055 . S
O509 C513 1.253 . S
H510 C506 0.931 . S
H511 C507 0.930 . S
O512 Co501 2.039 . S
O512 C502 1.265 . S
C513 O509 1.253 . S
C513 O514 1.227 . S
O514 C513 1.227 . S
N515 Co501 2.140 . S
N515 C518 1.346 . S
N515 C519 1.345 . S
C516 C517 1.387 . S
C516 C520 1.391 . S
C517 C516 1.387 . S
C517 C518 1.369 . S
C517 H526 0.929 . S
C518 N515 1.346 . S
C518 C517 1.369 . S
C518 H521 0.928 . S
C519 N515 1.345 . S
C519 C520 1.371 . S
C519 H522 0.931 . S
C520 C516 1.391 . S
C520 C519 1.371 . S
C520 H527 0.930 . S
H521 C518 0.928 . S
H522 C519 0.931 . S
H523 C499 0.930 . S
H524 C496 0.930 . S
H525 C505 0.930 . S
H526 C517 0.929 . S
H527 C520 0.930 . S
C528 C529 1.351 . S
C528 N531 1.368 . S
C528 H533 0.931 . S
C529 C528 1.351 . S
C529 N530 1.373 . S
C529 H557 0.930 . S
N530 C529 1.373 . S
N530 C532 1.340 . S
N531 C528 1.368 . S
N531 C532 1.321 . S
N531 Co534 2.135 . S
C532 N530 1.340 . S
C532 N531 1.321 . S
C532 H556 0.930 . S
H533 C528 0.931 . S
Co534 N531 2.135 . S
Co534 N537 2.121 . S
Co534 O542 2.055 . S
Co534 O545 2.039 . S
Co534 N548 2.140 . S
C535 O536 1.227 . S
C535 O545 1.265 . S
O536 C535 1.227 . S
N537 Co534 2.121 . S
N537 C539 1.375 . S
N537 C540 1.313 . S
C538 C539 1.338 . S
C538 N541 1.377 . S
C538 H558 0.930 . S
C539 N537 1.375 . S
C539 C538 1.338 . S
C539 H543 0.931 . S
C540 N537 1.313 . S
C540 N541 1.344 . S
C540 H544 0.930 . S
N541 C538 1.377 . S
N541 C540 1.344 . S
O542 Co534 2.055 . S
O542 C546 1.253 . S
H543 C539 0.931 . S
H544 C540 0.930 . S
O545 Co534 2.039 . S
O545 C535 1.265 . S
C546 O542 1.253 . S
C546 O547 1.227 . S
O547 C546 1.227 . S
N548 Co534 2.140 . S
N548 C551 1.346 . S
N548 C552 1.345 . S
C549 C550 1.387 . S
C549 C553 1.391 . S
C550 C549 1.387 . S
C550 C551 1.369 . S
C550 H559 0.929 . S
C551 N548 1.346 . S
C551 C550 1.369 . S
C551 H554 0.928 . S
C552 N548 1.345 . S
C552 C553 1.371 . S
C552 H555 0.931 . S
C553 C549 1.391 . S
C553 C552 1.371 . S
C553 H560 0.930 . S
H554 C551 0.928 . S
H555 C552 0.931 . S
H556 C532 0.930 . S
H557 C529 0.930 . S
H558 C538 0.930 . S
H559 C550 0.929 . S
H560 C553 0.930 . S
C561 C562 1.351 . S
C561 N564 1.368 . S
C561 H566 0.931 . S
C562 C561 1.351 . S
C562 N563 1.373 . S
C562 H590 0.930 . S
N563 C562 1.373 . S
N563 C565 1.340 . S
N564 C561 1.368 . S
N564 C565 1.321 . S
N564 Co567 2.135 . S
C565 N563 1.340 . S
C565 N564 1.321 . S
C565 H589 0.930 . S
H566 C561 0.931 . S
Co567 N564 2.135 . S
Co567 N570 2.121 . S
Co567 O575 2.055 . S
Co567 O578 2.039 . S
Co567 N581 2.140 . S
C568 O569 1.227 . S
C568 O578 1.265 . S
O569 C568 1.227 . S
N570 Co567 2.121 . S
N570 C572 1.375 . S
N570 C573 1.313 . S
C571 C572 1.338 . S
C571 N574 1.377 . S
C571 H591 0.930 . S
C572 N570 1.375 . S
C572 C571 1.338 . S
C572 H576 0.931 . S
C573 N570 1.313 . S
C573 N574 1.344 . S
C573 H577 0.930 . S
N574 C571 1.377 . S
N574 C573 1.344 . S
O575 Co567 2.055 . S
O575 C579 1.253 . S
H576 C572 0.931 . S
H577 C573 0.930 . S
O578 Co567 2.039 . S
O578 C568 1.265 . S
C579 O575 1.253 . S
C579 O580 1.227 . S
O580 C579 1.227 . S
N581 Co567 2.140 . S
N581 C584 1.346 . S
N581 C585 1.345 . S
C582 C583 1.387 . S
C582 C586 1.391 . S
C583 C582 1.387 . S
C583 C584 1.369 . S
C583 H592 0.929 . S
C584 N581 1.346 . S
C584 C583 1.369 . S
C584 H587 0.928 . S
C585 N581 1.345 . S
C585 C586 1.371 . S
C585 H588 0.931 . S
C586 C582 1.391 . S
C586 C585 1.371 . S
C586 H593 0.930 . S
H587 C584 0.928 . S
H588 C585 0.931 . S
H589 C565 0.930 . S
H590 C562 0.930 . S
H591 C571 0.930 . S
H592 C583 0.929 . S
H593 C586 0.930 . S
C594 C595 1.351 . S
C594 N597 1.368 . S
C594 H599 0.931 . S
C595 C594 1.351 . S
C595 N596 1.373 . S
C595 H623 0.930 . S
N596 C595 1.373 . S
N596 C598 1.340 . S
N597 C594 1.368 . S
N597 C598 1.321 . S
N597 Co600 2.135 . S
C598 N596 1.340 . S
C598 N597 1.321 . S
C598 H622 0.930 . S
H599 C594 0.931 . S
Co600 N597 2.135 . S
Co600 N603 2.121 . S
Co600 O608 2.055 . S
Co600 O611 2.039 . S
Co600 N614 2.140 . S
C601 O602 1.227 . S
C601 O611 1.265 . S
O602 C601 1.227 . S
N603 Co600 2.121 . S
N603 C605 1.375 . S
N603 C606 1.313 . S
C604 C605 1.338 . S
C604 N607 1.377 . S
C604 H624 0.930 . S
C605 N603 1.375 . S
C605 C604 1.338 . S
C605 H609 0.931 . S
C606 N603 1.313 . S
C606 N607 1.344 . S
C606 H610 0.930 . S
N607 C604 1.377 . S
N607 C606 1.344 . S
O608 Co600 2.055 . S
O608 C612 1.253 . S
H609 C605 0.931 . S
H610 C606 0.930 . S
O611 Co600 2.039 . S
O611 C601 1.265 . S
C612 O608 1.253 . S
C612 O613 1.227 . S
O613 C612 1.227 . S
N614 Co600 2.140 . S
N614 C617 1.346 . S
N614 C618 1.345 . S
C615 C616 1.387 . S
C615 C619 1.391 . S
C616 C615 1.387 . S
C616 C617 1.369 . S
C616 H625 0.929 . S
C617 N614 1.346 . S
C617 C616 1.369 . S
C617 H620 0.928 . S
C618 N614 1.345 . S
C618 C619 1.371 . S
C618 H621 0.931 . S
C619 C615 1.391 . S
C619 C618 1.371 . S
C619 H626 0.930 . S
H620 C617 0.928 . S
H621 C618 0.931 . S
H622 C598 0.930 . S
H623 C595 0.930 . S
H624 C604 0.930 . S
H625 C616 0.929 . S
H626 C619 0.930 . S
C627 C628 1.351 . S
C627 N630 1.368 . S
C627 H632 0.931 . S
C628 C627 1.351 . S
C628 N629 1.373 . S
C628 H656 0.930 . S
N629 C628 1.373 . S
N629 C631 1.340 . S
N630 C627 1.368 . S
N630 C631 1.321 . S
N630 Co633 2.135 . S
C631 N629 1.340 . S
C631 N630 1.321 . S
C631 H655 0.930 . S
H632 C627 0.931 . S
Co633 N630 2.135 . S
Co633 N636 2.121 . S
Co633 O641 2.055 . S
Co633 O644 2.039 . S
Co633 N647 2.140 . S
C634 O635 1.227 . S
C634 O644 1.265 . S
O635 C634 1.227 . S
N636 Co633 2.121 . S
N636 C638 1.375 . S
N636 C639 1.313 . S
C637 C638 1.338 . S
C637 N640 1.377 . S
C637 H657 0.930 . S
C638 N636 1.375 . S
C638 C637 1.338 . S
C638 H642 0.931 . S
C639 N636 1.313 . S
C639 N640 1.344 . S
C639 H643 0.930 . S
N640 C637 1.377 . S
N640 C639 1.344 . S
O641 Co633 2.055 . S
O641 C645 1.253 . S
H642 C638 0.931 . S
H643 C639 0.930 . S
O644 Co633 2.039 . S
O644 C634 1.265 . S
C645 O641 1.253 . S
C645 O646 1.227 . S
O646 C645 1.227 . S
N647 Co633 2.140 . S
N647 C650 1.346 . S
N647 C651 1.345 . S
C648 C649 1.387 . S
C648 C652 1.391 . S
C649 C648 1.387 . S
C649 C650 1.369 . S
C649 H658 0.929 . S
C650 N647 1.346 . S
C650 C649 1.369 . S
C650 H653 0.928 . S
C651 N647 1.345 . S
C651 C652 1.371 . S
C651 H654 0.931 . S
C652 C648 1.391 . S
C652 C651 1.371 . S
C652 H659 0.930 . S
H653 C650 0.928 . S
H654 C651 0.931 . S
H655 C631 0.930 . S
H656 C628 0.930 . S
H657 C637 0.930 . S
H658 C649 0.929 . S
H659 C652 0.930 . S
C660 C661 1.351 . S
C660 N663 1.368 . S
C660 H665 0.931 . S
C661 C660 1.351 . S
C661 N662 1.373 . S
C661 H689 0.930 . S
N662 C661 1.373 . S
N662 C664 1.340 . S
N663 C660 1.368 . S
N663 C664 1.321 . S
N663 Co666 2.135 . S
C664 N662 1.340 . S
C664 N663 1.321 . S
C664 H688 0.930 . S
H665 C660 0.931 . S
Co666 N663 2.135 . S
Co666 N669 2.121 . S
Co666 O674 2.055 . S
Co666 O677 2.039 . S
Co666 N680 2.140 . S
C667 O668 1.227 . S
C667 O677 1.265 . S
O668 C667 1.227 . S
N669 Co666 2.121 . S
N669 C671 1.375 . S
N669 C672 1.313 . S
C670 C671 1.338 . S
C670 N673 1.377 . S
C670 H690 0.930 . S
C671 N669 1.375 . S
C671 C670 1.338 . S
C671 H675 0.931 . S
C672 N669 1.313 . S
C672 N673 1.344 . S
C672 H676 0.930 . S
N673 C670 1.377 . S
N673 C672 1.344 . S
O674 Co666 2.055 . S
O674 C678 1.253 . S
H675 C671 0.931 . S
H676 C672 0.930 . S
O677 Co666 2.039 . S
O677 C667 1.265 . S
C678 O674 1.253 . S
C678 O679 1.227 . S
O679 C678 1.227 . S
N680 Co666 2.140 . S
N680 C683 1.346 . S
N680 C684 1.345 . S
C681 C682 1.387 . S
C681 C685 1.391 . S
C682 C681 1.387 . S
C682 C683 1.369 . S
C682 H691 0.929 . S
C683 N680 1.346 . S
C683 C682 1.369 . S
C683 H686 0.928 . S
C684 N680 1.345 . S
C684 C685 1.371 . S
C684 H687 0.931 . S
C685 C681 1.391 . S
C685 C684 1.371 . S
C685 H692 0.930 . S
H686 C683 0.928 . S
H687 C684 0.931 . S
H688 C664 0.930 . S
H689 C661 0.930 . S
H690 C670 0.930 . S
H691 C682 0.929 . S
H692 C685 0.930 . S
C693 C694 1.351 . S
C693 N696 1.368 . S
C693 H698 0.931 . S
C694 C693 1.351 . S
C694 N695 1.373 . S
C694 H722 0.930 . S
N695 C694 1.373 . S
N695 C697 1.340 . S
N696 C693 1.368 . S
N696 C697 1.321 . S
N696 Co699 2.135 . S
C697 N695 1.340 . S
C697 N696 1.321 . S
C697 H721 0.930 . S
H698 C693 0.931 . S
Co699 N696 2.135 . S
Co699 N702 2.121 . S
Co699 O707 2.055 . S
Co699 O710 2.039 . S
Co699 N713 2.140 . S
C700 O701 1.227 . S
C700 O710 1.265 . S
O701 C700 1.227 . S
N702 Co699 2.121 . S
N702 C704 1.375 . S
N702 C705 1.313 . S
C703 C704 1.338 . S
C703 N706 1.377 . S
C703 H723 0.930 . S
C704 N702 1.375 . S
C704 C703 1.338 . S
C704 H708 0.931 . S
C705 N702 1.313 . S
C705 N706 1.344 . S
C705 H709 0.930 . S
N706 C703 1.377 . S
N706 C705 1.344 . S
O707 Co699 2.055 . S
O707 C711 1.253 . S
H708 C704 0.931 . S
H709 C705 0.930 . S
O710 Co699 2.039 . S
O710 C700 1.265 . S
C711 O707 1.253 . S
C711 O712 1.227 . S
O712 C711 1.227 . S
N713 Co699 2.140 . S
N713 C716 1.346 . S
N713 C717 1.345 . S
C714 C715 1.387 . S
C714 C718 1.391 . S
C715 C714 1.387 . S
C715 C716 1.369 . S
C715 H724 0.929 . S
C716 N713 1.346 . S
C716 C715 1.369 . S
C716 H719 0.928 . S
C717 N713 1.345 . S
C717 C718 1.371 . S
C717 H720 0.931 . S
C718 C714 1.391 . S
C718 C717 1.371 . S
C718 H725 0.930 . S
H719 C716 0.928 . S
H720 C717 0.931 . S
H721 C697 0.930 . S
H722 C694 0.930 . S
H723 C703 0.930 . S
H724 C715 0.929 . S
H725 C718 0.930 . S
C726 C727 1.351 . S
C726 N729 1.368 . S
C726 H731 0.931 . S
C727 C726 1.351 . S
C727 N728 1.373 . S
C727 H755 0.930 . S
N728 C727 1.373 . S
N728 C730 1.340 . S
N729 C726 1.368 . S
N729 C730 1.321 . S
N729 Co732 2.135 . S
C730 N728 1.340 . S
C730 N729 1.321 . S
C730 H754 0.930 . S
H731 C726 0.931 . S
Co732 N729 2.135 . S
Co732 N735 2.121 . S
Co732 O740 2.055 . S
Co732 O743 2.039 . S
Co732 N746 2.140 . S
C733 O734 1.227 . S
C733 O743 1.265 . S
O734 C733 1.227 . S
N735 Co732 2.121 . S
N735 C737 1.375 . S
N735 C738 1.313 . S
C736 C737 1.338 . S
C736 N739 1.377 . S
C736 H756 0.930 . S
C737 N735 1.375 . S
C737 C736 1.338 . S
C737 H741 0.931 . S
C738 N735 1.313 . S
C738 N739 1.344 . S
C738 H742 0.930 . S
N739 C736 1.377 . S
N739 C738 1.344 . S
O740 Co732 2.055 . S
O740 C744 1.253 . S
H741 C737 0.931 . S
H742 C738 0.930 . S
O743 Co732 2.039 . S
O743 C733 1.265 . S
C744 O740 1.253 . S
C744 O745 1.227 . S
O745 C744 1.227 . S
N746 Co732 2.140 . S
N746 C749 1.346 . S
N746 C750 1.345 . S
C747 C748 1.387 . S
C747 C751 1.391 . S
C748 C747 1.387 . S
C748 C749 1.369 . S
C748 H757 0.929 . S
C749 N746 1.346 . S
C749 C748 1.369 . S
C749 H752 0.928 . S
C750 N746 1.345 . S
C750 C751 1.371 . S
C750 H753 0.931 . S
C751 C747 1.391 . S
C751 C750 1.371 . S
C751 H758 0.930 . S
H752 C749 0.928 . S
H753 C750 0.931 . S
H754 C730 0.930 . S
H755 C727 0.930 . S
H756 C736 0.930 . S
H757 C748 0.929 . S
H758 C751 0.930 . S
C759 C760 1.351 . S
C759 N762 1.368 . S
C759 H764 0.931 . S
C760 C759 1.351 . S
C760 N761 1.373 . S
C760 H788 0.930 . S
N761 C760 1.373 . S
N761 C763 1.340 . S
N762 C759 1.368 . S
N762 C763 1.321 . S
N762 Co765 2.135 . S
C763 N761 1.340 . S
C763 N762 1.321 . S
C763 H787 0.930 . S
H764 C759 0.931 . S
Co765 N762 2.135 . S
Co765 N768 2.121 . S
Co765 O773 2.055 . S
Co765 O776 2.039 . S
Co765 N779 2.140 . S
C766 O767 1.227 . S
C766 O776 1.265 . S
O767 C766 1.227 . S
N768 Co765 2.121 . S
N768 C770 1.375 . S
N768 C771 1.313 . S
C769 C770 1.338 . S
C769 N772 1.377 . S
C769 H789 0.930 . S
C770 N768 1.375 . S
C770 C769 1.338 . S
C770 H774 0.931 . S
C771 N768 1.313 . S
C771 N772 1.344 . S
C771 H775 0.930 . S
N772 C769 1.377 . S
N772 C771 1.344 . S
O773 Co765 2.055 . S
O773 C777 1.253 . S
H774 C770 0.931 . S
H775 C771 0.930 . S
O776 Co765 2.039 . S
O776 C766 1.265 . S
C777 O773 1.253 . S
C777 O778 1.227 . S
O778 C777 1.227 . S
N779 Co765 2.140 . S
N779 C782 1.346 . S
N779 C783 1.345 . S
C780 C781 1.387 . S
C780 C784 1.391 . S
C781 C780 1.387 . S
C781 C782 1.369 . S
C781 H790 0.929 . S
C782 N779 1.346 . S
C782 C781 1.369 . S
C782 H785 0.928 . S
C783 N779 1.345 . S
C783 C784 1.371 . S
C783 H786 0.931 . S
C784 C780 1.391 . S
C784 C783 1.371 . S
C784 H791 0.930 . S
H785 C782 0.928 . S
H786 C783 0.931 . S
H787 C763 0.930 . S
H788 C760 0.930 . S
H789 C769 0.930 . S
H790 C781 0.929 . S
H791 C784 0.930 . S
C792 C793 1.349 . S
C792 C794 1.327 . S
C792 H817 0.950 . S
C793 C792 1.349 . S
C793 C809 1.349 . S
C794 C792 1.327 . S
C794 C813 1.429 . S
C794 H818 0.950 . S
C795 C812 1.574 . S
C795 C814 1.368 . S
C795 H819 0.949 . S
H796 C800 0.949 . S
C797 C798 1.349 . S
C797 C799 1.327 . S
C797 H820 0.950 . S
C798 C797 1.349 . S
C798 C810 1.349 . S
C799 C797 1.327 . S
C799 C815 1.429 . S
C799 H821 0.950 . S
C800 H796 0.949 . S
C800 C808 1.574 . S
C800 C816 1.368 . S
H801 C809 0.950 . S
H802 C807 0.950 . S
H803 C808 0.949 . S
H804 C810 0.950 . S
H805 C811 0.950 . S
H806 C812 0.949 . S
C807 H802 0.950 . S
C807 C809 1.327 . S
C807 C813 1.429 . S
C808 C800 1.574 . S
C808 H803 0.949 . S
C808 C814 1.368 . S
C809 C793 1.349 . S
C809 H801 0.950 . S
C809 C807 1.327 . S
C810 C798 1.349 . S
C810 H804 0.950 . S
C810 C811 1.327 . S
C811 H805 0.950 . S
C811 C810 1.327 . S
C811 C815 1.429 . S
C812 C795 1.574 . S
C812 H806 0.949 . S
C812 C816 1.368 . S
C813 C794 1.429 . S
C813 C807 1.429 . S
C813 C814 1.523 . S
C814 C795 1.368 . S
C814 C808 1.368 . S
C814 C813 1.523 . S
C815 C799 1.429 . S
C815 C811 1.429 . S
C815 C816 1.523 . S
C816 C800 1.368 . S
C816 C812 1.368 . S
C816 C815 1.523 . S
H817 C792 0.950 . S
H818 C794 0.950 . S
H819 C795 0.949 . S
H820 C797 0.950 . S
H821 C799 0.950 . S
C822 C823 1.349 . S
C822 C824 1.327 1_455 S
C822 H847 0.950 . S
C823 C822 1.349 . S
C823 C839 1.349 1_455 S
C824 C822 1.327 1_655 S
C824 C843 1.429 . S
C824 H848 0.950 . S
C825 C842 1.574 . S
C825 C844 1.368 . S
C825 H849 0.949 . S
H826 C830 0.949 . S
C827 C828 1.349 . S
C827 C829 1.327 . S
C827 H850 0.950 . S
C828 C827 1.349 . S
C828 C840 1.349 . S
C829 C827 1.327 . S
C829 C845 1.429 . S
C829 H851 0.950 . S
C830 H826 0.949 . S
C830 C838 1.574 . S
C830 C846 1.368 . S
H831 C839 0.950 1_455 S
H832 C837 0.950 . S
H833 C838 0.949 . S
H834 C840 0.950 . S
H835 C841 0.950 . S
H836 C842 0.949 . S
C837 H832 0.950 . S
C837 C839 1.327 . S
C837 C843 1.429 . S
C838 C830 1.574 . S
C838 H833 0.949 . S
C838 C844 1.368 . S
C839 C823 1.349 1_655 S
C839 H831 0.950 1_655 S
C839 C837 1.327 . S
C840 C828 1.349 . S
C840 H834 0.950 . S
C840 C841 1.327 . S
C841 H835 0.950 . S
C841 C840 1.327 . S
C841 C845 1.429 . S
C842 C825 1.574 . S
C842 H836 0.949 . S
C842 C846 1.368 . S
C843 C824 1.429 . S
C843 C837 1.429 . S
C843 C844 1.523 . S
C844 C825 1.368 . S
C844 C838 1.368 . S
C844 C843 1.523 . S
C845 C829 1.429 . S
C845 C841 1.429 . S
C845 C846 1.523 . S
C846 C830 1.368 . S
C846 C842 1.368 . S
C846 C845 1.523 . S
H847 C822 0.950 . S
H848 C824 0.950 . S
H849 C825 0.949 . S
H850 C827 0.950 . S
H851 C829 0.950 . S
C852 C853 1.349 . S
C852 C854 1.327 . S
C852 H877 0.950 . S
C853 C852 1.349 . S
C853 C869 1.349 . S
C854 C852 1.327 . S
C854 C873 1.429 . S
C854 H878 0.950 . S
C855 C872 1.574 . S
C855 C874 1.368 . S
C855 H879 0.949 . S
H856 C860 0.949 . S
C857 C858 1.349 . S
C857 C859 1.327 . S
C857 H880 0.950 . S
C858 C857 1.349 . S
C858 C870 1.349 . S
C859 C857 1.327 . S
C859 C875 1.429 . S
C859 H881 0.950 . S
C860 H856 0.949 . S
C860 C868 1.574 . S
C860 C876 1.368 . S
H861 C869 0.950 . S
H862 C867 0.950 . S
H863 C868 0.949 . S
H864 C870 0.950 . S
H865 C871 0.950 . S
H866 C872 0.949 . S
C867 H862 0.950 . S
C867 C869 1.327 . S
C867 C873 1.429 . S
C868 C860 1.574 . S
C868 H863 0.949 . S
C868 C874 1.368 . S
C869 C853 1.349 . S
C869 H861 0.950 . S
C869 C867 1.327 . S
C870 C858 1.349 . S
C870 H864 0.950 . S
C870 C871 1.327 . S
C871 H865 0.950 . S
C871 C870 1.327 . S
C871 C875 1.429 . S
C872 C855 1.574 . S
C872 H866 0.949 . S
C872 C876 1.368 . S
C873 C854 1.429 . S
C873 C867 1.429 . S
C873 C874 1.523 . S
C874 C855 1.368 . S
C874 C868 1.368 . S
C874 C873 1.523 . S
C875 C859 1.429 . S
C875 C871 1.429 . S
C875 C876 1.523 . S
C876 C860 1.368 . S
C876 C872 1.368 . S
C876 C875 1.523 . S
H877 C852 0.950 . S
H878 C854 0.950 . S
H879 C855 0.949 . S
H880 C857 0.950 . S
H881 C859 0.950 . S
C882 C883 1.349 . S
C882 C884 1.327 . S
C882 H907 0.950 . S
C883 C882 1.349 . S
C883 C899 1.349 . S
C884 C882 1.327 . S
C884 C903 1.429 . S
C884 H908 0.950 . S
C885 C902 1.574 . S
C885 C904 1.368 . S
C885 H909 0.949 . S
H886 C890 0.949 . S
C887 C888 1.351 1_455 S
C887 C889 1.323 . S
C887 H910 0.952 1_455 S
C888 C887 1.351 1_655 S
C888 C900 1.349 . S
C889 C887 1.323 . S
C889 C905 1.429 . S
C889 H911 0.950 . S
C890 H886 0.949 . S
C890 C898 1.574 . S
C890 C906 1.368 . S
H891 C899 0.950 . S
H892 C897 0.950 . S
H893 C898 0.949 . S
H894 C900 0.950 . S
H895 C901 0.950 . S
H896 C902 0.949 . S
C897 H892 0.950 . S
C897 C899 1.327 . S
C897 C903 1.429 . S
C898 C890 1.574 . S
C898 H893 0.949 . S
C898 C904 1.368 . S
C899 C883 1.349 . S
C899 H891 0.950 . S
C899 C897 1.327 . S
C900 C888 1.349 . S
C900 H894 0.950 . S
C900 C901 1.327 1_655 S
C901 H895 0.950 . S
C901 C900 1.327 1_455 S
C901 C905 1.429 . S
C902 C885 1.574 . S
C902 H896 0.949 . S
C902 C906 1.368 . S
C903 C884 1.429 . S
C903 C897 1.429 . S
C903 C904 1.523 . S
C904 C885 1.368 . S
C904 C898 1.368 . S
C904 C903 1.523 . S
C905 C889 1.429 . S
C905 C901 1.429 . S
C905 C906 1.523 . S
C906 C890 1.368 . S
C906 C902 1.368 . S
C906 C905 1.523 . S
H907 C882 0.950 . S
H908 C884 0.950 . S
H909 C885 0.949 . S
H910 C887 0.952 1_655 S
H911 C889 0.950 . S
C912 C913 1.349 . S
C912 C914 1.327 . S
C912 H937 0.950 . S
C913 C912 1.349 . S
C913 C929 1.349 . S
C914 C912 1.327 . S
C914 C933 1.429 . S
C914 H938 0.950 . S
C915 C932 1.574 . S
C915 C934 1.368 . S
C915 H939 0.949 . S
H916 C920 0.949 . S
C917 C918 1.349 . S
C917 C919 1.327 . S
C917 H940 0.950 . S
C918 C917 1.349 . S
C918 C930 1.349 . S
C919 C917 1.327 . S
C919 C935 1.429 . S
C919 H941 0.950 . S
C920 H916 0.949 . S
C920 C928 1.574 . S
C920 C936 1.368 . S
H921 C929 0.950 . S
H922 C927 0.950 . S
H923 C928 0.949 . S
H924 C930 0.950 . S
H925 C931 0.950 . S
H926 C932 0.949 . S
C927 H922 0.950 . S
C927 C929 1.327 . S
C927 C933 1.429 . S
C928 C920 1.574 . S
C928 H923 0.949 . S
C928 C934 1.368 . S
C929 C913 1.349 . S
C929 H921 0.950 . S
C929 C927 1.327 . S
C930 C918 1.349 . S
C930 H924 0.950 . S
C930 C931 1.327 . S
C931 H925 0.950 . S
C931 C930 1.327 . S
C931 C935 1.429 . S
C932 C915 1.574 . S
C932 H926 0.949 . S
C932 C936 1.368 . S
C933 C914 1.429 . S
C933 C927 1.429 . S
C933 C934 1.523 . S
C934 C915 1.368 . S
C934 C928 1.368 . S
C934 C933 1.523 . S
C935 C919 1.429 . S
C935 C931 1.429 . S
C935 C936 1.523 . S
C936 C920 1.368 . S
C936 C932 1.368 . S
C936 C935 1.523 . S
H937 C912 0.950 . S
H938 C914 0.950 . S
H939 C915 0.949 . S
H940 C917 0.950 . S
H941 C919 0.950 . S
C942 C943 1.349 1_455 S
C942 C944 1.327 . S
C942 H967 0.950 . S
C943 C942 1.349 1_655 S
C943 C959 1.349 . S
C944 C942 1.327 . S
C944 C963 1.429 . S
C944 H968 0.950 . S
C945 C962 1.574 . S
C945 C964 1.368 . S
C945 H969 0.949 . S
H946 C950 0.949 . S
C947 C948 1.349 . S
C947 C949 1.327 . S
C947 H970 0.950 . S
C948 C947 1.349 . S
C948 C960 1.349 . S
C949 C947 1.327 . S
C949 C965 1.429 . S
C949 H971 0.950 . S
C950 H946 0.949 . S
C950 C958 1.574 . S
C950 C966 1.368 . S
H951 C959 0.950 . S
H952 C957 0.950 . S
H953 C958 0.949 . S
H954 C960 0.950 . S
H955 C961 0.950 . S
H956 C962 0.949 . S
C957 H952 0.950 . S
C957 C959 1.327 1_455 S
C957 C963 1.429 . S
C958 C950 1.574 . S
C958 H953 0.949 . S
C958 C964 1.368 . S
C959 C943 1.349 . S
C959 H951 0.950 . S
C959 C957 1.327 1_655 S
C960 C948 1.349 . S
C960 H954 0.950 . S
C960 C961 1.327 . S
C961 H955 0.950 . S
C961 C960 1.327 . S
C961 C965 1.429 . S
C962 C945 1.574 . S
C962 H956 0.949 . S
C962 C966 1.368 . S
C963 C944 1.429 . S
C963 C957 1.429 . S
C963 C964 1.523 . S
C964 C945 1.368 . S
C964 C958 1.368 . S
C964 C963 1.523 . S
C965 C949 1.429 . S
C965 C961 1.429 . S
C965 C966 1.523 . S
C966 C950 1.368 . S
C966 C962 1.368 . S
C966 C965 1.523 . S
H967 C942 0.950 . S
H968 C944 0.950 . S
H969 C945 0.949 . S
H970 C947 0.950 . S
H971 C949 0.950 . S
C972 C973 1.349 . S
C972 C974 1.327 . S
C972 H997 0.950 . S
C973 C972 1.349 . S
C973 C989 1.349 . S
C974 C972 1.327 . S
C974 C993 1.429 . S
C974 H998 0.950 . S
C975 C992 1.574 . S
C975 C994 1.368 . S
C975 H999 0.949 . S
H976 C980 0.949 . S
C977 C978 1.349 . S
C977 C979 1.327 . S
C977 H1000 0.950 . S
C978 C977 1.349 . S
C978 C990 1.349 . S
C979 C977 1.327 . S
C979 C995 1.429 . S
C979 H1001 0.950 . S
C980 H976 0.949 . S
C980 C988 1.574 . S
C980 C996 1.368 . S
H981 C989 0.950 . S
H982 C987 0.950 . S
H983 C988 0.949 . S
H984 C990 0.950 . S
H985 C991 0.950 . S
H986 C992 0.949 . S
C987 H982 0.950 . S
C987 C989 1.327 . S
C987 C993 1.429 . S
C988 C980 1.574 . S
C988 H983 0.949 . S
C988 C994 1.368 . S
C989 C973 1.349 . S
C989 H981 0.950 . S
C989 C987 1.327 . S
C990 C978 1.349 . S
C990 H984 0.950 . S
C990 C991 1.327 . S
C991 H985 0.950 . S
C991 C990 1.327 . S
C991 C995 1.429 . S
C992 C975 1.574 . S
C992 H986 0.949 . S
C992 C996 1.368 . S
C993 C974 1.429 . S
C993 C987 1.429 . S
C993 C994 1.523 . S
C994 C975 1.368 . S
C994 C988 1.368 . S
C994 C993 1.523 . S
C995 C979 1.429 . S
C995 C991 1.429 . S
C995 C996 1.523 . S
C996 C980 1.368 . S
C996 C992 1.368 . S
C996 C995 1.523 . S
H997 C972 0.950 . S
H998 C974 0.950 . S
H999 C975 0.949 . S
H1000 C977 0.950 . S
H1001 C979 0.950 . S
C1002 C1003 1.349 1_655 S
C1002 C1004 1.327 . S
C1002 H1027 0.950 . S
C1003 C1002 1.349 1_455 S
C1003 C1019 1.349 . S
C1004 C1002 1.327 . S
C1004 C1023 1.429 . S
C1004 H1028 0.950 . S
C1005 C1022 1.574 . S
C1005 C1024 1.368 . S
C1005 H1029 0.949 . S
H1006 C1010 0.949 . S
C1007 C1008 1.349 . S
C1007 C1009 1.327 . S
C1007 H1030 0.950 . S
C1008 C1007 1.349 . S
C1008 C1020 1.349 . S
C1009 C1007 1.327 . S
C1009 C1025 1.429 . S
C1009 H1031 0.950 . S
C1010 H1006 0.949 . S
C1010 C1018 1.574 . S
C1010 C1026 1.368 . S
H1011 C1019 0.950 . S
H1012 C1017 0.950 . S
H1013 C1018 0.949 . S
H1014 C1020 0.950 . S
H1015 C1021 0.950 . S
H1016 C1022 0.949 . S
C1017 H1012 0.950 . S
C1017 C1019 1.327 1_655 S
C1017 C1023 1.429 . S
C1018 C1010 1.574 . S
C1018 H1013 0.949 . S
C1018 C1024 1.368 . S
C1019 C1003 1.349 . S
C1019 H1011 0.950 . S
C1019 C1017 1.327 1_455 S
C1020 C1008 1.349 . S
C1020 H1014 0.950 . S
C1020 C1021 1.327 . S
C1021 H1015 0.950 . S
C1021 C1020 1.327 . S
C1021 C1025 1.429 . S
C1022 C1005 1.574 . S
C1022 H1016 0.949 . S
C1022 C1026 1.368 . S
C1023 C1004 1.429 . S
C1023 C1017 1.429 . S
C1023 C1024 1.523 . S
C1024 C1005 1.368 . S
C1024 C1018 1.368 . S
C1024 C1023 1.523 . S
C1025 C1009 1.429 . S
C1025 C1021 1.429 . S
C1025 C1026 1.523 . S
C1026 C1010 1.368 . S
C1026 C1022 1.368 . S
C1026 C1025 1.523 . S
H1027 C1002 0.950 . S
H1028 C1004 0.950 . S
H1029 C1005 0.949 . S
H1030 C1007 0.950 . S
H1031 C1009 0.950 . S
C1032 C1033 1.349 . S
C1032 C1034 1.327 . S
C1032 H1057 0.950 . S
C1033 C1032 1.349 . S
C1033 C1049 1.349 . S
C1034 C1032 1.327 . S
C1034 C1053 1.429 . S
C1034 H1058 0.950 . S
C1035 C1052 1.574 . S
C1035 C1054 1.368 . S
C1035 H1059 0.949 . S
H1036 C1040 0.949 . S
C1037 C1038 1.349 . S
C1037 C1039 1.327 . S
C1037 H1060 0.950 . S
C1038 C1037 1.349 . S
C1038 C1050 1.349 . S
C1039 C1037 1.327 . S
C1039 C1055 1.429 . S
C1039 H1061 0.950 . S
C1040 H1036 0.949 . S
C1040 C1048 1.574 . S
C1040 C1056 1.368 . S
H1041 C1049 0.950 . S
H1042 C1047 0.950 . S
H1043 C1048 0.949 . S
H1044 C1050 0.950 . S
H1045 C1051 0.950 . S
H1046 C1052 0.949 . S
C1047 H1042 0.950 . S
C1047 C1049 1.327 . S
C1047 C1053 1.429 . S
C1048 C1040 1.574 . S
C1048 H1043 0.949 . S
C1048 C1054 1.368 . S
C1049 C1033 1.349 . S
C1049 H1041 0.950 . S
C1049 C1047 1.327 . S
C1050 C1038 1.349 . S
C1050 H1044 0.950 . S
C1050 C1051 1.327 . S
C1051 H1045 0.950 . S
C1051 C1050 1.327 . S
C1051 C1055 1.429 . S
C1052 C1035 1.574 . S
C1052 H1046 0.949 . S
C1052 C1056 1.368 . S
C1053 C1034 1.429 . S
C1053 C1047 1.429 . S
C1053 C1054 1.523 . S
C1054 C1035 1.368 . S
C1054 C1048 1.368 . S
C1054 C1053 1.523 . S
C1055 C1039 1.429 . S
C1055 C1051 1.429 . S
C1055 C1056 1.523 . S
C1056 C1040 1.368 . S
C1056 C1052 1.368 . S
C1056 C1055 1.523 . S
H1057 C1032 0.950 . S
H1058 C1034 0.950 . S
H1059 C1035 0.949 . S
H1060 C1037 0.950 . S
H1061 C1039 0.950 . S
C1062 C1063 1.349 . S
C1062 C1064 1.327 . S
C1062 H1087 0.950 . S
C1063 C1062 1.349 . S
C1063 C1079 1.349 . S
C1064 C1062 1.327 . S
C1064 C1083 1.429 . S
C1064 H1088 0.950 . S
C1065 C1082 1.574 . S
C1065 C1084 1.368 . S
C1065 H1089 0.949 . S
H1066 C1070 0.949 . S
C1067 C1068 1.349 1_554 S
C1067 C1069 1.327 . S
C1067 H1090 0.950 . S
C1068 C1067 1.349 1_556 S
C1068 C1080 1.349 . S
C1069 C1067 1.327 . S
C1069 C1085 1.429 . S
C1069 H1091 0.950 . S
C1070 H1066 0.949 . S
C1070 C1078 1.574 . S
C1070 C1086 1.368 . S
H1071 C1079 0.950 . S
H1072 C1077 0.950 . S
H1073 C1078 0.949 . S
H1074 C1080 0.950 . S
H1075 C1081 0.950 1_556 S
H1076 C1082 0.949 . S
C1077 H1072 0.950 . S
C1077 C1079 1.327 . S
C1077 C1083 1.429 . S
C1078 C1070 1.574 . S
C1078 H1073 0.949 . S
C1078 C1084 1.368 . S
C1079 C1063 1.349 . S
C1079 H1071 0.950 . S
C1079 C1077 1.327 . S
C1080 C1068 1.349 . S
C1080 H1074 0.950 . S
C1080 C1081 1.327 1_556 S
C1081 H1075 0.950 1_554 S
C1081 C1080 1.327 1_554 S
C1081 C1085 1.429 . S
C1082 C1065 1.574 . S
C1082 H1076 0.949 . S
C1082 C1086 1.368 . S
C1083 C1064 1.429 . S
C1083 C1077 1.429 . S
C1083 C1084 1.523 . S
C1084 C1065 1.368 . S
C1084 C1078 1.368 . S
C1084 C1083 1.523 . S
C1085 C1069 1.429 . S
C1085 C1081 1.429 . S
C1085 C1086 1.523 . S
C1086 C1070 1.368 . S
C1086 C1082 1.368 . S
C1086 C1085 1.523 . S
H1087 C1062 0.950 . S
H1088 C1064 0.950 . S
H1089 C1065 0.949 . S
H1090 C1067 0.950 . S
H1091 C1069 0.950 . S
C1092 C1093 1.349 . S
C1092 C1094 1.327 . S
C1092 H1117 0.950 . S
C1093 C1092 1.349 . S
C1093 C1109 1.349 . S
C1094 C1092 1.327 . S
C1094 C1113 1.429 . S
C1094 H1118 0.950 . S
C1095 C1112 1.574 . S
C1095 C1114 1.368 . S
C1095 H1119 0.949 . S
H1096 C1100 0.949 . S
C1097 C1098 1.349 . S
C1097 C1099 1.327 . S
C1097 H1120 0.950 . S
C1098 C1097 1.349 . S
C1098 C1110 1.349 . S
C1099 C1097 1.327 . S
C1099 C1115 1.429 . S
C1099 H1121 0.950 . S
C1100 H1096 0.949 . S
C1100 C1108 1.574 . S
C1100 C1116 1.368 . S
H1101 C1109 0.950 . S
H1102 C1107 0.950 . S
H1103 C1108 0.949 . S
H1104 C1110 0.950 . S
H1105 C1111 0.950 . S
H1106 C1112 0.949 . S
C1107 H1102 0.950 . S
C1107 C1109 1.327 . S
C1107 C1113 1.429 . S
C1108 C1100 1.574 . S
C1108 H1103 0.949 . S
C1108 C1114 1.368 . S
C1109 C1093 1.349 . S
C1109 H1101 0.950 . S
C1109 C1107 1.327 . S
C1110 C1098 1.349 . S
C1110 H1104 0.950 . S
C1110 C1111 1.327 . S
C1111 H1105 0.950 . S
C1111 C1110 1.327 . S
C1111 C1115 1.429 . S
C1112 C1095 1.574 . S
C1112 H1106 0.949 . S
C1112 C1116 1.368 . S
C1113 C1094 1.429 . S
C1113 C1107 1.429 . S
C1113 C1114 1.523 . S
C1114 C1095 1.368 . S
C1114 C1108 1.368 . S
C1114 C1113 1.523 . S
C1115 C1099 1.429 . S
C1115 C1111 1.429 . S
C1115 C1116 1.523 . S
C1116 C1100 1.368 . S
C1116 C1112 1.368 . S
C1116 C1115 1.523 . S
H1117 C1092 0.950 . S
H1118 C1094 0.950 . S
H1119 C1095 0.949 . S
H1120 C1097 0.950 . S
H1121 C1099 0.950 . S
C1122 C1123 1.349 1_554 S
C1122 C1124 1.327 . S
C1122 H1147 0.950 . S
C1123 C1122 1.349 1_556 S
C1123 C1139 1.349 . S
C1124 C1122 1.327 . S
C1124 C1143 1.429 . S
C1124 H1148 0.950 . S
C1125 C1142 1.574 . S
C1125 C1144 1.368 . S
C1125 H1149 0.949 . S
H1126 C1130 0.949 . S
C1127 C1128 1.349 . S
C1127 C1129 1.327 . S
C1127 H1150 0.950 . S
C1128 C1127 1.349 . S
C1128 C1140 1.349 . S
C1129 C1127 1.327 . S
C1129 C1145 1.429 . S
C1129 H1151 0.950 . S
C1130 H1126 0.949 . S
C1130 C1138 1.574 . S
C1130 C1146 1.368 . S
H1131 C1139 0.950 . S
H1132 C1137 0.948 1_556 S
H1133 C1138 0.949 . S
H1134 C1140 0.950 . S
H1135 C1141 0.950 . S
H1136 C1142 0.949 . S
C1137 H1132 0.948 1_554 S
C1137 C1139 1.327 1_554 S
C1137 C1143 1.429 . S
C1138 C1130 1.574 . S
C1138 H1133 0.949 . S
C1138 C1144 1.368 . S
C1139 C1123 1.349 . S
C1139 H1131 0.950 . S
C1139 C1137 1.327 1_556 S
C1140 C1128 1.349 . S
C1140 H1134 0.950 . S
C1140 C1141 1.327 . S
C1141 H1135 0.950 . S
C1141 C1140 1.327 . S
C1141 C1145 1.429 . S
C1142 C1125 1.574 . S
C1142 H1136 0.949 . S
C1142 C1146 1.368 . S
C1143 C1124 1.429 . S
C1143 C1137 1.429 . S
C1143 C1144 1.523 . S
C1144 C1125 1.368 . S
C1144 C1138 1.368 . S
C1144 C1143 1.523 . S
C1145 C1129 1.429 . S
C1145 C1141 1.429 . S
C1145 C1146 1.523 . S
C1146 C1130 1.368 . S
C1146 C1142 1.368 . S
C1146 C1145 1.523 . S
H1147 C1122 0.950 . S
H1148 C1124 0.950 . S
H1149 C1125 0.949 . S
H1150 C1127 0.950 . S
H1151 C1129 0.950 . S
C1152 C1153 1.349 . S
C1152 C1154 1.327 . S
C1152 H1177 0.950 . S
C1153 C1152 1.349 . S
C1153 C1169 1.349 . S
C1154 C1152 1.327 . S
C1154 C1173 1.429 . S
C1154 H1178 0.950 . S
C1155 C1172 1.574 . S
C1155 C1174 1.368 . S
C1155 H1179 0.949 . S
H1156 C1160 0.949 . S
C1157 C1158 1.349 . S
C1157 C1159 1.327 . S
C1157 H1180 0.950 . S
C1158 C1157 1.349 . S
C1158 C1170 1.349 . S
C1159 C1157 1.327 . S
C1159 C1175 1.429 . S
C1159 H1181 0.950 . S
C1160 H1156 0.949 . S
C1160 C1168 1.574 . S
C1160 C1176 1.368 . S
H1161 C1169 0.950 . S
H1162 C1167 0.950 . S
H1163 C1168 0.949 . S
H1164 C1170 0.950 . S
H1165 C1171 0.950 . S
H1166 C1172 0.949 . S
C1167 H1162 0.950 . S
C1167 C1169 1.327 . S
C1167 C1173 1.429 . S
C1168 C1160 1.574 . S
C1168 H1163 0.949 . S
C1168 C1174 1.368 . S
C1169 C1153 1.349 . S
C1169 H1161 0.950 . S
C1169 C1167 1.327 . S
C1170 C1158 1.349 . S
C1170 H1164 0.950 . S
C1170 C1171 1.327 . S
C1171 H1165 0.950 . S
C1171 C1170 1.327 . S
C1171 C1175 1.429 . S
C1172 C1155 1.574 . S
C1172 H1166 0.949 . S
C1172 C1176 1.368 . S
C1173 C1154 1.429 . S
C1173 C1167 1.429 . S
C1173 C1174 1.523 . S
C1174 C1155 1.368 . S
C1174 C1168 1.368 . S
C1174 C1173 1.523 . S
C1175 C1159 1.429 . S
C1175 C1171 1.429 . S
C1175 C1176 1.523 . S
C1176 C1160 1.368 . S
C1176 C1172 1.368 . S
C1176 C1175 1.523 . S
H1177 C1152 0.950 . S
H1178 C1154 0.950 . S
H1179 C1155 0.949 . S
H1180 C1157 0.950 . S
H1181 C1159 0.950 . S
C1182 C1183 1.349 . S
C1182 C1184 1.327 . S
C1182 H1207 0.950 . S
C1183 C1182 1.349 . S
C1183 C1199 1.349 . S
C1184 C1182 1.327 . S
C1184 C1203 1.429 . S
C1184 H1208 0.950 . S
C1185 C1202 1.574 . S
C1185 C1204 1.368 . S
C1185 H1209 0.949 . S
H1186 C1190 0.949 . S
C1187 C1188 1.349 1_556 S
C1187 C1189 1.327 . S
C1187 H1210 0.950 . S
C1188 C1187 1.349 1_554 S
C1188 C1200 1.349 . S
C1189 C1187 1.327 . S
C1189 C1205 1.429 . S
C1189 H1211 0.950 . S
C1190 H1186 0.949 . S
C1190 C1198 1.574 . S
C1190 C1206 1.368 . S
H1191 C1199 0.950 . S
H1192 C1197 0.950 . S
H1193 C1198 0.949 . S
H1194 C1200 0.950 . S
H1195 C1201 0.950 . S
H1196 C1202 0.949 . S
C1197 H1192 0.950 . S
C1197 C1199 1.327 . S
C1197 C1203 1.429 . S
C1198 C1190 1.574 . S
C1198 H1193 0.949 . S
C1198 C1204 1.368 . S
C1199 C1183 1.349 . S
C1199 H1191 0.950 . S
C1199 C1197 1.327 . S
C1200 C1188 1.349 . S
C1200 H1194 0.950 . S
C1200 C1201 1.327 1_554 S
C1201 H1195 0.950 . S
C1201 C1200 1.327 1_556 S
C1201 C1205 1.429 . S
C1202 C1185 1.574 . S
C1202 H1196 0.949 . S
C1202 C1206 1.368 . S
C1203 C1184 1.429 . S
C1203 C1197 1.429 . S
C1203 C1204 1.523 . S
C1204 C1185 1.368 . S
C1204 C1198 1.368 . S
C1204 C1203 1.523 . S
C1205 C1189 1.429 . S
C1205 C1201 1.429 . S
C1205 C1206 1.523 . S
C1206 C1190 1.368 . S
C1206 C1202 1.368 . S
C1206 C1205 1.523 . S
H1207 C1182 0.950 . S
H1208 C1184 0.950 . S
H1209 C1185 0.949 . S
H1210 C1187 0.950 . S
H1211 C1189 0.950 . S
C1212 C1213 1.349 . S
C1212 C1214 1.327 . S
C1212 H1237 0.950 . S
C1213 C1212 1.349 . S
C1213 C1229 1.349 . S
C1214 C1212 1.327 . S
C1214 C1233 1.429 . S
C1214 H1238 0.950 . S
C1215 C1232 1.574 . S
C1215 C1234 1.368 . S
C1215 H1239 0.949 . S
H1216 C1220 0.949 . S
C1217 C1218 1.349 . S
C1217 C1219 1.327 . S
C1217 H1240 0.950 . S
C1218 C1217 1.349 . S
C1218 C1230 1.349 . S
C1219 C1217 1.327 . S
C1219 C1235 1.429 . S
C1219 H1241 0.950 . S
C1220 H1216 0.949 . S
C1220 C1228 1.574 . S
C1220 C1236 1.368 . S
H1221 C1229 0.950 . S
H1222 C1227 0.950 . S
H1223 C1228 0.949 . S
H1224 C1230 0.950 . S
H1225 C1231 0.950 . S
H1226 C1232 0.949 . S
C1227 H1222 0.950 . S
C1227 C1229 1.327 . S
C1227 C1233 1.429 . S
C1228 C1220 1.574 . S
C1228 H1223 0.949 . S
C1228 C1234 1.368 . S
C1229 C1213 1.349 . S
C1229 H1221 0.950 . S
C1229 C1227 1.327 . S
C1230 C1218 1.349 . S
C1230 H1224 0.950 . S
C1230 C1231 1.327 . S
C1231 H1225 0.950 . S
C1231 C1230 1.327 . S
C1231 C1235 1.429 . S
C1232 C1215 1.574 . S
C1232 H1226 0.949 . S
C1232 C1236 1.368 . S
C1233 C1214 1.429 . S
C1233 C1227 1.429 . S
C1233 C1234 1.523 . S
C1234 C1215 1.368 . S
C1234 C1228 1.368 . S
C1234 C1233 1.523 . S
C1235 C1219 1.429 . S
C1235 C1231 1.429 . S
C1235 C1236 1.523 . S
C1236 C1220 1.368 . S
C1236 C1232 1.368 . S
C1236 C1235 1.523 . S
H1237 C1212 0.950 . S
H1238 C1214 0.950 . S
H1239 C1215 0.949 . S
H1240 C1217 0.950 . S
H1241 C1219 0.950 . S
C1242 C1243 1.349 . S
C1242 C1244 1.327 1_554 S
C1242 H1267 0.950 . S
C1243 C1242 1.349 . S
C1243 C1259 1.349 1_554 S
C1244 C1242 1.327 1_556 S
C1244 C1263 1.429 . S
C1244 H1268 0.950 . S
C1245 C1262 1.574 . S
C1245 C1264 1.368 . S
C1245 H1269 0.949 . S
H1246 C1250 0.949 . S
C1247 C1248 1.349 . S
C1247 C1249 1.327 . S
C1247 H1270 0.950 . S
C1248 C1247 1.349 . S
C1248 C1260 1.349 . S
C1249 C1247 1.327 . S
C1249 C1265 1.429 . S
C1249 H1271 0.950 . S
C1250 H1246 0.949 . S
C1250 C1258 1.574 . S
C1250 C1266 1.368 . S
H1251 C1259 0.950 . S
H1252 C1257 0.950 . S
H1253 C1258 0.949 . S
H1254 C1260 0.950 . S
H1255 C1261 0.950 . S
H1256 C1262 0.949 . S
C1257 H1252 0.950 . S
C1257 C1259 1.327 . S
C1257 C1263 1.429 . S
C1258 C1250 1.574 . S
C1258 H1253 0.949 . S
C1258 C1264 1.368 . S
C1259 C1243 1.349 1_556 S
C1259 H1251 0.950 . S
C1259 C1257 1.327 . S
C1260 C1248 1.349 . S
C1260 H1254 0.950 . S
C1260 C1261 1.327 . S
C1261 H1255 0.950 . S
C1261 C1260 1.327 . S
C1261 C1265 1.429 . S
C1262 C1245 1.574 . S
C1262 H1256 0.949 . S
C1262 C1266 1.368 . S
C1263 C1244 1.429 . S
C1263 C1257 1.429 . S
C1263 C1264 1.523 . S
C1264 C1245 1.368 . S
C1264 C1258 1.368 . S
C1264 C1263 1.523 . S
C1265 C1249 1.429 . S
C1265 C1261 1.429 . S
C1265 C1266 1.523 . S
C1266 C1250 1.368 . S
C1266 C1262 1.368 . S
C1266 C1265 1.523 . S
H1267 C1242 0.950 . S
H1268 C1244 0.950 . S
H1269 C1245 0.949 . S
H1270 C1247 0.950 . S
H1271 C1249 0.950 . S
C1272 C1273 1.349 . S
C1272 C1274 1.327 . S
C1272 H1297 0.950 . S
C1273 C1272 1.349 . S
C1273 C1289 1.349 . S
C1274 C1272 1.327 . S
C1274 C1293 1.429 . S
C1274 H1298 0.950 . S
C1275 C1292 1.574 . S
C1275 C1294 1.368 . S
C1275 H1299 0.949 . S
H1276 C1280 0.949 . S
C1277 C1278 1.349 . S
C1277 C1279 1.327 . S
C1277 H1300 0.950 . S
C1278 C1277 1.349 . S
C1278 C1290 1.349 . S
C1279 C1277 1.327 . S
C1279 C1295 1.429 . S
C1279 H1301 0.950 . S
C1280 H1276 0.949 . S
C1280 C1288 1.574 . S
C1280 C1296 1.368 . S
H1281 C1289 0.950 . S
H1282 C1287 0.950 . S
H1283 C1288 0.949 . S
H1284 C1290 0.950 . S
H1285 C1291 0.950 . S
H1286 C1292 0.949 . S
C1287 H1282 0.950 . S
C1287 C1289 1.327 . S
C1287 C1293 1.429 . S
C1288 C1280 1.574 . S
C1288 H1283 0.949 . S
C1288 C1294 1.368 . S
C1289 C1273 1.349 . S
C1289 H1281 0.950 . S
C1289 C1287 1.327 . S
C1290 C1278 1.349 . S
C1290 H1284 0.950 . S
C1290 C1291 1.327 . S
C1291 H1285 0.950 . S
C1291 C1290 1.327 . S
C1291 C1295 1.429 . S
C1292 C1275 1.574 . S
C1292 H1286 0.949 . S
C1292 C1296 1.368 . S
C1293 C1274 1.429 . S
C1293 C1287 1.429 . S
C1293 C1294 1.523 . S
C1294 C1275 1.368 . S
C1294 C1288 1.368 . S
C1294 C1293 1.523 . S
C1295 C1279 1.429 . S
C1295 C1291 1.429 . S
C1295 C1296 1.523 . S
C1296 C1280 1.368 . S
C1296 C1292 1.368 . S
C1296 C1295 1.523 . S
H1297 C1272 0.950 . S
H1298 C1274 0.950 . S
H1299 C1275 0.949 . S
H1300 C1277 0.950 . S
H1301 C1279 0.950 . S
C1302 C1303 1.349 . S
C1302 C1304 1.327 . S
C1302 H1327 0.950 . S
C1303 C1302 1.349 . S
C1303 C1319 1.349 . S
C1304 C1302 1.327 . S
C1304 C1323 1.429 . S
C1304 H1328 0.950 . S
C1305 C1322 1.574 . S
C1305 C1324 1.368 . S
C1305 H1329 0.949 . S
H1306 C1310 0.949 . S
C1307 C1308 1.349 . S
C1307 C1309 1.327 . S
C1307 H1330 0.950 . S
C1308 C1307 1.349 . S
C1308 C1320 1.349 . S
C1309 C1307 1.327 . S
C1309 C1325 1.429 . S
C1309 H1331 0.950 . S
C1310 H1306 0.949 . S
C1310 C1318 1.574 . S
C1310 C1326 1.368 . S
H1311 C1319 0.950 . S
H1312 C1317 0.950 . S
H1313 C1318 0.949 . S
H1314 C1320 0.950 . S
H1315 C1321 0.950 . S
H1316 C1322 0.949 . S
C1317 H1312 0.950 . S
C1317 C1319 1.327 . S
C1317 C1323 1.429 . S
C1318 C1310 1.574 . S
C1318 H1313 0.949 . S
C1318 C1324 1.368 . S
C1319 C1303 1.349 . S
C1319 H1311 0.950 . S
C1319 C1317 1.327 . S
C1320 C1308 1.349 . S
C1320 H1314 0.950 . S
C1320 C1321 1.327 . S
C1321 H1315 0.950 . S
C1321 C1320 1.327 . S
C1321 C1325 1.429 . S
C1322 C1305 1.574 . S
C1322 H1316 0.949 . S
C1322 C1326 1.368 . S
C1323 C1304 1.429 . S
C1323 C1317 1.429 . S
C1323 C1324 1.523 . S
C1324 C1305 1.368 . S
C1324 C1318 1.368 . S
C1324 C1323 1.523 . S
C1325 C1309 1.429 . S
C1325 C1321 1.429 . S
C1325 C1326 1.523 . S
C1326 C1310 1.368 . S
C1326 C1322 1.368 . S
C1326 C1325 1.523 . S
H1327 C1302 0.950 . S
H1328 C1304 0.950 . S
H1329 C1305 0.949 . S
H1330 C1307 0.950 . S
H1331 C1309 0.950 . S
C1332 C1333 1.349 . S
C1332 C1334 1.327 1_565 S
C1332 H1357 0.950 . S
C1333 C1332 1.349 . S
C1333 C1349 1.364 . S
C1334 C1332 1.327 1_545 S
C1334 C1353 1.429 . S
C1334 H1358 0.950 . S
C1335 C1352 1.574 . S
C1335 C1354 1.368 . S
C1335 H1359 0.949 . S
H1336 C1340 0.949 . S
C1337 C1338 1.349 . S
C1337 C1339 1.327 . S
C1337 H1360 0.950 . S
C1338 C1337 1.349 . S
C1338 C1350 1.349 . S
C1339 C1337 1.327 . S
C1339 C1355 1.429 . S
C1339 H1361 0.950 . S
C1340 H1336 0.949 . S
C1340 C1348 1.574 . S
C1340 C1356 1.368 . S
H1341 C1349 0.964 . S
H1342 C1347 0.950 . S
H1343 C1348 0.949 . S
H1344 C1350 0.950 . S
H1345 C1351 0.950 . S
H1346 C1352 0.949 . S
C1347 H1342 0.950 . S
C1347 C1349 1.300 1_545 S
C1347 C1353 1.429 . S
C1348 C1340 1.574 . S
C1348 H1343 0.949 . S
C1348 C1354 1.368 . S
C1349 C1333 1.364 . S
C1349 H1341 0.964 . S
C1349 C1347 1.300 1_565 S
C1350 C1338 1.349 . S
C1350 H1344 0.950 . S
C1350 C1351 1.327 . S
C1351 H1345 0.950 . S
C1351 C1350 1.327 . S
C1351 C1355 1.429 . S
C1352 C1335 1.574 . S
C1352 H1346 0.949 . S
C1352 C1356 1.368 . S
C1353 C1334 1.429 . S
C1353 C1347 1.429 . S
C1353 C1354 1.523 . S
C1354 C1335 1.368 . S
C1354 C1348 1.368 . S
C1354 C1353 1.523 . S
C1355 C1339 1.429 . S
C1355 C1351 1.429 . S
C1355 C1356 1.523 . S
C1356 C1340 1.368 . S
C1356 C1352 1.368 . S
C1356 C1355 1.523 . S
H1357 C1332 0.950 . S
H1358 C1334 0.950 . S
H1359 C1335 0.949 . S
H1360 C1337 0.950 . S
H1361 C1339 0.950 . S
C1362 C1363 1.349 . S
C1362 C1364 1.327 . S
C1362 H1387 0.950 . S
C1363 C1362 1.349 . S
C1363 C1379 1.349 . S
C1364 C1362 1.327 . S
C1364 C1383 1.429 . S
C1364 H1388 0.950 . S
C1365 C1382 1.574 . S
C1365 C1384 1.368 . S
C1365 H1389 0.949 . S
H1366 C1370 0.949 . S
C1367 C1368 1.349 . S
C1367 C1369 1.327 . S
C1367 H1390 0.950 . S
C1368 C1367 1.349 . S
C1368 C1380 1.349 . S
C1369 C1367 1.327 . S
C1369 C1385 1.429 . S
C1369 H1391 0.950 . S
C1370 H1366 0.949 . S
C1370 C1378 1.574 . S
C1370 C1386 1.368 . S
H1371 C1379 0.950 . S
H1372 C1377 0.950 . S
H1373 C1378 0.949 . S
H1374 C1380 0.950 . S
H1375 C1381 0.950 . S
H1376 C1382 0.949 . S
C1377 H1372 0.950 . S
C1377 C1379 1.327 . S
C1377 C1383 1.429 . S
C1378 C1370 1.574 . S
C1378 H1373 0.949 . S
C1378 C1384 1.368 . S
C1379 C1363 1.349 . S
C1379 H1371 0.950 . S
C1379 C1377 1.327 . S
C1380 C1368 1.349 . S
C1380 H1374 0.950 . S
C1380 C1381 1.327 . S
C1381 H1375 0.950 . S
C1381 C1380 1.327 . S
C1381 C1385 1.429 . S
C1382 C1365 1.574 . S
C1382 H1376 0.949 . S
C1382 C1386 1.368 . S
C1383 C1364 1.429 . S
C1383 C1377 1.429 . S
C1383 C1384 1.523 . S
C1384 C1365 1.368 . S
C1384 C1378 1.368 . S
C1384 C1383 1.523 . S
C1385 C1369 1.429 . S
C1385 C1381 1.429 . S
C1385 C1386 1.523 . S
C1386 C1370 1.368 . S
C1386 C1382 1.368 . S
C1386 C1385 1.523 . S
H1387 C1362 0.950 . S
H1388 C1364 0.950 . S
H1389 C1365 0.949 . S
H1390 C1367 0.950 . S
H1391 C1369 0.950 . S
C1392 C1393 1.349 . S
C1392 C1394 1.327 1_545 S
C1392 H1417 0.950 . S
C1393 C1392 1.349 . S
C1393 C1409 1.347 1_545 S
C1394 C1392 1.327 1_565 S
C1394 C1413 1.429 . S
C1394 H1418 0.950 . S
C1395 C1412 1.574 . S
C1395 C1414 1.368 . S
C1395 H1419 0.949 . S
H1396 C1400 0.949 . S
C1397 C1398 1.349 . S
C1397 C1399 1.327 . S
C1397 H1420 0.950 . S
C1398 C1397 1.349 . S
C1398 C1410 1.349 . S
C1399 C1397 1.327 . S
C1399 C1415 1.429 . S
C1399 H1421 0.950 . S
C1400 H1396 0.949 . S
C1400 C1408 1.574 . S
C1400 C1416 1.368 . S
H1401 C1409 0.949 1_545 S
H1402 C1407 0.950 . S
H1403 C1408 0.949 . S
H1404 C1410 0.950 . S
H1405 C1411 0.950 . S
H1406 C1412 0.949 . S
C1407 H1402 0.950 . S
C1407 C1409 1.330 . S
C1407 C1413 1.429 . S
C1408 C1400 1.574 . S
C1408 H1403 0.949 . S
C1408 C1414 1.368 . S
C1409 C1393 1.347 1_565 S
C1409 H1401 0.949 1_565 S
C1409 C1407 1.330 . S
C1410 C1398 1.349 . S
C1410 H1404 0.950 . S
C1410 C1411 1.327 . S
C1411 H1405 0.950 . S
C1411 C1410 1.327 . S
C1411 C1415 1.429 . S
C1412 C1395 1.574 . S
C1412 H1406 0.949 . S
C1412 C1416 1.368 . S
C1413 C1394 1.429 . S
C1413 C1407 1.429 . S
C1413 C1414 1.523 . S
C1414 C1395 1.368 . S
C1414 C1408 1.368 . S
C1414 C1413 1.523 . S
C1415 C1399 1.429 . S
C1415 C1411 1.429 . S
C1415 C1416 1.523 . S
C1416 C1400 1.368 . S
C1416 C1412 1.368 . S
C1416 C1415 1.523 . S
H1417 C1392 0.950 . S
H1418 C1394 0.950 . S
H1419 C1395 0.949 . S
H1420 C1397 0.950 . S
H1421 C1399 0.950 . S
C1422 C1423 1.349 . S
C1422 C1424 1.327 . S
C1422 H1447 0.950 . S
C1423 C1422 1.349 . S
C1423 C1439 1.349 . S
C1424 C1422 1.327 . S
C1424 C1443 1.429 . S
C1424 H1448 0.950 . S
C1425 C1442 1.574 . S
C1425 C1444 1.368 . S
C1425 H1449 0.949 . S
H1426 C1430 0.949 . S
C1427 C1428 1.349 . S
C1427 C1429 1.327 . S
C1427 H1450 0.950 . S
C1428 C1427 1.349 . S
C1428 C1440 1.349 . S
C1429 C1427 1.327 . S
C1429 C1445 1.429 . S
C1429 H1451 0.950 . S
C1430 H1426 0.949 . S
C1430 C1438 1.574 . S
C1430 C1446 1.368 . S
H1431 C1439 0.950 . S
H1432 C1437 0.950 . S
H1433 C1438 0.949 . S
H1434 C1440 0.950 . S
H1435 C1441 0.950 . S
H1436 C1442 0.949 . S
C1437 H1432 0.950 . S
C1437 C1439 1.327 . S
C1437 C1443 1.429 . S
C1438 C1430 1.574 . S
C1438 H1433 0.949 . S
C1438 C1444 1.368 . S
C1439 C1423 1.349 . S
C1439 H1431 0.950 . S
C1439 C1437 1.327 . S
C1440 C1428 1.349 . S
C1440 H1434 0.950 . S
C1440 C1441 1.327 . S
C1441 H1435 0.950 . S
C1441 C1440 1.327 . S
C1441 C1445 1.429 . S
C1442 C1425 1.574 . S
C1442 H1436 0.949 . S
C1442 C1446 1.368 . S
C1443 C1424 1.429 . S
C1443 C1437 1.429 . S
C1443 C1444 1.523 . S
C1444 C1425 1.368 . S
C1444 C1438 1.368 . S
C1444 C1443 1.523 . S
C1445 C1429 1.429 . S
C1445 C1441 1.429 . S
C1445 C1446 1.523 . S
C1446 C1430 1.368 . S
C1446 C1442 1.368 . S
C1446 C1445 1.523 . S
H1447 C1422 0.950 . S
H1448 C1424 0.950 . S
H1449 C1425 0.949 . S
H1450 C1427 0.950 . S
H1451 C1429 0.950 . S
C1452 C1453 1.349 . S
C1452 C1454 1.327 1_545 S
C1452 H1477 0.950 . S
C1453 C1452 1.349 . S
C1453 C1469 1.351 . S
C1454 C1452 1.327 1_565 S
C1454 C1473 1.429 . S
C1454 H1478 0.950 . S
C1455 C1472 1.574 . S
C1455 C1474 1.368 . S
C1455 H1479 0.949 . S
H1456 C1460 0.949 . S
C1457 C1458 1.349 . S
C1457 C1459 1.327 . S
C1457 H1480 0.950 . S
C1458 C1457 1.349 . S
C1458 C1470 1.349 . S
C1459 C1457 1.327 . S
C1459 C1475 1.429 . S
C1459 H1481 0.950 . S
C1460 H1456 0.949 . S
C1460 C1468 1.574 . S
C1460 C1476 1.368 . S
H1461 C1469 0.952 . S
H1462 C1467 0.950 . S
H1463 C1468 0.949 . S
H1464 C1470 0.950 . S
H1465 C1471 0.950 . S
H1466 C1472 0.949 . S
C1467 H1462 0.950 . S
C1467 C1469 1.323 1_565 S
C1467 C1473 1.429 . S
C1468 C1460 1.574 . S
C1468 H1463 0.949 . S
C1468 C1474 1.368 . S
C1469 C1453 1.351 . S
C1469 H1461 0.952 . S
C1469 C1467 1.323 1_545 S
C1470 C1458 1.349 . S
C1470 H1464 0.950 . S
C1470 C1471 1.327 . S
C1471 H1465 0.950 . S
C1471 C1470 1.327 . S
C1471 C1475 1.429 . S
C1472 C1455 1.574 . S
C1472 H1466 0.949 . S
C1472 C1476 1.368 . S
C1473 C1454 1.429 . S
C1473 C1467 1.429 . S
C1473 C1474 1.523 . S
C1474 C1455 1.368 . S
C1474 C1468 1.368 . S
C1474 C1473 1.523 . S
C1475 C1459 1.429 . S
C1475 C1471 1.429 . S
C1475 C1476 1.523 . S
C1476 C1460 1.368 . S
C1476 C1472 1.368 . S
C1476 C1475 1.523 . S
H1477 C1452 0.950 . S
H1478 C1454 0.950 . S
H1479 C1455 0.949 . S
H1480 C1457 0.950 . S
H1481 C1459 0.950 . S
C1482 C1483 1.349 . S
C1482 C1484 1.327 1_565 S
C1482 H1507 0.950 . S
C1483 C1482 1.349 . S
C1483 C1499 1.349 1_565 S
C1484 C1482 1.327 1_545 S
C1484 C1503 1.429 . S
C1484 H1508 0.950 . S
C1485 C1502 1.574 . S
C1485 C1504 1.368 . S
C1485 H1509 0.949 . S
H1486 C1490 0.949 . S
C1487 C1488 1.349 . S
C1487 C1489 1.327 . S
C1487 H1510 0.950 . S
C1488 C1487 1.349 . S
C1488 C1500 1.349 . S
C1489 C1487 1.327 . S
C1489 C1505 1.429 . S
C1489 H1511 0.950 . S
C1490 H1486 0.949 . S
C1490 C1498 1.574 . S
C1490 C1506 1.368 . S
H1491 C1499 0.950 1_565 S
H1492 C1497 0.950 . S
H1493 C1498 0.949 . S
H1494 C1500 0.950 . S
H1495 C1501 0.950 . S
H1496 C1502 0.949 . S
C1497 H1492 0.950 . S
C1497 C1499 1.327 . S
C1497 C1503 1.429 . S
C1498 C1490 1.574 . S
C1498 H1493 0.949 . S
C1498 C1504 1.368 . S
C1499 C1483 1.349 1_545 S
C1499 H1491 0.950 1_545 S
C1499 C1497 1.327 . S
C1500 C1488 1.349 . S
C1500 H1494 0.950 . S
C1500 C1501 1.327 . S
C1501 H1495 0.950 . S
C1501 C1500 1.327 . S
C1501 C1505 1.429 . S
C1502 C1485 1.574 . S
C1502 H1496 0.949 . S
C1502 C1506 1.368 . S
C1503 C1484 1.429 . S
C1503 C1497 1.429 . S
C1503 C1504 1.523 . S
C1504 C1485 1.368 . S
C1504 C1498 1.368 . S
C1504 C1503 1.523 . S
C1505 C1489 1.429 . S
C1505 C1501 1.429 . S
C1505 C1506 1.523 . S
C1506 C1490 1.368 . S
C1506 C1502 1.368 . S
C1506 C1505 1.523 . S
H1507 C1482 0.950 . S
H1508 C1484 0.950 . S
H1509 C1485 0.949 . S
H1510 C1487 0.950 . S
H1511 C1489 0.950 . S
C1512 C1513 1.349 . S
C1512 C1514 1.327 . S
C1512 H1537 0.950 . S
C1513 C1512 1.349 . S
C1513 C1529 1.349 . S
C1514 C1512 1.327 . S
C1514 C1533 1.429 . S
C1514 H1538 0.950 . S
C1515 C1532 1.574 1_556 S
C1515 C1534 1.368 . S
C1515 H1539 0.949 . S
H1516 C1520 0.949 . S
C1517 C1518 1.349 . S
C1517 C1519 1.327 . S
C1517 H1540 0.950 . S
C1518 C1517 1.349 . S
C1518 C1530 1.349 . S
C1519 C1517 1.327 . S
C1519 C1535 1.429 . S
C1519 H1541 0.950 . S
C1520 H1516 0.949 . S
C1520 C1528 1.574 1_554 S
C1520 C1536 1.368 . S
H1521 C1529 0.950 . S
H1522 C1527 0.950 . S
H1523 C1528 0.949 . S
H1524 C1530 0.950 . S
H1525 C1531 0.950 . S
H1526 C1532 0.949 . S
C1527 H1522 0.950 . S
C1527 C1529 1.327 . S
C1527 C1533 1.429 . S
C1528 C1520 1.574 1_556 S
C1528 H1523 0.949 . S
C1528 C1534 1.368 1_455 S
C1529 C1513 1.349 . S
C1529 H1521 0.950 . S
C1529 C1527 1.327 . S
C1530 C1518 1.349 . S
C1530 H1524 0.950 . S
C1530 C1531 1.327 . S
C1531 H1525 0.950 . S
C1531 C1530 1.327 . S
C1531 C1535 1.429 . S
C1532 C1515 1.574 1_554 S
C1532 H1526 0.949 . S
C1532 C1536 1.368 1_655 S
C1533 C1514 1.429 . S
C1533 C1527 1.429 . S
C1533 C1534 1.523 . S
C1534 C1515 1.368 . S
C1534 C1528 1.368 1_655 S
C1534 C1533 1.523 . S
C1535 C1519 1.429 . S
C1535 C1531 1.429 . S
C1535 C1536 1.523 . S
C1536 C1520 1.368 . S
C1536 C1532 1.368 1_455 S
C1536 C1535 1.523 . S
H1537 C1512 0.950 . S
H1538 C1514 0.950 . S
H1539 C1515 0.949 . S
H1540 C1517 0.950 . S
H1541 C1519 0.950 . S
C1542 C1543 1.349 . S
C1542 C1544 1.327 . S
C1542 H1567 0.950 . S
C1543 C1542 1.349 . S
C1543 C1559 1.349 . S
C1544 C1542 1.327 . S
C1544 C1563 1.429 . S
C1544 H1568 0.950 . S
C1545 C1562 1.574 . S
C1545 C1564 1.368 . S
C1545 H1569 0.949 . S
H1546 C1550 0.949 . S
C1547 C1548 1.349 . S
C1547 C1549 1.327 . S
C1547 H1570 0.950 . S
C1548 C1547 1.349 . S
C1548 C1560 1.349 . S
C1549 C1547 1.327 . S
C1549 C1565 1.429 . S
C1549 H1571 0.950 . S
C1550 H1546 0.949 . S
C1550 C1558 1.574 . S
C1550 C1566 1.368 . S
H1551 C1559 0.950 . S
H1552 C1557 0.950 . S
H1553 C1558 0.949 . S
H1554 C1560 0.950 . S
H1555 C1561 0.950 . S
H1556 C1562 0.949 . S
C1557 H1552 0.950 . S
C1557 C1559 1.327 . S
C1557 C1563 1.429 . S
C1558 C1550 1.574 . S
C1558 H1553 0.949 . S
C1558 C1564 1.368 . S
C1559 C1543 1.349 . S
C1559 H1551 0.950 . S
C1559 C1557 1.327 . S
C1560 C1548 1.349 . S
C1560 H1554 0.950 . S
C1560 C1561 1.327 . S
C1561 H1555 0.950 . S
C1561 C1560 1.327 . S
C1561 C1565 1.429 . S
C1562 C1545 1.574 . S
C1562 H1556 0.949 . S
C1562 C1566 1.368 . S
C1563 C1544 1.429 . S
C1563 C1557 1.429 . S
C1563 C1564 1.523 . S
C1564 C1545 1.368 . S
C1564 C1558 1.368 . S
C1564 C1563 1.523 . S
C1565 C1549 1.429 . S
C1565 C1561 1.429 . S
C1565 C1566 1.523 . S
C1566 C1550 1.368 . S
C1566 C1562 1.368 . S
C1566 C1565 1.523 . S
H1567 C1542 0.950 . S
H1568 C1544 0.950 . S
H1569 C1545 0.949 . S
H1570 C1547 0.950 . S
H1571 C1549 0.950 . S
C1572 C1573 1.349 . S
C1572 C1574 1.327 . S
C1572 H1597 0.950 . S
C1573 C1572 1.349 . S
C1573 C1589 1.349 . S
C1574 C1572 1.327 . S
C1574 C1593 1.429 . S
C1574 H1598 0.950 . S
C1575 C1592 1.574 1_556 S
C1575 C1594 1.368 . S
C1575 H1599 0.949 . S
H1576 C1580 0.949 . S
C1577 C1578 1.349 . S
C1577 C1579 1.327 . S
C1577 H1600 0.950 . S
C1578 C1577 1.349 . S
C1578 C1590 1.349 . S
C1579 C1577 1.327 . S
C1579 C1595 1.429 . S
C1579 H1601 0.950 . S
C1580 H1576 0.949 . S
C1580 C1588 1.574 1_554 S
C1580 C1596 1.368 . S
H1581 C1589 0.950 . S
H1582 C1587 0.950 . S
H1583 C1588 0.949 . S
H1584 C1590 0.950 . S
H1585 C1591 0.950 . S
H1586 C1592 0.949 . S
C1587 H1582 0.950 . S
C1587 C1589 1.327 . S
C1587 C1593 1.429 . S
C1588 C1580 1.574 1_556 S
C1588 H1583 0.949 . S
C1588 C1594 1.368 1_655 S
C1589 C1573 1.349 . S
C1589 H1581 0.950 . S
C1589 C1587 1.327 . S
C1590 C1578 1.349 . S
C1590 H1584 0.950 . S
C1590 C1591 1.327 . S
C1591 H1585 0.950 . S
C1591 C1590 1.327 . S
C1591 C1595 1.429 . S
C1592 C1575 1.574 1_554 S
C1592 H1586 0.949 . S
C1592 C1596 1.368 1_455 S
C1593 C1574 1.429 . S
C1593 C1587 1.429 . S
C1593 C1594 1.523 . S
C1594 C1575 1.368 . S
C1594 C1588 1.368 1_455 S
C1594 C1593 1.523 . S
C1595 C1579 1.429 . S
C1595 C1591 1.429 . S
C1595 C1596 1.523 . S
C1596 C1580 1.368 . S
C1596 C1592 1.368 1_655 S
C1596 C1595 1.523 . S
H1597 C1572 0.950 . S
H1598 C1574 0.950 . S
H1599 C1575 0.949 . S
H1600 C1577 0.950 . S
H1601 C1579 0.950 . S
C1602 C1603 1.349 . S
C1602 C1604 1.327 . S
C1602 H1627 0.950 . S
C1603 C1602 1.349 . S
C1603 C1619 1.349 . S
C1604 C1602 1.327 . S
C1604 C1623 1.429 . S
C1604 H1628 0.950 . S
C1605 C1622 1.574 . S
C1605 C1624 1.368 . S
C1605 H1629 0.949 . S
H1606 C1610 0.949 . S
C1607 C1608 1.349 . S
C1607 C1609 1.327 . S
C1607 H1630 0.950 . S
C1608 C1607 1.349 . S
C1608 C1620 1.349 . S
C1609 C1607 1.327 . S
C1609 C1625 1.429 . S
C1609 H1631 0.950 . S
C1610 H1606 0.949 . S
C1610 C1618 1.574 . S
C1610 C1626 1.368 . S
H1611 C1619 0.950 . S
H1612 C1617 0.950 . S
H1613 C1618 0.949 . S
H1614 C1620 0.950 . S
H1615 C1621 0.950 . S
H1616 C1622 0.949 . S
C1617 H1612 0.950 . S
C1617 C1619 1.327 . S
C1617 C1623 1.429 . S
C1618 C1610 1.574 . S
C1618 H1613 0.949 . S
C1618 C1624 1.368 . S
C1619 C1603 1.349 . S
C1619 H1611 0.950 . S
C1619 C1617 1.327 . S
C1620 C1608 1.349 . S
C1620 H1614 0.950 . S
C1620 C1621 1.327 . S
C1621 H1615 0.950 . S
C1621 C1620 1.327 . S
C1621 C1625 1.429 . S
C1622 C1605 1.574 . S
C1622 H1616 0.949 . S
C1622 C1626 1.368 . S
C1623 C1604 1.429 . S
C1623 C1617 1.429 . S
C1623 C1624 1.523 . S
C1624 C1605 1.368 . S
C1624 C1618 1.368 . S
C1624 C1623 1.523 . S
C1625 C1609 1.429 . S
C1625 C1621 1.429 . S
C1625 C1626 1.523 . S
C1626 C1610 1.368 . S
C1626 C1622 1.368 . S
C1626 C1625 1.523 . S
H1627 C1602 0.950 . S
H1628 C1604 0.950 . S
H1629 C1605 0.949 . S
H1630 C1607 0.950 . S
H1631 C1609 0.950 . S
C1632 C1633 1.349 . S
C1632 C1634 1.327 . S
C1632 H1657 0.950 . S
C1633 C1632 1.349 . S
C1633 C1649 1.349 . S
C1634 C1632 1.327 . S
C1634 C1653 1.429 . S
C1634 H1658 0.950 . S
C1635 C1652 1.574 1_655 S
C1635 C1654 1.368 . S
C1635 H1659 0.949 . S
H1636 C1640 0.949 . S
C1637 C1638 1.349 . S
C1637 C1639 1.327 . S
C1637 H1660 0.950 . S
C1638 C1637 1.349 . S
C1638 C1650 1.349 . S
C1639 C1637 1.327 . S
C1639 C1655 1.429 . S
C1639 H1661 0.950 . S
C1640 H1636 0.949 . S
C1640 C1648 1.574 1_455 S
C1640 C1656 1.368 . S
H1641 C1649 0.950 . S
H1642 C1647 0.950 . S
H1643 C1648 0.949 . S
H1644 C1650 0.950 . S
H1645 C1651 0.950 . S
H1646 C1652 0.949 . S
C1647 H1642 0.950 . S
C1647 C1649 1.327 . S
C1647 C1653 1.429 . S
C1648 C1640 1.574 1_655 S
C1648 H1643 0.949 . S
C1648 C1654 1.368 1_545 S
C1649 C1633 1.349 . S
C1649 H1641 0.950 . S
C1649 C1647 1.327 . S
C1650 C1638 1.349 . S
C1650 H1644 0.950 . S
C1650 C1651 1.327 . S
C1651 H1645 0.950 . S
C1651 C1650 1.327 . S
C1651 C1655 1.429 . S
C1652 C1635 1.574 1_455 S
C1652 H1646 0.949 . S
C1652 C1656 1.368 1_565 S
C1653 C1634 1.429 . S
C1653 C1647 1.429 . S
C1653 C1654 1.523 . S
C1654 C1635 1.368 . S
C1654 C1648 1.368 1_565 S
C1654 C1653 1.523 . S
C1655 C1639 1.429 . S
C1655 C1651 1.429 . S
C1655 C1656 1.523 . S
C1656 C1640 1.368 . S
C1656 C1652 1.368 1_545 S
C1656 C1655 1.523 . S
H1657 C1632 0.950 . S
H1658 C1634 0.950 . S
H1659 C1635 0.949 . S
H1660 C1637 0.950 . S
H1661 C1639 0.950 . S
C1662 C1663 1.349 . S
C1662 C1664 1.327 . S
C1662 H1687 0.950 . S
C1663 C1662 1.349 . S
C1663 C1679 1.349 . S
C1664 C1662 1.327 . S
C1664 C1683 1.429 . S
C1664 H1688 0.950 . S
C1665 C1682 1.574 . S
C1665 C1684 1.368 . S
C1665 H1689 0.949 . S
H1666 C1670 0.949 . S
C1667 C1668 1.349 . S
C1667 C1669 1.327 . S
C1667 H1690 0.950 . S
C1668 C1667 1.349 . S
C1668 C1680 1.349 . S
C1669 C1667 1.327 . S
C1669 C1685 1.429 . S
C1669 H1691 0.950 . S
C1670 H1666 0.949 . S
C1670 C1678 1.574 . S
C1670 C1686 1.368 . S
H1671 C1679 0.950 . S
H1672 C1677 0.950 . S
H1673 C1678 0.949 . S
H1674 C1680 0.950 . S
H1675 C1681 0.950 . S
H1676 C1682 0.949 . S
C1677 H1672 0.950 . S
C1677 C1679 1.327 . S
C1677 C1683 1.429 . S
C1678 C1670 1.574 . S
C1678 H1673 0.949 . S
C1678 C1684 1.368 . S
C1679 C1663 1.349 . S
C1679 H1671 0.950 . S
C1679 C1677 1.327 . S
C1680 C1668 1.349 . S
C1680 H1674 0.950 . S
C1680 C1681 1.327 . S
C1681 H1675 0.950 . S
C1681 C1680 1.327 . S
C1681 C1685 1.429 . S
C1682 C1665 1.574 . S
C1682 H1676 0.949 . S
C1682 C1686 1.368 . S
C1683 C1664 1.429 . S
C1683 C1677 1.429 . S
C1683 C1684 1.523 . S
C1684 C1665 1.368 . S
C1684 C1678 1.368 . S
C1684 C1683 1.523 . S
C1685 C1669 1.429 . S
C1685 C1681 1.429 . S
C1685 C1686 1.523 . S
C1686 C1670 1.368 . S
C1686 C1682 1.368 . S
C1686 C1685 1.523 . S
H1687 C1662 0.950 . S
H1688 C1664 0.950 . S
H1689 C1665 0.949 . S
H1690 C1667 0.950 . S
H1691 C1669 0.950 . S
C1692 C1693 1.349 . S
C1692 C1694 1.327 . S
C1692 H1717 0.950 . S
C1693 C1692 1.349 . S
C1693 C1709 1.349 . S
C1694 C1692 1.327 . S
C1694 C1713 1.429 . S
C1694 H1718 0.950 . S
C1695 C1712 1.574 1_455 S
C1695 C1714 1.368 1_545 S
C1695 H1719 0.949 . S
H1696 C1700 0.949 . S
C1697 C1698 1.349 . S
C1697 C1699 1.327 . S
C1697 H1720 0.950 . S
C1698 C1697 1.349 . S
C1698 C1710 1.349 . S
C1699 C1697 1.327 . S
C1699 C1715 1.429 . S
C1699 H1721 0.950 . S
C1700 H1696 0.949 . S
C1700 C1708 1.574 1_655 S
C1700 C1716 1.368 1_565 S
H1701 C1709 0.950 . S
H1702 C1707 0.950 . S
H1703 C1708 0.949 . S
H1704 C1710 0.950 . S
H1705 C1711 0.950 . S
H1706 C1712 0.949 . S
C1707 H1702 0.950 . S
C1707 C1709 1.327 . S
C1707 C1713 1.429 . S
C1708 C1700 1.574 1_455 S
C1708 H1703 0.949 . S
C1708 C1714 1.368 . S
C1709 C1693 1.349 . S
C1709 H1701 0.950 . S
C1709 C1707 1.327 . S
C1710 C1698 1.349 . S
C1710 H1704 0.950 . S
C1710 C1711 1.327 . S
C1711 H1705 0.950 . S
C1711 C1710 1.327 . S
C1711 C1715 1.429 . S
C1712 C1695 1.574 1_655 S
C1712 H1706 0.949 . S
C1712 C1716 1.368 . S
C1713 C1694 1.429 . S
C1713 C1707 1.429 . S
C1713 C1714 1.523 . S
C1714 C1695 1.368 1_565 S
C1714 C1708 1.368 . S
C1714 C1713 1.523 . S
C1715 C1699 1.429 . S
C1715 C1711 1.429 . S
C1715 C1716 1.523 . S
C1716 C1700 1.368 1_545 S
C1716 C1712 1.368 . S
C1716 C1715 1.523 . S
H1717 C1692 0.950 . S
H1718 C1694 0.950 . S
H1719 C1695 0.949 . S
H1720 C1697 0.950 . S
H1721 C1699 0.950 . S
C1722 C1723 1.349 . S
C1722 C1724 1.327 . S
C1722 H1747 0.950 . S
C1723 C1722 1.349 . S
C1723 C1739 1.349 . S
C1724 C1722 1.327 . S
C1724 C1743 1.429 . S
C1724 H1748 0.950 . S
C1725 C1742 1.574 . S
C1725 C1744 1.368 . S
C1725 H1749 0.949 . S
H1726 C1730 0.949 . S
C1727 C1728 1.349 . S
C1727 C1729 1.327 . S
C1727 H1750 0.950 . S
C1728 C1727 1.349 . S
C1728 C1740 1.349 . S
C1729 C1727 1.327 . S
C1729 C1745 1.429 . S
C1729 H1751 0.950 . S
C1730 H1726 0.949 . S
C1730 C1738 1.574 . S
C1730 C1746 1.368 . S
H1731 C1739 0.950 . S
H1732 C1737 0.950 . S
H1733 C1738 0.949 . S
H1734 C1740 0.950 . S
H1735 C1741 0.950 . S
H1736 C1742 0.949 . S
C1737 H1732 0.950 . S
C1737 C1739 1.327 . S
C1737 C1743 1.429 . S
C1738 C1730 1.574 . S
C1738 H1733 0.949 . S
C1738 C1744 1.368 . S
C1739 C1723 1.349 . S
C1739 H1731 0.950 . S
C1739 C1737 1.327 . S
C1740 C1728 1.349 . S
C1740 H1734 0.950 . S
C1740 C1741 1.327 . S
C1741 H1735 0.950 . S
C1741 C1740 1.327 . S
C1741 C1745 1.429 . S
C1742 C1725 1.574 . S
C1742 H1736 0.949 . S
C1742 C1746 1.368 . S
C1743 C1724 1.429 . S
C1743 C1737 1.429 . S
C1743 C1744 1.523 . S
C1744 C1725 1.368 . S
C1744 C1738 1.368 . S
C1744 C1743 1.523 . S
C1745 C1729 1.429 . S
C1745 C1741 1.429 . S
C1745 C1746 1.523 . S
C1746 C1730 1.368 . S
C1746 C1742 1.368 . S
C1746 C1745 1.523 . S
H1747 C1722 0.950 . S
H1748 C1724 0.950 . S
H1749 C1725 0.949 . S
H1750 C1727 0.950 . S
H1751 C1729 0.950 . S
C1752 C1753 1.349 . S
C1752 C1754 1.327 . S
C1752 H1777 0.950 . S
C1753 C1752 1.349 . S
C1753 C1769 1.349 . S
C1754 C1752 1.327 . S
C1754 C1773 1.429 . S
C1754 H1778 0.950 1_554 S
C1755 C1772 1.574 1_545 S
C1755 C1774 1.368 . S
C1755 H1779 0.949 . S
H1756 C1760 0.949 . S
C1757 C1758 1.349 . S
C1757 C1759 1.327 . S
C1757 H1780 0.950 . S
C1758 C1757 1.349 . S
C1758 C1770 1.349 . S
C1759 C1757 1.327 . S
C1759 C1775 1.429 . S
C1759 H1781 0.950 1_556 S
C1760 H1756 0.949 . S
C1760 C1768 1.574 1_565 S
C1760 C1776 1.368 . S
H1761 C1769 0.950 . S
H1762 C1767 0.950 . S
H1763 C1768 0.949 . S
H1764 C1770 0.950 . S
H1765 C1771 0.950 . S
H1766 C1772 0.949 . S
C1767 H1762 0.950 . S
C1767 C1769 1.327 . S
C1767 C1773 1.429 . S
C1768 C1760 1.574 1_545 S
C1768 H1763 0.949 . S
C1768 C1774 1.368 1_556 S
C1769 C1753 1.349 . S
C1769 H1761 0.950 . S
C1769 C1767 1.327 . S
C1770 C1758 1.349 . S
C1770 H1764 0.950 . S
C1770 C1771 1.327 . S
C1771 H1765 0.950 . S
C1771 C1770 1.327 . S
C1771 C1775 1.429 . S
C1772 C1755 1.574 1_565 S
C1772 H1766 0.949 . S
C1772 C1776 1.368 1_554 S
C1773 C1754 1.429 . S
C1773 C1767 1.429 . S
C1773 C1774 1.523 . S
C1774 C1755 1.368 . S
C1774 C1768 1.368 1_554 S
C1774 C1773 1.523 . S
C1775 C1759 1.429 . S
C1775 C1771 1.429 . S
C1775 C1776 1.523 . S
C1776 C1760 1.368 . S
C1776 C1772 1.368 1_556 S
C1776 C1775 1.523 . S
H1777 C1752 0.950 . S
H1778 C1754 0.950 1_556 S
H1779 C1755 0.949 . S
H1780 C1757 0.950 . S
H1781 C1759 0.950 1_554 S
C1782 C1783 1.349 . S
C1782 C1784 1.327 . S
C1782 H1807 0.950 . S
C1783 C1782 1.349 . S
C1783 C1799 1.349 . S
C1784 C1782 1.327 . S
C1784 C1803 1.429 . S
C1784 H1808 0.950 . S
C1785 C1802 1.574 . S
C1785 C1804 1.368 . S
C1785 H1809 0.949 . S
H1786 C1790 0.949 . S
C1787 C1788 1.349 . S
C1787 C1789 1.327 . S
C1787 H1810 0.950 . S
C1788 C1787 1.349 . S
C1788 C1800 1.349 . S
C1789 C1787 1.327 . S
C1789 C1805 1.429 . S
C1789 H1811 0.950 . S
C1790 H1786 0.949 . S
C1790 C1798 1.574 . S
C1790 C1806 1.368 . S
H1791 C1799 0.950 . S
H1792 C1797 0.950 . S
H1793 C1798 0.949 . S
H1794 C1800 0.950 . S
H1795 C1801 0.950 . S
H1796 C1802 0.949 . S
C1797 H1792 0.950 . S
C1797 C1799 1.327 . S
C1797 C1803 1.429 . S
C1798 C1790 1.574 . S
C1798 H1793 0.949 . S
C1798 C1804 1.368 . S
C1799 C1783 1.349 . S
C1799 H1791 0.950 . S
C1799 C1797 1.327 . S
C1800 C1788 1.349 . S
C1800 H1794 0.950 . S
C1800 C1801 1.327 . S
C1801 H1795 0.950 . S
C1801 C1800 1.327 . S
C1801 C1805 1.429 . S
C1802 C1785 1.574 . S
C1802 H1796 0.949 . S
C1802 C1806 1.368 . S
C1803 C1784 1.429 . S
C1803 C1797 1.429 . S
C1803 C1804 1.523 . S
C1804 C1785 1.368 . S
C1804 C1798 1.368 . S
C1804 C1803 1.523 . S
C1805 C1789 1.429 . S
C1805 C1801 1.429 . S
C1805 C1806 1.523 . S
C1806 C1790 1.368 . S
C1806 C1802 1.368 . S
C1806 C1805 1.523 . S
H1807 C1782 0.950 . S
H1808 C1784 0.950 . S
H1809 C1785 0.949 . S
H1810 C1787 0.950 . S
H1811 C1789 0.950 . S
C1812 C1813 1.349 . S
C1812 C1814 1.327 . S
C1812 H1837 0.950 . S
C1813 C1812 1.349 . S
C1813 C1829 1.349 . S
C1814 C1812 1.327 . S
C1814 C1833 1.429 . S
C1814 H1838 0.950 . S
C1815 C1832 1.574 1_545 S
C1815 C1834 1.368 1_554 S
C1815 H1839 0.949 . S
H1816 C1820 0.949 . S
C1817 C1818 1.349 . S
C1817 C1819 1.327 . S
C1817 H1840 0.950 . S
C1818 C1817 1.349 . S
C1818 C1830 1.349 . S
C1819 C1817 1.327 . S
C1819 C1835 1.429 . S
C1819 H1841 0.950 . S
C1820 H1816 0.949 . S
C1820 C1828 1.574 1_565 S
C1820 C1836 1.368 1_556 S
H1821 C1829 0.950 . S
H1822 C1827 0.950 1_554 S
H1823 C1828 0.949 . S
H1824 C1830 0.950 . S
H1825 C1831 0.950 1_556 S
H1826 C1832 0.949 . S
C1827 H1822 0.950 1_556 S
C1827 C1829 1.327 . S
C1827 C1833 1.429 . S
C1828 C1820 1.574 1_545 S
C1828 H1823 0.949 . S
C1828 C1834 1.368 . S
C1829 C1813 1.349 . S
C1829 H1821 0.950 . S
C1829 C1827 1.327 . S
C1830 C1818 1.349 . S
C1830 H1824 0.950 . S
C1830 C1831 1.327 . S
C1831 H1825 0.950 1_554 S
C1831 C1830 1.327 . S
C1831 C1835 1.429 . S
C1832 C1815 1.574 1_565 S
C1832 H1826 0.949 . S
C1832 C1836 1.368 . S
C1833 C1814 1.429 . S
C1833 C1827 1.429 . S
C1833 C1834 1.523 . S
C1834 C1815 1.368 1_556 S
C1834 C1828 1.368 . S
C1834 C1833 1.523 . S
C1835 C1819 1.429 . S
C1835 C1831 1.429 . S
C1835 C1836 1.523 . S
C1836 C1820 1.368 1_554 S
C1836 C1832 1.368 . S
C1836 C1835 1.523 . S
H1837 C1812 0.950 . S
H1838 C1814 0.950 . S
H1839 C1815 0.949 . S
H1840 C1817 0.950 . S
H1841 C1819 0.950 . S
C1842 C1843 1.349 . S
C1842 C1844 1.327 . S
C1842 H1867 0.950 . S
C1843 C1842 1.349 . S
C1843 C1859 1.349 . S
C1844 C1842 1.327 . S
C1844 C1863 1.429 . S
C1844 H1868 0.950 . S
C1845 C1862 1.574 . S
C1845 C1864 1.368 . S
C1845 H1869 0.949 . S
H1846 C1850 0.949 . S
C1847 C1848 1.349 . S
C1847 C1849 1.327 . S
C1847 H1870 0.950 . S
C1848 C1847 1.349 . S
C1848 C1860 1.349 . S
C1849 C1847 1.327 . S
C1849 C1865 1.429 . S
C1849 H1871 0.950 . S
C1850 H1846 0.949 . S
C1850 C1858 1.574 . S
C1850 C1866 1.368 . S
H1851 C1859 0.950 . S
H1852 C1857 0.950 . S
H1853 C1858 0.949 . S
H1854 C1860 0.950 . S
H1855 C1861 0.950 . S
H1856 C1862 0.949 . S
C1857 H1852 0.950 . S
C1857 C1859 1.327 . S
C1857 C1863 1.429 . S
C1858 C1850 1.574 . S
C1858 H1853 0.949 . S
C1858 C1864 1.368 . S
C1859 C1843 1.349 . S
C1859 H1851 0.950 . S
C1859 C1857 1.327 . S
C1860 C1848 1.349 . S
C1860 H1854 0.950 . S
C1860 C1861 1.327 . S
C1861 H1855 0.950 . S
C1861 C1860 1.327 . S
C1861 C1865 1.429 . S
C1862 C1845 1.574 . S
C1862 H1856 0.949 . S
C1862 C1866 1.368 . S
C1863 C1844 1.429 . S
C1863 C1857 1.429 . S
C1863 C1864 1.523 . S
C1864 C1845 1.368 . S
C1864 C1858 1.368 . S
C1864 C1863 1.523 . S
C1865 C1849 1.429 . S
C1865 C1861 1.429 . S
C1865 C1866 1.523 . S
C1866 C1850 1.368 . S
C1866 C1862 1.368 . S
C1866 C1865 1.523 . S
H1867 C1842 0.950 . S
H1868 C1844 0.950 . S
H1869 C1845 0.949 . S
H1870 C1847 0.950 . S
H1871 C1849 0.950 . S
C1872 C1873 1.349 . S
C1872 C1874 1.327 . S
C1872 H1897 0.950 . S
C1873 C1872 1.349 . S
C1873 C1889 1.349 . S
C1874 C1872 1.327 . S
C1874 C1893 1.429 . S
C1874 H1898 0.950 . S
C1875 C1892 1.574 . S
C1875 C1894 1.368 . S
C1875 H1899 0.949 . S
H1876 C1880 0.949 . S
C1877 C1878 1.349 . S
C1877 C1879 1.327 . S
C1877 H1900 0.950 . S
C1878 C1877 1.349 . S
C1878 C1890 1.349 . S
C1879 C1877 1.327 . S
C1879 C1895 1.429 . S
C1879 H1901 0.950 . S
C1880 H1876 0.949 . S
C1880 C1888 1.574 . S
C1880 C1896 1.368 . S
H1881 C1889 0.950 . S
H1882 C1887 0.950 . S
H1883 C1888 0.949 . S
H1884 C1890 0.950 . S
H1885 C1891 0.950 . S
H1886 C1892 0.949 . S
C1887 H1882 0.950 . S
C1887 C1889 1.327 . S
C1887 C1893 1.429 . S
C1888 C1880 1.574 . S
C1888 H1883 0.949 . S
C1888 C1894 1.368 . S
C1889 C1873 1.349 . S
C1889 H1881 0.950 . S
C1889 C1887 1.327 . S
C1890 C1878 1.349 . S
C1890 H1884 0.950 . S
C1890 C1891 1.327 . S
C1891 H1885 0.950 . S
C1891 C1890 1.327 . S
C1891 C1895 1.429 . S
C1892 C1875 1.574 . S
C1892 H1886 0.949 . S
C1892 C1896 1.368 . S
C1893 C1874 1.429 . S
C1893 C1887 1.429 . S
C1893 C1894 1.523 . S
C1894 C1875 1.368 . S
C1894 C1888 1.368 . S
C1894 C1893 1.523 . S
C1895 C1879 1.429 . S
C1895 C1891 1.429 . S
C1895 C1896 1.523 . S
C1896 C1880 1.368 . S
C1896 C1892 1.368 . S
C1896 C1895 1.523 . S
H1897 C1872 0.950 . S
H1898 C1874 0.950 . S
H1899 C1875 0.949 . S
H1900 C1877 0.950 . S
H1901 C1879 0.950 . S
C1902 C1903 1.349 . S
C1902 C1904 1.327 . S
C1902 H1927 0.950 . S
C1903 C1902 1.349 . S
C1903 C1919 1.349 . S
C1904 C1902 1.327 . S
C1904 C1923 1.429 . S
C1904 H1928 0.950 . S
C1905 C1922 1.574 . S
C1905 C1924 1.368 . S
C1905 H1929 0.949 . S
H1906 C1910 0.949 . S
C1907 C1908 1.349 . S
C1907 C1909 1.327 . S
C1907 H1930 0.950 . S
C1908 C1907 1.349 . S
C1908 C1920 1.349 . S
C1909 C1907 1.327 . S
C1909 C1925 1.429 . S
C1909 H1931 0.950 . S
C1910 H1906 0.949 . S
C1910 C1918 1.574 . S
C1910 C1926 1.368 . S
H1911 C1919 0.950 . S
H1912 C1917 0.950 . S
H1913 C1918 0.949 . S
H1914 C1920 0.950 . S
H1915 C1921 0.950 . S
H1916 C1922 0.949 . S
C1917 H1912 0.950 . S
C1917 C1919 1.327 . S
C1917 C1923 1.429 . S
C1918 C1910 1.574 . S
C1918 H1913 0.949 . S
C1918 C1924 1.368 . S
C1919 C1903 1.349 . S
C1919 H1911 0.950 . S
C1919 C1917 1.327 . S
C1920 C1908 1.349 . S
C1920 H1914 0.950 . S
C1920 C1921 1.327 . S
C1921 H1915 0.950 . S
C1921 C1920 1.327 . S
C1921 C1925 1.429 . S
C1922 C1905 1.574 . S
C1922 H1916 0.949 . S
C1922 C1926 1.368 . S
C1923 C1904 1.429 . S
C1923 C1917 1.429 . S
C1923 C1924 1.523 . S
C1924 C1905 1.368 . S
C1924 C1918 1.368 . S
C1924 C1923 1.523 . S
C1925 C1909 1.429 . S
C1925 C1921 1.429 . S
C1925 C1926 1.523 . S
C1926 C1910 1.368 . S
C1926 C1922 1.368 . S
C1926 C1925 1.523 . S
H1927 C1902 0.950 . S
H1928 C1904 0.950 . S
H1929 C1905 0.949 . S
H1930 C1907 0.950 . S
H1931 C1909 0.950 . S
C1932 C1933 1.349 . S
C1932 C1934 1.327 . S
C1932 H1957 0.950 . S
C1933 C1932 1.349 . S
C1933 C1949 1.349 . S
C1934 C1932 1.327 . S
C1934 C1953 1.429 . S
C1934 H1958 0.950 . S
C1935 C1952 1.574 . S
C1935 C1954 1.368 . S
C1935 H1959 0.949 . S
H1936 C1940 0.949 . S
C1937 C1938 1.349 . S
C1937 C1939 1.327 . S
C1937 H1960 0.950 . S
C1938 C1937 1.349 . S
C1938 C1950 1.349 . S
C1939 C1937 1.327 . S
C1939 C1955 1.429 . S
C1939 H1961 0.950 . S
C1940 H1936 0.949 . S
C1940 C1948 1.574 . S
C1940 C1956 1.368 . S
H1941 C1949 0.950 . S
H1942 C1947 0.950 . S
H1943 C1948 0.949 . S
H1944 C1950 0.950 . S
H1945 C1951 0.950 . S
H1946 C1952 0.949 . S
C1947 H1942 0.950 . S
C1947 C1949 1.327 . S
C1947 C1953 1.429 . S
C1948 C1940 1.574 . S
C1948 H1943 0.949 . S
C1948 C1954 1.368 . S
C1949 C1933 1.349 . S
C1949 H1941 0.950 . S
C1949 C1947 1.327 . S
C1950 C1938 1.349 . S
C1950 H1944 0.950 . S
C1950 C1951 1.327 . S
C1951 H1945 0.950 . S
C1951 C1950 1.327 . S
C1951 C1955 1.429 . S
C1952 C1935 1.574 . S
C1952 H1946 0.949 . S
C1952 C1956 1.368 . S
C1953 C1934 1.429 . S
C1953 C1947 1.429 . S
C1953 C1954 1.523 . S
C1954 C1935 1.368 . S
C1954 C1948 1.368 . S
C1954 C1953 1.523 . S
C1955 C1939 1.429 . S
C1955 C1951 1.429 . S
C1955 C1956 1.523 . S
C1956 C1940 1.368 . S
C1956 C1952 1.368 . S
C1956 C1955 1.523 . S
H1957 C1932 0.950 . S
H1958 C1934 0.950 . S
H1959 C1935 0.949 . S
H1960 C1937 0.950 . S
H1961 C1939 0.950 . S
C1962 C1963 1.349 . S
C1962 C1964 1.327 . S
C1962 H1987 0.950 . S
C1963 C1962 1.349 . S
C1963 C1979 1.349 . S
C1964 C1962 1.327 . S
C1964 C1983 1.429 . S
C1964 H1988 0.950 . S
C1965 C1982 1.574 . S
C1965 C1984 1.368 . S
C1965 H1989 0.949 . S
H1966 C1970 0.949 . S
C1967 C1968 1.349 . S
C1967 C1969 1.327 . S
C1967 H1990 0.950 . S
C1968 C1967 1.349 . S
C1968 C1980 1.349 . S
C1969 C1967 1.327 . S
C1969 C1985 1.429 . S
C1969 H1991 0.950 . S
C1970 H1966 0.949 . S
C1970 C1978 1.574 . S
C1970 C1986 1.368 . S
H1971 C1979 0.950 . S
H1972 C1977 0.950 . S
H1973 C1978 0.949 . S
H1974 C1980 0.950 . S
H1975 C1981 0.950 . S
H1976 C1982 0.949 . S
C1977 H1972 0.950 . S
C1977 C1979 1.327 . S
C1977 C1983 1.429 . S
C1978 C1970 1.574 . S
C1978 H1973 0.949 . S
C1978 C1984 1.368 . S
C1979 C1963 1.349 . S
C1979 H1971 0.950 . S
C1979 C1977 1.327 . S
C1980 C1968 1.349 . S
C1980 H1974 0.950 . S
C1980 C1981 1.327 . S
C1981 H1975 0.950 . S
C1981 C1980 1.327 . S
C1981 C1985 1.429 . S
C1982 C1965 1.574 . S
C1982 H1976 0.949 . S
C1982 C1986 1.368 . S
C1983 C1964 1.429 . S
C1983 C1977 1.429 . S
C1983 C1984 1.523 . S
C1984 C1965 1.368 . S
C1984 C1978 1.368 . S
C1984 C1983 1.523 . S
C1985 C1969 1.429 . S
C1985 C1981 1.429 . S
C1985 C1986 1.523 . S
C1986 C1970 1.368 . S
C1986 C1982 1.368 . S
C1986 C1985 1.523 . S
H1987 C1962 0.950 . S
H1988 C1964 0.950 . S
H1989 C1965 0.949 . S
H1990 C1967 0.950 . S
H1991 C1969 0.950 . S
C1992 C1993 1.349 . S
C1992 C1994 1.327 . S
C1992 H2017 0.950 . S
C1993 C1992 1.349 . S
C1993 C2009 1.349 . S
C1994 C1992 1.327 . S
C1994 C2013 1.429 . S
C1994 H2018 0.950 . S
C1995 C2012 1.574 . S
C1995 C2014 1.368 . S
C1995 H2019 0.949 . S
H1996 C2000 0.949 . S
C1997 C1998 1.349 . S
C1997 C1999 1.327 . S
C1997 H2020 0.950 . S
C1998 C1997 1.349 . S
C1998 C2010 1.349 . S
C1999 C1997 1.327 . S
C1999 C2015 1.429 . S
C1999 H2021 0.950 . S
C2000 H1996 0.949 . S
C2000 C2008 1.574 . S
C2000 C2016 1.368 . S
H2001 C2009 0.950 . S
H2002 C2007 0.950 . S
H2003 C2008 0.949 . S
H2004 C2010 0.950 . S
H2005 C2011 0.950 . S
H2006 C2012 0.949 . S
C2007 H2002 0.950 . S
C2007 C2009 1.327 . S
C2007 C2013 1.429 . S
C2008 C2000 1.574 . S
C2008 H2003 0.949 . S
C2008 C2014 1.368 . S
C2009 C1993 1.349 . S
C2009 H2001 0.950 . S
C2009 C2007 1.327 . S
C2010 C1998 1.349 . S
C2010 H2004 0.950 . S
C2010 C2011 1.327 . S
C2011 H2005 0.950 . S
C2011 C2010 1.327 . S
C2011 C2015 1.429 . S
C2012 C1995 1.574 . S
C2012 H2006 0.949 . S
C2012 C2016 1.368 . S
C2013 C1994 1.429 . S
C2013 C2007 1.429 . S
C2013 C2014 1.523 . S
C2014 C1995 1.368 . S
C2014 C2008 1.368 . S
C2014 C2013 1.523 . S
C2015 C1999 1.429 . S
C2015 C2011 1.429 . S
C2015 C2016 1.523 . S
C2016 C2000 1.368 . S
C2016 C2012 1.368 . S
C2016 C2015 1.523 . S
H2017 C1992 0.950 . S
H2018 C1994 0.950 . S
H2019 C1995 0.949 . S
H2020 C1997 0.950 . S
H2021 C1999 0.950 . S
C2022 C2023 1.349 . S
C2022 C2024 1.327 . S
C2022 H2047 0.950 . S
C2023 C2022 1.349 . S
C2023 C2039 1.349 . S
C2024 C2022 1.327 . S
C2024 C2043 1.429 . S
C2024 H2048 0.950 . S
C2025 C2042 1.574 . S
C2025 C2044 1.368 . S
C2025 H2049 0.949 . S
H2026 C2030 0.949 . S
C2027 C2028 1.349 . S
C2027 C2029 1.327 . S
C2027 H2050 0.950 . S
C2028 C2027 1.349 . S
C2028 C2040 1.349 . S
C2029 C2027 1.327 . S
C2029 C2045 1.429 . S
C2029 H2051 0.950 . S
C2030 H2026 0.949 . S
C2030 C2038 1.574 . S
C2030 C2046 1.368 . S
H2031 C2039 0.950 . S
H2032 C2037 0.950 . S
H2033 C2038 0.949 . S
H2034 C2040 0.950 . S
H2035 C2041 0.950 . S
H2036 C2042 0.949 . S
C2037 H2032 0.950 . S
C2037 C2039 1.327 . S
C2037 C2043 1.429 . S
C2038 C2030 1.574 . S
C2038 H2033 0.949 . S
C2038 C2044 1.368 . S
C2039 C2023 1.349 . S
C2039 H2031 0.950 . S
C2039 C2037 1.327 . S
C2040 C2028 1.349 . S
C2040 H2034 0.950 . S
C2040 C2041 1.327 . S
C2041 H2035 0.950 . S
C2041 C2040 1.327 . S
C2041 C2045 1.429 . S
C2042 C2025 1.574 . S
C2042 H2036 0.949 . S
C2042 C2046 1.368 . S
C2043 C2024 1.429 . S
C2043 C2037 1.429 . S
C2043 C2044 1.523 . S
C2044 C2025 1.368 . S
C2044 C2038 1.368 . S
C2044 C2043 1.523 . S
C2045 C2029 1.429 . S
C2045 C2041 1.429 . S
C2045 C2046 1.523 . S
C2046 C2030 1.368 . S
C2046 C2042 1.368 . S
C2046 C2045 1.523 . S
H2047 C2022 0.950 . S
H2048 C2024 0.950 . S
H2049 C2025 0.949 . S
H2050 C2027 0.950 . S
H2051 C2029 0.950 . S
C2052 C2053 1.349 . S
C2052 C2054 1.327 . S
C2052 H2077 0.950 . S
C2053 C2052 1.349 . S
C2053 C2069 1.349 . S
C2054 C2052 1.327 . S
C2054 C2073 1.429 . S
C2054 H2078 0.950 . S
C2055 C2072 1.574 . S
C2055 C2074 1.368 . S
C2055 H2079 0.949 . S
H2056 C2060 0.949 . S
C2057 C2058 1.349 . S
C2057 C2059 1.327 . S
C2057 H2080 0.950 . S
C2058 C2057 1.349 . S
C2058 C2070 1.349 . S
C2059 C2057 1.327 . S
C2059 C2075 1.429 . S
C2059 H2081 0.950 . S
C2060 H2056 0.949 . S
C2060 C2068 1.574 . S
C2060 C2076 1.368 . S
H2061 C2069 0.950 . S
H2062 C2067 0.950 . S
H2063 C2068 0.949 . S
H2064 C2070 0.950 . S
H2065 C2071 0.950 . S
H2066 C2072 0.949 . S
C2067 H2062 0.950 . S
C2067 C2069 1.327 . S
C2067 C2073 1.429 . S
C2068 C2060 1.574 . S
C2068 H2063 0.949 . S
C2068 C2074 1.368 . S
C2069 C2053 1.349 . S
C2069 H2061 0.950 . S
C2069 C2067 1.327 . S
C2070 C2058 1.349 . S
C2070 H2064 0.950 . S
C2070 C2071 1.327 . S
C2071 H2065 0.950 . S
C2071 C2070 1.327 . S
C2071 C2075 1.429 . S
C2072 C2055 1.574 . S
C2072 H2066 0.949 . S
C2072 C2076 1.368 . S
C2073 C2054 1.429 . S
C2073 C2067 1.429 . S
C2073 C2074 1.523 . S
C2074 C2055 1.368 . S
C2074 C2068 1.368 . S
C2074 C2073 1.523 . S
C2075 C2059 1.429 . S
C2075 C2071 1.429 . S
C2075 C2076 1.523 . S
C2076 C2060 1.368 . S
C2076 C2072 1.368 . S
C2076 C2075 1.523 . S
H2077 C2052 0.950 . S
H2078 C2054 0.950 . S
H2079 C2055 0.949 . S
H2080 C2057 0.950 . S
H2081 C2059 0.950 . S
C2082 C2083 1.349 . S
C2082 C2084 1.327 . S
C2082 H2107 0.950 . S
C2083 C2082 1.349 . S
C2083 C2099 1.349 . S
C2084 C2082 1.327 . S
C2084 C2103 1.429 . S
C2084 H2108 0.950 . S
C2085 C2102 1.574 . S
C2085 C2104 1.368 . S
C2085 H2109 0.949 . S
H2086 C2090 0.949 . S
C2087 C2088 1.349 . S
C2087 C2089 1.327 . S
C2087 H2110 0.950 . S
C2088 C2087 1.349 . S
C2088 C2100 1.349 . S
C2089 C2087 1.327 . S
C2089 C2105 1.429 . S
C2089 H2111 0.950 . S
C2090 H2086 0.949 . S
C2090 C2098 1.574 . S
C2090 C2106 1.368 . S
H2091 C2099 0.950 . S
H2092 C2097 0.950 . S
H2093 C2098 0.949 . S
H2094 C2100 0.950 . S
H2095 C2101 0.950 . S
H2096 C2102 0.949 . S
C2097 H2092 0.950 . S
C2097 C2099 1.327 . S
C2097 C2103 1.429 . S
C2098 C2090 1.574 . S
C2098 H2093 0.949 . S
C2098 C2104 1.368 . S
C2099 C2083 1.349 . S
C2099 H2091 0.950 . S
C2099 C2097 1.327 . S
C2100 C2088 1.349 . S
C2100 H2094 0.950 . S
C2100 C2101 1.327 . S
C2101 H2095 0.950 . S
C2101 C2100 1.327 . S
C2101 C2105 1.429 . S
C2102 C2085 1.574 . S
C2102 H2096 0.949 . S
C2102 C2106 1.368 . S
C2103 C2084 1.429 . S
C2103 C2097 1.429 . S
C2103 C2104 1.523 . S
C2104 C2085 1.368 . S
C2104 C2098 1.368 . S
C2104 C2103 1.523 . S
C2105 C2089 1.429 . S
C2105 C2101 1.429 . S
C2105 C2106 1.523 . S
C2106 C2090 1.368 . S
C2106 C2102 1.368 . S
C2106 C2105 1.523 . S
H2107 C2082 0.950 . S
H2108 C2084 0.950 . S
H2109 C2085 0.949 . S
H2110 C2087 0.950 . S
H2111 C2089 0.950 . S
C2112 C2113 1.349 . S
C2112 C2114 1.327 . S
C2112 H2137 0.950 . S
C2113 C2112 1.349 . S
C2113 C2129 1.349 . S
C2114 C2112 1.327 . S
C2114 C2133 1.429 . S
C2114 H2138 0.950 . S
C2115 C2132 1.574 . S
C2115 C2134 1.368 . S
C2115 H2139 0.949 . S
H2116 C2120 0.949 . S
C2117 C2118 1.349 . S
C2117 C2119 1.327 . S
C2117 H2140 0.950 . S
C2118 C2117 1.349 . S
C2118 C2130 1.349 . S
C2119 C2117 1.327 . S
C2119 C2135 1.429 . S
C2119 H2141 0.950 . S
C2120 H2116 0.949 . S
C2120 C2128 1.574 . S
C2120 C2136 1.368 . S
H2121 C2129 0.950 . S
H2122 C2127 0.950 . S
H2123 C2128 0.949 . S
H2124 C2130 0.950 . S
H2125 C2131 0.950 . S
H2126 C2132 0.949 . S
C2127 H2122 0.950 . S
C2127 C2129 1.327 . S
C2127 C2133 1.429 . S
C2128 C2120 1.574 . S
C2128 H2123 0.949 . S
C2128 C2134 1.368 . S
C2129 C2113 1.349 . S
C2129 H2121 0.950 . S
C2129 C2127 1.327 . S
C2130 C2118 1.349 . S
C2130 H2124 0.950 . S
C2130 C2131 1.327 . S
C2131 H2125 0.950 . S
C2131 C2130 1.327 . S
C2131 C2135 1.429 . S
C2132 C2115 1.574 . S
C2132 H2126 0.949 . S
C2132 C2136 1.368 . S
C2133 C2114 1.429 . S
C2133 C2127 1.429 . S
C2133 C2134 1.523 . S
C2134 C2115 1.368 . S
C2134 C2128 1.368 . S
C2134 C2133 1.523 . S
C2135 C2119 1.429 . S
C2135 C2131 1.429 . S
C2135 C2136 1.523 . S
C2136 C2120 1.368 . S
C2136 C2132 1.368 . S
C2136 C2135 1.523 . S
H2137 C2112 0.950 . S
H2138 C2114 0.950 . S
H2139 C2115 0.949 . S
H2140 C2117 0.950 . S
H2141 C2119 0.950 . S
C2142 C2143 1.349 . S
C2142 C2144 1.327 . S
C2142 H2167 0.950 . S
C2143 C2142 1.349 . S
C2143 C2159 1.349 . S
C2144 C2142 1.327 . S
C2144 C2163 1.429 . S
C2144 H2168 0.950 . S
C2145 C2162 1.574 . S
C2145 C2164 1.368 . S
C2145 H2169 0.949 . S
H2146 C2150 0.949 . S
C2147 C2148 1.349 . S
C2147 C2149 1.327 . S
C2147 H2170 0.950 . S
C2148 C2147 1.349 . S
C2148 C2160 1.349 . S
C2149 C2147 1.327 . S
C2149 C2165 1.429 . S
C2149 H2171 0.950 . S
C2150 H2146 0.949 . S
C2150 C2158 1.574 . S
C2150 C2166 1.368 . S
H2151 C2159 0.950 . S
H2152 C2157 0.950 . S
H2153 C2158 0.949 . S
H2154 C2160 0.950 . S
H2155 C2161 0.950 . S
H2156 C2162 0.949 . S
C2157 H2152 0.950 . S
C2157 C2159 1.327 . S
C2157 C2163 1.429 . S
C2158 C2150 1.574 . S
C2158 H2153 0.949 . S
C2158 C2164 1.368 . S
C2159 C2143 1.349 . S
C2159 H2151 0.950 . S
C2159 C2157 1.327 . S
C2160 C2148 1.349 . S
C2160 H2154 0.950 . S
C2160 C2161 1.327 . S
C2161 H2155 0.950 . S
C2161 C2160 1.327 . S
C2161 C2165 1.429 . S
C2162 C2145 1.574 . S
C2162 H2156 0.949 . S
C2162 C2166 1.368 . S
C2163 C2144 1.429 . S
C2163 C2157 1.429 . S
C2163 C2164 1.523 . S
C2164 C2145 1.368 . S
C2164 C2158 1.368 . S
C2164 C2163 1.523 . S
C2165 C2149 1.429 . S
C2165 C2161 1.429 . S
C2165 C2166 1.523 . S
C2166 C2150 1.368 . S
C2166 C2162 1.368 . S
C2166 C2165 1.523 . S
H2167 C2142 0.950 . S
H2168 C2144 0.950 . S
H2169 C2145 0.949 . S
H2170 C2147 0.950 . S
H2171 C2149 0.950 . S
C2172 C2173 1.349 . S
C2172 C2174 1.327 . S
C2172 H2197 0.950 . S
C2173 C2172 1.349 . S
C2173 C2189 1.349 . S
C2174 C2172 1.327 . S
C2174 C2193 1.429 . S
C2174 H2198 0.950 . S
C2175 C2192 1.574 . S
C2175 C2194 1.368 . S
C2175 H2199 0.949 . S
H2176 C2180 0.949 . S
C2177 C2178 1.349 . S
C2177 C2179 1.327 . S
C2177 H2200 0.950 . S
C2178 C2177 1.349 . S
C2178 C2190 1.349 . S
C2179 C2177 1.327 . S
C2179 C2195 1.429 . S
C2179 H2201 0.950 . S
C2180 H2176 0.949 . S
C2180 C2188 1.574 . S
C2180 C2196 1.368 . S
H2181 C2189 0.950 . S
H2182 C2187 0.950 . S
H2183 C2188 0.949 . S
H2184 C2190 0.950 . S
H2185 C2191 0.950 . S
H2186 C2192 0.949 . S
C2187 H2182 0.950 . S
C2187 C2189 1.327 . S
C2187 C2193 1.429 . S
C2188 C2180 1.574 . S
C2188 H2183 0.949 . S
C2188 C2194 1.368 . S
C2189 C2173 1.349 . S
C2189 H2181 0.950 . S
C2189 C2187 1.327 . S
C2190 C2178 1.349 . S
C2190 H2184 0.950 . S
C2190 C2191 1.327 . S
C2191 H2185 0.950 . S
C2191 C2190 1.327 . S
C2191 C2195 1.429 . S
C2192 C2175 1.574 . S
C2192 H2186 0.949 . S
C2192 C2196 1.368 . S
C2193 C2174 1.429 . S
C2193 C2187 1.429 . S
C2193 C2194 1.523 . S
C2194 C2175 1.368 . S
C2194 C2188 1.368 . S
C2194 C2193 1.523 . S
C2195 C2179 1.429 . S
C2195 C2191 1.429 . S
C2195 C2196 1.523 . S
C2196 C2180 1.368 . S
C2196 C2192 1.368 . S
C2196 C2195 1.523 . S
H2197 C2172 0.950 . S
H2198 C2174 0.950 . S
H2199 C2175 0.949 . S
H2200 C2177 0.950 . S
H2201 C2179 0.950 . S
C2202 C2203 1.349 . S
C2202 C2204 1.327 . S
C2202 H2227 0.950 . S
C2203 C2202 1.349 . S
C2203 C2219 1.349 . S
C2204 C2202 1.327 . S
C2204 C2223 1.429 . S
C2204 H2228 0.950 . S
C2205 C2222 1.574 . S
C2205 C2224 1.368 . S
C2205 H2229 0.949 . S
H2206 C2210 0.949 . S
C2207 C2208 1.349 . S
C2207 C2209 1.327 . S
C2207 H2230 0.950 . S
C2208 C2207 1.349 . S
C2208 C2220 1.349 . S
C2209 C2207 1.327 . S
C2209 C2225 1.429 . S
C2209 H2231 0.950 . S
C2210 H2206 0.949 . S
C2210 C2218 1.574 . S
C2210 C2226 1.368 . S
H2211 C2219 0.950 . S
H2212 C2217 0.950 . S
H2213 C2218 0.949 . S
H2214 C2220 0.950 . S
H2215 C2221 0.950 . S
H2216 C2222 0.949 . S
C2217 H2212 0.950 . S
C2217 C2219 1.327 . S
C2217 C2223 1.429 . S
C2218 C2210 1.574 . S
C2218 H2213 0.949 . S
C2218 C2224 1.368 . S
C2219 C2203 1.349 . S
C2219 H2211 0.950 . S
C2219 C2217 1.327 . S
C2220 C2208 1.349 . S
C2220 H2214 0.950 . S
C2220 C2221 1.327 . S
C2221 H2215 0.950 . S
C2221 C2220 1.327 . S
C2221 C2225 1.429 . S
C2222 C2205 1.574 . S
C2222 H2216 0.949 . S
C2222 C2226 1.368 . S
C2223 C2204 1.429 . S
C2223 C2217 1.429 . S
C2223 C2224 1.523 . S
C2224 C2205 1.368 . S
C2224 C2218 1.368 . S
C2224 C2223 1.523 . S
C2225 C2209 1.429 . S
C2225 C2221 1.429 . S
C2225 C2226 1.523 . S
C2226 C2210 1.368 . S
C2226 C2222 1.368 . S
C2226 C2225 1.523 . S
H2227 C2202 0.950 . S
H2228 C2204 0.950 . S
H2229 C2205 0.949 . S
H2230 C2207 0.950 . S
H2231 C2209 0.950 . S
C2232 C2233 1.349 . S
C2232 C2234 1.327 . S
C2232 H2257 0.950 . S
C2233 C2232 1.349 . S
C2233 C2249 1.349 . S
C2234 C2232 1.327 . S
C2234 C2253 1.429 . S
C2234 H2258 0.950 . S
C2235 C2252 1.574 . S
C2235 C2254 1.368 . S
C2235 H2259 0.949 . S
H2236 C2240 0.949 . S
C2237 C2238 1.349 . S
C2237 C2239 1.327 . S
C2237 H2260 0.950 . S
C2238 C2237 1.349 . S
C2238 C2250 1.349 . S
C2239 C2237 1.327 . S
C2239 C2255 1.429 . S
C2239 H2261 0.950 . S
C2240 H2236 0.949 . S
C2240 C2248 1.574 . S
C2240 C2256 1.368 . S
H2241 C2249 0.950 . S
H2242 C2247 0.950 . S
H2243 C2248 0.949 . S
H2244 C2250 0.950 . S
H2245 C2251 0.950 . S
H2246 C2252 0.949 . S
C2247 H2242 0.950 . S
C2247 C2249 1.327 . S
C2247 C2253 1.429 . S
C2248 C2240 1.574 . S
C2248 H2243 0.949 . S
C2248 C2254 1.368 . S
C2249 C2233 1.349 . S
C2249 H2241 0.950 . S
C2249 C2247 1.327 . S
C2250 C2238 1.349 . S
C2250 H2244 0.950 . S
C2250 C2251 1.327 . S
C2251 H2245 0.950 . S
C2251 C2250 1.327 . S
C2251 C2255 1.429 . S
C2252 C2235 1.574 . S
C2252 H2246 0.949 . S
C2252 C2256 1.368 . S
C2253 C2234 1.429 . S
C2253 C2247 1.429 . S
C2253 C2254 1.523 . S
C2254 C2235 1.368 . S
C2254 C2248 1.368 . S
C2254 C2253 1.523 . S
C2255 C2239 1.429 . S
C2255 C2251 1.429 . S
C2255 C2256 1.523 . S
C2256 C2240 1.368 . S
C2256 C2252 1.368 . S
C2256 C2255 1.523 . S
H2257 C2232 0.950 . S
H2258 C2234 0.950 . S
H2259 C2235 0.949 . S
H2260 C2237 0.950 . S
H2261 C2239 0.950 . S
C2262 C2263 1.349 . S
C2262 C2264 1.327 . S
C2262 H2287 0.950 . S
C2263 C2262 1.349 . S
C2263 C2279 1.349 . S
C2264 C2262 1.327 . S
C2264 C2283 1.429 . S
C2264 H2288 0.950 . S
C2265 C2282 1.574 . S
C2265 C2284 1.368 . S
C2265 H2289 0.949 . S
H2266 C2270 0.949 . S
C2267 C2268 1.349 . S
C2267 C2269 1.327 . S
C2267 H2290 0.950 . S
C2268 C2267 1.349 . S
C2268 C2280 1.349 . S
C2269 C2267 1.327 . S
C2269 C2285 1.429 . S
C2269 H2291 0.950 . S
C2270 H2266 0.949 . S
C2270 C2278 1.574 . S
C2270 C2286 1.368 . S
H2271 C2279 0.950 . S
H2272 C2277 0.950 . S
H2273 C2278 0.949 . S
H2274 C2280 0.950 . S
H2275 C2281 0.950 . S
H2276 C2282 0.949 . S
C2277 H2272 0.950 . S
C2277 C2279 1.327 . S
C2277 C2283 1.429 . S
C2278 C2270 1.574 . S
C2278 H2273 0.949 . S
C2278 C2284 1.368 . S
C2279 C2263 1.349 . S
C2279 H2271 0.950 . S
C2279 C2277 1.327 . S
C2280 C2268 1.349 . S
C2280 H2274 0.950 . S
C2280 C2281 1.327 . S
C2281 H2275 0.950 . S
C2281 C2280 1.327 . S
C2281 C2285 1.429 . S
C2282 C2265 1.574 . S
C2282 H2276 0.949 . S
C2282 C2286 1.368 . S
C2283 C2264 1.429 . S
C2283 C2277 1.429 . S
C2283 C2284 1.523 . S
C2284 C2265 1.368 . S
C2284 C2278 1.368 . S
C2284 C2283 1.523 . S
C2285 C2269 1.429 . S
C2285 C2281 1.429 . S
C2285 C2286 1.523 . S
C2286 C2270 1.368 . S
C2286 C2282 1.368 . S
C2286 C2285 1.523 . S
H2287 C2262 0.950 . S
H2288 C2264 0.950 . S
H2289 C2265 0.949 . S
H2290 C2267 0.950 . S
H2291 C2269 0.950 . S
C2292 C2293 1.349 . S
C2292 C2294 1.327 . S
C2292 H2317 0.950 . S
C2293 C2292 1.349 . S
C2293 C2309 1.349 . S
C2294 C2292 1.327 . S
C2294 C2313 1.429 . S
C2294 H2318 0.950 . S
C2295 C2312 1.574 . S
C2295 C2314 1.368 . S
C2295 H2319 0.949 . S
H2296 C2300 0.949 . S
C2297 C2298 1.349 . S
C2297 C2299 1.327 . S
C2297 H2320 0.950 . S
C2298 C2297 1.349 . S
C2298 C2310 1.349 . S
C2299 C2297 1.327 . S
C2299 C2315 1.429 . S
C2299 H2321 0.950 . S
C2300 H2296 0.949 . S
C2300 C2308 1.574 . S
C2300 C2316 1.368 . S
H2301 C2309 0.950 . S
H2302 C2307 0.950 . S
H2303 C2308 0.949 . S
H2304 C2310 0.950 . S
H2305 C2311 0.950 . S
H2306 C2312 0.949 . S
C2307 H2302 0.950 . S
C2307 C2309 1.327 . S
C2307 C2313 1.429 . S
C2308 C2300 1.574 . S
C2308 H2303 0.949 . S
C2308 C2314 1.368 . S
C2309 C2293 1.349 . S
C2309 H2301 0.950 . S
C2309 C2307 1.327 . S
C2310 C2298 1.349 . S
C2310 H2304 0.950 . S
C2310 C2311 1.327 . S
C2311 H2305 0.950 . S
C2311 C2310 1.327 . S
C2311 C2315 1.429 . S
C2312 C2295 1.574 . S
C2312 H2306 0.949 . S
C2312 C2316 1.368 . S
C2313 C2294 1.429 . S
C2313 C2307 1.429 . S
C2313 C2314 1.523 . S
C2314 C2295 1.368 . S
C2314 C2308 1.368 . S
C2314 C2313 1.523 . S
C2315 C2299 1.429 . S
C2315 C2311 1.429 . S
C2315 C2316 1.523 . S
C2316 C2300 1.368 . S
C2316 C2312 1.368 . S
C2316 C2315 1.523 . S
H2317 C2292 0.950 . S
H2318 C2294 0.950 . S
H2319 C2295 0.949 . S
H2320 C2297 0.950 . S
H2321 C2299 0.950 . S
C2322 C2323 1.349 . S
C2322 C2324 1.327 . S
C2322 H2347 0.950 . S
C2323 C2322 1.349 . S
C2323 C2339 1.349 . S
C2324 C2322 1.327 . S
C2324 C2343 1.429 . S
C2324 H2348 0.950 . S
C2325 C2342 1.574 . S
C2325 C2344 1.368 . S
C2325 H2349 0.949 . S
H2326 C2330 0.949 . S
C2327 C2328 1.349 . S
C2327 C2329 1.327 . S
C2327 H2350 0.950 . S
C2328 C2327 1.349 . S
C2328 C2340 1.349 . S
C2329 C2327 1.327 . S
C2329 C2345 1.429 . S
C2329 H2351 0.950 . S
C2330 H2326 0.949 . S
C2330 C2338 1.574 . S
C2330 C2346 1.368 . S
H2331 C2339 0.950 . S
H2332 C2337 0.950 . S
H2333 C2338 0.949 . S
H2334 C2340 0.950 . S
H2335 C2341 0.950 . S
H2336 C2342 0.949 . S
C2337 H2332 0.950 . S
C2337 C2339 1.327 . S
C2337 C2343 1.429 . S
C2338 C2330 1.574 . S
C2338 H2333 0.949 . S
C2338 C2344 1.368 . S
C2339 C2323 1.349 . S
C2339 H2331 0.950 . S
C2339 C2337 1.327 . S
C2340 C2328 1.349 . S
C2340 H2334 0.950 . S
C2340 C2341 1.327 . S
C2341 H2335 0.950 . S
C2341 C2340 1.327 . S
C2341 C2345 1.429 . S
C2342 C2325 1.574 . S
C2342 H2336 0.949 . S
C2342 C2346 1.368 . S
C2343 C2324 1.429 . S
C2343 C2337 1.429 . S
C2343 C2344 1.523 . S
C2344 C2325 1.368 . S
C2344 C2338 1.368 . S
C2344 C2343 1.523 . S
C2345 C2329 1.429 . S
C2345 C2341 1.429 . S
C2345 C2346 1.523 . S
C2346 C2330 1.368 . S
C2346 C2342 1.368 . S
C2346 C2345 1.523 . S
H2347 C2322 0.950 . S
H2348 C2324 0.950 . S
H2349 C2325 0.949 . S
H2350 C2327 0.950 . S
H2351 C2329 0.950 . S
C2352 C2353 1.349 . S
C2352 C2354 1.327 . S
C2352 H2377 0.950 . S
C2353 C2352 1.349 . S
C2353 C2369 1.349 . S
C2354 C2352 1.327 . S
C2354 C2373 1.429 . S
C2354 H2378 0.950 . S
C2355 C2372 1.574 . S
C2355 C2374 1.368 . S
C2355 H2379 0.949 . S
H2356 C2360 0.949 . S
C2357 C2358 1.349 . S
C2357 C2359 1.327 . S
C2357 H2380 0.950 . S
C2358 C2357 1.349 . S
C2358 C2370 1.349 . S
C2359 C2357 1.327 . S
C2359 C2375 1.429 . S
C2359 H2381 0.950 . S
C2360 H2356 0.949 . S
C2360 C2368 1.574 . S
C2360 C2376 1.368 . S
H2361 C2369 0.950 . S
H2362 C2367 0.950 . S
H2363 C2368 0.949 . S
H2364 C2370 0.950 . S
H2365 C2371 0.950 . S
H2366 C2372 0.949 . S
C2367 H2362 0.950 . S
C2367 C2369 1.327 . S
C2367 C2373 1.429 . S
C2368 C2360 1.574 . S
C2368 H2363 0.949 . S
C2368 C2374 1.368 . S
C2369 C2353 1.349 . S
C2369 H2361 0.950 . S
C2369 C2367 1.327 . S
C2370 C2358 1.349 . S
C2370 H2364 0.950 . S
C2370 C2371 1.327 . S
C2371 H2365 0.950 . S
C2371 C2370 1.327 . S
C2371 C2375 1.429 . S
C2372 C2355 1.574 . S
C2372 H2366 0.949 . S
C2372 C2376 1.368 . S
C2373 C2354 1.429 . S
C2373 C2367 1.429 . S
C2373 C2374 1.523 . S
C2374 C2355 1.368 . S
C2374 C2368 1.368 . S
C2374 C2373 1.523 . S
C2375 C2359 1.429 . S
C2375 C2371 1.429 . S
C2375 C2376 1.523 . S
C2376 C2360 1.368 . S
C2376 C2372 1.368 . S
C2376 C2375 1.523 . S
H2377 C2352 0.950 . S
H2378 C2354 0.950 . S
H2379 C2355 0.949 . S
H2380 C2357 0.950 . S
H2381 C2359 0.950 . S
C2382 C2383 1.349 . S
C2382 C2384 1.327 . S
C2382 H2407 0.950 . S
C2383 C2382 1.349 . S
C2383 C2399 1.349 . S
C2384 C2382 1.327 . S
C2384 C2403 1.429 . S
C2384 H2408 0.950 . S
C2385 C2402 1.574 . S
C2385 C2404 1.368 . S
C2385 H2409 0.949 . S
H2386 C2390 0.949 . S
C2387 C2388 1.349 . S
C2387 C2389 1.327 . S
C2387 H2410 0.950 . S
C2388 C2387 1.349 . S
C2388 C2400 1.349 . S
C2389 C2387 1.327 . S
C2389 C2405 1.429 . S
C2389 H2411 0.950 . S
C2390 H2386 0.949 . S
C2390 C2398 1.574 . S
C2390 C2406 1.368 . S
H2391 C2399 0.950 . S
H2392 C2397 0.950 . S
H2393 C2398 0.949 . S
H2394 C2400 0.950 . S
H2395 C2401 0.950 . S
H2396 C2402 0.949 . S
C2397 H2392 0.950 . S
C2397 C2399 1.327 . S
C2397 C2403 1.429 . S
C2398 C2390 1.574 . S
C2398 H2393 0.949 . S
C2398 C2404 1.368 . S
C2399 C2383 1.349 . S
C2399 H2391 0.950 . S
C2399 C2397 1.327 . S
C2400 C2388 1.349 . S
C2400 H2394 0.950 . S
C2400 C2401 1.327 . S
C2401 H2395 0.950 . S
C2401 C2400 1.327 . S
C2401 C2405 1.429 . S
C2402 C2385 1.574 . S
C2402 H2396 0.949 . S
C2402 C2406 1.368 . S
C2403 C2384 1.429 . S
C2403 C2397 1.429 . S
C2403 C2404 1.523 . S
C2404 C2385 1.368 . S
C2404 C2398 1.368 . S
C2404 C2403 1.523 . S
C2405 C2389 1.429 . S
C2405 C2401 1.429 . S
C2405 C2406 1.523 . S
C2406 C2390 1.368 . S
C2406 C2402 1.368 . S
C2406 C2405 1.523 . S
H2407 C2382 0.950 . S
H2408 C2384 0.950 . S
H2409 C2385 0.949 . S
H2410 C2387 0.950 . S
H2411 C2389 0.950 . S
C2412 C2413 1.349 . S
C2412 C2414 1.327 . S
C2412 H2437 0.950 . S
C2413 C2412 1.349 . S
C2413 C2429 1.349 . S
C2414 C2412 1.327 . S
C2414 C2433 1.429 . S
C2414 H2438 0.950 . S
C2415 C2432 1.574 . S
C2415 C2434 1.368 . S
C2415 H2439 0.949 . S
H2416 C2420 0.949 . S
C2417 C2418 1.349 . S
C2417 C2419 1.327 . S
C2417 H2440 0.950 . S
C2418 C2417 1.349 . S
C2418 C2430 1.349 . S
C2419 C2417 1.327 . S
C2419 C2435 1.429 . S
C2419 H2441 0.950 . S
C2420 H2416 0.949 . S
C2420 C2428 1.574 . S
C2420 C2436 1.368 . S
H2421 C2429 0.950 . S
H2422 C2427 0.950 . S
H2423 C2428 0.949 . S
H2424 C2430 0.950 . S
H2425 C2431 0.950 . S
H2426 C2432 0.949 . S
C2427 H2422 0.950 . S
C2427 C2429 1.327 . S
C2427 C2433 1.429 . S
C2428 C2420 1.574 . S
C2428 H2423 0.949 . S
C2428 C2434 1.368 . S
C2429 C2413 1.349 . S
C2429 H2421 0.950 . S
C2429 C2427 1.327 . S
C2430 C2418 1.349 . S
C2430 H2424 0.950 . S
C2430 C2431 1.327 . S
C2431 H2425 0.950 . S
C2431 C2430 1.327 . S
C2431 C2435 1.429 . S
C2432 C2415 1.574 . S
C2432 H2426 0.949 . S
C2432 C2436 1.368 . S
C2433 C2414 1.429 . S
C2433 C2427 1.429 . S
C2433 C2434 1.523 . S
C2434 C2415 1.368 . S
C2434 C2428 1.368 . S
C2434 C2433 1.523 . S
C2435 C2419 1.429 . S
C2435 C2431 1.429 . S
C2435 C2436 1.523 . S
C2436 C2420 1.368 . S
C2436 C2432 1.368 . S
C2436 C2435 1.523 . S
H2437 C2412 0.950 . S
H2438 C2414 0.950 . S
H2439 C2415 0.949 . S
H2440 C2417 0.950 . S
H2441 C2419 0.950 . S
C2442 C2443 1.349 . S
C2442 C2444 1.327 . S
C2442 H2467 0.950 . S
C2443 C2442 1.349 . S
C2443 C2459 1.349 . S
C2444 C2442 1.327 . S
C2444 C2463 1.429 . S
C2444 H2468 0.950 . S
C2445 C2462 1.574 . S
C2445 C2464 1.368 . S
C2445 H2469 0.949 . S
H2446 C2450 0.949 . S
C2447 C2448 1.349 . S
C2447 C2449 1.327 . S
C2447 H2470 0.950 . S
C2448 C2447 1.349 . S
C2448 C2460 1.349 . S
C2449 C2447 1.327 . S
C2449 C2465 1.429 . S
C2449 H2471 0.950 . S
C2450 H2446 0.949 . S
C2450 C2458 1.574 . S
C2450 C2466 1.368 . S
H2451 C2459 0.950 . S
H2452 C2457 0.950 . S
H2453 C2458 0.949 . S
H2454 C2460 0.950 . S
H2455 C2461 0.950 . S
H2456 C2462 0.949 . S
C2457 H2452 0.950 . S
C2457 C2459 1.327 . S
C2457 C2463 1.429 . S
C2458 C2450 1.574 . S
C2458 H2453 0.949 . S
C2458 C2464 1.368 . S
C2459 C2443 1.349 . S
C2459 H2451 0.950 . S
C2459 C2457 1.327 . S
C2460 C2448 1.349 . S
C2460 H2454 0.950 . S
C2460 C2461 1.327 . S
C2461 H2455 0.950 . S
C2461 C2460 1.327 . S
C2461 C2465 1.429 . S
C2462 C2445 1.574 . S
C2462 H2456 0.949 . S
C2462 C2466 1.368 . S
C2463 C2444 1.429 . S
C2463 C2457 1.429 . S
C2463 C2464 1.523 . S
C2464 C2445 1.368 . S
C2464 C2458 1.368 . S
C2464 C2463 1.523 . S
C2465 C2449 1.429 . S
C2465 C2461 1.429 . S
C2465 C2466 1.523 . S
C2466 C2450 1.368 . S
C2466 C2462 1.368 . S
C2466 C2465 1.523 . S
H2467 C2442 0.950 . S
H2468 C2444 0.950 . S
H2469 C2445 0.949 . S
H2470 C2447 0.950 . S
H2471 C2449 0.950 . S
C2472 C2473 1.349 . S
C2472 C2474 1.327 . S
C2472 H2497 0.950 . S
C2473 C2472 1.349 . S
C2473 C2489 1.349 . S
C2474 C2472 1.327 . S
C2474 C2493 1.429 . S
C2474 H2498 0.950 . S
C2475 C2492 1.574 . S
C2475 C2494 1.368 . S
C2475 H2499 0.949 . S
H2476 C2480 0.949 . S
C2477 C2478 1.349 . S
C2477 C2479 1.327 . S
C2477 H2500 0.950 . S
C2478 C2477 1.349 . S
C2478 C2490 1.349 . S
C2479 C2477 1.327 . S
C2479 C2495 1.429 . S
C2479 H2501 0.950 . S
C2480 H2476 0.949 . S
C2480 C2488 1.574 . S
C2480 C2496 1.368 . S
H2481 C2489 0.950 . S
H2482 C2487 0.950 . S
H2483 C2488 0.949 . S
H2484 C2490 0.950 . S
H2485 C2491 0.950 . S
H2486 C2492 0.949 . S
C2487 H2482 0.950 . S
C2487 C2489 1.327 . S
C2487 C2493 1.429 . S
C2488 C2480 1.574 . S
C2488 H2483 0.949 . S
C2488 C2494 1.368 . S
C2489 C2473 1.349 . S
C2489 H2481 0.950 . S
C2489 C2487 1.327 . S
C2490 C2478 1.349 . S
C2490 H2484 0.950 . S
C2490 C2491 1.327 . S
C2491 H2485 0.950 . S
C2491 C2490 1.327 . S
C2491 C2495 1.429 . S
C2492 C2475 1.574 . S
C2492 H2486 0.949 . S
C2492 C2496 1.368 . S
C2493 C2474 1.429 . S
C2493 C2487 1.429 . S
C2493 C2494 1.523 . S
C2494 C2475 1.368 . S
C2494 C2488 1.368 . S
C2494 C2493 1.523 . S
C2495 C2479 1.429 . S
C2495 C2491 1.429 . S
C2495 C2496 1.523 . S
C2496 C2480 1.368 . S
C2496 C2492 1.368 . S
C2496 C2495 1.523 . S
H2497 C2472 0.950 . S
H2498 C2474 0.950 . S
H2499 C2475 0.949 . S
H2500 C2477 0.950 . S
H2501 C2479 0.950 . S
C2502 C2503 1.349 . S
C2502 C2504 1.327 . S
C2502 H2527 0.950 . S
C2503 C2502 1.349 . S
C2503 C2519 1.349 . S
C2504 C2502 1.327 . S
C2504 C2523 1.429 . S
C2504 H2528 0.950 . S
C2505 C2522 1.574 . S
C2505 C2524 1.368 . S
C2505 H2529 0.949 . S
H2506 C2510 0.949 . S
C2507 C2508 1.349 . S
C2507 C2509 1.327 . S
C2507 H2530 0.950 . S
C2508 C2507 1.349 . S
C2508 C2520 1.349 . S
C2509 C2507 1.327 . S
C2509 C2525 1.429 . S
C2509 H2531 0.950 . S
C2510 H2506 0.949 . S
C2510 C2518 1.574 . S
C2510 C2526 1.368 . S
H2511 C2519 0.950 . S
H2512 C2517 0.950 . S
H2513 C2518 0.949 . S
H2514 C2520 0.950 . S
H2515 C2521 0.950 . S
H2516 C2522 0.949 . S
C2517 H2512 0.950 . S
C2517 C2519 1.327 . S
C2517 C2523 1.429 . S
C2518 C2510 1.574 . S
C2518 H2513 0.949 . S
C2518 C2524 1.368 . S
C2519 C2503 1.349 . S
C2519 H2511 0.950 . S
C2519 C2517 1.327 . S
C2520 C2508 1.349 . S
C2520 H2514 0.950 . S
C2520 C2521 1.327 . S
C2521 H2515 0.950 . S
C2521 C2520 1.327 . S
C2521 C2525 1.429 . S
C2522 C2505 1.574 . S
C2522 H2516 0.949 . S
C2522 C2526 1.368 . S
C2523 C2504 1.429 . S
C2523 C2517 1.429 . S
C2523 C2524 1.523 . S
C2524 C2505 1.368 . S
C2524 C2518 1.368 . S
C2524 C2523 1.523 . S
C2525 C2509 1.429 . S
C2525 C2521 1.429 . S
C2525 C2526 1.523 . S
C2526 C2510 1.368 . S
C2526 C2522 1.368 . S
C2526 C2525 1.523 . S
H2527 C2502 0.950 . S
H2528 C2504 0.950 . S
H2529 C2505 0.949 . S
H2530 C2507 0.950 . S
H2531 C2509 0.950 . S
C2532 C2533 1.349 . S
C2532 C2534 1.327 . S
C2532 H2557 0.950 . S
C2533 C2532 1.349 . S
C2533 C2549 1.349 . S
C2534 C2532 1.327 . S
C2534 C2553 1.429 . S
C2534 H2558 0.950 . S
C2535 C2552 1.574 . S
C2535 C2554 1.368 . S
C2535 H2559 0.949 . S
H2536 C2540 0.949 . S
C2537 C2538 1.349 . S
C2537 C2539 1.327 . S
C2537 H2560 0.950 . S
C2538 C2537 1.349 . S
C2538 C2550 1.349 . S
C2539 C2537 1.327 . S
C2539 C2555 1.429 . S
C2539 H2561 0.950 . S
C2540 H2536 0.949 . S
C2540 C2548 1.574 . S
C2540 C2556 1.368 . S
H2541 C2549 0.950 . S
H2542 C2547 0.950 . S
H2543 C2548 0.949 . S
H2544 C2550 0.950 . S
H2545 C2551 0.950 . S
H2546 C2552 0.949 . S
C2547 H2542 0.950 . S
C2547 C2549 1.327 . S
C2547 C2553 1.429 . S
C2548 C2540 1.574 . S
C2548 H2543 0.949 . S
C2548 C2554 1.368 . S
C2549 C2533 1.349 . S
C2549 H2541 0.950 . S
C2549 C2547 1.327 . S
C2550 C2538 1.349 . S
C2550 H2544 0.950 . S
C2550 C2551 1.327 . S
C2551 H2545 0.950 . S
C2551 C2550 1.327 . S
C2551 C2555 1.429 . S
C2552 C2535 1.574 . S
C2552 H2546 0.949 . S
C2552 C2556 1.368 . S
C2553 C2534 1.429 . S
C2553 C2547 1.429 . S
C2553 C2554 1.523 . S
C2554 C2535 1.368 . S
C2554 C2548 1.368 . S
C2554 C2553 1.523 . S
C2555 C2539 1.429 . S
C2555 C2551 1.429 . S
C2555 C2556 1.523 . S
C2556 C2540 1.368 . S
C2556 C2552 1.368 . S
C2556 C2555 1.523 . S
H2557 C2532 0.950 . S
H2558 C2534 0.950 . S
H2559 C2535 0.949 . S
H2560 C2537 0.950 . S
H2561 C2539 0.950 . S
C2562 C2563 1.349 . S
C2562 C2564 1.327 . S
C2562 H2587 0.950 . S
C2563 C2562 1.349 . S
C2563 C2579 1.349 . S
C2564 C2562 1.327 . S
C2564 C2583 1.429 . S
C2564 H2588 0.950 . S
C2565 C2582 1.574 . S
C2565 C2584 1.368 . S
C2565 H2589 0.949 . S
H2566 C2570 0.949 . S
C2567 C2568 1.349 . S
C2567 C2569 1.327 . S
C2567 H2590 0.950 . S
C2568 C2567 1.349 . S
C2568 C2580 1.349 . S
C2569 C2567 1.327 . S
C2569 C2585 1.429 . S
C2569 H2591 0.950 . S
C2570 H2566 0.949 . S
C2570 C2578 1.574 . S
C2570 C2586 1.368 . S
H2571 C2579 0.950 . S
H2572 C2577 0.950 . S
H2573 C2578 0.949 . S
H2574 C2580 0.950 . S
H2575 C2581 0.950 . S
H2576 C2582 0.949 . S
C2577 H2572 0.950 . S
C2577 C2579 1.327 . S
C2577 C2583 1.429 . S
C2578 C2570 1.574 . S
C2578 H2573 0.949 . S
C2578 C2584 1.368 . S
C2579 C2563 1.349 . S
C2579 H2571 0.950 . S
C2579 C2577 1.327 . S
C2580 C2568 1.349 . S
C2580 H2574 0.950 . S
C2580 C2581 1.327 . S
C2581 H2575 0.950 . S
C2581 C2580 1.327 . S
C2581 C2585 1.429 . S
C2582 C2565 1.574 . S
C2582 H2576 0.949 . S
C2582 C2586 1.368 . S
C2583 C2564 1.429 . S
C2583 C2577 1.429 . S
C2583 C2584 1.523 . S
C2584 C2565 1.368 . S
C2584 C2578 1.368 . S
C2584 C2583 1.523 . S
C2585 C2569 1.429 . S
C2585 C2581 1.429 . S
C2585 C2586 1.523 . S
C2586 C2570 1.368 . S
C2586 C2582 1.368 . S
C2586 C2585 1.523 . S
H2587 C2562 0.950 . S
H2588 C2564 0.950 . S
H2589 C2565 0.949 . S
H2590 C2567 0.950 . S
H2591 C2569 0.950 . S
C793 N101 1.223 . S
C798 C7 1.249 . S
C823 N2 1.223 . S
C828 C40 1.249 . S
C853 N35 1.223 . S
C858 C73 1.249 . S
C883 C106 1.249 . S
C888 N68 1.223 . S
C913 N167 1.223 . S
C918 C139 1.249 . S
C943 N200 1.223 . S
C948 C172 1.249 . S
C973 C205 1.249 . S
C978 N233 1.223 . S
C1003 N134 1.223 . S
C1008 C238 1.249 . S
C1033 C271 1.249 . S
C1038 N596 1.223 . S
C1063 C304 1.249 . S
C1068 N629 1.223 . S
C1093 N662 1.223 . S
C1098 C337 1.249 . S
C1123 N563 1.223 . S
C1128 C370 1.249 . S
C1153 N728 1.223 . S
C1158 C403 1.249 . S
C1183 C436 1.249 . S
C1188 N530 1.223 . S
C1213 C469 1.249 . S
C1218 N761 1.223 . S
C1243 N695 1.223 . S
C1248 C502 1.249 . S
C1273 N299 1.223 . S
C1278 C535 1.249 . S
C1303 C568 1.249 . S
C1308 N497 1.223 . S
C1333 N398 1.223 . S
C1338 C601 1.249 . S
C1363 N431 1.223 . S
C1368 C634 1.249 . S
C1393 N464 1.223 . S
C1398 C667 1.249 . S
C1423 N365 1.223 . S
C1428 C700 1.249 . S
C1453 N266 1.223 . S
C1458 C733 1.249 . S
C1483 N332 1.223 . S
C1488 C766 1.249 . S
C1513 C219 1.918 . S
C1518 C21 1.918 . S
C1543 C54 1.918 . S
C1548 C252 1.918 . S
C1573 C153 1.918 . S
C1578 C87 1.918 . S
C1603 C186 1.918 . S
C1608 C120 1.918 . S
C1633 C351 1.918 . S
C1638 C285 1.918 . S
C1663 C318 1.918 . S
C1668 C384 1.918 . S
C1693 C417 1.918 . S
C1698 C483 1.918 . S
C1723 C516 1.918 . S
C1728 C450 1.918 . S
C1753 C549 1.918 . S
C1758 C582 1.918 . S
C1783 C615 1.918 . S
C1788 C780 1.918 . S
C1813 C648 1.918 . S
C1818 C714 1.918 . S
C1843 C747 1.918 . S
C1848 C681 1.918 . S
C1873 C18 1.004 . S
C1878 N277 1.012 . S
C1903 C51 1.004 . S
C1908 N310 1.012 . S
C1933 N343 1.012 . S
C1938 C84 1.004 . S
C1963 N376 1.012 . S
C1968 C117 1.004 . S
C1993 C150 1.004 . S
C1998 N409 1.012 . S
C2023 N442 1.012 . S
C2028 C183 1.004 . S
C2053 C216 1.004 . S
C2058 N475 1.012 . S
C2083 N508 1.012 . S
C2088 C249 1.004 . S
C2113 C282 1.004 . S
C2118 N541 1.012 . S
C2143 N772 1.012 . S
C2148 C315 1.004 . S
C2173 C348 1.004 . S
C2178 N706 1.012 . S
C2203 C381 1.004 . S
C2208 N739 1.012 . S
C2233 N574 1.012 . S
C2238 C414 1.004 . S
C2263 C447 1.004 . S
C2268 N607 1.012 . S
C2293 C480 1.004 . S
C2298 N640 1.012 . S
C2323 C513 1.004 . S
C2328 N673 1.012 . S
C2353 C546 1.004 . S
C2358 N13 1.012 . S
C2383 C579 1.004 . S
C2388 N145 1.012 . S
C2413 C612 1.004 . S
C2418 N178 1.012 . S
C2443 N211 1.012 . S
C2448 C645 1.004 . S
C2473 C678 1.004 . S
C2478 N244 1.012 . S
C2503 N79 1.012 . S
C2508 C711 1.004 . S
C2533 N112 1.012 . S
C2538 C744 1.004 . S
C2563 C777 1.004 . S
C2568 N46 1.012 . S
