# Generated by pormake.
# Topology pcu-g, (3)-cn, num edge types: 1
# Building blocks:
#     Node 0, Type 0, BuildingBlock: WUSLED_clean_sbu_0, # of connection points: 3
#     Node 1, Type 0, BuildingBlock: WUSLED_clean_sbu_0, # of connection points: 3
#     Node 2, Type 0, BuildingBlock: WUSLED_clean_sbu_0, # of connection points: 3
#     Node 3, Type 0, BuildingBlock: WUSLED_clean_sbu_0, # of connection points: 3
#     Node 4, Type 0, BuildingBlock: WUSLED_clean_sbu_0, # of connection points: 3
#     Node 5, Type 0, BuildingBlock: WUSLED_clean_sbu_0, # of connection points: 3
#     Node 6, Type 0, BuildingBlock: WUSLED_clean_sbu_0, # of connection points: 3
#     Node 7, Type 0, BuildingBlock: WUSLED_clean_sbu_0, # of connection points: 3
#     Node 8, Type 0, BuildingBlock: WUSLED_clean_sbu_0, # of connection points: 3
#     Node 9, Type 0, BuildingBlock: WUSLED_clean_sbu_0, # of connection points: 3
#     Node 10, Type 0, BuildingBlock: WUSLED_clean_sbu_0, # of connection points: 3
#     Node 11, Type 0, BuildingBlock: WUSLED_clean_sbu_0, # of connection points: 3
#     Node 12, Type 0, BuildingBlock: WUSLED_clean_sbu_0, # of connection points: 3
#     Node 13, Type 0, BuildingBlock: WUSLED_clean_sbu_0, # of connection points: 3
#     Node 14, Type 0, BuildingBlock: WUSLED_clean_sbu_0, # of connection points: 3
#     Node 15, Type 0, BuildingBlock: WUSLED_clean_sbu_0, # of connection points: 3
#     Node 16, Type 0, BuildingBlock: WUSLED_clean_sbu_0, # of connection points: 3
#     Node 17, Type 0, BuildingBlock: WUSLED_clean_sbu_0, # of connection points: 3
#     Node 18, Type 0, BuildingBlock: WUSLED_clean_sbu_0, # of connection points: 3
#     Node 19, Type 0, BuildingBlock: WUSLED_clean_sbu_0, # of connection points: 3
#     Node 20, Type 0, BuildingBlock: WUSLED_clean_sbu_0, # of connection points: 3
#     Node 21, Type 0, BuildingBlock: WUSLED_clean_sbu_0, # of connection points: 3
#     Node 22, Type 0, BuildingBlock: WUSLED_clean_sbu_0, # of connection points: 3
#     Node 23, Type 0, BuildingBlock: WUSLED_clean_sbu_0, # of connection points: 3
#     Node 24, Type 0, BuildingBlock: WUSLED_clean_sbu_0, # of connection points: 3
#     Node 25, Type 0, BuildingBlock: WUSLED_clean_sbu_0, # of connection points: 3
#     Node 26, Type 0, BuildingBlock: WUSLED_clean_sbu_0, # of connection points: 3
#     Node 27, Type 0, BuildingBlock: WUSLED_clean_sbu_0, # of connection points: 3
#     Node 28, Type 0, BuildingBlock: WUSLED_clean_sbu_0, # of connection points: 3
#     Node 29, Type 0, BuildingBlock: WUSLED_clean_sbu_0, # of connection points: 3
#     Node 30, Type 0, BuildingBlock: WUSLED_clean_sbu_0, # of connection points: 3
#     Node 31, Type 0, BuildingBlock: WUSLED_clean_sbu_0, # of connection points: 3
#     Node 32, Type 0, BuildingBlock: WUSLED_clean_sbu_0, # of connection points: 3
#     Node 33, Type 0, BuildingBlock: WUSLED_clean_sbu_0, # of connection points: 3
#     Node 34, Type 0, BuildingBlock: WUSLED_clean_sbu_0, # of connection points: 3
#     Node 35, Type 0, BuildingBlock: WUSLED_clean_sbu_0, # of connection points: 3
#     Node 36, Type 0, BuildingBlock: WUSLED_clean_sbu_0, # of connection points: 3
#     Node 37, Type 0, BuildingBlock: WUSLED_clean_sbu_0, # of connection points: 3
#     Node 38, Type 0, BuildingBlock: WUSLED_clean_sbu_0, # of connection points: 3
#     Node 39, Type 0, BuildingBlock: WUSLED_clean_sbu_0, # of connection points: 3
#     Node 40, Type 0, BuildingBlock: WUSLED_clean_sbu_0, # of connection points: 3
#     Node 41, Type 0, BuildingBlock: WUSLED_clean_sbu_0, # of connection points: 3
#     Node 42, Type 0, BuildingBlock: WUSLED_clean_sbu_0, # of connection points: 3
#     Node 43, Type 0, BuildingBlock: WUSLED_clean_sbu_0, # of connection points: 3
#     Node 44, Type 0, BuildingBlock: WUSLED_clean_sbu_0, # of connection points: 3
#     Node 45, Type 0, BuildingBlock: WUSLED_clean_sbu_0, # of connection points: 3
#     Node 46, Type 0, BuildingBlock: WUSLED_clean_sbu_0, # of connection points: 3
#     Node 47, Type 0, BuildingBlock: WUSLED_clean_sbu_0, # of connection points: 3
#     Edge 48, Type (0, 0), None
#     Edge 49, Type (0, 0), None
#     Edge 50, Type (0, 0), None
#     Edge 51, Type (0, 0), None
#     Edge 52, Type (0, 0), None
#     Edge 53, Type (0, 0), None
#     Edge 54, Type (0, 0), None
#     Edge 55, Type (0, 0), None
#     Edge 56, Type (0, 0), None
#     Edge 57, Type (0, 0), None
#     Edge 58, Type (0, 0), None
#     Edge 59, Type (0, 0), None
#     Edge 60, Type (0, 0), None
#     Edge 61, Type (0, 0), None
#     Edge 62, Type (0, 0), None
#     Edge 63, Type (0, 0), None
#     Edge 64, Type (0, 0), None
#     Edge 65, Type (0, 0), None
#     Edge 66, Type (0, 0), None
#     Edge 67, Type (0, 0), None
#     Edge 68, Type (0, 0), None
#     Edge 69, Type (0, 0), None
#     Edge 70, Type (0, 0), None
#     Edge 71, Type (0, 0), None
#     Edge 72, Type (0, 0), None
#     Edge 73, Type (0, 0), None
#     Edge 74, Type (0, 0), None
#     Edge 75, Type (0, 0), None
#     Edge 76, Type (0, 0), None
#     Edge 77, Type (0, 0), None
#     Edge 78, Type (0, 0), None
#     Edge 79, Type (0, 0), None
#     Edge 80, Type (0, 0), None
#     Edge 81, Type (0, 0), None
#     Edge 82, Type (0, 0), None
#     Edge 83, Type (0, 0), None
#     Edge 84, Type (0, 0), None
#     Edge 85, Type (0, 0), None
#     Edge 86, Type (0, 0), None
#     Edge 87, Type (0, 0), None
#     Edge 88, Type (0, 0), None
#     Edge 89, Type (0, 0), None
#     Edge 90, Type (0, 0), None
#     Edge 91, Type (0, 0), None
#     Edge 92, Type (0, 0), None
#     Edge 93, Type (0, 0), None
#     Edge 94, Type (0, 0), None
#     Edge 95, Type (0, 0), None
#     Edge 96, Type (0, 0), None
#     Edge 97, Type (0, 0), None
#     Edge 98, Type (0, 0), None
#     Edge 99, Type (0, 0), None
#     Edge 100, Type (0, 0), None
#     Edge 101, Type (0, 0), None
#     Edge 102, Type (0, 0), None
#     Edge 103, Type (0, 0), None
#     Edge 104, Type (0, 0), None
#     Edge 105, Type (0, 0), None
#     Edge 106, Type (0, 0), None
#     Edge 107, Type (0, 0), None
#     Edge 108, Type (0, 0), None
#     Edge 109, Type (0, 0), None
#     Edge 110, Type (0, 0), None
#     Edge 111, Type (0, 0), None
#     Edge 112, Type (0, 0), None
#     Edge 113, Type (0, 0), None
#     Edge 114, Type (0, 0), None
#     Edge 115, Type (0, 0), None
#     Edge 116, Type (0, 0), None
#     Edge 117, Type (0, 0), None
#     Edge 118, Type (0, 0), None
#     Edge 119, Type (0, 0), None
# Relax obj value: 0.001
# Max RMSD: 0.009
# Mean RMSD: 0.006
data_MOF--net-pcu-g--node1-WUSLED_clean_sbu_0--edge1-none
_symmetry_space_group_name_H-M    P1
_symmetry_Int_Tables_number       1
_symmetry_cell_setting            triclinic
loop_
_symmetry_equiv_pos_as_xyz
'x, y, z'
_cell_length_a     79.419051
_cell_length_b     79.948664
_cell_length_c     80.331803
_cell_angle_alpha  89.931084
_cell_angle_beta   89.996957
_cell_angle_gamma 89.996103
loop_
_atom_site_label
_atom_site_type_symbol
_atom_site_fract_x
_atom_site_fract_y
_atom_site_fract_z
_atom_type_partial_charge
C0 C 1.00117 0.14401 0.41241 0.0
C1 C 1.01133 0.13114 0.40593 0.0
C2 C 0.98634 0.11504 0.39772 0.0
C3 C 1.004 0.11683 0.39871 0.0
C4 C 0.9763 0.12793 0.4044 0.0
C5 C 0.9836 0.14216 0.4116 0.0
U6 U 0.03297 0.17083 0.43842 0.0
O7 O 0.0435 0.19575 0.43263 0.0
O8 O 0.02751 0.19256 0.4546 0.0
C9 C 0.03583 0.20315 0.44513 0.0
C10 C 1.00827 0.15982 0.41931 0.0
C11 C 0.02823 0.22012 0.44225 0.0
C12 C 0.01558 0.24553 0.45396 0.0
C13 C 0.02053 0.2287 0.45554 0.0
C14 C 0.02553 0.24571 0.42558 0.0
C15 C 0.01822 0.25445 0.43903 0.0
C16 C 0.03051 0.22887 0.42718 0.0
C17 C 0.06961 0.14558 0.46142 0.0
C18 C 0.09801 0.13381 0.46362 0.0
C19 C 0.08196 0.13905 0.4886 0.0
C20 C 0.06857 0.14524 0.47892 0.0
C21 C 0.09677 0.13287 0.48109 0.0
C22 C 0.08464 0.14002 0.45396 0.0
C23 C 0.05443 0.14877 0.45083 0.0
O24 O 1.00673 0.16211 0.43544 0.0
O25 O 0.0229 0.16489 0.41352 0.0
O26 O 0.05654 0.1562 0.43636 0.0
O27 O 0.04027 0.15305 0.45817 0.0
H28 H 0.02492 0.1322 0.40631 0.0
H29 H 1.01221 0.10729 0.39365 0.0
H30 H 0.9627 0.12697 0.40426 0.0
H31 H 0.97545 0.15186 0.41647 0.0
H32 H 1.00981 0.25159 0.46457 0.0
H33 H 0.01878 0.22251 0.46742 0.0
H34 H 0.02806 0.25206 0.41393 0.0
H35 H 0.03663 0.22289 0.41672 0.0
H36 H 0.10922 0.12942 0.45732 0.0
H37 H 0.08033 0.13839 0.50196 0.0
H38 H 0.05714 0.14911 0.48517 0.0
H39 H 0.08582 0.13982 0.44052 0.0
C40 C 0.95452 0.36601 0.46874 0.0
C41 C 0.94814 0.38044 0.46093 0.0
C42 C 0.92984 0.38623 0.4849 0.0
C43 C 0.93597 0.39044 0.46893 0.0
C44 C 0.93645 0.37183 0.49266 0.0
C45 C 0.94858 0.3619 0.48469 0.0
U46 U 0.9925 0.35494 0.43963 0.0
O47 O 1.01281 0.33659 0.44394 0.0
O48 O 0.99547 0.33299 0.42306 0.0
C49 C 1.00808 0.32675 0.43168 0.0
C50 C 0.96677 0.35458 0.4605 0.0
C51 C 1.00848 0.30818 0.43452 0.0
C52 C 0.01657 0.28381 0.45129 0.0
C53 C 0.01388 0.30116 0.44971 0.0
C54 C 1.00825 0.27992 0.42266 0.0
C55 C 0.01408 0.27288 0.43771 0.0
C56 C 1.00554 0.29725 0.4211 0.0
C57 C 0.01422 0.3932 0.41596 0.0
C58 C 0.02128 0.40453 0.3885 0.0
C59 C 0.03537 0.41532 0.41286 0.0
C60 C 0.02618 0.40417 0.42291 0.0
C61 C 0.0328 0.41598 0.39552 0.0
C62 C 1.0121 0.39338 0.39855 0.0
C63 C 1.00229 0.38399 0.42712 0.0
O64 O 0.96525 0.35244 0.44434 0.0
O65 O 0.98255 0.35562 0.46533 0.0
O66 O 1.00809 0.37784 0.44118 0.0
O67 O 0.9907 0.37446 0.42027 0.0
H68 H 0.95244 0.38391 0.44861 0.0
H69 H 0.93117 0.40132 0.46246 0.0
H70 H 0.93243 0.36829 0.50504 0.0
H71 H 0.95328 0.35087 0.49101 0.0
H72 H 0.02126 0.27908 0.46304 0.0
H73 H 0.01654 0.30912 0.46029 0.0
H74 H 1.00591 0.27204 0.41195 0.0
H75 H 1.0016 0.30217 0.40916 0.0
H76 H 0.01911 0.40436 0.3752 0.0
H77 H 0.04393 0.42397 0.41884 0.0
H78 H 0.02792 0.40465 0.43627 0.0
H79 H 1.00291 0.3853 0.3927 0.0
C80 C 1.00113 0.88089 0.11299 0.0
C81 C 1.01129 0.89376 0.11946 0.0
C82 C 0.98631 0.90987 0.12767 0.0
C83 C 1.00397 0.90808 0.12668 0.0
C84 C 0.97626 0.89699 0.12099 0.0
C85 C 0.98357 0.88275 0.1138 0.0
U86 U 0.03291 0.85405 0.08697 0.0
O87 O 0.04344 0.82913 0.09278 0.0
O88 O 0.02743 0.83231 0.07081 0.0
C89 C 0.03575 0.82172 0.08029 0.0
C90 C 1.00823 0.86508 0.10609 0.0
C91 C 0.02815 0.80475 0.08319 0.0
C92 C 0.0155 0.77933 0.07152 0.0
C93 C 0.02047 0.79616 0.06991 0.0
C94 C 0.02542 0.7792 0.09991 0.0
C95 C 0.01813 0.77044 0.08647 0.0
C96 C 0.03041 0.79604 0.09829 0.0
C97 C 0.06952 0.87928 0.0639 0.0
C98 C 0.09793 0.89103 0.06167 0.0
C99 C 0.08184 0.88581 0.03671 0.0
C100 C 0.06846 0.87962 0.0464 0.0
C101 C 0.09666 0.89198 0.0442 0.0
C102 C 0.08456 0.88482 0.07135 0.0
C103 C 0.05436 0.87609 0.07452 0.0
O104 O 1.00667 0.86277 0.08997 0.0
O105 O 0.02286 0.86001 0.11187 0.0
O106 O 0.05649 0.86867 0.08899 0.0
O107 O 0.04019 0.87181 0.06719 0.0
H108 H 0.02488 0.8927 0.11908 0.0
H109 H 1.01218 0.91762 0.13173 0.0
H110 H 0.96266 0.89795 0.12113 0.0
H111 H 0.97541 0.87305 0.10893 0.0
H112 H 1.00975 0.77325 0.06092 0.0
H113 H 0.01873 0.80232 0.05802 0.0
H114 H 0.02793 0.77288 0.11158 0.0
H115 H 0.03653 0.80204 0.10874 0.0
H116 H 0.10915 0.8954 0.06796 0.0
H117 H 0.08019 0.88648 0.02335 0.0
H118 H 0.05701 0.87577 0.04017 0.0
H119 H 0.08577 0.88501 0.08478 0.0
C120 C 0.95435 0.65888 0.05693 0.0
C121 C 0.94784 0.64454 0.0648 0.0
C122 C 0.92964 0.63869 0.04077 0.0
C123 C 0.93566 0.63455 0.0568 0.0
C124 C 0.93637 0.653 0.03296 0.0
C125 C 0.94851 0.66292 0.04093 0.0
U126 U 0.9923 0.66997 0.08606 0.0
O127 O 1.01264 0.68829 0.08173 0.0
O128 O 0.99528 0.69196 0.10258 0.0
C129 C 1.00791 0.69816 0.09396 0.0
C130 C 0.9666 0.67031 0.06517 0.0
C131 C 1.00833 0.71673 0.09108 0.0
C132 C 0.01647 0.74105 0.07428 0.0
C133 C 0.01375 0.72371 0.07589 0.0
C134 C 1.00811 0.74502 0.10288 0.0
C135 C 0.01397 0.75201 0.08783 0.0
C136 C 1.00538 0.72769 0.10448 0.0
C137 C 0.01399 0.63175 0.10983 0.0
C138 C 0.02105 0.62051 0.13732 0.0
C139 C 0.0351 0.60961 0.11299 0.0
C140 C 0.02592 0.62074 0.10291 0.0
C141 C 0.03254 0.60903 0.13034 0.0
C142 C 1.01187 0.63164 0.12724 0.0
C143 C 1.00206 0.64094 0.09865 0.0
O144 O 0.96506 0.67249 0.08132 0.0
O145 O 0.98238 0.66925 0.06035 0.0
O146 O 1.00787 0.64706 0.08457 0.0
O147 O 0.99047 0.6505 0.10546 0.0
H148 H 0.95206 0.64112 0.07716 0.0
H149 H 0.93078 0.62373 0.06332 0.0
H150 H 0.93242 0.65649 0.02053 0.0
H151 H 0.95329 0.67389 0.03456 0.0
H152 H 0.02117 0.74576 0.06253 0.0
H153 H 0.01642 0.71573 0.06533 0.0
H154 H 1.00577 0.75292 0.11357 0.0
H155 H 1.00142 0.7228 0.11643 0.0
H156 H 0.01889 0.62074 0.15063 0.0
H157 H 0.04365 0.60093 0.10704 0.0
H158 H 0.02765 0.6202 0.08955 0.0
H159 H 1.00269 0.63976 0.13308 0.0
C160 C 0.41145 1.00253 0.14407 0.0
C161 C 0.39985 1.01195 0.13467 0.0
C162 C 0.3954 0.98853 0.11542 0.0
C163 C 0.39198 1.00506 0.12056 0.0
C164 C 0.4073 0.9793 0.12466 0.0
C165 C 0.41514 0.98617 0.13877 0.0
U166 U 0.43807 0.03307 0.17155 0.0
O167 O 0.43228 0.04342 0.19646 0.0
O168 O 0.45437 0.0274 0.19311 0.0
C169 C 0.44516 0.03603 0.20364 0.0
C170 C 0.41864 1.00882 0.16012 0.0
C171 C 0.44264 0.02895 0.22068 0.0
C172 C 0.4364 1.00603 0.23994 0.0
C173 C 0.43747 1.01239 0.22356 0.0
C174 C 0.44545 0.03271 0.25081 0.0
C175 C 0.44056 0.01604 0.25389 0.0
C176 C 0.44645 0.03902 0.23451 0.0
C177 C 0.46077 0.07006 0.14685 0.0
C178 C 0.46316 0.10053 0.14504 0.0
C179 C 0.48417 0.0832 0.13184 0.0
C180 C 0.47575 0.06882 0.13754 0.0
C181 C 0.4778 0.0993 0.13515 0.0
C182 C 0.45475 0.08615 0.15075 0.0
C183 C 0.45034 0.05474 0.14979 0.0
O184 O 0.43498 1.00719 0.16228 0.0
O185 O 0.41283 0.02307 0.16593 0.0
O186 O 0.43566 0.05646 0.15718 0.0
O187 O 0.45805 0.04078 0.15392 0.0
H188 H 0.39654 0.02453 0.13839 0.0
H189 H 0.38277 0.01258 0.11401 0.0
H190 H 0.41055 0.96666 0.12106 0.0
H191 H 0.42391 0.97852 0.14576 0.0
H192 H 0.43232 0.99323 0.24163 0.0
H193 H 0.43445 1.00431 0.21317 0.0
H194 H 0.44906 0.04084 0.26096 0.0
H195 H 0.45059 0.05181 0.23267 0.0
H196 H 0.45798 0.11265 0.14816 0.0
H197 H 0.49525 0.08162 0.12416 0.0
H198 H 0.48058 0.05666 0.13401 0.0
H199 H 0.44319 0.08768 0.15773 0.0
C200 C 0.55817 0.453 0.16004 0.0
C201 C 0.56665 0.4457 0.14649 0.0
C202 C 0.542 0.42837 0.13989 0.0
C203 C 0.55866 0.43356 0.13653 0.0
C204 C 0.53357 0.4359 0.15339 0.0
C205 C 0.54154 0.44799 0.16329 0.0
U206 U 0.58709 0.49104 0.17133 0.0
O207 O 0.58272 0.51069 0.19021 0.0
O208 O 0.60436 0.49392 0.19272 0.0
C209 C 0.59556 0.50609 0.19949 0.0
C210 C 0.56643 0.46512 0.17155 0.0
C211 C 0.59349 0.50605 0.2181 0.0
C212 C 0.60636 0.5027 0.24565 0.0
C213 C 0.60679 0.50048 0.22829 0.0
C214 C 0.5791 0.51582 0.24337 0.0
C215 C 0.59266 0.51068 0.2535 0.0
C216 C 0.57955 0.51364 0.22594 0.0
C217 C 0.61031 0.5133 0.13318 0.0
C218 C 0.63801 0.52063 0.12194 0.0
C219 C 0.61319 0.53412 0.11093 0.0
C220 C 0.60313 0.52496 0.1221 0.0
C221 C 0.63077 0.53182 0.11037 0.0
C222 C 0.62795 0.51147 0.13311 0.0
C223 C 0.59918 0.50133 0.14237 0.0
O224 O 0.58281 0.46387 0.17354 0.0
O225 O 0.56124 0.48072 0.17085 0.0
O226 O 0.58506 0.50697 0.14883 0.0
O227 O 0.60629 0.48968 0.15156 0.0
H228 H 0.5795 0.44924 0.14368 0.0
H229 H 0.56566 0.42805 0.12637 0.0
H230 H 0.52067 0.4326 0.15625 0.0
H231 H 0.53469 0.45338 0.17364 0.0
H232 H 0.61694 0.49826 0.25291 0.0
H233 H 0.61785 0.49482 0.22279 0.0
H234 H 0.56836 0.52211 0.24881 0.0
H235 H 0.56918 0.51839 0.21858 0.0
H236 H 0.6515 0.51867 0.12218 0.0
H237 H 0.60704 0.54245 0.1022 0.0
H238 H 0.58959 0.52647 0.12154 0.0
H239 H 0.63399 0.50252 0.14128 0.0
C240 C 0.41134 0.02247 0.38125 0.0
C241 C 0.39961 0.01311 0.39057 0.0
C242 C 0.39525 0.0365 0.40988 0.0
C243 C 0.39172 0.02001 0.40466 0.0
C244 C 0.40728 0.04566 0.40073 0.0
C245 C 0.41514 0.03877 0.38664 0.0
U246 U 0.43801 0.99195 0.35377 0.0
O247 O 0.43223 0.9816 0.32886 0.0
O248 O 0.4543 0.99765 0.33221 0.0
C249 C 0.44509 0.98902 0.32167 0.0
C250 C 0.41855 0.01618 0.3652 0.0
C251 C 0.44255 0.99611 0.30464 0.0
C252 C 0.43668 0.01915 0.28541 0.0
C253 C 0.43772 0.01278 0.30178 0.0
C254 C 0.44506 0.99227 0.2745 0.0
C255 C 0.44053 1.00905 0.27144 0.0
C256 C 0.44603 0.98595 0.2908 0.0
C257 C 0.46075 0.95497 0.37846 0.0
C258 C 0.46316 0.92451 0.38027 0.0
C259 C 0.48416 0.94185 0.39346 0.0
C260 C 0.47573 0.95622 0.38776 0.0
C261 C 0.4778 0.92574 0.39016 0.0
C262 C 0.45474 0.93888 0.37456 0.0
C263 C 0.45031 0.97028 0.37552 0.0
O264 O 0.43488 0.01783 0.36304 0.0
O265 O 0.41275 1.00192 0.3594 0.0
O266 O 0.43563 0.96855 0.36814 0.0
O267 O 0.458 0.98425 0.3714 0.0
H268 H 0.39621 1.00057 0.38678 0.0
H269 H 0.38242 0.01255 0.41114 0.0
H270 H 0.41061 0.05826 0.40439 0.0
H271 H 0.424 0.04638 0.37971 0.0
H272 H 0.43288 0.03204 0.28374 0.0
H273 H 0.43496 0.02093 0.31218 0.0
H274 H 0.44842 0.98406 0.26433 0.0
H275 H 0.44991 0.97308 0.29261 0.0
H276 H 0.45799 0.91238 0.37715 0.0
H277 H 0.49525 0.94343 0.40114 0.0
H278 H 0.48056 0.96838 0.39129 0.0
H279 H 0.44318 0.93734 0.36758 0.0
C280 C 0.55835 0.5721 0.36514 0.0
C281 C 0.56682 0.57947 0.37866 0.0
C282 C 0.54212 0.59673 0.38525 0.0
C283 C 0.5588 0.5916 0.3886 0.0
C284 C 0.5337 0.58913 0.37179 0.0
C285 C 0.5417 0.57704 0.36191 0.0
U286 U 0.58726 0.53403 0.35402 0.0
O287 O 0.583 0.51439 0.33513 0.0
O288 O 0.60472 0.5311 0.33274 0.0
C289 C 0.59597 0.5189 0.32598 0.0
C290 C 0.56664 0.55998 0.35365 0.0
C291 C 0.59415 0.51881 0.30737 0.0
C292 C 0.57827 0.51246 0.28191 0.0
C293 C 0.5789 0.51473 0.29933 0.0
C294 C 0.608 0.51847 0.28011 0.0
C295 C 0.5929 0.51399 0.27203 0.0
C296 C 0.6086 0.5208 0.29744 0.0
C297 C 0.61025 0.51178 0.39229 0.0
C298 C 0.63795 0.50423 0.40335 0.0
C299 C 0.61308 0.49117 0.41474 0.0
C300 C 0.60303 0.50033 0.40356 0.0
C301 C 0.63069 0.49326 0.41511 0.0
C302 C 0.6279 0.51338 0.39217 0.0
C303 C 0.59916 0.52376 0.38306 0.0
O304 O 0.58304 0.5612 0.35175 0.0
O305 O 0.56143 0.54438 0.35432 0.0
O306 O 0.58507 0.51812 0.37652 0.0
O307 O 0.60633 0.53541 0.37391 0.0
H308 H 0.57969 0.57598 0.38146 0.0
H309 H 0.5658 0.59717 0.39874 0.0
H310 H 0.52078 0.59238 0.36894 0.0
H311 H 0.53485 0.57161 0.35157 0.0
H312 H 0.56641 0.50895 0.27627 0.0
H313 H 0.56753 0.51286 0.30653 0.0
H314 H 0.61949 0.52012 0.27305 0.0
H315 H 0.6206 0.52373 0.30316 0.0
H316 H 0.65146 0.50601 0.40295 0.0
H317 H 0.60691 0.48302 0.42362 0.0
H318 H 0.58947 0.499 0.40426 0.0
H319 H 0.63398 0.52216 0.38383 0.0
C320 C 0.1603 0.46828 0.07307 0.0
C321 C 0.1468 0.45976 0.08061 0.0
C322 C 0.1402 0.48424 0.09787 0.0
C323 C 0.13686 0.46765 0.09284 0.0
C324 C 0.15364 0.49271 0.0901 0.0
C325 C 0.16352 0.48484 0.07792 0.0
U326 U 0.17132 0.44018 0.03463 0.0
O327 O 0.19027 0.44485 0.01501 0.0
O328 O 0.19285 0.42295 0.03122 0.0
C329 C 0.19958 0.43189 0.01918 0.0
C330 C 0.17182 0.46015 0.06082 0.0
C331 C 0.21839 0.43372 0.01895 0.0
C332 C 0.24405 0.44953 1.01236 0.0
C333 C 0.22646 0.44888 0.01479 0.0
C334 C 0.24597 0.42001 0.01839 0.0
C335 C 0.25408 0.43501 0.01381 0.0
C336 C 0.22847 0.41938 0.02087 0.0
C337 C 0.13267 0.41792 1.01197 0.0
C338 C 0.11754 0.41509 0.98557 0.0
C339 C 0.11376 0.39423 1.00701 0.0
C340 C 0.12512 0.40289 0.01727 0.0
C341 C 0.10948 0.40036 0.99111 0.0
C342 C 0.12889 0.42376 0.99586 0.0
C343 C 0.14193 0.42856 0.02427 0.0
O344 O 0.17366 0.44383 0.06175 0.0
O345 O 0.17114 0.46562 0.04539 0.0
O346 O 0.1485 0.44277 0.01914 0.0
O347 O 0.15122 0.42106 0.0356 0.0
H348 H 0.14401 0.44695 0.0772 0.0
H349 H 0.12673 0.46063 0.09854 0.0
H350 H 0.15647 0.50556 0.09327 0.0
H351 H 0.17384 0.49172 0.07235 0.0
H352 H 0.24971 0.46132 1.00878 0.0
H353 H 0.21915 0.46017 0.01297 0.0
H354 H 0.25315 0.4086 0.01997 0.0
H355 H 0.22273 0.40746 0.02387 0.0
H356 H 0.11449 0.42041 0.97354 0.0
H357 H 0.10806 0.38286 1.0117 0.0
H358 H 0.12749 0.39813 0.02968 0.0
H359 H 0.13416 0.43543 0.99139 0.0
C360 C 0.16096 0.55685 0.45249 0.0
C361 C 0.14699 0.56513 0.44555 0.0
C362 C 0.14072 0.54096 0.42774 0.0
C363 C 0.13699 0.55728 0.43335 0.0
C364 C 0.15466 0.53272 0.4349 0.0
C365 C 0.1646 0.54056 0.44705 0.0
U366 U 0.17155 0.58489 0.491 0.0
O367 O 0.19028 0.58025 0.5108 0.0
O368 O 0.19297 0.60223 0.4947 0.0
C369 C 0.19944 0.5934 0.50695 0.0
C370 C 0.17241 0.56493 0.46481 0.0
C371 C 0.21817 0.59179 0.50773 0.0
C372 C 0.24445 0.57583 0.5058 0.0
C373 C 0.22684 0.57701 0.50357 0.0
C374 C 0.245 0.60413 0.51628 0.0
C375 C 0.25381 0.58934 0.51239 0.0
C376 C 0.22752 0.60531 0.51398 0.0
C377 C 0.13266 0.60699 0.51332 0.0
C378 C 0.11757 0.60987 0.53974 0.0
C379 C 0.11364 0.63061 0.51822 0.0
C380 C 0.12502 0.62196 0.50797 0.0
C381 C 0.10943 0.62454 0.53416 0.0
C382 C 0.12894 0.6012 0.52947 0.0
C383 C 0.142 0.59638 0.50106 0.0
O384 O 0.17423 0.58126 0.46391 0.0
O385 O 0.1716 0.55945 0.48022 0.0
O386 O 0.14856 0.58218 0.50622 0.0
O387 O 0.15136 0.60392 0.48982 0.0
H388 H 0.14386 0.57772 0.44944 0.0
H389 H 0.12648 0.56413 0.42813 0.0
H390 H 0.15782 0.52007 0.43128 0.0
H391 H 0.17528 0.53386 0.45216 0.0
H392 H 0.25067 0.5642 0.50269 0.0
H393 H 0.22 0.56632 0.49882 0.0
H394 H 0.25164 0.61494 0.52104 0.0
H395 H 0.22122 0.61684 0.51735 0.0
H396 H 0.11457 0.6046 0.55181 0.0
H397 H 0.10788 0.64193 0.51348 0.0
H398 H 0.12734 0.62668 0.49553 0.0
H399 H 0.13429 0.58959 0.53398 0.0
C400 C 0.86787 0.9664 0.4507 0.0
C401 C 0.87253 0.98339 0.45102 0.0
C402 C 0.887 0.98092 0.42417 0.0
C403 C 0.88199 0.99052 0.43802 0.0
C404 C 0.88257 0.96383 0.42401 0.0
C405 C 0.87314 0.95671 0.43702 0.0
U406 U 0.85585 0.94042 0.49045 0.0
O407 O 0.83716 0.94641 0.51007 0.0
O408 O 0.83382 0.92413 0.4946 0.0
C409 C 0.82739 0.93367 0.50632 0.0
C410 C 0.85605 0.95952 0.46356 0.0
C411 C 0.80866 0.93631 0.50644 0.0
C412 C 0.78043 0.92873 0.4967 0.0
C413 C 0.79805 0.92843 0.49479 0.0
C414 C 0.7834 0.94524 0.52166 0.0
C415 C 0.77279 0.93684 0.51036 0.0
C416 C 0.80104 0.9449 0.51977 0.0
C417 C 0.89391 0.91701 0.51308 0.0
C418 C 0.90509 0.88959 0.52097 0.0
C419 C 0.91605 0.91441 0.5342 0.0
C420 C 0.90493 0.92429 0.52474 0.0
C421 C 0.91661 0.89691 0.53217 0.0
C422 C 0.89397 0.89946 0.51154 0.0
C423 C 0.88486 0.92785 0.50078 0.0
O424 O 0.85303 0.94335 0.46329 0.0
O425 O 0.85724 0.96545 0.47878 0.0
O426 O 0.87894 0.94236 0.5058 0.0
O427 O 0.87513 0.9206 0.48968 0.0
H428 H 0.86854 0.99133 0.46121 0.0
H429 H 0.88527 1.00364 0.43881 0.0
H430 H 0.88588 0.956 0.41352 0.0
H431 H 0.8696 0.94366 0.4361 0.0
H432 H 0.77279 0.92236 0.48753 0.0
H433 H 0.80334 0.92158 0.48442 0.0
H434 H 0.77814 0.95151 0.53241 0.0
H435 H 0.80877 0.95087 0.52915 0.0
H436 H 0.90485 0.87616 0.51923 0.0
H437 H 0.92475 0.9206 0.54253 0.0
H438 H 0.90551 0.93776 0.52604 0.0
H439 H 0.88586 0.89334 0.50259 0.0
C440 C 0.36773 0.55863 0.57464 0.0
C441 C 0.37234 0.54162 0.57432 0.0
C442 C 0.38692 0.54408 0.60112 0.0
C443 C 0.38182 0.53448 0.58729 0.0
C444 C 0.38254 0.56118 0.60127 0.0
C445 C 0.37307 0.56832 0.58829 0.0
U446 U 0.35567 0.58472 0.53498 0.0
O447 O 0.337 0.57877 0.51533 0.0
O448 O 0.33362 0.60099 0.53088 0.0
C449 C 0.32721 0.59148 0.51912 0.0
C450 C 0.35589 0.56553 0.56181 0.0
C451 C 0.30849 0.58881 0.51898 0.0
C452 C 0.28026 0.59606 0.52896 0.0
C453 C 0.29788 0.59636 0.53084 0.0
C454 C 0.28322 0.58018 0.5036 0.0
C455 C 0.27261 0.58828 0.51512 0.0
C456 C 0.30086 0.58053 0.50547 0.0
C457 C 0.39373 0.60824 0.51246 0.0
C458 C 0.40488 0.6357 0.50465 0.0
C459 C 0.4159 0.61092 0.49139 0.0
C460 C 0.40478 0.601 0.5008 0.0
C461 C 0.41644 0.62841 0.49346 0.0
C462 C 0.39376 0.62578 0.51403 0.0
C463 C 0.38467 0.59736 0.52471 0.0
O464 O 0.35283 0.5817 0.56213 0.0
O465 O 0.35709 0.55965 0.54657 0.0
O466 O 0.37877 0.58286 0.51964 0.0
O467 O 0.37492 0.60457 0.53583 0.0
H468 H 0.36829 0.53369 0.56416 0.0
H469 H 0.38506 0.52135 0.5865 0.0
H470 H 0.38591 0.56902 0.61174 0.0
H471 H 0.36958 0.58138 0.58921 0.0
H472 H 0.27261 0.60218 0.53831 0.0
H473 H 0.30317 0.60297 0.54137 0.0
H474 H 0.27796 0.57417 0.49271 0.0
H475 H 0.3086 0.57481 0.49593 0.0
H476 H 0.40462 0.64912 0.50642 0.0
H477 H 0.42464 0.60476 0.48307 0.0
H478 H 0.40539 0.58753 0.49947 0.0
H479 H 0.38561 0.63188 0.52298 0.0
C480 C 0.95449 0.86641 0.55721 0.0
C481 C 0.94695 0.87999 0.5655 0.0
C482 C 0.92966 0.88645 0.54096 0.0
C483 C 0.93472 0.8899 0.55746 0.0
C484 C 0.93745 0.87295 0.53272 0.0
C485 C 0.94963 0.86311 0.54073 0.0
U486 U 0.99249 0.8551 0.58628 0.0
O487 O 1.01272 0.83669 0.58189 0.0
O488 O 0.99542 0.83308 0.60281 0.0
C489 C 1.00799 0.82683 0.59415 0.0
C490 C 0.96671 0.85493 0.56547 0.0
C491 C 1.00831 0.80826 0.59129 0.0
C492 C 0.01633 0.78392 0.5745 0.0
C493 C 0.01369 0.80128 0.57609 0.0
C494 C 1.00798 0.77995 0.60311 0.0
C495 C 0.01379 0.77295 0.58807 0.0
C496 C 1.00533 0.79729 0.60469 0.0
C497 C 0.01442 0.89326 0.60986 0.0
C498 C 0.02186 0.90418 0.63735 0.0
C499 C 0.03528 0.91564 0.6129 0.0
C500 C 0.02606 0.90454 0.60286 0.0
C501 C 0.03306 0.91593 0.6303 0.0
C502 C 1.01264 0.89307 0.6273 0.0
C503 C 1.00242 0.88409 0.59876 0.0
O504 O 0.98248 0.85587 0.56059 0.0
O505 O 0.96522 0.85274 0.58163 0.0
O506 O 0.99084 0.87458 0.60565 0.0
O507 O 1.00816 0.87794 0.58467 0.0
H508 H 0.95037 0.88284 0.57823 0.0
H509 H 0.92901 0.9001 0.5643 0.0
H510 H 0.93426 0.87003 0.51995 0.0
H511 H 0.95521 0.85274 0.53403 0.0
H512 H 0.021 0.77921 0.56275 0.0
H513 H 0.01639 0.80926 0.56553 0.0
H514 H 1.00561 0.77205 0.61381 0.0
H515 H 1.0014 0.80219 0.61665 0.0
H516 H 0.01997 0.90373 0.65069 0.0
H517 H 0.04359 0.92453 0.6069 0.0
H518 H 0.02753 0.9053 0.58947 0.0
H519 H 1.0037 0.88474 0.6332 0.0
C520 C 1.00049 0.644 0.61328 0.0
C521 C 1.01066 0.63073 0.61887 0.0
C522 C 0.98575 0.61488 0.62782 0.0
C523 C 1.00338 0.61634 0.62603 0.0
C524 C 0.97568 0.62819 0.62203 0.0
C525 C 0.98295 0.6425 0.6149 0.0
U526 U 0.03232 0.67082 0.58725 0.0
O527 O 0.02691 0.69262 0.5711 0.0
O528 O 0.04292 0.69568 0.59306 0.0
C529 C 0.03526 0.70315 0.58057 0.0
C530 C 1.00759 0.65982 0.60638 0.0
C531 C 0.02773 0.72015 0.58347 0.0
C532 C 0.01519 0.74565 0.57178 0.0
C533 C 0.02008 0.7288 0.57018 0.0
C534 C 0.02513 0.74569 0.60017 0.0
C535 C 0.01786 0.75451 0.58672 0.0
C536 C 0.03003 0.72883 0.59855 0.0
C537 C 0.06886 0.64551 0.56423 0.0
C538 C 0.09711 0.63341 0.56198 0.0
C539 C 0.08126 0.63932 0.53701 0.0
C540 C 0.0679 0.64551 0.54672 0.0
C541 C 0.09594 0.6328 0.54449 0.0
C542 C 0.08378 0.63962 0.57167 0.0
C543 C 0.0537 0.64873 0.57483 0.0
O544 O 0.02224 0.66483 0.61215 0.0
O545 O 1.00605 0.66215 0.59025 0.0
O546 O 0.03955 0.65308 0.56749 0.0
O547 O 0.05584 0.65611 0.5893 0.0
H548 H 0.02424 0.63152 0.61785 0.0
H549 H 1.01161 0.60647 0.6304 0.0
H550 H 0.96209 0.62751 0.62279 0.0
H551 H 0.97479 0.65252 0.61069 0.0
H552 H 1.00946 0.75177 0.56117 0.0
H553 H 0.01831 0.72266 0.55829 0.0
H554 H 0.02766 0.75198 0.61182 0.0
H555 H 0.03613 0.72279 0.60901 0.0
H556 H 0.10824 0.62876 0.56826 0.0
H557 H 0.07969 0.63892 0.52363 0.0
H558 H 0.05655 0.64965 0.54049 0.0
H559 H 0.08489 0.63917 0.58511 0.0
C560 C 0.95447 0.15853 0.96817 0.0
C561 C 0.94693 0.14495 0.95988 0.0
C562 C 0.92964 0.13849 0.98442 0.0
C563 C 0.9347 0.13504 0.96792 0.0
C564 C 0.93742 0.152 0.99265 0.0
C565 C 0.94961 0.16184 0.98465 0.0
U566 U 0.99248 0.16983 0.93911 0.0
O567 O 1.0127 0.18824 0.9435 0.0
O568 O 0.99542 0.19184 0.92257 0.0
C569 C 1.00798 0.1981 0.93123 0.0
C570 C 0.96669 0.17001 0.95991 0.0
C571 C 1.0083 0.21667 0.93408 0.0
C572 C 0.0163 0.24102 0.95086 0.0
C573 C 0.01367 0.22366 0.94928 0.0
C574 C 1.00796 0.24497 0.92224 0.0
C575 C 0.01377 0.25198 0.93729 0.0
C576 C 1.00531 0.22763 0.92067 0.0
C577 C 0.01443 0.13166 0.91556 0.0
C578 C 0.02186 0.12067 0.88809 0.0
C579 C 0.03534 0.1093 0.91255 0.0
C580 C 0.02611 0.12042 0.92258 0.0
C581 C 0.03308 0.10896 0.89515 0.0
C582 C 1.01263 0.13179 0.89813 0.0
C583 C 1.00243 0.14084 0.92666 0.0
O584 O 0.98246 0.16907 0.96479 0.0
O585 O 0.96521 0.17219 0.94375 0.0
O586 O 0.99085 0.15034 0.91975 0.0
O587 O 1.00816 0.14699 0.94074 0.0
H588 H 0.95036 0.1421 0.94715 0.0
H589 H 0.929 0.12484 0.96108 0.0
H590 H 0.93423 0.15492 1.00543 0.0
H591 H 0.95518 0.17221 0.99135 0.0
H592 H 0.02098 0.24573 0.96261 0.0
H593 H 0.01637 0.21568 0.95985 0.0
H594 H 1.00559 0.25287 0.91154 0.0
H595 H 1.00139 0.22273 0.90872 0.0
H596 H 0.01994 0.12108 0.87475 0.0
H597 H 0.04367 0.10044 0.91856 0.0
H598 H 0.0276 0.1197 0.93596 0.0
H599 H 1.00366 0.14009 0.89222 0.0
C600 C 1.00047 0.38094 0.91209 0.0
C601 C 1.01066 0.39422 0.90652 0.0
C602 C 0.98575 0.41008 0.89757 0.0
C603 C 1.00338 0.40862 0.89937 0.0
C604 C 0.97568 0.39676 0.90334 0.0
C605 C 0.98294 0.38245 0.91046 0.0
U606 U 0.03232 0.35411 0.93808 0.0
O607 O 0.02692 0.33231 0.95424 0.0
O608 O 0.0429 0.32924 0.93225 0.0
C609 C 0.03526 0.32177 0.94475 0.0
C610 C 1.00758 0.36512 0.91898 0.0
C611 C 0.02772 0.30478 0.94187 0.0
C612 C 0.01518 0.27929 0.95356 0.0
C613 C 0.02007 0.29614 0.95515 0.0
C614 C 0.02511 0.27923 0.92518 0.0
C615 C 0.01784 0.27042 0.93863 0.0
C616 C 0.03002 0.29609 0.92678 0.0
C617 C 0.0689 0.3794 0.96105 0.0
C618 C 0.09712 0.39158 0.96328 0.0
C619 C 0.08135 0.38549 0.98827 0.0
C620 C 0.06799 0.37931 0.97856 0.0
C621 C 0.096 0.39209 0.98078 0.0
C622 C 0.08378 0.38537 0.95359 0.0
C623 C 0.05372 0.37618 0.95048 0.0
O624 O 0.02222 0.3601 0.91319 0.0
O625 O 1.00605 0.36279 0.93511 0.0
O626 O 0.03959 0.37184 0.95784 0.0
O627 O 0.05585 0.3688 0.936 0.0
H628 H 0.02423 0.39343 0.90756 0.0
H629 H 1.01161 0.41849 0.89502 0.0
H630 H 0.96209 0.39745 0.90256 0.0
H631 H 0.97478 0.37243 0.91465 0.0
H632 H 1.00944 0.27317 0.96417 0.0
H633 H 0.0183 0.30228 0.96704 0.0
H634 H 0.02764 0.27293 0.91352 0.0
H635 H 0.03611 0.30213 0.91632 0.0
H636 H 0.10821 0.39629 0.95699 0.0
H637 H 0.07982 0.38582 1.00165 0.0
H638 H 0.05667 0.3751 0.98481 0.0
H639 H 0.08485 0.38589 0.94016 0.0
C640 C 0.55742 0.95383 0.86447 0.0
C641 C 0.56605 0.9464 0.87788 0.0
C642 C 0.54149 0.92898 0.88461 0.0
C643 C 0.55817 0.93416 0.88783 0.0
C644 C 0.53292 0.93662 0.87125 0.0
C645 C 0.54077 0.94882 0.86135 0.0
U646 U 0.58623 0.99203 0.85366 0.0
O647 O 0.60292 0.99557 0.83194 0.0
O648 O 0.58157 0.01249 0.83564 0.0
C649 C 0.59431 1.00833 0.82605 0.0
C650 C 0.56551 0.96617 0.85305 0.0
C651 C 0.59181 1.00932 0.80765 0.0
C652 C 0.58485 0.99711 0.78059 0.0
C653 C 0.58596 0.9958 0.79808 0.0
C654 C 0.59519 0.02548 0.78196 0.0
C655 C 0.58961 1.01195 0.77217 0.0
C656 C 0.59624 0.02417 0.79937 0.0
C657 C 0.60974 0.01348 0.89197 0.0
C658 C 0.63747 0.02123 0.90279 0.0
C659 C 0.61258 0.03402 0.91443 0.0
C660 C 0.60252 0.02481 0.90333 0.0
C661 C 0.63022 0.03211 0.91461 0.0
C662 C 0.6274 1.01202 0.89169 0.0
C663 C 0.59866 1.00152 0.88272 0.0
O664 O 0.56037 0.98176 0.85418 0.0
O665 O 0.58186 0.96494 0.85079 0.0
O666 O 0.60578 0.99026 0.8731 0.0
O667 O 0.58434 1.00713 0.87667 0.0
H668 H 0.57892 0.94995 0.8806 0.0
H669 H 0.56529 0.92856 0.89789 0.0
H670 H 0.51999 0.93334 0.86849 0.0
H671 H 0.5338 0.9543 0.85111 0.0
H672 H 0.58024 0.98644 0.77367 0.0
H673 H 0.58243 0.98419 0.8041 0.0
H674 H 0.59927 0.03702 0.77617 0.0
H675 H 0.60089 0.03477 0.8064 0.0
H676 H 0.65099 0.01958 0.90226 0.0
H677 H 0.60642 0.04207 0.92338 0.0
H678 H 0.58896 0.02603 0.90416 0.0
H679 H 0.63347 1.00333 0.88329 0.0
C680 C 0.41237 0.50282 0.88077 0.0
C681 C 0.40007 0.51183 0.88966 0.0
C682 C 0.39622 0.48858 0.90929 0.0
C683 C 0.39215 0.50483 0.9037 0.0
C684 C 0.40881 0.47977 0.90056 0.0
C685 C 0.4167 0.48675 0.88652 0.0
U686 U 0.43899 0.5335 0.85335 0.0
O687 O 0.45541 0.5279 0.83187 0.0
O688 O 0.43324 0.5438 0.82839 0.0
C689 C 0.44617 0.53645 0.82127 0.0
C690 C 0.41963 0.50915 0.86475 0.0
C691 C 0.44369 0.52926 0.80429 0.0
C692 C 0.43736 0.50623 0.78525 0.0
C693 C 0.43843 0.5127 0.80157 0.0
C694 C 0.44658 0.53278 0.77414 0.0
C695 C 0.44159 0.51612 0.77122 0.0
C696 C 0.44758 0.53921 0.79038 0.0
C697 C 0.46137 0.57065 0.87804 0.0
C698 C 0.46321 0.60109 0.88076 0.0
C699 C 0.48518 0.58377 0.89239 0.0
C700 C 0.47679 0.56942 0.8866 0.0
C701 C 0.47832 0.59984 0.88992 0.0
C702 C 0.45484 0.58674 0.87497 0.0
C703 C 0.45104 0.55527 0.87509 0.0
O704 O 0.41377 0.52337 0.85887 0.0
O705 O 0.43599 0.50762 0.86268 0.0
O706 O 0.45885 0.54135 0.87104 0.0
O707 O 0.43638 0.55689 0.86765 0.0
H708 H 0.39624 0.52417 0.88557 0.0
H709 H 0.3824 0.51201 0.90984 0.0
H710 H 0.41255 0.46736 0.90452 0.0
H711 H 0.42601 0.4794 0.87992 0.0
H712 H 0.43321 0.49344 0.78368 0.0
H713 H 0.43533 0.50472 0.81203 0.0
H714 H 0.45025 0.54081 0.76392 0.0
H715 H 0.45178 0.55199 0.7921 0.0
H716 H 0.45763 0.6132 0.8783 0.0
H717 H 0.49666 0.58217 0.89949 0.0
H718 H 0.48204 0.55725 0.88951 0.0
H719 H 0.44292 0.58827 0.86861 0.0
C720 C 0.55738 0.07106 0.66086 0.0
C721 C 0.56605 0.07851 0.64748 0.0
C722 C 0.54149 0.09592 0.64071 0.0
C723 C 0.55819 0.09076 0.63752 0.0
C724 C 0.53289 0.08826 0.65404 0.0
C725 C 0.54072 0.07606 0.66394 0.0
U726 U 0.58616 0.03284 0.67175 0.0
O727 O 0.60277 0.0293 0.69353 0.0
O728 O 0.58143 1.01239 0.68978 0.0
C729 C 0.5941 0.01659 0.69943 0.0
C730 C 0.56544 0.05871 0.67229 0.0
C731 C 0.59148 0.0157 0.71783 0.0
C732 C 0.58619 0.02844 0.74502 0.0
C733 C 0.58721 0.0297 0.72752 0.0
C734 C 0.59342 0.99914 0.74344 0.0
C735 C 0.58949 0.01316 0.75334 0.0
C736 C 0.59438 1.00042 0.72601 0.0
C737 C 0.60975 1.01136 0.63349 0.0
C738 C 0.63748 1.00365 0.62264 0.0
C739 C 0.6126 0.99081 0.61104 0.0
C740 C 0.60254 1.00002 0.62214 0.0
C741 C 0.63023 0.99275 0.61083 0.0
C742 C 0.62741 0.01285 0.63374 0.0
C743 C 0.59866 0.02332 0.64273 0.0
O744 O 0.56031 0.04312 0.67116 0.0
O745 O 0.58179 0.05994 0.67459 0.0
O746 O 0.60577 0.03458 0.65237 0.0
O747 O 0.58432 0.01773 0.64875 0.0
H748 H 0.57893 0.07498 0.6448 0.0
H749 H 0.56533 0.09638 0.62749 0.0
H750 H 0.51995 0.09153 0.65676 0.0
H751 H 0.53373 0.07055 0.67415 0.0
H752 H 0.58285 0.03951 0.75202 0.0
H753 H 0.58489 0.04166 0.7216 0.0
H754 H 0.59633 0.98722 0.74914 0.0
H755 H 0.59781 0.98943 0.71889 0.0
H756 H 0.651 1.00532 0.62315 0.0
H757 H 0.60644 0.98275 0.60211 0.0
H758 H 0.58898 0.99878 0.62134 0.0
H759 H 0.63348 0.02156 0.64214 0.0
C760 C 0.41231 0.52213 0.64414 0.0
C761 C 0.4003 0.51294 0.63505 0.0
C762 C 0.39618 0.53625 0.61556 0.0
C763 C 0.39238 0.51988 0.62098 0.0
C764 C 0.40849 0.54525 0.62447 0.0
C765 C 0.41637 0.53832 0.63854 0.0
U766 U 0.43891 0.4915 0.67162 0.0
O767 O 0.45531 0.49714 0.6931 0.0
O768 O 0.43315 0.48122 0.69659 0.0
C769 C 0.44607 0.4886 0.70371 0.0
C770 C 0.41956 0.51583 0.66017 0.0
C771 C 0.44355 0.49582 0.72067 0.0
C772 C 0.43774 0.51901 0.73968 0.0
C773 C 0.43877 0.51252 0.72337 0.0
C774 C 0.44605 0.49219 0.75085 0.0
C775 C 0.44155 0.509 0.75374 0.0
C776 C 0.447 0.48574 0.73461 0.0
C777 C 0.46134 0.45434 0.64699 0.0
C778 C 0.46324 0.42389 0.64441 0.0
C779 C 0.48512 0.4412 0.6326 0.0
C780 C 0.47672 0.45556 0.63835 0.0
C781 C 0.47831 0.42513 0.63518 0.0
C782 C 0.45486 0.43825 0.65016 0.0
C783 C 0.451 0.46972 0.64991 0.0
O784 O 0.4137 0.50161 0.66606 0.0
O785 O 0.43591 0.51738 0.66226 0.0
O786 O 0.45879 0.48365 0.65396 0.0
O787 O 0.43634 0.46809 0.65735 0.0
H788 H 0.39669 0.5005 0.63901 0.0
H789 H 0.38285 0.51255 0.61469 0.0
H790 H 0.41202 0.55775 0.62064 0.0
H791 H 0.42547 0.5458 0.64529 0.0
H792 H 0.43397 0.53192 0.74123 0.0
H793 H 0.43603 0.52061 0.71289 0.0
H794 H 0.44937 0.48404 0.7611 0.0
H795 H 0.45084 0.47285 0.73292 0.0
H796 H 0.4577 0.41178 0.64696 0.0
H797 H 0.49656 0.44279 0.62545 0.0
H798 H 0.48194 0.46772 0.63537 0.0
H799 H 0.44297 0.43672 0.65659 0.0
C800 C 0.86719 0.55852 0.95111 0.0
C801 C 0.87217 0.54162 0.95155 0.0
C802 C 0.88621 0.54413 0.92445 0.0
C803 C 0.88157 0.53456 0.93848 0.0
C804 C 0.88143 0.56113 0.92417 0.0
C805 C 0.87206 0.56819 0.93725 0.0
U806 U 0.8558 0.58451 0.99094 0.0
O807 O 0.83362 0.60051 0.9955 0.0
O808 O 0.83781 0.57846 1.01116 0.0
C809 C 0.82791 0.5912 1.00777 0.0
C810 C 0.85552 0.56535 0.96413 0.0
C811 C 0.80932 0.58852 1.00881 0.0
C812 C 0.78167 0.58365 0.9963 0.0
C813 C 0.79936 0.58463 0.99489 0.0
C814 C 0.78363 0.59018 0.02558 0.0
C815 C 0.77344 0.58664 1.01165 0.0
C816 C 0.80124 0.59108 0.02416 0.0
C817 C 0.89415 0.60789 0.0129 0.0
C818 C 0.90437 0.63539 0.02165 0.0
C819 C 0.91707 0.6105 0.03316 0.0
C820 C 0.90602 0.60058 0.02372 0.0
C821 C 0.91672 0.62808 0.03199 0.0
C822 C 0.89331 0.62547 1.01221 0.0
C823 C 0.88498 0.59716 1.00063 0.0
O824 O 0.85701 0.55945 0.97935 0.0
O825 O 0.85238 0.5815 0.96385 0.0
O826 O 0.87494 0.60446 0.98981 0.0
O827 O 0.87928 0.58255 1.00565 0.0
H828 H 0.8685 0.5337 0.96187 0.0
H829 H 0.88512 0.52151 0.93936 0.0
H830 H 0.88444 0.56893 0.91356 0.0
H831 H 0.86826 0.58116 0.93624 0.0
H832 H 0.77445 0.58061 0.98529 0.0
H833 H 0.8052 0.58259 0.98288 0.0
H834 H 0.77801 0.59283 0.03756 0.0
H835 H 0.80858 0.59423 0.03509 0.0
H836 H 0.90342 0.64886 0.02059 0.0
H837 H 0.92643 0.60432 0.0408 0.0
H838 H 0.90727 0.5871 0.02434 0.0
H839 H 0.8845 0.63162 1.00394 0.0
C840 C 0.86708 0.46631 0.57447 0.0
C841 C 0.87194 0.48325 0.57405 0.0
C842 C 0.8861 0.48079 0.60108 0.0
C843 C 0.88133 0.49036 0.58709 0.0
C844 C 0.88144 0.46376 0.60135 0.0
C845 C 0.87207 0.45666 0.58831 0.0
U846 U 0.85588 0.44023 0.53469 0.0
O847 O 0.83385 0.42401 0.53012 0.0
O848 O 0.83787 0.4461 0.51447 0.0
C849 C 0.82813 0.43321 0.51778 0.0
C850 C 0.85543 0.45942 0.56147 0.0
C851 C 0.80953 0.43561 0.51654 0.0
C852 C 0.78217 0.44409 0.52769 0.0
C853 C 0.79984 0.44291 0.52924 0.0
C854 C 0.78364 0.43087 0.50071 0.0
C855 C 0.77371 0.43796 0.51342 0.0
C856 C 0.80122 0.42975 0.50226 0.0
C857 C 0.89437 0.41705 0.51278 0.0
C858 C 0.90449 0.38955 0.50392 0.0
C859 C 0.91739 0.41444 0.49263 0.0
C860 C 0.90633 0.42436 0.50208 0.0
C861 C 0.91693 0.39686 0.49369 0.0
C862 C 0.89343 0.39947 0.51336 0.0
C863 C 0.88516 0.42777 0.52504 0.0
O864 O 0.85689 0.46531 0.54624 0.0
O865 O 0.8524 0.44324 0.56176 0.0
O866 O 0.87518 0.42043 0.53589 0.0
O867 O 0.87937 0.44232 0.51998 0.0
H868 H 0.86818 0.49116 0.56374 0.0
H869 H 0.88479 0.50342 0.58621 0.0
H870 H 0.88455 0.45596 0.61194 0.0
H871 H 0.86837 0.44366 0.58931 0.0
H872 H 0.77514 0.44985 0.53771 0.0
H873 H 0.8059 0.44755 0.54039 0.0
H874 H 0.77783 0.4257 0.48967 0.0
H875 H 0.80835 0.42397 0.49231 0.0
H876 H 0.90346 0.37608 0.5049 0.0
H877 H 0.92682 0.42062 0.48508 0.0
H878 H 0.90766 0.43784 0.50154 0.0
H879 H 0.88453 0.39332 0.52155 0.0
C880 C 0.16136 0.05555 0.5723 0.0
C881 C 0.14824 0.06436 0.58017 0.0
C882 C 0.14129 0.03988 0.59737 0.0
C883 C 0.13832 0.05661 0.59252 0.0
C884 C 0.15434 0.03113 0.58928 0.0
C885 C 0.1642 0.03885 0.57698 0.0
U886 U 0.17221 0.08368 0.5338 0.0
O887 O 0.19429 0.09998 0.52987 0.0
O888 O 0.19025 0.07855 0.51339 0.0
C889 C 0.20012 0.09114 0.51733 0.0
C890 C 0.17282 0.06346 0.55985 0.0
C891 C 0.21872 0.08841 0.51636 0.0
C892 C 0.24645 0.08459 0.52908 0.0
C893 C 0.22877 0.08555 0.53049 0.0
C894 C 0.24435 0.08902 0.49941 0.0
C895 C 0.25461 0.08656 0.51353 0.0
C896 C 0.22673 0.08991 0.50083 0.0
C897 C 0.13357 0.10687 0.51206 0.0
C898 C 0.11866 0.11013 0.48556 0.0
C899 C 0.11432 0.13037 0.50743 0.0
C900 C 0.12573 0.12163 0.51761 0.0
C901 C 0.11031 0.12457 0.49135 0.0
C902 C 0.13006 0.10138 0.49577 0.0
C903 C 0.14288 0.0961 0.52423 0.0
O904 O 0.17162 0.05815 0.54442 0.0
O905 O 0.17516 0.07972 0.56083 0.0
O906 O 0.15272 0.10343 0.53519 0.0
O907 O 0.14886 0.08168 0.51907 0.0
H908 H 0.14575 0.07727 0.57691 0.0
H909 H 0.1285 0.06385 0.59846 0.0
H910 H 0.15687 0.01817 0.5923 0.0
H911 H 0.17421 0.03175 0.57116 0.0
H912 H 0.25373 0.08239 0.54026 0.0
H913 H 0.22299 0.08432 0.54264 0.0
H914 H 0.24992 0.09086 0.48725 0.0
H915 H 0.21934 0.09225 0.48973 0.0
H916 H 0.11583 0.10507 0.47339 0.0
H917 H 0.1084 0.14153 0.51232 0.0
H918 H 0.12791 0.12611 0.53015 0.0
H919 H 0.13559 0.08993 0.49109 0.0
C920 C 0.66153 0.46918 0.45317 0.0
C921 C 0.64778 0.46067 0.44609 0.0
C922 C 0.64133 0.48477 0.42817 0.0
C923 C 0.63779 0.46838 0.43377 0.0
C924 C 0.65504 0.49321 0.43548 0.0
C925 C 0.66496 0.48553 0.44775 0.0
U926 U 0.6723 0.44109 0.49171 0.0
O927 O 0.69439 0.42479 0.49568 0.0
O928 O 0.69032 0.44624 0.51213 0.0
C929 C 0.70021 0.43366 0.5082 0.0
C930 C 0.67297 0.46129 0.46565 0.0
C931 C 0.7188 0.43641 0.50916 0.0
C932 C 0.74655 0.44009 0.49641 0.0
C933 C 0.72886 0.43912 0.49501 0.0
C934 C 0.74443 0.43595 0.52612 0.0
C935 C 0.7547 0.43827 0.51199 0.0
C936 C 0.72681 0.43505 0.52471 0.0
C937 C 0.63365 0.41792 0.51343 0.0
C938 C 0.61872 0.41467 0.53991 0.0
C939 C 0.61441 0.39441 0.51805 0.0
C940 C 0.62582 0.40314 0.50788 0.0
C941 C 0.61037 0.40022 0.53412 0.0
C942 C 0.63012 0.42341 0.52971 0.0
C943 C 0.64296 0.42867 0.50126 0.0
O944 O 0.67172 0.46661 0.48107 0.0
O945 O 0.67528 0.44503 0.46468 0.0
O946 O 0.65282 0.42134 0.49031 0.0
O947 O 0.64894 0.4431 0.50642 0.0
H948 H 0.64482 0.44803 0.44996 0.0
H949 H 0.62744 0.46138 0.42844 0.0
H950 H 0.65804 0.50592 0.43187 0.0
H951 H 0.67547 0.49239 0.45298 0.0
H952 H 0.75383 0.44218 0.48521 0.0
H953 H 0.72309 0.44023 0.48284 0.0
H954 H 0.75 0.43423 0.5383 0.0
H955 H 0.71941 0.43282 0.53582 0.0
H956 H 0.61586 0.41973 0.55208 0.0
H957 H 0.60849 0.38325 0.51316 0.0
H958 H 0.62801 0.39866 0.49534 0.0
H959 H 0.63563 0.43487 0.53439 0.0
C960 C 0.50116 0.64408 0.91224 0.0
C961 C 0.51133 0.63122 0.90577 0.0
C962 C 0.48635 0.6151 0.89755 0.0
C963 C 0.50402 0.6169 0.89854 0.0
C964 C 0.4763 0.62798 0.90423 0.0
C965 C 0.4836 0.64222 0.91143 0.0
U966 U 0.53292 0.67093 0.93828 0.0
O967 O 0.54344 0.69585 0.93249 0.0
O968 O 0.52743 0.69266 0.95444 0.0
C969 C 0.53575 0.70325 0.94498 0.0
C970 C 0.50824 0.6599 0.91914 0.0
C971 C 0.52816 0.72023 0.94209 0.0
C972 C 0.5155 0.74564 0.95377 0.0
C973 C 0.52046 0.72881 0.95537 0.0
C974 C 0.52548 0.74581 0.9254 0.0
C975 C 0.51816 0.75456 0.93884 0.0
C976 C 0.53045 0.72897 0.92701 0.0
C977 C 0.56953 0.64571 0.96135 0.0
C978 C 0.59794 0.63399 0.9636 0.0
C979 C 0.58184 0.63921 0.98855 0.0
C980 C 0.56846 0.64538 0.97885 0.0
C981 C 0.59667 0.63305 0.98107 0.0
C982 C 0.58458 0.64018 0.95391 0.0
C983 C 0.55436 0.64889 0.95073 0.0
O984 O 0.50668 0.6622 0.93527 0.0
O985 O 0.52288 0.66497 0.91337 0.0
O986 O 0.5565 0.65631 0.93626 0.0
O987 O 0.54019 0.65316 0.95805 0.0
H988 H 0.52492 0.63229 0.90614 0.0
H989 H 0.51223 0.60737 0.89348 0.0
H990 H 0.4627 0.62701 0.90409 0.0
H991 H 0.47543 0.65191 0.9163 0.0
H992 H 0.50973 0.75171 0.96437 0.0
H993 H 0.51869 0.72263 0.96725 0.0
H994 H 0.52801 0.75215 0.91375 0.0
H995 H 0.53658 0.72298 0.91656 0.0
H996 H 0.60917 0.62962 0.95732 0.0
H997 H 0.58018 0.63854 1.00191 0.0
H998 H 0.55701 0.64923 0.98508 0.0
H999 H 0.58578 0.63998 0.94048 0.0
C1000 C 0.45443 0.86615 0.96844 0.0
C1001 C 0.44789 0.88046 0.96055 0.0
C1002 C 0.42969 0.88632 0.98458 0.0
C1003 C 0.4357 0.89044 0.96854 0.0
C1004 C 0.43647 0.87204 0.99242 0.0
C1005 C 0.44861 0.86213 0.98446 0.0
U1006 U 0.49244 0.85505 0.93936 0.0
O1007 O 0.51274 0.8367 0.94371 0.0
O1008 O 0.49542 0.83309 0.92282 0.0
C1009 C 0.50802 0.82685 0.93145 0.0
C1010 C 0.46669 0.85472 0.96021 0.0
C1011 C 0.50842 0.80828 0.9343 0.0
C1012 C 0.5165 0.78392 0.95108 0.0
C1013 C 0.51381 0.80127 0.9495 0.0
C1014 C 0.50819 0.78001 0.92246 0.0
C1015 C 0.51402 0.77299 0.93751 0.0
C1016 C 0.50549 0.79734 0.92089 0.0
C1017 C 0.51422 0.89327 0.91568 0.0
C1018 C 0.52137 0.90451 0.88821 0.0
C1019 C 0.53536 0.91539 0.91258 0.0
C1020 C 0.52614 0.90427 0.92263 0.0
C1021 C 0.53285 0.91598 0.89522 0.0
C1022 C 0.51215 0.89338 0.89827 0.0
C1023 C 0.50226 0.88409 0.92683 0.0
O1024 O 0.46519 0.85257 0.94405 0.0
O1025 O 0.48246 0.85575 0.96506 0.0
O1026 O 0.50803 0.87794 0.94091 0.0
O1027 O 0.49067 0.87456 0.91999 0.0
H1028 H 0.45209 0.88386 0.94818 0.0
H1029 H 0.43078 0.90124 0.96201 0.0
H1030 H 0.43254 0.86857 1.00485 0.0
H1031 H 0.45343 0.85118 0.99084 0.0
H1032 H 0.52119 0.77919 0.96284 0.0
H1033 H 0.51647 0.80923 0.96007 0.0
H1034 H 0.50587 0.77213 0.91175 0.0
H1035 H 0.50155 0.80226 0.90894 0.0
H1036 H 0.51924 0.90428 0.8749 0.0
H1037 H 0.5439 0.92407 0.91855 0.0
H1038 H 0.52784 0.9048 0.936 0.0
H1039 H 0.50299 0.88527 0.89241 0.0
C1040 C 0.50116 0.38084 0.61296 0.0
C1041 C 0.51133 0.39375 0.61933 0.0
C1042 C 0.48634 0.40985 0.62759 0.0
C1043 C 0.50401 0.40809 0.62652 0.0
C1044 C 0.47629 0.39692 0.62101 0.0
C1045 C 0.48359 0.38266 0.61384 0.0
U1046 U 0.53298 0.354 0.587 0.0
O1047 O 0.5435 0.32908 0.59282 0.0
O1048 O 0.52754 0.33226 0.57083 0.0
C1049 C 0.53584 0.32167 0.58032 0.0
C1050 C 0.50826 0.36502 0.60608 0.0
C1051 C 0.52825 0.3047 0.5832 0.0
C1052 C 0.51561 0.27929 0.5715 0.0
C1053 C 0.52056 0.29612 0.56991 0.0
C1054 C 0.52553 0.27912 0.59989 0.0
C1055 C 0.51824 0.27037 0.58644 0.0
C1056 C 0.53051 0.29596 0.59829 0.0
C1057 C 0.56964 0.37923 0.56402 0.0
C1058 C 0.59804 0.39099 0.56185 0.0
C1059 C 0.58203 0.38573 0.53685 0.0
C1060 C 0.56863 0.37955 0.54652 0.0
C1061 C 0.59682 0.39192 0.54437 0.0
C1062 C 0.58466 0.38479 0.5715 0.0
C1063 C 0.55445 0.37604 0.5746 0.0
O1064 O 0.50673 0.36272 0.58995 0.0
O1065 O 0.52288 0.35995 0.61188 0.0
O1066 O 0.55655 0.36862 0.58908 0.0
O1067 O 0.5403 0.37176 0.56725 0.0
H1068 H 0.52492 0.39272 0.61889 0.0
H1069 H 0.51222 0.41766 0.6315 0.0
H1070 H 0.4627 0.39785 0.62121 0.0
H1071 H 0.47544 0.37293 0.60905 0.0
H1072 H 0.50985 0.27321 0.5609 0.0
H1073 H 0.51882 0.30229 0.55803 0.0
H1074 H 0.52804 0.27279 0.61155 0.0
H1075 H 0.53662 0.30196 0.60875 0.0
H1076 H 0.60925 0.39538 0.56816 0.0
H1077 H 0.58041 0.38639 0.52349 0.0
H1078 H 0.5572 0.37568 0.54026 0.0
H1079 H 0.58583 0.385 0.58493 0.0
C1080 C 0.45458 0.15879 0.55676 0.0
C1081 C 0.44787 0.14458 0.56471 0.0
C1082 C 0.42985 0.13866 0.54057 0.0
C1083 C 0.43568 0.13462 0.55669 0.0
C1084 C 0.4368 0.15282 0.53268 0.0
C1085 C 0.44894 0.16271 0.54066 0.0
U1086 U 0.49254 0.16988 0.58591 0.0
O1087 O 0.51284 0.18823 0.58159 0.0
O1088 O 0.49549 0.19184 0.60246 0.0
C1089 C 0.5081 0.19808 0.59384 0.0
C1090 C 0.46683 0.17022 0.56502 0.0
C1091 C 0.5085 0.21665 0.59099 0.0
C1092 C 0.5166 0.241 0.57421 0.0
C1093 C 0.51391 0.22365 0.5758 0.0
C1094 C 0.50825 0.24492 0.60282 0.0
C1095 C 0.5141 0.25194 0.58778 0.0
C1096 C 0.50554 0.22759 0.60439 0.0
C1097 C 0.51428 0.13166 0.60962 0.0
C1098 C 0.52137 0.12039 0.63709 0.0
C1099 C 0.53543 0.10954 0.61274 0.0
C1100 C 0.52623 0.12068 0.60268 0.0
C1101 C 0.53287 0.10893 0.63009 0.0
C1102 C 0.51217 0.13153 0.62702 0.0
C1103 C 0.50233 0.14084 0.59845 0.0
O1104 O 0.46529 0.17237 0.58118 0.0
O1105 O 0.48261 0.16919 0.5602 0.0
O1106 O 0.50814 0.14699 0.58438 0.0
O1107 O 0.49074 0.15037 0.60528 0.0
H1108 H 0.45193 0.14125 0.57715 0.0
H1109 H 0.43063 0.12391 0.56327 0.0
H1110 H 0.433 0.15622 0.52018 0.0
H1111 H 0.45389 0.17358 0.53424 0.0
H1112 H 0.5213 0.24573 0.56246 0.0
H1113 H 0.51659 0.21569 0.56523 0.0
H1114 H 0.5059 0.2528 0.61352 0.0
H1115 H 0.50159 0.22268 0.61634 0.0
H1116 H 0.51921 0.1206 0.6504 0.0
H1117 H 0.54399 0.10088 0.60678 0.0
H1118 H 0.52796 0.12015 0.58932 0.0
H1119 H 0.50298 0.13962 0.63287 0.0
C1120 C 0.91142 0.50266 0.64415 0.0
C1121 C 0.89968 0.51199 0.63484 0.0
C1122 C 0.89533 0.48858 0.61555 0.0
C1123 C 0.89178 0.50507 0.62076 0.0
C1124 C 0.90739 0.47944 0.62469 0.0
C1125 C 0.91525 0.48635 0.63877 0.0
U1126 U 0.93805 0.53321 0.67164 0.0
O1127 O 0.93224 0.54353 0.69657 0.0
O1128 O 0.95434 0.52752 0.6932 0.0
C1129 C 0.94512 0.53612 0.70375 0.0
C1130 C 0.91863 0.50896 0.66019 0.0
C1131 C 0.94258 0.529 0.72077 0.0
C1132 C 0.9367 0.50594 0.73997 0.0
C1133 C 0.93774 0.51233 0.7236 0.0
C1134 C 0.94512 0.53278 0.75092 0.0
C1135 C 0.94056 0.51601 0.75395 0.0
C1136 C 0.94608 0.53913 0.73462 0.0
C1137 C 0.96073 0.57026 0.647 0.0
C1138 C 0.96308 0.60073 0.64518 0.0
C1139 C 0.98415 0.58342 0.63203 0.0
C1140 C 0.97573 0.56904 0.63773 0.0
C1141 C 0.97774 0.59952 0.63532 0.0
C1142 C 0.95468 0.58634 0.65087 0.0
C1143 C 0.95031 0.55493 0.64992 0.0
O1144 O 0.93497 0.50734 0.66235 0.0
O1145 O 0.91281 0.52321 0.666 0.0
O1146 O 0.93563 0.55663 0.6573 0.0
O1147 O 0.95803 0.54097 0.65403 0.0
H1148 H 0.89626 0.52453 0.63863 0.0
H1149 H 0.88246 0.51251 0.61429 0.0
H1150 H 0.91074 0.46685 0.62103 0.0
H1151 H 0.92413 0.47877 0.64569 0.0
H1152 H 0.93287 0.49305 0.74161 0.0
H1153 H 0.93496 0.5042 0.71318 0.0
H1154 H 0.94849 0.54097 0.7611 0.0
H1155 H 0.94997 0.552 0.73283 0.0
H1156 H 0.95787 0.61285 0.64828 0.0
H1157 H 0.99526 0.58186 0.62439 0.0
H1158 H 0.9806 0.55689 0.63421 0.0
H1159 H 0.9431 0.58786 0.65782 0.0
C1160 C 0.05755 0.95373 0.66107 0.0
C1161 C 0.06606 0.94664 0.64743 0.0
C1162 C 0.04168 0.9289 0.64093 0.0
C1163 C 0.05822 0.93441 0.63748 0.0
C1164 C 0.03323 0.93621 0.65454 0.0
C1165 C 0.04106 0.94839 0.66443 0.0
U1166 U 0.08648 0.99183 0.67183 0.0
O1167 O 0.08185 1.01235 0.68977 0.0
O1168 O 0.10309 0.99532 0.69362 0.0
C1169 C 0.09451 1.00811 0.69943 0.0
C1170 C 0.06563 0.96608 0.67247 0.0
C1171 C 0.09194 1.00914 0.71783 0.0
C1172 C 0.08553 0.99681 0.74501 0.0
C1173 C 0.08662 0.99546 0.72751 0.0
C1174 C 0.09482 0.02552 0.74341 0.0
C1175 C 0.0898 1.01184 0.75332 0.0
C1176 C 0.09584 0.02418 0.726 0.0
C1177 C 0.11033 0.01302 0.63348 0.0
C1178 C 0.13792 0.01968 0.6216 0.0
C1179 C 0.11327 0.03425 0.61162 0.0
C1180 C 0.10323 0.02516 0.62287 0.0
C1181 C 0.13075 0.03138 0.61051 0.0
C1182 C 0.12788 1.0106 0.63284 0.0
C1183 C 0.09912 1.00119 0.64279 0.0
O1184 O 0.08196 0.96477 0.67481 0.0
O1185 O 0.06058 0.98169 0.67122 0.0
O1186 O 0.08481 1.0069 0.64876 0.0
O1187 O 0.10612 0.98989 0.65249 0.0
H1188 H 0.07882 0.95045 0.64453 0.0
H1189 H 0.06524 0.92907 0.62723 0.0
H1190 H 0.02041 0.93267 0.65748 0.0
H1191 H 0.03418 0.95363 0.67485 0.0
H1192 H 0.08135 0.986 0.752 0.0
H1193 H 0.08351 0.9837 0.72159 0.0
H1194 H 0.09851 0.03723 0.7491 0.0
H1195 H 0.10009 0.0349 0.71888 0.0
H1196 H 0.15134 0.01728 0.62141 0.0
H1197 H 0.10717 0.04298 0.60326 0.0
H1198 H 0.08974 0.02714 0.62273 0.0
H1199 H 0.13385 1.00125 0.64062 0.0
C1200 C 0.91149 0.52236 0.88131 0.0
C1201 C 0.89985 0.51297 0.89069 0.0
C1202 C 0.89543 0.53637 0.90996 0.0
C1203 C 0.89196 0.51986 0.90479 0.0
C1204 C 0.90738 0.54558 0.90075 0.0
C1205 C 0.91523 0.53869 0.88665 0.0
U1206 U 0.93809 0.4918 0.8538 0.0
O1207 O 0.93228 0.4815 0.82887 0.0
O1208 O 0.9544 0.49749 0.83225 0.0
C1209 C 0.94517 0.48889 0.8217 0.0
C1210 C 0.91869 0.51606 0.86526 0.0
C1211 C 0.94266 0.496 0.80467 0.0
C1212 C 0.93645 0.51897 0.78546 0.0
C1213 C 0.93751 0.51258 0.80182 0.0
C1214 C 0.94546 0.4923 0.77454 0.0
C1215 C 0.94058 0.50898 0.77149 0.0
C1216 C 0.94644 0.48595 0.79083 0.0
C1217 C 0.96075 0.45474 0.87843 0.0
C1218 C 0.96309 0.42426 0.88022 0.0
C1219 C 0.98415 0.44155 0.89339 0.0
C1220 C 0.97574 0.45594 0.88771 0.0
C1221 C 0.97775 0.42545 0.89009 0.0
C1222 C 0.95469 0.43866 0.87453 0.0
C1223 C 0.95034 0.47007 0.87552 0.0
O1224 O 0.93503 0.51767 0.86311 0.0
O1225 O 0.91286 0.50182 0.85945 0.0
O1226 O 0.93566 0.46838 0.86813 0.0
O1227 O 0.95806 0.48403 0.87142 0.0
H1228 H 0.8965 0.50039 0.88694 0.0
H1229 H 0.88272 0.51237 0.91132 0.0
H1230 H 0.91066 0.5582 0.90437 0.0
H1231 H 0.92404 0.54632 0.87968 0.0
H1232 H 0.93238 0.53178 0.78379 0.0
H1233 H 0.9345 0.52065 0.81223 0.0
H1234 H 0.94905 0.48418 0.76437 0.0
H1235 H 0.95057 0.47316 0.79264 0.0
H1236 H 0.95789 0.41215 0.8771 0.0
H1237 H 0.99526 0.4431 0.90105 0.0
H1238 H 0.98061 0.46809 0.89124 0.0
H1239 H 0.94312 0.43715 0.86757 0.0
C1240 C 0.0576 0.07112 0.86444 0.0
C1241 C 0.06612 0.07826 0.87804 0.0
C1242 C 0.04171 0.09597 0.88455 0.0
C1243 C 0.05827 0.09051 0.88798 0.0
C1244 C 0.03325 0.08861 0.87098 0.0
C1245 C 0.04108 0.07641 0.8611 0.0
U1246 U 0.08653 0.03301 0.85365 0.0
O1247 O 0.08187 0.0125 0.83572 0.0
O1248 O 0.1031 0.02953 0.83184 0.0
C1249 C 0.0945 0.01674 0.82603 0.0
C1250 C 0.06567 0.05877 0.85305 0.0
C1251 C 0.09187 0.01576 0.80763 0.0
C1252 C 0.08601 0.02827 0.78042 0.0
C1253 C 0.08709 0.0296 0.79791 0.0
C1254 C 0.09423 0.99924 0.78208 0.0
C1255 C 0.08977 0.01309 0.77214 0.0
C1256 C 0.09524 1.00057 0.7995 0.0
C1257 C 0.11043 1.0118 0.89197 0.0
C1258 C 0.13804 1.0051 0.90379 0.0
C1259 C 0.11339 0.99058 0.91383 0.0
C1260 C 0.10334 0.99968 0.90261 0.0
C1261 C 0.13087 0.99341 0.9149 0.0
C1262 C 0.12799 0.01419 0.89256 0.0
C1263 C 0.09921 0.02364 0.88268 0.0
O1264 O 0.08201 0.06007 0.85069 0.0
O1265 O 0.06063 0.04316 0.8543 0.0
O1266 O 0.0849 0.01793 0.87672 0.0
O1267 O 0.1062 0.03493 0.87296 0.0
H1268 H 0.07889 0.07449 0.88092 0.0
H1269 H 0.0653 0.09589 0.8982 0.0
H1270 H 0.02041 0.09211 0.86806 0.0
H1271 H 0.0342 0.07114 0.85071 0.0
H1272 H 0.08225 0.03921 0.7734 0.0
H1273 H 0.08439 0.04148 0.8038 0.0
H1274 H 0.09751 0.9874 0.77641 0.0
H1275 H 0.09907 0.98971 0.80664 0.0
H1276 H 0.15146 1.00747 0.90394 0.0
H1277 H 0.10728 0.98187 0.92221 0.0
H1278 H 0.08984 0.99773 0.90278 0.0
H1279 H 0.13395 0.02352 0.88476 0.0
C1280 C 0.66115 0.96828 0.57313 0.0
C1281 C 0.64719 0.95998 0.58007 0.0
C1282 C 0.64091 0.98414 0.59789 0.0
C1283 C 0.63719 0.96782 0.59228 0.0
C1284 C 0.65484 0.99239 0.59073 0.0
C1285 C 0.66478 0.98457 0.57858 0.0
U1286 U 0.67173 0.9403 0.53457 0.0
O1287 O 0.69047 0.94495 0.51478 0.0
O1288 O 0.69314 0.92294 0.53085 0.0
C1289 C 0.69962 0.93179 0.51862 0.0
C1290 C 0.67261 0.96021 0.5608 0.0
C1291 C 0.71837 0.93339 0.51787 0.0
C1292 C 0.74461 0.94944 0.5194 0.0
C1293 C 0.727 0.94829 0.52165 0.0
C1294 C 0.74522 0.92089 0.50964 0.0
C1295 C 0.754 0.93579 0.51315 0.0
C1296 C 0.72775 0.91973 0.51197 0.0
C1297 C 0.63283 0.91826 0.51223 0.0
C1298 C 0.61771 0.91544 0.48582 0.0
C1299 C 0.61379 0.89466 0.5073 0.0
C1300 C 0.62518 0.90329 0.51756 0.0
C1301 C 0.60957 0.90077 0.49138 0.0
C1302 C 0.62909 0.92409 0.4961 0.0
C1303 C 0.64218 0.92885 0.52451 0.0
O1304 O 0.67441 0.94388 0.56167 0.0
O1305 O 0.6718 0.96572 0.5454 0.0
O1306 O 0.64875 0.94305 0.51936 0.0
O1307 O 0.65153 0.92129 0.53572 0.0
H1308 H 0.64407 0.94739 0.57617 0.0
H1309 H 0.62669 0.96095 0.5975 0.0
H1310 H 0.65799 1.00504 0.59436 0.0
H1311 H 0.67545 0.99128 0.57346 0.0
H1312 H 0.75081 0.96117 0.5222 0.0
H1313 H 0.72014 0.95909 0.52611 0.0
H1314 H 0.75188 0.90997 0.50515 0.0
H1315 H 0.72147 0.90811 0.50889 0.0
H1316 H 0.6147 0.92074 0.47377 0.0
H1317 H 0.60803 0.88333 0.51202 0.0
H1318 H 0.62752 0.89855 0.52999 0.0
H1319 H 0.63444 0.93571 0.49161 0.0
C1320 C 0.66114 0.05662 0.95228 0.0
C1321 C 0.64716 0.0649 0.94536 0.0
C1322 C 0.6409 0.04073 0.92754 0.0
C1323 C 0.63715 0.05705 0.93317 0.0
C1324 C 0.65485 0.03251 0.93468 0.0
C1325 C 0.66479 0.04034 0.94682 0.0
U1326 U 0.67171 0.08465 0.9908 0.0
O1327 O 0.69045 0.08002 1.0106 0.0
O1328 O 0.69312 0.102 0.99451 0.0
C1329 C 0.69961 0.09317 1.00674 0.0
C1330 C 0.6726 0.0647 0.9646 0.0
C1331 C 0.71835 0.09157 1.0075 0.0
C1332 C 0.74459 0.0755 1.00602 0.0
C1333 C 0.72698 0.07665 1.00377 0.0
C1334 C 0.74521 0.10409 0.01568 0.0
C1335 C 0.75398 0.08917 1.01222 0.0
C1336 C 0.72773 0.10525 0.01334 0.0
C1337 C 0.63281 0.1067 0.01312 0.0
C1338 C 0.61769 0.10955 0.03953 0.0
C1339 C 0.61377 0.13031 0.01803 0.0
C1340 C 0.62517 0.12167 1.00778 0.0
C1341 C 0.60955 0.12422 0.03396 0.0
C1342 C 0.62908 0.10089 0.02926 0.0
C1343 C 0.64216 0.0961 1.00086 0.0
O1344 O 0.6744 0.08103 0.9637 0.0
O1345 O 0.67179 0.05921 0.98001 0.0
O1346 O 0.64873 0.08191 1.00602 0.0
O1347 O 0.65152 0.10365 0.98963 0.0
H1348 H 0.64403 0.07749 0.94926 0.0
H1349 H 0.62663 0.0639 0.92796 0.0
H1350 H 0.65802 0.01986 0.93104 0.0
H1351 H 0.67548 0.03364 0.95192 0.0
H1352 H 0.75078 0.06376 1.00326 0.0
H1353 H 0.72012 0.06583 0.99934 0.0
H1354 H 0.75187 0.11502 0.02013 0.0
H1355 H 0.72145 0.11688 0.01639 0.0
H1356 H 0.61468 0.10426 0.05159 0.0
H1357 H 0.60802 0.14164 0.0133 0.0
H1358 H 0.6275 0.1264 0.99535 0.0
H1359 H 0.63442 0.08928 0.03376 0.0
C1360 C 0.36775 0.46592 0.95004 0.0
C1361 C 0.37201 0.48301 0.9503 0.0
C1362 C 0.38695 0.48066 0.92368 0.0
C1363 C 0.3815 0.49026 0.93738 0.0
C1364 C 0.38292 0.46348 0.92359 0.0
C1365 C 0.37346 0.45624 0.93652 0.0
U1366 U 0.35579 0.43971 0.98964 0.0
O1367 O 0.33683 0.44528 1.00906 0.0
O1368 O 0.33402 0.42296 0.99355 0.0
C1369 C 0.32733 0.43235 1.00525 0.0
C1370 C 0.35591 0.45886 0.96278 0.0
C1371 C 0.30852 0.43443 1.00531 0.0
C1372 C 0.28062 0.42169 1.00223 0.0
C1373 C 0.29815 0.42126 0.99983 0.0
C1374 C 0.28308 0.44872 0.01533 0.0
C1375 C 0.27277 0.43527 1.0103 0.0
C1376 C 0.30068 0.44826 0.01298 0.0
C1377 C 0.39397 0.41672 1.01243 0.0
C1378 C 0.40473 0.38925 0.0207 0.0
C1379 C 0.41643 0.41411 0.03321 0.0
C1380 C 0.40534 0.42402 0.02375 0.0
C1381 C 0.4166 0.39657 0.03154 0.0
C1382 C 0.39364 0.39915 1.01126 0.0
C1383 C 0.38491 0.42753 1.00012 0.0
O1384 O 0.35311 0.44265 0.96247 0.0
O1385 O 0.35689 0.46479 0.97803 0.0
O1386 O 0.37872 0.44191 1.0052 0.0
O1387 O 0.37539 0.42021 0.98889 0.0
H1388 H 0.36768 0.49093 0.96036 0.0
H1389 H 0.38446 0.50345 0.93811 0.0
H1390 H 0.38658 0.45564 0.91323 0.0
H1391 H 0.37025 0.44311 0.93565 0.0
H1392 H 0.27322 0.4112 0.99787 0.0
H1393 H 0.30364 0.41028 0.99411 0.0
H1394 H 0.27763 0.45936 0.02169 0.0
H1395 H 0.30819 0.45853 0.01769 0.0
H1396 H 0.40419 0.3758 0.01925 0.0
H1397 H 0.42541 0.4203 0.04125 0.0
H1398 H 0.40621 0.4375 0.02475 0.0
H1399 H 0.38523 0.39301 1.0026 0.0
C1400 C 0.86785 0.05854 0.07468 0.0
C1401 C 0.87248 0.04154 0.07436 0.0
C1402 C 0.88698 0.04402 0.1012 0.0
C1403 C 0.88194 0.03441 0.08737 0.0
C1404 C 0.88258 0.06111 0.10135 0.0
C1405 C 0.87314 0.06824 0.08834 0.0
U1406 U 0.85583 0.08453 0.03493 0.0
O1407 O 0.83714 0.07854 0.01531 0.0
O1408 O 0.8338 0.10082 0.03079 0.0
C1409 C 0.82737 0.09128 0.01907 0.0
C1410 C 0.85603 0.06543 0.06182 0.0
C1411 C 0.80864 0.08865 0.01895 0.0
C1412 C 0.78041 0.09628 0.02865 0.0
C1413 C 0.79803 0.09657 0.03056 0.0
C1414 C 0.78338 0.07968 1.00375 0.0
C1415 C 0.77277 0.08813 0.01502 0.0
C1416 C 0.80102 0.08001 1.00564 0.0
C1417 C 0.89389 0.10794 1.0123 0.0
C1418 C 0.90507 0.13536 1.0044 0.0
C1419 C 0.91603 0.11053 0.99118 0.0
C1420 C 0.90491 0.10065 1.00064 0.0
C1421 C 0.91659 0.12803 0.99321 0.0
C1422 C 0.89395 0.12548 0.01383 0.0
C1423 C 0.88484 0.09709 0.0246 0.0
O1424 O 0.85301 0.0816 0.06209 0.0
O1425 O 0.85722 0.05949 0.0466 0.0
O1426 O 0.87892 0.08259 0.01957 0.0
O1427 O 0.87511 0.10435 0.0357 0.0
H1428 H 0.86847 0.03359 0.06419 0.0
H1429 H 0.8852 0.02128 0.08659 0.0
H1430 H 0.88591 0.06895 0.11182 0.0
H1431 H 0.86963 0.08129 0.08925 0.0
H1432 H 0.77277 0.10268 0.0378 0.0
H1433 H 0.80331 0.10346 0.04092 0.0
H1434 H 0.77812 0.07338 0.99302 0.0
H1435 H 0.80875 0.07401 0.99629 0.0
H1436 H 0.90483 0.14878 1.00614 0.0
H1437 H 0.92474 0.10434 0.98285 0.0
H1438 H 0.9055 0.08718 0.99934 0.0
H1439 H 0.88583 0.13161 0.02278 0.0
C1440 C 0.45439 0.36592 0.05649 0.0
C1441 C 0.44727 0.3798 0.06464 0.0
C1442 C 0.42961 0.38604 0.04031 0.0
C1443 C 0.43506 0.38975 0.05663 0.0
C1444 C 0.43697 0.37221 0.03222 0.0
C1445 C 0.44914 0.36233 0.0402 0.0
U1446 U 0.49245 0.35468 0.08549 0.0
O1447 O 0.51268 0.33627 0.08113 0.0
O1448 O 0.49542 0.33272 0.10209 0.0
C1449 C 0.50797 0.32644 0.09342 0.0
C1450 C 0.46663 0.35444 0.06474 0.0
C1451 C 0.5083 0.30787 0.09062 0.0
C1452 C 0.5163 0.28349 0.07389 0.0
C1453 C 0.51366 0.30085 0.07543 0.0
C1454 C 0.50799 0.2796 0.10253 0.0
C1455 C 0.51379 0.27256 0.08749 0.0
C1456 C 0.50534 0.29694 0.10406 0.0
C1457 C 0.51446 0.39283 0.10896 0.0
C1458 C 0.52188 0.40389 0.1364 0.0
C1459 C 0.53557 0.41499 0.11193 0.0
C1460 C 0.52627 0.40392 0.10193 0.0
C1461 C 0.53326 0.41544 0.12932 0.0
C1462 C 0.51259 0.39281 0.12639 0.0
C1463 C 0.50241 0.3837 0.09788 0.0
O1464 O 0.48239 0.35538 0.05983 0.0
O1465 O 0.46517 0.35229 0.08091 0.0
O1466 O 0.49082 0.37421 0.10481 0.0
O1467 O 0.50812 0.37752 0.0838 0.0
H1468 H 0.45102 0.38286 0.07723 0.0
H1469 H 0.42968 0.4002 0.06335 0.0
H1470 H 0.43347 0.36908 0.01958 0.0
H1471 H 0.4544 0.35172 0.03361 0.0
H1472 H 0.52096 0.27875 0.06214 0.0
H1473 H 0.51634 0.3088 0.06484 0.0
H1474 H 0.50565 0.27173 0.11325 0.0
H1475 H 0.50142 0.30187 0.116 0.0
H1476 H 0.51991 0.40356 0.14973 0.0
H1477 H 0.54402 0.42373 0.10591 0.0
H1478 H 0.52782 0.40455 0.08854 0.0
H1479 H 0.50351 0.38464 0.13231 0.0
C1480 C 0.50054 0.14374 0.11303 0.0
C1481 C 0.51071 0.13046 0.11861 0.0
C1482 C 0.4858 0.11465 0.12763 0.0
C1483 C 0.50343 0.11608 0.12579 0.0
C1484 C 0.47574 0.12797 0.12186 0.0
C1485 C 0.483 0.14227 0.1147 0.0
U1486 U 0.53238 0.17046 0.08694 0.0
O1487 O 0.52699 0.19221 0.07072 0.0
O1488 O 0.54299 0.19534 0.09269 0.0
C1489 C 0.53533 0.20277 0.08017 0.0
C1490 C 0.50765 0.15954 0.10609 0.0
C1491 C 0.52779 0.21977 0.08302 0.0
C1492 C 0.51519 0.24521 0.07128 0.0
C1493 C 0.5201 0.22837 0.06973 0.0
C1494 C 0.52518 0.24535 0.09965 0.0
C1495 C 0.51788 0.25412 0.08619 0.0
C1496 C 0.5301 0.2285 0.09808 0.0
C1497 C 0.56894 0.14513 0.064 0.0
C1498 C 0.5972 0.13305 0.06177 0.0
C1499 C 0.58137 0.13898 0.03679 0.0
C1500 C 0.568 0.14515 0.0465 0.0
C1501 C 0.59605 0.13246 0.04428 0.0
C1502 C 0.58386 0.13924 0.07146 0.0
C1503 C 0.55377 0.14835 0.07459 0.0
O1504 O 0.52229 0.16455 0.11186 0.0
O1505 O 0.50612 0.16182 0.08996 0.0
O1506 O 0.53963 0.15267 0.06724 0.0
O1507 O 0.55591 0.15576 0.08905 0.0
H1508 H 0.52429 0.13123 0.11754 0.0
H1509 H 0.51166 0.1062 0.13014 0.0
H1510 H 0.46215 0.12731 0.12267 0.0
H1511 H 0.47485 0.15229 0.11052 0.0
H1512 H 0.50943 0.2513 0.06067 0.0
H1513 H 0.51832 0.22219 0.05786 0.0
H1514 H 0.52773 0.25169 0.11129 0.0
H1515 H 0.53623 0.22249 0.10854 0.0
H1516 H 0.60832 0.1284 0.06805 0.0
H1517 H 0.57981 0.1386 0.02341 0.0
H1518 H 0.55666 0.14929 0.04025 0.0
H1519 H 0.58496 0.13878 0.08489 0.0
C1520 C 0.45433 0.65901 0.46858 0.0
C1521 C 0.44684 0.64544 0.46024 0.0
C1522 C 0.4295 0.63891 0.48472 0.0
C1523 C 0.4346 0.6355 0.46823 0.0
C1524 C 0.43724 0.65241 0.493 0.0
C1525 C 0.44943 0.66228 0.48504 0.0
U1526 U 0.49242 0.67034 0.43965 0.0
O1527 O 0.51263 0.68876 0.44408 0.0
O1528 O 0.4954 0.69234 0.4231 0.0
C1529 C 0.50794 0.69861 0.43179 0.0
C1530 C 0.46657 0.67051 0.46036 0.0
C1531 C 0.50827 0.71717 0.43461 0.0
C1532 C 0.5163 0.74154 0.45135 0.0
C1533 C 0.51365 0.72419 0.44979 0.0
C1534 C 0.50796 0.74546 0.42273 0.0
C1535 C 0.51378 0.75248 0.43776 0.0
C1536 C 0.5053 0.72812 0.42118 0.0
C1537 C 0.51449 0.63224 0.41615 0.0
C1538 C 0.52191 0.62114 0.38872 0.0
C1539 C 0.53569 0.61016 0.41319 0.0
C1540 C 0.52637 0.62122 0.42318 0.0
C1541 C 0.53334 0.60965 0.39581 0.0
C1542 C 0.51259 0.63221 0.39872 0.0
C1543 C 0.50243 0.64136 0.42722 0.0
O1544 O 0.48232 0.66959 0.4653 0.0
O1545 O 0.46513 0.67271 0.4442 0.0
O1546 O 0.49084 0.65085 0.42029 0.0
O1547 O 0.5081 0.64752 0.44132 0.0
H1548 H 0.4503 0.64261 0.44751 0.0
H1549 H 0.42893 0.62531 0.46136 0.0
H1550 H 0.43401 0.6553 0.50578 0.0
H1551 H 0.45497 0.67265 0.49178 0.0
H1552 H 0.52097 0.74627 0.46309 0.0
H1553 H 0.51634 0.71622 0.46038 0.0
H1554 H 0.5056 0.75334 0.41201 0.0
H1555 H 0.50137 0.7232 0.40924 0.0
H1556 H 0.51991 0.62142 0.37539 0.0
H1557 H 0.54419 0.60147 0.41922 0.0
H1558 H 0.52794 0.62063 0.43657 0.0
H1559 H 0.50346 0.64033 0.3928 0.0
C1560 C 0.50056 0.88131 0.41228 0.0
C1561 C 0.51073 0.8946 0.4067 0.0
C1562 C 0.48581 0.91039 0.39767 0.0
C1563 C 0.50344 0.90897 0.39951 0.0
C1564 C 0.47575 0.89707 0.40345 0.0
C1565 C 0.48303 0.88278 0.41061 0.0
U1566 U 0.53241 0.85457 0.43836 0.0
O1567 O 0.527 0.83282 0.45457 0.0
O1568 O 0.543 0.82969 0.4326 0.0
C1569 C 0.53535 0.82226 0.44512 0.0
C1570 C 0.50767 0.86551 0.41921 0.0
C1571 C 0.5278 0.80527 0.44226 0.0
C1572 C 0.51521 0.77982 0.45399 0.0
C1573 C 0.52012 0.79666 0.45555 0.0
C1574 C 0.52516 0.7797 0.42561 0.0
C1575 C 0.51787 0.77092 0.43907 0.0
C1576 C 0.53009 0.79655 0.42719 0.0
C1577 C 0.56897 0.87988 0.46131 0.0
C1578 C 0.59722 0.89197 0.46356 0.0
C1579 C 0.58139 0.88601 0.48853 0.0
C1580 C 0.56802 0.87985 0.47882 0.0
C1581 C 0.59607 0.89254 0.48105 0.0
C1582 C 0.58388 0.88578 0.45387 0.0
C1583 C 0.5538 0.87667 0.45072 0.0
O1584 O 0.52232 0.8605 0.41344 0.0
O1585 O 0.50614 0.86323 0.43535 0.0
O1586 O 0.53965 0.87236 0.45807 0.0
O1587 O 0.55594 0.86926 0.43627 0.0
H1588 H 0.5243 0.89383 0.40776 0.0
H1589 H 0.51166 0.91885 0.39516 0.0
H1590 H 0.46216 0.89773 0.40265 0.0
H1591 H 0.47487 0.87275 0.4148 0.0
H1592 H 0.50946 0.77372 0.4646 0.0
H1593 H 0.51835 0.80282 0.46743 0.0
H1594 H 0.5277 0.77337 0.41397 0.0
H1595 H 0.53621 0.80256 0.41672 0.0
H1596 H 0.60834 0.89662 0.45728 0.0
H1597 H 0.57983 0.88638 0.50191 0.0
H1598 H 0.55668 0.8757 0.48506 0.0
H1599 H 0.58498 0.88625 0.44043 0.0
C1600 C 0.05726 0.45393 0.36481 0.0
C1601 C 0.06594 0.44645 0.37816 0.0
C1602 C 0.04139 0.42902 0.38493 0.0
C1603 C 0.0581 0.43417 0.3881 0.0
C1604 C 0.03277 0.43672 0.37163 0.0
C1605 C 0.04059 0.44894 0.36175 0.0
U1606 U 0.08598 0.49219 0.35392 0.0
O1607 O 0.10257 0.49575 0.33213 0.0
O1608 O 0.08121 0.51264 0.3359 0.0
C1609 C 0.09388 0.50845 0.32624 0.0
C1610 C 0.0653 0.4663 0.35339 0.0
C1611 C 0.09123 0.50934 0.30784 0.0
C1612 C 0.08588 0.4966 0.28066 0.0
C1613 C 0.08694 0.49534 0.29816 0.0
C1614 C 0.09315 0.52588 0.28222 0.0
C1615 C 0.08919 0.51187 0.27233 0.0
C1616 C 0.09414 0.52462 0.29965 0.0
C1617 C 0.10957 0.5137 0.39216 0.0
C1618 C 0.13731 0.52143 0.40301 0.0
C1619 C 0.11242 0.53425 0.4146 0.0
C1620 C 0.10236 0.52504 0.40351 0.0
C1621 C 0.13005 0.53233 0.41481 0.0
C1622 C 0.12724 0.51221 0.39191 0.0
C1623 C 0.0985 0.50172 0.38293 0.0
O1624 O 0.06015 0.48188 0.35453 0.0
O1625 O 0.08165 0.46509 0.35108 0.0
O1626 O 0.10561 0.49048 0.37328 0.0
O1627 O 0.08415 0.5073 0.37692 0.0
H1628 H 0.07883 0.44997 0.38083 0.0
H1629 H 0.06525 0.42853 0.39811 0.0
H1630 H 0.01983 0.43345 0.36892 0.0
H1631 H 0.03358 0.45447 0.35156 0.0
H1632 H 0.08251 0.48553 0.27367 0.0
H1633 H 0.08461 0.48339 0.30409 0.0
H1634 H 0.09607 0.5378 0.27651 0.0
H1635 H 0.09759 0.5356 0.30676 0.0
H1636 H 0.15083 0.51977 0.40249 0.0
H1637 H 0.10625 0.54232 0.42354 0.0
H1638 H 0.0888 0.52627 0.40432 0.0
H1639 H 0.13331 0.50351 0.38352 0.0
C1640 C 0.91232 1.00283 0.38108 0.0
C1641 C 0.90037 1.01205 0.39021 0.0
C1642 C 0.89624 0.98874 0.4097 0.0
C1643 C 0.89248 1.00512 0.4043 0.0
C1644 C 0.90849 0.9797 0.40073 0.0
C1645 C 0.91635 0.98662 0.38664 0.0
U1646 U 0.93888 0.03346 0.35357 0.0
O1647 O 0.95527 0.02783 0.33207 0.0
O1648 O 0.9331 0.04374 0.32861 0.0
C1649 C 0.94602 0.03638 0.32148 0.0
C1650 C 0.91954 1.00913 0.36503 0.0
C1651 C 0.94351 0.02918 0.3045 0.0
C1652 C 0.93741 1.00608 0.28547 0.0
C1653 C 0.93847 0.01255 0.30179 0.0
C1654 C 0.94621 0.03276 0.27434 0.0
C1655 C 0.94145 0.01603 0.27142 0.0
C1656 C 0.94719 0.03919 0.29058 0.0
C1657 C 0.96132 0.07061 0.37822 0.0
C1658 C 0.96319 0.10104 0.38094 0.0
C1659 C 0.98514 0.08371 0.39256 0.0
C1660 C 0.97674 0.06937 0.38678 0.0
C1661 C 0.9783 0.09978 0.3901 0.0
C1662 C 0.9548 0.0867 0.37515 0.0
C1663 C 0.95098 0.05523 0.37528 0.0
O1664 O 0.91368 0.02334 0.35915 0.0
O1665 O 0.93589 1.00758 0.36293 0.0
O1666 O 0.95878 0.0413 0.37122 0.0
O1667 O 0.93632 0.05686 0.36785 0.0
H1668 H 0.89678 0.02451 0.38628 0.0
H1669 H 0.88299 0.01247 0.41063 0.0
H1670 H 0.912 0.96719 0.40454 0.0
H1671 H 0.9254 0.97912 0.37986 0.0
H1672 H 0.93344 0.99323 0.28391 0.0
H1673 H 0.93554 1.00452 0.31226 0.0
H1674 H 0.94972 0.04085 0.2641 0.0
H1675 H 0.95123 0.05202 0.29229 0.0
H1676 H 0.95761 0.11316 0.37847 0.0
H1677 H 0.99662 0.08211 0.39966 0.0
H1678 H 0.98199 0.0572 0.38969 0.0
H1679 H 0.94288 0.08824 0.36879 0.0
C1680 C 0.05702 0.57117 0.16115 0.0
C1681 C 0.06568 0.57859 0.14776 0.0
C1682 C 0.04115 0.59602 0.14098 0.0
C1683 C 0.05784 0.59083 0.13779 0.0
C1684 C 0.03254 0.58839 0.15433 0.0
C1685 C 0.04037 0.5762 0.16424 0.0
U1686 U 0.08579 0.53295 0.17199 0.0
O1687 O 0.10249 0.52942 0.19371 0.0
O1688 O 0.08114 0.51251 0.19004 0.0
C1689 C 0.09389 0.51667 0.19961 0.0
C1690 C 0.06508 0.55883 0.17259 0.0
C1691 C 0.09141 0.51569 0.21802 0.0
C1692 C 0.08451 0.52791 0.24509 0.0
C1693 C 0.0856 0.52922 0.22759 0.0
C1694 C 0.09481 0.49953 0.24371 0.0
C1695 C 0.08927 0.51307 0.25351 0.0
C1696 C 0.09583 0.50083 0.22629 0.0
C1697 C 0.10931 0.5115 0.13368 0.0
C1698 C 0.13693 0.50426 0.12222 0.0
C1699 C 0.11209 0.49047 0.11166 0.0
C1700 C 0.10209 0.49969 0.12282 0.0
C1701 C 0.12965 0.49288 0.11089 0.0
C1702 C 0.12693 0.51347 0.13338 0.0
C1703 C 0.09822 0.52345 0.14293 0.0
O1704 O 0.05994 0.54324 0.17147 0.0
O1705 O 0.08143 0.56005 0.17487 0.0
O1706 O 0.10533 0.53473 0.15255 0.0
O1707 O 0.08391 0.51784 0.149 0.0
H1708 H 0.07856 0.57503 0.14507 0.0
H1709 H 0.06498 0.59642 0.12774 0.0
H1710 H 0.01961 0.59169 0.15705 0.0
H1711 H 0.03338 0.57072 0.17447 0.0
H1712 H 0.07993 0.53859 0.25201 0.0
H1713 H 0.08208 0.54083 0.22157 0.0
H1714 H 0.09889 0.48798 0.24949 0.0
H1715 H 0.10046 0.49023 0.21926 0.0
H1716 H 0.15041 0.50631 0.1223 0.0
H1717 H 0.10591 0.48201 0.10311 0.0
H1718 H 0.08856 0.49807 0.12243 0.0
H1719 H 0.133 0.52255 0.14137 0.0
C1720 C 0.9123 0.02211 0.14429 0.0
C1721 C 0.90032 0.0129 0.13518 0.0
C1722 C 0.89622 0.0362 0.11567 0.0
C1723 C 0.89243 0.01982 0.12109 0.0
C1724 C 0.90849 0.04522 0.12461 0.0
C1725 C 0.91635 0.0383 0.13871 0.0
U1726 U 0.93886 0.99148 0.1718 0.0
O1727 O 0.95525 0.99711 0.19329 0.0
O1728 O 0.93308 0.9812 0.19677 0.0
C1729 C 0.946 0.98856 0.2039 0.0
C1730 C 0.91952 0.01581 0.16034 0.0
C1731 C 0.94349 0.99577 0.22087 0.0
C1732 C 0.93745 0.01888 0.2399 0.0
C1733 C 0.9385 1.01241 0.22358 0.0
C1734 C 0.94615 0.99217 0.25103 0.0
C1735 C 0.94145 1.00892 0.25395 0.0
C1736 C 0.94713 0.98574 0.23479 0.0
C1737 C 0.96129 0.95432 0.14716 0.0
C1738 C 0.96316 0.92388 0.14445 0.0
C1739 C 0.98512 0.9412 0.13282 0.0
C1740 C 0.97672 0.95555 0.13859 0.0
C1741 C 0.97827 0.92513 0.13529 0.0
C1742 C 0.95477 0.93823 0.15023 0.0
C1743 C 0.95096 0.9697 0.15009 0.0
O1744 O 0.91365 1.0016 0.16622 0.0
O1745 O 0.93587 0.01736 0.16244 0.0
O1746 O 0.95875 0.98363 0.15415 0.0
O1747 O 0.93629 0.96807 0.15752 0.0
H1748 H 0.89672 1.00045 0.13913 0.0
H1749 H 0.88293 0.01248 0.11477 0.0
H1750 H 0.91202 0.05773 0.1208 0.0
H1751 H 0.92541 0.0458 0.14547 0.0
H1752 H 0.93351 0.03174 0.24146 0.0
H1753 H 0.9356 0.02045 0.21311 0.0
H1754 H 0.94963 0.98407 0.26127 0.0
H1755 H 0.95113 0.9729 0.23308 0.0
H1756 H 0.95758 0.91177 0.14692 0.0
H1757 H 0.99659 0.9428 0.12572 0.0
H1758 H 0.98196 0.96772 0.13568 0.0
H1759 H 0.94285 0.93669 0.1566 0.0
C1760 C 0.36701 0.05869 0.45101 0.0
C1761 C 0.3719 0.04176 0.45141 0.0
C1762 C 0.38602 0.04426 0.42436 0.0
C1763 C 0.38129 0.03468 0.43835 0.0
C1764 C 0.38134 0.06129 0.42411 0.0
C1765 C 0.37196 0.06836 0.43718 0.0
U1766 U 0.3558 0.08472 0.49082 0.0
O1767 O 0.33374 0.1009 0.49542 0.0
O1768 O 0.33781 0.07882 0.51105 0.0
C1769 C 0.32804 0.09168 0.50775 0.0
C1770 C 0.35536 0.06555 0.46402 0.0
C1771 C 0.30945 0.08924 0.50899 0.0
C1772 C 0.28208 0.08089 0.49777 0.0
C1773 C 0.29975 0.08208 0.49622 0.0
C1774 C 0.28356 0.09382 0.52488 0.0
C1775 C 0.27363 0.08687 0.5121 0.0
C1776 C 0.30114 0.09495 0.52334 0.0
C1777 C 0.39427 0.10796 0.5127 0.0
C1778 C 0.40471 0.13544 0.52128 0.0
C1779 C 0.41707 0.11052 0.5331 0.0
C1780 C 0.40598 0.10063 0.52366 0.0
C1781 C 0.4169 0.12809 0.53178 0.0
C1782 C 0.39362 0.12554 0.51185 0.0
C1783 C 0.38506 0.09723 0.50044 0.0
O1784 O 0.35684 0.05965 0.47925 0.0
O1785 O 0.3523 0.08172 0.46375 0.0
O1786 O 0.37506 0.10455 0.48961 0.0
O1787 O 0.3793 0.08266 0.5055 0.0
H1788 H 0.36816 0.03384 0.46171 0.0
H1789 H 0.38477 0.02161 0.43922 0.0
H1790 H 0.38442 0.0691 0.41353 0.0
H1791 H 0.36824 0.08136 0.43619 0.0
H1792 H 0.27506 0.07523 0.48769 0.0
H1793 H 0.30581 0.07756 0.48501 0.0
H1794 H 0.27776 0.09887 0.53598 0.0
H1795 H 0.30828 0.10063 0.53335 0.0
H1796 H 0.4039 0.14891 0.5201 0.0
H1797 H 0.4263 0.10431 0.54086 0.0
H1798 H 0.40709 0.08714 0.52441 0.0
H1799 H 0.38493 0.13171 0.50346 0.0
C1800 C 0.36718 0.96643 0.07423 0.0
C1801 C 0.37221 0.98331 0.07379 0.0
C1802 C 0.38618 0.98079 0.10091 0.0
C1803 C 0.3816 0.99036 0.08687 0.0
C1804 C 0.38135 0.96381 0.1012 0.0
C1805 C 0.37198 0.95676 0.08812 0.0
U1806 U 0.35578 0.94049 0.03438 0.0
O1807 O 0.33359 0.92451 0.0298 0.0
O1808 O 0.33781 0.94657 0.01416 0.0
C1809 C 0.32789 0.93384 0.01755 0.0
C1810 C 0.3555 0.95962 0.06121 0.0
C1811 C 0.3093 0.93656 0.01653 0.0
C1812 C 0.28162 0.94109 0.02912 0.0
C1813 C 0.29931 0.94012 0.03052 0.0
C1814 C 0.28362 0.93523 0.9997 0.0
C1815 C 0.27341 0.93842 0.0137 0.0
C1816 C 0.30124 0.93433 1.00112 0.0
C1817 C 0.39414 0.91709 1.01242 0.0
C1818 C 0.40443 0.8896 1.00372 0.0
C1819 C 0.41706 0.9145 0.99215 0.0
C1820 C 0.40599 0.92441 1.00159 0.0
C1821 C 0.41675 0.89692 0.99336 0.0
C1822 C 0.39335 0.89951 0.01315 0.0
C1823 C 0.38496 0.92782 0.02469 0.0
O1824 O 0.35701 0.96553 0.04599 0.0
O1825 O 0.35236 0.94347 0.06147 0.0
O1826 O 0.37491 0.92052 0.0355 0.0
O1827 O 0.37928 0.94243 0.01967 0.0
H1828 H 0.36859 0.99123 0.06344 0.0
H1829 H 0.3852 1.00339 0.08597 0.0
H1830 H 0.38431 0.95601 0.11183 0.0
H1831 H 0.36814 0.9438 0.08914 0.0
H1832 H 0.27439 0.94387 0.04019 0.0
H1833 H 0.30514 0.94191 0.04258 0.0
H1834 H 0.27802 0.93282 0.98766 0.0
H1835 H 0.30859 0.93143 0.99013 0.0
H1836 H 0.40351 0.87613 1.00481 0.0
H1837 H 0.4264 0.92069 0.9845 0.0
H1838 H 0.40721 0.93789 1.00094 0.0
H1839 H 0.38456 0.89336 0.02144 0.0
C1840 C 0.66157 0.55598 0.07231 0.0
C1841 C 0.64797 0.56456 0.07961 0.0
C1842 C 0.64139 0.54033 0.0973 0.0
C1843 C 0.638 0.55682 0.09193 0.0
C1844 C 0.65495 0.53181 0.08978 0.0
C1845 C 0.66485 0.53953 0.07752 0.0
U1846 U 0.67221 0.58409 0.03378 0.0
O1847 O 0.69421 0.60052 0.02978 0.0
O1848 O 0.69021 0.57907 0.01334 0.0
C1849 C 0.69998 0.59176 0.01717 0.0
C1850 C 0.673 0.5639 0.05984 0.0
C1851 C 0.71857 0.58923 0.01601 0.0
C1852 C 0.74601 0.58189 0.02778 0.0
C1853 C 0.72834 0.58309 0.02926 0.0
C1854 C 0.74442 0.59276 0.99976 0.0
C1855 C 0.75441 0.58686 0.01303 0.0
C1856 C 0.72683 0.59389 1.00124 0.0
C1857 C 0.63346 0.60711 1.0121 0.0
C1858 C 0.61859 0.61034 0.98558 0.0
C1859 C 0.61418 0.63057 1.00744 0.0
C1860 C 0.62558 0.62186 0.01764 0.0
C1861 C 0.6102 0.62477 0.99136 0.0
C1862 C 0.62999 0.60161 0.9958 0.0
C1863 C 0.6428 0.59638 0.02428 0.0
O1864 O 0.67177 0.55857 0.04441 0.0
O1865 O 0.67526 0.58016 0.06081 0.0
O1866 O 0.65263 0.60374 0.03522 0.0
O1867 O 0.64883 0.58197 0.01911 0.0
H1868 H 0.64512 0.57728 0.07591 0.0
H1869 H 0.62778 0.56388 0.09742 0.0
H1870 H 0.65783 0.51903 0.09321 0.0
H1871 H 0.67523 0.5326 0.07212 0.0
H1872 H 0.75308 0.57704 0.03825 0.0
H1873 H 0.72234 0.57938 0.0408 0.0
H1874 H 0.75018 0.59701 0.98831 0.0
H1875 H 0.71964 0.59877 0.99085 0.0
H1876 H 0.61579 0.60528 0.9734 0.0
H1877 H 0.60822 0.64172 1.01233 0.0
H1878 H 0.62773 0.62634 0.03018 0.0
H1879 H 0.63555 0.59018 0.99113 0.0
C1880 C 0.16151 0.96917 0.95304 0.0
C1881 C 0.14834 0.9604 0.94522 0.0
C1882 C 0.14143 0.98489 0.92802 0.0
C1883 C 0.13841 0.96817 0.93289 0.0
C1884 C 0.15454 0.9936 0.93606 0.0
C1885 C 0.16441 0.98585 0.94834 0.0
U1886 U 0.17219 0.941 0.99153 0.0
O1887 O 0.19419 0.92455 0.99549 0.0
O1888 O 0.19021 0.94599 1.01196 0.0
C1889 C 0.19996 0.93328 1.00812 0.0
C1890 C 0.17296 0.96123 0.9655 0.0
C1891 C 0.21856 0.93578 1.0093 0.0
C1892 C 0.24597 0.94345 0.99768 0.0
C1893 C 0.2283 0.94224 0.99618 0.0
C1894 C 0.24441 0.93194 0.02544 0.0
C1895 C 0.25439 0.93817 1.01231 0.0
C1896 C 0.22683 0.9308 0.02395 0.0
C1897 C 0.13345 0.91796 0.0132 0.0
C1898 C 0.11857 0.9147 0.03971 0.0
C1899 C 0.11418 0.89448 0.01784 0.0
C1900 C 0.12558 0.90321 1.00765 0.0
C1901 C 0.11019 0.90027 0.03392 0.0
C1902 C 0.12997 0.92345 0.0295 0.0
C1903 C 0.14278 0.92871 1.00103 0.0
O1904 O 0.17176 0.96654 0.98093 0.0
O1905 O 0.17524 0.94497 0.96451 0.0
O1906 O 0.1526 0.92136 0.99007 0.0
O1907 O 0.14882 0.94311 1.00622 0.0
H1908 H 0.1458 0.94751 0.94851 0.0
H1909 H 0.12855 0.96096 0.92698 0.0
H1910 H 0.15711 1.00654 0.93302 0.0
H1911 H 0.17446 0.99293 0.95413 0.0
H1912 H 0.25302 0.94855 0.98732 0.0
H1913 H 0.22228 0.9462 0.98474 0.0
H1914 H 0.25019 0.92744 0.0368 0.0
H1915 H 0.21966 0.92567 0.03424 0.0
H1916 H 0.11575 0.91976 0.05189 0.0
H1917 H 0.10824 0.88334 0.01294 0.0
H1918 H 0.12774 0.89874 0.9951 0.0
H1919 H 0.13551 0.93488 0.03418 0.0
loop_
_geom_bond_atom_site_label_1
_geom_bond_atom_site_label_2
_geom_bond_distance
_geom_bond_site_symmetry_2
_ccdc_geom_bond_type
C0 C1 1.264 . S
C0 C5 1.479 1_455 S
C0 C10 1.465 . S
C1 C0 1.264 . S
C1 C3 1.339 1_455 S
C1 H28 0.931 . S
C2 C3 1.395 . S
C2 C4 1.320 . S
C3 C1 1.339 1_655 S
C3 C2 1.395 . S
C3 H29 0.929 . S
C4 C2 1.320 . S
C4 C5 1.405 . S
C4 H30 0.930 . S
C5 C0 1.479 1_655 S
C5 C4 1.405 . S
C5 H31 0.931 . S
U6 O7 2.454 . S
U6 O8 2.458 . S
U6 C9 2.984 . S
U6 C10 2.847 . S
U6 C23 2.882 . S
U6 O24 2.441 . S
U6 O25 2.420 . S
U6 O26 2.455 . S
U6 O27 2.449 . S
O7 U6 2.454 . S
O7 C9 1.353 . S
O8 U6 2.458 . S
O8 C9 1.286 . S
C9 U6 2.984 . S
C9 O7 1.353 . S
C9 O8 1.286 . S
C9 C11 1.363 . S
C10 C0 1.465 . S
C10 U6 2.847 . S
C10 O24 1.249 . S
C10 O25 1.202 . S
C11 C9 1.363 . S
C11 C13 1.408 . S
C11 C16 1.342 . S
C12 C13 1.328 . S
C12 C15 1.501 . S
C12 H32 0.877 1_455 S
C13 C11 1.408 . S
C13 C12 1.328 . S
C13 H33 0.930 1_455 S
C14 C15 1.474 . S
C14 C16 1.285 . S
C14 H34 0.929 . S
C15 C12 1.501 . S
C15 C14 1.474 . S
C16 C11 1.342 . S
C16 C14 1.285 . S
C16 H35 0.930 . S
C17 C20 1.424 . S
C17 C22 1.245 . S
C17 C23 1.428 . S
C18 C21 1.260 . S
C18 C22 1.477 . S
C18 H36 0.932 . S
C19 C20 1.384 . S
C19 C21 1.479 . S
C19 H37 0.929 . S
C20 C17 1.424 . S
C20 C19 1.384 . S
C20 H38 0.928 . S
C21 C18 1.260 . S
C21 C19 1.479 . S
C22 C17 1.245 . S
C22 C18 1.477 . S
C22 H39 0.932 . S
C23 U6 2.882 . S
C23 C17 1.428 . S
C23 O26 1.301 . S
C23 O27 1.282 . S
O24 U6 2.441 . S
O24 C10 1.249 . S
O25 U6 2.420 . S
O25 C10 1.202 . S
O26 U6 2.455 . S
O26 C23 1.301 . S
O27 U6 2.449 . S
O27 C23 1.282 . S
H28 C1 0.931 . S
H29 C3 0.929 . S
H30 C4 0.930 . S
H31 C5 0.931 . S
H32 C12 0.877 1_655 S
H33 C13 0.930 1_655 S
H34 C14 0.929 . S
H35 C16 0.930 . S
H36 C18 0.932 . S
H37 C19 0.929 . S
H38 C20 0.928 . S
H39 C22 0.932 . S
C40 C41 1.264 . S
C40 C45 1.479 . S
C40 C50 1.465 . S
C41 C40 1.264 . S
C41 C43 1.339 . S
C41 H68 0.931 . S
C42 C43 1.395 . S
C42 C44 1.320 . S
C43 C41 1.339 . S
C43 C42 1.395 . S
C43 H69 0.929 . S
C44 C42 1.320 . S
C44 C45 1.405 . S
C44 H70 0.930 . S
C45 C40 1.479 . S
C45 C44 1.405 . S
C45 H71 0.931 . S
U46 O47 2.454 . S
U46 O48 2.458 . S
U46 C49 2.984 . S
U46 C50 2.847 . S
U46 C63 2.895 . S
U46 O64 2.441 . S
U46 O65 2.420 . S
U46 O66 2.455 1_655 S
U46 O67 2.449 . S
O47 U46 2.454 . S
O47 C49 1.353 . S
O48 U46 2.458 . S
O48 C49 1.286 . S
C49 U46 2.984 . S
C49 O47 1.353 . S
C49 O48 1.286 . S
C49 C51 1.363 . S
C50 C40 1.465 . S
C50 U46 2.847 . S
C50 O64 1.249 . S
C50 O65 1.202 . S
C51 C49 1.363 . S
C51 C53 1.408 . S
C51 C56 1.342 . S
C52 C53 1.310 . S
C52 C55 1.461 . S
C52 H72 0.932 . S
C53 C51 1.408 . S
C53 C52 1.310 . S
C53 H73 0.930 . S
C54 C55 1.474 1_455 S
C54 C56 1.285 1_455 S
C54 H74 0.929 . S
C55 C52 1.461 . S
C55 C54 1.474 1_655 S
C56 C51 1.342 . S
C56 C54 1.285 1_655 S
C56 H75 0.930 1_655 S
C57 C60 1.424 . S
C57 C62 1.245 . S
C57 C63 1.417 1_455 S
C58 C61 1.260 . S
C58 C62 1.477 . S
C58 H76 0.932 . S
C59 C60 1.384 . S
C59 C61 1.479 . S
C59 H77 0.929 . S
C60 C57 1.424 . S
C60 C59 1.384 . S
C60 H78 0.928 1_455 S
C61 C58 1.260 . S
C61 C59 1.479 . S
C62 C57 1.245 . S
C62 C58 1.477 . S
C62 H79 0.932 . S
C63 U46 2.895 . S
C63 C57 1.417 1_655 S
C63 O66 1.298 1_655 S
C63 O67 1.297 . S
O64 U46 2.441 . S
O64 C50 1.249 . S
O65 U46 2.420 . S
O65 C50 1.202 . S
O66 U46 2.455 1_455 S
O66 C63 1.298 1_455 S
O67 U46 2.449 . S
O67 C63 1.297 . S
H68 C41 0.931 . S
H69 C43 0.929 . S
H70 C44 0.930 . S
H71 C45 0.931 . S
H72 C52 0.932 . S
H73 C53 0.930 . S
H74 C54 0.929 . S
H75 C56 0.930 1_455 S
H76 C58 0.932 . S
H77 C59 0.929 . S
H78 C60 0.928 1_655 S
H79 C62 0.932 . S
C80 C81 1.264 . S
C80 C85 1.479 1_455 S
C80 C90 1.465 . S
C81 C80 1.264 . S
C81 C83 1.339 1_455 S
C81 H108 0.931 . S
C82 C83 1.395 . S
C82 C84 1.320 . S
C83 C81 1.339 1_655 S
C83 C82 1.395 . S
C83 H109 0.929 . S
C84 C82 1.320 . S
C84 C85 1.405 . S
C84 H110 0.930 . S
C85 C80 1.479 1_655 S
C85 C84 1.405 . S
C85 H111 0.931 . S
U86 O87 2.454 . S
U86 O88 2.458 . S
U86 C89 2.984 . S
U86 C90 2.847 . S
U86 C103 2.882 . S
U86 O104 2.441 . S
U86 O105 2.420 . S
U86 O106 2.455 . S
U86 O107 2.449 . S
O87 U86 2.454 . S
O87 C89 1.353 . S
O88 U86 2.458 . S
O88 C89 1.286 . S
C89 U86 2.984 . S
C89 O87 1.353 . S
C89 O88 1.286 . S
C89 C91 1.363 . S
C90 C80 1.465 . S
C90 U86 2.847 . S
C90 O104 1.249 . S
C90 O105 1.202 . S
C91 C89 1.363 . S
C91 C93 1.408 . S
C91 C96 1.342 . S
C92 C93 1.328 . S
C92 C95 1.501 . S
C92 H112 0.877 1_455 S
C93 C91 1.408 . S
C93 C92 1.328 . S
C93 H113 0.930 1_455 S
C94 C95 1.474 . S
C94 C96 1.285 . S
C94 H114 0.929 . S
C95 C92 1.501 . S
C95 C94 1.474 . S
C96 C91 1.342 . S
C96 C94 1.285 . S
C96 H115 0.930 . S
C97 C100 1.424 . S
C97 C102 1.245 . S
C97 C103 1.428 . S
C98 C101 1.260 . S
C98 C102 1.477 . S
C98 H116 0.932 . S
C99 C100 1.384 . S
C99 C101 1.479 . S
C99 H117 0.929 . S
C100 C97 1.424 . S
C100 C99 1.384 . S
C100 H118 0.928 . S
C101 C98 1.260 . S
C101 C99 1.479 . S
C102 C97 1.245 . S
C102 C98 1.477 . S
C102 H119 0.932 . S
C103 U86 2.882 . S
C103 C97 1.428 . S
C103 O106 1.301 . S
C103 O107 1.282 . S
O104 U86 2.441 . S
O104 C90 1.249 . S
O105 U86 2.420 . S
O105 C90 1.202 . S
O106 U86 2.455 . S
O106 C103 1.301 . S
O107 U86 2.449 . S
O107 C103 1.282 . S
H108 C81 0.931 . S
H109 C83 0.929 . S
H110 C84 0.930 . S
H111 C85 0.931 . S
H112 C92 0.877 1_655 S
H113 C93 0.930 1_655 S
H114 C94 0.929 . S
H115 C96 0.930 . S
H116 C98 0.932 . S
H117 C99 0.929 . S
H118 C100 0.928 . S
H119 C102 0.932 . S
C120 C121 1.264 . S
C120 C125 1.479 . S
C120 C130 1.465 . S
C121 C120 1.264 . S
C121 C123 1.339 . S
C121 H148 0.931 . S
C122 C123 1.395 . S
C122 C124 1.320 . S
C123 C121 1.339 . S
C123 C122 1.395 . S
C123 H149 0.929 . S
C124 C122 1.320 . S
C124 C125 1.405 . S
C124 H150 0.930 . S
C125 C120 1.479 . S
C125 C124 1.405 . S
C125 H151 0.931 . S
U126 O127 2.454 . S
U126 O128 2.458 . S
U126 C129 2.984 . S
U126 C130 2.847 . S
U126 C143 2.895 . S
U126 O144 2.441 . S
U126 O145 2.420 . S
U126 O146 2.455 1_655 S
U126 O147 2.449 . S
O127 U126 2.454 . S
O127 C129 1.353 . S
O128 U126 2.458 . S
O128 C129 1.286 . S
C129 U126 2.984 . S
C129 O127 1.353 . S
C129 O128 1.286 . S
C129 C131 1.363 . S
C130 C120 1.465 . S
C130 U126 2.847 . S
C130 O144 1.249 . S
C130 O145 1.202 . S
C131 C129 1.363 . S
C131 C133 1.408 . S
C131 C136 1.342 . S
C132 C133 1.310 . S
C132 C135 1.461 . S
C132 H152 0.932 . S
C133 C131 1.408 . S
C133 C132 1.310 . S
C133 H153 0.930 . S
C134 C135 1.474 1_455 S
C134 C136 1.285 1_455 S
C134 H154 0.929 . S
C135 C132 1.461 . S
C135 C134 1.474 1_655 S
C136 C131 1.342 . S
C136 C134 1.285 1_655 S
C136 H155 0.930 1_655 S
C137 C140 1.424 . S
C137 C142 1.245 . S
C137 C143 1.417 1_455 S
C138 C141 1.260 . S
C138 C142 1.477 . S
C138 H156 0.932 . S
C139 C140 1.384 . S
C139 C141 1.479 . S
C139 H157 0.929 . S
C140 C137 1.424 . S
C140 C139 1.384 . S
C140 H158 0.928 1_455 S
C141 C138 1.260 . S
C141 C139 1.479 . S
C142 C137 1.245 . S
C142 C138 1.477 . S
C142 H159 0.932 . S
C143 U126 2.895 . S
C143 C137 1.417 1_655 S
C143 O146 1.298 1_655 S
C143 O147 1.297 . S
O144 U126 2.441 . S
O144 C130 1.249 . S
O145 U126 2.420 . S
O145 C130 1.202 . S
O146 U126 2.455 1_455 S
O146 C143 1.298 1_455 S
O147 U126 2.449 . S
O147 C143 1.297 . S
H148 C121 0.931 . S
H149 C123 0.929 . S
H150 C124 0.930 . S
H151 C125 0.931 . S
H152 C132 0.932 . S
H153 C133 0.930 . S
H154 C134 0.929 . S
H155 C136 0.930 1_455 S
H156 C138 0.932 . S
H157 C139 0.929 . S
H158 C140 0.928 1_655 S
H159 C142 0.932 . S
C160 C161 1.262 1_565 S
C160 C165 1.479 . S
C160 C170 1.465 1_565 S
C161 C160 1.262 1_545 S
C161 C163 1.334 1_545 S
C161 H188 0.937 . S
C162 C163 1.395 . S
C162 C164 1.320 . S
C163 C161 1.334 1_565 S
C163 C162 1.395 . S
C163 H189 0.929 . S
C164 C162 1.320 . S
C164 C165 1.405 . S
C164 H190 0.930 . S
C165 C160 1.479 . S
C165 C164 1.405 . S
C165 H191 0.931 . S
U166 O167 2.454 . S
U166 O168 2.458 . S
U166 C169 2.984 . S
U166 C170 2.847 . S
U166 C183 2.882 . S
U166 O184 2.441 . S
U166 O185 2.420 . S
U166 O186 2.455 . S
U166 O187 2.449 . S
O167 U166 2.454 . S
O167 C169 1.353 . S
O168 U166 2.458 . S
O168 C169 1.286 . S
C169 U166 2.984 . S
C169 O167 1.353 . S
C169 O168 1.286 . S
C169 C171 1.363 . S
C170 C160 1.465 1_545 S
C170 U166 2.847 . S
C170 O184 1.249 . S
C170 O185 1.202 . S
C171 C169 1.363 . S
C171 C173 1.408 . S
C171 C176 1.342 . S
C172 C173 1.310 1_565 S
C172 C175 1.461 1_565 S
C172 H192 0.932 . S
C173 C171 1.408 . S
C173 C172 1.310 1_545 S
C173 H193 0.930 1_545 S
C174 C175 1.474 . S
C174 C176 1.285 . S
C174 H194 0.929 . S
C175 C172 1.461 1_545 S
C175 C174 1.474 . S
C176 C171 1.342 . S
C176 C174 1.285 . S
C176 H195 0.930 . S
C177 C180 1.424 . S
C177 C182 1.245 . S
C177 C183 1.428 . S
C178 C181 1.260 . S
C178 C182 1.477 . S
C178 H196 0.932 . S
C179 C180 1.384 . S
C179 C181 1.479 . S
C179 H197 0.929 . S
C180 C177 1.424 . S
C180 C179 1.384 . S
C180 H198 0.928 . S
C181 C178 1.260 . S
C181 C179 1.479 . S
C182 C177 1.245 . S
C182 C178 1.477 . S
C182 H199 0.932 . S
C183 U166 2.882 . S
C183 C177 1.428 . S
C183 O186 1.301 . S
C183 O187 1.282 . S
O184 U166 2.441 . S
O184 C170 1.249 . S
O185 U166 2.420 . S
O185 C170 1.202 . S
O186 U166 2.455 . S
O186 C183 1.301 . S
O187 U166 2.449 . S
O187 C183 1.282 . S
H188 C161 0.937 . S
H189 C163 0.929 . S
H190 C164 0.930 . S
H191 C165 0.931 . S
H192 C172 0.932 . S
H193 C173 0.930 1_565 S
H194 C174 0.929 . S
H195 C176 0.930 . S
H196 C178 0.932 . S
H197 C179 0.929 . S
H198 C180 0.928 . S
H199 C182 0.932 . S
C200 C201 1.264 . S
C200 C205 1.479 . S
C200 C210 1.465 . S
C201 C200 1.264 . S
C201 C203 1.339 . S
C201 H228 0.931 . S
C202 C203 1.395 . S
C202 C204 1.320 . S
C203 C201 1.339 . S
C203 C202 1.395 . S
C203 H229 0.929 . S
C204 C202 1.320 . S
C204 C205 1.405 . S
C204 H230 0.930 . S
C205 C200 1.479 . S
C205 C204 1.405 . S
C205 H231 0.931 . S
U206 O207 2.454 . S
U206 O208 2.458 . S
U206 C209 2.984 . S
U206 C210 2.847 . S
U206 C223 2.882 . S
U206 O224 2.441 . S
U206 O225 2.420 . S
U206 O226 2.455 . S
U206 O227 2.449 . S
O207 U206 2.454 . S
O207 C209 1.353 . S
O208 U206 2.458 . S
O208 C209 1.286 . S
C209 U206 2.984 . S
C209 O207 1.353 . S
C209 O208 1.286 . S
C209 C211 1.363 . S
C210 C200 1.465 . S
C210 U206 2.847 . S
C210 O224 1.249 . S
C210 O225 1.202 . S
C211 C209 1.363 . S
C211 C213 1.408 . S
C211 C216 1.342 . S
C212 C213 1.310 . S
C212 C215 1.461 . S
C212 H232 0.932 . S
C213 C211 1.408 . S
C213 C212 1.310 . S
C213 H233 0.930 . S
C214 C215 1.474 . S
C214 C216 1.285 . S
C214 H234 0.929 . S
C215 C212 1.461 . S
C215 C214 1.474 . S
C216 C211 1.342 . S
C216 C214 1.285 . S
C216 H235 0.930 . S
C217 C220 1.424 . S
C217 C222 1.245 . S
C217 C223 1.428 . S
C218 C221 1.260 . S
C218 C222 1.477 . S
C218 H236 0.932 . S
C219 C220 1.384 . S
C219 C221 1.479 . S
C219 H237 0.929 . S
C220 C217 1.424 . S
C220 C219 1.384 . S
C220 H238 0.928 . S
C221 C218 1.260 . S
C221 C219 1.479 . S
C222 C217 1.245 . S
C222 C218 1.477 . S
C222 H239 0.932 . S
C223 U206 2.882 . S
C223 C217 1.428 . S
C223 O226 1.301 . S
C223 O227 1.282 . S
O224 U206 2.441 . S
O224 C210 1.249 . S
O225 U206 2.420 . S
O225 C210 1.202 . S
O226 U206 2.455 . S
O226 C223 1.301 . S
O227 U206 2.449 . S
O227 C223 1.282 . S
H228 C201 0.931 . S
H229 C203 0.929 . S
H230 C204 0.930 . S
H231 C205 0.931 . S
H232 C212 0.932 . S
H233 C213 0.930 . S
H234 C214 0.929 . S
H235 C216 0.930 . S
H236 C218 0.932 . S
H237 C219 0.929 . S
H238 C220 0.928 . S
H239 C222 0.932 . S
C240 C241 1.262 1_545 S
C240 C245 1.479 . S
C240 C250 1.465 1_545 S
C241 C240 1.262 1_565 S
C241 C243 1.334 1_565 S
C241 H268 0.937 . S
C242 C243 1.395 . S
C242 C244 1.320 . S
C243 C241 1.334 1_545 S
C243 C242 1.395 . S
C243 H269 0.929 . S
C244 C242 1.320 . S
C244 C245 1.405 . S
C244 H270 0.930 . S
C245 C240 1.479 . S
C245 C244 1.405 . S
C245 H271 0.931 . S
U246 O247 2.454 . S
U246 O248 2.458 . S
U246 C249 2.984 . S
U246 C250 2.847 . S
U246 C263 2.882 . S
U246 O264 2.441 . S
U246 O265 2.420 . S
U246 O266 2.455 . S
U246 O267 2.449 . S
O247 U246 2.454 . S
O247 C249 1.353 . S
O248 U246 2.458 . S
O248 C249 1.286 . S
C249 U246 2.984 . S
C249 O247 1.353 . S
C249 O248 1.286 . S
C249 C251 1.363 . S
C250 C240 1.465 1_565 S
C250 U246 2.847 . S
C250 O264 1.249 . S
C250 O265 1.202 . S
C251 C249 1.363 . S
C251 C253 1.408 . S
C251 C256 1.342 . S
C252 C253 1.310 1_545 S
C252 C255 1.461 1_545 S
C252 H272 0.932 . S
C253 C251 1.408 . S
C253 C252 1.310 1_565 S
C253 H273 0.930 1_565 S
C254 C255 1.474 . S
C254 C256 1.285 . S
C254 H274 0.929 . S
C255 C252 1.461 1_565 S
C255 C254 1.474 . S
C256 C251 1.342 . S
C256 C254 1.285 . S
C256 H275 0.930 . S
C257 C260 1.424 . S
C257 C262 1.245 . S
C257 C263 1.428 . S
C258 C261 1.260 . S
C258 C262 1.477 . S
C258 H276 0.932 . S
C259 C260 1.384 . S
C259 C261 1.479 . S
C259 H277 0.929 . S
C260 C257 1.424 . S
C260 C259 1.384 . S
C260 H278 0.928 . S
C261 C258 1.260 . S
C261 C259 1.479 . S
C262 C257 1.245 . S
C262 C258 1.477 . S
C262 H279 0.932 . S
C263 U246 2.882 . S
C263 C257 1.428 . S
C263 O266 1.301 . S
C263 O267 1.282 . S
O264 U246 2.441 . S
O264 C250 1.249 . S
O265 U246 2.420 . S
O265 C250 1.202 . S
O266 U246 2.455 . S
O266 C263 1.301 . S
O267 U246 2.449 . S
O267 C263 1.282 . S
H268 C241 0.937 . S
H269 C243 0.929 . S
H270 C244 0.930 . S
H271 C245 0.931 . S
H272 C252 0.932 . S
H273 C253 0.930 1_545 S
H274 C254 0.929 . S
H275 C256 0.930 . S
H276 C258 0.932 . S
H277 C259 0.929 . S
H278 C260 0.928 . S
H279 C262 0.932 . S
C280 C281 1.264 . S
C280 C285 1.479 . S
C280 C290 1.465 . S
C281 C280 1.264 . S
C281 C283 1.339 . S
C281 H308 0.931 . S
C282 C283 1.395 . S
C282 C284 1.320 . S
C283 C281 1.339 . S
C283 C282 1.395 . S
C283 H309 0.929 . S
C284 C282 1.320 . S
C284 C285 1.405 . S
C284 H310 0.930 . S
C285 C280 1.479 . S
C285 C284 1.405 . S
C285 H311 0.931 . S
U286 O287 2.454 . S
U286 O288 2.458 . S
U286 C289 2.984 . S
U286 C290 2.847 . S
U286 C303 2.882 . S
U286 O304 2.441 . S
U286 O305 2.420 . S
U286 O306 2.455 . S
U286 O307 2.449 . S
O287 U286 2.454 . S
O287 C289 1.353 . S
O288 U286 2.458 . S
O288 C289 1.286 . S
C289 U286 2.984 . S
C289 O287 1.353 . S
C289 O288 1.286 . S
C289 C291 1.363 . S
C290 C280 1.465 . S
C290 U286 2.847 . S
C290 O304 1.249 . S
C290 O305 1.202 . S
C291 C289 1.363 . S
C291 C293 1.408 . S
C291 C296 1.342 . S
C292 C293 1.310 . S
C292 C295 1.461 . S
C292 H312 0.932 . S
C293 C291 1.408 . S
C293 C292 1.310 . S
C293 H313 0.930 . S
C294 C295 1.474 . S
C294 C296 1.285 . S
C294 H314 0.929 . S
C295 C292 1.461 . S
C295 C294 1.474 . S
C296 C291 1.342 . S
C296 C294 1.285 . S
C296 H315 0.930 . S
C297 C300 1.424 . S
C297 C302 1.245 . S
C297 C303 1.428 . S
C298 C301 1.260 . S
C298 C302 1.477 . S
C298 H316 0.932 . S
C299 C300 1.384 . S
C299 C301 1.479 . S
C299 H317 0.929 . S
C300 C297 1.424 . S
C300 C299 1.384 . S
C300 H318 0.928 . S
C301 C298 1.260 . S
C301 C299 1.479 . S
C302 C297 1.245 . S
C302 C298 1.477 . S
C302 H319 0.932 . S
C303 U286 2.882 . S
C303 C297 1.428 . S
C303 O306 1.301 . S
C303 O307 1.282 . S
O304 U286 2.441 . S
O304 C290 1.249 . S
O305 U286 2.420 . S
O305 C290 1.202 . S
O306 U286 2.455 . S
O306 C303 1.301 . S
O307 U286 2.449 . S
O307 C303 1.282 . S
H308 C281 0.931 . S
H309 C283 0.929 . S
H310 C284 0.930 . S
H311 C285 0.931 . S
H312 C292 0.932 . S
H313 C293 0.930 . S
H314 C294 0.929 . S
H315 C296 0.930 . S
H316 C298 0.932 . S
H317 C299 0.929 . S
H318 C300 0.928 . S
H319 C302 0.932 . S
C320 C321 1.264 . S
C320 C325 1.479 . S
C320 C330 1.465 . S
C321 C320 1.264 . S
C321 C323 1.339 . S
C321 H348 0.931 . S
C322 C323 1.395 . S
C322 C324 1.320 . S
C323 C321 1.339 . S
C323 C322 1.395 . S
C323 H349 0.929 . S
C324 C322 1.320 . S
C324 C325 1.405 . S
C324 H350 0.930 . S
C325 C320 1.479 . S
C325 C324 1.405 . S
C325 H351 0.931 . S
U326 O327 2.454 . S
U326 O328 2.458 . S
U326 C329 2.984 . S
U326 C330 2.847 . S
U326 C343 2.882 . S
U326 O344 2.441 . S
U326 O345 2.420 . S
U326 O346 2.412 1_554 S
U326 O347 2.449 . S
O327 U326 2.454 . S
O327 C329 1.353 . S
O328 U326 2.458 . S
O328 C329 1.286 . S
C329 U326 2.984 . S
C329 O327 1.353 . S
C329 O328 1.286 . S
C329 C331 1.363 . S
C330 C320 1.465 . S
C330 U326 2.847 . S
C330 O344 1.249 . S
C330 O345 1.202 . S
C331 C329 1.363 . S
C331 C333 1.408 . S
C331 C336 1.342 . S
C332 C333 1.310 . S
C332 C335 1.461 . S
C332 H352 0.932 . S
C333 C331 1.408 . S
C333 C332 1.310 . S
C333 H353 0.930 . S
C334 C335 1.474 . S
C334 C336 1.285 . S
C334 H354 0.929 1_554 S
C335 C332 1.461 . S
C335 C334 1.474 . S
C336 C331 1.342 . S
C336 C334 1.285 . S
C336 H355 0.930 1_554 S
C337 C340 1.424 . S
C337 C342 1.245 . S
C337 C343 1.428 1_556 S
C338 C341 1.260 . S
C338 C342 1.477 . S
C338 H356 0.932 . S
C339 C340 1.384 . S
C339 C341 1.479 . S
C339 H357 0.929 . S
C340 C337 1.424 . S
C340 C339 1.384 . S
C340 H358 0.928 1_556 S
C341 C338 1.260 . S
C341 C339 1.479 . S
C342 C337 1.245 . S
C342 C338 1.477 . S
C342 H359 0.932 . S
C343 U326 2.882 . S
C343 C337 1.428 1_554 S
C343 O346 1.294 1_554 S
C343 O347 1.282 . S
O344 U326 2.441 . S
O344 C330 1.249 . S
O345 U326 2.420 . S
O345 C330 1.202 . S
O346 U326 2.412 1_556 S
O346 C343 1.294 1_556 S
O347 U326 2.449 . S
O347 C343 1.282 . S
H348 C321 0.931 . S
H349 C323 0.929 . S
H350 C324 0.930 . S
H351 C325 0.931 . S
H352 C332 0.932 . S
H353 C333 0.930 . S
H354 C334 0.929 1_556 S
H355 C336 0.930 1_556 S
H356 C338 0.932 . S
H357 C339 0.929 . S
H358 C340 0.928 1_554 S
H359 C342 0.932 . S
C360 C361 1.264 . S
C360 C365 1.479 . S
C360 C370 1.465 . S
C361 C360 1.264 . S
C361 C363 1.339 . S
C361 H388 0.931 . S
C362 C363 1.395 . S
C362 C364 1.320 . S
C363 C361 1.339 . S
C363 C362 1.395 . S
C363 H389 0.929 . S
C364 C362 1.320 . S
C364 C365 1.405 . S
C364 H390 0.930 . S
C365 C360 1.479 . S
C365 C364 1.405 . S
C365 H391 0.931 . S
U366 O367 2.454 . S
U366 O368 2.458 . S
U366 C369 2.984 . S
U366 C370 2.847 . S
U366 C383 2.882 . S
U366 O384 2.441 . S
U366 O385 2.420 . S
U366 O386 2.455 . S
U366 O387 2.449 . S
O367 U366 2.454 . S
O367 C369 1.353 . S
O368 U366 2.458 . S
O368 C369 1.286 . S
C369 U366 2.984 . S
C369 O367 1.353 . S
C369 O368 1.286 . S
C369 C371 1.363 . S
C370 C360 1.465 . S
C370 U366 2.847 . S
C370 O384 1.249 . S
C370 O385 1.202 . S
C371 C369 1.363 . S
C371 C373 1.408 . S
C371 C376 1.342 . S
C372 C373 1.310 . S
C372 C375 1.461 . S
C372 H392 0.932 . S
C373 C371 1.408 . S
C373 C372 1.310 . S
C373 H393 0.930 . S
C374 C375 1.474 . S
C374 C376 1.285 . S
C374 H394 0.929 . S
C375 C372 1.461 . S
C375 C374 1.474 . S
C376 C371 1.342 . S
C376 C374 1.285 . S
C376 H395 0.930 . S
C377 C380 1.424 . S
C377 C382 1.245 . S
C377 C383 1.428 . S
C378 C381 1.260 . S
C378 C382 1.477 . S
C378 H396 0.932 . S
C379 C380 1.384 . S
C379 C381 1.479 . S
C379 H397 0.929 . S
C380 C377 1.424 . S
C380 C379 1.384 . S
C380 H398 0.928 . S
C381 C378 1.260 . S
C381 C379 1.479 . S
C382 C377 1.245 . S
C382 C378 1.477 . S
C382 H399 0.932 . S
C383 U366 2.882 . S
C383 C377 1.428 . S
C383 O386 1.301 . S
C383 O387 1.282 . S
O384 U366 2.441 . S
O384 C370 1.249 . S
O385 U366 2.420 . S
O385 C370 1.202 . S
O386 U366 2.455 . S
O386 C383 1.301 . S
O387 U366 2.449 . S
O387 C383 1.282 . S
H388 C361 0.931 . S
H389 C363 0.929 . S
H390 C364 0.930 . S
H391 C365 0.931 . S
H392 C372 0.932 . S
H393 C373 0.930 . S
H394 C374 0.929 . S
H395 C376 0.930 . S
H396 C378 0.932 . S
H397 C379 0.929 . S
H398 C380 0.928 . S
H399 C382 0.932 . S
C400 C401 1.264 . S
C400 C405 1.479 . S
C400 C410 1.465 . S
C401 C400 1.264 . S
C401 C403 1.339 . S
C401 H428 0.931 . S
C402 C403 1.395 . S
C402 C404 1.320 . S
C403 C401 1.339 . S
C403 C402 1.395 . S
C403 H429 0.929 . S
C404 C402 1.320 . S
C404 C405 1.405 . S
C404 H430 0.930 . S
C405 C400 1.479 . S
C405 C404 1.405 . S
C405 H431 0.931 . S
U406 O407 2.454 . S
U406 O408 2.458 . S
U406 C409 2.984 . S
U406 C410 2.847 . S
U406 C423 2.882 . S
U406 O424 2.441 . S
U406 O425 2.420 . S
U406 O426 2.455 . S
U406 O427 2.449 . S
O407 U406 2.454 . S
O407 C409 1.353 . S
O408 U406 2.458 . S
O408 C409 1.286 . S
C409 U406 2.984 . S
C409 O407 1.353 . S
C409 O408 1.286 . S
C409 C411 1.363 . S
C410 C400 1.465 . S
C410 U406 2.847 . S
C410 O424 1.249 . S
C410 O425 1.202 . S
C411 C409 1.363 . S
C411 C413 1.408 . S
C411 C416 1.342 . S
C412 C413 1.310 . S
C412 C415 1.461 . S
C412 H432 0.932 . S
C413 C411 1.408 . S
C413 C412 1.310 . S
C413 H433 0.930 . S
C414 C415 1.474 . S
C414 C416 1.285 . S
C414 H434 0.929 . S
C415 C412 1.461 . S
C415 C414 1.474 . S
C416 C411 1.342 . S
C416 C414 1.285 . S
C416 H435 0.930 . S
C417 C420 1.424 . S
C417 C422 1.245 . S
C417 C423 1.428 . S
C418 C421 1.260 . S
C418 C422 1.477 . S
C418 H436 0.932 . S
C419 C420 1.384 . S
C419 C421 1.479 . S
C419 H437 0.929 . S
C420 C417 1.424 . S
C420 C419 1.384 . S
C420 H438 0.928 . S
C421 C418 1.260 . S
C421 C419 1.479 . S
C422 C417 1.245 . S
C422 C418 1.477 . S
C422 H439 0.932 . S
C423 U406 2.882 . S
C423 C417 1.428 . S
C423 O426 1.301 . S
C423 O427 1.282 . S
O424 U406 2.441 . S
O424 C410 1.249 . S
O425 U406 2.420 . S
O425 C410 1.202 . S
O426 U406 2.455 . S
O426 C423 1.301 . S
O427 U406 2.449 . S
O427 C423 1.282 . S
H428 C401 0.931 . S
H429 C403 0.929 . S
H430 C404 0.930 . S
H431 C405 0.931 . S
H432 C412 0.932 . S
H433 C413 0.930 . S
H434 C414 0.929 . S
H435 C416 0.930 . S
H436 C418 0.932 . S
H437 C419 0.929 . S
H438 C420 0.928 . S
H439 C422 0.932 . S
C440 C441 1.264 . S
C440 C445 1.479 . S
C440 C450 1.465 . S
C441 C440 1.264 . S
C441 C443 1.339 . S
C441 H468 0.931 . S
C442 C443 1.395 . S
C442 C444 1.320 . S
C443 C441 1.339 . S
C443 C442 1.395 . S
C443 H469 0.929 . S
C444 C442 1.320 . S
C444 C445 1.405 . S
C444 H470 0.930 . S
C445 C440 1.479 . S
C445 C444 1.405 . S
C445 H471 0.931 . S
U446 O447 2.454 . S
U446 O448 2.458 . S
U446 C449 2.984 . S
U446 C450 2.847 . S
U446 C463 2.882 . S
U446 O464 2.441 . S
U446 O465 2.420 . S
U446 O466 2.455 . S
U446 O467 2.449 . S
O447 U446 2.454 . S
O447 C449 1.353 . S
O448 U446 2.458 . S
O448 C449 1.286 . S
C449 U446 2.984 . S
C449 O447 1.353 . S
C449 O448 1.286 . S
C449 C451 1.363 . S
C450 C440 1.465 . S
C450 U446 2.847 . S
C450 O464 1.249 . S
C450 O465 1.202 . S
C451 C449 1.363 . S
C451 C453 1.408 . S
C451 C456 1.342 . S
C452 C453 1.310 . S
C452 C455 1.461 . S
C452 H472 0.932 . S
C453 C451 1.408 . S
C453 C452 1.310 . S
C453 H473 0.930 . S
C454 C455 1.474 . S
C454 C456 1.285 . S
C454 H474 0.929 . S
C455 C452 1.461 . S
C455 C454 1.474 . S
C456 C451 1.342 . S
C456 C454 1.285 . S
C456 H475 0.930 . S
C457 C460 1.424 . S
C457 C462 1.245 . S
C457 C463 1.428 . S
C458 C461 1.260 . S
C458 C462 1.477 . S
C458 H476 0.932 . S
C459 C460 1.384 . S
C459 C461 1.479 . S
C459 H477 0.929 . S
C460 C457 1.424 . S
C460 C459 1.384 . S
C460 H478 0.928 . S
C461 C458 1.260 . S
C461 C459 1.479 . S
C462 C457 1.245 . S
C462 C458 1.477 . S
C462 H479 0.932 . S
C463 U446 2.882 . S
C463 C457 1.428 . S
C463 O466 1.301 . S
C463 O467 1.282 . S
O464 U446 2.441 . S
O464 C450 1.249 . S
O465 U446 2.420 . S
O465 C450 1.202 . S
O466 U446 2.455 . S
O466 C463 1.301 . S
O467 U446 2.449 . S
O467 C463 1.282 . S
H468 C441 0.931 . S
H469 C443 0.929 . S
H470 C444 0.930 . S
H471 C445 0.931 . S
H472 C452 0.932 . S
H473 C453 0.930 . S
H474 C454 0.929 . S
H475 C456 0.930 . S
H476 C458 0.932 . S
H477 C459 0.929 . S
H478 C460 0.928 . S
H479 C462 0.932 . S
C480 C481 1.264 . S
C480 C485 1.479 . S
C480 C490 1.465 . S
C481 C480 1.264 . S
C481 C483 1.339 . S
C481 H508 0.931 . S
C482 C483 1.395 . S
C482 C484 1.320 . S
C483 C481 1.339 . S
C483 C482 1.395 . S
C483 H509 0.929 . S
C484 C482 1.320 . S
C484 C485 1.405 . S
C484 H510 0.930 . S
C485 C480 1.479 . S
C485 C484 1.405 . S
C485 H511 0.931 . S
U486 O487 2.454 . S
U486 O488 2.458 . S
U486 C489 2.984 . S
U486 C490 2.847 . S
U486 C503 2.882 . S
U486 O504 2.441 . S
U486 O505 2.420 . S
U486 O506 2.455 . S
U486 O507 2.449 . S
O487 U486 2.454 . S
O487 C489 1.353 . S
O488 U486 2.458 . S
O488 C489 1.286 . S
C489 U486 2.984 . S
C489 O487 1.353 . S
C489 O488 1.286 . S
C489 C491 1.363 . S
C490 C480 1.465 . S
C490 U486 2.847 . S
C490 O504 1.249 . S
C490 O505 1.202 . S
C491 C489 1.363 . S
C491 C493 1.408 . S
C491 C496 1.342 . S
C492 C493 1.310 . S
C492 C495 1.461 . S
C492 H512 0.932 . S
C493 C491 1.408 . S
C493 C492 1.310 . S
C493 H513 0.930 . S
C494 C495 1.474 1_455 S
C494 C496 1.285 1_455 S
C494 H514 0.929 . S
C495 C492 1.461 . S
C495 C494 1.474 1_655 S
C496 C491 1.342 . S
C496 C494 1.285 1_655 S
C496 H515 0.930 1_655 S
C497 C500 1.424 . S
C497 C502 1.245 1_655 S
C497 C503 1.428 . S
C498 C501 1.260 . S
C498 C502 1.477 . S
C498 H516 0.932 . S
C499 C500 1.384 1_455 S
C499 C501 1.479 . S
C499 H517 0.929 . S
C500 C497 1.424 . S
C500 C499 1.384 1_655 S
C500 H518 0.928 . S
C501 C498 1.260 . S
C501 C499 1.479 . S
C502 C497 1.245 1_455 S
C502 C498 1.477 . S
C502 H519 0.932 . S
C503 U486 2.882 . S
C503 C497 1.428 . S
C503 O506 1.301 . S
C503 O507 1.282 . S
O504 U486 2.441 . S
O504 C490 1.249 . S
O505 U486 2.420 . S
O505 C490 1.202 . S
O506 U486 2.455 . S
O506 C503 1.301 . S
O507 U486 2.449 . S
O507 C503 1.282 . S
H508 C481 0.931 . S
H509 C483 0.929 . S
H510 C484 0.930 . S
H511 C485 0.931 . S
H512 C492 0.932 . S
H513 C493 0.930 . S
H514 C494 0.929 . S
H515 C496 0.930 1_455 S
H516 C498 0.932 . S
H517 C499 0.929 . S
H518 C500 0.928 . S
H519 C502 0.932 . S
C520 C521 1.264 . S
C520 C525 1.479 . S
C520 C530 1.480 . S
C521 C520 1.264 . S
C521 C523 1.339 . S
C521 H548 0.931 1_655 S
C522 C523 1.395 . S
C522 C524 1.320 . S
C523 C521 1.339 . S
C523 C522 1.395 . S
C523 H549 0.929 . S
C524 C522 1.320 . S
C524 C525 1.405 . S
C524 H550 0.930 . S
C525 C520 1.479 . S
C525 C524 1.405 . S
C525 H551 0.931 . S
U526 O527 2.454 . S
U526 O528 2.458 . S
U526 C529 2.984 . S
U526 C530 2.827 1_455 S
U526 C543 2.882 . S
U526 O544 2.441 1_455 S
U526 O545 2.420 . S
U526 O546 2.455 . S
U526 O547 2.449 . S
O527 U526 2.454 . S
O527 C529 1.353 . S
O528 U526 2.458 . S
O528 C529 1.286 . S
C529 U526 2.984 . S
C529 O527 1.353 . S
C529 O528 1.286 . S
C529 C531 1.363 . S
C530 C520 1.480 . S
C530 U526 2.827 1_655 S
C530 O544 1.254 . S
C530 O545 1.180 1_655 S
C531 C529 1.363 . S
C531 C533 1.408 . S
C531 C536 1.342 . S
C532 C533 1.306 1_655 S
C532 C535 1.436 1_655 S
C532 H552 0.962 . S
C533 C531 1.408 . S
C533 C532 1.306 1_455 S
C533 H553 0.930 1_455 S
C534 C535 1.474 . S
C534 C536 1.285 . S
C534 H554 0.929 . S
C535 C532 1.436 1_455 S
C535 C534 1.474 . S
C536 C531 1.342 . S
C536 C534 1.285 . S
C536 H555 0.930 . S
C537 C540 1.424 . S
C537 C542 1.245 . S
C537 C543 1.428 . S
C538 C541 1.260 . S
C538 C542 1.477 . S
C538 H556 0.932 . S
C539 C540 1.384 . S
C539 C541 1.479 . S
C539 H557 0.929 . S
C540 C537 1.424 . S
C540 C539 1.384 . S
C540 H558 0.928 . S
C541 C538 1.260 . S
C541 C539 1.479 . S
C542 C537 1.245 . S
C542 C538 1.477 . S
C542 H559 0.932 . S
C543 U526 2.882 . S
C543 C537 1.428 . S
C543 O546 1.301 . S
C543 O547 1.282 . S
O544 U526 2.441 1_655 S
O544 C530 1.254 . S
O545 U526 2.420 . S
O545 C530 1.180 1_455 S
O546 U526 2.455 . S
O546 C543 1.301 . S
O547 U526 2.449 . S
O547 C543 1.282 . S
H548 C521 0.931 1_455 S
H549 C523 0.929 . S
H550 C524 0.930 . S
H551 C525 0.931 . S
H552 C532 0.962 . S
H553 C533 0.930 1_655 S
H554 C534 0.929 . S
H555 C536 0.930 . S
H556 C538 0.932 . S
H557 C539 0.929 . S
H558 C540 0.928 . S
H559 C542 0.932 . S
C560 C561 1.264 . S
C560 C565 1.479 . S
C560 C570 1.465 . S
C561 C560 1.264 . S
C561 C563 1.339 . S
C561 H588 0.931 . S
C562 C563 1.395 . S
C562 C564 1.320 . S
C563 C561 1.339 . S
C563 C562 1.395 . S
C563 H589 0.929 . S
C564 C562 1.320 . S
C564 C565 1.405 . S
C564 H590 0.930 . S
C565 C560 1.479 . S
C565 C564 1.405 . S
C565 H591 0.931 . S
U566 O567 2.454 . S
U566 O568 2.458 . S
U566 C569 2.984 . S
U566 C570 2.847 . S
U566 C583 2.882 . S
U566 O584 2.441 . S
U566 O585 2.420 . S
U566 O586 2.455 . S
U566 O587 2.449 . S
O567 U566 2.454 . S
O567 C569 1.353 . S
O568 U566 2.458 . S
O568 C569 1.286 . S
C569 U566 2.984 . S
C569 O567 1.353 . S
C569 O568 1.286 . S
C569 C571 1.363 . S
C570 C560 1.465 . S
C570 U566 2.847 . S
C570 O584 1.249 . S
C570 O585 1.202 . S
C571 C569 1.363 . S
C571 C573 1.408 . S
C571 C576 1.342 . S
C572 C573 1.310 . S
C572 C575 1.461 . S
C572 H592 0.932 . S
C573 C571 1.408 . S
C573 C572 1.310 . S
C573 H593 0.930 . S
C574 C575 1.474 1_455 S
C574 C576 1.285 1_455 S
C574 H594 0.929 . S
C575 C572 1.461 . S
C575 C574 1.474 1_655 S
C576 C571 1.342 . S
C576 C574 1.285 1_655 S
C576 H595 0.930 1_655 S
C577 C580 1.424 . S
C577 C582 1.245 1_655 S
C577 C583 1.428 . S
C578 C581 1.260 . S
C578 C582 1.477 . S
C578 H596 0.932 . S
C579 C580 1.384 1_455 S
C579 C581 1.479 . S
C579 H597 0.929 . S
C580 C577 1.424 . S
C580 C579 1.384 1_655 S
C580 H598 0.928 . S
C581 C578 1.260 . S
C581 C579 1.479 . S
C582 C577 1.245 1_455 S
C582 C578 1.477 . S
C582 H599 0.932 . S
C583 U566 2.882 . S
C583 C577 1.428 . S
C583 O586 1.301 . S
C583 O587 1.282 . S
O584 U566 2.441 . S
O584 C570 1.249 . S
O585 U566 2.420 . S
O585 C570 1.202 . S
O586 U566 2.455 . S
O586 C583 1.301 . S
O587 U566 2.449 . S
O587 C583 1.282 . S
H588 C561 0.931 . S
H589 C563 0.929 . S
H590 C564 0.930 . S
H591 C565 0.931 . S
H592 C572 0.932 . S
H593 C573 0.930 . S
H594 C574 0.929 . S
H595 C576 0.930 1_455 S
H596 C578 0.932 . S
H597 C579 0.929 . S
H598 C580 0.928 . S
H599 C582 0.932 . S
C600 C601 1.264 . S
C600 C605 1.479 . S
C600 C610 1.480 . S
C601 C600 1.264 . S
C601 C603 1.339 . S
C601 H628 0.931 1_655 S
C602 C603 1.395 . S
C602 C604 1.320 . S
C603 C601 1.339 . S
C603 C602 1.395 . S
C603 H629 0.929 . S
C604 C602 1.320 . S
C604 C605 1.405 . S
C604 H630 0.930 . S
C605 C600 1.479 . S
C605 C604 1.405 . S
C605 H631 0.931 . S
U606 O607 2.454 . S
U606 O608 2.458 . S
U606 C609 2.984 . S
U606 C610 2.827 1_455 S
U606 C623 2.882 . S
U606 O624 2.441 1_455 S
U606 O625 2.420 . S
U606 O626 2.455 . S
U606 O627 2.449 . S
O607 U606 2.454 . S
O607 C609 1.353 . S
O608 U606 2.458 . S
O608 C609 1.286 . S
C609 U606 2.984 . S
C609 O607 1.353 . S
C609 O608 1.286 . S
C609 C611 1.363 . S
C610 C600 1.480 . S
C610 U606 2.827 1_655 S
C610 O624 1.254 . S
C610 O625 1.180 1_655 S
C611 C609 1.363 . S
C611 C613 1.408 . S
C611 C616 1.342 . S
C612 C613 1.306 1_655 S
C612 C615 1.436 1_655 S
C612 H632 0.962 . S
C613 C611 1.408 . S
C613 C612 1.306 1_455 S
C613 H633 0.930 1_455 S
C614 C615 1.474 . S
C614 C616 1.285 . S
C614 H634 0.929 . S
C615 C612 1.436 1_455 S
C615 C614 1.474 . S
C616 C611 1.342 . S
C616 C614 1.285 . S
C616 H635 0.930 . S
C617 C620 1.424 . S
C617 C622 1.245 . S
C617 C623 1.428 . S
C618 C621 1.260 . S
C618 C622 1.477 . S
C618 H636 0.932 . S
C619 C620 1.384 . S
C619 C621 1.479 . S
C619 H637 0.929 . S
C620 C617 1.424 . S
C620 C619 1.384 . S
C620 H638 0.928 . S
C621 C618 1.260 . S
C621 C619 1.479 . S
C622 C617 1.245 . S
C622 C618 1.477 . S
C622 H639 0.932 . S
C623 U606 2.882 . S
C623 C617 1.428 . S
C623 O626 1.301 . S
C623 O627 1.282 . S
O624 U606 2.441 1_655 S
O624 C610 1.254 . S
O625 U606 2.420 . S
O625 C610 1.180 1_455 S
O626 U606 2.455 . S
O626 C623 1.301 . S
O627 U606 2.449 . S
O627 C623 1.282 . S
H628 C601 0.931 1_455 S
H629 C603 0.929 . S
H630 C604 0.930 . S
H631 C605 0.931 . S
H632 C612 0.962 . S
H633 C613 0.930 1_655 S
H634 C614 0.929 . S
H635 C616 0.930 . S
H636 C618 0.932 . S
H637 C619 0.929 . S
H638 C620 0.928 . S
H639 C622 0.932 . S
C640 C641 1.264 . S
C640 C645 1.479 . S
C640 C650 1.465 . S
C641 C640 1.264 . S
C641 C643 1.339 . S
C641 H668 0.931 . S
C642 C643 1.395 . S
C642 C644 1.320 . S
C643 C641 1.339 . S
C643 C642 1.395 . S
C643 H669 0.929 . S
C644 C642 1.320 . S
C644 C645 1.405 . S
C644 H670 0.930 . S
C645 C640 1.479 . S
C645 C644 1.405 . S
C645 H671 0.931 . S
U646 O647 2.454 . S
U646 O648 2.458 . S
U646 C649 2.984 . S
U646 C650 2.847 . S
U646 C663 2.882 . S
U646 O664 2.441 . S
U646 O665 2.420 . S
U646 O666 2.455 . S
U646 O667 2.449 . S
O647 U646 2.454 . S
O647 C649 1.353 . S
O648 U646 2.458 . S
O648 C649 1.286 . S
C649 U646 2.984 . S
C649 O647 1.353 . S
C649 O648 1.286 . S
C649 C651 1.363 . S
C650 C640 1.465 . S
C650 U646 2.847 . S
C650 O664 1.249 . S
C650 O665 1.202 . S
C651 C649 1.363 . S
C651 C653 1.408 . S
C651 C656 1.342 . S
C652 C653 1.310 . S
C652 C655 1.461 . S
C652 H672 0.932 . S
C653 C651 1.408 . S
C653 C652 1.310 . S
C653 H673 0.930 . S
C654 C655 1.447 1_545 S
C654 C656 1.272 1_545 S
C654 H674 0.973 . S
C655 C652 1.461 . S
C655 C654 1.447 1_565 S
C656 C651 1.342 . S
C656 C654 1.272 1_565 S
C656 H675 0.930 1_565 S
C657 C660 1.424 . S
C657 C662 1.245 1_565 S
C657 C663 1.428 . S
C658 C661 1.260 . S
C658 C662 1.477 . S
C658 H676 0.932 . S
C659 C660 1.384 1_545 S
C659 C661 1.479 . S
C659 H677 0.929 . S
C660 C657 1.424 . S
C660 C659 1.384 1_565 S
C660 H678 0.928 . S
C661 C658 1.260 . S
C661 C659 1.479 . S
C662 C657 1.245 1_545 S
C662 C658 1.477 . S
C662 H679 0.932 . S
C663 U646 2.882 . S
C663 C657 1.428 . S
C663 O666 1.301 . S
C663 O667 1.282 . S
O664 U646 2.441 . S
O664 C650 1.249 . S
O665 U646 2.420 . S
O665 C650 1.202 . S
O666 U646 2.455 . S
O666 C663 1.301 . S
O667 U646 2.449 . S
O667 C663 1.282 . S
H668 C641 0.931 . S
H669 C643 0.929 . S
H670 C644 0.930 . S
H671 C645 0.931 . S
H672 C652 0.932 . S
H673 C653 0.930 . S
H674 C654 0.973 . S
H675 C656 0.930 1_545 S
H676 C658 0.932 . S
H677 C659 0.929 . S
H678 C660 0.928 . S
H679 C662 0.932 . S
C680 C681 1.264 . S
C680 C685 1.479 . S
C680 C690 1.465 . S
C681 C680 1.264 . S
C681 C683 1.339 . S
C681 H708 0.931 . S
C682 C683 1.395 . S
C682 C684 1.320 . S
C683 C681 1.339 . S
C683 C682 1.395 . S
C683 H709 0.929 . S
C684 C682 1.320 . S
C684 C685 1.405 . S
C684 H710 0.930 . S
C685 C680 1.479 . S
C685 C684 1.405 . S
C685 H711 0.931 . S
U686 O687 2.454 . S
U686 O688 2.458 . S
U686 C689 2.984 . S
U686 C690 2.847 . S
U686 C703 2.882 . S
U686 O704 2.441 . S
U686 O705 2.420 . S
U686 O706 2.455 . S
U686 O707 2.449 . S
O687 U686 2.454 . S
O687 C689 1.353 . S
O688 U686 2.458 . S
O688 C689 1.286 . S
C689 U686 2.984 . S
C689 O687 1.353 . S
C689 O688 1.286 . S
C689 C691 1.363 . S
C690 C680 1.465 . S
C690 U686 2.847 . S
C690 O704 1.249 . S
C690 O705 1.202 . S
C691 C689 1.363 . S
C691 C693 1.408 . S
C691 C696 1.342 . S
C692 C693 1.310 . S
C692 C695 1.461 . S
C692 H712 0.932 . S
C693 C691 1.408 . S
C693 C692 1.310 . S
C693 H713 0.930 . S
C694 C695 1.474 . S
C694 C696 1.285 . S
C694 H714 0.929 . S
C695 C692 1.461 . S
C695 C694 1.474 . S
C696 C691 1.342 . S
C696 C694 1.285 . S
C696 H715 0.930 . S
C697 C700 1.424 . S
C697 C702 1.245 . S
C697 C703 1.428 . S
C698 C701 1.260 . S
C698 C702 1.477 . S
C698 H716 0.932 . S
C699 C700 1.384 . S
C699 C701 1.479 . S
C699 H717 0.929 . S
C700 C697 1.424 . S
C700 C699 1.384 . S
C700 H718 0.928 . S
C701 C698 1.260 . S
C701 C699 1.479 . S
C702 C697 1.245 . S
C702 C698 1.477 . S
C702 H719 0.932 . S
C703 U686 2.882 . S
C703 C697 1.428 . S
C703 O706 1.301 . S
C703 O707 1.282 . S
O704 U686 2.441 . S
O704 C690 1.249 . S
O705 U686 2.420 . S
O705 C690 1.202 . S
O706 U686 2.455 . S
O706 C703 1.301 . S
O707 U686 2.449 . S
O707 C703 1.282 . S
H708 C681 0.931 . S
H709 C683 0.929 . S
H710 C684 0.930 . S
H711 C685 0.931 . S
H712 C692 0.932 . S
H713 C693 0.930 . S
H714 C694 0.929 . S
H715 C696 0.930 . S
H716 C698 0.932 . S
H717 C699 0.929 . S
H718 C700 0.928 . S
H719 C702 0.932 . S
C720 C721 1.264 . S
C720 C725 1.479 . S
C720 C730 1.465 . S
C721 C720 1.264 . S
C721 C723 1.339 . S
C721 H748 0.931 . S
C722 C723 1.395 . S
C722 C724 1.320 . S
C723 C721 1.339 . S
C723 C722 1.395 . S
C723 H749 0.929 . S
C724 C722 1.320 . S
C724 C725 1.405 . S
C724 H750 0.930 . S
C725 C720 1.479 . S
C725 C724 1.405 . S
C725 H751 0.931 . S
U726 O727 2.454 . S
U726 O728 2.458 . S
U726 C729 2.984 . S
U726 C730 2.847 . S
U726 C743 2.882 . S
U726 O744 2.441 . S
U726 O745 2.420 . S
U726 O746 2.455 . S
U726 O747 2.449 . S
O727 U726 2.454 . S
O727 C729 1.353 . S
O728 U726 2.458 . S
O728 C729 1.286 . S
C729 U726 2.984 . S
C729 O727 1.353 . S
C729 O728 1.286 . S
C729 C731 1.363 . S
C730 C720 1.465 . S
C730 U726 2.847 . S
C730 O744 1.249 . S
C730 O745 1.202 . S
C731 C729 1.363 . S
C731 C733 1.408 . S
C731 C736 1.342 . S
C732 C733 1.310 . S
C732 C735 1.461 . S
C732 H752 0.932 . S
C733 C731 1.408 . S
C733 C732 1.310 . S
C733 H753 0.930 . S
C734 C735 1.447 1_565 S
C734 C736 1.272 1_565 S
C734 H754 0.973 . S
C735 C732 1.461 . S
C735 C734 1.447 1_545 S
C736 C731 1.342 . S
C736 C734 1.272 1_545 S
C736 H755 0.930 1_545 S
C737 C740 1.424 . S
C737 C742 1.245 1_545 S
C737 C743 1.428 . S
C738 C741 1.260 . S
C738 C742 1.477 . S
C738 H756 0.932 . S
C739 C740 1.384 1_565 S
C739 C741 1.479 . S
C739 H757 0.929 . S
C740 C737 1.424 . S
C740 C739 1.384 1_545 S
C740 H758 0.928 . S
C741 C738 1.260 . S
C741 C739 1.479 . S
C742 C737 1.245 1_565 S
C742 C738 1.477 . S
C742 H759 0.932 . S
C743 U726 2.882 . S
C743 C737 1.428 . S
C743 O746 1.301 . S
C743 O747 1.282 . S
O744 U726 2.441 . S
O744 C730 1.249 . S
O745 U726 2.420 . S
O745 C730 1.202 . S
O746 U726 2.455 . S
O746 C743 1.301 . S
O747 U726 2.449 . S
O747 C743 1.282 . S
H748 C721 0.931 . S
H749 C723 0.929 . S
H750 C724 0.930 . S
H751 C725 0.931 . S
H752 C732 0.932 . S
H753 C733 0.930 . S
H754 C734 0.973 . S
H755 C736 0.930 1_565 S
H756 C738 0.932 . S
H757 C739 0.929 . S
H758 C740 0.928 . S
H759 C742 0.932 . S
C760 C761 1.264 . S
C760 C765 1.479 . S
C760 C770 1.465 . S
C761 C760 1.264 . S
C761 C763 1.339 . S
C761 H788 0.931 . S
C762 C763 1.395 . S
C762 C764 1.320 . S
C763 C761 1.339 . S
C763 C762 1.395 . S
C763 H789 0.929 . S
C764 C762 1.320 . S
C764 C765 1.405 . S
C764 H790 0.930 . S
C765 C760 1.479 . S
C765 C764 1.405 . S
C765 H791 0.931 . S
U766 O767 2.454 . S
U766 O768 2.458 . S
U766 C769 2.984 . S
U766 C770 2.847 . S
U766 C783 2.882 . S
U766 O784 2.441 . S
U766 O785 2.420 . S
U766 O786 2.455 . S
U766 O787 2.449 . S
O767 U766 2.454 . S
O767 C769 1.353 . S
O768 U766 2.458 . S
O768 C769 1.286 . S
C769 U766 2.984 . S
C769 O767 1.353 . S
C769 O768 1.286 . S
C769 C771 1.363 . S
C770 C760 1.465 . S
C770 U766 2.847 . S
C770 O784 1.249 . S
C770 O785 1.202 . S
C771 C769 1.363 . S
C771 C773 1.408 . S
C771 C776 1.342 . S
C772 C773 1.310 . S
C772 C775 1.461 . S
C772 H792 0.932 . S
C773 C771 1.408 . S
C773 C772 1.310 . S
C773 H793 0.930 . S
C774 C775 1.474 . S
C774 C776 1.285 . S
C774 H794 0.929 . S
C775 C772 1.461 . S
C775 C774 1.474 . S
C776 C771 1.342 . S
C776 C774 1.285 . S
C776 H795 0.930 . S
C777 C780 1.424 . S
C777 C782 1.245 . S
C777 C783 1.428 . S
C778 C781 1.260 . S
C778 C782 1.477 . S
C778 H796 0.932 . S
C779 C780 1.384 . S
C779 C781 1.479 . S
C779 H797 0.929 . S
C780 C777 1.424 . S
C780 C779 1.384 . S
C780 H798 0.928 . S
C781 C778 1.260 . S
C781 C779 1.479 . S
C782 C777 1.245 . S
C782 C778 1.477 . S
C782 H799 0.932 . S
C783 U766 2.882 . S
C783 C777 1.428 . S
C783 O786 1.301 . S
C783 O787 1.282 . S
O784 U766 2.441 . S
O784 C770 1.249 . S
O785 U766 2.420 . S
O785 C770 1.202 . S
O786 U766 2.455 . S
O786 C783 1.301 . S
O787 U766 2.449 . S
O787 C783 1.282 . S
H788 C761 0.931 . S
H789 C763 0.929 . S
H790 C764 0.930 . S
H791 C765 0.931 . S
H792 C772 0.932 . S
H793 C773 0.930 . S
H794 C774 0.929 . S
H795 C776 0.930 . S
H796 C778 0.932 . S
H797 C779 0.929 . S
H798 C780 0.928 . S
H799 C782 0.932 . S
C800 C801 1.264 . S
C800 C805 1.479 . S
C800 C810 1.465 . S
C801 C800 1.264 . S
C801 C803 1.339 . S
C801 H828 0.931 . S
C802 C803 1.395 . S
C802 C804 1.320 . S
C803 C801 1.339 . S
C803 C802 1.395 . S
C803 H829 0.929 . S
C804 C802 1.320 . S
C804 C805 1.405 . S
C804 H830 0.930 . S
C805 C800 1.479 . S
C805 C804 1.405 . S
C805 H831 0.931 . S
U806 O807 2.454 . S
U806 O808 2.458 . S
U806 C809 2.984 . S
U806 C810 2.847 . S
U806 C823 2.882 . S
U806 O824 2.441 . S
U806 O825 2.420 . S
U806 O826 2.455 . S
U806 O827 2.449 . S
O807 U806 2.454 . S
O807 C809 1.353 . S
O808 U806 2.458 . S
O808 C809 1.286 . S
C809 U806 2.984 . S
C809 O807 1.353 . S
C809 O808 1.286 . S
C809 C811 1.363 . S
C810 C800 1.465 . S
C810 U806 2.847 . S
C810 O824 1.249 . S
C810 O825 1.202 . S
C811 C809 1.363 . S
C811 C813 1.408 . S
C811 C816 1.342 . S
C812 C813 1.310 . S
C812 C815 1.461 . S
C812 H832 0.932 . S
C813 C811 1.408 . S
C813 C812 1.310 . S
C813 H833 0.930 . S
C814 C815 1.474 1_554 S
C814 C816 1.285 1_554 S
C814 H834 0.929 . S
C815 C812 1.461 . S
C815 C814 1.474 1_556 S
C816 C811 1.342 . S
C816 C814 1.285 1_556 S
C816 H835 0.930 1_556 S
C817 C820 1.424 . S
C817 C822 1.245 1_556 S
C817 C823 1.428 . S
C818 C821 1.260 . S
C818 C822 1.477 . S
C818 H836 0.932 . S
C819 C820 1.384 1_554 S
C819 C821 1.479 . S
C819 H837 0.929 . S
C820 C817 1.424 . S
C820 C819 1.384 1_556 S
C820 H838 0.928 . S
C821 C818 1.260 . S
C821 C819 1.479 . S
C822 C817 1.245 1_554 S
C822 C818 1.477 . S
C822 H839 0.932 . S
C823 U806 2.882 . S
C823 C817 1.428 . S
C823 O826 1.301 . S
C823 O827 1.282 . S
O824 U806 2.441 . S
O824 C810 1.249 . S
O825 U806 2.420 . S
O825 C810 1.202 . S
O826 U806 2.455 . S
O826 C823 1.301 . S
O827 U806 2.449 . S
O827 C823 1.282 . S
H828 C801 0.931 . S
H829 C803 0.929 . S
H830 C804 0.930 . S
H831 C805 0.931 . S
H832 C812 0.932 . S
H833 C813 0.930 . S
H834 C814 0.929 . S
H835 C816 0.930 1_554 S
H836 C818 0.932 . S
H837 C819 0.929 . S
H838 C820 0.928 . S
H839 C822 0.932 . S
C840 C841 1.264 . S
C840 C845 1.479 . S
C840 C850 1.465 . S
C841 C840 1.264 . S
C841 C843 1.339 . S
C841 H868 0.931 . S
C842 C843 1.395 . S
C842 C844 1.320 . S
C843 C841 1.339 . S
C843 C842 1.395 . S
C843 H869 0.929 . S
C844 C842 1.320 . S
C844 C845 1.405 . S
C844 H870 0.930 . S
C845 C840 1.479 . S
C845 C844 1.405 . S
C845 H871 0.931 . S
U846 O847 2.454 . S
U846 O848 2.458 . S
U846 C849 2.984 . S
U846 C850 2.847 . S
U846 C863 2.882 . S
U846 O864 2.441 . S
U846 O865 2.420 . S
U846 O866 2.455 . S
U846 O867 2.449 . S
O847 U846 2.454 . S
O847 C849 1.353 . S
O848 U846 2.458 . S
O848 C849 1.286 . S
C849 U846 2.984 . S
C849 O847 1.353 . S
C849 O848 1.286 . S
C849 C851 1.363 . S
C850 C840 1.465 . S
C850 U846 2.847 . S
C850 O864 1.249 . S
C850 O865 1.202 . S
C851 C849 1.363 . S
C851 C853 1.408 . S
C851 C856 1.342 . S
C852 C853 1.310 . S
C852 C855 1.461 . S
C852 H872 0.932 . S
C853 C851 1.408 . S
C853 C852 1.310 . S
C853 H873 0.930 . S
C854 C855 1.474 . S
C854 C856 1.285 . S
C854 H874 0.929 . S
C855 C852 1.461 . S
C855 C854 1.474 . S
C856 C851 1.342 . S
C856 C854 1.285 . S
C856 H875 0.930 . S
C857 C860 1.424 . S
C857 C862 1.245 . S
C857 C863 1.428 . S
C858 C861 1.260 . S
C858 C862 1.477 . S
C858 H876 0.932 . S
C859 C860 1.384 . S
C859 C861 1.479 . S
C859 H877 0.929 . S
C860 C857 1.424 . S
C860 C859 1.384 . S
C860 H878 0.928 . S
C861 C858 1.260 . S
C861 C859 1.479 . S
C862 C857 1.245 . S
C862 C858 1.477 . S
C862 H879 0.932 . S
C863 U846 2.882 . S
C863 C857 1.428 . S
C863 O866 1.301 . S
C863 O867 1.282 . S
O864 U846 2.441 . S
O864 C850 1.249 . S
O865 U846 2.420 . S
O865 C850 1.202 . S
O866 U846 2.455 . S
O866 C863 1.301 . S
O867 U846 2.449 . S
O867 C863 1.282 . S
H868 C841 0.931 . S
H869 C843 0.929 . S
H870 C844 0.930 . S
H871 C845 0.931 . S
H872 C852 0.932 . S
H873 C853 0.930 . S
H874 C854 0.929 . S
H875 C856 0.930 . S
H876 C858 0.932 . S
H877 C859 0.929 . S
H878 C860 0.928 . S
H879 C862 0.932 . S
C880 C881 1.264 . S
C880 C885 1.479 . S
C880 C890 1.465 . S
C881 C880 1.264 . S
C881 C883 1.339 . S
C881 H908 0.931 . S
C882 C883 1.395 . S
C882 C884 1.320 . S
C883 C881 1.339 . S
C883 C882 1.395 . S
C883 H909 0.929 . S
C884 C882 1.320 . S
C884 C885 1.405 . S
C884 H910 0.930 . S
C885 C880 1.479 . S
C885 C884 1.405 . S
C885 H911 0.931 . S
U886 O887 2.454 . S
U886 O888 2.458 . S
U886 C889 2.984 . S
U886 C890 2.847 . S
U886 C903 2.882 . S
U886 O904 2.441 . S
U886 O905 2.420 . S
U886 O906 2.455 . S
U886 O907 2.449 . S
O887 U886 2.454 . S
O887 C889 1.353 . S
O888 U886 2.458 . S
O888 C889 1.286 . S
C889 U886 2.984 . S
C889 O887 1.353 . S
C889 O888 1.286 . S
C889 C891 1.363 . S
C890 C880 1.465 . S
C890 U886 2.847 . S
C890 O904 1.249 . S
C890 O905 1.202 . S
C891 C889 1.363 . S
C891 C893 1.408 . S
C891 C896 1.342 . S
C892 C893 1.310 . S
C892 C895 1.461 . S
C892 H912 0.932 . S
C893 C891 1.408 . S
C893 C892 1.310 . S
C893 H913 0.930 . S
C894 C895 1.474 . S
C894 C896 1.285 . S
C894 H914 0.929 . S
C895 C892 1.461 . S
C895 C894 1.474 . S
C896 C891 1.342 . S
C896 C894 1.285 . S
C896 H915 0.930 . S
C897 C900 1.424 . S
C897 C902 1.245 . S
C897 C903 1.428 . S
C898 C901 1.260 . S
C898 C902 1.477 . S
C898 H916 0.932 . S
C899 C900 1.384 . S
C899 C901 1.479 . S
C899 H917 0.929 . S
C900 C897 1.424 . S
C900 C899 1.384 . S
C900 H918 0.928 . S
C901 C898 1.260 . S
C901 C899 1.479 . S
C902 C897 1.245 . S
C902 C898 1.477 . S
C902 H919 0.932 . S
C903 U886 2.882 . S
C903 C897 1.428 . S
C903 O906 1.301 . S
C903 O907 1.282 . S
O904 U886 2.441 . S
O904 C890 1.249 . S
O905 U886 2.420 . S
O905 C890 1.202 . S
O906 U886 2.455 . S
O906 C903 1.301 . S
O907 U886 2.449 . S
O907 C903 1.282 . S
H908 C881 0.931 . S
H909 C883 0.929 . S
H910 C884 0.930 . S
H911 C885 0.931 . S
H912 C892 0.932 . S
H913 C893 0.930 . S
H914 C894 0.929 . S
H915 C896 0.930 . S
H916 C898 0.932 . S
H917 C899 0.929 . S
H918 C900 0.928 . S
H919 C902 0.932 . S
C920 C921 1.264 . S
C920 C925 1.479 . S
C920 C930 1.465 . S
C921 C920 1.264 . S
C921 C923 1.339 . S
C921 H948 0.931 . S
C922 C923 1.395 . S
C922 C924 1.320 . S
C923 C921 1.339 . S
C923 C922 1.395 . S
C923 H949 0.929 . S
C924 C922 1.320 . S
C924 C925 1.405 . S
C924 H950 0.930 . S
C925 C920 1.479 . S
C925 C924 1.405 . S
C925 H951 0.931 . S
U926 O927 2.454 . S
U926 O928 2.458 . S
U926 C929 2.984 . S
U926 C930 2.847 . S
U926 C943 2.882 . S
U926 O944 2.441 . S
U926 O945 2.420 . S
U926 O946 2.455 . S
U926 O947 2.449 . S
O927 U926 2.454 . S
O927 C929 1.353 . S
O928 U926 2.458 . S
O928 C929 1.286 . S
C929 U926 2.984 . S
C929 O927 1.353 . S
C929 O928 1.286 . S
C929 C931 1.363 . S
C930 C920 1.465 . S
C930 U926 2.847 . S
C930 O944 1.249 . S
C930 O945 1.202 . S
C931 C929 1.363 . S
C931 C933 1.408 . S
C931 C936 1.342 . S
C932 C933 1.310 . S
C932 C935 1.461 . S
C932 H952 0.932 . S
C933 C931 1.408 . S
C933 C932 1.310 . S
C933 H953 0.930 . S
C934 C935 1.474 . S
C934 C936 1.285 . S
C934 H954 0.929 . S
C935 C932 1.461 . S
C935 C934 1.474 . S
C936 C931 1.342 . S
C936 C934 1.285 . S
C936 H955 0.930 . S
C937 C940 1.424 . S
C937 C942 1.245 . S
C937 C943 1.428 . S
C938 C941 1.260 . S
C938 C942 1.477 . S
C938 H956 0.932 . S
C939 C940 1.384 . S
C939 C941 1.479 . S
C939 H957 0.929 . S
C940 C937 1.424 . S
C940 C939 1.384 . S
C940 H958 0.928 . S
C941 C938 1.260 . S
C941 C939 1.479 . S
C942 C937 1.245 . S
C942 C938 1.477 . S
C942 H959 0.932 . S
C943 U926 2.882 . S
C943 C937 1.428 . S
C943 O946 1.301 . S
C943 O947 1.282 . S
O944 U926 2.441 . S
O944 C930 1.249 . S
O945 U926 2.420 . S
O945 C930 1.202 . S
O946 U926 2.455 . S
O946 C943 1.301 . S
O947 U926 2.449 . S
O947 C943 1.282 . S
H948 C921 0.931 . S
H949 C923 0.929 . S
H950 C924 0.930 . S
H951 C925 0.931 . S
H952 C932 0.932 . S
H953 C933 0.930 . S
H954 C934 0.929 . S
H955 C936 0.930 . S
H956 C938 0.932 . S
H957 C939 0.929 . S
H958 C940 0.928 . S
H959 C942 0.932 . S
C960 C961 1.264 . S
C960 C965 1.479 . S
C960 C970 1.465 . S
C961 C960 1.264 . S
C961 C963 1.339 . S
C961 H988 0.931 . S
C962 C963 1.395 . S
C962 C964 1.320 . S
C963 C961 1.339 . S
C963 C962 1.395 . S
C963 H989 0.929 . S
C964 C962 1.320 . S
C964 C965 1.405 . S
C964 H990 0.930 . S
C965 C960 1.479 . S
C965 C964 1.405 . S
C965 H991 0.931 . S
U966 O967 2.454 . S
U966 O968 2.458 . S
U966 C969 2.984 . S
U966 C970 2.847 . S
U966 C983 2.882 . S
U966 O984 2.441 . S
U966 O985 2.420 . S
U966 O986 2.455 . S
U966 O987 2.449 . S
O967 U966 2.454 . S
O967 C969 1.353 . S
O968 U966 2.458 . S
O968 C969 1.286 . S
C969 U966 2.984 . S
C969 O967 1.353 . S
C969 O968 1.286 . S
C969 C971 1.363 . S
C970 C960 1.465 . S
C970 U966 2.847 . S
C970 O984 1.249 . S
C970 O985 1.202 . S
C971 C969 1.363 . S
C971 C973 1.408 . S
C971 C976 1.342 . S
C972 C973 1.310 . S
C972 C975 1.461 . S
C972 H992 0.932 . S
C973 C971 1.408 . S
C973 C972 1.310 . S
C973 H993 0.930 . S
C974 C975 1.474 . S
C974 C976 1.285 . S
C974 H994 0.929 . S
C975 C972 1.461 . S
C975 C974 1.474 . S
C976 C971 1.342 . S
C976 C974 1.285 . S
C976 H995 0.930 . S
C977 C980 1.424 . S
C977 C982 1.245 . S
C977 C983 1.428 . S
C978 C981 1.260 . S
C978 C982 1.477 . S
C978 H996 0.932 . S
C979 C980 1.384 . S
C979 C981 1.479 . S
C979 H997 0.929 . S
C980 C977 1.424 . S
C980 C979 1.384 . S
C980 H998 0.928 . S
C981 C978 1.260 . S
C981 C979 1.479 . S
C982 C977 1.245 . S
C982 C978 1.477 . S
C982 H999 0.932 . S
C983 U966 2.882 . S
C983 C977 1.428 . S
C983 O986 1.301 . S
C983 O987 1.282 . S
O984 U966 2.441 . S
O984 C970 1.249 . S
O985 U966 2.420 . S
O985 C970 1.202 . S
O986 U966 2.455 . S
O986 C983 1.301 . S
O987 U966 2.449 . S
O987 C983 1.282 . S
H988 C961 0.931 . S
H989 C963 0.929 . S
H990 C964 0.930 . S
H991 C965 0.931 . S
H992 C972 0.932 . S
H993 C973 0.930 . S
H994 C974 0.929 . S
H995 C976 0.930 . S
H996 C978 0.932 . S
H997 C979 0.929 . S
H998 C980 0.928 . S
H999 C982 0.932 . S
C1000 C1001 1.264 . S
C1000 C1005 1.479 . S
C1000 C1010 1.465 . S
C1001 C1000 1.264 . S
C1001 C1003 1.339 . S
C1001 H1028 0.931 . S
C1002 C1003 1.395 . S
C1002 C1004 1.320 . S
C1003 C1001 1.339 . S
C1003 C1002 1.395 . S
C1003 H1029 0.929 . S
C1004 C1002 1.320 . S
C1004 C1005 1.405 . S
C1004 H1030 0.930 . S
C1005 C1000 1.479 . S
C1005 C1004 1.405 . S
C1005 H1031 0.931 . S
U1006 O1007 2.454 . S
U1006 O1008 2.458 . S
U1006 C1009 2.984 . S
U1006 C1010 2.847 . S
U1006 C1023 2.882 . S
U1006 O1024 2.441 . S
U1006 O1025 2.420 . S
U1006 O1026 2.455 . S
U1006 O1027 2.449 . S
O1007 U1006 2.454 . S
O1007 C1009 1.353 . S
O1008 U1006 2.458 . S
O1008 C1009 1.286 . S
C1009 U1006 2.984 . S
C1009 O1007 1.353 . S
C1009 O1008 1.286 . S
C1009 C1011 1.363 . S
C1010 C1000 1.465 . S
C1010 U1006 2.847 . S
C1010 O1024 1.249 . S
C1010 O1025 1.202 . S
C1011 C1009 1.363 . S
C1011 C1013 1.408 . S
C1011 C1016 1.342 . S
C1012 C1013 1.310 . S
C1012 C1015 1.461 . S
C1012 H1032 0.932 . S
C1013 C1011 1.408 . S
C1013 C1012 1.310 . S
C1013 H1033 0.930 . S
C1014 C1015 1.474 . S
C1014 C1016 1.285 . S
C1014 H1034 0.929 . S
C1015 C1012 1.461 . S
C1015 C1014 1.474 . S
C1016 C1011 1.342 . S
C1016 C1014 1.285 . S
C1016 H1035 0.930 . S
C1017 C1020 1.424 . S
C1017 C1022 1.245 . S
C1017 C1023 1.428 . S
C1018 C1021 1.260 . S
C1018 C1022 1.477 . S
C1018 H1036 0.932 . S
C1019 C1020 1.384 . S
C1019 C1021 1.479 . S
C1019 H1037 0.929 . S
C1020 C1017 1.424 . S
C1020 C1019 1.384 . S
C1020 H1038 0.928 . S
C1021 C1018 1.260 . S
C1021 C1019 1.479 . S
C1022 C1017 1.245 . S
C1022 C1018 1.477 . S
C1022 H1039 0.932 . S
C1023 U1006 2.882 . S
C1023 C1017 1.428 . S
C1023 O1026 1.301 . S
C1023 O1027 1.282 . S
O1024 U1006 2.441 . S
O1024 C1010 1.249 . S
O1025 U1006 2.420 . S
O1025 C1010 1.202 . S
O1026 U1006 2.455 . S
O1026 C1023 1.301 . S
O1027 U1006 2.449 . S
O1027 C1023 1.282 . S
H1028 C1001 0.931 . S
H1029 C1003 0.929 . S
H1030 C1004 0.930 . S
H1031 C1005 0.931 . S
H1032 C1012 0.932 . S
H1033 C1013 0.930 . S
H1034 C1014 0.929 . S
H1035 C1016 0.930 . S
H1036 C1018 0.932 . S
H1037 C1019 0.929 . S
H1038 C1020 0.928 . S
H1039 C1022 0.932 . S
C1040 C1041 1.264 . S
C1040 C1045 1.479 . S
C1040 C1050 1.465 . S
C1041 C1040 1.264 . S
C1041 C1043 1.339 . S
C1041 H1068 0.931 . S
C1042 C1043 1.395 . S
C1042 C1044 1.320 . S
C1043 C1041 1.339 . S
C1043 C1042 1.395 . S
C1043 H1069 0.929 . S
C1044 C1042 1.320 . S
C1044 C1045 1.405 . S
C1044 H1070 0.930 . S
C1045 C1040 1.479 . S
C1045 C1044 1.405 . S
C1045 H1071 0.931 . S
U1046 O1047 2.454 . S
U1046 O1048 2.458 . S
U1046 C1049 2.984 . S
U1046 C1050 2.847 . S
U1046 C1063 2.882 . S
U1046 O1064 2.441 . S
U1046 O1065 2.420 . S
U1046 O1066 2.455 . S
U1046 O1067 2.449 . S
O1047 U1046 2.454 . S
O1047 C1049 1.353 . S
O1048 U1046 2.458 . S
O1048 C1049 1.286 . S
C1049 U1046 2.984 . S
C1049 O1047 1.353 . S
C1049 O1048 1.286 . S
C1049 C1051 1.363 . S
C1050 C1040 1.465 . S
C1050 U1046 2.847 . S
C1050 O1064 1.249 . S
C1050 O1065 1.202 . S
C1051 C1049 1.363 . S
C1051 C1053 1.408 . S
C1051 C1056 1.342 . S
C1052 C1053 1.310 . S
C1052 C1055 1.461 . S
C1052 H1072 0.932 . S
C1053 C1051 1.408 . S
C1053 C1052 1.310 . S
C1053 H1073 0.930 . S
C1054 C1055 1.474 . S
C1054 C1056 1.285 . S
C1054 H1074 0.929 . S
C1055 C1052 1.461 . S
C1055 C1054 1.474 . S
C1056 C1051 1.342 . S
C1056 C1054 1.285 . S
C1056 H1075 0.930 . S
C1057 C1060 1.424 . S
C1057 C1062 1.245 . S
C1057 C1063 1.428 . S
C1058 C1061 1.260 . S
C1058 C1062 1.477 . S
C1058 H1076 0.932 . S
C1059 C1060 1.384 . S
C1059 C1061 1.479 . S
C1059 H1077 0.929 . S
C1060 C1057 1.424 . S
C1060 C1059 1.384 . S
C1060 H1078 0.928 . S
C1061 C1058 1.260 . S
C1061 C1059 1.479 . S
C1062 C1057 1.245 . S
C1062 C1058 1.477 . S
C1062 H1079 0.932 . S
C1063 U1046 2.882 . S
C1063 C1057 1.428 . S
C1063 O1066 1.301 . S
C1063 O1067 1.282 . S
O1064 U1046 2.441 . S
O1064 C1050 1.249 . S
O1065 U1046 2.420 . S
O1065 C1050 1.202 . S
O1066 U1046 2.455 . S
O1066 C1063 1.301 . S
O1067 U1046 2.449 . S
O1067 C1063 1.282 . S
H1068 C1041 0.931 . S
H1069 C1043 0.929 . S
H1070 C1044 0.930 . S
H1071 C1045 0.931 . S
H1072 C1052 0.932 . S
H1073 C1053 0.930 . S
H1074 C1054 0.929 . S
H1075 C1056 0.930 . S
H1076 C1058 0.932 . S
H1077 C1059 0.929 . S
H1078 C1060 0.928 . S
H1079 C1062 0.932 . S
C1080 C1081 1.264 . S
C1080 C1085 1.479 . S
C1080 C1090 1.465 . S
C1081 C1080 1.264 . S
C1081 C1083 1.339 . S
C1081 H1108 0.931 . S
C1082 C1083 1.395 . S
C1082 C1084 1.320 . S
C1083 C1081 1.339 . S
C1083 C1082 1.395 . S
C1083 H1109 0.929 . S
C1084 C1082 1.320 . S
C1084 C1085 1.405 . S
C1084 H1110 0.930 . S
C1085 C1080 1.479 . S
C1085 C1084 1.405 . S
C1085 H1111 0.931 . S
U1086 O1087 2.454 . S
U1086 O1088 2.458 . S
U1086 C1089 2.984 . S
U1086 C1090 2.847 . S
U1086 C1103 2.882 . S
U1086 O1104 2.441 . S
U1086 O1105 2.420 . S
U1086 O1106 2.455 . S
U1086 O1107 2.449 . S
O1087 U1086 2.454 . S
O1087 C1089 1.353 . S
O1088 U1086 2.458 . S
O1088 C1089 1.286 . S
C1089 U1086 2.984 . S
C1089 O1087 1.353 . S
C1089 O1088 1.286 . S
C1089 C1091 1.363 . S
C1090 C1080 1.465 . S
C1090 U1086 2.847 . S
C1090 O1104 1.249 . S
C1090 O1105 1.202 . S
C1091 C1089 1.363 . S
C1091 C1093 1.408 . S
C1091 C1096 1.342 . S
C1092 C1093 1.310 . S
C1092 C1095 1.461 . S
C1092 H1112 0.932 . S
C1093 C1091 1.408 . S
C1093 C1092 1.310 . S
C1093 H1113 0.930 . S
C1094 C1095 1.474 . S
C1094 C1096 1.285 . S
C1094 H1114 0.929 . S
C1095 C1092 1.461 . S
C1095 C1094 1.474 . S
C1096 C1091 1.342 . S
C1096 C1094 1.285 . S
C1096 H1115 0.930 . S
C1097 C1100 1.424 . S
C1097 C1102 1.245 . S
C1097 C1103 1.428 . S
C1098 C1101 1.260 . S
C1098 C1102 1.477 . S
C1098 H1116 0.932 . S
C1099 C1100 1.384 . S
C1099 C1101 1.479 . S
C1099 H1117 0.929 . S
C1100 C1097 1.424 . S
C1100 C1099 1.384 . S
C1100 H1118 0.928 . S
C1101 C1098 1.260 . S
C1101 C1099 1.479 . S
C1102 C1097 1.245 . S
C1102 C1098 1.477 . S
C1102 H1119 0.932 . S
C1103 U1086 2.882 . S
C1103 C1097 1.428 . S
C1103 O1106 1.301 . S
C1103 O1107 1.282 . S
O1104 U1086 2.441 . S
O1104 C1090 1.249 . S
O1105 U1086 2.420 . S
O1105 C1090 1.202 . S
O1106 U1086 2.455 . S
O1106 C1103 1.301 . S
O1107 U1086 2.449 . S
O1107 C1103 1.282 . S
H1108 C1081 0.931 . S
H1109 C1083 0.929 . S
H1110 C1084 0.930 . S
H1111 C1085 0.931 . S
H1112 C1092 0.932 . S
H1113 C1093 0.930 . S
H1114 C1094 0.929 . S
H1115 C1096 0.930 . S
H1116 C1098 0.932 . S
H1117 C1099 0.929 . S
H1118 C1100 0.928 . S
H1119 C1102 0.932 . S
C1120 C1121 1.264 . S
C1120 C1125 1.479 . S
C1120 C1130 1.465 . S
C1121 C1120 1.264 . S
C1121 C1123 1.339 . S
C1121 H1148 0.931 . S
C1122 C1123 1.395 . S
C1122 C1124 1.320 . S
C1123 C1121 1.339 . S
C1123 C1122 1.395 . S
C1123 H1149 0.929 . S
C1124 C1122 1.320 . S
C1124 C1125 1.405 . S
C1124 H1150 0.930 . S
C1125 C1120 1.479 . S
C1125 C1124 1.405 . S
C1125 H1151 0.931 . S
U1126 O1127 2.454 . S
U1126 O1128 2.458 . S
U1126 C1129 2.984 . S
U1126 C1130 2.847 . S
U1126 C1143 2.882 . S
U1126 O1144 2.441 . S
U1126 O1145 2.420 . S
U1126 O1146 2.455 . S
U1126 O1147 2.449 . S
O1127 U1126 2.454 . S
O1127 C1129 1.353 . S
O1128 U1126 2.458 . S
O1128 C1129 1.286 . S
C1129 U1126 2.984 . S
C1129 O1127 1.353 . S
C1129 O1128 1.286 . S
C1129 C1131 1.363 . S
C1130 C1120 1.465 . S
C1130 U1126 2.847 . S
C1130 O1144 1.249 . S
C1130 O1145 1.202 . S
C1131 C1129 1.363 . S
C1131 C1133 1.408 . S
C1131 C1136 1.342 . S
C1132 C1133 1.310 . S
C1132 C1135 1.461 . S
C1132 H1152 0.932 . S
C1133 C1131 1.408 . S
C1133 C1132 1.310 . S
C1133 H1153 0.930 . S
C1134 C1135 1.474 . S
C1134 C1136 1.285 . S
C1134 H1154 0.929 . S
C1135 C1132 1.461 . S
C1135 C1134 1.474 . S
C1136 C1131 1.342 . S
C1136 C1134 1.285 . S
C1136 H1155 0.930 . S
C1137 C1140 1.424 . S
C1137 C1142 1.245 . S
C1137 C1143 1.428 . S
C1138 C1141 1.260 . S
C1138 C1142 1.477 . S
C1138 H1156 0.932 . S
C1139 C1140 1.384 . S
C1139 C1141 1.479 . S
C1139 H1157 0.929 . S
C1140 C1137 1.424 . S
C1140 C1139 1.384 . S
C1140 H1158 0.928 . S
C1141 C1138 1.260 . S
C1141 C1139 1.479 . S
C1142 C1137 1.245 . S
C1142 C1138 1.477 . S
C1142 H1159 0.932 . S
C1143 U1126 2.882 . S
C1143 C1137 1.428 . S
C1143 O1146 1.301 . S
C1143 O1147 1.282 . S
O1144 U1126 2.441 . S
O1144 C1130 1.249 . S
O1145 U1126 2.420 . S
O1145 C1130 1.202 . S
O1146 U1126 2.455 . S
O1146 C1143 1.301 . S
O1147 U1126 2.449 . S
O1147 C1143 1.282 . S
H1148 C1121 0.931 . S
H1149 C1123 0.929 . S
H1150 C1124 0.930 . S
H1151 C1125 0.931 . S
H1152 C1132 0.932 . S
H1153 C1133 0.930 . S
H1154 C1134 0.929 . S
H1155 C1136 0.930 . S
H1156 C1138 0.932 . S
H1157 C1139 0.929 . S
H1158 C1140 0.928 . S
H1159 C1142 0.932 . S
C1160 C1161 1.264 . S
C1160 C1165 1.479 . S
C1160 C1170 1.465 . S
C1161 C1160 1.264 . S
C1161 C1163 1.339 . S
C1161 H1188 0.931 . S
C1162 C1163 1.395 . S
C1162 C1164 1.320 . S
C1163 C1161 1.339 . S
C1163 C1162 1.395 . S
C1163 H1189 0.929 . S
C1164 C1162 1.320 . S
C1164 C1165 1.405 . S
C1164 H1190 0.930 . S
C1165 C1160 1.479 . S
C1165 C1164 1.405 . S
C1165 H1191 0.931 . S
U1166 O1167 2.454 . S
U1166 O1168 2.458 . S
U1166 C1169 2.984 . S
U1166 C1170 2.847 . S
U1166 C1183 2.902 . S
U1166 O1184 2.441 . S
U1166 O1185 2.420 . S
U1166 O1186 2.455 1_565 S
U1166 O1187 2.449 . S
O1167 U1166 2.454 . S
O1167 C1169 1.353 . S
O1168 U1166 2.458 . S
O1168 C1169 1.286 . S
C1169 U1166 2.984 . S
C1169 O1167 1.353 . S
C1169 O1168 1.286 . S
C1169 C1171 1.363 . S
C1170 C1160 1.465 . S
C1170 U1166 2.847 . S
C1170 O1184 1.249 . S
C1170 O1185 1.202 . S
C1171 C1169 1.363 . S
C1171 C1173 1.408 . S
C1171 C1176 1.342 . S
C1172 C1173 1.310 . S
C1172 C1175 1.461 . S
C1172 H1192 0.932 . S
C1173 C1171 1.408 . S
C1173 C1172 1.310 . S
C1173 H1193 0.930 . S
C1174 C1175 1.454 1_545 S
C1174 C1176 1.278 1_545 S
C1174 H1194 0.960 . S
C1175 C1172 1.461 . S
C1175 C1174 1.454 1_565 S
C1176 C1171 1.342 . S
C1176 C1174 1.278 1_565 S
C1176 H1195 0.930 1_565 S
C1177 C1180 1.424 . S
C1177 C1182 1.245 . S
C1177 C1183 1.412 1_545 S
C1178 C1181 1.260 . S
C1178 C1182 1.477 . S
C1178 H1196 0.932 . S
C1179 C1180 1.384 . S
C1179 C1181 1.479 . S
C1179 H1197 0.929 . S
C1180 C1177 1.424 . S
C1180 C1179 1.384 . S
C1180 H1198 0.928 1_545 S
C1181 C1178 1.260 . S
C1181 C1179 1.479 . S
C1182 C1177 1.245 . S
C1182 C1178 1.477 . S
C1182 H1199 0.932 . S
C1183 U1166 2.902 . S
C1183 C1177 1.412 1_565 S
C1183 O1186 1.297 1_565 S
C1183 O1187 1.304 . S
O1184 U1166 2.441 . S
O1184 C1170 1.249 . S
O1185 U1166 2.420 . S
O1185 C1170 1.202 . S
O1186 U1166 2.455 1_545 S
O1186 C1183 1.297 1_545 S
O1187 U1166 2.449 . S
O1187 C1183 1.304 . S
H1188 C1161 0.931 . S
H1189 C1163 0.929 . S
H1190 C1164 0.930 . S
H1191 C1165 0.931 . S
H1192 C1172 0.932 . S
H1193 C1173 0.930 . S
H1194 C1174 0.960 . S
H1195 C1176 0.930 1_545 S
H1196 C1178 0.932 . S
H1197 C1179 0.929 . S
H1198 C1180 0.928 1_565 S
H1199 C1182 0.932 . S
C1200 C1201 1.264 . S
C1200 C1205 1.479 . S
C1200 C1210 1.465 . S
C1201 C1200 1.264 . S
C1201 C1203 1.339 . S
C1201 H1228 0.931 . S
C1202 C1203 1.395 . S
C1202 C1204 1.320 . S
C1203 C1201 1.339 . S
C1203 C1202 1.395 . S
C1203 H1229 0.929 . S
C1204 C1202 1.320 . S
C1204 C1205 1.405 . S
C1204 H1230 0.930 . S
C1205 C1200 1.479 . S
C1205 C1204 1.405 . S
C1205 H1231 0.931 . S
U1206 O1207 2.454 . S
U1206 O1208 2.458 . S
U1206 C1209 2.984 . S
U1206 C1210 2.847 . S
U1206 C1223 2.882 . S
U1206 O1224 2.441 . S
U1206 O1225 2.420 . S
U1206 O1226 2.455 . S
U1206 O1227 2.449 . S
O1207 U1206 2.454 . S
O1207 C1209 1.353 . S
O1208 U1206 2.458 . S
O1208 C1209 1.286 . S
C1209 U1206 2.984 . S
C1209 O1207 1.353 . S
C1209 O1208 1.286 . S
C1209 C1211 1.363 . S
C1210 C1200 1.465 . S
C1210 U1206 2.847 . S
C1210 O1224 1.249 . S
C1210 O1225 1.202 . S
C1211 C1209 1.363 . S
C1211 C1213 1.408 . S
C1211 C1216 1.342 . S
C1212 C1213 1.310 . S
C1212 C1215 1.461 . S
C1212 H1232 0.932 . S
C1213 C1211 1.408 . S
C1213 C1212 1.310 . S
C1213 H1233 0.930 . S
C1214 C1215 1.474 . S
C1214 C1216 1.285 . S
C1214 H1234 0.929 . S
C1215 C1212 1.461 . S
C1215 C1214 1.474 . S
C1216 C1211 1.342 . S
C1216 C1214 1.285 . S
C1216 H1235 0.930 . S
C1217 C1220 1.424 . S
C1217 C1222 1.245 . S
C1217 C1223 1.428 . S
C1218 C1221 1.260 . S
C1218 C1222 1.477 . S
C1218 H1236 0.932 . S
C1219 C1220 1.384 . S
C1219 C1221 1.479 . S
C1219 H1237 0.929 . S
C1220 C1217 1.424 . S
C1220 C1219 1.384 . S
C1220 H1238 0.928 . S
C1221 C1218 1.260 . S
C1221 C1219 1.479 . S
C1222 C1217 1.245 . S
C1222 C1218 1.477 . S
C1222 H1239 0.932 . S
C1223 U1206 2.882 . S
C1223 C1217 1.428 . S
C1223 O1226 1.301 . S
C1223 O1227 1.282 . S
O1224 U1206 2.441 . S
O1224 C1210 1.249 . S
O1225 U1206 2.420 . S
O1225 C1210 1.202 . S
O1226 U1206 2.455 . S
O1226 C1223 1.301 . S
O1227 U1206 2.449 . S
O1227 C1223 1.282 . S
H1228 C1201 0.931 . S
H1229 C1203 0.929 . S
H1230 C1204 0.930 . S
H1231 C1205 0.931 . S
H1232 C1212 0.932 . S
H1233 C1213 0.930 . S
H1234 C1214 0.929 . S
H1235 C1216 0.930 . S
H1236 C1218 0.932 . S
H1237 C1219 0.929 . S
H1238 C1220 0.928 . S
H1239 C1222 0.932 . S
C1240 C1241 1.264 . S
C1240 C1245 1.479 . S
C1240 C1250 1.465 . S
C1241 C1240 1.264 . S
C1241 C1243 1.339 . S
C1241 H1268 0.931 . S
C1242 C1243 1.395 . S
C1242 C1244 1.320 . S
C1243 C1241 1.339 . S
C1243 C1242 1.395 . S
C1243 H1269 0.929 . S
C1244 C1242 1.320 . S
C1244 C1245 1.405 . S
C1244 H1270 0.930 . S
C1245 C1240 1.479 . S
C1245 C1244 1.405 . S
C1245 H1271 0.931 . S
U1246 O1247 2.454 . S
U1246 O1248 2.458 . S
U1246 C1249 2.984 . S
U1246 C1250 2.847 . S
U1246 C1263 2.902 . S
U1246 O1264 2.441 . S
U1246 O1265 2.420 . S
U1246 O1266 2.455 1_545 S
U1246 O1267 2.449 . S
O1247 U1246 2.454 . S
O1247 C1249 1.353 . S
O1248 U1246 2.458 . S
O1248 C1249 1.286 . S
C1249 U1246 2.984 . S
C1249 O1247 1.353 . S
C1249 O1248 1.286 . S
C1249 C1251 1.363 . S
C1250 C1240 1.465 . S
C1250 U1246 2.847 . S
C1250 O1264 1.249 . S
C1250 O1265 1.202 . S
C1251 C1249 1.363 . S
C1251 C1253 1.408 . S
C1251 C1256 1.342 . S
C1252 C1253 1.310 . S
C1252 C1255 1.461 . S
C1252 H1272 0.932 . S
C1253 C1251 1.408 . S
C1253 C1252 1.310 . S
C1253 H1273 0.930 . S
C1254 C1255 1.454 1_565 S
C1254 C1256 1.278 1_565 S
C1254 H1274 0.960 . S
C1255 C1252 1.461 . S
C1255 C1254 1.454 1_545 S
C1256 C1251 1.342 . S
C1256 C1254 1.278 1_545 S
C1256 H1275 0.930 1_545 S
C1257 C1260 1.424 . S
C1257 C1262 1.245 . S
C1257 C1263 1.412 1_565 S
C1258 C1261 1.260 . S
C1258 C1262 1.477 . S
C1258 H1276 0.932 . S
C1259 C1260 1.384 . S
C1259 C1261 1.479 . S
C1259 H1277 0.929 . S
C1260 C1257 1.424 . S
C1260 C1259 1.384 . S
C1260 H1278 0.928 1_565 S
C1261 C1258 1.260 . S
C1261 C1259 1.479 . S
C1262 C1257 1.245 . S
C1262 C1258 1.477 . S
C1262 H1279 0.932 . S
C1263 U1246 2.902 . S
C1263 C1257 1.412 1_545 S
C1263 O1266 1.297 1_545 S
C1263 O1267 1.304 . S
O1264 U1246 2.441 . S
O1264 C1250 1.249 . S
O1265 U1246 2.420 . S
O1265 C1250 1.202 . S
O1266 U1246 2.455 1_565 S
O1266 C1263 1.297 1_565 S
O1267 U1246 2.449 . S
O1267 C1263 1.304 . S
H1268 C1241 0.931 . S
H1269 C1243 0.929 . S
H1270 C1244 0.930 . S
H1271 C1245 0.931 . S
H1272 C1252 0.932 . S
H1273 C1253 0.930 . S
H1274 C1254 0.960 . S
H1275 C1256 0.930 1_565 S
H1276 C1258 0.932 . S
H1277 C1259 0.929 . S
H1278 C1260 0.928 1_545 S
H1279 C1262 0.932 . S
C1280 C1281 1.264 . S
C1280 C1285 1.479 . S
C1280 C1290 1.465 . S
C1281 C1280 1.264 . S
C1281 C1283 1.339 . S
C1281 H1308 0.931 . S
C1282 C1283 1.395 . S
C1282 C1284 1.320 . S
C1283 C1281 1.339 . S
C1283 C1282 1.395 . S
C1283 H1309 0.929 . S
C1284 C1282 1.320 . S
C1284 C1285 1.405 . S
C1284 H1310 0.930 . S
C1285 C1280 1.479 . S
C1285 C1284 1.405 . S
C1285 H1311 0.931 . S
U1286 O1287 2.454 . S
U1286 O1288 2.458 . S
U1286 C1289 2.984 . S
U1286 C1290 2.847 . S
U1286 C1303 2.882 . S
U1286 O1304 2.441 . S
U1286 O1305 2.420 . S
U1286 O1306 2.455 . S
U1286 O1307 2.449 . S
O1287 U1286 2.454 . S
O1287 C1289 1.353 . S
O1288 U1286 2.458 . S
O1288 C1289 1.286 . S
C1289 U1286 2.984 . S
C1289 O1287 1.353 . S
C1289 O1288 1.286 . S
C1289 C1291 1.363 . S
C1290 C1280 1.465 . S
C1290 U1286 2.847 . S
C1290 O1304 1.249 . S
C1290 O1305 1.202 . S
C1291 C1289 1.363 . S
C1291 C1293 1.408 . S
C1291 C1296 1.342 . S
C1292 C1293 1.310 . S
C1292 C1295 1.461 . S
C1292 H1312 0.932 . S
C1293 C1291 1.408 . S
C1293 C1292 1.310 . S
C1293 H1313 0.930 . S
C1294 C1295 1.474 . S
C1294 C1296 1.285 . S
C1294 H1314 0.929 . S
C1295 C1292 1.461 . S
C1295 C1294 1.474 . S
C1296 C1291 1.342 . S
C1296 C1294 1.285 . S
C1296 H1315 0.930 . S
C1297 C1300 1.424 . S
C1297 C1302 1.245 . S
C1297 C1303 1.428 . S
C1298 C1301 1.260 . S
C1298 C1302 1.477 . S
C1298 H1316 0.932 . S
C1299 C1300 1.384 . S
C1299 C1301 1.479 . S
C1299 H1317 0.929 . S
C1300 C1297 1.424 . S
C1300 C1299 1.384 . S
C1300 H1318 0.928 . S
C1301 C1298 1.260 . S
C1301 C1299 1.479 . S
C1302 C1297 1.245 . S
C1302 C1298 1.477 . S
C1302 H1319 0.932 . S
C1303 U1286 2.882 . S
C1303 C1297 1.428 . S
C1303 O1306 1.301 . S
C1303 O1307 1.282 . S
O1304 U1286 2.441 . S
O1304 C1290 1.249 . S
O1305 U1286 2.420 . S
O1305 C1290 1.202 . S
O1306 U1286 2.455 . S
O1306 C1303 1.301 . S
O1307 U1286 2.449 . S
O1307 C1303 1.282 . S
H1308 C1281 0.931 . S
H1309 C1283 0.929 . S
H1310 C1284 0.930 . S
H1311 C1285 0.931 . S
H1312 C1292 0.932 . S
H1313 C1293 0.930 . S
H1314 C1294 0.929 . S
H1315 C1296 0.930 . S
H1316 C1298 0.932 . S
H1317 C1299 0.929 . S
H1318 C1300 0.928 . S
H1319 C1302 0.932 . S
C1320 C1321 1.264 . S
C1320 C1325 1.479 . S
C1320 C1330 1.465 . S
C1321 C1320 1.264 . S
C1321 C1323 1.339 . S
C1321 H1348 0.931 . S
C1322 C1323 1.395 . S
C1322 C1324 1.320 . S
C1323 C1321 1.339 . S
C1323 C1322 1.395 . S
C1323 H1349 0.929 . S
C1324 C1322 1.320 . S
C1324 C1325 1.405 . S
C1324 H1350 0.930 . S
C1325 C1320 1.479 . S
C1325 C1324 1.405 . S
C1325 H1351 0.931 . S
U1326 O1327 2.454 . S
U1326 O1328 2.458 . S
U1326 C1329 2.984 . S
U1326 C1330 2.847 . S
U1326 C1343 2.882 . S
U1326 O1344 2.441 . S
U1326 O1345 2.420 . S
U1326 O1346 2.412 1_556 S
U1326 O1347 2.449 . S
O1327 U1326 2.454 . S
O1327 C1329 1.353 . S
O1328 U1326 2.458 . S
O1328 C1329 1.286 . S
C1329 U1326 2.984 . S
C1329 O1327 1.353 . S
C1329 O1328 1.286 . S
C1329 C1331 1.363 . S
C1330 C1320 1.465 . S
C1330 U1326 2.847 . S
C1330 O1344 1.249 . S
C1330 O1345 1.202 . S
C1331 C1329 1.363 . S
C1331 C1333 1.408 . S
C1331 C1336 1.342 . S
C1332 C1333 1.310 . S
C1332 C1335 1.461 . S
C1332 H1352 0.932 . S
C1333 C1331 1.408 . S
C1333 C1332 1.310 . S
C1333 H1353 0.930 . S
C1334 C1335 1.474 . S
C1334 C1336 1.285 . S
C1334 H1354 0.929 1_556 S
C1335 C1332 1.461 . S
C1335 C1334 1.474 . S
C1336 C1331 1.342 . S
C1336 C1334 1.285 . S
C1336 H1355 0.930 1_556 S
C1337 C1340 1.424 . S
C1337 C1342 1.245 . S
C1337 C1343 1.428 1_554 S
C1338 C1341 1.260 . S
C1338 C1342 1.477 . S
C1338 H1356 0.932 . S
C1339 C1340 1.384 . S
C1339 C1341 1.479 . S
C1339 H1357 0.929 . S
C1340 C1337 1.424 . S
C1340 C1339 1.384 . S
C1340 H1358 0.928 1_554 S
C1341 C1338 1.260 . S
C1341 C1339 1.479 . S
C1342 C1337 1.245 . S
C1342 C1338 1.477 . S
C1342 H1359 0.932 . S
C1343 U1326 2.882 . S
C1343 C1337 1.428 1_556 S
C1343 O1346 1.294 1_556 S
C1343 O1347 1.282 . S
O1344 U1326 2.441 . S
O1344 C1330 1.249 . S
O1345 U1326 2.420 . S
O1345 C1330 1.202 . S
O1346 U1326 2.412 1_554 S
O1346 C1343 1.294 1_554 S
O1347 U1326 2.449 . S
O1347 C1343 1.282 . S
H1348 C1321 0.931 . S
H1349 C1323 0.929 . S
H1350 C1324 0.930 . S
H1351 C1325 0.931 . S
H1352 C1332 0.932 . S
H1353 C1333 0.930 . S
H1354 C1334 0.929 1_554 S
H1355 C1336 0.930 1_554 S
H1356 C1338 0.932 . S
H1357 C1339 0.929 . S
H1358 C1340 0.928 1_556 S
H1359 C1342 0.932 . S
C1360 C1361 1.264 . S
C1360 C1365 1.479 . S
C1360 C1370 1.465 . S
C1361 C1360 1.264 . S
C1361 C1363 1.339 . S
C1361 H1388 0.931 . S
C1362 C1363 1.395 . S
C1362 C1364 1.320 . S
C1363 C1361 1.339 . S
C1363 C1362 1.395 . S
C1363 H1389 0.929 . S
C1364 C1362 1.320 . S
C1364 C1365 1.405 . S
C1364 H1390 0.930 . S
C1365 C1360 1.479 . S
C1365 C1364 1.405 . S
C1365 H1391 0.931 . S
U1366 O1367 2.454 . S
U1366 O1368 2.458 . S
U1366 C1369 2.984 . S
U1366 C1370 2.847 . S
U1366 C1383 2.879 1_556 S
U1366 O1384 2.441 . S
U1366 O1385 2.420 . S
U1366 O1386 2.455 1_556 S
U1366 O1387 2.449 . S
O1367 U1366 2.454 . S
O1367 C1369 1.353 . S
O1368 U1366 2.458 . S
O1368 C1369 1.286 . S
C1369 U1366 2.984 . S
C1369 O1367 1.353 . S
C1369 O1368 1.286 . S
C1369 C1371 1.363 . S
C1370 C1360 1.465 . S
C1370 U1366 2.847 . S
C1370 O1384 1.249 . S
C1370 O1385 1.202 . S
C1371 C1369 1.363 . S
C1371 C1373 1.408 . S
C1371 C1376 1.342 . S
C1372 C1373 1.310 . S
C1372 C1375 1.461 . S
C1372 H1392 0.932 . S
C1373 C1371 1.408 . S
C1373 C1372 1.310 . S
C1373 H1393 0.930 . S
C1374 C1375 1.474 1_554 S
C1374 C1376 1.285 1_554 S
C1374 H1394 0.929 . S
C1375 C1372 1.461 . S
C1375 C1374 1.474 1_556 S
C1376 C1371 1.342 . S
C1376 C1374 1.285 1_556 S
C1376 H1395 0.930 1_556 S
C1377 C1380 1.424 . S
C1377 C1382 1.245 . S
C1377 C1383 1.431 . S
C1378 C1381 1.260 . S
C1378 C1382 1.477 . S
C1378 H1396 0.932 . S
C1379 C1380 1.384 . S
C1379 C1381 1.479 . S
C1379 H1397 0.929 . S
C1380 C1377 1.424 . S
C1380 C1379 1.384 . S
C1380 H1398 0.928 1_554 S
C1381 C1378 1.260 . S
C1381 C1379 1.479 . S
C1382 C1377 1.245 . S
C1382 C1378 1.477 . S
C1382 H1399 0.932 . S
C1383 U1366 2.879 1_554 S
C1383 C1377 1.431 . S
C1383 O1386 1.302 . S
C1383 O1387 1.278 1_554 S
O1384 U1366 2.441 . S
O1384 C1370 1.249 . S
O1385 U1366 2.420 . S
O1385 C1370 1.202 . S
O1386 U1366 2.455 1_554 S
O1386 C1383 1.302 . S
O1387 U1366 2.449 . S
O1387 C1383 1.278 1_556 S
H1388 C1361 0.931 . S
H1389 C1363 0.929 . S
H1390 C1364 0.930 . S
H1391 C1365 0.931 . S
H1392 C1372 0.932 . S
H1393 C1373 0.930 . S
H1394 C1374 0.929 . S
H1395 C1376 0.930 1_554 S
H1396 C1378 0.932 . S
H1397 C1379 0.929 . S
H1398 C1380 0.928 1_556 S
H1399 C1382 0.932 . S
C1400 C1401 1.264 . S
C1400 C1405 1.479 . S
C1400 C1410 1.465 . S
C1401 C1400 1.264 . S
C1401 C1403 1.339 . S
C1401 H1428 0.931 . S
C1402 C1403 1.395 . S
C1402 C1404 1.320 . S
C1403 C1401 1.339 . S
C1403 C1402 1.395 . S
C1403 H1429 0.929 . S
C1404 C1402 1.320 . S
C1404 C1405 1.405 . S
C1404 H1430 0.930 . S
C1405 C1400 1.479 . S
C1405 C1404 1.405 . S
C1405 H1431 0.931 . S
U1406 O1407 2.454 . S
U1406 O1408 2.458 . S
U1406 C1409 2.984 . S
U1406 C1410 2.847 . S
U1406 C1423 2.879 1_554 S
U1406 O1424 2.441 . S
U1406 O1425 2.420 . S
U1406 O1426 2.455 1_554 S
U1406 O1427 2.449 . S
O1407 U1406 2.454 . S
O1407 C1409 1.353 . S
O1408 U1406 2.458 . S
O1408 C1409 1.286 . S
C1409 U1406 2.984 . S
C1409 O1407 1.353 . S
C1409 O1408 1.286 . S
C1409 C1411 1.363 . S
C1410 C1400 1.465 . S
C1410 U1406 2.847 . S
C1410 O1424 1.249 . S
C1410 O1425 1.202 . S
C1411 C1409 1.363 . S
C1411 C1413 1.408 . S
C1411 C1416 1.342 . S
C1412 C1413 1.310 . S
C1412 C1415 1.461 . S
C1412 H1432 0.932 . S
C1413 C1411 1.408 . S
C1413 C1412 1.310 . S
C1413 H1433 0.930 . S
C1414 C1415 1.474 1_556 S
C1414 C1416 1.285 1_556 S
C1414 H1434 0.929 . S
C1415 C1412 1.461 . S
C1415 C1414 1.474 1_554 S
C1416 C1411 1.342 . S
C1416 C1414 1.285 1_554 S
C1416 H1435 0.930 1_554 S
C1417 C1420 1.424 . S
C1417 C1422 1.245 . S
C1417 C1423 1.431 . S
C1418 C1421 1.260 . S
C1418 C1422 1.477 . S
C1418 H1436 0.932 . S
C1419 C1420 1.384 . S
C1419 C1421 1.479 . S
C1419 H1437 0.929 . S
C1420 C1417 1.424 . S
C1420 C1419 1.384 . S
C1420 H1438 0.928 1_556 S
C1421 C1418 1.260 . S
C1421 C1419 1.479 . S
C1422 C1417 1.245 . S
C1422 C1418 1.477 . S
C1422 H1439 0.932 . S
C1423 U1406 2.879 1_556 S
C1423 C1417 1.431 . S
C1423 O1426 1.302 . S
C1423 O1427 1.278 1_556 S
O1424 U1406 2.441 . S
O1424 C1410 1.249 . S
O1425 U1406 2.420 . S
O1425 C1410 1.202 . S
O1426 U1406 2.455 1_556 S
O1426 C1423 1.302 . S
O1427 U1406 2.449 . S
O1427 C1423 1.278 1_554 S
H1428 C1401 0.931 . S
H1429 C1403 0.929 . S
H1430 C1404 0.930 . S
H1431 C1405 0.931 . S
H1432 C1412 0.932 . S
H1433 C1413 0.930 . S
H1434 C1414 0.929 . S
H1435 C1416 0.930 1_556 S
H1436 C1418 0.932 . S
H1437 C1419 0.929 . S
H1438 C1420 0.928 1_554 S
H1439 C1422 0.932 . S
C1440 C1441 1.264 . S
C1440 C1445 1.479 . S
C1440 C1450 1.465 . S
C1441 C1440 1.264 . S
C1441 C1443 1.339 . S
C1441 H1468 0.931 . S
C1442 C1443 1.395 . S
C1442 C1444 1.320 . S
C1443 C1441 1.339 . S
C1443 C1442 1.395 . S
C1443 H1469 0.929 . S
C1444 C1442 1.320 . S
C1444 C1445 1.405 . S
C1444 H1470 0.930 . S
C1445 C1440 1.479 . S
C1445 C1444 1.405 . S
C1445 H1471 0.931 . S
U1446 O1447 2.454 . S
U1446 O1448 2.458 . S
U1446 C1449 2.984 . S
U1446 C1450 2.847 . S
U1446 C1463 2.882 . S
U1446 O1464 2.441 . S
U1446 O1465 2.420 . S
U1446 O1466 2.455 . S
U1446 O1467 2.449 . S
O1447 U1446 2.454 . S
O1447 C1449 1.353 . S
O1448 U1446 2.458 . S
O1448 C1449 1.286 . S
C1449 U1446 2.984 . S
C1449 O1447 1.353 . S
C1449 O1448 1.286 . S
C1449 C1451 1.363 . S
C1450 C1440 1.465 . S
C1450 U1446 2.847 . S
C1450 O1464 1.249 . S
C1450 O1465 1.202 . S
C1451 C1449 1.363 . S
C1451 C1453 1.408 . S
C1451 C1456 1.342 . S
C1452 C1453 1.310 . S
C1452 C1455 1.461 . S
C1452 H1472 0.932 . S
C1453 C1451 1.408 . S
C1453 C1452 1.310 . S
C1453 H1473 0.930 . S
C1454 C1455 1.474 . S
C1454 C1456 1.285 . S
C1454 H1474 0.929 . S
C1455 C1452 1.461 . S
C1455 C1454 1.474 . S
C1456 C1451 1.342 . S
C1456 C1454 1.285 . S
C1456 H1475 0.930 . S
C1457 C1460 1.424 . S
C1457 C1462 1.245 . S
C1457 C1463 1.428 . S
C1458 C1461 1.260 . S
C1458 C1462 1.477 . S
C1458 H1476 0.932 . S
C1459 C1460 1.384 . S
C1459 C1461 1.479 . S
C1459 H1477 0.929 . S
C1460 C1457 1.424 . S
C1460 C1459 1.384 . S
C1460 H1478 0.928 . S
C1461 C1458 1.260 . S
C1461 C1459 1.479 . S
C1462 C1457 1.245 . S
C1462 C1458 1.477 . S
C1462 H1479 0.932 . S
C1463 U1446 2.882 . S
C1463 C1457 1.428 . S
C1463 O1466 1.301 . S
C1463 O1467 1.282 . S
O1464 U1446 2.441 . S
O1464 C1450 1.249 . S
O1465 U1446 2.420 . S
O1465 C1450 1.202 . S
O1466 U1446 2.455 . S
O1466 C1463 1.301 . S
O1467 U1446 2.449 . S
O1467 C1463 1.282 . S
H1468 C1441 0.931 . S
H1469 C1443 0.929 . S
H1470 C1444 0.930 . S
H1471 C1445 0.931 . S
H1472 C1452 0.932 . S
H1473 C1453 0.930 . S
H1474 C1454 0.929 . S
H1475 C1456 0.930 . S
H1476 C1458 0.932 . S
H1477 C1459 0.929 . S
H1478 C1460 0.928 . S
H1479 C1462 0.932 . S
C1480 C1481 1.264 . S
C1480 C1485 1.479 . S
C1480 C1490 1.465 . S
C1481 C1480 1.264 . S
C1481 C1483 1.339 . S
C1481 H1508 0.931 . S
C1482 C1483 1.395 . S
C1482 C1484 1.320 . S
C1483 C1481 1.339 . S
C1483 C1482 1.395 . S
C1483 H1509 0.929 . S
C1484 C1482 1.320 . S
C1484 C1485 1.405 . S
C1484 H1510 0.930 . S
C1485 C1480 1.479 . S
C1485 C1484 1.405 . S
C1485 H1511 0.931 . S
U1486 O1487 2.454 . S
U1486 O1488 2.458 . S
U1486 C1489 2.984 . S
U1486 C1490 2.847 . S
U1486 C1503 2.882 . S
U1486 O1504 2.441 . S
U1486 O1505 2.420 . S
U1486 O1506 2.455 . S
U1486 O1507 2.449 . S
O1487 U1486 2.454 . S
O1487 C1489 1.353 . S
O1488 U1486 2.458 . S
O1488 C1489 1.286 . S
C1489 U1486 2.984 . S
C1489 O1487 1.353 . S
C1489 O1488 1.286 . S
C1489 C1491 1.363 . S
C1490 C1480 1.465 . S
C1490 U1486 2.847 . S
C1490 O1504 1.249 . S
C1490 O1505 1.202 . S
C1491 C1489 1.363 . S
C1491 C1493 1.408 . S
C1491 C1496 1.342 . S
C1492 C1493 1.310 . S
C1492 C1495 1.461 . S
C1492 H1512 0.932 . S
C1493 C1491 1.408 . S
C1493 C1492 1.310 . S
C1493 H1513 0.930 . S
C1494 C1495 1.474 . S
C1494 C1496 1.285 . S
C1494 H1514 0.929 . S
C1495 C1492 1.461 . S
C1495 C1494 1.474 . S
C1496 C1491 1.342 . S
C1496 C1494 1.285 . S
C1496 H1515 0.930 . S
C1497 C1500 1.424 . S
C1497 C1502 1.245 . S
C1497 C1503 1.428 . S
C1498 C1501 1.260 . S
C1498 C1502 1.477 . S
C1498 H1516 0.932 . S
C1499 C1500 1.384 . S
C1499 C1501 1.479 . S
C1499 H1517 0.929 . S
C1500 C1497 1.424 . S
C1500 C1499 1.384 . S
C1500 H1518 0.928 . S
C1501 C1498 1.260 . S
C1501 C1499 1.479 . S
C1502 C1497 1.245 . S
C1502 C1498 1.477 . S
C1502 H1519 0.932 . S
C1503 U1486 2.882 . S
C1503 C1497 1.428 . S
C1503 O1506 1.301 . S
C1503 O1507 1.282 . S
O1504 U1486 2.441 . S
O1504 C1490 1.249 . S
O1505 U1486 2.420 . S
O1505 C1490 1.202 . S
O1506 U1486 2.455 . S
O1506 C1503 1.301 . S
O1507 U1486 2.449 . S
O1507 C1503 1.282 . S
H1508 C1481 0.931 . S
H1509 C1483 0.929 . S
H1510 C1484 0.930 . S
H1511 C1485 0.931 . S
H1512 C1492 0.932 . S
H1513 C1493 0.930 . S
H1514 C1494 0.929 . S
H1515 C1496 0.930 . S
H1516 C1498 0.932 . S
H1517 C1499 0.929 . S
H1518 C1500 0.928 . S
H1519 C1502 0.932 . S
C1520 C1521 1.264 . S
C1520 C1525 1.479 . S
C1520 C1530 1.465 . S
C1521 C1520 1.264 . S
C1521 C1523 1.339 . S
C1521 H1548 0.931 . S
C1522 C1523 1.395 . S
C1522 C1524 1.320 . S
C1523 C1521 1.339 . S
C1523 C1522 1.395 . S
C1523 H1549 0.929 . S
C1524 C1522 1.320 . S
C1524 C1525 1.405 . S
C1524 H1550 0.930 . S
C1525 C1520 1.479 . S
C1525 C1524 1.405 . S
C1525 H1551 0.931 . S
U1526 O1527 2.454 . S
U1526 O1528 2.458 . S
U1526 C1529 2.984 . S
U1526 C1530 2.847 . S
U1526 C1543 2.882 . S
U1526 O1544 2.441 . S
U1526 O1545 2.420 . S
U1526 O1546 2.455 . S
U1526 O1547 2.449 . S
O1527 U1526 2.454 . S
O1527 C1529 1.353 . S
O1528 U1526 2.458 . S
O1528 C1529 1.286 . S
C1529 U1526 2.984 . S
C1529 O1527 1.353 . S
C1529 O1528 1.286 . S
C1529 C1531 1.363 . S
C1530 C1520 1.465 . S
C1530 U1526 2.847 . S
C1530 O1544 1.249 . S
C1530 O1545 1.202 . S
C1531 C1529 1.363 . S
C1531 C1533 1.408 . S
C1531 C1536 1.342 . S
C1532 C1533 1.310 . S
C1532 C1535 1.461 . S
C1532 H1552 0.932 . S
C1533 C1531 1.408 . S
C1533 C1532 1.310 . S
C1533 H1553 0.930 . S
C1534 C1535 1.474 . S
C1534 C1536 1.285 . S
C1534 H1554 0.929 . S
C1535 C1532 1.461 . S
C1535 C1534 1.474 . S
C1536 C1531 1.342 . S
C1536 C1534 1.285 . S
C1536 H1555 0.930 . S
C1537 C1540 1.424 . S
C1537 C1542 1.245 . S
C1537 C1543 1.428 . S
C1538 C1541 1.260 . S
C1538 C1542 1.477 . S
C1538 H1556 0.932 . S
C1539 C1540 1.384 . S
C1539 C1541 1.479 . S
C1539 H1557 0.929 . S
C1540 C1537 1.424 . S
C1540 C1539 1.384 . S
C1540 H1558 0.928 . S
C1541 C1538 1.260 . S
C1541 C1539 1.479 . S
C1542 C1537 1.245 . S
C1542 C1538 1.477 . S
C1542 H1559 0.932 . S
C1543 U1526 2.882 . S
C1543 C1537 1.428 . S
C1543 O1546 1.301 . S
C1543 O1547 1.282 . S
O1544 U1526 2.441 . S
O1544 C1530 1.249 . S
O1545 U1526 2.420 . S
O1545 C1530 1.202 . S
O1546 U1526 2.455 . S
O1546 C1543 1.301 . S
O1547 U1526 2.449 . S
O1547 C1543 1.282 . S
H1548 C1521 0.931 . S
H1549 C1523 0.929 . S
H1550 C1524 0.930 . S
H1551 C1525 0.931 . S
H1552 C1532 0.932 . S
H1553 C1533 0.930 . S
H1554 C1534 0.929 . S
H1555 C1536 0.930 . S
H1556 C1538 0.932 . S
H1557 C1539 0.929 . S
H1558 C1540 0.928 . S
H1559 C1542 0.932 . S
C1560 C1561 1.264 . S
C1560 C1565 1.479 . S
C1560 C1570 1.465 . S
C1561 C1560 1.264 . S
C1561 C1563 1.339 . S
C1561 H1588 0.931 . S
C1562 C1563 1.395 . S
C1562 C1564 1.320 . S
C1563 C1561 1.339 . S
C1563 C1562 1.395 . S
C1563 H1589 0.929 . S
C1564 C1562 1.320 . S
C1564 C1565 1.405 . S
C1564 H1590 0.930 . S
C1565 C1560 1.479 . S
C1565 C1564 1.405 . S
C1565 H1591 0.931 . S
U1566 O1567 2.454 . S
U1566 O1568 2.458 . S
U1566 C1569 2.984 . S
U1566 C1570 2.847 . S
U1566 C1583 2.882 . S
U1566 O1584 2.441 . S
U1566 O1585 2.420 . S
U1566 O1586 2.455 . S
U1566 O1587 2.449 . S
O1567 U1566 2.454 . S
O1567 C1569 1.353 . S
O1568 U1566 2.458 . S
O1568 C1569 1.286 . S
C1569 U1566 2.984 . S
C1569 O1567 1.353 . S
C1569 O1568 1.286 . S
C1569 C1571 1.363 . S
C1570 C1560 1.465 . S
C1570 U1566 2.847 . S
C1570 O1584 1.249 . S
C1570 O1585 1.202 . S
C1571 C1569 1.363 . S
C1571 C1573 1.408 . S
C1571 C1576 1.342 . S
C1572 C1573 1.310 . S
C1572 C1575 1.461 . S
C1572 H1592 0.932 . S
C1573 C1571 1.408 . S
C1573 C1572 1.310 . S
C1573 H1593 0.930 . S
C1574 C1575 1.474 . S
C1574 C1576 1.285 . S
C1574 H1594 0.929 . S
C1575 C1572 1.461 . S
C1575 C1574 1.474 . S
C1576 C1571 1.342 . S
C1576 C1574 1.285 . S
C1576 H1595 0.930 . S
C1577 C1580 1.424 . S
C1577 C1582 1.245 . S
C1577 C1583 1.428 . S
C1578 C1581 1.260 . S
C1578 C1582 1.477 . S
C1578 H1596 0.932 . S
C1579 C1580 1.384 . S
C1579 C1581 1.479 . S
C1579 H1597 0.929 . S
C1580 C1577 1.424 . S
C1580 C1579 1.384 . S
C1580 H1598 0.928 . S
C1581 C1578 1.260 . S
C1581 C1579 1.479 . S
C1582 C1577 1.245 . S
C1582 C1578 1.477 . S
C1582 H1599 0.932 . S
C1583 U1566 2.882 . S
C1583 C1577 1.428 . S
C1583 O1586 1.301 . S
C1583 O1587 1.282 . S
O1584 U1566 2.441 . S
O1584 C1570 1.249 . S
O1585 U1566 2.420 . S
O1585 C1570 1.202 . S
O1586 U1566 2.455 . S
O1586 C1583 1.301 . S
O1587 U1566 2.449 . S
O1587 C1583 1.282 . S
H1588 C1561 0.931 . S
H1589 C1563 0.929 . S
H1590 C1564 0.930 . S
H1591 C1565 0.931 . S
H1592 C1572 0.932 . S
H1593 C1573 0.930 . S
H1594 C1574 0.929 . S
H1595 C1576 0.930 . S
H1596 C1578 0.932 . S
H1597 C1579 0.929 . S
H1598 C1580 0.928 . S
H1599 C1582 0.932 . S
C1600 C1601 1.264 . S
C1600 C1605 1.479 . S
C1600 C1610 1.465 . S
C1601 C1600 1.264 . S
C1601 C1603 1.339 . S
C1601 H1628 0.931 . S
C1602 C1603 1.395 . S
C1602 C1604 1.320 . S
C1603 C1601 1.339 . S
C1603 C1602 1.395 . S
C1603 H1629 0.929 . S
C1604 C1602 1.320 . S
C1604 C1605 1.405 . S
C1604 H1630 0.930 . S
C1605 C1600 1.479 . S
C1605 C1604 1.405 . S
C1605 H1631 0.931 . S
U1606 O1607 2.454 . S
U1606 O1608 2.458 . S
U1606 C1609 2.984 . S
U1606 C1610 2.847 . S
U1606 C1623 2.882 . S
U1606 O1624 2.441 . S
U1606 O1625 2.420 . S
U1606 O1626 2.455 . S
U1606 O1627 2.449 . S
O1607 U1606 2.454 . S
O1607 C1609 1.353 . S
O1608 U1606 2.458 . S
O1608 C1609 1.286 . S
C1609 U1606 2.984 . S
C1609 O1607 1.353 . S
C1609 O1608 1.286 . S
C1609 C1611 1.363 . S
C1610 C1600 1.465 . S
C1610 U1606 2.847 . S
C1610 O1624 1.249 . S
C1610 O1625 1.202 . S
C1611 C1609 1.363 . S
C1611 C1613 1.408 . S
C1611 C1616 1.342 . S
C1612 C1613 1.310 . S
C1612 C1615 1.461 . S
C1612 H1632 0.932 . S
C1613 C1611 1.408 . S
C1613 C1612 1.310 . S
C1613 H1633 0.930 . S
C1614 C1615 1.474 . S
C1614 C1616 1.285 . S
C1614 H1634 0.929 . S
C1615 C1612 1.461 . S
C1615 C1614 1.474 . S
C1616 C1611 1.342 . S
C1616 C1614 1.285 . S
C1616 H1635 0.930 . S
C1617 C1620 1.424 . S
C1617 C1622 1.245 . S
C1617 C1623 1.428 . S
C1618 C1621 1.260 . S
C1618 C1622 1.477 . S
C1618 H1636 0.932 . S
C1619 C1620 1.384 . S
C1619 C1621 1.479 . S
C1619 H1637 0.929 . S
C1620 C1617 1.424 . S
C1620 C1619 1.384 . S
C1620 H1638 0.928 . S
C1621 C1618 1.260 . S
C1621 C1619 1.479 . S
C1622 C1617 1.245 . S
C1622 C1618 1.477 . S
C1622 H1639 0.932 . S
C1623 U1606 2.882 . S
C1623 C1617 1.428 . S
C1623 O1626 1.301 . S
C1623 O1627 1.282 . S
O1624 U1606 2.441 . S
O1624 C1610 1.249 . S
O1625 U1606 2.420 . S
O1625 C1610 1.202 . S
O1626 U1606 2.455 . S
O1626 C1623 1.301 . S
O1627 U1606 2.449 . S
O1627 C1623 1.282 . S
H1628 C1601 0.931 . S
H1629 C1603 0.929 . S
H1630 C1604 0.930 . S
H1631 C1605 0.931 . S
H1632 C1612 0.932 . S
H1633 C1613 0.930 . S
H1634 C1614 0.929 . S
H1635 C1616 0.930 . S
H1636 C1618 0.932 . S
H1637 C1619 0.929 . S
H1638 C1620 0.928 . S
H1639 C1622 0.932 . S
C1640 C1641 1.264 . S
C1640 C1645 1.479 . S
C1640 C1650 1.465 . S
C1641 C1640 1.264 . S
C1641 C1643 1.339 . S
C1641 H1668 0.931 . S
C1642 C1643 1.395 . S
C1642 C1644 1.320 . S
C1643 C1641 1.339 . S
C1643 C1642 1.395 . S
C1643 H1669 0.929 . S
C1644 C1642 1.320 . S
C1644 C1645 1.405 . S
C1644 H1670 0.930 . S
C1645 C1640 1.479 . S
C1645 C1644 1.405 . S
C1645 H1671 0.931 . S
U1646 O1647 2.454 . S
U1646 O1648 2.458 . S
U1646 C1649 2.984 . S
U1646 C1650 2.847 1_545 S
U1646 C1663 2.882 . S
U1646 O1664 2.441 1_545 S
U1646 O1665 2.420 . S
U1646 O1666 2.455 . S
U1646 O1667 2.449 . S
O1647 U1646 2.454 . S
O1647 C1649 1.353 . S
O1648 U1646 2.458 . S
O1648 C1649 1.286 . S
C1649 U1646 2.984 . S
C1649 O1647 1.353 . S
C1649 O1648 1.286 . S
C1649 C1651 1.363 . S
C1650 C1640 1.465 . S
C1650 U1646 2.847 1_565 S
C1650 O1664 1.249 . S
C1650 O1665 1.202 1_565 S
C1651 C1649 1.363 . S
C1651 C1653 1.408 1_545 S
C1651 C1656 1.342 . S
C1652 C1653 1.310 . S
C1652 C1655 1.461 1_565 S
C1652 H1672 0.932 . S
C1653 C1651 1.408 1_565 S
C1653 C1652 1.310 . S
C1653 H1673 0.930 . S
C1654 C1655 1.474 . S
C1654 C1656 1.285 . S
C1654 H1674 0.929 . S
C1655 C1652 1.461 1_545 S
C1655 C1654 1.474 . S
C1656 C1651 1.342 . S
C1656 C1654 1.285 . S
C1656 H1675 0.930 . S
C1657 C1660 1.424 . S
C1657 C1662 1.245 . S
C1657 C1663 1.428 . S
C1658 C1661 1.260 . S
C1658 C1662 1.477 . S
C1658 H1676 0.932 . S
C1659 C1660 1.384 . S
C1659 C1661 1.479 . S
C1659 H1677 0.929 . S
C1660 C1657 1.424 . S
C1660 C1659 1.384 . S
C1660 H1678 0.928 . S
C1661 C1658 1.260 . S
C1661 C1659 1.479 . S
C1662 C1657 1.245 . S
C1662 C1658 1.477 . S
C1662 H1679 0.932 . S
C1663 U1646 2.882 . S
C1663 C1657 1.428 . S
C1663 O1666 1.301 . S
C1663 O1667 1.282 . S
O1664 U1646 2.441 1_565 S
O1664 C1650 1.249 . S
O1665 U1646 2.420 . S
O1665 C1650 1.202 1_545 S
O1666 U1646 2.455 . S
O1666 C1663 1.301 . S
O1667 U1646 2.449 . S
O1667 C1663 1.282 . S
H1668 C1641 0.931 . S
H1669 C1643 0.929 . S
H1670 C1644 0.930 . S
H1671 C1645 0.931 . S
H1672 C1652 0.932 . S
H1673 C1653 0.930 . S
H1674 C1654 0.929 . S
H1675 C1656 0.930 . S
H1676 C1658 0.932 . S
H1677 C1659 0.929 . S
H1678 C1660 0.928 . S
H1679 C1662 0.932 . S
C1680 C1681 1.264 . S
C1680 C1685 1.479 . S
C1680 C1690 1.465 . S
C1681 C1680 1.264 . S
C1681 C1683 1.339 . S
C1681 H1708 0.931 . S
C1682 C1683 1.395 . S
C1682 C1684 1.320 . S
C1683 C1681 1.339 . S
C1683 C1682 1.395 . S
C1683 H1709 0.929 . S
C1684 C1682 1.320 . S
C1684 C1685 1.405 . S
C1684 H1710 0.930 . S
C1685 C1680 1.479 . S
C1685 C1684 1.405 . S
C1685 H1711 0.931 . S
U1686 O1687 2.454 . S
U1686 O1688 2.458 . S
U1686 C1689 2.984 . S
U1686 C1690 2.847 . S
U1686 C1703 2.882 . S
U1686 O1704 2.441 . S
U1686 O1705 2.420 . S
U1686 O1706 2.455 . S
U1686 O1707 2.449 . S
O1687 U1686 2.454 . S
O1687 C1689 1.353 . S
O1688 U1686 2.458 . S
O1688 C1689 1.286 . S
C1689 U1686 2.984 . S
C1689 O1687 1.353 . S
C1689 O1688 1.286 . S
C1689 C1691 1.363 . S
C1690 C1680 1.465 . S
C1690 U1686 2.847 . S
C1690 O1704 1.249 . S
C1690 O1705 1.202 . S
C1691 C1689 1.363 . S
C1691 C1693 1.408 . S
C1691 C1696 1.342 . S
C1692 C1693 1.310 . S
C1692 C1695 1.461 . S
C1692 H1712 0.932 . S
C1693 C1691 1.408 . S
C1693 C1692 1.310 . S
C1693 H1713 0.930 . S
C1694 C1695 1.474 . S
C1694 C1696 1.285 . S
C1694 H1714 0.929 . S
C1695 C1692 1.461 . S
C1695 C1694 1.474 . S
C1696 C1691 1.342 . S
C1696 C1694 1.285 . S
C1696 H1715 0.930 . S
C1697 C1700 1.424 . S
C1697 C1702 1.245 . S
C1697 C1703 1.428 . S
C1698 C1701 1.260 . S
C1698 C1702 1.477 . S
C1698 H1716 0.932 . S
C1699 C1700 1.384 . S
C1699 C1701 1.479 . S
C1699 H1717 0.929 . S
C1700 C1697 1.424 . S
C1700 C1699 1.384 . S
C1700 H1718 0.928 . S
C1701 C1698 1.260 . S
C1701 C1699 1.479 . S
C1702 C1697 1.245 . S
C1702 C1698 1.477 . S
C1702 H1719 0.932 . S
C1703 U1686 2.882 . S
C1703 C1697 1.428 . S
C1703 O1706 1.301 . S
C1703 O1707 1.282 . S
O1704 U1686 2.441 . S
O1704 C1690 1.249 . S
O1705 U1686 2.420 . S
O1705 C1690 1.202 . S
O1706 U1686 2.455 . S
O1706 C1703 1.301 . S
O1707 U1686 2.449 . S
O1707 C1703 1.282 . S
H1708 C1681 0.931 . S
H1709 C1683 0.929 . S
H1710 C1684 0.930 . S
H1711 C1685 0.931 . S
H1712 C1692 0.932 . S
H1713 C1693 0.930 . S
H1714 C1694 0.929 . S
H1715 C1696 0.930 . S
H1716 C1698 0.932 . S
H1717 C1699 0.929 . S
H1718 C1700 0.928 . S
H1719 C1702 0.932 . S
C1720 C1721 1.264 . S
C1720 C1725 1.479 . S
C1720 C1730 1.465 . S
C1721 C1720 1.264 . S
C1721 C1723 1.339 . S
C1721 H1748 0.931 . S
C1722 C1723 1.395 . S
C1722 C1724 1.320 . S
C1723 C1721 1.339 . S
C1723 C1722 1.395 . S
C1723 H1749 0.929 . S
C1724 C1722 1.320 . S
C1724 C1725 1.405 . S
C1724 H1750 0.930 . S
C1725 C1720 1.479 . S
C1725 C1724 1.405 . S
C1725 H1751 0.931 . S
U1726 O1727 2.454 . S
U1726 O1728 2.458 . S
U1726 C1729 2.984 . S
U1726 C1730 2.847 1_565 S
U1726 C1743 2.882 . S
U1726 O1744 2.441 1_565 S
U1726 O1745 2.420 . S
U1726 O1746 2.455 . S
U1726 O1747 2.449 . S
O1727 U1726 2.454 . S
O1727 C1729 1.353 . S
O1728 U1726 2.458 . S
O1728 C1729 1.286 . S
C1729 U1726 2.984 . S
C1729 O1727 1.353 . S
C1729 O1728 1.286 . S
C1729 C1731 1.363 . S
C1730 C1720 1.465 . S
C1730 U1726 2.847 1_545 S
C1730 O1744 1.249 . S
C1730 O1745 1.202 1_545 S
C1731 C1729 1.363 . S
C1731 C1733 1.408 1_565 S
C1731 C1736 1.342 . S
C1732 C1733 1.310 . S
C1732 C1735 1.461 1_545 S
C1732 H1752 0.932 . S
C1733 C1731 1.408 1_545 S
C1733 C1732 1.310 . S
C1733 H1753 0.930 . S
C1734 C1735 1.474 . S
C1734 C1736 1.285 . S
C1734 H1754 0.929 . S
C1735 C1732 1.461 1_565 S
C1735 C1734 1.474 . S
C1736 C1731 1.342 . S
C1736 C1734 1.285 . S
C1736 H1755 0.930 . S
C1737 C1740 1.424 . S
C1737 C1742 1.245 . S
C1737 C1743 1.428 . S
C1738 C1741 1.260 . S
C1738 C1742 1.477 . S
C1738 H1756 0.932 . S
C1739 C1740 1.384 . S
C1739 C1741 1.479 . S
C1739 H1757 0.929 . S
C1740 C1737 1.424 . S
C1740 C1739 1.384 . S
C1740 H1758 0.928 . S
C1741 C1738 1.260 . S
C1741 C1739 1.479 . S
C1742 C1737 1.245 . S
C1742 C1738 1.477 . S
C1742 H1759 0.932 . S
C1743 U1726 2.882 . S
C1743 C1737 1.428 . S
C1743 O1746 1.301 . S
C1743 O1747 1.282 . S
O1744 U1726 2.441 1_545 S
O1744 C1730 1.249 . S
O1745 U1726 2.420 . S
O1745 C1730 1.202 1_565 S
O1746 U1726 2.455 . S
O1746 C1743 1.301 . S
O1747 U1726 2.449 . S
O1747 C1743 1.282 . S
H1748 C1721 0.931 . S
H1749 C1723 0.929 . S
H1750 C1724 0.930 . S
H1751 C1725 0.931 . S
H1752 C1732 0.932 . S
H1753 C1733 0.930 . S
H1754 C1734 0.929 . S
H1755 C1736 0.930 . S
H1756 C1738 0.932 . S
H1757 C1739 0.929 . S
H1758 C1740 0.928 . S
H1759 C1742 0.932 . S
C1760 C1761 1.264 . S
C1760 C1765 1.479 . S
C1760 C1770 1.465 . S
C1761 C1760 1.264 . S
C1761 C1763 1.339 . S
C1761 H1788 0.931 . S
C1762 C1763 1.395 . S
C1762 C1764 1.320 . S
C1763 C1761 1.339 . S
C1763 C1762 1.395 . S
C1763 H1789 0.929 . S
C1764 C1762 1.320 . S
C1764 C1765 1.405 . S
C1764 H1790 0.930 . S
C1765 C1760 1.479 . S
C1765 C1764 1.405 . S
C1765 H1791 0.931 . S
U1766 O1767 2.454 . S
U1766 O1768 2.458 . S
U1766 C1769 2.984 . S
U1766 C1770 2.847 . S
U1766 C1783 2.882 . S
U1766 O1784 2.441 . S
U1766 O1785 2.420 . S
U1766 O1786 2.455 . S
U1766 O1787 2.449 . S
O1767 U1766 2.454 . S
O1767 C1769 1.353 . S
O1768 U1766 2.458 . S
O1768 C1769 1.286 . S
C1769 U1766 2.984 . S
C1769 O1767 1.353 . S
C1769 O1768 1.286 . S
C1769 C1771 1.363 . S
C1770 C1760 1.465 . S
C1770 U1766 2.847 . S
C1770 O1784 1.249 . S
C1770 O1785 1.202 . S
C1771 C1769 1.363 . S
C1771 C1773 1.408 . S
C1771 C1776 1.342 . S
C1772 C1773 1.310 . S
C1772 C1775 1.461 . S
C1772 H1792 0.932 . S
C1773 C1771 1.408 . S
C1773 C1772 1.310 . S
C1773 H1793 0.930 . S
C1774 C1775 1.474 . S
C1774 C1776 1.285 . S
C1774 H1794 0.929 . S
C1775 C1772 1.461 . S
C1775 C1774 1.474 . S
C1776 C1771 1.342 . S
C1776 C1774 1.285 . S
C1776 H1795 0.930 . S
C1777 C1780 1.424 . S
C1777 C1782 1.245 . S
C1777 C1783 1.428 . S
C1778 C1781 1.260 . S
C1778 C1782 1.477 . S
C1778 H1796 0.932 . S
C1779 C1780 1.384 . S
C1779 C1781 1.479 . S
C1779 H1797 0.929 . S
C1780 C1777 1.424 . S
C1780 C1779 1.384 . S
C1780 H1798 0.928 . S
C1781 C1778 1.260 . S
C1781 C1779 1.479 . S
C1782 C1777 1.245 . S
C1782 C1778 1.477 . S
C1782 H1799 0.932 . S
C1783 U1766 2.882 . S
C1783 C1777 1.428 . S
C1783 O1786 1.301 . S
C1783 O1787 1.282 . S
O1784 U1766 2.441 . S
O1784 C1770 1.249 . S
O1785 U1766 2.420 . S
O1785 C1770 1.202 . S
O1786 U1766 2.455 . S
O1786 C1783 1.301 . S
O1787 U1766 2.449 . S
O1787 C1783 1.282 . S
H1788 C1761 0.931 . S
H1789 C1763 0.929 . S
H1790 C1764 0.930 . S
H1791 C1765 0.931 . S
H1792 C1772 0.932 . S
H1793 C1773 0.930 . S
H1794 C1774 0.929 . S
H1795 C1776 0.930 . S
H1796 C1778 0.932 . S
H1797 C1779 0.929 . S
H1798 C1780 0.928 . S
H1799 C1782 0.932 . S
C1800 C1801 1.264 . S
C1800 C1805 1.479 . S
C1800 C1810 1.465 . S
C1801 C1800 1.264 . S
C1801 C1803 1.339 . S
C1801 H1828 0.931 . S
C1802 C1803 1.395 . S
C1802 C1804 1.320 . S
C1803 C1801 1.339 . S
C1803 C1802 1.395 . S
C1803 H1829 0.929 . S
C1804 C1802 1.320 . S
C1804 C1805 1.405 . S
C1804 H1830 0.930 . S
C1805 C1800 1.479 . S
C1805 C1804 1.405 . S
C1805 H1831 0.931 . S
U1806 O1807 2.454 . S
U1806 O1808 2.458 . S
U1806 C1809 2.984 . S
U1806 C1810 2.847 . S
U1806 C1823 2.882 . S
U1806 O1824 2.441 . S
U1806 O1825 2.420 . S
U1806 O1826 2.455 . S
U1806 O1827 2.449 . S
O1807 U1806 2.454 . S
O1807 C1809 1.353 . S
O1808 U1806 2.458 . S
O1808 C1809 1.286 . S
C1809 U1806 2.984 . S
C1809 O1807 1.353 . S
C1809 O1808 1.286 . S
C1809 C1811 1.363 . S
C1810 C1800 1.465 . S
C1810 U1806 2.847 . S
C1810 O1824 1.249 . S
C1810 O1825 1.202 . S
C1811 C1809 1.363 . S
C1811 C1813 1.408 . S
C1811 C1816 1.342 . S
C1812 C1813 1.310 . S
C1812 C1815 1.461 . S
C1812 H1832 0.932 . S
C1813 C1811 1.408 . S
C1813 C1812 1.310 . S
C1813 H1833 0.930 . S
C1814 C1815 1.474 1_556 S
C1814 C1816 1.285 1_556 S
C1814 H1834 0.929 . S
C1815 C1812 1.461 . S
C1815 C1814 1.474 1_554 S
C1816 C1811 1.342 . S
C1816 C1814 1.285 1_554 S
C1816 H1835 0.930 1_554 S
C1817 C1820 1.424 . S
C1817 C1822 1.245 1_554 S
C1817 C1823 1.428 . S
C1818 C1821 1.260 . S
C1818 C1822 1.477 . S
C1818 H1836 0.932 . S
C1819 C1820 1.384 1_556 S
C1819 C1821 1.479 . S
C1819 H1837 0.929 . S
C1820 C1817 1.424 . S
C1820 C1819 1.384 1_554 S
C1820 H1838 0.928 . S
C1821 C1818 1.260 . S
C1821 C1819 1.479 . S
C1822 C1817 1.245 1_556 S
C1822 C1818 1.477 . S
C1822 H1839 0.932 . S
C1823 U1806 2.882 . S
C1823 C1817 1.428 . S
C1823 O1826 1.301 . S
C1823 O1827 1.282 . S
O1824 U1806 2.441 . S
O1824 C1810 1.249 . S
O1825 U1806 2.420 . S
O1825 C1810 1.202 . S
O1826 U1806 2.455 . S
O1826 C1823 1.301 . S
O1827 U1806 2.449 . S
O1827 C1823 1.282 . S
H1828 C1801 0.931 . S
H1829 C1803 0.929 . S
H1830 C1804 0.930 . S
H1831 C1805 0.931 . S
H1832 C1812 0.932 . S
H1833 C1813 0.930 . S
H1834 C1814 0.929 . S
H1835 C1816 0.930 1_556 S
H1836 C1818 0.932 . S
H1837 C1819 0.929 . S
H1838 C1820 0.928 . S
H1839 C1822 0.932 . S
C1840 C1841 1.264 . S
C1840 C1845 1.479 . S
C1840 C1850 1.465 . S
C1841 C1840 1.264 . S
C1841 C1843 1.339 . S
C1841 H1868 0.931 . S
C1842 C1843 1.395 . S
C1842 C1844 1.320 . S
C1843 C1841 1.339 . S
C1843 C1842 1.395 . S
C1843 H1869 0.929 . S
C1844 C1842 1.320 . S
C1844 C1845 1.405 . S
C1844 H1870 0.930 . S
C1845 C1840 1.479 . S
C1845 C1844 1.405 . S
C1845 H1871 0.931 . S
U1846 O1847 2.454 . S
U1846 O1848 2.458 . S
U1846 C1849 2.984 . S
U1846 C1850 2.847 . S
U1846 C1863 2.882 . S
U1846 O1864 2.441 . S
U1846 O1865 2.420 . S
U1846 O1866 2.455 . S
U1846 O1867 2.449 . S
O1847 U1846 2.454 . S
O1847 C1849 1.353 . S
O1848 U1846 2.458 . S
O1848 C1849 1.286 . S
C1849 U1846 2.984 . S
C1849 O1847 1.353 . S
C1849 O1848 1.286 . S
C1849 C1851 1.363 . S
C1850 C1840 1.465 . S
C1850 U1846 2.847 . S
C1850 O1864 1.249 . S
C1850 O1865 1.202 . S
C1851 C1849 1.363 . S
C1851 C1853 1.408 . S
C1851 C1856 1.342 . S
C1852 C1853 1.310 . S
C1852 C1855 1.461 . S
C1852 H1872 0.932 . S
C1853 C1851 1.408 . S
C1853 C1852 1.310 . S
C1853 H1873 0.930 . S
C1854 C1855 1.474 . S
C1854 C1856 1.285 . S
C1854 H1874 0.929 1_554 S
C1855 C1852 1.461 . S
C1855 C1854 1.474 . S
C1856 C1851 1.342 . S
C1856 C1854 1.285 . S
C1856 H1875 0.895 1_554 S
C1857 C1860 1.424 . S
C1857 C1862 1.245 1_554 S
C1857 C1863 1.428 . S
C1858 C1861 1.260 . S
C1858 C1862 1.477 . S
C1858 H1876 0.932 . S
C1859 C1860 1.384 1_556 S
C1859 C1861 1.479 . S
C1859 H1877 0.929 . S
C1860 C1857 1.424 . S
C1860 C1859 1.384 1_554 S
C1860 H1878 0.928 . S
C1861 C1858 1.260 . S
C1861 C1859 1.479 . S
C1862 C1857 1.245 1_556 S
C1862 C1858 1.477 . S
C1862 H1879 0.932 . S
C1863 U1846 2.882 . S
C1863 C1857 1.428 . S
C1863 O1866 1.301 . S
C1863 O1867 1.282 . S
O1864 U1846 2.441 . S
O1864 C1850 1.249 . S
O1865 U1846 2.420 . S
O1865 C1850 1.202 . S
O1866 U1846 2.455 . S
O1866 C1863 1.301 . S
O1867 U1846 2.449 . S
O1867 C1863 1.282 . S
H1868 C1841 0.931 . S
H1869 C1843 0.929 . S
H1870 C1844 0.930 . S
H1871 C1845 0.931 . S
H1872 C1852 0.932 . S
H1873 C1853 0.930 . S
H1874 C1854 0.929 1_556 S
H1875 C1856 0.895 1_556 S
H1876 C1858 0.932 . S
H1877 C1859 0.929 . S
H1878 C1860 0.928 . S
H1879 C1862 0.932 . S
C1880 C1881 1.264 . S
C1880 C1885 1.479 . S
C1880 C1890 1.465 . S
C1881 C1880 1.264 . S
C1881 C1883 1.339 . S
C1881 H1908 0.931 . S
C1882 C1883 1.395 . S
C1882 C1884 1.320 . S
C1883 C1881 1.339 . S
C1883 C1882 1.395 . S
C1883 H1909 0.929 . S
C1884 C1882 1.320 . S
C1884 C1885 1.405 . S
C1884 H1910 0.930 . S
C1885 C1880 1.479 . S
C1885 C1884 1.405 . S
C1885 H1911 0.931 . S
U1886 O1887 2.454 . S
U1886 O1888 2.458 . S
U1886 C1889 2.984 . S
U1886 C1890 2.847 . S
U1886 C1903 2.882 . S
U1886 O1904 2.441 . S
U1886 O1905 2.420 . S
U1886 O1906 2.455 . S
U1886 O1907 2.449 . S
O1887 U1886 2.454 . S
O1887 C1889 1.353 . S
O1888 U1886 2.458 . S
O1888 C1889 1.286 . S
C1889 U1886 2.984 . S
C1889 O1887 1.353 . S
C1889 O1888 1.286 . S
C1889 C1891 1.363 . S
C1890 C1880 1.465 . S
C1890 U1886 2.847 . S
C1890 O1904 1.249 . S
C1890 O1905 1.202 . S
C1891 C1889 1.363 . S
C1891 C1893 1.408 . S
C1891 C1896 1.342 . S
C1892 C1893 1.310 . S
C1892 C1895 1.461 . S
C1892 H1912 0.932 . S
C1893 C1891 1.408 . S
C1893 C1892 1.310 . S
C1893 H1913 0.930 . S
C1894 C1895 1.474 . S
C1894 C1896 1.285 . S
C1894 H1914 0.929 1_556 S
C1895 C1892 1.461 . S
C1895 C1894 1.474 . S
C1896 C1891 1.342 . S
C1896 C1894 1.285 . S
C1896 H1915 0.895 1_556 S
C1897 C1900 1.424 . S
C1897 C1902 1.245 1_556 S
C1897 C1903 1.428 . S
C1898 C1901 1.260 . S
C1898 C1902 1.477 . S
C1898 H1916 0.932 . S
C1899 C1900 1.384 1_554 S
C1899 C1901 1.479 . S
C1899 H1917 0.929 . S
C1900 C1897 1.424 . S
C1900 C1899 1.384 1_556 S
C1900 H1918 0.928 . S
C1901 C1898 1.260 . S
C1901 C1899 1.479 . S
C1902 C1897 1.245 1_554 S
C1902 C1898 1.477 . S
C1902 H1919 0.932 . S
C1903 U1886 2.882 . S
C1903 C1897 1.428 . S
C1903 O1906 1.301 . S
C1903 O1907 1.282 . S
O1904 U1886 2.441 . S
O1904 C1890 1.249 . S
O1905 U1886 2.420 . S
O1905 C1890 1.202 . S
O1906 U1886 2.455 . S
O1906 C1903 1.301 . S
O1907 U1886 2.449 . S
O1907 C1903 1.282 . S
H1908 C1881 0.931 . S
H1909 C1883 0.929 . S
H1910 C1884 0.930 . S
H1911 C1885 0.931 . S
H1912 C1892 0.932 . S
H1913 C1893 0.930 . S
H1914 C1894 0.929 1_554 S
H1915 C1896 0.895 1_554 S
H1916 C1898 0.932 . S
H1917 C1899 0.929 . S
H1918 C1900 0.928 . S
H1919 C1902 0.932 . S
C901 C21 2.642 . S
C861 C42 2.184 . S
C1901 C101 2.642 . S
C821 C122 2.184 . S
C1482 C181 2.214 . S
C1461 C202 2.204 . S
C1562 C261 2.214 . S
C282 C1541 2.204 . S
C322 C1701 2.320 . S
C1621 C362 2.320 . S
C402 C1642 1.880 . S
C762 C442 1.880 . S
C482 C421 2.171 . S
C541 C381 2.148 . S
C562 C1421 2.171 . S
C341 C621 2.148 . S
C642 C1021 2.200 . S
C701 C962 2.225 . S
C722 C1101 2.200 . S
C781 C1042 2.225 . S
C1202 C802 2.305 . S
C842 C1122 2.305 . S
C882 C1181 2.323 . S
C922 C301 2.323 . S
C981 C1861 2.642 . S
C1821 C1002 2.184 . S
C1061 C941 2.642 . S
C1781 C1082 2.184 . S
C522 C1141 2.214 . S
C1162 C501 2.204 . S
C1221 C602 2.214 . S
C1242 C581 2.204 . S
C1282 C741 2.320 . S
C1322 C661 2.320 . S
C682 C1362 1.880 . S
C1402 C1722 1.880 . S
C1381 C1442 2.171 . S
C1501 C1341 2.148 . S
C461 C1522 2.171 . S
C1581 C1301 2.148 . S
C1602 C61 2.200 . S
C1661 C2 2.225 . S
C141 C1682 2.200 . S
C82 C1741 2.225 . S
C242 C1762 2.305 . S
C1802 C162 2.305 . S
C221 C1842 2.323 . S
C1882 C1261 2.323 . S
C55 C15 2.002 1_655 S
C95 C135 2.002 1_455 S
C175 C255 1.896 1_545 S
C215 C295 1.973 . S
C1375 C335 1.999 1_556 S
C375 C455 1.999 . S
C1295 C415 1.999 . S
C495 C535 2.002 1_655 S
C575 C615 2.002 1_655 S
C655 C735 1.998 1_565 S
C695 C775 1.871 . S
C1855 C815 2.025 1_554 S
C935 C855 2.025 . S
C895 C1775 2.025 . S
C975 C1015 2.002 . S
C1055 C1095 2.002 . S
C1215 C1135 1.896 . S
C1255 C1175 1.973 1_545 S
C1335 C1415 1.999 1_556 S
C1455 C1495 2.002 . S
C1575 C1535 2.002 . S
C1695 C1615 1.998 . S
C1655 C1735 1.871 1_545 S
C1815 C1895 2.025 1_554 S
