# Generated by pormake.
# Topology umd, (4)-cn, num edge types: 1
# Building blocks:
#     Node 0, Type 0, BuildingBlock: QUQFOY_clean_sbu_1, # of connection points: 4
#     Node 1, Type 0, BuildingBlock: QUQFOY_clean_sbu_1, # of connection points: 4
#     Node 2, Type 0, BuildingBlock: QUQFOY_clean_sbu_1, # of connection points: 4
#     Node 3, Type 0, BuildingBlock: QUQFOY_clean_sbu_1, # of connection points: 4
#     Node 4, Type 0, BuildingBlock: QUQFOY_clean_sbu_1, # of connection points: 4
#     Node 5, Type 0, BuildingBlock: QUQFOY_clean_sbu_1, # of connection points: 4
#     Node 6, Type 0, BuildingBlock: QUQFOY_clean_sbu_1, # of connection points: 4
#     Node 7, Type 0, BuildingBlock: QUQFOY_clean_sbu_1, # of connection points: 4
#     Node 8, Type 0, BuildingBlock: QUQFOY_clean_sbu_1, # of connection points: 4
#     Node 9, Type 0, BuildingBlock: QUQFOY_clean_sbu_1, # of connection points: 4
#     Node 10, Type 0, BuildingBlock: QUQFOY_clean_sbu_1, # of connection points: 4
#     Node 11, Type 0, BuildingBlock: QUQFOY_clean_sbu_1, # of connection points: 4
#     Node 12, Type 0, BuildingBlock: QUQFOY_clean_sbu_1, # of connection points: 4
#     Node 13, Type 0, BuildingBlock: QUQFOY_clean_sbu_1, # of connection points: 4
#     Node 14, Type 0, BuildingBlock: QUQFOY_clean_sbu_1, # of connection points: 4
#     Node 15, Type 0, BuildingBlock: QUQFOY_clean_sbu_1, # of connection points: 4
#     Edge 16, Type (0, 0), BuildingBlock: KIFKEQ_clean_linker_1, # of connection points: 2
#     Edge 17, Type (0, 0), BuildingBlock: KIFKEQ_clean_linker_1, # of connection points: 2
#     Edge 18, Type (0, 0), BuildingBlock: KIFKEQ_clean_linker_1, # of connection points: 2
#     Edge 19, Type (0, 0), BuildingBlock: KIFKEQ_clean_linker_1, # of connection points: 2
#     Edge 20, Type (0, 0), BuildingBlock: KIFKEQ_clean_linker_1, # of connection points: 2
#     Edge 21, Type (0, 0), BuildingBlock: KIFKEQ_clean_linker_1, # of connection points: 2
#     Edge 22, Type (0, 0), BuildingBlock: KIFKEQ_clean_linker_1, # of connection points: 2
#     Edge 23, Type (0, 0), BuildingBlock: KIFKEQ_clean_linker_1, # of connection points: 2
#     Edge 24, Type (0, 0), BuildingBlock: KIFKEQ_clean_linker_1, # of connection points: 2
#     Edge 25, Type (0, 0), BuildingBlock: KIFKEQ_clean_linker_1, # of connection points: 2
#     Edge 26, Type (0, 0), BuildingBlock: KIFKEQ_clean_linker_1, # of connection points: 2
#     Edge 27, Type (0, 0), BuildingBlock: KIFKEQ_clean_linker_1, # of connection points: 2
#     Edge 28, Type (0, 0), BuildingBlock: KIFKEQ_clean_linker_1, # of connection points: 2
#     Edge 29, Type (0, 0), BuildingBlock: KIFKEQ_clean_linker_1, # of connection points: 2
#     Edge 30, Type (0, 0), BuildingBlock: KIFKEQ_clean_linker_1, # of connection points: 2
#     Edge 31, Type (0, 0), BuildingBlock: KIFKEQ_clean_linker_1, # of connection points: 2
#     Edge 32, Type (0, 0), BuildingBlock: KIFKEQ_clean_linker_1, # of connection points: 2
#     Edge 33, Type (0, 0), BuildingBlock: KIFKEQ_clean_linker_1, # of connection points: 2
#     Edge 34, Type (0, 0), BuildingBlock: KIFKEQ_clean_linker_1, # of connection points: 2
#     Edge 35, Type (0, 0), BuildingBlock: KIFKEQ_clean_linker_1, # of connection points: 2
#     Edge 36, Type (0, 0), BuildingBlock: KIFKEQ_clean_linker_1, # of connection points: 2
#     Edge 37, Type (0, 0), BuildingBlock: KIFKEQ_clean_linker_1, # of connection points: 2
#     Edge 38, Type (0, 0), BuildingBlock: KIFKEQ_clean_linker_1, # of connection points: 2
#     Edge 39, Type (0, 0), BuildingBlock: KIFKEQ_clean_linker_1, # of connection points: 2
#     Edge 40, Type (0, 0), BuildingBlock: KIFKEQ_clean_linker_1, # of connection points: 2
#     Edge 41, Type (0, 0), BuildingBlock: KIFKEQ_clean_linker_1, # of connection points: 2
#     Edge 42, Type (0, 0), BuildingBlock: KIFKEQ_clean_linker_1, # of connection points: 2
#     Edge 43, Type (0, 0), BuildingBlock: KIFKEQ_clean_linker_1, # of connection points: 2
#     Edge 44, Type (0, 0), BuildingBlock: KIFKEQ_clean_linker_1, # of connection points: 2
#     Edge 45, Type (0, 0), BuildingBlock: KIFKEQ_clean_linker_1, # of connection points: 2
#     Edge 46, Type (0, 0), BuildingBlock: KIFKEQ_clean_linker_1, # of connection points: 2
#     Edge 47, Type (0, 0), BuildingBlock: KIFKEQ_clean_linker_1, # of connection points: 2
# Relax obj value: 0.064
# Max RMSD: 0.195
# Mean RMSD: 0.195
data_MOF--net-umd--node1-QUQFOY_clean_sbu_1--edge1-KIFKEQ_clean_linker_1
_symmetry_space_group_name_H-M    P1
_symmetry_Int_Tables_number       1
_symmetry_cell_setting            triclinic
loop_
_symmetry_equiv_pos_as_xyz
'x, y, z'
_cell_length_a     41.187886
_cell_length_b     41.135169
_cell_length_c     58.380482
_cell_angle_alpha  89.845197
_cell_angle_beta   89.987615
_cell_angle_gamma 90.012454
loop_
_atom_site_label
_atom_site_type_symbol
_atom_site_fract_x
_atom_site_fract_y
_atom_site_fract_z
_atom_type_partial_charge
O0 O 0.19822 0.44027 0.1064 0.0
Cd1 Cd 0.1822 0.42655 0.13844 0.0
Cd2 Cd 0.20225 0.48818 0.14678 0.0
O3 O 0.22156 0.48734 0.11386 0.0
O4 O 0.18335 0.37766 0.13766 0.0
O5 O 0.21491 0.40711 0.16009 0.0
C6 C 0.20695 0.37895 0.15218 0.0
C7 C 0.23097 0.49717 0.1806 0.0
C8 C 0.21454 0.46481 0.09978 0.0
C9 C 0.13032 0.4741 0.15077 0.0
O10 O 0.15283 0.49522 0.14963 0.0
O11 O 0.1368 0.44399 0.1483 0.0
O12 O 0.22312 0.52109 0.16732 0.0
O13 O 0.22447 0.46807 0.17377 0.0
O14 O 0.5888 0.20656 0.60601 0.0
Cd15 Cd 0.6023 0.18741 0.6373 0.0
Cd16 Cd 0.53978 0.20622 0.64643 0.0
O17 O 0.54015 0.22633 0.61377 0.0
O18 O 0.65116 0.18749 0.63582 0.0
O19 O 0.62317 0.21812 0.65971 0.0
C20 C 0.65085 0.21019 0.65104 0.0
C21 C 0.53425 0.23389 0.68096 0.0
C22 C 0.56347 0.22189 0.59981 0.0
C23 C 0.55402 0.1345 0.64876 0.0
O24 O 0.53267 0.15684 0.64857 0.0
O25 O 0.58398 0.14141 0.64585 0.0
O26 O 0.50924 0.22837 0.66817 0.0
O27 O 0.56244 0.22563 0.67326 0.0
O28 O 0.83367 0.59199 0.1055 0.0
Cd29 Cd 0.84774 0.60508 0.13805 0.0
Cd30 Cd 0.82775 0.54313 0.14589 0.0
O31 O 0.80904 0.5454 0.11279 0.0
O32 O 0.84549 0.65402 0.13923 0.0
O33 O 0.81226 0.62177 0.1584 0.0
C34 C 0.82032 0.65081 0.15224 0.0
C35 C 0.79891 0.53219 0.17944 0.0
C36 C 0.817 0.56779 0.09874 0.0
C37 C 0.89937 0.55745 0.15094 0.0
O38 O 0.87712 0.53622 0.14893 0.0
O39 O 0.89268 0.58761 0.14902 0.0
O40 O 0.80701 0.50899 0.1657 0.0
O41 O 0.80514 0.56164 0.1732 0.0
O42 O 0.43867 0.83575 0.60445 0.0
Cd43 Cd 0.42538 0.85009 0.6369 0.0
Cd44 Cd 0.48734 0.83042 0.64485 0.0
O45 O 0.48525 0.81131 0.61187 0.0
O46 O 0.37646 0.84763 0.63802 0.0
O47 O 0.40865 0.81464 0.65742 0.0
C48 C 0.37967 0.82252 0.65116 0.0
C49 C 0.49775 0.80187 0.67868 0.0
C50 C 0.46292 0.8191 0.59777 0.0
C51 C 0.47285 0.90215 0.64929 0.0
O52 O 0.49413 0.87992 0.64744 0.0
O53 O 0.44274 0.89528 0.64753 0.0
O54 O 0.52113 0.80977 0.66499 0.0
O55 O 0.46845 0.80819 0.67227 0.0
O56 O 0.19748 0.59034 0.42166 0.0
Cd57 Cd 0.18327 0.6033 0.38906 0.0
Cd58 Cd 0.20325 0.54123 0.38159 0.0
O59 O 0.22183 0.54356 0.4147 0.0
O60 O 0.18526 0.65225 0.38766 0.0
O61 O 0.21853 0.62014 0.36853 0.0
C62 C 0.21034 0.64914 0.37456 0.0
C63 C 0.23226 0.53065 0.3481 0.0
C64 C 0.214 0.5661 0.42859 0.0
C65 C 0.13166 0.5556 0.37638 0.0
O66 O 0.15389 0.53434 0.37846 0.0
O67 O 0.13837 0.58575 0.37822 0.0
O68 O 0.22416 0.5073 0.36181 0.0
O69 O 0.22591 0.56003 0.35435 0.0
O70 O 0.43765 0.19638 0.92219 0.0
Cd71 Cd 0.42502 0.18298 0.88945 0.0
Cd72 Cd 0.48723 0.20415 0.88225 0.0
O73 O 0.48331 0.22283 0.91529 0.0
O74 O 0.37596 0.1843 0.88809 0.0
O75 O 0.40762 0.21886 0.86968 0.0
C76 C 0.37876 0.21006 0.87555 0.0
C77 C 0.49487 0.23288 0.84816 0.0
C78 C 0.46116 0.21381 0.92918 0.0
C79 C 0.47437 0.13256 0.87655 0.0
O80 O 0.49533 0.15493 0.87935 0.0
O81 O 0.44409 0.13893 0.87787 0.0
O82 O 0.51903 0.2276 0.86181 0.0
O83 O 0.46639 0.22393 0.85483 0.0
O84 O 0.83312 0.43875 0.42113 0.0
Cd85 Cd 0.84877 0.42523 0.38903 0.0
Cd86 Cd 0.82876 0.48685 0.38073 0.0
O87 O 0.80958 0.48577 0.4137 0.0
O88 O 0.84766 0.37636 0.38986 0.0
O89 O 0.81584 0.40591 0.36757 0.0
C90 C 0.82392 0.37772 0.37545 0.0
C91 C 0.80004 0.49632 0.34694 0.0
C92 C 0.8168 0.46321 0.42779 0.0
C93 C 0.90063 0.47272 0.37655 0.0
O94 O 0.87818 0.49387 0.37781 0.0
O95 O 0.89409 0.44261 0.37898 0.0
O96 O 0.80795 0.52005 0.36028 0.0
O97 O 0.80644 0.46712 0.3537 0.0
O98 O 0.59265 0.8361 0.92025 0.0
Cd99 Cd 0.60596 0.85013 0.8877 0.0
Cd100 Cd 0.54412 0.83014 0.87979 0.0
O101 O 0.54614 0.81146 0.91298 0.0
O102 O 0.65485 0.84784 0.88661 0.0
O103 O 0.62274 0.81461 0.86744 0.0
C104 C 0.65171 0.82265 0.87363 0.0
C105 C 0.53364 0.80129 0.8462 0.0
C106 C 0.56841 0.81947 0.92704 0.0
C107 C 0.55853 0.90185 0.87463 0.0
O108 O 0.53728 0.87958 0.87659 0.0
O109 O 0.58862 0.89514 0.87666 0.0
O110 O 0.5103 0.8093 0.85986 0.0
O111 O 0.56296 0.80758 0.85256 0.0
O112 O 0.82456 0.5876 0.92221 0.0
Cd113 Cd 0.84431 0.60141 0.89116 0.0
Cd114 Cd 0.82697 0.53882 0.88211 0.0
O115 O 0.80656 0.53817 0.91461 0.0
O116 O 0.84369 0.65023 0.89261 0.0
O117 O 0.81414 0.622 0.86816 0.0
C118 C 0.82159 0.64977 0.87694 0.0
C119 C 0.79981 0.53094 0.84755 0.0
C120 C 0.80997 0.5618 0.92843 0.0
C121 C 0.89846 0.55466 0.88071 0.0
O122 O 0.87647 0.53297 0.88043 0.0
O123 O 0.89098 0.58448 0.88357 0.0
O124 O 0.80753 0.50655 0.86045 0.0
O125 O 0.80558 0.55984 0.85514 0.0
O126 O 0.44346 0.82512 0.42106 0.0
Cd127 Cd 0.42959 0.84406 0.38978 0.0
Cd128 Cd 0.49211 0.82658 0.38071 0.0
O129 O 0.49288 0.80712 0.41356 0.0
O130 O 0.38087 0.84312 0.39121 0.0
O131 O 0.40941 0.81314 0.36719 0.0
C132 C 0.38157 0.82063 0.37584 0.0
C133 C 0.50071 0.79855 0.34662 0.0
C134 C 0.4693 0.81077 0.42741 0.0
C135 C 0.47591 0.89806 0.37807 0.0
O136 O 0.49762 0.8761 0.37802 0.0
O137 O 0.4462 0.89062 0.38139 0.0
O138 O 0.52481 0.80689 0.35952 0.0
O139 O 0.47169 0.80409 0.35402 0.0
O140 O 0.20636 0.44555 0.92371 0.0
Cd141 Cd 0.18637 0.43146 0.89285 0.0
Cd142 Cd 0.20367 0.49399 0.88321 0.0
O143 O 0.2241 0.495 0.91567 0.0
O144 O 0.18696 0.38267 0.89467 0.0
O145 O 0.21638 0.41066 0.86989 0.0
C146 C 0.20893 0.38297 0.87891 0.0
C147 C 0.23079 0.50222 0.84866 0.0
C148 C 0.22089 0.47147 0.92968 0.0
C149 C 0.1322 0.47807 0.88194 0.0
O150 O 0.15418 0.49975 0.88144 0.0
O151 O 0.13968 0.4483 0.88515 0.0
O152 O 0.22288 0.52648 0.86153 0.0
O153 O 0.22527 0.47323 0.85628 0.0
O154 O 0.5913 0.19666 0.42248 0.0
Cd155 Cd 0.60391 0.18217 0.38993 0.0
Cd156 Cd 0.54189 0.20238 0.3826 0.0
O157 O 0.54481 0.22154 0.41553 0.0
O158 O 0.65285 0.18358 0.38856 0.0
O159 O 0.62114 0.21722 0.36932 0.0
C160 C 0.65001 0.2087 0.37539 0.0
C161 C 0.53206 0.23091 0.34868 0.0
C162 C 0.56735 0.21354 0.4294 0.0
C163 C 0.55571 0.13062 0.37791 0.0
O164 O 0.53459 0.15295 0.38008 0.0
O165 O 0.58588 0.1373 0.37934 0.0
O166 O 0.50849 0.22348 0.36235 0.0
O167 O 0.56123 0.22415 0.35518 0.0
O168 O 0.82574 0.44465 0.60451 0.0
Cd169 Cd 0.84406 0.43132 0.63608 0.0
Cd170 Cd 0.82659 0.49432 0.64459 0.0
O171 O 0.80673 0.49382 0.61191 0.0
O172 O 0.84286 0.38233 0.6365 0.0
O173 O 0.81143 0.41294 0.6582 0.0
C174 C 0.81925 0.38438 0.65097 0.0
C175 C 0.79909 0.50337 0.6789 0.0
C176 C 0.81088 0.47024 0.59813 0.0
C177 C 0.8979 0.47835 0.64711 0.0
O178 O 0.87603 0.50013 0.6466 0.0
O179 O 0.89036 0.44846 0.64468 0.0
O180 O 0.80699 0.52735 0.66567 0.0
O181 O 0.80481 0.47426 0.67175 0.0
O182 O 0.5869 0.82649 0.10404 0.0
Cd183 Cd 0.60042 0.84529 0.13539 0.0
Cd184 Cd 0.5378 0.82753 0.14409 0.0
O185 O 0.53752 0.8081 0.11131 0.0
O186 O 0.6492 0.84447 0.13421 0.0
O187 O 0.62049 0.81423 0.15807 0.0
C188 C 0.6484 0.82184 0.14955 0.0
C189 C 0.52925 0.79935 0.17823 0.0
C190 C 0.56123 0.81199 0.09758 0.0
C191 C 0.55363 0.89906 0.1467 0.0
O192 O 0.532 0.87702 0.14655 0.0
O193 O 0.58344 0.89174 0.14372 0.0
O194 O 0.50514 0.80754 0.16527 0.0
O195 O 0.55826 0.80517 0.17089 0.0
O196 O 0.20561 0.58692 0.60497 0.0
Cd197 Cd 0.18614 0.6011 0.63596 0.0
Cd198 Cd 0.20314 0.53849 0.64544 0.0
O199 O 0.22341 0.53748 0.61292 0.0
O200 O 0.18713 0.64989 0.63412 0.0
O201 O 0.21673 0.62169 0.65865 0.0
C202 C 0.20941 0.64943 0.64966 0.0
C203 C 0.2304 0.5301 0.67991 0.0
C204 C 0.22007 0.56101 0.59892 0.0
C205 C 0.13175 0.55476 0.647 0.0
O206 O 0.15363 0.53297 0.64734 0.0
O207 O 0.13938 0.58452 0.64387 0.0
O208 O 0.22231 0.50589 0.66705 0.0
O209 O 0.22497 0.55912 0.67233 0.0
O210 O 0.44104 0.20405 0.10633 0.0
Cd211 Cd 0.4282 0.18598 0.13806 0.0
Cd212 Cd 0.49102 0.204 0.14633 0.0
O213 O 0.48993 0.22384 0.11356 0.0
O214 O 0.37928 0.1871 0.1388 0.0
O215 O 0.41022 0.21886 0.16004 0.0
C216 C 0.38159 0.21093 0.15306 0.0
C217 C 0.50022 0.23163 0.18055 0.0
C218 C 0.46635 0.21925 0.09983 0.0
C219 C 0.47559 0.13246 0.14908 0.0
O220 O 0.4972 0.15451 0.1484 0.0
O221 O 0.44566 0.1398 0.14679 0.0
O222 O 0.52409 0.22396 0.16724 0.0
O223 O 0.47113 0.22559 0.17355 0.0
H224 H 0.10979 0.53336 0.16591 0.0
H225 H 0.07391 0.44053 0.14257 0.0
H226 H 0.05447 0.55362 0.1686 0.0
H227 H 0.01848 0.46117 0.14436 0.0
H228 H 0.91994 0.49781 0.16544 0.0
H229 H 0.97529 0.47758 0.16798 0.0
H230 H 1.01122 0.57104 0.14531 0.0
H231 H 0.95574 0.59161 0.14369 0.0
C232 C 0.09005 0.51723 0.16133 0.0
C233 C 0.09633 0.48531 0.15396 0.0
C234 C 0.05825 0.52897 0.16271 0.0
C235 C 0.03179 0.50925 0.15652 0.0
C236 C 0.03808 0.47703 0.14959 0.0
C237 C 0.06993 0.46516 0.14846 0.0
C238 C 0.93968 0.51416 0.1612 0.0
C239 C 0.93336 0.54634 0.15428 0.0
C240 C 0.97149 0.50245 0.16248 0.0
C241 C 0.99794 0.52245 0.15663 0.0
C242 C 0.99162 0.55494 0.15025 0.0
C243 C 0.95974 0.56678 0.14923 0.0
H244 H 0.43811 0.95833 0.64246 0.0
H245 H 0.53279 0.92332 0.6625 0.0
H246 H 0.45822 1.01407 0.64364 0.0
H247 H 0.55261 0.97892 0.66456 0.0
H248 H 0.5878 0.07854 0.63919 0.0
H249 H 0.5678 0.02275 0.64079 0.0
H250 H 0.47587 0.05722 0.66693 0.0
H251 H 0.49544 0.11286 0.66446 0.0
C252 C 0.46305 0.96255 0.64751 0.0
C253 C 0.48383 0.93631 0.65227 0.0
C254 C 0.47464 0.99458 0.64828 0.0
C255 C 0.50722 1.00121 0.65407 0.0
C256 C 0.52763 0.9749 0.65953 0.0
C257 C 0.51615 0.94293 0.65853 0.0
C258 C 0.56342 0.07415 0.64543 0.0
C259 C 0.54321 0.10023 0.65156 0.0
C260 C 0.55191 0.04209 0.64646 0.0
C261 C 0.52003 0.03527 0.65388 0.0
C262 C 0.50025 0.0614 0.66064 0.0
C263 C 0.51161 0.0934 0.65939 0.0
H264 H 0.07539 0.58979 0.38358 0.0
H265 H 0.11103 0.49608 0.36188 0.0
H266 H 0.01988 0.56934 0.38191 0.0
H267 H 0.05564 0.47598 0.35927 0.0
H268 H 0.95693 0.43897 0.38471 0.0
H269 H 1.0124 0.45949 0.38288 0.0
H270 H 0.97663 0.55218 0.35859 0.0
H271 H 0.92126 0.53203 0.36134 0.0
C272 C 0.07134 0.56501 0.37804 0.0
C273 C 0.09768 0.54455 0.37301 0.0
C274 C 0.03944 0.55324 0.37699 0.0
C275 C 0.03307 0.52081 0.3706 0.0
C276 C 0.05948 0.5008 0.36477 0.0
C277 C 0.09132 0.51244 0.36609 0.0
C278 C 0.96096 0.46362 0.37879 0.0
C279 C 0.93462 0.48388 0.37331 0.0
C280 C 0.99284 0.47543 0.37764 0.0
C281 C 0.9992 0.50768 0.3707 0.0
C282 C 0.9728 0.52751 0.3645 0.0
C283 C 0.94097 0.51583 0.36591 0.0
H284 H 0.49962 0.92256 0.85902 0.0
H285 H 0.59213 0.95817 0.88303 0.0
H286 H 0.47932 0.97797 0.85662 0.0
H287 H 0.57145 1.01366 0.88163 0.0
H288 H 0.53437 0.11294 0.86237 0.0
H289 H 0.55495 0.05777 0.85898 0.0
H290 H 0.46153 0.02036 0.88021 0.0
H291 H 0.44062 0.07567 0.88261 0.0
C292 C 0.51567 0.94228 0.86378 0.0
C293 C 0.5475 0.9359 0.87128 0.0
C294 C 0.50391 0.97413 0.86259 0.0
C295 C 0.5235 1.00053 0.86916 0.0
C296 C 0.55568 0.99414 0.87611 0.0
C297 C 0.56759 0.96225 0.87701 0.0
C298 C 0.51811 0.09291 0.86611 0.0
C299 C 0.48584 0.09875 0.87283 0.0
C300 C 0.53003 0.06118 0.86434 0.0
C301 C 0.51013 0.03435 0.86952 0.0
C302 C 0.47757 0.04024 0.87575 0.0
C303 C 0.46552 0.07203 0.87723 0.0
H304 H 0.95355 0.59005 0.88988 0.0
H305 H 0.92142 0.4956 0.867 0.0
H306 H 1.00968 0.57106 0.88927 0.0
H307 H 0.97737 0.47697 0.86565 0.0
H308 H 0.07699 0.44285 0.8913 0.0
H309 H 0.02085 0.4618 0.89006 0.0
H310 H 0.05347 0.55542 0.86536 0.0
H311 H 0.10939 0.53685 0.86734 0.0
C312 C 0.95848 0.5654 0.88441 0.0
C313 C 0.93292 0.54436 0.8786 0.0
C314 C 0.99072 0.55448 0.88397 0.0
C315 C 0.99822 0.52233 0.87752 0.0
C316 C 0.97261 0.50162 0.87117 0.0
C317 C 0.94045 0.51244 0.87178 0.0
C318 C 0.07212 0.46739 0.88547 0.0
C319 C 0.09775 0.48832 0.87954 0.0
C320 C 0.03988 0.47828 0.88467 0.0
C321 C 0.03247 0.5103 0.87772 0.0
C322 C 0.05815 0.53088 0.87126 0.0
C323 C 0.0903 0.5201 0.87224 0.0
H324 H 0.49514 0.10969 0.36592 0.0
H325 H 0.59073 0.0744 0.38345 0.0
H326 H 0.47533 0.05408 0.36364 0.0
H327 H 0.57067 0.01869 0.38204 0.0
H328 H 0.53322 0.92048 0.36081 0.0
H329 H 0.55218 0.97632 0.35837 0.0
H330 H 0.46143 1.00949 0.38725 0.0
H331 H 0.44198 0.95347 0.38884 0.0
C332 C 0.51198 0.09002 0.36929 0.0
C333 C 0.54455 0.09655 0.37491 0.0
C334 C 0.50051 0.05806 0.36816 0.0
C335 C 0.52123 0.03169 0.37283 0.0
C336 C 0.55402 0.03824 0.37801 0.0
C337 C 0.56557 0.07025 0.37891 0.0
C338 C 0.51716 0.93971 0.36649 0.0
C339 C 0.48609 0.93246 0.37511 0.0
C340 C 0.52818 0.9718 0.36525 0.0
C341 C 0.50858 0.9976 0.37283 0.0
C342 C 0.47714 0.99039 0.38098 0.0
C343 C 0.46597 0.95822 0.38198 0.0
H344 H 0.95316 0.44271 0.63894 0.0
H345 H 0.92066 0.53758 0.66062 0.0
H346 H 1.00929 0.46168 0.63992 0.0
H347 H 0.97659 0.55621 0.66238 0.0
H348 H 0.07666 0.58995 0.63727 0.0
H349 H 0.0205 0.57105 0.63836 0.0
H350 H 0.05278 0.47774 0.66382 0.0
H351 H 0.10873 0.49625 0.66197 0.0
C352 C 0.958 0.46744 0.64425 0.0
C353 C 0.93234 0.48861 0.64959 0.0
C354 C 0.99025 0.47836 0.6449 0.0
C355 C 0.99765 0.51064 0.65111 0.0
C356 C 0.97194 0.53145 0.65704 0.0
C357 C 0.93977 0.52064 0.6562 0.0
C358 C 0.07171 0.5655 0.64326 0.0
C359 C 0.09727 0.54463 0.64942 0.0
C360 C 0.03945 0.55462 0.64397 0.0
C361 C 0.03192 0.52269 0.65107 0.0
C362 C 0.05753 0.50219 0.6578 0.0
C363 C 0.08971 0.51295 0.6569 0.0
H364 H 0.44036 0.07703 0.14065 0.0
H365 H 0.53494 0.10995 0.16255 0.0
H366 H 0.45974 0.02099 0.14121 0.0
H367 H 0.55398 0.05406 0.16391 0.0
H368 H 0.58836 0.95476 0.13772 0.0
H369 H 0.56908 1.0108 0.13953 0.0
H370 H 0.47622 0.97701 0.16456 0.0
H371 H 0.49509 0.92119 0.16197 0.0
C372 C 0.46512 0.07228 0.14594 0.0
C373 C 0.48608 0.09804 0.15145 0.0
C374 C 0.47628 0.04008 0.14634 0.0
C375 C 0.5086 0.03281 0.15248 0.0
C376 C 0.5292 0.05862 0.15862 0.0
C377 C 0.51815 0.09075 0.15801 0.0
C378 C 0.56393 0.95935 0.14376 0.0
C379 C 0.54327 0.93343 0.14957 0.0
C380 C 0.55284 0.99154 0.14489 0.0
C381 C 0.52092 0.99861 0.15208 0.0
C382 C 0.50065 0.97262 0.15848 0.0
C383 C 0.51162 0.94052 0.15715 0.0
H384 H 0.26141 0.57301 0.31834 0.0
H385 H 0.22926 0.47351 0.32464 0.0
H386 H 0.27145 0.56479 0.27762 0.0
H387 H 0.23746 0.46565 0.28388 0.0
H388 H 0.25798 0.45317 0.21025 0.0
H389 H 0.26869 0.46066 0.25096 0.0
H390 H 0.23934 0.56131 0.2451 0.0
H391 H 0.23044 0.5541 0.20439 0.0
C392 C 0.25691 0.54923 0.31107 0.0
C393 C 0.2443 0.52399 0.32467 0.0
C394 C 0.26234 0.54457 0.28764 0.0
C395 C 0.2547 0.51472 0.27715 0.0
C396 C 0.24403 0.4889 0.29117 0.0
C397 C 0.23915 0.49342 0.31466 0.0
C398 C 0.25461 0.47708 0.21761 0.0
C399 C 0.24312 0.50297 0.20412 0.0
C400 C 0.26045 0.48134 0.24104 0.0
C401 C 0.25439 0.51147 0.25163 0.0
C402 C 0.24473 0.53781 0.23773 0.0
C403 C 0.23942 0.53366 0.21427 0.0
H404 H 0.5785 0.23026 0.71551 0.0
H405 H 0.48117 0.26287 0.70052 0.0
H406 H 0.56901 0.23852 0.75603 0.0
H407 H 0.47211 0.27322 0.74112 0.0
H408 H 0.45101 0.2334 0.81334 0.0
H409 H 0.46145 0.24201 0.77304 0.0
H410 H 0.56051 0.26914 0.7886 0.0
H411 H 0.5503 0.25848 0.82911 0.0
C412 C 0.55535 0.2402 0.72083 0.0
C413 C 0.53042 0.24547 0.70482 0.0
C414 C 0.54991 0.24518 0.74419 0.0
C415 C 0.51954 0.25613 0.75215 0.0
C416 C 0.49549 0.26385 0.73584 0.0
C417 C 0.50074 0.25823 0.71248 0.0
C418 C 0.4749 0.24175 0.80825 0.0
C419 C 0.49994 0.24482 0.82444 0.0
C420 C 0.4809 0.24696 0.78499 0.0
C421 C 0.51203 0.25595 0.77725 0.0
C422 C 0.53645 0.2614 0.79372 0.0
C423 C 0.53056 0.25561 0.81703 0.0
H424 H 0.76996 0.5742 0.20939 0.0
H425 H 0.80191 0.47475 0.20276 0.0
H426 H 0.75995 0.56543 0.25009 0.0
H427 H 0.79375 0.46633 0.2435 0.0
H428 H 0.77308 0.45277 0.31709 0.0
H429 H 0.76249 0.46088 0.27638 0.0
H430 H 0.79196 0.56141 0.28264 0.0
H431 H 0.80072 0.55359 0.32334 0.0
C432 C 0.77443 0.55032 0.21659 0.0
C433 C 0.78696 0.52524 0.20289 0.0
C434 C 0.76901 0.54533 0.24001 0.0
C435 C 0.7766 0.51533 0.2504 0.0
C436 C 0.78722 0.48969 0.23629 0.0
C437 C 0.79209 0.49454 0.21281 0.0
C438 C 0.77649 0.47679 0.30981 0.0
C439 C 0.78797 0.50247 0.32341 0.0
C440 C 0.77073 0.4814 0.28639 0.0
C441 C 0.77686 0.51169 0.27591 0.0
C442 C 0.78651 0.53781 0.28992 0.0
C443 C 0.79175 0.53331 0.31338 0.0
H444 H 0.57625 0.7733 0.81619 0.0
H445 H 0.47631 0.8034 0.82288 0.0
H446 H 0.56781 0.76333 0.77549 0.0
H447 H 0.46818 0.7952 0.78215 0.0
H448 H 0.45505 0.77385 0.70872 0.0
H449 H 0.46344 0.76355 0.74943 0.0
H450 H 0.56313 0.79534 0.74281 0.0
H451 H 0.55504 0.80387 0.70207 0.0
C452 C 0.55233 0.77737 0.80901 0.0
C453 C 0.52701 0.78937 0.82273 0.0
C454 C 0.54754 0.77197 0.78559 0.0
C455 C 0.51745 0.77899 0.77522 0.0
C456 C 0.49162 0.7891 0.78935 0.0
C457 C 0.49629 0.79398 0.81282 0.0
C458 C 0.47896 0.77785 0.71591 0.0
C459 C 0.50431 0.78991 0.7022 0.0
C460 C 0.48373 0.77225 0.73934 0.0
C461 C 0.51383 0.77913 0.74971 0.0
C462 C 0.53968 0.78934 0.7356 0.0
C463 C 0.53503 0.79442 0.71212 0.0
H464 H 0.80156 0.47496 0.8227 0.0
H465 H 0.77339 0.57587 0.8183 0.0
H466 H 0.79341 0.46907 0.78179 0.0
H467 H 0.76344 0.56968 0.77737 0.0
H468 H 0.77099 0.45965 0.70823 0.0
H469 H 0.76144 0.46637 0.74915 0.0
H470 H 0.79483 0.56588 0.74444 0.0
H471 H 0.80256 0.55952 0.7035 0.0
C472 C 0.79264 0.49568 0.81308 0.0
C473 C 0.78847 0.52597 0.82373 0.0
C474 C 0.78776 0.49228 0.78951 0.0
C475 C 0.77809 0.51899 0.77598 0.0
C476 C 0.77169 0.54874 0.78702 0.0
C477 C 0.77709 0.55225 0.81056 0.0
C478 C 0.77551 0.48318 0.7159 0.0
C479 C 0.78775 0.50898 0.70265 0.0
C480 C 0.77035 0.48698 0.73944 0.0
C481 C 0.77788 0.51651 0.7504 0.0
C482 C 0.78833 0.54285 0.73678 0.0
C483 C 0.79296 0.53918 0.71319 0.0
H484 H 0.45663 0.77099 0.31742 0.0
H485 H 0.55688 0.80092 0.32197 0.0
H486 H 0.46333 0.7611 0.27653 0.0
H487 H 0.56324 0.79287 0.2811 0.0
H488 H 0.57338 0.77167 0.20743 0.0
H489 H 0.56669 0.76137 0.2483 0.0
H490 H 0.46671 0.79293 0.24375 0.0
H491 H 0.47307 0.80138 0.20288 0.0
C492 C 0.48022 0.77507 0.30973 0.0
C493 C 0.50615 0.78697 0.32291 0.0
C494 C 0.48403 0.76971 0.2862 0.0
C495 C 0.51369 0.7767 0.27521 0.0
C496 C 0.5401 0.78678 0.28878 0.0
C497 C 0.53643 0.79161 0.31234 0.0
C498 C 0.54978 0.77562 0.21512 0.0
C499 C 0.52383 0.78757 0.20194 0.0
C500 C 0.54598 0.77002 0.23864 0.0
C501 C 0.5163 0.77683 0.24963 0.0
C502 C 0.48986 0.78697 0.23607 0.0
C503 C 0.49353 0.79203 0.21251 0.0
H504 H 0.22829 0.5583 0.82375 0.0
H505 H 0.25775 0.45779 0.81943 0.0
H506 H 0.23616 0.56449 0.78282 0.0
H507 H 0.26745 0.46432 0.77847 0.0
H508 H 0.2277 0.47402 0.70482 0.0
H509 H 0.23576 0.46777 0.74573 0.0
H510 H 0.2677 0.56776 0.74998 0.0
H511 H 0.25781 0.57436 0.70906 0.0
C512 C 0.23744 0.53775 0.81414 0.0
C513 C 0.24203 0.50746 0.82481 0.0
C514 C 0.24216 0.54133 0.79055 0.0
C515 C 0.2521 0.5148 0.77704 0.0
C516 C 0.25897 0.4851 0.7881 0.0
C517 C 0.25371 0.4814 0.81167 0.0
C518 C 0.23703 0.49451 0.7144 0.0
C519 C 0.24175 0.52478 0.70372 0.0
C520 C 0.24186 0.49091 0.73797 0.0
C521 C 0.25204 0.51737 0.75146 0.0
C522 C 0.25903 0.54703 0.74037 0.0
C523 C 0.25366 0.55077 0.71683 0.0
H524 H 0.47525 0.22845 0.32476 0.0
H525 H 0.57514 0.25916 0.31906 0.0
H526 H 0.46794 0.23671 0.28391 0.0
H527 H 0.56751 0.26925 0.27826 0.0
H528 H 0.55682 0.2295 0.20474 0.0
H529 H 0.56378 0.23748 0.2456 0.0
H530 H 0.4637 0.26839 0.25105 0.0
H531 H 0.45644 0.25863 0.2102 0.0
C532 C 0.49538 0.23801 0.31488 0.0
C533 C 0.52586 0.24279 0.32511 0.0
C534 C 0.49119 0.24293 0.29135 0.0
C535 C 0.51726 0.25325 0.27748 0.0
C536 C 0.54708 0.26042 0.28815 0.0
C537 C 0.55141 0.25496 0.31163 0.0
C538 C 0.53647 0.23862 0.21457 0.0
C539 C 0.50599 0.24308 0.20426 0.0
C540 C 0.54047 0.24339 0.23811 0.0
C541 C 0.5142 0.25324 0.25193 0.0
C542 C 0.48431 0.25998 0.24119 0.0
C543 C 0.48018 0.2547 0.21769 0.0
H544 H 0.24757 0.42426 0.95598 0.0
H545 H 0.21735 0.5246 0.95775 0.0
H546 H 0.25467 0.42453 0.99735 0.0
H547 H 0.22268 0.52456 0.99953 0.0
H548 H 0.24261 0.51627 0.07644 0.0
H549 H 0.25284 0.52019 0.03511 0.0
H550 H 0.21556 0.42275 0.02652 0.0
H551 H 0.2065 0.41854 0.0672 0.0
C552 C 0.2429 0.44655 0.96527 0.0
C553 C 0.23161 0.4743 0.95374 0.0
C554 C 0.24668 0.44668 0.98902 0.0
C555 C 0.23834 0.47428 1.00195 0.0
C556 C 0.22938 0.50287 0.99019 0.0
C557 C 0.22626 0.50293 0.96625 0.0
C558 C 0.23714 0.49557 0.06569 0.0
C559 C 0.22365 0.46713 0.07519 0.0
C560 C 0.2428 0.49788 0.04199 0.0
C561 C 0.23522 0.47174 0.02738 0.0
C562 C 0.22247 0.44317 0.03712 0.0
C563 C 0.21691 0.44086 0.0606 0.0
H564 H 0.51796 0.24442 0.45299 0.0
H565 H 0.61311 0.20195 0.46191 0.0
H566 H 0.5152 0.25481 0.49432 0.0
H567 H 0.60997 0.21124 0.50259 0.0
H568 H 0.50984 0.22081 0.57204 0.0
H569 H 0.50952 0.22523 0.53019 0.0
H570 H 0.61125 0.25102 0.53137 0.0
H571 H 0.61176 0.2449 0.57282 0.0
C572 C 0.53834 0.23754 0.46367 0.0
C573 C 0.56573 0.22232 0.45406 0.0
C574 C 0.53668 0.24331 0.48737 0.0
C575 C 0.56244 0.2341 0.50187 0.0
C576 C 0.58994 0.21944 0.49205 0.0
C577 C 0.5916 0.21377 0.46857 0.0
C578 C 0.53186 0.22817 0.56331 0.0
C579 C 0.56093 0.23206 0.57558 0.0
C580 C 0.53171 0.23075 0.53932 0.0
C581 C 0.56057 0.2377 0.52729 0.0
C582 C 0.58882 0.24458 0.53994 0.0
C583 C 0.5891 0.24136 0.56373 0.0
H584 H 0.82772 0.61347 0.06591 0.0
H585 H 0.78734 0.51741 0.07545 0.0
H586 H 0.81867 0.60961 0.0252 0.0
H587 H 0.77724 0.51387 0.03411 0.0
H588 H 0.81221 0.50843 0.9566 0.0
H589 H 0.80743 0.50846 0.99842 0.0
H590 H 0.77878 0.60951 0.99629 0.0
H591 H 0.78519 0.60971 0.95487 0.0
C592 C 0.81642 0.5916 0.05937 0.0
C593 C 0.80839 0.5657 0.07406 0.0
C594 C 0.81089 0.58951 0.03589 0.0
C595 C 0.79691 0.56153 0.02624 0.0
C596 C 0.7882 0.53572 0.04093 0.0
C597 C 0.79382 0.53782 0.06463 0.0
C598 C 0.80413 0.53034 0.96511 0.0
C599 C 0.79952 0.55919 0.95259 0.0
C600 C 0.80135 0.5304 0.98908 0.0
C601 C 0.79349 0.55923 1.00084 0.0
C602 C 0.7859 0.58715 0.98793 0.0
C603 C 0.78929 0.58723 0.96415 0.0
H604 H 0.41727 0.82922 0.56495 0.0
H605 H 0.51353 0.78969 0.57456 0.0
H606 H 0.42129 0.82001 0.52428 0.0
H607 H 0.51723 0.77941 0.53325 0.0
H608 H 0.52252 0.81383 0.45552 0.0
H609 H 0.52245 0.80943 0.49739 0.0
H610 H 0.42174 0.77997 0.49556 0.0
H611 H 0.42156 0.78602 0.4541 0.0
C612 C 0.43922 0.81807 0.55844 0.0
C613 C 0.46513 0.81032 0.57314 0.0
C614 C 0.44141 0.81245 0.53498 0.0
C615 C 0.46949 0.79865 0.52535 0.0
C616 C 0.4953 0.79023 0.54005 0.0
C617 C 0.49311 0.79594 0.56373 0.0
C618 C 0.50067 0.80568 0.46412 0.0
C619 C 0.47192 0.80072 0.45167 0.0
C620 C 0.50059 0.8031 0.48811 0.0
C621 C 0.47184 0.79511 0.49996 0.0
C622 C 0.44403 0.78721 0.48713 0.0
C623 C 0.44396 0.79039 0.46333 0.0
H624 H 0.20382 0.61218 0.46104 0.0
H625 H 0.24303 0.51556 0.45228 0.0
H626 H 0.21263 0.60849 0.5018 0.0
H627 H 0.25291 0.51219 0.49367 0.0
H628 H 0.21738 0.50755 0.57107 0.0
H629 H 0.22247 0.50732 0.52927 0.0
H630 H 0.25219 0.60808 0.53087 0.0
H631 H 0.24545 0.60856 0.57227 0.0
C632 C 0.21482 0.59022 0.46777 0.0
C633 C 0.22258 0.56411 0.45328 0.0
C634 C 0.22022 0.58822 0.49127 0.0
C635 C 0.23379 0.56013 0.50115 0.0
C636 C 0.24225 0.53413 0.48667 0.0
C637 C 0.23678 0.53613 0.46295 0.0
C638 C 0.22575 0.52934 0.56245 0.0
C639 C 0.23057 0.5582 0.5748 0.0
C640 C 0.22871 0.52925 0.53849 0.0
C641 C 0.23698 0.55793 0.52658 0.0
C642 C 0.24476 0.58584 0.53934 0.0
C643 C 0.24117 0.58608 0.5631 0.0
H644 H 0.41595 0.20039 0.96174 0.0
H645 H 0.51006 0.2452 0.95292 0.0
H646 H 0.41926 0.20872 1.00253 0.0
H647 H 0.51298 0.25459 0.99436 0.0
H648 H 0.5197 0.21917 0.07171 0.0
H649 H 0.51956 0.22417 0.02989 0.0
H650 H 0.41738 0.24797 0.03171 0.0
H651 H 0.41735 0.24133 0.07311 0.0
C652 C 0.43725 0.21251 0.96845 0.0
C653 C 0.46279 0.22201 0.95393 0.0
C654 C 0.43901 0.21762 0.99199 0.0
C655 C 0.46627 0.23263 1.00187 0.0
C656 C 0.49169 0.24279 0.98736 0.0
C657 C 0.48994 0.23759 0.96361 0.0
C658 C 0.49745 0.22617 0.06312 0.0
C659 C 0.46842 0.22938 0.07556 0.0
C660 C 0.49734 0.2291 0.03916 0.0
C661 C 0.46827 0.23571 0.02731 0.0
C662 C 0.43999 0.24181 0.04013 0.0
C663 C 0.43998 0.23827 0.0639 0.0
H664 H 0.82623 0.4172 0.46054 0.0
H665 H 0.78803 0.51416 0.45109 0.0
H666 H 0.81758 0.42128 0.50124 0.0
H667 H 0.77818 0.5179 0.49246 0.0
H668 H 0.81349 0.52327 0.5697 0.0
H669 H 0.80826 0.52298 0.52791 0.0
H670 H 0.77887 0.42214 0.53058 0.0
H671 H 0.78591 0.42216 0.57195 0.0
C672 C 0.81544 0.43931 0.4671 0.0
C673 C 0.80798 0.46542 0.45243 0.0
C674 C 0.81012 0.44154 0.4906 0.0
C675 C 0.79688 0.46984 0.5003 0.0
C676 C 0.78861 0.4958 0.48562 0.0
C677 C 0.79406 0.49359 0.4619 0.0
C678 C 0.80523 0.50133 0.5613 0.0
C679 C 0.80057 0.4726 0.57394 0.0
C680 C 0.80215 0.50113 0.53735 0.0
C681 C 0.7939 0.4723 0.52573 0.0
C682 C 0.78632 0.4445 0.5388 0.0
C683 C 0.79007 0.44453 0.56255 0.0
H684 H 0.60952 0.78813 0.07107 0.0
H685 H 0.50813 0.81424 0.06928 0.0
H686 H 0.60964 0.78199 0.02965 0.0
H687 H 0.50847 0.80975 0.02744 0.0
H688 H 0.51805 0.78962 0.9504 0.0
H689 H 0.51428 0.77968 0.99179 0.0
H690 H 0.60959 0.82178 1.00064 0.0
H691 H 0.61369 0.83065 0.95991 0.0
C692 C 0.58711 0.79213 0.06177 0.0
C693 C 0.55892 0.802 0.07333 0.0
C694 C 0.5872 0.78889 0.03799 0.0
C695 C 0.55931 0.79627 0.02506 0.0
C696 C 0.53039 0.80383 0.0368 0.0
C697 C 0.53016 0.80646 0.06077 0.0
C698 C 0.53831 0.79628 0.96123 0.0
C699 C 0.56615 0.81096 0.95176 0.0
C700 C 0.53609 0.79076 0.98495 0.0
C701 C 0.56171 0.79969 0.99964 0.0
C702 C 0.58963 0.81382 0.98997 0.0
C703 C 0.59186 0.81924 0.96646 0.0
H704 H 0.2097 0.32202 0.12842 0.0
H705 H 0.24981 0.37034 0.18752 0.0
H706 H 0.24917 0.27863 0.1326 0.0
H707 H 0.28827 0.3259 0.19269 0.0
H708 H 0.38119 0.27086 0.17284 0.0
H709 H 0.33586 0.30807 0.17619 0.0
H710 H 0.27109 0.23367 0.15071 0.0
H711 H 0.31718 0.19703 0.14614 0.0
C712 C 0.22636 0.32287 0.14276 0.0
C713 C 0.22679 0.3498 0.1575 0.0
C714 C 0.24905 0.29778 0.14527 0.0
C715 C 0.27247 0.29865 0.16286 0.0
C716 C 0.27134 0.32464 0.17854 0.0
C717 C 0.24903 0.35004 0.17575 0.0
C718 C 0.3572 0.26223 0.16829 0.0
C719 C 0.35289 0.23104 0.15902 0.0
C720 C 0.33097 0.28361 0.17034 0.0
C721 C 0.29951 0.27425 0.16352 0.0
C722 C 0.29496 0.24222 0.1556 0.0
C723 C 0.32136 0.22099 0.15319 0.0
H724 H 0.8328 0.32008 0.64305 0.0
H725 H 0.76002 0.38345 0.67184 0.0
H726 H 0.79632 0.27382 0.64775 0.0
H727 H 0.72296 0.33792 0.6754 0.0
H728 H 0.66121 0.25148 0.68701 0.0
H729 H 0.70592 0.28968 0.69181 0.0
H730 H 0.75065 0.25248 0.63017 0.0
H731 H 0.70696 0.21327 0.62627 0.0
C732 C 0.80911 0.32408 0.65059 0.0
C733 C 0.79929 0.3555 0.65696 0.0
C734 C 0.78798 0.29757 0.65309 0.0
C735 C 0.75628 0.3019 0.66167 0.0
C736 C 0.74718 0.33321 0.66902 0.0
C737 C 0.76847 0.35955 0.66685 0.0
C738 C 0.68102 0.25102 0.67481 0.0
C739 C 0.68043 0.22944 0.6562 0.0
C740 C 0.70658 0.2732 0.6774 0.0
C741 C 0.73189 0.27483 0.66117 0.0
C742 C 0.73201 0.25196 0.64324 0.0
C743 C 0.70676 0.22942 0.6409 0.0
H744 H 0.75958 0.64956 0.1708 0.0
H745 H 0.83285 0.71572 0.14568 0.0
H746 H 0.72128 0.69409 0.17376 0.0
H747 H 0.79498 0.76093 0.14977 0.0
H748 H 0.70578 0.82026 0.12622 0.0
H749 H 0.74989 0.78169 0.13083 0.0
H750 H 0.70233 0.74141 0.19056 0.0
H751 H 0.65727 0.77906 0.18506 0.0
C752 C 0.76781 0.67383 0.16648 0.0
C753 C 0.79922 0.67898 0.15779 0.0
C754 C 0.7458 0.69959 0.16831 0.0
C755 C 0.75469 0.73137 0.16182 0.0
C756 C 0.78684 0.73677 0.15443 0.0
C757 C 0.80874 0.71087 0.15228 0.0
C758 C 0.70499 0.80355 0.14058 0.0
C759 C 0.67783 0.80256 0.15514 0.0
C760 C 0.73049 0.78139 0.14333 0.0
C761 C 0.72976 0.7579 0.16094 0.0
C762 C 0.7035 0.75845 0.17642 0.0
C763 C 0.67773 0.78029 0.17343 0.0
H764 H 0.25195 0.65902 0.68511 0.0
H765 H 0.21115 0.70646 0.6257 0.0
H766 H 0.28943 0.70433 0.69019 0.0
H767 H 0.24954 0.7508 0.62991 0.0
H768 H 0.31483 0.83452 0.64422 0.0
H769 H 0.26986 0.79636 0.64847 0.0
H770 H 0.33677 0.72334 0.67334 0.0
H771 H 0.38105 0.76193 0.6702 0.0
C772 C 0.25077 0.67929 0.67326 0.0
C773 C 0.22866 0.67902 0.65494 0.0
C774 C 0.27252 0.7052 0.67601 0.0
C775 C 0.27311 0.73125 0.66027 0.0
C776 C 0.2498 0.73159 0.64261 0.0
C777 C 0.22775 0.70595 0.64009 0.0
C778 C 0.31974 0.81051 0.65104 0.0
C779 C 0.35158 0.80126 0.65676 0.0
C780 C 0.29398 0.78843 0.65328 0.0
C781 C 0.29947 0.75638 0.66097 0.0
C782 C 0.3312 0.74777 0.66766 0.0
C783 C 0.35681 0.76996 0.66572 0.0
H784 H 0.37244 0.77808 0.34039 0.0
H785 H 0.3244 0.81887 0.39941 0.0
H786 H 0.3274 0.74036 0.33516 0.0
H787 H 0.28033 0.78023 0.39506 0.0
H788 H 0.19752 0.71398 0.38086 0.0
H789 H 0.23512 0.75939 0.37635 0.0
H790 H 0.30888 0.69291 0.35226 0.0
H791 H 0.27085 0.64818 0.35564 0.0
C792 C 0.35208 0.77921 0.35212 0.0
C793 C 0.35212 0.80136 0.37039 0.0
C794 C 0.32633 0.75733 0.34928 0.0
C795 C 0.30022 0.75665 0.36489 0.0
C796 C 0.29961 0.78005 0.38247 0.0
C797 C 0.32509 0.80224 0.38507 0.0
C798 C 0.22157 0.70925 0.37415 0.0
C799 C 0.23121 0.67741 0.36875 0.0
C800 C 0.24331 0.73527 0.37175 0.0
C801 C 0.27541 0.73002 0.36422 0.0
C802 C 0.28439 0.69828 0.35781 0.0
C803 C 0.26254 0.67241 0.35989 0.0
H804 H 0.37934 0.27047 0.8563 0.0
H805 H 0.31408 0.19767 0.88326 0.0
H806 H 0.33488 0.30878 0.85356 0.0
H807 H 0.26883 0.23563 0.87944 0.0
H808 H 0.21094 0.32598 0.90291 0.0
H809 H 0.24892 0.28139 0.89817 0.0
H810 H 0.28712 0.32739 0.83715 0.0
H811 H 0.25011 0.37294 0.84275 0.0
C812 C 0.35526 0.26232 0.86109 0.0
C813 C 0.35038 0.23104 0.87021 0.0
C814 C 0.32952 0.28435 0.85937 0.0
C815 C 0.298 0.27564 0.86644 0.0
C816 C 0.29281 0.24361 0.8743 0.0
C817 C 0.31872 0.22166 0.8763 0.0
C818 C 0.22706 0.32633 0.88825 0.0
C819 C 0.22771 0.35321 0.87335 0.0
C820 C 0.24886 0.30055 0.88543 0.0
C821 C 0.27163 0.30071 0.86741 0.0
C822 C 0.27066 0.32667 0.8516 0.0
C823 C 0.24919 0.35271 0.85465 0.0
H824 H 0.64962 0.26945 0.35667 0.0
H825 H 0.71468 0.19497 0.38142 0.0
H826 H 0.69471 0.30694 0.35312 0.0
H827 H 0.76049 0.23202 0.37668 0.0
H828 H 0.82205 0.32033 0.39895 0.0
H829 H 0.78266 0.27679 0.39502 0.0
H830 H 0.74181 0.325 0.33573 0.0
H831 H 0.78023 0.36951 0.34061 0.0
C832 C 0.67376 0.26077 0.36078 0.0
C833 C 0.67846 0.22927 0.36954 0.0
C834 C 0.69985 0.28232 0.35859 0.0
C835 C 0.73153 0.27285 0.36477 0.0
C836 C 0.73644 0.2406 0.37225 0.0
C837 C 0.7102 0.21917 0.37477 0.0
C838 C 0.80501 0.32136 0.38483 0.0
C839 C 0.80408 0.34856 0.37024 0.0
C840 C 0.78238 0.2962 0.38247 0.0
C841 C 0.7585 0.29731 0.3652 0.0
C842 C 0.75912 0.32357 0.34964 0.0
C843 C 0.7814 0.34902 0.35227 0.0
H844 H 0.77969 0.65926 0.84109 0.0
H845 H 0.81988 0.70702 0.90042 0.0
H846 H 0.74241 0.70462 0.83545 0.0
H847 H 0.78168 0.75143 0.89563 0.0
H848 H 0.71648 0.83493 0.88052 0.0
H849 H 0.76155 0.79687 0.87658 0.0
H850 H 0.69489 0.72354 0.85208 0.0
H851 H 0.65051 0.76201 0.85491 0.0
C852 C 0.78079 0.67962 0.8528 0.0
C853 C 0.80264 0.67941 0.87128 0.0
C854 C 0.75916 0.70556 0.84972 0.0
C855 C 0.75843 0.7317 0.86528 0.0
C856 C 0.78154 0.73213 0.88307 0.0
C857 C 0.80348 0.70645 0.88592 0.0
C858 C 0.71165 0.81087 0.87384 0.0
C859 C 0.67985 0.80149 0.86816 0.0
C860 C 0.73747 0.78887 0.87178 0.0
C861 C 0.73206 0.75676 0.86429 0.0
C862 C 0.70038 0.74802 0.85761 0.0
C863 C 0.67472 0.77013 0.85937 0.0
loop_
_geom_bond_atom_site_label_1
_geom_bond_atom_site_label_2
_geom_bond_distance
_geom_bond_site_symmetry_2
_ccdc_geom_bond_type
O0 Cd1 2.223 . S
O0 C8 1.315 . S
Cd1 O0 2.223 . S
Cd1 O4 2.297 . S
Cd1 O5 2.439 . S
Cd1 O11 2.240 . S
Cd2 O3 2.240 . S
Cd2 O10 2.223 . S
Cd2 O12 2.297 . S
Cd2 O13 2.439 . S
O3 Cd2 2.240 . S
O3 C8 1.279 . S
O4 Cd1 2.297 . S
O4 C6 1.247 . S
O5 Cd1 2.439 . S
O5 C6 1.208 . S
C6 O4 1.247 . S
C6 O5 1.208 . S
C7 O12 1.247 . S
C7 O13 1.208 . S
C8 O0 1.315 . S
C8 O3 1.279 . S
C9 O10 1.315 . S
C9 O11 1.279 . S
O10 Cd2 2.223 . S
O10 C9 1.315 . S
O11 Cd1 2.240 . S
O11 C9 1.279 . S
O12 Cd2 2.297 . S
O12 C7 1.247 . S
O13 Cd2 2.439 . S
O13 C7 1.208 . S
O14 Cd15 2.223 . S
O14 C22 1.315 . S
Cd15 O14 2.223 . S
Cd15 O18 2.297 . S
Cd15 O19 2.439 . S
Cd15 O25 2.240 . S
Cd16 O17 2.240 . S
Cd16 O24 2.223 . S
Cd16 O26 2.297 . S
Cd16 O27 2.439 . S
O17 Cd16 2.240 . S
O17 C22 1.279 . S
O18 Cd15 2.297 . S
O18 C20 1.247 . S
O19 Cd15 2.439 . S
O19 C20 1.208 . S
C20 O18 1.247 . S
C20 O19 1.208 . S
C21 O26 1.247 . S
C21 O27 1.208 . S
C22 O14 1.315 . S
C22 O17 1.279 . S
C23 O24 1.315 . S
C23 O25 1.279 . S
O24 Cd16 2.223 . S
O24 C23 1.315 . S
O25 Cd15 2.240 . S
O25 C23 1.279 . S
O26 Cd16 2.297 . S
O26 C21 1.247 . S
O27 Cd16 2.439 . S
O27 C21 1.208 . S
O28 Cd29 2.223 . S
O28 C36 1.315 . S
Cd29 O28 2.223 . S
Cd29 O32 2.297 . S
Cd29 O33 2.439 . S
Cd29 O39 2.240 . S
Cd30 O31 2.240 . S
Cd30 O38 2.223 . S
Cd30 O40 2.297 . S
Cd30 O41 2.439 . S
O31 Cd30 2.240 . S
O31 C36 1.279 . S
O32 Cd29 2.297 . S
O32 C34 1.247 . S
O33 Cd29 2.439 . S
O33 C34 1.208 . S
C34 O32 1.247 . S
C34 O33 1.208 . S
C35 O40 1.247 . S
C35 O41 1.208 . S
C36 O28 1.315 . S
C36 O31 1.279 . S
C37 O38 1.315 . S
C37 O39 1.279 . S
O38 Cd30 2.223 . S
O38 C37 1.315 . S
O39 Cd29 2.240 . S
O39 C37 1.279 . S
O40 Cd30 2.297 . S
O40 C35 1.247 . S
O41 Cd30 2.439 . S
O41 C35 1.208 . S
O42 Cd43 2.223 . S
O42 C50 1.315 . S
Cd43 O42 2.223 . S
Cd43 O46 2.297 . S
Cd43 O47 2.439 . S
Cd43 O53 2.240 . S
Cd44 O45 2.240 . S
Cd44 O52 2.223 . S
Cd44 O54 2.297 . S
Cd44 O55 2.439 . S
O45 Cd44 2.240 . S
O45 C50 1.279 . S
O46 Cd43 2.297 . S
O46 C48 1.247 . S
O47 Cd43 2.439 . S
O47 C48 1.208 . S
C48 O46 1.247 . S
C48 O47 1.208 . S
C49 O54 1.247 . S
C49 O55 1.208 . S
C50 O42 1.315 . S
C50 O45 1.279 . S
C51 O52 1.315 . S
C51 O53 1.279 . S
O52 Cd44 2.223 . S
O52 C51 1.315 . S
O53 Cd43 2.240 . S
O53 C51 1.279 . S
O54 Cd44 2.297 . S
O54 C49 1.247 . S
O55 Cd44 2.439 . S
O55 C49 1.208 . S
O56 Cd57 2.223 . S
O56 C64 1.315 . S
Cd57 O56 2.223 . S
Cd57 O60 2.297 . S
Cd57 O61 2.439 . S
Cd57 O67 2.240 . S
Cd58 O59 2.240 . S
Cd58 O66 2.223 . S
Cd58 O68 2.297 . S
Cd58 O69 2.439 . S
O59 Cd58 2.240 . S
O59 C64 1.279 . S
O60 Cd57 2.297 . S
O60 C62 1.247 . S
O61 Cd57 2.439 . S
O61 C62 1.208 . S
C62 O60 1.247 . S
C62 O61 1.208 . S
C63 O68 1.247 . S
C63 O69 1.208 . S
C64 O56 1.315 . S
C64 O59 1.279 . S
C65 O66 1.315 . S
C65 O67 1.279 . S
O66 Cd58 2.223 . S
O66 C65 1.315 . S
O67 Cd57 2.240 . S
O67 C65 1.279 . S
O68 Cd58 2.297 . S
O68 C63 1.247 . S
O69 Cd58 2.439 . S
O69 C63 1.208 . S
O70 Cd71 2.223 . S
O70 C78 1.315 . S
Cd71 O70 2.223 . S
Cd71 O74 2.297 . S
Cd71 O75 2.439 . S
Cd71 O81 2.240 . S
Cd72 O73 2.240 . S
Cd72 O80 2.223 . S
Cd72 O82 2.297 . S
Cd72 O83 2.439 . S
O73 Cd72 2.240 . S
O73 C78 1.279 . S
O74 Cd71 2.297 . S
O74 C76 1.247 . S
O75 Cd71 2.439 . S
O75 C76 1.208 . S
C76 O74 1.247 . S
C76 O75 1.208 . S
C77 O82 1.247 . S
C77 O83 1.208 . S
C78 O70 1.315 . S
C78 O73 1.279 . S
C79 O80 1.315 . S
C79 O81 1.279 . S
O80 Cd72 2.223 . S
O80 C79 1.315 . S
O81 Cd71 2.240 . S
O81 C79 1.279 . S
O82 Cd72 2.297 . S
O82 C77 1.247 . S
O83 Cd72 2.439 . S
O83 C77 1.208 . S
O84 Cd85 2.223 . S
O84 C92 1.315 . S
Cd85 O84 2.223 . S
Cd85 O88 2.297 . S
Cd85 O89 2.439 . S
Cd85 O95 2.240 . S
Cd86 O87 2.240 . S
Cd86 O94 2.223 . S
Cd86 O96 2.297 . S
Cd86 O97 2.439 . S
O87 Cd86 2.240 . S
O87 C92 1.279 . S
O88 Cd85 2.297 . S
O88 C90 1.247 . S
O89 Cd85 2.439 . S
O89 C90 1.208 . S
C90 O88 1.247 . S
C90 O89 1.208 . S
C91 O96 1.247 . S
C91 O97 1.208 . S
C92 O84 1.315 . S
C92 O87 1.279 . S
C93 O94 1.315 . S
C93 O95 1.279 . S
O94 Cd86 2.223 . S
O94 C93 1.315 . S
O95 Cd85 2.240 . S
O95 C93 1.279 . S
O96 Cd86 2.297 . S
O96 C91 1.247 . S
O97 Cd86 2.439 . S
O97 C91 1.208 . S
O98 Cd99 2.223 . S
O98 C106 1.315 . S
Cd99 O98 2.223 . S
Cd99 O102 2.297 . S
Cd99 O103 2.439 . S
Cd99 O109 2.240 . S
Cd100 O101 2.240 . S
Cd100 O108 2.223 . S
Cd100 O110 2.297 . S
Cd100 O111 2.439 . S
O101 Cd100 2.240 . S
O101 C106 1.279 . S
O102 Cd99 2.297 . S
O102 C104 1.247 . S
O103 Cd99 2.439 . S
O103 C104 1.208 . S
C104 O102 1.247 . S
C104 O103 1.208 . S
C105 O110 1.247 . S
C105 O111 1.208 . S
C106 O98 1.315 . S
C106 O101 1.279 . S
C107 O108 1.315 . S
C107 O109 1.279 . S
O108 Cd100 2.223 . S
O108 C107 1.315 . S
O109 Cd99 2.240 . S
O109 C107 1.279 . S
O110 Cd100 2.297 . S
O110 C105 1.247 . S
O111 Cd100 2.439 . S
O111 C105 1.208 . S
O112 Cd113 2.223 . S
O112 C120 1.315 . S
Cd113 O112 2.223 . S
Cd113 O116 2.297 . S
Cd113 O117 2.439 . S
Cd113 O123 2.240 . S
Cd114 O115 2.240 . S
Cd114 O122 2.223 . S
Cd114 O124 2.297 . S
Cd114 O125 2.439 . S
O115 Cd114 2.240 . S
O115 C120 1.279 . S
O116 Cd113 2.297 . S
O116 C118 1.247 . S
O117 Cd113 2.439 . S
O117 C118 1.208 . S
C118 O116 1.247 . S
C118 O117 1.208 . S
C119 O124 1.247 . S
C119 O125 1.208 . S
C120 O112 1.315 . S
C120 O115 1.279 . S
C121 O122 1.315 . S
C121 O123 1.279 . S
O122 Cd114 2.223 . S
O122 C121 1.315 . S
O123 Cd113 2.240 . S
O123 C121 1.279 . S
O124 Cd114 2.297 . S
O124 C119 1.247 . S
O125 Cd114 2.439 . S
O125 C119 1.208 . S
O126 Cd127 2.223 . S
O126 C134 1.315 . S
Cd127 O126 2.223 . S
Cd127 O130 2.297 . S
Cd127 O131 2.439 . S
Cd127 O137 2.240 . S
Cd128 O129 2.240 . S
Cd128 O136 2.223 . S
Cd128 O138 2.297 . S
Cd128 O139 2.439 . S
O129 Cd128 2.240 . S
O129 C134 1.279 . S
O130 Cd127 2.297 . S
O130 C132 1.247 . S
O131 Cd127 2.439 . S
O131 C132 1.208 . S
C132 O130 1.247 . S
C132 O131 1.208 . S
C133 O138 1.247 . S
C133 O139 1.208 . S
C134 O126 1.315 . S
C134 O129 1.279 . S
C135 O136 1.315 . S
C135 O137 1.279 . S
O136 Cd128 2.223 . S
O136 C135 1.315 . S
O137 Cd127 2.240 . S
O137 C135 1.279 . S
O138 Cd128 2.297 . S
O138 C133 1.247 . S
O139 Cd128 2.439 . S
O139 C133 1.208 . S
O140 Cd141 2.223 . S
O140 C148 1.315 . S
Cd141 O140 2.223 . S
Cd141 O144 2.297 . S
Cd141 O145 2.439 . S
Cd141 O151 2.240 . S
Cd142 O143 2.240 . S
Cd142 O150 2.223 . S
Cd142 O152 2.297 . S
Cd142 O153 2.439 . S
O143 Cd142 2.240 . S
O143 C148 1.279 . S
O144 Cd141 2.297 . S
O144 C146 1.247 . S
O145 Cd141 2.439 . S
O145 C146 1.208 . S
C146 O144 1.247 . S
C146 O145 1.208 . S
C147 O152 1.247 . S
C147 O153 1.208 . S
C148 O140 1.315 . S
C148 O143 1.279 . S
C149 O150 1.315 . S
C149 O151 1.279 . S
O150 Cd142 2.223 . S
O150 C149 1.315 . S
O151 Cd141 2.240 . S
O151 C149 1.279 . S
O152 Cd142 2.297 . S
O152 C147 1.247 . S
O153 Cd142 2.439 . S
O153 C147 1.208 . S
O154 Cd155 2.223 . S
O154 C162 1.315 . S
Cd155 O154 2.223 . S
Cd155 O158 2.297 . S
Cd155 O159 2.439 . S
Cd155 O165 2.240 . S
Cd156 O157 2.240 . S
Cd156 O164 2.223 . S
Cd156 O166 2.297 . S
Cd156 O167 2.439 . S
O157 Cd156 2.240 . S
O157 C162 1.279 . S
O158 Cd155 2.297 . S
O158 C160 1.247 . S
O159 Cd155 2.439 . S
O159 C160 1.208 . S
C160 O158 1.247 . S
C160 O159 1.208 . S
C161 O166 1.247 . S
C161 O167 1.208 . S
C162 O154 1.315 . S
C162 O157 1.279 . S
C163 O164 1.315 . S
C163 O165 1.279 . S
O164 Cd156 2.223 . S
O164 C163 1.315 . S
O165 Cd155 2.240 . S
O165 C163 1.279 . S
O166 Cd156 2.297 . S
O166 C161 1.247 . S
O167 Cd156 2.439 . S
O167 C161 1.208 . S
O168 Cd169 2.223 . S
O168 C176 1.315 . S
Cd169 O168 2.223 . S
Cd169 O172 2.297 . S
Cd169 O173 2.439 . S
Cd169 O179 2.240 . S
Cd170 O171 2.240 . S
Cd170 O178 2.223 . S
Cd170 O180 2.297 . S
Cd170 O181 2.439 . S
O171 Cd170 2.240 . S
O171 C176 1.279 . S
O172 Cd169 2.297 . S
O172 C174 1.247 . S
O173 Cd169 2.439 . S
O173 C174 1.208 . S
C174 O172 1.247 . S
C174 O173 1.208 . S
C175 O180 1.247 . S
C175 O181 1.208 . S
C176 O168 1.315 . S
C176 O171 1.279 . S
C177 O178 1.315 . S
C177 O179 1.279 . S
O178 Cd170 2.223 . S
O178 C177 1.315 . S
O179 Cd169 2.240 . S
O179 C177 1.279 . S
O180 Cd170 2.297 . S
O180 C175 1.247 . S
O181 Cd170 2.439 . S
O181 C175 1.208 . S
O182 Cd183 2.223 . S
O182 C190 1.315 . S
Cd183 O182 2.223 . S
Cd183 O186 2.297 . S
Cd183 O187 2.439 . S
Cd183 O193 2.240 . S
Cd184 O185 2.240 . S
Cd184 O192 2.223 . S
Cd184 O194 2.297 . S
Cd184 O195 2.439 . S
O185 Cd184 2.240 . S
O185 C190 1.279 . S
O186 Cd183 2.297 . S
O186 C188 1.247 . S
O187 Cd183 2.439 . S
O187 C188 1.208 . S
C188 O186 1.247 . S
C188 O187 1.208 . S
C189 O194 1.247 . S
C189 O195 1.208 . S
C190 O182 1.315 . S
C190 O185 1.279 . S
C191 O192 1.315 . S
C191 O193 1.279 . S
O192 Cd184 2.223 . S
O192 C191 1.315 . S
O193 Cd183 2.240 . S
O193 C191 1.279 . S
O194 Cd184 2.297 . S
O194 C189 1.247 . S
O195 Cd184 2.439 . S
O195 C189 1.208 . S
O196 Cd197 2.223 . S
O196 C204 1.315 . S
Cd197 O196 2.223 . S
Cd197 O200 2.297 . S
Cd197 O201 2.439 . S
Cd197 O207 2.240 . S
Cd198 O199 2.240 . S
Cd198 O206 2.223 . S
Cd198 O208 2.297 . S
Cd198 O209 2.439 . S
O199 Cd198 2.240 . S
O199 C204 1.279 . S
O200 Cd197 2.297 . S
O200 C202 1.247 . S
O201 Cd197 2.439 . S
O201 C202 1.208 . S
C202 O200 1.247 . S
C202 O201 1.208 . S
C203 O208 1.247 . S
C203 O209 1.208 . S
C204 O196 1.315 . S
C204 O199 1.279 . S
C205 O206 1.315 . S
C205 O207 1.279 . S
O206 Cd198 2.223 . S
O206 C205 1.315 . S
O207 Cd197 2.240 . S
O207 C205 1.279 . S
O208 Cd198 2.297 . S
O208 C203 1.247 . S
O209 Cd198 2.439 . S
O209 C203 1.208 . S
O210 Cd211 2.223 . S
O210 C218 1.315 . S
Cd211 O210 2.223 . S
Cd211 O214 2.297 . S
Cd211 O215 2.439 . S
Cd211 O221 2.240 . S
Cd212 O213 2.240 . S
Cd212 O220 2.223 . S
Cd212 O222 2.297 . S
Cd212 O223 2.439 . S
O213 Cd212 2.240 . S
O213 C218 1.279 . S
O214 Cd211 2.297 . S
O214 C216 1.247 . S
O215 Cd211 2.439 . S
O215 C216 1.208 . S
C216 O214 1.247 . S
C216 O215 1.208 . S
C217 O222 1.247 . S
C217 O223 1.208 . S
C218 O210 1.315 . S
C218 O213 1.279 . S
C219 O220 1.315 . S
C219 O221 1.279 . S
O220 Cd212 2.223 . S
O220 C219 1.315 . S
O221 Cd211 2.240 . S
O221 C219 1.279 . S
O222 Cd212 2.297 . S
O222 C217 1.247 . S
O223 Cd212 2.439 . S
O223 C217 1.208 . S
H224 C232 0.950 . S
H225 C237 0.950 . S
H226 C234 0.950 . S
H227 C236 0.950 1_655 S
H228 C238 0.950 . S
H229 C240 0.950 . S
H230 C242 0.950 1_455 S
H231 C243 0.950 . S
C232 H224 0.950 . S
C232 C233 1.386 . S
C232 C234 1.391 . S
C233 C232 1.386 . S
C233 C237 1.393 . S
C234 H226 0.950 . S
C234 C232 1.391 . S
C234 C235 1.400 . S
C235 C234 1.400 . S
C235 C236 1.398 . S
C235 C241 1.491 1_455 S
C236 H227 0.950 1_455 S
C236 C235 1.398 . S
C236 C237 1.391 . S
C237 H225 0.950 . S
C237 C233 1.393 . S
C237 C236 1.391 . S
C238 H228 0.950 . S
C238 C239 1.386 . S
C238 C240 1.391 . S
C239 C238 1.386 . S
C239 C243 1.393 . S
C240 H229 0.950 . S
C240 C238 1.391 . S
C240 C241 1.400 . S
C241 C235 1.491 1_655 S
C241 C240 1.400 . S
C241 C242 1.398 . S
C242 H230 0.950 1_655 S
C242 C241 1.398 . S
C242 C243 1.391 . S
C243 H231 0.950 . S
C243 C239 1.393 . S
C243 C242 1.391 . S
H244 C252 0.950 . S
H245 C257 0.950 . S
H246 C254 0.950 . S
H247 C256 0.950 . S
H248 C258 0.950 . S
H249 C260 0.950 . S
H250 C262 0.950 . S
H251 C263 0.950 . S
C252 H244 0.950 . S
C252 C253 1.386 . S
C252 C254 1.391 . S
C253 C252 1.386 . S
C253 C257 1.393 . S
C254 H246 0.950 . S
C254 C252 1.391 . S
C254 C255 1.400 . S
C255 C254 1.400 . S
C255 C256 1.398 . S
C255 C261 1.491 1_565 S
C256 H247 0.950 . S
C256 C255 1.398 . S
C256 C257 1.391 . S
C257 H245 0.950 . S
C257 C253 1.393 . S
C257 C256 1.391 . S
C258 H248 0.950 . S
C258 C259 1.386 . S
C258 C260 1.391 . S
C259 C258 1.386 . S
C259 C263 1.393 . S
C260 H249 0.950 . S
C260 C258 1.391 . S
C260 C261 1.400 . S
C261 C255 1.491 1_545 S
C261 C260 1.400 . S
C261 C262 1.398 . S
C262 H250 0.950 . S
C262 C261 1.398 . S
C262 C263 1.391 . S
C263 H251 0.950 . S
C263 C259 1.393 . S
C263 C262 1.391 . S
H264 C272 0.950 . S
H265 C277 0.950 . S
H266 C274 0.950 . S
H267 C276 0.950 . S
H268 C278 0.950 . S
H269 C280 0.950 . S
H270 C282 0.950 . S
H271 C283 0.950 . S
C272 H264 0.950 . S
C272 C273 1.386 . S
C272 C274 1.391 . S
C273 C272 1.386 . S
C273 C277 1.393 . S
C274 H266 0.950 . S
C274 C272 1.391 . S
C274 C275 1.400 . S
C275 C274 1.400 . S
C275 C276 1.398 . S
C275 C281 1.491 1_455 S
C276 H267 0.950 . S
C276 C275 1.398 . S
C276 C277 1.391 . S
C277 H265 0.950 . S
C277 C273 1.393 . S
C277 C276 1.391 . S
C278 H268 0.950 . S
C278 C279 1.386 . S
C278 C280 1.391 . S
C279 C278 1.386 . S
C279 C283 1.393 . S
C280 H269 0.950 . S
C280 C278 1.391 . S
C280 C281 1.400 . S
C281 C275 1.491 1_655 S
C281 C280 1.400 . S
C281 C282 1.398 . S
C282 H270 0.950 . S
C282 C281 1.398 . S
C282 C283 1.391 . S
C283 H271 0.950 . S
C283 C279 1.393 . S
C283 C282 1.391 . S
H284 C292 0.950 . S
H285 C297 0.950 . S
H286 C294 0.950 . S
H287 C296 0.950 . S
H288 C298 0.950 . S
H289 C300 0.950 . S
H290 C302 0.950 . S
H291 C303 0.950 . S
C292 H284 0.950 . S
C292 C293 1.386 . S
C292 C294 1.391 . S
C293 C292 1.386 . S
C293 C297 1.393 . S
C294 H286 0.950 . S
C294 C292 1.391 . S
C294 C295 1.400 . S
C295 C294 1.400 . S
C295 C296 1.398 . S
C295 C301 1.491 1_565 S
C296 H287 0.950 . S
C296 C295 1.398 . S
C296 C297 1.391 . S
C297 H285 0.950 . S
C297 C293 1.393 . S
C297 C296 1.391 . S
C298 H288 0.950 . S
C298 C299 1.386 . S
C298 C300 1.391 . S
C299 C298 1.386 . S
C299 C303 1.393 . S
C300 H289 0.950 . S
C300 C298 1.391 . S
C300 C301 1.400 . S
C301 C295 1.491 1_545 S
C301 C300 1.400 . S
C301 C302 1.398 . S
C302 H290 0.950 . S
C302 C301 1.398 . S
C302 C303 1.391 . S
C303 H291 0.950 . S
C303 C299 1.393 . S
C303 C302 1.391 . S
H304 C312 0.950 . S
H305 C317 0.950 . S
H306 C314 0.950 . S
H307 C316 0.950 . S
H308 C318 0.950 . S
H309 C320 0.950 . S
H310 C322 0.950 . S
H311 C323 0.950 . S
C312 H304 0.950 . S
C312 C313 1.386 . S
C312 C314 1.391 . S
C313 C312 1.386 . S
C313 C317 1.393 . S
C314 H306 0.950 . S
C314 C312 1.391 . S
C314 C315 1.400 . S
C315 C314 1.400 . S
C315 C316 1.398 . S
C315 C321 1.491 1_655 S
C316 H307 0.950 . S
C316 C315 1.398 . S
C316 C317 1.391 . S
C317 H305 0.950 . S
C317 C313 1.393 . S
C317 C316 1.391 . S
C318 H308 0.950 . S
C318 C319 1.386 . S
C318 C320 1.391 . S
C319 C318 1.386 . S
C319 C323 1.393 . S
C320 H309 0.950 . S
C320 C318 1.391 . S
C320 C321 1.400 . S
C321 C315 1.491 1_455 S
C321 C320 1.400 . S
C321 C322 1.398 . S
C322 H310 0.950 . S
C322 C321 1.398 . S
C322 C323 1.391 . S
C323 H311 0.950 . S
C323 C319 1.393 . S
C323 C322 1.391 . S
H324 C332 0.950 . S
H325 C337 0.950 . S
H326 C334 0.950 . S
H327 C336 0.937 1_565 S
H328 C338 0.950 . S
H329 C340 0.950 . S
H330 C342 0.937 1_545 S
H331 C343 0.950 . S
C332 H324 0.950 . S
C332 C333 1.386 . S
C332 C334 1.391 . S
C333 C332 1.386 . S
C333 C337 1.393 . S
C334 H326 0.950 . S
C334 C332 1.391 . S
C334 C335 1.400 . S
C335 C334 1.400 . S
C335 C336 1.398 . S
C335 C341 1.491 1_545 S
C336 H327 0.937 1_545 S
C336 C335 1.398 . S
C336 C337 1.391 . S
C337 H325 0.950 . S
C337 C333 1.393 . S
C337 C336 1.391 . S
C338 H328 0.950 . S
C338 C339 1.386 . S
C338 C340 1.391 . S
C339 C338 1.386 . S
C339 C343 1.393 . S
C340 H329 0.950 . S
C340 C338 1.391 . S
C340 C341 1.400 . S
C341 C335 1.491 1_565 S
C341 C340 1.400 . S
C341 C342 1.398 . S
C342 H330 0.937 1_565 S
C342 C341 1.398 . S
C342 C343 1.391 . S
C343 H331 0.950 . S
C343 C339 1.393 . S
C343 C342 1.391 . S
H344 C352 0.950 . S
H345 C357 0.950 . S
H346 C354 0.950 . S
H347 C356 0.950 . S
H348 C358 0.950 . S
H349 C360 0.950 . S
H350 C362 0.950 . S
H351 C363 0.950 . S
C352 H344 0.950 . S
C352 C353 1.386 . S
C352 C354 1.391 . S
C353 C352 1.386 . S
C353 C357 1.393 . S
C354 H346 0.950 . S
C354 C352 1.391 . S
C354 C355 1.400 . S
C355 C354 1.400 . S
C355 C356 1.398 . S
C355 C361 1.491 1_655 S
C356 H347 0.950 . S
C356 C355 1.398 . S
C356 C357 1.391 . S
C357 H345 0.950 . S
C357 C353 1.393 . S
C357 C356 1.391 . S
C358 H348 0.950 . S
C358 C359 1.386 . S
C358 C360 1.391 . S
C359 C358 1.386 . S
C359 C363 1.393 . S
C360 H349 0.950 . S
C360 C358 1.391 . S
C360 C361 1.400 . S
C361 C355 1.491 1_455 S
C361 C360 1.400 . S
C361 C362 1.398 . S
C362 H350 0.950 . S
C362 C361 1.398 . S
C362 C363 1.391 . S
C363 H351 0.950 . S
C363 C359 1.393 . S
C363 C362 1.391 . S
H364 C372 0.950 . S
H365 C377 0.950 . S
H366 C374 0.950 . S
H367 C376 0.950 . S
H368 C378 0.950 . S
H369 C380 0.950 . S
H370 C382 0.950 . S
H371 C383 0.950 . S
C372 H364 0.950 . S
C372 C373 1.386 . S
C372 C374 1.391 . S
C373 C372 1.386 . S
C373 C377 1.393 . S
C374 H366 0.950 . S
C374 C372 1.391 . S
C374 C375 1.400 . S
C375 C374 1.400 . S
C375 C376 1.398 . S
C375 C381 1.491 1_545 S
C376 H367 0.950 . S
C376 C375 1.398 . S
C376 C377 1.391 . S
C377 H365 0.950 . S
C377 C373 1.393 . S
C377 C376 1.391 . S
C378 H368 0.950 . S
C378 C379 1.386 . S
C378 C380 1.391 . S
C379 C378 1.386 . S
C379 C383 1.393 . S
C380 H369 0.950 . S
C380 C378 1.391 . S
C380 C381 1.400 . S
C381 C375 1.491 1_565 S
C381 C380 1.400 . S
C381 C382 1.398 . S
C382 H370 0.950 . S
C382 C381 1.398 . S
C382 C383 1.391 . S
C383 H371 0.950 . S
C383 C379 1.393 . S
C383 C382 1.391 . S
H384 C392 0.950 . S
H385 C397 0.950 . S
H386 C394 0.950 . S
H387 C396 0.950 . S
H388 C398 0.950 . S
H389 C400 0.950 . S
H390 C402 0.950 . S
H391 C403 0.950 . S
C392 H384 0.950 . S
C392 C393 1.386 . S
C392 C394 1.391 . S
C393 C392 1.386 . S
C393 C397 1.393 . S
C394 H386 0.950 . S
C394 C392 1.391 . S
C394 C395 1.400 . S
C395 C394 1.400 . S
C395 C396 1.398 . S
C395 C401 1.491 . S
C396 H387 0.950 . S
C396 C395 1.398 . S
C396 C397 1.391 . S
C397 H385 0.950 . S
C397 C393 1.393 . S
C397 C396 1.391 . S
C398 H388 0.950 . S
C398 C399 1.386 . S
C398 C400 1.391 . S
C399 C398 1.386 . S
C399 C403 1.393 . S
C400 H389 0.950 . S
C400 C398 1.391 . S
C400 C401 1.400 . S
C401 C395 1.491 . S
C401 C400 1.400 . S
C401 C402 1.398 . S
C402 H390 0.950 . S
C402 C401 1.398 . S
C402 C403 1.391 . S
C403 H391 0.950 . S
C403 C399 1.393 . S
C403 C402 1.391 . S
H404 C412 0.950 . S
H405 C417 0.950 . S
H406 C414 0.950 . S
H407 C416 0.950 . S
H408 C418 0.950 . S
H409 C420 0.950 . S
H410 C422 0.950 . S
H411 C423 0.950 . S
C412 H404 0.950 . S
C412 C413 1.386 . S
C412 C414 1.391 . S
C413 C412 1.386 . S
C413 C417 1.393 . S
C414 H406 0.950 . S
C414 C412 1.391 . S
C414 C415 1.400 . S
C415 C414 1.400 . S
C415 C416 1.398 . S
C415 C421 1.491 . S
C416 H407 0.950 . S
C416 C415 1.398 . S
C416 C417 1.391 . S
C417 H405 0.950 . S
C417 C413 1.393 . S
C417 C416 1.391 . S
C418 H408 0.950 . S
C418 C419 1.386 . S
C418 C420 1.391 . S
C419 C418 1.386 . S
C419 C423 1.393 . S
C420 H409 0.950 . S
C420 C418 1.391 . S
C420 C421 1.400 . S
C421 C415 1.491 . S
C421 C420 1.400 . S
C421 C422 1.398 . S
C422 H410 0.950 . S
C422 C421 1.398 . S
C422 C423 1.391 . S
C423 H411 0.950 . S
C423 C419 1.393 . S
C423 C422 1.391 . S
H424 C432 0.950 . S
H425 C437 0.950 . S
H426 C434 0.950 . S
H427 C436 0.950 . S
H428 C438 0.950 . S
H429 C440 0.950 . S
H430 C442 0.950 . S
H431 C443 0.950 . S
C432 H424 0.950 . S
C432 C433 1.386 . S
C432 C434 1.391 . S
C433 C432 1.386 . S
C433 C437 1.393 . S
C434 H426 0.950 . S
C434 C432 1.391 . S
C434 C435 1.400 . S
C435 C434 1.400 . S
C435 C436 1.398 . S
C435 C441 1.491 . S
C436 H427 0.950 . S
C436 C435 1.398 . S
C436 C437 1.391 . S
C437 H425 0.950 . S
C437 C433 1.393 . S
C437 C436 1.391 . S
C438 H428 0.950 . S
C438 C439 1.386 . S
C438 C440 1.391 . S
C439 C438 1.386 . S
C439 C443 1.393 . S
C440 H429 0.950 . S
C440 C438 1.391 . S
C440 C441 1.400 . S
C441 C435 1.491 . S
C441 C440 1.400 . S
C441 C442 1.398 . S
C442 H430 0.950 . S
C442 C441 1.398 . S
C442 C443 1.391 . S
C443 H431 0.950 . S
C443 C439 1.393 . S
C443 C442 1.391 . S
H444 C452 0.950 . S
H445 C457 0.950 . S
H446 C454 0.950 . S
H447 C456 0.950 . S
H448 C458 0.950 . S
H449 C460 0.950 . S
H450 C462 0.950 . S
H451 C463 0.950 . S
C452 H444 0.950 . S
C452 C453 1.386 . S
C452 C454 1.391 . S
C453 C452 1.386 . S
C453 C457 1.393 . S
C454 H446 0.950 . S
C454 C452 1.391 . S
C454 C455 1.400 . S
C455 C454 1.400 . S
C455 C456 1.398 . S
C455 C461 1.491 . S
C456 H447 0.950 . S
C456 C455 1.398 . S
C456 C457 1.391 . S
C457 H445 0.950 . S
C457 C453 1.393 . S
C457 C456 1.391 . S
C458 H448 0.950 . S
C458 C459 1.386 . S
C458 C460 1.391 . S
C459 C458 1.386 . S
C459 C463 1.393 . S
C460 H449 0.950 . S
C460 C458 1.391 . S
C460 C461 1.400 . S
C461 C455 1.491 . S
C461 C460 1.400 . S
C461 C462 1.398 . S
C462 H450 0.950 . S
C462 C461 1.398 . S
C462 C463 1.391 . S
C463 H451 0.950 . S
C463 C459 1.393 . S
C463 C462 1.391 . S
H464 C472 0.950 . S
H465 C477 0.950 . S
H466 C474 0.950 . S
H467 C476 0.950 . S
H468 C478 0.950 . S
H469 C480 0.950 . S
H470 C482 0.950 . S
H471 C483 0.950 . S
C472 H464 0.950 . S
C472 C473 1.386 . S
C472 C474 1.391 . S
C473 C472 1.386 . S
C473 C477 1.393 . S
C474 H466 0.950 . S
C474 C472 1.391 . S
C474 C475 1.400 . S
C475 C474 1.400 . S
C475 C476 1.398 . S
C475 C481 1.491 . S
C476 H467 0.950 . S
C476 C475 1.398 . S
C476 C477 1.391 . S
C477 H465 0.950 . S
C477 C473 1.393 . S
C477 C476 1.391 . S
C478 H468 0.950 . S
C478 C479 1.386 . S
C478 C480 1.391 . S
C479 C478 1.386 . S
C479 C483 1.393 . S
C480 H469 0.950 . S
C480 C478 1.391 . S
C480 C481 1.400 . S
C481 C475 1.491 . S
C481 C480 1.400 . S
C481 C482 1.398 . S
C482 H470 0.950 . S
C482 C481 1.398 . S
C482 C483 1.391 . S
C483 H471 0.950 . S
C483 C479 1.393 . S
C483 C482 1.391 . S
H484 C492 0.950 . S
H485 C497 0.950 . S
H486 C494 0.950 . S
H487 C496 0.950 . S
H488 C498 0.950 . S
H489 C500 0.950 . S
H490 C502 0.950 . S
H491 C503 0.950 . S
C492 H484 0.950 . S
C492 C493 1.386 . S
C492 C494 1.391 . S
C493 C492 1.386 . S
C493 C497 1.393 . S
C494 H486 0.950 . S
C494 C492 1.391 . S
C494 C495 1.400 . S
C495 C494 1.400 . S
C495 C496 1.398 . S
C495 C501 1.491 . S
C496 H487 0.950 . S
C496 C495 1.398 . S
C496 C497 1.391 . S
C497 H485 0.950 . S
C497 C493 1.393 . S
C497 C496 1.391 . S
C498 H488 0.950 . S
C498 C499 1.386 . S
C498 C500 1.391 . S
C499 C498 1.386 . S
C499 C503 1.393 . S
C500 H489 0.950 . S
C500 C498 1.391 . S
C500 C501 1.400 . S
C501 C495 1.491 . S
C501 C500 1.400 . S
C501 C502 1.398 . S
C502 H490 0.950 . S
C502 C501 1.398 . S
C502 C503 1.391 . S
C503 H491 0.950 . S
C503 C499 1.393 . S
C503 C502 1.391 . S
H504 C512 0.950 . S
H505 C517 0.950 . S
H506 C514 0.950 . S
H507 C516 0.950 . S
H508 C518 0.950 . S
H509 C520 0.950 . S
H510 C522 0.950 . S
H511 C523 0.950 . S
C512 H504 0.950 . S
C512 C513 1.386 . S
C512 C514 1.391 . S
C513 C512 1.386 . S
C513 C517 1.393 . S
C514 H506 0.950 . S
C514 C512 1.391 . S
C514 C515 1.400 . S
C515 C514 1.400 . S
C515 C516 1.398 . S
C515 C521 1.491 . S
C516 H507 0.950 . S
C516 C515 1.398 . S
C516 C517 1.391 . S
C517 H505 0.950 . S
C517 C513 1.393 . S
C517 C516 1.391 . S
C518 H508 0.950 . S
C518 C519 1.386 . S
C518 C520 1.391 . S
C519 C518 1.386 . S
C519 C523 1.393 . S
C520 H509 0.950 . S
C520 C518 1.391 . S
C520 C521 1.400 . S
C521 C515 1.491 . S
C521 C520 1.400 . S
C521 C522 1.398 . S
C522 H510 0.950 . S
C522 C521 1.398 . S
C522 C523 1.391 . S
C523 H511 0.950 . S
C523 C519 1.393 . S
C523 C522 1.391 . S
H524 C532 0.950 . S
H525 C537 0.950 . S
H526 C534 0.950 . S
H527 C536 0.950 . S
H528 C538 0.950 . S
H529 C540 0.950 . S
H530 C542 0.950 . S
H531 C543 0.950 . S
C532 H524 0.950 . S
C532 C533 1.386 . S
C532 C534 1.391 . S
C533 C532 1.386 . S
C533 C537 1.393 . S
C534 H526 0.950 . S
C534 C532 1.391 . S
C534 C535 1.400 . S
C535 C534 1.400 . S
C535 C536 1.398 . S
C535 C541 1.491 . S
C536 H527 0.950 . S
C536 C535 1.398 . S
C536 C537 1.391 . S
C537 H525 0.950 . S
C537 C533 1.393 . S
C537 C536 1.391 . S
C538 H528 0.950 . S
C538 C539 1.386 . S
C538 C540 1.391 . S
C539 C538 1.386 . S
C539 C543 1.393 . S
C540 H529 0.950 . S
C540 C538 1.391 . S
C540 C541 1.400 . S
C541 C535 1.491 . S
C541 C540 1.400 . S
C541 C542 1.398 . S
C542 H530 0.950 . S
C542 C541 1.398 . S
C542 C543 1.391 . S
C543 H531 0.950 . S
C543 C539 1.393 . S
C543 C542 1.391 . S
H544 C552 0.950 . S
H545 C557 0.950 . S
H546 C554 0.950 . S
H547 C556 0.950 . S
H548 C558 0.950 . S
H549 C560 0.950 . S
H550 C562 0.950 . S
H551 C563 0.950 . S
C552 H544 0.950 . S
C552 C553 1.386 . S
C552 C554 1.391 . S
C553 C552 1.386 . S
C553 C557 1.393 . S
C554 H546 0.950 . S
C554 C552 1.391 . S
C554 C555 1.400 . S
C555 C554 1.400 . S
C555 C556 1.398 . S
C555 C561 1.491 1_556 S
C556 H547 0.950 . S
C556 C555 1.398 . S
C556 C557 1.391 . S
C557 H545 0.950 . S
C557 C553 1.393 . S
C557 C556 1.391 . S
C558 H548 0.950 . S
C558 C559 1.386 . S
C558 C560 1.391 . S
C559 C558 1.386 . S
C559 C563 1.393 . S
C560 H549 0.950 . S
C560 C558 1.391 . S
C560 C561 1.400 . S
C561 C555 1.491 1_554 S
C561 C560 1.400 . S
C561 C562 1.398 . S
C562 H550 0.950 . S
C562 C561 1.398 . S
C562 C563 1.391 . S
C563 H551 0.950 . S
C563 C559 1.393 . S
C563 C562 1.391 . S
H564 C572 0.950 . S
H565 C577 0.950 . S
H566 C574 0.950 . S
H567 C576 0.950 . S
H568 C578 0.950 . S
H569 C580 0.950 . S
H570 C582 0.950 . S
H571 C583 0.950 . S
C572 H564 0.950 . S
C572 C573 1.386 . S
C572 C574 1.391 . S
C573 C572 1.386 . S
C573 C577 1.393 . S
C574 H566 0.950 . S
C574 C572 1.391 . S
C574 C575 1.400 . S
C575 C574 1.400 . S
C575 C576 1.398 . S
C575 C581 1.491 . S
C576 H567 0.950 . S
C576 C575 1.398 . S
C576 C577 1.391 . S
C577 H565 0.950 . S
C577 C573 1.393 . S
C577 C576 1.391 . S
C578 H568 0.950 . S
C578 C579 1.386 . S
C578 C580 1.391 . S
C579 C578 1.386 . S
C579 C583 1.393 . S
C580 H569 0.950 . S
C580 C578 1.391 . S
C580 C581 1.400 . S
C581 C575 1.491 . S
C581 C580 1.400 . S
C581 C582 1.398 . S
C582 H570 0.950 . S
C582 C581 1.398 . S
C582 C583 1.391 . S
C583 H571 0.950 . S
C583 C579 1.393 . S
C583 C582 1.391 . S
H584 C592 0.950 . S
H585 C597 0.950 . S
H586 C594 0.950 . S
H587 C596 0.950 . S
H588 C598 0.950 . S
H589 C600 0.950 . S
H590 C602 0.950 . S
H591 C603 0.950 . S
C592 H584 0.950 . S
C592 C593 1.386 . S
C592 C594 1.391 . S
C593 C592 1.386 . S
C593 C597 1.393 . S
C594 H586 0.950 . S
C594 C592 1.391 . S
C594 C595 1.400 . S
C595 C594 1.400 . S
C595 C596 1.398 . S
C595 C601 1.491 1_554 S
C596 H587 0.950 . S
C596 C595 1.398 . S
C596 C597 1.391 . S
C597 H585 0.950 . S
C597 C593 1.393 . S
C597 C596 1.391 . S
C598 H588 0.950 . S
C598 C599 1.386 . S
C598 C600 1.391 . S
C599 C598 1.386 . S
C599 C603 1.393 . S
C600 H589 0.950 . S
C600 C598 1.391 . S
C600 C601 1.400 . S
C601 C595 1.491 1_556 S
C601 C600 1.400 . S
C601 C602 1.398 . S
C602 H590 0.950 . S
C602 C601 1.398 . S
C602 C603 1.391 . S
C603 H591 0.950 . S
C603 C599 1.393 . S
C603 C602 1.391 . S
H604 C612 0.950 . S
H605 C617 0.950 . S
H606 C614 0.950 . S
H607 C616 0.950 . S
H608 C618 0.950 . S
H609 C620 0.950 . S
H610 C622 0.950 . S
H611 C623 0.950 . S
C612 H604 0.950 . S
C612 C613 1.386 . S
C612 C614 1.391 . S
C613 C612 1.386 . S
C613 C617 1.393 . S
C614 H606 0.950 . S
C614 C612 1.391 . S
C614 C615 1.400 . S
C615 C614 1.400 . S
C615 C616 1.398 . S
C615 C621 1.491 . S
C616 H607 0.950 . S
C616 C615 1.398 . S
C616 C617 1.391 . S
C617 H605 0.950 . S
C617 C613 1.393 . S
C617 C616 1.391 . S
C618 H608 0.950 . S
C618 C619 1.386 . S
C618 C620 1.391 . S
C619 C618 1.386 . S
C619 C623 1.393 . S
C620 H609 0.950 . S
C620 C618 1.391 . S
C620 C621 1.400 . S
C621 C615 1.491 . S
C621 C620 1.400 . S
C621 C622 1.398 . S
C622 H610 0.950 . S
C622 C621 1.398 . S
C622 C623 1.391 . S
C623 H611 0.950 . S
C623 C619 1.393 . S
C623 C622 1.391 . S
H624 C632 0.950 . S
H625 C637 0.950 . S
H626 C634 0.950 . S
H627 C636 0.950 . S
H628 C638 0.950 . S
H629 C640 0.950 . S
H630 C642 0.950 . S
H631 C643 0.950 . S
C632 H624 0.950 . S
C632 C633 1.386 . S
C632 C634 1.391 . S
C633 C632 1.386 . S
C633 C637 1.393 . S
C634 H626 0.950 . S
C634 C632 1.391 . S
C634 C635 1.400 . S
C635 C634 1.400 . S
C635 C636 1.398 . S
C635 C641 1.491 . S
C636 H627 0.950 . S
C636 C635 1.398 . S
C636 C637 1.391 . S
C637 H625 0.950 . S
C637 C633 1.393 . S
C637 C636 1.391 . S
C638 H628 0.950 . S
C638 C639 1.386 . S
C638 C640 1.391 . S
C639 C638 1.386 . S
C639 C643 1.393 . S
C640 H629 0.950 . S
C640 C638 1.391 . S
C640 C641 1.400 . S
C641 C635 1.491 . S
C641 C640 1.400 . S
C641 C642 1.398 . S
C642 H630 0.950 . S
C642 C641 1.398 . S
C642 C643 1.391 . S
C643 H631 0.950 . S
C643 C639 1.393 . S
C643 C642 1.391 . S
H644 C652 0.950 . S
H645 C657 0.950 . S
H646 C654 0.950 . S
H647 C656 0.950 . S
H648 C658 0.950 . S
H649 C660 0.950 . S
H650 C662 0.950 . S
H651 C663 0.950 . S
C652 H644 0.950 . S
C652 C653 1.386 . S
C652 C654 1.391 . S
C653 C652 1.386 . S
C653 C657 1.393 . S
C654 H646 0.950 . S
C654 C652 1.391 . S
C654 C655 1.400 . S
C655 C654 1.400 . S
C655 C656 1.398 . S
C655 C661 1.491 1_556 S
C656 H647 0.950 . S
C656 C655 1.398 . S
C656 C657 1.391 . S
C657 H645 0.950 . S
C657 C653 1.393 . S
C657 C656 1.391 . S
C658 H648 0.950 . S
C658 C659 1.386 . S
C658 C660 1.391 . S
C659 C658 1.386 . S
C659 C663 1.393 . S
C660 H649 0.950 . S
C660 C658 1.391 . S
C660 C661 1.400 . S
C661 C655 1.491 1_554 S
C661 C660 1.400 . S
C661 C662 1.398 . S
C662 H650 0.950 . S
C662 C661 1.398 . S
C662 C663 1.391 . S
C663 H651 0.950 . S
C663 C659 1.393 . S
C663 C662 1.391 . S
H664 C672 0.950 . S
H665 C677 0.950 . S
H666 C674 0.950 . S
H667 C676 0.950 . S
H668 C678 0.950 . S
H669 C680 0.950 . S
H670 C682 0.950 . S
H671 C683 0.950 . S
C672 H664 0.950 . S
C672 C673 1.386 . S
C672 C674 1.391 . S
C673 C672 1.386 . S
C673 C677 1.393 . S
C674 H666 0.950 . S
C674 C672 1.391 . S
C674 C675 1.400 . S
C675 C674 1.400 . S
C675 C676 1.398 . S
C675 C681 1.491 . S
C676 H667 0.950 . S
C676 C675 1.398 . S
C676 C677 1.391 . S
C677 H665 0.950 . S
C677 C673 1.393 . S
C677 C676 1.391 . S
C678 H668 0.950 . S
C678 C679 1.386 . S
C678 C680 1.391 . S
C679 C678 1.386 . S
C679 C683 1.393 . S
C680 H669 0.950 . S
C680 C678 1.391 . S
C680 C681 1.400 . S
C681 C675 1.491 . S
C681 C680 1.400 . S
C681 C682 1.398 . S
C682 H670 0.950 . S
C682 C681 1.398 . S
C682 C683 1.391 . S
C683 H671 0.950 . S
C683 C679 1.393 . S
C683 C682 1.391 . S
H684 C692 0.950 . S
H685 C697 0.950 . S
H686 C694 0.950 . S
H687 C696 0.950 . S
H688 C698 0.950 . S
H689 C700 0.950 . S
H690 C702 0.950 . S
H691 C703 0.950 . S
C692 H684 0.950 . S
C692 C693 1.386 . S
C692 C694 1.391 . S
C693 C692 1.386 . S
C693 C697 1.393 . S
C694 H686 0.950 . S
C694 C692 1.391 . S
C694 C695 1.400 . S
C695 C694 1.400 . S
C695 C696 1.398 . S
C695 C701 1.491 1_554 S
C696 H687 0.950 . S
C696 C695 1.398 . S
C696 C697 1.391 . S
C697 H685 0.950 . S
C697 C693 1.393 . S
C697 C696 1.391 . S
C698 H688 0.950 . S
C698 C699 1.386 . S
C698 C700 1.391 . S
C699 C698 1.386 . S
C699 C703 1.393 . S
C700 H689 0.950 . S
C700 C698 1.391 . S
C700 C701 1.400 . S
C701 C695 1.491 1_556 S
C701 C700 1.400 . S
C701 C702 1.398 . S
C702 H690 0.950 . S
C702 C701 1.398 . S
C702 C703 1.391 . S
C703 H691 0.950 . S
C703 C699 1.393 . S
C703 C702 1.391 . S
H704 C712 0.950 . S
H705 C717 0.950 . S
H706 C714 0.950 . S
H707 C716 0.950 . S
H708 C718 0.950 . S
H709 C720 0.950 . S
H710 C722 0.950 . S
H711 C723 0.950 . S
C712 H704 0.950 . S
C712 C713 1.386 . S
C712 C714 1.391 . S
C713 C712 1.386 . S
C713 C717 1.393 . S
C714 H706 0.950 . S
C714 C712 1.391 . S
C714 C715 1.400 . S
C715 C714 1.400 . S
C715 C716 1.398 . S
C715 C721 1.491 . S
C716 H707 0.950 . S
C716 C715 1.398 . S
C716 C717 1.391 . S
C717 H705 0.950 . S
C717 C713 1.393 . S
C717 C716 1.391 . S
C718 H708 0.950 . S
C718 C719 1.386 . S
C718 C720 1.391 . S
C719 C718 1.386 . S
C719 C723 1.393 . S
C720 H709 0.950 . S
C720 C718 1.391 . S
C720 C721 1.400 . S
C721 C715 1.491 . S
C721 C720 1.400 . S
C721 C722 1.398 . S
C722 H710 0.950 . S
C722 C721 1.398 . S
C722 C723 1.391 . S
C723 H711 0.950 . S
C723 C719 1.393 . S
C723 C722 1.391 . S
H724 C732 0.950 . S
H725 C737 0.950 . S
H726 C734 0.950 . S
H727 C736 0.950 . S
H728 C738 0.950 . S
H729 C740 0.950 . S
H730 C742 0.950 . S
H731 C743 0.950 . S
C732 H724 0.950 . S
C732 C733 1.386 . S
C732 C734 1.391 . S
C733 C732 1.386 . S
C733 C737 1.393 . S
C734 H726 0.950 . S
C734 C732 1.391 . S
C734 C735 1.400 . S
C735 C734 1.400 . S
C735 C736 1.398 . S
C735 C741 1.491 . S
C736 H727 0.950 . S
C736 C735 1.398 . S
C736 C737 1.391 . S
C737 H725 0.950 . S
C737 C733 1.393 . S
C737 C736 1.391 . S
C738 H728 0.950 . S
C738 C739 1.386 . S
C738 C740 1.391 . S
C739 C738 1.386 . S
C739 C743 1.393 . S
C740 H729 0.950 . S
C740 C738 1.391 . S
C740 C741 1.400 . S
C741 C735 1.491 . S
C741 C740 1.400 . S
C741 C742 1.398 . S
C742 H730 0.950 . S
C742 C741 1.398 . S
C742 C743 1.391 . S
C743 H731 0.950 . S
C743 C739 1.393 . S
C743 C742 1.391 . S
H744 C752 0.950 . S
H745 C757 0.950 . S
H746 C754 0.950 . S
H747 C756 0.950 . S
H748 C758 0.950 . S
H749 C760 0.950 . S
H750 C762 0.950 . S
H751 C763 0.950 . S
C752 H744 0.950 . S
C752 C753 1.386 . S
C752 C754 1.391 . S
C753 C752 1.386 . S
C753 C757 1.393 . S
C754 H746 0.950 . S
C754 C752 1.391 . S
C754 C755 1.400 . S
C755 C754 1.400 . S
C755 C756 1.398 . S
C755 C761 1.491 . S
C756 H747 0.950 . S
C756 C755 1.398 . S
C756 C757 1.391 . S
C757 H745 0.950 . S
C757 C753 1.393 . S
C757 C756 1.391 . S
C758 H748 0.950 . S
C758 C759 1.386 . S
C758 C760 1.391 . S
C759 C758 1.386 . S
C759 C763 1.393 . S
C760 H749 0.950 . S
C760 C758 1.391 . S
C760 C761 1.400 . S
C761 C755 1.491 . S
C761 C760 1.400 . S
C761 C762 1.398 . S
C762 H750 0.950 . S
C762 C761 1.398 . S
C762 C763 1.391 . S
C763 H751 0.950 . S
C763 C759 1.393 . S
C763 C762 1.391 . S
H764 C772 0.950 . S
H765 C777 0.950 . S
H766 C774 0.950 . S
H767 C776 0.950 . S
H768 C778 0.950 . S
H769 C780 0.950 . S
H770 C782 0.950 . S
H771 C783 0.950 . S
C772 H764 0.950 . S
C772 C773 1.386 . S
C772 C774 1.391 . S
C773 C772 1.386 . S
C773 C777 1.393 . S
C774 H766 0.950 . S
C774 C772 1.391 . S
C774 C775 1.400 . S
C775 C774 1.400 . S
C775 C776 1.398 . S
C775 C781 1.491 . S
C776 H767 0.950 . S
C776 C775 1.398 . S
C776 C777 1.391 . S
C777 H765 0.950 . S
C777 C773 1.393 . S
C777 C776 1.391 . S
C778 H768 0.950 . S
C778 C779 1.386 . S
C778 C780 1.391 . S
C779 C778 1.386 . S
C779 C783 1.393 . S
C780 H769 0.950 . S
C780 C778 1.391 . S
C780 C781 1.400 . S
C781 C775 1.491 . S
C781 C780 1.400 . S
C781 C782 1.398 . S
C782 H770 0.950 . S
C782 C781 1.398 . S
C782 C783 1.391 . S
C783 H771 0.950 . S
C783 C779 1.393 . S
C783 C782 1.391 . S
H784 C792 0.950 . S
H785 C797 0.950 . S
H786 C794 0.950 . S
H787 C796 0.950 . S
H788 C798 0.950 . S
H789 C800 0.950 . S
H790 C802 0.950 . S
H791 C803 0.950 . S
C792 H784 0.950 . S
C792 C793 1.386 . S
C792 C794 1.391 . S
C793 C792 1.386 . S
C793 C797 1.393 . S
C794 H786 0.950 . S
C794 C792 1.391 . S
C794 C795 1.400 . S
C795 C794 1.400 . S
C795 C796 1.398 . S
C795 C801 1.491 . S
C796 H787 0.950 . S
C796 C795 1.398 . S
C796 C797 1.391 . S
C797 H785 0.950 . S
C797 C793 1.393 . S
C797 C796 1.391 . S
C798 H788 0.950 . S
C798 C799 1.386 . S
C798 C800 1.391 . S
C799 C798 1.386 . S
C799 C803 1.393 . S
C800 H789 0.950 . S
C800 C798 1.391 . S
C800 C801 1.400 . S
C801 C795 1.491 . S
C801 C800 1.400 . S
C801 C802 1.398 . S
C802 H790 0.950 . S
C802 C801 1.398 . S
C802 C803 1.391 . S
C803 H791 0.950 . S
C803 C799 1.393 . S
C803 C802 1.391 . S
H804 C812 0.950 . S
H805 C817 0.950 . S
H806 C814 0.950 . S
H807 C816 0.950 . S
H808 C818 0.950 . S
H809 C820 0.950 . S
H810 C822 0.950 . S
H811 C823 0.950 . S
C812 H804 0.950 . S
C812 C813 1.386 . S
C812 C814 1.391 . S
C813 C812 1.386 . S
C813 C817 1.393 . S
C814 H806 0.950 . S
C814 C812 1.391 . S
C814 C815 1.400 . S
C815 C814 1.400 . S
C815 C816 1.398 . S
C815 C821 1.491 . S
C816 H807 0.950 . S
C816 C815 1.398 . S
C816 C817 1.391 . S
C817 H805 0.950 . S
C817 C813 1.393 . S
C817 C816 1.391 . S
C818 H808 0.950 . S
C818 C819 1.386 . S
C818 C820 1.391 . S
C819 C818 1.386 . S
C819 C823 1.393 . S
C820 H809 0.950 . S
C820 C818 1.391 . S
C820 C821 1.400 . S
C821 C815 1.491 . S
C821 C820 1.400 . S
C821 C822 1.398 . S
C822 H810 0.950 . S
C822 C821 1.398 . S
C822 C823 1.391 . S
C823 H811 0.950 . S
C823 C819 1.393 . S
C823 C822 1.391 . S
H824 C832 0.950 . S
H825 C837 0.950 . S
H826 C834 0.950 . S
H827 C836 0.950 . S
H828 C838 0.950 . S
H829 C840 0.950 . S
H830 C842 0.950 . S
H831 C843 0.950 . S
C832 H824 0.950 . S
C832 C833 1.386 . S
C832 C834 1.391 . S
C833 C832 1.386 . S
C833 C837 1.393 . S
C834 H826 0.950 . S
C834 C832 1.391 . S
C834 C835 1.400 . S
C835 C834 1.400 . S
C835 C836 1.398 . S
C835 C841 1.491 . S
C836 H827 0.950 . S
C836 C835 1.398 . S
C836 C837 1.391 . S
C837 H825 0.950 . S
C837 C833 1.393 . S
C837 C836 1.391 . S
C838 H828 0.950 . S
C838 C839 1.386 . S
C838 C840 1.391 . S
C839 C838 1.386 . S
C839 C843 1.393 . S
C840 H829 0.950 . S
C840 C838 1.391 . S
C840 C841 1.400 . S
C841 C835 1.491 . S
C841 C840 1.400 . S
C841 C842 1.398 . S
C842 H830 0.950 . S
C842 C841 1.398 . S
C842 C843 1.391 . S
C843 H831 0.950 . S
C843 C839 1.393 . S
C843 C842 1.391 . S
H844 C852 0.950 . S
H845 C857 0.950 . S
H846 C854 0.950 . S
H847 C856 0.950 . S
H848 C858 0.950 . S
H849 C860 0.950 . S
H850 C862 0.950 . S
H851 C863 0.950 . S
C852 H844 0.950 . S
C852 C853 1.386 . S
C852 C854 1.391 . S
C853 C852 1.386 . S
C853 C857 1.393 . S
C854 H846 0.950 . S
C854 C852 1.391 . S
C854 C855 1.400 . S
C855 C854 1.400 . S
C855 C856 1.398 . S
C855 C861 1.491 . S
C856 H847 0.950 . S
C856 C855 1.398 . S
C856 C857 1.391 . S
C857 H845 0.950 . S
C857 C853 1.393 . S
C857 C856 1.391 . S
C858 H848 0.950 . S
C858 C859 1.386 . S
C858 C860 1.391 . S
C859 C858 1.386 . S
C859 C863 1.393 . S
C860 H849 0.950 . S
C860 C858 1.391 . S
C860 C861 1.400 . S
C861 C855 1.491 . S
C861 C860 1.400 . S
C861 C862 1.398 . S
C862 H850 0.950 . S
C862 C861 1.398 . S
C862 C863 1.391 . S
C863 H851 0.950 . S
C863 C859 1.393 . S
C863 C862 1.391 . S
C233 C9 1.268 . S
C239 C37 1.258 . S
C253 C51 1.238 . S
C259 C23 1.239 . S
C273 C65 1.240 . S
C279 C93 1.246 . S
C293 C107 1.275 . S
C299 C79 1.273 . S
C313 C121 1.273 . S
C319 C149 1.267 . S
C333 C163 1.248 . S
C339 C135 1.258 . S
C353 C177 1.246 . S
C359 C205 1.239 . S
C373 C219 1.268 . S
C379 C191 1.259 . S
C393 C63 1.430 . S
C399 C7 1.426 . S
C413 C21 1.429 . S
C419 C77 1.427 . S
C433 C35 1.430 . S
C439 C91 1.427 . S
C453 C105 1.431 . S
C459 C49 1.425 . S
C473 C119 1.429 . S
C479 C175 1.428 . S
C493 C133 1.425 . S
C499 C189 1.431 . S
C513 C147 1.431 . S
C519 C203 1.426 . S
C533 C161 1.431 . S
C539 C217 1.425 . S
C553 C148 1.180 . S
C559 C8 1.178 . S
C573 C162 1.196 . S
C579 C22 1.163 . S
C593 C36 1.173 . S
C599 C120 1.185 . S
C613 C50 1.181 . S
C619 C134 1.177 . S
C633 C64 1.163 . S
C639 C204 1.196 . S
C653 C78 1.189 . S
C659 C218 1.169 . S
C673 C92 1.183 . S
C679 C176 1.176 . S
C693 C190 1.178 . S
C699 C106 1.180 . S
C713 C6 1.410 . S
C719 C216 1.421 . S
C733 C174 1.421 . S
C739 C20 1.410 . S
C753 C34 1.415 . S
C759 C188 1.416 . S
C773 C202 1.410 . S
C779 C48 1.421 . S
C793 C132 1.410 . S
C799 C62 1.421 . S
C813 C76 1.418 . S
C819 C146 1.413 . S
C833 C160 1.421 . S
C839 C90 1.410 . S
C853 C118 1.414 . S
C859 C104 1.417 . S
