# Generated by pormake.
# Topology umk, (4)-cn, num edge types: 1
# Building blocks:
#     Node 0, Type 0, BuildingBlock: TATPOV_clean_sbu_0, # of connection points: 4
#     Node 1, Type 0, BuildingBlock: TATPOV_clean_sbu_0, # of connection points: 4
#     Node 2, Type 0, BuildingBlock: TATPOV_clean_sbu_0, # of connection points: 4
#     Node 3, Type 0, BuildingBlock: TATPOV_clean_sbu_0, # of connection points: 4
#     Node 4, Type 0, BuildingBlock: TATPOV_clean_sbu_0, # of connection points: 4
#     Node 5, Type 0, BuildingBlock: TATPOV_clean_sbu_0, # of connection points: 4
#     Node 6, Type 0, BuildingBlock: TATPOV_clean_sbu_0, # of connection points: 4
#     Node 7, Type 0, BuildingBlock: TATPOV_clean_sbu_0, # of connection points: 4
#     Node 8, Type 0, BuildingBlock: TATPOV_clean_sbu_0, # of connection points: 4
#     Node 9, Type 0, BuildingBlock: TATPOV_clean_sbu_0, # of connection points: 4
#     Node 10, Type 0, BuildingBlock: TATPOV_clean_sbu_0, # of connection points: 4
#     Node 11, Type 0, BuildingBlock: TATPOV_clean_sbu_0, # of connection points: 4
#     Node 12, Type 0, BuildingBlock: TATPOV_clean_sbu_0, # of connection points: 4
#     Node 13, Type 0, BuildingBlock: TATPOV_clean_sbu_0, # of connection points: 4
#     Node 14, Type 0, BuildingBlock: TATPOV_clean_sbu_0, # of connection points: 4
#     Node 15, Type 0, BuildingBlock: TATPOV_clean_sbu_0, # of connection points: 4
#     Node 16, Type 0, BuildingBlock: TATPOV_clean_sbu_0, # of connection points: 4
#     Node 17, Type 0, BuildingBlock: TATPOV_clean_sbu_0, # of connection points: 4
#     Node 18, Type 0, BuildingBlock: TATPOV_clean_sbu_0, # of connection points: 4
#     Node 19, Type 0, BuildingBlock: TATPOV_clean_sbu_0, # of connection points: 4
#     Node 20, Type 0, BuildingBlock: TATPOV_clean_sbu_0, # of connection points: 4
#     Node 21, Type 0, BuildingBlock: TATPOV_clean_sbu_0, # of connection points: 4
#     Node 22, Type 0, BuildingBlock: TATPOV_clean_sbu_0, # of connection points: 4
#     Node 23, Type 0, BuildingBlock: TATPOV_clean_sbu_0, # of connection points: 4
#     Edge 24, Type (0, 0), BuildingBlock: MIFKUJ_clean_linker_0, # of connection points: 2
#     Edge 25, Type (0, 0), BuildingBlock: MIFKUJ_clean_linker_0, # of connection points: 2
#     Edge 26, Type (0, 0), BuildingBlock: MIFKUJ_clean_linker_0, # of connection points: 2
#     Edge 27, Type (0, 0), BuildingBlock: MIFKUJ_clean_linker_0, # of connection points: 2
#     Edge 28, Type (0, 0), BuildingBlock: MIFKUJ_clean_linker_0, # of connection points: 2
#     Edge 29, Type (0, 0), BuildingBlock: MIFKUJ_clean_linker_0, # of connection points: 2
#     Edge 30, Type (0, 0), BuildingBlock: MIFKUJ_clean_linker_0, # of connection points: 2
#     Edge 31, Type (0, 0), BuildingBlock: MIFKUJ_clean_linker_0, # of connection points: 2
#     Edge 32, Type (0, 0), BuildingBlock: MIFKUJ_clean_linker_0, # of connection points: 2
#     Edge 33, Type (0, 0), BuildingBlock: MIFKUJ_clean_linker_0, # of connection points: 2
#     Edge 34, Type (0, 0), BuildingBlock: MIFKUJ_clean_linker_0, # of connection points: 2
#     Edge 35, Type (0, 0), BuildingBlock: MIFKUJ_clean_linker_0, # of connection points: 2
#     Edge 36, Type (0, 0), BuildingBlock: MIFKUJ_clean_linker_0, # of connection points: 2
#     Edge 37, Type (0, 0), BuildingBlock: MIFKUJ_clean_linker_0, # of connection points: 2
#     Edge 38, Type (0, 0), BuildingBlock: MIFKUJ_clean_linker_0, # of connection points: 2
#     Edge 39, Type (0, 0), BuildingBlock: MIFKUJ_clean_linker_0, # of connection points: 2
#     Edge 40, Type (0, 0), BuildingBlock: MIFKUJ_clean_linker_0, # of connection points: 2
#     Edge 41, Type (0, 0), BuildingBlock: MIFKUJ_clean_linker_0, # of connection points: 2
#     Edge 42, Type (0, 0), BuildingBlock: MIFKUJ_clean_linker_0, # of connection points: 2
#     Edge 43, Type (0, 0), BuildingBlock: MIFKUJ_clean_linker_0, # of connection points: 2
#     Edge 44, Type (0, 0), BuildingBlock: MIFKUJ_clean_linker_0, # of connection points: 2
#     Edge 45, Type (0, 0), BuildingBlock: MIFKUJ_clean_linker_0, # of connection points: 2
#     Edge 46, Type (0, 0), BuildingBlock: MIFKUJ_clean_linker_0, # of connection points: 2
#     Edge 47, Type (0, 0), BuildingBlock: MIFKUJ_clean_linker_0, # of connection points: 2
#     Edge 48, Type (0, 0), BuildingBlock: MIFKUJ_clean_linker_0, # of connection points: 2
#     Edge 49, Type (0, 0), BuildingBlock: MIFKUJ_clean_linker_0, # of connection points: 2
#     Edge 50, Type (0, 0), BuildingBlock: MIFKUJ_clean_linker_0, # of connection points: 2
#     Edge 51, Type (0, 0), BuildingBlock: MIFKUJ_clean_linker_0, # of connection points: 2
#     Edge 52, Type (0, 0), BuildingBlock: MIFKUJ_clean_linker_0, # of connection points: 2
#     Edge 53, Type (0, 0), BuildingBlock: MIFKUJ_clean_linker_0, # of connection points: 2
#     Edge 54, Type (0, 0), BuildingBlock: MIFKUJ_clean_linker_0, # of connection points: 2
#     Edge 55, Type (0, 0), BuildingBlock: MIFKUJ_clean_linker_0, # of connection points: 2
#     Edge 56, Type (0, 0), BuildingBlock: MIFKUJ_clean_linker_0, # of connection points: 2
#     Edge 57, Type (0, 0), BuildingBlock: MIFKUJ_clean_linker_0, # of connection points: 2
#     Edge 58, Type (0, 0), BuildingBlock: MIFKUJ_clean_linker_0, # of connection points: 2
#     Edge 59, Type (0, 0), BuildingBlock: MIFKUJ_clean_linker_0, # of connection points: 2
#     Edge 60, Type (0, 0), BuildingBlock: MIFKUJ_clean_linker_0, # of connection points: 2
#     Edge 61, Type (0, 0), BuildingBlock: MIFKUJ_clean_linker_0, # of connection points: 2
#     Edge 62, Type (0, 0), BuildingBlock: MIFKUJ_clean_linker_0, # of connection points: 2
#     Edge 63, Type (0, 0), BuildingBlock: MIFKUJ_clean_linker_0, # of connection points: 2
#     Edge 64, Type (0, 0), BuildingBlock: MIFKUJ_clean_linker_0, # of connection points: 2
#     Edge 65, Type (0, 0), BuildingBlock: MIFKUJ_clean_linker_0, # of connection points: 2
#     Edge 66, Type (0, 0), BuildingBlock: MIFKUJ_clean_linker_0, # of connection points: 2
#     Edge 67, Type (0, 0), BuildingBlock: MIFKUJ_clean_linker_0, # of connection points: 2
#     Edge 68, Type (0, 0), BuildingBlock: MIFKUJ_clean_linker_0, # of connection points: 2
#     Edge 69, Type (0, 0), BuildingBlock: MIFKUJ_clean_linker_0, # of connection points: 2
#     Edge 70, Type (0, 0), BuildingBlock: MIFKUJ_clean_linker_0, # of connection points: 2
#     Edge 71, Type (0, 0), BuildingBlock: MIFKUJ_clean_linker_0, # of connection points: 2
# Relax obj value: 0.096
# Max RMSD: 0.112
# Mean RMSD: 0.112
data_MOF--net-umk--node1-TATPOV_clean_sbu_0--edge1-MIFKUJ_clean_linker_0
_symmetry_space_group_name_H-M    P1
_symmetry_Int_Tables_number       1
_symmetry_cell_setting            triclinic
loop_
_symmetry_equiv_pos_as_xyz
'x, y, z'
_cell_length_a     84.351247
_cell_length_b     84.299007
_cell_length_c     55.853892
_cell_angle_alpha  89.961729
_cell_angle_beta   90.012877
_cell_angle_gamma 120.03418
loop_
_atom_site_label
_atom_site_type_symbol
_atom_site_fract_x
_atom_site_fract_y
_atom_site_fract_z
_atom_type_partial_charge
Zn0 Zn 0.36349 0.47425 0.0967 0.0
Zn1 Zn 0.33235 0.46447 0.07413 0.0
O2 O 0.32393 0.459 0.1092 0.0
O3 O 0.34942 0.4649 0.1275 0.0
O4 O 0.30925 0.45812 0.05652 0.0
O5 O 0.37393 0.50048 0.08665 0.0
O6 O 0.34891 0.49182 0.06554 0.0
C7 C 0.33244 0.45938 0.12822 0.0
C8 C 0.35495 0.44642 0.06141 0.0
O9 O 0.34016 0.44693 0.05945 0.0
O10 O 0.36743 0.45726 0.07554 0.0
C11 C 0.29517 0.44223 0.05697 0.0
O12 O 0.29555 0.4292 0.06942 0.0
C13 C 0.36478 0.5043 0.07217 0.0
Zn14 Zn 0.88664 0.36027 0.60604 0.0
Zn15 Zn 0.8654 0.33311 0.57773 0.0
O16 O 0.85423 0.32412 0.61141 0.0
O17 O 0.86967 0.34864 0.63376 0.0
O18 O 0.84826 0.31186 0.55718 0.0
O19 O 0.88397 0.37811 0.58514 0.0
O20 O 0.86366 0.35496 0.56364 0.0
C21 C 0.85697 0.33219 0.63154 0.0
C22 C 0.90538 0.34358 0.58401 0.0
O23 O 0.89038 0.33468 0.57256 0.0
O24 O 0.90697 0.35479 0.60022 0.0
C25 C 0.84646 0.29619 0.56107 0.0
O26 O 0.85629 0.29443 0.57802 0.0
C27 C 0.87247 0.37209 0.5682 0.0
Zn28 Zn 0.53082 0.88664 0.11702 0.0
Zn29 Zn 0.53894 0.86792 0.08528 0.0
O30 O 0.54004 0.85681 0.11775 0.0
O31 O 0.53119 0.87066 0.14342 0.0
O32 O 0.54324 0.85231 0.06217 0.0
O33 O 0.50688 0.87907 0.10035 0.0
O34 O 0.51371 0.86363 0.07462 0.0
C35 C 0.53607 0.859 0.13902 0.0
C36 C 0.56408 0.90907 0.08949 0.0
O37 O 0.55988 0.89404 0.07907 0.0
O38 O 0.55419 0.90937 0.10638 0.0
C39 C 0.55816 0.85206 0.06153 0.0
O40 O 0.57164 0.86295 0.0758 0.0
C41 C 0.50277 0.86883 0.08214 0.0
Zn42 Zn 0.63375 0.52696 0.60907 0.0
Zn43 Zn 0.66428 0.53625 0.58469 0.0
O44 O 0.67117 0.5345 0.6197 0.0
O45 O 0.64517 0.52435 0.63916 0.0
O46 O 0.68745 0.54247 0.56727 0.0
O47 O 0.61968 0.50517 0.5876 0.0
O48 O 0.64521 0.51219 0.56858 0.0
C49 C 0.66197 0.5291 0.63905 0.0
C50 C 0.64869 0.562 0.58547 0.0
O51 O 0.6603 0.5579 0.57742 0.0
O52 O 0.63641 0.55137 0.60001 0.0
C53 C 0.69169 0.55036 0.547 0.0
O54 O 0.6805 0.55483 0.53655 0.0
C55 C 0.62802 0.50169 0.57146 0.0
Zn56 Zn 0.11217 0.63034 0.09038 0.0
Zn57 Zn 0.13071 0.66336 0.07417 0.0
O58 O 0.13337 0.66716 0.11093 0.0
O59 O 0.11402 0.63942 0.12386 0.0
O60 O 0.14619 0.68876 0.06055 0.0
O61 O 0.13023 0.62338 0.07891 0.0
O62 O 0.14249 0.64924 0.05868 0.0
C63 C 0.12497 0.65618 0.12814 0.0
C64 C 0.09054 0.63965 0.06088 0.0
O65 O 0.1046 0.65558 0.06248 0.0
O66 O 0.09081 0.62595 0.06968 0.0
C67 C 0.16101 0.7004 0.07067 0.0
O68 O 0.16602 0.69586 0.0906 0.0
C69 C 0.14159 0.63403 0.06358 0.0
Zn70 Zn 0.47764 0.12297 0.60345 0.0
Zn71 Zn 0.45944 0.13513 0.57703 0.0
O72 O 0.46111 0.14641 0.61039 0.0
O73 O 0.4766 0.1369 0.63192 0.0
O74 O 0.44847 0.14701 0.55701 0.0
O75 O 0.49956 0.13503 0.58193 0.0
O76 O 0.48393 0.14371 0.55926 0.0
C77 C 0.4685 0.14606 0.63011 0.0
C78 C 0.44314 0.09415 0.58335 0.0
O79 O 0.44161 0.10736 0.57484 0.0
O80 O 0.45702 0.0974 0.5958 0.0
C81 C 0.43707 0.1514 0.56495 0.0
O82 O 0.43072 0.14666 0.58684 0.0
C83 C 0.49844 0.14301 0.56337 0.0
Zn84 Zn 0.52246 0.63241 0.89736 0.0
Zn85 Zn 0.53175 0.665 0.91559 0.0
O86 O 0.53376 0.66998 0.87933 0.0
O87 O 0.52653 0.64308 0.86426 0.0
O88 O 0.53737 0.68915 0.9296 0.0
O89 O 0.49765 0.62112 0.9123 0.0
O90 O 0.50554 0.64785 0.92846 0.0
C91 C 0.53126 0.65976 0.86128 0.0
C92 C 0.55379 0.64636 0.92835 0.0
O93 O 0.5517 0.66029 0.9296 0.0
O94 O 0.54291 0.63259 0.91598 0.0
C95 C 0.55336 0.70205 0.9347 0.0
O96 O 0.56753 0.69994 0.93061 0.0
C97 C 0.49383 0.63094 0.92548 0.0
Zn98 Zn 0.9073 0.55448 0.41176 0.0
Zn99 Zn 0.88012 0.55668 0.43266 0.0
O100 O 0.87534 0.55767 0.39679 0.0
O101 O 0.89931 0.55882 0.3795 0.0
O102 O 0.85938 0.55808 0.44804 0.0
O103 O 0.89707 0.52877 0.4242 0.0
O104 O 0.87608 0.5316 0.44403 0.0
C105 C 0.88439 0.55895 0.37795 0.0
C106 C 0.91987 0.58422 0.44519 0.0
O107 O 0.90294 0.57927 0.44649 0.0
O108 O 0.92518 0.57546 0.43225 0.0
C109 C 0.85446 0.56911 0.44021 0.0
O110 O 0.86326 0.57982 0.42202 0.0
C111 C 0.88366 0.52225 0.43855 0.0
Zn112 Zn 0.36097 0.87975 0.88765 0.0
Zn113 Zn 0.33228 0.86773 0.91715 0.0
O114 O 0.32115 0.85367 0.8855 0.0
O115 O 0.34521 0.862 0.86242 0.0
O116 O 0.31094 0.85645 0.93999 0.0
O117 O 0.37449 0.87237 0.91045 0.0
O118 O 0.35085 0.86258 0.93468 0.0
C119 C 0.32811 0.85255 0.86577 0.0
C120 C 0.35283 0.90793 0.90324 0.0
O121 O 0.3402 0.89506 0.91553 0.0
O122 O 0.36309 0.90472 0.88996 0.0
C123 C 0.29438 0.84997 0.93351 0.0
O124 O 0.29076 0.8516 0.91106 0.0
C125 C 0.36672 0.86504 0.93002 0.0
Zn126 Zn 0.47125 0.36153 0.37625 0.0
Zn127 Zn 0.46281 0.3331 0.4052 0.0
O128 O 0.46258 0.32323 0.37127 0.0
O129 O 0.47142 0.34718 0.34779 0.0
O130 O 0.45747 0.31121 0.42537 0.0
O131 O 0.49466 0.37685 0.39436 0.0
O132 O 0.48778 0.35338 0.41804 0.0
C133 C 0.46666 0.33048 0.35053 0.0
C134 C 0.43753 0.34919 0.4028 0.0
O135 O 0.44164 0.3379 0.41205 0.0
O136 O 0.44772 0.36034 0.38685 0.0
C137 C 0.44791 0.30619 0.44438 0.0
O138 O 0.4408 0.31589 0.45249 0.0
C139 C 0.49864 0.36995 0.41187 0.0
Zn140 Zn 0.11918 0.47685 0.87914 0.0
Zn141 Zn 0.13648 0.46397 0.90615 0.0
O142 O 0.14635 0.46458 0.87215 0.0
O143 O 0.13358 0.477 0.8505 0.0
O144 O 0.15149 0.45642 0.9258 0.0
O145 O 0.1292 0.4997 0.89916 0.0
O146 O 0.14357 0.48906 0.92097 0.0
C147 C 0.14428 0.47061 0.85217 0.0
C148 C 0.09492 0.44212 0.90263 0.0
O149 O 0.10966 0.44411 0.91173 0.0
O150 O 0.09548 0.45396 0.88809 0.0
C151 C 0.14713 0.44026 0.9322 0.0
O152 O 0.131 0.42647 0.92636 0.0
C153 C 0.13975 0.50159 0.91638 0.0
Zn154 Zn 0.63153 0.11179 0.39012 0.0
Zn155 Zn 0.66124 0.13231 0.41576 0.0
O156 O 0.67104 0.13732 0.38118 0.0
O157 O 0.64695 0.11769 0.36045 0.0
O158 O 0.6837 0.1496 0.43445 0.0
O159 O 0.62029 0.12702 0.39949 0.0
O160 O 0.64316 0.14112 0.42482 0.0
C161 C 0.66375 0.12976 0.36134 0.0
C162 C 0.63932 0.09112 0.4245 0.0
O163 O 0.65391 0.10641 0.42789 0.0
O164 O 0.62713 0.0901 0.4103 0.0
C165 C 0.69489 0.1456 0.44411 0.0
O166 O 0.69184 0.12874 0.44273 0.0
C167 C 0.62798 0.13841 0.41629 0.0
Zn168 Zn 0.63396 0.52882 0.9099 0.0
Zn169 Zn 0.66655 0.54213 0.93096 0.0
O170 O 0.67231 0.54132 0.89524 0.0
O171 O 0.64557 0.53115 0.87774 0.0
O172 O 0.69096 0.55129 0.94677 0.0
O173 O 0.62443 0.50512 0.92765 0.0
O174 O 0.65056 0.51689 0.94723 0.0
C175 C 0.66252 0.53662 0.87638 0.0
C176 C 0.64516 0.56225 0.93633 0.0
O177 O 0.6598 0.5617 0.9397 0.0
O178 O 0.63199 0.54965 0.92468 0.0
C179 C 0.70087 0.54455 0.94063 0.0
O180 O 0.69488 0.53182 0.92402 0.0
C181 C 0.63439 0.50367 0.94345 0.0
Zn182 Zn 0.0916 0.64091 0.41215 0.0
Zn183 Zn 0.12033 0.67034 0.42907 0.0
O184 O 0.12258 0.67524 0.39271 0.0
O185 O 0.09707 0.65191 0.37916 0.0
O186 O 0.1422 0.6927 0.44236 0.0
O187 O 0.1017 0.62504 0.42267 0.0
O188 O 0.12459 0.64915 0.4397 0.0
C189 C 0.11185 0.66675 0.37535 0.0
C190 C 0.08173 0.65938 0.44652 0.0
O191 O 0.09875 0.67114 0.44556 0.0
O192 O 0.07525 0.64474 0.43449 0.0
C193 C 0.14372 0.7084 0.44 0.0
O194 O 0.1309 0.70983 0.42848 0.0
C195 C 0.11615 0.63201 0.43515 0.0
Zn196 Zn 0.48344 0.12574 0.88115 0.0
Zn197 Zn 0.46677 0.1381 0.91001 0.0
O198 O 0.46841 0.15075 0.87773 0.0
O199 O 0.48401 0.1422 0.85481 0.0
O200 O 0.45605 0.14942 0.9313 0.0
O201 O 0.5049 0.13491 0.90354 0.0
O202 O 0.49111 0.14516 0.92712 0.0
C203 C 0.47602 0.15136 0.85779 0.0
C204 C 0.44798 0.09741 0.89898 0.0
O205 O 0.44812 0.11057 0.91038 0.0
O206 O 0.46121 0.10044 0.8853 0.0
C207 C 0.44133 0.14932 0.92611 0.0
O208 O 0.43221 0.14064 0.90681 0.0
C209 C 0.50474 0.14304 0.92249 0.0
Zn210 Zn 0.3606 0.47264 0.39998 0.0
Zn211 Zn 0.32847 0.45938 0.42138 0.0
O212 O 0.32178 0.45689 0.38561 0.0
O213 O 0.3481 0.46505 0.368 0.0
O214 O 0.304 0.45084 0.4368 0.0
O215 O 0.36901 0.49785 0.4129 0.0
O216 O 0.34383 0.48571 0.43451 0.0
C217 C 0.33105 0.45903 0.36668 0.0
C218 C 0.35205 0.44198 0.43077 0.0
O219 O 0.33667 0.4413 0.43265 0.0
O220 O 0.3649 0.45473 0.41887 0.0
C221 C 0.29765 0.4404 0.45494 0.0
O222 O 0.30745 0.43414 0.4652 0.0
C223 C 0.35923 0.49947 0.42879 0.0
Zn224 Zn 0.88918 0.36204 0.89392 0.0
Zn225 Zn 0.87056 0.3319 0.91909 0.0
O226 O 0.86366 0.32286 0.88425 0.0
O227 O 0.882 0.3475 0.86345 0.0
O228 O 0.85413 0.30923 0.93794 0.0
O229 O 0.87428 0.37287 0.90626 0.0
O230 O 0.86214 0.34963 0.93133 0.0
C231 C 0.87003 0.33066 0.86418 0.0
C232 C 0.91185 0.35418 0.92479 0.0
O233 O 0.89702 0.33919 0.92863 0.0
O234 O 0.9118 0.36643 0.91171 0.0
C235 C 0.85752 0.29685 0.94475 0.0
O236 O 0.87349 0.29844 0.93984 0.0
C237 C 0.86403 0.36479 0.92397 0.0
Zn238 Zn 0.52871 0.88544 0.38409 0.0
Zn239 Zn 0.53991 0.86888 0.41514 0.0
O240 O 0.54075 0.85772 0.38256 0.0
O241 O 0.52973 0.87 0.35754 0.0
O242 O 0.54698 0.85504 0.43779 0.0
O243 O 0.50501 0.87611 0.40207 0.0
O244 O 0.51429 0.8624 0.42737 0.0
C245 C 0.53577 0.85921 0.36155 0.0
C246 C 0.56208 0.91036 0.40949 0.0
O247 O 0.55945 0.89585 0.42008 0.0
O248 O 0.55119 0.90945 0.3932 0.0
C249 C 0.56286 0.85685 0.4379 0.0
O250 O 0.57545 0.86875 0.42335 0.0
C251 C 0.50218 0.8662 0.42039 0.0
Zn252 Zn 0.46621 0.35814 0.09706 0.0
Zn253 Zn 0.45741 0.32968 0.06922 0.0
O254 O 0.45226 0.31884 0.10331 0.0
O255 O 0.45579 0.34178 0.1258 0.0
O256 O 0.45171 0.30748 0.04961 0.0
O257 O 0.4929 0.36901 0.08872 0.0
O258 O 0.48457 0.34762 0.06118 0.0
C259 C 0.45147 0.32515 0.1237 0.0
C260 C 0.43951 0.35286 0.06113 0.0
O261 O 0.43979 0.33816 0.0569 0.0
O262 O 0.45016 0.3641 0.07664 0.0
C263 C 0.43612 0.29654 0.04065 0.0
O264 O 0.42264 0.29996 0.04318 0.0
C265 C 0.49694 0.36215 0.07124 0.0
Zn266 Zn 0.1053 0.46431 0.60148 0.0
Zn267 Zn 0.12406 0.45548 0.57184 0.0
O268 O 0.13661 0.45836 0.60457 0.0
O269 O 0.12307 0.46891 0.62808 0.0
O270 O 0.13911 0.44874 0.55097 0.0
O271 O 0.10951 0.48508 0.57978 0.0
O272 O 0.12742 0.47947 0.55698 0.0
C273 C 0.13515 0.46442 0.62483 0.0
C274 C 0.08353 0.42853 0.58093 0.0
O275 O 0.09802 0.43321 0.56884 0.0
O276 O 0.08336 0.43913 0.59686 0.0
C277 C 0.14099 0.43533 0.55752 0.0
O278 O 0.13238 0.42609 0.5768 0.0
C279 C 0.12022 0.48923 0.56205 0.0
Zn280 Zn 0.63617 0.10855 0.09829 0.0
Zn281 Zn 0.66616 0.12884 0.07353 0.0
O282 O 0.67538 0.13425 0.1084 0.0
O283 O 0.65095 0.11455 0.12852 0.0
O284 O 0.68883 0.14577 0.05506 0.0
O285 O 0.625 0.12364 0.08807 0.0
O286 O 0.64824 0.1376 0.06324 0.0
C287 C 0.66771 0.12673 0.12811 0.0
C288 C 0.64451 0.08767 0.06512 0.0
O289 O 0.65922 0.10291 0.06199 0.0
O290 O 0.63205 0.08677 0.07868 0.0
C291 C 0.70352 0.1451 0.05649 0.0
O292 O 0.70383 0.1324 0.06978 0.0
C293 C 0.63293 0.13493 0.07123 0.0
Zn294 Zn 0.52461 0.63465 0.58452 0.0
Zn295 Zn 0.53613 0.66617 0.56362 0.0
O296 O 0.53966 0.67274 0.59959 0.0
O297 O 0.53352 0.64669 0.61639 0.0
O298 O 0.54356 0.69051 0.54861 0.0
O299 O 0.49862 0.62583 0.57488 0.0
O300 O 0.50933 0.65037 0.55208 0.0
C301 C 0.53876 0.66356 0.61818 0.0
C302 C 0.55358 0.64322 0.551 0.0
O303 O 0.55413 0.6586 0.55001 0.0
O304 O 0.54137 0.63029 0.5634 0.0
C305 C 0.56004 0.70315 0.5455 0.0
O306 O 0.57346 0.7003 0.55157 0.0
C307 C 0.49602 0.63515 0.55927 0.0
Zn308 Zn 0.87639 0.51509 0.11575 0.0
Zn309 Zn 0.86241 0.53053 0.08737 0.0
O310 O 0.85254 0.5311 0.12107 0.0
O311 O 0.86086 0.51481 0.14309 0.0
O312 O 0.85017 0.5405 0.06634 0.0
O313 O 0.86664 0.49301 0.09429 0.0
O314 O 0.85412 0.50535 0.07202 0.0
C315 C 0.85241 0.52359 0.14091 0.0
C316 C 0.90344 0.54966 0.09411 0.0
O317 O 0.88971 0.54852 0.08307 0.0
O318 O 0.90129 0.53767 0.1095 0.0
C319 C 0.84796 0.55377 0.07252 0.0
O320 O 0.8544 0.56182 0.09324 0.0
C321 C 0.85701 0.49218 0.07644 0.0
Zn322 Zn 0.36324 0.87961 0.61172 0.0
Zn323 Zn 0.33326 0.8646 0.58423 0.0
O324 O 0.32344 0.85411 0.61787 0.0
O325 O 0.34821 0.86583 0.6403 0.0
O326 O 0.31081 0.85026 0.56403 0.0
O327 O 0.37514 0.86855 0.59212 0.0
O328 O 0.35109 0.85758 0.56847 0.0
C329 C 0.33106 0.85566 0.63809 0.0
C330 C 0.35522 0.90593 0.58841 0.0
O331 O 0.34117 0.89181 0.58011 0.0
O332 O 0.36632 0.90415 0.60192 0.0
C333 C 0.30003 0.85524 0.55542 0.0
O334 O 0.30328 0.87198 0.55917 0.0
C335 C 0.36679 0.85975 0.57356 0.0
H336 H 0.29998 0.45721 0.14138 0.0
H337 H 0.286 0.45009 0.18149 0.0
H338 H 0.32923 0.44116 0.20687 0.0
H339 H 0.34318 0.44829 0.16738 0.0
H340 H 0.29488 0.41547 0.22471 0.0
H341 H 0.33313 0.48272 0.2125 0.0
H342 H 0.33968 0.51137 0.19214 0.0
H343 H 0.28604 0.50156 0.2103 0.0
H344 H 0.27913 0.47274 0.23056 0.0
H345 H 0.34341 0.45043 0.32686 0.0
H346 H 0.32965 0.44321 0.28724 0.0
H347 H 0.28472 0.44929 0.3128 0.0
H348 H 0.29842 0.45632 0.35313 0.0
H349 H 0.30312 0.46982 0.26972 0.0
H350 H 0.27235 0.4088 0.29666 0.0
H351 H 0.26821 0.38144 0.31817 0.0
H352 H 0.30841 0.37948 0.27309 0.0
H353 H 0.31303 0.40698 0.25153 0.0
C354 C 0.3063 0.45346 0.15549 0.0
C355 C 0.32278 0.45351 0.15137 0.0
C356 C 0.2983 0.44939 0.17831 0.0
C357 C 0.30659 0.4451 0.19709 0.0
C358 C 0.32253 0.44431 0.19259 0.0
C359 C 0.3306 0.44857 0.17005 0.0
C360 C 0.3002 0.44318 0.22213 0.0
C361 C 0.29631 0.42719 0.2346 0.0
C362 C 0.30137 0.45824 0.23483 0.0
C363 C 0.30554 0.47552 0.22272 0.0
C364 C 0.3227 0.48663 0.21198 0.0
C365 C 0.32649 0.5029 0.2005 0.0
C366 C 0.31326 0.50825 0.19985 0.0
C367 C 0.29624 0.49737 0.21075 0.0
C368 C 0.29239 0.48107 0.22223 0.0
C369 C 0.33054 0.45013 0.32419 0.0
C370 C 0.32204 0.45403 0.34305 0.0
C371 C 0.32261 0.44584 0.30157 0.0
C372 C 0.30607 0.4455 0.29722 0.0
C373 C 0.29741 0.44932 0.31595 0.0
C374 C 0.30524 0.45333 0.33888 0.0
C375 C 0.29911 0.44256 0.2724 0.0
C376 C 0.30054 0.45765 0.25991 0.0
C377 C 0.29577 0.42668 0.25969 0.0
C378 C 0.293 0.40998 0.27241 0.0
C379 C 0.28038 0.40259 0.29138 0.0
C380 C 0.27794 0.38704 0.30359 0.0
C381 C 0.28803 0.37872 0.29698 0.0
C382 C 0.30057 0.38591 0.27814 0.0
C383 C 0.30307 0.40147 0.26587 0.0
H384 H 0.28613 0.36669 0.30647 0.0
H385 H 0.31621 0.52085 0.19096 0.0
H386 H 0.8509 0.3467 0.67129 0.0
H387 H 0.84117 0.3322 0.71026 0.0
H388 H 0.83049 0.28064 0.68011 0.0
H389 H 0.84044 0.29529 0.64069 0.0
H390 H 0.81315 0.30391 0.73359 0.0
H391 H 0.84916 0.26379 0.71988 0.0
H392 H 0.87034 0.26104 0.69189 0.0
H393 H 0.89684 0.31876 0.67726 0.0
H394 H 0.87592 0.32182 0.70534 0.0
H395 H 0.83744 0.29896 0.85561 0.0
H396 H 0.82515 0.28496 0.81634 0.0
H397 H 0.87516 0.32571 0.78267 0.0
H398 H 0.88737 0.33959 0.82136 0.0
H399 H 0.8622 0.29227 0.76176 0.0
H400 H 0.83889 0.33285 0.78902 0.0
H401 H 0.82111 0.34064 0.81689 0.0
H402 H 0.77332 0.28822 0.80423 0.0
H403 H 0.79093 0.28009 0.77645 0.0
C404 C 0.84601 0.33215 0.67277 0.0
C405 C 0.84676 0.3222 0.65311 0.0
C406 C 0.84027 0.32381 0.69505 0.0
C407 C 0.83533 0.30539 0.69818 0.0
C408 C 0.83436 0.29491 0.67809 0.0
C409 C 0.84003 0.30328 0.6556 0.0
C410 C 0.83472 0.29877 0.72294 0.0
C411 C 0.82343 0.3007 0.73975 0.0
C412 C 0.84812 0.29459 0.73104 0.0
C413 C 0.86088 0.29296 0.71441 0.0
C414 C 0.85953 0.27587 0.71069 0.0
C415 C 0.87148 0.27426 0.69483 0.0
C416 C 0.88488 0.2897 0.68274 0.0
C417 C 0.88642 0.3068 0.68658 0.0
C418 C 0.87454 0.30848 0.70246 0.0
C419 C 0.8459 0.30465 0.83983 0.0
C420 C 0.86326 0.32051 0.84147 0.0
C421 C 0.83887 0.29665 0.81747 0.0
C422 C 0.84923 0.30433 0.7966 0.0
C423 C 0.86696 0.31947 0.79852 0.0
C424 C 0.87387 0.32751 0.82066 0.0
C425 C 0.84134 0.29847 0.77235 0.0
C426 C 0.85104 0.29416 0.75565 0.0
C427 C 0.82677 0.30089 0.76437 0.0
C428 C 0.81624 0.30578 0.78096 0.0
C429 C 0.82462 0.32296 0.79232 0.0
C430 C 0.81458 0.32744 0.80807 0.0
C431 C 0.79611 0.31491 0.81239 0.0
C432 C 0.78764 0.29789 0.80092 0.0
C433 C 0.79763 0.29334 0.78518 0.0
H434 H 0.78836 0.3184 0.82458 0.0
H435 H 0.8941 0.28843 0.67044 0.0
H436 H 0.5608 0.84783 0.35437 0.0
H437 H 0.56495 0.83441 0.31735 0.0
H438 H 0.51734 0.83326 0.28694 0.0
H439 H 0.51334 0.84668 0.32329 0.0
H440 H 0.52043 0.80285 0.27332 0.0
H441 H 0.55951 0.87159 0.27979 0.0
H442 H 0.58454 0.89874 0.29971 0.0
H443 H 0.62039 0.87681 0.29008 0.0
H444 H 0.59547 0.84947 0.27027 0.0
H445 H 0.5132 0.84583 0.17676 0.0
H446 H 0.51697 0.8321 0.21302 0.0
H447 H 0.56543 0.83456 0.18346 0.0
H448 H 0.56138 0.84812 0.14645 0.0
H449 H 0.57125 0.85252 0.22709 0.0
H450 H 0.53271 0.79305 0.19995 0.0
H451 H 0.50675 0.7676 0.17896 0.0
H452 H 0.46904 0.77161 0.22673 0.0
H453 H 0.4947 0.79727 0.24779 0.0
C454 C 0.55102 0.84427 0.33992 0.0
C455 C 0.53692 0.84852 0.34144 0.0
C456 C 0.55338 0.83659 0.31888 0.0
C457 C 0.54145 0.83286 0.29941 0.0
C458 C 0.52662 0.83588 0.30177 0.0
C459 C 0.52446 0.84375 0.32247 0.0
C460 C 0.54553 0.82871 0.2752 0.0
C461 C 0.53173 0.81342 0.26312 0.0
C462 C 0.56072 0.84208 0.26214 0.0
C463 C 0.57567 0.8585 0.27381 0.0
C464 C 0.57273 0.87258 0.28201 0.0
C465 C 0.58688 0.88797 0.29327 0.0
C466 C 0.60404 0.88948 0.29621 0.0
C467 C 0.60709 0.87561 0.28784 0.0
C468 C 0.59297 0.86016 0.2766 0.0
C469 C 0.5244 0.84303 0.17773 0.0
C470 C 0.53707 0.84812 0.15898 0.0
C471 C 0.52645 0.835 0.19836 0.0
C472 C 0.54137 0.83209 0.20085 0.0
C473 C 0.5537 0.83648 0.18174 0.0
C474 C 0.5514 0.84421 0.1607 0.0
C475 C 0.54523 0.8275 0.22495 0.0
C476 C 0.56054 0.84117 0.23709 0.0
C477 C 0.53137 0.81264 0.238 0.0
C478 C 0.51572 0.79708 0.22557 0.0
C479 C 0.51888 0.78856 0.20596 0.0
C480 C 0.5042 0.77408 0.19403 0.0
C481 C 0.48626 0.76797 0.20154 0.0
C482 C 0.48296 0.77632 0.22099 0.0
C483 C 0.49758 0.7908 0.23299 0.0
H484 H 0.47492 0.75676 0.19227 0.0
H485 H 0.61497 0.90141 0.30493 0.0
H486 H 0.69869 0.55581 0.86253 0.0
H487 H 0.7111 0.55601 0.8225 0.0
H488 H 0.65672 0.51732 0.79783 0.0
H489 H 0.64431 0.51729 0.83711 0.0
H490 H 0.68487 0.50916 0.78367 0.0
H491 H 0.67196 0.56065 0.78792 0.0
H492 H 0.67795 0.59021 0.80472 0.0
H493 H 0.73489 0.61439 0.7866 0.0
H494 H 0.72922 0.58487 0.76993 0.0
H495 H 0.64539 0.50805 0.67784 0.0
H496 H 0.65836 0.51029 0.71734 0.0
H497 H 0.71126 0.55219 0.6919 0.0
H498 H 0.69819 0.54992 0.65178 0.0
H499 H 0.70019 0.56278 0.73186 0.0
H500 H 0.70824 0.51331 0.71245 0.0
H501 H 0.70139 0.48378 0.69474 0.0
H502 H 0.65466 0.45551 0.7408 0.0
H503 H 0.66101 0.48486 0.75855 0.0
C504 C 0.68946 0.5473 0.84853 0.0
C505 C 0.67051 0.53666 0.85285 0.0
C506 C 0.69656 0.5474 0.82579 0.0
C507 C 0.68481 0.53657 0.80736 0.0
C508 C 0.66602 0.52563 0.81191 0.0
C509 C 0.65893 0.52577 0.83432 0.0
C510 C 0.6913 0.53727 0.78261 0.0
C511 C 0.68854 0.52092 0.77227 0.0
C512 C 0.69689 0.55289 0.76804 0.0
C513 C 0.70023 0.57055 0.77801 0.0
C514 C 0.68577 0.57224 0.78771 0.0
C515 C 0.6891 0.58899 0.79716 0.0
C516 C 0.7068 0.60416 0.79681 0.0
C517 C 0.7212 0.60262 0.78693 0.0
C518 C 0.71794 0.58589 0.77749 0.0
C519 C 0.65987 0.51751 0.68047 0.0
C520 C 0.67076 0.5289 0.6618 0.0
C521 C 0.66733 0.51866 0.70303 0.0
C522 C 0.68585 0.53125 0.70752 0.0
C523 C 0.69699 0.54226 0.68872 0.0
C524 C 0.68952 0.54093 0.66588 0.0
C525 C 0.69238 0.53419 0.73262 0.0
C526 C 0.69758 0.55123 0.74314 0.0
C527 C 0.6891 0.51919 0.74735 0.0
C528 C 0.68517 0.50136 0.7369 0.0
C529 C 0.69645 0.50081 0.71876 0.0
C530 C 0.69265 0.48409 0.7087 0.0
C531 C 0.67761 0.46778 0.71666 0.0
C532 C 0.66634 0.46815 0.7347 0.0
C533 C 0.67007 0.48484 0.74482 0.0
H534 H 0.67469 0.45485 0.70884 0.0
H535 H 0.70935 0.61711 0.80412 0.0
H536 H 0.09056 0.6534 0.33566 0.0
H537 H 0.10017 0.66013 0.29406 0.0
H538 H 0.15433 0.70118 0.31632 0.0
H539 H 0.14487 0.69443 0.35848 0.0
H540 H 0.13249 0.70615 0.26912 0.0
H541 H 0.15923 0.67199 0.3047 0.0
H542 H 0.15788 0.64805 0.33146 0.0
H543 H 0.11118 0.60702 0.29309 0.0
H544 H 0.11208 0.63078 0.26636 0.0
H545 H 0.15128 0.68947 0.14642 0.0
H546 H 0.15603 0.69882 0.18875 0.0
H547 H 0.10938 0.6468 0.20827 0.0
H548 H 0.10479 0.63736 0.16668 0.0
H549 H 0.13789 0.65445 0.23596 0.0
H550 H 0.10756 0.6868 0.20522 0.0
H551 H 0.10537 0.70928 0.17918 0.0
H552 H 0.15591 0.75236 0.20789 0.0
H553 H 0.15849 0.73007 0.23391 0.0
C554 C 0.10444 0.6641 0.33185 0.0
C555 C 0.11704 0.67318 0.35041 0.0
C556 C 0.10986 0.668 0.30803 0.0
C557 C 0.12793 0.68106 0.30226 0.0
C558 C 0.14029 0.6911 0.32056 0.0
C559 C 0.13488 0.68717 0.34457 0.0
C560 C 0.13403 0.682 0.2773 0.0
C561 C 0.13427 0.69522 0.26182 0.0
C562 C 0.13602 0.66754 0.26793 0.0
C563 C 0.13568 0.65318 0.28364 0.0
C564 C 0.14861 0.65788 0.30208 0.0
C565 C 0.14793 0.64434 0.31723 0.0
C566 C 0.13443 0.62603 0.314 0.0
C567 C 0.12162 0.62121 0.29557 0.0
C568 C 0.12223 0.6347 0.2804 0.0
C569 C 0.14205 0.6801 0.1598 0.0
C570 C 0.12776 0.66262 0.15323 0.0
C571 C 0.14475 0.68546 0.18392 0.0
C572 C 0.13311 0.67345 0.20165 0.0
C573 C 0.11867 0.65621 0.19494 0.0
C574 C 0.11605 0.65084 0.17108 0.0
C575 C 0.13571 0.67823 0.22743 0.0
C576 C 0.13697 0.66592 0.24314 0.0
C577 C 0.13494 0.69342 0.23686 0.0
C578 C 0.13335 0.70675 0.22124 0.0
C579 C 0.11828 0.70104 0.20582 0.0
C580 C 0.11695 0.71375 0.1911 0.0
C581 C 0.13053 0.73222 0.19181 0.0
C582 C 0.14543 0.73804 0.20731 0.0
C583 C 0.14683 0.72538 0.22205 0.0
H584 H 0.12947 0.74204 0.18041 0.0
H585 H 0.13392 0.61557 0.32575 0.0
H586 H 0.44969 0.16074 0.84918 0.0
H587 H 0.44451 0.17219 0.81119 0.0
H588 H 0.49391 0.17624 0.78249 0.0
H589 H 0.49909 0.16493 0.82001 0.0
H590 H 0.4882 0.20353 0.76495 0.0
H591 H 0.45274 0.13581 0.77815 0.0
H592 H 0.42938 0.10879 0.80023 0.0
H593 H 0.38986 0.12579 0.78754 0.0
H594 H 0.4131 0.15301 0.76557 0.0
H595 H 0.4931 0.15999 0.66614 0.0
H596 H 0.49041 0.17315 0.70355 0.0
H597 H 0.4392 0.16769 0.6799 0.0
H598 H 0.44201 0.15459 0.6418 0.0
H599 H 0.43686 0.15083 0.72346 0.0
H600 H 0.47224 0.21002 0.69248 0.0
H601 H 0.49671 0.23521 0.66919 0.0
H602 H 0.53738 0.23409 0.71424 0.0
H603 H 0.51321 0.2087 0.73759 0.0
C604 C 0.45969 0.1646 0.83495 0.0
C605 C 0.47462 0.16166 0.83732 0.0
C606 C 0.45671 0.17113 0.81331 0.0
C607 C 0.46873 0.17489 0.79396 0.0
C608 C 0.48448 0.17348 0.79717 0.0
C609 C 0.48734 0.16684 0.81857 0.0
C610 C 0.46387 0.17724 0.76925 0.0
C611 C 0.4768 0.19223 0.75581 0.0
C612 C 0.44857 0.16283 0.7575 0.0
C613 C 0.43464 0.14648 0.77051 0.0
C614 C 0.43908 0.13379 0.78018 0.0
C615 C 0.42588 0.11846 0.79266 0.0
C616 C 0.40816 0.1156 0.79535 0.0
C617 C 0.4036 0.12805 0.7855 0.0
C618 C 0.41677 0.14343 0.77305 0.0
C619 C 0.48143 0.1619 0.66866 0.0
C620 C 0.46768 0.15612 0.65121 0.0
C621 C 0.48 0.16963 0.68996 0.0
C622 C 0.46472 0.17162 0.6944 0.0
C623 C 0.4512 0.16646 0.67667 0.0
C624 C 0.45281 0.15897 0.65501 0.0
C625 C 0.46203 0.17645 0.71896 0.0
C626 C 0.44767 0.16277 0.73246 0.0
C627 C 0.47611 0.19201 0.73068 0.0
C628 C 0.49084 0.20745 0.71689 0.0
C629 C 0.4864 0.21509 0.69739 0.0
C630 C 0.50023 0.22941 0.68416 0.0
C631 C 0.51859 0.23626 0.69026 0.0
C632 C 0.52315 0.2288 0.7096 0.0
C633 C 0.50937 0.21447 0.72288 0.0
H634 H 0.52928 0.24735 0.67998 0.0
H635 H 0.39796 0.10372 0.80501 0.0
H636 H 0.54389 0.64941 0.65914 0.0
H637 H 0.54594 0.66068 0.69973 0.0
H638 H 0.54481 0.70804 0.67283 0.0
H639 H 0.54261 0.69674 0.63164 0.0
H640 H 0.57214 0.70549 0.7204 0.0
H641 H 0.51209 0.69372 0.69127 0.0
H642 H 0.48469 0.67642 0.66596 0.0
H643 H 0.47397 0.6262 0.69969 0.0
H644 H 0.50145 0.6432 0.72494 0.0
H645 H 0.54536 0.6956 0.84677 0.0
H646 H 0.54887 0.70691 0.80537 0.0
H647 H 0.52561 0.65154 0.77924 0.0
H648 H 0.5221 0.64023 0.81997 0.0
H649 H 0.51064 0.67044 0.75763 0.0
H650 H 0.57102 0.67938 0.78005 0.0
H651 H 0.59928 0.69357 0.80426 0.0
H652 H 0.61004 0.74708 0.78324 0.0
H653 H 0.58169 0.73316 0.75912 0.0
C654 C 0.54435 0.66238 0.66169 0.0
C655 C 0.54279 0.67205 0.64219 0.0
C656 C 0.54567 0.66885 0.6849 0.0
C657 C 0.54546 0.68511 0.68914 0.0
C658 C 0.54504 0.69548 0.66977 0.0
C659 C 0.54374 0.68898 0.64633 0.0
C660 C 0.54313 0.68933 0.71405 0.0
C661 C 0.55868 0.69853 0.72861 0.0
C662 C 0.52558 0.67993 0.72462 0.0
C663 C 0.50884 0.66972 0.70987 0.0
C664 C 0.50393 0.67898 0.69317 0.0
C665 C 0.48839 0.66923 0.67886 0.0
C666 C 0.47761 0.65022 0.6812 0.0
C667 C 0.48232 0.64092 0.6979 0.0
C668 C 0.49786 0.65061 0.71224 0.0
C669 C 0.54096 0.68588 0.83215 0.0
C670 C 0.53347 0.66702 0.83665 0.0
C671 C 0.54298 0.69236 0.80858 0.0
C672 C 0.5374 0.68003 0.78933 0.0
C673 C 0.52984 0.66126 0.79387 0.0
C674 C 0.52795 0.65483 0.81721 0.0
C675 C 0.53969 0.68618 0.76414 0.0
C676 C 0.52406 0.67856 0.74955 0.0
C677 C 0.55717 0.69697 0.75365 0.0
C678 C 0.57415 0.70526 0.7681 0.0
C679 C 0.57934 0.69417 0.78078 0.0
C680 C 0.59538 0.70216 0.79443 0.0
C681 C 0.60641 0.72122 0.79536 0.0
C682 C 0.60145 0.73232 0.78256 0.0
C683 C 0.58541 0.7244 0.7689 0.0
H684 H 0.61883 0.72738 0.80593 0.0
H685 H 0.46559 0.64269 0.67009 0.0
H686 H 0.84968 0.55162 0.36666 0.0
H687 H 0.83611 0.54627 0.32653 0.0
H688 H 0.88845 0.56095 0.29535 0.0
H689 H 0.90204 0.56612 0.33509 0.0
H690 H 0.84395 0.56602 0.28079 0.0
H691 H 0.88144 0.52589 0.26051 0.0
H692 H 0.89308 0.5084 0.28245 0.0
H693 H 0.85284 0.49552 0.33742 0.0
H694 H 0.84077 0.51267 0.31561 0.0
H695 H 0.85964 0.55635 0.15893 0.0
H696 H 0.85542 0.56215 0.20061 0.0
H697 H 0.82325 0.50385 0.21327 0.0
H698 H 0.82867 0.49817 0.172 0.0
H699 H 0.8495 0.51638 0.24113 0.0
H700 H 0.80676 0.53533 0.22353 0.0
H701 H 0.79331 0.55156 0.20261 0.0
H702 H 0.8388 0.60329 0.2241 0.0
H703 H 0.85268 0.58739 0.24485 0.0
C704 C 0.85838 0.5541 0.35122 0.0
C705 C 0.87685 0.55894 0.35405 0.0
C706 C 0.85061 0.55112 0.32833 0.0
C707 C 0.86125 0.55298 0.3081 0.0
C708 C 0.88 0.55927 0.31082 0.0
C709 C 0.88772 0.56215 0.33357 0.0
C710 C 0.85263 0.54611 0.28448 0.0
C711 C 0.84496 0.55509 0.272 0.0
C712 C 0.85338 0.5314 0.27354 0.0
C713 C 0.86029 0.52067 0.28649 0.0
C714 C 0.875 0.51922 0.2772 0.0
C715 C 0.88169 0.50939 0.28963 0.0
C716 C 0.87373 0.50089 0.31134 0.0
C717 C 0.85902 0.50215 0.32063 0.0
C718 C 0.85226 0.51194 0.30825 0.0
C719 C 0.85106 0.54484 0.17043 0.0
C720 C 0.84457 0.52684 0.16251 0.0
C721 C 0.84855 0.54814 0.19427 0.0
C722 C 0.83909 0.53344 0.21027 0.0
C723 C 0.83076 0.51543 0.2014 0.0
C724 C 0.83377 0.51216 0.17782 0.0
C725 C 0.84123 0.53667 0.23656 0.0
C726 C 0.84789 0.52703 0.24973 0.0
C727 C 0.83909 0.55046 0.24811 0.0
C728 C 0.83081 0.56014 0.23568 0.0
C729 C 0.81397 0.55017 0.22366 0.0
C730 C 0.80626 0.55931 0.21185 0.0
C731 C 0.81521 0.57844 0.212 0.0
C732 C 0.83188 0.58847 0.224 0.0
C733 C 0.83966 0.57939 0.23584 0.0
H734 H 0.80921 0.5855 0.20284 0.0
H735 H 0.87895 0.49331 0.32096 0.0
H736 H 0.29515 0.84495 0.6479 0.0
H737 H 0.27892 0.83229 0.68595 0.0
H738 H 0.32629 0.83153 0.71365 0.0
H739 H 0.34249 0.84431 0.67624 0.0
H740 H 0.29239 0.80056 0.72771 0.0
H741 H 0.32285 0.86885 0.72225 0.0
H742 H 0.32566 0.89673 0.70367 0.0
H743 H 0.26857 0.8769 0.71657 0.0
H744 H 0.26543 0.84882 0.73503 0.0
H745 H 0.33733 0.83642 0.83096 0.0
H746 H 0.32158 0.82417 0.79331 0.0
H747 H 0.27701 0.83165 0.81688 0.0
H748 H 0.29298 0.84409 0.85506 0.0
H749 H 0.29099 0.84916 0.77609 0.0
H750 H 0.2674 0.78837 0.79932 0.0
H751 H 0.26593 0.76145 0.81889 0.0
H752 H 0.30905 0.766 0.77345 0.0
H753 H 0.31103 0.79311 0.75384 0.0
C754 C 0.30189 0.84172 0.662 0.0
C755 C 0.32015 0.84582 0.65931 0.0
C756 C 0.29261 0.83446 0.68363 0.0
C757 C 0.30142 0.83097 0.70256 0.0
C758 C 0.31919 0.83399 0.69921 0.0
C759 C 0.32851 0.84147 0.67791 0.0
C760 C 0.29368 0.82668 0.72703 0.0
C761 C 0.29171 0.81095 0.73839 0.0
C762 C 0.29193 0.83985 0.74065 0.0
C763 C 0.29386 0.85671 0.72971 0.0
C764 C 0.31089 0.87042 0.72098 0.0
C765 C 0.31255 0.88625 0.7105 0.0
C766 C 0.29729 0.88856 0.70887 0.0
C767 C 0.28036 0.87507 0.71779 0.0
C768 C 0.27864 0.8592 0.72825 0.0
C769 C 0.32392 0.83496 0.82845 0.0
C770 C 0.31646 0.84138 0.84578 0.0
C771 C 0.31479 0.82774 0.80697 0.0
C772 C 0.29798 0.82681 0.80226 0.0
C773 C 0.28988 0.83209 0.82021 0.0
C774 C 0.29898 0.83917 0.84198 0.0
C775 C 0.2912 0.82368 0.77722 0.0
C776 C 0.29046 0.83807 0.7656 0.0
C777 C 0.29038 0.8092 0.76343 0.0
C778 C 0.28929 0.79279 0.77501 0.0
C779 C 0.27663 0.78369 0.79354 0.0
C780 C 0.2757 0.76838 0.80465 0.0
C781 C 0.28737 0.76201 0.7974 0.0
C782 C 0.29998 0.77092 0.779 0.0
C783 C 0.30097 0.78624 0.76782 0.0
H784 H 0.28664 0.75016 0.80604 0.0
H785 H 0.29859 0.90082 0.70075 0.0
H786 H 0.44502 0.29331 0.34434 0.0
H787 H 0.43907 0.27642 0.30644 0.0
H788 H 0.47861 0.32621 0.27105 0.0
H789 H 0.48452 0.34293 0.30841 0.0
H790 H 0.42449 0.2831 0.26828 0.0
H791 H 0.49858 0.31991 0.2264 0.0
H792 H 0.52956 0.32726 0.23869 0.0
H793 H 0.50673 0.28461 0.29161 0.0
H794 H 0.47556 0.27677 0.27942 0.0
H795 H 0.43845 0.33028 0.16557 0.0
H796 H 0.43524 0.31472 0.20338 0.0
H797 H 0.45068 0.27854 0.16923 0.0
H798 H 0.45394 0.29424 0.1309 0.0
H799 H 0.47172 0.29489 0.20703 0.0
H800 H 0.40894 0.25917 0.19639 0.0
H801 H 0.37762 0.25077 0.18419 0.0
H802 H 0.37703 0.28798 0.23614 0.0
H803 H 0.40844 0.29685 0.24842 0.0
C804 C 0.45276 0.30047 0.32855 0.0
C805 C 0.46509 0.31946 0.32921 0.0
C806 C 0.44935 0.29082 0.30696 0.0
C807 C 0.45853 0.29998 0.28596 0.0
C808 C 0.47162 0.31871 0.28707 0.0
C809 C 0.47485 0.32834 0.30842 0.0
C810 C 0.45276 0.29128 0.26208 0.0
C811 C 0.43468 0.28524 0.25489 0.0
C812 C 0.46585 0.29316 0.2448 0.0
C813 C 0.48466 0.29769 0.25191 0.0
C814 C 0.50012 0.31193 0.24048 0.0
C815 C 0.51774 0.31624 0.24749 0.0
C816 C 0.52011 0.3064 0.26591 0.0
C817 C 0.50487 0.29223 0.27736 0.0
C818 C 0.48722 0.28786 0.27042 0.0
C819 C 0.44078 0.31875 0.16593 0.0
C820 C 0.44663 0.3136 0.14536 0.0
C821 C 0.43873 0.30971 0.18754 0.0
C822 C 0.44253 0.29531 0.18913 0.0
C823 C 0.44753 0.2895 0.16835 0.0
C824 C 0.44938 0.29847 0.14651 0.0
C825 C 0.44403 0.28877 0.21321 0.0
C826 C 0.46128 0.29188 0.22043 0.0
C827 C 0.4301 0.28391 0.23052 0.0
C828 C 0.4111 0.27863 0.2234 0.0
C829 C 0.40218 0.26563 0.20517 0.0
C830 C 0.38439 0.26078 0.19823 0.0
C831 C 0.37533 0.26882 0.2094 0.0
C832 C 0.38405 0.28172 0.22755 0.0
C833 C 0.40183 0.28662 0.23456 0.0
H834 H 0.36157 0.26505 0.20399 0.0
H835 H 0.53377 0.30977 0.27132 0.0
H836 H 0.1512 0.44356 0.63345 0.0
H837 H 0.16642 0.44283 0.67071 0.0
H838 H 0.16078 0.48748 0.69859 0.0
H839 H 0.14552 0.4881 0.66194 0.0
H840 H 0.19402 0.48939 0.71218 0.0
H841 H 0.1267 0.44404 0.70779 0.0
H842 H 0.1008 0.41672 0.6894 0.0
H843 H 0.12827 0.38613 0.70135 0.0
H844 H 0.15441 0.41337 0.71961 0.0
H845 H 0.15382 0.49327 0.81402 0.0
H846 H 0.16617 0.49054 0.77601 0.0
H847 H 0.16898 0.44397 0.80275 0.0
H848 H 0.15657 0.44677 0.84142 0.0
H849 H 0.14974 0.43654 0.76114 0.0
H850 H 0.20875 0.48046 0.78444 0.0
H851 H 0.23316 0.50819 0.80391 0.0
H852 H 0.22213 0.542 0.75723 0.0
H853 H 0.19745 0.51451 0.73771 0.0
C854 C 0.15364 0.45348 0.64736 0.0
C855 C 0.14697 0.46572 0.64505 0.0
C856 C 0.16234 0.45307 0.66855 0.0
C857 C 0.16468 0.46509 0.68738 0.0
C858 C 0.15923 0.47817 0.68423 0.0
C859 C 0.15034 0.4784 0.66337 0.0
C860 C 0.16998 0.46262 0.71175 0.0
C861 C 0.18464 0.47772 0.72297 0.0
C862 C 0.15822 0.44704 0.72555 0.0
C863 C 0.14252 0.43071 0.71477 0.0
C864 C 0.12722 0.43149 0.70637 0.0
C865 C 0.11251 0.41604 0.69599 0.0
C866 C 0.11292 0.39971 0.69415 0.0
C867 C 0.128 0.39879 0.70274 0.0
C868 C 0.14276 0.41423 0.71309 0.0
C869 C 0.15739 0.48265 0.81203 0.0
C870 C 0.15408 0.47012 0.83056 0.0
C871 C 0.16467 0.48123 0.79036 0.0
C872 C 0.16876 0.4672 0.78661 0.0
C873 C 0.16613 0.45502 0.80539 0.0
C874 C 0.15904 0.45662 0.82739 0.0
C875 C 0.1729 0.46399 0.76191 0.0
C876 C 0.15997 0.4478 0.75052 0.0
C877 C 0.18631 0.47861 0.74801 0.0
C878 C 0.20125 0.49534 0.7595 0.0
C879 C 0.21147 0.4938 0.77836 0.0
C880 C 0.22536 0.50949 0.78942 0.0
C881 C 0.22921 0.52685 0.78179 0.0
C882 C 0.21917 0.52854 0.76307 0.0
C883 C 0.20526 0.5129 0.75194 0.0
H884 H 0.23997 0.53898 0.79039 0.0
H885 H 0.10152 0.38776 0.68611 0.0
H886 H 0.65732 0.10821 0.32258 0.0
H887 H 0.67358 0.11633 0.28462 0.0
H888 H 0.71103 0.17046 0.31139 0.0
H889 H 0.69479 0.16221 0.35009 0.0
H890 H 0.69383 0.16958 0.26712 0.0
H891 H 0.73032 0.14682 0.29732 0.0
H892 H 0.73798 0.12645 0.31998 0.0
H893 H 0.70342 0.0816 0.27377 0.0
H894 H 0.6953 0.10157 0.25105 0.0
H895 H 0.69856 0.15932 0.1395 0.0
H896 H 0.71325 0.16849 0.17911 0.0
H897 H 0.67487 0.11493 0.20681 0.0
H898 H 0.6602 0.10587 0.16785 0.0
H899 H 0.71056 0.12846 0.22441 0.0
H900 H 0.66511 0.14906 0.21062 0.0
H901 H 0.65509 0.16807 0.18898 0.0
H902 H 0.70629 0.21639 0.20512 0.0
H903 H 0.71664 0.19758 0.22666 0.0
C904 C 0.66915 0.12178 0.32057 0.0
C905 C 0.67472 0.13463 0.3392 0.0
C906 C 0.67855 0.12635 0.29893 0.0
C907 C 0.69365 0.14391 0.29532 0.0
C908 C 0.69953 0.15677 0.31399 0.0
C909 C 0.69026 0.15206 0.33598 0.0
C910 C 0.70151 0.14888 0.27097 0.0
C911 C 0.69828 0.16118 0.25786 0.0
C912 C 0.70738 0.13797 0.25894 0.0
C913 C 0.71226 0.12578 0.27239 0.0
C914 C 0.72429 0.1326 0.29202 0.0
C915 C 0.72871 0.12111 0.30489 0.0
C916 C 0.72122 0.10275 0.2983 0.0
C917 C 0.70927 0.09584 0.27881 0.0
C918 C 0.70479 0.10727 0.26588 0.0
C919 C 0.69352 0.14947 0.15401 0.0
C920 C 0.6781 0.13197 0.15075 0.0
C921 C 0.70192 0.1547 0.17654 0.0
C922 C 0.69514 0.14237 0.19583 0.0
C923 C 0.68041 0.12461 0.19212 0.0
C924 C 0.67191 0.11951 0.16989 0.0
C925 C 0.70145 0.14804 0.2207 0.0
C926 C 0.7073 0.13772 0.23383 0.0
C927 C 0.69795 0.16071 0.23277 0.0
C928 C 0.69171 0.17195 0.21994 0.0
C929 C 0.67424 0.16373 0.20941 0.0
C930 C 0.66851 0.17446 0.19719 0.0
C931 C 0.68007 0.19342 0.19561 0.0
C932 C 0.69737 0.2017 0.2063 0.0
C933 C 0.70318 0.19102 0.21851 0.0
H934 H 0.67561 0.2017 0.18615 0.0
H935 H 0.72465 0.09388 0.30829 0.0
H936 H 0.1424 0.40813 0.95137 0.0
H937 H 0.16548 0.40342 0.97187 0.0
H938 H 0.20531 0.46065 0.96256 0.0
H939 H 0.18256 0.46548 0.94223 0.0
H940 H 0.21849 0.43787 0.9495 0.0
H941 H 0.18497 0.44516 0.0155 0.0
H942 H 0.15721 0.43674 0.03925 0.0
H943 H 0.14964 0.38305 0.05115 0.0
H944 H 0.17725 0.39109 0.02718 0.0
H945 H 0.29031 0.46641 0.03003 0.0
H946 H 0.26311 0.46077 0.00794 0.0
H947 H 0.23517 0.40436 0.03108 0.0
H948 H 0.26244 0.40996 0.05368 0.0
H949 H 0.21343 0.41965 0.03489 0.0
H950 H 0.24972 0.41401 0.97427 0.0
H951 H 0.2777 0.42251 0.95103 0.0
H952 H 0.27998 0.47233 0.92855 0.0
H953 H 0.25215 0.46426 0.95194 0.0
C954 C 0.15607 0.4197 0.95376 0.0
C955 C 0.16064 0.43718 0.94517 0.0
C956 C 0.16921 0.41699 0.96548 0.0
C957 C 0.18708 0.4317 0.96868 0.0
C958 C 0.19161 0.44911 0.96015 0.0
C959 C 0.17854 0.45185 0.94862 0.0
C960 C 0.20131 0.42927 0.98082 0.0
C961 C 0.21742 0.43391 0.96818 0.0
C962 C 0.19959 0.42345 0.00491 0.0
C963 C 0.18302 0.41864 0.01929 0.0
C964 C 0.17729 0.4315 0.02299 0.0
C965 C 0.1616 0.42681 0.03653 0.0
C966 C 0.15163 0.40935 0.04663 0.0
C967 C 0.15735 0.39655 0.04326 0.0
C968 C 0.17302 0.40117 0.02971 0.0
C969 C 0.27843 0.45276 0.03043 0.0
C970 C 0.27857 0.4386 0.04354 0.0
C971 C 0.2629 0.44954 0.01768 0.0
C972 C 0.24723 0.43207 0.01756 0.0
C973 C 0.24718 0.41792 0.03085 0.0
C974 C 0.26277 0.42114 0.04369 0.0
C975 C 0.2309 0.42896 0.0038 0.0
C976 C 0.21438 0.42322 0.01607 0.0
C977 C 0.23221 0.4337 0.97929 0.0
C978 C 0.24888 0.43856 0.96498 0.0
C979 C 0.25624 0.42683 0.96449 0.0
C980 C 0.27207 0.43156 0.95127 0.0
C981 C 0.28063 0.44796 0.93835 0.0
C982 C 0.27334 0.45963 0.93857 0.0
C983 C 0.25751 0.45497 0.95177 0.0
H984 H 0.29289 0.4516 0.92814 0.0
H985 H 0.1395 0.40575 0.05711 0.0
H986 H 0.71995 0.14167 0.47093 0.0
H987 H 0.74756 0.16598 0.49026 0.0
H988 H 0.73498 0.20641 0.46345 0.0
H989 H 0.70747 0.18235 0.44418 0.0
H990 H 0.77127 0.2162 0.45655 0.0
H991 H 0.72621 0.19332 0.52016 0.0
H992 H 0.7034 0.16947 0.54678 0.0
H993 H 0.74436 0.158 0.57347 0.0
H994 H 0.76738 0.18163 0.54674 0.0
H995 H 0.82262 0.29485 0.52693 0.0
H996 H 0.79898 0.26787 0.50626 0.0
H997 H 0.81565 0.23385 0.54377 0.0
H998 H 0.83919 0.2608 0.56493 0.0
H999 H 0.77944 0.21877 0.54471 0.0
H1000 H 0.82532 0.24345 0.4843 0.0
H1001 H 0.8484 0.26714 0.45778 0.0
H1002 H 0.80674 0.2748 0.42477 0.0
H1003 H 0.78342 0.25132 0.45132 0.0
C1004 C 0.72307 0.15574 0.46918 0.0
C1005 C 0.7115 0.16008 0.45608 0.0
C1006 C 0.73882 0.16959 0.48025 0.0
C1007 C 0.74325 0.18796 0.47831 0.0
C1008 C 0.73181 0.19231 0.4651 0.0
C1009 C 0.71604 0.17852 0.4542 0.0
C1010 C 0.75974 0.20279 0.49011 0.0
C1011 C 0.77304 0.21686 0.47584 0.0
C1012 C 0.76227 0.20327 0.51518 0.0
C1013 C 0.74845 0.18908 0.53125 0.0
C1014 C 0.73031 0.1856 0.53155 0.0
C1015 C 0.71735 0.17214 0.54669 0.0
C1016 C 0.72241 0.16218 0.56175 0.0
C1017 C 0.74045 0.16569 0.56176 0.0
C1018 C 0.75346 0.17912 0.54663 0.0
C1019 C 0.82137 0.28166 0.53068 0.0
C1020 C 0.8328 0.27998 0.54758 0.0
C1021 C 0.80789 0.26624 0.51875 0.0
C1022 C 0.80568 0.24886 0.52326 0.0
C1023 C 0.81714 0.24714 0.53999 0.0
C1024 C 0.83062 0.26256 0.55201 0.0
C1025 C 0.79087 0.23245 0.51119 0.0
C1026 C 0.77787 0.21804 0.52539 0.0
C1027 C 0.78867 0.2316 0.48602 0.0
C1028 C 0.80264 0.24571 0.46994 0.0
C1029 C 0.82109 0.25028 0.47151 0.0
C1030 C 0.83422 0.26366 0.45645 0.0
C1031 C 0.82905 0.2725 0.43963 0.0
C1032 C 0.81072 0.26794 0.43781 0.0
C1033 C 0.79754 0.25459 0.45284 0.0
H1034 H 0.83923 0.28285 0.42799 0.0
H1035 H 0.71236 0.15177 0.57347 0.0
H1036 H 0.58791 0.84751 0.05552 0.0
H1037 H 0.58927 0.82341 0.03271 0.0
H1038 H 0.53316 0.80182 0.01069 0.0
H1039 H 0.53163 0.82573 0.03337 0.0
H1040 H 0.5396 0.77544 0.02916 0.0
H1041 H 0.56704 0.82462 0.97159 0.0
H1042 H 0.58944 0.85564 0.9575 0.0
H1043 H 0.63339 0.84512 0.97162 0.0
H1044 H 0.61124 0.8141 0.98611 0.0
H1045 H 0.52752 0.7121 0.9405 0.0
H1046 H 0.53075 0.73902 0.96111 0.0
H1047 H 0.58751 0.75704 0.97565 0.0
H1048 H 0.5845 0.73019 0.9545 0.0
H1049 H 0.58288 0.78548 0.96296 0.0
H1050 H 0.55577 0.73604 0.01896 0.0
H1051 H 0.53361 0.70491 0.03299 0.0
H1052 H 0.48956 0.7159 0.02283 0.0
H1053 H 0.51142 0.74702 0.00839 0.0
C1054 C 0.57592 0.83774 0.04564 0.0
C1055 C 0.55964 0.83849 0.04634 0.0
C1056 C 0.57674 0.82401 0.03258 0.0
C1057 C 0.56131 0.81086 0.02003 0.0
C1058 C 0.54519 0.81182 0.02033 0.0
C1059 C 0.54438 0.82554 0.03325 0.0
C1060 C 0.56157 0.79556 0.00743 0.0
C1061 C 0.54893 0.77762 0.01452 0.0
C1062 C 0.57418 0.79848 0.98889 0.0
C1063 C 0.5875 0.81712 0.98019 0.0
C1064 C 0.58149 0.82898 0.9719 0.0
C1065 C 0.59414 0.84655 0.96379 0.0
C1066 C 0.61283 0.85237 0.96373 0.0
C1067 C 0.61891 0.84061 0.97172 0.0
C1068 C 0.60631 0.82303 0.97986 0.0
C1069 C 0.54073 0.7218 0.94798 0.0
C1070 C 0.55572 0.71892 0.94608 0.0
C1071 C 0.54253 0.73716 0.95982 0.0
C1072 C 0.55927 0.74983 0.97031 0.0
C1073 C 0.57445 0.74736 0.96778 0.0
C1074 C 0.57269 0.73201 0.95574 0.0
C1075 C 0.56065 0.76535 0.98439 0.0
C1076 C 0.57363 0.78331 0.97769 0.0
C1077 C 0.54841 0.76247 0.00343 0.0
C1078 C 0.53523 0.74383 0.01241 0.0
C1079 C 0.54134 0.73178 0.01957 0.0
C1080 C 0.52884 0.71414 0.02762 0.0
C1081 C 0.51018 0.70842 0.02875 0.0
C1082 C 0.50401 0.72035 0.02192 0.0
C1083 C 0.51646 0.738 0.01383 0.0
H1084 H 0.50052 0.69475 0.03496 0.0
H1085 H 0.6226 0.86598 0.95745 0.0
H1086 H 0.71602 0.54016 0.56212 0.0
H1087 H 0.74454 0.54647 0.543 0.0
H1088 H 0.7355 0.57615 0.48674 0.0
H1089 H 0.70659 0.56952 0.50555 0.0
H1090 H 0.74643 0.55407 0.4686 0.0
H1091 H 0.76759 0.59896 0.53034 0.0
H1092 H 0.77013 0.61094 0.57127 0.0
H1093 H 0.79179 0.57732 0.59592 0.0
H1094 H 0.78913 0.56494 0.55519 0.0
H1095 H 0.83721 0.58719 0.42396 0.0
H1096 H 0.81041 0.58687 0.44135 0.0
H1097 H 0.80928 0.55165 0.49818 0.0
H1098 H 0.83602 0.55188 0.48099 0.0
H1099 H 0.80458 0.58022 0.51437 0.0
H1100 H 0.78056 0.5336 0.45274 0.0
H1101 H 0.77812 0.52207 0.41155 0.0
H1102 H 0.76223 0.56026 0.38641 0.0
H1103 H 0.76483 0.57219 0.42744 0.0
C1104 C 0.72009 0.54808 0.54572 0.0
C1105 C 0.70906 0.55439 0.53539 0.0
C1106 C 0.73647 0.55176 0.53487 0.0
C1107 C 0.74231 0.56205 0.51366 0.0
C1108 C 0.73128 0.56826 0.50317 0.0
C1109 C 0.71479 0.56448 0.51396 0.0
C1110 C 0.75969 0.56578 0.50221 0.0
C1111 C 0.75923 0.56013 0.47846 0.0
C1112 C 0.77634 0.57346 0.51518 0.0
C1113 C 0.77803 0.58092 0.53972 0.0
C1114 C 0.77277 0.59402 0.54452 0.0
C1115 C 0.77425 0.6009 0.56768 0.0
C1116 C 0.78109 0.59487 0.5862 0.0
C1117 C 0.78649 0.58198 0.58157 0.0
C1118 C 0.78502 0.57504 0.55843 0.0
C1119 C 0.8313 0.57945 0.44022 0.0
C1120 C 0.83868 0.56949 0.45105 0.0
C1121 C 0.81598 0.57924 0.45007 0.0
C1122 C 0.80783 0.56914 0.47093 0.0
C1123 C 0.8154 0.55953 0.48206 0.0
C1124 C 0.83062 0.55962 0.47216 0.0
C1125 C 0.79117 0.5682 0.48101 0.0
C1126 C 0.79181 0.57439 0.50447 0.0
C1127 C 0.77473 0.56114 0.46773 0.0
C1128 C 0.7731 0.55393 0.4431 0.0
C1129 C 0.7767 0.53964 0.43839 0.0
C1130 C 0.77526 0.53302 0.41509 0.0
C1131 C 0.77008 0.54047 0.39636 0.0
C1132 C 0.76628 0.55453 0.40093 0.0
C1133 C 0.76772 0.56122 0.4242 0.0
H1134 H 0.76897 0.53532 0.37833 0.0
H1135 H 0.78222 0.60021 0.60412 0.0
H1136 H 0.25795 0.8281 0.92346 0.0
H1137 H 0.23419 0.80596 0.95006 0.0
H1138 H 0.27303 0.8238 0.00822 0.0
H1139 H 0.29697 0.84569 0.98159 0.0
H1140 H 0.25648 0.78813 0.00383 0.0
H1141 H 0.23655 0.83212 0.00747 0.0
H1142 H 0.22717 0.85345 0.99148 0.0
H1143 H 0.18148 0.80891 0.95583 0.0
H1144 H 0.19073 0.78734 0.97133 0.0
H1145 H 0.19252 0.72893 0.08869 0.0
H1146 H 0.21391 0.75743 0.06845 0.0
H1147 H 0.17866 0.7409 0.00651 0.0
H1148 H 0.15698 0.71248 0.0268 0.0
H1149 H 0.1935 0.77733 0.01519 0.0
H1150 H 0.21502 0.73421 0.00839 0.0
H1151 H 0.22439 0.71268 0.02372 0.0
H1152 H 0.26732 0.75593 0.06471 0.0
H1153 H 0.25803 0.77766 0.04986 0.0
C1154 C 0.26137 0.82756 0.94202 0.0
C1155 C 0.27939 0.83855 0.95035 0.0
C1156 C 0.24773 0.81493 0.95725 0.0
C1157 C 0.25179 0.81325 0.98119 0.0
C1158 C 0.26959 0.82482 0.98981 0.0
C1159 C 0.28325 0.83735 0.97456 0.0
C1160 C 0.23805 0.79829 0.99653 0.0
C1161 C 0.24283 0.78603 0.00671 0.0
C1162 C 0.22006 0.7952 -0.00027 0.0
C1163 C 0.21443 0.80813 0.99041 0.0
C1164 C 0.22458 0.82689 0.99607 0.0
C1165 C 0.21927 0.83902 0.98712 0.0
C1166 C 0.20376 0.83254 0.97261 0.0
C1167 C 0.1935 0.81391 0.96706 0.0
C1168 C 0.19876 0.80172 0.97595 0.0
C1169 C 0.18921 0.73141 0.07085 0.0
C1170 C 0.17315 0.71833 0.05924 0.0
C1171 C 0.20147 0.74771 0.0593 0.0
C1172 C 0.19802 0.75115 0.03582 0.0
C1173 C 0.18161 0.7385 0.0246 0.0
C1174 C 0.16927 0.72223 0.0362 0.0
C1175 C 0.21202 0.76732 0.02243 0.0
C1176 C 0.20724 0.77967 0.01253 0.0
C1177 C 0.23004 0.77053 0.01939 0.0
C1178 C 0.23571 0.7575 0.02822 0.0
C1179 C 0.22637 0.73909 0.02081 0.0
C1180 C 0.23168 0.72686 0.02939 0.0
C1181 C 0.24641 0.73292 0.04523 0.0
C1182 C 0.25589 0.75125 0.05247 0.0
C1183 C 0.25062 0.76353 0.04397 0.0
H1184 H 0.2505 0.72344 0.05185 0.0
H1185 H 0.19967 0.84196 0.9657 0.0
H1186 H 0.4485 0.16405 0.51961 0.0
H1187 H 0.44711 0.18897 0.49939 0.0
H1188 H 0.41671 0.19327 0.55864 0.0
H1189 H 0.4179 0.16816 0.57907 0.0
H1190 H 0.40477 0.19857 0.51369 0.0
H1191 H 0.46065 0.22111 0.55805 0.0
H1192 H 0.48898 0.22187 0.57093 0.0
H1193 H 0.50912 0.2329 0.49871 0.0
H1194 H 0.48076 0.23193 0.48533 0.0
H1195 H 0.42772 0.29083 0.48506 0.0
H1196 H 0.42305 0.26321 0.50586 0.0
H1197 H 0.45619 0.25605 0.45294 0.0
H1198 H 0.46109 0.28362 0.43227 0.0
H1199 H 0.46593 0.25254 0.4974 0.0
H1200 H 0.40974 0.22935 0.45281 0.0
H1201 H 0.38127 0.22826 0.43984 0.0
H1202 H 0.36171 0.21863 0.51235 0.0
H1203 H 0.3902 0.21991 0.5258 0.0
C1204 C 0.44123 0.17005 0.52822 0.0
C1205 C 0.43353 0.16429 0.55112 0.0
C1206 C 0.44048 0.18432 0.51663 0.0
C1207 C 0.43211 0.19315 0.52774 0.0
C1208 C 0.42331 0.18665 0.54985 0.0
C1209 C 0.42404 0.17233 0.56149 0.0
C1210 C 0.43392 0.21007 0.51711 0.0
C1211 C 0.41811 0.21049 0.51039 0.0
C1212 C 0.45135 0.22551 0.51264 0.0
C1213 C 0.46851 0.22629 0.52066 0.0
C1214 C 0.47106 0.22357 0.54489 0.0
C1215 C 0.48713 0.22405 0.55228 0.0
C1216 C 0.50082 0.22739 0.53564 0.0
C1217 C 0.49849 0.2303 0.51157 0.0
C1218 C 0.48243 0.2298 0.50408 0.0
C1219 C 0.43399 0.28335 0.47784 0.0
C1220 C 0.4448 0.28944 0.45703 0.0
C1221 C 0.43123 0.26753 0.48968 0.0
C1222 C 0.43917 0.25751 0.48083 0.0
C1223 C 0.44995 0.26358 0.46008 0.0
C1224 C 0.45271 0.27934 0.44826 0.0
C1225 C 0.43679 0.24099 0.49345 0.0
C1226 C 0.45255 0.24068 0.50071 0.0
C1227 C 0.41932 0.22572 0.4984 0.0
C1228 C 0.40219 0.22494 0.49034 0.0
C1229 C 0.39944 0.22716 0.46602 0.0
C1230 C 0.38328 0.22648 0.45857 0.0
C1231 C 0.36971 0.22344 0.47527 0.0
C1232 C 0.37225 0.22102 0.49944 0.0
C1233 C 0.38839 0.22171 0.50698 0.0
H1234 H 0.35721 0.22291 0.46947 0.0
H1235 H 0.51326 0.22776 0.54139 0.0
H1236 H 0.83535 0.5419 0.02736 0.0
H1237 H 0.81399 0.54731 0.0043 0.0
H1238 H 0.8135 0.58219 0.06044 0.0
H1239 H 0.83489 0.57673 0.08382 0.0
H1240 H 0.77936 0.55613 0.04784 0.0
H1241 H 0.83249 0.60068 0.0071 0.0
H1242 H 0.86204 0.61328 0.98602 0.0
H1243 H 0.83628 0.57382 0.92977 0.0
H1244 H 0.80662 0.56078 0.95068 0.0
H1245 H 0.71613 0.56873 0.97778 0.0
H1246 H 0.74439 0.57667 -0.00066 0.0
H1247 H 0.75365 0.54137 0.95263 0.0
H1248 H 0.72555 0.53349 0.93085 0.0
H1249 H 0.78538 0.57354 0.96204 0.0
H1250 H 0.73406 0.52613 0.00625 0.0
H1251 H 0.70448 0.51278 0.02745 0.0
H1252 H 0.72728 0.55753 0.07734 0.0
H1253 H 0.75694 0.57127 0.05621 0.0
C1254 C 0.83093 0.55094 0.0347 0.0
C1255 C 0.83672 0.55879 0.05749 0.0
C1256 C 0.8188 0.55412 0.0214 0.0
C1257 C 0.81226 0.56526 0.03059 0.0
C1258 C 0.81845 0.5736 0.05302 0.0
C1259 C 0.83068 0.57049 0.06632 0.0
C1260 C 0.79769 0.56667 0.01766 0.0
C1261 C 0.78083 0.5604 0.02925 0.0
C1262 C 0.79951 0.57188 0.99328 0.0
C1263 C 0.81733 0.57968 0.98057 0.0
C1264 C 0.83314 0.59459 0.99033 0.0
C1265 C 0.84992 0.60183 0.97839 0.0
C1266 C 0.85104 0.59434 0.95658 0.0
C1267 C 0.83539 0.57961 0.94666 0.0
C1268 C 0.81858 0.5723 0.95854 0.0
C1269 C 0.72426 0.56278 0.97196 0.0
C1270 C 0.71851 0.55034 0.95275 0.0
C1271 C 0.74039 0.56733 0.98431 0.0
C1272 C 0.751 0.55947 0.9777 0.0
C1273 C 0.74565 0.5476 0.95798 0.0
C1274 C 0.72953 0.54303 0.94565 0.0
C1275 C 0.76705 0.56265 0.99212 0.0
C1276 C 0.78411 0.5697 0.98078 0.0
C1277 C 0.76543 0.55812 0.01673 0.0
C1278 C 0.74763 0.54984 0.02948 0.0
C1279 C 0.73271 0.5332 0.02162 0.0
C1280 C 0.71594 0.52555 0.03364 0.0
C1281 C 0.71398 0.53433 0.05368 0.0
C1282 C 0.72881 0.55076 0.06178 0.0
C1283 C 0.7456 0.55849 0.04979 0.0
H1284 H 0.70099 0.52839 0.06297 0.0
H1285 H 0.86404 0.59997 0.94737 0.0
H1286 H 0.15059 0.74379 0.43969 0.0
H1287 H 0.17623 0.77055 0.45852 0.0
H1288 H 0.19807 0.7368 0.48309 0.0
H1289 H 0.17243 0.71 0.46465 0.0
H1290 H 0.19788 0.75828 0.51825 0.0
H1291 H 0.21681 0.76593 0.43548 0.0
H1292 H 0.21356 0.76909 0.39213 0.0
H1293 H 0.20974 0.81731 0.40476 0.0
H1294 H 0.21273 0.81429 0.44825 0.0
H1295 H 0.28899 0.81935 0.54713 0.0
H1296 H 0.26134 0.79658 0.52692 0.0
H1297 H 0.24587 0.83738 0.51338 0.0
H1298 H 0.27376 0.86051 0.53369 0.0
H1299 H 0.24079 0.81461 0.47366 0.0
H1300 H 0.22464 0.80825 0.55644 0.0
H1301 H 0.22857 0.80515 0.59961 0.0
H1302 H 0.22738 0.75434 0.58683 0.0
H1303 H 0.22373 0.75728 0.54352 0.0
C1304 C 0.16089 0.74208 0.44903 0.0
C1305 C 0.15947 0.72476 0.45069 0.0
C1306 C 0.17556 0.7574 0.45971 0.0
C1307 C 0.18911 0.75568 0.47208 0.0
C1308 C 0.18774 0.73842 0.47367 0.0
C1309 C 0.1731 0.72312 0.46305 0.0
C1310 C 0.20458 0.7717 0.48389 0.0
C1311 C 0.20734 0.77053 0.50845 0.0
C1312 C 0.21656 0.78793 0.47126 0.0
C1313 C 0.21477 0.78976 0.44513 0.0
C1314 C 0.21511 0.77712 0.42903 0.0
C1315 C 0.21335 0.7789 0.40443 0.0
C1316 C 0.21138 0.79335 0.3957 0.0
C1317 C 0.21123 0.80609 0.41155 0.0
C1318 C 0.21297 0.80436 0.43618 0.0
C1319 C 0.27979 0.82359 0.53984 0.0
C1320 C 0.28354 0.84175 0.54218 0.0
C1321 C 0.26395 0.81051 0.52833 0.0
C1322 C 0.25146 0.81525 0.51896 0.0
C1323 C 0.25533 0.83346 0.52061 0.0
C1324 C 0.27123 0.84662 0.53226 0.0
C1325 C 0.2343 0.80093 0.50783 0.0
C1326 C 0.23118 0.80243 0.48348 0.0
C1327 C 0.22198 0.78496 0.52061 0.0
C1328 C 0.22404 0.78306 0.5467 0.0
C1329 C 0.22535 0.79648 0.56281 0.0
C1330 C 0.22751 0.79474 0.58731 0.0
C1331 C 0.22826 0.77958 0.59596 0.0
C1332 C 0.22681 0.76609 0.58011 0.0
C1333 C 0.22467 0.76777 0.55558 0.0
H1334 H 0.22993 0.77826 0.61494 0.0
H1335 H 0.21002 0.79471 0.37665 0.0
H1336 H 0.41133 0.15339 0.91948 0.0
H1337 H 0.40432 0.17472 0.94027 0.0
H1338 H 0.45217 0.19252 0.98462 0.0
H1339 H 0.45899 0.17103 0.96447 0.0
H1340 H 0.42497 0.19039 0.0104 0.0
H1341 H 0.45247 0.21599 0.93329 0.0
H1342 H 0.45432 0.21612 0.88921 0.0
H1343 H 0.40185 0.21258 0.8841 0.0
H1344 H 0.39959 0.21219 0.92819 0.0
H1345 H 0.45883 0.28229 0.04052 0.0
H1346 H 0.45355 0.25383 0.02213 0.0
H1347 H 0.40136 0.2438 0.99539 0.0
H1348 H 0.40646 0.27236 0.01401 0.0
H1349 H 0.4237 0.23873 0.96106 0.0
H1350 H 0.39978 0.21894 0.03965 0.0
H1351 H 0.39986 0.22036 0.08374 0.0
H1352 H 0.44743 0.21427 0.08615 0.0
H1353 H 0.44781 0.2131 0.04205 0.0
C1354 C 0.42021 0.16168 0.93388 0.0
C1355 C 0.43583 0.16065 0.94016 0.0
C1356 C 0.41622 0.1739 0.94568 0.0
C1357 C 0.42789 0.18542 0.96374 0.0
C1358 C 0.44298 0.18378 0.97073 0.0
C1359 C 0.4469 0.17152 0.9591 0.0
C1360 C 0.4252 0.19997 0.97456 0.0
C1361 C 0.4247 0.20096 -0.00039 0.0
C1362 C 0.42437 0.21352 0.96047 0.0
C1363 C 0.42576 0.21382 0.934 0.0
C1364 C 0.44127 0.2151 0.92275 0.0
C1365 C 0.4424 0.21524 0.89778 0.0
C1366 C 0.42818 0.21429 0.88386 0.0
C1367 C 0.41283 0.21326 0.8949 0.0
C1368 C 0.41161 0.21309 0.91988 0.0
C1369 C 0.44623 0.27409 0.03071 0.0
C1370 C 0.43304 0.27957 0.02875 0.0
C1371 C 0.4432 0.25778 0.02032 0.0
C1372 C 0.42698 0.24665 0.00768 0.0
C1373 C 0.41391 0.25219 0.00522 0.0
C1374 C 0.41685 0.26848 0.01587 0.0
C1375 C 0.42406 0.22939 0.99683 0.0
C1376 C 0.42352 0.22792 0.97181 0.0
C1377 C 0.42413 0.2155 0.01094 0.0
C1378 C 0.42388 0.21604 0.03751 0.0
C1379 C 0.41034 0.21803 0.04957 0.0
C1380 C 0.41029 0.21877 0.07457 0.0
C1381 C 0.42366 0.21743 0.08774 0.0
C1382 C 0.43708 0.21531 0.07593 0.0
C1383 C 0.4372 0.21458 0.05093 0.0
H1384 H 0.4236 0.21802 0.10709 0.0
H1385 H 0.42909 0.2144 0.86453 0.0
H1386 H 0.15189 0.41107 0.57089 0.0
H1387 H 0.17587 0.40686 0.55261 0.0
H1388 H 0.18381 0.44642 0.49808 0.0
H1389 H 0.15982 0.45071 0.51617 0.0
H1390 H 0.18503 0.41611 0.48018 0.0
H1391 H 0.21104 0.45982 0.54531 0.0
H1392 H 0.21295 0.4698 0.58723 0.0
H1393 H 0.22129 0.42597 0.61056 0.0
H1394 H 0.21916 0.41557 0.56876 0.0
H1395 H 0.27509 0.45261 0.43899 0.0
H1396 H 0.24597 0.44646 0.4559 0.0
H1397 H 0.24986 0.4118 0.50971 0.0
H1398 H 0.27937 0.41822 0.49309 0.0
H1399 H 0.24063 0.43466 0.52933 0.0
H1400 H 0.21878 0.39327 0.46379 0.0
H1401 H 0.21681 0.38306 0.422 0.0
H1402 H 0.20038 0.4214 0.39942 0.0
H1403 H 0.2025 0.43204 0.44104 0.0
C1404 C 0.15857 0.41871 0.55483 0.0
C1405 C 0.15408 0.43136 0.54509 0.0
C1406 C 0.17228 0.4163 0.54445 0.0
C1407 C 0.18171 0.42648 0.52418 0.0
C1408 C 0.17667 0.43845 0.51375 0.0
C1409 C 0.16303 0.44094 0.52417 0.0
C1410 C 0.19762 0.4256 0.51467 0.0
C1411 C 0.19724 0.42023 0.49083 0.0
C1412 C 0.21329 0.43045 0.52888 0.0
C1413 C 0.21472 0.43679 0.55396 0.0
C1414 C 0.21313 0.45222 0.5594 0.0
C1415 C 0.21428 0.45797 0.58313 0.0
C1416 C 0.21718 0.44849 0.60156 0.0
C1417 C 0.219 0.43327 0.59627 0.0
C1418 C 0.21784 0.42745 0.57257 0.0
C1419 C 0.26974 0.44357 0.45432 0.0
C1420 C 0.27958 0.43591 0.46471 0.0
C1421 C 0.253 0.43996 0.46388 0.0
C1422 C 0.24559 0.42844 0.48385 0.0
C1423 C 0.25529 0.42066 0.49421 0.0
C1424 C 0.27214 0.42433 0.48469 0.0
C1425 C 0.22825 0.4255 0.49458 0.0
C1426 C 0.22834 0.43019 0.5187 0.0
C1427 C 0.21229 0.41994 0.48064 0.0
C1428 C 0.21092 0.41354 0.45555 0.0
C1429 C 0.21487 0.39962 0.4499 0.0
C1430 C 0.21371 0.39374 0.42624 0.0
C1431 C 0.2085 0.4016 0.40806 0.0
C1432 C 0.20441 0.41533 0.41352 0.0
C1433 C 0.20557 0.42127 0.43716 0.0
H1434 H 0.20761 0.39703 0.38975 0.0
H1435 H 0.21806 0.45295 0.61992 0.0
H1436 H 0.8223 0.28819 0.95321 0.0
H1437 H 0.79852 0.26157 0.97407 0.0
H1438 H 0.83631 0.24205 0.98674 0.0
H1439 H 0.86029 0.26868 0.96525 0.0
H1440 H 0.80345 0.21454 0.97291 0.0
H1441 H 0.82464 0.2612 0.0322 0.0
H1442 H 0.83394 0.29168 0.04898 0.0
H1443 H 0.77984 0.28291 0.03708 0.0
H1444 H 0.77028 0.25248 0.01991 0.0
H1445 H 0.73734 0.14788 0.05522 0.0
H1446 H 0.76553 0.17268 0.03766 0.0
H1447 H 0.73603 0.19933 0.01384 0.0
H1448 H 0.70791 0.17476 0.03127 0.0
H1449 H 0.76783 0.22269 0.03759 0.0
H1450 H 0.74804 0.17708 0.9747 0.0
H1451 H 0.7391 0.14661 0.95818 0.0
H1452 H 0.79127 0.15337 0.97828 0.0
H1453 H 0.80043 0.1838 0.99521 0.0
C1454 C 0.82565 0.27831 0.96047 0.0
C1455 C 0.84326 0.28063 0.95769 0.0
C1456 C 0.81202 0.2631 0.9725 0.0
C1457 C 0.81572 0.24998 0.98235 0.0
C1458 C 0.8332 0.25208 0.97938 0.0
C1459 C 0.84689 0.26731 0.96716 0.0
C1460 C 0.80109 0.23403 0.9954 0.0
C1461 C 0.79589 0.21629 0.98739 0.0
C1462 C 0.79113 0.23632 0.01415 0.0
C1463 C 0.79678 0.25459 0.02462 0.0
C1464 C 0.81476 0.26582 0.03301 0.0
C1465 C 0.82007 0.28308 0.04262 0.0
C1466 C 0.8075 0.28924 0.04406 0.0
C1467 C 0.78957 0.27813 0.03595 0.0
C1468 C 0.78419 0.26086 0.02631 0.0
C1469 C 0.73683 0.15896 0.04609 0.0
C1470 C 0.72038 0.15936 0.04469 0.0
C1471 C 0.75294 0.17309 0.03604 0.0
C1472 C 0.75284 0.18782 0.02446 0.0
C1473 C 0.7364 0.18811 0.02279 0.0
C1474 C 0.72032 0.174 0.03269 0.0
C1475 C 0.76987 0.2033 0.01461 0.0
C1476 C 0.77556 0.22094 0.02333 0.0
C1477 C 0.78032 0.20088 0.99668 0.0
C1478 C 0.77483 0.18261 0.98648 0.0
C1479 C 0.75754 0.172 0.97579 0.0
C1480 C 0.75245 0.15475 0.96631 0.0
C1481 C 0.76459 0.14803 0.96725 0.0
C1482 C 0.78187 0.15858 0.97761 0.0
C1483 C 0.78702 0.17583 0.98713 0.0
H1484 H 0.76062 0.13468 0.95989 0.0
H1485 H 0.81164 0.30261 0.0515 0.0
H1486 H 0.59511 0.85661 0.44268 0.0
H1487 H 0.60009 0.8343 0.46459 0.0
H1488 H 0.54371 0.80653 0.48772 0.0
H1489 H 0.53876 0.82891 0.46649 0.0
H1490 H 0.56505 0.80768 0.52307 0.0
H1491 H 0.55848 0.79213 0.43852 0.0
H1492 H 0.56692 0.79813 0.39583 0.0
H1493 H 0.62071 0.80747 0.41196 0.0
H1494 H 0.61265 0.80174 0.45482 0.0
H1495 H 0.53559 0.7148 0.53815 0.0
H1496 H 0.54169 0.74453 0.52339 0.0
H1497 H 0.59909 0.76209 0.5167 0.0
H1498 H 0.59311 0.73219 0.53164 0.0
H1499 H 0.58404 0.76994 0.47627 0.0
H1500 H 0.58746 0.77941 0.56063 0.0
H1501 H 0.57744 0.7719 0.60262 0.0
H1502 H 0.52812 0.77276 0.58638 0.0
H1503 H 0.53771 0.78001 0.5442 0.0
C1504 C 0.58384 0.84587 0.45266 0.0
C1505 C 0.5665 0.84444 0.45267 0.0
C1506 C 0.58669 0.8331 0.4651 0.0
C1507 C 0.5722 0.8186 0.47751 0.0
C1508 C 0.5551 0.8176 0.47828 0.0
C1509 C 0.55227 0.83039 0.46602 0.0
C1510 C 0.57432 0.80383 0.48877 0.0
C1511 C 0.56919 0.79942 0.51283 0.0
C1512 C 0.58022 0.79336 0.47561 0.0
C1513 C 0.58505 0.79674 0.44988 0.0
C1514 C 0.57215 0.7956 0.43298 0.0
C1515 C 0.57686 0.79893 0.40876 0.0
C1516 C 0.59436 0.80324 0.4012 0.0
C1517 C 0.60718 0.80417 0.41785 0.0
C1518 C 0.60255 0.80088 0.4421 0.0
C1519 C 0.54953 0.72494 0.53356 0.0
C1520 C 0.56388 0.72114 0.53611 0.0
C1521 C 0.553 0.74197 0.52525 0.0
C1522 C 0.57086 0.75555 0.51927 0.0
C1523 C 0.58522 0.75178 0.52139 0.0
C1524 C 0.58179 0.73473 0.52993 0.0
C1525 C 0.57418 0.77347 0.51026 0.0
C1526 C 0.58033 0.77847 0.48666 0.0
C1527 C 0.56905 0.78437 0.52377 0.0
C1528 C 0.56328 0.78017 0.5492 0.0
C1529 C 0.57442 0.77788 0.56597 0.0
C1530 C 0.56883 0.77369 0.58981 0.0
C1531 C 0.55215 0.77183 0.59715 0.0
C1532 C 0.54104 0.77421 0.58067 0.0
C1533 C 0.54657 0.77839 0.55679 0.0
H1534 H 0.54784 0.76858 0.61562 0.0
H1535 H 0.59798 0.80581 0.38245 0.0
H1536 H 0.38727 0.45021 0.04718 0.0
H1537 H 0.39292 0.4268 0.03088 0.0
H1538 H 0.33482 0.3884 0.02951 0.0
H1539 H 0.32903 0.41214 0.04592 0.0
H1540 H 0.35371 0.37522 0.05387 0.0
H1541 H 0.35748 0.39839 0.97677 0.0
H1542 H 0.36504 0.42135 0.94494 0.0
H1543 H 0.42241 0.44238 0.95707 0.0
H1544 H 0.41524 0.41977 0.98923 0.0
H1545 H 0.40542 0.32884 0.04306 0.0
H1546 H 0.38291 0.3367 0.02735 0.0
H1547 H 0.42256 0.39416 0.03504 0.0
H1548 H 0.44474 0.38647 0.05089 0.0
H1549 H 0.40109 0.38626 0.99318 0.0
H1550 H 0.3941 0.37193 0.08044 0.0
H1551 H 0.3871 0.35025 0.11388 0.0
H1552 H 0.3354 0.31286 0.0816 0.0
H1553 H 0.34222 0.33429 0.04785 0.0
C1554 C 0.37565 0.43691 0.04294 0.0
C1555 C 0.35773 0.43293 0.04799 0.0
C1556 C 0.37888 0.42356 0.03337 0.0
C1557 C 0.36428 0.40587 0.02869 0.0
C1558 C 0.34625 0.40201 0.03276 0.0
C1559 C 0.34297 0.41556 0.04209 0.0
C1560 C 0.36854 0.39121 0.02308 0.0
C1561 C 0.36349 0.37714 0.03995 0.0
C1562 C 0.38125 0.39364 0.00491 0.0
C1563 C 0.38578 0.40729 0.98543 0.0
C1564 C 0.37171 0.40795 0.97274 0.0
C1565 C 0.37594 0.42092 0.95462 0.0
C1566 C 0.39419 0.4333 0.94897 0.0
C1567 C 0.40827 0.43274 0.96142 0.0
C1568 C 0.40413 0.41981 0.97956 0.0
C1569 C 0.40937 0.34312 0.04088 0.0
C1570 C 0.42671 0.35707 0.04845 0.0
C1571 C 0.39654 0.34757 0.03191 0.0
C1572 C 0.40109 0.36601 0.03006 0.0
C1573 C 0.4188 0.37986 0.03617 0.0
C1574 C 0.43142 0.37544 0.04543 0.0
C1575 C 0.38719 0.37137 0.02495 0.0
C1576 C 0.39048 0.38367 0.00613 0.0
C1577 C 0.37284 0.36733 0.04127 0.0
C1578 C 0.36875 0.35456 0.06155 0.0
C1579 C 0.38129 0.35903 0.08044 0.0
C1580 C 0.37736 0.34681 0.09943 0.0
C1581 C 0.36084 0.33016 0.09982 0.0
C1582 C 0.3482 0.32574 0.08124 0.0
C1583 C 0.3521 0.33791 0.06218 0.0
H1584 H 0.35781 0.32072 0.11455 0.0
H1585 H 0.39743 0.44333 0.93494 0.0
H1586 H 0.07309 0.40865 0.53917 0.0
H1587 H 0.0426 0.38261 0.52989 0.0
H1588 H 0.02529 0.38353 0.60231 0.0
H1589 H 0.05538 0.40935 0.61156 0.0
H1590 H 0.01043 0.34795 0.58438 0.0
H1591 H 0.01984 0.40874 0.55933 0.0
H1592 H 0.03537 0.43674 0.53462 0.0
H1593 H 0.0207 0.40398 0.47082 0.0
H1594 H 0.00524 0.37578 0.49524 0.0
H1595 H 0.93289 0.34898 0.61385 0.0
H1596 H 0.96177 0.35097 0.60341 0.0
H1597 H 0.94354 0.33642 0.53038 0.0
H1598 H 0.91421 0.33431 0.54091 0.0
H1599 H 0.97577 0.3682 0.53323 0.0
H1600 H 0.95471 0.30869 0.56108 0.0
H1601 H 0.93848 0.28145 0.58688 0.0
H1602 H 0.97425 0.31076 0.64538 0.0
H1603 H 0.99054 0.33828 0.62011 0.0
C1604 C 0.06287 0.40297 0.5532 0.0
C1605 C 0.06648 0.41117 0.57599 0.0
C1606 C 0.0455 0.38812 0.54788 0.0
C1607 C 0.03168 0.38121 0.56539 0.0
C1608 C 0.03577 0.38858 0.58856 0.0
C1609 C 0.05293 0.40346 0.59377 0.0
C1610 C 0.01229 0.36824 0.5594 0.0
C1611 C 0.00277 0.35213 0.57294 0.0
C1612 C 0.00244 0.37331 0.54366 0.0
C1613 C 0.01162 0.39021 0.52906 0.0
C1614 C 0.02003 0.40754 0.54003 0.0
C1615 C 0.0288 0.42343 0.5261 0.0
C1616 C 0.02907 0.42214 0.50117 0.0
C1617 C 0.02052 0.40495 0.49013 0.0
C1618 C 0.01176 0.38902 0.504 0.0
C1619 C 0.93483 0.3458 0.59567 0.0
C1620 C 0.9214 0.34167 0.57813 0.0
C1621 C 0.9513 0.34674 0.58976 0.0
C1622 C 0.95478 0.34365 0.56615 0.0
C1623 C 0.94106 0.33868 0.54875 0.0
C1624 C 0.92435 0.33747 0.55478 0.0
C1625 C 0.97374 0.34857 0.55959 0.0
C1626 C 0.98326 0.36325 0.54369 0.0
C1627 C 0.98354 0.34213 0.57317 0.0
C1628 C 0.9739 0.32559 0.5886 0.0
C1629 C 0.95908 0.30938 0.57948 0.0
C1630 C 0.94987 0.29387 0.59402 0.0
C1631 C 0.95534 0.29437 0.61774 0.0
C1632 C 0.97006 0.31038 0.62697 0.0
C1633 C 0.97932 0.32593 0.61252 0.0
H1634 H 0.94818 0.28235 0.62897 0.0
H1635 H 0.03587 0.43445 0.49041 0.0
H1636 H 0.58308 0.91597 0.0472 0.0
H1637 H 0.60662 0.94594 0.03191 0.0
H1638 H 0.60382 0.97132 0.09762 0.0
H1639 H 0.5806 0.9417 0.11291 0.0
H1640 H 0.60186 0.97426 0.02294 0.0
H1641 H 0.64238 0.00727 0.11183 0.0
H1642 H 0.6556 0.99846 0.14509 0.0
H1643 H 0.65757 0.95798 0.10058 0.0
H1644 H 0.64463 0.96672 0.06689 0.0
H1645 H 0.61249 0.05661 0.05609 0.0
H1646 H 0.60806 0.02656 0.04673 0.0
H1647 H 0.66657 0.04938 0.04167 0.0
H1648 H 0.67111 0.07983 0.05132 0.0
H1649 H 0.65237 0.02175 0.07193 0.0
H1650 H 0.63979 0.02789 0.99238 0.0
H1651 H 0.62761 0.0366 0.95781 0.0
H1652 H 0.57266 0.99883 0.98036 0.0
H1653 H 0.58445 0.99009 0.01527 0.0
C1654 C 0.58779 0.92791 0.05854 0.0
C1655 C 0.57989 0.9265 0.0812 0.0
C1656 C 0.60122 0.945 0.04977 0.0
C1657 C 0.60714 0.96085 0.0637 0.0
C1658 C 0.59977 0.95927 0.0867 0.0
C1659 C 0.58633 0.94231 0.09536 0.0
C1660 C 0.6192 0.97939 0.05365 0.0
C1661 C 0.61315 0.98464 0.03334 0.0
C1662 C 0.63447 0.9928 0.06659 0.0
C1663 C 0.64252 0.98768 0.08678 0.0
C1664 C 0.64579 0.99661 0.10902 0.0
C1665 C 0.65319 0.99159 0.12799 0.0
C1666 C 0.65741 0.97767 0.12495 0.0
C1667 C 0.65426 0.96875 0.10292 0.0
C1668 C 0.64687 0.97371 0.08389 0.0
C1669 C 0.62443 0.05536 0.05241 0.0
C1670 C 0.64215 0.07052 0.05468 0.0
C1671 C 0.62188 0.03816 0.0468 0.0
C1672 C 0.63697 0.03568 0.04328 0.0
C1673 C 0.65472 0.051 0.04416 0.0
C1674 C 0.65729 0.06837 0.04962 0.0
C1675 C 0.63386 0.01673 0.0426 0.0
C1676 C 0.6416 0.01137 0.0609 0.0
C1677 C 0.62036 0.00321 0.02754 0.0
C1678 C 0.61305 0.0083 0.00648 0.0
C1679 C 0.6251 0.02149 0.99005 0.0
C1680 C 0.61826 0.02643 0.97037 0.0
C1681 C 0.59938 0.01826 0.96688 0.0
C1682 C 0.58729 0.00512 0.98305 0.0
C1683 C 0.59405 0.00012 0.00276 0.0
H1684 H 0.59411 0.02212 0.95164 0.0
H1685 H 0.66313 0.9738 0.13967 0.0
H1686 H 0.63243 0.57914 0.60662 0.0
H1687 H 0.62691 0.60237 0.58926 0.0
H1688 H 0.65841 0.6052 0.52688 0.0
H1689 H 0.66395 0.58162 0.54428 0.0
H1690 H 0.64596 0.63699 0.57277 0.0
H1691 H 0.63382 0.6081 0.47891 0.0
H1692 H 0.62848 0.58035 0.4571 0.0
H1693 H 0.60119 0.54725 0.5186 0.0
H1694 H 0.60623 0.57478 0.54063 0.0
H1695 H 0.58783 0.66958 0.53575 0.0
H1696 H 0.61367 0.66481 0.52695 0.0
H1697 H 0.57784 0.60639 0.53387 0.0
H1698 H 0.5522 0.61099 0.54187 0.0
H1699 H 0.60376 0.6124 0.50338 0.0
H1700 H 0.6004 0.63537 0.58409 0.0
H1701 H 0.60119 0.65909 0.6108 0.0
H1702 H 0.6537 0.69859 0.58241 0.0
H1703 H 0.65308 0.67508 0.55539 0.0
C1704 C 0.6385 0.58493 0.58941 0.0
C1705 C 0.64839 0.57837 0.57666 0.0
C1706 C 0.63547 0.59835 0.57957 0.0
C1707 C 0.64213 0.60542 0.55669 0.0
C1708 C 0.65309 0.59984 0.54453 0.0
C1709 C 0.65625 0.58641 0.5545 0.0
C1710 C 0.63528 0.6166 0.54494 0.0
C1711 C 0.63717 0.632 0.55713 0.0
C1712 C 0.62382 0.6101 0.52454 0.0
C1713 C 0.62063 0.59349 0.51145 0.0
C1714 C 0.62668 0.59488 0.48773 0.0
C1715 C 0.6237 0.57921 0.47534 0.0
C1716 C 0.61456 0.56206 0.48649 0.0
C1717 C 0.60832 0.56054 0.51002 0.0
C1718 C 0.61125 0.57617 0.52246 0.0
C1719 C 0.5854 0.65571 0.53456 0.0
C1720 C 0.5681 0.64067 0.54007 0.0
C1721 C 0.60018 0.65301 0.52959 0.0
C1722 C 0.5978 0.63526 0.53027 0.0
C1723 C 0.58011 0.62022 0.5333 0.0
C1724 C 0.56543 0.62289 0.53813 0.0
C1725 C 0.61353 0.63204 0.53218 0.0
C1726 C 0.61342 0.6182 0.51807 0.0
C1727 C 0.62617 0.63955 0.55133 0.0
C1728 C 0.6266 0.6536 0.5676 0.0
C1729 C 0.61206 0.64914 0.58353 0.0
C1730 C 0.61248 0.66253 0.59869 0.0
C1731 C 0.62746 0.68035 0.59825 0.0
C1732 C 0.64208 0.6848 0.58268 0.0
C1733 C 0.64171 0.67146 0.56744 0.0
H1734 H 0.62776 0.6907 0.61 0.0
H1735 H 0.61227 0.54994 0.47688 0.0
H1736 H 0.93213 0.56663 0.12463 0.0
H1737 H 0.96394 0.58848 0.11465 0.0
H1738 H 0.94888 0.58682 0.04039 0.0
H1739 H 0.91679 0.56577 0.05071 0.0
H1740 H 0.98424 0.58129 0.09047 0.0
H1741 H 0.98193 0.62343 0.00939 0.0
H1742 H 0.96377 0.63716 0.99525 0.0
H1743 H 0.94827 0.64015 0.0676 0.0
H1744 H 0.96653 0.62667 0.08221 0.0
H1745 H 0.06494 0.61107 0.03513 0.0
H1746 H 0.03247 0.60153 0.03301 0.0
H1747 H 0.04344 0.65196 0.06698 0.0
H1748 H 0.07617 0.66189 0.06833 0.0
H1749 H 0.01096 0.63593 0.03751 0.0
H1750 H 0.03811 0.62046 0.10269 0.0
H1751 H 0.05757 0.60917 0.11986 0.0
H1752 H 0.02386 0.55674 0.08687 0.0
H1753 H 0.0044 0.56786 0.06912 0.0
C1754 C 0.93559 0.57126 0.10628 0.0
C1755 C 0.9221 0.56447 0.0884 0.0
C1756 C 0.95375 0.58373 0.10055 0.0
C1757 C 0.95891 0.58932 0.07673 0.0
C1758 C 0.94529 0.58304 0.05896 0.0
C1759 C 0.92697 0.57091 0.06483 0.0
C1760 C 0.97867 0.59984 0.07034 0.0
C1761 C 0.98996 0.5933 0.07901 0.0
C1762 C 0.98636 0.61559 0.05543 0.0
C1763 C 0.97547 0.62387 0.04686 0.0
C1764 C 0.97471 0.62708 0.02229 0.0
C1765 C 0.96438 0.63481 0.01419 0.0
C1766 C 0.95483 0.63947 0.03051 0.0
C1767 C 0.95562 0.63647 0.05497 0.0
C1768 C 0.96593 0.62875 0.06317 0.0
C1769 C 0.06054 0.62049 0.04109 0.0
C1770 C 0.07292 0.63705 0.05223 0.0
C1771 C 0.04201 0.61505 0.03984 0.0
C1772 C 0.03555 0.62586 0.05038 0.0
C1773 C 0.04817 0.64343 0.05879 0.0
C1774 C 0.06686 0.64906 0.0596 0.0
C1775 C 0.01607 0.61715 0.05755 0.0
C1776 C 0.00499 0.62396 0.04903 0.0
C1777 C 0.00855 0.60194 0.07327 0.0
C1778 C 0.01992 0.59504 0.08441 0.0
C1779 C 0.03492 0.60656 0.099 0.0
C1780 C 0.04594 0.60019 0.10883 0.0
C1781 C 0.04198 0.58226 0.10442 0.0
C1782 C 0.02693 0.57064 0.09024 0.0
C1783 C 0.0159 0.57696 0.08029 0.0
H1784 H 0.05054 0.57735 0.11203 0.0
H1785 H 0.94683 0.64544 0.0242 0.0
H1786 H 0.44707 0.06434 0.58863 0.0
H1787 H 0.42496 0.03254 0.57993 0.0
H1788 H 0.38554 0.04792 0.55773 0.0
H1789 H 0.40796 0.08029 0.56617 0.0
H1790 H 0.37256 0.01608 0.59162 0.0
H1791 H 0.39918 0.03519 0.5151 0.0
H1792 H 0.42388 0.05168 0.48566 0.0
H1793 H 0.44916 0.02067 0.50741 0.0
H1794 H 0.42479 0.00419 0.53726 0.0
H1795 H 0.3317 0.91706 0.57116 0.0
H1796 H 0.33934 0.94864 0.56134 0.0
H1797 H 0.39566 0.96804 0.58043 0.0
H1798 H 0.38821 0.93702 0.59053 0.0
H1799 H 0.39073 0.98207 0.53602 0.0
H1800 H 0.36928 0.9714 0.61989 0.0
H1801 H 0.34543 0.95547 0.6506 0.0
H1802 H 0.31029 0.97083 0.61415 0.0
H1803 H 0.33389 0.98666 0.58306 0.0
C1804 C 0.43373 0.06108 0.58192 0.0
C1805 C 0.42928 0.07488 0.57811 0.0
C1806 C 0.42113 0.04287 0.57685 0.0
C1807 C 0.40371 0.03794 0.56801 0.0
C1808 C 0.39898 0.05153 0.56445 0.0
C1809 C 0.41178 0.06996 0.56923 0.0
C1810 C 0.39078 0.01835 0.56311 0.0
C1811 C 0.37606 0.00862 0.57887 0.0
C1812 C 0.39541 0.00868 0.54649 0.0
C1813 C 0.41012 0.01845 0.52847 0.0
C1814 C 0.41006 0.03195 0.51372 0.0
C1815 C 0.42401 0.04129 0.49694 0.0
C1816 C 0.43808 0.03722 0.49467 0.0
C1817 C 0.43823 0.02378 0.50917 0.0
C1818 C 0.42433 0.01441 0.52599 0.0
C1819 C 0.3457 0.92811 0.57315 0.0
C1820 C 0.35933 0.92459 0.58176 0.0
C1821 C 0.35002 0.94607 0.56754 0.0
C1822 C 0.36808 0.96061 0.57008 0.0
C1823 C 0.38168 0.957 0.5782 0.0
C1824 C 0.37735 0.93925 0.58414 0.0
C1825 C 0.37323 0.97987 0.56538 0.0
C1826 C 0.38658 0.98952 0.54789 0.0
C1827 C 0.3673 0.98943 0.58033 0.0
C1828 C 0.3532 0.97996 0.59901 0.0
C1829 C 0.3564 0.97122 0.61833 0.0
C1830 C 0.34295 0.96225 0.63582 0.0
C1831 C 0.32632 0.96208 0.63428 0.0
C1832 C 0.32315 0.97093 0.61528 0.0
C1833 C 0.33655 0.9799 0.59773 0.0
H1834 H 0.31593 0.95513 0.64784 0.0
H1835 H 0.44887 0.04447 0.48167 0.0
H1836 H 0.58844 0.67487 0.93782 0.0
H1837 H 0.61447 0.67221 0.95296 0.0
H1838 H 0.57867 0.61402 0.96234 0.0
H1839 H 0.55304 0.61656 0.94718 0.0
H1840 H 0.60495 0.62929 -0.00155 0.0
H1841 H 0.60064 0.63064 0.90897 0.0
H1842 H 0.60198 0.64714 0.87179 0.0
H1843 H 0.65508 0.69126 0.89166 0.0
H1844 H 0.65392 0.67504 0.92906 0.0
H1845 H 0.61374 0.56065 0.95031 0.0
H1846 H 0.60933 0.5858 0.9629 0.0
H1847 H 0.66735 0.62351 0.95629 0.0
H1848 H 0.67194 0.598 0.94403 0.0
H1849 H 0.64456 0.63347 0.93029 0.0
H1850 H 0.65162 0.62084 0.00982 0.0
H1851 H 0.649 0.60227 0.0453 0.0
H1852 H 0.59058 0.57871 0.04476 0.0
H1853 H 0.59278 0.59688 0.00907 0.0
C1854 C 0.58615 0.66164 0.9437 0.0
C1855 C 0.56885 0.64586 0.94104 0.0
C1856 C 0.60097 0.66014 0.95234 0.0
C1857 C 0.59849 0.64291 0.9587 0.0
C1858 C 0.5809 0.62747 0.95768 0.0
C1859 C 0.56628 0.6289 0.94879 0.0
C1860 C 0.61408 0.63985 0.96297 0.0
C1861 C 0.61396 0.63052 0.98384 0.0
C1862 C 0.62638 0.64215 0.94429 0.0
C1863 C 0.62712 0.65177 0.92182 0.0
C1864 C 0.61255 0.6439 0.9054 0.0
C1865 C 0.61328 0.65319 0.88432 0.0
C1866 C 0.62858 0.67026 0.8794 0.0
C1867 C 0.64321 0.67806 0.89552 0.0
C1868 C 0.64253 0.66883 0.91666 0.0
C1869 C 0.62562 0.57423 0.95188 0.0
C1870 C 0.64315 0.57742 0.94606 0.0
C1871 C 0.62312 0.58858 0.9593 0.0
C1872 C 0.63805 0.60648 0.96081 0.0
C1873 C 0.6557 0.60974 0.9555 0.0
C1874 C 0.65828 0.5952 0.9485 0.0
C1875 C 0.63428 0.62161 0.96502 0.0
C1876 C 0.63657 0.63319 0.94568 0.0
C1877 C 0.62394 0.62131 0.98512 0.0
C1878 C 0.6224 0.61033 0.00674 0.0
C1879 C 0.6382 0.61165 0.01719 0.0
C1880 C 0.63678 0.60118 0.03736 0.0
C1881 C 0.61964 0.58934 0.0473 0.0
C1882 C 0.60386 0.58794 0.03709 0.0
C1883 C 0.60519 0.59836 0.01691 0.0
H1884 H 0.61857 0.58125 0.0629 0.0
H1885 H 0.62913 0.67744 0.86307 0.0
H1886 H 0.94621 0.58485 0.4728 0.0
H1887 H 0.97295 0.61163 0.48899 0.0
H1888 H 0.95222 0.64618 0.46362 0.0
H1889 H 0.9249 0.61892 0.4477 0.0
H1890 H 0.9856 0.65557 0.44508 0.0
H1891 H 0.96347 0.65009 0.52253 0.0
H1892 H 0.94648 0.63523 0.55943 0.0
H1893 H 0.98162 0.61286 0.57201 0.0
H1894 H 0.99865 0.62729 0.53502 0.0
H1895 H 0.08074 0.69125 0.45164 0.0
H1896 H 0.0547 0.69367 0.4672 0.0
H1897 H 0.02814 0.63689 0.4887 0.0
H1898 H 0.05374 0.63447 0.47314 0.0
H1899 H 0.01914 0.6575 0.51895 0.0
H1900 H 0.02308 0.64786 0.42993 0.0
H1901 H 0.03912 0.65977 0.39142 0.0
H1902 H 0.03748 0.70944 0.40145 0.0
H1903 H 0.02154 0.69781 0.44011 0.0
C1904 C 0.94706 0.59808 0.47141 0.0
C1905 C 0.93365 0.59993 0.45898 0.0
C1906 C 0.96226 0.61339 0.48088 0.0
C1907 C 0.96454 0.63095 0.47779 0.0
C1908 C 0.95061 0.63274 0.4665 0.0
C1909 C 0.93507 0.61723 0.45741 0.0
C1910 C 0.98301 0.64696 0.48192 0.0
C1911 C 0.99286 0.65673 0.46162 0.0
C1912 C 0.99252 0.64867 0.5035 0.0
C1913 C 0.98245 0.63994 0.52598 0.0
C1914 C 0.96756 0.64196 0.53311 0.0
C1915 C 0.95791 0.6336 0.55406 0.0
C1916 C 0.96299 0.62315 0.56808 0.0
C1917 C 0.97774 0.62103 0.56117 0.0
C1918 C 0.98745 0.62936 0.54024 0.0
C1919 C 0.0696 0.67955 0.46051 0.0
C1920 C 0.069 0.66259 0.46093 0.0
C1921 C 0.05478 0.68094 0.46938 0.0
C1922 C 0.03941 0.66542 0.47893 0.0
C1923 C 0.03984 0.64908 0.48154 0.0
C1924 C 0.05441 0.64764 0.47244 0.0
C1925 C 0.02142 0.66436 0.48155 0.0
C1926 C 0.01174 0.65747 0.50305 0.0
C1927 C 0.01198 0.66519 0.46109 0.0
C1928 C 0.02129 0.67207 0.43784 0.0
C1929 C 0.02617 0.66132 0.42386 0.0
C1930 C 0.03525 0.66802 0.40206 0.0
C1931 C 0.03934 0.68537 0.39401 0.0
C1932 C 0.03433 0.69603 0.40773 0.0
C1933 C 0.02529 0.6894 0.42958 0.0
H1934 H 0.04637 0.69054 0.37713 0.0
H1935 H 0.95549 0.61667 0.58429 0.0
H1936 H 0.43973 0.06847 0.86991 0.0
H1937 H 0.41541 0.03685 0.87468 0.0
H1938 H 0.39685 0.05138 0.93855 0.0
H1939 H 0.42137 0.08343 0.93383 0.0
H1940 H 0.4012 0.02075 0.94428 0.0
H1941 H 0.36967 0.03945 0.89209 0.0
H1942 H 0.3654 0.05512 0.85753 0.0
H1943 H 0.37528 0.02131 0.80941 0.0
H1944 H 0.37991 0.00561 0.84366 0.0
H1945 H 0.34054 0.92291 0.93718 0.0
H1946 H 0.34848 0.95515 0.94043 0.0
H1947 H 0.38029 0.96762 0.87555 0.0
H1948 H 0.3725 0.93577 0.87218 0.0
H1949 H 0.36015 0.98506 0.8773 0.0
H1950 H 0.40045 0.97404 0.9297 0.0
H1951 H 0.40628 0.95909 0.96387 0.0
H1952 H 0.38008 0.97899 0.01132 0.0
H1953 H 0.37391 0.99388 0.97733 0.0
C1954 C 0.43044 0.06505 0.88491 0.0
C1955 C 0.43252 0.07846 0.90154 0.0
C1956 C 0.41643 0.04696 0.88752 0.0
C1957 C 0.40419 0.04182 0.90681 0.0
C1958 C 0.4061 0.05514 0.92345 0.0
C1959 C 0.42006 0.0734 0.9207 0.0
C1960 C 0.39034 0.02222 0.90997 0.0
C1961 C 0.39177 0.01297 0.93001 0.0
C1962 C 0.37811 0.0121 0.89128 0.0
C1963 C 0.37517 0.02136 0.87051 0.0
C1964 C 0.37104 0.03541 0.87415 0.0
C1965 C 0.36854 0.0443 0.8546 0.0
C1966 C 0.37007 0.03922 0.83129 0.0
C1967 C 0.37407 0.02521 0.82748 0.0
C1968 C 0.3766 0.01629 0.84696 0.0
C1969 C 0.34903 0.93252 0.92348 0.0
C1970 C 0.35604 0.92684 0.90455 0.0
C1971 C 0.35356 0.9509 0.92538 0.0
C1972 C 0.36503 0.96377 0.90827 0.0
C1973 C 0.37136 0.95791 0.88889 0.0
C1974 C 0.367 0.9397 0.8871 0.0
C1975 C 0.37177 0.98362 0.91098 0.0
C1976 C 0.369 0.9929 0.89202 0.0
C1977 C 0.38278 0.99376 0.93062 0.0
C1978 C 0.3865 0.98484 0.95098 0.0
C1979 C 0.39581 0.97509 0.9474 0.0
C1980 C 0.3992 0.96666 0.96672 0.0
C1981 C 0.39349 0.96803 0.98973 0.0
C1982 C 0.38444 0.9779 0.99347 0.0
C1983 C 0.381 0.98633 0.97419 0.0
H1984 H 0.39613 0.9615 0.00468 0.0
H1985 H 0.36815 0.04613 0.81618 0.0
H1986 H 0.32597 0.40676 0.44253 0.0
H1987 H 0.3313 0.38124 0.45126 0.0
H1988 H 0.38963 0.41857 0.44893 0.0
H1989 H 0.38443 0.44384 0.44051 0.0
H1990 H 0.34678 0.36948 0.42087 0.0
H1991 H 0.41341 0.40572 0.48013 0.0
H1992 H 0.42393 0.42517 0.51613 0.0
H1993 H 0.36818 0.4057 0.53695 0.0
H1994 H 0.35728 0.38588 0.50127 0.0
H1995 H 0.42082 0.36547 0.38039 0.0
H1996 H 0.39676 0.37044 0.3959 0.0
H1997 H 0.39354 0.34027 0.45991 0.0
H1998 H 0.41792 0.33524 0.44437 0.0
H1999 H 0.39703 0.37274 0.47065 0.0
H2000 H 0.35622 0.32318 0.42394 0.0
H2001 H 0.3445 0.30247 0.38916 0.0
H2002 H 0.34585 0.34556 0.3466 0.0
H2003 H 0.35785 0.36663 0.38097 0.0
C2004 C 0.3399 0.40955 0.44461 0.0
C2005 C 0.3548 0.42724 0.44058 0.0
C2006 C 0.34292 0.39496 0.44955 0.0
C2007 C 0.36086 0.39797 0.45093 0.0
C2008 C 0.37566 0.41589 0.44846 0.0
C2009 C 0.37267 0.43034 0.44337 0.0
C2010 C 0.36456 0.38251 0.451 0.0
C2011 C 0.35749 0.36991 0.43206 0.0
C2012 C 0.37796 0.3825 0.46625 0.0
C2013 C 0.38451 0.39426 0.48795 0.0
C2014 C 0.40337 0.40542 0.49248 0.0
C2015 C 0.4094 0.41657 0.51282 0.0
C2016 C 0.39673 0.41668 0.52882 0.0
C2017 C 0.37799 0.40563 0.52452 0.0
C2018 C 0.37187 0.39445 0.50422 0.0
C2019 C 0.41483 0.35961 0.39761 0.0
C2020 C 0.42137 0.35008 0.41122 0.0
C2021 C 0.40092 0.36232 0.40638 0.0
C2022 C 0.39317 0.35554 0.42896 0.0
C2023 C 0.39923 0.34549 0.44236 0.0
C2024 C 0.41313 0.34262 0.43345 0.0
C2025 C 0.38044 0.36108 0.4392 0.0
C2026 C 0.3858 0.37177 0.46007 0.0
C2027 C 0.36524 0.35909 0.426 0.0
C2028 C 0.35792 0.3465 0.40513 0.0
C2029 C 0.3541 0.32828 0.40714 0.0
C2030 C 0.3474 0.31647 0.38748 0.0
C2031 C 0.34442 0.32269 0.36569 0.0
C2032 C 0.34812 0.34074 0.36351 0.0
C2033 C 0.35483 0.35262 0.38311 0.0
H2034 H 0.33924 0.31353 0.35049 0.0
H2035 H 0.40144 0.42533 0.54454 0.0
H2036 H 0.06264 0.42995 0.87931 0.0
H2037 H 0.03234 0.40638 0.89203 0.0
H2038 H 0.05567 0.39491 0.95381 0.0
H2039 H 0.0864 0.41877 0.94109 0.0
H2040 H 0.01544 0.36974 0.90101 0.0
H2041 H 0.02396 0.38646 -0.00013 0.0
H2042 H 0.04451 0.41084 0.02782 0.0
H2043 H 0.05633 0.45146 0.97365 0.0
H2044 H 0.03572 0.42733 0.94553 0.0
H2045 H 0.92204 0.3287 0.93568 0.0
H2046 H 0.95342 0.33503 0.94319 0.0
H2047 H 0.97274 0.39307 0.94192 0.0
H2048 H 0.94176 0.38689 0.93457 0.0
H2049 H 0.99226 0.38529 0.97372 0.0
H2050 H 0.97007 0.36997 0.89007 0.0
H2051 H 0.9492 0.34856 0.85951 0.0
H2052 H 0.96467 0.30899 0.87966 0.0
H2053 H 0.9855 0.33015 0.91052 0.0
C2054 C 0.06143 0.42232 0.89547 0.0
C2055 C 0.07691 0.42639 0.90934 0.0
C2056 C 0.04408 0.4087 0.90262 0.0
C2057 C 0.04172 0.39891 0.92389 0.0
C2058 C 0.0572 0.40235 0.93735 0.0
C2059 C 0.07471 0.41596 0.93006 0.0
C2060 C 0.02283 0.38661 0.9326 0.0
C2061 C 0.01042 0.37275 0.91728 0.0
C2062 C 0.01625 0.39048 0.95384 0.0
C2063 C 0.02854 0.4051 0.97057 0.0
C2064 C 0.03096 0.4006 0.99398 0.0
C2065 C 0.0426 0.41437 0.00984 0.0
C2066 C 0.05178 0.43268 0.00248 0.0
C2067 C 0.04928 0.43727 0.97929 0.0
C2068 C 0.03763 0.42356 0.96339 0.0
C2069 C 0.93295 0.34277 0.93772 0.0
C2070 C 0.92957 0.35733 0.93416 0.0
C2071 C 0.95084 0.34636 0.94198 0.0
C2072 C 0.96545 0.36453 0.94287 0.0
C2073 C 0.96172 0.37895 0.94137 0.0
C2074 C 0.944 0.3754 0.93694 0.0
C2075 C 0.98483 0.36906 0.94153 0.0
C2076 C 0.99734 0.38146 0.95821 0.0
C2077 C 0.9915 0.36411 0.92131 0.0
C2078 C 0.97913 0.3515 0.90271 0.0
C2079 C 0.96893 0.35666 0.88803 0.0
C2080 C 0.95713 0.34459 0.87067 0.0
C2081 C 0.95557 0.3274 0.86769 0.0
C2082 C 0.96586 0.32228 0.88203 0.0
C2083 C 0.97766 0.3343 0.89945 0.0
H2084 H 0.94643 0.31807 0.85424 0.0
H2085 H 0.0608 0.44331 0.01478 0.0
H2086 H 0.57639 0.94212 0.38422 0.0
H2087 H 0.5987 0.97275 0.39764 0.0
H2088 H 0.60442 0.95074 0.46475 0.0
H2089 H 0.58188 0.91973 0.45131 0.0
H2090 H 0.59763 0.97852 0.47144 0.0
H2091 H 0.64124 0.97107 0.42894 0.0
H2092 H 0.65424 0.96171 0.39602 0.0
H2093 H 0.65013 -0.00035 0.34871 0.0
H2094 H 0.63684 0.00905 0.3812 0.0
H2095 H 0.66582 0.08363 0.43982 0.0
H2096 H 0.66136 0.05337 0.45051 0.0
H2097 H 0.6029 0.03005 0.4436 0.0
H2098 H 0.60724 0.05993 0.43306 0.0
H2099 H 0.64726 0.02509 0.42038 0.0
H2100 H 0.57953 0.99407 0.47704 0.0
H2101 H 0.56738 0.00347 0.51089 0.0
H2102 H 0.62208 0.04251 0.53289 0.0
H2103 H 0.63461 0.03316 0.4994 0.0
C2104 C 0.58257 0.9437 0.4017 0.0
C2105 C 0.57728 0.92851 0.41676 0.0
C2106 C 0.59547 0.96123 0.40928 0.0
C2107 C 0.60338 0.96403 0.43211 0.0
C2108 C 0.59857 0.94885 0.447 0.0
C2109 C 0.58573 0.93117 0.43928 0.0
C2110 C 0.61497 0.98304 0.4409 0.0
C2111 C 0.60873 0.98872 0.46059 0.0
C2112 C 0.62992 0.99625 0.4273 0.0
C2113 C 0.63803 0.99078 0.40759 0.0
C2114 C 0.64302 0.97736 0.41149 0.0
C2115 C 0.65045 0.97205 0.39289 0.0
C2116 C 0.65302 0.98008 0.37029 0.0
C2117 C 0.64817 0.99346 0.36625 0.0
C2118 C 0.64072 0.99882 0.38478 0.0
C2119 C 0.65202 0.07211 0.44129 0.0
C2120 C 0.63687 0.07407 0.43541 0.0
C2121 C 0.6495 0.05485 0.44733 0.0
C2122 C 0.6318 0.03946 0.44803 0.0
C2123 C 0.61667 0.04173 0.44363 0.0
C2124 C 0.61918 0.05883 0.43738 0.0
C2125 C 0.62885 0.0206 0.44965 0.0
C2126 C 0.63669 0.01493 0.43186 0.0
C2127 C 0.61554 0.00741 0.46521 0.0
C2128 C 0.60803 0.01289 0.48563 0.0
C2129 C 0.589 0.00454 0.4892 0.0
C2130 C 0.58204 0.0099 0.50831 0.0
C2131 C 0.59395 0.02358 0.52403 0.0
C2132 C 0.61286 0.03193 0.52068 0.0
C2133 C 0.61991 0.02662 0.50161 0.0
H2134 H 0.58853 0.02772 0.5388 0.0
H2135 H 0.65876 0.97594 0.35592 0.0
H2136 H 0.47762 0.64745 0.95012 0.0
H2137 H 0.44943 0.63217 0.97405 0.0
H2138 H 0.44297 0.57959 0.9551 0.0
H2139 H 0.47022 0.59454 0.93057 0.0
H2140 H 0.41133 0.57609 0.95624 0.0
H2141 H 0.46519 0.60512 0.00977 0.0
H2142 H 0.49248 0.6322 0.0262 0.0
H2143 H 0.45948 0.65563 0.04649 0.0
H2144 H 0.43201 0.6287 0.03001 0.0
H2145 H 0.40053 0.53097 0.07514 0.0
H2146 H 0.41626 0.55863 0.05132 0.0
H2147 H 0.36472 0.54787 0.02099 0.0
H2148 H 0.34886 0.51935 0.04408 0.0
H2149 H 0.41865 0.58952 0.04325 0.0
H2150 H 0.37118 0.56047 0.96303 0.0
H2151 H 0.34723 0.53091 0.94653 0.0
H2152 H 0.37264 0.50341 0.98007 0.0
H2153 H 0.3968 0.53283 0.99655 0.0
C2154 C 0.46998 0.63262 0.95085 0.0
C2155 C 0.47622 0.62221 0.93858 0.0
C2156 C 0.45391 0.62391 0.96457 0.0
C2157 C 0.44413 0.6047 0.96664 0.0
C2158 C 0.45011 0.5944 0.95371 0.0
C2159 C 0.46584 0.60301 0.93975 0.0
C2160 C 0.42854 0.59493 0.98351 0.0
C2161 C 0.41278 0.57923 0.97523 0.0
C2162 C 0.43024 0.59905 0.00828 0.0
C2163 C 0.44665 0.61505 0.01845 0.0
C2164 C 0.4638 0.61609 0.01768 0.0
C2165 C 0.47928 0.6314 0.02699 0.0
C2166 C 0.47773 0.64566 0.03731 0.0
C2167 C 0.46067 0.6446 0.03844 0.0
C2168 C 0.44514 0.62932 0.02914 0.0
C2169 C 0.39243 0.53456 0.06371 0.0
C2170 C 0.37348 0.52272 0.06111 0.0
C2171 C 0.40146 0.55054 0.05017 0.0
C2172 C 0.39176 0.55522 0.03394 0.0
C2173 C 0.37257 0.54434 0.03297 0.0
C2174 C 0.36352 0.52806 0.04621 0.0
C2175 C 0.40225 0.56994 0.01612 0.0
C2176 C 0.41685 0.58672 0.02418 0.0
C2177 C 0.39993 0.56645 0.99119 0.0
C2178 C 0.38558 0.54875 0.98126 0.0
C2179 C 0.37162 0.5481 0.96684 0.0
C2180 C 0.35803 0.53138 0.9575 0.0
C2181 C 0.35836 0.51528 0.96234 0.0
C2182 C 0.37235 0.51587 0.97642 0.0
C2183 C 0.38599 0.53255 0.98576 0.0
H2184 H 0.34782 0.50235 0.95512 0.0
H2185 H 0.48973 0.65752 0.04447 0.0
H2186 H 0.84465 0.36492 0.53648 0.0
H2187 H 0.84033 0.38736 0.51361 0.0
H2188 H 0.88995 0.43118 0.5443 0.0
H2189 H 0.89399 0.40912 0.56753 0.0
H2190 H 0.8653 0.4407 0.54446 0.0
H2191 H 0.88756 0.41362 0.48629 0.0
H2192 H 0.88629 0.38814 0.46304 0.0
H2193 H 0.83421 0.37574 0.43389 0.0
H2194 H 0.8351 0.40104 0.4572 0.0
H2195 H 0.89837 0.50019 0.43242 0.0
H2196 H 0.89019 0.47166 0.45291 0.0
H2197 H 0.84644 0.47404 0.48965 0.0
H2198 H 0.85489 0.50308 0.46954 0.0
H2199 H 0.86172 0.43853 0.45579 0.0
H2200 H 0.84361 0.45754 0.54642 0.0
H2201 H 0.84956 0.48496 0.5695 0.0
H2202 H 0.90099 0.51664 0.53329 0.0
H2203 H 0.89543 0.48937 0.51024 0.0
C2204 C 0.8546 0.37935 0.53832 0.0
C2205 C 0.86965 0.38523 0.55384 0.0
C2206 C 0.85213 0.39215 0.52523 0.0
C2207 C 0.86485 0.41098 0.52718 0.0
C2208 C 0.87985 0.41677 0.54265 0.0
C2209 C 0.88218 0.40409 0.55587 0.0
C2210 C 0.86306 0.42492 0.51299 0.0
C2211 C 0.86428 0.4401 0.52507 0.0
C2212 C 0.86181 0.42423 0.4877 0.0
C2213 C 0.86128 0.40905 0.4737 0.0
C2214 C 0.87578 0.40536 0.47505 0.0
C2215 C 0.87514 0.39097 0.46184 0.0
C2216 C 0.86015 0.38028 0.44706 0.0
C2217 C 0.84579 0.384 0.44539 0.0
C2218 C 0.84635 0.39836 0.45859 0.0
C2219 C 0.88691 0.49464 0.4447 0.0
C2220 C 0.87744 0.50407 0.44956 0.0
C2221 C 0.88216 0.47821 0.45631 0.0
C2222 C 0.86781 0.47077 0.47299 0.0
C2223 C 0.85772 0.47966 0.47708 0.0
C2224 C 0.86257 0.49624 0.46556 0.0
C2225 C 0.86457 0.45454 0.48725 0.0
C2226 C 0.86227 0.4389 0.4752 0.0
C2227 C 0.86543 0.45505 0.51256 0.0
C2228 C 0.86897 0.47149 0.5264 0.0
C2229 C 0.85619 0.47036 0.54343 0.0
C2230 C 0.85949 0.48587 0.5565 0.0
C2231 C 0.8756 0.50254 0.55279 0.0
C2232 C 0.88848 0.50373 0.53608 0.0
C2233 C 0.88525 0.48827 0.52299 0.0
H2234 H 0.87813 0.51453 0.56291 0.0
H2235 H 0.85968 0.36915 0.43684 0.0
H2236 H 0.39526 0.85934 0.92164 0.0
H2237 H 0.41372 0.85438 0.95112 0.0
H2238 H 0.37947 0.85519 0.00787 0.0
H2239 H 0.36069 0.85996 0.97833 0.0
H2240 H 0.41738 0.87991 0.01379 0.0
H2241 H 0.37753 0.81641 0.99725 0.0
H2242 H 0.36061 0.78911 0.97176 0.0
H2243 H 0.41126 0.79706 0.94291 0.0
H2244 H 0.42849 0.82457 0.96797 0.0
H2245 H 0.47246 0.86885 0.09904 0.0
H2246 H 0.44518 0.86291 0.07661 0.0
H2247 H 0.46732 0.85198 0.01316 0.0
H2248 H 0.49432 0.85715 0.03581 0.0
H2249 H 0.43193 0.82971 0.01435 0.0
H2250 H 0.47135 0.89474 0.02452 0.0
H2251 H 0.4895 0.92338 0.04721 0.0
H2252 H 0.44116 0.91411 0.08472 0.0
H2253 H 0.42275 0.88528 0.06245 0.0
C2254 C 0.39148 0.85821 0.94036 0.0
C2255 C 0.37659 0.86014 0.94771 0.0
C2256 C 0.40198 0.85527 0.95716 0.0
C2257 C 0.39788 0.85433 0.98162 0.0
C2258 C 0.38276 0.85579 0.98902 0.0
C2259 C 0.37205 0.85847 0.97215 0.0
C2260 C 0.41049 0.85356 -0.00063 0.0
C2261 C 0.42027 0.86874 0.01437 0.0
C2262 C 0.41462 0.83924 -0.00055 0.0
C2263 C 0.4043 0.82265 0.98439 0.0
C2264 C 0.38507 0.81243 0.98534 0.0
C2265 C 0.37542 0.79689 0.97098 0.0
C2266 C 0.38485 0.79137 0.95569 0.0
C2267 C 0.40397 0.80135 0.95476 0.0
C2268 C 0.41369 0.81691 0.96906 0.0
C2269 C 0.47143 0.86499 0.08037 0.0
C2270 C 0.48562 0.86367 0.06909 0.0
C2271 C 0.45585 0.86166 0.06755 0.0
C2272 C 0.45438 0.85741 0.04305 0.0
C2273 C 0.46817 0.85529 0.03202 0.0
C2274 C 0.48362 0.85831 0.04496 0.0
C2275 C 0.43903 0.8562 0.0286 0.0
C2276 C 0.42882 0.84073 0.01413 0.0
C2277 C 0.43469 0.87042 0.02865 0.0
C2278 C 0.44572 0.88775 0.04204 0.0
C2279 C 0.46462 0.89874 0.03774 0.0
C2280 C 0.47495 0.91502 0.0505 0.0
C2281 C 0.4665 0.92053 0.06746 0.0
C2282 C 0.44769 0.90981 0.07163 0.0
C2283 C 0.4373 0.8935 0.05893 0.0
H2284 H 0.47452 0.93314 0.07731 0.0
H2285 H 0.37736 0.77934 0.94459 0.0
H2286 H 0.52744 0.40292 0.3986 0.0
H2287 H 0.5536 0.42396 0.42288 0.0
H2288 H 0.53392 0.38501 0.48105 0.0
H2289 H 0.50784 0.36363 0.45656 0.0
H2290 H 0.55216 0.43995 0.46164 0.0
H2291 H 0.56939 0.39221 0.51742 0.0
H2292 H 0.56994 0.36343 0.51225 0.0
H2293 H 0.5769 0.37269 0.43641 0.0
H2294 H 0.57665 0.40164 0.44115 0.0
H2295 H 0.59111 0.47861 0.57109 0.0
H2296 H 0.57307 0.45511 0.54168 0.0
H2297 H 0.62244 0.46566 0.50519 0.0
H2298 H 0.64082 0.48951 0.53463 0.0
H2299 H 0.59373 0.42667 0.50955 0.0
H2300 H 0.6033 0.48446 0.48146 0.0
H2301 H 0.60434 0.51412 0.48523 0.0
H2302 H 0.5468 0.48619 0.50097 0.0
H2303 H 0.54548 0.45636 0.4977 0.0
C2304 C 0.52879 0.39869 0.41644 0.0
C2305 C 0.51548 0.38166 0.42574 0.0
C2306 C 0.54378 0.41075 0.4303 0.0
C2307 C 0.54576 0.40609 0.45378 0.0
C2308 C 0.53284 0.38881 0.46285 0.0
C2309 C 0.51789 0.37663 0.44887 0.0
C2310 C 0.56032 0.41998 0.4694 0.0
C2311 C 0.56132 0.43703 0.47192 0.0
C2312 C 0.57248 0.41633 0.48264 0.0
C2313 C 0.57284 0.39903 0.47964 0.0
C2314 C 0.57112 0.38815 0.49965 0.0
C2315 C 0.57136 0.37179 0.4968 0.0
C2316 C 0.5734 0.36621 0.47401 0.0
C2317 C 0.57525 0.377 0.45404 0.0
C2318 C 0.57503 0.39337 0.4568 0.0
C2319 C 0.59823 0.47585 0.55703 0.0
C2320 C 0.61742 0.48609 0.55507 0.0
C2321 C 0.58787 0.46238 0.54025 0.0
C2322 C 0.59645 0.45881 0.52123 0.0
C2323 C 0.61563 0.46827 0.51981 0.0
C2324 C 0.62606 0.48191 0.53656 0.0
C2325 C 0.58512 0.44624 0.50196 0.0
C2326 C 0.58468 0.42952 0.49892 0.0
C2327 C 0.57367 0.45026 0.48784 0.0
C2328 C 0.57433 0.46817 0.48952 0.0
C2329 C 0.5909 0.48465 0.48591 0.0
C2330 C 0.59154 0.50149 0.48793 0.0
C2331 C 0.57566 0.50204 0.49338 0.0
C2332 C 0.5591 0.48574 0.49677 0.0
C2333 C 0.55839 0.46886 0.49481 0.0
H2334 H 0.57618 0.51509 0.49494 0.0
H2335 H 0.57357 0.35354 0.47184 0.0
H2336 H 0.14111 0.53382 0.90585 0.0
H2337 H 0.1506 0.56022 0.93206 0.0
H2338 H 0.16433 0.53339 0.98733 0.0
H2339 H 0.15497 0.50686 0.96107 0.0
H2340 H 0.14002 0.54471 0.00175 0.0
H2341 H 0.19792 0.57054 0.96257 0.0
H2342 H 0.21899 0.57971 0.92816 0.0
H2343 H 0.20044 0.61602 0.90395 0.0
H2344 H 0.17904 0.60687 0.93803 0.0
H2345 H 0.15675 0.61439 0.08007 0.0
H2346 H 0.16609 0.59628 0.05597 0.0
H2347 H 0.15741 0.61919 0.99153 0.0
H2348 H 0.1489 0.63803 0.01573 0.0
H2349 H 0.18355 0.61025 0.98431 0.0
H2350 H 0.12241 0.58078 0.01678 0.0
H2351 H 0.09933 0.5712 0.04889 0.0
H2352 H 0.12172 0.54098 0.08275 0.0
H2353 H 0.14511 0.55062 0.05099 0.0
C2354 C 0.14638 0.53361 0.92347 0.0
C2355 C 0.14715 0.51819 0.93148 0.0
C2356 C 0.15195 0.54879 0.93834 0.0
C2357 C 0.15829 0.5488 0.96154 0.0
C2358 C 0.15958 0.53366 0.9694 0.0
C2359 C 0.15422 0.51854 0.9544 0.0
C2360 C 0.16144 0.56366 0.97836 0.0
C2361 C 0.1499 0.55901 -0.0017 0.0
C2362 C 0.17388 0.58232 0.9733 0.0
C2363 C 0.18677 0.58792 0.9528 0.0
C2364 C 0.19822 0.58037 0.94981 0.0
C2365 C 0.21025 0.58559 0.93038 0.0
C2366 C 0.21103 0.59841 0.91385 0.0
C2367 C 0.19981 0.60608 0.91676 0.0
C2368 C 0.18775 0.6009 0.93616 0.0
C2369 C 0.1575 0.61605 0.06079 0.0
C2370 C 0.1519 0.62737 0.04967 0.0
C2371 C 0.16277 0.60566 0.04704 0.0
C2372 C 0.16188 0.60596 0.02196 0.0
C2373 C 0.15808 0.61866 0.01087 0.0
C2374 C 0.15322 0.62941 0.02468 0.0
C2375 C 0.16206 0.59125 0.00761 0.0
C2376 C 0.17404 0.59592 0.98806 0.0
C2377 C 0.14976 0.57252 0.01268 0.0
C2378 C 0.13563 0.56659 0.03169 0.0
C2379 C 0.12248 0.57219 0.03117 0.0
C2380 C 0.10934 0.56674 0.04929 0.0
C2381 C 0.10909 0.55553 0.06789 0.0
C2382 C 0.12196 0.5497 0.06836 0.0
C2383 C 0.13516 0.55515 0.05031 0.0
H2384 H 0.09891 0.55132 0.0819 0.0
H2385 H 0.22035 0.60243 0.89882 0.0
H2386 H 0.53364 0.15143 0.57124 0.0
H2387 H 0.5576 0.15934 0.54149 0.0
H2388 H 0.5217 0.1589 0.48617 0.0
H2389 H 0.49754 0.15104 0.51601 0.0
H2390 H 0.5353 0.13582 0.47718 0.0
H2391 H 0.55945 0.19831 0.49853 0.0
H2392 H 0.56983 0.22468 0.52574 0.0
H2393 H 0.61214 0.2154 0.55287 0.0
H2394 H 0.60185 0.18879 0.52608 0.0
H2395 H 0.60199 0.14429 0.39593 0.0
H2396 H 0.58232 0.15367 0.41618 0.0
H2397 H 0.61174 0.16049 0.48213 0.0
H2398 H 0.63195 0.15189 0.46169 0.0
H2399 H 0.60058 0.18473 0.48021 0.0
H2400 H 0.57268 0.11942 0.46732 0.0
H2401 H 0.56201 0.09144 0.44307 0.0
H2402 H 0.52644 0.10455 0.4034 0.0
H2403 H 0.53709 0.13274 0.42725 0.0
C2404 C 0.53093 0.15336 0.55282 0.0
C2405 C 0.51365 0.15044 0.54591 0.0
C2406 C 0.54471 0.15803 0.53587 0.0
C2407 C 0.54146 0.15981 0.51166 0.0
C2408 C 0.52449 0.15769 0.50481 0.0
C2409 C 0.51072 0.15322 0.52186 0.0
C2410 C 0.55491 0.16137 0.49344 0.0
C2411 C 0.54947 0.14681 0.47734 0.0
C2412 C 0.57349 0.17541 0.49424 0.0
C2413 C 0.5798 0.19147 0.51034 0.0
C2414 C 0.57088 0.2018 0.51042 0.0
C2415 C 0.57677 0.21681 0.52575 0.0
C2416 C 0.59162 0.2217 0.54104 0.0
C2417 C 0.60064 0.2116 0.541 0.0
C2418 C 0.59481 0.19657 0.52571 0.0
C2419 C 0.60451 0.14818 0.41462 0.0
C2420 C 0.61831 0.14709 0.42735 0.0
C2421 C 0.59324 0.1535 0.42618 0.0
C2422 C 0.59524 0.1573 0.45082 0.0
C2423 C 0.60988 0.15753 0.46313 0.0
C2424 C 0.6214 0.15256 0.45145 0.0
C2425 C 0.581 0.15899 0.46432 0.0
C2426 C 0.58631 0.17405 0.47959 0.0
C2427 C 0.56229 0.14523 0.46314 0.0
C2428 C 0.55584 0.12828 0.44884 0.0
C2429 C 0.56268 0.11639 0.45331 0.0
C2430 C 0.55663 0.10049 0.43966 0.0
C2431 C 0.54361 0.09625 0.42165 0.0
C2432 C 0.53656 0.10787 0.41731 0.0
C2433 C 0.5426 0.12381 0.43089 0.0
H2434 H 0.53893 0.08394 0.4111 0.0
H2435 H 0.59615 0.23333 0.55291 0.0
H2436 H 0.52856 0.38478 0.09496 0.0
H2437 H 0.55841 0.40569 0.07731 0.0
H2438 H 0.53702 0.3841 0.00717 0.0
H2439 H 0.50742 0.36252 0.02494 0.0
H2440 H 0.57181 0.39401 0.00846 0.0
H2441 H 0.53626 0.42221 0.03137 0.0
H2442 H 0.51934 0.43092 0.05946 0.0
H2443 H 0.56765 0.46022 0.10261 0.0
H2444 H 0.58479 0.45148 0.07489 0.0
H2445 H 0.60688 0.46992 0.93096 0.0
H2446 H 0.59057 0.44316 0.95668 0.0
H2447 H 0.6273 0.47245 0.01488 0.0
H2448 H 0.64393 0.49943 0.98896 0.0
H2449 H 0.5905 0.45883 0.02539 0.0
H2450 H 0.62727 0.43569 0.99392 0.0
H2451 H 0.64269 0.42778 0.96257 0.0
H2452 H 0.59062 0.38978 0.93176 0.0
H2453 H 0.57488 0.39766 0.9627 0.0
C2454 C 0.53038 0.38421 0.07585 0.0
C2455 C 0.51563 0.37223 0.06125 0.0
C2456 C 0.54742 0.3962 0.06576 0.0
C2457 C 0.54982 0.39685 0.04083 0.0
C2458 C 0.53549 0.38393 0.02644 0.0
C2459 C 0.51856 0.37162 0.0366 0.0
C2460 C 0.56634 0.41215 0.02948 0.0
C2461 C 0.57592 0.40819 0.01215 0.0
C2462 C 0.57198 0.43071 0.03463 0.0
C2463 C 0.56172 0.436 0.05126 0.0
C2464 C 0.54322 0.4304 0.04695 0.0
C2465 C 0.53361 0.43535 0.06278 0.0
C2466 C 0.5424 0.44606 0.08285 0.0
C2467 C 0.56085 0.45189 0.08709 0.0
C2468 C 0.57052 0.44694 0.07133 0.0
C2469 C 0.61175 0.47057 0.94909 0.0
C2470 C 0.62657 0.48681 0.95805 0.0
C2471 C 0.6025 0.4552 0.96371 0.0
C2472 C 0.60779 0.45578 0.98764 0.0
C2473 C 0.6231 0.47171 0.99639 0.0
C2474 C 0.63258 0.48707 0.98159 0.0
C2475 C 0.59569 0.44069 0.00398 0.0
C2476 C 0.58682 0.44469 0.0222 0.0
C2477 C 0.5905 0.42223 -0.00077 0.0
C2478 C 0.59989 0.41734 0.98062 0.0
C2479 C 0.6191 0.42574 0.98037 0.0
C2480 C 0.6279 0.42124 0.96268 0.0
C2481 C 0.61764 0.4083 0.94517 0.0
C2482 C 0.59855 0.3998 0.94534 0.0
C2483 C 0.58968 0.40425 0.96299 0.0
H2484 H 0.62448 0.40484 0.93148 0.0
H2485 H 0.53494 0.44989 0.09509 0.0
H2486 H 0.09983 0.59503 0.43017 0.0
H2487 H 0.10787 0.57429 0.44963 0.0
H2488 H 0.15496 0.62021 0.4819 0.0
H2489 H 0.14661 0.64126 0.46289 0.0
H2490 H 0.13478 0.56766 0.44966 0.0
H2491 H 0.16079 0.60703 0.53771 0.0
H2492 H 0.15875 0.63069 0.56136 0.0
H2493 H 0.1057 0.61369 0.53148 0.0
H2494 H 0.10737 0.58982 0.50789 0.0
H2495 H 0.14742 0.5072 0.52852 0.0
H2496 H 0.15398 0.53473 0.50569 0.0
H2497 H 0.1083 0.53515 0.53985 0.0
H2498 H 0.10207 0.50825 0.563 0.0
H2499 H 0.13571 0.56834 0.53843 0.0
H2500 H 0.10621 0.51796 0.48184 0.0
H2501 H 0.10341 0.49186 0.45843 0.0
H2502 H 0.15558 0.52693 0.4256 0.0
H2503 H 0.15877 0.55319 0.44904 0.0
C2504 C 0.11201 0.60083 0.44124 0.0
C2505 C 0.12244 0.61983 0.44523 0.0
C2506 C 0.11667 0.5889 0.45224 0.0
C2507 C 0.13192 0.59563 0.46742 0.0
C2508 C 0.14298 0.61468 0.47051 0.0
C2509 C 0.1382 0.62669 0.45962 0.0
C2510 C 0.13502 0.58239 0.48132 0.0
C2511 C 0.13526 0.56795 0.46907 0.0
C2512 C 0.13555 0.58266 0.50665 0.0
C2513 C 0.13434 0.59686 0.52083 0.0
C2514 C 0.1487 0.60835 0.53623 0.0
C2515 C 0.14761 0.62179 0.54962 0.0
C2516 C 0.13214 0.62374 0.54784 0.0
C2517 C 0.1177 0.61221 0.53276 0.0
C2518 C 0.11872 0.59875 0.51937 0.0
C2519 C 0.13881 0.5132 0.53111 0.0
C2520 C 0.12422 0.50553 0.54756 0.0
C2521 C 0.14257 0.52893 0.51807 0.0
C2522 C 0.13162 0.53702 0.52102 0.0
C2523 C 0.11708 0.52931 0.53742 0.0
C2524 C 0.11346 0.51382 0.55057 0.0
C2525 C 0.13467 0.55321 0.5068 0.0
C2526 C 0.13576 0.56829 0.519 0.0
C2527 C 0.13474 0.55321 0.48146 0.0
C2528 C 0.13283 0.53745 0.4674 0.0
C2529 C 0.11714 0.52005 0.46976 0.0
C2530 C 0.11547 0.50525 0.45647 0.0
C2531 C 0.12934 0.50772 0.4406 0.0
C2532 C 0.14487 0.52502 0.43794 0.0
C2533 C 0.14662 0.53987 0.45122 0.0
H2534 H 0.12802 0.49624 0.43032 0.0
H2535 H 0.13133 0.63416 0.5582 0.0
H2536 H 0.63761 0.14838 0.0257 0.0
H2537 H 0.6181 0.15749 0.00455 0.0
H2538 H 0.58757 0.15059 0.06953 0.0
H2539 H 0.60655 0.14068 0.09045 0.0
H2540 H 0.56515 0.13276 0.03651 0.0
H2541 H 0.61461 0.19378 0.04109 0.0
H2542 H 0.64644 0.21923 0.03798 0.0
H2543 H 0.64583 0.2105 0.96218 0.0
H2544 H 0.61407 0.18481 0.96486 0.0
H2545 H 0.50565 0.15259 0.9696 0.0
H2546 H 0.52983 0.15903 -0.00116 0.0
H2547 H 0.56249 0.15386 0.94335 0.0
H2548 H 0.5385 0.14738 0.91413 0.0
H2549 H 0.58335 0.1823 0.97649 0.0
H2550 H 0.53596 0.11766 0.9752 0.0
H2551 H 0.50408 0.09231 0.9788 0.0
H2552 H 0.50129 0.10926 0.05041 0.0
H2553 H 0.53311 0.13488 0.04709 0.0
C2554 C 0.627 0.14921 0.0356 0.0
C2555 C 0.62347 0.14365 0.05964 0.0
C2556 C 0.6159 0.15454 0.02352 0.0
C2557 C 0.60137 0.15484 0.03545 0.0
C2558 C 0.59862 0.15039 0.0599 0.0
C2559 C 0.60949 0.14475 0.07184 0.0
C2560 C 0.58771 0.15744 0.02178 0.0
C2561 C 0.56917 0.14393 0.0239 0.0
C2562 C 0.59285 0.17179 0.00497 0.0
C2563 C 0.61196 0.18727 0.00321 0.0
C2564 C 0.62129 0.19719 0.02377 0.0
C2565 C 0.63932 0.21168 0.02208 0.0
C2566 C 0.64816 0.21646 -0.0001 0.0
C2567 C 0.63896 0.20678 0.97935 0.0
C2568 C 0.62093 0.19227 0.98094 0.0
C2569 C 0.51812 0.15315 0.96356 0.0
C2570 C 0.52007 0.14923 0.93963 0.0
C2571 C 0.5319 0.15684 0.98027 0.0
C2572 C 0.54786 0.15679 0.97323 0.0
C2573 C 0.5503 0.154 0.9491 0.0
C2574 C 0.53649 0.15015 0.93247 0.0
C2575 C 0.56111 0.15754 0.99118 0.0
C2576 C 0.57947 0.17153 0.98969 0.0
C2577 C 0.55586 0.14374 0.00876 0.0
C2578 C 0.5368 0.12829 0.01079 0.0
C2579 C 0.52849 0.11606 0.99164 0.0
C2580 C 0.51045 0.10163 0.99364 0.0
C2581 C 0.50065 0.09921 0.01479 0.0
C2582 C 0.50889 0.11118 0.03402 0.0
C2583 C 0.52692 0.12565 0.03209 0.0
H2584 H 0.48668 0.08804 0.01631 0.0
H2585 H 0.66212 0.22769 -0.00137 0.0
H2586 H 0.46308 0.61498 0.58101 0.0
H2587 H 0.43341 0.59657 0.56147 0.0
H2588 H 0.45849 0.61807 0.49278 0.0
H2589 H 0.488 0.6373 0.51251 0.0
H2590 H 0.42377 0.60999 0.4917 0.0
H2591 H 0.45604 0.57894 0.51674 0.0
H2592 H 0.47134 0.56894 0.54574 0.0
H2593 H 0.42178 0.54114 0.5869 0.0
H2594 H 0.40626 0.5512 0.55827 0.0
H2595 H 0.38662 0.53305 0.41481 0.0
H2596 H 0.40298 0.56035 0.43959 0.0
H2597 H 0.36556 0.53268 0.49782 0.0
H2598 H 0.34898 0.5052 0.47298 0.0
H2599 H 0.40145 0.54437 0.50876 0.0
H2600 H 0.36789 0.57048 0.47533 0.0
H2601 H 0.35407 0.57976 0.44333 0.0
H2602 H 0.40739 0.61587 0.4142 0.0
H2603 H 0.42154 0.60662 0.44582 0.0
C2604 C 0.4621 0.61616 0.56182 0.0
C2605 C 0.4778 0.6273 0.54816 0.0
C2606 C 0.44518 0.60562 0.55066 0.0
C2607 C 0.44385 0.60551 0.5256 0.0
C2608 C 0.45921 0.61785 0.51214 0.0
C2609 C 0.47607 0.62879 0.52339 0.0
C2610 C 0.42741 0.59089 0.51332 0.0
C2611 C 0.41885 0.59564 0.49538 0.0
C2612 C 0.4208 0.57213 0.5184 0.0
C2613 C 0.43007 0.56601 0.53556 0.0
C2614 C 0.44845 0.5708 0.53207 0.0
C2615 C 0.45715 0.56511 0.54842 0.0
C2616 C 0.44755 0.55446 0.56819 0.0
C2617 C 0.42921 0.54943 0.57161 0.0
C2618 C 0.42045 0.55512 0.55533 0.0
C2619 C 0.38157 0.53291 0.43268 0.0
C2620 C 0.36667 0.51691 0.44207 0.0
C2621 C 0.39085 0.5486 0.44676 0.0
C2622 C 0.38545 0.54855 0.47052 0.0
C2623 C 0.36986 0.53299 0.47946 0.0
C2624 C 0.36042 0.51732 0.46526 0.0
C2625 C 0.39793 0.56342 0.48686 0.0
C2626 C 0.40592 0.5587 0.5055 0.0
C2627 C 0.4042 0.58211 0.48198 0.0
C2628 C 0.39577 0.58777 0.46292 0.0
C2629 C 0.37667 0.5803 0.46201 0.0
C2630 C 0.36878 0.58558 0.44394 0.0
C2631 C 0.37985 0.59838 0.42673 0.0
C2632 C 0.39884 0.60596 0.42756 0.0
C2633 C 0.4068 0.60072 0.44558 0.0
H2634 H 0.37371 0.60245 0.41275 0.0
H2635 H 0.45431 0.55007 0.58083 0.0
H2636 H 0.85522 0.38962 0.90667 0.0
H2637 H 0.84593 0.40823 0.92975 0.0
H2638 H 0.84571 0.37994 0.99431 0.0
H2639 H 0.85414 0.36069 0.97108 0.0
H2640 H 0.82005 0.38877 0.99731 0.0
H2641 H 0.88406 0.42082 0.97593 0.0
H2642 H 0.91039 0.43309 0.9483 0.0
H2643 H 0.89109 0.46549 0.913 0.0
H2644 H 0.8645 0.45322 0.94026 0.0
H2645 H 0.85381 0.4589 0.08526 0.0
H2646 H 0.84679 0.43445 0.05653 0.0
H2647 H 0.83843 0.46538 0.00141 0.0
H2648 H 0.84533 0.48995 0.03019 0.0
H2649 H 0.86429 0.45534 0.98996 0.0
H2650 H 0.80285 0.42639 0.01875 0.0
H2651 H 0.77845 0.41458 0.04923 0.0
H2652 H 0.79505 0.37687 0.07403 0.0
H2653 H 0.81975 0.38864 0.04393 0.0
C2654 C 0.85283 0.38713 0.92572 0.0
C2655 C 0.85566 0.37391 0.93717 0.0
C2656 C 0.84757 0.3978 0.9389 0.0
C2657 C 0.84562 0.39584 0.96387 0.0
C2658 C 0.84722 0.38178 0.97508 0.0
C2659 C 0.85209 0.37081 0.9618 0.0
C2660 C 0.84373 0.40947 0.97855 0.0
C2661 C 0.82974 0.40332 0.99576 0.0
C2662 C 0.8562 0.42852 0.97628 0.0
C2663 C 0.87219 0.43594 0.95992 0.0
C2664 C 0.88537 0.43047 0.96216 0.0
C2665 C 0.90034 0.43743 0.94659 0.0
C2666 C 0.90238 0.45001 0.92885 0.0
C2667 C 0.88947 0.4557 0.92671 0.0
C2668 C 0.87445 0.44876 0.94221 0.0
C2669 C 0.85015 0.46037 0.06714 0.0
C2670 C 0.85027 0.47641 0.05992 0.0
C2671 C 0.84601 0.44633 0.05079 0.0
C2672 C 0.84201 0.44809 0.0269 0.0
C2673 C 0.8414 0.46375 0.01983 0.0
C2674 C 0.84532 0.47775 0.03628 0.0
C2675 C 0.84078 0.43464 0.00891 0.0
C2676 C 0.85431 0.44084 0.99114 0.0
C2677 C 0.82814 0.41568 0.01106 0.0
C2678 C 0.81324 0.40849 0.02914 0.0
C2679 C 0.8014 0.41568 0.03082 0.0
C2680 C 0.78749 0.40897 0.04801 0.0
C2681 C 0.78522 0.395 0.06358 0.0
C2682 C 0.79683 0.38769 0.06196 0.0
C2683 C 0.81077 0.39436 0.0448 0.0
H2684 H 0.77444 0.38983 0.07689 0.0
H2685 H 0.91398 0.45539 0.91682 0.0
H2686 H 0.49557 0.85524 0.4672 0.0
H2687 H 0.46821 0.84777 0.4906 0.0
H2688 H 0.44246 0.85433 0.4275 0.0
H2689 H 0.47005 0.86257 0.40433 0.0
H2690 H 0.43902 0.87238 0.46137 0.0
H2691 H 0.42774 0.8113 0.45552 0.0
H2692 H 0.43458 0.78613 0.45789 0.0
H2693 H 0.44407 0.79502 0.53349 0.0
H2694 H 0.43753 0.82042 0.53154 0.0
H2695 H 0.3586 0.84975 0.52654 0.0
H2696 H 0.37716 0.84403 0.49785 0.0
H2697 H 0.41451 0.84976 0.55437 0.0
H2698 H 0.39616 0.85554 0.58307 0.0
H2699 H 0.40835 0.82201 0.52048 0.0
H2700 H 0.42393 0.886 0.52354 0.0
H2701 H 0.41667 0.91088 0.5207 0.0
H2702 H 0.39807 0.89513 0.44842 0.0
H2703 H 0.40499 0.86998 0.45098 0.0
C2704 C 0.48396 0.85483 0.45827 0.0
C2705 C 0.48499 0.85963 0.434 0.0
C2706 C 0.46827 0.85043 0.47162 0.0
C2707 C 0.45315 0.85031 0.46079 0.0
C2708 C 0.45393 0.85437 0.43629 0.0
C2709 C 0.46972 0.85909 0.42307 0.0
C2710 C 0.4373 0.8477 0.4754 0.0
C2711 C 0.43205 0.86107 0.47383 0.0
C2712 C 0.42835 0.83317 0.49205 0.0
C2713 C 0.43227 0.81787 0.49334 0.0
C2714 C 0.43142 0.80798 0.47263 0.0
C2715 C 0.43522 0.79366 0.4739 0.0
C2716 C 0.43979 0.789 0.49582 0.0
C2717 C 0.44053 0.79864 0.51652 0.0
C2718 C 0.43675 0.81299 0.51535 0.0
C2719 C 0.37054 0.84939 0.53294 0.0
C2720 C 0.37607 0.85335 0.55699 0.0
C2721 C 0.38112 0.84613 0.51655 0.0
C2722 C 0.39727 0.84665 0.52401 0.0
C2723 C 0.40208 0.84929 0.54829 0.0
C2724 C 0.39164 0.85272 0.56462 0.0
C2725 C 0.41033 0.84668 0.50634 0.0
C2726 C 0.41511 0.83298 0.50751 0.0
C2727 C 0.41878 0.8608 0.48914 0.0
C2728 C 0.41476 0.87599 0.48755 0.0
C2729 C 0.41815 0.88776 0.50711 0.0
C2730 C 0.41412 0.90192 0.50554 0.0
C2731 C 0.40685 0.90454 0.48442 0.0
C2732 C 0.40366 0.89305 0.46479 0.0
C2733 C 0.40764 0.87885 0.46628 0.0
H2734 H 0.40374 0.91552 0.48323 0.0
H2735 H 0.44273 0.77791 0.49676 0.0
loop_
_geom_bond_atom_site_label_1
_geom_bond_atom_site_label_2
_geom_bond_distance
_geom_bond_site_symmetry_2
_ccdc_geom_bond_type
Zn0 O3 2.031 . S
Zn0 O5 2.049 . S
Zn0 O10 2.067 . S
Zn1 O2 1.962 . S
Zn1 O4 1.986 . S
Zn1 O6 1.996 . S
Zn1 O9 1.943 . S
O2 Zn1 1.962 . S
O2 C7 1.254 . S
O3 Zn0 2.031 . S
O3 C7 1.269 . S
O4 Zn1 1.986 . S
O4 C11 1.262 . S
O5 Zn0 2.049 . S
O5 C13 1.260 . S
O6 Zn1 1.996 . S
O6 C13 1.257 . S
C7 O2 1.254 . S
C7 O3 1.269 . S
C8 O9 1.249 . S
C8 O10 1.270 . S
O9 Zn1 1.943 . S
O9 C8 1.249 . S
O10 Zn0 2.067 . S
O10 C8 1.270 . S
C11 O4 1.262 . S
C11 O12 1.232 . S
O12 C11 1.232 . S
C13 O5 1.260 . S
C13 O6 1.257 . S
Zn14 O17 2.031 . S
Zn14 O19 2.049 . S
Zn14 O24 2.067 . S
Zn15 O16 1.962 . S
Zn15 O18 1.986 . S
Zn15 O20 1.996 . S
Zn15 O23 1.943 . S
O16 Zn15 1.962 . S
O16 C21 1.254 . S
O17 Zn14 2.031 . S
O17 C21 1.269 . S
O18 Zn15 1.986 . S
O18 C25 1.262 . S
O19 Zn14 2.049 . S
O19 C27 1.260 . S
O20 Zn15 1.996 . S
O20 C27 1.257 . S
C21 O16 1.254 . S
C21 O17 1.269 . S
C22 O23 1.249 . S
C22 O24 1.270 . S
O23 Zn15 1.943 . S
O23 C22 1.249 . S
O24 Zn14 2.067 . S
O24 C22 1.270 . S
C25 O18 1.262 . S
C25 O26 1.232 . S
O26 C25 1.232 . S
C27 O19 1.260 . S
C27 O20 1.257 . S
Zn28 O31 2.031 . S
Zn28 O33 2.049 . S
Zn28 O38 2.067 . S
Zn29 O30 1.962 . S
Zn29 O32 1.986 . S
Zn29 O34 1.996 . S
Zn29 O37 1.943 . S
O30 Zn29 1.962 . S
O30 C35 1.254 . S
O31 Zn28 2.031 . S
O31 C35 1.269 . S
O32 Zn29 1.986 . S
O32 C39 1.262 . S
O33 Zn28 2.049 . S
O33 C41 1.260 . S
O34 Zn29 1.996 . S
O34 C41 1.257 . S
C35 O30 1.254 . S
C35 O31 1.269 . S
C36 O37 1.249 . S
C36 O38 1.270 . S
O37 Zn29 1.943 . S
O37 C36 1.249 . S
O38 Zn28 2.067 . S
O38 C36 1.270 . S
C39 O32 1.262 . S
C39 O40 1.232 . S
O40 C39 1.232 . S
C41 O33 1.260 . S
C41 O34 1.257 . S
Zn42 O45 2.031 . S
Zn42 O47 2.049 . S
Zn42 O52 2.067 . S
Zn43 O44 1.962 . S
Zn43 O46 1.986 . S
Zn43 O48 1.996 . S
Zn43 O51 1.943 . S
O44 Zn43 1.962 . S
O44 C49 1.254 . S
O45 Zn42 2.031 . S
O45 C49 1.269 . S
O46 Zn43 1.986 . S
O46 C53 1.262 . S
O47 Zn42 2.049 . S
O47 C55 1.260 . S
O48 Zn43 1.996 . S
O48 C55 1.257 . S
C49 O44 1.254 . S
C49 O45 1.269 . S
C50 O51 1.249 . S
C50 O52 1.270 . S
O51 Zn43 1.943 . S
O51 C50 1.249 . S
O52 Zn42 2.067 . S
O52 C50 1.270 . S
C53 O46 1.262 . S
C53 O54 1.232 . S
O54 C53 1.232 . S
C55 O47 1.260 . S
C55 O48 1.257 . S
Zn56 O59 2.031 . S
Zn56 O61 2.049 . S
Zn56 O66 2.067 . S
Zn57 O58 1.962 . S
Zn57 O60 1.986 . S
Zn57 O62 1.996 . S
Zn57 O65 1.943 . S
O58 Zn57 1.962 . S
O58 C63 1.254 . S
O59 Zn56 2.031 . S
O59 C63 1.269 . S
O60 Zn57 1.986 . S
O60 C67 1.262 . S
O61 Zn56 2.049 . S
O61 C69 1.260 . S
O62 Zn57 1.996 . S
O62 C69 1.257 . S
C63 O58 1.254 . S
C63 O59 1.269 . S
C64 O65 1.249 . S
C64 O66 1.270 . S
O65 Zn57 1.943 . S
O65 C64 1.249 . S
O66 Zn56 2.067 . S
O66 C64 1.270 . S
C67 O60 1.262 . S
C67 O68 1.232 . S
O68 C67 1.232 . S
C69 O61 1.260 . S
C69 O62 1.257 . S
Zn70 O73 2.031 . S
Zn70 O75 2.049 . S
Zn70 O80 2.067 . S
Zn71 O72 1.962 . S
Zn71 O74 1.986 . S
Zn71 O76 1.996 . S
Zn71 O79 1.943 . S
O72 Zn71 1.962 . S
O72 C77 1.254 . S
O73 Zn70 2.031 . S
O73 C77 1.269 . S
O74 Zn71 1.986 . S
O74 C81 1.262 . S
O75 Zn70 2.049 . S
O75 C83 1.260 . S
O76 Zn71 1.996 . S
O76 C83 1.257 . S
C77 O72 1.254 . S
C77 O73 1.269 . S
C78 O79 1.249 . S
C78 O80 1.270 . S
O79 Zn71 1.943 . S
O79 C78 1.249 . S
O80 Zn70 2.067 . S
O80 C78 1.270 . S
C81 O74 1.262 . S
C81 O82 1.232 . S
O82 C81 1.232 . S
C83 O75 1.260 . S
C83 O76 1.257 . S
Zn84 O87 2.031 . S
Zn84 O89 2.049 . S
Zn84 O94 2.067 . S
Zn85 O86 1.962 . S
Zn85 O88 1.986 . S
Zn85 O90 1.996 . S
Zn85 O93 1.943 . S
O86 Zn85 1.962 . S
O86 C91 1.254 . S
O87 Zn84 2.031 . S
O87 C91 1.269 . S
O88 Zn85 1.986 . S
O88 C95 1.262 . S
O89 Zn84 2.049 . S
O89 C97 1.260 . S
O90 Zn85 1.996 . S
O90 C97 1.257 . S
C91 O86 1.254 . S
C91 O87 1.269 . S
C92 O93 1.249 . S
C92 O94 1.270 . S
O93 Zn85 1.943 . S
O93 C92 1.249 . S
O94 Zn84 2.067 . S
O94 C92 1.270 . S
C95 O88 1.262 . S
C95 O96 1.232 . S
O96 C95 1.232 . S
C97 O89 1.260 . S
C97 O90 1.257 . S
Zn98 O101 2.031 . S
Zn98 O103 2.049 . S
Zn98 O108 2.067 . S
Zn99 O100 1.962 . S
Zn99 O102 1.986 . S
Zn99 O104 1.996 . S
Zn99 O107 1.943 . S
O100 Zn99 1.962 . S
O100 C105 1.254 . S
O101 Zn98 2.031 . S
O101 C105 1.269 . S
O102 Zn99 1.986 . S
O102 C109 1.262 . S
O103 Zn98 2.049 . S
O103 C111 1.260 . S
O104 Zn99 1.996 . S
O104 C111 1.257 . S
C105 O100 1.254 . S
C105 O101 1.269 . S
C106 O107 1.249 . S
C106 O108 1.270 . S
O107 Zn99 1.943 . S
O107 C106 1.249 . S
O108 Zn98 2.067 . S
O108 C106 1.270 . S
C109 O102 1.262 . S
C109 O110 1.232 . S
O110 C109 1.232 . S
C111 O103 1.260 . S
C111 O104 1.257 . S
Zn112 O115 2.031 . S
Zn112 O117 2.049 . S
Zn112 O122 2.067 . S
Zn113 O114 1.962 . S
Zn113 O116 1.986 . S
Zn113 O118 1.996 . S
Zn113 O121 1.943 . S
O114 Zn113 1.962 . S
O114 C119 1.254 . S
O115 Zn112 2.031 . S
O115 C119 1.269 . S
O116 Zn113 1.986 . S
O116 C123 1.262 . S
O117 Zn112 2.049 . S
O117 C125 1.260 . S
O118 Zn113 1.996 . S
O118 C125 1.257 . S
C119 O114 1.254 . S
C119 O115 1.269 . S
C120 O121 1.249 . S
C120 O122 1.270 . S
O121 Zn113 1.943 . S
O121 C120 1.249 . S
O122 Zn112 2.067 . S
O122 C120 1.270 . S
C123 O116 1.262 . S
C123 O124 1.232 . S
O124 C123 1.232 . S
C125 O117 1.260 . S
C125 O118 1.257 . S
Zn126 O129 2.031 . S
Zn126 O131 2.049 . S
Zn126 O136 2.067 . S
Zn127 O128 1.962 . S
Zn127 O130 1.986 . S
Zn127 O132 1.996 . S
Zn127 O135 1.943 . S
O128 Zn127 1.962 . S
O128 C133 1.254 . S
O129 Zn126 2.031 . S
O129 C133 1.269 . S
O130 Zn127 1.986 . S
O130 C137 1.262 . S
O131 Zn126 2.049 . S
O131 C139 1.260 . S
O132 Zn127 1.996 . S
O132 C139 1.257 . S
C133 O128 1.254 . S
C133 O129 1.269 . S
C134 O135 1.249 . S
C134 O136 1.270 . S
O135 Zn127 1.943 . S
O135 C134 1.249 . S
O136 Zn126 2.067 . S
O136 C134 1.270 . S
C137 O130 1.262 . S
C137 O138 1.232 . S
O138 C137 1.232 . S
C139 O131 1.260 . S
C139 O132 1.257 . S
Zn140 O143 2.031 . S
Zn140 O145 2.049 . S
Zn140 O150 2.067 . S
Zn141 O142 1.962 . S
Zn141 O144 1.986 . S
Zn141 O146 1.996 . S
Zn141 O149 1.943 . S
O142 Zn141 1.962 . S
O142 C147 1.254 . S
O143 Zn140 2.031 . S
O143 C147 1.269 . S
O144 Zn141 1.986 . S
O144 C151 1.262 . S
O145 Zn140 2.049 . S
O145 C153 1.260 . S
O146 Zn141 1.996 . S
O146 C153 1.257 . S
C147 O142 1.254 . S
C147 O143 1.269 . S
C148 O149 1.249 . S
C148 O150 1.270 . S
O149 Zn141 1.943 . S
O149 C148 1.249 . S
O150 Zn140 2.067 . S
O150 C148 1.270 . S
C151 O144 1.262 . S
C151 O152 1.232 . S
O152 C151 1.232 . S
C153 O145 1.260 . S
C153 O146 1.257 . S
Zn154 O157 2.031 . S
Zn154 O159 2.049 . S
Zn154 O164 2.067 . S
Zn155 O156 1.962 . S
Zn155 O158 1.986 . S
Zn155 O160 1.996 . S
Zn155 O163 1.943 . S
O156 Zn155 1.962 . S
O156 C161 1.254 . S
O157 Zn154 2.031 . S
O157 C161 1.269 . S
O158 Zn155 1.986 . S
O158 C165 1.262 . S
O159 Zn154 2.049 . S
O159 C167 1.260 . S
O160 Zn155 1.996 . S
O160 C167 1.257 . S
C161 O156 1.254 . S
C161 O157 1.269 . S
C162 O163 1.249 . S
C162 O164 1.270 . S
O163 Zn155 1.943 . S
O163 C162 1.249 . S
O164 Zn154 2.067 . S
O164 C162 1.270 . S
C165 O158 1.262 . S
C165 O166 1.232 . S
O166 C165 1.232 . S
C167 O159 1.260 . S
C167 O160 1.257 . S
Zn168 O171 2.031 . S
Zn168 O173 2.049 . S
Zn168 O178 2.067 . S
Zn169 O170 1.962 . S
Zn169 O172 1.986 . S
Zn169 O174 1.996 . S
Zn169 O177 1.943 . S
O170 Zn169 1.962 . S
O170 C175 1.254 . S
O171 Zn168 2.031 . S
O171 C175 1.269 . S
O172 Zn169 1.986 . S
O172 C179 1.262 . S
O173 Zn168 2.049 . S
O173 C181 1.260 . S
O174 Zn169 1.996 . S
O174 C181 1.257 . S
C175 O170 1.254 . S
C175 O171 1.269 . S
C176 O177 1.249 . S
C176 O178 1.270 . S
O177 Zn169 1.943 . S
O177 C176 1.249 . S
O178 Zn168 2.067 . S
O178 C176 1.270 . S
C179 O172 1.262 . S
C179 O180 1.232 . S
O180 C179 1.232 . S
C181 O173 1.260 . S
C181 O174 1.257 . S
Zn182 O185 2.031 . S
Zn182 O187 2.049 . S
Zn182 O192 2.067 . S
Zn183 O184 1.962 . S
Zn183 O186 1.986 . S
Zn183 O188 1.996 . S
Zn183 O191 1.943 . S
O184 Zn183 1.962 . S
O184 C189 1.254 . S
O185 Zn182 2.031 . S
O185 C189 1.269 . S
O186 Zn183 1.986 . S
O186 C193 1.262 . S
O187 Zn182 2.049 . S
O187 C195 1.260 . S
O188 Zn183 1.996 . S
O188 C195 1.257 . S
C189 O184 1.254 . S
C189 O185 1.269 . S
C190 O191 1.249 . S
C190 O192 1.270 . S
O191 Zn183 1.943 . S
O191 C190 1.249 . S
O192 Zn182 2.067 . S
O192 C190 1.270 . S
C193 O186 1.262 . S
C193 O194 1.232 . S
O194 C193 1.232 . S
C195 O187 1.260 . S
C195 O188 1.257 . S
Zn196 O199 2.031 . S
Zn196 O201 2.049 . S
Zn196 O206 2.067 . S
Zn197 O198 1.962 . S
Zn197 O200 1.986 . S
Zn197 O202 1.996 . S
Zn197 O205 1.943 . S
O198 Zn197 1.962 . S
O198 C203 1.254 . S
O199 Zn196 2.031 . S
O199 C203 1.269 . S
O200 Zn197 1.986 . S
O200 C207 1.262 . S
O201 Zn196 2.049 . S
O201 C209 1.260 . S
O202 Zn197 1.996 . S
O202 C209 1.257 . S
C203 O198 1.254 . S
C203 O199 1.269 . S
C204 O205 1.249 . S
C204 O206 1.270 . S
O205 Zn197 1.943 . S
O205 C204 1.249 . S
O206 Zn196 2.067 . S
O206 C204 1.270 . S
C207 O200 1.262 . S
C207 O208 1.232 . S
O208 C207 1.232 . S
C209 O201 1.260 . S
C209 O202 1.257 . S
Zn210 O213 2.031 . S
Zn210 O215 2.049 . S
Zn210 O220 2.067 . S
Zn211 O212 1.962 . S
Zn211 O214 1.986 . S
Zn211 O216 1.996 . S
Zn211 O219 1.943 . S
O212 Zn211 1.962 . S
O212 C217 1.254 . S
O213 Zn210 2.031 . S
O213 C217 1.269 . S
O214 Zn211 1.986 . S
O214 C221 1.262 . S
O215 Zn210 2.049 . S
O215 C223 1.260 . S
O216 Zn211 1.996 . S
O216 C223 1.257 . S
C217 O212 1.254 . S
C217 O213 1.269 . S
C218 O219 1.249 . S
C218 O220 1.270 . S
O219 Zn211 1.943 . S
O219 C218 1.249 . S
O220 Zn210 2.067 . S
O220 C218 1.270 . S
C221 O214 1.262 . S
C221 O222 1.232 . S
O222 C221 1.232 . S
C223 O215 1.260 . S
C223 O216 1.257 . S
Zn224 O227 2.031 . S
Zn224 O229 2.049 . S
Zn224 O234 2.067 . S
Zn225 O226 1.962 . S
Zn225 O228 1.986 . S
Zn225 O230 1.996 . S
Zn225 O233 1.943 . S
O226 Zn225 1.962 . S
O226 C231 1.254 . S
O227 Zn224 2.031 . S
O227 C231 1.269 . S
O228 Zn225 1.986 . S
O228 C235 1.262 . S
O229 Zn224 2.049 . S
O229 C237 1.260 . S
O230 Zn225 1.996 . S
O230 C237 1.257 . S
C231 O226 1.254 . S
C231 O227 1.269 . S
C232 O233 1.249 . S
C232 O234 1.270 . S
O233 Zn225 1.943 . S
O233 C232 1.249 . S
O234 Zn224 2.067 . S
O234 C232 1.270 . S
C235 O228 1.262 . S
C235 O236 1.232 . S
O236 C235 1.232 . S
C237 O229 1.260 . S
C237 O230 1.257 . S
Zn238 O241 2.031 . S
Zn238 O243 2.049 . S
Zn238 O248 2.067 . S
Zn239 O240 1.962 . S
Zn239 O242 1.986 . S
Zn239 O244 1.996 . S
Zn239 O247 1.943 . S
O240 Zn239 1.962 . S
O240 C245 1.254 . S
O241 Zn238 2.031 . S
O241 C245 1.269 . S
O242 Zn239 1.986 . S
O242 C249 1.262 . S
O243 Zn238 2.049 . S
O243 C251 1.260 . S
O244 Zn239 1.996 . S
O244 C251 1.257 . S
C245 O240 1.254 . S
C245 O241 1.269 . S
C246 O247 1.249 . S
C246 O248 1.270 . S
O247 Zn239 1.943 . S
O247 C246 1.249 . S
O248 Zn238 2.067 . S
O248 C246 1.270 . S
C249 O242 1.262 . S
C249 O250 1.232 . S
O250 C249 1.232 . S
C251 O243 1.260 . S
C251 O244 1.257 . S
Zn252 O255 2.031 . S
Zn252 O257 2.049 . S
Zn252 O262 2.067 . S
Zn253 O254 1.962 . S
Zn253 O256 1.986 . S
Zn253 O258 1.996 . S
Zn253 O261 1.943 . S
O254 Zn253 1.962 . S
O254 C259 1.254 . S
O255 Zn252 2.031 . S
O255 C259 1.269 . S
O256 Zn253 1.986 . S
O256 C263 1.262 . S
O257 Zn252 2.049 . S
O257 C265 1.260 . S
O258 Zn253 1.996 . S
O258 C265 1.257 . S
C259 O254 1.254 . S
C259 O255 1.269 . S
C260 O261 1.249 . S
C260 O262 1.270 . S
O261 Zn253 1.943 . S
O261 C260 1.249 . S
O262 Zn252 2.067 . S
O262 C260 1.270 . S
C263 O256 1.262 . S
C263 O264 1.232 . S
O264 C263 1.232 . S
C265 O257 1.260 . S
C265 O258 1.257 . S
Zn266 O269 2.031 . S
Zn266 O271 2.049 . S
Zn266 O276 2.067 . S
Zn267 O268 1.962 . S
Zn267 O270 1.986 . S
Zn267 O272 1.996 . S
Zn267 O275 1.943 . S
O268 Zn267 1.962 . S
O268 C273 1.254 . S
O269 Zn266 2.031 . S
O269 C273 1.269 . S
O270 Zn267 1.986 . S
O270 C277 1.262 . S
O271 Zn266 2.049 . S
O271 C279 1.260 . S
O272 Zn267 1.996 . S
O272 C279 1.257 . S
C273 O268 1.254 . S
C273 O269 1.269 . S
C274 O275 1.249 . S
C274 O276 1.270 . S
O275 Zn267 1.943 . S
O275 C274 1.249 . S
O276 Zn266 2.067 . S
O276 C274 1.270 . S
C277 O270 1.262 . S
C277 O278 1.232 . S
O278 C277 1.232 . S
C279 O271 1.260 . S
C279 O272 1.257 . S
Zn280 O283 2.031 . S
Zn280 O285 2.049 . S
Zn280 O290 2.067 . S
Zn281 O282 1.962 . S
Zn281 O284 1.986 . S
Zn281 O286 1.996 . S
Zn281 O289 1.943 . S
O282 Zn281 1.962 . S
O282 C287 1.254 . S
O283 Zn280 2.031 . S
O283 C287 1.269 . S
O284 Zn281 1.986 . S
O284 C291 1.262 . S
O285 Zn280 2.049 . S
O285 C293 1.260 . S
O286 Zn281 1.996 . S
O286 C293 1.257 . S
C287 O282 1.254 . S
C287 O283 1.269 . S
C288 O289 1.249 . S
C288 O290 1.270 . S
O289 Zn281 1.943 . S
O289 C288 1.249 . S
O290 Zn280 2.067 . S
O290 C288 1.270 . S
C291 O284 1.262 . S
C291 O292 1.232 . S
O292 C291 1.232 . S
C293 O285 1.260 . S
C293 O286 1.257 . S
Zn294 O297 2.031 . S
Zn294 O299 2.049 . S
Zn294 O304 2.067 . S
Zn295 O296 1.962 . S
Zn295 O298 1.986 . S
Zn295 O300 1.996 . S
Zn295 O303 1.943 . S
O296 Zn295 1.962 . S
O296 C301 1.254 . S
O297 Zn294 2.031 . S
O297 C301 1.269 . S
O298 Zn295 1.986 . S
O298 C305 1.262 . S
O299 Zn294 2.049 . S
O299 C307 1.260 . S
O300 Zn295 1.996 . S
O300 C307 1.257 . S
C301 O296 1.254 . S
C301 O297 1.269 . S
C302 O303 1.249 . S
C302 O304 1.270 . S
O303 Zn295 1.943 . S
O303 C302 1.249 . S
O304 Zn294 2.067 . S
O304 C302 1.270 . S
C305 O298 1.262 . S
C305 O306 1.232 . S
O306 C305 1.232 . S
C307 O299 1.260 . S
C307 O300 1.257 . S
Zn308 O311 2.031 . S
Zn308 O313 2.049 . S
Zn308 O318 2.067 . S
Zn309 O310 1.962 . S
Zn309 O312 1.986 . S
Zn309 O314 1.996 . S
Zn309 O317 1.943 . S
O310 Zn309 1.962 . S
O310 C315 1.254 . S
O311 Zn308 2.031 . S
O311 C315 1.269 . S
O312 Zn309 1.986 . S
O312 C319 1.262 . S
O313 Zn308 2.049 . S
O313 C321 1.260 . S
O314 Zn309 1.996 . S
O314 C321 1.257 . S
C315 O310 1.254 . S
C315 O311 1.269 . S
C316 O317 1.249 . S
C316 O318 1.270 . S
O317 Zn309 1.943 . S
O317 C316 1.249 . S
O318 Zn308 2.067 . S
O318 C316 1.270 . S
C319 O312 1.262 . S
C319 O320 1.232 . S
O320 C319 1.232 . S
C321 O313 1.260 . S
C321 O314 1.257 . S
Zn322 O325 2.031 . S
Zn322 O327 2.049 . S
Zn322 O332 2.067 . S
Zn323 O324 1.962 . S
Zn323 O326 1.986 . S
Zn323 O328 1.996 . S
Zn323 O331 1.943 . S
O324 Zn323 1.962 . S
O324 C329 1.254 . S
O325 Zn322 2.031 . S
O325 C329 1.269 . S
O326 Zn323 1.986 . S
O326 C333 1.262 . S
O327 Zn322 2.049 . S
O327 C335 1.260 . S
O328 Zn323 1.996 . S
O328 C335 1.257 . S
C329 O324 1.254 . S
C329 O325 1.269 . S
C330 O331 1.249 . S
C330 O332 1.270 . S
O331 Zn323 1.943 . S
O331 C330 1.249 . S
O332 Zn322 2.067 . S
O332 C330 1.270 . S
C333 O326 1.262 . S
C333 O334 1.232 . S
O334 C333 1.232 . S
C335 O327 1.260 . S
C335 O328 1.257 . S
H336 C354 0.951 . S
H337 C356 0.951 . S
H338 C358 0.950 . S
H339 C359 0.950 . S
H340 C361 0.950 . S
H341 C364 0.950 . S
H342 C365 0.950 . S
H343 C367 0.950 . S
H344 C368 0.950 . S
H345 C369 0.951 . S
H346 C371 0.951 . S
H347 C373 0.950 . S
H348 C374 0.950 . S
H349 C376 0.950 . S
H350 C379 0.950 . S
H351 C380 0.950 . S
H352 C382 0.950 . S
H353 C383 0.950 . S
C354 H336 0.951 . S
C354 C355 1.366 . S
C354 C356 1.388 . S
C355 C354 1.366 . S
C355 C359 1.385 . S
C356 H337 0.951 . S
C356 C354 1.388 . S
C356 C357 1.366 . S
C357 C356 1.366 . S
C357 C358 1.414 . S
C357 C360 1.499 . S
C358 H338 0.950 . S
C358 C357 1.414 . S
C358 C359 1.374 . S
C359 H339 0.950 . S
C359 C355 1.385 . S
C359 C358 1.374 . S
C360 C357 1.499 . S
C360 C361 1.373 . S
C360 C362 1.389 . S
C361 H340 0.950 . S
C361 C360 1.373 . S
C361 C377 1.377 . S
C362 C360 1.389 . S
C362 C363 1.524 . S
C362 C376 1.377 . S
C363 C362 1.524 . S
C363 C364 1.397 . S
C363 C368 1.363 . S
C364 H341 0.950 . S
C364 C363 1.397 . S
C364 C365 1.334 . S
C365 H342 0.950 . S
C365 C364 1.334 . S
C365 C366 1.287 . S
C366 C365 1.287 . S
C366 C367 1.524 . S
C366 H385 0.913 . S
C367 H343 0.950 . S
C367 C366 1.524 . S
C367 C368 1.415 . S
C368 H344 0.950 . S
C368 C363 1.363 . S
C368 C367 1.415 . S
C369 H345 0.951 . S
C369 C370 1.366 . S
C369 C371 1.388 . S
C370 C369 1.366 . S
C370 C374 1.385 . S
C371 H346 0.951 . S
C371 C369 1.388 . S
C371 C372 1.366 . S
C372 C371 1.366 . S
C372 C373 1.414 . S
C372 C375 1.499 . S
C373 H347 0.950 . S
C373 C372 1.414 . S
C373 C374 1.374 . S
C374 H348 0.950 . S
C374 C370 1.385 . S
C374 C373 1.374 . S
C375 C372 1.499 . S
C375 C376 1.373 . S
C375 C377 1.389 . S
C376 H349 0.950 . S
C376 C362 1.377 . S
C376 C375 1.373 . S
C377 C361 1.377 . S
C377 C375 1.389 . S
C377 C378 1.524 . S
C378 C377 1.524 . S
C378 C379 1.397 . S
C378 C383 1.363 . S
C379 H350 0.950 . S
C379 C378 1.397 . S
C379 C380 1.334 . S
C380 H351 0.950 . S
C380 C379 1.334 . S
C380 C381 1.287 . S
C381 C380 1.287 . S
C381 C382 1.524 . S
C381 H384 0.999 . S
C382 H352 0.950 . S
C382 C381 1.524 . S
C382 C383 1.415 . S
C383 H353 0.950 . S
C383 C378 1.363 . S
C383 C382 1.415 . S
H384 C381 0.999 . S
H385 C366 0.913 . S
H386 C404 0.951 . S
H387 C406 0.951 . S
H388 C408 0.950 . S
H389 C409 0.950 . S
H390 C411 0.950 . S
H391 C414 0.950 . S
H392 C415 0.950 . S
H393 C417 0.950 . S
H394 C418 0.950 . S
H395 C419 0.951 . S
H396 C421 0.951 . S
H397 C423 0.950 . S
H398 C424 0.950 . S
H399 C426 0.950 . S
H400 C429 0.950 . S
H401 C430 0.950 . S
H402 C432 0.950 . S
H403 C433 0.950 . S
C404 H386 0.951 . S
C404 C405 1.366 . S
C404 C406 1.388 . S
C405 C404 1.366 . S
C405 C409 1.385 . S
C406 H387 0.951 . S
C406 C404 1.388 . S
C406 C407 1.366 . S
C407 C406 1.366 . S
C407 C408 1.414 . S
C407 C410 1.499 . S
C408 H388 0.950 . S
C408 C407 1.414 . S
C408 C409 1.374 . S
C409 H389 0.950 . S
C409 C405 1.385 . S
C409 C408 1.374 . S
C410 C407 1.499 . S
C410 C411 1.373 . S
C410 C412 1.389 . S
C411 H390 0.950 . S
C411 C410 1.373 . S
C411 C427 1.377 . S
C412 C410 1.389 . S
C412 C413 1.524 . S
C412 C426 1.377 . S
C413 C412 1.524 . S
C413 C414 1.397 . S
C413 C418 1.363 . S
C414 H391 0.950 . S
C414 C413 1.397 . S
C414 C415 1.334 . S
C415 H392 0.950 . S
C415 C414 1.334 . S
C415 C416 1.287 . S
C416 C415 1.287 . S
C416 C417 1.524 . S
C416 H435 0.913 . S
C417 H393 0.950 . S
C417 C416 1.524 . S
C417 C418 1.415 . S
C418 H394 0.950 . S
C418 C413 1.363 . S
C418 C417 1.415 . S
C419 H395 0.951 . S
C419 C420 1.366 . S
C419 C421 1.388 . S
C420 C419 1.366 . S
C420 C424 1.385 . S
C421 H396 0.951 . S
C421 C419 1.388 . S
C421 C422 1.366 . S
C422 C421 1.366 . S
C422 C423 1.414 . S
C422 C425 1.499 . S
C423 H397 0.950 . S
C423 C422 1.414 . S
C423 C424 1.374 . S
C424 H398 0.950 . S
C424 C420 1.385 . S
C424 C423 1.374 . S
C425 C422 1.499 . S
C425 C426 1.373 . S
C425 C427 1.389 . S
C426 H399 0.950 . S
C426 C412 1.377 . S
C426 C425 1.373 . S
C427 C411 1.377 . S
C427 C425 1.389 . S
C427 C428 1.524 . S
C428 C427 1.524 . S
C428 C429 1.397 . S
C428 C433 1.363 . S
C429 H400 0.950 . S
C429 C428 1.397 . S
C429 C430 1.334 . S
C430 H401 0.950 . S
C430 C429 1.334 . S
C430 C431 1.287 . S
C431 C430 1.287 . S
C431 C432 1.524 . S
C431 H434 0.999 . S
C432 H402 0.950 . S
C432 C431 1.524 . S
C432 C433 1.415 . S
C433 H403 0.950 . S
C433 C428 1.363 . S
C433 C432 1.415 . S
H434 C431 0.999 . S
H435 C416 0.913 . S
H436 C454 0.951 . S
H437 C456 0.951 . S
H438 C458 0.950 . S
H439 C459 0.950 . S
H440 C461 0.950 . S
H441 C464 0.950 . S
H442 C465 0.950 . S
H443 C467 0.950 . S
H444 C468 0.950 . S
H445 C469 0.951 . S
H446 C471 0.951 . S
H447 C473 0.950 . S
H448 C474 0.950 . S
H449 C476 0.950 . S
H450 C479 0.950 . S
H451 C480 0.950 . S
H452 C482 0.950 . S
H453 C483 0.950 . S
C454 H436 0.951 . S
C454 C455 1.366 . S
C454 C456 1.388 . S
C455 C454 1.366 . S
C455 C459 1.385 . S
C456 H437 0.951 . S
C456 C454 1.388 . S
C456 C457 1.366 . S
C457 C456 1.366 . S
C457 C458 1.414 . S
C457 C460 1.499 . S
C458 H438 0.950 . S
C458 C457 1.414 . S
C458 C459 1.374 . S
C459 H439 0.950 . S
C459 C455 1.385 . S
C459 C458 1.374 . S
C460 C457 1.499 . S
C460 C461 1.373 . S
C460 C462 1.389 . S
C461 H440 0.950 . S
C461 C460 1.373 . S
C461 C477 1.377 . S
C462 C460 1.389 . S
C462 C463 1.524 . S
C462 C476 1.377 . S
C463 C462 1.524 . S
C463 C464 1.397 . S
C463 C468 1.363 . S
C464 H441 0.950 . S
C464 C463 1.397 . S
C464 C465 1.334 . S
C465 H442 0.950 . S
C465 C464 1.334 . S
C465 C466 1.287 . S
C466 C465 1.287 . S
C466 C467 1.524 . S
C466 H485 0.913 . S
C467 H443 0.950 . S
C467 C466 1.524 . S
C467 C468 1.415 . S
C468 H444 0.950 . S
C468 C463 1.363 . S
C468 C467 1.415 . S
C469 H445 0.951 . S
C469 C470 1.366 . S
C469 C471 1.388 . S
C470 C469 1.366 . S
C470 C474 1.385 . S
C471 H446 0.951 . S
C471 C469 1.388 . S
C471 C472 1.366 . S
C472 C471 1.366 . S
C472 C473 1.414 . S
C472 C475 1.499 . S
C473 H447 0.950 . S
C473 C472 1.414 . S
C473 C474 1.374 . S
C474 H448 0.950 . S
C474 C470 1.385 . S
C474 C473 1.374 . S
C475 C472 1.499 . S
C475 C476 1.373 . S
C475 C477 1.389 . S
C476 H449 0.950 . S
C476 C462 1.377 . S
C476 C475 1.373 . S
C477 C461 1.377 . S
C477 C475 1.389 . S
C477 C478 1.524 . S
C478 C477 1.524 . S
C478 C479 1.397 . S
C478 C483 1.363 . S
C479 H450 0.950 . S
C479 C478 1.397 . S
C479 C480 1.334 . S
C480 H451 0.950 . S
C480 C479 1.334 . S
C480 C481 1.287 . S
C481 C480 1.287 . S
C481 C482 1.524 . S
C481 H484 0.999 . S
C482 H452 0.950 . S
C482 C481 1.524 . S
C482 C483 1.415 . S
C483 H453 0.950 . S
C483 C478 1.363 . S
C483 C482 1.415 . S
H484 C481 0.999 . S
H485 C466 0.913 . S
H486 C504 0.951 . S
H487 C506 0.951 . S
H488 C508 0.950 . S
H489 C509 0.950 . S
H490 C511 0.950 . S
H491 C514 0.950 . S
H492 C515 0.950 . S
H493 C517 0.950 . S
H494 C518 0.950 . S
H495 C519 0.951 . S
H496 C521 0.951 . S
H497 C523 0.950 . S
H498 C524 0.950 . S
H499 C526 0.950 . S
H500 C529 0.950 . S
H501 C530 0.950 . S
H502 C532 0.950 . S
H503 C533 0.950 . S
C504 H486 0.951 . S
C504 C505 1.366 . S
C504 C506 1.388 . S
C505 C504 1.366 . S
C505 C509 1.385 . S
C506 H487 0.951 . S
C506 C504 1.388 . S
C506 C507 1.366 . S
C507 C506 1.366 . S
C507 C508 1.414 . S
C507 C510 1.499 . S
C508 H488 0.950 . S
C508 C507 1.414 . S
C508 C509 1.374 . S
C509 H489 0.950 . S
C509 C505 1.385 . S
C509 C508 1.374 . S
C510 C507 1.499 . S
C510 C511 1.373 . S
C510 C512 1.389 . S
C511 H490 0.950 . S
C511 C510 1.373 . S
C511 C527 1.377 . S
C512 C510 1.389 . S
C512 C513 1.524 . S
C512 C526 1.377 . S
C513 C512 1.524 . S
C513 C514 1.397 . S
C513 C518 1.363 . S
C514 H491 0.950 . S
C514 C513 1.397 . S
C514 C515 1.334 . S
C515 H492 0.950 . S
C515 C514 1.334 . S
C515 C516 1.287 . S
C516 C515 1.287 . S
C516 C517 1.524 . S
C516 H535 0.913 . S
C517 H493 0.950 . S
C517 C516 1.524 . S
C517 C518 1.415 . S
C518 H494 0.950 . S
C518 C513 1.363 . S
C518 C517 1.415 . S
C519 H495 0.951 . S
C519 C520 1.366 . S
C519 C521 1.388 . S
C520 C519 1.366 . S
C520 C524 1.385 . S
C521 H496 0.951 . S
C521 C519 1.388 . S
C521 C522 1.366 . S
C522 C521 1.366 . S
C522 C523 1.414 . S
C522 C525 1.499 . S
C523 H497 0.950 . S
C523 C522 1.414 . S
C523 C524 1.374 . S
C524 H498 0.950 . S
C524 C520 1.385 . S
C524 C523 1.374 . S
C525 C522 1.499 . S
C525 C526 1.373 . S
C525 C527 1.389 . S
C526 H499 0.950 . S
C526 C512 1.377 . S
C526 C525 1.373 . S
C527 C511 1.377 . S
C527 C525 1.389 . S
C527 C528 1.524 . S
C528 C527 1.524 . S
C528 C529 1.397 . S
C528 C533 1.363 . S
C529 H500 0.950 . S
C529 C528 1.397 . S
C529 C530 1.334 . S
C530 H501 0.950 . S
C530 C529 1.334 . S
C530 C531 1.287 . S
C531 C530 1.287 . S
C531 C532 1.524 . S
C531 H534 0.999 . S
C532 H502 0.950 . S
C532 C531 1.524 . S
C532 C533 1.415 . S
C533 H503 0.950 . S
C533 C528 1.363 . S
C533 C532 1.415 . S
H534 C531 0.999 . S
H535 C516 0.913 . S
H536 C554 0.951 . S
H537 C556 0.951 . S
H538 C558 0.950 . S
H539 C559 0.950 . S
H540 C561 0.950 . S
H541 C564 0.950 . S
H542 C565 0.950 . S
H543 C567 0.950 . S
H544 C568 0.950 . S
H545 C569 0.951 . S
H546 C571 0.951 . S
H547 C573 0.950 . S
H548 C574 0.950 . S
H549 C576 0.950 . S
H550 C579 0.950 . S
H551 C580 0.950 . S
H552 C582 0.950 . S
H553 C583 0.950 . S
C554 H536 0.951 . S
C554 C555 1.366 . S
C554 C556 1.388 . S
C555 C554 1.366 . S
C555 C559 1.385 . S
C556 H537 0.951 . S
C556 C554 1.388 . S
C556 C557 1.366 . S
C557 C556 1.366 . S
C557 C558 1.414 . S
C557 C560 1.499 . S
C558 H538 0.950 . S
C558 C557 1.414 . S
C558 C559 1.374 . S
C559 H539 0.950 . S
C559 C555 1.385 . S
C559 C558 1.374 . S
C560 C557 1.499 . S
C560 C561 1.373 . S
C560 C562 1.389 . S
C561 H540 0.950 . S
C561 C560 1.373 . S
C561 C577 1.377 . S
C562 C560 1.389 . S
C562 C563 1.524 . S
C562 C576 1.377 . S
C563 C562 1.524 . S
C563 C564 1.397 . S
C563 C568 1.363 . S
C564 H541 0.950 . S
C564 C563 1.397 . S
C564 C565 1.334 . S
C565 H542 0.950 . S
C565 C564 1.334 . S
C565 C566 1.287 . S
C566 C565 1.287 . S
C566 C567 1.524 . S
C566 H585 0.913 . S
C567 H543 0.950 . S
C567 C566 1.524 . S
C567 C568 1.415 . S
C568 H544 0.950 . S
C568 C563 1.363 . S
C568 C567 1.415 . S
C569 H545 0.951 . S
C569 C570 1.366 . S
C569 C571 1.388 . S
C570 C569 1.366 . S
C570 C574 1.385 . S
C571 H546 0.951 . S
C571 C569 1.388 . S
C571 C572 1.366 . S
C572 C571 1.366 . S
C572 C573 1.414 . S
C572 C575 1.499 . S
C573 H547 0.950 . S
C573 C572 1.414 . S
C573 C574 1.374 . S
C574 H548 0.950 . S
C574 C570 1.385 . S
C574 C573 1.374 . S
C575 C572 1.499 . S
C575 C576 1.373 . S
C575 C577 1.389 . S
C576 H549 0.950 . S
C576 C562 1.377 . S
C576 C575 1.373 . S
C577 C561 1.377 . S
C577 C575 1.389 . S
C577 C578 1.524 . S
C578 C577 1.524 . S
C578 C579 1.397 . S
C578 C583 1.363 . S
C579 H550 0.950 . S
C579 C578 1.397 . S
C579 C580 1.334 . S
C580 H551 0.950 . S
C580 C579 1.334 . S
C580 C581 1.287 . S
C581 C580 1.287 . S
C581 C582 1.524 . S
C581 H584 0.999 . S
C582 H552 0.950 . S
C582 C581 1.524 . S
C582 C583 1.415 . S
C583 H553 0.950 . S
C583 C578 1.363 . S
C583 C582 1.415 . S
H584 C581 0.999 . S
H585 C566 0.913 . S
H586 C604 0.951 . S
H587 C606 0.951 . S
H588 C608 0.950 . S
H589 C609 0.950 . S
H590 C611 0.950 . S
H591 C614 0.950 . S
H592 C615 0.950 . S
H593 C617 0.950 . S
H594 C618 0.950 . S
H595 C619 0.951 . S
H596 C621 0.951 . S
H597 C623 0.950 . S
H598 C624 0.950 . S
H599 C626 0.950 . S
H600 C629 0.950 . S
H601 C630 0.950 . S
H602 C632 0.950 . S
H603 C633 0.950 . S
C604 H586 0.951 . S
C604 C605 1.366 . S
C604 C606 1.388 . S
C605 C604 1.366 . S
C605 C609 1.385 . S
C606 H587 0.951 . S
C606 C604 1.388 . S
C606 C607 1.366 . S
C607 C606 1.366 . S
C607 C608 1.414 . S
C607 C610 1.499 . S
C608 H588 0.950 . S
C608 C607 1.414 . S
C608 C609 1.374 . S
C609 H589 0.950 . S
C609 C605 1.385 . S
C609 C608 1.374 . S
C610 C607 1.499 . S
C610 C611 1.373 . S
C610 C612 1.389 . S
C611 H590 0.950 . S
C611 C610 1.373 . S
C611 C627 1.377 . S
C612 C610 1.389 . S
C612 C613 1.524 . S
C612 C626 1.377 . S
C613 C612 1.524 . S
C613 C614 1.397 . S
C613 C618 1.363 . S
C614 H591 0.950 . S
C614 C613 1.397 . S
C614 C615 1.334 . S
C615 H592 0.950 . S
C615 C614 1.334 . S
C615 C616 1.287 . S
C616 C615 1.287 . S
C616 C617 1.524 . S
C616 H635 0.913 . S
C617 H593 0.950 . S
C617 C616 1.524 . S
C617 C618 1.415 . S
C618 H594 0.950 . S
C618 C613 1.363 . S
C618 C617 1.415 . S
C619 H595 0.951 . S
C619 C620 1.366 . S
C619 C621 1.388 . S
C620 C619 1.366 . S
C620 C624 1.385 . S
C621 H596 0.951 . S
C621 C619 1.388 . S
C621 C622 1.366 . S
C622 C621 1.366 . S
C622 C623 1.414 . S
C622 C625 1.499 . S
C623 H597 0.950 . S
C623 C622 1.414 . S
C623 C624 1.374 . S
C624 H598 0.950 . S
C624 C620 1.385 . S
C624 C623 1.374 . S
C625 C622 1.499 . S
C625 C626 1.373 . S
C625 C627 1.389 . S
C626 H599 0.950 . S
C626 C612 1.377 . S
C626 C625 1.373 . S
C627 C611 1.377 . S
C627 C625 1.389 . S
C627 C628 1.524 . S
C628 C627 1.524 . S
C628 C629 1.397 . S
C628 C633 1.363 . S
C629 H600 0.950 . S
C629 C628 1.397 . S
C629 C630 1.334 . S
C630 H601 0.950 . S
C630 C629 1.334 . S
C630 C631 1.287 . S
C631 C630 1.287 . S
C631 C632 1.524 . S
C631 H634 0.999 . S
C632 H602 0.950 . S
C632 C631 1.524 . S
C632 C633 1.415 . S
C633 H603 0.950 . S
C633 C628 1.363 . S
C633 C632 1.415 . S
H634 C631 0.999 . S
H635 C616 0.913 . S
H636 C654 0.951 . S
H637 C656 0.951 . S
H638 C658 0.950 . S
H639 C659 0.950 . S
H640 C661 0.950 . S
H641 C664 0.950 . S
H642 C665 0.950 . S
H643 C667 0.950 . S
H644 C668 0.950 . S
H645 C669 0.951 . S
H646 C671 0.951 . S
H647 C673 0.950 . S
H648 C674 0.950 . S
H649 C676 0.950 . S
H650 C679 0.950 . S
H651 C680 0.950 . S
H652 C682 0.950 . S
H653 C683 0.950 . S
C654 H636 0.951 . S
C654 C655 1.366 . S
C654 C656 1.388 . S
C655 C654 1.366 . S
C655 C659 1.385 . S
C656 H637 0.951 . S
C656 C654 1.388 . S
C656 C657 1.366 . S
C657 C656 1.366 . S
C657 C658 1.414 . S
C657 C660 1.499 . S
C658 H638 0.950 . S
C658 C657 1.414 . S
C658 C659 1.374 . S
C659 H639 0.950 . S
C659 C655 1.385 . S
C659 C658 1.374 . S
C660 C657 1.499 . S
C660 C661 1.373 . S
C660 C662 1.389 . S
C661 H640 0.950 . S
C661 C660 1.373 . S
C661 C677 1.377 . S
C662 C660 1.389 . S
C662 C663 1.524 . S
C662 C676 1.377 . S
C663 C662 1.524 . S
C663 C664 1.397 . S
C663 C668 1.363 . S
C664 H641 0.950 . S
C664 C663 1.397 . S
C664 C665 1.334 . S
C665 H642 0.950 . S
C665 C664 1.334 . S
C665 C666 1.287 . S
C666 C665 1.287 . S
C666 C667 1.524 . S
C666 H685 0.913 . S
C667 H643 0.950 . S
C667 C666 1.524 . S
C667 C668 1.415 . S
C668 H644 0.950 . S
C668 C663 1.363 . S
C668 C667 1.415 . S
C669 H645 0.951 . S
C669 C670 1.366 . S
C669 C671 1.388 . S
C670 C669 1.366 . S
C670 C674 1.385 . S
C671 H646 0.951 . S
C671 C669 1.388 . S
C671 C672 1.366 . S
C672 C671 1.366 . S
C672 C673 1.414 . S
C672 C675 1.499 . S
C673 H647 0.950 . S
C673 C672 1.414 . S
C673 C674 1.374 . S
C674 H648 0.950 . S
C674 C670 1.385 . S
C674 C673 1.374 . S
C675 C672 1.499 . S
C675 C676 1.373 . S
C675 C677 1.389 . S
C676 H649 0.950 . S
C676 C662 1.377 . S
C676 C675 1.373 . S
C677 C661 1.377 . S
C677 C675 1.389 . S
C677 C678 1.524 . S
C678 C677 1.524 . S
C678 C679 1.397 . S
C678 C683 1.363 . S
C679 H650 0.950 . S
C679 C678 1.397 . S
C679 C680 1.334 . S
C680 H651 0.950 . S
C680 C679 1.334 . S
C680 C681 1.287 . S
C681 C680 1.287 . S
C681 C682 1.524 . S
C681 H684 0.999 . S
C682 H652 0.950 . S
C682 C681 1.524 . S
C682 C683 1.415 . S
C683 H653 0.950 . S
C683 C678 1.363 . S
C683 C682 1.415 . S
H684 C681 0.999 . S
H685 C666 0.913 . S
H686 C704 0.951 . S
H687 C706 0.951 . S
H688 C708 0.950 . S
H689 C709 0.950 . S
H690 C711 0.950 . S
H691 C714 0.950 . S
H692 C715 0.950 . S
H693 C717 0.950 . S
H694 C718 0.950 . S
H695 C719 0.951 . S
H696 C721 0.951 . S
H697 C723 0.950 . S
H698 C724 0.950 . S
H699 C726 0.950 . S
H700 C729 0.950 . S
H701 C730 0.950 . S
H702 C732 0.950 . S
H703 C733 0.950 . S
C704 H686 0.951 . S
C704 C705 1.366 . S
C704 C706 1.388 . S
C705 C704 1.366 . S
C705 C709 1.385 . S
C706 H687 0.951 . S
C706 C704 1.388 . S
C706 C707 1.366 . S
C707 C706 1.366 . S
C707 C708 1.414 . S
C707 C710 1.499 . S
C708 H688 0.950 . S
C708 C707 1.414 . S
C708 C709 1.374 . S
C709 H689 0.950 . S
C709 C705 1.385 . S
C709 C708 1.374 . S
C710 C707 1.499 . S
C710 C711 1.373 . S
C710 C712 1.389 . S
C711 H690 0.950 . S
C711 C710 1.373 . S
C711 C727 1.377 . S
C712 C710 1.389 . S
C712 C713 1.524 . S
C712 C726 1.377 . S
C713 C712 1.524 . S
C713 C714 1.397 . S
C713 C718 1.363 . S
C714 H691 0.950 . S
C714 C713 1.397 . S
C714 C715 1.334 . S
C715 H692 0.950 . S
C715 C714 1.334 . S
C715 C716 1.287 . S
C716 C715 1.287 . S
C716 C717 1.524 . S
C716 H735 0.913 . S
C717 H693 0.950 . S
C717 C716 1.524 . S
C717 C718 1.415 . S
C718 H694 0.950 . S
C718 C713 1.363 . S
C718 C717 1.415 . S
C719 H695 0.951 . S
C719 C720 1.366 . S
C719 C721 1.388 . S
C720 C719 1.366 . S
C720 C724 1.385 . S
C721 H696 0.951 . S
C721 C719 1.388 . S
C721 C722 1.366 . S
C722 C721 1.366 . S
C722 C723 1.414 . S
C722 C725 1.499 . S
C723 H697 0.950 . S
C723 C722 1.414 . S
C723 C724 1.374 . S
C724 H698 0.950 . S
C724 C720 1.385 . S
C724 C723 1.374 . S
C725 C722 1.499 . S
C725 C726 1.373 . S
C725 C727 1.389 . S
C726 H699 0.950 . S
C726 C712 1.377 . S
C726 C725 1.373 . S
C727 C711 1.377 . S
C727 C725 1.389 . S
C727 C728 1.524 . S
C728 C727 1.524 . S
C728 C729 1.397 . S
C728 C733 1.363 . S
C729 H700 0.950 . S
C729 C728 1.397 . S
C729 C730 1.334 . S
C730 H701 0.950 . S
C730 C729 1.334 . S
C730 C731 1.287 . S
C731 C730 1.287 . S
C731 C732 1.524 . S
C731 H734 0.999 . S
C732 H702 0.950 . S
C732 C731 1.524 . S
C732 C733 1.415 . S
C733 H703 0.950 . S
C733 C728 1.363 . S
C733 C732 1.415 . S
H734 C731 0.999 . S
H735 C716 0.913 . S
H736 C754 0.951 . S
H737 C756 0.951 . S
H738 C758 0.950 . S
H739 C759 0.950 . S
H740 C761 0.950 . S
H741 C764 0.950 . S
H742 C765 0.950 . S
H743 C767 0.950 . S
H744 C768 0.950 . S
H745 C769 0.951 . S
H746 C771 0.951 . S
H747 C773 0.950 . S
H748 C774 0.950 . S
H749 C776 0.950 . S
H750 C779 0.950 . S
H751 C780 0.950 . S
H752 C782 0.950 . S
H753 C783 0.950 . S
C754 H736 0.951 . S
C754 C755 1.366 . S
C754 C756 1.388 . S
C755 C754 1.366 . S
C755 C759 1.385 . S
C756 H737 0.951 . S
C756 C754 1.388 . S
C756 C757 1.366 . S
C757 C756 1.366 . S
C757 C758 1.414 . S
C757 C760 1.499 . S
C758 H738 0.950 . S
C758 C757 1.414 . S
C758 C759 1.374 . S
C759 H739 0.950 . S
C759 C755 1.385 . S
C759 C758 1.374 . S
C760 C757 1.499 . S
C760 C761 1.373 . S
C760 C762 1.389 . S
C761 H740 0.950 . S
C761 C760 1.373 . S
C761 C777 1.377 . S
C762 C760 1.389 . S
C762 C763 1.524 . S
C762 C776 1.377 . S
C763 C762 1.524 . S
C763 C764 1.397 . S
C763 C768 1.363 . S
C764 H741 0.950 . S
C764 C763 1.397 . S
C764 C765 1.334 . S
C765 H742 0.950 . S
C765 C764 1.334 . S
C765 C766 1.287 . S
C766 C765 1.287 . S
C766 C767 1.524 . S
C766 H785 0.913 . S
C767 H743 0.950 . S
C767 C766 1.524 . S
C767 C768 1.415 . S
C768 H744 0.950 . S
C768 C763 1.363 . S
C768 C767 1.415 . S
C769 H745 0.951 . S
C769 C770 1.366 . S
C769 C771 1.388 . S
C770 C769 1.366 . S
C770 C774 1.385 . S
C771 H746 0.951 . S
C771 C769 1.388 . S
C771 C772 1.366 . S
C772 C771 1.366 . S
C772 C773 1.414 . S
C772 C775 1.499 . S
C773 H747 0.950 . S
C773 C772 1.414 . S
C773 C774 1.374 . S
C774 H748 0.950 . S
C774 C770 1.385 . S
C774 C773 1.374 . S
C775 C772 1.499 . S
C775 C776 1.373 . S
C775 C777 1.389 . S
C776 H749 0.950 . S
C776 C762 1.377 . S
C776 C775 1.373 . S
C777 C761 1.377 . S
C777 C775 1.389 . S
C777 C778 1.524 . S
C778 C777 1.524 . S
C778 C779 1.397 . S
C778 C783 1.363 . S
C779 H750 0.950 . S
C779 C778 1.397 . S
C779 C780 1.334 . S
C780 H751 0.950 . S
C780 C779 1.334 . S
C780 C781 1.287 . S
C781 C780 1.287 . S
C781 C782 1.524 . S
C781 H784 0.999 . S
C782 H752 0.950 . S
C782 C781 1.524 . S
C782 C783 1.415 . S
C783 H753 0.950 . S
C783 C778 1.363 . S
C783 C782 1.415 . S
H784 C781 0.999 . S
H785 C766 0.913 . S
H786 C804 0.951 . S
H787 C806 0.951 . S
H788 C808 0.950 . S
H789 C809 0.950 . S
H790 C811 0.950 . S
H791 C814 0.950 . S
H792 C815 0.950 . S
H793 C817 0.950 . S
H794 C818 0.950 . S
H795 C819 0.951 . S
H796 C821 0.951 . S
H797 C823 0.950 . S
H798 C824 0.950 . S
H799 C826 0.950 . S
H800 C829 0.950 . S
H801 C830 0.950 . S
H802 C832 0.950 . S
H803 C833 0.950 . S
C804 H786 0.951 . S
C804 C805 1.366 . S
C804 C806 1.388 . S
C805 C804 1.366 . S
C805 C809 1.385 . S
C806 H787 0.951 . S
C806 C804 1.388 . S
C806 C807 1.366 . S
C807 C806 1.366 . S
C807 C808 1.414 . S
C807 C810 1.499 . S
C808 H788 0.950 . S
C808 C807 1.414 . S
C808 C809 1.374 . S
C809 H789 0.950 . S
C809 C805 1.385 . S
C809 C808 1.374 . S
C810 C807 1.499 . S
C810 C811 1.373 . S
C810 C812 1.389 . S
C811 H790 0.950 . S
C811 C810 1.373 . S
C811 C827 1.377 . S
C812 C810 1.389 . S
C812 C813 1.524 . S
C812 C826 1.377 . S
C813 C812 1.524 . S
C813 C814 1.397 . S
C813 C818 1.363 . S
C814 H791 0.950 . S
C814 C813 1.397 . S
C814 C815 1.334 . S
C815 H792 0.950 . S
C815 C814 1.334 . S
C815 C816 1.287 . S
C816 C815 1.287 . S
C816 C817 1.524 . S
C816 H835 0.913 . S
C817 H793 0.950 . S
C817 C816 1.524 . S
C817 C818 1.415 . S
C818 H794 0.950 . S
C818 C813 1.363 . S
C818 C817 1.415 . S
C819 H795 0.951 . S
C819 C820 1.366 . S
C819 C821 1.388 . S
C820 C819 1.366 . S
C820 C824 1.385 . S
C821 H796 0.951 . S
C821 C819 1.388 . S
C821 C822 1.366 . S
C822 C821 1.366 . S
C822 C823 1.414 . S
C822 C825 1.499 . S
C823 H797 0.950 . S
C823 C822 1.414 . S
C823 C824 1.374 . S
C824 H798 0.950 . S
C824 C820 1.385 . S
C824 C823 1.374 . S
C825 C822 1.499 . S
C825 C826 1.373 . S
C825 C827 1.389 . S
C826 H799 0.950 . S
C826 C812 1.377 . S
C826 C825 1.373 . S
C827 C811 1.377 . S
C827 C825 1.389 . S
C827 C828 1.524 . S
C828 C827 1.524 . S
C828 C829 1.397 . S
C828 C833 1.363 . S
C829 H800 0.950 . S
C829 C828 1.397 . S
C829 C830 1.334 . S
C830 H801 0.950 . S
C830 C829 1.334 . S
C830 C831 1.287 . S
C831 C830 1.287 . S
C831 C832 1.524 . S
C831 H834 0.999 . S
C832 H802 0.950 . S
C832 C831 1.524 . S
C832 C833 1.415 . S
C833 H803 0.950 . S
C833 C828 1.363 . S
C833 C832 1.415 . S
H834 C831 0.999 . S
H835 C816 0.913 . S
H836 C854 0.951 . S
H837 C856 0.951 . S
H838 C858 0.950 . S
H839 C859 0.950 . S
H840 C861 0.950 . S
H841 C864 0.950 . S
H842 C865 0.950 . S
H843 C867 0.950 . S
H844 C868 0.950 . S
H845 C869 0.951 . S
H846 C871 0.951 . S
H847 C873 0.950 . S
H848 C874 0.950 . S
H849 C876 0.950 . S
H850 C879 0.950 . S
H851 C880 0.950 . S
H852 C882 0.950 . S
H853 C883 0.950 . S
C854 H836 0.951 . S
C854 C855 1.366 . S
C854 C856 1.388 . S
C855 C854 1.366 . S
C855 C859 1.385 . S
C856 H837 0.951 . S
C856 C854 1.388 . S
C856 C857 1.366 . S
C857 C856 1.366 . S
C857 C858 1.414 . S
C857 C860 1.499 . S
C858 H838 0.950 . S
C858 C857 1.414 . S
C858 C859 1.374 . S
C859 H839 0.950 . S
C859 C855 1.385 . S
C859 C858 1.374 . S
C860 C857 1.499 . S
C860 C861 1.373 . S
C860 C862 1.389 . S
C861 H840 0.950 . S
C861 C860 1.373 . S
C861 C877 1.377 . S
C862 C860 1.389 . S
C862 C863 1.524 . S
C862 C876 1.377 . S
C863 C862 1.524 . S
C863 C864 1.397 . S
C863 C868 1.363 . S
C864 H841 0.950 . S
C864 C863 1.397 . S
C864 C865 1.334 . S
C865 H842 0.950 . S
C865 C864 1.334 . S
C865 C866 1.287 . S
C866 C865 1.287 . S
C866 C867 1.524 . S
C866 H885 0.913 . S
C867 H843 0.950 . S
C867 C866 1.524 . S
C867 C868 1.415 . S
C868 H844 0.950 . S
C868 C863 1.363 . S
C868 C867 1.415 . S
C869 H845 0.951 . S
C869 C870 1.366 . S
C869 C871 1.388 . S
C870 C869 1.366 . S
C870 C874 1.385 . S
C871 H846 0.951 . S
C871 C869 1.388 . S
C871 C872 1.366 . S
C872 C871 1.366 . S
C872 C873 1.414 . S
C872 C875 1.499 . S
C873 H847 0.950 . S
C873 C872 1.414 . S
C873 C874 1.374 . S
C874 H848 0.950 . S
C874 C870 1.385 . S
C874 C873 1.374 . S
C875 C872 1.499 . S
C875 C876 1.373 . S
C875 C877 1.389 . S
C876 H849 0.950 . S
C876 C862 1.377 . S
C876 C875 1.373 . S
C877 C861 1.377 . S
C877 C875 1.389 . S
C877 C878 1.524 . S
C878 C877 1.524 . S
C878 C879 1.397 . S
C878 C883 1.363 . S
C879 H850 0.950 . S
C879 C878 1.397 . S
C879 C880 1.334 . S
C880 H851 0.950 . S
C880 C879 1.334 . S
C880 C881 1.287 . S
C881 C880 1.287 . S
C881 C882 1.524 . S
C881 H884 0.999 . S
C882 H852 0.950 . S
C882 C881 1.524 . S
C882 C883 1.415 . S
C883 H853 0.950 . S
C883 C878 1.363 . S
C883 C882 1.415 . S
H884 C881 0.999 . S
H885 C866 0.913 . S
H886 C904 0.951 . S
H887 C906 0.951 . S
H888 C908 0.950 . S
H889 C909 0.950 . S
H890 C911 0.950 . S
H891 C914 0.950 . S
H892 C915 0.950 . S
H893 C917 0.950 . S
H894 C918 0.950 . S
H895 C919 0.951 . S
H896 C921 0.951 . S
H897 C923 0.950 . S
H898 C924 0.950 . S
H899 C926 0.950 . S
H900 C929 0.950 . S
H901 C930 0.950 . S
H902 C932 0.950 . S
H903 C933 0.950 . S
C904 H886 0.951 . S
C904 C905 1.366 . S
C904 C906 1.388 . S
C905 C904 1.366 . S
C905 C909 1.385 . S
C906 H887 0.951 . S
C906 C904 1.388 . S
C906 C907 1.366 . S
C907 C906 1.366 . S
C907 C908 1.414 . S
C907 C910 1.499 . S
C908 H888 0.950 . S
C908 C907 1.414 . S
C908 C909 1.374 . S
C909 H889 0.950 . S
C909 C905 1.385 . S
C909 C908 1.374 . S
C910 C907 1.499 . S
C910 C911 1.373 . S
C910 C912 1.389 . S
C911 H890 0.950 . S
C911 C910 1.373 . S
C911 C927 1.377 . S
C912 C910 1.389 . S
C912 C913 1.524 . S
C912 C926 1.377 . S
C913 C912 1.524 . S
C913 C914 1.397 . S
C913 C918 1.363 . S
C914 H891 0.950 . S
C914 C913 1.397 . S
C914 C915 1.334 . S
C915 H892 0.950 . S
C915 C914 1.334 . S
C915 C916 1.287 . S
C916 C915 1.287 . S
C916 C917 1.524 . S
C916 H935 0.913 . S
C917 H893 0.950 . S
C917 C916 1.524 . S
C917 C918 1.415 . S
C918 H894 0.950 . S
C918 C913 1.363 . S
C918 C917 1.415 . S
C919 H895 0.951 . S
C919 C920 1.366 . S
C919 C921 1.388 . S
C920 C919 1.366 . S
C920 C924 1.385 . S
C921 H896 0.951 . S
C921 C919 1.388 . S
C921 C922 1.366 . S
C922 C921 1.366 . S
C922 C923 1.414 . S
C922 C925 1.499 . S
C923 H897 0.950 . S
C923 C922 1.414 . S
C923 C924 1.374 . S
C924 H898 0.950 . S
C924 C920 1.385 . S
C924 C923 1.374 . S
C925 C922 1.499 . S
C925 C926 1.373 . S
C925 C927 1.389 . S
C926 H899 0.950 . S
C926 C912 1.377 . S
C926 C925 1.373 . S
C927 C911 1.377 . S
C927 C925 1.389 . S
C927 C928 1.524 . S
C928 C927 1.524 . S
C928 C929 1.397 . S
C928 C933 1.363 . S
C929 H900 0.950 . S
C929 C928 1.397 . S
C929 C930 1.334 . S
C930 H901 0.950 . S
C930 C929 1.334 . S
C930 C931 1.287 . S
C931 C930 1.287 . S
C931 C932 1.524 . S
C931 H934 0.999 . S
C932 H902 0.950 . S
C932 C931 1.524 . S
C932 C933 1.415 . S
C933 H903 0.950 . S
C933 C928 1.363 . S
C933 C932 1.415 . S
H934 C931 0.999 . S
H935 C916 0.913 . S
H936 C954 0.951 . S
H937 C956 0.951 . S
H938 C958 0.950 . S
H939 C959 0.950 . S
H940 C961 0.950 . S
H941 C964 0.950 . S
H942 C965 0.950 . S
H943 C967 0.950 . S
H944 C968 0.950 . S
H945 C969 0.951 . S
H946 C971 0.951 . S
H947 C973 0.950 . S
H948 C974 0.950 . S
H949 C976 0.950 . S
H950 C979 0.950 . S
H951 C980 0.950 . S
H952 C982 0.950 . S
H953 C983 0.950 . S
C954 H936 0.951 . S
C954 C955 1.366 . S
C954 C956 1.388 . S
C955 C954 1.366 . S
C955 C959 1.385 . S
C956 H937 0.951 . S
C956 C954 1.388 . S
C956 C957 1.366 . S
C957 C956 1.366 . S
C957 C958 1.414 . S
C957 C960 1.499 . S
C958 H938 0.950 . S
C958 C957 1.414 . S
C958 C959 1.374 . S
C959 H939 0.950 . S
C959 C955 1.385 . S
C959 C958 1.374 . S
C960 C957 1.499 . S
C960 C961 1.373 . S
C960 C962 1.389 1_556 S
C961 H940 0.950 . S
C961 C960 1.373 . S
C961 C977 1.377 . S
C962 C960 1.389 1_554 S
C962 C963 1.524 . S
C962 C976 1.377 . S
C963 C962 1.524 . S
C963 C964 1.397 . S
C963 C968 1.363 . S
C964 H941 0.950 . S
C964 C963 1.397 . S
C964 C965 1.334 . S
C965 H942 0.950 . S
C965 C964 1.334 . S
C965 C966 1.287 . S
C966 C965 1.287 . S
C966 C967 1.524 . S
C966 H985 0.913 . S
C967 H943 0.950 . S
C967 C966 1.524 . S
C967 C968 1.415 . S
C968 H944 0.950 . S
C968 C963 1.363 . S
C968 C967 1.415 . S
C969 H945 0.951 . S
C969 C970 1.366 . S
C969 C971 1.388 . S
C970 C969 1.366 . S
C970 C974 1.385 . S
C971 H946 0.951 . S
C971 C969 1.388 . S
C971 C972 1.366 . S
C972 C971 1.366 . S
C972 C973 1.414 . S
C972 C975 1.499 . S
C973 H947 0.950 . S
C973 C972 1.414 . S
C973 C974 1.374 . S
C974 H948 0.950 . S
C974 C970 1.385 . S
C974 C973 1.374 . S
C975 C972 1.499 . S
C975 C976 1.373 . S
C975 C977 1.389 1_554 S
C976 H949 0.950 . S
C976 C962 1.377 . S
C976 C975 1.373 . S
C977 C961 1.377 . S
C977 C975 1.389 1_556 S
C977 C978 1.524 . S
C978 C977 1.524 . S
C978 C979 1.397 . S
C978 C983 1.363 . S
C979 H950 0.950 . S
C979 C978 1.397 . S
C979 C980 1.334 . S
C980 H951 0.950 . S
C980 C979 1.334 . S
C980 C981 1.287 . S
C981 C980 1.287 . S
C981 C982 1.524 . S
C981 H984 0.999 . S
C982 H952 0.950 . S
C982 C981 1.524 . S
C982 C983 1.415 . S
C983 H953 0.950 . S
C983 C978 1.363 . S
C983 C982 1.415 . S
H984 C981 0.999 . S
H985 C966 0.913 . S
H986 C1004 0.951 . S
H987 C1006 0.951 . S
H988 C1008 0.950 . S
H989 C1009 0.950 . S
H990 C1011 0.950 . S
H991 C1014 0.950 . S
H992 C1015 0.950 . S
H993 C1017 0.950 . S
H994 C1018 0.950 . S
H995 C1019 0.951 . S
H996 C1021 0.951 . S
H997 C1023 0.950 . S
H998 C1024 0.950 . S
H999 C1026 0.950 . S
H1000 C1029 0.950 . S
H1001 C1030 0.950 . S
H1002 C1032 0.950 . S
H1003 C1033 0.950 . S
C1004 H986 0.951 . S
C1004 C1005 1.366 . S
C1004 C1006 1.388 . S
C1005 C1004 1.366 . S
C1005 C1009 1.385 . S
C1006 H987 0.951 . S
C1006 C1004 1.388 . S
C1006 C1007 1.366 . S
C1007 C1006 1.366 . S
C1007 C1008 1.414 . S
C1007 C1010 1.499 . S
C1008 H988 0.950 . S
C1008 C1007 1.414 . S
C1008 C1009 1.374 . S
C1009 H989 0.950 . S
C1009 C1005 1.385 . S
C1009 C1008 1.374 . S
C1010 C1007 1.499 . S
C1010 C1011 1.373 . S
C1010 C1012 1.389 . S
C1011 H990 0.950 . S
C1011 C1010 1.373 . S
C1011 C1027 1.377 . S
C1012 C1010 1.389 . S
C1012 C1013 1.524 . S
C1012 C1026 1.377 . S
C1013 C1012 1.524 . S
C1013 C1014 1.397 . S
C1013 C1018 1.363 . S
C1014 H991 0.950 . S
C1014 C1013 1.397 . S
C1014 C1015 1.334 . S
C1015 H992 0.950 . S
C1015 C1014 1.334 . S
C1015 C1016 1.287 . S
C1016 C1015 1.287 . S
C1016 C1017 1.524 . S
C1016 H1035 0.913 . S
C1017 H993 0.950 . S
C1017 C1016 1.524 . S
C1017 C1018 1.415 . S
C1018 H994 0.950 . S
C1018 C1013 1.363 . S
C1018 C1017 1.415 . S
C1019 H995 0.951 . S
C1019 C1020 1.366 . S
C1019 C1021 1.388 . S
C1020 C1019 1.366 . S
C1020 C1024 1.385 . S
C1021 H996 0.951 . S
C1021 C1019 1.388 . S
C1021 C1022 1.366 . S
C1022 C1021 1.366 . S
C1022 C1023 1.414 . S
C1022 C1025 1.499 . S
C1023 H997 0.950 . S
C1023 C1022 1.414 . S
C1023 C1024 1.374 . S
C1024 H998 0.950 . S
C1024 C1020 1.385 . S
C1024 C1023 1.374 . S
C1025 C1022 1.499 . S
C1025 C1026 1.373 . S
C1025 C1027 1.389 . S
C1026 H999 0.950 . S
C1026 C1012 1.377 . S
C1026 C1025 1.373 . S
C1027 C1011 1.377 . S
C1027 C1025 1.389 . S
C1027 C1028 1.524 . S
C1028 C1027 1.524 . S
C1028 C1029 1.397 . S
C1028 C1033 1.363 . S
C1029 H1000 0.950 . S
C1029 C1028 1.397 . S
C1029 C1030 1.334 . S
C1030 H1001 0.950 . S
C1030 C1029 1.334 . S
C1030 C1031 1.287 . S
C1031 C1030 1.287 . S
C1031 C1032 1.524 . S
C1031 H1034 0.999 . S
C1032 H1002 0.950 . S
C1032 C1031 1.524 . S
C1032 C1033 1.415 . S
C1033 H1003 0.950 . S
C1033 C1028 1.363 . S
C1033 C1032 1.415 . S
H1034 C1031 0.999 . S
H1035 C1016 0.913 . S
H1036 C1054 0.951 . S
H1037 C1056 0.951 . S
H1038 C1058 0.950 . S
H1039 C1059 0.950 . S
H1040 C1061 0.950 . S
H1041 C1064 0.950 . S
H1042 C1065 0.950 . S
H1043 C1067 0.950 . S
H1044 C1068 0.950 . S
H1045 C1069 0.951 . S
H1046 C1071 0.951 . S
H1047 C1073 0.950 . S
H1048 C1074 0.950 . S
H1049 C1076 0.950 . S
H1050 C1079 0.950 . S
H1051 C1080 0.950 . S
H1052 C1082 0.950 . S
H1053 C1083 0.950 . S
C1054 H1036 0.951 . S
C1054 C1055 1.366 . S
C1054 C1056 1.388 . S
C1055 C1054 1.366 . S
C1055 C1059 1.385 . S
C1056 H1037 0.951 . S
C1056 C1054 1.388 . S
C1056 C1057 1.366 . S
C1057 C1056 1.366 . S
C1057 C1058 1.414 . S
C1057 C1060 1.499 . S
C1058 H1038 0.950 . S
C1058 C1057 1.414 . S
C1058 C1059 1.374 . S
C1059 H1039 0.950 . S
C1059 C1055 1.385 . S
C1059 C1058 1.374 . S
C1060 C1057 1.499 . S
C1060 C1061 1.373 . S
C1060 C1062 1.389 1_554 S
C1061 H1040 0.950 . S
C1061 C1060 1.373 . S
C1061 C1077 1.377 . S
C1062 C1060 1.389 1_556 S
C1062 C1063 1.524 . S
C1062 C1076 1.377 . S
C1063 C1062 1.524 . S
C1063 C1064 1.397 . S
C1063 C1068 1.363 . S
C1064 H1041 0.950 . S
C1064 C1063 1.397 . S
C1064 C1065 1.334 . S
C1065 H1042 0.950 . S
C1065 C1064 1.334 . S
C1065 C1066 1.287 . S
C1066 C1065 1.287 . S
C1066 C1067 1.524 . S
C1066 H1085 0.913 . S
C1067 H1043 0.950 . S
C1067 C1066 1.524 . S
C1067 C1068 1.415 . S
C1068 H1044 0.950 . S
C1068 C1063 1.363 . S
C1068 C1067 1.415 . S
C1069 H1045 0.951 . S
C1069 C1070 1.366 . S
C1069 C1071 1.388 . S
C1070 C1069 1.366 . S
C1070 C1074 1.385 . S
C1071 H1046 0.951 . S
C1071 C1069 1.388 . S
C1071 C1072 1.366 . S
C1072 C1071 1.366 . S
C1072 C1073 1.414 . S
C1072 C1075 1.499 . S
C1073 H1047 0.950 . S
C1073 C1072 1.414 . S
C1073 C1074 1.374 . S
C1074 H1048 0.950 . S
C1074 C1070 1.385 . S
C1074 C1073 1.374 . S
C1075 C1072 1.499 . S
C1075 C1076 1.373 . S
C1075 C1077 1.389 1_556 S
C1076 H1049 0.950 . S
C1076 C1062 1.377 . S
C1076 C1075 1.373 . S
C1077 C1061 1.377 . S
C1077 C1075 1.389 1_554 S
C1077 C1078 1.524 . S
C1078 C1077 1.524 . S
C1078 C1079 1.397 . S
C1078 C1083 1.363 . S
C1079 H1050 0.950 . S
C1079 C1078 1.397 . S
C1079 C1080 1.334 . S
C1080 H1051 0.950 . S
C1080 C1079 1.334 . S
C1080 C1081 1.287 . S
C1081 C1080 1.287 . S
C1081 C1082 1.524 . S
C1081 H1084 0.999 . S
C1082 H1052 0.950 . S
C1082 C1081 1.524 . S
C1082 C1083 1.415 . S
C1083 H1053 0.950 . S
C1083 C1078 1.363 . S
C1083 C1082 1.415 . S
H1084 C1081 0.999 . S
H1085 C1066 0.913 . S
H1086 C1104 0.951 . S
H1087 C1106 0.951 . S
H1088 C1108 0.950 . S
H1089 C1109 0.950 . S
H1090 C1111 0.950 . S
H1091 C1114 0.950 . S
H1092 C1115 0.950 . S
H1093 C1117 0.950 . S
H1094 C1118 0.950 . S
H1095 C1119 0.951 . S
H1096 C1121 0.951 . S
H1097 C1123 0.950 . S
H1098 C1124 0.950 . S
H1099 C1126 0.950 . S
H1100 C1129 0.950 . S
H1101 C1130 0.950 . S
H1102 C1132 0.950 . S
H1103 C1133 0.950 . S
C1104 H1086 0.951 . S
C1104 C1105 1.366 . S
C1104 C1106 1.388 . S
C1105 C1104 1.366 . S
C1105 C1109 1.385 . S
C1106 H1087 0.951 . S
C1106 C1104 1.388 . S
C1106 C1107 1.366 . S
C1107 C1106 1.366 . S
C1107 C1108 1.414 . S
C1107 C1110 1.499 . S
C1108 H1088 0.950 . S
C1108 C1107 1.414 . S
C1108 C1109 1.374 . S
C1109 H1089 0.950 . S
C1109 C1105 1.385 . S
C1109 C1108 1.374 . S
C1110 C1107 1.499 . S
C1110 C1111 1.373 . S
C1110 C1112 1.389 . S
C1111 H1090 0.950 . S
C1111 C1110 1.373 . S
C1111 C1127 1.377 . S
C1112 C1110 1.389 . S
C1112 C1113 1.524 . S
C1112 C1126 1.377 . S
C1113 C1112 1.524 . S
C1113 C1114 1.397 . S
C1113 C1118 1.363 . S
C1114 H1091 0.950 . S
C1114 C1113 1.397 . S
C1114 C1115 1.334 . S
C1115 H1092 0.950 . S
C1115 C1114 1.334 . S
C1115 C1116 1.287 . S
C1116 C1115 1.287 . S
C1116 C1117 1.524 . S
C1116 H1135 0.913 . S
C1117 H1093 0.950 . S
C1117 C1116 1.524 . S
C1117 C1118 1.415 . S
C1118 H1094 0.950 . S
C1118 C1113 1.363 . S
C1118 C1117 1.415 . S
C1119 H1095 0.951 . S
C1119 C1120 1.366 . S
C1119 C1121 1.388 . S
C1120 C1119 1.366 . S
C1120 C1124 1.385 . S
C1121 H1096 0.951 . S
C1121 C1119 1.388 . S
C1121 C1122 1.366 . S
C1122 C1121 1.366 . S
C1122 C1123 1.414 . S
C1122 C1125 1.499 . S
C1123 H1097 0.950 . S
C1123 C1122 1.414 . S
C1123 C1124 1.374 . S
C1124 H1098 0.950 . S
C1124 C1120 1.385 . S
C1124 C1123 1.374 . S
C1125 C1122 1.499 . S
C1125 C1126 1.373 . S
C1125 C1127 1.389 . S
C1126 H1099 0.950 . S
C1126 C1112 1.377 . S
C1126 C1125 1.373 . S
C1127 C1111 1.377 . S
C1127 C1125 1.389 . S
C1127 C1128 1.524 . S
C1128 C1127 1.524 . S
C1128 C1129 1.397 . S
C1128 C1133 1.363 . S
C1129 H1100 0.950 . S
C1129 C1128 1.397 . S
C1129 C1130 1.334 . S
C1130 H1101 0.950 . S
C1130 C1129 1.334 . S
C1130 C1131 1.287 . S
C1131 C1130 1.287 . S
C1131 C1132 1.524 . S
C1131 H1134 0.999 . S
C1132 H1102 0.950 . S
C1132 C1131 1.524 . S
C1132 C1133 1.415 . S
C1133 H1103 0.950 . S
C1133 C1128 1.363 . S
C1133 C1132 1.415 . S
H1134 C1131 0.999 . S
H1135 C1116 0.913 . S
H1136 C1154 0.951 . S
H1137 C1156 0.951 . S
H1138 C1158 0.950 1_554 S
H1139 C1159 0.950 . S
H1140 C1161 0.950 . S
H1141 C1164 0.950 . S
H1142 C1165 0.950 . S
H1143 C1167 0.950 . S
H1144 C1168 0.950 . S
H1145 C1169 0.951 . S
H1146 C1171 0.951 . S
H1147 C1173 0.950 1_556 S
H1148 C1174 0.950 . S
H1149 C1176 0.950 . S
H1150 C1179 0.950 . S
H1151 C1180 0.950 . S
H1152 C1182 0.950 . S
H1153 C1183 0.950 . S
C1154 H1136 0.951 . S
C1154 C1155 1.366 . S
C1154 C1156 1.388 . S
C1155 C1154 1.366 . S
C1155 C1159 1.385 . S
C1156 H1137 0.951 . S
C1156 C1154 1.388 . S
C1156 C1157 1.366 . S
C1157 C1156 1.366 . S
C1157 C1158 1.414 . S
C1157 C1160 1.499 . S
C1158 H1138 0.950 1_556 S
C1158 C1157 1.414 . S
C1158 C1159 1.374 . S
C1159 H1139 0.950 . S
C1159 C1155 1.385 . S
C1159 C1158 1.374 . S
C1160 C1157 1.499 . S
C1160 C1161 1.373 1_556 S
C1160 C1162 1.389 . S
C1161 H1140 0.950 . S
C1161 C1160 1.373 1_554 S
C1161 C1177 1.377 . S
C1162 C1160 1.389 . S
C1162 C1163 1.524 . S
C1162 C1176 1.377 . S
C1163 C1162 1.524 . S
C1163 C1164 1.397 . S
C1163 C1168 1.363 . S
C1164 H1141 0.950 . S
C1164 C1163 1.397 . S
C1164 C1165 1.334 . S
C1165 H1142 0.950 . S
C1165 C1164 1.334 . S
C1165 C1166 1.287 . S
C1166 C1165 1.287 . S
C1166 C1167 1.524 . S
C1166 H1185 0.913 . S
C1167 H1143 0.950 . S
C1167 C1166 1.524 . S
C1167 C1168 1.415 . S
C1168 H1144 0.950 . S
C1168 C1163 1.363 . S
C1168 C1167 1.415 . S
C1169 H1145 0.951 . S
C1169 C1170 1.366 . S
C1169 C1171 1.388 . S
C1170 C1169 1.366 . S
C1170 C1174 1.385 . S
C1171 H1146 0.951 . S
C1171 C1169 1.388 . S
C1171 C1172 1.366 . S
C1172 C1171 1.366 . S
C1172 C1173 1.414 . S
C1172 C1175 1.499 . S
C1173 H1147 0.950 1_554 S
C1173 C1172 1.414 . S
C1173 C1174 1.374 . S
C1174 H1148 0.950 . S
C1174 C1170 1.385 . S
C1174 C1173 1.374 . S
C1175 C1172 1.499 . S
C1175 C1176 1.373 1_554 S
C1175 C1177 1.389 . S
C1176 H1149 0.950 . S
C1176 C1162 1.377 . S
C1176 C1175 1.373 1_556 S
C1177 C1161 1.377 . S
C1177 C1175 1.389 . S
C1177 C1178 1.524 . S
C1178 C1177 1.524 . S
C1178 C1179 1.397 . S
C1178 C1183 1.363 . S
C1179 H1150 0.950 . S
C1179 C1178 1.397 . S
C1179 C1180 1.334 . S
C1180 H1151 0.950 . S
C1180 C1179 1.334 . S
C1180 C1181 1.287 . S
C1181 C1180 1.287 . S
C1181 C1182 1.524 . S
C1181 H1184 0.999 . S
C1182 H1152 0.950 . S
C1182 C1181 1.524 . S
C1182 C1183 1.415 . S
C1183 H1153 0.950 . S
C1183 C1178 1.363 . S
C1183 C1182 1.415 . S
H1184 C1181 0.999 . S
H1185 C1166 0.913 . S
H1186 C1204 0.951 . S
H1187 C1206 0.951 . S
H1188 C1208 0.950 . S
H1189 C1209 0.950 . S
H1190 C1211 0.950 . S
H1191 C1214 0.950 . S
H1192 C1215 0.950 . S
H1193 C1217 0.950 . S
H1194 C1218 0.950 . S
H1195 C1219 0.951 . S
H1196 C1221 0.951 . S
H1197 C1223 0.950 . S
H1198 C1224 0.950 . S
H1199 C1226 0.950 . S
H1200 C1229 0.950 . S
H1201 C1230 0.950 . S
H1202 C1232 0.950 . S
H1203 C1233 0.950 . S
C1204 H1186 0.951 . S
C1204 C1205 1.366 . S
C1204 C1206 1.388 . S
C1205 C1204 1.366 . S
C1205 C1209 1.385 . S
C1206 H1187 0.951 . S
C1206 C1204 1.388 . S
C1206 C1207 1.366 . S
C1207 C1206 1.366 . S
C1207 C1208 1.414 . S
C1207 C1210 1.499 . S
C1208 H1188 0.950 . S
C1208 C1207 1.414 . S
C1208 C1209 1.374 . S
C1209 H1189 0.950 . S
C1209 C1205 1.385 . S
C1209 C1208 1.374 . S
C1210 C1207 1.499 . S
C1210 C1211 1.373 . S
C1210 C1212 1.389 . S
C1211 H1190 0.950 . S
C1211 C1210 1.373 . S
C1211 C1227 1.377 . S
C1212 C1210 1.389 . S
C1212 C1213 1.524 . S
C1212 C1226 1.377 . S
C1213 C1212 1.524 . S
C1213 C1214 1.397 . S
C1213 C1218 1.363 . S
C1214 H1191 0.950 . S
C1214 C1213 1.397 . S
C1214 C1215 1.334 . S
C1215 H1192 0.950 . S
C1215 C1214 1.334 . S
C1215 C1216 1.287 . S
C1216 C1215 1.287 . S
C1216 C1217 1.524 . S
C1216 H1235 0.913 . S
C1217 H1193 0.950 . S
C1217 C1216 1.524 . S
C1217 C1218 1.415 . S
C1218 H1194 0.950 . S
C1218 C1213 1.363 . S
C1218 C1217 1.415 . S
C1219 H1195 0.951 . S
C1219 C1220 1.366 . S
C1219 C1221 1.388 . S
C1220 C1219 1.366 . S
C1220 C1224 1.385 . S
C1221 H1196 0.951 . S
C1221 C1219 1.388 . S
C1221 C1222 1.366 . S
C1222 C1221 1.366 . S
C1222 C1223 1.414 . S
C1222 C1225 1.499 . S
C1223 H1197 0.950 . S
C1223 C1222 1.414 . S
C1223 C1224 1.374 . S
C1224 H1198 0.950 . S
C1224 C1220 1.385 . S
C1224 C1223 1.374 . S
C1225 C1222 1.499 . S
C1225 C1226 1.373 . S
C1225 C1227 1.389 . S
C1226 H1199 0.950 . S
C1226 C1212 1.377 . S
C1226 C1225 1.373 . S
C1227 C1211 1.377 . S
C1227 C1225 1.389 . S
C1227 C1228 1.524 . S
C1228 C1227 1.524 . S
C1228 C1229 1.397 . S
C1228 C1233 1.363 . S
C1229 H1200 0.950 . S
C1229 C1228 1.397 . S
C1229 C1230 1.334 . S
C1230 H1201 0.950 . S
C1230 C1229 1.334 . S
C1230 C1231 1.287 . S
C1231 C1230 1.287 . S
C1231 C1232 1.524 . S
C1231 H1234 0.999 . S
C1232 H1202 0.950 . S
C1232 C1231 1.524 . S
C1232 C1233 1.415 . S
C1233 H1203 0.950 . S
C1233 C1228 1.363 . S
C1233 C1232 1.415 . S
H1234 C1231 0.999 . S
H1235 C1216 0.913 . S
H1236 C1254 0.951 . S
H1237 C1256 0.951 1_556 S
H1238 C1258 0.950 . S
H1239 C1259 0.950 . S
H1240 C1261 0.950 . S
H1241 C1264 0.950 . S
H1242 C1265 0.950 1_554 S
H1243 C1267 0.950 . S
H1244 C1268 0.950 . S
H1245 C1269 0.951 . S
H1246 C1271 0.951 1_554 S
H1247 C1273 0.950 . S
H1248 C1274 0.950 . S
H1249 C1276 0.950 . S
H1250 C1279 0.950 . S
H1251 C1280 0.950 1_556 S
H1252 C1282 0.950 . S
H1253 C1283 0.950 . S
C1254 H1236 0.951 . S
C1254 C1255 1.366 . S
C1254 C1256 1.388 . S
C1255 C1254 1.366 . S
C1255 C1259 1.385 . S
C1256 H1237 0.951 1_554 S
C1256 C1254 1.388 . S
C1256 C1257 1.366 . S
C1257 C1256 1.366 . S
C1257 C1258 1.414 . S
C1257 C1260 1.499 . S
C1258 H1238 0.950 . S
C1258 C1257 1.414 . S
C1258 C1259 1.374 . S
C1259 H1239 0.950 . S
C1259 C1255 1.385 . S
C1259 C1258 1.374 . S
C1260 C1257 1.499 . S
C1260 C1261 1.373 . S
C1260 C1262 1.389 1_554 S
C1261 H1240 0.950 . S
C1261 C1260 1.373 . S
C1261 C1277 1.377 . S
C1262 C1260 1.389 1_556 S
C1262 C1263 1.524 . S
C1262 C1276 1.377 . S
C1263 C1262 1.524 . S
C1263 C1264 1.397 1_556 S
C1263 C1268 1.363 . S
C1264 H1241 0.950 . S
C1264 C1263 1.397 1_554 S
C1264 C1265 1.334 1_554 S
C1265 H1242 0.950 1_556 S
C1265 C1264 1.334 1_556 S
C1265 C1266 1.287 . S
C1266 C1265 1.287 . S
C1266 C1267 1.524 . S
C1266 H1285 0.913 . S
C1267 H1243 0.950 . S
C1267 C1266 1.524 . S
C1267 C1268 1.415 . S
C1268 H1244 0.950 . S
C1268 C1263 1.363 . S
C1268 C1267 1.415 . S
C1269 H1245 0.951 . S
C1269 C1270 1.366 . S
C1269 C1271 1.388 . S
C1270 C1269 1.366 . S
C1270 C1274 1.385 . S
C1271 H1246 0.951 1_556 S
C1271 C1269 1.388 . S
C1271 C1272 1.366 . S
C1272 C1271 1.366 . S
C1272 C1273 1.414 . S
C1272 C1275 1.499 . S
C1273 H1247 0.950 . S
C1273 C1272 1.414 . S
C1273 C1274 1.374 . S
C1274 H1248 0.950 . S
C1274 C1270 1.385 . S
C1274 C1273 1.374 . S
C1275 C1272 1.499 . S
C1275 C1276 1.373 . S
C1275 C1277 1.389 1_556 S
C1276 H1249 0.950 . S
C1276 C1262 1.377 . S
C1276 C1275 1.373 . S
C1277 C1261 1.377 . S
C1277 C1275 1.389 1_554 S
C1277 C1278 1.524 . S
C1278 C1277 1.524 . S
C1278 C1279 1.397 1_554 S
C1278 C1283 1.363 . S
C1279 H1250 0.950 . S
C1279 C1278 1.397 1_556 S
C1279 C1280 1.334 1_556 S
C1280 H1251 0.950 1_554 S
C1280 C1279 1.334 1_554 S
C1280 C1281 1.287 . S
C1281 C1280 1.287 . S
C1281 C1282 1.524 . S
C1281 H1284 0.999 . S
C1282 H1252 0.950 . S
C1282 C1281 1.524 . S
C1282 C1283 1.415 . S
C1283 H1253 0.950 . S
C1283 C1278 1.363 . S
C1283 C1282 1.415 . S
H1284 C1281 0.999 . S
H1285 C1266 0.913 . S
H1286 C1304 0.951 . S
H1287 C1306 0.951 . S
H1288 C1308 0.950 . S
H1289 C1309 0.950 . S
H1290 C1311 0.950 . S
H1291 C1314 0.950 . S
H1292 C1315 0.950 . S
H1293 C1317 0.950 . S
H1294 C1318 0.950 . S
H1295 C1319 0.951 . S
H1296 C1321 0.951 . S
H1297 C1323 0.950 . S
H1298 C1324 0.950 . S
H1299 C1326 0.950 . S
H1300 C1329 0.950 . S
H1301 C1330 0.950 . S
H1302 C1332 0.950 . S
H1303 C1333 0.950 . S
C1304 H1286 0.951 . S
C1304 C1305 1.366 . S
C1304 C1306 1.388 . S
C1305 C1304 1.366 . S
C1305 C1309 1.385 . S
C1306 H1287 0.951 . S
C1306 C1304 1.388 . S
C1306 C1307 1.366 . S
C1307 C1306 1.366 . S
C1307 C1308 1.414 . S
C1307 C1310 1.499 . S
C1308 H1288 0.950 . S
C1308 C1307 1.414 . S
C1308 C1309 1.374 . S
C1309 H1289 0.950 . S
C1309 C1305 1.385 . S
C1309 C1308 1.374 . S
C1310 C1307 1.499 . S
C1310 C1311 1.373 . S
C1310 C1312 1.389 . S
C1311 H1290 0.950 . S
C1311 C1310 1.373 . S
C1311 C1327 1.377 . S
C1312 C1310 1.389 . S
C1312 C1313 1.524 . S
C1312 C1326 1.377 . S
C1313 C1312 1.524 . S
C1313 C1314 1.397 . S
C1313 C1318 1.363 . S
C1314 H1291 0.950 . S
C1314 C1313 1.397 . S
C1314 C1315 1.334 . S
C1315 H1292 0.950 . S
C1315 C1314 1.334 . S
C1315 C1316 1.287 . S
C1316 C1315 1.287 . S
C1316 C1317 1.524 . S
C1316 H1335 0.913 . S
C1317 H1293 0.950 . S
C1317 C1316 1.524 . S
C1317 C1318 1.415 . S
C1318 H1294 0.950 . S
C1318 C1313 1.363 . S
C1318 C1317 1.415 . S
C1319 H1295 0.951 . S
C1319 C1320 1.366 . S
C1319 C1321 1.388 . S
C1320 C1319 1.366 . S
C1320 C1324 1.385 . S
C1321 H1296 0.951 . S
C1321 C1319 1.388 . S
C1321 C1322 1.366 . S
C1322 C1321 1.366 . S
C1322 C1323 1.414 . S
C1322 C1325 1.499 . S
C1323 H1297 0.950 . S
C1323 C1322 1.414 . S
C1323 C1324 1.374 . S
C1324 H1298 0.950 . S
C1324 C1320 1.385 . S
C1324 C1323 1.374 . S
C1325 C1322 1.499 . S
C1325 C1326 1.373 . S
C1325 C1327 1.389 . S
C1326 H1299 0.950 . S
C1326 C1312 1.377 . S
C1326 C1325 1.373 . S
C1327 C1311 1.377 . S
C1327 C1325 1.389 . S
C1327 C1328 1.524 . S
C1328 C1327 1.524 . S
C1328 C1329 1.397 . S
C1328 C1333 1.363 . S
C1329 H1300 0.950 . S
C1329 C1328 1.397 . S
C1329 C1330 1.334 . S
C1330 H1301 0.950 . S
C1330 C1329 1.334 . S
C1330 C1331 1.287 . S
C1331 C1330 1.287 . S
C1331 C1332 1.524 . S
C1331 H1334 0.999 . S
C1332 H1302 0.950 . S
C1332 C1331 1.524 . S
C1332 C1333 1.415 . S
C1333 H1303 0.950 . S
C1333 C1328 1.363 . S
C1333 C1332 1.415 . S
H1334 C1331 0.999 . S
H1335 C1316 0.913 . S
H1336 C1354 0.951 . S
H1337 C1356 0.951 . S
H1338 C1358 0.931 1_554 S
H1339 C1359 0.950 . S
H1340 C1361 0.950 . S
H1341 C1364 0.950 . S
H1342 C1365 0.950 . S
H1343 C1367 0.950 . S
H1344 C1368 0.950 . S
H1345 C1369 0.951 . S
H1346 C1371 0.951 . S
H1347 C1373 0.931 1_556 S
H1348 C1374 0.950 . S
H1349 C1376 0.950 . S
H1350 C1379 0.950 . S
H1351 C1380 0.950 . S
H1352 C1382 0.950 . S
H1353 C1383 0.950 . S
C1354 H1336 0.951 . S
C1354 C1355 1.366 . S
C1354 C1356 1.388 . S
C1355 C1354 1.366 . S
C1355 C1359 1.385 . S
C1356 H1337 0.951 . S
C1356 C1354 1.388 . S
C1356 C1357 1.366 . S
C1357 C1356 1.366 . S
C1357 C1358 1.414 . S
C1357 C1360 1.499 . S
C1358 H1338 0.931 1_556 S
C1358 C1357 1.414 . S
C1358 C1359 1.374 . S
C1359 H1339 0.950 . S
C1359 C1355 1.385 . S
C1359 C1358 1.374 . S
C1360 C1357 1.499 . S
C1360 C1361 1.373 1_556 S
C1360 C1362 1.389 . S
C1361 H1340 0.950 . S
C1361 C1360 1.373 1_554 S
C1361 C1377 1.377 . S
C1362 C1360 1.389 . S
C1362 C1363 1.524 . S
C1362 C1376 1.377 . S
C1363 C1362 1.524 . S
C1363 C1364 1.397 . S
C1363 C1368 1.363 . S
C1364 H1341 0.950 . S
C1364 C1363 1.397 . S
C1364 C1365 1.334 . S
C1365 H1342 0.950 . S
C1365 C1364 1.334 . S
C1365 C1366 1.287 . S
C1366 C1365 1.287 . S
C1366 C1367 1.524 . S
C1366 H1385 0.913 . S
C1367 H1343 0.950 . S
C1367 C1366 1.524 . S
C1367 C1368 1.415 . S
C1368 H1344 0.950 . S
C1368 C1363 1.363 . S
C1368 C1367 1.415 . S
C1369 H1345 0.951 . S
C1369 C1370 1.366 . S
C1369 C1371 1.388 . S
C1370 C1369 1.366 . S
C1370 C1374 1.385 . S
C1371 H1346 0.951 . S
C1371 C1369 1.388 . S
C1371 C1372 1.366 . S
C1372 C1371 1.366 . S
C1372 C1373 1.414 . S
C1372 C1375 1.499 . S
C1373 H1347 0.931 1_554 S
C1373 C1372 1.414 . S
C1373 C1374 1.374 . S
C1374 H1348 0.950 . S
C1374 C1370 1.385 . S
C1374 C1373 1.374 . S
C1375 C1372 1.499 . S
C1375 C1376 1.373 1_554 S
C1375 C1377 1.389 . S
C1376 H1349 0.950 . S
C1376 C1362 1.377 . S
C1376 C1375 1.373 1_556 S
C1377 C1361 1.377 . S
C1377 C1375 1.389 . S
C1377 C1378 1.524 . S
C1378 C1377 1.524 . S
C1378 C1379 1.397 . S
C1378 C1383 1.363 . S
C1379 H1350 0.950 . S
C1379 C1378 1.397 . S
C1379 C1380 1.334 . S
C1380 H1351 0.950 . S
C1380 C1379 1.334 . S
C1380 C1381 1.287 . S
C1381 C1380 1.287 . S
C1381 C1382 1.524 . S
C1381 H1384 0.999 . S
C1382 H1352 0.950 . S
C1382 C1381 1.524 . S
C1382 C1383 1.415 . S
C1383 H1353 0.950 . S
C1383 C1378 1.363 . S
C1383 C1382 1.415 . S
H1384 C1381 0.999 . S
H1385 C1366 0.913 . S
H1386 C1404 0.951 . S
H1387 C1406 0.951 . S
H1388 C1408 0.950 . S
H1389 C1409 0.950 . S
H1390 C1411 0.950 . S
H1391 C1414 0.950 . S
H1392 C1415 0.950 . S
H1393 C1417 0.950 . S
H1394 C1418 0.950 . S
H1395 C1419 0.951 . S
H1396 C1421 0.951 . S
H1397 C1423 0.950 . S
H1398 C1424 0.950 . S
H1399 C1426 0.950 . S
H1400 C1429 0.950 . S
H1401 C1430 0.950 . S
H1402 C1432 0.950 . S
H1403 C1433 0.950 . S
C1404 H1386 0.951 . S
C1404 C1405 1.366 . S
C1404 C1406 1.388 . S
C1405 C1404 1.366 . S
C1405 C1409 1.385 . S
C1406 H1387 0.951 . S
C1406 C1404 1.388 . S
C1406 C1407 1.366 . S
C1407 C1406 1.366 . S
C1407 C1408 1.414 . S
C1407 C1410 1.499 . S
C1408 H1388 0.950 . S
C1408 C1407 1.414 . S
C1408 C1409 1.374 . S
C1409 H1389 0.950 . S
C1409 C1405 1.385 . S
C1409 C1408 1.374 . S
C1410 C1407 1.499 . S
C1410 C1411 1.373 . S
C1410 C1412 1.389 . S
C1411 H1390 0.950 . S
C1411 C1410 1.373 . S
C1411 C1427 1.377 . S
C1412 C1410 1.389 . S
C1412 C1413 1.524 . S
C1412 C1426 1.377 . S
C1413 C1412 1.524 . S
C1413 C1414 1.397 . S
C1413 C1418 1.363 . S
C1414 H1391 0.950 . S
C1414 C1413 1.397 . S
C1414 C1415 1.334 . S
C1415 H1392 0.950 . S
C1415 C1414 1.334 . S
C1415 C1416 1.287 . S
C1416 C1415 1.287 . S
C1416 C1417 1.524 . S
C1416 H1435 0.913 . S
C1417 H1393 0.950 . S
C1417 C1416 1.524 . S
C1417 C1418 1.415 . S
C1418 H1394 0.950 . S
C1418 C1413 1.363 . S
C1418 C1417 1.415 . S
C1419 H1395 0.951 . S
C1419 C1420 1.366 . S
C1419 C1421 1.388 . S
C1420 C1419 1.366 . S
C1420 C1424 1.385 . S
C1421 H1396 0.951 . S
C1421 C1419 1.388 . S
C1421 C1422 1.366 . S
C1422 C1421 1.366 . S
C1422 C1423 1.414 . S
C1422 C1425 1.499 . S
C1423 H1397 0.950 . S
C1423 C1422 1.414 . S
C1423 C1424 1.374 . S
C1424 H1398 0.950 . S
C1424 C1420 1.385 . S
C1424 C1423 1.374 . S
C1425 C1422 1.499 . S
C1425 C1426 1.373 . S
C1425 C1427 1.389 . S
C1426 H1399 0.950 . S
C1426 C1412 1.377 . S
C1426 C1425 1.373 . S
C1427 C1411 1.377 . S
C1427 C1425 1.389 . S
C1427 C1428 1.524 . S
C1428 C1427 1.524 . S
C1428 C1429 1.397 . S
C1428 C1433 1.363 . S
C1429 H1400 0.950 . S
C1429 C1428 1.397 . S
C1429 C1430 1.334 . S
C1430 H1401 0.950 . S
C1430 C1429 1.334 . S
C1430 C1431 1.287 . S
C1431 C1430 1.287 . S
C1431 C1432 1.524 . S
C1431 H1434 0.999 . S
C1432 H1402 0.950 . S
C1432 C1431 1.524 . S
C1432 C1433 1.415 . S
C1433 H1403 0.950 . S
C1433 C1428 1.363 . S
C1433 C1432 1.415 . S
H1434 C1431 0.999 . S
H1435 C1416 0.913 . S
H1436 C1454 0.951 . S
H1437 C1456 0.951 . S
H1438 C1458 0.950 . S
H1439 C1459 0.950 . S
H1440 C1461 0.950 . S
H1441 C1464 0.950 . S
H1442 C1465 0.950 . S
H1443 C1467 0.950 . S
H1444 C1468 0.950 1_556 S
H1445 C1469 0.951 . S
H1446 C1471 0.951 . S
H1447 C1473 0.950 . S
H1448 C1474 0.950 . S
H1449 C1476 0.950 . S
H1450 C1479 0.950 . S
H1451 C1480 0.950 . S
H1452 C1482 0.950 . S
H1453 C1483 0.950 1_554 S
C1454 H1436 0.951 . S
C1454 C1455 1.366 . S
C1454 C1456 1.388 . S
C1455 C1454 1.366 . S
C1455 C1459 1.385 . S
C1456 H1437 0.951 . S
C1456 C1454 1.388 . S
C1456 C1457 1.366 . S
C1457 C1456 1.366 . S
C1457 C1458 1.414 . S
C1457 C1460 1.499 . S
C1458 H1438 0.950 . S
C1458 C1457 1.414 . S
C1458 C1459 1.374 . S
C1459 H1439 0.950 . S
C1459 C1455 1.385 . S
C1459 C1458 1.374 . S
C1460 C1457 1.499 . S
C1460 C1461 1.373 . S
C1460 C1462 1.389 1_556 S
C1461 H1440 0.950 . S
C1461 C1460 1.373 . S
C1461 C1477 1.377 . S
C1462 C1460 1.389 1_554 S
C1462 C1463 1.524 . S
C1462 C1476 1.377 . S
C1463 C1462 1.524 . S
C1463 C1464 1.397 . S
C1463 C1468 1.363 . S
C1464 H1441 0.950 . S
C1464 C1463 1.397 . S
C1464 C1465 1.334 . S
C1465 H1442 0.950 . S
C1465 C1464 1.334 . S
C1465 C1466 1.287 . S
C1466 C1465 1.287 . S
C1466 C1467 1.524 . S
C1466 H1485 0.913 . S
C1467 H1443 0.950 . S
C1467 C1466 1.524 . S
C1467 C1468 1.415 . S
C1468 H1444 0.950 1_554 S
C1468 C1463 1.363 . S
C1468 C1467 1.415 . S
C1469 H1445 0.951 . S
C1469 C1470 1.366 . S
C1469 C1471 1.388 . S
C1470 C1469 1.366 . S
C1470 C1474 1.385 . S
C1471 H1446 0.951 . S
C1471 C1469 1.388 . S
C1471 C1472 1.366 . S
C1472 C1471 1.366 . S
C1472 C1473 1.414 . S
C1472 C1475 1.499 . S
C1473 H1447 0.950 . S
C1473 C1472 1.414 . S
C1473 C1474 1.374 . S
C1474 H1448 0.950 . S
C1474 C1470 1.385 . S
C1474 C1473 1.374 . S
C1475 C1472 1.499 . S
C1475 C1476 1.373 . S
C1475 C1477 1.389 1_554 S
C1476 H1449 0.950 . S
C1476 C1462 1.377 . S
C1476 C1475 1.373 . S
C1477 C1461 1.377 . S
C1477 C1475 1.389 1_556 S
C1477 C1478 1.524 . S
C1478 C1477 1.524 . S
C1478 C1479 1.397 . S
C1478 C1483 1.363 . S
C1479 H1450 0.950 . S
C1479 C1478 1.397 . S
C1479 C1480 1.334 . S
C1480 H1451 0.950 . S
C1480 C1479 1.334 . S
C1480 C1481 1.287 . S
C1481 C1480 1.287 . S
C1481 C1482 1.524 . S
C1481 H1484 0.999 . S
C1482 H1452 0.950 . S
C1482 C1481 1.524 . S
C1482 C1483 1.415 . S
C1483 H1453 0.950 1_556 S
C1483 C1478 1.363 . S
C1483 C1482 1.415 . S
H1484 C1481 0.999 . S
H1485 C1466 0.913 . S
H1486 C1504 0.951 . S
H1487 C1506 0.951 . S
H1488 C1508 0.950 . S
H1489 C1509 0.950 . S
H1490 C1511 0.950 . S
H1491 C1514 0.950 . S
H1492 C1515 0.950 . S
H1493 C1517 0.950 . S
H1494 C1518 0.950 . S
H1495 C1519 0.951 . S
H1496 C1521 0.951 . S
H1497 C1523 0.950 . S
H1498 C1524 0.950 . S
H1499 C1526 0.950 . S
H1500 C1529 0.950 . S
H1501 C1530 0.950 . S
H1502 C1532 0.950 . S
H1503 C1533 0.950 . S
C1504 H1486 0.951 . S
C1504 C1505 1.366 . S
C1504 C1506 1.388 . S
C1505 C1504 1.366 . S
C1505 C1509 1.385 . S
C1506 H1487 0.951 . S
C1506 C1504 1.388 . S
C1506 C1507 1.366 . S
C1507 C1506 1.366 . S
C1507 C1508 1.414 . S
C1507 C1510 1.499 . S
C1508 H1488 0.950 . S
C1508 C1507 1.414 . S
C1508 C1509 1.374 . S
C1509 H1489 0.950 . S
C1509 C1505 1.385 . S
C1509 C1508 1.374 . S
C1510 C1507 1.499 . S
C1510 C1511 1.373 . S
C1510 C1512 1.389 . S
C1511 H1490 0.950 . S
C1511 C1510 1.373 . S
C1511 C1527 1.377 . S
C1512 C1510 1.389 . S
C1512 C1513 1.524 . S
C1512 C1526 1.377 . S
C1513 C1512 1.524 . S
C1513 C1514 1.397 . S
C1513 C1518 1.363 . S
C1514 H1491 0.950 . S
C1514 C1513 1.397 . S
C1514 C1515 1.334 . S
C1515 H1492 0.950 . S
C1515 C1514 1.334 . S
C1515 C1516 1.287 . S
C1516 C1515 1.287 . S
C1516 C1517 1.524 . S
C1516 H1535 0.913 . S
C1517 H1493 0.950 . S
C1517 C1516 1.524 . S
C1517 C1518 1.415 . S
C1518 H1494 0.950 . S
C1518 C1513 1.363 . S
C1518 C1517 1.415 . S
C1519 H1495 0.951 . S
C1519 C1520 1.366 . S
C1519 C1521 1.388 . S
C1520 C1519 1.366 . S
C1520 C1524 1.385 . S
C1521 H1496 0.951 . S
C1521 C1519 1.388 . S
C1521 C1522 1.366 . S
C1522 C1521 1.366 . S
C1522 C1523 1.414 . S
C1522 C1525 1.499 . S
C1523 H1497 0.950 . S
C1523 C1522 1.414 . S
C1523 C1524 1.374 . S
C1524 H1498 0.950 . S
C1524 C1520 1.385 . S
C1524 C1523 1.374 . S
C1525 C1522 1.499 . S
C1525 C1526 1.373 . S
C1525 C1527 1.389 . S
C1526 H1499 0.950 . S
C1526 C1512 1.377 . S
C1526 C1525 1.373 . S
C1527 C1511 1.377 . S
C1527 C1525 1.389 . S
C1527 C1528 1.524 . S
C1528 C1527 1.524 . S
C1528 C1529 1.397 . S
C1528 C1533 1.363 . S
C1529 H1500 0.950 . S
C1529 C1528 1.397 . S
C1529 C1530 1.334 . S
C1530 H1501 0.950 . S
C1530 C1529 1.334 . S
C1530 C1531 1.287 . S
C1531 C1530 1.287 . S
C1531 C1532 1.524 . S
C1531 H1534 0.999 . S
C1532 H1502 0.950 . S
C1532 C1531 1.524 . S
C1532 C1533 1.415 . S
C1533 H1503 0.950 . S
C1533 C1528 1.363 . S
C1533 C1532 1.415 . S
H1534 C1531 0.999 . S
H1535 C1516 0.913 . S
H1536 C1554 0.951 . S
H1537 C1556 0.951 . S
H1538 C1558 0.950 . S
H1539 C1559 0.950 . S
H1540 C1561 0.950 . S
H1541 C1564 0.950 . S
H1542 C1565 0.950 1_556 S
H1543 C1567 0.950 . S
H1544 C1568 0.950 . S
H1545 C1569 0.951 . S
H1546 C1571 0.951 . S
H1547 C1573 0.950 . S
H1548 C1574 0.950 . S
H1549 C1576 0.950 . S
H1550 C1579 0.950 . S
H1551 C1580 0.950 . S
H1552 C1582 0.950 . S
H1553 C1583 0.950 . S
C1554 H1536 0.951 . S
C1554 C1555 1.366 . S
C1554 C1556 1.388 . S
C1555 C1554 1.366 . S
C1555 C1559 1.385 . S
C1556 H1537 0.951 . S
C1556 C1554 1.388 . S
C1556 C1557 1.366 . S
C1557 C1556 1.366 . S
C1557 C1558 1.414 . S
C1557 C1560 1.499 . S
C1558 H1538 0.950 . S
C1558 C1557 1.414 . S
C1558 C1559 1.374 . S
C1559 H1539 0.950 . S
C1559 C1555 1.385 . S
C1559 C1558 1.374 . S
C1560 C1557 1.499 . S
C1560 C1561 1.373 . S
C1560 C1562 1.389 . S
C1561 H1540 0.950 . S
C1561 C1560 1.373 . S
C1561 C1577 1.377 . S
C1562 C1560 1.389 . S
C1562 C1563 1.524 . S
C1562 C1576 1.377 . S
C1563 C1562 1.524 . S
C1563 C1564 1.397 . S
C1563 C1568 1.363 . S
C1564 H1541 0.950 . S
C1564 C1563 1.397 . S
C1564 C1565 1.334 . S
C1565 H1542 0.950 1_554 S
C1565 C1564 1.334 . S
C1565 C1566 1.287 . S
C1566 C1565 1.287 . S
C1566 C1567 1.524 . S
C1566 H1585 0.913 . S
C1567 H1543 0.950 . S
C1567 C1566 1.524 . S
C1567 C1568 1.415 . S
C1568 H1544 0.950 . S
C1568 C1563 1.363 . S
C1568 C1567 1.415 . S
C1569 H1545 0.951 . S
C1569 C1570 1.366 . S
C1569 C1571 1.388 . S
C1570 C1569 1.366 . S
C1570 C1574 1.385 . S
C1571 H1546 0.951 . S
C1571 C1569 1.388 . S
C1571 C1572 1.366 . S
C1572 C1571 1.366 . S
C1572 C1573 1.414 . S
C1572 C1575 1.499 . S
C1573 H1547 0.950 . S
C1573 C1572 1.414 . S
C1573 C1574 1.374 . S
C1574 H1548 0.950 . S
C1574 C1570 1.385 . S
C1574 C1573 1.374 . S
C1575 C1572 1.499 . S
C1575 C1576 1.373 . S
C1575 C1577 1.389 . S
C1576 H1549 0.950 . S
C1576 C1562 1.377 . S
C1576 C1575 1.373 . S
C1577 C1561 1.377 . S
C1577 C1575 1.389 . S
C1577 C1578 1.524 . S
C1578 C1577 1.524 . S
C1578 C1579 1.397 . S
C1578 C1583 1.363 . S
C1579 H1550 0.950 . S
C1579 C1578 1.397 . S
C1579 C1580 1.334 . S
C1580 H1551 0.950 . S
C1580 C1579 1.334 . S
C1580 C1581 1.287 . S
C1581 C1580 1.287 . S
C1581 C1582 1.524 . S
C1581 H1584 0.999 . S
C1582 H1552 0.950 . S
C1582 C1581 1.524 . S
C1582 C1583 1.415 . S
C1583 H1553 0.950 . S
C1583 C1578 1.363 . S
C1583 C1582 1.415 . S
H1584 C1581 0.999 . S
H1585 C1566 0.913 . S
H1586 C1604 0.951 . S
H1587 C1606 0.951 . S
H1588 C1608 0.950 . S
H1589 C1609 0.950 . S
H1590 C1611 0.950 . S
H1591 C1614 0.950 . S
H1592 C1615 0.950 . S
H1593 C1617 0.950 . S
H1594 C1618 0.950 . S
H1595 C1619 0.951 . S
H1596 C1621 0.951 . S
H1597 C1623 0.950 . S
H1598 C1624 0.950 . S
H1599 C1626 0.950 . S
H1600 C1629 0.950 . S
H1601 C1630 0.950 . S
H1602 C1632 0.950 . S
H1603 C1633 0.950 . S
C1604 H1586 0.951 . S
C1604 C1605 1.366 . S
C1604 C1606 1.388 . S
C1605 C1604 1.366 . S
C1605 C1609 1.385 . S
C1606 H1587 0.951 . S
C1606 C1604 1.388 . S
C1606 C1607 1.366 . S
C1607 C1606 1.366 . S
C1607 C1608 1.414 . S
C1607 C1610 1.499 . S
C1608 H1588 0.950 . S
C1608 C1607 1.414 . S
C1608 C1609 1.374 . S
C1609 H1589 0.950 . S
C1609 C1605 1.385 . S
C1609 C1608 1.374 . S
C1610 C1607 1.499 . S
C1610 C1611 1.373 . S
C1610 C1612 1.389 . S
C1611 H1590 0.950 . S
C1611 C1610 1.373 . S
C1611 C1627 1.377 1_455 S
C1612 C1610 1.389 . S
C1612 C1613 1.524 . S
C1612 C1626 1.377 1_455 S
C1613 C1612 1.524 . S
C1613 C1614 1.397 . S
C1613 C1618 1.363 . S
C1614 H1591 0.950 . S
C1614 C1613 1.397 . S
C1614 C1615 1.334 . S
C1615 H1592 0.950 . S
C1615 C1614 1.334 . S
C1615 C1616 1.287 . S
C1616 C1615 1.287 . S
C1616 C1617 1.524 . S
C1616 H1635 0.913 . S
C1617 H1593 0.950 . S
C1617 C1616 1.524 . S
C1617 C1618 1.415 . S
C1618 H1594 0.950 . S
C1618 C1613 1.363 . S
C1618 C1617 1.415 . S
C1619 H1595 0.951 . S
C1619 C1620 1.366 . S
C1619 C1621 1.388 . S
C1620 C1619 1.366 . S
C1620 C1624 1.385 . S
C1621 H1596 0.951 . S
C1621 C1619 1.388 . S
C1621 C1622 1.366 . S
C1622 C1621 1.366 . S
C1622 C1623 1.414 . S
C1622 C1625 1.499 . S
C1623 H1597 0.950 . S
C1623 C1622 1.414 . S
C1623 C1624 1.374 . S
C1624 H1598 0.950 . S
C1624 C1620 1.385 . S
C1624 C1623 1.374 . S
C1625 C1622 1.499 . S
C1625 C1626 1.373 . S
C1625 C1627 1.389 . S
C1626 H1599 0.950 . S
C1626 C1612 1.377 1_655 S
C1626 C1625 1.373 . S
C1627 C1611 1.377 1_655 S
C1627 C1625 1.389 . S
C1627 C1628 1.524 . S
C1628 C1627 1.524 . S
C1628 C1629 1.397 . S
C1628 C1633 1.363 . S
C1629 H1600 0.950 . S
C1629 C1628 1.397 . S
C1629 C1630 1.334 . S
C1630 H1601 0.950 . S
C1630 C1629 1.334 . S
C1630 C1631 1.287 . S
C1631 C1630 1.287 . S
C1631 C1632 1.524 . S
C1631 H1634 0.999 . S
C1632 H1602 0.950 . S
C1632 C1631 1.524 . S
C1632 C1633 1.415 . S
C1633 H1603 0.950 . S
C1633 C1628 1.363 . S
C1633 C1632 1.415 . S
H1634 C1631 0.999 . S
H1635 C1616 0.913 . S
H1636 C1654 0.951 . S
H1637 C1656 0.951 . S
H1638 C1658 0.950 . S
H1639 C1659 0.950 . S
H1640 C1661 0.950 . S
H1641 C1664 0.950 . S
H1642 C1665 0.950 . S
H1643 C1667 0.950 . S
H1644 C1668 0.950 . S
H1645 C1669 0.951 . S
H1646 C1671 0.951 . S
H1647 C1673 0.950 . S
H1648 C1674 0.950 . S
H1649 C1676 0.950 . S
H1650 C1679 0.950 . S
H1651 C1680 0.950 . S
H1652 C1682 0.950 . S
H1653 C1683 0.950 . S
C1654 H1636 0.951 . S
C1654 C1655 1.366 . S
C1654 C1656 1.388 . S
C1655 C1654 1.366 . S
C1655 C1659 1.385 . S
C1656 H1637 0.951 . S
C1656 C1654 1.388 . S
C1656 C1657 1.366 . S
C1657 C1656 1.366 . S
C1657 C1658 1.414 . S
C1657 C1660 1.499 . S
C1658 H1638 0.950 . S
C1658 C1657 1.414 . S
C1658 C1659 1.374 . S
C1659 H1639 0.950 . S
C1659 C1655 1.385 . S
C1659 C1658 1.374 . S
C1660 C1657 1.499 . S
C1660 C1661 1.373 . S
C1660 C1662 1.389 . S
C1661 H1640 0.950 . S
C1661 C1660 1.373 . S
C1661 C1677 1.377 1_565 S
C1662 C1660 1.389 . S
C1662 C1663 1.524 . S
C1662 C1676 1.377 1_565 S
C1663 C1662 1.524 . S
C1663 C1664 1.397 . S
C1663 C1668 1.363 . S
C1664 H1641 0.950 . S
C1664 C1663 1.397 . S
C1664 C1665 1.334 . S
C1665 H1642 0.950 . S
C1665 C1664 1.334 . S
C1665 C1666 1.287 . S
C1666 C1665 1.287 . S
C1666 C1667 1.524 . S
C1666 H1685 0.913 . S
C1667 H1643 0.950 . S
C1667 C1666 1.524 . S
C1667 C1668 1.415 . S
C1668 H1644 0.950 . S
C1668 C1663 1.363 . S
C1668 C1667 1.415 . S
C1669 H1645 0.951 . S
C1669 C1670 1.366 . S
C1669 C1671 1.388 . S
C1670 C1669 1.366 . S
C1670 C1674 1.385 . S
C1671 H1646 0.951 . S
C1671 C1669 1.388 . S
C1671 C1672 1.366 . S
C1672 C1671 1.366 . S
C1672 C1673 1.414 . S
C1672 C1675 1.499 . S
C1673 H1647 0.950 . S
C1673 C1672 1.414 . S
C1673 C1674 1.374 . S
C1674 H1648 0.950 . S
C1674 C1670 1.385 . S
C1674 C1673 1.374 . S
C1675 C1672 1.499 . S
C1675 C1676 1.373 . S
C1675 C1677 1.389 . S
C1676 H1649 0.950 . S
C1676 C1662 1.377 1_545 S
C1676 C1675 1.373 . S
C1677 C1661 1.377 1_545 S
C1677 C1675 1.389 . S
C1677 C1678 1.524 . S
C1678 C1677 1.524 . S
C1678 C1679 1.397 . S
C1678 C1683 1.363 . S
C1679 H1650 0.950 . S
C1679 C1678 1.397 . S
C1679 C1680 1.334 . S
C1680 H1651 0.950 . S
C1680 C1679 1.334 . S
C1680 C1681 1.287 . S
C1681 C1680 1.287 . S
C1681 C1682 1.524 . S
C1681 H1684 0.999 . S
C1682 H1652 0.950 . S
C1682 C1681 1.524 . S
C1682 C1683 1.415 . S
C1683 H1653 0.950 . S
C1683 C1678 1.363 . S
C1683 C1682 1.415 . S
H1684 C1681 0.999 . S
H1685 C1666 0.913 . S
H1686 C1704 0.951 . S
H1687 C1706 0.951 . S
H1688 C1708 0.950 . S
H1689 C1709 0.950 . S
H1690 C1711 0.950 . S
H1691 C1714 0.950 . S
H1692 C1715 0.950 . S
H1693 C1717 0.950 . S
H1694 C1718 0.950 . S
H1695 C1719 0.951 . S
H1696 C1721 0.951 . S
H1697 C1723 0.950 . S
H1698 C1724 0.950 . S
H1699 C1726 0.950 . S
H1700 C1729 0.950 . S
H1701 C1730 0.950 . S
H1702 C1732 0.950 . S
H1703 C1733 0.950 . S
C1704 H1686 0.951 . S
C1704 C1705 1.366 . S
C1704 C1706 1.388 . S
C1705 C1704 1.366 . S
C1705 C1709 1.385 . S
C1706 H1687 0.951 . S
C1706 C1704 1.388 . S
C1706 C1707 1.366 . S
C1707 C1706 1.366 . S
C1707 C1708 1.414 . S
C1707 C1710 1.499 . S
C1708 H1688 0.950 . S
C1708 C1707 1.414 . S
C1708 C1709 1.374 . S
C1709 H1689 0.950 . S
C1709 C1705 1.385 . S
C1709 C1708 1.374 . S
C1710 C1707 1.499 . S
C1710 C1711 1.373 . S
C1710 C1712 1.389 . S
C1711 H1690 0.950 . S
C1711 C1710 1.373 . S
C1711 C1727 1.377 . S
C1712 C1710 1.389 . S
C1712 C1713 1.524 . S
C1712 C1726 1.377 . S
C1713 C1712 1.524 . S
C1713 C1714 1.397 . S
C1713 C1718 1.363 . S
C1714 H1691 0.950 . S
C1714 C1713 1.397 . S
C1714 C1715 1.334 . S
C1715 H1692 0.950 . S
C1715 C1714 1.334 . S
C1715 C1716 1.287 . S
C1716 C1715 1.287 . S
C1716 C1717 1.524 . S
C1716 H1735 0.913 . S
C1717 H1693 0.950 . S
C1717 C1716 1.524 . S
C1717 C1718 1.415 . S
C1718 H1694 0.950 . S
C1718 C1713 1.363 . S
C1718 C1717 1.415 . S
C1719 H1695 0.951 . S
C1719 C1720 1.366 . S
C1719 C1721 1.388 . S
C1720 C1719 1.366 . S
C1720 C1724 1.385 . S
C1721 H1696 0.951 . S
C1721 C1719 1.388 . S
C1721 C1722 1.366 . S
C1722 C1721 1.366 . S
C1722 C1723 1.414 . S
C1722 C1725 1.499 . S
C1723 H1697 0.950 . S
C1723 C1722 1.414 . S
C1723 C1724 1.374 . S
C1724 H1698 0.950 . S
C1724 C1720 1.385 . S
C1724 C1723 1.374 . S
C1725 C1722 1.499 . S
C1725 C1726 1.373 . S
C1725 C1727 1.389 . S
C1726 H1699 0.950 . S
C1726 C1712 1.377 . S
C1726 C1725 1.373 . S
C1727 C1711 1.377 . S
C1727 C1725 1.389 . S
C1727 C1728 1.524 . S
C1728 C1727 1.524 . S
C1728 C1729 1.397 . S
C1728 C1733 1.363 . S
C1729 H1700 0.950 . S
C1729 C1728 1.397 . S
C1729 C1730 1.334 . S
C1730 H1701 0.950 . S
C1730 C1729 1.334 . S
C1730 C1731 1.287 . S
C1731 C1730 1.287 . S
C1731 C1732 1.524 . S
C1731 H1734 0.999 . S
C1732 H1702 0.950 . S
C1732 C1731 1.524 . S
C1732 C1733 1.415 . S
C1733 H1703 0.950 . S
C1733 C1728 1.363 . S
C1733 C1732 1.415 . S
H1734 C1731 0.999 . S
H1735 C1716 0.913 . S
H1736 C1754 0.951 . S
H1737 C1756 0.951 . S
H1738 C1758 0.950 . S
H1739 C1759 0.950 . S
H1740 C1761 0.950 . S
H1741 C1764 0.950 . S
H1742 C1765 0.933 1_556 S
H1743 C1767 0.950 . S
H1744 C1768 0.950 . S
H1745 C1769 0.951 . S
H1746 C1771 0.951 . S
H1747 C1773 0.950 . S
H1748 C1774 0.950 . S
H1749 C1776 0.950 . S
H1750 C1779 0.950 . S
H1751 C1780 0.950 . S
H1752 C1782 0.950 . S
H1753 C1783 0.950 . S
C1754 H1736 0.951 . S
C1754 C1755 1.366 . S
C1754 C1756 1.388 . S
C1755 C1754 1.366 . S
C1755 C1759 1.385 . S
C1756 H1737 0.951 . S
C1756 C1754 1.388 . S
C1756 C1757 1.366 . S
C1757 C1756 1.366 . S
C1757 C1758 1.414 . S
C1757 C1760 1.499 . S
C1758 H1738 0.950 . S
C1758 C1757 1.414 . S
C1758 C1759 1.374 . S
C1759 H1739 0.950 . S
C1759 C1755 1.385 . S
C1759 C1758 1.374 . S
C1760 C1757 1.499 . S
C1760 C1761 1.373 . S
C1760 C1762 1.389 . S
C1761 H1740 0.950 . S
C1761 C1760 1.373 . S
C1761 C1777 1.377 1_655 S
C1762 C1760 1.389 . S
C1762 C1763 1.524 . S
C1762 C1776 1.377 1_655 S
C1763 C1762 1.524 . S
C1763 C1764 1.397 . S
C1763 C1768 1.363 . S
C1764 H1741 0.950 . S
C1764 C1763 1.397 . S
C1764 C1765 1.354 . S
C1765 H1742 0.933 1_554 S
C1765 C1764 1.354 . S
C1765 C1766 1.286 1_554 S
C1766 C1765 1.286 1_556 S
C1766 C1767 1.521 1_556 S
C1766 H1785 0.916 . S
C1767 H1743 0.950 . S
C1767 C1766 1.521 1_554 S
C1767 C1768 1.415 . S
C1768 H1744 0.950 . S
C1768 C1763 1.363 . S
C1768 C1767 1.415 . S
C1769 H1745 0.951 . S
C1769 C1770 1.366 . S
C1769 C1771 1.388 . S
C1770 C1769 1.366 . S
C1770 C1774 1.385 . S
C1771 H1746 0.951 . S
C1771 C1769 1.388 . S
C1771 C1772 1.366 . S
C1772 C1771 1.366 . S
C1772 C1773 1.414 . S
C1772 C1775 1.499 . S
C1773 H1747 0.950 . S
C1773 C1772 1.414 . S
C1773 C1774 1.374 . S
C1774 H1748 0.950 . S
C1774 C1770 1.385 . S
C1774 C1773 1.374 . S
C1775 C1772 1.499 . S
C1775 C1776 1.373 . S
C1775 C1777 1.389 . S
C1776 H1749 0.950 . S
C1776 C1762 1.377 1_455 S
C1776 C1775 1.373 . S
C1777 C1761 1.377 1_455 S
C1777 C1775 1.389 . S
C1777 C1778 1.524 . S
C1778 C1777 1.524 . S
C1778 C1779 1.397 . S
C1778 C1783 1.363 . S
C1779 H1750 0.950 . S
C1779 C1778 1.397 . S
C1779 C1780 1.334 . S
C1780 H1751 0.950 . S
C1780 C1779 1.334 . S
C1780 C1781 1.287 . S
C1781 C1780 1.287 . S
C1781 C1782 1.524 . S
C1781 H1784 0.999 . S
C1782 H1752 0.950 . S
C1782 C1781 1.524 . S
C1782 C1783 1.415 . S
C1783 H1753 0.950 . S
C1783 C1778 1.363 . S
C1783 C1782 1.415 . S
H1784 C1781 0.999 . S
H1785 C1766 0.916 . S
H1786 C1804 0.951 . S
H1787 C1806 0.951 . S
H1788 C1808 0.950 . S
H1789 C1809 0.950 . S
H1790 C1811 0.950 . S
H1791 C1814 0.950 . S
H1792 C1815 0.950 . S
H1793 C1817 0.950 . S
H1794 C1818 0.950 . S
H1795 C1819 0.951 . S
H1796 C1821 0.951 . S
H1797 C1823 0.950 . S
H1798 C1824 0.950 . S
H1799 C1826 0.950 . S
H1800 C1829 0.950 . S
H1801 C1830 0.950 . S
H1802 C1832 0.950 . S
H1803 C1833 0.950 . S
C1804 H1786 0.951 . S
C1804 C1805 1.366 . S
C1804 C1806 1.388 . S
C1805 C1804 1.366 . S
C1805 C1809 1.385 . S
C1806 H1787 0.951 . S
C1806 C1804 1.388 . S
C1806 C1807 1.366 . S
C1807 C1806 1.366 . S
C1807 C1808 1.414 . S
C1807 C1810 1.499 . S
C1808 H1788 0.950 . S
C1808 C1807 1.414 . S
C1808 C1809 1.374 . S
C1809 H1789 0.950 . S
C1809 C1805 1.385 . S
C1809 C1808 1.374 . S
C1810 C1807 1.499 . S
C1810 C1811 1.373 . S
C1810 C1812 1.389 . S
C1811 H1790 0.950 . S
C1811 C1810 1.373 . S
C1811 C1827 1.377 1_545 S
C1812 C1810 1.389 . S
C1812 C1813 1.524 . S
C1812 C1826 1.377 1_545 S
C1813 C1812 1.524 . S
C1813 C1814 1.397 . S
C1813 C1818 1.363 . S
C1814 H1791 0.950 . S
C1814 C1813 1.397 . S
C1814 C1815 1.334 . S
C1815 H1792 0.950 . S
C1815 C1814 1.334 . S
C1815 C1816 1.287 . S
C1816 C1815 1.287 . S
C1816 C1817 1.524 . S
C1816 H1835 0.913 . S
C1817 H1793 0.950 . S
C1817 C1816 1.524 . S
C1817 C1818 1.415 . S
C1818 H1794 0.950 . S
C1818 C1813 1.363 . S
C1818 C1817 1.415 . S
C1819 H1795 0.951 . S
C1819 C1820 1.366 . S
C1819 C1821 1.388 . S
C1820 C1819 1.366 . S
C1820 C1824 1.385 . S
C1821 H1796 0.951 . S
C1821 C1819 1.388 . S
C1821 C1822 1.366 . S
C1822 C1821 1.366 . S
C1822 C1823 1.414 . S
C1822 C1825 1.499 . S
C1823 H1797 0.950 . S
C1823 C1822 1.414 . S
C1823 C1824 1.374 . S
C1824 H1798 0.950 . S
C1824 C1820 1.385 . S
C1824 C1823 1.374 . S
C1825 C1822 1.499 . S
C1825 C1826 1.373 . S
C1825 C1827 1.389 . S
C1826 H1799 0.950 . S
C1826 C1812 1.377 1_565 S
C1826 C1825 1.373 . S
C1827 C1811 1.377 1_565 S
C1827 C1825 1.389 . S
C1827 C1828 1.524 . S
C1828 C1827 1.524 . S
C1828 C1829 1.397 . S
C1828 C1833 1.363 . S
C1829 H1800 0.950 . S
C1829 C1828 1.397 . S
C1829 C1830 1.334 . S
C1830 H1801 0.950 . S
C1830 C1829 1.334 . S
C1830 C1831 1.287 . S
C1831 C1830 1.287 . S
C1831 C1832 1.524 . S
C1831 H1834 0.999 . S
C1832 H1802 0.950 . S
C1832 C1831 1.524 . S
C1832 C1833 1.415 . S
C1833 H1803 0.950 . S
C1833 C1828 1.363 . S
C1833 C1832 1.415 . S
H1834 C1831 0.999 . S
H1835 C1816 0.913 . S
H1836 C1854 0.951 . S
H1837 C1856 0.951 . S
H1838 C1858 0.950 . S
H1839 C1859 0.950 . S
H1840 C1861 0.950 . S
H1841 C1864 0.950 . S
H1842 C1865 0.950 . S
H1843 C1867 0.950 . S
H1844 C1868 0.950 . S
H1845 C1869 0.951 . S
H1846 C1871 0.951 . S
H1847 C1873 0.950 . S
H1848 C1874 0.950 . S
H1849 C1876 0.950 . S
H1850 C1879 0.950 . S
H1851 C1880 0.950 . S
H1852 C1882 0.945 1_554 S
H1853 C1883 0.950 . S
C1854 H1836 0.951 . S
C1854 C1855 1.366 . S
C1854 C1856 1.388 . S
C1855 C1854 1.366 . S
C1855 C1859 1.385 . S
C1856 H1837 0.951 . S
C1856 C1854 1.388 . S
C1856 C1857 1.366 . S
C1857 C1856 1.366 . S
C1857 C1858 1.414 . S
C1857 C1860 1.499 . S
C1858 H1838 0.950 . S
C1858 C1857 1.414 . S
C1858 C1859 1.374 . S
C1859 H1839 0.950 . S
C1859 C1855 1.385 . S
C1859 C1858 1.374 . S
C1860 C1857 1.499 . S
C1860 C1861 1.373 . S
C1860 C1862 1.389 . S
C1861 H1840 0.950 . S
C1861 C1860 1.373 . S
C1861 C1877 1.377 . S
C1862 C1860 1.389 . S
C1862 C1863 1.524 . S
C1862 C1876 1.377 . S
C1863 C1862 1.524 . S
C1863 C1864 1.397 . S
C1863 C1868 1.363 . S
C1864 H1841 0.950 . S
C1864 C1863 1.397 . S
C1864 C1865 1.334 . S
C1865 H1842 0.950 . S
C1865 C1864 1.334 . S
C1865 C1866 1.287 . S
C1866 C1865 1.287 . S
C1866 C1867 1.524 . S
C1866 H1885 0.913 . S
C1867 H1843 0.950 . S
C1867 C1866 1.524 . S
C1867 C1868 1.415 . S
C1868 H1844 0.950 . S
C1868 C1863 1.363 . S
C1868 C1867 1.415 . S
C1869 H1845 0.951 . S
C1869 C1870 1.366 . S
C1869 C1871 1.388 . S
C1870 C1869 1.366 . S
C1870 C1874 1.385 . S
C1871 H1846 0.951 . S
C1871 C1869 1.388 . S
C1871 C1872 1.366 . S
C1872 C1871 1.366 . S
C1872 C1873 1.414 . S
C1872 C1875 1.499 . S
C1873 H1847 0.950 . S
C1873 C1872 1.414 . S
C1873 C1874 1.374 . S
C1874 H1848 0.950 . S
C1874 C1870 1.385 . S
C1874 C1873 1.374 . S
C1875 C1872 1.499 . S
C1875 C1876 1.373 . S
C1875 C1877 1.389 . S
C1876 H1849 0.950 . S
C1876 C1862 1.377 . S
C1876 C1875 1.373 . S
C1877 C1861 1.377 . S
C1877 C1875 1.389 . S
C1877 C1878 1.524 . S
C1878 C1877 1.524 . S
C1878 C1879 1.397 . S
C1878 C1883 1.363 . S
C1879 H1850 0.950 . S
C1879 C1878 1.397 . S
C1879 C1880 1.334 1_556 S
C1880 H1851 0.950 . S
C1880 C1879 1.334 1_554 S
C1880 C1881 1.287 . S
C1881 C1880 1.287 . S
C1881 C1882 1.516 1_554 S
C1881 H1884 0.999 . S
C1882 H1852 0.945 1_556 S
C1882 C1881 1.516 1_556 S
C1882 C1883 1.428 . S
C1883 H1853 0.950 . S
C1883 C1878 1.363 . S
C1883 C1882 1.428 . S
H1884 C1881 0.999 . S
H1885 C1866 0.913 . S
H1886 C1904 0.951 . S
H1887 C1906 0.951 . S
H1888 C1908 0.950 . S
H1889 C1909 0.950 . S
H1890 C1911 0.950 . S
H1891 C1914 0.950 . S
H1892 C1915 0.950 . S
H1893 C1917 0.950 . S
H1894 C1918 0.950 . S
H1895 C1919 0.951 . S
H1896 C1921 0.951 . S
H1897 C1923 0.950 . S
H1898 C1924 0.950 . S
H1899 C1926 0.950 . S
H1900 C1929 0.950 . S
H1901 C1930 0.950 . S
H1902 C1932 0.950 . S
H1903 C1933 0.950 . S
C1904 H1886 0.951 . S
C1904 C1905 1.366 . S
C1904 C1906 1.388 . S
C1905 C1904 1.366 . S
C1905 C1909 1.385 . S
C1906 H1887 0.951 . S
C1906 C1904 1.388 . S
C1906 C1907 1.366 . S
C1907 C1906 1.366 . S
C1907 C1908 1.414 . S
C1907 C1910 1.499 . S
C1908 H1888 0.950 . S
C1908 C1907 1.414 . S
C1908 C1909 1.374 . S
C1909 H1889 0.950 . S
C1909 C1905 1.385 . S
C1909 C1908 1.374 . S
C1910 C1907 1.499 . S
C1910 C1911 1.373 . S
C1910 C1912 1.389 . S
C1911 H1890 0.950 . S
C1911 C1910 1.373 . S
C1911 C1927 1.377 1_655 S
C1912 C1910 1.389 . S
C1912 C1913 1.524 . S
C1912 C1926 1.377 1_655 S
C1913 C1912 1.524 . S
C1913 C1914 1.397 . S
C1913 C1918 1.363 . S
C1914 H1891 0.950 . S
C1914 C1913 1.397 . S
C1914 C1915 1.334 . S
C1915 H1892 0.950 . S
C1915 C1914 1.334 . S
C1915 C1916 1.287 . S
C1916 C1915 1.287 . S
C1916 C1917 1.524 . S
C1916 H1935 0.913 . S
C1917 H1893 0.950 . S
C1917 C1916 1.524 . S
C1917 C1918 1.415 . S
C1918 H1894 0.950 . S
C1918 C1913 1.363 . S
C1918 C1917 1.415 . S
C1919 H1895 0.951 . S
C1919 C1920 1.366 . S
C1919 C1921 1.388 . S
C1920 C1919 1.366 . S
C1920 C1924 1.385 . S
C1921 H1896 0.951 . S
C1921 C1919 1.388 . S
C1921 C1922 1.366 . S
C1922 C1921 1.366 . S
C1922 C1923 1.414 . S
C1922 C1925 1.499 . S
C1923 H1897 0.950 . S
C1923 C1922 1.414 . S
C1923 C1924 1.374 . S
C1924 H1898 0.950 . S
C1924 C1920 1.385 . S
C1924 C1923 1.374 . S
C1925 C1922 1.499 . S
C1925 C1926 1.373 . S
C1925 C1927 1.389 . S
C1926 H1899 0.950 . S
C1926 C1912 1.377 1_455 S
C1926 C1925 1.373 . S
C1927 C1911 1.377 1_455 S
C1927 C1925 1.389 . S
C1927 C1928 1.524 . S
C1928 C1927 1.524 . S
C1928 C1929 1.397 . S
C1928 C1933 1.363 . S
C1929 H1900 0.950 . S
C1929 C1928 1.397 . S
C1929 C1930 1.334 . S
C1930 H1901 0.950 . S
C1930 C1929 1.334 . S
C1930 C1931 1.287 . S
C1931 C1930 1.287 . S
C1931 C1932 1.524 . S
C1931 H1934 0.999 . S
C1932 H1902 0.950 . S
C1932 C1931 1.524 . S
C1932 C1933 1.415 . S
C1933 H1903 0.950 . S
C1933 C1928 1.363 . S
C1933 C1932 1.415 . S
H1934 C1931 0.999 . S
H1935 C1916 0.913 . S
H1936 C1954 0.951 . S
H1937 C1956 0.951 . S
H1938 C1958 0.950 . S
H1939 C1959 0.950 . S
H1940 C1961 0.950 . S
H1941 C1964 0.950 . S
H1942 C1965 0.950 . S
H1943 C1967 0.950 . S
H1944 C1968 0.950 . S
H1945 C1969 0.951 . S
H1946 C1971 0.951 . S
H1947 C1973 0.950 . S
H1948 C1974 0.950 . S
H1949 C1976 0.950 . S
H1950 C1979 0.950 . S
H1951 C1980 0.950 . S
H1952 C1982 0.950 . S
H1953 C1983 0.950 . S
C1954 H1936 0.951 . S
C1954 C1955 1.366 . S
C1954 C1956 1.388 . S
C1955 C1954 1.366 . S
C1955 C1959 1.385 . S
C1956 H1937 0.951 . S
C1956 C1954 1.388 . S
C1956 C1957 1.366 . S
C1957 C1956 1.366 . S
C1957 C1958 1.414 . S
C1957 C1960 1.499 . S
C1958 H1938 0.950 . S
C1958 C1957 1.414 . S
C1958 C1959 1.374 . S
C1959 H1939 0.950 . S
C1959 C1955 1.385 . S
C1959 C1958 1.374 . S
C1960 C1957 1.499 . S
C1960 C1961 1.373 . S
C1960 C1962 1.389 . S
C1961 H1940 0.950 . S
C1961 C1960 1.373 . S
C1961 C1977 1.377 1_545 S
C1962 C1960 1.389 . S
C1962 C1963 1.524 . S
C1962 C1976 1.377 1_545 S
C1963 C1962 1.524 . S
C1963 C1964 1.397 . S
C1963 C1968 1.363 . S
C1964 H1941 0.950 . S
C1964 C1963 1.397 . S
C1964 C1965 1.334 . S
C1965 H1942 0.950 . S
C1965 C1964 1.334 . S
C1965 C1966 1.287 . S
C1966 C1965 1.287 . S
C1966 C1967 1.524 . S
C1966 H1985 0.913 . S
C1967 H1943 0.950 . S
C1967 C1966 1.524 . S
C1967 C1968 1.415 . S
C1968 H1944 0.950 . S
C1968 C1963 1.363 . S
C1968 C1967 1.415 . S
C1969 H1945 0.951 . S
C1969 C1970 1.366 . S
C1969 C1971 1.388 . S
C1970 C1969 1.366 . S
C1970 C1974 1.385 . S
C1971 H1946 0.951 . S
C1971 C1969 1.388 . S
C1971 C1972 1.366 . S
C1972 C1971 1.366 . S
C1972 C1973 1.414 . S
C1972 C1975 1.499 . S
C1973 H1947 0.950 . S
C1973 C1972 1.414 . S
C1973 C1974 1.374 . S
C1974 H1948 0.950 . S
C1974 C1970 1.385 . S
C1974 C1973 1.374 . S
C1975 C1972 1.499 . S
C1975 C1976 1.373 . S
C1975 C1977 1.389 . S
C1976 H1949 0.950 . S
C1976 C1962 1.377 1_565 S
C1976 C1975 1.373 . S
C1977 C1961 1.377 1_565 S
C1977 C1975 1.389 . S
C1977 C1978 1.524 . S
C1978 C1977 1.524 . S
C1978 C1979 1.397 . S
C1978 C1983 1.363 . S
C1979 H1950 0.950 . S
C1979 C1978 1.397 . S
C1979 C1980 1.334 . S
C1980 H1951 0.950 . S
C1980 C1979 1.334 . S
C1980 C1981 1.268 1_556 S
C1981 C1980 1.268 1_554 S
C1981 C1982 1.532 . S
C1981 H1984 1.013 . S
C1982 H1952 0.950 . S
C1982 C1981 1.532 . S
C1982 C1983 1.415 1_554 S
C1983 H1953 0.950 . S
C1983 C1978 1.363 . S
C1983 C1982 1.415 1_556 S
H1984 C1981 1.013 . S
H1985 C1966 0.913 . S
H1986 C2004 0.951 . S
H1987 C2006 0.951 . S
H1988 C2008 0.950 . S
H1989 C2009 0.950 . S
H1990 C2011 0.950 . S
H1991 C2014 0.950 . S
H1992 C2015 0.950 . S
H1993 C2017 0.950 . S
H1994 C2018 0.950 . S
H1995 C2019 0.951 . S
H1996 C2021 0.951 . S
H1997 C2023 0.950 . S
H1998 C2024 0.950 . S
H1999 C2026 0.950 . S
H2000 C2029 0.950 . S
H2001 C2030 0.950 . S
H2002 C2032 0.950 . S
H2003 C2033 0.950 . S
C2004 H1986 0.951 . S
C2004 C2005 1.366 . S
C2004 C2006 1.388 . S
C2005 C2004 1.366 . S
C2005 C2009 1.385 . S
C2006 H1987 0.951 . S
C2006 C2004 1.388 . S
C2006 C2007 1.366 . S
C2007 C2006 1.366 . S
C2007 C2008 1.414 . S
C2007 C2010 1.499 . S
C2008 H1988 0.950 . S
C2008 C2007 1.414 . S
C2008 C2009 1.374 . S
C2009 H1989 0.950 . S
C2009 C2005 1.385 . S
C2009 C2008 1.374 . S
C2010 C2007 1.499 . S
C2010 C2011 1.373 . S
C2010 C2012 1.389 . S
C2011 H1990 0.950 . S
C2011 C2010 1.373 . S
C2011 C2027 1.377 . S
C2012 C2010 1.389 . S
C2012 C2013 1.524 . S
C2012 C2026 1.377 . S
C2013 C2012 1.524 . S
C2013 C2014 1.397 . S
C2013 C2018 1.363 . S
C2014 H1991 0.950 . S
C2014 C2013 1.397 . S
C2014 C2015 1.334 . S
C2015 H1992 0.950 . S
C2015 C2014 1.334 . S
C2015 C2016 1.287 . S
C2016 C2015 1.287 . S
C2016 C2017 1.524 . S
C2016 H2035 0.913 . S
C2017 H1993 0.950 . S
C2017 C2016 1.524 . S
C2017 C2018 1.415 . S
C2018 H1994 0.950 . S
C2018 C2013 1.363 . S
C2018 C2017 1.415 . S
C2019 H1995 0.951 . S
C2019 C2020 1.366 . S
C2019 C2021 1.388 . S
C2020 C2019 1.366 . S
C2020 C2024 1.385 . S
C2021 H1996 0.951 . S
C2021 C2019 1.388 . S
C2021 C2022 1.366 . S
C2022 C2021 1.366 . S
C2022 C2023 1.414 . S
C2022 C2025 1.499 . S
C2023 H1997 0.950 . S
C2023 C2022 1.414 . S
C2023 C2024 1.374 . S
C2024 H1998 0.950 . S
C2024 C2020 1.385 . S
C2024 C2023 1.374 . S
C2025 C2022 1.499 . S
C2025 C2026 1.373 . S
C2025 C2027 1.389 . S
C2026 H1999 0.950 . S
C2026 C2012 1.377 . S
C2026 C2025 1.373 . S
C2027 C2011 1.377 . S
C2027 C2025 1.389 . S
C2027 C2028 1.524 . S
C2028 C2027 1.524 . S
C2028 C2029 1.397 . S
C2028 C2033 1.363 . S
C2029 H2000 0.950 . S
C2029 C2028 1.397 . S
C2029 C2030 1.334 . S
C2030 H2001 0.950 . S
C2030 C2029 1.334 . S
C2030 C2031 1.287 . S
C2031 C2030 1.287 . S
C2031 C2032 1.524 . S
C2031 H2034 0.999 . S
C2032 H2002 0.950 . S
C2032 C2031 1.524 . S
C2032 C2033 1.415 . S
C2033 H2003 0.950 . S
C2033 C2028 1.363 . S
C2033 C2032 1.415 . S
H2034 C2031 0.999 . S
H2035 C2016 0.913 . S
H2036 C2054 0.951 . S
H2037 C2056 0.951 . S
H2038 C2058 0.950 . S
H2039 C2059 0.950 . S
H2040 C2061 0.950 . S
H2041 C2064 0.950 . S
H2042 C2065 0.950 . S
H2043 C2067 0.950 . S
H2044 C2068 0.950 . S
H2045 C2069 0.951 . S
H2046 C2071 0.951 . S
H2047 C2073 0.950 . S
H2048 C2074 0.950 . S
H2049 C2076 0.950 . S
H2050 C2079 0.950 . S
H2051 C2080 0.950 . S
H2052 C2082 0.950 . S
H2053 C2083 0.950 . S
C2054 H2036 0.951 . S
C2054 C2055 1.366 . S
C2054 C2056 1.388 . S
C2055 C2054 1.366 . S
C2055 C2059 1.385 . S
C2056 H2037 0.951 . S
C2056 C2054 1.388 . S
C2056 C2057 1.366 . S
C2057 C2056 1.366 . S
C2057 C2058 1.414 . S
C2057 C2060 1.499 . S
C2058 H2038 0.950 . S
C2058 C2057 1.414 . S
C2058 C2059 1.374 . S
C2059 H2039 0.950 . S
C2059 C2055 1.385 . S
C2059 C2058 1.374 . S
C2060 C2057 1.499 . S
C2060 C2061 1.373 . S
C2060 C2062 1.389 . S
C2061 H2040 0.950 . S
C2061 C2060 1.373 . S
C2061 C2077 1.377 1_455 S
C2062 C2060 1.389 . S
C2062 C2063 1.524 . S
C2062 C2076 1.377 1_455 S
C2063 C2062 1.524 . S
C2063 C2064 1.397 . S
C2063 C2068 1.363 . S
C2064 H2041 0.950 . S
C2064 C2063 1.397 . S
C2064 C2065 1.334 . S
C2065 H2042 0.950 . S
C2065 C2064 1.334 . S
C2065 C2066 1.287 . S
C2066 C2065 1.287 . S
C2066 C2067 1.524 . S
C2066 H2085 0.913 . S
C2067 H2043 0.950 . S
C2067 C2066 1.524 . S
C2067 C2068 1.415 . S
C2068 H2044 0.950 . S
C2068 C2063 1.363 . S
C2068 C2067 1.415 . S
C2069 H2045 0.951 . S
C2069 C2070 1.366 . S
C2069 C2071 1.388 . S
C2070 C2069 1.366 . S
C2070 C2074 1.385 . S
C2071 H2046 0.951 . S
C2071 C2069 1.388 . S
C2071 C2072 1.366 . S
C2072 C2071 1.366 . S
C2072 C2073 1.414 . S
C2072 C2075 1.499 . S
C2073 H2047 0.950 . S
C2073 C2072 1.414 . S
C2073 C2074 1.374 . S
C2074 H2048 0.950 . S
C2074 C2070 1.385 . S
C2074 C2073 1.374 . S
C2075 C2072 1.499 . S
C2075 C2076 1.373 . S
C2075 C2077 1.389 . S
C2076 H2049 0.950 . S
C2076 C2062 1.377 1_655 S
C2076 C2075 1.373 . S
C2077 C2061 1.377 1_655 S
C2077 C2075 1.389 . S
C2077 C2078 1.524 . S
C2078 C2077 1.524 . S
C2078 C2079 1.397 . S
C2078 C2083 1.363 . S
C2079 H2050 0.950 . S
C2079 C2078 1.397 . S
C2079 C2080 1.334 . S
C2080 H2051 0.950 . S
C2080 C2079 1.334 . S
C2080 C2081 1.287 . S
C2081 C2080 1.287 . S
C2081 C2082 1.524 . S
C2081 H2084 0.999 . S
C2082 H2052 0.950 . S
C2082 C2081 1.524 . S
C2082 C2083 1.415 . S
C2083 H2053 0.950 . S
C2083 C2078 1.363 . S
C2083 C2082 1.415 . S
H2084 C2081 0.999 . S
H2085 C2066 0.913 . S
H2086 C2104 0.951 . S
H2087 C2106 0.951 . S
H2088 C2108 0.950 . S
H2089 C2109 0.950 . S
H2090 C2111 0.950 . S
H2091 C2114 0.950 . S
H2092 C2115 0.950 . S
H2093 C2117 0.950 . S
H2094 C2118 0.950 . S
H2095 C2119 0.951 . S
H2096 C2121 0.951 . S
H2097 C2123 0.950 . S
H2098 C2124 0.950 . S
H2099 C2126 0.950 . S
H2100 C2129 0.950 . S
H2101 C2130 0.950 . S
H2102 C2132 0.950 . S
H2103 C2133 0.950 . S
C2104 H2086 0.951 . S
C2104 C2105 1.366 . S
C2104 C2106 1.388 . S
C2105 C2104 1.366 . S
C2105 C2109 1.385 . S
C2106 H2087 0.951 . S
C2106 C2104 1.388 . S
C2106 C2107 1.366 . S
C2107 C2106 1.366 . S
C2107 C2108 1.414 . S
C2107 C2110 1.499 . S
C2108 H2088 0.950 . S
C2108 C2107 1.414 . S
C2108 C2109 1.374 . S
C2109 H2089 0.950 . S
C2109 C2105 1.385 . S
C2109 C2108 1.374 . S
C2110 C2107 1.499 . S
C2110 C2111 1.373 . S
C2110 C2112 1.389 . S
C2111 H2090 0.950 . S
C2111 C2110 1.373 . S
C2111 C2127 1.377 1_565 S
C2112 C2110 1.389 . S
C2112 C2113 1.524 . S
C2112 C2126 1.377 1_565 S
C2113 C2112 1.524 . S
C2113 C2114 1.397 . S
C2113 C2118 1.363 . S
C2114 H2091 0.950 . S
C2114 C2113 1.397 . S
C2114 C2115 1.334 . S
C2115 H2092 0.950 . S
C2115 C2114 1.334 . S
C2115 C2116 1.287 . S
C2116 C2115 1.287 . S
C2116 C2117 1.524 . S
C2116 H2135 0.913 . S
C2117 H2093 0.950 . S
C2117 C2116 1.524 . S
C2117 C2118 1.415 . S
C2118 H2094 0.950 . S
C2118 C2113 1.363 . S
C2118 C2117 1.415 . S
C2119 H2095 0.951 . S
C2119 C2120 1.366 . S
C2119 C2121 1.388 . S
C2120 C2119 1.366 . S
C2120 C2124 1.385 . S
C2121 H2096 0.951 . S
C2121 C2119 1.388 . S
C2121 C2122 1.366 . S
C2122 C2121 1.366 . S
C2122 C2123 1.414 . S
C2122 C2125 1.499 . S
C2123 H2097 0.950 . S
C2123 C2122 1.414 . S
C2123 C2124 1.374 . S
C2124 H2098 0.950 . S
C2124 C2120 1.385 . S
C2124 C2123 1.374 . S
C2125 C2122 1.499 . S
C2125 C2126 1.373 . S
C2125 C2127 1.389 . S
C2126 H2099 0.950 . S
C2126 C2112 1.377 1_545 S
C2126 C2125 1.373 . S
C2127 C2111 1.377 1_545 S
C2127 C2125 1.389 . S
C2127 C2128 1.524 . S
C2128 C2127 1.524 . S
C2128 C2129 1.397 . S
C2128 C2133 1.363 . S
C2129 H2100 0.950 . S
C2129 C2128 1.397 . S
C2129 C2130 1.334 . S
C2130 H2101 0.950 . S
C2130 C2129 1.334 . S
C2130 C2131 1.287 . S
C2131 C2130 1.287 . S
C2131 C2132 1.524 . S
C2131 H2134 0.999 . S
C2132 H2102 0.950 . S
C2132 C2131 1.524 . S
C2132 C2133 1.415 . S
C2133 H2103 0.950 . S
C2133 C2128 1.363 . S
C2133 C2132 1.415 . S
H2134 C2131 0.999 . S
H2135 C2116 0.913 . S
H2136 C2154 0.951 . S
H2137 C2156 0.951 . S
H2138 C2158 0.950 . S
H2139 C2159 0.950 . S
H2140 C2161 0.950 . S
H2141 C2164 0.950 . S
H2142 C2165 0.950 . S
H2143 C2167 0.950 . S
H2144 C2168 0.950 . S
H2145 C2169 0.951 . S
H2146 C2171 0.951 . S
H2147 C2173 0.950 . S
H2148 C2174 0.950 . S
H2149 C2176 0.950 . S
H2150 C2179 0.950 . S
H2151 C2180 0.950 . S
H2152 C2182 0.950 . S
H2153 C2183 0.950 . S
C2154 H2136 0.951 . S
C2154 C2155 1.366 . S
C2154 C2156 1.388 . S
C2155 C2154 1.366 . S
C2155 C2159 1.385 . S
C2156 H2137 0.951 . S
C2156 C2154 1.388 . S
C2156 C2157 1.366 . S
C2157 C2156 1.366 . S
C2157 C2158 1.414 . S
C2157 C2160 1.499 . S
C2158 H2138 0.950 . S
C2158 C2157 1.414 . S
C2158 C2159 1.374 . S
C2159 H2139 0.950 . S
C2159 C2155 1.385 . S
C2159 C2158 1.374 . S
C2160 C2157 1.499 . S
C2160 C2161 1.373 . S
C2160 C2162 1.389 1_556 S
C2161 H2140 0.950 . S
C2161 C2160 1.373 . S
C2161 C2177 1.377 . S
C2162 C2160 1.389 1_554 S
C2162 C2163 1.524 . S
C2162 C2176 1.377 . S
C2163 C2162 1.524 . S
C2163 C2164 1.397 . S
C2163 C2168 1.363 . S
C2164 H2141 0.950 . S
C2164 C2163 1.397 . S
C2164 C2165 1.334 . S
C2165 H2142 0.950 . S
C2165 C2164 1.334 . S
C2165 C2166 1.287 . S
C2166 C2165 1.287 . S
C2166 C2167 1.524 . S
C2166 H2185 0.913 . S
C2167 H2143 0.950 . S
C2167 C2166 1.524 . S
C2167 C2168 1.415 . S
C2168 H2144 0.950 . S
C2168 C2163 1.363 . S
C2168 C2167 1.415 . S
C2169 H2145 0.951 . S
C2169 C2170 1.366 . S
C2169 C2171 1.388 . S
C2170 C2169 1.366 . S
C2170 C2174 1.385 . S
C2171 H2146 0.951 . S
C2171 C2169 1.388 . S
C2171 C2172 1.366 . S
C2172 C2171 1.366 . S
C2172 C2173 1.414 . S
C2172 C2175 1.499 . S
C2173 H2147 0.950 . S
C2173 C2172 1.414 . S
C2173 C2174 1.374 . S
C2174 H2148 0.950 . S
C2174 C2170 1.385 . S
C2174 C2173 1.374 . S
C2175 C2172 1.499 . S
C2175 C2176 1.373 . S
C2175 C2177 1.389 1_554 S
C2176 H2149 0.950 . S
C2176 C2162 1.377 . S
C2176 C2175 1.373 . S
C2177 C2161 1.377 . S
C2177 C2175 1.389 1_556 S
C2177 C2178 1.524 . S
C2178 C2177 1.524 . S
C2178 C2179 1.397 . S
C2178 C2183 1.363 . S
C2179 H2150 0.950 . S
C2179 C2178 1.397 . S
C2179 C2180 1.334 . S
C2180 H2151 0.950 . S
C2180 C2179 1.334 . S
C2180 C2181 1.287 . S
C2181 C2180 1.287 . S
C2181 C2182 1.524 . S
C2181 H2184 0.999 . S
C2182 H2152 0.950 . S
C2182 C2181 1.524 . S
C2182 C2183 1.415 . S
C2183 H2153 0.950 . S
C2183 C2178 1.363 . S
C2183 C2182 1.415 . S
H2184 C2181 0.999 . S
H2185 C2166 0.913 . S
H2186 C2204 0.951 . S
H2187 C2206 0.951 . S
H2188 C2208 0.950 . S
H2189 C2209 0.950 . S
H2190 C2211 0.950 . S
H2191 C2214 0.950 . S
H2192 C2215 0.950 . S
H2193 C2217 0.950 . S
H2194 C2218 0.950 . S
H2195 C2219 0.951 . S
H2196 C2221 0.951 . S
H2197 C2223 0.950 . S
H2198 C2224 0.950 . S
H2199 C2226 0.950 . S
H2200 C2229 0.950 . S
H2201 C2230 0.950 . S
H2202 C2232 0.950 . S
H2203 C2233 0.950 . S
C2204 H2186 0.951 . S
C2204 C2205 1.366 . S
C2204 C2206 1.388 . S
C2205 C2204 1.366 . S
C2205 C2209 1.385 . S
C2206 H2187 0.951 . S
C2206 C2204 1.388 . S
C2206 C2207 1.366 . S
C2207 C2206 1.366 . S
C2207 C2208 1.414 . S
C2207 C2210 1.499 . S
C2208 H2188 0.950 . S
C2208 C2207 1.414 . S
C2208 C2209 1.374 . S
C2209 H2189 0.950 . S
C2209 C2205 1.385 . S
C2209 C2208 1.374 . S
C2210 C2207 1.499 . S
C2210 C2211 1.373 . S
C2210 C2212 1.389 . S
C2211 H2190 0.950 . S
C2211 C2210 1.373 . S
C2211 C2227 1.377 . S
C2212 C2210 1.389 . S
C2212 C2213 1.524 . S
C2212 C2226 1.377 . S
C2213 C2212 1.524 . S
C2213 C2214 1.397 . S
C2213 C2218 1.363 . S
C2214 H2191 0.950 . S
C2214 C2213 1.397 . S
C2214 C2215 1.334 . S
C2215 H2192 0.950 . S
C2215 C2214 1.334 . S
C2215 C2216 1.287 . S
C2216 C2215 1.287 . S
C2216 C2217 1.524 . S
C2216 H2235 0.913 . S
C2217 H2193 0.950 . S
C2217 C2216 1.524 . S
C2217 C2218 1.415 . S
C2218 H2194 0.950 . S
C2218 C2213 1.363 . S
C2218 C2217 1.415 . S
C2219 H2195 0.951 . S
C2219 C2220 1.366 . S
C2219 C2221 1.388 . S
C2220 C2219 1.366 . S
C2220 C2224 1.385 . S
C2221 H2196 0.951 . S
C2221 C2219 1.388 . S
C2221 C2222 1.366 . S
C2222 C2221 1.366 . S
C2222 C2223 1.414 . S
C2222 C2225 1.499 . S
C2223 H2197 0.950 . S
C2223 C2222 1.414 . S
C2223 C2224 1.374 . S
C2224 H2198 0.950 . S
C2224 C2220 1.385 . S
C2224 C2223 1.374 . S
C2225 C2222 1.499 . S
C2225 C2226 1.373 . S
C2225 C2227 1.389 . S
C2226 H2199 0.950 . S
C2226 C2212 1.377 . S
C2226 C2225 1.373 . S
C2227 C2211 1.377 . S
C2227 C2225 1.389 . S
C2227 C2228 1.524 . S
C2228 C2227 1.524 . S
C2228 C2229 1.397 . S
C2228 C2233 1.363 . S
C2229 H2200 0.950 . S
C2229 C2228 1.397 . S
C2229 C2230 1.334 . S
C2230 H2201 0.950 . S
C2230 C2229 1.334 . S
C2230 C2231 1.287 . S
C2231 C2230 1.287 . S
C2231 C2232 1.524 . S
C2231 H2234 0.999 . S
C2232 H2202 0.950 . S
C2232 C2231 1.524 . S
C2232 C2233 1.415 . S
C2233 H2203 0.950 . S
C2233 C2228 1.363 . S
C2233 C2232 1.415 . S
H2234 C2231 0.999 . S
H2235 C2216 0.913 . S
H2236 C2254 0.951 . S
H2237 C2256 0.951 . S
H2238 C2258 0.950 1_554 S
H2239 C2259 0.950 . S
H2240 C2261 0.950 . S
H2241 C2264 0.950 . S
H2242 C2265 0.950 . S
H2243 C2267 0.950 . S
H2244 C2268 0.950 . S
H2245 C2269 0.951 . S
H2246 C2271 0.951 . S
H2247 C2273 0.950 1_556 S
H2248 C2274 0.950 . S
H2249 C2276 0.950 . S
H2250 C2279 0.950 . S
H2251 C2280 0.950 . S
H2252 C2282 0.950 . S
H2253 C2283 0.950 . S
C2254 H2236 0.951 . S
C2254 C2255 1.366 . S
C2254 C2256 1.388 . S
C2255 C2254 1.366 . S
C2255 C2259 1.385 . S
C2256 H2237 0.951 . S
C2256 C2254 1.388 . S
C2256 C2257 1.366 . S
C2257 C2256 1.366 . S
C2257 C2258 1.414 . S
C2257 C2260 1.499 . S
C2258 H2238 0.950 1_556 S
C2258 C2257 1.414 . S
C2258 C2259 1.374 . S
C2259 H2239 0.950 . S
C2259 C2255 1.385 . S
C2259 C2258 1.374 . S
C2260 C2257 1.499 . S
C2260 C2261 1.373 1_556 S
C2260 C2262 1.389 . S
C2261 H2240 0.950 . S
C2261 C2260 1.373 1_554 S
C2261 C2277 1.377 . S
C2262 C2260 1.389 . S
C2262 C2263 1.524 . S
C2262 C2276 1.377 . S
C2263 C2262 1.524 . S
C2263 C2264 1.397 . S
C2263 C2268 1.363 . S
C2264 H2241 0.950 . S
C2264 C2263 1.397 . S
C2264 C2265 1.334 . S
C2265 H2242 0.950 . S
C2265 C2264 1.334 . S
C2265 C2266 1.287 . S
C2266 C2265 1.287 . S
C2266 C2267 1.524 . S
C2266 H2285 0.913 . S
C2267 H2243 0.950 . S
C2267 C2266 1.524 . S
C2267 C2268 1.415 . S
C2268 H2244 0.950 . S
C2268 C2263 1.363 . S
C2268 C2267 1.415 . S
C2269 H2245 0.951 . S
C2269 C2270 1.366 . S
C2269 C2271 1.388 . S
C2270 C2269 1.366 . S
C2270 C2274 1.385 . S
C2271 H2246 0.951 . S
C2271 C2269 1.388 . S
C2271 C2272 1.366 . S
C2272 C2271 1.366 . S
C2272 C2273 1.414 . S
C2272 C2275 1.499 . S
C2273 H2247 0.950 1_554 S
C2273 C2272 1.414 . S
C2273 C2274 1.374 . S
C2274 H2248 0.950 . S
C2274 C2270 1.385 . S
C2274 C2273 1.374 . S
C2275 C2272 1.499 . S
C2275 C2276 1.373 1_554 S
C2275 C2277 1.389 . S
C2276 H2249 0.950 . S
C2276 C2262 1.377 . S
C2276 C2275 1.373 1_556 S
C2277 C2261 1.377 . S
C2277 C2275 1.389 . S
C2277 C2278 1.524 . S
C2278 C2277 1.524 . S
C2278 C2279 1.397 . S
C2278 C2283 1.363 . S
C2279 H2250 0.950 . S
C2279 C2278 1.397 . S
C2279 C2280 1.334 . S
C2280 H2251 0.950 . S
C2280 C2279 1.334 . S
C2280 C2281 1.287 . S
C2281 C2280 1.287 . S
C2281 C2282 1.524 . S
C2281 H2284 0.999 . S
C2282 H2252 0.950 . S
C2282 C2281 1.524 . S
C2282 C2283 1.415 . S
C2283 H2253 0.950 . S
C2283 C2278 1.363 . S
C2283 C2282 1.415 . S
H2284 C2281 0.999 . S
H2285 C2266 0.913 . S
H2286 C2304 0.951 . S
H2287 C2306 0.951 . S
H2288 C2308 0.950 . S
H2289 C2309 0.950 . S
H2290 C2311 0.950 . S
H2291 C2314 0.950 . S
H2292 C2315 0.950 . S
H2293 C2317 0.950 . S
H2294 C2318 0.950 . S
H2295 C2319 0.951 . S
H2296 C2321 0.951 . S
H2297 C2323 0.950 . S
H2298 C2324 0.950 . S
H2299 C2326 0.950 . S
H2300 C2329 0.950 . S
H2301 C2330 0.950 . S
H2302 C2332 0.950 . S
H2303 C2333 0.950 . S
C2304 H2286 0.951 . S
C2304 C2305 1.366 . S
C2304 C2306 1.388 . S
C2305 C2304 1.366 . S
C2305 C2309 1.385 . S
C2306 H2287 0.951 . S
C2306 C2304 1.388 . S
C2306 C2307 1.366 . S
C2307 C2306 1.366 . S
C2307 C2308 1.414 . S
C2307 C2310 1.499 . S
C2308 H2288 0.950 . S
C2308 C2307 1.414 . S
C2308 C2309 1.374 . S
C2309 H2289 0.950 . S
C2309 C2305 1.385 . S
C2309 C2308 1.374 . S
C2310 C2307 1.499 . S
C2310 C2311 1.373 . S
C2310 C2312 1.389 . S
C2311 H2290 0.950 . S
C2311 C2310 1.373 . S
C2311 C2327 1.377 . S
C2312 C2310 1.389 . S
C2312 C2313 1.524 . S
C2312 C2326 1.377 . S
C2313 C2312 1.524 . S
C2313 C2314 1.397 . S
C2313 C2318 1.363 . S
C2314 H2291 0.950 . S
C2314 C2313 1.397 . S
C2314 C2315 1.334 . S
C2315 H2292 0.950 . S
C2315 C2314 1.334 . S
C2315 C2316 1.287 . S
C2316 C2315 1.287 . S
C2316 C2317 1.524 . S
C2316 H2335 0.913 . S
C2317 H2293 0.950 . S
C2317 C2316 1.524 . S
C2317 C2318 1.415 . S
C2318 H2294 0.950 . S
C2318 C2313 1.363 . S
C2318 C2317 1.415 . S
C2319 H2295 0.951 . S
C2319 C2320 1.366 . S
C2319 C2321 1.388 . S
C2320 C2319 1.366 . S
C2320 C2324 1.385 . S
C2321 H2296 0.951 . S
C2321 C2319 1.388 . S
C2321 C2322 1.366 . S
C2322 C2321 1.366 . S
C2322 C2323 1.414 . S
C2322 C2325 1.499 . S
C2323 H2297 0.950 . S
C2323 C2322 1.414 . S
C2323 C2324 1.374 . S
C2324 H2298 0.950 . S
C2324 C2320 1.385 . S
C2324 C2323 1.374 . S
C2325 C2322 1.499 . S
C2325 C2326 1.373 . S
C2325 C2327 1.389 . S
C2326 H2299 0.950 . S
C2326 C2312 1.377 . S
C2326 C2325 1.373 . S
C2327 C2311 1.377 . S
C2327 C2325 1.389 . S
C2327 C2328 1.524 . S
C2328 C2327 1.524 . S
C2328 C2329 1.397 . S
C2328 C2333 1.363 . S
C2329 H2300 0.950 . S
C2329 C2328 1.397 . S
C2329 C2330 1.334 . S
C2330 H2301 0.950 . S
C2330 C2329 1.334 . S
C2330 C2331 1.287 . S
C2331 C2330 1.287 . S
C2331 C2332 1.524 . S
C2331 H2334 0.999 . S
C2332 H2302 0.950 . S
C2332 C2331 1.524 . S
C2332 C2333 1.415 . S
C2333 H2303 0.950 . S
C2333 C2328 1.363 . S
C2333 C2332 1.415 . S
H2334 C2331 0.999 . S
H2335 C2316 0.913 . S
H2336 C2354 0.951 . S
H2337 C2356 0.951 . S
H2338 C2358 0.950 1_554 S
H2339 C2359 0.950 . S
H2340 C2361 0.950 . S
H2341 C2364 0.950 . S
H2342 C2365 0.950 . S
H2343 C2367 0.950 . S
H2344 C2368 0.950 . S
H2345 C2369 0.951 . S
H2346 C2371 0.951 . S
H2347 C2373 0.950 1_556 S
H2348 C2374 0.950 . S
H2349 C2376 0.950 . S
H2350 C2379 0.950 . S
H2351 C2380 0.950 . S
H2352 C2382 0.950 . S
H2353 C2383 0.950 . S
C2354 H2336 0.951 . S
C2354 C2355 1.366 . S
C2354 C2356 1.388 . S
C2355 C2354 1.366 . S
C2355 C2359 1.385 . S
C2356 H2337 0.951 . S
C2356 C2354 1.388 . S
C2356 C2357 1.366 . S
C2357 C2356 1.366 . S
C2357 C2358 1.414 . S
C2357 C2360 1.499 . S
C2358 H2338 0.950 1_556 S
C2358 C2357 1.414 . S
C2358 C2359 1.374 . S
C2359 H2339 0.950 . S
C2359 C2355 1.385 . S
C2359 C2358 1.374 . S
C2360 C2357 1.499 . S
C2360 C2361 1.373 1_556 S
C2360 C2362 1.389 . S
C2361 H2340 0.950 . S
C2361 C2360 1.373 1_554 S
C2361 C2377 1.377 . S
C2362 C2360 1.389 . S
C2362 C2363 1.524 . S
C2362 C2376 1.377 . S
C2363 C2362 1.524 . S
C2363 C2364 1.397 . S
C2363 C2368 1.363 . S
C2364 H2341 0.950 . S
C2364 C2363 1.397 . S
C2364 C2365 1.334 . S
C2365 H2342 0.950 . S
C2365 C2364 1.334 . S
C2365 C2366 1.287 . S
C2366 C2365 1.287 . S
C2366 C2367 1.524 . S
C2366 H2385 0.913 . S
C2367 H2343 0.950 . S
C2367 C2366 1.524 . S
C2367 C2368 1.415 . S
C2368 H2344 0.950 . S
C2368 C2363 1.363 . S
C2368 C2367 1.415 . S
C2369 H2345 0.951 . S
C2369 C2370 1.366 . S
C2369 C2371 1.388 . S
C2370 C2369 1.366 . S
C2370 C2374 1.385 . S
C2371 H2346 0.951 . S
C2371 C2369 1.388 . S
C2371 C2372 1.366 . S
C2372 C2371 1.366 . S
C2372 C2373 1.414 . S
C2372 C2375 1.499 . S
C2373 H2347 0.950 1_554 S
C2373 C2372 1.414 . S
C2373 C2374 1.374 . S
C2374 H2348 0.950 . S
C2374 C2370 1.385 . S
C2374 C2373 1.374 . S
C2375 C2372 1.499 . S
C2375 C2376 1.373 1_554 S
C2375 C2377 1.389 . S
C2376 H2349 0.950 . S
C2376 C2362 1.377 . S
C2376 C2375 1.373 1_556 S
C2377 C2361 1.377 . S
C2377 C2375 1.389 . S
C2377 C2378 1.524 . S
C2378 C2377 1.524 . S
C2378 C2379 1.397 . S
C2378 C2383 1.363 . S
C2379 H2350 0.950 . S
C2379 C2378 1.397 . S
C2379 C2380 1.334 . S
C2380 H2351 0.950 . S
C2380 C2379 1.334 . S
C2380 C2381 1.287 . S
C2381 C2380 1.287 . S
C2381 C2382 1.524 . S
C2381 H2384 0.999 . S
C2382 H2352 0.950 . S
C2382 C2381 1.524 . S
C2382 C2383 1.415 . S
C2383 H2353 0.950 . S
C2383 C2378 1.363 . S
C2383 C2382 1.415 . S
H2384 C2381 0.999 . S
H2385 C2366 0.913 . S
H2386 C2404 0.951 . S
H2387 C2406 0.951 . S
H2388 C2408 0.950 . S
H2389 C2409 0.950 . S
H2390 C2411 0.950 . S
H2391 C2414 0.950 . S
H2392 C2415 0.950 . S
H2393 C2417 0.950 . S
H2394 C2418 0.950 . S
H2395 C2419 0.951 . S
H2396 C2421 0.951 . S
H2397 C2423 0.950 . S
H2398 C2424 0.950 . S
H2399 C2426 0.950 . S
H2400 C2429 0.950 . S
H2401 C2430 0.950 . S
H2402 C2432 0.950 . S
H2403 C2433 0.950 . S
C2404 H2386 0.951 . S
C2404 C2405 1.366 . S
C2404 C2406 1.388 . S
C2405 C2404 1.366 . S
C2405 C2409 1.385 . S
C2406 H2387 0.951 . S
C2406 C2404 1.388 . S
C2406 C2407 1.366 . S
C2407 C2406 1.366 . S
C2407 C2408 1.414 . S
C2407 C2410 1.499 . S
C2408 H2388 0.950 . S
C2408 C2407 1.414 . S
C2408 C2409 1.374 . S
C2409 H2389 0.950 . S
C2409 C2405 1.385 . S
C2409 C2408 1.374 . S
C2410 C2407 1.499 . S
C2410 C2411 1.373 . S
C2410 C2412 1.389 . S
C2411 H2390 0.950 . S
C2411 C2410 1.373 . S
C2411 C2427 1.377 . S
C2412 C2410 1.389 . S
C2412 C2413 1.524 . S
C2412 C2426 1.377 . S
C2413 C2412 1.524 . S
C2413 C2414 1.397 . S
C2413 C2418 1.363 . S
C2414 H2391 0.950 . S
C2414 C2413 1.397 . S
C2414 C2415 1.334 . S
C2415 H2392 0.950 . S
C2415 C2414 1.334 . S
C2415 C2416 1.287 . S
C2416 C2415 1.287 . S
C2416 C2417 1.524 . S
C2416 H2435 0.913 . S
C2417 H2393 0.950 . S
C2417 C2416 1.524 . S
C2417 C2418 1.415 . S
C2418 H2394 0.950 . S
C2418 C2413 1.363 . S
C2418 C2417 1.415 . S
C2419 H2395 0.951 . S
C2419 C2420 1.366 . S
C2419 C2421 1.388 . S
C2420 C2419 1.366 . S
C2420 C2424 1.385 . S
C2421 H2396 0.951 . S
C2421 C2419 1.388 . S
C2421 C2422 1.366 . S
C2422 C2421 1.366 . S
C2422 C2423 1.414 . S
C2422 C2425 1.499 . S
C2423 H2397 0.950 . S
C2423 C2422 1.414 . S
C2423 C2424 1.374 . S
C2424 H2398 0.950 . S
C2424 C2420 1.385 . S
C2424 C2423 1.374 . S
C2425 C2422 1.499 . S
C2425 C2426 1.373 . S
C2425 C2427 1.389 . S
C2426 H2399 0.950 . S
C2426 C2412 1.377 . S
C2426 C2425 1.373 . S
C2427 C2411 1.377 . S
C2427 C2425 1.389 . S
C2427 C2428 1.524 . S
C2428 C2427 1.524 . S
C2428 C2429 1.397 . S
C2428 C2433 1.363 . S
C2429 H2400 0.950 . S
C2429 C2428 1.397 . S
C2429 C2430 1.334 . S
C2430 H2401 0.950 . S
C2430 C2429 1.334 . S
C2430 C2431 1.287 . S
C2431 C2430 1.287 . S
C2431 C2432 1.524 . S
C2431 H2434 0.999 . S
C2432 H2402 0.950 . S
C2432 C2431 1.524 . S
C2432 C2433 1.415 . S
C2433 H2403 0.950 . S
C2433 C2428 1.363 . S
C2433 C2432 1.415 . S
H2434 C2431 0.999 . S
H2435 C2416 0.913 . S
H2436 C2454 0.951 . S
H2437 C2456 0.951 . S
H2438 C2458 0.950 . S
H2439 C2459 0.950 . S
H2440 C2461 0.950 . S
H2441 C2464 0.950 . S
H2442 C2465 0.950 . S
H2443 C2467 0.950 . S
H2444 C2468 0.950 . S
H2445 C2469 0.951 . S
H2446 C2471 0.951 . S
H2447 C2473 0.950 . S
H2448 C2474 0.950 . S
H2449 C2476 0.950 . S
H2450 C2479 0.950 . S
H2451 C2480 0.950 . S
H2452 C2482 0.950 . S
H2453 C2483 0.950 . S
C2454 H2436 0.951 . S
C2454 C2455 1.366 . S
C2454 C2456 1.388 . S
C2455 C2454 1.366 . S
C2455 C2459 1.385 . S
C2456 H2437 0.951 . S
C2456 C2454 1.388 . S
C2456 C2457 1.366 . S
C2457 C2456 1.366 . S
C2457 C2458 1.414 . S
C2457 C2460 1.499 . S
C2458 H2438 0.950 . S
C2458 C2457 1.414 . S
C2458 C2459 1.374 . S
C2459 H2439 0.950 . S
C2459 C2455 1.385 . S
C2459 C2458 1.374 . S
C2460 C2457 1.499 . S
C2460 C2461 1.373 1_554 S
C2460 C2462 1.389 . S
C2461 H2440 0.950 . S
C2461 C2460 1.373 1_556 S
C2461 C2477 1.377 . S
C2462 C2460 1.389 . S
C2462 C2463 1.524 . S
C2462 C2476 1.377 . S
C2463 C2462 1.524 . S
C2463 C2464 1.397 . S
C2463 C2468 1.363 . S
C2464 H2441 0.950 . S
C2464 C2463 1.397 . S
C2464 C2465 1.334 . S
C2465 H2442 0.950 . S
C2465 C2464 1.334 . S
C2465 C2466 1.287 . S
C2466 C2465 1.287 . S
C2466 C2467 1.524 . S
C2466 H2485 0.913 . S
C2467 H2443 0.950 . S
C2467 C2466 1.524 . S
C2467 C2468 1.415 . S
C2468 H2444 0.950 . S
C2468 C2463 1.363 . S
C2468 C2467 1.415 . S
C2469 H2445 0.951 . S
C2469 C2470 1.366 . S
C2469 C2471 1.388 . S
C2470 C2469 1.366 . S
C2470 C2474 1.385 . S
C2471 H2446 0.951 . S
C2471 C2469 1.388 . S
C2471 C2472 1.366 . S
C2472 C2471 1.366 . S
C2472 C2473 1.414 . S
C2472 C2475 1.499 . S
C2473 H2447 0.950 . S
C2473 C2472 1.414 . S
C2473 C2474 1.374 . S
C2474 H2448 0.950 . S
C2474 C2470 1.385 . S
C2474 C2473 1.374 . S
C2475 C2472 1.499 . S
C2475 C2476 1.373 1_556 S
C2475 C2477 1.389 . S
C2476 H2449 0.950 . S
C2476 C2462 1.377 . S
C2476 C2475 1.373 1_554 S
C2477 C2461 1.377 . S
C2477 C2475 1.389 . S
C2477 C2478 1.524 . S
C2478 C2477 1.524 . S
C2478 C2479 1.397 . S
C2478 C2483 1.363 . S
C2479 H2450 0.950 . S
C2479 C2478 1.397 . S
C2479 C2480 1.334 . S
C2480 H2451 0.950 . S
C2480 C2479 1.334 . S
C2480 C2481 1.287 . S
C2481 C2480 1.287 . S
C2481 C2482 1.524 . S
C2481 H2484 0.999 . S
C2482 H2452 0.950 . S
C2482 C2481 1.524 . S
C2482 C2483 1.415 . S
C2483 H2453 0.950 . S
C2483 C2478 1.363 . S
C2483 C2482 1.415 . S
H2484 C2481 0.999 . S
H2485 C2466 0.913 . S
H2486 C2504 0.951 . S
H2487 C2506 0.951 . S
H2488 C2508 0.950 . S
H2489 C2509 0.950 . S
H2490 C2511 0.950 . S
H2491 C2514 0.950 . S
H2492 C2515 0.950 . S
H2493 C2517 0.950 . S
H2494 C2518 0.950 . S
H2495 C2519 0.951 . S
H2496 C2521 0.951 . S
H2497 C2523 0.950 . S
H2498 C2524 0.950 . S
H2499 C2526 0.950 . S
H2500 C2529 0.950 . S
H2501 C2530 0.950 . S
H2502 C2532 0.950 . S
H2503 C2533 0.950 . S
C2504 H2486 0.951 . S
C2504 C2505 1.366 . S
C2504 C2506 1.388 . S
C2505 C2504 1.366 . S
C2505 C2509 1.385 . S
C2506 H2487 0.951 . S
C2506 C2504 1.388 . S
C2506 C2507 1.366 . S
C2507 C2506 1.366 . S
C2507 C2508 1.414 . S
C2507 C2510 1.499 . S
C2508 H2488 0.950 . S
C2508 C2507 1.414 . S
C2508 C2509 1.374 . S
C2509 H2489 0.950 . S
C2509 C2505 1.385 . S
C2509 C2508 1.374 . S
C2510 C2507 1.499 . S
C2510 C2511 1.373 . S
C2510 C2512 1.389 . S
C2511 H2490 0.950 . S
C2511 C2510 1.373 . S
C2511 C2527 1.377 . S
C2512 C2510 1.389 . S
C2512 C2513 1.524 . S
C2512 C2526 1.377 . S
C2513 C2512 1.524 . S
C2513 C2514 1.397 . S
C2513 C2518 1.363 . S
C2514 H2491 0.950 . S
C2514 C2513 1.397 . S
C2514 C2515 1.334 . S
C2515 H2492 0.950 . S
C2515 C2514 1.334 . S
C2515 C2516 1.287 . S
C2516 C2515 1.287 . S
C2516 C2517 1.524 . S
C2516 H2535 0.913 . S
C2517 H2493 0.950 . S
C2517 C2516 1.524 . S
C2517 C2518 1.415 . S
C2518 H2494 0.950 . S
C2518 C2513 1.363 . S
C2518 C2517 1.415 . S
C2519 H2495 0.951 . S
C2519 C2520 1.366 . S
C2519 C2521 1.388 . S
C2520 C2519 1.366 . S
C2520 C2524 1.385 . S
C2521 H2496 0.951 . S
C2521 C2519 1.388 . S
C2521 C2522 1.366 . S
C2522 C2521 1.366 . S
C2522 C2523 1.414 . S
C2522 C2525 1.499 . S
C2523 H2497 0.950 . S
C2523 C2522 1.414 . S
C2523 C2524 1.374 . S
C2524 H2498 0.950 . S
C2524 C2520 1.385 . S
C2524 C2523 1.374 . S
C2525 C2522 1.499 . S
C2525 C2526 1.373 . S
C2525 C2527 1.389 . S
C2526 H2499 0.950 . S
C2526 C2512 1.377 . S
C2526 C2525 1.373 . S
C2527 C2511 1.377 . S
C2527 C2525 1.389 . S
C2527 C2528 1.524 . S
C2528 C2527 1.524 . S
C2528 C2529 1.397 . S
C2528 C2533 1.363 . S
C2529 H2500 0.950 . S
C2529 C2528 1.397 . S
C2529 C2530 1.334 . S
C2530 H2501 0.950 . S
C2530 C2529 1.334 . S
C2530 C2531 1.287 . S
C2531 C2530 1.287 . S
C2531 C2532 1.524 . S
C2531 H2534 0.999 . S
C2532 H2502 0.950 . S
C2532 C2531 1.524 . S
C2532 C2533 1.415 . S
C2533 H2503 0.950 . S
C2533 C2528 1.363 . S
C2533 C2532 1.415 . S
H2534 C2531 0.999 . S
H2535 C2516 0.913 . S
H2536 C2554 0.951 . S
H2537 C2556 0.951 1_556 S
H2538 C2558 0.950 . S
H2539 C2559 0.950 . S
H2540 C2561 0.950 . S
H2541 C2564 0.950 . S
H2542 C2565 0.950 . S
H2543 C2567 0.950 . S
H2544 C2568 0.950 . S
H2545 C2569 0.951 . S
H2546 C2571 0.951 1_554 S
H2547 C2573 0.950 . S
H2548 C2574 0.950 . S
H2549 C2576 0.950 . S
H2550 C2579 0.950 . S
H2551 C2580 0.950 . S
H2552 C2582 0.950 . S
H2553 C2583 0.950 . S
C2554 H2536 0.951 . S
C2554 C2555 1.366 . S
C2554 C2556 1.388 . S
C2555 C2554 1.366 . S
C2555 C2559 1.385 . S
C2556 H2537 0.951 1_554 S
C2556 C2554 1.388 . S
C2556 C2557 1.366 . S
C2557 C2556 1.366 . S
C2557 C2558 1.414 . S
C2557 C2560 1.499 . S
C2558 H2538 0.950 . S
C2558 C2557 1.414 . S
C2558 C2559 1.374 . S
C2559 H2539 0.950 . S
C2559 C2555 1.385 . S
C2559 C2558 1.374 . S
C2560 C2557 1.499 . S
C2560 C2561 1.373 . S
C2560 C2562 1.389 1_554 S
C2561 H2540 0.950 . S
C2561 C2560 1.373 . S
C2561 C2577 1.377 . S
C2562 C2560 1.389 1_556 S
C2562 C2563 1.524 . S
C2562 C2576 1.377 . S
C2563 C2562 1.524 . S
C2563 C2564 1.397 1_556 S
C2563 C2568 1.363 . S
C2564 H2541 0.950 . S
C2564 C2563 1.397 1_554 S
C2564 C2565 1.334 . S
C2565 H2542 0.950 . S
C2565 C2564 1.334 . S
C2565 C2566 1.287 1_554 S
C2566 C2565 1.287 1_556 S
C2566 C2567 1.524 . S
C2566 H2585 0.913 . S
C2567 H2543 0.950 . S
C2567 C2566 1.524 . S
C2567 C2568 1.415 . S
C2568 H2544 0.950 . S
C2568 C2563 1.363 . S
C2568 C2567 1.415 . S
C2569 H2545 0.951 . S
C2569 C2570 1.366 . S
C2569 C2571 1.388 . S
C2570 C2569 1.366 . S
C2570 C2574 1.385 . S
C2571 H2546 0.951 1_556 S
C2571 C2569 1.388 . S
C2571 C2572 1.366 . S
C2572 C2571 1.366 . S
C2572 C2573 1.414 . S
C2572 C2575 1.499 . S
C2573 H2547 0.950 . S
C2573 C2572 1.414 . S
C2573 C2574 1.374 . S
C2574 H2548 0.950 . S
C2574 C2570 1.385 . S
C2574 C2573 1.374 . S
C2575 C2572 1.499 . S
C2575 C2576 1.373 . S
C2575 C2577 1.389 1_556 S
C2576 H2549 0.950 . S
C2576 C2562 1.377 . S
C2576 C2575 1.373 . S
C2577 C2561 1.377 . S
C2577 C2575 1.389 1_554 S
C2577 C2578 1.524 . S
C2578 C2577 1.524 . S
C2578 C2579 1.397 1_554 S
C2578 C2583 1.363 . S
C2579 H2550 0.950 . S
C2579 C2578 1.397 1_556 S
C2579 C2580 1.334 . S
C2580 H2551 0.950 . S
C2580 C2579 1.334 . S
C2580 C2581 1.287 1_556 S
C2581 C2580 1.287 1_554 S
C2581 C2582 1.524 . S
C2581 H2584 0.999 . S
C2582 H2552 0.950 . S
C2582 C2581 1.524 . S
C2582 C2583 1.415 . S
C2583 H2553 0.950 . S
C2583 C2578 1.363 . S
C2583 C2582 1.415 . S
H2584 C2581 0.999 . S
H2585 C2566 0.913 . S
H2586 C2604 0.951 . S
H2587 C2606 0.951 . S
H2588 C2608 0.950 . S
H2589 C2609 0.950 . S
H2590 C2611 0.950 . S
H2591 C2614 0.950 . S
H2592 C2615 0.950 . S
H2593 C2617 0.950 . S
H2594 C2618 0.950 . S
H2595 C2619 0.951 . S
H2596 C2621 0.951 . S
H2597 C2623 0.950 . S
H2598 C2624 0.950 . S
H2599 C2626 0.950 . S
H2600 C2629 0.950 . S
H2601 C2630 0.950 . S
H2602 C2632 0.950 . S
H2603 C2633 0.950 . S
C2604 H2586 0.951 . S
C2604 C2605 1.366 . S
C2604 C2606 1.388 . S
C2605 C2604 1.366 . S
C2605 C2609 1.385 . S
C2606 H2587 0.951 . S
C2606 C2604 1.388 . S
C2606 C2607 1.366 . S
C2607 C2606 1.366 . S
C2607 C2608 1.414 . S
C2607 C2610 1.499 . S
C2608 H2588 0.950 . S
C2608 C2607 1.414 . S
C2608 C2609 1.374 . S
C2609 H2589 0.950 . S
C2609 C2605 1.385 . S
C2609 C2608 1.374 . S
C2610 C2607 1.499 . S
C2610 C2611 1.373 . S
C2610 C2612 1.389 . S
C2611 H2590 0.950 . S
C2611 C2610 1.373 . S
C2611 C2627 1.377 . S
C2612 C2610 1.389 . S
C2612 C2613 1.524 . S
C2612 C2626 1.377 . S
C2613 C2612 1.524 . S
C2613 C2614 1.397 . S
C2613 C2618 1.363 . S
C2614 H2591 0.950 . S
C2614 C2613 1.397 . S
C2614 C2615 1.334 . S
C2615 H2592 0.950 . S
C2615 C2614 1.334 . S
C2615 C2616 1.287 . S
C2616 C2615 1.287 . S
C2616 C2617 1.524 . S
C2616 H2635 0.913 . S
C2617 H2593 0.950 . S
C2617 C2616 1.524 . S
C2617 C2618 1.415 . S
C2618 H2594 0.950 . S
C2618 C2613 1.363 . S
C2618 C2617 1.415 . S
C2619 H2595 0.951 . S
C2619 C2620 1.366 . S
C2619 C2621 1.388 . S
C2620 C2619 1.366 . S
C2620 C2624 1.385 . S
C2621 H2596 0.951 . S
C2621 C2619 1.388 . S
C2621 C2622 1.366 . S
C2622 C2621 1.366 . S
C2622 C2623 1.414 . S
C2622 C2625 1.499 . S
C2623 H2597 0.950 . S
C2623 C2622 1.414 . S
C2623 C2624 1.374 . S
C2624 H2598 0.950 . S
C2624 C2620 1.385 . S
C2624 C2623 1.374 . S
C2625 C2622 1.499 . S
C2625 C2626 1.373 . S
C2625 C2627 1.389 . S
C2626 H2599 0.950 . S
C2626 C2612 1.377 . S
C2626 C2625 1.373 . S
C2627 C2611 1.377 . S
C2627 C2625 1.389 . S
C2627 C2628 1.524 . S
C2628 C2627 1.524 . S
C2628 C2629 1.397 . S
C2628 C2633 1.363 . S
C2629 H2600 0.950 . S
C2629 C2628 1.397 . S
C2629 C2630 1.334 . S
C2630 H2601 0.950 . S
C2630 C2629 1.334 . S
C2630 C2631 1.287 . S
C2631 C2630 1.287 . S
C2631 C2632 1.524 . S
C2631 H2634 0.999 . S
C2632 H2602 0.950 . S
C2632 C2631 1.524 . S
C2632 C2633 1.415 . S
C2633 H2603 0.950 . S
C2633 C2628 1.363 . S
C2633 C2632 1.415 . S
H2634 C2631 0.999 . S
H2635 C2616 0.913 . S
H2636 C2654 0.951 . S
H2637 C2656 0.951 . S
H2638 C2658 0.950 1_554 S
H2639 C2659 0.950 . S
H2640 C2661 0.950 . S
H2641 C2664 0.950 . S
H2642 C2665 0.950 . S
H2643 C2667 0.950 . S
H2644 C2668 0.950 . S
H2645 C2669 0.951 . S
H2646 C2671 0.951 . S
H2647 C2673 0.950 1_556 S
H2648 C2674 0.950 . S
H2649 C2676 0.950 . S
H2650 C2679 0.950 . S
H2651 C2680 0.950 . S
H2652 C2682 0.950 . S
H2653 C2683 0.950 . S
C2654 H2636 0.951 . S
C2654 C2655 1.366 . S
C2654 C2656 1.388 . S
C2655 C2654 1.366 . S
C2655 C2659 1.385 . S
C2656 H2637 0.951 . S
C2656 C2654 1.388 . S
C2656 C2657 1.366 . S
C2657 C2656 1.366 . S
C2657 C2658 1.414 . S
C2657 C2660 1.499 . S
C2658 H2638 0.950 1_556 S
C2658 C2657 1.414 . S
C2658 C2659 1.374 . S
C2659 H2639 0.950 . S
C2659 C2655 1.385 . S
C2659 C2658 1.374 . S
C2660 C2657 1.499 . S
C2660 C2661 1.373 1_556 S
C2660 C2662 1.389 . S
C2661 H2640 0.950 . S
C2661 C2660 1.373 1_554 S
C2661 C2677 1.377 . S
C2662 C2660 1.389 . S
C2662 C2663 1.524 . S
C2662 C2676 1.377 . S
C2663 C2662 1.524 . S
C2663 C2664 1.397 . S
C2663 C2668 1.363 . S
C2664 H2641 0.950 . S
C2664 C2663 1.397 . S
C2664 C2665 1.334 . S
C2665 H2642 0.950 . S
C2665 C2664 1.334 . S
C2665 C2666 1.287 . S
C2666 C2665 1.287 . S
C2666 C2667 1.524 . S
C2666 H2685 0.913 . S
C2667 H2643 0.950 . S
C2667 C2666 1.524 . S
C2667 C2668 1.415 . S
C2668 H2644 0.950 . S
C2668 C2663 1.363 . S
C2668 C2667 1.415 . S
C2669 H2645 0.951 . S
C2669 C2670 1.366 . S
C2669 C2671 1.388 . S
C2670 C2669 1.366 . S
C2670 C2674 1.385 . S
C2671 H2646 0.951 . S
C2671 C2669 1.388 . S
C2671 C2672 1.366 . S
C2672 C2671 1.366 . S
C2672 C2673 1.414 . S
C2672 C2675 1.499 . S
C2673 H2647 0.950 1_554 S
C2673 C2672 1.414 . S
C2673 C2674 1.374 . S
C2674 H2648 0.950 . S
C2674 C2670 1.385 . S
C2674 C2673 1.374 . S
C2675 C2672 1.499 . S
C2675 C2676 1.373 1_554 S
C2675 C2677 1.389 . S
C2676 H2649 0.950 . S
C2676 C2662 1.377 . S
C2676 C2675 1.373 1_556 S
C2677 C2661 1.377 . S
C2677 C2675 1.389 . S
C2677 C2678 1.524 . S
C2678 C2677 1.524 . S
C2678 C2679 1.397 . S
C2678 C2683 1.363 . S
C2679 H2650 0.950 . S
C2679 C2678 1.397 . S
C2679 C2680 1.334 . S
C2680 H2651 0.950 . S
C2680 C2679 1.334 . S
C2680 C2681 1.287 . S
C2681 C2680 1.287 . S
C2681 C2682 1.524 . S
C2681 H2684 0.999 . S
C2682 H2652 0.950 . S
C2682 C2681 1.524 . S
C2682 C2683 1.415 . S
C2683 H2653 0.950 . S
C2683 C2678 1.363 . S
C2683 C2682 1.415 . S
H2684 C2681 0.999 . S
H2685 C2666 0.913 . S
H2686 C2704 0.951 . S
H2687 C2706 0.951 . S
H2688 C2708 0.950 . S
H2689 C2709 0.950 . S
H2690 C2711 0.950 . S
H2691 C2714 0.950 . S
H2692 C2715 0.950 . S
H2693 C2717 0.950 . S
H2694 C2718 0.950 . S
H2695 C2719 0.951 . S
H2696 C2721 0.951 . S
H2697 C2723 0.950 . S
H2698 C2724 0.950 . S
H2699 C2726 0.950 . S
H2700 C2729 0.950 . S
H2701 C2730 0.950 . S
H2702 C2732 0.950 . S
H2703 C2733 0.950 . S
C2704 H2686 0.951 . S
C2704 C2705 1.366 . S
C2704 C2706 1.388 . S
C2705 C2704 1.366 . S
C2705 C2709 1.385 . S
C2706 H2687 0.951 . S
C2706 C2704 1.388 . S
C2706 C2707 1.366 . S
C2707 C2706 1.366 . S
C2707 C2708 1.414 . S
C2707 C2710 1.499 . S
C2708 H2688 0.950 . S
C2708 C2707 1.414 . S
C2708 C2709 1.374 . S
C2709 H2689 0.950 . S
C2709 C2705 1.385 . S
C2709 C2708 1.374 . S
C2710 C2707 1.499 . S
C2710 C2711 1.373 . S
C2710 C2712 1.389 . S
C2711 H2690 0.950 . S
C2711 C2710 1.373 . S
C2711 C2727 1.377 . S
C2712 C2710 1.389 . S
C2712 C2713 1.524 . S
C2712 C2726 1.377 . S
C2713 C2712 1.524 . S
C2713 C2714 1.397 . S
C2713 C2718 1.363 . S
C2714 H2691 0.950 . S
C2714 C2713 1.397 . S
C2714 C2715 1.334 . S
C2715 H2692 0.950 . S
C2715 C2714 1.334 . S
C2715 C2716 1.287 . S
C2716 C2715 1.287 . S
C2716 C2717 1.524 . S
C2716 H2735 0.913 . S
C2717 H2693 0.950 . S
C2717 C2716 1.524 . S
C2717 C2718 1.415 . S
C2718 H2694 0.950 . S
C2718 C2713 1.363 . S
C2718 C2717 1.415 . S
C2719 H2695 0.951 . S
C2719 C2720 1.366 . S
C2719 C2721 1.388 . S
C2720 C2719 1.366 . S
C2720 C2724 1.385 . S
C2721 H2696 0.951 . S
C2721 C2719 1.388 . S
C2721 C2722 1.366 . S
C2722 C2721 1.366 . S
C2722 C2723 1.414 . S
C2722 C2725 1.499 . S
C2723 H2697 0.950 . S
C2723 C2722 1.414 . S
C2723 C2724 1.374 . S
C2724 H2698 0.950 . S
C2724 C2720 1.385 . S
C2724 C2723 1.374 . S
C2725 C2722 1.499 . S
C2725 C2726 1.373 . S
C2725 C2727 1.389 . S
C2726 H2699 0.950 . S
C2726 C2712 1.377 . S
C2726 C2725 1.373 . S
C2727 C2711 1.377 . S
C2727 C2725 1.389 . S
C2727 C2728 1.524 . S
C2728 C2727 1.524 . S
C2728 C2729 1.397 . S
C2728 C2733 1.363 . S
C2729 H2700 0.950 . S
C2729 C2728 1.397 . S
C2729 C2730 1.334 . S
C2730 H2701 0.950 . S
C2730 C2729 1.334 . S
C2730 C2731 1.287 . S
C2731 C2730 1.287 . S
C2731 C2732 1.524 . S
C2731 H2734 0.999 . S
C2732 H2702 0.950 . S
C2732 C2731 1.524 . S
C2732 C2733 1.415 . S
C2733 H2703 0.950 . S
C2733 C2728 1.363 . S
C2733 C2732 1.415 . S
H2734 C2731 0.999 . S
H2735 C2716 0.913 . S
C355 C7 1.499 . S
C370 C217 1.499 . S
C405 C21 1.499 . S
C420 C231 1.499 . S
C455 C245 1.499 . S
C470 C35 1.499 . S
C505 C175 1.499 . S
C520 C49 1.499 . S
C555 C189 1.499 . S
C570 C63 1.499 . S
C605 C203 1.499 . S
C620 C77 1.499 . S
C655 C301 1.499 . S
C670 C91 1.498 . S
C705 C105 1.499 . S
C720 C315 1.499 . S
C755 C329 1.499 . S
C770 C119 1.499 . S
C805 C133 1.499 . S
C820 C259 1.498 . S
C855 C273 1.499 . S
C870 C147 1.499 . S
C905 C161 1.499 . S
C920 C287 1.499 . S
C955 C151 1.096 . S
C970 C11 1.096 . S
C1005 C165 1.096 . S
C1020 C25 1.096 . S
C1055 C39 1.096 . S
C1070 C95 1.096 . S
C1105 C53 1.096 . S
C1120 C109 1.097 . S
C1155 C123 1.096 . S
C1170 C67 1.097 . S
C1205 C81 1.097 . S
C1220 C137 1.096 . S
C1255 C319 1.096 . S
C1270 C179 1.097 . S
C1305 C193 1.097 . S
C1320 C333 1.097 . S
C1355 C207 1.097 . S
C1370 C263 1.097 . S
C1405 C277 1.097 . S
C1420 C221 1.096 . S
C1455 C235 1.096 . S
C1470 C291 1.096 . S
C1505 C249 1.097 . S
C1520 C305 1.097 . S
C1555 C8 0.979 . S
C1570 C260 0.978 . S
C1605 C274 0.979 . S
C1620 C22 0.977 . S
C1655 C36 0.977 . S
C1670 C288 0.979 . S
C1705 C50 0.979 . S
C1720 C302 0.978 . S
C1755 C316 0.978 . S
C1770 C64 0.979 . S
C1805 C78 0.978 . S
C1820 C330 0.979 . S
C1855 C92 0.978 . S
C1870 C176 0.978 . S
C1905 C106 0.977 . S
C1920 C190 0.979 . S
C1955 C204 0.977 . S
C1970 C120 0.979 . S
C2005 C218 0.979 . S
C2020 C134 0.978 . S
C2055 C148 0.979 . S
C2070 C232 0.978 . S
C2105 C246 0.977 . S
C2120 C162 0.979 . S
C2155 C97 1.489 . S
C2170 C13 1.489 . S
C2205 C27 1.489 . S
C2220 C111 1.490 . S
C2255 C125 1.490 . S
C2270 C41 1.491 . S
C2305 C139 1.489 . S
C2320 C55 1.490 . S
C2355 C153 1.490 . S
C2370 C69 1.491 . S
C2405 C83 1.489 . S
C2420 C167 1.490 . S
C2455 C265 1.490 . S
C2470 C181 1.490 . S
C2505 C195 1.489 . S
C2520 C279 1.489 . S
C2555 C293 1.489 . S
C2570 C209 1.490 . S
C2605 C307 1.490 . S
C2620 C223 1.489 . S
C2655 C237 1.491 . S
C2670 C321 1.490 . S
C2705 C251 1.489 . S
C2720 C335 1.490 . S
