# Generated by pormake.
# Topology wjt, (5)-cn, num edge types: 1
# Building blocks:
#     Node 0, Type 0, BuildingBlock: BEQFEK_clean_sbu_0, # of connection points: 5
#     Node 1, Type 0, BuildingBlock: BEQFEK_clean_sbu_0, # of connection points: 5
#     Node 2, Type 0, BuildingBlock: BEQFEK_clean_sbu_0, # of connection points: 5
#     Node 3, Type 0, BuildingBlock: BEQFEK_clean_sbu_0, # of connection points: 5
#     Node 4, Type 0, BuildingBlock: BEQFEK_clean_sbu_0, # of connection points: 5
#     Node 5, Type 0, BuildingBlock: BEQFEK_clean_sbu_0, # of connection points: 5
#     Node 6, Type 0, BuildingBlock: BEQFEK_clean_sbu_0, # of connection points: 5
#     Node 7, Type 0, BuildingBlock: BEQFEK_clean_sbu_0, # of connection points: 5
#     Node 8, Type 0, BuildingBlock: BEQFEK_clean_sbu_0, # of connection points: 5
#     Node 9, Type 0, BuildingBlock: BEQFEK_clean_sbu_0, # of connection points: 5
#     Node 10, Type 0, BuildingBlock: BEQFEK_clean_sbu_0, # of connection points: 5
#     Node 11, Type 0, BuildingBlock: BEQFEK_clean_sbu_0, # of connection points: 5
#     Edge 12, Type (0, 0), None
#     Edge 13, Type (0, 0), None
#     Edge 14, Type (0, 0), None
#     Edge 15, Type (0, 0), None
#     Edge 16, Type (0, 0), None
#     Edge 17, Type (0, 0), None
#     Edge 18, Type (0, 0), None
#     Edge 19, Type (0, 0), None
#     Edge 20, Type (0, 0), None
#     Edge 21, Type (0, 0), None
#     Edge 22, Type (0, 0), None
#     Edge 23, Type (0, 0), None
#     Edge 24, Type (0, 0), None
#     Edge 25, Type (0, 0), None
#     Edge 26, Type (0, 0), None
#     Edge 27, Type (0, 0), None
#     Edge 28, Type (0, 0), None
#     Edge 29, Type (0, 0), None
#     Edge 30, Type (0, 0), None
#     Edge 31, Type (0, 0), None
#     Edge 32, Type (0, 0), None
#     Edge 33, Type (0, 0), None
#     Edge 34, Type (0, 0), None
#     Edge 35, Type (0, 0), None
#     Edge 36, Type (0, 0), None
#     Edge 37, Type (0, 0), None
#     Edge 38, Type (0, 0), None
#     Edge 39, Type (0, 0), None
#     Edge 40, Type (0, 0), None
#     Edge 41, Type (0, 0), None
# Relax obj value: 0.424
# Max RMSD: 0.224
# Mean RMSD: 0.224
data_MOF--net-wjt--node1-BEQFEK_clean_sbu_0--edge1-none
_symmetry_space_group_name_H-M    P1
_symmetry_Int_Tables_number       1
_symmetry_cell_setting            triclinic
loop_
_symmetry_equiv_pos_as_xyz
'x, y, z'
_cell_length_a     32.239404
_cell_length_b     32.554073
_cell_length_c     9.6925842
_cell_angle_alpha  90.003578
_cell_angle_beta   89.99897
_cell_angle_gamma 118.45357
loop_
_atom_site_label
_atom_site_type_symbol
_atom_site_fract_x
_atom_site_fract_y
_atom_site_fract_z
_atom_type_partial_charge
Co0 Co 0.30688 0.42501 0.40074 0.0
Co1 Co 0.35886 0.44493 0.1149 0.0
C2 C 0.36972 0.38577 0.34272 0.0
O3 O 0.34235 0.39189 0.42113 0.0
O4 O 0.377 0.40155 0.21968 0.0
C5 C 0.27557 0.3737 0.65126 0.0
O6 O 0.24292 0.33328 0.69776 0.0
C7 C 0.32623 0.39242 0.86837 0.0
C8 C 0.35774 0.44276 0.69884 0.0
C9 C 0.32051 0.39906 0.72937 0.0
N10 N 0.36261 0.43146 0.91996 0.0
N11 N 0.38293 0.46036 0.81581 0.0
C12 C 0.29241 0.35254 0.95658 0.0
H13 H 0.25841 0.35306 0.96545 0.0
H14 H 0.28439 0.31882 0.90773 0.0
H15 H 0.307 0.35416 0.06103 0.0
C16 C 0.22622 0.40654 0.20644 0.0
N17 N 0.27105 0.41606 0.23367 0.0
N18 N 0.29595 0.43384 0.12219 0.0
C19 C 0.26905 0.43984 1.02517 0.0
C20 C 0.22295 0.42045 0.07147 0.0
C21 C 0.18772 0.38555 0.30898 0.0
H22 H 0.19003 0.3571 0.36579 0.0
H23 H 0.15367 0.37172 0.2545 0.0
H24 H 0.19172 0.41274 0.38462 0.0
O25 O 0.35706 0.49191 0.41539 0.0
O26 O 0.39564 0.50749 0.21127 0.0
H27 H 0.27225 0.49586 0.90121 0.0
H28 H 0.27987 0.45288 0.8079 0.0
C29 C 0.28865 0.47266 0.90564 0.0
H30 H 0.32742 0.49444 0.91526 0.0
H31 H 0.41144 0.49348 0.82573 0.0
O32 O 0.26435 0.39319 0.5544 0.0
C33 C 0.39009 0.51959 0.33417 0.0
Co34 Co 0.85291 0.30907 0.7309 0.0
Co35 Co 0.8837 0.3597 0.44462 0.0
C36 C 0.95259 0.36093 0.66659 0.0
O37 O 0.9195 0.33542 0.74511 0.0
O38 O 0.94448 0.3716 0.54633 0.0
C39 C 0.87044 0.27873 0.98418 0.0
O40 O 0.87928 0.24637 0.03512 0.0
C41 C 0.90686 0.33373 0.1895 0.0
C42 C 0.87128 0.3555 0.03541 0.0
C43 C 0.88866 0.32444 0.05602 0.0
N44 N 0.89748 0.36603 0.24786 0.0
N45 N 0.8778 0.38024 0.15251 0.0
C46 C 0.92312 0.30486 0.27073 0.0
H47 H 0.89242 0.27484 0.31867 0.0
H48 H 0.94139 0.29116 0.2033 0.0
H49 H 0.94792 0.32604 0.35262 0.0
C50 C 0.79209 0.22978 0.53923 0.0
N51 N 0.82531 0.27414 0.56525 0.0
N52 N 0.83195 0.29845 0.45237 0.0
C53 C 0.80024 0.27147 0.3556 0.0
C54 C 0.77553 0.22614 0.40376 0.0
C55 C 0.77619 0.19199 0.64301 0.0
H56 H 0.80692 0.19422 0.70073 0.0
H57 H 0.75762 0.15813 0.58929 0.0
H58 H 0.75257 0.19642 0.71761 0.0
O59 O 0.8438 0.36582 0.75044 0.0
O60 O 0.86426 0.40187 0.54408 0.0
H61 H 0.74403 0.27238 0.23915 0.0
H62 H 0.79451 0.28286 0.14059 0.0
C63 C 0.78321 0.29028 0.24075 0.0
H64 H 0.79585 0.32813 0.25444 0.0
H65 H 0.86035 0.39944 0.17294 0.0
O66 O 0.84006 0.2672 0.88743 0.0
C67 C 0.85102 0.39994 0.67034 0.0
Co68 Co 0.53955 0.86148 0.06298 0.0
Co69 Co 0.51906 0.89582 0.77835 0.0
C70 C 0.57997 0.96124 1.0078 0.0
O71 O 0.57367 0.92782 0.08417 0.0
O72 O 0.56351 0.95426 0.88533 0.0
C73 C 0.59005 0.87671 0.3191 0.0
O74 O 0.62901 0.87997 0.37184 0.0
C75 C 0.57208 0.91192 0.53212 0.0
C76 C 0.52181 0.8953 0.36137 0.0
C77 C 0.56532 0.89885 0.39376 0.0
N78 N 0.53313 0.91221 0.5821 0.0
N79 N 0.50436 0.90493 0.47677 0.0
C80 C 0.61214 0.91667 0.62158 0.0
H81 H 0.61107 0.88232 0.63377 0.0
H82 H 0.64623 0.94037 0.57181 0.0
H83 H 0.61069 0.93054 0.72468 0.0
C84 C 0.55353 0.79759 0.86377 0.0
N85 N 0.54693 0.83464 0.89328 0.0
N86 N 0.52876 0.84342 0.784 0.0
C87 C 0.51961 0.8103 0.68685 0.0
C88 C 0.5371 0.78113 0.73025 0.0
C89 C 0.57344 0.77739 0.96366 0.0
H90 H 0.6042 0.80572 1.01721 0.0
H91 H 0.58421 0.75444 0.90773 0.0
H92 H 0.54623 0.7577 0.04234 0.0
O93 O 0.47258 0.84838 0.08007 0.0
O94 O 0.45627 0.8726 0.87792 0.0
H95 H 0.45945 0.7616 0.57094 0.0
H96 H 0.50328 0.80796 0.47172 0.0
C97 C 0.48484 0.79956 0.57213 0.0
H98 H 0.46498 0.81927 0.58493 0.0
H99 H 0.47126 0.90263 0.48476 0.0
O100 O 0.57186 0.84935 0.21603 0.0
C101 C 0.44451 0.85516 1.00069 0.0
Co102 Co 0.65559 0.53346 0.40077 0.0
Co103 Co 0.60362 0.51351 0.11491 0.0
C104 C 0.59274 0.57268 0.3427 0.0
O105 O 0.62012 0.56658 0.42113 0.0
O106 O 0.58547 0.55689 0.21968 0.0
C107 C 0.68687 0.58478 0.65126 0.0
O108 O 0.71951 0.62522 0.69773 0.0
C109 C 0.63623 0.56603 0.86841 0.0
C110 C 0.60473 0.5157 0.69884 0.0
C111 C 0.64195 0.55941 0.7294 0.0
N112 N 0.59986 0.52698 0.91998 0.0
N113 N 0.57955 0.49809 0.81581 0.0
C114 C 0.67005 0.60592 0.95663 0.0
H115 H 0.70405 0.60541 0.96547 0.0
H116 H 0.67806 0.63963 0.90782 0.0
H117 H 0.65546 0.60429 0.0611 0.0
C118 C 0.73627 0.552 0.20648 0.0
N119 N 0.69143 0.54243 0.23372 0.0
N120 N 0.66653 0.52463 0.12222 0.0
C121 C 0.69346 0.51867 1.0252 0.0
C122 C 0.73957 0.53811 0.0715 0.0
C123 C 0.77477 0.57304 0.30902 0.0
H124 H 0.77241 0.60145 0.36584 0.0
H125 H 0.80883 0.58691 0.25453 0.0
H126 H 0.77082 0.54586 0.38465 0.0
O127 O 0.60541 0.46656 0.41542 0.0
O128 O 0.56683 0.45096 0.21129 0.0
H129 H 0.69033 0.46269 0.90114 0.0
H130 H 0.68266 0.50566 0.8079 0.0
C131 C 0.67389 0.48586 0.90561 0.0
H132 H 0.63512 0.46405 0.9152 0.0
H133 H 0.55104 0.46496 0.8257 0.0
O134 O 0.69812 0.56529 0.55444 0.0
C135 C 0.57237 0.43888 0.3342 0.0
Co136 Co 0.10968 0.64964 0.73081 0.0
Co137 Co 0.07886 0.59899 0.44452 0.0
C138 C 0.00999 0.59779 0.66651 0.0
O139 O 0.04309 0.62329 0.74501 0.0
O140 O 0.01809 0.5871 0.54625 0.0
C141 C 0.09216 0.68002 0.98415 0.0
O142 O 0.08337 0.7124 0.03519 0.0
C143 C 0.05573 0.62501 0.18943 0.0
C144 C 0.09126 0.60321 0.03525 0.0
C145 C 0.07392 0.6343 0.05594 0.0
N146 N 0.06509 0.59268 0.24773 0.0
N147 N 0.08474 0.57846 0.15232 0.0
C148 C 0.0395 0.65389 0.27071 0.0
H149 H 0.07022 0.68392 0.31861 0.0
H150 H 0.02122 0.6676 0.20333 0.0
H151 H 0.01471 0.63273 0.35264 0.0
C152 C 0.17055 0.72889 0.53911 0.0
N153 N 0.1373 0.68455 0.56514 0.0
N154 N 0.13064 0.66023 0.45228 0.0
C155 C 0.16237 0.68717 0.35552 0.0
C156 C 0.18712 0.73251 0.40366 0.0
C157 C 0.18648 0.7667 0.64286 0.0
H158 H 0.15577 0.76452 0.70055 0.0
H159 H 0.2051 0.80055 0.58914 0.0
H160 H 0.21008 0.76223 0.71751 0.0
O161 O 0.11878 0.59289 0.75036 0.0
O162 O 0.0983 0.55682 0.54401 0.0
H163 H 0.21854 0.68619 0.2391 0.0
H164 H 0.16808 0.67574 0.14053 0.0
C165 C 0.17937 0.66832 0.2407 0.0
H166 H 0.16669 0.63046 0.25443 0.0
H167 H 0.10217 0.55924 0.17268 0.0
O168 O 0.12252 0.69153 0.88732 0.0
C169 C 0.11155 0.55875 0.67026 0.0
Co170 Co 0.42319 0.09707 0.06301 0.0
Co171 Co 0.44369 0.06275 0.77836 0.0
C172 C 0.38278 -0.00268 1.00777 0.0
O173 O 0.38907 0.03073 0.08417 0.0
O174 O 0.39924 0.0043 0.8853 0.0
C175 C 0.37266 0.08181 0.31908 0.0
O176 O 0.33368 0.07851 0.37177 0.0
C177 C 0.39066 0.04664 0.53213 0.0
C178 C 0.44093 0.06325 0.36137 0.0
C179 C 0.39741 0.05969 0.39376 0.0
N180 N 0.42962 0.04636 0.5821 0.0
N181 N 0.45839 0.05365 0.47677 0.0
C182 C 0.3506 0.04189 0.62159 0.0
H183 H 0.35166 0.07624 0.63374 0.0
H184 H 0.31651 0.01818 0.57185 0.0
H185 H 0.35206 0.02804 0.72471 0.0
C186 C 0.40916 0.16094 0.86384 0.0
N187 N 0.4158 0.12392 0.89333 0.0
N188 N 0.43397 0.11515 0.78404 0.0
C189 C 0.44309 0.14825 0.68689 0.0
C190 C 0.42557 0.1774 0.7303 0.0
C191 C 0.38924 0.18112 0.96376 0.0
H192 H 0.3585 0.15278 1.01735 0.0
H193 H 0.37843 0.20405 0.90784 0.0
H194 H 0.41645 0.20085 0.0424 0.0
O195 O 0.49015 0.11017 0.08011 0.0
O196 O 0.50647 0.08597 0.87794 0.0
H197 H 0.50321 0.19698 0.5709 0.0
H198 H 0.45939 0.15059 0.47173 0.0
C199 C 0.47784 0.15901 0.57212 0.0
H200 H 0.49773 0.13933 0.58488 0.0
H201 H 0.49149 0.05595 0.48475 0.0
O202 O 0.39086 0.10919 0.21607 0.0
C203 C 0.51822 0.1034 1.00074 0.0
Co204 Co 0.52039 0.65063 0.33278 0.0
Co205 Co 0.50054 0.60093 0.61887 0.0
C206 C 0.56673 0.59568 0.39858 0.0
O207 O 0.55961 0.62191 0.31902 0.0
O208 O 0.54819 0.58599 0.51881 0.0
C209 C 0.56689 0.67804 0.08282 0.0
O210 O 0.60903 0.70801 0.03841 0.0
C211 C 0.54787 0.62366 0.87487 0.0
C212 C 0.49095 0.60487 1.02645 0.0
C213 C 0.53893 0.63332 1.00818 0.0
N214 N 0.50677 0.59356 0.81476 0.0
N215 N 0.47304 0.58113 0.90828 0.0
C216 C 0.59261 0.65087 0.795 0.0
H217 H 0.5926 0.68156 0.74559 0.0
H218 H 0.62373 0.66349 0.86322 0.0
H219 H 0.59619 0.62881 0.71433 0.0
C220 C 0.54297 0.7325 0.52173 0.0
N221 N 0.52906 0.68698 0.49662 0.0
N222 N 0.51141 0.66364 0.61045 0.0
C223 C 0.50955 0.6928 0.70737 0.0
C224 C 0.53195 0.7381 0.6578 0.0
C225 C 0.56645 0.76968 0.41732 0.0
H226 H 0.5926 0.76371 0.35831 0.0
H227 H 0.58413 0.80368 0.47059 0.0
H228 H 0.53956 0.76856 0.34389 0.0
O229 O 0.45537 0.59557 0.31414 0.0
O230 O 0.43983 0.56028 0.52138 0.0
H231 H 0.45642 0.69819 0.82737 0.0
H232 H 0.49448 0.68378 0.92364 0.0
C233 C 0.47538 0.67729 0.82485 0.0
H234 H 0.44888 0.64007 0.8136 0.0
H235 H 0.43715 0.56428 0.88564 0.0
O236 O 0.54785 0.69148 0.1752 0.0
C237 C 0.42875 0.56218 0.39497 0.0
Co238 Co 0.86157 0.53722 0.66732 0.0
Co239 Co 0.89481 0.51684 0.95301 0.0
C240 C 0.96217 0.57597 0.72446 0.0
O241 O 0.92879 0.57015 0.64699 0.0
O242 O 0.9545 0.56004 0.84734 0.0
C243 C 0.87911 0.58842 0.41471 0.0
O244 O 0.88439 0.62818 0.36543 0.0
C245 C 0.91249 0.56954 0.19919 0.0
C246 C 0.89549 0.51957 0.36965 0.0
C247 C 0.90009 0.56311 0.33807 0.0
N248 N 0.91156 0.5305 0.14849 0.0
N249 N 0.90406 0.50185 0.25339 0.0
C250 C 0.9174 0.60937 0.11023 0.0
H251 H 0.88298 0.60903 0.10068 0.0
H252 H 0.94211 0.64307 0.15886 0.0
H253 H 0.93046 0.60748 1.00606 0.0
C254 C 0.79782 0.55373 0.86294 0.0
N255 N 0.83426 0.54544 0.83533 0.0
N256 N 0.84247 0.5277 0.94626 0.0
C257 C 0.80944 0.5206 0.0432 0.0
C258 C 0.78108 0.539 0.99743 0.0
C259 C 0.77872 0.57406 0.76081 0.0
H260 H 0.80801 0.60332 0.70529 0.0
H261 H 0.75687 0.5866 0.81531 0.0
H262 H 0.75753 0.54684 0.68403 0.0
O263 O 0.84755 0.4705 0.65128 0.0
O264 O 0.87116 0.45445 0.85491 0.0
H265 H 0.75931 0.46358 0.1656 0.0
H266 H 0.80791 0.50674 0.25986 0.0
C267 C 0.79794 0.48734 0.16143 0.0
H268 H 0.81632 0.46613 0.15044 0.0
H269 H 0.90094 0.46879 0.24463 0.0
O270 O 0.85008 0.56968 0.51426 0.0
C271 C 0.85397 0.44268 0.73181 0.0
Co272 Co 0.30847 0.85156 1.00405 0.0
Co273 Co 0.36025 0.88288 0.2901 0.0
C274 C 0.36033 0.95024 0.06729 0.0
O275 O 0.33419 0.91731 0.98982 0.0
O276 O 0.37163 0.94253 0.18721 0.0
C277 C 0.27697 0.8679 0.74911 0.0
O278 O 0.24357 0.87514 0.69601 0.0
C279 C 0.33258 0.90488 0.54442 0.0
C280 C 0.35591 0.87129 0.70003 0.0
C281 C 0.32341 0.887 0.67811 0.0
N282 N 0.36618 0.89683 0.48707 0.0
N283 N 0.38133 0.8784 0.58346 0.0
C284 C 0.30265 0.9198 0.46232 0.0
H285 H 0.27226 0.88877 0.41707 0.0
H286 H 0.28885 0.93819 0.52884 0.0
H287 H 0.32337 0.94372 0.37834 0.0
C288 C 0.22971 0.78965 0.19715 0.0
N289 N 0.27393 0.8237 0.17048 0.0
N290 N 0.29897 0.83086 0.28261 0.0
C291 C 0.27278 0.79883 0.37929 0.0
C292 C 0.22704 0.77307 0.33203 0.0
C293 C 0.1912 0.77289 0.09435 0.0
H294 H 0.19215 0.80292 0.03749 0.0
H295 H 0.15723 0.75344 0.14871 0.0
H296 H 0.19655 0.75029 1.01885 0.0
O297 O 0.36654 0.84398 0.98375 0.0
O298 O 0.40328 0.86447 0.18983 0.0
H299 H 0.27643 0.74428 0.49435 0.0
H300 H 0.28529 0.79359 0.59379 0.0
C301 C 0.29316 0.78302 0.49313 0.0
H302 H 0.33158 0.79696 0.4786 0.0
H303 H 0.40199 0.86237 0.56432 0.0
O304 O 0.26595 0.83848 0.84761 0.0
C305 C 0.4013 0.85165 0.06317 0.0
Co306 Co 0.44208 0.30783 0.33284 0.0
Co307 Co 0.46192 0.35754 0.61895 0.0
C308 C 0.39573 0.36277 0.39864 0.0
O309 O 0.40286 0.33655 0.31909 0.0
O310 O 0.41426 0.37247 0.51887 0.0
C311 C 0.39555 0.28038 0.08283 0.0
O312 O 0.35344 0.25038 0.0383 0.0
C313 C 0.41456 0.33477 0.87493 0.0
C314 C 0.47146 0.35359 1.02658 0.0
C315 C 0.42349 0.32511 1.00825 0.0
N316 N 0.45566 0.36489 0.81486 0.0
N317 N 0.48938 0.37733 0.90843 0.0
C318 C 0.36983 0.30754 0.795 0.0
H319 H 0.36987 0.27684 0.74564 0.0
H320 H 0.3387 0.29491 0.86319 0.0
H321 H 0.36625 0.32958 0.7143 0.0
C322 C 0.4196 0.22599 0.52179 0.0
N323 N 0.43345 0.27149 0.49669 0.0
N324 N 0.45109 0.29484 0.61051 0.0
C325 C 0.453 0.26571 0.70741 0.0
C326 C 0.43065 0.2204 0.65786 0.0
C327 C 0.39616 0.18879 0.41738 0.0
H328 H 0.36997 0.1947 0.35841 0.0
H329 H 0.37854 0.15478 0.47064 0.0
H330 H 0.42307 0.18997 0.34392 0.0
O331 O 0.5071 0.36289 0.31419 0.0
O332 O 0.52263 0.3982 0.52143 0.0
H333 H 0.50617 0.2604 0.82741 0.0
H334 H 0.46809 0.27477 0.92367 0.0
C335 C 0.48718 0.28127 0.82487 0.0
H336 H 0.51365 0.3185 0.81358 0.0
H337 H 0.52527 0.3942 0.88585 0.0
O338 O 0.41458 0.26696 0.17528 0.0
C339 C 0.53372 0.39629 0.39502 0.0
Co340 Co 0.10101 0.42148 0.66729 0.0
Co341 Co 0.0678 0.44188 0.95301 0.0
C342 C 0.00042 0.38274 0.7245 0.0
O343 O 0.03378 0.38855 0.647 0.0
O344 O 0.0081 0.39869 0.84736 0.0
C345 C 0.08343 0.37026 0.4147 0.0
O346 O 0.07811 0.33048 0.36544 0.0
C347 C 0.0501 0.38917 0.19916 0.0
C348 C 0.06709 0.43913 0.36967 0.0
C349 C 0.06248 0.39559 0.33805 0.0
N350 N 0.05105 0.42823 0.14848 0.0
N351 N 0.05855 0.45687 0.25341 0.0
C352 C 0.04518 0.34934 0.11017 0.0
H353 H 0.07959 0.34967 0.10066 0.0
H354 H 0.02046 0.31564 0.15875 0.0
H355 H 0.03215 0.35125 1.00598 0.0
C356 C 0.16472 0.40491 0.8629 0.0
N357 N 0.12831 0.41325 0.83529 0.0
N358 N 0.12012 0.431 0.94623 0.0
C359 C 0.15314 0.43807 0.04317 0.0
C360 C 0.18146 0.41962 0.9974 0.0
C361 C 0.18378 0.38453 0.76077 0.0
H362 H 0.15447 0.35529 0.70524 0.0
H363 H 0.20559 0.37195 0.81528 0.0
H364 H 0.205 0.41174 0.68401 0.0
O365 O 0.11502 0.48819 0.65123 0.0
O366 O 0.09144 0.50427 0.85488 0.0
H367 H 0.20329 0.49504 0.16566 0.0
H368 H 0.15467 0.4519 0.25985 0.0
C369 C 0.16466 0.47131 0.16146 0.0
H370 H 0.14631 0.49255 0.1505 0.0
H371 H 0.06168 0.48994 0.24469 0.0
O372 O 0.11247 0.389 0.51423 0.0
C373 C 0.10861 0.51603 0.73176 0.0
Co374 Co 0.65427 0.10701 1.00413 0.0
Co375 Co 0.60248 0.07567 0.29018 0.0
C376 C 0.60242 0.00832 0.06735 0.0
O377 O 0.62856 0.04125 0.98988 0.0
O378 O 0.59111 0.01602 0.18726 0.0
C379 C 0.68581 0.09069 0.74912 0.0
O380 O 0.71923 0.08351 0.69592 0.0
C381 C 0.63018 0.05369 0.54447 0.0
C382 C 0.60684 0.08726 0.70014 0.0
C383 C 0.63936 0.07156 0.67816 0.0
N384 N 0.59657 0.06172 0.48716 0.0
N385 N 0.58141 0.08013 0.58358 0.0
C386 C 0.66012 0.03878 0.46233 0.0
H387 H 0.6905 0.06982 0.41707 0.0
H388 H 0.67393 0.0204 0.52884 0.0
H389 H 0.6394 0.01485 0.37836 0.0
C390 C 0.733 0.16895 0.19728 0.0
N391 N 0.6888 0.13487 0.17059 0.0
N392 N 0.66374 0.1277 0.28269 0.0
C393 C 0.6899 0.15976 0.37937 0.0
C394 C 0.73565 0.18554 0.33214 0.0
C395 C 0.77152 0.18573 0.09451 0.0
H396 H 0.7706 0.15571 0.03768 0.0
H397 H 0.80548 0.20522 0.14889 0.0
H398 H 0.76615 0.20831 1.01897 0.0
O399 O 0.5962 0.11457 0.98382 0.0
O400 O 0.55945 0.09408 0.18988 0.0
H401 H 0.68619 0.21428 0.49439 0.0
H402 H 0.67737 0.16499 0.59385 0.0
C403 C 0.66949 0.17554 0.49318 0.0
H404 H 0.63107 0.16157 0.4786 0.0
H405 H 0.56073 0.09615 0.56449 0.0
O406 O 0.69681 0.12008 0.84771 0.0
C407 C 0.56143 0.1069 0.06323 0.0
loop_
_geom_bond_atom_site_label_1
_geom_bond_atom_site_label_2
_geom_bond_distance
_geom_bond_site_symmetry_2
_ccdc_geom_bond_type
Co0 O3 1.970 . S
Co0 N17 1.989 . S
Co0 O25 1.967 . S
Co0 O32 1.920 . S
Co1 O4 1.966 . S
Co1 N10 2.022 1_554 S
Co1 N18 1.993 . S
Co1 O26 1.941 . S
C2 O3 1.258 . S
C2 O4 1.263 . S
O3 Co0 1.970 . S
O3 C2 1.258 . S
O4 Co1 1.966 . S
O4 C2 1.263 . S
C5 O6 1.235 . S
C5 O32 1.289 . S
O6 C5 1.235 . S
C7 C9 1.400 . S
C7 N10 1.351 . S
C7 C12 1.501 . S
C8 C9 1.387 . S
C8 N11 1.341 . S
C9 C7 1.400 . S
C9 C8 1.387 . S
N10 Co1 2.022 1_556 S
N10 C7 1.351 . S
N10 N11 1.365 . S
N11 C8 1.341 . S
N11 N10 1.365 . S
N11 H31 0.862 . S
C12 C7 1.501 . S
C12 H13 0.961 . S
C12 H14 0.961 . S
C12 H15 0.960 . S
H13 C12 0.961 . S
H14 C12 0.961 . S
H15 C12 0.960 . S
C16 N17 1.342 . S
C16 C20 1.401 . S
C16 C21 1.499 . S
N17 Co0 1.989 . S
N17 C16 1.342 . S
N17 N18 1.388 . S
N18 Co1 1.993 . S
N18 N17 1.388 . S
N18 C19 1.346 . S
C19 N18 1.346 . S
C19 C20 1.396 . S
C19 C29 1.510 1_554 S
C20 C16 1.401 . S
C20 C19 1.396 . S
C21 C16 1.499 . S
C21 H22 0.959 . S
C21 H23 0.960 . S
C21 H24 0.961 . S
H22 C21 0.959 . S
H23 C21 0.960 . S
H24 C21 0.961 . S
O25 Co0 1.967 . S
O25 C33 1.258 . S
O26 Co1 1.941 . S
O26 C33 1.266 . S
H27 C29 0.959 . S
H28 C29 0.961 . S
C29 C19 1.510 1_556 S
C29 H27 0.959 . S
C29 H28 0.961 . S
C29 H30 0.960 . S
H30 C29 0.960 . S
H31 N11 0.862 . S
O32 Co0 1.920 . S
O32 C5 1.289 . S
C33 O25 1.258 . S
C33 O26 1.266 . S
Co34 O37 1.970 . S
Co34 N51 1.989 . S
Co34 O59 1.967 . S
Co34 O66 1.920 . S
Co35 O38 1.966 . S
Co35 N44 2.022 . S
Co35 N52 1.993 . S
Co35 O60 1.941 . S
C36 O37 1.258 . S
C36 O38 1.263 . S
O37 Co34 1.970 . S
O37 C36 1.258 . S
O38 Co35 1.966 . S
O38 C36 1.263 . S
C39 O40 1.235 . S
C39 O66 1.289 . S
O40 C39 1.235 . S
C41 C43 1.400 . S
C41 N44 1.351 . S
C41 C46 1.501 . S
C42 C43 1.387 . S
C42 N45 1.341 . S
C43 C41 1.400 . S
C43 C42 1.387 . S
N44 Co35 2.022 . S
N44 C41 1.351 . S
N44 N45 1.365 . S
N45 C42 1.341 . S
N45 N44 1.365 . S
N45 H65 0.862 . S
C46 C41 1.501 . S
C46 H47 0.961 . S
C46 H48 0.961 . S
C46 H49 0.960 1_655 S
H47 C46 0.961 . S
H48 C46 0.961 . S
H49 C46 0.960 1_455 S
C50 N51 1.342 . S
C50 C54 1.401 . S
C50 C55 1.499 . S
N51 Co34 1.989 . S
N51 C50 1.342 . S
N51 N52 1.388 . S
N52 Co35 1.993 . S
N52 N51 1.388 . S
N52 C53 1.346 . S
C53 N52 1.346 . S
C53 C54 1.396 . S
C53 C63 1.510 . S
C54 C50 1.401 . S
C54 C53 1.396 . S
C55 C50 1.499 . S
C55 H56 0.959 . S
C55 H57 0.960 . S
C55 H58 0.961 . S
H56 C55 0.959 . S
H57 C55 0.960 . S
H58 C55 0.961 . S
O59 Co34 1.967 . S
O59 C67 1.258 . S
O60 Co35 1.941 . S
O60 C67 1.266 . S
H61 C63 0.959 . S
H62 C63 0.961 . S
C63 C53 1.510 . S
C63 H61 0.959 . S
C63 H62 0.961 . S
C63 H64 0.960 . S
H64 C63 0.960 . S
H65 N45 0.862 . S
O66 Co34 1.920 . S
O66 C39 1.289 . S
C67 O59 1.258 . S
C67 O60 1.266 . S
Co68 O71 1.970 . S
Co68 N85 1.989 1_554 S
Co68 O93 1.967 . S
Co68 O100 1.920 . S
Co69 O72 1.966 . S
Co69 N78 2.022 . S
Co69 N86 1.993 . S
Co69 O94 1.941 . S
C70 O71 1.258 1_556 S
C70 O72 1.263 . S
O71 Co68 1.970 . S
O71 C70 1.258 1_554 S
O72 Co69 1.966 . S
O72 C70 1.263 . S
C73 O74 1.235 . S
C73 O100 1.289 . S
O74 C73 1.235 . S
C75 C77 1.400 . S
C75 N78 1.351 . S
C75 C80 1.501 . S
C76 C77 1.387 . S
C76 N79 1.341 . S
C77 C75 1.400 . S
C77 C76 1.387 . S
N78 Co69 2.022 . S
N78 C75 1.351 . S
N78 N79 1.365 . S
N79 C76 1.341 . S
N79 N78 1.365 . S
N79 H99 0.862 . S
C80 C75 1.501 . S
C80 H81 0.961 . S
C80 H82 0.961 . S
C80 H83 0.960 1_565 S
H81 C80 0.961 . S
H82 C80 0.961 . S
H83 C80 0.960 1_545 S
C84 N85 1.342 . S
C84 C88 1.401 . S
C84 C89 1.499 1_556 S
N85 Co68 1.989 1_556 S
N85 C84 1.342 . S
N85 N86 1.388 . S
N86 Co69 1.993 . S
N86 N85 1.388 . S
N86 C87 1.346 . S
C87 N86 1.346 . S
C87 C88 1.396 . S
C87 C97 1.510 . S
C88 C84 1.401 . S
C88 C87 1.396 . S
C89 C84 1.499 1_554 S
C89 H90 0.959 . S
C89 H91 0.960 . S
C89 H92 0.961 . S
H90 C89 0.959 . S
H91 C89 0.960 . S
H92 C89 0.961 . S
O93 Co68 1.967 . S
O93 C101 1.258 1_554 S
O94 Co69 1.941 . S
O94 C101 1.266 . S
H95 C97 0.959 . S
H96 C97 0.961 . S
C97 C87 1.510 . S
C97 H95 0.959 . S
C97 H96 0.961 . S
C97 H98 0.960 . S
H98 C97 0.960 . S
H99 N79 0.862 . S
O100 Co68 1.920 . S
O100 C73 1.289 . S
C101 O93 1.258 1_556 S
C101 O94 1.266 . S
Co102 O105 1.970 . S
Co102 N119 1.989 . S
Co102 O127 1.967 . S
Co102 O134 1.920 . S
Co103 O106 1.966 . S
Co103 N112 2.022 1_554 S
Co103 N120 1.993 . S
Co103 O128 1.941 . S
C104 O105 1.258 . S
C104 O106 1.263 . S
O105 Co102 1.970 . S
O105 C104 1.258 . S
O106 Co103 1.966 . S
O106 C104 1.263 . S
C107 O108 1.235 . S
C107 O134 1.289 . S
O108 C107 1.235 . S
C109 C111 1.400 . S
C109 N112 1.351 . S
C109 C114 1.501 . S
C110 C111 1.387 . S
C110 N113 1.341 . S
C111 C109 1.400 . S
C111 C110 1.387 . S
N112 Co103 2.022 1_556 S
N112 C109 1.351 . S
N112 N113 1.365 . S
N113 C110 1.341 . S
N113 N112 1.365 . S
N113 H133 0.862 . S
C114 C109 1.501 . S
C114 H115 0.961 . S
C114 H116 0.961 . S
C114 H117 0.960 . S
H115 C114 0.961 . S
H116 C114 0.961 . S
H117 C114 0.960 . S
C118 N119 1.342 . S
C118 C122 1.401 . S
C118 C123 1.499 . S
N119 Co102 1.989 . S
N119 C118 1.342 . S
N119 N120 1.388 . S
N120 Co103 1.993 . S
N120 N119 1.388 . S
N120 C121 1.346 . S
C121 N120 1.346 . S
C121 C122 1.396 . S
C121 C131 1.510 1_554 S
C122 C118 1.401 . S
C122 C121 1.396 . S
C123 C118 1.499 . S
C123 H124 0.959 . S
C123 H125 0.960 . S
C123 H126 0.961 . S
H124 C123 0.959 . S
H125 C123 0.960 . S
H126 C123 0.961 . S
O127 Co102 1.967 . S
O127 C135 1.258 . S
O128 Co103 1.941 . S
O128 C135 1.266 . S
H129 C131 0.959 . S
H130 C131 0.961 . S
C131 C121 1.510 1_556 S
C131 H129 0.959 . S
C131 H130 0.961 . S
C131 H132 0.960 . S
H132 C131 0.960 . S
H133 N113 0.862 . S
O134 Co102 1.920 . S
O134 C107 1.289 . S
C135 O127 1.258 . S
C135 O128 1.266 . S
Co136 O139 1.970 . S
Co136 N153 1.989 . S
Co136 O161 1.967 . S
Co136 O168 1.920 . S
Co137 O140 1.966 . S
Co137 N146 2.022 . S
Co137 N154 1.993 . S
Co137 O162 1.941 . S
C138 O139 1.258 . S
C138 O140 1.263 . S
O139 Co136 1.970 . S
O139 C138 1.258 . S
O140 Co137 1.966 . S
O140 C138 1.263 . S
C141 O142 1.235 . S
C141 O168 1.289 . S
O142 C141 1.235 . S
C143 C145 1.400 . S
C143 N146 1.351 . S
C143 C148 1.501 . S
C144 C145 1.387 . S
C144 N147 1.341 . S
C145 C143 1.400 . S
C145 C144 1.387 . S
N146 Co137 2.022 . S
N146 C143 1.351 . S
N146 N147 1.365 . S
N147 C144 1.341 . S
N147 N146 1.365 . S
N147 H167 0.862 . S
C148 C143 1.501 . S
C148 H149 0.961 . S
C148 H150 0.961 . S
C148 H151 0.960 1_455 S
H149 C148 0.961 . S
H150 C148 0.961 . S
H151 C148 0.960 1_655 S
C152 N153 1.342 . S
C152 C156 1.401 . S
C152 C157 1.499 . S
N153 Co136 1.989 . S
N153 C152 1.342 . S
N153 N154 1.388 . S
N154 Co137 1.993 . S
N154 N153 1.388 . S
N154 C155 1.346 . S
C155 N154 1.346 . S
C155 C156 1.396 . S
C155 C165 1.510 . S
C156 C152 1.401 . S
C156 C155 1.396 . S
C157 C152 1.499 . S
C157 H158 0.959 . S
C157 H159 0.960 . S
C157 H160 0.961 . S
H158 C157 0.959 . S
H159 C157 0.960 . S
H160 C157 0.961 . S
O161 Co136 1.967 . S
O161 C169 1.258 . S
O162 Co137 1.941 . S
O162 C169 1.266 . S
H163 C165 0.959 . S
H164 C165 0.961 . S
C165 C155 1.510 . S
C165 H163 0.959 . S
C165 H164 0.961 . S
C165 H166 0.960 . S
H166 C165 0.960 . S
H167 N147 0.862 . S
O168 Co136 1.920 . S
O168 C141 1.289 . S
C169 O161 1.258 . S
C169 O162 1.266 . S
Co170 O173 1.970 . S
Co170 N187 1.989 1_554 S
Co170 O195 1.967 . S
Co170 O202 1.920 . S
Co171 O174 1.966 . S
Co171 N180 2.022 . S
Co171 N188 1.993 . S
Co171 O196 1.941 . S
C172 O173 1.258 1_556 S
C172 O174 1.263 . S
O173 Co170 1.970 . S
O173 C172 1.258 1_554 S
O174 Co171 1.966 . S
O174 C172 1.263 . S
C175 O176 1.235 . S
C175 O202 1.289 . S
O176 C175 1.235 . S
C177 C179 1.400 . S
C177 N180 1.351 . S
C177 C182 1.501 . S
C178 C179 1.387 . S
C178 N181 1.341 . S
C179 C177 1.400 . S
C179 C178 1.387 . S
N180 Co171 2.022 . S
N180 C177 1.351 . S
N180 N181 1.365 . S
N181 C178 1.341 . S
N181 N180 1.365 . S
N181 H201 0.862 . S
C182 C177 1.501 . S
C182 H183 0.961 . S
C182 H184 0.961 . S
C182 H185 0.960 1_545 S
H183 C182 0.961 . S
H184 C182 0.961 . S
H185 C182 0.960 1_565 S
C186 N187 1.342 . S
C186 C190 1.401 . S
C186 C191 1.499 1_556 S
N187 Co170 1.989 1_556 S
N187 C186 1.342 . S
N187 N188 1.388 . S
N188 Co171 1.993 . S
N188 N187 1.388 . S
N188 C189 1.346 . S
C189 N188 1.346 . S
C189 C190 1.396 . S
C189 C199 1.510 . S
C190 C186 1.401 . S
C190 C189 1.396 . S
C191 C186 1.499 1_554 S
C191 H192 0.959 . S
C191 H193 0.960 . S
C191 H194 0.961 . S
H192 C191 0.959 . S
H193 C191 0.960 . S
H194 C191 0.961 . S
O195 Co170 1.967 . S
O195 C203 1.258 1_554 S
O196 Co171 1.941 . S
O196 C203 1.266 . S
H197 C199 0.959 . S
H198 C199 0.961 . S
C199 C189 1.510 . S
C199 H197 0.959 . S
C199 H198 0.961 . S
C199 H200 0.960 . S
H200 C199 0.960 . S
H201 N181 0.862 . S
O202 Co170 1.920 . S
O202 C175 1.289 . S
C203 O195 1.258 1_556 S
C203 O196 1.266 . S
Co204 O207 1.970 . S
Co204 N221 1.989 . S
Co204 O229 1.967 . S
Co204 O236 1.920 . S
Co205 O208 1.966 . S
Co205 N214 2.022 . S
Co205 N222 1.993 . S
Co205 O230 1.941 . S
C206 O207 1.258 . S
C206 O208 1.263 . S
O207 Co204 1.970 . S
O207 C206 1.258 . S
O208 Co205 1.966 . S
O208 C206 1.263 . S
C209 O210 1.235 . S
C209 O236 1.289 . S
O210 C209 1.235 . S
C211 C213 1.400 . S
C211 N214 1.351 . S
C211 C216 1.501 . S
C212 C213 1.387 . S
C212 N215 1.341 . S
C213 C211 1.400 . S
C213 C212 1.387 . S
N214 Co205 2.022 . S
N214 C211 1.351 . S
N214 N215 1.365 . S
N215 C212 1.341 . S
N215 N214 1.365 . S
N215 H235 0.862 . S
C216 C211 1.501 . S
C216 H217 0.961 . S
C216 H218 0.961 . S
C216 H219 0.960 . S
H217 C216 0.961 . S
H218 C216 0.961 . S
H219 C216 0.960 . S
C220 N221 1.342 . S
C220 C224 1.401 . S
C220 C225 1.499 . S
N221 Co204 1.989 . S
N221 C220 1.342 . S
N221 N222 1.388 . S
N222 Co205 1.993 . S
N222 N221 1.388 . S
N222 C223 1.346 . S
C223 N222 1.346 . S
C223 C224 1.396 . S
C223 C233 1.510 . S
C224 C220 1.401 . S
C224 C223 1.396 . S
C225 C220 1.499 . S
C225 H226 0.959 . S
C225 H227 0.960 . S
C225 H228 0.961 . S
H226 C225 0.959 . S
H227 C225 0.960 . S
H228 C225 0.961 . S
O229 Co204 1.967 . S
O229 C237 1.258 . S
O230 Co205 1.941 . S
O230 C237 1.266 . S
H231 C233 0.959 . S
H232 C233 0.961 . S
C233 C223 1.510 . S
C233 H231 0.959 . S
C233 H232 0.961 . S
C233 H234 0.960 . S
H234 C233 0.960 . S
H235 N215 0.862 . S
O236 Co204 1.920 . S
O236 C209 1.289 . S
C237 O229 1.258 . S
C237 O230 1.266 . S
Co238 O241 1.970 . S
Co238 N255 1.989 . S
Co238 O263 1.967 . S
Co238 O270 1.920 . S
Co239 O242 1.966 . S
Co239 N248 2.022 1_556 S
Co239 N256 1.993 . S
Co239 O264 1.941 . S
C240 O241 1.258 . S
C240 O242 1.263 . S
O241 Co238 1.970 . S
O241 C240 1.258 . S
O242 Co239 1.966 . S
O242 C240 1.263 . S
C243 O244 1.235 . S
C243 O270 1.289 . S
O244 C243 1.235 . S
C245 C247 1.400 . S
C245 N248 1.351 . S
C245 C250 1.501 . S
C246 C247 1.387 . S
C246 N249 1.341 . S
C247 C245 1.400 . S
C247 C246 1.387 . S
N248 Co239 2.022 1_554 S
N248 C245 1.351 . S
N248 N249 1.365 . S
N249 C246 1.341 . S
N249 N248 1.365 . S
N249 H269 0.862 . S
C250 C245 1.501 . S
C250 H251 0.961 . S
C250 H252 0.961 . S
C250 H253 0.960 1_655 S
H251 C250 0.961 . S
H252 C250 0.961 . S
H253 C250 0.960 1_455 S
C254 N255 1.342 . S
C254 C258 1.401 . S
C254 C259 1.499 . S
N255 Co238 1.989 . S
N255 C254 1.342 . S
N255 N256 1.388 . S
N256 Co239 1.993 . S
N256 N255 1.388 . S
N256 C257 1.346 . S
C257 N256 1.346 . S
C257 C258 1.396 . S
C257 C267 1.510 1_556 S
C258 C254 1.401 . S
C258 C257 1.396 . S
C259 C254 1.499 . S
C259 H260 0.959 . S
C259 H261 0.960 . S
C259 H262 0.961 . S
H260 C259 0.959 . S
H261 C259 0.960 . S
H262 C259 0.961 . S
O263 Co238 1.967 . S
O263 C271 1.258 . S
O264 Co239 1.941 . S
O264 C271 1.266 . S
H265 C267 0.959 . S
H266 C267 0.961 . S
C267 C257 1.510 1_554 S
C267 H265 0.959 . S
C267 H266 0.961 . S
C267 H268 0.960 . S
H268 C267 0.960 . S
H269 N249 0.862 . S
O270 Co238 1.920 . S
O270 C243 1.289 . S
C271 O263 1.258 . S
C271 O264 1.266 . S
Co272 O275 1.970 . S
Co272 N289 1.989 1_556 S
Co272 O297 1.967 . S
Co272 O304 1.920 . S
Co273 O276 1.966 . S
Co273 N282 2.022 . S
Co273 N290 1.993 . S
Co273 O298 1.941 . S
C274 O275 1.258 1_554 S
C274 O276 1.263 . S
O275 Co272 1.970 . S
O275 C274 1.258 1_556 S
O276 Co273 1.966 . S
O276 C274 1.263 . S
C277 O278 1.235 . S
C277 O304 1.289 . S
O278 C277 1.235 . S
C279 C281 1.400 . S
C279 N282 1.351 . S
C279 C284 1.501 . S
C280 C281 1.387 . S
C280 N283 1.341 . S
C281 C279 1.400 . S
C281 C280 1.387 . S
N282 Co273 2.022 . S
N282 C279 1.351 . S
N282 N283 1.365 . S
N283 C280 1.341 . S
N283 N282 1.365 . S
N283 H303 0.862 . S
C284 C279 1.501 . S
C284 H285 0.961 . S
C284 H286 0.961 . S
C284 H287 0.960 1_565 S
H285 C284 0.961 . S
H286 C284 0.961 . S
H287 C284 0.960 1_545 S
C288 N289 1.342 . S
C288 C292 1.401 . S
C288 C293 1.499 1_554 S
N289 Co272 1.989 1_554 S
N289 C288 1.342 . S
N289 N290 1.388 . S
N290 Co273 1.993 . S
N290 N289 1.388 . S
N290 C291 1.346 . S
C291 N290 1.346 . S
C291 C292 1.396 . S
C291 C301 1.510 . S
C292 C288 1.401 . S
C292 C291 1.396 . S
C293 C288 1.499 1_556 S
C293 H294 0.959 . S
C293 H295 0.960 . S
C293 H296 0.961 . S
H294 C293 0.959 . S
H295 C293 0.960 . S
H296 C293 0.961 . S
O297 Co272 1.967 . S
O297 C305 1.258 1_556 S
O298 Co273 1.941 . S
O298 C305 1.266 . S
H299 C301 0.959 . S
H300 C301 0.961 . S
C301 C291 1.510 . S
C301 H299 0.959 . S
C301 H300 0.961 . S
C301 H302 0.960 . S
H302 C301 0.960 . S
H303 N283 0.862 . S
O304 Co272 1.920 . S
O304 C277 1.289 . S
C305 O297 1.258 1_554 S
C305 O298 1.266 . S
Co306 O309 1.970 . S
Co306 N323 1.989 . S
Co306 O331 1.967 . S
Co306 O338 1.920 . S
Co307 O310 1.966 . S
Co307 N316 2.022 . S
Co307 N324 1.993 . S
Co307 O332 1.941 . S
C308 O309 1.258 . S
C308 O310 1.263 . S
O309 Co306 1.970 . S
O309 C308 1.258 . S
O310 Co307 1.966 . S
O310 C308 1.263 . S
C311 O312 1.235 . S
C311 O338 1.289 . S
O312 C311 1.235 . S
C313 C315 1.400 . S
C313 N316 1.351 . S
C313 C318 1.501 . S
C314 C315 1.387 . S
C314 N317 1.341 . S
C315 C313 1.400 . S
C315 C314 1.387 . S
N316 Co307 2.022 . S
N316 C313 1.351 . S
N316 N317 1.365 . S
N317 C314 1.341 . S
N317 N316 1.365 . S
N317 H337 0.862 . S
C318 C313 1.501 . S
C318 H319 0.961 . S
C318 H320 0.961 . S
C318 H321 0.960 . S
H319 C318 0.961 . S
H320 C318 0.961 . S
H321 C318 0.960 . S
C322 N323 1.342 . S
C322 C326 1.401 . S
C322 C327 1.499 . S
N323 Co306 1.989 . S
N323 C322 1.342 . S
N323 N324 1.388 . S
N324 Co307 1.993 . S
N324 N323 1.388 . S
N324 C325 1.346 . S
C325 N324 1.346 . S
C325 C326 1.396 . S
C325 C335 1.510 . S
C326 C322 1.401 . S
C326 C325 1.396 . S
C327 C322 1.499 . S
C327 H328 0.959 . S
C327 H329 0.960 . S
C327 H330 0.961 . S
H328 C327 0.959 . S
H329 C327 0.960 . S
H330 C327 0.961 . S
O331 Co306 1.967 . S
O331 C339 1.258 . S
O332 Co307 1.941 . S
O332 C339 1.266 . S
H333 C335 0.959 . S
H334 C335 0.961 . S
C335 C325 1.510 . S
C335 H333 0.959 . S
C335 H334 0.961 . S
C335 H336 0.960 . S
H336 C335 0.960 . S
H337 N317 0.862 . S
O338 Co306 1.920 . S
O338 C311 1.289 . S
C339 O331 1.258 . S
C339 O332 1.266 . S
Co340 O343 1.970 . S
Co340 N357 1.989 . S
Co340 O365 1.967 . S
Co340 O372 1.920 . S
Co341 O344 1.966 . S
Co341 N350 2.022 1_556 S
Co341 N358 1.993 . S
Co341 O366 1.941 . S
C342 O343 1.258 . S
C342 O344 1.263 . S
O343 Co340 1.970 . S
O343 C342 1.258 . S
O344 Co341 1.966 . S
O344 C342 1.263 . S
C345 O346 1.235 . S
C345 O372 1.289 . S
O346 C345 1.235 . S
C347 C349 1.400 . S
C347 N350 1.351 . S
C347 C352 1.501 . S
C348 C349 1.387 . S
C348 N351 1.341 . S
C349 C347 1.400 . S
C349 C348 1.387 . S
N350 Co341 2.022 1_554 S
N350 C347 1.351 . S
N350 N351 1.365 . S
N351 C348 1.341 . S
N351 N350 1.365 . S
N351 H371 0.862 . S
C352 C347 1.501 . S
C352 H353 0.961 . S
C352 H354 0.961 . S
C352 H355 0.960 1_455 S
H353 C352 0.961 . S
H354 C352 0.961 . S
H355 C352 0.960 1_655 S
C356 N357 1.342 . S
C356 C360 1.401 . S
C356 C361 1.499 . S
N357 Co340 1.989 . S
N357 C356 1.342 . S
N357 N358 1.388 . S
N358 Co341 1.993 . S
N358 N357 1.388 . S
N358 C359 1.346 . S
C359 N358 1.346 . S
C359 C360 1.396 . S
C359 C369 1.510 1_556 S
C360 C356 1.401 . S
C360 C359 1.396 . S
C361 C356 1.499 . S
C361 H362 0.959 . S
C361 H363 0.960 . S
C361 H364 0.961 . S
H362 C361 0.959 . S
H363 C361 0.960 . S
H364 C361 0.961 . S
O365 Co340 1.967 . S
O365 C373 1.258 . S
O366 Co341 1.941 . S
O366 C373 1.266 . S
H367 C369 0.959 . S
H368 C369 0.961 . S
C369 C359 1.510 1_554 S
C369 H367 0.959 . S
C369 H368 0.961 . S
C369 H370 0.960 . S
H370 C369 0.960 . S
H371 N351 0.862 . S
O372 Co340 1.920 . S
O372 C345 1.289 . S
C373 O365 1.258 . S
C373 O366 1.266 . S
Co374 O377 1.970 . S
Co374 N391 1.989 1_556 S
Co374 O399 1.967 . S
Co374 O406 1.920 . S
Co375 O378 1.966 . S
Co375 N384 2.022 . S
Co375 N392 1.993 . S
Co375 O400 1.941 . S
C376 O377 1.258 1_554 S
C376 O378 1.263 . S
O377 Co374 1.970 . S
O377 C376 1.258 1_556 S
O378 Co375 1.966 . S
O378 C376 1.263 . S
C379 O380 1.235 . S
C379 O406 1.289 . S
O380 C379 1.235 . S
C381 C383 1.400 . S
C381 N384 1.351 . S
C381 C386 1.501 . S
C382 C383 1.387 . S
C382 N385 1.341 . S
C383 C381 1.400 . S
C383 C382 1.387 . S
N384 Co375 2.022 . S
N384 C381 1.351 . S
N384 N385 1.365 . S
N385 C382 1.341 . S
N385 N384 1.365 . S
N385 H405 0.862 . S
C386 C381 1.501 . S
C386 H387 0.961 . S
C386 H388 0.961 . S
C386 H389 0.960 1_545 S
H387 C386 0.961 . S
H388 C386 0.961 . S
H389 C386 0.960 1_565 S
C390 N391 1.342 . S
C390 C394 1.401 . S
C390 C395 1.499 1_554 S
N391 Co374 1.989 1_554 S
N391 C390 1.342 . S
N391 N392 1.388 . S
N392 Co375 1.993 . S
N392 N391 1.388 . S
N392 C393 1.346 . S
C393 N392 1.346 . S
C393 C394 1.396 . S
C393 C403 1.510 . S
C394 C390 1.401 . S
C394 C393 1.396 . S
C395 C390 1.499 1_556 S
C395 H396 0.959 . S
C395 H397 0.960 . S
C395 H398 0.961 . S
H396 C395 0.959 . S
H397 C395 0.960 . S
H398 C395 0.961 . S
O399 Co374 1.967 . S
O399 C407 1.258 1_556 S
O400 Co375 1.941 . S
O400 C407 1.266 . S
H401 C403 0.959 . S
H402 C403 0.961 . S
C403 C393 1.510 . S
C403 H401 0.959 . S
C403 H402 0.961 . S
C403 H404 0.960 . S
H404 C403 0.960 . S
H405 N385 0.862 . S
O406 Co374 1.920 . S
O406 C379 1.289 . S
C407 O399 1.258 1_554 S
C407 O400 1.266 . S
C20 C360 2.729 1_554 S
C394 C54 2.729 . S
C224 C88 2.729 . S
C258 C122 2.729 1_556 S
C156 C292 2.729 . S
C326 C190 2.729 . S
C237 C33 1.613 . S
C271 C67 1.613 . S
C101 C305 1.613 1_556 S
C135 C339 1.613 . S
C373 C169 1.613 . S
C407 C203 1.613 1_554 S
C2 C308 1.660 . S
C342 C36 1.660 1_455 S
C376 C70 1.660 1_544 S
C206 C104 1.660 . S
C138 C240 1.660 1_455 S
C172 C274 1.660 1_546 S
C5 C9 2.472 . S
C43 C39 2.471 1_554 S
C73 C77 2.472 . S
C111 C107 2.472 . S
C145 C141 2.472 1_554 S
C179 C175 2.472 . S
C209 C213 2.472 1_554 S
C247 C243 2.472 . S
C281 C277 2.472 . S
C315 C311 2.472 1_556 S
C345 C349 2.472 . S
C383 C379 2.471 . S
