# Generated by pormake.
# Topology wkb, (5)-cn, num edge types: 1
# Building blocks:
#     Node 0, Type 0, BuildingBlock: XOMCOT_clean_sbu_1, # of connection points: 5
#     Node 1, Type 0, BuildingBlock: XOMCOT_clean_sbu_1, # of connection points: 5
#     Node 2, Type 0, BuildingBlock: XOMCOT_clean_sbu_1, # of connection points: 5
#     Node 3, Type 0, BuildingBlock: XOMCOT_clean_sbu_1, # of connection points: 5
#     Node 4, Type 0, BuildingBlock: XOMCOT_clean_sbu_1, # of connection points: 5
#     Node 5, Type 0, BuildingBlock: XOMCOT_clean_sbu_1, # of connection points: 5
#     Node 6, Type 0, BuildingBlock: XOMCOT_clean_sbu_1, # of connection points: 5
#     Node 7, Type 0, BuildingBlock: XOMCOT_clean_sbu_1, # of connection points: 5
#     Node 8, Type 0, BuildingBlock: XOMCOT_clean_sbu_1, # of connection points: 5
#     Node 9, Type 0, BuildingBlock: XOMCOT_clean_sbu_1, # of connection points: 5
#     Node 10, Type 0, BuildingBlock: XOMCOT_clean_sbu_1, # of connection points: 5
#     Node 11, Type 0, BuildingBlock: XOMCOT_clean_sbu_1, # of connection points: 5
#     Edge 12, Type (0, 0), BuildingBlock: TEMPAE_clean_linker_10, # of connection points: 2
#     Edge 13, Type (0, 0), BuildingBlock: TEMPAE_clean_linker_10, # of connection points: 2
#     Edge 14, Type (0, 0), BuildingBlock: TEMPAE_clean_linker_10, # of connection points: 2
#     Edge 15, Type (0, 0), BuildingBlock: TEMPAE_clean_linker_10, # of connection points: 2
#     Edge 16, Type (0, 0), BuildingBlock: TEMPAE_clean_linker_10, # of connection points: 2
#     Edge 17, Type (0, 0), BuildingBlock: TEMPAE_clean_linker_10, # of connection points: 2
#     Edge 18, Type (0, 0), BuildingBlock: TEMPAE_clean_linker_10, # of connection points: 2
#     Edge 19, Type (0, 0), BuildingBlock: TEMPAE_clean_linker_10, # of connection points: 2
#     Edge 20, Type (0, 0), BuildingBlock: TEMPAE_clean_linker_10, # of connection points: 2
#     Edge 21, Type (0, 0), BuildingBlock: TEMPAE_clean_linker_10, # of connection points: 2
#     Edge 22, Type (0, 0), BuildingBlock: TEMPAE_clean_linker_10, # of connection points: 2
#     Edge 23, Type (0, 0), BuildingBlock: TEMPAE_clean_linker_10, # of connection points: 2
#     Edge 24, Type (0, 0), BuildingBlock: TEMPAE_clean_linker_10, # of connection points: 2
#     Edge 25, Type (0, 0), BuildingBlock: TEMPAE_clean_linker_10, # of connection points: 2
#     Edge 26, Type (0, 0), BuildingBlock: TEMPAE_clean_linker_10, # of connection points: 2
#     Edge 27, Type (0, 0), BuildingBlock: TEMPAE_clean_linker_10, # of connection points: 2
#     Edge 28, Type (0, 0), BuildingBlock: TEMPAE_clean_linker_10, # of connection points: 2
#     Edge 29, Type (0, 0), BuildingBlock: TEMPAE_clean_linker_10, # of connection points: 2
#     Edge 30, Type (0, 0), BuildingBlock: TEMPAE_clean_linker_10, # of connection points: 2
#     Edge 31, Type (0, 0), BuildingBlock: TEMPAE_clean_linker_10, # of connection points: 2
#     Edge 32, Type (0, 0), BuildingBlock: TEMPAE_clean_linker_10, # of connection points: 2
#     Edge 33, Type (0, 0), BuildingBlock: TEMPAE_clean_linker_10, # of connection points: 2
#     Edge 34, Type (0, 0), BuildingBlock: TEMPAE_clean_linker_10, # of connection points: 2
#     Edge 35, Type (0, 0), BuildingBlock: TEMPAE_clean_linker_10, # of connection points: 2
#     Edge 36, Type (0, 0), BuildingBlock: TEMPAE_clean_linker_10, # of connection points: 2
#     Edge 37, Type (0, 0), BuildingBlock: TEMPAE_clean_linker_10, # of connection points: 2
#     Edge 38, Type (0, 0), BuildingBlock: TEMPAE_clean_linker_10, # of connection points: 2
#     Edge 39, Type (0, 0), BuildingBlock: TEMPAE_clean_linker_10, # of connection points: 2
#     Edge 40, Type (0, 0), BuildingBlock: TEMPAE_clean_linker_10, # of connection points: 2
#     Edge 41, Type (0, 0), BuildingBlock: TEMPAE_clean_linker_10, # of connection points: 2
# Relax obj value: 0.068
# Max RMSD: 0.105
# Mean RMSD: 0.105
data_MOF--net-wkb--node1-XOMCOT_clean_sbu_1--edge1-TEMPAE_clean_linker_10
_symmetry_space_group_name_H-M    P1
_symmetry_Int_Tables_number       1
_symmetry_cell_setting            triclinic
loop_
_symmetry_equiv_pos_as_xyz
'x, y, z'
_cell_length_a     46.951745
_cell_length_b     46.97123
_cell_length_c     37.708478
_cell_angle_alpha  90.017016
_cell_angle_beta   90.056028
_cell_angle_gamma 120.12387
loop_
_atom_site_label
_atom_site_type_symbol
_atom_site_fract_x
_atom_site_fract_y
_atom_site_fract_z
_atom_type_partial_charge
C0 C 0.10154 0.38192 0.99957 0.0
C1 C 0.09845 0.378 0.9635 0.0
N2 N 0.07666 0.34618 0.95648 0.0
N3 N 0.08157 0.35281 0.01526 0.0
C4 C 0.06662 0.33137 0.98839 0.0
H5 H 0.118 0.40435 0.01363 0.0
Co6 Co 0.0835 0.34663 0.06327 0.0
C7 C 1.00992 0.2991 0.07501 0.0
O8 O 1.004 0.32262 0.08381 0.0
N9 N 0.08645 0.34033 0.11208 0.0
C10 C 0.07769 0.33532 0.17041 0.0
C11 C 0.06582 0.33843 0.13821 0.0
C12 C 0.11035 0.33772 0.12913 0.0
N13 N 0.10554 0.33469 0.16444 0.0
O14 O 0.10282 0.31957 0.05155 0.0
H15 H 0.04414 0.34048 0.13449 0.0
H16 H 0.13152 0.339 0.11628 0.0
O17 O 0.03884 0.30614 0.06479 0.0
C18 C 0.13359 0.3375 0.04492 0.0
O19 O 0.14775 0.36916 0.05182 0.0
N20 N 0.06855 0.37728 0.07245 0.0
C21 C 0.06095 0.43299 0.07779 0.0
C22 C 0.0415 0.40717 0.05431 0.0
C23 C 0.04611 0.37995 0.05155 0.0
C24 C 0.08804 0.40254 0.09489 0.0
C25 C 0.08417 0.43005 0.09853 0.0
H26 H 0.03234 0.36147 0.03165 0.0
H27 H 0.10786 0.40224 0.10916 0.0
H28 H 0.04999 0.30527 0.9921 0.0
H29 H 0.11133 0.39708 0.94391 0.0
H30 H 0.06694 0.3339 0.1962 0.0
H31 H 1.02394 0.40866 0.03691 0.0
H32 H 0.09997 0.44928 0.1169 0.0
C33 C 0.74731 0.09186 0.16403 0.0
C34 C 0.74292 0.08618 0.12829 0.0
N35 N 0.74829 0.06131 0.12032 0.0
N36 N 0.75511 0.0705 0.17866 0.0
C37 C 0.75598 0.05236 0.15135 0.0
H38 H 0.74501 0.11042 0.17867 0.0
Co39 Co 0.76407 0.07208 0.22642 0.0
C40 C 0.73665 0.99823 0.23795 0.0
O41 O 0.70753 0.99283 0.24744 0.0
N42 N 0.77409 0.07483 0.27506 0.0
C43 C 0.77093 0.06602 0.33338 0.0
C44 C 0.75549 0.05425 0.30133 0.0
C45 C 0.80094 0.09862 0.29191 0.0
N46 N 0.79954 0.09379 0.32721 0.0
O47 O 0.81023 0.09047 0.21378 0.0
H48 H 0.73154 0.03274 0.29784 0.0
H49 H 0.82078 0.11978 0.27897 0.0
O50 O 0.75883 0.02699 0.2275 0.0
C51 C 0.82452 0.12149 0.20811 0.0
O52 O 0.80852 0.13698 0.21579 0.0
N53 N 0.71869 0.0578 0.23647 0.0
C54 C 0.65562 0.05078 0.24246 0.0
C55 C 0.66153 0.03125 0.21878 0.0
C56 C 0.69322 0.03556 0.21571 0.0
C57 C 0.71339 0.07735 0.2592 0.0
C58 C 0.68212 0.07381 0.26311 0.0
H59 H 0.69748 0.02162 0.19571 0.0
H60 H 0.7338 0.09695 0.27345 0.0
H61 H 0.7617 0.03284 0.1542 0.0
H62 H 0.73661 0.09957 0.1095 0.0
H63 H 0.76176 0.05527 0.35921 0.0
H64 H 0.64223 1.01383 0.20144 0.0
H65 H 0.67901 0.08968 0.2816 0.0
C66 C 0.67709 0.72541 0.33044 0.0
C67 C 0.68039 0.72575 0.29428 0.0
N68 N 0.71273 0.74118 0.28671 0.0
N69 N 0.7072 0.7402 0.34555 0.0
C70 C 0.72854 0.74992 0.31813 0.0
H71 H 0.65421 0.71607 0.34485 0.0
Co72 Co 0.7138 0.75158 0.39296 0.0
C73 C 0.77097 0.73571 0.38484 0.0
O74 O 0.7641 0.72119 0.35372 0.0
N75 N 0.71999 0.76361 0.44058 0.0
C76 C 0.73016 0.76519 0.49831 0.0
C77 C 0.72814 0.7495 0.46687 0.0
C78 C 0.71679 0.78749 0.45667 0.0
N79 N 0.72296 0.78907 0.4918 0.0
O80 O 0.74129 0.79729 0.37848 0.0
H81 H 0.73202 0.72882 0.46346 0.0
H82 H 0.71029 0.80361 0.44293 0.0
O83 O 0.75264 0.74613 0.39762 0.0
C84 C 0.72417 0.81066 0.37054 0.0
O85 O 0.69224 0.79382 0.37602 0.0
N86 N 0.68419 0.70698 0.4057 0.0
C87 C 0.6295 0.64304 0.41287 0.0
C88 C 0.65801 0.64866 0.39455 0.0
C89 C 0.68509 0.6807 0.39148 0.0
C90 C 0.65729 0.70197 0.42459 0.0
C91 C 0.63018 0.67036 0.42914 0.0
H92 H 0.7056 0.68452 0.37528 0.0
H93 H 0.65606 0.72281 0.4349 0.0
H94 H 0.75501 0.76466 0.32095 0.0
H95 H 0.66064 0.71562 0.27496 0.0
H96 H 0.73583 0.75907 0.52404 0.0
H97 H 0.65892 0.62887 0.38089 0.0
H98 H 0.60952 0.66772 0.44445 0.0
C99 C 0.9613 0.65736 0.49877 0.0
C100 C 0.96677 0.6599 0.46293 0.0
N101 N 0.9887 0.69153 0.45535 0.0
N102 N 0.98001 0.68714 0.51381 0.0
C103 C 0.99621 0.70768 0.48668 0.0
H104 H 0.9445 0.6353 0.51313 0.0
Co105 Co 0.97742 0.69423 0.5615 0.0
C106 C 0.05109 0.74404 0.57165 0.0
O107 O 0.05861 0.7214 0.57927 0.0
N108 N 0.97366 0.70128 0.60973 0.0
C109 C 0.98369 0.71225 0.66726 0.0
C110 C 0.99625 0.70891 0.63568 0.0
C111 C 0.9475 0.69982 0.62633 0.0
N112 N 0.95299 0.70651 0.66129 0.0
O113 O 0.95687 0.71989 0.54824 0.0
H114 H 1.02008 0.71113 0.63227 0.0
H115 H 0.9249 0.69426 0.61304 0.0
O116 O 1.02147 0.73575 0.56281 0.0
C117 C 0.92633 0.70141 0.54077 0.0
O118 O 0.91281 0.6697 0.54708 0.0
N119 N 0.99394 0.66506 0.57254 0.0
C120 C 1.00344 0.61058 0.57939 0.0
C121 C 1.02165 0.6357 0.55483 0.0
C122 C 1.01616 0.66227 0.55141 0.0
C123 C 0.97593 0.64066 0.59646 0.0
C124 C 0.98067 0.6137 0.60073 0.0
H125 H 1.0291 0.6801 0.53073 0.0
H126 H 0.95624 0.64082 0.61108 0.0
H127 H 1.01303 0.73381 0.48983 0.0
H128 H 0.95499 0.64013 0.4438 0.0
H129 H 0.99594 0.71775 0.69276 0.0
H130 H 0.03944 0.63446 0.53761 0.0
H131 H 0.96518 0.59449 0.61923 0.0
C132 C 0.30977 0.95053 0.66305 0.0
C133 C 0.30979 0.95395 0.62698 0.0
N134 N 0.30205 0.97734 0.61974 0.0
N135 N 0.30233 0.97182 0.67852 0.0
C136 C 0.29774 0.98796 0.65151 0.0
H137 H 0.3141 0.93305 0.67727 0.0
Co138 Co 0.2942 0.97 0.72645 0.0
C139 C 0.32185 0.04372 0.73888 0.0
O140 O 0.35102 0.04892 0.74795 0.0
N141 N 0.28484 0.96697 0.77523 0.0
C142 C 0.28835 0.97526 0.83367 0.0
C143 C 0.30364 0.98727 0.80163 0.0
C144 C 0.25805 0.9431 0.79197 0.0
N145 N 0.25964 0.94761 0.82734 0.0
O146 O 0.24784 0.95163 0.71451 0.0
H147 H 0.3276 1.00879 0.79823 0.0
H148 H 0.23806 0.92212 0.7789 0.0
O149 O 0.2995 1.01508 0.72826 0.0
C150 C 0.23375 0.9207 0.7083 0.0
O151 O 0.25006 0.90538 0.71532 0.0
N152 N 0.33969 0.98415 0.73573 0.0
C153 C 0.40286 0.99127 0.7412 0.0
C154 C 0.39676 1.01084 0.71776 0.0
C155 C 0.36499 1.00644 0.7149 0.0
C156 C 0.34518 0.9645 0.75812 0.0
C157 C 0.37648 0.96809 0.76178 0.0
H158 H 0.36052 0.02039 0.69509 0.0
H159 H 0.32488 0.94481 0.77235 0.0
H160 H 0.29012 1.00603 0.65498 0.0
H161 H 0.31511 0.94031 0.60754 0.0
H162 H 0.29765 0.98578 0.85958 0.0
H163 H 0.41598 0.02837 0.70048 0.0
H164 H 0.37973 0.95217 0.78007 0.0
C165 C 0.38156 0.31394 0.83035 0.0
C166 C 0.37743 0.31278 0.79424 0.0
N167 N 0.34499 0.29852 0.78749 0.0
N168 N 0.35187 0.30078 0.84616 0.0
C169 C 0.32994 0.29127 0.81929 0.0
H170 H 0.40464 0.32274 0.84428 0.0
Co171 Co 0.34589 0.29078 0.89381 0.0
C172 C 0.28881 0.307 0.88576 0.0
O173 O 0.29567 0.32217 0.85503 0.0
N174 N 0.34015 0.28007 0.94176 0.0
C175 C 0.33014 0.27981 0.99936 0.0
C176 C 0.33184 0.29463 0.96741 0.0
C177 C 0.34374 0.25681 0.95873 0.0
N178 N 0.33769 0.25605 0.9938 0.0
O179 O 0.31811 0.24475 0.88059 0.0
H180 H 0.32758 0.31498 0.96321 0.0
H181 H 0.35036 0.24049 0.94565 0.0
O182 O 0.30719 0.29641 0.898 0.0
C183 C 0.33495 0.23097 0.87312 0.0
O184 O 0.36691 0.24762 0.87856 0.0
N185 N 0.3758 0.33573 0.90524 0.0
C186 C 0.43067 0.3998 0.91107 0.0
C187 C 0.40235 0.39369 0.89193 0.0
C188 C 0.37518 0.36163 0.88956 0.0
C189 C 0.40258 0.34123 0.92478 0.0
C190 C 0.42973 0.37293 0.92871 0.0
H191 H 0.35484 0.35739 0.8728 0.0
H192 H 0.40366 0.32069 0.93621 0.0
H193 H 0.3035 0.27773 0.82279 0.0
H194 H 0.39667 0.32163 0.77442 0.0
H195 H 0.32437 0.2864 0.02477 0.0
H196 H 0.40163 0.41306 0.87716 0.0
H197 H 0.45021 0.37594 0.94469 0.0
C198 C 0.66846 0.9513 0.83204 0.0
C199 C 0.67189 0.9546 0.86814 0.0
N200 N 0.70378 0.97579 0.87558 0.0
N201 N 0.69796 0.97055 0.81674 0.0
C202 C 0.71914 0.98525 0.84389 0.0
H203 H 0.64606 0.93524 0.8177 0.0
Co204 Co 0.70464 0.96823 0.7689 0.0
C205 C 0.75467 0.04189 0.75958 0.0
O206 O 0.73203 0.04964 0.75284 0.0
N207 N 0.7114 0.96472 0.72054 0.0
C208 C 0.72252 0.97505 0.6631 0.0
C209 C 0.71941 0.98756 0.69485 0.0
C210 C 0.70945 0.93847 0.70363 0.0
N211 N 0.71623 0.94414 0.66873 0.0
O212 O 0.7301 0.9473 0.78151 0.0
H213 H 0.72214 1.01157 0.69858 0.0
H214 H 0.70358 0.9157 0.71665 0.0
O215 O 0.74632 1.01214 0.76777 0.0
C216 C 0.71131 0.91674 0.78858 0.0
O217 O 0.67963 0.90363 0.78222 0.0
N218 N 0.67552 0.98498 0.75844 0.0
C219 C 0.62123 0.99489 0.75156 0.0
C220 C 0.64612 1.01255 0.77664 0.0
C221 C 0.67261 1.00686 0.78004 0.0
C222 C 0.65125 0.96741 0.73414 0.0
C223 C 0.62442 0.97237 0.72986 0.0
H224 H 0.6903 1.01942 0.80101 0.0
H225 H 0.65138 0.94787 0.71917 0.0
H226 H 0.74539 1.00134 0.84056 0.0
H227 H 0.65241 0.94231 0.88746 0.0
H228 H 0.72833 0.98751 0.63775 0.0
H229 H 0.6448 0.03008 0.7942 0.0
H230 H 0.60536 0.95723 0.711 0.0
C231 C 0.72382 0.66027 0.99347 0.0
C232 C 0.72089 0.66148 0.02947 0.0
N233 N 0.73706 0.69329 0.03969 0.0
N234 N 0.74131 0.69113 0.9807 0.0
C235 C 0.74974 0.71075 0.00956 0.0
H236 H 0.71466 0.63817 0.97763 0.0
Co237 Co 0.75497 0.69964 0.93397 0.0
C238 C 0.74098 0.75804 0.94329 0.0
O239 O 0.72634 0.75121 0.97431 0.0
N240 N 0.769 0.70741 0.88707 0.0
C241 C 0.77279 0.71954 0.82972 0.0
C242 C 0.75592 0.7165 0.86053 0.0
C243 C 0.79345 0.70468 0.87174 0.0
N244 N 0.79639 0.71206 0.83685 0.0
O245 O 0.80014 0.72606 0.95094 0.0
H246 H 0.73515 0.72032 0.86332 0.0
H247 H 0.80898 0.69761 0.88586 0.0
O248 O 0.75061 0.73916 0.93022 0.0
C249 C 0.81346 0.70893 0.95903 0.0
O250 O 0.797 0.67715 0.95252 0.0
N251 N 0.71082 0.67138 0.91869 0.0
C252 C 0.6465 0.61859 0.90916 0.0
C253 C 0.65232 0.64739 0.92673 0.0
C254 C 0.68464 0.67361 0.93101 0.0
C255 C 0.70552 0.64405 0.9004 0.0
C256 C 0.67359 0.61761 0.89492 0.0
H257 H 0.6886 0.69448 0.94664 0.0
H258 H 0.7263 0.64184 0.89179 0.0
H259 H 0.76548 0.73719 0.00848 0.0
H260 H 0.70868 0.64037 0.0468 0.0
H261 H 0.76762 0.72606 0.80395 0.0
H262 H 0.63212 0.64916 0.93821 0.0
H263 H 0.67032 0.59573 0.8816 0.0
C264 C 0.09814 0.74052 0.16714 0.0
C265 C 0.09483 0.7402 0.20324 0.0
N266 N 0.07128 0.74764 0.21084 0.0
N267 N 0.07661 0.74782 0.152 0.0
C268 C 0.06047 0.75206 0.17923 0.0
H269 H 0.11563 0.73639 0.15267 0.0
Co270 Co 0.07795 0.7559 0.10409 0.0
C271 C 1.0039 0.72766 0.09272 0.0
O272 O 0.99883 0.69852 0.08384 0.0
N273 N 0.08056 0.76523 0.05536 0.0
C274 C 0.0718 0.76178 0.99701 0.0
C275 C 0.05981 0.74666 0.02913 0.0
C276 C 0.10468 0.7917 0.03844 0.0
N277 N 0.09988 0.79014 0.00313 0.0
O278 O 0.09628 0.80229 0.11604 0.0
H279 H 0.03801 0.72295 0.03271 0.0
H280 H 0.12604 0.81136 0.05135 0.0
O281 O 0.03265 0.7503 0.10277 0.0
C282 C 0.12727 0.81653 0.12212 0.0
O283 O 0.14268 0.80031 0.11508 0.0
N284 N 0.06386 0.71041 0.09472 0.0
C285 C 0.05625 0.6471 0.08864 0.0
C286 C 0.03746 0.65345 0.11294 0.0
C287 C 0.04204 0.68524 0.11601 0.0
C288 C 0.08293 0.70475 0.07164 0.0
C289 C 0.07908 0.67336 0.06767 0.0
H290 H 1.0284 0.68976 0.13616 0.0
H291 H 0.10245 0.72497 0.05715 0.0
H292 H 0.04216 0.75943 0.17604 0.0
H293 H 0.10861 0.7348 0.22245 0.0
H294 H 0.06099 0.75257 0.97118 0.0
H295 H 1.01971 0.63416 0.12999 0.0
H296 H 0.0951 0.67013 0.04952 0.0
C297 C 0.39075 0.08815 0.33224 0.0
C298 C 0.38816 0.0821 0.36796 0.0
N299 N 0.35645 0.06033 0.3754 0.0
N300 N 0.36091 0.06997 0.31711 0.0
C301 C 0.34029 0.0535 0.34409 0.0
H302 H 0.41291 0.10497 0.31802 0.0
Co303 Co 0.35402 0.07343 0.2695 0.0
C304 C 0.30378 1.00011 0.25804 0.0
O305 O 0.3264 0.99272 0.2498 0.0
N306 N 0.3472 0.07809 0.22142 0.0
C307 C 0.33625 0.06917 0.16376 0.0
C308 C 0.33935 0.05592 0.19499 0.0
C309 C 0.34908 0.1047 0.20546 0.0
N310 N 0.34239 0.09988 0.17045 0.0
O311 O 0.32894 0.09448 0.28333 0.0
H312 H 0.33678 0.03191 0.1978 0.0
H313 H 0.35491 0.12715 0.21922 0.0
O314 O 0.31212 0.02959 0.26757 0.0
C315 C 0.34822 0.12482 0.29103 0.0
O316 O 0.37984 0.13736 0.28483 0.0
N317 N 0.38283 0.05662 0.2579 0.0
C318 C 0.43722 0.047 0.25074 0.0
C319 C 0.41194 0.02849 0.27503 0.0
C320 C 0.3854 0.03402 0.2786 0.0
C321 C 0.40736 0.07486 0.23419 0.0
C322 C 0.43428 0.07007 0.22977 0.0
H323 H 0.36744 0.02083 0.29909 0.0
H324 H 0.40739 0.09483 0.21995 0.0
H325 H 0.3141 0.03696 0.34085 0.0
H326 H 0.40797 0.09339 0.38712 0.0
H327 H 0.33063 0.05736 0.13802 0.0
H328 H 0.41307 1.01047 0.29197 0.0
H329 H 0.45361 0.08578 0.2115 0.0
C330 C 0.33632 0.38176 0.49586 0.0
C331 C 0.33905 0.38 0.53183 0.0
N332 N 0.32216 0.34809 0.54147 0.0
N333 N 0.31831 0.35111 0.48257 0.0
C334 C 0.30929 0.33109 0.51111 0.0
H335 H 0.34606 0.40411 0.48043 0.0
Co336 Co 0.30492 0.34331 0.43567 0.0
C337 C 0.31877 0.2849 0.44402 0.0
O338 O 0.33269 0.29118 0.47546 0.0
N339 N 0.29117 0.33622 0.38859 0.0
C340 C 0.29007 0.3285 0.3303 0.0
C341 C 0.30652 0.33082 0.36129 0.0
C342 C 0.26529 0.33668 0.37366 0.0
N343 N 0.26415 0.33206 0.33832 0.0
O344 O 0.25966 0.31656 0.45219 0.0
H345 H 0.32862 0.32918 0.36372 0.0
H346 H 0.24804 0.34119 0.38805 0.0
O347 O 0.30936 0.30394 0.43095 0.0
C348 C 0.2463 0.33356 0.46064 0.0
O349 O 0.26268 0.36539 0.45445 0.0
N350 N 0.34921 0.37191 0.42101 0.0
C351 C 0.4136 0.42457 0.41201 0.0
C352 C 0.40768 0.3956 0.42919 0.0
C353 C 0.37531 0.36941 0.43315 0.0
C354 C 0.35463 0.39954 0.40327 0.0
C355 C 0.38662 0.42591 0.398 0.0
H356 H 0.37125 0.3483 0.44837 0.0
H357 H 0.33391 0.40194 0.39482 0.0
H358 H 0.29309 0.30472 0.50967 0.0
H359 H 0.35167 0.40078 0.54959 0.0
H360 H 0.29653 0.32447 0.30396 0.0
H361 H 0.42784 0.39365 0.44054 0.0
H362 H 0.39005 0.44797 0.38499 0.0
C363 C 0.96197 0.3025 0.66769 0.0
C364 C 0.96767 0.30697 0.70342 0.0
N365 N 0.99236 0.30133 0.71149 0.0
N366 N 0.98318 0.29443 0.65317 0.0
C367 C 1.00121 0.29344 0.68054 0.0
H368 H 0.94352 0.30495 0.65299 0.0
Co369 Co 0.98152 0.28526 0.60545 0.0
C370 C 0.05564 0.31352 0.59418 0.0
O371 O 0.06068 0.34256 0.58492 0.0
N372 N 0.97865 0.27499 0.5569 0.0
C373 C 0.98734 0.27789 0.49859 0.0
C374 C 0.99945 0.29321 0.53062 0.0
C375 C 0.95436 0.24848 0.54011 0.0
N376 N 0.9591 0.24973 0.5048 0.0
O377 O 0.96333 0.23914 0.61836 0.0
H378 H 1.02132 0.31691 0.53406 0.0
H379 H 0.93287 0.22908 0.55309 0.0
O380 O 1.02691 0.29096 0.60431 0.0
C381 C 0.93232 0.22504 0.62416 0.0
O382 O 0.91704 0.24128 0.61658 0.0
N383 N 0.99541 0.33052 0.59505 0.0
C384 C 1.00173 0.39325 0.58851 0.0
C385 C 1.02131 0.38769 0.6125 0.0
C386 C 1.01733 0.35617 0.61586 0.0
C387 C 0.97584 0.3355 0.57199 0.0
C388 C 0.97902 0.36659 0.56783 0.0
H389 H 0.03128 0.35218 0.6361 0.0
H390 H 0.95643 0.31496 0.55769 0.0
H391 H 1.02055 0.28745 0.67781 0.0
H392 H 0.95443 0.31351 0.72215 0.0
H393 H 0.99812 0.28688 0.47273 0.0
H394 H 0.03849 0.40713 0.62986 0.0
H395 H 0.96311 0.36944 0.54912 0.0
C396 C 0.20699 0.31339 0.32128 0.0
C397 C 0.24069 0.332 0.31399 0.0
C398 C 0.18374 0.31255 0.29728 0.0
C399 C 0.19471 0.33167 0.26594 0.0
C400 C 0.22885 0.35102 0.25889 0.0
C401 C 0.25145 0.35051 0.2828 0.0
C402 C 0.14752 0.2909 0.30517 0.0
C403 C 0.24151 0.37249 0.2263 0.0
C404 C 0.13873 0.31131 0.18599 0.0
C405 C 0.12692 0.33311 0.19047 0.0
C406 C 0.16005 0.30982 0.21102 0.0
C407 C 0.17055 0.3315 0.24044 0.0
C408 C 0.15873 0.35371 0.24492 0.0
C409 C 0.13658 0.35385 0.22008 0.0
C410 C 0.17139 0.28517 0.20593 0.0
C411 C 0.17014 0.37786 0.27537 0.0
H412 H 0.19892 0.29894 0.34541 0.0
H413 H 0.27763 0.3651 0.2776 0.0
H414 H 0.13555 0.30605 0.30713 0.0
H415 H 0.13535 0.27316 0.28314 0.0
H416 H 0.14313 0.27692 0.33027 0.0
H417 H 0.26884 0.38705 0.22551 0.0
H418 H 0.23264 0.35708 0.20205 0.0
H419 H 0.23183 0.38972 0.2255 0.0
H420 H 0.13088 0.29517 0.16309 0.0
H421 H 0.12753 0.37088 0.22309 0.0
H422 H 0.16613 0.26987 0.23012 0.0
H423 H 0.19841 0.29821 0.20174 0.0
H424 H 0.15924 0.26867 0.1829 0.0
H425 H 0.16422 0.36454 0.301 0.0
H426 H 0.15862 0.39353 0.27493 0.0
H427 H 0.19729 0.39404 0.27427 0.0
C428 C 0.85657 0.12802 0.34765 0.0
C429 C 0.82284 0.11517 0.3531 0.0
C430 C 0.87966 0.1492 0.37263 0.0
C431 C 0.86861 0.15844 0.40311 0.0
C432 C 0.83447 0.14565 0.40854 0.0
C433 C 0.81194 0.12373 0.38365 0.0
C434 C 0.91579 0.16163 0.36645 0.0
C435 C 0.82181 0.15567 0.44019 0.0
C436 C 0.92325 0.193 0.4843 0.0
C437 C 0.93715 0.22688 0.47893 0.0
C438 C 0.90149 0.17036 0.45935 0.0
C439 C 0.89274 0.18204 0.42899 0.0
C440 C 0.90658 0.21632 0.42366 0.0
C441 C 0.92905 0.23837 0.44851 0.0
C442 C 0.88792 0.13403 0.46542 0.0
C443 C 0.89713 0.22967 0.39215 0.0
H444 H 0.86475 0.12105 0.32403 0.0
H445 H 0.78578 0.11395 0.38745 0.0
H446 H 0.92924 0.18879 0.36355 0.0
H447 H 0.92646 0.15577 0.38967 0.0
H448 H 0.92012 0.15074 0.34234 0.0
H449 H 0.79453 0.1438 0.4402 0.0
H450 H 0.82964 0.14903 0.4651 0.0
H451 H 0.8325 0.18278 0.44033 0.0
H452 H 0.92986 0.18435 0.50783 0.0
H453 H 0.93963 0.26464 0.44478 0.0
H454 H 0.89321 0.12299 0.44212 0.0
H455 H 0.86078 0.12137 0.46839 0.0
H456 H 0.89849 0.12914 0.48945 0.0
H457 H 0.90328 0.22153 0.36715 0.0
H458 H 0.9098 0.25699 0.39222 0.0
H459 H 0.87013 0.2198 0.39211 0.0
C460 C 0.74227 0.82121 0.54711 0.0
C461 C 0.72188 0.81146 0.51708 0.0
C462 C 0.74151 0.84301 0.57197 0.0
C463 C 0.71976 0.85525 0.56669 0.0
C464 C 0.69909 0.8455 0.53646 0.0
C465 C 0.70044 0.82374 0.51198 0.0
C466 C 0.76406 0.85304 0.60381 0.0
C467 C 0.67545 0.85793 0.53008 0.0
C468 C 0.69634 0.88777 0.64687 0.0
C469 C 0.71685 0.92186 0.64295 0.0
C470 C 0.69692 0.86578 0.62214 0.0
C471 C 0.7186 0.87823 0.59286 0.0
C472 C 0.73932 0.91261 0.58869 0.0
C473 C 0.73815 0.93402 0.61378 0.0
C474 C 0.67432 0.82925 0.62731 0.0
C475 C 0.7629 0.92674 0.55788 0.0
H476 H 0.7592 0.81215 0.5509 0.0
H477 H 0.6843 0.81592 0.4891 0.0
H478 H 0.78044 0.88016 0.60418 0.0
H479 H 0.74934 0.84616 0.62857 0.0
H480 H 0.77957 0.84134 0.60397 0.0
H481 H 0.66112 0.84803 0.50519 0.0
H482 H 0.65798 0.85089 0.55258 0.0
H483 H 0.68915 0.8852 0.52862 0.0
H484 H 0.67951 0.87829 0.66908 0.0
H485 H 0.75435 0.96031 0.61091 0.0
H486 H 0.68901 0.8168 0.62959 0.0
H487 H 0.65798 0.81862 0.6039 0.0
H488 H 0.65878 0.82361 0.65139 0.0
H489 H 0.78041 0.91739 0.55833 0.0
H490 H 0.77719 0.95407 0.55837 0.0
H491 H 0.74916 0.91866 0.53247 0.0
C492 C 0.94291 0.72817 0.71649 0.0
C493 C 0.93071 0.7073 0.68693 0.0
C494 C 0.92152 0.72932 0.74161 0.0
C495 C 0.88711 0.70905 0.73705 0.0
C496 C 0.87461 0.68784 0.70734 0.0
C497 C 0.89659 0.68725 0.68261 0.0
C498 C 0.93572 0.75239 0.77288 0.0
C499 C 0.83804 0.66574 0.70172 0.0
C500 C 0.8316 0.68998 0.81712 0.0
C501 C 0.81957 0.71165 0.8122 0.0
C502 C 0.85375 0.68897 0.79294 0.0
C503 C 0.86412 0.7102 0.76321 0.0
C504 C 0.85231 0.73232 0.75824 0.0
C505 C 0.83014 0.73275 0.78279 0.0
C506 C 0.86577 0.66497 0.79901 0.0
C507 C 0.86303 0.75548 0.72694 0.0
H508 H 0.96924 0.74403 0.71969 0.0
H509 H 0.88704 0.67074 0.6601 0.0
H510 H 0.92675 0.7702 0.77276 0.0
H511 H 0.92729 0.7383 0.79801 0.0
H512 H 0.96307 0.76634 0.77268 0.0
H513 H 0.83235 0.65055 0.67733 0.0
H514 H 0.82707 0.64908 0.72479 0.0
H515 H 0.82594 0.68078 0.69975 0.0
H516 H 0.8232 0.67334 0.83952 0.0
H517 H 0.82131 0.74989 0.77917 0.0
H518 H 0.89305 0.67837 0.80057 0.0
H519 H 0.85856 0.64767 0.77631 0.0
H520 H 0.8557 0.65049 0.82374 0.0
H521 H 0.89022 0.77141 0.72694 0.0
H522 H 0.85182 0.77143 0.72717 0.0
H523 H 0.85607 0.7412 0.70185 0.0
C524 C 0.24705 0.9173 0.8835 0.0
C525 C 0.23627 0.9261 0.85302 0.0
C526 C 0.2244 0.89508 0.90803 0.0
C527 C 0.19028 0.88222 0.9023 0.0
C528 C 0.17935 0.8917 0.8719 0.0
C529 C 0.20254 0.91321 0.84729 0.0
C530 C 0.23694 0.88484 0.93964 0.0
C531 C 0.14323 0.87918 0.86541 0.0
C532 C 0.12985 0.80189 0.94681 0.0
C533 C 0.12159 0.81314 0.97729 0.0
C534 C 0.15234 0.82415 0.92219 0.0
C535 C 0.16604 0.85838 0.92784 0.0
C536 C 0.15707 0.8698 0.95821 0.0
C537 C 0.13528 0.84697 0.9829 0.0
C538 C 0.16201 0.81108 0.89061 0.0
C539 C 0.1705 0.90607 0.96461 0.0
H540 H 0.2732 0.92711 0.8875 0.0
H541 H 0.19445 0.92036 0.82373 0.0
H542 H 0.2289 0.8912 0.96458 0.0
H543 H 0.22634 0.85775 0.93945 0.0
H544 H 0.26422 0.89681 0.93991 0.0
H545 H 0.13898 0.89022 0.84137 0.0
H546 H 0.12989 0.85204 0.86221 0.0
H547 H 0.13236 0.8848 0.88862 0.0
H548 H 0.11942 0.77565 0.94289 0.0
H549 H 0.12854 0.85543 0.00647 0.0
H550 H 0.189 0.82093 0.89085 0.0
H551 H 0.15605 0.81946 0.86565 0.0
H552 H 0.14933 0.78376 0.89034 0.0
H553 H 0.19762 0.91877 0.9679 0.0
H554 H 0.15971 0.91075 0.98859 0.0
H555 H 0.16535 0.91726 0.94134 0.0
C556 C 0.31833 0.22483 0.04959 0.0
C557 C 0.33891 0.23428 0.0198 0.0
C558 C 0.31888 0.20322 0.07486 0.0
C559 C 0.34062 0.1909 0.0702 0.0
C560 C 0.36169 0.20057 0.04036 0.0
C561 C 0.36054 0.22213 0.01548 0.0
C562 C 0.29593 0.19328 0.10629 0.0
C563 C 0.38535 0.18806 0.03467 0.0
C564 C 0.36239 0.15674 0.15028 0.0
C565 C 0.3419 0.12275 0.14543 0.0
C566 C 0.36222 0.17926 0.12601 0.0
C567 C 0.34098 0.16744 0.09627 0.0
C568 C 0.32014 0.13318 0.09129 0.0
C569 C 0.3209 0.11124 0.11593 0.0
C570 C 0.3849 0.21566 0.13205 0.0
C571 C 0.29701 0.1197 0.05997 0.0
H572 H 0.3013 0.23383 0.0528 0.0
H573 H 0.37685 0.22977 0.99279 0.0
H574 H 0.27908 0.16624 0.10615 0.0
H575 H 0.31027 0.19957 0.13133 0.0
H576 H 0.28091 0.20552 0.1063 0.0
H577 H 0.40043 0.19838 0.01035 0.0
H578 H 0.40213 0.19452 0.05779 0.0
H579 H 0.37153 0.16083 0.0325 0.0
H580 H 0.37898 0.16574 0.17277 0.0
H581 H 0.30468 0.08502 0.11236 0.0
H582 H 0.37036 0.22831 0.13385 0.0
H583 H 0.40191 0.22652 0.10923 0.0
H584 H 0.39974 0.22081 0.15665 0.0
H585 H 0.27989 0.12952 0.06008 0.0
H586 H 0.28228 0.09238 0.06008 0.0
H587 H 0.3112 0.12781 0.03489 0.0
C588 C 0.08714 0.49467 0.08237 0.0
C589 C 0.05856 0.46364 0.07919 0.0
C590 C 0.08555 0.52378 0.08373 0.0
C591 C 0.05463 0.52211 0.08168 0.0
C592 C 1.02566 0.49095 0.07824 0.0
C593 C 1.02796 0.46216 0.07703 0.0
C594 C 0.1171 0.5564 0.08728 0.0
C595 C 0.99219 0.48801 0.07599 0.0
C596 C 0.05061 0.59607 0.11762 0.0
C597 C 0.05371 0.61402 0.08663 0.0
C598 C 0.05013 0.56587 0.11632 0.0
C599 C 0.05279 0.55307 0.08324 0.0
C600 C 0.05522 0.57068 0.0518 0.0
C601 C 0.05568 0.60085 0.05387 0.0
C602 C 0.04766 0.54806 0.15052 0.0
C603 C 0.05794 0.55793 0.01595 0.0
H604 H 0.111 0.49634 0.08329 0.0
H605 H 1.00568 0.4384 0.07486 0.0
H606 H 0.11992 0.57233 0.06428 0.0
H607 H 0.11622 0.56937 0.11148 0.0
H608 H 0.13916 0.55353 0.08881 0.0
H609 H 0.97206 0.46208 0.07295 0.0
H610 H 0.98755 0.49842 0.10025 0.0
H611 H 0.99138 0.50247 0.05315 0.0
H612 H 0.04957 0.60612 0.14314 0.0
H613 H 0.05764 0.61421 0.02971 0.0
H614 H 0.07046 0.5469 0.15459 0.0
H615 H 1.02686 0.52235 0.14914 0.0
H616 H 0.04404 0.56032 0.17388 0.0
H617 H 0.08087 0.55664 0.01471 0.0
H618 H 0.05822 0.57376 0.9939 0.0
H619 H 0.03702 0.5326 0.01184 0.0
C620 C 0.48221 0.04121 0.28041 0.0
C621 C 0.46762 0.04423 0.24914 0.0
C622 C 0.51193 0.04072 0.27961 0.0
C623 C 0.52768 0.04333 0.24676 0.0
C624 C 0.51278 0.04569 0.21504 0.0
C625 C 0.48304 0.04615 0.21661 0.0
C626 C 0.52695 0.0383 0.31409 0.0
C627 C 0.52858 0.04834 0.17942 0.0
C628 C 0.62051 0.07728 0.24704 0.0
C629 C 0.62269 0.04861 0.24402 0.0
C630 C 0.58987 0.07586 0.24799 0.0
C631 C 0.56041 0.04501 0.24574 0.0
C632 C 0.56235 1.01596 0.24264 0.0
C633 C 0.59338 1.01809 0.24181 0.0
C634 C 0.58903 0.10748 0.25121 0.0
C635 C 0.53161 0.98257 0.24026 0.0
H636 H 0.47092 0.04026 0.30576 0.0
H637 H 0.47186 0.0481 0.19225 0.0
H638 H 0.53176 1.01747 0.31303 0.0
H639 H 0.55098 0.06108 0.31831 0.0
H640 H 0.51087 0.03476 0.33723 0.0
H641 H 0.51326 0.04866 0.15712 0.0
H642 H 0.55294 0.07123 0.17837 0.0
H643 H 0.53288 0.02738 0.17558 0.0
H644 H 0.64287 0.10106 0.24805 0.0
H645 H 0.59467 0.99575 0.2398 0.0
H646 H 0.57493 0.10668 0.27516 0.0
H647 H 0.57623 0.11037 0.22795 0.0
H648 H 0.61408 0.12945 0.25299 0.0
H649 H 0.51629 0.97811 0.26426 0.0
H650 H 0.53724 0.96234 0.23767 0.0
H651 H 0.51663 0.98176 0.2171 0.0
C652 C 0.60004 0.58043 0.41148 0.0
C653 C 0.59865 0.60965 0.41323 0.0
C654 C 0.57114 0.54924 0.41047 0.0
C655 C 0.53986 0.54686 0.41219 0.0
C656 C 0.53821 0.57609 0.41447 0.0
C657 C 0.56737 0.6069 0.41436 0.0
C658 C 0.5741 0.51879 0.40731 0.0
C659 C 0.5055 0.57486 0.41697 0.0
C660 C 0.46098 0.47119 0.37969 0.0
C661 C 0.44719 0.45433 0.41144 0.0
C662 C 0.49175 0.50053 0.37936 0.0
C663 C 0.50875 0.51396 0.41168 0.0
C664 C 0.495 0.49679 0.44378 0.0
C665 C 0.46465 0.46705 0.4432 0.0
C666 C 0.50578 0.51746 0.34443 0.0
C667 C 0.51169 0.51051 0.47895 0.0
H668 H 0.62373 0.58175 0.41105 0.0
H669 H 0.56541 0.62889 0.41461 0.0
H670 H 0.56305 0.50287 0.43087 0.0
H671 H 0.56023 0.50429 0.38373 0.0
H672 H 0.6001 0.52475 0.4049 0.0
H673 H 0.50839 0.59967 0.42042 0.0
H674 H 0.49085 0.56358 0.39262 0.0
H675 H 0.49114 0.55921 0.43968 0.0
H676 H 0.44762 0.4614 0.35508 0.0
H677 H 0.45389 0.45434 0.46787 0.0
H678 H 0.53147 0.52266 0.34145 0.0
H679 H 0.50651 0.54142 0.34374 0.0
H680 H 0.49106 0.50246 0.32145 0.0
H681 H 0.5373 0.51518 0.47842 0.0
H682 H 0.49843 0.49368 0.50136 0.0
H683 H 0.51307 0.53446 0.48395 0.0
C684 C 1.00465 0.56495 0.61357 0.0
C685 C 1.00629 0.58022 0.581 0.0
C686 C 1.00532 0.53533 0.61519 0.0
C687 C 1.00767 0.52042 0.58349 0.0
C688 C 1.00998 0.53601 0.55059 0.0
C689 C 1.00923 0.56559 0.54974 0.0
C690 C 1.00294 0.51968 0.65084 0.0
C691 C 1.01242 0.521 0.51613 0.0
C692 C 0.03387 0.45547 0.58873 0.0
C693 C 1.00351 0.42597 0.58667 0.0
C694 C 0.03565 0.48631 0.58769 0.0
C695 C 1.00637 0.48788 0.58459 0.0
C696 C 0.97568 0.45823 0.58248 0.0
C697 C 0.97462 0.42777 0.58357 0.0
C698 C 0.06888 0.51727 0.58988 0.0
C699 C 0.94383 0.45866 0.57929 0.0
H700 H 1.00277 0.57616 0.63792 0.0
H701 H 1.00997 0.57675 0.52436 0.0
H702 H 0.98024 0.49518 0.65196 0.0
H703 H 1.02413 0.51573 0.65467 0.0
H704 H 1.00244 0.53492 0.67311 0.0
H705 H 1.01569 0.53694 0.49295 0.0
H706 H 0.03343 0.51645 0.51713 0.0
H707 H 0.98976 0.49684 0.51206 0.0
H708 H 0.05637 0.45446 0.5908 0.0
H709 H 0.95097 0.40526 0.58265 0.0
H710 H 0.06964 0.53222 0.61302 0.0
H711 H 0.07306 0.53248 0.56584 0.0
H712 H 0.08933 0.51193 0.59236 0.0
H713 H 0.94084 0.47143 0.60251 0.0
H714 H 0.92202 0.4335 0.57764 0.0
H715 H 0.94439 0.47259 0.55529 0.0
C716 C 0.46513 0.02417 0.74117 0.0
C717 C 0.43587 0.99357 0.74273 0.0
C718 C 0.49621 0.02642 0.74239 0.0
C719 C 0.49827 0.9974 0.74514 0.0
C720 C 0.46885 0.96647 0.7466 0.0
C721 C 0.43816 0.96494 0.74535 0.0
C722 C 0.5269 0.0599 0.74087 0.0
C723 C 0.46977 0.93486 0.74935 0.0
C724 C 0.57611 0.99678 0.71695 0.0
C725 C 0.59099 0.99797 0.7497 0.0
C726 C 0.54644 0.99737 0.71502 0.0
C727 C 0.53105 0.99918 0.74659 0.0
C728 C 0.5463 1.00116 0.77967 0.0
C729 C 0.57595 1.0005 0.78083 0.0
C730 C 0.53119 0.99536 0.67918 0.0
C731 C 0.5308 1.00303 0.81399 0.0
H732 H 0.46374 0.04647 0.73945 0.0
H733 H 0.41584 0.94111 0.74586 0.0
H734 H 0.54186 0.06405 0.76516 0.0
H735 H 0.54228 0.06114 0.71795 0.0
H736 H 0.52121 0.08009 0.73845 0.0
H737 H 0.44474 0.9128 0.75039 0.0
H738 H 0.48304 0.93247 0.72626 0.0
H739 H 0.48346 0.93529 0.77353 0.0
H740 H 0.58763 0.99526 0.69269 0.0
H741 H 0.58681 1.00092 0.80633 0.0
H742 H 0.52685 1.01633 0.67567 0.0
H743 H 0.50689 0.97245 0.67742 0.0
H744 H 0.54688 0.99552 0.65706 0.0
H745 H 0.52588 0.02379 0.81313 0.0
H746 H 0.54661 1.00632 0.83735 0.0
H747 H 0.50677 0.98013 0.81766 0.0
C748 C 0.46024 0.46236 0.90733 0.0
C749 C 0.46156 0.43319 0.91098 0.0
C750 C 0.48916 0.4935 0.90596 0.0
C751 C 0.52039 0.49596 0.90933 0.0
C752 C 0.52198 0.46683 0.91351 0.0
C753 C 0.49281 0.43601 0.91366 0.0
C754 C 0.4863 0.52382 0.9007 0.0
C755 C 0.55462 0.46816 0.91784 0.0
C756 C 0.59985 0.57091 0.87693 0.0
C757 C 0.61297 0.58867 0.90844 0.0
C758 C 0.56919 0.54145 0.87657 0.0
C759 C 0.5515 0.52885 0.90867 0.0
C760 C 0.56453 0.54692 0.94049 0.0
C761 C 0.59485 0.5767 0.93991 0.0
C762 C 0.55597 0.52351 0.8419 0.0
C763 C 0.54707 0.53416 0.97545 0.0
H764 H 0.43659 0.46103 0.9057 0.0
H765 H 0.49477 0.41406 0.91539 0.0
H766 H 0.49674 0.54039 0.92394 0.0
H767 H 0.50077 0.53767 0.87715 0.0
H768 H 0.46037 0.51776 0.89701 0.0
H769 H 0.55165 0.44347 0.92258 0.0
H770 H 0.5698 0.47878 0.89371 0.0
H771 H 0.56847 0.48444 0.94042 0.0
H772 H 0.61365 0.5801 0.8525 0.0
H773 H 0.60504 0.59003 0.96445 0.0
H774 H 0.53037 0.51821 0.83767 0.0
H775 H 0.55522 0.49954 0.84268 0.0
H776 H 0.57124 0.53782 0.81892 0.0
H777 H 0.52147 0.52943 0.97369 0.0
H778 H 0.5598 0.5516 0.99761 0.0
H779 H 0.54558 0.51037 0.98178 0.0
C780 C 1.01703 0.28262 0.75723 0.0
C781 C 1.00639 0.30423 0.74611 0.0
C782 C 1.02919 0.28456 0.7918 0.0
C783 C 0.03095 0.30889 0.81537 0.0
C784 C 1.02064 0.331 0.80395 0.0
C785 C 1.00846 0.32833 0.76954 0.0
C786 C 0.03978 0.26049 0.80321 0.0
C787 C 1.02253 0.35762 0.82805 0.0
C788 C 0.03383 0.30728 0.91549 0.0
C789 C 0.06648 0.33181 0.92181 0.0
C790 C 1.02237 0.29731 0.88073 0.0
C791 C 0.04419 0.31227 0.85187 0.0
C792 C 0.07784 0.3349 0.8584 0.0
C793 C 0.08856 0.34439 0.89333 0.0
C794 C 0.98636 0.27286 0.87484 0.0
C795 C 0.102 0.35121 0.82844 0.0
H796 H 1.01511 0.26379 0.73918 0.0
H797 H 1.00073 0.34537 0.76075 0.0
H798 H 0.06583 0.27393 0.81209 0.0
H799 H 1.02476 0.24591 0.82614 0.0
H800 H 0.0372 0.24329 0.78156 0.0
H801 H 1.01338 0.37272 0.81503 0.0
H802 H 1.00775 0.34645 0.85233 0.0
H803 H 0.04837 0.37417 0.83652 0.0
H804 H 1.01677 0.29744 0.93749 0.0
H805 H 0.11405 0.36271 0.89829 0.0
H806 H 0.9832 0.25469 0.85417 0.0
H807 H 0.97372 0.28605 0.86535 0.0
H808 H 0.97407 0.25948 0.89956 0.0
H809 H 0.09903 0.3329 0.80805 0.0
H810 H 0.12791 0.3641 0.83792 0.0
H811 H 0.09714 0.36954 0.81542 0.0
C812 C 0.74285 1.0184 0.91665 0.0
C813 C 0.71773 0.98598 0.91042 0.0
C814 C 0.75263 0.03 0.9514 0.0
C815 C 0.7369 1.00856 0.98036 0.0
C816 C 0.71356 0.97509 0.974 0.0
C817 C 0.70426 0.96423 0.93908 0.0
C818 C 0.77781 0.06581 0.95713 0.0
C819 C 0.69639 0.95133 0.00407 0.0
C820 C 0.76633 0.03565 0.07506 0.0
C821 C 0.74533 0.04719 0.08574 0.0
C822 C 0.76426 0.02322 0.04062 0.0
C823 C 0.74045 0.02214 0.0167 0.0
C824 C 0.71899 0.03342 0.02764 0.0
C825 C 0.72174 0.04581 0.06196 0.0
C826 C 0.7876 1.01153 0.02973 0.0
C827 C 0.69295 0.03232 0.00314 0.0
H828 H 0.75336 0.03522 0.89453 0.0
H829 H 0.68546 0.9389 0.93422 0.0
H830 H 0.76519 0.07913 0.96621 0.0
H831 H 0.79565 0.06856 0.97804 0.0
H832 H 0.79154 0.0777 0.93243 0.0
H833 H 0.6828 0.92537 0.99481 0.0
H834 H 0.71433 0.95378 0.02472 0.0
H835 H 0.67854 0.9571 0.01671 0.0
H836 H 0.78477 0.03702 0.09336 0.0
H837 H 0.70514 0.0542 0.07039 0.0
H838 H 0.80247 0.02602 0.00668 0.0
H839 H 0.77352 0.98541 0.02122 0.0
H840 H 0.80456 1.01383 0.05155 0.0
H841 H 0.70461 0.04674 0.97879 0.0
H842 H 0.67841 0.04231 0.01576 0.0
H843 H 0.67578 1.00656 0.99487 0.0
C844 C 0.76513 0.73689 0.08522 0.0
C845 C 0.73962 0.70547 0.07538 0.0
C846 C 0.76706 0.74886 0.11986 0.0
C847 C 0.74309 0.72881 0.14516 0.0
C848 C 0.71771 0.69694 0.13553 0.0
C849 C 0.71614 0.68586 0.1008 0.0
C850 C 0.79426 0.7831 0.12915 0.0
C851 C 0.6917 0.6746 0.16177 0.0
C852 C 0.75006 0.73643 0.2448 0.0
C853 C 0.72673 0.74587 0.25199 0.0
C854 C 0.75822 0.73361 0.20968 0.0
C855 C 0.74302 0.74099 0.18147 0.0
C856 C 0.72224 0.754 0.18896 0.0
C857 C 0.714 0.75587 0.22421 0.0
C858 C 0.78033 0.71947 0.20286 0.0
C859 C 0.70618 0.76297 0.15972 0.0
H860 H 0.78364 0.75213 0.06598 0.0
H861 H 0.69594 0.66191 0.09348 0.0
H862 H 0.78354 0.79899 0.13472 0.0
H863 H 0.80721 0.78261 0.15356 0.0
H864 H 0.81254 0.79446 0.10743 0.0
H865 H 0.67482 0.64982 0.15057 0.0
H866 H 0.70347 0.67159 0.18591 0.0
H867 H 0.6768 0.68575 0.17009 0.0
H868 H 0.75979 0.72871 0.26649 0.0
H869 H 0.69634 0.76365 0.23009 0.0
H870 H 0.79752 0.73246 0.18069 0.0
H871 H 0.76501 0.69321 0.19516 0.0
H872 H 0.79484 0.7209 0.22677 0.0
H873 H 0.72403 0.77653 0.13823 0.0
H874 H 0.69597 0.77827 0.16968 0.0
H875 H 0.68573 0.74015 0.14801 0.0
C876 C 1.00541 0.68505 0.39569 0.0
C877 C 1.00116 0.70462 0.42072 0.0
C878 C 1.0166 0.69664 0.36146 0.0
C879 C 1.02364 0.72866 0.35188 0.0
C880 C 1.01941 0.74866 0.37699 0.0
C881 C 1.00834 0.73642 0.41131 0.0
C882 C 1.02116 0.67463 0.33563 0.0
C883 C 1.02648 0.78282 0.36755 0.0
C884 C 0.08202 0.75959 0.27441 0.0
C885 C 0.06 0.74932 0.24578 0.0
C886 C 0.07073 0.75563 0.3094 0.0
C887 C 0.03655 0.74106 0.31582 0.0
C888 C 1.01452 0.73341 0.28696 0.0
C889 C 1.02656 0.73767 0.25214 0.0
C890 C 0.09511 0.76439 0.33936 0.0
C891 C 0.97793 0.71813 0.29278 0.0
H892 H 1.00034 0.66066 0.40311 0.0
H893 H 1.00468 0.75141 0.43056 0.0
H894 H 1.00606 0.67071 0.31152 0.0
H895 H 0.04728 0.68658 0.32716 0.0
H896 H 1.01412 0.65022 0.3472 0.0
H897 H 1.02136 0.79499 0.38993 0.0
H898 H 0.05265 0.79832 0.35969 0.0
H899 H 1.01128 0.78167 0.34445 0.0
H900 H 0.10802 0.76943 0.26944 0.0
H901 H 1.00954 0.72983 0.23001 0.0
H902 H 0.09244 0.74148 0.35101 0.0
H903 H 0.09026 0.77762 0.36073 0.0
H904 H 0.12094 0.77993 0.33024 0.0
H905 H 0.96748 0.69199 0.30058 0.0
H906 H 0.96505 0.71903 0.26844 0.0
H907 H 0.97282 0.73078 0.31459 0.0
C908 C 0.31164 0.02202 0.57859 0.0
C909 C 0.29985 0.98856 0.58495 0.0
C910 C 0.31552 0.03399 0.54376 0.0
C911 C 0.3073 1.01187 0.5149 0.0
C912 C 0.29252 0.9777 0.52139 0.0
C913 C 0.289 0.96648 0.55638 0.0
C914 C 0.33108 0.07059 0.5379 0.0
C915 C 0.2831 0.95322 0.49145 0.0
C916 C 0.31166 0.04054 0.41961 0.0
C917 C 0.34333 0.04745 0.40991 0.0
C918 C 0.29951 0.0293 0.45392 0.0
C919 C 0.31948 0.02466 0.47874 0.0
C920 C 0.35132 0.03133 0.46884 0.0
C921 C 0.3628 0.04266 0.43461 0.0
C922 C 0.26553 0.02259 0.4637 0.0
C923 C 0.37329 0.02633 0.49434 0.0
H924 H 0.31992 0.03908 0.60068 0.0
H925 H 0.27906 0.94047 0.56139 0.0
H926 H 0.35711 0.08076 0.52974 0.0
H927 H 0.31831 0.07584 0.51631 0.0
H928 H 0.33062 0.08359 0.56232 0.0
H929 H 0.2673 0.92747 0.50067 0.0
H930 H 0.2699 0.95834 0.47024 0.0
H931 H 0.30574 0.95545 0.47955 0.0
H932 H 0.29673 0.0446 0.40061 0.0
H933 H 0.38707 0.04749 0.42696 0.0
H934 H 0.26712 0.03822 0.48654 0.0
H935 H 0.25 0.99659 0.47211 0.0
H936 H 0.25314 0.02745 0.44133 0.0
H937 H 0.37763 0.04146 0.5185 0.0
H938 H 0.39752 0.03303 0.4825 0.0
H939 H 0.36107 1.00019 0.50277 0.0
C940 C 0.29213 0.30505 0.58683 0.0
C941 C 0.31921 0.33541 0.57689 0.0
C942 C 0.28956 0.29275 0.62141 0.0
C943 C 0.31461 0.31137 0.64643 0.0
C944 C 0.34176 0.34213 0.63657 0.0
C945 C 0.3438 0.35357 0.60196 0.0
C946 C 0.26043 0.25975 0.63096 0.0
C947 C 0.36903 0.3629 0.66247 0.0
C948 C 0.3089 0.30578 0.74607 0.0
C949 C 0.33027 0.29385 0.75315 0.0
C950 C 0.30068 0.30874 0.71102 0.0
C951 C 0.31376 0.29892 0.6828 0.0
C952 C 0.33221 0.28331 0.6903 0.0
C953 C 0.34066 0.28142 0.72548 0.0
C954 C 0.2811 0.32567 0.70418 0.0
C955 C 0.34585 0.27166 0.66107 0.0
H956 H 0.27284 0.29101 0.56774 0.0
H957 H 0.36513 0.37666 0.59439 0.0
H958 H 0.2689 0.24192 0.63607 0.0
H959 H 0.2487 0.26165 0.65567 0.0
H960 H 0.24162 0.24979 0.60954 0.0
H961 H 0.38754 0.38696 0.65101 0.0
H962 H 0.35862 0.36761 0.68669 0.0
H963 H 0.38185 0.34955 0.67071 0.0
H964 H 0.30098 0.31537 0.7677 0.0
H965 H 0.35681 0.27174 0.73133 0.0
H966 H 0.26321 0.31349 0.6823 0.0
H967 H 0.29813 0.3515 0.69605 0.0
H968 H 0.26761 0.32601 0.72822 0.0
H969 H 0.32729 0.25913 0.63983 0.0
H970 H 0.3538 0.25452 0.67117 0.0
H971 H 0.36749 0.29318 0.64901 0.0
C972 C 0.24689 0.32392 0.89972 0.0
C973 C 0.26173 0.30524 0.90826 0.0
C974 C 0.22347 0.32486 0.92231 0.0
C975 C 0.21425 0.30645 0.95426 0.0
C976 C 0.22806 0.2864 0.96227 0.0
C977 C 0.25162 0.28611 0.93931 0.0
C978 C 0.20964 0.34674 0.91268 0.0
C979 C 0.21879 0.26609 0.99573 0.0
C980 C 0.18761 0.34321 0.02832 0.0
C981 C 0.15311 0.32516 0.02594 0.0
C982 C 0.20756 0.33642 0.00622 0.0
C983 C 0.19284 0.3109 0.98071 0.0
C984 C 0.15794 0.29144 0.9793 0.0
C985 C 0.13847 0.29876 0.00197 0.0
C986 C 0.24453 0.35774 0.00905 0.0
C987 C 0.14116 0.26391 0.9527 0.0
H988 H 0.25436 0.33877 0.87586 0.0
H989 H 0.26248 0.27119 0.94603 0.0
H990 H 0.18234 0.33261 0.91361 0.0
H991 H 0.21804 0.36701 0.9323 0.0
H992 H 0.21744 0.35769 0.88585 0.0
H993 H 0.22922 0.24946 0.99653 0.0
H994 H 0.22796 0.2826 0.01915 0.0
H995 H 0.19161 0.25107 0.99814 0.0
H996 H 0.19919 0.36358 0.04684 0.0
H997 H 0.11186 0.28492 0.99963 0.0
H998 H 0.25443 0.37212 0.98427 0.0
H999 H 0.25601 0.34222 0.01226 0.0
H1000 H 0.25215 0.37519 0.03171 0.0
H1001 H 0.14479 0.2744 0.92562 0.0
H1002 H 0.11429 0.24861 0.95771 0.0
H1003 H 0.1522 0.24785 0.95323 0.0
C1004 C 0.99355 0.24489 0.10434 0.0
C1005 C 0.98471 0.26501 0.08535 0.0
C1006 C 0.96964 0.2168 0.12277 0.0
C1007 C 0.93607 0.20843 0.12185 0.0
C1008 C 0.92688 0.22718 0.10019 0.0
C1009 C 0.95125 0.25531 0.08261 0.0
C1010 C 0.98071 0.19773 0.14548 0.0
C1011 C 0.89148 0.21907 0.0977 0.0
C1012 C 0.86366 0.12885 0.15868 0.0
C1013 C 0.85693 0.14031 0.19014 0.0
C1014 C 0.89051 0.15014 0.13688 0.0
C1015 C 0.91128 0.18351 0.14706 0.0
C1016 C 0.90582 0.19427 0.18017 0.0
C1017 C 0.8786 0.17273 0.20097 0.0
C1018 C 0.89514 0.13755 0.10183 0.0
C1019 C 0.92744 0.22929 0.19266 0.0
H1020 H 1.01939 0.25249 0.1071 0.0
H1021 H 0.94426 0.27078 0.06807 0.0
H1022 H 0.98032 0.20405 0.17376 0.0
H1023 H 0.96374 0.17086 0.14255 0.0
H1024 H 1.00609 0.20349 0.13875 0.0
H1025 H 0.88776 0.23317 0.07634 0.0
H1026 H 0.87501 0.1924 0.09266 0.0
H1027 H 0.88394 0.22499 0.12327 0.0
H1028 H 0.84664 0.10399 0.14984 0.0
H1029 H 0.87341 0.18173 0.2252 0.0
H1030 H 0.92151 0.14586 0.09727 0.0
H1031 H 0.88695 0.14769 0.08008 0.0
H1032 H 0.8807 0.11025 0.10029 0.0
H1033 H 0.95381 0.23665 0.19034 0.0
H1034 H 0.92232 0.23275 0.2206 0.0
H1035 H 0.92325 0.24613 0.17565 0.0
C1036 C 0.757 0.85011 0.32173 0.0
C1037 C 0.73806 0.84311 0.35266 0.0
C1038 C 0.76315 0.87715 0.29997 0.0
C1039 C 0.75044 0.89786 0.30969 0.0
C1040 C 0.73333 0.89202 0.34227 0.0
C1041 C 0.72701 0.86459 0.36299 0.0
C1042 C 0.78118 0.88208 0.26543 0.0
C1043 C 0.71976 0.91356 0.35427 0.0
C1044 C 0.77345 0.98094 0.26785 0.0
C1045 C 0.74502 0.97266 0.24799 0.0
C1046 C 0.7768 0.95658 0.2863 0.0
C1047 C 0.75132 0.92314 0.28451 0.0
C1048 C 0.72397 0.91454 0.26198 0.0
C1049 C 0.721 0.93935 0.24442 0.0
C1050 C 0.80631 0.96704 0.31 0.0
C1051 C 0.69644 0.8793 0.25852 0.0
H1052 H 0.76501 0.8332 0.31325 0.0
H1053 H 0.7122 0.85913 0.38678 0.0
H1054 H 0.76331 0.87408 0.24318 0.0
H1055 H 0.79945 0.90848 0.26126 0.0
H1056 H 0.79402 0.86765 0.26435 0.0
H1057 H 0.71037 0.90807 0.38191 0.0
H1058 H 0.739 0.93992 0.35258 0.0
H1059 H 0.69923 0.90971 0.33655 0.0
H1060 H 0.79184 1.00668 0.27129 0.0
H1061 H 0.6989 0.93281 0.22928 0.0
H1062 H 0.81612 0.95003 0.3072 0.0
H1063 H 0.7988 0.9661 0.33806 0.0
H1064 H 0.8263 0.9925 0.30408 0.0
H1065 H 0.70651 0.86272 0.25386 0.0
H1066 H 0.6793 0.87607 0.23654 0.0
H1067 H 0.68218 0.87146 0.2836 0.0
C1068 C 0.81413 0.71988 0.39654 0.0
C1069 C 0.79803 0.7369 0.40702 0.0
C1070 C 0.83758 0.71832 0.41858 0.0
C1071 C 0.8454 0.73422 0.45209 0.0
C1072 C 0.83029 0.75262 0.46218 0.0
C1073 C 0.80692 0.75377 0.4396 0.0
C1074 C 0.85296 0.69841 0.4066 0.0
C1075 C 0.8379 0.77013 0.49747 0.0
C1076 C 0.87189 0.69391 0.52241 0.0
C1077 C 0.90639 0.7134 0.52194 0.0
C1078 C 0.85195 0.70117 0.50082 0.0
C1079 C 0.86665 0.72867 0.4778 0.0
C1080 C 0.90144 0.74936 0.47824 0.0
C1081 C 0.92092 0.74153 0.50035 0.0
C1082 C 0.81507 0.67846 0.50162 0.0
C1083 C 0.91819 0.77897 0.45427 0.0
H1084 H 0.80772 0.70686 0.37144 0.0
H1085 H 0.79518 0.7675 0.44784 0.0
H1086 H 0.88017 0.71321 0.40888 0.0
H1087 H 0.84454 0.6766 0.42402 0.0
H1088 H 0.84644 0.68977 0.37876 0.0
H1089 H 0.82641 0.78573 0.50012 0.0
H1090 H 0.8287 0.75177 0.51923 0.0
H1091 H 0.86491 0.78582 0.50102 0.0
H1092 H 0.86035 0.67222 0.53911 0.0
H1093 H 0.94752 0.75656 0.49951 0.0
H1094 H 0.8065 0.66615 0.47551 0.0
H1095 H 0.80248 0.69272 0.50651 0.0
H1096 H 0.80734 0.65921 0.5224 0.0
H1097 H 0.91543 0.77072 0.42627 0.0
H1098 H 0.94486 0.79446 0.46029 0.0
H1099 H 0.90641 0.79428 0.45674 0.0
C1100 C 0.18033 0.86895 0.69985 0.0
C1101 C 0.20134 0.90186 0.69022 0.0
C1102 C 0.15332 0.84762 0.67861 0.0
C1103 C 0.14732 0.85916 0.64629 0.0
C1104 C 0.16734 0.89296 0.63743 0.0
C1105 C 0.19405 0.91399 0.65961 0.0
C1106 C 0.13257 0.81206 0.68967 0.0
C1107 C 0.16207 0.90642 0.6033 0.0
C1108 C 0.10908 0.78945 0.57908 0.0
C1109 C 0.07536 0.77832 0.58255 0.0
C1110 C 0.13291 0.81747 0.59735 0.0
C1111 C 0.12291 0.83469 0.62037 0.0
C1112 C 0.08901 0.82502 0.62195 0.0
C1113 C 0.06563 0.79702 0.60289 0.0
C1114 C 0.16867 0.82698 0.59417 0.0
C1115 C 0.0771 0.84254 0.64598 0.0
H1116 H 0.18593 0.85944 0.72342 0.0
H1117 H 0.21055 0.93925 0.65166 0.0
H1118 H 0.106 0.80404 0.68781 0.0
H1119 H 0.13725 0.79627 0.67149 0.0
H1120 H 0.13806 0.80783 0.71719 0.0
H1121 H 0.1754 0.93376 0.60322 0.0
H1122 H 0.17121 0.89801 0.58079 0.0
H1123 H 0.13549 0.8971 0.59872 0.0
H1124 H 0.11677 0.77508 0.56349 0.0
H1125 H 0.0396 0.78833 0.6062 0.0
H1126 H 0.17682 0.82075 0.61915 0.0
H1127 H 0.18433 0.8539 0.59006 0.0
H1128 H 0.17289 0.81401 0.57194 0.0
H1129 H 0.07782 0.83542 0.67388 0.0
H1130 H 0.05145 0.83614 0.63962 0.0
H1131 H 0.09337 0.86961 0.64405 0.0
C1132 C 0.30222 0.1919 0.82394 0.0
C1133 C 0.32082 0.19852 0.85514 0.0
C1134 C 0.29604 0.16494 0.802 0.0
C1135 C 0.30835 0.14391 0.8118 0.0
C1136 C 0.32507 0.14935 0.84464 0.0
C1137 C 0.33144 0.17673 0.86554 0.0
C1138 C 0.27845 0.16046 0.76719 0.0
C1139 C 0.33821 0.12747 0.85673 0.0
C1140 C 0.28517 0.0611 0.76893 0.0
C1141 C 0.31374 0.06938 0.74942 0.0
C1142 C 0.28188 0.08539 0.78763 0.0
C1143 C 0.30757 0.11877 0.78646 0.0
C1144 C 0.33512 0.12741 0.76431 0.0
C1145 C 0.33801 0.10267 0.74648 0.0
C1146 C 0.25213 0.0749 0.81088 0.0
C1147 C 0.36289 0.1626 0.76151 0.0
H1148 H 0.29456 0.20907 0.81538 0.0
H1149 H 0.34602 0.18191 0.88952 0.0
H1150 H 0.29659 0.16864 0.74524 0.0
H1151 H 0.26014 0.13414 0.76257 0.0
H1152 H 0.26574 0.17501 0.76606 0.0
H1153 H 0.34724 0.13263 0.88454 0.0
H1154 H 0.31884 0.10118 0.8546 0.0
H1155 H 0.3589 0.13131 0.83935 0.0
H1156 H 0.26656 0.03539 0.77187 0.0
H1157 H 0.36021 0.10922 0.73157 0.0
H1158 H 0.24252 0.09207 0.80805 0.0
H1159 H 0.2593 0.07555 0.83905 0.0
H1160 H 0.2321 0.04955 0.80456 0.0
H1161 H 0.35307 0.17938 0.75678 0.0
H1162 H 0.3803 0.16591 0.73982 0.0
H1163 H 0.3768 0.17009 0.78686 0.0
C1164 C 0.76037 0.79466 0.88919 0.0
C1165 C 0.74299 0.78559 0.92141 0.0
C1166 C 0.75995 0.81849 0.86678 0.0
C1167 C 0.74178 0.83389 0.87671 0.0
C1168 C 0.7254 0.8259 0.90991 0.0
C1169 C 0.72623 0.80198 0.93178 0.0
C1170 C 0.77796 0.82627 0.83183 0.0
C1171 C 0.70571 0.84159 0.92171 0.0
C1172 C 0.75074 0.91031 0.8292 0.0
C1173 C 0.72286 0.89632 0.80716 0.0
C1174 C 0.75799 0.89035 0.85119 0.0
C1175 C 0.73694 0.85562 0.85106 0.0
C1176 C 0.70973 0.84147 0.82755 0.0
C1177 C 0.70306 0.86188 0.80608 0.0
C1178 C 0.78732 0.90653 0.87569 0.0
C1179 C 0.68667 0.80468 0.82612 0.0
H1180 H 0.77395 0.78273 0.88108 0.0
H1181 H 0.71283 0.79543 0.95661 0.0
H1182 H 0.75991 0.8175 0.80972 0.0
H1183 H 0.79398 0.85327 0.82871 0.0
H1184 H 0.79332 0.8145 0.82935 0.0
H1185 H 0.69667 0.83487 0.94937 0.0
H1186 H 0.72086 0.86878 0.91984 0.0
H1187 H 0.68418 0.83362 0.90392 0.0
H1188 H 0.766 0.93687 0.83051 0.0
H1189 H 0.68155 0.85075 0.78902 0.0
H1190 H 0.8023 0.89437 0.87347 0.0
H1191 H 0.77873 0.90373 0.90354 0.0
H1192 H 0.80325 0.93318 0.86996 0.0
H1193 H 0.70074 0.79186 0.82138 0.0
H1194 H 0.66776 0.79739 0.80499 0.0
H1195 H 0.67395 0.79594 0.85198 0.0
C1196 C 0.8529 0.74275 0.00769 0.0
C1197 C 0.84572 0.72282 0.97749 0.0
C1198 C 0.88018 0.74977 0.02956 0.0
C1199 C 0.90103 0.73701 0.02065 0.0
C1200 C 0.89491 0.71872 0.98882 0.0
C1201 C 0.86722 0.71153 0.96803 0.0
C1202 C 0.88538 0.769 0.06332 0.0
C1203 C 0.91658 0.70504 0.97766 0.0
C1204 C 0.98527 0.76281 0.06152 0.0
C1205 C 0.97781 0.73527 0.08255 0.0
C1206 C 0.96027 0.76503 0.04297 0.0
C1207 C 0.92699 0.73933 0.04587 0.0
C1208 C 0.91924 0.71298 0.06956 0.0
C1209 C 0.94468 0.7111 0.08718 0.0
C1210 C 0.96987 0.79349 0.018 0.0
C1211 C 0.88423 0.68527 0.07419 0.0
H1212 H 0.83602 0.75104 0.01549 0.0
H1213 H 0.86171 0.69605 0.94475 0.0
H1214 H 0.87883 0.75217 0.08637 0.0
H1215 H 0.91165 0.78821 0.06632 0.0
H1216 H 0.87004 0.78087 0.06419 0.0
H1217 H 0.91067 0.69444 0.9505 0.0
H1218 H 0.94288 0.72458 0.9785 0.0
H1219 H 0.91335 0.68543 0.9964 0.0
H1220 H 1.01086 0.78127 0.05724 0.0
H1221 H 0.93876 0.68967 0.10322 0.0
H1222 H 0.95255 0.80298 0.02023 0.0
H1223 H 0.9686 0.78493 0.9903 0.0
H1224 H 0.99529 0.81396 0.02313 0.0
H1225 H 0.8674 0.69514 0.07819 0.0
H1226 H 0.88169 0.66923 0.09704 0.0
H1227 H 0.87615 0.66991 0.04985 0.0
C1228 C 0.17912 0.8699 0.13056 0.0
C1229 C 0.14613 0.84904 0.14004 0.0
C1230 C 0.20041 0.89705 0.15166 0.0
C1231 C 0.18875 0.90339 0.18367 0.0
C1232 C 0.15487 0.88353 0.19235 0.0
C1233 C 0.13389 0.85665 0.17033 0.0
C1234 C 0.23606 0.91761 0.14079 0.0
C1235 C 0.14126 0.88917 0.22614 0.0
C1236 C 0.25819 0.94218 0.25125 0.0
C1237 C 0.26943 0.97587 0.2473 0.0
C1238 C 0.2302 0.91821 0.23302 0.0
C1239 C 0.21313 0.92804 0.20952 0.0
C1240 C 0.22292 0.96193 0.20742 0.0
C1241 C 0.25088 0.98545 0.22646 0.0
C1242 C 0.22059 0.88248 0.23676 0.0
C1243 C 0.20559 0.97367 0.18286 0.0
H1244 H 0.18874 0.86408 0.10724 0.0
H1245 H 0.10856 0.84029 0.17817 0.0
H1246 H 0.24413 0.94419 0.14223 0.0
H1247 H 0.25172 0.91307 0.15934 0.0
H1248 H 0.24043 0.91182 0.11346 0.0
H1249 H 0.11391 0.87582 0.22608 0.0
H1250 H 0.14961 0.88033 0.24899 0.0
H1251 H 0.15054 0.91579 0.23027 0.0
H1252 H 0.27248 0.9346 0.26718 0.0
H1253 H 0.25968 1.01146 0.22275 0.0
H1254 H 0.22697 0.87408 0.21206 0.0
H1255 H 0.19363 0.86692 0.2407 0.0
H1256 H 0.23341 0.87845 0.25931 0.0
H1257 H 0.21287 0.97267 0.1551 0.0
H1258 H 0.21201 0.99938 0.18882 0.0
H1259 H 0.17849 0.95747 0.18464 0.0
C1260 C 0.30142 0.24984 0.38864 0.0
C1261 C 0.31693 0.25748 0.42201 0.0
C1262 C 0.30182 0.22585 0.36646 0.0
C1263 C 0.31814 0.20892 0.37771 0.0
C1264 C 0.33268 0.21559 0.41193 0.0
C1265 C 0.33186 0.23964 0.43358 0.0
C1266 C 0.2858 0.21952 0.33039 0.0
C1267 C 0.35043 0.19831 0.42512 0.0
C1268 C 0.30829 0.13224 0.32981 0.0
C1269 C 0.33719 0.14575 0.30946 0.0
C1270 C 0.30106 0.15249 0.35136 0.0
C1271 C 0.3232 0.18701 0.35254 0.0
C1272 C 0.35158 0.20074 0.33079 0.0
C1273 C 0.35816 0.18006 0.30968 0.0
C1274 C 0.27043 0.13679 0.37392 0.0
C1275 C 0.37588 0.23729 0.33084 0.0
H1276 H 0.2894 0.26303 0.37947 0.0
H1277 H 0.3438 0.24508 0.45929 0.0
H1278 H 0.30499 0.22824 0.3095 0.0
H1279 H 0.26919 0.19273 0.32623 0.0
H1280 H 0.27143 0.23225 0.32687 0.0
H1281 H 0.35809 0.20417 0.45331 0.0
H1282 H 0.33446 0.17126 0.42238 0.0
H1283 H 0.37272 0.20576 0.40877 0.0
H1284 H 0.29206 0.10578 0.33007 0.0
H1285 H 0.38045 0.19087 0.2939 0.0
H1286 H 0.25643 0.14986 0.37046 0.0
H1287 H 0.27744 0.13884 0.4023 0.0
H1288 H 0.25408 0.11036 0.3674 0.0
H1289 H 0.36308 0.25121 0.32499 0.0
H1290 H 0.39587 0.24432 0.31111 0.0
H1291 H 0.38717 0.24503 0.35753 0.0
C1292 C 0.11484 0.32995 0.58924 0.0
C1293 C 0.08173 0.30585 0.58423 0.0
C1294 C 0.14035 0.32823 0.57164 0.0
C1295 C 0.13269 0.30213 0.54757 0.0
C1296 C 0.09942 0.27646 0.54432 0.0
C1297 C 0.07434 0.27852 0.56285 0.0
C1298 C 0.17534 0.35589 0.57665 0.0
C1299 C 0.08992 0.24826 0.51895 0.0
C1300 C 0.1925 0.33078 0.46989 0.0
C1301 C 0.21403 0.31945 0.47905 0.0
C1302 C 0.16481 0.32337 0.49072 0.0
C1303 C 0.15871 0.30477 0.52228 0.0
C1304 C 0.17961 0.29198 0.53089 0.0
C1305 C 0.2069 0.29925 0.50899 0.0
C1306 C 0.14311 0.33713 0.4799 0.0
C1307 C 0.17443 0.27243 0.56437 0.0
H1308 H 0.1207 0.35124 0.60552 0.0
H1309 H 0.04877 0.26013 0.55826 0.0
H1310 H 0.19219 0.346 0.5804 0.0
H1311 H 0.18346 0.37156 0.55256 0.0
H1312 H 0.1778 0.37164 0.59978 0.0
H1313 H 0.06449 0.22772 0.52383 0.0
H1314 H 0.09124 0.25709 0.49138 0.0
H1315 H 0.10725 0.23878 0.52103 0.0
H1316 H 0.19798 0.34649 0.44683 0.0
H1317 H 0.2238 0.29092 0.51656 0.0
H1318 H 0.14627 0.3565 0.49897 0.0
H1319 H 0.11682 0.31755 0.4805 0.0
H1320 H 0.14905 0.34805 0.45291 0.0
H1321 H 0.1809 0.28901 0.58766 0.0
H1322 H 0.18986 0.26064 0.565 0.0
H1323 H 0.14819 0.25312 0.56715 0.0
C1324 C 0.92514 0.18495 0.67261 0.0
C1325 C 0.91322 0.19259 0.64206 0.0
C1326 C 0.90389 0.15813 0.69449 0.0
C1327 C 0.87008 0.13836 0.68539 0.0
C1328 C 0.85875 0.1447 0.65312 0.0
C1329 C 0.88029 0.17179 0.63218 0.0
C1330 C 0.91714 0.15244 0.72855 0.0
C1331 C 0.82319 0.12422 0.6418 0.0
C1332 C 0.80753 0.05647 0.72798 0.0
C1333 C 0.78891 0.06616 0.74852 0.0
C1334 C 0.83558 0.07989 0.70908 0.0
C1335 C 0.84542 0.1138 0.71102 0.0
C1336 C 0.82823 0.12375 0.73416 0.0
C1337 C 0.80015 0.09988 0.75228 0.0
C1338 C 0.85301 0.06802 0.68487 0.0
C1339 C 0.83787 0.1595 0.73769 0.0
H1340 H 0.95042 0.20124 0.68074 0.0
H1341 H 0.87093 0.17762 0.60863 0.0
H1342 H 0.90831 0.16098 0.75123 0.0
H1343 H 0.90801 0.12583 0.7325 0.0
H1344 H 0.94449 0.16599 0.72905 0.0
H1345 H 0.81911 0.12998 0.61433 0.0
H1346 H 0.81502 0.09762 0.64335 0.0
H1347 H 0.80741 0.12887 0.66001 0.0
H1348 H 0.79877 0.03045 0.72445 0.0
H1349 H 0.78587 0.10757 0.76802 0.0
H1350 H 0.8801 0.08418 0.68686 0.0
H1351 H 0.84588 0.06891 0.657 0.0
H1352 H 0.84652 0.04232 0.69098 0.0
H1353 H 0.8648 0.17504 0.74195 0.0
H1354 H 0.82489 0.16364 0.75996 0.0
H1355 H 0.83173 0.16785 0.71279 0.0
loop_
_geom_bond_atom_site_label_1
_geom_bond_atom_site_label_2
_geom_bond_distance
_geom_bond_site_symmetry_2
_ccdc_geom_bond_type
C0 C1 1.351 . S
C0 N3 1.368 . S
C0 H5 0.931 . S
C1 C0 1.351 . S
C1 N2 1.373 . S
C1 H29 0.930 . S
N2 C1 1.373 . S
N2 C4 1.340 . S
N3 C0 1.368 . S
N3 C4 1.321 . S
N3 Co6 2.135 1_556 S
C4 N2 1.340 . S
C4 N3 1.321 . S
C4 H28 0.930 . S
H5 C0 0.931 . S
Co6 N3 2.135 1_554 S
Co6 N9 2.121 . S
Co6 O14 2.055 . S
Co6 O17 2.039 . S
Co6 N20 2.140 . S
C7 O8 1.227 . S
C7 O17 1.265 . S
O8 C7 1.227 . S
N9 Co6 2.121 . S
N9 C11 1.375 . S
N9 C12 1.313 . S
C10 C11 1.338 . S
C10 N13 1.377 . S
C10 H30 0.930 . S
C11 N9 1.375 . S
C11 C10 1.338 . S
C11 H15 0.931 . S
C12 N9 1.313 . S
C12 N13 1.344 . S
C12 H16 0.930 . S
N13 C10 1.377 . S
N13 C12 1.344 . S
O14 Co6 2.055 . S
O14 C18 1.253 . S
H15 C11 0.931 . S
H16 C12 0.930 . S
O17 Co6 2.039 . S
O17 C7 1.265 . S
C18 O14 1.253 . S
C18 O19 1.227 . S
O19 C18 1.227 . S
N20 Co6 2.140 . S
N20 C23 1.346 . S
N20 C24 1.345 . S
C21 C22 1.387 . S
C21 C25 1.391 . S
C22 C21 1.387 . S
C22 C23 1.369 . S
C22 H31 0.929 . S
C23 N20 1.346 . S
C23 C22 1.369 . S
C23 H26 0.928 . S
C24 N20 1.345 . S
C24 C25 1.371 . S
C24 H27 0.931 . S
C25 C21 1.391 . S
C25 C24 1.371 . S
C25 H32 0.930 . S
H26 C23 0.928 . S
H27 C24 0.931 . S
H28 C4 0.930 . S
H29 C1 0.930 . S
H30 C10 0.930 . S
H31 C22 0.929 . S
H32 C25 0.930 . S
C33 C34 1.351 . S
C33 N36 1.368 . S
C33 H38 0.931 . S
C34 C33 1.351 . S
C34 N35 1.373 . S
C34 H62 0.930 . S
N35 C34 1.373 . S
N35 C37 1.340 . S
N36 C33 1.368 . S
N36 C37 1.321 . S
N36 Co39 2.135 . S
C37 N35 1.340 . S
C37 N36 1.321 . S
C37 H61 0.930 . S
H38 C33 0.931 . S
Co39 N36 2.135 . S
Co39 N42 2.121 . S
Co39 O47 2.055 . S
Co39 O50 2.039 . S
Co39 N53 2.140 . S
C40 O41 1.227 . S
C40 O50 1.265 . S
O41 C40 1.227 . S
N42 Co39 2.121 . S
N42 C44 1.375 . S
N42 C45 1.313 . S
C43 C44 1.338 . S
C43 N46 1.377 . S
C43 H63 0.930 . S
C44 N42 1.375 . S
C44 C43 1.338 . S
C44 H48 0.931 . S
C45 N42 1.313 . S
C45 N46 1.344 . S
C45 H49 0.930 . S
N46 C43 1.377 . S
N46 C45 1.344 . S
O47 Co39 2.055 . S
O47 C51 1.253 . S
H48 C44 0.931 . S
H49 C45 0.930 . S
O50 Co39 2.039 . S
O50 C40 1.265 . S
C51 O47 1.253 . S
C51 O52 1.227 . S
O52 C51 1.227 . S
N53 Co39 2.140 . S
N53 C56 1.346 . S
N53 C57 1.345 . S
C54 C55 1.387 . S
C54 C58 1.391 . S
C55 C54 1.387 . S
C55 C56 1.369 . S
C55 H64 0.929 . S
C56 N53 1.346 . S
C56 C55 1.369 . S
C56 H59 0.928 . S
C57 N53 1.345 . S
C57 C58 1.371 . S
C57 H60 0.931 . S
C58 C54 1.391 . S
C58 C57 1.371 . S
C58 H65 0.930 . S
H59 C56 0.928 . S
H60 C57 0.931 . S
H61 C37 0.930 . S
H62 C34 0.930 . S
H63 C43 0.930 . S
H64 C55 0.929 . S
H65 C58 0.930 . S
C66 C67 1.351 . S
C66 N69 1.368 . S
C66 H71 0.931 . S
C67 C66 1.351 . S
C67 N68 1.373 . S
C67 H95 0.930 . S
N68 C67 1.373 . S
N68 C70 1.340 . S
N69 C66 1.368 . S
N69 C70 1.321 . S
N69 Co72 2.135 . S
C70 N68 1.340 . S
C70 N69 1.321 . S
C70 H94 0.930 . S
H71 C66 0.931 . S
Co72 N69 2.135 . S
Co72 N75 2.121 . S
Co72 O80 2.055 . S
Co72 O83 2.039 . S
Co72 N86 2.140 . S
C73 O74 1.227 . S
C73 O83 1.265 . S
O74 C73 1.227 . S
N75 Co72 2.121 . S
N75 C77 1.375 . S
N75 C78 1.313 . S
C76 C77 1.338 . S
C76 N79 1.377 . S
C76 H96 0.930 . S
C77 N75 1.375 . S
C77 C76 1.338 . S
C77 H81 0.931 . S
C78 N75 1.313 . S
C78 N79 1.344 . S
C78 H82 0.930 . S
N79 C76 1.377 . S
N79 C78 1.344 . S
O80 Co72 2.055 . S
O80 C84 1.253 . S
H81 C77 0.931 . S
H82 C78 0.930 . S
O83 Co72 2.039 . S
O83 C73 1.265 . S
C84 O80 1.253 . S
C84 O85 1.227 . S
O85 C84 1.227 . S
N86 Co72 2.140 . S
N86 C89 1.346 . S
N86 C90 1.345 . S
C87 C88 1.387 . S
C87 C91 1.391 . S
C88 C87 1.387 . S
C88 C89 1.369 . S
C88 H97 0.929 . S
C89 N86 1.346 . S
C89 C88 1.369 . S
C89 H92 0.928 . S
C90 N86 1.345 . S
C90 C91 1.371 . S
C90 H93 0.931 . S
C91 C87 1.391 . S
C91 C90 1.371 . S
C91 H98 0.930 . S
H92 C89 0.928 . S
H93 C90 0.931 . S
H94 C70 0.930 . S
H95 C67 0.930 . S
H96 C76 0.930 . S
H97 C88 0.929 . S
H98 C91 0.930 . S
C99 C100 1.351 . S
C99 N102 1.368 . S
C99 H104 0.931 . S
C100 C99 1.351 . S
C100 N101 1.373 . S
C100 H128 0.930 . S
N101 C100 1.373 . S
N101 C103 1.340 . S
N102 C99 1.368 . S
N102 C103 1.321 . S
N102 Co105 2.135 . S
C103 N101 1.340 . S
C103 N102 1.321 . S
C103 H127 0.930 . S
H104 C99 0.931 . S
Co105 N102 2.135 . S
Co105 N108 2.121 . S
Co105 O113 2.055 . S
Co105 O116 2.039 . S
Co105 N119 2.140 . S
C106 O107 1.227 . S
C106 O116 1.265 . S
O107 C106 1.227 . S
N108 Co105 2.121 . S
N108 C110 1.375 . S
N108 C111 1.313 . S
C109 C110 1.338 . S
C109 N112 1.377 . S
C109 H129 0.930 . S
C110 N108 1.375 . S
C110 C109 1.338 . S
C110 H114 0.931 . S
C111 N108 1.313 . S
C111 N112 1.344 . S
C111 H115 0.930 . S
N112 C109 1.377 . S
N112 C111 1.344 . S
O113 Co105 2.055 . S
O113 C117 1.253 . S
H114 C110 0.931 . S
H115 C111 0.930 . S
O116 Co105 2.039 . S
O116 C106 1.265 . S
C117 O113 1.253 . S
C117 O118 1.227 . S
O118 C117 1.227 . S
N119 Co105 2.140 . S
N119 C122 1.346 . S
N119 C123 1.345 . S
C120 C121 1.387 . S
C120 C124 1.391 . S
C121 C120 1.387 . S
C121 C122 1.369 . S
C121 H130 0.929 . S
C122 N119 1.346 . S
C122 C121 1.369 . S
C122 H125 0.928 . S
C123 N119 1.345 . S
C123 C124 1.371 . S
C123 H126 0.931 . S
C124 C120 1.391 . S
C124 C123 1.371 . S
C124 H131 0.930 . S
H125 C122 0.928 . S
H126 C123 0.931 . S
H127 C103 0.930 . S
H128 C100 0.930 . S
H129 C109 0.930 . S
H130 C121 0.929 . S
H131 C124 0.930 . S
C132 C133 1.351 . S
C132 N135 1.368 . S
C132 H137 0.931 . S
C133 C132 1.351 . S
C133 N134 1.373 . S
C133 H161 0.930 . S
N134 C133 1.373 . S
N134 C136 1.340 . S
N135 C132 1.368 . S
N135 C136 1.321 . S
N135 Co138 2.135 . S
C136 N134 1.340 . S
C136 N135 1.321 . S
C136 H160 0.930 . S
H137 C132 0.931 . S
Co138 N135 2.135 . S
Co138 N141 2.121 . S
Co138 O146 2.055 . S
Co138 O149 2.039 . S
Co138 N152 2.140 . S
C139 O140 1.227 . S
C139 O149 1.265 . S
O140 C139 1.227 . S
N141 Co138 2.121 . S
N141 C143 1.375 . S
N141 C144 1.313 . S
C142 C143 1.338 . S
C142 N145 1.377 . S
C142 H162 0.930 . S
C143 N141 1.375 . S
C143 C142 1.338 . S
C143 H147 0.931 . S
C144 N141 1.313 . S
C144 N145 1.344 . S
C144 H148 0.930 . S
N145 C142 1.377 . S
N145 C144 1.344 . S
O146 Co138 2.055 . S
O146 C150 1.253 . S
H147 C143 0.931 . S
H148 C144 0.930 . S
O149 Co138 2.039 . S
O149 C139 1.265 . S
C150 O146 1.253 . S
C150 O151 1.227 . S
O151 C150 1.227 . S
N152 Co138 2.140 . S
N152 C155 1.346 . S
N152 C156 1.345 . S
C153 C154 1.387 . S
C153 C157 1.391 . S
C154 C153 1.387 . S
C154 C155 1.369 . S
C154 H163 0.929 . S
C155 N152 1.346 . S
C155 C154 1.369 . S
C155 H158 0.928 . S
C156 N152 1.345 . S
C156 C157 1.371 . S
C156 H159 0.931 . S
C157 C153 1.391 . S
C157 C156 1.371 . S
C157 H164 0.930 . S
H158 C155 0.928 . S
H159 C156 0.931 . S
H160 C136 0.930 . S
H161 C133 0.930 . S
H162 C142 0.930 . S
H163 C154 0.929 . S
H164 C157 0.930 . S
C165 C166 1.351 . S
C165 N168 1.368 . S
C165 H170 0.931 . S
C166 C165 1.351 . S
C166 N167 1.373 . S
C166 H194 0.930 . S
N167 C166 1.373 . S
N167 C169 1.340 . S
N168 C165 1.368 . S
N168 C169 1.321 . S
N168 Co171 2.135 . S
C169 N167 1.340 . S
C169 N168 1.321 . S
C169 H193 0.930 . S
H170 C165 0.931 . S
Co171 N168 2.135 . S
Co171 N174 2.121 . S
Co171 O179 2.055 . S
Co171 O182 2.039 . S
Co171 N185 2.140 . S
C172 O173 1.227 . S
C172 O182 1.265 . S
O173 C172 1.227 . S
N174 Co171 2.121 . S
N174 C176 1.375 . S
N174 C177 1.313 . S
C175 C176 1.338 . S
C175 N178 1.377 . S
C175 H195 0.930 1_556 S
C176 N174 1.375 . S
C176 C175 1.338 . S
C176 H180 0.931 . S
C177 N174 1.313 . S
C177 N178 1.344 . S
C177 H181 0.930 . S
N178 C175 1.377 . S
N178 C177 1.344 . S
O179 Co171 2.055 . S
O179 C183 1.253 . S
H180 C176 0.931 . S
H181 C177 0.930 . S
O182 Co171 2.039 . S
O182 C172 1.265 . S
C183 O179 1.253 . S
C183 O184 1.227 . S
O184 C183 1.227 . S
N185 Co171 2.140 . S
N185 C188 1.346 . S
N185 C189 1.345 . S
C186 C187 1.387 . S
C186 C190 1.391 . S
C187 C186 1.387 . S
C187 C188 1.369 . S
C187 H196 0.929 . S
C188 N185 1.346 . S
C188 C187 1.369 . S
C188 H191 0.928 . S
C189 N185 1.345 . S
C189 C190 1.371 . S
C189 H192 0.931 . S
C190 C186 1.391 . S
C190 C189 1.371 . S
C190 H197 0.930 . S
H191 C188 0.928 . S
H192 C189 0.931 . S
H193 C169 0.930 . S
H194 C166 0.930 . S
H195 C175 0.930 1_554 S
H196 C187 0.929 . S
H197 C190 0.930 . S
C198 C199 1.351 . S
C198 N201 1.368 . S
C198 H203 0.931 . S
C199 C198 1.351 . S
C199 N200 1.373 . S
C199 H227 0.930 . S
N200 C199 1.373 . S
N200 C202 1.340 . S
N201 C198 1.368 . S
N201 C202 1.321 . S
N201 Co204 2.135 . S
C202 N200 1.340 . S
C202 N201 1.321 . S
C202 H226 0.930 . S
H203 C198 0.931 . S
Co204 N201 2.135 . S
Co204 N207 2.121 . S
Co204 O212 2.055 . S
Co204 O215 2.039 . S
Co204 N218 2.140 . S
C205 O206 1.227 . S
C205 O215 1.265 . S
O206 C205 1.227 . S
N207 Co204 2.121 . S
N207 C209 1.375 . S
N207 C210 1.313 . S
C208 C209 1.338 . S
C208 N211 1.377 . S
C208 H228 0.930 . S
C209 N207 1.375 . S
C209 C208 1.338 . S
C209 H213 0.931 . S
C210 N207 1.313 . S
C210 N211 1.344 . S
C210 H214 0.930 . S
N211 C208 1.377 . S
N211 C210 1.344 . S
O212 Co204 2.055 . S
O212 C216 1.253 . S
H213 C209 0.931 . S
H214 C210 0.930 . S
O215 Co204 2.039 . S
O215 C205 1.265 . S
C216 O212 1.253 . S
C216 O217 1.227 . S
O217 C216 1.227 . S
N218 Co204 2.140 . S
N218 C221 1.346 . S
N218 C222 1.345 . S
C219 C220 1.387 . S
C219 C223 1.391 . S
C220 C219 1.387 . S
C220 C221 1.369 . S
C220 H229 0.929 . S
C221 N218 1.346 . S
C221 C220 1.369 . S
C221 H224 0.928 . S
C222 N218 1.345 . S
C222 C223 1.371 . S
C222 H225 0.931 . S
C223 C219 1.391 . S
C223 C222 1.371 . S
C223 H230 0.930 . S
H224 C221 0.928 . S
H225 C222 0.931 . S
H226 C202 0.930 . S
H227 C199 0.930 . S
H228 C208 0.930 . S
H229 C220 0.929 . S
H230 C223 0.930 . S
C231 C232 1.351 . S
C231 N234 1.368 . S
C231 H236 0.931 . S
C232 C231 1.351 . S
C232 N233 1.373 . S
C232 H260 0.930 . S
N233 C232 1.373 . S
N233 C235 1.340 . S
N234 C231 1.368 . S
N234 C235 1.321 . S
N234 Co237 2.135 1_554 S
C235 N233 1.340 . S
C235 N234 1.321 . S
C235 H259 0.930 . S
H236 C231 0.931 . S
Co237 N234 2.135 1_556 S
Co237 N240 2.121 . S
Co237 O245 2.055 . S
Co237 O248 2.039 . S
Co237 N251 2.140 . S
C238 O239 1.227 . S
C238 O248 1.265 . S
O239 C238 1.227 . S
N240 Co237 2.121 . S
N240 C242 1.375 . S
N240 C243 1.313 . S
C241 C242 1.338 . S
C241 N244 1.377 . S
C241 H261 0.930 . S
C242 N240 1.375 . S
C242 C241 1.338 . S
C242 H246 0.931 . S
C243 N240 1.313 . S
C243 N244 1.344 . S
C243 H247 0.930 . S
N244 C241 1.377 . S
N244 C243 1.344 . S
O245 Co237 2.055 . S
O245 C249 1.253 . S
H246 C242 0.931 . S
H247 C243 0.930 . S
O248 Co237 2.039 . S
O248 C238 1.265 . S
C249 O245 1.253 . S
C249 O250 1.227 . S
O250 C249 1.227 . S
N251 Co237 2.140 . S
N251 C254 1.346 . S
N251 C255 1.345 . S
C252 C253 1.387 . S
C252 C256 1.391 . S
C253 C252 1.387 . S
C253 C254 1.369 . S
C253 H262 0.929 . S
C254 N251 1.346 . S
C254 C253 1.369 . S
C254 H257 0.928 . S
C255 N251 1.345 . S
C255 C256 1.371 . S
C255 H258 0.931 . S
C256 C252 1.391 . S
C256 C255 1.371 . S
C256 H263 0.930 . S
H257 C254 0.928 . S
H258 C255 0.931 . S
H259 C235 0.930 . S
H260 C232 0.930 . S
H261 C241 0.930 . S
H262 C253 0.929 . S
H263 C256 0.930 . S
C264 C265 1.351 . S
C264 N267 1.368 . S
C264 H269 0.931 . S
C265 C264 1.351 . S
C265 N266 1.373 . S
C265 H293 0.930 . S
N266 C265 1.373 . S
N266 C268 1.340 . S
N267 C264 1.368 . S
N267 C268 1.321 . S
N267 Co270 2.135 . S
C268 N266 1.340 . S
C268 N267 1.321 . S
C268 H292 0.930 . S
H269 C264 0.931 . S
Co270 N267 2.135 . S
Co270 N273 2.121 . S
Co270 O278 2.055 . S
Co270 O281 2.039 . S
Co270 N284 2.140 . S
C271 O272 1.227 . S
C271 O281 1.265 . S
O272 C271 1.227 . S
N273 Co270 2.121 . S
N273 C275 1.375 . S
N273 C276 1.313 . S
C274 C275 1.338 . S
C274 N277 1.377 . S
C274 H294 0.930 1_554 S
C275 N273 1.375 . S
C275 C274 1.338 . S
C275 H279 0.931 . S
C276 N273 1.313 . S
C276 N277 1.344 . S
C276 H280 0.930 . S
N277 C274 1.377 . S
N277 C276 1.344 . S
O278 Co270 2.055 . S
O278 C282 1.253 . S
H279 C275 0.931 . S
H280 C276 0.930 . S
O281 Co270 2.039 . S
O281 C271 1.265 . S
C282 O278 1.253 . S
C282 O283 1.227 . S
O283 C282 1.227 . S
N284 Co270 2.140 . S
N284 C287 1.346 . S
N284 C288 1.345 . S
C285 C286 1.387 . S
C285 C289 1.391 . S
C286 C285 1.387 . S
C286 C287 1.369 . S
C286 H295 0.929 . S
C287 N284 1.346 . S
C287 C286 1.369 . S
C287 H290 0.928 . S
C288 N284 1.345 . S
C288 C289 1.371 . S
C288 H291 0.931 . S
C289 C285 1.391 . S
C289 C288 1.371 . S
C289 H296 0.930 . S
H290 C287 0.928 . S
H291 C288 0.931 . S
H292 C268 0.930 . S
H293 C265 0.930 . S
H294 C274 0.930 1_556 S
H295 C286 0.929 . S
H296 C289 0.930 . S
C297 C298 1.351 . S
C297 N300 1.368 . S
C297 H302 0.931 . S
C298 C297 1.351 . S
C298 N299 1.373 . S
C298 H326 0.930 . S
N299 C298 1.373 . S
N299 C301 1.340 . S
N300 C297 1.368 . S
N300 C301 1.321 . S
N300 Co303 2.135 . S
C301 N299 1.340 . S
C301 N300 1.321 . S
C301 H325 0.930 . S
H302 C297 0.931 . S
Co303 N300 2.135 . S
Co303 N306 2.121 . S
Co303 O311 2.055 . S
Co303 O314 2.039 . S
Co303 N317 2.140 . S
C304 O305 1.227 . S
C304 O314 1.265 . S
O305 C304 1.227 . S
N306 Co303 2.121 . S
N306 C308 1.375 . S
N306 C309 1.313 . S
C307 C308 1.338 . S
C307 N310 1.377 . S
C307 H327 0.930 . S
C308 N306 1.375 . S
C308 C307 1.338 . S
C308 H312 0.931 . S
C309 N306 1.313 . S
C309 N310 1.344 . S
C309 H313 0.930 . S
N310 C307 1.377 . S
N310 C309 1.344 . S
O311 Co303 2.055 . S
O311 C315 1.253 . S
H312 C308 0.931 . S
H313 C309 0.930 . S
O314 Co303 2.039 . S
O314 C304 1.265 . S
C315 O311 1.253 . S
C315 O316 1.227 . S
O316 C315 1.227 . S
N317 Co303 2.140 . S
N317 C320 1.346 . S
N317 C321 1.345 . S
C318 C319 1.387 . S
C318 C322 1.391 . S
C319 C318 1.387 . S
C319 C320 1.369 . S
C319 H328 0.929 . S
C320 N317 1.346 . S
C320 C319 1.369 . S
C320 H323 0.928 . S
C321 N317 1.345 . S
C321 C322 1.371 . S
C321 H324 0.931 . S
C322 C318 1.391 . S
C322 C321 1.371 . S
C322 H329 0.930 . S
H323 C320 0.928 . S
H324 C321 0.931 . S
H325 C301 0.930 . S
H326 C298 0.930 . S
H327 C307 0.930 . S
H328 C319 0.929 . S
H329 C322 0.930 . S
C330 C331 1.351 . S
C330 N333 1.368 . S
C330 H335 0.931 . S
C331 C330 1.351 . S
C331 N332 1.373 . S
C331 H359 0.930 . S
N332 C331 1.373 . S
N332 C334 1.340 . S
N333 C330 1.368 . S
N333 C334 1.321 . S
N333 Co336 2.135 . S
C334 N332 1.340 . S
C334 N333 1.321 . S
C334 H358 0.930 . S
H335 C330 0.931 . S
Co336 N333 2.135 . S
Co336 N339 2.121 . S
Co336 O344 2.055 . S
Co336 O347 2.039 . S
Co336 N350 2.140 . S
C337 O338 1.227 . S
C337 O347 1.265 . S
O338 C337 1.227 . S
N339 Co336 2.121 . S
N339 C341 1.375 . S
N339 C342 1.313 . S
C340 C341 1.338 . S
C340 N343 1.377 . S
C340 H360 0.930 . S
C341 N339 1.375 . S
C341 C340 1.338 . S
C341 H345 0.931 . S
C342 N339 1.313 . S
C342 N343 1.344 . S
C342 H346 0.930 . S
N343 C340 1.377 . S
N343 C342 1.344 . S
O344 Co336 2.055 . S
O344 C348 1.253 . S
H345 C341 0.931 . S
H346 C342 0.930 . S
O347 Co336 2.039 . S
O347 C337 1.265 . S
C348 O344 1.253 . S
C348 O349 1.227 . S
O349 C348 1.227 . S
N350 Co336 2.140 . S
N350 C353 1.346 . S
N350 C354 1.345 . S
C351 C352 1.387 . S
C351 C355 1.391 . S
C352 C351 1.387 . S
C352 C353 1.369 . S
C352 H361 0.929 . S
C353 N350 1.346 . S
C353 C352 1.369 . S
C353 H356 0.928 . S
C354 N350 1.345 . S
C354 C355 1.371 . S
C354 H357 0.931 . S
C355 C351 1.391 . S
C355 C354 1.371 . S
C355 H362 0.930 . S
H356 C353 0.928 . S
H357 C354 0.931 . S
H358 C334 0.930 . S
H359 C331 0.930 . S
H360 C340 0.930 . S
H361 C352 0.929 . S
H362 C355 0.930 . S
C363 C364 1.351 . S
C363 N366 1.368 . S
C363 H368 0.931 . S
C364 C363 1.351 . S
C364 N365 1.373 . S
C364 H392 0.930 . S
N365 C364 1.373 . S
N365 C367 1.340 . S
N366 C363 1.368 . S
N366 C367 1.321 . S
N366 Co369 2.135 . S
C367 N365 1.340 . S
C367 N366 1.321 . S
C367 H391 0.930 . S
H368 C363 0.931 . S
Co369 N366 2.135 . S
Co369 N372 2.121 . S
Co369 O377 2.055 . S
Co369 O380 2.039 . S
Co369 N383 2.140 . S
C370 O371 1.227 . S
C370 O380 1.265 . S
O371 C370 1.227 . S
N372 Co369 2.121 . S
N372 C374 1.375 . S
N372 C375 1.313 . S
C373 C374 1.338 . S
C373 N376 1.377 . S
C373 H393 0.930 . S
C374 N372 1.375 . S
C374 C373 1.338 . S
C374 H378 0.931 . S
C375 N372 1.313 . S
C375 N376 1.344 . S
C375 H379 0.930 . S
N376 C373 1.377 . S
N376 C375 1.344 . S
O377 Co369 2.055 . S
O377 C381 1.253 . S
H378 C374 0.931 . S
H379 C375 0.930 . S
O380 Co369 2.039 . S
O380 C370 1.265 . S
C381 O377 1.253 . S
C381 O382 1.227 . S
O382 C381 1.227 . S
N383 Co369 2.140 . S
N383 C386 1.346 . S
N383 C387 1.345 . S
C384 C385 1.387 . S
C384 C388 1.391 . S
C385 C384 1.387 . S
C385 C386 1.369 . S
C385 H394 0.929 . S
C386 N383 1.346 . S
C386 C385 1.369 . S
C386 H389 0.928 . S
C387 N383 1.345 . S
C387 C388 1.371 . S
C387 H390 0.931 . S
C388 C384 1.391 . S
C388 C387 1.371 . S
C388 H395 0.930 . S
H389 C386 0.928 . S
H390 C387 0.931 . S
H391 C367 0.930 . S
H392 C364 0.930 . S
H393 C373 0.930 . S
H394 C385 0.929 . S
H395 C388 0.930 . S
C396 C397 1.391 . S
C396 C398 1.394 . S
C396 H412 0.931 . S
C397 C396 1.391 . S
C397 C401 1.376 . S
C398 C396 1.394 . S
C398 C399 1.369 . S
C398 C402 1.531 . S
C399 C398 1.369 . S
C399 C400 1.410 . S
C399 C407 1.503 . S
C400 C399 1.410 . S
C400 C401 1.392 . S
C400 C403 1.511 . S
C401 C397 1.376 . S
C401 C400 1.392 . S
C401 H413 0.929 . S
C402 C398 1.531 . S
C402 H414 0.960 . S
C402 H415 0.962 . S
C402 H416 0.960 . S
C403 C400 1.511 . S
C403 H417 0.961 . S
C403 H418 0.961 . S
C403 H419 0.961 . S
C404 C405 1.370 . S
C404 C406 1.363 . S
C404 H420 0.931 . S
C405 C404 1.370 . S
C405 C409 1.408 . S
C406 C404 1.363 . S
C406 C407 1.370 . S
C406 C410 1.524 . S
C407 C399 1.503 . S
C407 C406 1.370 . S
C407 C408 1.403 . S
C408 C407 1.403 . S
C408 C409 1.404 . S
C408 C411 1.539 . S
C409 C405 1.408 . S
C409 C408 1.404 . S
C409 H421 0.930 . S
C410 C406 1.524 . S
C410 H422 0.956 . S
C410 H423 0.961 . S
C410 H424 0.961 . S
C411 C408 1.539 . S
C411 H425 0.958 . S
C411 H426 0.961 . S
C411 H427 0.960 . S
H412 C396 0.931 . S
H413 C401 0.929 . S
H414 C402 0.960 . S
H415 C402 0.962 . S
H416 C402 0.960 . S
H417 C403 0.961 . S
H418 C403 0.961 . S
H419 C403 0.961 . S
H420 C404 0.931 . S
H421 C409 0.930 . S
H422 C410 0.956 . S
H423 C410 0.961 . S
H424 C410 0.961 . S
H425 C411 0.958 . S
H426 C411 0.961 . S
H427 C411 0.960 . S
C428 C429 1.391 . S
C428 C430 1.394 . S
C428 H444 0.931 . S
C429 C428 1.391 . S
C429 C433 1.376 . S
C430 C428 1.394 . S
C430 C431 1.369 . S
C430 C434 1.531 . S
C431 C430 1.369 . S
C431 C432 1.410 . S
C431 C439 1.503 . S
C432 C431 1.410 . S
C432 C433 1.392 . S
C432 C435 1.511 . S
C433 C429 1.376 . S
C433 C432 1.392 . S
C433 H445 0.929 . S
C434 C430 1.531 . S
C434 H446 0.960 . S
C434 H447 0.962 . S
C434 H448 0.960 . S
C435 C432 1.511 . S
C435 H449 0.961 . S
C435 H450 0.961 . S
C435 H451 0.961 . S
C436 C437 1.370 . S
C436 C438 1.363 . S
C436 H452 0.931 . S
C437 C436 1.370 . S
C437 C441 1.408 . S
C438 C436 1.363 . S
C438 C439 1.370 . S
C438 C442 1.524 . S
C439 C431 1.503 . S
C439 C438 1.370 . S
C439 C440 1.403 . S
C440 C439 1.403 . S
C440 C441 1.404 . S
C440 C443 1.539 . S
C441 C437 1.408 . S
C441 C440 1.404 . S
C441 H453 0.930 . S
C442 C438 1.524 . S
C442 H454 0.956 . S
C442 H455 0.961 . S
C442 H456 0.961 . S
C443 C440 1.539 . S
C443 H457 0.958 . S
C443 H458 0.961 . S
C443 H459 0.960 . S
H444 C428 0.931 . S
H445 C433 0.929 . S
H446 C434 0.960 . S
H447 C434 0.962 . S
H448 C434 0.960 . S
H449 C435 0.961 . S
H450 C435 0.961 . S
H451 C435 0.961 . S
H452 C436 0.931 . S
H453 C441 0.930 . S
H454 C442 0.956 . S
H455 C442 0.961 . S
H456 C442 0.961 . S
H457 C443 0.958 . S
H458 C443 0.961 . S
H459 C443 0.960 . S
C460 C461 1.391 . S
C460 C462 1.394 . S
C460 H476 0.931 . S
C461 C460 1.391 . S
C461 C465 1.376 . S
C462 C460 1.394 . S
C462 C463 1.369 . S
C462 C466 1.531 . S
C463 C462 1.369 . S
C463 C464 1.410 . S
C463 C471 1.503 . S
C464 C463 1.410 . S
C464 C465 1.392 . S
C464 C467 1.511 . S
C465 C461 1.376 . S
C465 C464 1.392 . S
C465 H477 0.929 . S
C466 C462 1.531 . S
C466 H478 0.960 . S
C466 H479 0.962 . S
C466 H480 0.960 . S
C467 C464 1.511 . S
C467 H481 0.961 . S
C467 H482 0.961 . S
C467 H483 0.961 . S
C468 C469 1.370 . S
C468 C470 1.363 . S
C468 H484 0.931 . S
C469 C468 1.370 . S
C469 C473 1.408 . S
C470 C468 1.363 . S
C470 C471 1.370 . S
C470 C474 1.524 . S
C471 C463 1.503 . S
C471 C470 1.370 . S
C471 C472 1.403 . S
C472 C471 1.403 . S
C472 C473 1.404 . S
C472 C475 1.539 . S
C473 C469 1.408 . S
C473 C472 1.404 . S
C473 H485 0.930 . S
C474 C470 1.524 . S
C474 H486 0.956 . S
C474 H487 0.961 . S
C474 H488 0.961 . S
C475 C472 1.539 . S
C475 H489 0.958 . S
C475 H490 0.961 . S
C475 H491 0.960 . S
H476 C460 0.931 . S
H477 C465 0.929 . S
H478 C466 0.960 . S
H479 C466 0.962 . S
H480 C466 0.960 . S
H481 C467 0.961 . S
H482 C467 0.961 . S
H483 C467 0.961 . S
H484 C468 0.931 . S
H485 C473 0.930 . S
H486 C474 0.956 . S
H487 C474 0.961 . S
H488 C474 0.961 . S
H489 C475 0.958 . S
H490 C475 0.961 . S
H491 C475 0.960 . S
C492 C493 1.391 . S
C492 C494 1.394 . S
C492 H508 0.931 . S
C493 C492 1.391 . S
C493 C497 1.376 . S
C494 C492 1.394 . S
C494 C495 1.369 . S
C494 C498 1.531 . S
C495 C494 1.369 . S
C495 C496 1.410 . S
C495 C503 1.503 . S
C496 C495 1.410 . S
C496 C497 1.392 . S
C496 C499 1.511 . S
C497 C493 1.376 . S
C497 C496 1.392 . S
C497 H509 0.929 . S
C498 C494 1.531 . S
C498 H510 0.960 . S
C498 H511 0.962 . S
C498 H512 0.960 . S
C499 C496 1.511 . S
C499 H513 0.961 . S
C499 H514 0.961 . S
C499 H515 0.961 . S
C500 C501 1.370 . S
C500 C502 1.363 . S
C500 H516 0.931 . S
C501 C500 1.370 . S
C501 C505 1.408 . S
C502 C500 1.363 . S
C502 C503 1.370 . S
C502 C506 1.524 . S
C503 C495 1.503 . S
C503 C502 1.370 . S
C503 C504 1.403 . S
C504 C503 1.403 . S
C504 C505 1.404 . S
C504 C507 1.539 . S
C505 C501 1.408 . S
C505 C504 1.404 . S
C505 H517 0.930 . S
C506 C502 1.524 . S
C506 H518 0.956 . S
C506 H519 0.961 . S
C506 H520 0.961 . S
C507 C504 1.539 . S
C507 H521 0.958 . S
C507 H522 0.961 . S
C507 H523 0.960 . S
H508 C492 0.931 . S
H509 C497 0.929 . S
H510 C498 0.960 . S
H511 C498 0.962 . S
H512 C498 0.960 . S
H513 C499 0.961 . S
H514 C499 0.961 . S
H515 C499 0.961 . S
H516 C500 0.931 . S
H517 C505 0.930 . S
H518 C506 0.956 . S
H519 C506 0.961 . S
H520 C506 0.961 . S
H521 C507 0.958 . S
H522 C507 0.961 . S
H523 C507 0.960 . S
C524 C525 1.391 . S
C524 C526 1.394 . S
C524 H540 0.931 . S
C525 C524 1.391 . S
C525 C529 1.376 . S
C526 C524 1.394 . S
C526 C527 1.369 . S
C526 C530 1.531 . S
C527 C526 1.369 . S
C527 C528 1.410 . S
C527 C535 1.503 . S
C528 C527 1.410 . S
C528 C529 1.392 . S
C528 C531 1.511 . S
C529 C525 1.376 . S
C529 C528 1.392 . S
C529 H541 0.929 . S
C530 C526 1.531 . S
C530 H542 0.960 . S
C530 H543 0.962 . S
C530 H544 0.960 . S
C531 C528 1.511 . S
C531 H545 0.961 . S
C531 H546 0.961 . S
C531 H547 0.961 . S
C532 C533 1.370 . S
C532 C534 1.363 . S
C532 H548 0.931 . S
C533 C532 1.370 . S
C533 C537 1.408 . S
C534 C532 1.363 . S
C534 C535 1.370 . S
C534 C538 1.524 . S
C535 C527 1.503 . S
C535 C534 1.370 . S
C535 C536 1.403 . S
C536 C535 1.403 . S
C536 C537 1.404 . S
C536 C539 1.539 . S
C537 C533 1.408 . S
C537 C536 1.404 . S
C537 H549 0.930 . S
C538 C534 1.524 . S
C538 H550 0.956 . S
C538 H551 0.961 . S
C538 H552 0.961 . S
C539 C536 1.539 . S
C539 H553 0.958 . S
C539 H554 0.961 . S
C539 H555 0.960 . S
H540 C524 0.931 . S
H541 C529 0.929 . S
H542 C530 0.960 . S
H543 C530 0.962 . S
H544 C530 0.960 . S
H545 C531 0.961 . S
H546 C531 0.961 . S
H547 C531 0.961 . S
H548 C532 0.931 . S
H549 C537 0.930 . S
H550 C538 0.956 . S
H551 C538 0.961 . S
H552 C538 0.961 . S
H553 C539 0.958 . S
H554 C539 0.961 . S
H555 C539 0.960 . S
C556 C557 1.391 . S
C556 C558 1.394 . S
C556 H572 0.931 . S
C557 C556 1.391 . S
C557 C561 1.376 . S
C558 C556 1.394 . S
C558 C559 1.369 . S
C558 C562 1.531 . S
C559 C558 1.369 . S
C559 C560 1.410 . S
C559 C567 1.503 . S
C560 C559 1.410 . S
C560 C561 1.392 . S
C560 C563 1.511 . S
C561 C557 1.376 . S
C561 C560 1.392 . S
C561 H573 0.929 1_554 S
C562 C558 1.531 . S
C562 H574 0.960 . S
C562 H575 0.962 . S
C562 H576 0.960 . S
C563 C560 1.511 . S
C563 H577 0.961 . S
C563 H578 0.961 . S
C563 H579 0.961 . S
C564 C565 1.370 . S
C564 C566 1.363 . S
C564 H580 0.931 . S
C565 C564 1.370 . S
C565 C569 1.408 . S
C566 C564 1.363 . S
C566 C567 1.370 . S
C566 C570 1.524 . S
C567 C559 1.503 . S
C567 C566 1.370 . S
C567 C568 1.403 . S
C568 C567 1.403 . S
C568 C569 1.404 . S
C568 C571 1.539 . S
C569 C565 1.408 . S
C569 C568 1.404 . S
C569 H581 0.930 . S
C570 C566 1.524 . S
C570 H582 0.956 . S
C570 H583 0.961 . S
C570 H584 0.961 . S
C571 C568 1.539 . S
C571 H585 0.958 . S
C571 H586 0.961 . S
C571 H587 0.960 . S
H572 C556 0.931 . S
H573 C561 0.929 1_556 S
H574 C562 0.960 . S
H575 C562 0.962 . S
H576 C562 0.960 . S
H577 C563 0.961 . S
H578 C563 0.961 . S
H579 C563 0.961 . S
H580 C564 0.931 . S
H581 C569 0.930 . S
H582 C570 0.956 . S
H583 C570 0.961 . S
H584 C570 0.961 . S
H585 C571 0.958 . S
H586 C571 0.961 . S
H587 C571 0.960 . S
C588 C589 1.391 . S
C588 C590 1.394 . S
C588 H604 0.931 . S
C589 C588 1.391 . S
C589 C593 1.376 . S
C590 C588 1.394 . S
C590 C591 1.369 . S
C590 C594 1.531 . S
C591 C590 1.369 . S
C591 C592 1.410 . S
C591 C599 1.503 . S
C592 C591 1.410 . S
C592 C593 1.392 . S
C592 C595 1.511 . S
C593 C589 1.376 . S
C593 C592 1.392 . S
C593 H605 0.929 . S
C594 C590 1.531 . S
C594 H606 0.960 . S
C594 H607 0.962 . S
C594 H608 0.960 . S
C595 C592 1.511 . S
C595 H609 0.961 . S
C595 H610 0.961 . S
C595 H611 0.961 . S
C596 C597 1.370 . S
C596 C598 1.363 . S
C596 H612 0.931 . S
C597 C596 1.370 . S
C597 C601 1.408 . S
C598 C596 1.363 . S
C598 C599 1.370 . S
C598 C602 1.524 . S
C599 C591 1.503 . S
C599 C598 1.370 . S
C599 C600 1.403 . S
C600 C599 1.403 . S
C600 C601 1.404 . S
C600 C603 1.539 . S
C601 C597 1.408 . S
C601 C600 1.404 . S
C601 H613 0.930 . S
C602 C598 1.524 . S
C602 H614 0.956 . S
C602 H615 0.961 . S
C602 H616 0.961 . S
C603 C600 1.539 . S
C603 H617 0.958 . S
C603 H618 0.961 . S
C603 H619 0.960 . S
H604 C588 0.931 . S
H605 C593 0.929 . S
H606 C594 0.960 . S
H607 C594 0.962 . S
H608 C594 0.960 . S
H609 C595 0.961 . S
H610 C595 0.961 . S
H611 C595 0.961 . S
H612 C596 0.931 . S
H613 C601 0.930 . S
H614 C602 0.956 . S
H615 C602 0.961 . S
H616 C602 0.961 . S
H617 C603 0.958 . S
H618 C603 0.961 . S
H619 C603 0.960 . S
C620 C621 1.391 . S
C620 C622 1.394 . S
C620 H636 0.931 . S
C621 C620 1.391 . S
C621 C625 1.376 . S
C622 C620 1.394 . S
C622 C623 1.369 . S
C622 C626 1.531 . S
C623 C622 1.369 . S
C623 C624 1.410 . S
C623 C631 1.503 . S
C624 C623 1.410 . S
C624 C625 1.392 . S
C624 C627 1.511 . S
C625 C621 1.376 . S
C625 C624 1.392 . S
C625 H637 0.929 . S
C626 C622 1.531 . S
C626 H638 0.960 . S
C626 H639 0.962 . S
C626 H640 0.960 . S
C627 C624 1.511 . S
C627 H641 0.961 . S
C627 H642 0.961 . S
C627 H643 0.961 . S
C628 C629 1.370 . S
C628 C630 1.363 . S
C628 H644 0.931 . S
C629 C628 1.370 . S
C629 C633 1.408 . S
C630 C628 1.363 . S
C630 C631 1.370 . S
C630 C634 1.524 . S
C631 C623 1.503 . S
C631 C630 1.370 . S
C631 C632 1.403 . S
C632 C631 1.403 . S
C632 C633 1.404 . S
C632 C635 1.539 . S
C633 C629 1.408 . S
C633 C632 1.404 . S
C633 H645 0.930 . S
C634 C630 1.524 . S
C634 H646 0.956 . S
C634 H647 0.961 . S
C634 H648 0.961 . S
C635 C632 1.539 . S
C635 H649 0.958 . S
C635 H650 0.961 . S
C635 H651 0.960 . S
H636 C620 0.931 . S
H637 C625 0.929 . S
H638 C626 0.960 . S
H639 C626 0.962 . S
H640 C626 0.960 . S
H641 C627 0.961 . S
H642 C627 0.961 . S
H643 C627 0.961 . S
H644 C628 0.931 . S
H645 C633 0.930 . S
H646 C634 0.956 . S
H647 C634 0.961 . S
H648 C634 0.961 . S
H649 C635 0.958 . S
H650 C635 0.961 . S
H651 C635 0.960 . S
C652 C653 1.391 . S
C652 C654 1.394 . S
C652 H668 0.931 . S
C653 C652 1.391 . S
C653 C657 1.376 . S
C654 C652 1.394 . S
C654 C655 1.369 . S
C654 C658 1.531 . S
C655 C654 1.369 . S
C655 C656 1.410 . S
C655 C663 1.503 . S
C656 C655 1.410 . S
C656 C657 1.392 . S
C656 C659 1.511 . S
C657 C653 1.376 . S
C657 C656 1.392 . S
C657 H669 0.929 . S
C658 C654 1.531 . S
C658 H670 0.960 . S
C658 H671 0.962 . S
C658 H672 0.960 . S
C659 C656 1.511 . S
C659 H673 0.961 . S
C659 H674 0.961 . S
C659 H675 0.961 . S
C660 C661 1.370 . S
C660 C662 1.363 . S
C660 H676 0.931 . S
C661 C660 1.370 . S
C661 C665 1.408 . S
C662 C660 1.363 . S
C662 C663 1.370 . S
C662 C666 1.524 . S
C663 C655 1.503 . S
C663 C662 1.370 . S
C663 C664 1.403 . S
C664 C663 1.403 . S
C664 C665 1.404 . S
C664 C667 1.539 . S
C665 C661 1.408 . S
C665 C664 1.404 . S
C665 H677 0.930 . S
C666 C662 1.524 . S
C666 H678 0.956 . S
C666 H679 0.961 . S
C666 H680 0.961 . S
C667 C664 1.539 . S
C667 H681 0.958 . S
C667 H682 0.961 . S
C667 H683 0.960 . S
H668 C652 0.931 . S
H669 C657 0.929 . S
H670 C658 0.960 . S
H671 C658 0.962 . S
H672 C658 0.960 . S
H673 C659 0.961 . S
H674 C659 0.961 . S
H675 C659 0.961 . S
H676 C660 0.931 . S
H677 C665 0.930 . S
H678 C666 0.956 . S
H679 C666 0.961 . S
H680 C666 0.961 . S
H681 C667 0.958 . S
H682 C667 0.961 . S
H683 C667 0.960 . S
C684 C685 1.391 . S
C684 C686 1.394 . S
C684 H700 0.931 . S
C685 C684 1.391 . S
C685 C689 1.376 . S
C686 C684 1.394 . S
C686 C687 1.369 . S
C686 C690 1.531 . S
C687 C686 1.369 . S
C687 C688 1.410 . S
C687 C695 1.503 . S
C688 C687 1.410 . S
C688 C689 1.392 . S
C688 C691 1.511 . S
C689 C685 1.376 . S
C689 C688 1.392 . S
C689 H701 0.929 . S
C690 C686 1.531 . S
C690 H702 0.960 . S
C690 H703 0.962 . S
C690 H704 0.960 . S
C691 C688 1.511 . S
C691 H705 0.961 . S
C691 H706 0.961 . S
C691 H707 0.961 . S
C692 C693 1.370 . S
C692 C694 1.363 . S
C692 H708 0.931 . S
C693 C692 1.370 . S
C693 C697 1.408 . S
C694 C692 1.363 . S
C694 C695 1.370 . S
C694 C698 1.524 . S
C695 C687 1.503 . S
C695 C694 1.370 . S
C695 C696 1.403 . S
C696 C695 1.403 . S
C696 C697 1.404 . S
C696 C699 1.539 . S
C697 C693 1.408 . S
C697 C696 1.404 . S
C697 H709 0.930 . S
C698 C694 1.524 . S
C698 H710 0.956 . S
C698 H711 0.961 . S
C698 H712 0.961 . S
C699 C696 1.539 . S
C699 H713 0.958 . S
C699 H714 0.961 . S
C699 H715 0.960 . S
H700 C684 0.931 . S
H701 C689 0.929 . S
H702 C690 0.960 . S
H703 C690 0.962 . S
H704 C690 0.960 . S
H705 C691 0.961 . S
H706 C691 0.961 . S
H707 C691 0.961 . S
H708 C692 0.931 . S
H709 C697 0.930 . S
H710 C698 0.956 . S
H711 C698 0.961 . S
H712 C698 0.961 . S
H713 C699 0.958 . S
H714 C699 0.961 . S
H715 C699 0.960 . S
C716 C717 1.391 . S
C716 C718 1.394 . S
C716 H732 0.931 . S
C717 C716 1.391 . S
C717 C721 1.376 . S
C718 C716 1.394 . S
C718 C719 1.369 . S
C718 C722 1.531 . S
C719 C718 1.369 . S
C719 C720 1.410 . S
C719 C727 1.503 . S
C720 C719 1.410 . S
C720 C721 1.392 . S
C720 C723 1.511 . S
C721 C717 1.376 . S
C721 C720 1.392 . S
C721 H733 0.929 . S
C722 C718 1.531 . S
C722 H734 0.960 . S
C722 H735 0.962 . S
C722 H736 0.960 . S
C723 C720 1.511 . S
C723 H737 0.961 . S
C723 H738 0.961 . S
C723 H739 0.961 . S
C724 C725 1.370 . S
C724 C726 1.363 . S
C724 H740 0.931 . S
C725 C724 1.370 . S
C725 C729 1.408 . S
C726 C724 1.363 . S
C726 C727 1.370 . S
C726 C730 1.524 . S
C727 C719 1.503 . S
C727 C726 1.370 . S
C727 C728 1.403 . S
C728 C727 1.403 . S
C728 C729 1.404 . S
C728 C731 1.539 . S
C729 C725 1.408 . S
C729 C728 1.404 . S
C729 H741 0.930 . S
C730 C726 1.524 . S
C730 H742 0.956 . S
C730 H743 0.961 . S
C730 H744 0.961 . S
C731 C728 1.539 . S
C731 H745 0.958 . S
C731 H746 0.961 . S
C731 H747 0.960 . S
H732 C716 0.931 . S
H733 C721 0.929 . S
H734 C722 0.960 . S
H735 C722 0.962 . S
H736 C722 0.960 . S
H737 C723 0.961 . S
H738 C723 0.961 . S
H739 C723 0.961 . S
H740 C724 0.931 . S
H741 C729 0.930 . S
H742 C730 0.956 . S
H743 C730 0.961 . S
H744 C730 0.961 . S
H745 C731 0.958 . S
H746 C731 0.961 . S
H747 C731 0.960 . S
C748 C749 1.391 . S
C748 C750 1.394 . S
C748 H764 0.931 . S
C749 C748 1.391 . S
C749 C753 1.376 . S
C750 C748 1.394 . S
C750 C751 1.369 . S
C750 C754 1.531 . S
C751 C750 1.369 . S
C751 C752 1.410 . S
C751 C759 1.503 . S
C752 C751 1.410 . S
C752 C753 1.392 . S
C752 C755 1.511 . S
C753 C749 1.376 . S
C753 C752 1.392 . S
C753 H765 0.929 . S
C754 C750 1.531 . S
C754 H766 0.960 . S
C754 H767 0.962 . S
C754 H768 0.960 . S
C755 C752 1.511 . S
C755 H769 0.961 . S
C755 H770 0.961 . S
C755 H771 0.961 . S
C756 C757 1.370 . S
C756 C758 1.363 . S
C756 H772 0.931 . S
C757 C756 1.370 . S
C757 C761 1.408 . S
C758 C756 1.363 . S
C758 C759 1.370 . S
C758 C762 1.524 . S
C759 C751 1.503 . S
C759 C758 1.370 . S
C759 C760 1.403 . S
C760 C759 1.403 . S
C760 C761 1.404 . S
C760 C763 1.539 . S
C761 C757 1.408 . S
C761 C760 1.404 . S
C761 H773 0.930 . S
C762 C758 1.524 . S
C762 H774 0.956 . S
C762 H775 0.961 . S
C762 H776 0.961 . S
C763 C760 1.539 . S
C763 H777 0.958 1_556 S
C763 H778 0.961 1_556 S
C763 H779 0.960 . S
H764 C748 0.931 . S
H765 C753 0.929 . S
H766 C754 0.960 . S
H767 C754 0.962 . S
H768 C754 0.960 . S
H769 C755 0.961 . S
H770 C755 0.961 . S
H771 C755 0.961 . S
H772 C756 0.931 . S
H773 C761 0.930 . S
H774 C762 0.956 . S
H775 C762 0.961 . S
H776 C762 0.961 . S
H777 C763 0.958 1_554 S
H778 C763 0.961 1_554 S
H779 C763 0.960 . S
C780 C781 1.394 1_455 S
C780 C782 1.393 . S
C780 H796 0.928 . S
C781 C780 1.394 1_655 S
C781 C785 1.376 . S
C782 C780 1.393 . S
C782 C783 1.369 . S
C782 C786 1.531 . S
C783 C782 1.369 . S
C783 C784 1.410 1_455 S
C783 C791 1.503 . S
C784 C783 1.410 1_655 S
C784 C785 1.392 . S
C784 C787 1.511 . S
C785 C781 1.376 . S
C785 C784 1.392 . S
C785 H797 0.929 . S
C786 C782 1.531 . S
C786 H798 0.960 . S
C786 H799 0.962 . S
C786 H800 0.960 . S
C787 C784 1.511 . S
C787 H801 0.961 . S
C787 H802 0.961 . S
C787 H803 0.955 1_655 S
C788 C789 1.370 1_655 S
C788 C790 1.363 . S
C788 H804 0.931 . S
C789 C788 1.370 1_455 S
C789 C793 1.408 . S
C790 C788 1.363 . S
C790 C791 1.370 1_655 S
C790 C794 1.524 . S
C791 C783 1.503 . S
C791 C790 1.370 1_455 S
C791 C792 1.403 . S
C792 C791 1.403 . S
C792 C793 1.404 . S
C792 C795 1.539 . S
C793 C789 1.408 . S
C793 C792 1.404 . S
C793 H805 0.930 . S
C794 C790 1.524 . S
C794 H806 0.956 . S
C794 H807 0.961 . S
C794 H808 0.961 . S
C795 C792 1.539 . S
C795 H809 0.958 . S
C795 H810 0.961 . S
C795 H811 0.960 . S
H796 C780 0.928 . S
H797 C785 0.929 . S
H798 C786 0.960 . S
H799 C786 0.962 . S
H800 C786 0.960 . S
H801 C787 0.961 . S
H802 C787 0.961 . S
H803 C787 0.955 1_455 S
H804 C788 0.931 . S
H805 C793 0.930 . S
H806 C794 0.956 . S
H807 C794 0.961 . S
H808 C794 0.961 . S
H809 C795 0.958 . S
H810 C795 0.961 . S
H811 C795 0.960 . S
C812 C813 1.391 1_545 S
C812 C814 1.394 . S
C812 H828 0.931 . S
C813 C812 1.391 1_565 S
C813 C817 1.376 . S
C814 C812 1.394 . S
C814 C815 1.354 1_545 S
C814 C818 1.531 . S
C815 C814 1.354 1_565 S
C815 C816 1.434 . S
C815 C823 1.498 1_566 S
C816 C815 1.434 . S
C816 C817 1.392 . S
C816 C819 1.511 . S
C817 C813 1.376 . S
C817 C816 1.392 . S
C817 H829 0.929 . S
C818 C814 1.531 . S
C818 H830 0.960 . S
C818 H831 0.962 . S
C818 H832 0.960 . S
C819 C816 1.511 . S
C819 H833 0.961 . S
C819 H834 0.961 1_556 S
C819 H835 0.961 . S
C820 C821 1.370 . S
C820 C822 1.358 1_545 S
C820 H836 0.931 . S
C821 C820 1.370 . S
C821 C825 1.408 . S
C822 C820 1.358 1_565 S
C822 C823 1.346 1_565 S
C822 C826 1.555 . S
C823 C815 1.498 1_544 S
C823 C822 1.346 1_545 S
C823 C824 1.403 . S
C824 C823 1.403 . S
C824 C825 1.404 . S
C824 C827 1.539 . S
C825 C821 1.408 . S
C825 C824 1.404 . S
C825 H837 0.930 . S
C826 C822 1.555 . S
C826 H838 0.966 . S
C826 H839 0.961 . S
C826 H840 0.961 . S
C827 C824 1.539 . S
C827 H841 0.958 . S
C827 H842 0.961 . S
C827 H843 0.960 1_554 S
H828 C812 0.931 . S
H829 C817 0.929 . S
H830 C818 0.960 . S
H831 C818 0.962 . S
H832 C818 0.960 . S
H833 C819 0.961 . S
H834 C819 0.961 1_554 S
H835 C819 0.961 . S
H836 C820 0.931 . S
H837 C825 0.930 . S
H838 C826 0.966 . S
H839 C826 0.961 . S
H840 C826 0.961 . S
H841 C827 0.958 . S
H842 C827 0.961 . S
H843 C827 0.960 1_556 S
C844 C845 1.391 . S
C844 C846 1.394 . S
C844 H860 0.931 . S
C845 C844 1.391 . S
C845 C849 1.376 . S
C846 C844 1.394 . S
C846 C847 1.369 . S
C846 C850 1.531 . S
C847 C846 1.369 . S
C847 C848 1.410 . S
C847 C855 1.503 . S
C848 C847 1.410 . S
C848 C849 1.392 . S
C848 C851 1.511 . S
C849 C845 1.376 . S
C849 C848 1.392 . S
C849 H861 0.929 . S
C850 C846 1.531 . S
C850 H862 0.960 . S
C850 H863 0.962 . S
C850 H864 0.960 . S
C851 C848 1.511 . S
C851 H865 0.961 . S
C851 H866 0.961 . S
C851 H867 0.961 . S
C852 C853 1.370 . S
C852 C854 1.363 . S
C852 H868 0.931 . S
C853 C852 1.370 . S
C853 C857 1.408 . S
C854 C852 1.363 . S
C854 C855 1.370 . S
C854 C858 1.524 . S
C855 C847 1.503 . S
C855 C854 1.370 . S
C855 C856 1.403 . S
C856 C855 1.403 . S
C856 C857 1.404 . S
C856 C859 1.539 . S
C857 C853 1.408 . S
C857 C856 1.404 . S
C857 H869 0.930 . S
C858 C854 1.524 . S
C858 H870 0.956 . S
C858 H871 0.961 . S
C858 H872 0.961 . S
C859 C856 1.539 . S
C859 H873 0.958 . S
C859 H874 0.961 . S
C859 H875 0.960 . S
H860 C844 0.931 . S
H861 C849 0.929 . S
H862 C850 0.960 . S
H863 C850 0.962 . S
H864 C850 0.960 . S
H865 C851 0.961 . S
H866 C851 0.961 . S
H867 C851 0.961 . S
H868 C852 0.931 . S
H869 C857 0.930 . S
H870 C858 0.956 . S
H871 C858 0.961 . S
H872 C858 0.961 . S
H873 C859 0.958 . S
H874 C859 0.961 . S
H875 C859 0.960 . S
C876 C877 1.395 . S
C876 C878 1.393 1_655 S
C876 H892 0.927 1_655 S
C877 C876 1.395 . S
C877 C881 1.376 . S
C878 C876 1.393 1_455 S
C878 C879 1.369 1_455 S
C878 C882 1.531 . S
C879 C878 1.369 1_655 S
C879 C880 1.410 . S
C879 C887 1.503 . S
C880 C879 1.410 . S
C880 C881 1.392 . S
C880 C883 1.511 . S
C881 C877 1.376 . S
C881 C880 1.392 . S
C881 H893 0.929 . S
C882 C878 1.531 . S
C882 H894 0.960 . S
C882 H895 0.962 . S
C882 H896 0.960 . S
C883 C880 1.511 . S
C883 H897 0.961 . S
C883 H898 0.961 . S
C883 H899 0.961 . S
C884 C885 1.370 . S
C884 C886 1.363 . S
C884 H900 0.931 . S
C885 C884 1.370 . S
C885 C889 1.408 1_455 S
C886 C884 1.363 . S
C886 C887 1.371 1_455 S
C886 C890 1.524 . S
C887 C879 1.503 . S
C887 C886 1.371 1_655 S
C887 C888 1.402 . S
C888 C887 1.402 . S
C888 C889 1.404 . S
C888 C891 1.539 . S
C889 C885 1.408 1_655 S
C889 C888 1.404 . S
C889 H901 0.930 . S
C890 C886 1.524 . S
C890 H902 0.956 . S
C890 H903 0.961 . S
C890 H904 0.961 . S
C891 C888 1.539 . S
C891 H905 0.958 . S
C891 H906 0.961 . S
C891 H907 0.960 . S
H892 C876 0.927 1_455 S
H893 C881 0.929 . S
H894 C882 0.960 . S
H895 C882 0.962 . S
H896 C882 0.960 . S
H897 C883 0.961 . S
H898 C883 0.961 . S
H899 C883 0.961 . S
H900 C884 0.931 . S
H901 C889 0.930 . S
H902 C890 0.956 . S
H903 C890 0.961 . S
H904 C890 0.961 . S
H905 C891 0.958 . S
H906 C891 0.961 . S
H907 C891 0.960 . S
C908 C909 1.391 1_545 S
C908 C910 1.394 . S
C908 H924 0.931 . S
C909 C908 1.391 1_565 S
C909 C913 1.376 . S
C910 C908 1.394 . S
C910 C911 1.372 1_545 S
C910 C914 1.531 . S
C911 C910 1.372 1_565 S
C911 C912 1.405 . S
C911 C919 1.504 1_565 S
C912 C911 1.405 . S
C912 C913 1.392 . S
C912 C915 1.511 . S
C913 C909 1.376 . S
C913 C912 1.392 . S
C913 H925 0.929 . S
C914 C910 1.531 . S
C914 H926 0.960 . S
C914 H927 0.962 . S
C914 H928 0.960 . S
C915 C912 1.511 . S
C915 H929 0.961 . S
C915 H930 0.961 . S
C915 H931 0.961 . S
C916 C917 1.370 . S
C916 C918 1.363 1_545 S
C916 H932 0.931 1_545 S
C917 C916 1.370 . S
C917 C921 1.408 . S
C918 C916 1.363 1_565 S
C918 C919 1.370 1_565 S
C918 C922 1.524 . S
C919 C911 1.504 1_545 S
C919 C918 1.370 1_545 S
C919 C920 1.403 . S
C920 C919 1.403 . S
C920 C921 1.404 . S
C920 C923 1.539 . S
C921 C917 1.408 . S
C921 C920 1.404 . S
C921 H933 0.930 . S
C922 C918 1.524 . S
C922 H934 0.956 . S
C922 H935 0.961 . S
C922 H936 0.961 . S
C923 C920 1.539 . S
C923 H937 0.958 . S
C923 H938 0.961 . S
C923 H939 0.960 . S
H924 C908 0.931 . S
H925 C913 0.929 . S
H926 C914 0.960 . S
H927 C914 0.962 . S
H928 C914 0.960 . S
H929 C915 0.961 . S
H930 C915 0.961 . S
H931 C915 0.961 . S
H932 C916 0.931 1_565 S
H933 C921 0.930 . S
H934 C922 0.956 . S
H935 C922 0.961 . S
H936 C922 0.961 . S
H937 C923 0.958 . S
H938 C923 0.961 . S
H939 C923 0.960 . S
C940 C941 1.391 . S
C940 C942 1.394 . S
C940 H956 0.931 . S
C941 C940 1.391 . S
C941 C945 1.376 . S
C942 C940 1.394 . S
C942 C943 1.369 . S
C942 C946 1.531 . S
C943 C942 1.369 . S
C943 C944 1.410 . S
C943 C951 1.503 . S
C944 C943 1.410 . S
C944 C945 1.392 . S
C944 C947 1.511 . S
C945 C941 1.376 . S
C945 C944 1.392 . S
C945 H957 0.929 . S
C946 C942 1.531 . S
C946 H958 0.960 . S
C946 H959 0.962 . S
C946 H960 0.960 . S
C947 C944 1.511 . S
C947 H961 0.961 . S
C947 H962 0.961 . S
C947 H963 0.961 . S
C948 C949 1.370 . S
C948 C950 1.363 . S
C948 H964 0.931 . S
C949 C948 1.370 . S
C949 C953 1.408 . S
C950 C948 1.363 . S
C950 C951 1.370 . S
C950 C954 1.524 . S
C951 C943 1.503 . S
C951 C950 1.370 . S
C951 C952 1.403 . S
C952 C951 1.403 . S
C952 C953 1.404 . S
C952 C955 1.539 . S
C953 C949 1.408 . S
C953 C952 1.404 . S
C953 H965 0.930 . S
C954 C950 1.524 . S
C954 H966 0.956 . S
C954 H967 0.961 . S
C954 H968 0.961 . S
C955 C952 1.539 . S
C955 H969 0.958 . S
C955 H970 0.961 . S
C955 H971 0.960 . S
H956 C940 0.931 . S
H957 C945 0.929 . S
H958 C946 0.960 . S
H959 C946 0.962 . S
H960 C946 0.960 . S
H961 C947 0.961 . S
H962 C947 0.961 . S
H963 C947 0.961 . S
H964 C948 0.931 . S
H965 C953 0.930 . S
H966 C954 0.956 . S
H967 C954 0.961 . S
H968 C954 0.961 . S
H969 C955 0.958 . S
H970 C955 0.961 . S
H971 C955 0.960 . S
C972 C973 1.391 . S
C972 C974 1.394 . S
C972 H988 0.931 . S
C973 C972 1.391 . S
C973 C977 1.376 . S
C974 C972 1.394 . S
C974 C975 1.369 . S
C974 C978 1.531 . S
C975 C974 1.369 . S
C975 C976 1.410 . S
C975 C983 1.503 . S
C976 C975 1.410 . S
C976 C977 1.392 . S
C976 C979 1.511 . S
C977 C973 1.376 . S
C977 C976 1.392 . S
C977 H989 0.929 . S
C978 C974 1.531 . S
C978 H990 0.960 . S
C978 H991 0.962 . S
C978 H992 0.960 . S
C979 C976 1.511 . S
C979 H993 0.961 . S
C979 H994 0.961 . S
C979 H995 0.961 . S
C980 C981 1.370 . S
C980 C982 1.363 . S
C980 H996 0.931 . S
C981 C980 1.370 . S
C981 C985 1.408 1_554 S
C982 C980 1.363 . S
C982 C983 1.370 1_554 S
C982 C986 1.524 . S
C983 C975 1.503 . S
C983 C982 1.370 1_556 S
C983 C984 1.403 . S
C984 C983 1.403 . S
C984 C985 1.404 . S
C984 C987 1.539 . S
C985 C981 1.408 1_556 S
C985 C984 1.404 . S
C985 H997 0.930 . S
C986 C982 1.524 . S
C986 H998 0.956 . S
C986 H999 0.961 . S
C986 H1000 0.961 . S
C987 C984 1.539 . S
C987 H1001 0.958 . S
C987 H1002 0.961 . S
C987 H1003 0.960 . S
H988 C972 0.931 . S
H989 C977 0.929 . S
H990 C978 0.960 . S
H991 C978 0.962 . S
H992 C978 0.960 . S
H993 C979 0.961 . S
H994 C979 0.961 . S
H995 C979 0.961 . S
H996 C980 0.931 . S
H997 C985 0.930 . S
H998 C986 0.956 . S
H999 C986 0.961 . S
H1000 C986 0.961 . S
H1001 C987 0.958 . S
H1002 C987 0.961 . S
H1003 C987 0.960 . S
C1004 C1005 1.391 . S
C1004 C1006 1.394 . S
C1004 H1020 0.931 . S
C1005 C1004 1.391 . S
C1005 C1009 1.376 . S
C1006 C1004 1.394 . S
C1006 C1007 1.369 . S
C1006 C1010 1.531 . S
C1007 C1006 1.369 . S
C1007 C1008 1.410 . S
C1007 C1015 1.503 . S
C1008 C1007 1.410 . S
C1008 C1009 1.392 . S
C1008 C1011 1.511 . S
C1009 C1005 1.376 . S
C1009 C1008 1.392 . S
C1009 H1021 0.929 . S
C1010 C1006 1.531 . S
C1010 H1022 0.960 . S
C1010 H1023 0.962 . S
C1010 H1024 0.960 . S
C1011 C1008 1.511 . S
C1011 H1025 0.961 . S
C1011 H1026 0.961 . S
C1011 H1027 0.961 . S
C1012 C1013 1.370 . S
C1012 C1014 1.363 . S
C1012 H1028 0.931 . S
C1013 C1012 1.370 . S
C1013 C1017 1.408 . S
C1014 C1012 1.363 . S
C1014 C1015 1.370 . S
C1014 C1018 1.524 . S
C1015 C1007 1.503 . S
C1015 C1014 1.370 . S
C1015 C1016 1.403 . S
C1016 C1015 1.403 . S
C1016 C1017 1.404 . S
C1016 C1019 1.539 . S
C1017 C1013 1.408 . S
C1017 C1016 1.404 . S
C1017 H1029 0.930 . S
C1018 C1014 1.524 . S
C1018 H1030 0.956 . S
C1018 H1031 0.961 . S
C1018 H1032 0.961 . S
C1019 C1016 1.539 . S
C1019 H1033 0.958 . S
C1019 H1034 0.961 . S
C1019 H1035 0.960 . S
H1020 C1004 0.931 . S
H1021 C1009 0.929 . S
H1022 C1010 0.960 . S
H1023 C1010 0.962 . S
H1024 C1010 0.960 . S
H1025 C1011 0.961 . S
H1026 C1011 0.961 . S
H1027 C1011 0.961 . S
H1028 C1012 0.931 . S
H1029 C1017 0.930 . S
H1030 C1018 0.956 . S
H1031 C1018 0.961 . S
H1032 C1018 0.961 . S
H1033 C1019 0.958 . S
H1034 C1019 0.961 . S
H1035 C1019 0.960 . S
C1036 C1037 1.391 . S
C1036 C1038 1.394 . S
C1036 H1052 0.931 . S
C1037 C1036 1.391 . S
C1037 C1041 1.376 . S
C1038 C1036 1.394 . S
C1038 C1039 1.369 . S
C1038 C1042 1.531 . S
C1039 C1038 1.369 . S
C1039 C1040 1.410 . S
C1039 C1047 1.503 . S
C1040 C1039 1.410 . S
C1040 C1041 1.392 . S
C1040 C1043 1.511 . S
C1041 C1037 1.376 . S
C1041 C1040 1.392 . S
C1041 H1053 0.929 . S
C1042 C1038 1.531 . S
C1042 H1054 0.960 . S
C1042 H1055 0.962 . S
C1042 H1056 0.960 . S
C1043 C1040 1.511 . S
C1043 H1057 0.961 . S
C1043 H1058 0.961 . S
C1043 H1059 0.961 . S
C1044 C1045 1.370 . S
C1044 C1046 1.363 . S
C1044 H1060 0.931 . S
C1045 C1044 1.370 . S
C1045 C1049 1.408 . S
C1046 C1044 1.363 . S
C1046 C1047 1.370 . S
C1046 C1050 1.524 . S
C1047 C1039 1.503 . S
C1047 C1046 1.370 . S
C1047 C1048 1.403 . S
C1048 C1047 1.403 . S
C1048 C1049 1.404 . S
C1048 C1051 1.539 . S
C1049 C1045 1.408 . S
C1049 C1048 1.404 . S
C1049 H1061 0.930 . S
C1050 C1046 1.524 . S
C1050 H1062 0.956 . S
C1050 H1063 0.961 . S
C1050 H1064 0.961 . S
C1051 C1048 1.539 . S
C1051 H1065 0.958 . S
C1051 H1066 0.961 . S
C1051 H1067 0.960 . S
H1052 C1036 0.931 . S
H1053 C1041 0.929 . S
H1054 C1042 0.960 . S
H1055 C1042 0.962 . S
H1056 C1042 0.960 . S
H1057 C1043 0.961 . S
H1058 C1043 0.961 . S
H1059 C1043 0.961 . S
H1060 C1044 0.931 . S
H1061 C1049 0.930 . S
H1062 C1050 0.956 . S
H1063 C1050 0.961 . S
H1064 C1050 0.961 . S
H1065 C1051 0.958 . S
H1066 C1051 0.961 . S
H1067 C1051 0.960 . S
C1068 C1069 1.391 . S
C1068 C1070 1.394 . S
C1068 H1084 0.931 . S
C1069 C1068 1.391 . S
C1069 C1073 1.376 . S
C1070 C1068 1.394 . S
C1070 C1071 1.369 . S
C1070 C1074 1.531 . S
C1071 C1070 1.369 . S
C1071 C1072 1.410 . S
C1071 C1079 1.503 . S
C1072 C1071 1.410 . S
C1072 C1073 1.392 . S
C1072 C1075 1.511 . S
C1073 C1069 1.376 . S
C1073 C1072 1.392 . S
C1073 H1085 0.929 . S
C1074 C1070 1.531 . S
C1074 H1086 0.960 . S
C1074 H1087 0.962 . S
C1074 H1088 0.960 . S
C1075 C1072 1.511 . S
C1075 H1089 0.961 . S
C1075 H1090 0.961 . S
C1075 H1091 0.961 . S
C1076 C1077 1.370 . S
C1076 C1078 1.363 . S
C1076 H1092 0.931 . S
C1077 C1076 1.370 . S
C1077 C1081 1.408 . S
C1078 C1076 1.363 . S
C1078 C1079 1.370 . S
C1078 C1082 1.524 . S
C1079 C1071 1.503 . S
C1079 C1078 1.370 . S
C1079 C1080 1.403 . S
C1080 C1079 1.403 . S
C1080 C1081 1.404 . S
C1080 C1083 1.539 . S
C1081 C1077 1.408 . S
C1081 C1080 1.404 . S
C1081 H1093 0.930 . S
C1082 C1078 1.524 . S
C1082 H1094 0.956 . S
C1082 H1095 0.961 . S
C1082 H1096 0.961 . S
C1083 C1080 1.539 . S
C1083 H1097 0.958 . S
C1083 H1098 0.961 . S
C1083 H1099 0.960 . S
H1084 C1068 0.931 . S
H1085 C1073 0.929 . S
H1086 C1074 0.960 . S
H1087 C1074 0.962 . S
H1088 C1074 0.960 . S
H1089 C1075 0.961 . S
H1090 C1075 0.961 . S
H1091 C1075 0.961 . S
H1092 C1076 0.931 . S
H1093 C1081 0.930 . S
H1094 C1082 0.956 . S
H1095 C1082 0.961 . S
H1096 C1082 0.961 . S
H1097 C1083 0.958 . S
H1098 C1083 0.961 . S
H1099 C1083 0.960 . S
C1100 C1101 1.391 . S
C1100 C1102 1.394 . S
C1100 H1116 0.931 . S
C1101 C1100 1.391 . S
C1101 C1105 1.376 . S
C1102 C1100 1.394 . S
C1102 C1103 1.369 . S
C1102 C1106 1.531 . S
C1103 C1102 1.369 . S
C1103 C1104 1.410 . S
C1103 C1111 1.503 . S
C1104 C1103 1.410 . S
C1104 C1105 1.392 . S
C1104 C1107 1.511 . S
C1105 C1101 1.376 . S
C1105 C1104 1.392 . S
C1105 H1117 0.929 . S
C1106 C1102 1.531 . S
C1106 H1118 0.960 . S
C1106 H1119 0.962 . S
C1106 H1120 0.960 . S
C1107 C1104 1.511 . S
C1107 H1121 0.961 . S
C1107 H1122 0.961 . S
C1107 H1123 0.961 . S
C1108 C1109 1.370 . S
C1108 C1110 1.363 . S
C1108 H1124 0.931 . S
C1109 C1108 1.370 . S
C1109 C1113 1.408 . S
C1110 C1108 1.363 . S
C1110 C1111 1.370 . S
C1110 C1114 1.524 . S
C1111 C1103 1.503 . S
C1111 C1110 1.370 . S
C1111 C1112 1.403 . S
C1112 C1111 1.403 . S
C1112 C1113 1.404 . S
C1112 C1115 1.539 . S
C1113 C1109 1.408 . S
C1113 C1112 1.404 . S
C1113 H1125 0.930 . S
C1114 C1110 1.524 . S
C1114 H1126 0.956 . S
C1114 H1127 0.961 . S
C1114 H1128 0.961 . S
C1115 C1112 1.539 . S
C1115 H1129 0.958 . S
C1115 H1130 0.961 . S
C1115 H1131 0.960 . S
H1116 C1100 0.931 . S
H1117 C1105 0.929 . S
H1118 C1106 0.960 . S
H1119 C1106 0.962 . S
H1120 C1106 0.960 . S
H1121 C1107 0.961 . S
H1122 C1107 0.961 . S
H1123 C1107 0.961 . S
H1124 C1108 0.931 . S
H1125 C1113 0.930 . S
H1126 C1114 0.956 . S
H1127 C1114 0.961 . S
H1128 C1114 0.961 . S
H1129 C1115 0.958 . S
H1130 C1115 0.961 . S
H1131 C1115 0.960 . S
C1132 C1133 1.391 . S
C1132 C1134 1.394 . S
C1132 H1148 0.931 . S
C1133 C1132 1.391 . S
C1133 C1137 1.376 . S
C1134 C1132 1.394 . S
C1134 C1135 1.369 . S
C1134 C1138 1.531 . S
C1135 C1134 1.369 . S
C1135 C1136 1.410 . S
C1135 C1143 1.503 . S
C1136 C1135 1.410 . S
C1136 C1137 1.392 . S
C1136 C1139 1.511 . S
C1137 C1133 1.376 . S
C1137 C1136 1.392 . S
C1137 H1149 0.929 . S
C1138 C1134 1.531 . S
C1138 H1150 0.960 . S
C1138 H1151 0.962 . S
C1138 H1152 0.960 . S
C1139 C1136 1.511 . S
C1139 H1153 0.961 . S
C1139 H1154 0.961 . S
C1139 H1155 0.961 . S
C1140 C1141 1.370 . S
C1140 C1142 1.363 . S
C1140 H1156 0.931 . S
C1141 C1140 1.370 . S
C1141 C1145 1.408 . S
C1142 C1140 1.363 . S
C1142 C1143 1.370 . S
C1142 C1146 1.524 . S
C1143 C1135 1.503 . S
C1143 C1142 1.370 . S
C1143 C1144 1.403 . S
C1144 C1143 1.403 . S
C1144 C1145 1.404 . S
C1144 C1147 1.539 . S
C1145 C1141 1.408 . S
C1145 C1144 1.404 . S
C1145 H1157 0.930 . S
C1146 C1142 1.524 . S
C1146 H1158 0.956 . S
C1146 H1159 0.961 . S
C1146 H1160 0.961 . S
C1147 C1144 1.539 . S
C1147 H1161 0.958 . S
C1147 H1162 0.961 . S
C1147 H1163 0.960 . S
H1148 C1132 0.931 . S
H1149 C1137 0.929 . S
H1150 C1138 0.960 . S
H1151 C1138 0.962 . S
H1152 C1138 0.960 . S
H1153 C1139 0.961 . S
H1154 C1139 0.961 . S
H1155 C1139 0.961 . S
H1156 C1140 0.931 . S
H1157 C1145 0.930 . S
H1158 C1146 0.956 . S
H1159 C1146 0.961 . S
H1160 C1146 0.961 . S
H1161 C1147 0.958 . S
H1162 C1147 0.961 . S
H1163 C1147 0.960 . S
C1164 C1165 1.391 . S
C1164 C1166 1.394 . S
C1164 H1180 0.931 . S
C1165 C1164 1.391 . S
C1165 C1169 1.376 . S
C1166 C1164 1.394 . S
C1166 C1167 1.369 . S
C1166 C1170 1.531 . S
C1167 C1166 1.369 . S
C1167 C1168 1.410 . S
C1167 C1175 1.503 . S
C1168 C1167 1.410 . S
C1168 C1169 1.392 . S
C1168 C1171 1.511 . S
C1169 C1165 1.376 . S
C1169 C1168 1.392 . S
C1169 H1181 0.929 . S
C1170 C1166 1.531 . S
C1170 H1182 0.960 . S
C1170 H1183 0.962 . S
C1170 H1184 0.960 . S
C1171 C1168 1.511 . S
C1171 H1185 0.961 . S
C1171 H1186 0.961 . S
C1171 H1187 0.961 . S
C1172 C1173 1.370 . S
C1172 C1174 1.363 . S
C1172 H1188 0.931 . S
C1173 C1172 1.370 . S
C1173 C1177 1.408 . S
C1174 C1172 1.363 . S
C1174 C1175 1.370 . S
C1174 C1178 1.524 . S
C1175 C1167 1.503 . S
C1175 C1174 1.370 . S
C1175 C1176 1.403 . S
C1176 C1175 1.403 . S
C1176 C1177 1.404 . S
C1176 C1179 1.539 . S
C1177 C1173 1.408 . S
C1177 C1176 1.404 . S
C1177 H1189 0.930 . S
C1178 C1174 1.524 . S
C1178 H1190 0.956 . S
C1178 H1191 0.961 . S
C1178 H1192 0.961 . S
C1179 C1176 1.539 . S
C1179 H1193 0.958 . S
C1179 H1194 0.961 . S
C1179 H1195 0.960 . S
H1180 C1164 0.931 . S
H1181 C1169 0.929 . S
H1182 C1170 0.960 . S
H1183 C1170 0.962 . S
H1184 C1170 0.960 . S
H1185 C1171 0.961 . S
H1186 C1171 0.961 . S
H1187 C1171 0.961 . S
H1188 C1172 0.931 . S
H1189 C1177 0.930 . S
H1190 C1178 0.956 . S
H1191 C1178 0.961 . S
H1192 C1178 0.961 . S
H1193 C1179 0.958 . S
H1194 C1179 0.961 . S
H1195 C1179 0.960 . S
C1196 C1197 1.391 1_554 S
C1196 C1198 1.394 . S
C1196 H1212 0.931 . S
C1197 C1196 1.391 1_556 S
C1197 C1201 1.376 . S
C1198 C1196 1.394 . S
C1198 C1199 1.369 . S
C1198 C1202 1.531 . S
C1199 C1198 1.369 . S
C1199 C1200 1.410 1_554 S
C1199 C1207 1.503 . S
C1200 C1199 1.410 1_556 S
C1200 C1201 1.392 . S
C1200 C1203 1.511 . S
C1201 C1197 1.376 . S
C1201 C1200 1.392 . S
C1201 H1213 0.929 . S
C1202 C1198 1.531 . S
C1202 H1214 0.960 . S
C1202 H1215 0.962 . S
C1202 H1216 0.960 . S
C1203 C1200 1.511 . S
C1203 H1217 0.961 . S
C1203 H1218 0.961 . S
C1203 H1219 0.961 . S
C1204 C1205 1.370 . S
C1204 C1206 1.363 . S
C1204 H1220 0.931 . S
C1205 C1204 1.370 . S
C1205 C1209 1.408 . S
C1206 C1204 1.363 . S
C1206 C1207 1.370 . S
C1206 C1210 1.524 . S
C1207 C1199 1.503 . S
C1207 C1206 1.370 . S
C1207 C1208 1.403 . S
C1208 C1207 1.403 . S
C1208 C1209 1.404 . S
C1208 C1211 1.539 . S
C1209 C1205 1.408 . S
C1209 C1208 1.404 . S
C1209 H1221 0.930 . S
C1210 C1206 1.524 . S
C1210 H1222 0.956 . S
C1210 H1223 0.961 . S
C1210 H1224 0.961 . S
C1211 C1208 1.539 . S
C1211 H1225 0.958 . S
C1211 H1226 0.961 . S
C1211 H1227 0.960 1_554 S
H1212 C1196 0.931 . S
H1213 C1201 0.929 . S
H1214 C1202 0.960 . S
H1215 C1202 0.962 . S
H1216 C1202 0.960 . S
H1217 C1203 0.961 . S
H1218 C1203 0.961 . S
H1219 C1203 0.961 . S
H1220 C1204 0.931 . S
H1221 C1209 0.930 . S
H1222 C1210 0.956 . S
H1223 C1210 0.961 . S
H1224 C1210 0.961 . S
H1225 C1211 0.958 . S
H1226 C1211 0.961 . S
H1227 C1211 0.960 1_556 S
C1228 C1229 1.391 . S
C1228 C1230 1.394 . S
C1228 H1244 0.931 . S
C1229 C1228 1.391 . S
C1229 C1233 1.376 . S
C1230 C1228 1.394 . S
C1230 C1231 1.369 . S
C1230 C1234 1.531 . S
C1231 C1230 1.369 . S
C1231 C1232 1.410 . S
C1231 C1239 1.503 . S
C1232 C1231 1.410 . S
C1232 C1233 1.392 . S
C1232 C1235 1.511 . S
C1233 C1229 1.376 . S
C1233 C1232 1.392 . S
C1233 H1245 0.929 . S
C1234 C1230 1.531 . S
C1234 H1246 0.960 . S
C1234 H1247 0.962 . S
C1234 H1248 0.960 . S
C1235 C1232 1.511 . S
C1235 H1249 0.961 . S
C1235 H1250 0.961 . S
C1235 H1251 0.961 . S
C1236 C1237 1.370 . S
C1236 C1238 1.363 . S
C1236 H1252 0.931 . S
C1237 C1236 1.370 . S
C1237 C1241 1.408 . S
C1238 C1236 1.363 . S
C1238 C1239 1.370 . S
C1238 C1242 1.524 . S
C1239 C1231 1.503 . S
C1239 C1238 1.370 . S
C1239 C1240 1.403 . S
C1240 C1239 1.403 . S
C1240 C1241 1.404 . S
C1240 C1243 1.539 . S
C1241 C1237 1.408 . S
C1241 C1240 1.404 . S
C1241 H1253 0.930 . S
C1242 C1238 1.524 . S
C1242 H1254 0.956 . S
C1242 H1255 0.961 . S
C1242 H1256 0.961 . S
C1243 C1240 1.539 . S
C1243 H1257 0.958 . S
C1243 H1258 0.961 . S
C1243 H1259 0.960 . S
H1244 C1228 0.931 . S
H1245 C1233 0.929 . S
H1246 C1234 0.960 . S
H1247 C1234 0.962 . S
H1248 C1234 0.960 . S
H1249 C1235 0.961 . S
H1250 C1235 0.961 . S
H1251 C1235 0.961 . S
H1252 C1236 0.931 . S
H1253 C1241 0.930 . S
H1254 C1242 0.956 . S
H1255 C1242 0.961 . S
H1256 C1242 0.961 . S
H1257 C1243 0.958 . S
H1258 C1243 0.961 . S
H1259 C1243 0.960 . S
C1260 C1261 1.391 . S
C1260 C1262 1.394 . S
C1260 H1276 0.931 . S
C1261 C1260 1.391 . S
C1261 C1265 1.376 . S
C1262 C1260 1.394 . S
C1262 C1263 1.369 . S
C1262 C1266 1.531 . S
C1263 C1262 1.369 . S
C1263 C1264 1.410 . S
C1263 C1271 1.503 . S
C1264 C1263 1.410 . S
C1264 C1265 1.392 . S
C1264 C1267 1.511 . S
C1265 C1261 1.376 . S
C1265 C1264 1.392 . S
C1265 H1277 0.929 . S
C1266 C1262 1.531 . S
C1266 H1278 0.960 . S
C1266 H1279 0.962 . S
C1266 H1280 0.960 . S
C1267 C1264 1.511 . S
C1267 H1281 0.961 . S
C1267 H1282 0.961 . S
C1267 H1283 0.961 . S
C1268 C1269 1.370 . S
C1268 C1270 1.363 . S
C1268 H1284 0.931 . S
C1269 C1268 1.370 . S
C1269 C1273 1.408 . S
C1270 C1268 1.363 . S
C1270 C1271 1.370 . S
C1270 C1274 1.524 . S
C1271 C1263 1.503 . S
C1271 C1270 1.370 . S
C1271 C1272 1.403 . S
C1272 C1271 1.403 . S
C1272 C1273 1.404 . S
C1272 C1275 1.539 . S
C1273 C1269 1.408 . S
C1273 C1272 1.404 . S
C1273 H1285 0.930 . S
C1274 C1270 1.524 . S
C1274 H1286 0.956 . S
C1274 H1287 0.961 . S
C1274 H1288 0.961 . S
C1275 C1272 1.539 . S
C1275 H1289 0.958 . S
C1275 H1290 0.961 . S
C1275 H1291 0.960 . S
H1276 C1260 0.931 . S
H1277 C1265 0.929 . S
H1278 C1266 0.960 . S
H1279 C1266 0.962 . S
H1280 C1266 0.960 . S
H1281 C1267 0.961 . S
H1282 C1267 0.961 . S
H1283 C1267 0.961 . S
H1284 C1268 0.931 . S
H1285 C1273 0.930 . S
H1286 C1274 0.956 . S
H1287 C1274 0.961 . S
H1288 C1274 0.961 . S
H1289 C1275 0.958 . S
H1290 C1275 0.961 . S
H1291 C1275 0.960 . S
C1292 C1293 1.391 . S
C1292 C1294 1.394 . S
C1292 H1308 0.931 . S
C1293 C1292 1.391 . S
C1293 C1297 1.376 . S
C1294 C1292 1.394 . S
C1294 C1295 1.369 . S
C1294 C1298 1.531 . S
C1295 C1294 1.369 . S
C1295 C1296 1.410 . S
C1295 C1303 1.503 . S
C1296 C1295 1.410 . S
C1296 C1297 1.392 . S
C1296 C1299 1.511 . S
C1297 C1293 1.376 . S
C1297 C1296 1.392 . S
C1297 H1309 0.929 . S
C1298 C1294 1.531 . S
C1298 H1310 0.960 . S
C1298 H1311 0.962 . S
C1298 H1312 0.960 . S
C1299 C1296 1.511 . S
C1299 H1313 0.961 . S
C1299 H1314 0.961 . S
C1299 H1315 0.961 . S
C1300 C1301 1.370 . S
C1300 C1302 1.363 . S
C1300 H1316 0.931 . S
C1301 C1300 1.370 . S
C1301 C1305 1.408 . S
C1302 C1300 1.363 . S
C1302 C1303 1.370 . S
C1302 C1306 1.524 . S
C1303 C1295 1.503 . S
C1303 C1302 1.370 . S
C1303 C1304 1.403 . S
C1304 C1303 1.403 . S
C1304 C1305 1.404 . S
C1304 C1307 1.539 . S
C1305 C1301 1.408 . S
C1305 C1304 1.404 . S
C1305 H1317 0.930 . S
C1306 C1302 1.524 . S
C1306 H1318 0.956 . S
C1306 H1319 0.961 . S
C1306 H1320 0.961 . S
C1307 C1304 1.539 . S
C1307 H1321 0.958 . S
C1307 H1322 0.961 . S
C1307 H1323 0.960 . S
H1308 C1292 0.931 . S
H1309 C1297 0.929 . S
H1310 C1298 0.960 . S
H1311 C1298 0.962 . S
H1312 C1298 0.960 . S
H1313 C1299 0.961 . S
H1314 C1299 0.961 . S
H1315 C1299 0.961 . S
H1316 C1300 0.931 . S
H1317 C1305 0.930 . S
H1318 C1306 0.956 . S
H1319 C1306 0.961 . S
H1320 C1306 0.961 . S
H1321 C1307 0.958 . S
H1322 C1307 0.961 . S
H1323 C1307 0.960 . S
C1324 C1325 1.391 . S
C1324 C1326 1.394 . S
C1324 H1340 0.931 . S
C1325 C1324 1.391 . S
C1325 C1329 1.376 . S
C1326 C1324 1.394 . S
C1326 C1327 1.369 . S
C1326 C1330 1.531 . S
C1327 C1326 1.369 . S
C1327 C1328 1.410 . S
C1327 C1335 1.503 . S
C1328 C1327 1.410 . S
C1328 C1329 1.392 . S
C1328 C1331 1.511 . S
C1329 C1325 1.376 . S
C1329 C1328 1.392 . S
C1329 H1341 0.929 . S
C1330 C1326 1.531 . S
C1330 H1342 0.960 . S
C1330 H1343 0.962 . S
C1330 H1344 0.960 . S
C1331 C1328 1.511 . S
C1331 H1345 0.961 . S
C1331 H1346 0.961 . S
C1331 H1347 0.961 . S
C1332 C1333 1.370 . S
C1332 C1334 1.363 . S
C1332 H1348 0.931 . S
C1333 C1332 1.370 . S
C1333 C1337 1.408 . S
C1334 C1332 1.363 . S
C1334 C1335 1.370 . S
C1334 C1338 1.524 . S
C1335 C1327 1.503 . S
C1335 C1334 1.370 . S
C1335 C1336 1.403 . S
C1336 C1335 1.403 . S
C1336 C1337 1.404 . S
C1336 C1339 1.539 . S
C1337 C1333 1.408 . S
C1337 C1336 1.404 . S
C1337 H1349 0.930 . S
C1338 C1334 1.524 . S
C1338 H1350 0.956 . S
C1338 H1351 0.961 . S
C1338 H1352 0.961 . S
C1339 C1336 1.539 . S
C1339 H1353 0.958 . S
C1339 H1354 0.961 . S
C1339 H1355 0.960 . S
H1340 C1324 0.931 . S
H1341 C1329 0.929 . S
H1342 C1330 0.960 . S
H1343 C1330 0.962 . S
H1344 C1330 0.960 . S
H1345 C1331 0.961 . S
H1346 C1331 0.961 . S
H1347 C1331 0.961 . S
H1348 C1332 0.931 . S
H1349 C1337 0.930 . S
H1350 C1338 0.956 . S
H1351 C1338 0.961 . S
H1352 C1338 0.961 . S
H1353 C1339 0.958 . S
H1354 C1339 0.961 . S
H1355 C1339 0.960 . S
C397 N343 1.062 . S
C405 N13 1.060 . S
C429 N46 1.069 . S
C437 N376 1.057 . S
C461 N79 1.065 . S
C469 N211 1.037 . S
C493 N112 1.045 . S
C501 N244 1.039 . S
C525 N145 1.033 . S
C533 N277 1.042 1_556 S
C557 N178 1.064 1_554 S
C565 N310 1.037 . S
C589 C21 1.447 . S
C597 C285 1.443 . S
C621 C318 1.437 . S
C629 C54 1.445 . S
C653 C87 1.442 . S
C661 C351 1.451 . S
C685 C120 1.451 . S
C693 C384 1.449 . S
C717 C153 1.434 . S
C725 C219 1.448 . S
C749 C186 1.437 . S
C757 C252 1.451 . S
C781 N365 1.245 . S
C789 N2 1.184 . S
C813 N200 1.228 . S
C821 N35 1.201 . S
C845 N233 1.245 . S
C853 N68 1.183 . S
C877 N101 1.169 . S
C885 N266 1.218 . S
C909 N134 1.233 . S
C917 N299 1.198 . S
C941 N332 1.245 . S
C949 N167 1.185 . S
C973 C172 1.974 . S
C981 C18 1.981 . S
C1005 C7 1.959 1_655 S
C1013 C51 1.986 . S
C1037 C84 1.980 . S
C1045 C40 1.971 1_565 S
C1069 C73 1.979 . S
C1077 C117 1.982 . S
C1101 C150 1.973 . S
C1109 C106 1.977 1_455 S
C1133 C183 1.982 . S
C1141 C139 1.970 1_545 S
C1165 C238 1.960 . S
C1173 C216 1.985 . S
C1197 C249 1.984 . S
C1205 C271 1.970 1_655 S
C1229 C282 1.977 . S
C1237 C304 1.978 1_565 S
C1261 C337 1.959 . S
C1269 C315 1.985 . S
C1293 C370 1.980 1_455 S
C1301 C348 1.982 . S
C1325 C381 1.981 . S
C1333 C205 1.971 1_545 S
