# Generated by pormake.
# Topology whe, (6)-cn, num edge types: 1
# Building blocks:
#     Node 0, Type 0, BuildingBlock: IZENUY_clean_sbu_0, # of connection points: 6
#     Node 1, Type 0, BuildingBlock: IZENUY_clean_sbu_0, # of connection points: 6
#     Node 2, Type 0, BuildingBlock: IZENUY_clean_sbu_0, # of connection points: 6
#     Node 3, Type 0, BuildingBlock: IZENUY_clean_sbu_0, # of connection points: 6
#     Node 4, Type 0, BuildingBlock: IZENUY_clean_sbu_0, # of connection points: 6
#     Node 5, Type 0, BuildingBlock: IZENUY_clean_sbu_0, # of connection points: 6
#     Node 6, Type 0, BuildingBlock: IZENUY_clean_sbu_0, # of connection points: 6
#     Node 7, Type 0, BuildingBlock: IZENUY_clean_sbu_0, # of connection points: 6
#     Node 8, Type 0, BuildingBlock: IZENUY_clean_sbu_0, # of connection points: 6
#     Node 9, Type 0, BuildingBlock: IZENUY_clean_sbu_0, # of connection points: 6
#     Node 10, Type 0, BuildingBlock: IZENUY_clean_sbu_0, # of connection points: 6
#     Node 11, Type 0, BuildingBlock: IZENUY_clean_sbu_0, # of connection points: 6
#     Node 12, Type 0, BuildingBlock: IZENUY_clean_sbu_0, # of connection points: 6
#     Node 13, Type 0, BuildingBlock: IZENUY_clean_sbu_0, # of connection points: 6
#     Node 14, Type 0, BuildingBlock: IZENUY_clean_sbu_0, # of connection points: 6
#     Node 15, Type 0, BuildingBlock: IZENUY_clean_sbu_0, # of connection points: 6
#     Edge 16, Type (0, 0), None
#     Edge 17, Type (0, 0), None
#     Edge 18, Type (0, 0), None
#     Edge 19, Type (0, 0), None
#     Edge 20, Type (0, 0), None
#     Edge 21, Type (0, 0), None
#     Edge 22, Type (0, 0), None
#     Edge 23, Type (0, 0), None
#     Edge 24, Type (0, 0), None
#     Edge 25, Type (0, 0), None
#     Edge 26, Type (0, 0), None
#     Edge 27, Type (0, 0), None
#     Edge 28, Type (0, 0), None
#     Edge 29, Type (0, 0), None
#     Edge 30, Type (0, 0), None
#     Edge 31, Type (0, 0), None
#     Edge 32, Type (0, 0), None
#     Edge 33, Type (0, 0), None
#     Edge 34, Type (0, 0), None
#     Edge 35, Type (0, 0), None
#     Edge 36, Type (0, 0), None
#     Edge 37, Type (0, 0), None
#     Edge 38, Type (0, 0), None
#     Edge 39, Type (0, 0), None
#     Edge 40, Type (0, 0), None
#     Edge 41, Type (0, 0), None
#     Edge 42, Type (0, 0), None
#     Edge 43, Type (0, 0), None
#     Edge 44, Type (0, 0), None
#     Edge 45, Type (0, 0), None
#     Edge 46, Type (0, 0), None
#     Edge 47, Type (0, 0), None
#     Edge 48, Type (0, 0), None
#     Edge 49, Type (0, 0), None
#     Edge 50, Type (0, 0), None
#     Edge 51, Type (0, 0), None
#     Edge 52, Type (0, 0), None
#     Edge 53, Type (0, 0), None
#     Edge 54, Type (0, 0), None
#     Edge 55, Type (0, 0), None
#     Edge 56, Type (0, 0), None
#     Edge 57, Type (0, 0), None
#     Edge 58, Type (0, 0), None
#     Edge 59, Type (0, 0), None
#     Edge 60, Type (0, 0), None
#     Edge 61, Type (0, 0), None
#     Edge 62, Type (0, 0), None
#     Edge 63, Type (0, 0), None
# Relax obj value: 0.462
# Max RMSD: 0.278
# Mean RMSD: 0.278
data_MOF--net-whe--node1-IZENUY_clean_sbu_0--edge1-none
_symmetry_space_group_name_H-M    P1
_symmetry_Int_Tables_number       1
_symmetry_cell_setting            triclinic
loop_
_symmetry_equiv_pos_as_xyz
'x, y, z'
_cell_length_a     16.7994
_cell_length_b     16.799767
_cell_length_c     23.711829
_cell_angle_alpha  90.000236
_cell_angle_beta   89.999875
_cell_angle_gamma 90.001233
loop_
_atom_site_label
_atom_site_type_symbol
_atom_site_fract_x
_atom_site_fract_y
_atom_site_fract_z
_atom_type_partial_charge
Fe0 Fe 0.05107 0.17159 0.20916 0.0
Fe1 Fe 0.99652 0.33712 0.20573 0.0
O2 O 0.06244 0.26911 0.20123 0.0
Fe3 Fe 0.14572 0.32415 0.20989 0.0
O4 O 0.16391 0.2842 0.28575 0.0
O5 O 0.13697 0.15919 0.26255 0.0
O6 O 0.99025 0.18086 0.27017 0.0
C7 C 0.98956 0.24451 0.29835 0.0
C8 C 0.18372 0.17638 0.15506 0.0
O9 O 0.98642 0.31299 0.27702 0.0
C10 C 0.07335 0.36672 0.10743 0.0
O11 O 0.96499 0.17563 0.16143 0.0
O12 O 0.90618 0.28447 0.19127 0.0
O13 O 0.2077 0.23727 0.18402 0.0
O14 O 0.11102 0.16728 0.14728 0.0
C15 C 0.00745 0.45772 0.23155 0.0
O16 O 0.00638 0.35982 0.13156 0.0
O17 O 0.13771 0.35753 0.13546 0.0
C18 C 0.90349 0.22041 0.16471 0.0
O19 O 0.94529 0.42038 0.21634 0.0
O20 O 0.08143 0.42323 0.23287 0.0
C21 C 0.17136 0.20795 0.29738 0.0
Fe22 Fe 0.67844 0.1457 0.20991 0.0
Fe23 Fe 0.83102 0.05104 0.20916 0.0
O24 O 0.73349 0.06242 0.20123 0.0
Fe25 Fe 0.66548 0.9965 0.20574 0.0
O26 O 0.58221 0.94527 0.21635 0.0
O27 O 0.57936 0.0814 0.23289 0.0
O28 O 0.7184 0.16387 0.28577 0.0
C29 C 0.79467 0.17133 0.29739 0.0
C30 C 0.63583 0.07334 0.10744 0.0
O31 O 0.84342 0.13694 0.26255 0.0
C32 C 0.78217 0.90347 0.16471 0.0
O33 O 0.76532 0.20768 0.18404 0.0
O34 O 0.83537 0.11098 0.14727 0.0
O35 O 0.64276 0.00637 0.13157 0.0
O36 O 0.64504 0.1377 0.13548 0.0
C37 C 0.7581 0.98954 0.29835 0.0
O38 O 0.82697 0.96496 0.16143 0.0
O39 O 0.71812 0.90617 0.19127 0.0
C40 C 0.82615 0.18367 0.15504 0.0
O41 O 0.82174 0.99023 0.27017 0.0
O42 O 0.68961 0.98639 0.27703 0.0
C43 C 0.54487 0.00742 0.23156 0.0
Fe44 Fe 0.85687 0.67842 0.2099 0.0
Fe45 Fe 0.95154 0.83099 0.20914 0.0
O46 O 0.94015 0.73347 0.20121 0.0
Fe47 Fe 0.00607 0.66545 0.20571 0.0
O48 O 0.0573 0.58219 0.21631 0.0
O49 O 0.92116 0.57934 0.23288 0.0
O50 O 0.83871 0.71839 0.28576 0.0
C51 C 0.83126 0.79465 0.29738 0.0
C52 C 0.9292 0.63581 0.10742 0.0
O53 O 0.86564 0.8434 0.26254 0.0
C54 C 0.0991 0.78215 0.16467 0.0
O55 O 0.79488 0.7653 0.18403 0.0
O56 O 0.89159 0.83533 0.14725 0.0
O57 O 0.99617 0.64273 0.13154 0.0
O58 O 0.86485 0.64502 0.13547 0.0
C59 C 0.01306 0.75808 0.29831 0.0
O60 O 0.03761 0.82694 0.16139 0.0
O61 O 0.09641 0.71809 0.19122 0.0
C62 C 0.81889 0.82613 0.15503 0.0
O63 O 0.01236 0.82171 0.27013 0.0
O64 O 0.01621 0.6896 0.27699 0.0
C65 C 0.99515 0.54488 0.23156 0.0
Fe66 Fe 0.32415 0.85684 0.20988 0.0
Fe67 Fe 0.17159 0.95151 0.20913 0.0
O68 O 0.26911 0.94013 0.2012 0.0
Fe69 Fe 0.33714 0.00604 0.2057 0.0
O70 O 0.42041 0.05727 0.21631 0.0
O71 O 0.42324 0.92113 0.23286 0.0
O72 O 0.28419 0.83868 0.28574 0.0
C73 C 0.20793 0.83124 0.29736 0.0
C74 C 0.36675 0.92918 0.10741 0.0
O75 O 0.15918 0.86562 0.26252 0.0
C76 C 0.22047 0.09905 0.16465 0.0
O77 O 0.23727 0.79487 0.18401 0.0
O78 O 0.16724 0.89157 0.14724 0.0
O79 O 0.35986 0.99615 0.13154 0.0
O80 O 0.35755 0.86482 0.13545 0.0
C81 C 0.24451 0.01303 0.29831 0.0
O82 O 0.17563 0.03759 0.16138 0.0
O83 O 0.28451 0.09637 0.19122 0.0
C84 C 0.17644 0.81888 0.15501 0.0
O85 O 0.18087 0.01234 0.27013 0.0
O86 O 0.31299 0.01616 0.27699 0.0
C87 C 0.45771 0.99511 0.23156 0.0
Fe88 Fe 0.05105 0.83099 0.44363 0.0
Fe89 Fe 0.9965 0.66545 0.44706 0.0
O90 O 0.06242 0.73347 0.45155 0.0
Fe91 Fe 0.1457 0.67843 0.44288 0.0
O92 O 0.16387 0.71837 0.36702 0.0
O93 O 0.13694 0.84339 0.39023 0.0
O94 O 0.99022 0.82173 0.38263 0.0
C95 C 0.98942 0.75808 0.35446 0.0
C96 C 0.1837 0.8262 0.49771 0.0
O97 O 0.98638 0.68959 0.37578 0.0
C98 C 0.07336 0.63582 0.54536 0.0
O99 O 0.96497 0.82694 0.49137 0.0
O100 O 0.90617 0.71809 0.46154 0.0
O101 O 0.20768 0.76531 0.46875 0.0
O102 O 0.11101 0.8353 0.50551 0.0
C103 C 0.00743 0.54486 0.42125 0.0
O104 O 0.00639 0.64274 0.52123 0.0
O105 O 0.13771 0.64504 0.51732 0.0
C106 C 0.90348 0.78215 0.48809 0.0
O107 O 0.94527 0.58219 0.43646 0.0
O108 O 0.08141 0.57934 0.41992 0.0
C109 C 0.1713 0.79463 0.35539 0.0
Fe110 Fe 0.32417 0.14572 0.4429 0.0
Fe111 Fe 0.1716 0.05107 0.44364 0.0
O112 O 0.26913 0.06244 0.45157 0.0
Fe113 Fe 0.33714 0.99653 0.44707 0.0
O114 O 0.4204 0.94529 0.43647 0.0
O115 O 0.42325 0.08143 0.41993 0.0
O116 O 0.28423 0.16389 0.36704 0.0
C117 C 0.20798 0.17132 0.35541 0.0
C118 C 0.36675 0.07338 0.54538 0.0
O119 O 0.15922 0.13696 0.39025 0.0
C120 C 0.22046 0.90353 0.48812 0.0
O121 O 0.23729 0.2077 0.46877 0.0
O122 O 0.1673 0.11103 0.50552 0.0
O123 O 0.35985 0.00641 0.52124 0.0
O124 O 0.35755 0.13773 0.51734 0.0
C125 C 0.2445 0.98945 0.35447 0.0
O126 O 0.17563 0.965 0.49138 0.0
O127 O 0.2845 0.90621 0.46155 0.0
C128 C 0.17641 0.18372 0.49773 0.0
O129 O 0.18085 0.99025 0.38264 0.0
O130 O 0.31299 0.98641 0.37579 0.0
C131 C 0.45773 0.00745 0.42125 0.0
Fe132 Fe 0.95153 0.17159 0.44367 0.0
Fe133 Fe 0.00606 0.33714 0.4471 0.0
O134 O 0.94015 0.26912 0.45159 0.0
Fe135 Fe 0.85686 0.32414 0.44291 0.0
O136 O 0.83871 0.2842 0.36705 0.0
O137 O 0.86565 0.15919 0.39026 0.0
O138 O 0.01237 0.18085 0.38267 0.0
C139 C 0.01317 0.2445 0.3545 0.0
C140 C 0.81887 0.17638 0.49774 0.0
O141 O 0.0162 0.31299 0.37582 0.0
C142 C 0.92918 0.36673 0.54539 0.0
O143 O 0.0376 0.17564 0.49142 0.0
O144 O 0.09639 0.28452 0.46159 0.0
O145 O 0.79489 0.23725 0.46878 0.0
O146 O 0.89157 0.16728 0.50554 0.0
C147 C 0.99513 0.45771 0.42125 0.0
O148 O 0.99616 0.35985 0.52127 0.0
O149 O 0.86483 0.35753 0.51735 0.0
C150 C 0.09907 0.22047 0.48815 0.0
O151 O 0.05729 0.42041 0.4365 0.0
O152 O 0.92114 0.42323 0.41994 0.0
C153 C 0.83129 0.20794 0.35542 0.0
Fe154 Fe 0.83101 0.95151 0.44367 0.0
Fe155 Fe 0.66545 0.00604 0.4471 0.0
O156 O 0.73347 0.94013 0.45159 0.0
Fe157 Fe 0.67843 0.85685 0.44289 0.0
O158 O 0.71838 0.83871 0.36703 0.0
O159 O 0.8434 0.86563 0.39026 0.0
O160 O 0.82175 0.01234 0.38268 0.0
C161 C 0.7581 0.01315 0.3545 0.0
C162 C 0.82613 0.81886 0.49777 0.0
O163 O 0.68961 0.01619 0.37582 0.0
C164 C 0.6358 0.92915 0.54538 0.0
O165 O 0.82697 0.03758 0.49142 0.0
O166 O 0.71808 0.09636 0.4616 0.0
O167 O 0.76531 0.79486 0.46876 0.0
O168 O 0.83533 0.89155 0.50555 0.0
C169 C 0.54489 0.99513 0.42124 0.0
O170 O 0.64272 0.99613 0.52126 0.0
O171 O 0.64502 0.86481 0.51733 0.0
C172 C 0.78213 0.09904 0.48816 0.0
O173 O 0.5822 0.05728 0.43649 0.0
O174 O 0.57935 0.92114 0.41992 0.0
C175 C 0.79464 0.83128 0.35541 0.0
Fe176 Fe 0.95147 0.83092 0.94364 0.0
Fe177 Fe 0.00602 0.6654 0.94707 0.0
O178 O 0.9401 0.7334 0.95157 0.0
Fe179 Fe 0.85681 0.67836 0.94291 0.0
O180 O 0.83862 0.71831 0.86705 0.0
O181 O 0.86557 0.84332 0.89025 0.0
O182 O 0.01228 0.82165 0.88264 0.0
C183 C 0.01297 0.75801 0.85445 0.0
C184 C 0.81882 0.82613 0.99774 0.0
O185 O 0.01612 0.68953 0.87578 0.0
C186 C 0.92918 0.63578 1.04537 0.0
O187 O 0.03755 0.82688 0.99137 0.0
O188 O 0.09636 0.71805 0.96153 0.0
O189 O 0.79484 0.76525 0.96878 0.0
O190 O 0.89152 0.83524 1.00552 0.0
C191 C 0.99508 0.5448 0.92125 0.0
O192 O 0.99615 0.64269 1.02124 0.0
O193 O 0.86482 0.64498 1.01734 0.0
C194 C 0.09904 0.7821 0.98809 0.0
O195 O 0.05724 0.58213 0.93646 0.0
O196 O 0.9211 0.57928 0.91993 0.0
C197 C 0.83117 0.79457 0.85542 0.0
Fe198 Fe 0.32409 0.85682 0.94289 0.0
Fe199 Fe 0.17152 0.95147 0.94364 0.0
O200 O 0.26905 0.9401 0.95157 0.0
Fe201 Fe 0.33706 0.00602 0.94706 0.0
O202 O 0.42032 0.05725 0.93645 0.0
O203 O 0.42318 0.92111 0.91991 0.0
O204 O 0.28413 0.83864 0.86703 0.0
C205 C 0.20787 0.83119 0.85541 0.0
C206 C 0.36672 0.92917 1.04535 0.0
O207 O 0.15912 0.86557 0.89025 0.0
C208 C 0.22036 0.09904 0.98809 0.0
O209 O 0.23722 0.79483 0.96876 0.0
O210 O 0.16717 0.89153 1.00553 0.0
O211 O 0.35978 0.99614 1.02123 0.0
O212 O 0.3575 0.86481 1.01732 0.0
C213 C 0.24444 0.01297 0.85445 0.0
O214 O 0.17557 0.03755 0.99137 0.0
O215 O 0.28442 0.09635 0.96153 0.0
C216 C 0.17638 0.81884 0.99776 0.0
O217 O 0.1808 0.01229 0.88264 0.0
O218 O 0.31292 0.01612 0.87577 0.0
C219 C 0.45766 0.99509 0.92124 0.0
Fe220 Fe 0.14567 0.32409 0.9429 0.0
Fe221 Fe 0.051 0.17152 0.94366 0.0
O222 O 0.06238 0.26905 0.95159 0.0
Fe223 Fe 0.99646 0.33706 0.94709 0.0
O224 O 0.94523 0.42033 0.93649 0.0
O225 O 0.08138 0.42317 0.91992 0.0
O226 O 0.16383 0.28412 0.86704 0.0
C227 C 0.17127 0.20786 0.85543 0.0
C228 C 0.07334 0.36672 1.04537 0.0
O229 O 0.13689 0.15912 0.89026 0.0
C230 C 0.90343 0.22037 0.98813 0.0
O231 O 0.20765 0.23721 0.96877 0.0
O232 O 0.11095 0.16718 1.00555 0.0
O233 O 0.00636 0.35979 1.02126 0.0
O234 O 0.13769 0.3575 1.01733 0.0
C235 C 0.98948 0.24444 0.85449 0.0
O236 O 0.96493 0.17558 0.99141 0.0
O237 O 0.90613 0.28443 0.96158 0.0
C238 C 0.18364 0.17639 0.99777 0.0
O239 O 0.99017 0.1808 0.88267 0.0
O240 O 0.98633 0.31292 0.87581 0.0
C241 C 0.00739 0.45764 0.92124 0.0
Fe242 Fe 0.83095 0.051 0.94367 0.0
Fe243 Fe 0.6654 0.99648 0.9471 0.0
O244 O 0.73342 0.06239 0.9516 0.0
Fe245 Fe 0.67838 0.14567 0.94291 0.0
O246 O 0.71834 0.16383 0.86706 0.0
O247 O 0.84335 0.13689 0.89028 0.0
O248 O 0.82167 0.99018 0.88267 0.0
C249 C 0.75803 0.98948 0.85449 0.0
C250 C 0.82609 0.18364 0.99779 0.0
O251 O 0.68954 0.98635 0.87581 0.0
C252 C 0.63578 0.07334 1.04539 0.0
O253 O 0.8269 0.96493 0.99142 0.0
O254 O 0.71803 0.90614 0.96158 0.0
O255 O 0.76527 0.20765 0.96879 0.0
O256 O 0.8353 0.11094 1.00556 0.0
C257 C 0.54482 0.0074 0.92124 0.0
O258 O 0.64267 0.00636 1.02126 0.0
O259 O 0.64498 0.13769 1.01735 0.0
C260 C 0.78207 0.90347 0.98815 0.0
O261 O 0.58213 0.94525 0.93649 0.0
O262 O 0.57929 0.08139 0.91994 0.0
C263 C 0.79461 0.17128 0.85544 0.0
Fe264 Fe 0.95149 0.17153 0.70917 0.0
Fe265 Fe 0.00603 0.33706 0.70574 0.0
O266 O 0.94012 0.26905 0.70125 0.0
Fe267 Fe 0.85684 0.32409 0.70992 0.0
O268 O 0.83867 0.28415 0.78578 0.0
O269 O 0.8656 0.15913 0.76257 0.0
O270 O 0.01231 0.18079 0.77017 0.0
C271 C 0.01311 0.24444 0.79834 0.0
C272 C 0.81883 0.17632 0.65509 0.0
O273 O 0.01616 0.31292 0.77702 0.0
C274 C 0.92918 0.3667 0.60745 0.0
O275 O 0.03757 0.17557 0.66143 0.0
O276 O 0.09637 0.28443 0.69126 0.0
O277 O 0.79486 0.2372 0.68405 0.0
O278 O 0.89153 0.16722 0.64729 0.0
C279 C 0.9951 0.45766 0.73155 0.0
O280 O 0.99615 0.35978 0.63157 0.0
O281 O 0.86482 0.35748 0.63548 0.0
C282 C 0.09906 0.22037 0.66471 0.0
O283 O 0.05726 0.42033 0.71634 0.0
O284 O 0.92112 0.42317 0.73288 0.0
C285 C 0.83124 0.20789 0.79741 0.0
Fe286 Fe 0.83093 0.95144 0.70916 0.0
Fe287 Fe 0.6654 0.00598 0.70573 0.0
O288 O 0.73341 0.94007 0.70123 0.0
Fe289 Fe 0.67836 0.85679 0.7099 0.0
O290 O 0.7183 0.83863 0.78576 0.0
O291 O 0.84332 0.86555 0.76255 0.0
O292 O 0.82168 0.01227 0.77016 0.0
C293 C 0.75803 0.01307 0.79833 0.0
C294 C 0.82613 0.81879 0.65507 0.0
O295 O 0.68954 0.0161 0.77701 0.0
C296 C 0.63577 0.92914 0.60743 0.0
O297 O 0.82691 0.03752 0.66142 0.0
O298 O 0.71804 0.09631 0.69125 0.0
O299 O 0.76525 0.79481 0.68403 0.0
O300 O 0.83523 0.89149 0.64728 0.0
C301 C 0.5448 0.99507 0.73155 0.0
O302 O 0.64268 0.99611 0.63156 0.0
O303 O 0.64498 0.86478 0.63546 0.0
C304 C 0.78208 0.09898 0.66468 0.0
O305 O 0.58214 0.05722 0.71633 0.0
O306 O 0.57928 0.92109 0.73287 0.0
C307 C 0.79456 0.8312 0.79739 0.0
Fe308 Fe 0.051 0.83092 0.70913 0.0
Fe309 Fe 0.99648 0.66538 0.7057 0.0
O310 O 0.06238 0.7334 0.70121 0.0
Fe311 Fe 0.14567 0.67837 0.70989 0.0
O312 O 0.16383 0.71831 0.78575 0.0
O313 O 0.13688 0.84332 0.76254 0.0
O314 O 0.99017 0.82166 0.77013 0.0
C315 C 0.98936 0.75801 0.7983 0.0
C316 C 0.18367 0.82614 0.65506 0.0
O317 O 0.98633 0.68952 0.77698 0.0
C318 C 0.07335 0.63577 0.60741 0.0
O319 O 0.96493 0.82687 0.66138 0.0
O320 O 0.90614 0.718 0.69121 0.0
O321 O 0.20764 0.76526 0.68402 0.0
O322 O 0.11097 0.83523 0.64726 0.0
C323 C 0.00741 0.54481 0.73155 0.0
O324 O 0.00637 0.64266 0.63153 0.0
O325 O 0.1377 0.64499 0.63545 0.0
C326 C 0.90347 0.78204 0.66465 0.0
O327 O 0.94525 0.58211 0.7163 0.0
O328 O 0.08139 0.57928 0.73286 0.0
C329 C 0.17124 0.79457 0.79738 0.0
Fe330 Fe 0.33708 0.99648 0.7057 0.0
Fe331 Fe 0.32411 0.14567 0.70991 0.0
O332 O 0.26906 0.06239 0.70121 0.0
Fe333 Fe 0.17153 0.05101 0.70913 0.0
O334 O 0.18078 0.99017 0.77012 0.0
O335 O 0.31292 0.98632 0.77698 0.0
O336 O 0.42034 0.94523 0.71631 0.0
C337 C 0.45765 0.00738 0.73157 0.0
C338 C 0.22041 0.90348 0.66464 0.0
O339 O 0.42319 0.08137 0.73288 0.0
C340 C 0.17641 0.18365 0.65503 0.0
O341 O 0.35982 0.00638 0.63154 0.0
O342 O 0.35752 0.13771 0.63547 0.0
O343 O 0.17557 0.96494 0.66138 0.0
O344 O 0.28445 0.90615 0.6912 0.0
C345 C 0.20789 0.17123 0.79739 0.0
O346 O 0.23723 0.20766 0.68404 0.0
O347 O 0.1672 0.11096 0.64725 0.0
C348 C 0.36674 0.07336 0.60743 0.0
O349 O 0.28415 0.16381 0.78577 0.0
O350 O 0.15914 0.13689 0.76254 0.0
C351 C 0.24443 0.98936 0.7983 0.0
loop_
_geom_bond_atom_site_label_1
_geom_bond_atom_site_label_2
_geom_bond_distance
_geom_bond_site_symmetry_2
_ccdc_geom_bond_type
Fe0 O2 1.918 . S
Fe0 O5 1.997 . S
Fe0 O6 2.002 . S
Fe0 O11 1.976 1_455 S
Fe0 O14 1.996 . S
Fe1 O2 1.918 1_655 S
Fe1 O9 1.997 . S
Fe1 O12 1.996 . S
Fe1 O16 1.976 1_655 S
Fe1 O19 2.002 1_655 S
O2 Fe0 1.918 . S
O2 Fe1 1.918 1_455 S
O2 Fe3 1.918 . S
Fe3 O2 1.918 . S
Fe3 O4 2.002 . S
Fe3 O13 1.976 . S
Fe3 O17 1.996 . S
Fe3 O20 1.997 . S
O4 Fe3 2.002 . S
O4 C21 1.295 . S
O5 Fe0 1.997 . S
O5 C21 1.235 . S
O6 Fe0 2.002 . S
O6 C7 1.295 1_455 S
C7 O6 1.295 1_655 S
C7 O9 1.235 . S
C8 O13 1.287 . S
C8 O14 1.255 . S
O9 Fe1 1.997 . S
O9 C7 1.235 . S
C10 O16 1.287 . S
C10 O17 1.255 . S
O11 Fe0 1.976 1_655 S
O11 C18 1.287 . S
O12 Fe1 1.996 . S
O12 C18 1.255 . S
O13 Fe3 1.976 . S
O13 C8 1.287 . S
O14 Fe0 1.996 . S
O14 C8 1.255 . S
C15 O19 1.295 . S
C15 O20 1.235 . S
O16 Fe1 1.976 1_455 S
O16 C10 1.287 . S
O17 Fe3 1.996 . S
O17 C10 1.255 . S
C18 O11 1.287 . S
C18 O12 1.255 . S
O19 Fe1 2.002 1_455 S
O19 C15 1.295 . S
O20 Fe3 1.997 . S
O20 C15 1.235 . S
C21 O4 1.295 . S
C21 O5 1.235 . S
Fe22 O24 1.918 . S
Fe22 O27 1.997 . S
Fe22 O28 2.002 . S
Fe22 O33 1.976 . S
Fe22 O36 1.996 . S
Fe23 O24 1.918 . S
Fe23 O31 1.997 . S
Fe23 O34 1.996 . S
Fe23 O38 1.976 1_545 S
Fe23 O41 2.002 . S
O24 Fe22 1.918 . S
O24 Fe23 1.918 . S
O24 Fe25 1.918 1_545 S
Fe25 O24 1.918 1_565 S
Fe25 O26 2.002 1_565 S
Fe25 O35 1.976 1_565 S
Fe25 O39 1.996 . S
Fe25 O42 1.997 . S
O26 Fe25 2.002 1_545 S
O26 C43 1.295 . S
O27 Fe22 1.997 . S
O27 C43 1.235 . S
O28 Fe22 2.002 . S
O28 C29 1.295 . S
C29 O28 1.295 . S
C29 O31 1.235 . S
C30 O35 1.287 . S
C30 O36 1.255 . S
O31 Fe23 1.997 . S
O31 C29 1.235 . S
C32 O38 1.287 . S
C32 O39 1.255 . S
O33 Fe22 1.976 . S
O33 C40 1.287 . S
O34 Fe23 1.996 . S
O34 C40 1.255 . S
O35 Fe25 1.976 1_545 S
O35 C30 1.287 . S
O36 Fe22 1.996 . S
O36 C30 1.255 . S
C37 O41 1.295 1_565 S
C37 O42 1.235 . S
O38 Fe23 1.976 1_565 S
O38 C32 1.287 . S
O39 Fe25 1.996 . S
O39 C32 1.255 . S
C40 O33 1.287 . S
C40 O34 1.255 . S
O41 Fe23 2.002 . S
O41 C37 1.295 1_545 S
O42 Fe25 1.997 . S
O42 C37 1.235 . S
C43 O26 1.295 . S
C43 O27 1.235 . S
Fe44 O46 1.918 . S
Fe44 O49 1.997 . S
Fe44 O50 2.002 . S
Fe44 O55 1.976 . S
Fe44 O58 1.996 . S
Fe45 O46 1.918 . S
Fe45 O53 1.997 . S
Fe45 O56 1.996 . S
Fe45 O60 1.976 1_655 S
Fe45 O63 2.002 . S
O46 Fe44 1.918 . S
O46 Fe45 1.918 . S
O46 Fe47 1.918 1_655 S
Fe47 O46 1.918 1_455 S
Fe47 O48 2.002 1_455 S
Fe47 O57 1.976 1_455 S
Fe47 O61 1.996 . S
Fe47 O64 1.997 . S
O48 Fe47 2.002 1_655 S
O48 C65 1.295 . S
O49 Fe44 1.997 . S
O49 C65 1.235 . S
O50 Fe44 2.002 . S
O50 C51 1.295 . S
C51 O50 1.295 . S
C51 O53 1.235 . S
C52 O57 1.287 . S
C52 O58 1.255 . S
O53 Fe45 1.997 . S
O53 C51 1.235 . S
C54 O60 1.287 . S
C54 O61 1.255 . S
O55 Fe44 1.976 . S
O55 C62 1.287 . S
O56 Fe45 1.996 . S
O56 C62 1.255 . S
O57 Fe47 1.976 1_655 S
O57 C52 1.287 . S
O58 Fe44 1.996 . S
O58 C52 1.255 . S
C59 O63 1.295 1_455 S
C59 O64 1.235 . S
O60 Fe45 1.976 1_455 S
O60 C54 1.287 . S
O61 Fe47 1.996 . S
O61 C54 1.255 . S
C62 O55 1.287 . S
C62 O56 1.255 . S
O63 Fe45 2.002 . S
O63 C59 1.295 1_655 S
O64 Fe47 1.997 . S
O64 C59 1.235 . S
C65 O48 1.295 . S
C65 O49 1.235 . S
Fe66 O68 1.918 . S
Fe66 O71 1.997 . S
Fe66 O72 2.002 . S
Fe66 O77 1.976 . S
Fe66 O80 1.996 . S
Fe67 O68 1.918 . S
Fe67 O75 1.997 . S
Fe67 O78 1.996 . S
Fe67 O82 1.976 1_565 S
Fe67 O85 2.002 . S
O68 Fe66 1.918 . S
O68 Fe67 1.918 . S
O68 Fe69 1.918 1_565 S
Fe69 O68 1.918 1_545 S
Fe69 O70 2.002 1_545 S
Fe69 O79 1.976 1_545 S
Fe69 O83 1.996 . S
Fe69 O86 1.997 . S
O70 Fe69 2.002 1_565 S
O70 C87 1.295 . S
O71 Fe66 1.997 . S
O71 C87 1.235 . S
O72 Fe66 2.002 . S
O72 C73 1.295 . S
C73 O72 1.295 . S
C73 O75 1.235 . S
C74 O79 1.287 . S
C74 O80 1.255 . S
O75 Fe67 1.997 . S
O75 C73 1.235 . S
C76 O82 1.287 . S
C76 O83 1.255 . S
O77 Fe66 1.976 . S
O77 C84 1.287 . S
O78 Fe67 1.996 . S
O78 C84 1.255 . S
O79 Fe69 1.976 1_565 S
O79 C74 1.287 . S
O80 Fe66 1.996 . S
O80 C74 1.255 . S
C81 O85 1.295 1_545 S
C81 O86 1.235 . S
O82 Fe67 1.976 1_545 S
O82 C76 1.287 . S
O83 Fe69 1.996 . S
O83 C76 1.255 . S
C84 O77 1.287 . S
C84 O78 1.255 . S
O85 Fe67 2.002 . S
O85 C81 1.295 1_565 S
O86 Fe69 1.997 . S
O86 C81 1.235 . S
C87 O70 1.295 . S
C87 O71 1.235 . S
Fe88 O90 1.918 . S
Fe88 O93 1.997 . S
Fe88 O94 2.002 . S
Fe88 O99 1.976 1_455 S
Fe88 O102 1.996 . S
Fe89 O90 1.918 1_655 S
Fe89 O97 1.997 . S
Fe89 O100 1.996 . S
Fe89 O104 1.976 1_655 S
Fe89 O107 2.002 1_655 S
O90 Fe88 1.918 . S
O90 Fe89 1.918 1_455 S
O90 Fe91 1.918 . S
Fe91 O90 1.918 . S
Fe91 O92 2.002 . S
Fe91 O101 1.976 . S
Fe91 O105 1.996 . S
Fe91 O108 1.997 . S
O92 Fe91 2.002 . S
O92 C109 1.295 . S
O93 Fe88 1.997 . S
O93 C109 1.235 . S
O94 Fe88 2.002 . S
O94 C95 1.295 1_455 S
C95 O94 1.295 1_655 S
C95 O97 1.235 . S
C96 O101 1.287 . S
C96 O102 1.255 . S
O97 Fe89 1.997 . S
O97 C95 1.235 . S
C98 O104 1.287 . S
C98 O105 1.255 . S
O99 Fe88 1.976 1_655 S
O99 C106 1.287 . S
O100 Fe89 1.996 . S
O100 C106 1.255 . S
O101 Fe91 1.976 . S
O101 C96 1.287 . S
O102 Fe88 1.996 . S
O102 C96 1.255 . S
C103 O107 1.295 . S
C103 O108 1.235 . S
O104 Fe89 1.976 1_455 S
O104 C98 1.287 . S
O105 Fe91 1.996 . S
O105 C98 1.255 . S
C106 O99 1.287 . S
C106 O100 1.255 . S
O107 Fe89 2.002 1_455 S
O107 C103 1.295 . S
O108 Fe91 1.997 . S
O108 C103 1.235 . S
C109 O92 1.295 . S
C109 O93 1.235 . S
Fe110 O112 1.918 . S
Fe110 O115 1.997 . S
Fe110 O116 2.002 . S
Fe110 O121 1.976 . S
Fe110 O124 1.996 . S
Fe111 O112 1.918 . S
Fe111 O119 1.997 . S
Fe111 O122 1.996 . S
Fe111 O126 1.976 1_545 S
Fe111 O129 2.002 . S
O112 Fe110 1.918 . S
O112 Fe111 1.918 . S
O112 Fe113 1.918 1_545 S
Fe113 O112 1.918 1_565 S
Fe113 O114 2.002 1_565 S
Fe113 O123 1.976 1_565 S
Fe113 O127 1.996 . S
Fe113 O130 1.997 . S
O114 Fe113 2.002 1_545 S
O114 C131 1.295 . S
O115 Fe110 1.997 . S
O115 C131 1.235 . S
O116 Fe110 2.002 . S
O116 C117 1.295 . S
C117 O116 1.295 . S
C117 O119 1.235 . S
C118 O123 1.287 . S
C118 O124 1.255 . S
O119 Fe111 1.997 . S
O119 C117 1.235 . S
C120 O126 1.287 . S
C120 O127 1.255 . S
O121 Fe110 1.976 . S
O121 C128 1.287 . S
O122 Fe111 1.996 . S
O122 C128 1.255 . S
O123 Fe113 1.976 1_545 S
O123 C118 1.287 . S
O124 Fe110 1.996 . S
O124 C118 1.255 . S
C125 O129 1.295 1_565 S
C125 O130 1.235 . S
O126 Fe111 1.976 1_565 S
O126 C120 1.287 . S
O127 Fe113 1.996 . S
O127 C120 1.255 . S
C128 O121 1.287 . S
C128 O122 1.255 . S
O129 Fe111 2.002 . S
O129 C125 1.295 1_545 S
O130 Fe113 1.997 . S
O130 C125 1.235 . S
C131 O114 1.295 . S
C131 O115 1.235 . S
Fe132 O134 1.918 . S
Fe132 O137 1.997 . S
Fe132 O138 2.002 . S
Fe132 O143 1.976 1_655 S
Fe132 O146 1.996 . S
Fe133 O134 1.918 1_455 S
Fe133 O141 1.997 . S
Fe133 O144 1.996 . S
Fe133 O148 1.976 1_455 S
Fe133 O151 2.002 1_455 S
O134 Fe132 1.918 . S
O134 Fe133 1.918 1_655 S
O134 Fe135 1.918 . S
Fe135 O134 1.918 . S
Fe135 O136 2.002 . S
Fe135 O145 1.976 . S
Fe135 O149 1.996 . S
Fe135 O152 1.997 . S
O136 Fe135 2.002 . S
O136 C153 1.295 . S
O137 Fe132 1.997 . S
O137 C153 1.235 . S
O138 Fe132 2.002 . S
O138 C139 1.295 1_655 S
C139 O138 1.295 1_455 S
C139 O141 1.235 . S
C140 O145 1.287 . S
C140 O146 1.255 . S
O141 Fe133 1.997 . S
O141 C139 1.235 . S
C142 O148 1.287 . S
C142 O149 1.255 . S
O143 Fe132 1.976 1_455 S
O143 C150 1.287 . S
O144 Fe133 1.996 . S
O144 C150 1.255 . S
O145 Fe135 1.976 . S
O145 C140 1.287 . S
O146 Fe132 1.996 . S
O146 C140 1.255 . S
C147 O151 1.295 . S
C147 O152 1.235 . S
O148 Fe133 1.976 1_655 S
O148 C142 1.287 . S
O149 Fe135 1.996 . S
O149 C142 1.255 . S
C150 O143 1.287 . S
C150 O144 1.255 . S
O151 Fe133 2.002 1_655 S
O151 C147 1.295 . S
O152 Fe135 1.997 . S
O152 C147 1.235 . S
C153 O136 1.295 . S
C153 O137 1.235 . S
Fe154 O156 1.918 . S
Fe154 O159 1.997 . S
Fe154 O160 2.002 . S
Fe154 O165 1.976 1_565 S
Fe154 O168 1.996 . S
Fe155 O156 1.918 1_545 S
Fe155 O163 1.997 . S
Fe155 O166 1.996 . S
Fe155 O170 1.976 1_545 S
Fe155 O173 2.002 1_545 S
O156 Fe154 1.918 . S
O156 Fe155 1.918 1_565 S
O156 Fe157 1.918 . S
Fe157 O156 1.918 . S
Fe157 O158 2.002 . S
Fe157 O167 1.976 . S
Fe157 O171 1.996 . S
Fe157 O174 1.997 . S
O158 Fe157 2.002 . S
O158 C175 1.295 . S
O159 Fe154 1.997 . S
O159 C175 1.235 . S
O160 Fe154 2.002 . S
O160 C161 1.295 1_565 S
C161 O160 1.295 1_545 S
C161 O163 1.235 . S
C162 O167 1.287 . S
C162 O168 1.255 . S
O163 Fe155 1.997 . S
O163 C161 1.235 . S
C164 O170 1.287 . S
C164 O171 1.255 . S
O165 Fe154 1.976 1_545 S
O165 C172 1.287 . S
O166 Fe155 1.996 . S
O166 C172 1.255 . S
O167 Fe157 1.976 . S
O167 C162 1.287 . S
O168 Fe154 1.996 . S
O168 C162 1.255 . S
C169 O173 1.295 . S
C169 O174 1.235 . S
O170 Fe155 1.976 1_565 S
O170 C164 1.287 . S
O171 Fe157 1.996 . S
O171 C164 1.255 . S
C172 O165 1.287 . S
C172 O166 1.255 . S
O173 Fe155 2.002 1_565 S
O173 C169 1.295 . S
O174 Fe157 1.997 . S
O174 C169 1.235 . S
C175 O158 1.295 . S
C175 O159 1.235 . S
Fe176 O178 1.918 . S
Fe176 O181 1.997 . S
Fe176 O182 2.002 . S
Fe176 O187 1.976 1_655 S
Fe176 O190 1.996 . S
Fe177 O178 1.918 1_455 S
Fe177 O185 1.997 . S
Fe177 O188 1.996 . S
Fe177 O192 1.976 1_455 S
Fe177 O195 2.002 1_455 S
O178 Fe176 1.918 . S
O178 Fe177 1.918 1_655 S
O178 Fe179 1.918 . S
Fe179 O178 1.918 . S
Fe179 O180 2.002 . S
Fe179 O189 1.976 . S
Fe179 O193 1.996 . S
Fe179 O196 1.997 . S
O180 Fe179 2.002 . S
O180 C197 1.295 . S
O181 Fe176 1.997 . S
O181 C197 1.235 . S
O182 Fe176 2.002 . S
O182 C183 1.295 1_655 S
C183 O182 1.295 1_455 S
C183 O185 1.235 . S
C184 O189 1.287 . S
C184 O190 1.255 . S
O185 Fe177 1.997 . S
O185 C183 1.235 . S
C186 O192 1.287 . S
C186 O193 1.255 . S
O187 Fe176 1.976 1_455 S
O187 C194 1.287 . S
O188 Fe177 1.996 . S
O188 C194 1.255 . S
O189 Fe179 1.976 . S
O189 C184 1.287 . S
O190 Fe176 1.996 . S
O190 C184 1.255 . S
C191 O195 1.295 . S
C191 O196 1.235 . S
O192 Fe177 1.976 1_655 S
O192 C186 1.287 . S
O193 Fe179 1.996 . S
O193 C186 1.255 . S
C194 O187 1.287 . S
C194 O188 1.255 . S
O195 Fe177 2.002 1_655 S
O195 C191 1.295 . S
O196 Fe179 1.997 . S
O196 C191 1.235 . S
C197 O180 1.295 . S
C197 O181 1.235 . S
Fe198 O200 1.918 . S
Fe198 O203 1.997 . S
Fe198 O204 2.002 . S
Fe198 O209 1.976 . S
Fe198 O212 1.996 . S
Fe199 O200 1.918 . S
Fe199 O207 1.997 . S
Fe199 O210 1.996 . S
Fe199 O214 1.976 1_565 S
Fe199 O217 2.002 . S
O200 Fe198 1.918 . S
O200 Fe199 1.918 . S
O200 Fe201 1.918 1_565 S
Fe201 O200 1.918 1_545 S
Fe201 O202 2.002 1_545 S
Fe201 O211 1.976 1_545 S
Fe201 O215 1.996 . S
Fe201 O218 1.997 . S
O202 Fe201 2.002 1_565 S
O202 C219 1.295 . S
O203 Fe198 1.997 . S
O203 C219 1.235 . S
O204 Fe198 2.002 . S
O204 C205 1.295 . S
C205 O204 1.295 . S
C205 O207 1.235 . S
C206 O211 1.287 . S
C206 O212 1.255 . S
O207 Fe199 1.997 . S
O207 C205 1.235 . S
C208 O214 1.287 . S
C208 O215 1.255 . S
O209 Fe198 1.976 . S
O209 C216 1.287 . S
O210 Fe199 1.996 . S
O210 C216 1.255 . S
O211 Fe201 1.976 1_565 S
O211 C206 1.287 . S
O212 Fe198 1.996 . S
O212 C206 1.255 . S
C213 O217 1.295 1_545 S
C213 O218 1.235 . S
O214 Fe199 1.976 1_545 S
O214 C208 1.287 . S
O215 Fe201 1.996 . S
O215 C208 1.255 . S
C216 O209 1.287 . S
C216 O210 1.255 . S
O217 Fe199 2.002 . S
O217 C213 1.295 1_565 S
O218 Fe201 1.997 . S
O218 C213 1.235 . S
C219 O202 1.295 . S
C219 O203 1.235 . S
Fe220 O222 1.918 . S
Fe220 O225 1.997 . S
Fe220 O226 2.002 . S
Fe220 O231 1.976 . S
Fe220 O234 1.996 . S
Fe221 O222 1.918 . S
Fe221 O229 1.997 . S
Fe221 O232 1.996 . S
Fe221 O236 1.976 1_455 S
Fe221 O239 2.002 . S
O222 Fe220 1.918 . S
O222 Fe221 1.918 . S
O222 Fe223 1.918 1_455 S
Fe223 O222 1.918 1_655 S
Fe223 O224 2.002 1_655 S
Fe223 O233 1.976 1_655 S
Fe223 O237 1.996 . S
Fe223 O240 1.997 . S
O224 Fe223 2.002 1_455 S
O224 C241 1.295 . S
O225 Fe220 1.997 . S
O225 C241 1.235 . S
O226 Fe220 2.002 . S
O226 C227 1.295 . S
C227 O226 1.295 . S
C227 O229 1.235 . S
C228 O233 1.287 . S
C228 O234 1.255 . S
O229 Fe221 1.997 . S
O229 C227 1.235 . S
C230 O236 1.287 . S
C230 O237 1.255 . S
O231 Fe220 1.976 . S
O231 C238 1.287 . S
O232 Fe221 1.996 . S
O232 C238 1.255 . S
O233 Fe223 1.976 1_455 S
O233 C228 1.287 . S
O234 Fe220 1.996 . S
O234 C228 1.255 . S
C235 O239 1.295 1_655 S
C235 O240 1.235 . S
O236 Fe221 1.976 1_655 S
O236 C230 1.287 . S
O237 Fe223 1.996 . S
O237 C230 1.255 . S
C238 O231 1.287 . S
C238 O232 1.255 . S
O239 Fe221 2.002 . S
O239 C235 1.295 1_455 S
O240 Fe223 1.997 . S
O240 C235 1.235 . S
C241 O224 1.295 . S
C241 O225 1.235 . S
Fe242 O244 1.918 . S
Fe242 O247 1.997 . S
Fe242 O248 2.002 . S
Fe242 O253 1.976 1_545 S
Fe242 O256 1.996 . S
Fe243 O244 1.918 1_565 S
Fe243 O251 1.997 . S
Fe243 O254 1.996 . S
Fe243 O258 1.976 1_565 S
Fe243 O261 2.002 1_565 S
O244 Fe242 1.918 . S
O244 Fe243 1.918 1_545 S
O244 Fe245 1.918 . S
Fe245 O244 1.918 . S
Fe245 O246 2.002 . S
Fe245 O255 1.976 . S
Fe245 O259 1.996 . S
Fe245 O262 1.997 . S
O246 Fe245 2.002 . S
O246 C263 1.295 . S
O247 Fe242 1.997 . S
O247 C263 1.235 . S
O248 Fe242 2.002 . S
O248 C249 1.295 1_545 S
C249 O248 1.295 1_565 S
C249 O251 1.235 . S
C250 O255 1.287 . S
C250 O256 1.255 . S
O251 Fe243 1.997 . S
O251 C249 1.235 . S
C252 O258 1.287 . S
C252 O259 1.255 . S
O253 Fe242 1.976 1_565 S
O253 C260 1.287 . S
O254 Fe243 1.996 . S
O254 C260 1.255 . S
O255 Fe245 1.976 . S
O255 C250 1.287 . S
O256 Fe242 1.996 . S
O256 C250 1.255 . S
C257 O261 1.295 . S
C257 O262 1.235 . S
O258 Fe243 1.976 1_545 S
O258 C252 1.287 . S
O259 Fe245 1.996 . S
O259 C252 1.255 . S
C260 O253 1.287 . S
C260 O254 1.255 . S
O261 Fe243 2.002 1_545 S
O261 C257 1.295 . S
O262 Fe245 1.997 . S
O262 C257 1.235 . S
C263 O246 1.295 . S
C263 O247 1.235 . S
Fe264 O266 1.918 . S
Fe264 O269 1.997 . S
Fe264 O270 2.002 . S
Fe264 O275 1.976 1_655 S
Fe264 O278 1.996 . S
Fe265 O266 1.918 1_455 S
Fe265 O273 1.997 . S
Fe265 O276 1.996 . S
Fe265 O280 1.976 1_455 S
Fe265 O283 2.002 1_455 S
O266 Fe264 1.918 . S
O266 Fe265 1.918 1_655 S
O266 Fe267 1.918 . S
Fe267 O266 1.918 . S
Fe267 O268 2.002 . S
Fe267 O277 1.976 . S
Fe267 O281 1.996 . S
Fe267 O284 1.997 . S
O268 Fe267 2.002 . S
O268 C285 1.295 . S
O269 Fe264 1.997 . S
O269 C285 1.235 . S
O270 Fe264 2.002 . S
O270 C271 1.295 1_655 S
C271 O270 1.295 1_455 S
C271 O273 1.235 . S
C272 O277 1.287 . S
C272 O278 1.255 . S
O273 Fe265 1.997 . S
O273 C271 1.235 . S
C274 O280 1.287 . S
C274 O281 1.255 . S
O275 Fe264 1.976 1_455 S
O275 C282 1.287 . S
O276 Fe265 1.996 . S
O276 C282 1.255 . S
O277 Fe267 1.976 . S
O277 C272 1.287 . S
O278 Fe264 1.996 . S
O278 C272 1.255 . S
C279 O283 1.295 . S
C279 O284 1.235 . S
O280 Fe265 1.976 1_655 S
O280 C274 1.287 . S
O281 Fe267 1.996 . S
O281 C274 1.255 . S
C282 O275 1.287 . S
C282 O276 1.255 . S
O283 Fe265 2.002 1_655 S
O283 C279 1.295 . S
O284 Fe267 1.997 . S
O284 C279 1.235 . S
C285 O268 1.295 . S
C285 O269 1.235 . S
Fe286 O288 1.918 . S
Fe286 O291 1.997 . S
Fe286 O292 2.002 . S
Fe286 O297 1.976 1_565 S
Fe286 O300 1.996 . S
Fe287 O288 1.918 1_545 S
Fe287 O295 1.997 . S
Fe287 O298 1.996 . S
Fe287 O302 1.976 1_545 S
Fe287 O305 2.002 1_545 S
O288 Fe286 1.918 . S
O288 Fe287 1.918 1_565 S
O288 Fe289 1.918 . S
Fe289 O288 1.918 . S
Fe289 O290 2.002 . S
Fe289 O299 1.976 . S
Fe289 O303 1.996 . S
Fe289 O306 1.997 . S
O290 Fe289 2.002 . S
O290 C307 1.295 . S
O291 Fe286 1.997 . S
O291 C307 1.235 . S
O292 Fe286 2.002 . S
O292 C293 1.295 1_565 S
C293 O292 1.295 1_545 S
C293 O295 1.235 . S
C294 O299 1.287 . S
C294 O300 1.255 . S
O295 Fe287 1.997 . S
O295 C293 1.235 . S
C296 O302 1.287 . S
C296 O303 1.255 . S
O297 Fe286 1.976 1_545 S
O297 C304 1.287 . S
O298 Fe287 1.996 . S
O298 C304 1.255 . S
O299 Fe289 1.976 . S
O299 C294 1.287 . S
O300 Fe286 1.996 . S
O300 C294 1.255 . S
C301 O305 1.295 . S
C301 O306 1.235 . S
O302 Fe287 1.976 1_565 S
O302 C296 1.287 . S
O303 Fe289 1.996 . S
O303 C296 1.255 . S
C304 O297 1.287 . S
C304 O298 1.255 . S
O305 Fe287 2.002 1_565 S
O305 C301 1.295 . S
O306 Fe289 1.997 . S
O306 C301 1.235 . S
C307 O290 1.295 . S
C307 O291 1.235 . S
Fe308 O310 1.918 . S
Fe308 O313 1.997 . S
Fe308 O314 2.002 . S
Fe308 O319 1.976 1_455 S
Fe308 O322 1.996 . S
Fe309 O310 1.918 1_655 S
Fe309 O317 1.997 . S
Fe309 O320 1.996 . S
Fe309 O324 1.976 1_655 S
Fe309 O327 2.002 1_655 S
O310 Fe308 1.918 . S
O310 Fe309 1.918 1_455 S
O310 Fe311 1.918 . S
Fe311 O310 1.918 . S
Fe311 O312 2.002 . S
Fe311 O321 1.976 . S
Fe311 O325 1.996 . S
Fe311 O328 1.997 . S
O312 Fe311 2.002 . S
O312 C329 1.295 . S
O313 Fe308 1.997 . S
O313 C329 1.235 . S
O314 Fe308 2.002 . S
O314 C315 1.295 1_455 S
C315 O314 1.295 1_655 S
C315 O317 1.235 . S
C316 O321 1.287 . S
C316 O322 1.255 . S
O317 Fe309 1.997 . S
O317 C315 1.235 . S
C318 O324 1.287 . S
C318 O325 1.255 . S
O319 Fe308 1.976 1_655 S
O319 C326 1.287 . S
O320 Fe309 1.996 . S
O320 C326 1.255 . S
O321 Fe311 1.976 . S
O321 C316 1.287 . S
O322 Fe308 1.996 . S
O322 C316 1.255 . S
C323 O327 1.295 . S
C323 O328 1.235 . S
O324 Fe309 1.976 1_455 S
O324 C318 1.287 . S
O325 Fe311 1.996 . S
O325 C318 1.255 . S
C326 O319 1.287 . S
C326 O320 1.255 . S
O327 Fe309 2.002 1_455 S
O327 C323 1.295 . S
O328 Fe311 1.997 . S
O328 C323 1.235 . S
C329 O312 1.295 . S
C329 O313 1.235 . S
Fe330 O332 1.918 1_565 S
Fe330 O335 1.997 . S
Fe330 O336 2.002 1_565 S
Fe330 O341 1.976 1_565 S
Fe330 O344 1.996 . S
Fe331 O332 1.918 . S
Fe331 O339 1.997 . S
Fe331 O342 1.996 . S
Fe331 O346 1.976 . S
Fe331 O349 2.002 . S
O332 Fe330 1.918 1_545 S
O332 Fe331 1.918 . S
O332 Fe333 1.918 . S
Fe333 O332 1.918 . S
Fe333 O334 2.002 . S
Fe333 O343 1.976 1_545 S
Fe333 O347 1.996 . S
Fe333 O350 1.997 . S
O334 Fe333 2.002 . S
O334 C351 1.295 1_545 S
O335 Fe330 1.997 . S
O335 C351 1.235 . S
O336 Fe330 2.002 1_545 S
O336 C337 1.295 . S
C337 O336 1.295 . S
C337 O339 1.235 . S
C338 O343 1.287 . S
C338 O344 1.255 . S
O339 Fe331 1.997 . S
O339 C337 1.235 . S
C340 O346 1.287 . S
C340 O347 1.255 . S
O341 Fe330 1.976 1_545 S
O341 C348 1.287 . S
O342 Fe331 1.996 . S
O342 C348 1.255 . S
O343 Fe333 1.976 1_565 S
O343 C338 1.287 . S
O344 Fe330 1.996 . S
O344 C338 1.255 . S
C345 O349 1.295 . S
C345 O350 1.235 . S
O346 Fe331 1.976 . S
O346 C340 1.287 . S
O347 Fe333 1.996 . S
O347 C340 1.255 . S
C348 O341 1.287 . S
C348 O342 1.255 . S
O349 Fe331 2.002 . S
O349 C345 1.295 . S
O350 Fe333 1.997 . S
O350 C345 1.235 . S
C351 O334 1.295 1_565 S
C351 O335 1.235 . S
C8 C76 1.141 . S
C18 C40 1.141 . S
C62 C32 1.141 . S
C84 C54 1.141 . S
C120 C96 1.141 . S
C128 C150 1.141 . S
C172 C140 1.141 . S
C106 C162 1.141 . S
C184 C260 1.141 . S
C194 C216 1.141 . S
C208 C238 1.141 . S
C230 C250 1.141 . S
C304 C272 1.141 . S
C326 C294 1.141 . S
C316 C338 1.141 . S
C340 C282 1.141 . S
C21 C117 2.136 . S
C153 C29 2.136 . S
C51 C175 2.136 . S
C73 C109 2.136 . S
C307 C197 2.136 . S
C329 C205 2.136 . S
C227 C345 2.136 . S
C285 C263 2.136 . S
C10 C228 1.573 1_554 S
C30 C252 1.573 1_554 S
C186 C52 1.573 1_556 S
C74 C206 1.573 1_554 S
C98 C318 1.573 . S
C118 C348 1.573 . S
C142 C274 1.573 . S
C296 C164 1.573 . S
C7 C139 1.487 1_655 S
C161 C37 1.487 1_545 S
C95 C59 1.487 1_655 S
C125 C81 1.487 1_565 S
C315 C183 1.487 1_655 S
C351 C213 1.487 1_565 S
C271 C235 1.487 1_455 S
C249 C293 1.487 1_565 S
C15 C65 3.886 1_455 S
C43 C87 3.886 1_545 S
C103 C147 3.886 1_455 S
C169 C131 3.886 1_565 S
C241 C191 3.886 1_455 S
C257 C219 3.886 1_545 S
C279 C323 3.886 1_655 S
C301 C337 3.886 1_565 S
