# Generated by pormake.
# Topology cbo, (4)-cn, num edge types: 1
# Building blocks:
#     Node 0, Type 0, BuildingBlock: ESEHIV_clean_sbu_0, # of connection points: 4
#     Node 1, Type 0, BuildingBlock: ESEHIV_clean_sbu_0, # of connection points: 4
#     Node 2, Type 0, BuildingBlock: ESEHIV_clean_sbu_0, # of connection points: 4
#     Node 3, Type 0, BuildingBlock: ESEHIV_clean_sbu_0, # of connection points: 4
#     Node 4, Type 0, BuildingBlock: ESEHIV_clean_sbu_0, # of connection points: 4
#     Node 5, Type 0, BuildingBlock: ESEHIV_clean_sbu_0, # of connection points: 4
#     Node 6, Type 0, BuildingBlock: ESEHIV_clean_sbu_0, # of connection points: 4
#     Node 7, Type 0, BuildingBlock: ESEHIV_clean_sbu_0, # of connection points: 4
#     Node 8, Type 0, BuildingBlock: ESEHIV_clean_sbu_0, # of connection points: 4
#     Node 9, Type 0, BuildingBlock: ESEHIV_clean_sbu_0, # of connection points: 4
#     Node 10, Type 0, BuildingBlock: ESEHIV_clean_sbu_0, # of connection points: 4
#     Node 11, Type 0, BuildingBlock: ESEHIV_clean_sbu_0, # of connection points: 4
#     Node 12, Type 0, BuildingBlock: ESEHIV_clean_sbu_0, # of connection points: 4
#     Node 13, Type 0, BuildingBlock: ESEHIV_clean_sbu_0, # of connection points: 4
#     Node 14, Type 0, BuildingBlock: ESEHIV_clean_sbu_0, # of connection points: 4
#     Node 15, Type 0, BuildingBlock: ESEHIV_clean_sbu_0, # of connection points: 4
#     Node 16, Type 0, BuildingBlock: ESEHIV_clean_sbu_0, # of connection points: 4
#     Node 17, Type 0, BuildingBlock: ESEHIV_clean_sbu_0, # of connection points: 4
#     Node 18, Type 0, BuildingBlock: ESEHIV_clean_sbu_0, # of connection points: 4
#     Node 19, Type 0, BuildingBlock: ESEHIV_clean_sbu_0, # of connection points: 4
#     Node 20, Type 0, BuildingBlock: ESEHIV_clean_sbu_0, # of connection points: 4
#     Node 21, Type 0, BuildingBlock: ESEHIV_clean_sbu_0, # of connection points: 4
#     Node 22, Type 0, BuildingBlock: ESEHIV_clean_sbu_0, # of connection points: 4
#     Node 23, Type 0, BuildingBlock: ESEHIV_clean_sbu_0, # of connection points: 4
#     Edge 24, Type (0, 0), BuildingBlock: OJICUG_clean_linker_0, # of connection points: 2
#     Edge 25, Type (0, 0), BuildingBlock: OJICUG_clean_linker_0, # of connection points: 2
#     Edge 26, Type (0, 0), BuildingBlock: OJICUG_clean_linker_0, # of connection points: 2
#     Edge 27, Type (0, 0), BuildingBlock: OJICUG_clean_linker_0, # of connection points: 2
#     Edge 28, Type (0, 0), BuildingBlock: OJICUG_clean_linker_0, # of connection points: 2
#     Edge 29, Type (0, 0), BuildingBlock: OJICUG_clean_linker_0, # of connection points: 2
#     Edge 30, Type (0, 0), BuildingBlock: OJICUG_clean_linker_0, # of connection points: 2
#     Edge 31, Type (0, 0), BuildingBlock: OJICUG_clean_linker_0, # of connection points: 2
#     Edge 32, Type (0, 0), BuildingBlock: OJICUG_clean_linker_0, # of connection points: 2
#     Edge 33, Type (0, 0), BuildingBlock: OJICUG_clean_linker_0, # of connection points: 2
#     Edge 34, Type (0, 0), BuildingBlock: OJICUG_clean_linker_0, # of connection points: 2
#     Edge 35, Type (0, 0), BuildingBlock: OJICUG_clean_linker_0, # of connection points: 2
#     Edge 36, Type (0, 0), BuildingBlock: OJICUG_clean_linker_0, # of connection points: 2
#     Edge 37, Type (0, 0), BuildingBlock: OJICUG_clean_linker_0, # of connection points: 2
#     Edge 38, Type (0, 0), BuildingBlock: OJICUG_clean_linker_0, # of connection points: 2
#     Edge 39, Type (0, 0), BuildingBlock: OJICUG_clean_linker_0, # of connection points: 2
#     Edge 40, Type (0, 0), BuildingBlock: OJICUG_clean_linker_0, # of connection points: 2
#     Edge 41, Type (0, 0), BuildingBlock: OJICUG_clean_linker_0, # of connection points: 2
#     Edge 42, Type (0, 0), BuildingBlock: OJICUG_clean_linker_0, # of connection points: 2
#     Edge 43, Type (0, 0), BuildingBlock: OJICUG_clean_linker_0, # of connection points: 2
#     Edge 44, Type (0, 0), BuildingBlock: OJICUG_clean_linker_0, # of connection points: 2
#     Edge 45, Type (0, 0), BuildingBlock: OJICUG_clean_linker_0, # of connection points: 2
#     Edge 46, Type (0, 0), BuildingBlock: OJICUG_clean_linker_0, # of connection points: 2
#     Edge 47, Type (0, 0), BuildingBlock: OJICUG_clean_linker_0, # of connection points: 2
#     Edge 48, Type (0, 0), BuildingBlock: OJICUG_clean_linker_0, # of connection points: 2
#     Edge 49, Type (0, 0), BuildingBlock: OJICUG_clean_linker_0, # of connection points: 2
#     Edge 50, Type (0, 0), BuildingBlock: OJICUG_clean_linker_0, # of connection points: 2
#     Edge 51, Type (0, 0), BuildingBlock: OJICUG_clean_linker_0, # of connection points: 2
#     Edge 52, Type (0, 0), BuildingBlock: OJICUG_clean_linker_0, # of connection points: 2
#     Edge 53, Type (0, 0), BuildingBlock: OJICUG_clean_linker_0, # of connection points: 2
#     Edge 54, Type (0, 0), BuildingBlock: OJICUG_clean_linker_0, # of connection points: 2
#     Edge 55, Type (0, 0), BuildingBlock: OJICUG_clean_linker_0, # of connection points: 2
#     Edge 56, Type (0, 0), BuildingBlock: OJICUG_clean_linker_0, # of connection points: 2
#     Edge 57, Type (0, 0), BuildingBlock: OJICUG_clean_linker_0, # of connection points: 2
#     Edge 58, Type (0, 0), BuildingBlock: OJICUG_clean_linker_0, # of connection points: 2
#     Edge 59, Type (0, 0), BuildingBlock: OJICUG_clean_linker_0, # of connection points: 2
#     Edge 60, Type (0, 0), BuildingBlock: OJICUG_clean_linker_0, # of connection points: 2
#     Edge 61, Type (0, 0), BuildingBlock: OJICUG_clean_linker_0, # of connection points: 2
#     Edge 62, Type (0, 0), BuildingBlock: OJICUG_clean_linker_0, # of connection points: 2
#     Edge 63, Type (0, 0), BuildingBlock: OJICUG_clean_linker_0, # of connection points: 2
#     Edge 64, Type (0, 0), BuildingBlock: OJICUG_clean_linker_0, # of connection points: 2
#     Edge 65, Type (0, 0), BuildingBlock: OJICUG_clean_linker_0, # of connection points: 2
#     Edge 66, Type (0, 0), BuildingBlock: OJICUG_clean_linker_0, # of connection points: 2
#     Edge 67, Type (0, 0), BuildingBlock: OJICUG_clean_linker_0, # of connection points: 2
#     Edge 68, Type (0, 0), BuildingBlock: OJICUG_clean_linker_0, # of connection points: 2
#     Edge 69, Type (0, 0), BuildingBlock: OJICUG_clean_linker_0, # of connection points: 2
#     Edge 70, Type (0, 0), BuildingBlock: OJICUG_clean_linker_0, # of connection points: 2
#     Edge 71, Type (0, 0), BuildingBlock: OJICUG_clean_linker_0, # of connection points: 2
# Relax obj value: 0.120
# Max RMSD: 0.295
# Mean RMSD: 0.270
data_MOF--net-cbo--node1-ESEHIV_clean_sbu_0--edge1-OJICUG_clean_linker_0
_symmetry_space_group_name_H-M    P1
_symmetry_Int_Tables_number       1
_symmetry_cell_setting            triclinic
loop_
_symmetry_equiv_pos_as_xyz
'x, y, z'
_cell_length_a     40.705068
_cell_length_b     45.641917
_cell_length_c     42.363761
_cell_angle_alpha  89.974298
_cell_angle_beta   90.146943
_cell_angle_gamma 90.204097
loop_
_atom_site_label
_atom_site_type_symbol
_atom_site_fract_x
_atom_site_fract_y
_atom_site_fract_z
_atom_type_partial_charge
Cu0 Cu 0.14309 0.18896 0.32747 0.0
N1 N 0.16147 0.18603 0.36821 0.0
N2 N 0.17109 0.18686 0.4204 0.0
C3 C 0.1504 0.19489 0.39678 0.0
C4 C 0.196 0.17278 0.40607 0.0
C5 C 0.19007 0.17238 0.37415 0.0
O6 O 0.10049 0.16902 0.32536 0.0
C7 C 0.18614 0.1481 0.29364 0.0
O8 O 0.17286 0.12624 0.30929 0.0
H9 H 0.1275 0.20642 0.40025 0.0
H10 H 0.20563 0.16265 0.35643 0.0
N11 N 0.13769 0.22799 0.31507 0.0
N12 N 0.13893 0.26716 0.28318 0.0
C13 C 0.14009 0.23764 0.28506 0.0
C14 C 0.13467 0.25221 0.3329 0.0
C15 C 0.13549 0.27642 0.31329 0.0
C16 C 0.08916 0.1589 0.29951 0.0
O17 O 0.1073 0.16078 0.27398 0.0
H18 H 0.1444 0.22328 0.26517 0.0
H19 H 0.13317 0.25231 0.35838 0.0
O20 O 0.17557 0.17404 0.29777 0.0
H21 H 0.2173 0.1637 0.41783 0.0
H22 H 0.13436 0.29908 0.32071 0.0
Cu23 Cu 0.39696 0.82032 0.83166 0.0
N24 N 0.38998 0.80789 0.87348 0.0
N25 N 0.37709 0.80641 0.92494 0.0
C26 C 0.37818 0.82304 0.89841 0.0
C27 C 0.38839 0.77989 0.91618 0.0
C28 C 0.39618 0.78086 0.88465 0.0
O29 O 0.43489 0.84678 0.83035 0.0
C30 C 0.3518 0.86125 0.80164 0.0
O31 O 0.37632 0.87999 0.80064 0.0
H32 H 0.37081 0.84577 0.89716 0.0
H33 H 0.40543 0.76284 0.87081 0.0
N34 N 0.40778 0.78753 0.80723 0.0
N35 N 0.40602 0.75205 0.77093 0.0
C36 C 0.39171 0.77669 0.78188 0.0
C37 C 0.43336 0.76942 0.81199 0.0
C38 C 0.43212 0.74731 0.78986 0.0
C39 C 0.44797 0.85339 0.80399 0.0
O40 O 0.43368 0.84442 0.77785 0.0
H41 H 0.36961 0.78625 0.7721 0.0
H42 H 0.45141 0.77194 0.83059 0.0
O43 O 0.35607 0.83626 0.8144 0.0
H44 H 0.39018 0.76084 0.9313 0.0
H45 H 0.4491 0.72922 0.78772 0.0
Cu46 Cu 0.63033 0.33532 0.69725 0.0
N47 N 0.63092 0.3383 0.65293 0.0
N48 N 0.64407 0.3351 0.60163 0.0
C49 C 0.6522 0.3273 0.63156 0.0
C50 C 0.61691 0.35173 0.6045 0.0
C51 C 0.60902 0.35374 0.63594 0.0
O52 O 0.58948 0.35329 0.71181 0.0
C53 C 0.67037 0.36987 0.73914 0.0
O54 O 0.64263 0.3761 0.75339 0.0
H55 H 0.6731 0.31388 0.63782 0.0
H56 H 0.58891 0.36611 0.64579 0.0
N57 N 0.6308 0.29617 0.71038 0.0
N58 N 0.63623 0.25683 0.74156 0.0
C59 C 0.63553 0.28642 0.74012 0.0
C60 C 0.62821 0.27199 0.69241 0.0
C61 C 0.63163 0.24771 0.71153 0.0
C62 C 0.56235 0.34201 0.70268 0.0
O63 O 0.56314 0.31833 0.68507 0.0
H64 H 0.6395 0.3008 0.76009 0.0
H65 H 0.62459 0.27205 0.6671 0.0
O66 O 0.66977 0.35385 0.71453 0.0
H67 H 0.60414 0.36249 0.58531 0.0
H68 H 0.63096 0.22509 0.70388 0.0
Cu69 Cu 0.89196 0.68584 0.19712 0.0
N70 N 0.88825 0.68004 0.15328 0.0
N71 N 0.87942 0.68371 0.10105 0.0
C72 C 0.87738 0.69732 0.1295 0.0
C73 C 0.89171 0.65692 0.10751 0.0
C74 C 0.89706 0.65479 0.13944 0.0
O75 O 0.93213 0.66626 0.2108 0.0
C76 C 0.85071 0.6482 0.23549 0.0
O77 O 0.87719 0.63268 0.24118 0.0
H78 H 0.86836 0.71934 0.13298 0.0
H79 H 0.90664 0.63597 0.15191 0.0
N80 N 0.89492 0.72529 0.20894 0.0
N81 N 0.89242 0.76494 0.23999 0.0
C82 C 0.88953 0.73548 0.23835 0.0
C83 C 0.90176 0.74908 0.19134 0.0
C84 C 0.90003 0.77359 0.21039 0.0
C85 C 0.95871 0.67294 0.19659 0.0
O86 O 0.95772 0.69289 0.17423 0.0
H87 H 0.88274 0.72155 0.25798 0.0
H88 H 0.90742 0.74868 0.16642 0.0
O89 O 0.85257 0.67041 0.21738 0.0
H90 H 0.89596 0.63968 0.09051 0.0
H91 H 0.90413 0.79602 0.20304 0.0
Cu92 Cu 0.34262 0.10749 0.1691 0.0
N93 N 0.33615 0.07366 0.14487 0.0
N94 N 0.32825 0.02701 0.13026 0.0
C95 C 0.32947 0.04615 0.15467 0.0
C96 C 0.33427 0.04322 0.10425 0.0
C97 C 0.33913 0.07187 0.11332 0.0
O98 O 0.38825 0.10708 0.18397 0.0
C99 C 0.3031 0.13306 0.21698 0.0
O100 O 0.32161 0.15612 0.21156 0.0
H101 H 0.32629 0.04024 0.17922 0.0
H102 H 0.34472 0.09012 0.09795 0.0
N103 N 0.33803 0.13991 0.14238 0.0
N104 N 0.3197 0.18087 0.11944 0.0
C105 C 0.31325 0.1594 0.14054 0.0
C106 C 0.36067 0.14924 0.12158 0.0
C107 C 0.34946 0.17442 0.10737 0.0
C108 C 0.4033 0.13025 0.19272 0.0
O109 O 0.38686 0.15485 0.195 0.0
H110 H 0.29107 0.15799 0.15448 0.0
H111 H 0.38405 0.1387 0.11755 0.0
O112 O 0.30929 0.10926 0.20247 0.0
H113 H 0.33481 0.03506 0.08028 0.0
H114 H 0.36269 0.18751 0.09026 0.0
Cu115 Cu 0.19288 0.90984 0.68381 0.0
N116 N 0.19902 0.94467 0.66094 0.0
N117 N 0.20269 0.99194 0.64685 0.0
C118 C 0.19586 0.97277 0.67043 0.0
C119 C 0.21052 0.97511 0.62179 0.0
C120 C 0.20829 0.94616 0.63054 0.0
O121 O 0.14894 0.90802 0.70245 0.0
C122 C 0.2303 0.88425 0.73367 0.0
O123 O 0.20663 0.86459 0.73375 0.0
H124 H 0.18856 0.97894 0.69404 0.0
H125 H 0.21348 0.92742 0.61579 0.0
N126 N 0.19517 0.87846 0.65548 0.0
N127 N 0.20814 0.83603 0.63228 0.0
C128 C 0.2151 0.85491 0.65601 0.0
C129 C 0.17518 0.87441 0.63052 0.0
C130 C 0.1831 0.84838 0.61618 0.0
C131 C 0.1241 0.9167 0.6866 0.0
O132 O 0.12903 0.92979 0.65939 0.0
H133 H 0.23378 0.85138 0.6738 0.0
H134 H 0.15606 0.88935 0.62326 0.0
O135 O 0.22824 0.90595 0.71484 0.0
H136 H 0.2182 0.98309 0.5989 0.0
H137 H 0.17143 0.83939 0.59533 0.0
Cu138 Cu 0.8301 0.41954 0.8552 0.0
N139 N 0.82455 0.4546 0.87756 0.0
N140 N 0.82152 0.50229 0.88992 0.0
C141 C 0.82811 0.48236 0.86709 0.0
C142 C 0.81349 0.48627 0.9156 0.0
C143 C 0.81535 0.45702 0.90791 0.0
O144 O 0.87511 0.41819 0.83896 0.0
C145 C 0.79391 0.39858 0.80077 0.0
O146 O 0.81985 0.38259 0.79461 0.0
H147 H 0.83542 0.48773 0.84324 0.0
H148 H 0.80989 0.43875 0.92331 0.0
N149 N 0.8257 0.38842 0.88349 0.0
N150 N 0.81048 0.34587 0.90532 0.0
C151 C 0.80514 0.36526 0.8817 0.0
C152 C 0.84471 0.38357 0.90892 0.0
C153 C 0.83538 0.35744 0.92247 0.0
C154 C 0.88915 0.39377 0.83354 0.0
O155 O 0.87186 0.36948 0.83552 0.0
H156 H 0.78692 0.36265 0.86328 0.0
H157 H 0.8645 0.39778 0.91659 0.0
O158 O 0.79469 0.41626 0.82402 0.0
H159 H 0.80592 0.49498 0.93817 0.0
H160 H 0.84685 0.34736 0.9428 0.0
Cu161 Cu 0.69288 0.60409 0.35633 0.0
N162 N 0.69865 0.5702 0.38078 0.0
N163 N 0.70622 0.52353 0.3956 0.0
C164 C 0.70449 0.54253 0.37106 0.0
C165 C 0.70141 0.54001 0.42162 0.0
C166 C 0.69678 0.56862 0.41244 0.0
O167 O 0.64767 0.60396 0.34016 0.0
C168 C 0.73 0.62703 0.30466 0.0
O169 O 0.70754 0.64758 0.30447 0.0
H170 H 0.7069 0.53644 0.34649 0.0
H171 H 0.69236 0.58702 0.42787 0.0
N172 N 0.69717 0.63673 0.38273 0.0
N173 N 0.71348 0.67939 0.40362 0.0
C174 C 0.71969 0.65846 0.38184 0.0
C175 C 0.67604 0.64418 0.40568 0.0
C176 C 0.68604 0.67036 0.41865 0.0
C177 C 0.63263 0.62768 0.33362 0.0
O178 O 0.64876 0.65261 0.33487 0.0
H179 H 0.74003 0.65898 0.36546 0.0
H180 H 0.65438 0.6317 0.41198 0.0
O181 O 0.72721 0.60582 0.32404 0.0
H182 H 0.7017 0.53207 0.4457 0.0
H183 H 0.67339 0.68226 0.43703 0.0
Cu184 Cu 0.17686 0.34611 0.10666 0.0
N185 N 0.1902 0.38496 0.11466 0.0
N186 N 0.19144 0.43178 0.13065 0.0
C187 C 0.17335 0.40686 0.12862 0.0
C188 C 0.22068 0.42515 0.11761 0.0
C189 C 0.21988 0.39642 0.10794 0.0
O190 O 0.14752 0.34434 0.06994 0.0
C191 C 0.17013 0.33373 0.17155 0.0
O192 O 0.19495 0.35213 0.17354 0.0
H193 H 0.14844 0.40451 0.13715 0.0
H194 H 0.23987 0.38463 0.09717 0.0
N195 N 0.21346 0.32355 0.09601 0.0
N196 N 0.24912 0.28637 0.09357 0.0
C197 C 0.22295 0.29786 0.10879 0.0
C198 C 0.23415 0.32841 0.07187 0.0
C199 C 0.25624 0.30574 0.07044 0.0
C200 C 0.15377 0.35945 0.04529 0.0
O201 O 0.17815 0.37836 0.04616 0.0
H202 H 0.2102 0.28743 0.12818 0.0
H203 H 0.23297 0.34695 0.05603 0.0
O204 O 0.1575 0.32855 0.14452 0.0
H205 H 0.2416 0.43978 0.116 0.0
H206 H 0.27598 0.3038 0.05354 0.0
Cu207 Cu 0.67852 0.17341 0.91451 0.0
N208 N 0.69082 0.13459 0.90553 0.0
N209 N 0.69005 0.08749 0.89052 0.0
C210 C 0.67256 0.11258 0.89319 0.0
C211 C 0.72036 0.09414 0.90136 0.0
C212 C 0.72077 0.12305 0.91044 0.0
O213 O 0.65116 0.17494 0.95241 0.0
C214 C 0.6703 0.18765 0.85056 0.0
O215 O 0.69549 0.16993 0.84785 0.0
H216 H 0.64702 0.11487 0.88653 0.0
H217 H 0.74168 0.13486 0.91977 0.0
N218 N 0.71579 0.19585 0.92383 0.0
N219 N 0.75028 0.23405 0.92625 0.0
C220 C 0.72391 0.22215 0.91155 0.0
C221 C 0.73771 0.19099 0.94705 0.0
C222 C 0.75907 0.21439 0.9485 0.0
C223 C 0.65873 0.15958 0.97652 0.0
O224 O 0.68286 0.14069 0.97421 0.0
H225 H 0.70982 0.23292 0.89324 0.0
H226 H 0.73762 0.17215 0.9625 0.0
O227 O 0.65773 0.19159 0.87777 0.0
H228 H 0.74105 0.07932 0.90201 0.0
H229 H 0.77924 0.21688 0.96499 0.0
Cu230 Cu 0.85105 0.84877 0.41271 0.0
N231 N 0.83928 0.88777 0.40363 0.0
N232 N 0.8406 0.93487 0.38854 0.0
C233 C 0.85786 0.90968 0.39159 0.0
C234 C 0.8101 0.9284 0.39887 0.0
C235 C 0.80935 0.8995 0.40798 0.0
O236 O 0.87826 0.8468 0.4509 0.0
C237 C 0.86047 0.83535 0.34842 0.0
O238 O 0.83684 0.85462 0.34494 0.0
H239 H 0.88346 0.9072 0.38531 0.0
H240 H 0.7882 0.88781 0.41687 0.0
N241 N 0.81342 0.82685 0.42193 0.0
N242 N 0.77807 0.78926 0.42449 0.0
C243 C 0.80477 0.80058 0.40988 0.0
C244 C 0.79158 0.83229 0.44494 0.0
C245 C 0.76967 0.80932 0.44644 0.0
C246 C 0.87168 0.86297 0.47463 0.0
O247 O 0.84874 0.88297 0.47177 0.0
H248 H 0.81867 0.78945 0.39177 0.0
H249 H 0.79209 0.85127 0.46019 0.0
O250 O 0.87155 0.83024 0.37607 0.0
H251 H 0.78948 0.94331 0.39905 0.0
H252 H 0.74935 0.80744 0.46275 0.0
Cu253 Cu 0.34258 0.66763 0.60509 0.0
N254 N 0.32922 0.62906 0.61421 0.0
N255 N 0.32772 0.58234 0.63058 0.0
C256 C 0.34613 0.60703 0.62798 0.0
C257 C 0.29828 0.58921 0.61794 0.0
C258 C 0.29928 0.61787 0.60798 0.0
O259 O 0.36958 0.66887 0.56706 0.0
C260 C 0.3607 0.67931 0.66915 0.0
O261 O 0.34167 0.65694 0.67607 0.0
H262 H 0.3713 0.60912 0.63596 0.0
H263 H 0.27932 0.62981 0.59718 0.0
N264 N 0.3057 0.69075 0.59723 0.0
N265 N 0.26996 0.72777 0.6001 0.0
C266 C 0.29672 0.71503 0.61307 0.0
C267 C 0.28405 0.68809 0.57337 0.0
C268 C 0.26193 0.71077 0.57513 0.0
C269 C 0.36169 0.65465 0.54225 0.0
O270 O 0.33616 0.63699 0.54312 0.0
H271 H 0.30977 0.72325 0.63353 0.0
H272 H 0.28466 0.67117 0.55554 0.0
O273 O 0.36539 0.68623 0.64039 0.0
H274 H 0.27715 0.57479 0.61674 0.0
H275 H 0.24214 0.71489 0.55864 0.0
Cu276 Cu 0.93176 0.84925 0.69405 0.0
N277 N 0.92477 0.83564 0.65263 0.0
N278 N 0.91553 0.83417 0.60038 0.0
C279 C 0.91887 0.85143 0.62623 0.0
C280 C 0.9196 0.80654 0.61107 0.0
C281 C 0.92526 0.80753 0.64314 0.0
O282 O 0.97185 0.87311 0.69333 0.0
C283 C 0.8651 0.86779 0.69774 0.0
O284 O 0.86108 0.85042 0.67334 0.0
H285 H 0.9171 0.87508 0.62607 0.0
H286 H 0.92921 0.78897 0.65853 0.0
N287 N 0.93795 0.81715 0.72097 0.0
N288 N 0.93129 0.78497 0.76045 0.0
C289 C 0.91915 0.80892 0.74564 0.0
C290 C 0.9628 0.79786 0.72009 0.0
C291 C 0.95879 0.77803 0.74432 0.0
C292 C 0.99324 0.87381 0.7154 0.0
O293 O 0.98743 0.85971 0.74184 0.0
H294 H 0.89688 0.82018 0.75233 0.0
H295 H 0.98262 0.7984 0.70314 0.0
O296 O 0.89371 0.87106 0.70961 0.0
H297 H 0.91777 0.78687 0.59692 0.0
H298 H 0.97526 0.76018 0.74984 0.0
Cu299 Cu 0.60209 0.17989 0.196 0.0
N300 N 0.60449 0.19046 0.15317 0.0
N301 N 0.61178 0.18954 0.10067 0.0
C302 C 0.61327 0.17411 0.12801 0.0
C303 C 0.60154 0.21652 0.10917 0.0
C304 C 0.59705 0.21697 0.14137 0.0
O305 O 0.55849 0.16387 0.20435 0.0
C306 C 0.66679 0.15767 0.1973 0.0
O307 O 0.67131 0.17708 0.17482 0.0
H308 H 0.62059 0.15141 0.12981 0.0
H309 H 0.58915 0.23549 0.1553 0.0
N310 N 0.60536 0.21347 0.22102 0.0
N311 N 0.62244 0.2445 0.2585 0.0
C312 C 0.63004 0.22087 0.24076 0.0
C313 C 0.58142 0.23308 0.22637 0.0
C314 C 0.59187 0.25227 0.24946 0.0
C315 C 0.54486 0.1425 0.19005 0.0
O316 O 0.56175 0.12758 0.16918 0.0
H317 H 0.65244 0.20836 0.24315 0.0
H318 H 0.5576 0.23281 0.21498 0.0
O319 O 0.63813 0.15423 0.20885 0.0
H320 H 0.59833 0.23496 0.09343 0.0
H321 H 0.57791 0.27029 0.25913 0.0
Cu322 Cu 0.43444 0.6768 0.32756 0.0
N323 N 0.4316 0.68613 0.37076 0.0
N324 N 0.42062 0.68389 0.42262 0.0
C325 C 0.41823 0.67015 0.39434 0.0
C326 C 0.43631 0.70936 0.41644 0.0
C327 C 0.44308 0.7106 0.38467 0.0
O328 O 0.4783 0.66178 0.31921 0.0
C329 C 0.36998 0.65559 0.32463 0.0
O330 O 0.36516 0.67758 0.34402 0.0
H331 H 0.40701 0.64888 0.39074 0.0
H332 H 0.45538 0.72833 0.37263 0.0
N333 N 0.42989 0.71046 0.30266 0.0
N334 N 0.41505 0.73942 0.26246 0.0
C335 C 0.41041 0.7134 0.27706 0.0
C336 C 0.44772 0.73532 0.30403 0.0
C337 C 0.43839 0.75333 0.27949 0.0
C338 C 0.49122 0.63934 0.33198 0.0
O339 O 0.47343 0.62288 0.35085 0.0
H340 H 0.39361 0.69654 0.26899 0.0
H341 H 0.4672 0.73959 0.32079 0.0
O342 O 0.39901 0.65028 0.31501 0.0
H343 H 0.44185 0.72634 0.43347 0.0
H344 H 0.44902 0.77446 0.2738 0.0
Cu345 Cu 0.08464 0.33608 0.82896 0.0
N346 N 0.0885 0.32639 0.87207 0.0
N347 N 0.09869 0.32831 0.92419 0.0
C348 C 0.09876 0.34322 0.89647 0.0
C349 C 0.08785 0.30118 0.91676 0.0
C350 C 0.08162 0.3001 0.88484 0.0
O351 O 0.04174 0.35376 0.8217 0.0
C352 C 0.1503 0.35593 0.8258 0.0
O353 O 0.15444 0.33644 0.84825 0.0
H354 H 0.10631 0.36584 0.89381 0.0
H355 H 0.07315 0.28119 0.87178 0.0
N356 N 0.08382 0.30183 0.8047 0.0
N357 N 0.0928 0.26928 0.7661 0.0
C358 C 0.10347 0.29407 0.7805 0.0
C359 C 0.05986 0.28152 0.80544 0.0
C360 C 0.06538 0.26139 0.78191 0.0
C361 C 0.02997 0.37682 0.83414 0.0
O362 O 0.04855 0.39288 0.85277 0.0
H363 H 0.12476 0.30666 0.77333 0.0
H364 H 0.0391 0.28196 0.82133 0.0
O365 O 0.12161 0.36004 0.81451 0.0
H366 H 0.08554 0.28299 0.93301 0.0
H367 H 0.04959 0.24302 0.7762 0.0
Cu368 Cu 0.6743 0.91778 0.81608 0.0
N369 N 0.63297 0.9091 0.79816 0.0
N370 N 0.57982 0.89766 0.79039 0.0
C371 C 0.60325 0.90511 0.81184 0.0
C372 C 0.59564 0.8969 0.76243 0.0
C373 C 0.6281 0.90386 0.76728 0.0
O374 O 0.67344 0.95377 0.84083 0.0
C375 C 0.67897 0.85963 0.84123 0.0
O376 O 0.65369 0.85373 0.82297 0.0
H377 H 0.59907 0.90726 0.83694 0.0
H378 H 0.6471 0.90423 0.74952 0.0
N379 N 0.70493 0.92313 0.78359 0.0
N380 N 0.74863 0.91735 0.75231 0.0
C381 C 0.73355 0.90885 0.77922 0.0
C382 C 0.70212 0.94148 0.75885 0.0
C383 C 0.72887 0.93779 0.7394 0.0
C384 C 0.6591 0.97707 0.83168 0.0
O385 O 0.64205 0.97662 0.80531 0.0
H386 H 0.74261 0.89194 0.79487 0.0
H387 H 0.68163 0.95605 0.75489 0.0
O388 O 0.69039 0.88563 0.84217 0.0
H389 H 0.5849 0.89062 0.74003 0.0
H390 H 0.73339 0.94912 0.71738 0.0
Cu391 Cu 0.8599 0.10384 0.31204 0.0
N392 N 0.90132 0.10978 0.29334 0.0
N393 N 0.95476 0.11985 0.28543 0.0
C394 C 0.9307 0.11549 0.30709 0.0
C395 C 0.93966 0.11689 0.25718 0.0
C396 C 0.90699 0.11079 0.26211 0.0
O397 O 0.85912 0.06824 0.3376 0.0
C398 C 0.82313 0.13962 0.35365 0.0
O399 O 0.80294 0.11709 0.35414 0.0
H400 H 0.93423 0.11659 0.33238 0.0
H401 H 0.88848 0.10802 0.24403 0.0
N402 N 0.82783 0.09968 0.2803 0.0
N403 N 0.78339 0.1062 0.24987 0.0
C404 C 0.80004 0.11526 0.27577 0.0
C405 C 0.8284 0.07998 0.25667 0.0
C406 C 0.80125 0.08413 0.23771 0.0
C407 C 0.87304 0.0446 0.32893 0.0
O408 O 0.89035 0.04454 0.3028 0.0
H409 H 0.79253 0.13331 0.29062 0.0
H410 H 0.84753 0.06391 0.25325 0.0
O411 O 0.84941 0.13797 0.33752 0.0
H412 H 0.95106 0.11989 0.23436 0.0
H413 H 0.79502 0.07184 0.21666 0.0
Cu414 Cu 0.17889 0.60004 0.21093 0.0
N415 N 0.13606 0.60664 0.226 0.0
N416 N 0.08316 0.62015 0.22811 0.0
C417 C 0.10985 0.61641 0.20952 0.0
C418 C 0.093 0.61222 0.25732 0.0
C419 C 0.1255 0.60402 0.25596 0.0
O420 O 0.18018 0.5642 0.18592 0.0
C421 C 0.18394 0.6592 0.19001 0.0
O422 O 0.16213 0.66434 0.21209 0.0
H423 H 0.1106 0.62112 0.1845 0.0
H424 H 0.14054 0.59738 0.27571 0.0
N425 N 0.20864 0.596 0.24446 0.0
N426 N 0.25281 0.60246 0.27519 0.0
C427 C 0.23742 0.61036 0.24824 0.0
C428 C 0.2061 0.57812 0.26962 0.0
C429 C 0.23312 0.58232 0.28882 0.0
C430 C 0.16569 0.54072 0.1945 0.0
O431 O 0.14823 0.54081 0.22053 0.0
H432 H 0.24658 0.62668 0.23189 0.0
H433 H 0.18598 0.56309 0.27376 0.0
O434 O 0.19381 0.6331 0.1854 0.0
H435 H 0.07818 0.61333 0.27845 0.0
H436 H 0.23806 0.57132 0.31097 0.0
Cu437 Cu 0.34104 0.41417 0.7118 0.0
N438 N 0.38404 0.40809 0.72713 0.0
N439 N 0.43698 0.39478 0.73029 0.0
C440 C 0.40968 0.3958 0.71195 0.0
C441 C 0.42811 0.40695 0.75798 0.0
C442 C 0.39559 0.41501 0.756 0.0
O443 O 0.33908 0.4502 0.68704 0.0
C444 C 0.33431 0.35495 0.69259 0.0
O445 O 0.35322 0.34979 0.71712 0.0
H446 H 0.40829 0.38778 0.68795 0.0
H447 H 0.38137 0.42499 0.77455 0.0
N448 N 0.31102 0.41724 0.74514 0.0
N449 N 0.26713 0.40932 0.7757 0.0
C450 C 0.28309 0.40162 0.74906 0.0
C451 C 0.31237 0.43572 0.76987 0.0
C452 C 0.28555 0.43064 0.78895 0.0
C453 C 0.35363 0.47376 0.69536 0.0
O454 O 0.37157 0.47381 0.72118 0.0
H455 H 0.27489 0.38466 0.73298 0.0
H456 H 0.33142 0.4519 0.7737 0.0
O457 O 0.32682 0.38127 0.68576 0.0
H458 H 0.44374 0.40919 0.77855 0.0
H459 H 0.27978 0.44197 0.81068 0.0
Cu460 Cu 0.82442 0.71167 0.91103 0.0
N461 N 0.81567 0.6754 0.89207 0.0
N462 N 0.81366 0.62744 0.8809 0.0
C463 C 0.82425 0.64821 0.90145 0.0
C464 C 0.79777 0.64232 0.85794 0.0
C465 C 0.79908 0.67175 0.86489 0.0
O466 O 0.84345 0.70566 0.95309 0.0
C467 C 0.8742 0.72219 0.8653 0.0
O468 O 0.87951 0.69393 0.86808 0.0
H469 H 0.83829 0.64387 0.92265 0.0
H470 H 0.7886 0.68938 0.85113 0.0
N471 N 0.78462 0.73174 0.91352 0.0
N472 N 0.7451 0.76421 0.90296 0.0
C473 C 0.77718 0.75743 0.89959 0.0
C474 C 0.75638 0.72196 0.92621 0.0
C475 C 0.73193 0.74194 0.91972 0.0
C476 C 0.83564 0.72056 0.97743 0.0
O477 O 0.81474 0.74225 0.97445 0.0
H478 H 0.79458 0.77014 0.88593 0.0
H479 H 0.75361 0.70128 0.93842 0.0
O480 O 0.85294 0.73423 0.88303 0.0
H481 H 0.78549 0.63267 0.83777 0.0
H482 H 0.70635 0.73997 0.92634 0.0
Cu483 Cu 0.31204 0.81813 0.11323 0.0
N484 N 0.29823 0.85616 0.12287 0.0
N485 N 0.29715 0.90461 0.13107 0.0
C486 C 0.31423 0.88185 0.11893 0.0
C487 C 0.26942 0.89269 0.14294 0.0
C488 C 0.2702 0.86292 0.13791 0.0
O489 O 0.33403 0.8165 0.07235 0.0
C490 C 0.35382 0.77994 0.14789 0.0
O491 O 0.34932 0.76209 0.12392 0.0
H492 H 0.33824 0.88365 0.10816 0.0
H493 H 0.25181 0.84716 0.14517 0.0
N494 N 0.27512 0.7935 0.1125 0.0
N495 N 0.23962 0.75778 0.12471 0.0
C496 C 0.2701 0.76876 0.12927 0.0
C497 C 0.24683 0.79823 0.09681 0.0
C498 C 0.2248 0.77631 0.10443 0.0
C499 C 0.32334 0.83005 0.0481 0.0
O500 O 0.29718 0.84662 0.05079 0.0
H501 H 0.28781 0.75959 0.14553 0.0
H502 H 0.24227 0.81679 0.08154 0.0
O503 O 0.34095 0.8053 0.14712 0.0
H504 H 0.24983 0.90461 0.15435 0.0
H505 H 0.19979 0.77426 0.09595 0.0
Cu506 Cu 0.20146 0.20017 0.61602 0.0
N507 N 0.21097 0.16469 0.63632 0.0
N508 N 0.21269 0.11722 0.64979 0.0
C509 C 0.20181 0.13718 0.62852 0.0
C510 C 0.2294 0.13295 0.67159 0.0
C511 C 0.22826 0.16208 0.66324 0.0
O512 O 0.18718 0.19243 0.57269 0.0
C513 C 0.14996 0.20896 0.66004 0.0
O514 O 0.14671 0.18037 0.6582 0.0
H515 H 0.18701 0.13205 0.60799 0.0
H516 H 0.23922 0.18022 0.67593 0.0
N517 N 0.24016 0.22219 0.61533 0.0
N518 N 0.27734 0.25642 0.62787 0.0
C519 C 0.24533 0.24856 0.6288 0.0
C520 C 0.26981 0.21315 0.6054 0.0
C521 C 0.29283 0.2342 0.61319 0.0
C522 C 0.17558 0.21149 0.55371 0.0
O523 O 0.17064 0.23831 0.56384 0.0
H524 H 0.22637 0.26094 0.64064 0.0
H525 H 0.27451 0.19215 0.59452 0.0
O526 O 0.17024 0.22184 0.64184 0.0
H527 H 0.24203 0.12408 0.69194 0.0
H528 H 0.31903 0.23294 0.60911 0.0
Cu529 Cu 0.71963 0.31524 0.41711 0.0
N530 N 0.73434 0.35259 0.40515 0.0
N531 N 0.7358 0.40088 0.39559 0.0
C532 C 0.71925 0.37855 0.40949 0.0
C533 C 0.7623 0.38836 0.38215 0.0
C534 C 0.76129 0.35869 0.38802 0.0
O535 O 0.6972 0.31726 0.45786 0.0
C536 C 0.70158 0.29568 0.357 0.0
O537 O 0.73287 0.30077 0.35172 0.0
H538 H 0.69614 0.38084 0.42182 0.0
H539 H 0.77874 0.34258 0.37988 0.0
N540 N 0.75513 0.2892 0.4191 0.0
N541 N 0.78584 0.24959 0.40953 0.0
C542 C 0.75542 0.26135 0.40852 0.0
C543 C 0.78636 0.29518 0.42745 0.0
C544 C 0.80535 0.27083 0.42157 0.0
C545 C 0.71271 0.3183 0.48405 0.0
O546 O 0.74496 0.31791 0.48385 0.0
H547 H 0.73407 0.25052 0.39861 0.0
H548 H 0.79493 0.31615 0.43611 0.0
O549 O 0.68996 0.30096 0.38432 0.0
H550 H 0.78121 0.39979 0.36906 0.0
H551 H 0.83159 0.26915 0.42526 0.0
C552 C 0.14186 0.2911 0.19805 0.0
C553 C 0.15922 0.31772 0.20026 0.0
H554 H 0.12186 0.25407 0.22279 0.0
C555 C 0.16812 0.3281 0.23037 0.0
H556 H 0.13474 0.28243 0.17523 0.0
C557 C 0.16054 0.31201 0.25754 0.0
C558 C 0.14426 0.28488 0.25532 0.0
H559 H 0.18146 0.34854 0.23295 0.0
H560 H 0.16851 0.32035 0.28021 0.0
C561 C 0.13469 0.27476 0.22527 0.0
C562 C 0.38621 0.74634 0.71613 0.0
C563 C 0.39522 0.73386 0.74516 0.0
H564 H 0.36914 0.73866 0.66885 0.0
C565 C 0.39375 0.70329 0.74873 0.0
H566 H 0.38734 0.76986 0.71287 0.0
C567 C 0.38268 0.68553 0.72395 0.0
C568 C 0.37392 0.69794 0.69479 0.0
H569 H 0.40047 0.69326 0.77098 0.0
H570 H 0.38109 0.66206 0.72753 0.0
C571 C 0.37611 0.7285 0.69098 0.0
C572 C 0.65978 0.21216 0.76561 0.0
C573 C 0.64297 0.23882 0.76889 0.0
H574 H 0.68152 0.17526 0.78868 0.0
C575 C 0.63362 0.24784 0.79934 0.0
H576 H 0.66761 0.20468 0.7426 0.0
C577 C 0.64132 0.23075 0.82589 0.0
C578 C 0.659 0.20451 0.82258 0.0
H579 H 0.62039 0.26813 0.80262 0.0
H580 H 0.63427 0.2385 0.84906 0.0
C581 C 0.66789 0.19534 0.7921 0.0
C582 C 0.87287 0.81132 0.26354 0.0
C583 C 0.88656 0.7833 0.2672 0.0
H584 H 0.85387 0.84958 0.28624 0.0
C585 C 0.89344 0.77319 0.29791 0.0
H586 H 0.86705 0.81966 0.24028 0.0
C587 C 0.88627 0.79053 0.32435 0.0
C588 C 0.87152 0.81814 0.32066 0.0
H589 H 0.90429 0.75183 0.30148 0.0
H590 H 0.8913 0.7819 0.34768 0.0
C591 C 0.8652 0.82841 0.28993 0.0
C592 C 0.26231 0.16425 0.24522 0.0
C593 C 0.27334 0.13613 0.23698 0.0
H594 H 0.22628 0.18999 0.26885 0.0
C595 C 0.25506 0.11165 0.24713 0.0
H596 H 0.2755 0.18364 0.23762 0.0
C597 C 0.22661 0.11532 0.26544 0.0
C598 C 0.21561 0.14355 0.27353 0.0
H599 H 0.26282 0.08969 0.24107 0.0
H600 H 0.2132 0.09609 0.27318 0.0
C601 C 0.23381 0.16791 0.26303 0.0
C602 C 0.31586 0.89433 0.7688 0.0
C603 C 0.31988 0.86825 0.7861 0.0
H604 H 0.28458 0.91993 0.73881 0.0
C605 C 0.2935 0.84828 0.78728 0.0
H606 H 0.33561 0.91023 0.76735 0.0
C607 C 0.26419 0.85389 0.77099 0.0
C608 C 0.26047 0.87958 0.75298 0.0
H609 H 0.29562 0.828 0.80039 0.0
H610 H 0.24468 0.83772 0.77203 0.0
C611 C 0.28655 0.8999 0.7524 0.0
C612 C 0.76191 0.3748 0.75675 0.0
C613 C 0.76274 0.39357 0.78308 0.0
H614 H 0.73237 0.35285 0.72209 0.0
C615 C 0.73306 0.40589 0.79358 0.0
H616 H 0.78426 0.36494 0.74797 0.0
C617 C 0.70321 0.39877 0.77885 0.0
C618 C 0.70229 0.37934 0.75309 0.0
H619 H 0.73271 0.42041 0.81379 0.0
H620 H 0.68077 0.40812 0.78805 0.0
C621 C 0.7321 0.36788 0.74186 0.0
C622 C 0.81647 0.61721 0.27228 0.0
C623 C 0.81914 0.64116 0.25148 0.0
H624 H 0.78623 0.59372 0.30519 0.0
C625 C 0.79154 0.65915 0.24697 0.0
H626 H 0.83719 0.60284 0.27627 0.0
C627 C 0.76241 0.65394 0.26352 0.0
C628 C 0.75999 0.63054 0.285 0.0
H629 H 0.79257 0.67774 0.23108 0.0
H630 H 0.74197 0.66869 0.25987 0.0
C631 C 0.78721 0.61193 0.28882 0.0
C632 C 0.30202 0.21977 0.08274 0.0
C633 C 0.30027 0.20647 0.11257 0.0
H634 H 0.28671 0.25487 0.05303 0.0
C635 C 0.28036 0.21927 0.13583 0.0
H636 H 0.31667 0.21016 0.06416 0.0
C637 C 0.26331 0.24527 0.1296 0.0
C638 C 0.26563 0.25895 0.09988 0.0
H639 H 0.27878 0.20972 0.15917 0.0
H640 H 0.24901 0.25497 0.14834 0.0
C641 C 0.28486 0.24555 0.07643 0.0
C642 C 0.79493 0.30493 0.94065 0.0
C643 C 0.79426 0.31806 0.91061 0.0
H644 H 0.78128 0.2683 0.96921 0.0
C645 C 0.7781 0.30324 0.88587 0.0
H646 H 0.80645 0.31586 0.96045 0.0
C647 C 0.76343 0.27584 0.891 0.0
C648 C 0.76472 0.26256 0.92092 0.0
H649 H 0.77734 0.31244 0.86235 0.0
H650 H 0.75171 0.26476 0.87137 0.0
C651 C 0.78045 0.27755 0.9457 0.0
C652 C 0.74527 0.74718 0.44366 0.0
C653 C 0.76281 0.76104 0.41928 0.0
H654 H 0.71659 0.71028 0.45804 0.0
C655 C 0.76493 0.74693 0.38983 0.0
H656 H 0.74374 0.75696 0.46686 0.0
C657 C 0.74928 0.71993 0.38476 0.0
C658 C 0.73115 0.70644 0.40903 0.0
H659 H 0.77803 0.75706 0.37047 0.0
H660 H 0.75067 0.71004 0.36159 0.0
C661 C 0.72969 0.72029 0.43861 0.0
C662 C 0.20607 0.78625 0.60938 0.0
C663 C 0.22352 0.80827 0.62553 0.0
H664 H 0.2068 0.74336 0.58927 0.0
C665 C 0.25627 0.80287 0.63436 0.0
H666 H 0.1806 0.78933 0.60286 0.0
C667 C 0.2714 0.77634 0.6265 0.0
C668 C 0.2541 0.7546 0.60967 0.0
H669 H 0.2705 0.81942 0.6466 0.0
H670 H 0.29691 0.77325 0.63288 0.0
C671 C 0.22113 0.7598 0.60158 0.0
C672 C 0.88257 0.76867 0.83412 0.0
C673 C 0.89031 0.73907 0.83956 0.0
H674 H 0.88965 0.80654 0.80501 0.0
C675 C 0.91231 0.72514 0.81896 0.0
H676 H 0.86569 0.7801 0.84948 0.0
C677 C 0.9258 0.74021 0.7933 0.0
C678 C 0.91775 0.76969 0.78747 0.0
H679 H 0.91874 0.70234 0.82227 0.0
H680 H 0.942 0.72843 0.77763 0.0
C681 C 0.89611 0.78379 0.80839 0.0
C682 C 0.62725 0.2702 0.30984 0.0
C683 C 0.6421 0.25759 0.28315 0.0
H684 H 0.63431 0.29182 0.35433 0.0
C685 C 0.67651 0.25773 0.28103 0.0
H686 H 0.60079 0.27012 0.31231 0.0
C687 C 0.69566 0.27035 0.30489 0.0
C688 C 0.68087 0.28276 0.3317 0.0
H689 H 0.68863 0.24839 0.26068 0.0
H690 H 0.72214 0.27011 0.30241 0.0
C691 C 0.64644 0.28246 0.33398 0.0
C692 C 0.39066 0.72966 0.20988 0.0
C693 C 0.39996 0.74957 0.23361 0.0
H694 H 0.36938 0.72363 0.16404 0.0
C695 C 0.39471 0.77963 0.22855 0.0
H696 H 0.39476 0.7064 0.2129 0.0
C697 C 0.38005 0.78954 0.20061 0.0
C698 C 0.37073 0.76962 0.17688 0.0
H699 H 0.40143 0.79548 0.24647 0.0
H700 H 0.37595 0.81282 0.19765 0.0
C701 C 0.37641 0.73958 0.18175 0.0
C702 C 0.11302 0.21038 0.70721 0.0
C703 C 0.1336 0.22526 0.68595 0.0
H704 H 0.08469 0.21231 0.74945 0.0
C705 C 0.14019 0.25516 0.6912 0.0
H706 H 0.10757 0.18731 0.7041 0.0
C707 C 0.12687 0.26966 0.71739 0.0
C708 C 0.10661 0.25461 0.73892 0.0
H709 H 0.15606 0.2673 0.67537 0.0
H710 H 0.13237 0.29267 0.72062 0.0
C711 C 0.09978 0.22481 0.73331 0.0
C712 C 0.78031 0.90066 0.70617 0.0
C713 C 0.77833 0.90569 0.73881 0.0
H714 H 0.80915 0.88449 0.66776 0.0
C715 C 0.80564 0.8991 0.75789 0.0
H716 H 0.75955 0.90535 0.69098 0.0
C717 C 0.83443 0.88777 0.74448 0.0
C718 C 0.83603 0.88211 0.71189 0.0
H719 H 0.80474 0.90294 0.78309 0.0
H720 H 0.85505 0.88267 0.75971 0.0
C721 C 0.80866 0.88866 0.69292 0.0
C722 C 0.69806 0.13708 0.24343 0.0
C723 C 0.69561 0.14237 0.2108 0.0
H724 H 0.72862 0.12202 0.28162 0.0
C725 C 0.72226 0.13515 0.19133 0.0
H726 H 0.67804 0.14281 0.25903 0.0
C727 C 0.75075 0.1228 0.20414 0.0
C728 C 0.75361 0.11825 0.23682 0.0
H729 H 0.72111 0.13915 0.16614 0.0
H730 H 0.77095 0.11751 0.18861 0.0
C731 C 0.72702 0.12551 0.25638 0.0
C732 C 0.33937 0.63107 0.2804 0.0
C733 C 0.34126 0.63927 0.31232 0.0
H734 H 0.30902 0.61344 0.2433 0.0
C735 C 0.31405 0.63424 0.33194 0.0
H736 H 0.35987 0.63508 0.2647 0.0
C737 C 0.28541 0.6214 0.31989 0.0
C738 C 0.28302 0.61417 0.28776 0.0
H739 H 0.31483 0.6405 0.35661 0.0
H740 H 0.26467 0.61801 0.33544 0.0
C741 C 0.31029 0.61901 0.26811 0.0
C742 C 0.23464 0.39075 0.82055 0.0
C743 C 0.23729 0.39683 0.78817 0.0
H744 H 0.20516 0.37272 0.85769 0.0
C745 C 0.21049 0.39048 0.76828 0.0
H746 H 0.25501 0.39532 0.83631 0.0
C747 C 0.18155 0.37828 0.78064 0.0
C748 C 0.17932 0.37146 0.81293 0.0
H749 H 0.21192 0.39515 0.74327 0.0
H750 H 0.16134 0.37334 0.7648 0.0
C751 C 0.20617 0.37781 0.83272 0.0
C752 C 0.74392 0.81574 0.88481 0.0
C753 C 0.728 0.78864 0.88899 0.0
H754 H 0.74078 0.8596 0.86694 0.0
C755 C 0.6954 0.78551 0.87846 0.0
H756 H 0.76893 0.81886 0.89292 0.0
C757 C 0.67936 0.80869 0.86336 0.0
C758 C 0.69538 0.8357 0.85887 0.0
H759 H 0.68259 0.76483 0.88106 0.0
H760 H 0.65447 0.80535 0.85498 0.0
C761 C 0.7277 0.8391 0.87013 0.0
C762 C 0.23011 0.68278 0.16009 0.0
C763 C 0.19785 0.68394 0.17175 0.0
H764 H 0.26893 0.70588 0.13634 0.0
C765 C 0.17934 0.7095 0.167 0.0
H766 H 0.24501 0.66343 0.16361 0.0
C767 C 0.1928 0.73345 0.1509 0.0
C768 C 0.22532 0.73261 0.13996 0.0
H769 H 0.1544 0.71099 0.17571 0.0
H770 H 0.1781 0.75296 0.14772 0.0
C771 C 0.24386 0.70706 0.1447 0.0
C772 C 0.29051 0.333 0.65798 0.0
C773 C 0.32044 0.33014 0.67432 0.0
H774 H 0.25305 0.31142 0.63065 0.0
C775 C 0.33637 0.30288 0.67429 0.0
H776 H 0.27758 0.3537 0.65776 0.0
C777 C 0.32262 0.27894 0.65838 0.0
C778 C 0.29228 0.28156 0.64275 0.0
H779 H 0.35946 0.30001 0.68666 0.0
H780 H 0.33524 0.25811 0.65908 0.0
C781 C 0.27638 0.30883 0.64265 0.0
C782 C 0.77363 0.19784 0.39618 0.0
C783 C 0.79581 0.22151 0.39714 0.0
H784 H 0.76489 0.15343 0.3821 0.0
C785 C 0.82753 0.21759 0.38475 0.0
H786 H 0.74915 0.20003 0.4058 0.0
C787 C 0.83657 0.1909 0.3711 0.0
C788 C 0.81421 0.16738 0.3697 0.0
H789 H 0.84512 0.23541 0.38475 0.0
H790 H 0.861 0.18884 0.36127 0.0
C791 C 0.78275 0.17107 0.38275 0.0
C792 C 0.182 0.17718 0.50783 0.0
C793 C 0.17092 0.20415 0.5197 0.0
H794 H 0.19036 0.15054 0.46711 0.0
C795 C 0.15722 0.22448 0.49837 0.0
H796 H 0.19252 0.1609 0.52344 0.0
C797 C 0.15579 0.21836 0.46586 0.0
C798 C 0.16842 0.19197 0.45398 0.0
H799 H 0.14831 0.24543 0.50667 0.0
H800 H 0.14615 0.23477 0.4499 0.0
C801 C 0.1809 0.17126 0.47546 0.0
C802 C 0.36452 0.80551 0.01289 0.0
C803 C 0.33887 0.82571 0.01668 0.0
H804 H 0.39705 0.78392 0.98096 0.0
C805 C 0.32734 0.84084 0.98987 0.0
H806 H 0.37418 0.79358 0.03296 0.0
C807 C 0.34052 0.83525 0.95991 0.0
C808 C 0.36536 0.81426 0.95601 0.0
H809 H 0.30767 0.85663 0.9919 0.0
H810 H 0.33047 0.84664 0.93968 0.0
C811 C 0.37753 0.79983 0.98297 0.0
C812 C 0.66052 0.32436 0.51501 0.0
C813 C 0.69479 0.32088 0.51451 0.0
H814 H 0.61755 0.33108 0.54301 0.0
C815 C 0.71192 0.32057 0.54346 0.0
H816 H 0.64648 0.32453 0.49326 0.0
C817 C 0.69526 0.32433 0.57211 0.0
C818 C 0.66111 0.32872 0.57251 0.0
H819 H 0.73832 0.31781 0.54402 0.0
H820 H 0.70928 0.32474 0.59385 0.0
C821 C 0.64393 0.32826 0.5436 0.0
C822 C 0.84695 0.71721 0.06673 0.0
C823 C 0.86994 0.69448 0.07013 0.0
H824 H 0.81814 0.74327 0.03499 0.0
C825 C 0.88272 0.68155 0.04256 0.0
H826 H 0.8364 0.72762 0.08725 0.0
C827 C 0.87203 0.69032 0.0126 0.0
C828 C 0.84843 0.71246 1.00922 0.0
H829 H 0.90102 0.66448 0.04399 0.0
H830 H 0.88212 0.67949 0.99206 0.0
C831 C 0.83636 0.7261 0.03666 0.0
C832 C 0.45526 0.15459 0.21082 0.0
C833 C 0.43968 0.13084 0.19582 0.0
H834 H 0.50046 0.17663 0.22126 0.0
C835 C 0.45927 0.10944 0.18123 0.0
H836 H 0.44093 0.1714 0.22238 0.0
C837 C 0.49357 0.11263 0.18021 0.0
C838 C 0.50903 0.13706 0.19414 0.0
H839 H 0.44804 0.09093 0.16933 0.0
H840 H 0.50787 0.09637 0.16776 0.0
C841 C 0.48948 0.15756 0.21019 0.0
C842 C 0.03192 0.90404 0.68247 0.0
C843 C 0.02594 0.88761 0.70993 0.0
H844 H 0.06722 0.92642 0.6539 0.0
C845 C 0.05217 0.88286 0.73107 0.0
H846 H 1.01234 0.90825 0.66572 0.0
C847 C 0.08387 0.89316 0.72419 0.0
C848 C 0.09005 0.90865 0.69611 0.0
H849 H 0.04849 0.87031 0.75248 0.0
H850 H 0.10369 0.88828 0.74045 0.0
C851 C 0.06349 0.91451 0.67572 0.0
C852 C 0.97321 0.3622 0.81695 0.0
C853 C 0.99432 0.38326 0.83045 0.0
H854 H 0.92366 0.34913 0.80727 0.0
C855 C 0.98058 0.40934 0.84213 0.0
H856 H 0.98282 0.34188 0.80763 0.0
C857 C 0.94643 0.41369 0.84147 0.0
C858 C 0.92532 0.39183 0.82955 0.0
H859 H 0.9961 0.42607 0.85256 0.0
H860 H 0.93649 0.43351 0.85169 0.0
C861 C 0.9392 0.36635 0.81673 0.0
C862 C 0.54195 0.60882 0.34112 0.0
C863 C 0.52713 0.63416 0.32868 0.0
H864 H 0.587 0.58652 0.3519 0.0
C865 C 0.54735 0.65573 0.315 0.0
H866 H 0.52712 0.59172 0.35171 0.0
C867 C 0.58153 0.65287 0.31539 0.0
C868 C 0.59645 0.62818 0.32903 0.0
H869 H 0.53688 0.67551 0.3051 0.0
H870 H 0.59636 0.67048 0.30576 0.0
C871 C 0.57627 0.60576 0.34109 0.0
C872 C 0.16058 0.46048 0.17046 0.0
C873 C 0.18273 0.45937 0.14509 0.0
H874 H 0.1379 0.48691 0.20601 0.0
C875 C 0.19768 0.4856 0.135 0.0
H876 H 0.14882 0.4407 0.17896 0.0
C877 C 0.1915 0.51208 0.15048 0.0
C878 C 0.17026 0.51304 0.17655 0.0
H879 H 0.21443 0.48565 0.11521 0.0
H880 H 0.20392 0.53169 0.14234 0.0
C881 C 0.15449 0.48699 0.18607 0.0
C882 C 0.64889 0.03109 0.83889 0.0
C883 C 0.66444 1.00514 0.84883 0.0
H884 H 0.64476 0.0777 0.84445 0.0
C885 C 0.68672 1.00662 0.87418 0.0
H886 H 0.63152 0.03076 0.81949 0.0
C887 C 0.69431 0.03349 0.88834 0.0
C888 C 0.67969 0.05959 0.87771 0.0
H889 H 0.69906 0.98713 0.8826 0.0
H890 H 0.71198 0.03387 0.90747 0.0
C891 C 0.65633 0.058 0.85328 0.0
C892 C 0.84442 0.0156 0.3712 0.0
C893 C 0.86717 0.01676 0.34634 0.0
H894 H 0.81848 0.98876 0.40431 0.0
C895 C 0.88281 0.99066 0.3371 0.0
H896 H 0.832 0.03523 0.37907 0.0
C897 C 0.87504 0.96392 0.35167 0.0
C898 C 0.85125 0.96263 0.37562 0.0
H899 H 0.90054 0.99073 0.31808 0.0
H900 H 0.88671 0.94412 0.34334 0.0
C901 C 0.8365 0.98889 0.38557 0.0
C902 C 0.36514 0.52732 0.68615 0.0
C903 C 0.34886 0.50133 0.67722 0.0
H904 H 0.37126 0.57346 0.67835 0.0
C905 C 0.32702 0.50225 0.65149 0.0
H906 H 0.38221 0.52743 0.70581 0.0
C907 C 0.32082 0.52863 0.63577 0.0
C908 C 0.33636 0.5548 0.64525 0.0
H909 H 0.31418 0.48268 0.6438 0.0
H910 H 0.30362 0.52856 0.61625 0.0
C911 C 0.35905 0.55373 0.67029 0.0
C912 C 0.90533 0.83202 0.51188 0.0
C913 C 0.88627 0.85713 0.50628 0.0
H914 H 0.92987 0.80522 0.54604 0.0
C915 C 0.87898 0.87557 0.53196 0.0
H916 H 0.91146 0.81734 0.49272 0.0
C917 C 0.88942 0.86857 0.56257 0.0
C918 C 0.90731 0.84283 0.56842 0.0
H919 H 0.86439 0.89513 0.52859 0.0
H920 H 0.88235 0.88278 0.58181 0.0
C921 C 0.91565 0.82494 0.54256 0.0
C922 C 0.65447 0.14971 0.03471 0.0
C923 C 0.64377 0.16534 1.00794 0.0
H924 H 0.65308 0.14518 0.08495 0.0
C925 C 0.62061 0.18775 1.01207 0.0
H926 H 0.6723 0.13227 0.0325 0.0
C927 C 0.60941 0.19506 0.04231 0.0
C928 C 0.62112 0.18021 0.06926 0.0
H929 H 0.6117 0.20016 0.99202 0.0
H930 H 0.59182 0.21264 0.04454 0.0
C931 C 0.64332 0.15703 0.06493 0.0
C932 C 0.42001 0.68648 0.48117 0.0
C933 C 0.40762 0.6746 0.45283 0.0
H934 H 0.41554 0.68948 0.53146 0.0
C935 C 0.38136 0.65454 0.45456 0.0
H936 H 0.4406 0.70151 0.48097 0.0
C937 C 0.36718 0.64739 0.48368 0.0
C938 C 0.37883 0.66014 0.51184 0.0
H939 H 0.37095 0.64507 0.43336 0.0
H940 H 0.34645 0.63245 0.48395 0.0
C941 C 0.40576 0.67941 0.51026 0.0
C942 C 0.1461 0.36867 0.98722 0.0
C943 C 0.13681 0.35346 0.01475 0.0
H944 H 0.14163 0.3726 0.93704 0.0
C945 C 0.113 0.33123 1.01217 0.0
H946 H 0.16436 0.38596 0.98824 0.0
C947 C 0.09977 0.32367 0.98267 0.0
C948 C 0.11005 0.33807 0.95492 0.0
H949 H 0.10511 0.31914 0.03283 0.0
H950 H 0.08174 0.30623 0.98164 0.0
C951 C 0.13291 0.36109 0.95773 0.0
C952 C 0.52304 0.89122 0.77034 0.0
C953 C 0.54566 0.88988 0.7955 0.0
H954 H 0.47482 0.88101 0.75336 0.0
C955 C 0.53462 0.87905 0.82477 0.0
H956 H 0.53015 0.90015 0.7477 0.0
C957 C 0.50233 0.86843 0.82818 0.0
C958 C 0.4805 0.86827 0.80233 0.0
H959 H 0.55124 0.8776 0.84467 0.0
H960 H 0.49496 0.85918 0.85062 0.0
C961 C 0.49108 0.88041 0.77363 0.0
C962 C 1.0123 0.12278 0.26652 0.0
C963 C 0.98899 0.12757 0.29048 0.0
H964 H 0.06168 0.12871 0.25059 0.0
C965 C 0.99964 0.14115 0.31858 0.0
H966 H 1.00547 0.11177 0.24487 0.0
C967 C 0.03237 0.15061 0.32204 0.0
C968 C 0.05517 0.1468 0.29745 0.0
H969 H 0.98251 0.14534 0.33752 0.0
H970 H 0.03953 0.16165 0.34362 0.0
C971 C 0.04477 0.13237 0.26988 0.0
C972 C 0.04889 0.65198 0.19406 0.0
C973 C 0.05163 0.63236 0.21949 0.0
H974 H 0.01774 0.68019 0.16713 0.0
C975 C 0.02322 0.62571 0.23708 0.0
H976 H 0.07022 0.65794 0.18026 0.0
C977 C 0.99296 0.6386 0.22961 0.0
C978 C 0.99042 0.65857 0.20448 0.0
H979 H 0.02434 0.61044 0.25659 0.0
H980 H 0.97164 0.63307 0.24369 0.0
C981 C 0.01874 0.66495 0.18671 0.0
C982 C 0.4975 0.39248 0.73744 0.0
C983 C 0.46856 0.38214 0.72282 0.0
H984 H 0.54976 0.38817 0.74254 0.0
C985 C 0.47093 0.3587 0.70149 0.0
H986 H 0.49662 0.4107 0.75375 0.0
C987 C 0.50132 0.3457 0.69522 0.0
C988 C 0.53024 0.35596 0.70988 0.0
H989 H 0.44918 0.34996 0.6901 0.0
H990 H 0.50207 0.32757 0.67876 0.0
C991 C 0.528 0.37964 0.73094 0.0
C992 C 0.82255 0.58221 0.91234 0.0
C993 C 0.8175 0.59597 0.88304 0.0
H994 H 0.82825 0.54191 0.93749 0.0
C995 C 0.8153 0.5783 0.85585 0.0
H996 H 0.82424 0.59497 0.9338 0.0
C997 C 0.81723 0.54775 0.85799 0.0
C998 C 0.82142 0.53394 0.88739 0.0
H999 H 0.81198 0.58804 0.83279 0.0
H1000 H 0.81462 0.53498 0.83662 0.0
C1001 C 0.82447 0.55164 0.91448 0.0
C1002 C 0.32649 0.94717 0.10802 0.0
C1003 C 0.30631 0.93523 0.13164 0.0
H1004 H 0.34946 0.9856 0.08917 0.0
C1005 C 0.29449 0.95388 0.15548 0.0
H1006 H 0.33588 0.93349 0.08926 0.0
C1007 C 0.30216 0.9838 0.15539 0.0
C1008 C 0.32167 0.99588 0.13134 0.0
H1009 H 0.27927 0.94537 0.1743 0.0
H1010 H 0.29214 0.99758 0.17376 0.0
C1011 C 0.33398 0.97713 0.10781 0.0
C1012 C 0.20825 0.03854 0.67663 0.0
C1013 C 0.20313 0.02364 0.648 0.0
H1014 H 0.21489 0.07978 0.69976 0.0
C1015 C 0.19967 0.04028 0.62018 0.0
H1016 H 0.21116 0.02656 0.69849 0.0
C1017 C 0.20218 0.07087 0.62082 0.0
C1018 C 0.20824 0.08573 0.64931 0.0
H1019 H 0.19516 0.02967 0.59775 0.0
H1020 H 0.20018 0.08276 0.59881 0.0
C1021 C 0.2108 0.06915 0.67727 0.0
C1022 C 0.70824 0.44398 0.41915 0.0
C1023 C 0.72713 0.43159 0.3949 0.0
H1024 H 0.68654 0.48271 0.43825 0.0
C1025 C 0.738 0.44988 0.37022 0.0
H1026 H 0.69959 0.43066 0.43858 0.0
C1027 C 0.73065 0.47984 0.37009 0.0
C1028 C 0.7124 0.49235 0.39474 0.0
H1029 H 0.7522 0.44106 0.3509 0.0
H1030 H 0.73993 0.49331 0.35104 0.0
C1031 C 0.70105 0.47396 0.41911 0.0
loop_
_geom_bond_atom_site_label_1
_geom_bond_atom_site_label_2
_geom_bond_distance
_geom_bond_site_symmetry_2
_ccdc_geom_bond_type
Cu0 N1 1.999 . S
Cu0 O6 1.974 . S
Cu0 N11 1.985 . S
Cu0 O20 1.959 . S
N1 Cu0 1.999 . S
N1 C3 1.263 . S
N1 C5 1.389 . S
N2 C3 1.358 . S
N2 C4 1.400 . S
C3 N1 1.263 . S
C3 N2 1.358 . S
C3 H9 0.930 . S
C4 N2 1.400 . S
C4 C5 1.351 . S
C4 H21 0.930 . S
C5 N1 1.389 . S
C5 C4 1.351 . S
C5 H10 0.930 . S
O6 Cu0 1.974 . S
O6 C16 1.282 . S
C7 O8 1.261 . S
C7 O20 1.251 . S
O8 C7 1.261 . S
H9 C3 0.930 . S
H10 C5 0.930 . S
N11 Cu0 1.985 . S
N11 C13 1.335 . S
N11 C14 1.390 . S
N12 C13 1.345 . S
N12 C15 1.336 . S
C13 N11 1.335 . S
C13 N12 1.345 . S
C13 H18 0.930 . S
C14 N11 1.390 . S
C14 C15 1.346 . S
C14 H19 0.930 . S
C15 N12 1.336 . S
C15 C14 1.346 . S
C15 H22 0.929 . S
C16 O6 1.282 . S
C16 O17 1.216 . S
O17 C16 1.216 . S
H18 C13 0.930 . S
H19 C14 0.930 . S
O20 Cu0 1.959 . S
O20 C7 1.251 . S
H21 C4 0.930 . S
H22 C15 0.929 . S
Cu23 N24 1.999 . S
Cu23 O29 1.974 . S
Cu23 N34 1.985 . S
Cu23 O43 1.959 . S
N24 Cu23 1.999 . S
N24 C26 1.263 . S
N24 C28 1.389 . S
N25 C26 1.358 . S
N25 C27 1.400 . S
C26 N24 1.263 . S
C26 N25 1.358 . S
C26 H32 0.930 . S
C27 N25 1.400 . S
C27 C28 1.351 . S
C27 H44 0.930 . S
C28 N24 1.389 . S
C28 C27 1.351 . S
C28 H33 0.930 . S
O29 Cu23 1.974 . S
O29 C39 1.282 . S
C30 O31 1.261 . S
C30 O43 1.251 . S
O31 C30 1.261 . S
H32 C26 0.930 . S
H33 C28 0.930 . S
N34 Cu23 1.985 . S
N34 C36 1.335 . S
N34 C37 1.390 . S
N35 C36 1.345 . S
N35 C38 1.336 . S
C36 N34 1.335 . S
C36 N35 1.345 . S
C36 H41 0.930 . S
C37 N34 1.390 . S
C37 C38 1.346 . S
C37 H42 0.930 . S
C38 N35 1.336 . S
C38 C37 1.346 . S
C38 H45 0.929 . S
C39 O29 1.282 . S
C39 O40 1.216 . S
O40 C39 1.216 . S
H41 C36 0.930 . S
H42 C37 0.930 . S
O43 Cu23 1.959 . S
O43 C30 1.251 . S
H44 C27 0.930 . S
H45 C38 0.929 . S
Cu46 N47 1.999 . S
Cu46 O52 1.974 . S
Cu46 N57 1.985 . S
Cu46 O66 1.959 . S
N47 Cu46 1.999 . S
N47 C49 1.263 . S
N47 C51 1.389 . S
N48 C49 1.358 . S
N48 C50 1.400 . S
C49 N47 1.263 . S
C49 N48 1.358 . S
C49 H55 0.930 . S
C50 N48 1.400 . S
C50 C51 1.351 . S
C50 H67 0.930 . S
C51 N47 1.389 . S
C51 C50 1.351 . S
C51 H56 0.930 . S
O52 Cu46 1.974 . S
O52 C62 1.282 . S
C53 O54 1.261 . S
C53 O66 1.251 . S
O54 C53 1.261 . S
H55 C49 0.930 . S
H56 C51 0.930 . S
N57 Cu46 1.985 . S
N57 C59 1.335 . S
N57 C60 1.390 . S
N58 C59 1.345 . S
N58 C61 1.336 . S
C59 N57 1.335 . S
C59 N58 1.345 . S
C59 H64 0.930 . S
C60 N57 1.390 . S
C60 C61 1.346 . S
C60 H65 0.930 . S
C61 N58 1.336 . S
C61 C60 1.346 . S
C61 H68 0.929 . S
C62 O52 1.282 . S
C62 O63 1.216 . S
O63 C62 1.216 . S
H64 C59 0.930 . S
H65 C60 0.930 . S
O66 Cu46 1.959 . S
O66 C53 1.251 . S
H67 C50 0.930 . S
H68 C61 0.929 . S
Cu69 N70 1.999 . S
Cu69 O75 1.974 . S
Cu69 N80 1.985 . S
Cu69 O89 1.959 . S
N70 Cu69 1.999 . S
N70 C72 1.263 . S
N70 C74 1.389 . S
N71 C72 1.358 . S
N71 C73 1.400 . S
C72 N70 1.263 . S
C72 N71 1.358 . S
C72 H78 0.930 . S
C73 N71 1.400 . S
C73 C74 1.351 . S
C73 H90 0.930 . S
C74 N70 1.389 . S
C74 C73 1.351 . S
C74 H79 0.930 . S
O75 Cu69 1.974 . S
O75 C85 1.282 . S
C76 O77 1.261 . S
C76 O89 1.251 . S
O77 C76 1.261 . S
H78 C72 0.930 . S
H79 C74 0.930 . S
N80 Cu69 1.985 . S
N80 C82 1.335 . S
N80 C83 1.390 . S
N81 C82 1.345 . S
N81 C84 1.336 . S
C82 N80 1.335 . S
C82 N81 1.345 . S
C82 H87 0.930 . S
C83 N80 1.390 . S
C83 C84 1.346 . S
C83 H88 0.930 . S
C84 N81 1.336 . S
C84 C83 1.346 . S
C84 H91 0.929 . S
C85 O75 1.282 . S
C85 O86 1.216 . S
O86 C85 1.216 . S
H87 C82 0.930 . S
H88 C83 0.930 . S
O89 Cu69 1.959 . S
O89 C76 1.251 . S
H90 C73 0.930 . S
H91 C84 0.929 . S
Cu92 N93 1.999 . S
Cu92 O98 1.974 . S
Cu92 N103 1.985 . S
Cu92 O112 1.959 . S
N93 Cu92 1.999 . S
N93 C95 1.263 . S
N93 C97 1.389 . S
N94 C95 1.358 . S
N94 C96 1.400 . S
C95 N93 1.263 . S
C95 N94 1.358 . S
C95 H101 0.930 . S
C96 N94 1.400 . S
C96 C97 1.351 . S
C96 H113 0.930 1_545 S
C97 N93 1.389 . S
C97 C96 1.351 . S
C97 H102 0.930 . S
O98 Cu92 1.974 . S
O98 C108 1.282 . S
C99 O100 1.261 . S
C99 O112 1.251 . S
O100 C99 1.261 . S
H101 C95 0.930 . S
H102 C97 0.930 . S
N103 Cu92 1.985 . S
N103 C105 1.335 . S
N103 C106 1.390 . S
N104 C105 1.345 . S
N104 C107 1.336 . S
C105 N103 1.335 . S
C105 N104 1.345 . S
C105 H110 0.930 . S
C106 N103 1.390 . S
C106 C107 1.346 . S
C106 H111 0.930 . S
C107 N104 1.336 . S
C107 C106 1.346 . S
C107 H114 0.929 . S
C108 O98 1.282 . S
C108 O109 1.216 . S
O109 C108 1.216 . S
H110 C105 0.930 . S
H111 C106 0.930 . S
O112 Cu92 1.959 . S
O112 C99 1.251 . S
H113 C96 0.930 1_565 S
H114 C107 0.929 . S
Cu115 N116 1.999 . S
Cu115 O121 1.974 . S
Cu115 N126 1.985 . S
Cu115 O135 1.959 . S
N116 Cu115 1.999 . S
N116 C118 1.263 . S
N116 C120 1.389 . S
N117 C118 1.358 . S
N117 C119 1.400 . S
C118 N116 1.263 . S
C118 N117 1.358 . S
C118 H124 0.930 . S
C119 N117 1.400 . S
C119 C120 1.351 . S
C119 H136 0.930 1_565 S
C120 N116 1.389 . S
C120 C119 1.351 . S
C120 H125 0.930 . S
O121 Cu115 1.974 . S
O121 C131 1.282 . S
C122 O123 1.261 . S
C122 O135 1.251 . S
O123 C122 1.261 . S
H124 C118 0.930 . S
H125 C120 0.930 . S
N126 Cu115 1.985 . S
N126 C128 1.335 . S
N126 C129 1.390 . S
N127 C128 1.345 . S
N127 C130 1.336 . S
C128 N126 1.335 . S
C128 N127 1.345 . S
C128 H133 0.930 . S
C129 N126 1.390 . S
C129 C130 1.346 . S
C129 H134 0.930 . S
C130 N127 1.336 . S
C130 C129 1.346 . S
C130 H137 0.929 . S
C131 O121 1.282 . S
C131 O132 1.216 . S
O132 C131 1.216 . S
H133 C128 0.930 . S
H134 C129 0.930 . S
O135 Cu115 1.959 . S
O135 C122 1.251 . S
H136 C119 0.930 1_545 S
H137 C130 0.929 . S
Cu138 N139 1.999 . S
Cu138 O144 1.974 . S
Cu138 N149 1.985 . S
Cu138 O158 1.959 . S
N139 Cu138 1.999 . S
N139 C141 1.263 . S
N139 C143 1.389 . S
N140 C141 1.358 . S
N140 C142 1.400 . S
C141 N139 1.263 . S
C141 N140 1.358 . S
C141 H147 0.930 . S
C142 N140 1.400 . S
C142 C143 1.351 . S
C142 H159 0.930 . S
C143 N139 1.389 . S
C143 C142 1.351 . S
C143 H148 0.930 . S
O144 Cu138 1.974 . S
O144 C154 1.282 . S
C145 O146 1.261 . S
C145 O158 1.251 . S
O146 C145 1.261 . S
H147 C141 0.930 . S
H148 C143 0.930 . S
N149 Cu138 1.985 . S
N149 C151 1.335 . S
N149 C152 1.390 . S
N150 C151 1.345 . S
N150 C153 1.336 . S
C151 N149 1.335 . S
C151 N150 1.345 . S
C151 H156 0.930 . S
C152 N149 1.390 . S
C152 C153 1.346 . S
C152 H157 0.930 . S
C153 N150 1.336 . S
C153 C152 1.346 . S
C153 H160 0.929 . S
C154 O144 1.282 . S
C154 O155 1.216 . S
O155 C154 1.216 . S
H156 C151 0.930 . S
H157 C152 0.930 . S
O158 Cu138 1.959 . S
O158 C145 1.251 . S
H159 C142 0.930 . S
H160 C153 0.929 . S
Cu161 N162 1.999 . S
Cu161 O167 1.974 . S
Cu161 N172 1.985 . S
Cu161 O181 1.959 . S
N162 Cu161 1.999 . S
N162 C164 1.263 . S
N162 C166 1.389 . S
N163 C164 1.358 . S
N163 C165 1.400 . S
C164 N162 1.263 . S
C164 N163 1.358 . S
C164 H170 0.930 . S
C165 N163 1.400 . S
C165 C166 1.351 . S
C165 H182 0.930 . S
C166 N162 1.389 . S
C166 C165 1.351 . S
C166 H171 0.930 . S
O167 Cu161 1.974 . S
O167 C177 1.282 . S
C168 O169 1.261 . S
C168 O181 1.251 . S
O169 C168 1.261 . S
H170 C164 0.930 . S
H171 C166 0.930 . S
N172 Cu161 1.985 . S
N172 C174 1.335 . S
N172 C175 1.390 . S
N173 C174 1.345 . S
N173 C176 1.336 . S
C174 N172 1.335 . S
C174 N173 1.345 . S
C174 H179 0.930 . S
C175 N172 1.390 . S
C175 C176 1.346 . S
C175 H180 0.930 . S
C176 N173 1.336 . S
C176 C175 1.346 . S
C176 H183 0.929 . S
C177 O167 1.282 . S
C177 O178 1.216 . S
O178 C177 1.216 . S
H179 C174 0.930 . S
H180 C175 0.930 . S
O181 Cu161 1.959 . S
O181 C168 1.251 . S
H182 C165 0.930 . S
H183 C176 0.929 . S
Cu184 N185 1.999 . S
Cu184 O190 1.974 . S
Cu184 N195 1.985 . S
Cu184 O204 1.959 . S
N185 Cu184 1.999 . S
N185 C187 1.263 . S
N185 C189 1.389 . S
N186 C187 1.358 . S
N186 C188 1.400 . S
C187 N185 1.263 . S
C187 N186 1.358 . S
C187 H193 0.930 . S
C188 N186 1.400 . S
C188 C189 1.351 . S
C188 H205 0.930 . S
C189 N185 1.389 . S
C189 C188 1.351 . S
C189 H194 0.930 . S
O190 Cu184 1.974 . S
O190 C200 1.282 . S
C191 O192 1.261 . S
C191 O204 1.251 . S
O192 C191 1.261 . S
H193 C187 0.930 . S
H194 C189 0.930 . S
N195 Cu184 1.985 . S
N195 C197 1.335 . S
N195 C198 1.390 . S
N196 C197 1.345 . S
N196 C199 1.336 . S
C197 N195 1.335 . S
C197 N196 1.345 . S
C197 H202 0.930 . S
C198 N195 1.390 . S
C198 C199 1.346 . S
C198 H203 0.930 . S
C199 N196 1.336 . S
C199 C198 1.346 . S
C199 H206 0.929 . S
C200 O190 1.282 . S
C200 O201 1.216 . S
O201 C200 1.216 . S
H202 C197 0.930 . S
H203 C198 0.930 . S
O204 Cu184 1.959 . S
O204 C191 1.251 . S
H205 C188 0.930 . S
H206 C199 0.929 . S
Cu207 N208 1.999 . S
Cu207 O213 1.974 . S
Cu207 N218 1.985 . S
Cu207 O227 1.959 . S
N208 Cu207 1.999 . S
N208 C210 1.263 . S
N208 C212 1.389 . S
N209 C210 1.358 . S
N209 C211 1.400 . S
C210 N208 1.263 . S
C210 N209 1.358 . S
C210 H216 0.930 . S
C211 N209 1.400 . S
C211 C212 1.351 . S
C211 H228 0.930 . S
C212 N208 1.389 . S
C212 C211 1.351 . S
C212 H217 0.930 . S
O213 Cu207 1.974 . S
O213 C223 1.282 . S
C214 O215 1.261 . S
C214 O227 1.251 . S
O215 C214 1.261 . S
H216 C210 0.930 . S
H217 C212 0.930 . S
N218 Cu207 1.985 . S
N218 C220 1.335 . S
N218 C221 1.390 . S
N219 C220 1.345 . S
N219 C222 1.336 . S
C220 N218 1.335 . S
C220 N219 1.345 . S
C220 H225 0.930 . S
C221 N218 1.390 . S
C221 C222 1.346 . S
C221 H226 0.930 . S
C222 N219 1.336 . S
C222 C221 1.346 . S
C222 H229 0.929 . S
C223 O213 1.282 . S
C223 O224 1.216 . S
O224 C223 1.216 . S
H225 C220 0.930 . S
H226 C221 0.930 . S
O227 Cu207 1.959 . S
O227 C214 1.251 . S
H228 C211 0.930 . S
H229 C222 0.929 . S
Cu230 N231 1.999 . S
Cu230 O236 1.974 . S
Cu230 N241 1.985 . S
Cu230 O250 1.959 . S
N231 Cu230 1.999 . S
N231 C233 1.263 . S
N231 C235 1.389 . S
N232 C233 1.358 . S
N232 C234 1.400 . S
C233 N231 1.263 . S
C233 N232 1.358 . S
C233 H239 0.930 . S
C234 N232 1.400 . S
C234 C235 1.351 . S
C234 H251 0.930 . S
C235 N231 1.389 . S
C235 C234 1.351 . S
C235 H240 0.930 . S
O236 Cu230 1.974 . S
O236 C246 1.282 . S
C237 O238 1.261 . S
C237 O250 1.251 . S
O238 C237 1.261 . S
H239 C233 0.930 . S
H240 C235 0.930 . S
N241 Cu230 1.985 . S
N241 C243 1.335 . S
N241 C244 1.390 . S
N242 C243 1.345 . S
N242 C245 1.336 . S
C243 N241 1.335 . S
C243 N242 1.345 . S
C243 H248 0.930 . S
C244 N241 1.390 . S
C244 C245 1.346 . S
C244 H249 0.930 . S
C245 N242 1.336 . S
C245 C244 1.346 . S
C245 H252 0.929 . S
C246 O236 1.282 . S
C246 O247 1.216 . S
O247 C246 1.216 . S
H248 C243 0.930 . S
H249 C244 0.930 . S
O250 Cu230 1.959 . S
O250 C237 1.251 . S
H251 C234 0.930 . S
H252 C245 0.929 . S
Cu253 N254 1.999 . S
Cu253 O259 1.974 . S
Cu253 N264 1.985 . S
Cu253 O273 1.959 . S
N254 Cu253 1.999 . S
N254 C256 1.263 . S
N254 C258 1.389 . S
N255 C256 1.358 . S
N255 C257 1.400 . S
C256 N254 1.263 . S
C256 N255 1.358 . S
C256 H262 0.930 . S
C257 N255 1.400 . S
C257 C258 1.351 . S
C257 H274 0.930 . S
C258 N254 1.389 . S
C258 C257 1.351 . S
C258 H263 0.930 . S
O259 Cu253 1.974 . S
O259 C269 1.282 . S
C260 O261 1.261 . S
C260 O273 1.251 . S
O261 C260 1.261 . S
H262 C256 0.930 . S
H263 C258 0.930 . S
N264 Cu253 1.985 . S
N264 C266 1.335 . S
N264 C267 1.390 . S
N265 C266 1.345 . S
N265 C268 1.336 . S
C266 N264 1.335 . S
C266 N265 1.345 . S
C266 H271 0.930 . S
C267 N264 1.390 . S
C267 C268 1.346 . S
C267 H272 0.930 . S
C268 N265 1.336 . S
C268 C267 1.346 . S
C268 H275 0.929 . S
C269 O259 1.282 . S
C269 O270 1.216 . S
O270 C269 1.216 . S
H271 C266 0.930 . S
H272 C267 0.930 . S
O273 Cu253 1.959 . S
O273 C260 1.251 . S
H274 C257 0.930 . S
H275 C268 0.929 . S
Cu276 N277 1.999 . S
Cu276 O282 1.974 . S
Cu276 N287 1.985 . S
Cu276 O296 1.959 . S
N277 Cu276 1.999 . S
N277 C279 1.263 . S
N277 C281 1.389 . S
N278 C279 1.358 . S
N278 C280 1.400 . S
C279 N277 1.263 . S
C279 N278 1.358 . S
C279 H285 0.930 . S
C280 N278 1.400 . S
C280 C281 1.351 . S
C280 H297 0.930 . S
C281 N277 1.389 . S
C281 C280 1.351 . S
C281 H286 0.930 . S
O282 Cu276 1.974 . S
O282 C292 1.282 . S
C283 O284 1.261 . S
C283 O296 1.251 . S
O284 C283 1.261 . S
H285 C279 0.930 . S
H286 C281 0.930 . S
N287 Cu276 1.985 . S
N287 C289 1.335 . S
N287 C290 1.390 . S
N288 C289 1.345 . S
N288 C291 1.336 . S
C289 N287 1.335 . S
C289 N288 1.345 . S
C289 H294 0.930 . S
C290 N287 1.390 . S
C290 C291 1.346 . S
C290 H295 0.930 . S
C291 N288 1.336 . S
C291 C290 1.346 . S
C291 H298 0.929 . S
C292 O282 1.282 . S
C292 O293 1.216 . S
O293 C292 1.216 . S
H294 C289 0.930 . S
H295 C290 0.930 . S
O296 Cu276 1.959 . S
O296 C283 1.251 . S
H297 C280 0.930 . S
H298 C291 0.929 . S
Cu299 N300 1.999 . S
Cu299 O305 1.974 . S
Cu299 N310 1.985 . S
Cu299 O319 1.959 . S
N300 Cu299 1.999 . S
N300 C302 1.263 . S
N300 C304 1.389 . S
N301 C302 1.358 . S
N301 C303 1.400 . S
C302 N300 1.263 . S
C302 N301 1.358 . S
C302 H308 0.930 . S
C303 N301 1.400 . S
C303 C304 1.351 . S
C303 H320 0.930 . S
C304 N300 1.389 . S
C304 C303 1.351 . S
C304 H309 0.930 . S
O305 Cu299 1.974 . S
O305 C315 1.282 . S
C306 O307 1.261 . S
C306 O319 1.251 . S
O307 C306 1.261 . S
H308 C302 0.930 . S
H309 C304 0.930 . S
N310 Cu299 1.985 . S
N310 C312 1.335 . S
N310 C313 1.390 . S
N311 C312 1.345 . S
N311 C314 1.336 . S
C312 N310 1.335 . S
C312 N311 1.345 . S
C312 H317 0.930 . S
C313 N310 1.390 . S
C313 C314 1.346 . S
C313 H318 0.930 . S
C314 N311 1.336 . S
C314 C313 1.346 . S
C314 H321 0.929 . S
C315 O305 1.282 . S
C315 O316 1.216 . S
O316 C315 1.216 . S
H317 C312 0.930 . S
H318 C313 0.930 . S
O319 Cu299 1.959 . S
O319 C306 1.251 . S
H320 C303 0.930 . S
H321 C314 0.929 . S
Cu322 N323 1.999 . S
Cu322 O328 1.974 . S
Cu322 N333 1.985 . S
Cu322 O342 1.959 . S
N323 Cu322 1.999 . S
N323 C325 1.263 . S
N323 C327 1.389 . S
N324 C325 1.358 . S
N324 C326 1.400 . S
C325 N323 1.263 . S
C325 N324 1.358 . S
C325 H331 0.930 . S
C326 N324 1.400 . S
C326 C327 1.351 . S
C326 H343 0.930 . S
C327 N323 1.389 . S
C327 C326 1.351 . S
C327 H332 0.930 . S
O328 Cu322 1.974 . S
O328 C338 1.282 . S
C329 O330 1.261 . S
C329 O342 1.251 . S
O330 C329 1.261 . S
H331 C325 0.930 . S
H332 C327 0.930 . S
N333 Cu322 1.985 . S
N333 C335 1.335 . S
N333 C336 1.390 . S
N334 C335 1.345 . S
N334 C337 1.336 . S
C335 N333 1.335 . S
C335 N334 1.345 . S
C335 H340 0.930 . S
C336 N333 1.390 . S
C336 C337 1.346 . S
C336 H341 0.930 . S
C337 N334 1.336 . S
C337 C336 1.346 . S
C337 H344 0.929 . S
C338 O328 1.282 . S
C338 O339 1.216 . S
O339 C338 1.216 . S
H340 C335 0.930 . S
H341 C336 0.930 . S
O342 Cu322 1.959 . S
O342 C329 1.251 . S
H343 C326 0.930 . S
H344 C337 0.929 . S
Cu345 N346 1.999 . S
Cu345 O351 1.974 . S
Cu345 N356 1.985 . S
Cu345 O365 1.959 . S
N346 Cu345 1.999 . S
N346 C348 1.263 . S
N346 C350 1.389 . S
N347 C348 1.358 . S
N347 C349 1.400 . S
C348 N346 1.263 . S
C348 N347 1.358 . S
C348 H354 0.930 . S
C349 N347 1.400 . S
C349 C350 1.351 . S
C349 H366 0.930 . S
C350 N346 1.389 . S
C350 C349 1.351 . S
C350 H355 0.930 . S
O351 Cu345 1.974 . S
O351 C361 1.282 . S
C352 O353 1.261 . S
C352 O365 1.251 . S
O353 C352 1.261 . S
H354 C348 0.930 . S
H355 C350 0.930 . S
N356 Cu345 1.985 . S
N356 C358 1.335 . S
N356 C359 1.390 . S
N357 C358 1.345 . S
N357 C360 1.336 . S
C358 N356 1.335 . S
C358 N357 1.345 . S
C358 H363 0.930 . S
C359 N356 1.390 . S
C359 C360 1.346 . S
C359 H364 0.930 . S
C360 N357 1.336 . S
C360 C359 1.346 . S
C360 H367 0.929 . S
C361 O351 1.282 . S
C361 O362 1.216 . S
O362 C361 1.216 . S
H363 C358 0.930 . S
H364 C359 0.930 . S
O365 Cu345 1.959 . S
O365 C352 1.251 . S
H366 C349 0.930 . S
H367 C360 0.929 . S
Cu368 N369 1.999 . S
Cu368 O374 1.974 . S
Cu368 N379 1.985 . S
Cu368 O388 1.959 . S
N369 Cu368 1.999 . S
N369 C371 1.263 . S
N369 C373 1.389 . S
N370 C371 1.358 . S
N370 C372 1.400 . S
C371 N369 1.263 . S
C371 N370 1.358 . S
C371 H377 0.930 . S
C372 N370 1.400 . S
C372 C373 1.351 . S
C372 H389 0.930 . S
C373 N369 1.389 . S
C373 C372 1.351 . S
C373 H378 0.930 . S
O374 Cu368 1.974 . S
O374 C384 1.282 . S
C375 O376 1.261 . S
C375 O388 1.251 . S
O376 C375 1.261 . S
H377 C371 0.930 . S
H378 C373 0.930 . S
N379 Cu368 1.985 . S
N379 C381 1.335 . S
N379 C382 1.390 . S
N380 C381 1.345 . S
N380 C383 1.336 . S
C381 N379 1.335 . S
C381 N380 1.345 . S
C381 H386 0.930 . S
C382 N379 1.390 . S
C382 C383 1.346 . S
C382 H387 0.930 . S
C383 N380 1.336 . S
C383 C382 1.346 . S
C383 H390 0.929 . S
C384 O374 1.282 . S
C384 O385 1.216 . S
O385 C384 1.216 . S
H386 C381 0.930 . S
H387 C382 0.930 . S
O388 Cu368 1.959 . S
O388 C375 1.251 . S
H389 C372 0.930 . S
H390 C383 0.929 . S
Cu391 N392 1.999 . S
Cu391 O397 1.974 . S
Cu391 N402 1.985 . S
Cu391 O411 1.959 . S
N392 Cu391 1.999 . S
N392 C394 1.263 . S
N392 C396 1.389 . S
N393 C394 1.358 . S
N393 C395 1.400 . S
C394 N392 1.263 . S
C394 N393 1.358 . S
C394 H400 0.930 . S
C395 N393 1.400 . S
C395 C396 1.351 . S
C395 H412 0.930 . S
C396 N392 1.389 . S
C396 C395 1.351 . S
C396 H401 0.930 . S
O397 Cu391 1.974 . S
O397 C407 1.282 . S
C398 O399 1.261 . S
C398 O411 1.251 . S
O399 C398 1.261 . S
H400 C394 0.930 . S
H401 C396 0.930 . S
N402 Cu391 1.985 . S
N402 C404 1.335 . S
N402 C405 1.390 . S
N403 C404 1.345 . S
N403 C406 1.336 . S
C404 N402 1.335 . S
C404 N403 1.345 . S
C404 H409 0.930 . S
C405 N402 1.390 . S
C405 C406 1.346 . S
C405 H410 0.930 . S
C406 N403 1.336 . S
C406 C405 1.346 . S
C406 H413 0.929 . S
C407 O397 1.282 . S
C407 O408 1.216 . S
O408 C407 1.216 . S
H409 C404 0.930 . S
H410 C405 0.930 . S
O411 Cu391 1.959 . S
O411 C398 1.251 . S
H412 C395 0.930 . S
H413 C406 0.929 . S
Cu414 N415 1.999 . S
Cu414 O420 1.974 . S
Cu414 N425 1.985 . S
Cu414 O434 1.959 . S
N415 Cu414 1.999 . S
N415 C417 1.263 . S
N415 C419 1.389 . S
N416 C417 1.358 . S
N416 C418 1.400 . S
C417 N415 1.263 . S
C417 N416 1.358 . S
C417 H423 0.930 . S
C418 N416 1.400 . S
C418 C419 1.351 . S
C418 H435 0.930 . S
C419 N415 1.389 . S
C419 C418 1.351 . S
C419 H424 0.930 . S
O420 Cu414 1.974 . S
O420 C430 1.282 . S
C421 O422 1.261 . S
C421 O434 1.251 . S
O422 C421 1.261 . S
H423 C417 0.930 . S
H424 C419 0.930 . S
N425 Cu414 1.985 . S
N425 C427 1.335 . S
N425 C428 1.390 . S
N426 C427 1.345 . S
N426 C429 1.336 . S
C427 N425 1.335 . S
C427 N426 1.345 . S
C427 H432 0.930 . S
C428 N425 1.390 . S
C428 C429 1.346 . S
C428 H433 0.930 . S
C429 N426 1.336 . S
C429 C428 1.346 . S
C429 H436 0.929 . S
C430 O420 1.282 . S
C430 O431 1.216 . S
O431 C430 1.216 . S
H432 C427 0.930 . S
H433 C428 0.930 . S
O434 Cu414 1.959 . S
O434 C421 1.251 . S
H435 C418 0.930 . S
H436 C429 0.929 . S
Cu437 N438 1.999 . S
Cu437 O443 1.974 . S
Cu437 N448 1.985 . S
Cu437 O457 1.959 . S
N438 Cu437 1.999 . S
N438 C440 1.263 . S
N438 C442 1.389 . S
N439 C440 1.358 . S
N439 C441 1.400 . S
C440 N438 1.263 . S
C440 N439 1.358 . S
C440 H446 0.930 . S
C441 N439 1.400 . S
C441 C442 1.351 . S
C441 H458 0.930 . S
C442 N438 1.389 . S
C442 C441 1.351 . S
C442 H447 0.930 . S
O443 Cu437 1.974 . S
O443 C453 1.282 . S
C444 O445 1.261 . S
C444 O457 1.251 . S
O445 C444 1.261 . S
H446 C440 0.930 . S
H447 C442 0.930 . S
N448 Cu437 1.985 . S
N448 C450 1.335 . S
N448 C451 1.390 . S
N449 C450 1.345 . S
N449 C452 1.336 . S
C450 N448 1.335 . S
C450 N449 1.345 . S
C450 H455 0.930 . S
C451 N448 1.390 . S
C451 C452 1.346 . S
C451 H456 0.930 . S
C452 N449 1.336 . S
C452 C451 1.346 . S
C452 H459 0.929 . S
C453 O443 1.282 . S
C453 O454 1.216 . S
O454 C453 1.216 . S
H455 C450 0.930 . S
H456 C451 0.930 . S
O457 Cu437 1.959 . S
O457 C444 1.251 . S
H458 C441 0.930 . S
H459 C452 0.929 . S
Cu460 N461 1.999 . S
Cu460 O466 1.974 . S
Cu460 N471 1.985 . S
Cu460 O480 1.959 . S
N461 Cu460 1.999 . S
N461 C463 1.263 . S
N461 C465 1.389 . S
N462 C463 1.358 . S
N462 C464 1.400 . S
C463 N461 1.263 . S
C463 N462 1.358 . S
C463 H469 0.930 . S
C464 N462 1.400 . S
C464 C465 1.351 . S
C464 H481 0.930 . S
C465 N461 1.389 . S
C465 C464 1.351 . S
C465 H470 0.930 . S
O466 Cu460 1.974 . S
O466 C476 1.282 . S
C467 O468 1.261 . S
C467 O480 1.251 . S
O468 C467 1.261 . S
H469 C463 0.930 . S
H470 C465 0.930 . S
N471 Cu460 1.985 . S
N471 C473 1.335 . S
N471 C474 1.390 . S
N472 C473 1.345 . S
N472 C475 1.336 . S
C473 N471 1.335 . S
C473 N472 1.345 . S
C473 H478 0.930 . S
C474 N471 1.390 . S
C474 C475 1.346 . S
C474 H479 0.930 . S
C475 N472 1.336 . S
C475 C474 1.346 . S
C475 H482 0.929 . S
C476 O466 1.282 . S
C476 O477 1.216 . S
O477 C476 1.216 . S
H478 C473 0.930 . S
H479 C474 0.930 . S
O480 Cu460 1.959 . S
O480 C467 1.251 . S
H481 C464 0.930 . S
H482 C475 0.929 . S
Cu483 N484 1.999 . S
Cu483 O489 1.974 . S
Cu483 N494 1.985 . S
Cu483 O503 1.959 . S
N484 Cu483 1.999 . S
N484 C486 1.263 . S
N484 C488 1.389 . S
N485 C486 1.358 . S
N485 C487 1.400 . S
C486 N484 1.263 . S
C486 N485 1.358 . S
C486 H492 0.930 . S
C487 N485 1.400 . S
C487 C488 1.351 . S
C487 H504 0.930 . S
C488 N484 1.389 . S
C488 C487 1.351 . S
C488 H493 0.930 . S
O489 Cu483 1.974 . S
O489 C499 1.282 . S
C490 O491 1.261 . S
C490 O503 1.251 . S
O491 C490 1.261 . S
H492 C486 0.930 . S
H493 C488 0.930 . S
N494 Cu483 1.985 . S
N494 C496 1.335 . S
N494 C497 1.390 . S
N495 C496 1.345 . S
N495 C498 1.336 . S
C496 N494 1.335 . S
C496 N495 1.345 . S
C496 H501 0.930 . S
C497 N494 1.390 . S
C497 C498 1.346 . S
C497 H502 0.930 . S
C498 N495 1.336 . S
C498 C497 1.346 . S
C498 H505 0.929 . S
C499 O489 1.282 . S
C499 O500 1.216 . S
O500 C499 1.216 . S
H501 C496 0.930 . S
H502 C497 0.930 . S
O503 Cu483 1.959 . S
O503 C490 1.251 . S
H504 C487 0.930 . S
H505 C498 0.929 . S
Cu506 N507 1.999 . S
Cu506 O512 1.974 . S
Cu506 N517 1.985 . S
Cu506 O526 1.959 . S
N507 Cu506 1.999 . S
N507 C509 1.263 . S
N507 C511 1.389 . S
N508 C509 1.358 . S
N508 C510 1.400 . S
C509 N507 1.263 . S
C509 N508 1.358 . S
C509 H515 0.930 . S
C510 N508 1.400 . S
C510 C511 1.351 . S
C510 H527 0.930 . S
C511 N507 1.389 . S
C511 C510 1.351 . S
C511 H516 0.930 . S
O512 Cu506 1.974 . S
O512 C522 1.282 . S
C513 O514 1.261 . S
C513 O526 1.251 . S
O514 C513 1.261 . S
H515 C509 0.930 . S
H516 C511 0.930 . S
N517 Cu506 1.985 . S
N517 C519 1.335 . S
N517 C520 1.390 . S
N518 C519 1.345 . S
N518 C521 1.336 . S
C519 N517 1.335 . S
C519 N518 1.345 . S
C519 H524 0.930 . S
C520 N517 1.390 . S
C520 C521 1.346 . S
C520 H525 0.930 . S
C521 N518 1.336 . S
C521 C520 1.346 . S
C521 H528 0.929 . S
C522 O512 1.282 . S
C522 O523 1.216 . S
O523 C522 1.216 . S
H524 C519 0.930 . S
H525 C520 0.930 . S
O526 Cu506 1.959 . S
O526 C513 1.251 . S
H527 C510 0.930 . S
H528 C521 0.929 . S
Cu529 N530 1.999 . S
Cu529 O535 1.974 . S
Cu529 N540 1.985 . S
Cu529 O549 1.959 . S
N530 Cu529 1.999 . S
N530 C532 1.263 . S
N530 C534 1.389 . S
N531 C532 1.358 . S
N531 C533 1.400 . S
C532 N530 1.263 . S
C532 N531 1.358 . S
C532 H538 0.930 . S
C533 N531 1.400 . S
C533 C534 1.351 . S
C533 H550 0.930 . S
C534 N530 1.389 . S
C534 C533 1.351 . S
C534 H539 0.930 . S
O535 Cu529 1.974 . S
O535 C545 1.282 . S
C536 O537 1.261 . S
C536 O549 1.251 . S
O537 C536 1.261 . S
H538 C532 0.930 . S
H539 C534 0.930 . S
N540 Cu529 1.985 . S
N540 C542 1.335 . S
N540 C543 1.390 . S
N541 C542 1.345 . S
N541 C544 1.336 . S
C542 N540 1.335 . S
C542 N541 1.345 . S
C542 H547 0.930 . S
C543 N540 1.390 . S
C543 C544 1.346 . S
C543 H548 0.930 . S
C544 N541 1.336 . S
C544 C543 1.346 . S
C544 H551 0.929 . S
C545 O535 1.282 . S
C545 O546 1.216 . S
O546 C545 1.216 . S
H547 C542 0.930 . S
H548 C543 0.930 . S
O549 Cu529 1.959 . S
O549 C536 1.251 . S
H550 C533 0.930 . S
H551 C544 0.929 . S
C552 C553 1.387 . S
C552 H556 0.950 . S
C552 C561 1.390 . S
C553 C552 1.387 . S
C553 C555 1.387 . S
H554 C561 0.950 . S
C555 C553 1.387 . S
C555 C557 1.390 . S
C555 H559 0.950 . S
H556 C552 0.950 . S
C557 C555 1.390 . S
C557 C558 1.387 . S
C557 H560 0.950 . S
C558 C557 1.387 . S
C558 C561 1.387 . S
H559 C555 0.950 . S
H560 C557 0.950 . S
C561 C552 1.390 . S
C561 H554 0.950 . S
C561 C558 1.387 . S
C562 C563 1.387 . S
C562 H566 0.950 . S
C562 C571 1.390 . S
C563 C562 1.387 . S
C563 C565 1.387 . S
H564 C571 0.950 . S
C565 C563 1.387 . S
C565 C567 1.390 . S
C565 H569 0.950 . S
H566 C562 0.950 . S
C567 C565 1.390 . S
C567 C568 1.387 . S
C567 H570 0.950 . S
C568 C567 1.387 . S
C568 C571 1.387 . S
H569 C565 0.950 . S
H570 C567 0.950 . S
C571 C562 1.390 . S
C571 H564 0.950 . S
C571 C568 1.387 . S
C572 C573 1.387 . S
C572 H576 0.950 . S
C572 C581 1.390 . S
C573 C572 1.387 . S
C573 C575 1.387 . S
H574 C581 0.950 . S
C575 C573 1.387 . S
C575 C577 1.390 . S
C575 H579 0.950 . S
H576 C572 0.950 . S
C577 C575 1.390 . S
C577 C578 1.387 . S
C577 H580 0.950 . S
C578 C577 1.387 . S
C578 C581 1.387 . S
H579 C575 0.950 . S
H580 C577 0.950 . S
C581 C572 1.390 . S
C581 H574 0.950 . S
C581 C578 1.387 . S
C582 C583 1.387 . S
C582 H586 0.950 . S
C582 C591 1.390 . S
C583 C582 1.387 . S
C583 C585 1.387 . S
H584 C591 0.950 . S
C585 C583 1.387 . S
C585 C587 1.390 . S
C585 H589 0.950 . S
H586 C582 0.950 . S
C587 C585 1.390 . S
C587 C588 1.387 . S
C587 H590 0.950 . S
C588 C587 1.387 . S
C588 C591 1.387 . S
H589 C585 0.950 . S
H590 C587 0.950 . S
C591 C582 1.390 . S
C591 H584 0.950 . S
C591 C588 1.387 . S
C592 C593 1.387 . S
C592 H596 0.950 . S
C592 C601 1.390 . S
C593 C592 1.387 . S
C593 C595 1.387 . S
H594 C601 0.950 . S
C595 C593 1.387 . S
C595 C597 1.390 . S
C595 H599 0.950 . S
H596 C592 0.950 . S
C597 C595 1.390 . S
C597 C598 1.387 . S
C597 H600 0.950 . S
C598 C597 1.387 . S
C598 C601 1.387 . S
H599 C595 0.950 . S
H600 C597 0.950 . S
C601 C592 1.390 . S
C601 H594 0.950 . S
C601 C598 1.387 . S
C602 C603 1.387 . S
C602 H606 0.950 . S
C602 C611 1.390 . S
C603 C602 1.387 . S
C603 C605 1.387 . S
H604 C611 0.950 . S
C605 C603 1.387 . S
C605 C607 1.390 . S
C605 H609 0.950 . S
H606 C602 0.950 . S
C607 C605 1.390 . S
C607 C608 1.387 . S
C607 H610 0.950 . S
C608 C607 1.387 . S
C608 C611 1.387 . S
H609 C605 0.950 . S
H610 C607 0.950 . S
C611 C602 1.390 . S
C611 H604 0.950 . S
C611 C608 1.387 . S
C612 C613 1.387 . S
C612 H616 0.950 . S
C612 C621 1.390 . S
C613 C612 1.387 . S
C613 C615 1.387 . S
H614 C621 0.950 . S
C615 C613 1.387 . S
C615 C617 1.390 . S
C615 H619 0.950 . S
H616 C612 0.950 . S
C617 C615 1.390 . S
C617 C618 1.387 . S
C617 H620 0.950 . S
C618 C617 1.387 . S
C618 C621 1.387 . S
H619 C615 0.950 . S
H620 C617 0.950 . S
C621 C612 1.390 . S
C621 H614 0.950 . S
C621 C618 1.387 . S
C622 C623 1.387 . S
C622 H626 0.950 . S
C622 C631 1.390 . S
C623 C622 1.387 . S
C623 C625 1.387 . S
H624 C631 0.950 . S
C625 C623 1.387 . S
C625 C627 1.390 . S
C625 H629 0.950 . S
H626 C622 0.950 . S
C627 C625 1.390 . S
C627 C628 1.387 . S
C627 H630 0.950 . S
C628 C627 1.387 . S
C628 C631 1.387 . S
H629 C625 0.950 . S
H630 C627 0.950 . S
C631 C622 1.390 . S
C631 H624 0.950 . S
C631 C628 1.387 . S
C632 C633 1.387 . S
C632 H636 0.950 . S
C632 C641 1.390 . S
C633 C632 1.387 . S
C633 C635 1.387 . S
H634 C641 0.950 . S
C635 C633 1.387 . S
C635 C637 1.390 . S
C635 H639 0.950 . S
H636 C632 0.950 . S
C637 C635 1.390 . S
C637 C638 1.387 . S
C637 H640 0.950 . S
C638 C637 1.387 . S
C638 C641 1.387 . S
H639 C635 0.950 . S
H640 C637 0.950 . S
C641 C632 1.390 . S
C641 H634 0.950 . S
C641 C638 1.387 . S
C642 C643 1.387 . S
C642 H646 0.950 . S
C642 C651 1.390 . S
C643 C642 1.387 . S
C643 C645 1.387 . S
H644 C651 0.950 . S
C645 C643 1.387 . S
C645 C647 1.390 . S
C645 H649 0.950 . S
H646 C642 0.950 . S
C647 C645 1.390 . S
C647 C648 1.387 . S
C647 H650 0.950 . S
C648 C647 1.387 . S
C648 C651 1.387 . S
H649 C645 0.950 . S
H650 C647 0.950 . S
C651 C642 1.390 . S
C651 H644 0.950 . S
C651 C648 1.387 . S
C652 C653 1.387 . S
C652 H656 0.950 . S
C652 C661 1.390 . S
C653 C652 1.387 . S
C653 C655 1.387 . S
H654 C661 0.950 . S
C655 C653 1.387 . S
C655 C657 1.390 . S
C655 H659 0.950 . S
H656 C652 0.950 . S
C657 C655 1.390 . S
C657 C658 1.387 . S
C657 H660 0.950 . S
C658 C657 1.387 . S
C658 C661 1.387 . S
H659 C655 0.950 . S
H660 C657 0.950 . S
C661 C652 1.390 . S
C661 H654 0.950 . S
C661 C658 1.387 . S
C662 C663 1.387 . S
C662 H666 0.950 . S
C662 C671 1.390 . S
C663 C662 1.387 . S
C663 C665 1.387 . S
H664 C671 0.950 . S
C665 C663 1.387 . S
C665 C667 1.390 . S
C665 H669 0.950 . S
H666 C662 0.950 . S
C667 C665 1.390 . S
C667 C668 1.387 . S
C667 H670 0.950 . S
C668 C667 1.387 . S
C668 C671 1.387 . S
H669 C665 0.950 . S
H670 C667 0.950 . S
C671 C662 1.390 . S
C671 H664 0.950 . S
C671 C668 1.387 . S
C672 C673 1.387 . S
C672 H676 0.950 . S
C672 C681 1.390 . S
C673 C672 1.387 . S
C673 C675 1.387 . S
H674 C681 0.950 . S
C675 C673 1.387 . S
C675 C677 1.390 . S
C675 H679 0.950 . S
H676 C672 0.950 . S
C677 C675 1.390 . S
C677 C678 1.387 . S
C677 H680 0.950 . S
C678 C677 1.387 . S
C678 C681 1.387 . S
H679 C675 0.950 . S
H680 C677 0.950 . S
C681 C672 1.390 . S
C681 H674 0.950 . S
C681 C678 1.387 . S
C682 C683 1.387 . S
C682 H686 0.950 . S
C682 C691 1.390 . S
C683 C682 1.387 . S
C683 C685 1.387 . S
H684 C691 0.950 . S
C685 C683 1.387 . S
C685 C687 1.390 . S
C685 H689 0.950 . S
H686 C682 0.950 . S
C687 C685 1.390 . S
C687 C688 1.387 . S
C687 H690 0.950 . S
C688 C687 1.387 . S
C688 C691 1.387 . S
H689 C685 0.950 . S
H690 C687 0.950 . S
C691 C682 1.390 . S
C691 H684 0.950 . S
C691 C688 1.387 . S
C692 C693 1.387 . S
C692 H696 0.950 . S
C692 C701 1.390 . S
C693 C692 1.387 . S
C693 C695 1.387 . S
H694 C701 0.950 . S
C695 C693 1.387 . S
C695 C697 1.390 . S
C695 H699 0.950 . S
H696 C692 0.950 . S
C697 C695 1.390 . S
C697 C698 1.387 . S
C697 H700 0.950 . S
C698 C697 1.387 . S
C698 C701 1.387 . S
H699 C695 0.950 . S
H700 C697 0.950 . S
C701 C692 1.390 . S
C701 H694 0.950 . S
C701 C698 1.387 . S
C702 C703 1.387 . S
C702 H706 0.950 . S
C702 C711 1.390 . S
C703 C702 1.387 . S
C703 C705 1.387 . S
H704 C711 0.950 . S
C705 C703 1.387 . S
C705 C707 1.390 . S
C705 H709 0.950 . S
H706 C702 0.950 . S
C707 C705 1.390 . S
C707 C708 1.387 . S
C707 H710 0.950 . S
C708 C707 1.387 . S
C708 C711 1.387 . S
H709 C705 0.950 . S
H710 C707 0.950 . S
C711 C702 1.390 . S
C711 H704 0.950 . S
C711 C708 1.387 . S
C712 C713 1.387 . S
C712 H716 0.950 . S
C712 C721 1.390 . S
C713 C712 1.387 . S
C713 C715 1.387 . S
H714 C721 0.950 . S
C715 C713 1.387 . S
C715 C717 1.390 . S
C715 H719 0.950 . S
H716 C712 0.950 . S
C717 C715 1.390 . S
C717 C718 1.387 . S
C717 H720 0.950 . S
C718 C717 1.387 . S
C718 C721 1.387 . S
H719 C715 0.950 . S
H720 C717 0.950 . S
C721 C712 1.390 . S
C721 H714 0.950 . S
C721 C718 1.387 . S
C722 C723 1.387 . S
C722 H726 0.950 . S
C722 C731 1.390 . S
C723 C722 1.387 . S
C723 C725 1.387 . S
H724 C731 0.950 . S
C725 C723 1.387 . S
C725 C727 1.390 . S
C725 H729 0.950 . S
H726 C722 0.950 . S
C727 C725 1.390 . S
C727 C728 1.387 . S
C727 H730 0.950 . S
C728 C727 1.387 . S
C728 C731 1.387 . S
H729 C725 0.950 . S
H730 C727 0.950 . S
C731 C722 1.390 . S
C731 H724 0.950 . S
C731 C728 1.387 . S
C732 C733 1.387 . S
C732 H736 0.950 . S
C732 C741 1.390 . S
C733 C732 1.387 . S
C733 C735 1.387 . S
H734 C741 0.950 . S
C735 C733 1.387 . S
C735 C737 1.390 . S
C735 H739 0.950 . S
H736 C732 0.950 . S
C737 C735 1.390 . S
C737 C738 1.387 . S
C737 H740 0.950 . S
C738 C737 1.387 . S
C738 C741 1.387 . S
H739 C735 0.950 . S
H740 C737 0.950 . S
C741 C732 1.390 . S
C741 H734 0.950 . S
C741 C738 1.387 . S
C742 C743 1.387 . S
C742 H746 0.950 . S
C742 C751 1.390 . S
C743 C742 1.387 . S
C743 C745 1.387 . S
H744 C751 0.950 . S
C745 C743 1.387 . S
C745 C747 1.390 . S
C745 H749 0.950 . S
H746 C742 0.950 . S
C747 C745 1.390 . S
C747 C748 1.387 . S
C747 H750 0.950 . S
C748 C747 1.387 . S
C748 C751 1.387 . S
H749 C745 0.950 . S
H750 C747 0.950 . S
C751 C742 1.390 . S
C751 H744 0.950 . S
C751 C748 1.387 . S
C752 C753 1.387 . S
C752 H756 0.950 . S
C752 C761 1.390 . S
C753 C752 1.387 . S
C753 C755 1.387 . S
H754 C761 0.950 . S
C755 C753 1.387 . S
C755 C757 1.390 . S
C755 H759 0.950 . S
H756 C752 0.950 . S
C757 C755 1.390 . S
C757 C758 1.387 . S
C757 H760 0.950 . S
C758 C757 1.387 . S
C758 C761 1.387 . S
H759 C755 0.950 . S
H760 C757 0.950 . S
C761 C752 1.390 . S
C761 H754 0.950 . S
C761 C758 1.387 . S
C762 C763 1.387 . S
C762 H766 0.950 . S
C762 C771 1.390 . S
C763 C762 1.387 . S
C763 C765 1.387 . S
H764 C771 0.950 . S
C765 C763 1.387 . S
C765 C767 1.390 . S
C765 H769 0.950 . S
H766 C762 0.950 . S
C767 C765 1.390 . S
C767 C768 1.387 . S
C767 H770 0.950 . S
C768 C767 1.387 . S
C768 C771 1.387 . S
H769 C765 0.950 . S
H770 C767 0.950 . S
C771 C762 1.390 . S
C771 H764 0.950 . S
C771 C768 1.387 . S
C772 C773 1.387 . S
C772 H776 0.950 . S
C772 C781 1.390 . S
C773 C772 1.387 . S
C773 C775 1.387 . S
H774 C781 0.950 . S
C775 C773 1.387 . S
C775 C777 1.390 . S
C775 H779 0.950 . S
H776 C772 0.950 . S
C777 C775 1.390 . S
C777 C778 1.387 . S
C777 H780 0.950 . S
C778 C777 1.387 . S
C778 C781 1.387 . S
H779 C775 0.950 . S
H780 C777 0.950 . S
C781 C772 1.390 . S
C781 H774 0.950 . S
C781 C778 1.387 . S
C782 C783 1.387 . S
C782 H786 0.950 . S
C782 C791 1.390 . S
C783 C782 1.387 . S
C783 C785 1.387 . S
H784 C791 0.950 . S
C785 C783 1.387 . S
C785 C787 1.390 . S
C785 H789 0.950 . S
H786 C782 0.950 . S
C787 C785 1.390 . S
C787 C788 1.387 . S
C787 H790 0.950 . S
C788 C787 1.387 . S
C788 C791 1.387 . S
H789 C785 0.950 . S
H790 C787 0.950 . S
C791 C782 1.390 . S
C791 H784 0.950 . S
C791 C788 1.387 . S
C792 C793 1.387 . S
C792 H796 0.950 . S
C792 C801 1.390 . S
C793 C792 1.387 . S
C793 C795 1.387 . S
H794 C801 0.950 . S
C795 C793 1.387 . S
C795 C797 1.390 . S
C795 H799 0.950 . S
H796 C792 0.950 . S
C797 C795 1.390 . S
C797 C798 1.387 . S
C797 H800 0.950 . S
C798 C797 1.387 . S
C798 C801 1.387 . S
H799 C795 0.950 . S
H800 C797 0.950 . S
C801 C792 1.390 . S
C801 H794 0.950 . S
C801 C798 1.387 . S
C802 C803 1.387 1_556 S
C802 H806 0.950 . S
C802 C811 1.390 . S
C803 C802 1.387 1_554 S
C803 C805 1.387 1_554 S
H804 C811 0.950 . S
C805 C803 1.387 1_556 S
C805 C807 1.390 . S
C805 H809 0.950 1_556 S
H806 C802 0.950 . S
C807 C805 1.390 . S
C807 C808 1.387 . S
C807 H810 0.950 . S
C808 C807 1.387 . S
C808 C811 1.387 . S
H809 C805 0.950 1_554 S
H810 C807 0.950 . S
C811 C802 1.390 . S
C811 H804 0.950 . S
C811 C808 1.387 . S
C812 C813 1.387 . S
C812 H816 0.950 . S
C812 C821 1.390 . S
C813 C812 1.387 . S
C813 C815 1.387 . S
H814 C821 0.950 . S
C815 C813 1.387 . S
C815 C817 1.390 . S
C815 H819 0.950 . S
H816 C812 0.950 . S
C817 C815 1.390 . S
C817 C818 1.387 . S
C817 H820 0.950 . S
C818 C817 1.387 . S
C818 C821 1.387 . S
H819 C815 0.950 . S
H820 C817 0.950 . S
C821 C812 1.390 . S
C821 H814 0.950 . S
C821 C818 1.387 . S
C822 C823 1.387 . S
C822 H826 0.950 . S
C822 C831 1.390 . S
C823 C822 1.387 . S
C823 C825 1.387 . S
H824 C831 0.950 . S
C825 C823 1.387 . S
C825 C827 1.390 . S
C825 H829 0.950 . S
H826 C822 0.950 . S
C827 C825 1.390 . S
C827 C828 1.387 1_554 S
C827 H830 0.950 1_554 S
C828 C827 1.387 1_556 S
C828 C831 1.387 1_556 S
H829 C825 0.950 . S
H830 C827 0.950 1_556 S
C831 C822 1.390 . S
C831 H824 0.950 . S
C831 C828 1.387 1_554 S
C832 C833 1.387 . S
C832 H836 0.950 . S
C832 C841 1.390 . S
C833 C832 1.387 . S
C833 C835 1.387 . S
H834 C841 0.950 . S
C835 C833 1.387 . S
C835 C837 1.390 . S
C835 H839 0.950 . S
H836 C832 0.950 . S
C837 C835 1.390 . S
C837 C838 1.387 . S
C837 H840 0.950 . S
C838 C837 1.387 . S
C838 C841 1.387 . S
H839 C835 0.950 . S
H840 C837 0.950 . S
C841 C832 1.390 . S
C841 H834 0.950 . S
C841 C838 1.387 . S
C842 C843 1.387 . S
C842 H846 0.950 . S
C842 C851 1.390 . S
C843 C842 1.387 . S
C843 C845 1.387 . S
H844 C851 0.950 . S
C845 C843 1.387 . S
C845 C847 1.390 . S
C845 H849 0.950 . S
H846 C842 0.950 . S
C847 C845 1.390 . S
C847 C848 1.387 . S
C847 H850 0.950 . S
C848 C847 1.387 . S
C848 C851 1.387 . S
H849 C845 0.950 . S
H850 C847 0.950 . S
C851 C842 1.390 . S
C851 H844 0.950 . S
C851 C848 1.387 . S
C852 C853 1.387 . S
C852 H856 0.950 . S
C852 C861 1.390 . S
C853 C852 1.387 . S
C853 C855 1.387 . S
H854 C861 0.950 . S
C855 C853 1.387 . S
C855 C857 1.390 . S
C855 H859 0.950 . S
H856 C852 0.950 . S
C857 C855 1.390 . S
C857 C858 1.387 . S
C857 H860 0.950 . S
C858 C857 1.387 . S
C858 C861 1.387 . S
H859 C855 0.950 . S
H860 C857 0.950 . S
C861 C852 1.390 . S
C861 H854 0.950 . S
C861 C858 1.387 . S
C862 C863 1.387 . S
C862 H866 0.950 . S
C862 C871 1.390 . S
C863 C862 1.387 . S
C863 C865 1.387 . S
H864 C871 0.950 . S
C865 C863 1.387 . S
C865 C867 1.390 . S
C865 H869 0.950 . S
H866 C862 0.950 . S
C867 C865 1.390 . S
C867 C868 1.387 . S
C867 H870 0.950 . S
C868 C867 1.387 . S
C868 C871 1.387 . S
H869 C865 0.950 . S
H870 C867 0.950 . S
C871 C862 1.390 . S
C871 H864 0.950 . S
C871 C868 1.387 . S
C872 C873 1.387 . S
C872 H876 0.950 . S
C872 C881 1.390 . S
C873 C872 1.387 . S
C873 C875 1.387 . S
H874 C881 0.950 . S
C875 C873 1.387 . S
C875 C877 1.390 . S
C875 H879 0.950 . S
H876 C872 0.950 . S
C877 C875 1.390 . S
C877 C878 1.387 . S
C877 H880 0.950 . S
C878 C877 1.387 . S
C878 C881 1.387 . S
H879 C875 0.950 . S
H880 C877 0.950 . S
C881 C872 1.390 . S
C881 H874 0.950 . S
C881 C878 1.387 . S
C882 C883 1.387 1_545 S
C882 H886 0.950 . S
C882 C891 1.390 . S
C883 C882 1.387 1_565 S
C883 C885 1.385 1_565 S
H884 C891 0.950 . S
C885 C883 1.385 1_545 S
C885 C887 1.398 . S
C885 H889 0.943 1_545 S
H886 C882 0.950 . S
C887 C885 1.398 . S
C887 C888 1.387 . S
C887 H890 0.950 . S
C888 C887 1.387 . S
C888 C891 1.387 . S
H889 C885 0.943 1_565 S
H890 C887 0.950 . S
C891 C882 1.390 . S
C891 H884 0.950 . S
C891 C888 1.387 . S
C892 C893 1.387 1_565 S
C892 H896 0.950 . S
C892 C901 1.390 . S
C893 C892 1.387 1_545 S
C893 C895 1.387 . S
H894 C901 0.950 . S
C895 C893 1.387 . S
C895 C897 1.390 1_545 S
C895 H899 0.950 . S
H896 C892 0.950 . S
C897 C895 1.390 1_565 S
C897 C898 1.387 . S
C897 H900 0.950 . S
C898 C897 1.387 . S
C898 C901 1.387 . S
H899 C895 0.950 . S
H900 C897 0.950 . S
C901 C892 1.390 . S
C901 H894 0.950 . S
C901 C898 1.387 . S
C902 C903 1.387 . S
C902 H906 0.950 . S
C902 C911 1.390 . S
C903 C902 1.387 . S
C903 C905 1.387 . S
H904 C911 0.950 . S
C905 C903 1.387 . S
C905 C907 1.390 . S
C905 H909 0.950 . S
H906 C902 0.950 . S
C907 C905 1.390 . S
C907 C908 1.387 . S
C907 H910 0.950 . S
C908 C907 1.387 . S
C908 C911 1.387 . S
H909 C905 0.950 . S
H910 C907 0.950 . S
C911 C902 1.390 . S
C911 H904 0.950 . S
C911 C908 1.387 . S
C912 C913 1.387 . S
C912 H916 0.950 . S
C912 C921 1.390 . S
C913 C912 1.387 . S
C913 C915 1.387 . S
H914 C921 0.950 . S
C915 C913 1.387 . S
C915 C917 1.390 . S
C915 H919 0.950 . S
H916 C912 0.950 . S
C917 C915 1.390 . S
C917 C918 1.387 . S
C917 H920 0.950 . S
C918 C917 1.387 . S
C918 C921 1.387 . S
H919 C915 0.950 . S
H920 C917 0.950 . S
C921 C912 1.390 . S
C921 H914 0.950 . S
C921 C918 1.387 . S
C922 C923 1.389 . S
C922 H926 0.961 . S
C922 C931 1.378 1_556 S
C923 C922 1.389 . S
C923 C925 1.387 1_556 S
H924 C931 0.950 . S
C925 C923 1.387 1_554 S
C925 C927 1.390 . S
C925 H929 0.950 . S
H926 C922 0.961 . S
C927 C925 1.390 . S
C927 C928 1.387 . S
C927 H930 0.950 . S
C928 C927 1.387 . S
C928 C931 1.387 . S
H929 C925 0.950 . S
H930 C927 0.950 . S
C931 C922 1.378 1_554 S
C931 H924 0.950 . S
C931 C928 1.387 . S
C932 C933 1.387 . S
C932 H936 0.950 . S
C932 C941 1.390 . S
C933 C932 1.387 . S
C933 C935 1.387 . S
H934 C941 0.950 . S
C935 C933 1.387 . S
C935 C937 1.390 . S
C935 H939 0.950 . S
H936 C932 0.950 . S
C937 C935 1.390 . S
C937 C938 1.387 . S
C937 H940 0.950 . S
C938 C937 1.387 . S
C938 C941 1.387 . S
H939 C935 0.950 . S
H940 C937 0.950 . S
C941 C932 1.390 . S
C941 H934 0.950 . S
C941 C938 1.387 . S
C942 C943 1.389 . S
C942 H946 0.964 . S
C942 C951 1.374 1_554 S
C943 C942 1.389 . S
C943 C945 1.387 1_554 S
H944 C951 0.950 . S
C945 C943 1.387 1_556 S
C945 C947 1.390 . S
C945 H949 0.950 . S
H946 C942 0.964 . S
C947 C945 1.390 . S
C947 C948 1.387 . S
C947 H950 0.950 . S
C948 C947 1.387 . S
C948 C951 1.387 . S
H949 C945 0.950 . S
H950 C947 0.950 . S
C951 C942 1.374 1_556 S
C951 H944 0.950 . S
C951 C948 1.387 . S
C952 C953 1.387 . S
C952 H956 0.950 . S
C952 C961 1.390 . S
C953 C952 1.387 . S
C953 C955 1.387 . S
H954 C961 0.950 . S
C955 C953 1.387 . S
C955 C957 1.390 . S
C955 H959 0.950 . S
H956 C952 0.950 . S
C957 C955 1.390 . S
C957 C958 1.387 . S
C957 H960 0.950 . S
C958 C957 1.387 . S
C958 C961 1.387 . S
H959 C955 0.950 . S
H960 C957 0.950 . S
C961 C952 1.390 . S
C961 H954 0.950 . S
C961 C958 1.387 . S
C962 C963 1.387 . S
C962 H966 0.950 . S
C962 C971 1.390 . S
C963 C962 1.387 . S
C963 C965 1.387 . S
H964 C971 0.950 1_455 S
C965 C963 1.387 . S
C965 C967 1.390 1_655 S
C965 H969 0.950 . S
H966 C962 0.950 . S
C967 C965 1.390 1_455 S
C967 C968 1.387 . S
C967 H970 0.950 . S
C968 C967 1.387 . S
C968 C971 1.387 1_455 S
H969 C965 0.950 . S
H970 C967 0.950 . S
C971 C962 1.390 . S
C971 H964 0.950 1_655 S
C971 C968 1.387 1_655 S
C972 C973 1.387 . S
C972 H976 0.950 . S
C972 C981 1.390 1_455 S
C973 C972 1.387 . S
C973 C975 1.387 . S
H974 C981 0.950 . S
C975 C973 1.387 . S
C975 C977 1.390 . S
C975 H979 0.950 . S
H976 C972 0.950 . S
C977 C975 1.390 . S
C977 C978 1.387 1_455 S
C977 H980 0.950 1_455 S
C978 C977 1.387 1_655 S
C978 C981 1.387 . S
H979 C975 0.950 . S
H980 C977 0.950 1_655 S
C981 C972 1.390 1_655 S
C981 H974 0.950 . S
C981 C978 1.387 . S
C982 C983 1.387 . S
C982 H986 0.950 . S
C982 C991 1.390 . S
C983 C982 1.387 . S
C983 C985 1.387 . S
H984 C991 0.950 . S
C985 C983 1.387 . S
C985 C987 1.390 . S
C985 H989 0.950 . S
H986 C982 0.950 . S
C987 C985 1.390 . S
C987 C988 1.387 . S
C987 H990 0.950 . S
C988 C987 1.387 . S
C988 C991 1.387 . S
H989 C985 0.950 . S
H990 C987 0.950 . S
C991 C982 1.390 . S
C991 H984 0.950 . S
C991 C988 1.387 . S
C992 C993 1.387 . S
C992 H996 0.950 . S
C992 C1001 1.390 . S
C993 C992 1.387 . S
C993 C995 1.387 . S
H994 C1001 0.950 . S
C995 C993 1.387 . S
C995 C997 1.390 . S
C995 H999 0.950 . S
H996 C992 0.950 . S
C997 C995 1.390 . S
C997 C998 1.387 . S
C997 H1000 0.950 . S
C998 C997 1.387 . S
C998 C1001 1.387 . S
H999 C995 0.950 . S
H1000 C997 0.950 . S
C1001 C992 1.390 . S
C1001 H994 0.950 . S
C1001 C998 1.387 . S
C1002 C1003 1.387 . S
C1002 H1006 0.950 . S
C1002 C1011 1.390 . S
C1003 C1002 1.387 . S
C1003 C1005 1.387 . S
H1004 C1011 0.950 . S
C1005 C1003 1.387 . S
C1005 C1007 1.390 . S
C1005 H1009 0.950 . S
H1006 C1002 0.950 . S
C1007 C1005 1.390 . S
C1007 C1008 1.387 . S
C1007 H1010 0.950 . S
C1008 C1007 1.387 . S
C1008 C1011 1.387 . S
H1009 C1005 0.950 . S
H1010 C1007 0.950 . S
C1011 C1002 1.390 . S
C1011 H1004 0.950 . S
C1011 C1008 1.387 . S
C1012 C1013 1.387 . S
C1012 H1016 0.950 . S
C1012 C1021 1.390 . S
C1013 C1012 1.387 . S
C1013 C1015 1.387 . S
H1014 C1021 0.950 . S
C1015 C1013 1.387 . S
C1015 C1017 1.390 . S
C1015 H1019 0.950 . S
H1016 C1012 0.950 . S
C1017 C1015 1.390 . S
C1017 C1018 1.387 . S
C1017 H1020 0.950 . S
C1018 C1017 1.387 . S
C1018 C1021 1.387 . S
H1019 C1015 0.950 . S
H1020 C1017 0.950 . S
C1021 C1012 1.390 . S
C1021 H1014 0.950 . S
C1021 C1018 1.387 . S
C1022 C1023 1.387 . S
C1022 H1026 0.950 . S
C1022 C1031 1.390 . S
C1023 C1022 1.387 . S
C1023 C1025 1.387 . S
H1024 C1031 0.950 . S
C1025 C1023 1.387 . S
C1025 C1027 1.390 . S
C1025 H1029 0.950 . S
H1026 C1022 0.950 . S
C1027 C1025 1.390 . S
C1027 C1028 1.387 . S
C1027 H1030 0.950 . S
C1028 C1027 1.387 . S
C1028 C1031 1.387 . S
H1029 C1025 0.950 . S
H1030 C1027 0.950 . S
C1031 C1022 1.390 . S
C1031 H1024 0.950 . S
C1031 C1028 1.387 . S
C553 C191 1.930 . S
C558 N12 1.918 . S
C563 N35 1.916 . S
C568 C260 1.928 . S
C573 N58 1.919 . S
C578 C214 1.932 . S
C583 N81 1.919 . S
C588 C237 1.932 . S
C593 C99 1.879 . S
C598 C7 1.901 . S
C603 C30 1.903 . S
C608 C122 1.882 . S
C613 C145 1.879 . S
C618 C53 1.901 . S
C623 C76 1.904 . S
C628 C168 1.882 . S
C633 N104 1.796 . S
C638 N196 1.736 . S
C643 N150 1.796 . S
C648 N219 1.737 . S
C653 N242 1.736 . S
C658 N173 1.796 . S
C663 N127 1.796 . S
C668 N265 1.736 . S
C673 C467 1.847 . S
C678 N288 1.862 . S
C683 N311 1.860 . S
C688 C536 1.845 . S
C693 N334 1.860 . S
C698 C490 1.845 . S
C703 C513 1.845 . S
C708 N357 1.860 . S
C713 N380 1.792 . S
C718 C283 1.780 . S
C723 C306 1.783 . S
C728 N403 1.795 . S
C733 C329 1.783 . S
C738 N426 1.795 . S
C743 N449 1.792 . S
C748 C352 1.780 . S
C753 N472 1.755 . S
C758 C375 1.750 . S
C763 C421 1.750 . S
C768 N495 1.756 . S
C773 C444 1.750 . S
C778 N518 1.754 . S
C783 N541 1.753 . S
C788 C398 1.748 . S
C793 C522 1.946 . S
C798 N2 1.697 . S
C803 C499 1.944 . S
C808 N25 1.697 . S
C813 C545 1.944 . S
C818 N48 1.698 . S
C823 N71 1.694 . S
C828 C476 1.944 . S
C833 C108 1.675 . S
C838 C315 1.775 . S
C843 C292 1.775 1_455 S
C848 C131 1.675 . S
C853 C361 1.774 1_655 S
C858 C154 1.672 . S
C863 C338 1.775 . S
C868 C177 1.671 . S
C873 N186 1.652 . S
C878 C430 1.888 . S
C883 C384 1.888 . S
C888 N209 1.652 . S
C893 C407 1.888 . S
C898 N232 1.655 . S
C903 C453 1.889 . S
C908 N255 1.651 . S
C913 C246 1.912 . S
C918 N278 1.674 . S
C923 C223 1.910 . S
C928 N301 1.673 . S
C933 N324 1.673 . S
C938 C269 1.911 . S
C943 C200 1.910 . S
C948 N347 1.674 . S
C953 N370 1.673 . S
C958 C39 1.893 . S
C963 N393 1.673 . S
C968 C16 1.893 . S
C973 N416 1.673 . S
C978 C85 1.893 . S
C983 N439 1.670 . S
C988 C62 1.893 . S
C993 N462 1.686 . S
C998 N140 1.819 . S
C1003 N485 1.687 . S
C1008 N94 1.819 1_565 S
C1013 N117 1.822 1_545 S
C1018 N508 1.684 . S
C1023 N531 1.686 . S
C1028 N163 1.819 . S
