# Generated by pormake.
# Topology msp, (4)-cn, num edge types: 1
# Building blocks:
#     Node 0, Type 0, BuildingBlock: KOZSID_clean_sbu_0, # of connection points: 4
#     Node 1, Type 0, BuildingBlock: KOZSID_clean_sbu_0, # of connection points: 4
#     Node 2, Type 0, BuildingBlock: KOZSID_clean_sbu_0, # of connection points: 4
#     Node 3, Type 0, BuildingBlock: KOZSID_clean_sbu_0, # of connection points: 4
#     Node 4, Type 0, BuildingBlock: KOZSID_clean_sbu_0, # of connection points: 4
#     Node 5, Type 0, BuildingBlock: KOZSID_clean_sbu_0, # of connection points: 4
#     Node 6, Type 0, BuildingBlock: KOZSID_clean_sbu_0, # of connection points: 4
#     Node 7, Type 0, BuildingBlock: KOZSID_clean_sbu_0, # of connection points: 4
#     Edge 8, Type (0, 0), BuildingBlock: MIFKUJ_clean_linker_0, # of connection points: 2
#     Edge 9, Type (0, 0), BuildingBlock: MIFKUJ_clean_linker_0, # of connection points: 2
#     Edge 10, Type (0, 0), BuildingBlock: MIFKUJ_clean_linker_0, # of connection points: 2
#     Edge 11, Type (0, 0), BuildingBlock: MIFKUJ_clean_linker_0, # of connection points: 2
#     Edge 12, Type (0, 0), BuildingBlock: MIFKUJ_clean_linker_0, # of connection points: 2
#     Edge 13, Type (0, 0), BuildingBlock: MIFKUJ_clean_linker_0, # of connection points: 2
#     Edge 14, Type (0, 0), BuildingBlock: MIFKUJ_clean_linker_0, # of connection points: 2
#     Edge 15, Type (0, 0), BuildingBlock: MIFKUJ_clean_linker_0, # of connection points: 2
#     Edge 16, Type (0, 0), BuildingBlock: MIFKUJ_clean_linker_0, # of connection points: 2
#     Edge 17, Type (0, 0), BuildingBlock: MIFKUJ_clean_linker_0, # of connection points: 2
#     Edge 18, Type (0, 0), BuildingBlock: MIFKUJ_clean_linker_0, # of connection points: 2
#     Edge 19, Type (0, 0), BuildingBlock: MIFKUJ_clean_linker_0, # of connection points: 2
#     Edge 20, Type (0, 0), BuildingBlock: MIFKUJ_clean_linker_0, # of connection points: 2
#     Edge 21, Type (0, 0), BuildingBlock: MIFKUJ_clean_linker_0, # of connection points: 2
#     Edge 22, Type (0, 0), BuildingBlock: MIFKUJ_clean_linker_0, # of connection points: 2
#     Edge 23, Type (0, 0), BuildingBlock: MIFKUJ_clean_linker_0, # of connection points: 2
# Relax obj value: 0.068
# Max RMSD: 0.205
# Mean RMSD: 0.205
data_MOF--net-msp--node1-KOZSID_clean_sbu_0--edge1-MIFKUJ_clean_linker_0
_symmetry_space_group_name_H-M    P1
_symmetry_Int_Tables_number       1
_symmetry_cell_setting            triclinic
loop_
_symmetry_equiv_pos_as_xyz
'x, y, z'
_cell_length_a     31.596105
_cell_length_b     17.637292
_cell_length_c     71.33618
_cell_angle_alpha  90.004907
_cell_angle_beta   91.856579
_cell_angle_gamma 89.969318
loop_
_atom_site_label
_atom_site_type_symbol
_atom_site_fract_x
_atom_site_fract_y
_atom_site_fract_z
_atom_type_partial_charge
C0 C 0.99835 0.47894 0.39147 0.0
C1 C 0.98421 0.55275 0.39353 0.0
C2 C 0.99249 0.58955 0.37705 0.0
C3 C 0.01108 0.53608 0.36592 0.0
N4 N 0.01465 0.4683 0.3744 0.0
Co5 Co 0.0411 0.37605 0.36428 0.0
N6 N 0.07316 0.43592 0.34597 0.0
C7 C 0.06392 0.50737 0.34046 0.0
C8 C 0.08956 0.53302 0.32666 0.0
C9 C 0.11613 0.47374 0.32306 0.0
C10 C 0.10529 0.41495 0.33495 0.0
N11 N 0.06743 0.28299 0.35426 0.0
C12 C 0.10057 0.27497 0.34282 0.0
C13 C 0.10747 0.19898 0.33878 0.0
C14 C 0.07693 0.15854 0.34764 0.0
C15 C 0.05322 0.21171 0.35663 0.0
N16 N 0.0084 0.31719 0.38254 0.0
C17 C 0.99973 0.24265 0.38171 0.0
C18 C 0.97924 0.21754 0.39722 0.0
C19 C 0.97505 0.2802 0.40846 0.0
C20 C 0.99296 0.34048 0.39906 0.0
N21 N 0.99425 0.36572 0.34572 0.0
C22 C 0.92679 0.3428 0.31966 0.0
C23 C 0.91937 0.36537 0.33815 0.0
C24 C 0.95338 0.37619 0.35092 0.0
C25 C 0.96894 0.33362 0.3145 0.0
C26 C 0.002 0.34574 0.32762 0.0
N27 N 0.08738 0.38608 0.38305 0.0
C28 C 0.12229 0.33496 0.41072 0.0
C29 C 0.13808 0.40667 0.4155 0.0
C30 C 0.13098 0.46671 0.40295 0.0
C31 C 0.10525 0.45532 0.38682 0.0
C32 C 0.09774 0.32557 0.39427 0.0
H33 H 0.09784 0.50346 0.37798 0.0
H34 H 0.08497 0.27013 0.39127 0.0
H35 H 0.94656 0.39227 0.36511 0.0
H36 H 0.03383 0.33753 0.32311 0.0
C37 C 0.03384 0.55073 0.34979 0.0
C38 C 0.99519 0.4194 0.40565 0.0
C39 C 0.12237 0.33768 0.33357 0.0
C40 C 0.0207 0.19643 0.36901 0.0
H41 H 0.97008 0.57735 0.40574 0.0
H42 H 0.98792 0.6492 0.37404 0.0
H43 H 0.08914 0.58825 0.32005 0.0
H44 H 0.13969 0.47288 0.31238 0.0
H45 H 0.13129 0.17541 0.3299 0.0
H46 H 0.07285 0.09761 0.34767 0.0
H47 H 0.97125 0.15964 0.40067 0.0
H48 H 0.96142 0.28012 0.42214 0.0
H49 H 0.8875 0.37467 0.3428 0.0
H50 H 0.97656 0.31528 0.30053 0.0
H51 H 0.12786 0.28687 0.41993 0.0
H52 H 0.14299 0.5229 0.40616 0.0
C53 C 0.49364 0.47283 0.61883 0.0
C54 C 0.50447 0.54851 0.61651 0.0
C55 C 0.49703 0.58418 0.63319 0.0
C56 C 0.48156 0.52902 0.64469 0.0
N57 N 0.47906 0.46097 0.63624 0.0
Co58 Co 0.45395 0.36766 0.64667 0.0
N59 N 0.42207 0.42619 0.66531 0.0
C60 C 0.43051 0.49798 0.6707 0.0
C61 C 0.40484 0.52299 0.68456 0.0
C62 C 0.37904 0.46288 0.68833 0.0
C63 C 0.39045 0.40421 0.67649 0.0
N64 N 0.42931 0.27363 0.65702 0.0
C65 C 0.39688 0.26437 0.6688 0.0
C66 C 0.39149 0.18824 0.6731 0.0
C67 C 0.42221 0.14901 0.66401 0.0
C68 C 0.44457 0.203 0.65464 0.0
N69 N 0.48602 0.31008 0.62807 0.0
C70 C 0.49608 0.23612 0.62889 0.0
C71 C 0.51735 0.21243 0.61342 0.0
C72 C 0.5205 0.27556 0.60222 0.0
C73 C 0.50078 0.33413 0.61152 0.0
N74 N 0.50185 0.35862 0.66477 0.0
C75 C 0.57068 0.33266 0.68973 0.0
C76 C 0.57714 0.35841 0.67147 0.0
C77 C 0.54235 0.37044 0.65916 0.0
C78 C 0.52913 0.32248 0.69541 0.0
C79 C 0.49525 0.33669 0.68284 0.0
N80 N 0.40668 0.376 0.62838 0.0
C81 C 0.36855 0.32028 0.60212 0.0
C82 C 0.35469 0.39197 0.59602 0.0
C83 C 0.36435 0.45467 0.60751 0.0
C84 C 0.38995 0.44527 0.62374 0.0
C85 C 0.39448 0.31357 0.61823 0.0
H86 H 0.39836 0.49483 0.63189 0.0
H87 H 0.40668 0.25824 0.62183 0.0
H88 H 0.54825 0.38778 0.64498 0.0
H89 H 0.46374 0.32836 0.68773 0.0
C90 C 0.45938 0.5424 0.66103 0.0
C91 C 0.49749 0.41246 0.6047 0.0
C92 C 0.37433 0.32635 0.67802 0.0
C93 C 0.47665 0.18897 0.6419 0.0
H94 H 0.51529 0.57641 0.60409 0.0
H95 H 0.49942 0.64434 0.63603 0.0
H96 H 0.40462 0.57845 0.69105 0.0
H97 H 0.35545 0.46161 0.699 0.0
H98 H 0.36854 0.16385 0.68229 0.0
H99 H 0.42727 0.08832 0.66406 0.0
H100 H 0.52706 0.15526 0.61009 0.0
H101 H 0.53499 0.2781 0.58869 0.0
H102 H 0.60888 0.36691 0.66656 0.0
H103 H 0.52283 0.30365 0.70951 0.0
H104 H 0.36071 0.26964 0.59417 0.0
H105 H 0.35421 0.51122 0.60353 0.0
C106 C 0.01752 0.69621 0.6078 0.0
C107 C 0.02928 0.75706 0.59679 0.0
C108 C 0.01603 0.82107 0.60564 0.0
C109 C 0.99674 0.79581 0.62139 0.0
N110 N 0.99821 0.71962 0.6235 0.0
Co111 Co 0.96854 0.65728 0.64265 0.0
N112 N 0.93895 0.74872 0.65258 0.0
C113 C 0.94406 0.82148 0.64707 0.0
C114 C 0.91957 0.87212 0.65645 0.0
C115 C 0.89772 0.82935 0.6688 0.0
C116 C 0.91037 0.75469 0.6663 0.0
N117 N 0.93821 0.59412 0.66136 0.0
C118 C 0.90954 0.61445 0.6742 0.0
C119 C 0.89708 0.55257 0.68475 0.0
C120 C 0.91831 0.49105 0.67826 0.0
C121 C 0.94259 0.51856 0.66423 0.0
N122 N 0.99832 0.56635 0.63272 0.0
C123 C 0.998 0.49501 0.63961 0.0
C124 C 0.01913 0.44394 0.62879 0.0
C125 C 0.03253 0.48479 0.61383 0.0
C126 C 0.01864 0.55845 0.61642 0.0
N127 N 0.01615 0.67439 0.66141 0.0
C128 C 0.08218 0.70001 0.68845 0.0
C129 C 0.0626 0.62933 0.6868 0.0
C130 C 0.03023 0.61774 0.67325 0.0
C131 C 0.06836 0.75752 0.67631 0.0
C132 C 0.03554 0.74378 0.66314 0.0
N133 N 0.92186 0.6403 0.62393 0.0
C134 C 0.88093 0.55347 0.60437 0.0
C135 C 0.87038 0.61205 0.59194 0.0
C136 C 0.88282 0.68571 0.59656 0.0
C137 C 0.90762 0.69872 0.61276 0.0
C138 C 0.90683 0.56873 0.62022 0.0
H139 H 0.91658 0.75602 0.61555 0.0
H140 H 0.91596 0.52149 0.62882 0.0
H141 H 0.01727 0.56233 0.67274 0.0
H142 H 0.02646 0.7907 0.65466 0.0
C143 C 0.97106 0.84025 0.63263 0.0
C144 C 0.02102 0.61698 0.60211 0.0
C145 C 0.89441 0.69166 0.67735 0.0
C146 C 0.97099 0.4755 0.65397 0.0
H147 H 0.04385 0.7558 0.58331 0.0
H148 H 0.01742 0.87865 0.60044 0.0
H149 H 0.91761 0.93288 0.65446 0.0
H150 H 0.87501 0.85079 0.67852 0.0
H151 H 0.87541 0.55192 0.69618 0.0
H152 H 0.91674 0.43336 0.68338 0.0
H153 H 0.02157 0.38322 0.63077 0.0
H154 H 0.0484 0.46234 0.6018 0.0
H155 H 0.07259 0.58262 0.69576 0.0
H156 H 0.0823 0.81358 0.67717 0.0
H157 H 0.87132 0.4957 0.60132 0.0
H158 H 0.87425 0.73285 0.58746 0.0
C159 C 0.49546 0.66876 0.40001 0.0
C160 C 0.47471 0.72497 0.40972 0.0
C161 C 0.47634 0.78939 0.39888 0.0
C162 C 0.49782 0.76875 0.3832 0.0
N163 N 0.50937 0.69546 0.38356 0.0
Co164 Co 0.54264 0.64196 0.36468 0.0
N165 N 0.56542 0.7385 0.35496 0.0
C166 C 0.54877 0.80785 0.35773 0.0
C167 C 0.57056 0.86424 0.34896 0.0
C168 C 0.60239 0.82797 0.33987 0.0
C169 C 0.5981 0.75102 0.34352 0.0
N170 N 0.57585 0.58735 0.34585 0.0
C171 C 0.60739 0.61239 0.33502 0.0
C172 C 0.61962 0.55605 0.32268 0.0
C173 C 0.59461 0.49423 0.32586 0.0
C174 C 0.56845 0.516 0.33985 0.0
N175 N 0.51924 0.54617 0.37446 0.0
C176 C 0.51769 0.47911 0.36551 0.0
C177 C 0.50323 0.42181 0.37665 0.0
C178 C 0.49544 0.45508 0.3936 0.0
C179 C 0.50509 0.53151 0.3918 0.0
N180 N 0.49498 0.64969 0.3465 0.0
C181 C 0.42679 0.66978 0.32078 0.0
C182 C 0.46856 0.68129 0.31545 0.0
C183 C 0.50199 0.67078 0.32842 0.0
C184 C 0.41998 0.64666 0.33928 0.0
C185 C 0.45446 0.63682 0.35188 0.0
N186 N 0.58988 0.63474 0.38294 0.0
C187 C 0.63491 0.55702 0.40286 0.0
C188 C 0.64387 0.61923 0.41458 0.0
C189 C 0.62803 0.69045 0.40914 0.0
C190 C 0.60109 0.69691 0.39337 0.0
C191 C 0.60823 0.56621 0.38698 0.0
H192 H 0.58753 0.75167 0.39024 0.0
H193 H 0.60051 0.51696 0.37859 0.0
H194 H 0.53352 0.68117 0.32379 0.0
H195 H 0.44833 0.61963 0.36606 0.0
C196 C 0.51632 0.81852 0.3705 0.0
C197 C 0.50064 0.59006 0.40634 0.0
C198 C 0.62229 0.6913 0.33421 0.0
C199 C 0.54011 0.4689 0.34909 0.0
H200 H 0.46059 0.72008 0.42329 0.0
H201 H 0.4656 0.84553 0.4026 0.0
H202 H 0.56459 0.92464 0.34939 0.0
H203 H 0.62547 0.85497 0.33119 0.0
H204 H 0.64305 0.56008 0.31201 0.0
H205 H 0.59561 0.4398 0.31887 0.0
H206 H 0.50179 0.36191 0.37339 0.0
H207 H 0.48522 0.42516 0.40584 0.0
H208 H 0.47553 0.70018 0.30144 0.0
H209 H 0.38829 0.63602 0.34399 0.0
H210 H 0.64655 0.50089 0.40637 0.0
H211 H 0.63519 0.74074 0.41735 0.0
C212 C 0.50972 0.93484 0.89552 0.0
C213 C 0.50151 0.01086 0.89877 0.0
C214 C 0.51433 0.04926 0.88331 0.0
C215 C 0.52949 0.9946 0.87158 0.0
N216 N 0.52612 0.9236 0.87845 0.0
Co217 Co 0.54653 0.8276 0.86684 0.0
N218 N 0.57804 0.88502 0.84747 0.0
C219 C 0.57917 0.96122 0.84529 0.0
C220 C 0.60358 0.98449 0.83085 0.0
C221 C 0.6195 0.91936 0.82353 0.0
C222 C 0.60391 0.85972 0.83402 0.0
N223 N 0.56565 0.73127 0.85485 0.0
C224 C 0.59201 0.72011 0.84045 0.0
C225 C 0.59683 0.64343 0.83661 0.0
C226 C 0.5723 0.60508 0.84885 0.0
C227 C 0.55407 0.66004 0.85952 0.0
N228 N 0.51717 0.77084 0.88706 0.0
C229 C 0.51386 0.6948 0.88886 0.0
C230 C 0.49677 0.67255 0.90542 0.0
C231 C 0.49009 0.73829 0.91504 0.0
C232 C 0.5033 0.79689 0.90367 0.0
N233 N 0.4944 0.82499 0.85004 0.0
C234 C 0.42394 0.81466 0.82452 0.0
C235 C 0.43221 0.7583 0.83787 0.0
C236 C 0.467 0.76465 0.85035 0.0
C237 C 0.45092 0.87738 0.82449 0.0
C238 C 0.48542 0.88155 0.83728 0.0
N239 N 0.59765 0.82953 0.8835 0.0
C240 C 0.64182 0.76455 0.90652 0.0
C241 C 0.65724 0.83349 0.91351 0.0
C242 C 0.64545 0.90007 0.90402 0.0
C243 C 0.61593 0.89674 0.88898 0.0
C244 C 0.61247 0.76381 0.89154 0.0
H245 H 0.60666 0.94929 0.88253 0.0
H246 H 0.60061 0.70964 0.88727 0.0
H247 H 0.47099 0.71911 0.85992 0.0
H248 H 0.50428 0.93109 0.83637 0.0
C249 C 0.55525 0.00905 0.85645 0.0
C250 C 0.50505 0.87599 0.9096 0.0
C251 C 0.61388 0.7801 0.8304 0.0
C252 C 0.53072 0.6462 0.87551 0.0
H253 H 0.48962 0.03607 0.9114 0.0
H254 H 0.51564 0.11016 0.88154 0.0
H255 H 0.6088 0.04189 0.82607 0.0
H256 H 0.63991 0.91628 0.81167 0.0
H257 H 0.61667 0.61756 0.82632 0.0
H258 H 0.56943 0.54422 0.85028 0.0
H259 H 0.49185 0.61526 0.91033 0.0
H260 H 0.47836 0.74249 0.92909 0.0
H261 H 0.4125 0.70818 0.83846 0.0
H262 H 0.44541 0.92351 0.81469 0.0
H263 H 0.65116 0.71137 0.91303 0.0
H264 H 0.65699 0.95477 0.90882 0.0
C265 C 0.00521 0.93815 0.11472 0.0
C266 C 0.01891 0.01155 0.11157 0.0
C267 C 0.01362 0.05059 0.12803 0.0
C268 C 0.99694 0.99896 0.14022 0.0
N269 N 0.99176 0.93018 0.1324 0.0
Co270 Co 0.96592 0.84022 0.14402 0.0
N271 N 0.93679 0.90355 0.16255 0.0
C272 C 0.94711 0.97543 0.16721 0.0
C273 C 0.92278 0.00406 0.18114 0.0
C274 C 0.89595 0.94629 0.18569 0.0
C275 C 0.90533 0.88533 0.17419 0.0
N276 N 0.94066 0.74937 0.15556 0.0
C277 C 0.9087 0.74394 0.16769 0.0
C278 C 0.90188 0.66875 0.17257 0.0
C279 C 0.93134 0.6263 0.16352 0.0
C280 C 0.95435 0.6775 0.15355 0.0
N281 N 0.99513 0.77801 0.12535 0.0
C282 C 0.00372 0.70355 0.12651 0.0
C283 C 0.022 0.67638 0.11059 0.0
C284 C 0.02469 0.73775 0.09876 0.0
C285 C 0.00781 0.79877 0.10818 0.0
N286 N 0.01485 0.83111 0.16149 0.0
C287 C 0.08425 0.81422 0.18677 0.0
C288 C 0.09027 0.831 0.16779 0.0
C289 C 0.0552 0.83905 0.15539 0.0
C290 C 0.04265 0.80637 0.1927 0.0
C291 C 0.00867 0.81543 0.17997 0.0
N292 N 0.91724 0.84896 0.12658 0.0
C293 C 0.87317 0.79187 0.10241 0.0
C294 C 0.85913 0.86347 0.09646 0.0
C295 C 0.87246 0.92728 0.10673 0.0
C296 C 0.90106 0.91865 0.12195 0.0
C297 C 0.90227 0.78588 0.11744 0.0
H298 H 0.91179 0.96876 0.12933 0.0
H299 H 0.91446 0.73046 0.12095 0.0
H300 H 0.06069 0.85152 0.14085 0.0
H301 H 0.97732 0.8089 0.18517 0.0
C302 C 0.97633 0.0165 0.15679 0.0
C303 C 0.00519 0.87639 0.10099 0.0
C304 C 0.88766 0.80881 0.17643 0.0
C305 C 0.9848 0.6595 0.14031 0.0
H306 H 0.03057 0.03478 0.09869 0.0
H307 H 0.01852 0.11064 0.13035 0.0
H308 H 0.92402 0.06039 0.18716 0.0
H309 H 0.8731 0.94803 0.19665 0.0
H310 H 0.87867 0.64696 0.18202 0.0
H311 H 0.9349 0.56528 0.16386 0.0
H312 H 0.02978 0.6181 0.10741 0.0
H313 H 0.03694 0.73757 0.08477 0.0
H314 H 0.12175 0.83849 0.16252 0.0
H315 H 0.03613 0.79192 0.20707 0.0
H316 H 0.86392 0.74113 0.09477 0.0
H317 H 0.86192 0.98357 0.10268 0.0
C318 C 0.51077 0.1881 0.11021 0.0
C319 C 0.53002 0.24804 0.1013 0.0
C320 C 0.52797 0.30899 0.1133 0.0
C321 C 0.50764 0.28265 0.12879 0.0
N322 N 0.49717 0.20909 0.12721 0.0
Co323 Co 0.46501 0.14841 0.14519 0.0
N324 N 0.44137 0.24071 0.15675 0.0
C325 C 0.45706 0.31144 0.15521 0.0
C326 C 0.43487 0.36394 0.16516 0.0
C327 C 0.40379 0.32354 0.17369 0.0
C328 C 0.40884 0.2482 0.16853 0.0
N329 N 0.43309 0.08672 0.16313 0.0
C330 C 0.40159 0.10709 0.17455 0.0
C331 C 0.39014 0.04662 0.18579 0.0
C332 C 0.41566 0.98684 0.18132 0.0
C333 C 0.44131 0.01386 0.16767 0.0
N334 N 0.48908 0.05686 0.13357 0.0
C335 C 0.49186 0.98725 0.14114 0.0
C336 C 0.50796 0.93492 0.12895 0.0
C337 C 0.51548 0.97448 0.11277 0.0
C338 C 0.50355 0.04877 0.11608 0.0
N339 N 0.51319 0.15245 0.16322 0.0
C340 C 0.58247 0.1681 0.1887 0.0
C341 C 0.54079 0.17788 0.19446 0.0
C342 C 0.50684 0.16921 0.18163 0.0
C343 C 0.58844 0.14845 0.16987 0.0
C344 C 0.55353 0.14129 0.15739 0.0
N345 N 0.41731 0.1449 0.12703 0.0
C346 C 0.37162 0.07187 0.10628 0.0
C347 C 0.36134 0.13706 0.09582 0.0
C348 C 0.37762 0.2068 0.10209 0.0
C349 C 0.40537 0.20949 0.11769 0.0
C350 C 0.39929 0.07716 0.12195 0.0
H351 H 0.41895 0.26349 0.12154 0.0
H352 H 0.40769 0.0259 0.12943 0.0
H353 H 0.47543 0.17773 0.18663 0.0
H354 H 0.55921 0.12764 0.14294 0.0
C355 C 0.48891 0.32754 0.14248 0.0
C356 C 0.50645 0.11126 0.10271 0.0
C357 C 0.38559 0.18477 0.17677 0.0
C358 C 0.46991 0.97071 0.15741 0.0
H359 H 0.54342 0.24785 0.08753 0.0
H360 H 0.53758 0.36666 0.11049 0.0
H361 H 0.4401 0.42453 0.16585 0.0
H362 H 0.38071 0.34666 0.18301 0.0
H363 H 0.36672 0.04642 0.19653 0.0
H364 H 0.41527 0.9303 0.1872 0.0
H365 H 0.51114 0.87439 0.13107 0.0
H366 H 0.5275 0.95122 0.09995 0.0
H367 H 0.53417 0.19421 0.20869 0.0
H368 H 0.61984 0.13875 0.16472 0.0
H369 H 0.35914 0.01696 0.10215 0.0
H370 H 0.37082 0.25866 0.09444 0.0
C371 C 0.97519 0.15129 0.89755 0.0
C372 C 0.94868 0.20425 0.90548 0.0
C373 C 0.95194 0.26954 0.895 0.0
C374 C 0.97943 0.25224 0.88106 0.0
N375 N 0.99319 0.18037 0.88216 0.0
Co376 Co 0.03124 0.12992 0.86464 0.0
N377 N 0.05377 0.22802 0.85582 0.0
C378 C 0.0347 0.29587 0.8578 0.0
C379 C 0.05637 0.35379 0.84957 0.0
C380 C 0.09062 0.32002 0.84163 0.0
C381 C 0.08792 0.24291 0.8454 0.0
N382 N 0.06925 0.07775 0.84728 0.0
C383 C 0.10245 0.10473 0.83774 0.0
C384 C 0.11807 0.04916 0.82597 0.0
C385 C 0.09302 0.98641 0.82787 0.0
C386 C 0.06369 0.00659 0.84073 0.0
N387 N 0.00766 0.0325 0.87299 0.0
C388 C 0.00457 0.96959 0.86248 0.0
C389 C 0.97819 0.91645 0.86992 0.0
C390 C 0.96437 0.94837 0.88622 0.0
C391 C 0.98495 0.01764 0.88826 0.0
N392 N 0.98683 0.13542 0.84469 0.0
C393 C 0.92202 0.15831 0.81742 0.0
C394 C 0.96437 0.17183 0.81332 0.0
C395 C 0.99625 0.15912 0.82703 0.0
C396 C 0.91288 0.13068 0.83524 0.0
C397 C 0.94559 0.12023 0.84868 0.0
N398 N 0.07478 0.12619 0.88488 0.0
C399 C 0.11607 0.05559 0.90798 0.0
C400 C 0.12476 0.12218 0.91832 0.0
C401 C 0.10982 0.19087 0.91074 0.0
C402 C 0.08457 0.1915 0.89438 0.0
C403 C 0.0916 0.05902 0.89117 0.0
H404 H 0.07151 0.24511 0.88993 0.0
H405 H 0.08472 0.00699 0.88369 0.0
H406 H 0.02843 0.17037 0.82339 0.0
H407 H 0.93727 0.10164 0.86247 0.0
C408 C 0.99927 0.30368 0.86914 0.0
C409 C 0.98067 0.07199 0.90374 0.0
C410 C 0.11491 0.18509 0.83682 0.0
C411 C 0.03144 0.95988 0.84741 0.0
H412 H 0.92934 0.19658 0.91758 0.0
H413 H 0.93739 0.32382 0.89774 0.0
H414 H 0.0485 0.41352 0.84948 0.0
H415 H 0.11415 0.34853 0.83349 0.0
H416 H 0.14334 0.05474 0.81617 0.0
H417 H 0.09544 0.93305 0.8205 0.0
H418 H 0.97024 0.86105 0.86431 0.0
H419 H 0.94112 0.92393 0.89523 0.0
H420 H 0.9728 0.19236 0.79963 0.0
H421 H 0.8805 0.11976 0.83899 0.0
H422 H 0.1267 0.00078 0.91306 0.0
H423 H 0.11671 0.2445 0.91754 0.0
H424 H 0.93423 0.39375 0.43165 0.0
H425 H 0.93836 0.42304 0.46516 0.0
H426 H 0.05953 0.53077 0.4581 0.0
H427 H 0.05675 0.49577 0.42491 0.0
H428 H 0.06445 0.45158 0.48798 0.0
H429 H 0.95915 0.63378 0.46463 0.0
H430 H 0.89266 0.67057 0.44788 0.0
H431 H 0.82225 0.52569 0.4838 0.0
H432 H 0.888 0.48961 0.50105 0.0
H433 H 0.0796 0.64272 0.57524 0.0
H434 H 0.07377 0.61013 0.54189 0.0
H435 H 0.95355 0.50179 0.55082 0.0
H436 H 0.9583 0.53898 0.58389 0.0
H437 H 0.94713 0.57853 0.52028 0.0
H438 H 0.0503 0.39311 0.54295 0.0
H439 H 0.11576 0.354 0.56019 0.0
H440 H 0.18849 0.50278 0.52619 0.0
H441 H 0.12392 0.54027 0.50828 0.0
C442 C 0.96224 0.42169 0.43739 0.0
C443 C 0.99599 0.43977 0.42588 0.0
C444 C 0.96415 0.44021 0.45648 0.0
C445 C 0.99908 0.48004 0.46425 0.0
C446 C 0.03228 0.49983 0.45255 0.0
C447 C 0.0307 0.47997 0.43358 0.0
C448 C 1.00182 0.49943 0.48461 0.0
C449 C 0.03894 0.48028 0.49494 0.0
C450 C 0.9682 0.53482 0.49399 0.0
C451 C 0.92851 0.55858 0.48401 0.0
C452 C 0.92942 0.61003 0.46898 0.0
C453 C 0.89182 0.63103 0.45947 0.0
C454 C 0.85317 0.60076 0.46483 0.0
C455 C 0.85204 0.54981 0.4798 0.0
C456 C 0.88943 0.52934 0.4895 0.0
C457 C 0.05169 0.61306 0.56995 0.0
C458 C 0.01889 0.59496 0.58196 0.0
C459 C 0.04866 0.59317 0.55097 0.0
C460 C 0.01344 0.55243 0.54378 0.0
C461 C 0.98101 0.53325 0.55594 0.0
C462 C 0.98374 0.55429 0.57483 0.0
C463 C 0.00987 0.53128 0.52356 0.0
C464 C 0.97261 0.54989 0.51329 0.0
C465 C 0.0432 0.495 0.51424 0.0
C466 C 0.08233 0.46972 0.52438 0.0
C467 C 0.08038 0.41691 0.53908 0.0
C468 C 0.11738 0.39466 0.54888 0.0
C469 C 0.1564 0.42534 0.54418 0.0
C470 C 0.15849 0.47792 0.52959 0.0
C471 C 0.12176 0.49932 0.51953 0.0
H472 H 0.18498 0.40855 0.55187 0.0
H473 H 0.8241 0.61672 0.4574 0.0
H474 H 0.44516 0.49774 0.42462 0.0
H475 H 0.4476 0.46194 0.45758 0.0
H476 H 0.55154 0.61713 0.46786 0.0
H477 H 0.55254 0.64494 0.43423 0.0
H478 H 0.56699 0.50417 0.48761 0.0
H479 H 0.43519 0.65326 0.48317 0.0
H480 H 0.3653 0.6845 0.46864 0.0
H481 H 0.32511 0.45391 0.47566 0.0
H482 H 0.39424 0.42211 0.49068 0.0
H483 H 0.55574 0.49932 0.58642 0.0
H484 H 0.55524 0.53264 0.55331 0.0
H485 H 0.44889 0.38272 0.54295 0.0
H486 H 0.44607 0.35779 0.57664 0.0
H487 H 0.43492 0.49343 0.52315 0.0
H488 H 0.56597 0.34401 0.52804 0.0
H489 H 0.63643 0.31101 0.54172 0.0
H490 H 0.67864 0.5396 0.53338 0.0
H491 H 0.60881 0.57329 0.5193 0.0
C492 C 0.46945 0.52214 0.4338 0.0
C493 C 0.49979 0.57166 0.42673 0.0
C494 C 0.46995 0.50366 0.45287 0.0
C495 C 0.49902 0.53811 0.46559 0.0
C496 C 0.52869 0.58942 0.45852 0.0
C497 C 0.52916 0.60571 0.4393 0.0
C498 C 0.49928 0.51938 0.48608 0.0
C499 C 0.53808 0.50278 0.49539 0.0
C500 C 0.46172 0.51561 0.4964 0.0
C501 C 0.41979 0.53536 0.48794 0.0
C502 C 0.4113 0.60947 0.48166 0.0
C503 C 0.37179 0.6273 0.47341 0.0
C504 C 0.34074 0.57127 0.47123 0.0
C505 C 0.34906 0.49739 0.47741 0.0
C506 C 0.38825 0.47956 0.48593 0.0
C507 C 0.5314 0.47554 0.57716 0.0
C508 C 0.49977 0.42866 0.58423 0.0
C509 C 0.532 0.49253 0.55801 0.0
C510 C 0.50265 0.45911 0.54524 0.0
C511 C 0.47193 0.40982 0.55232 0.0
C512 C 0.47039 0.39515 0.57158 0.0
C513 C 0.50265 0.47778 0.52472 0.0
C514 C 0.46387 0.49461 0.5154 0.0
C515 C 0.54025 0.48155 0.5144 0.0
C516 C 0.58223 0.46115 0.52274 0.0
C517 C 0.59035 0.38708 0.52914 0.0
C518 C 0.63021 0.36822 0.53688 0.0
C519 C 0.66203 0.42314 0.5384 0.0
C520 C 0.65407 0.49702 0.53215 0.0
C521 C 0.61446 0.51591 0.52418 0.0
H522 H 0.69285 0.40848 0.54441 0.0
H523 H 0.31026 0.58509 0.46477 0.0
H524 H 0.43941 0.11449 0.07818 0.0
H525 H 0.43782 0.0799 0.04481 0.0
H526 H 0.57261 0.03988 0.04817 0.0
H527 H 0.57391 0.07443 0.08163 0.0
H528 H 0.54008 0.12329 0.01491 0.0
H529 H 0.50955 0.89197 0.05104 0.0
H530 H 0.46653 0.82817 0.07461 0.0
H531 H 0.35356 0.87455 0.04147 0.0
H532 H 0.3959 0.93933 0.01783 0.0
H533 H 0.57197 0.91746 0.93206 0.0
H534 H 0.57116 0.96121 0.96469 0.0
H535 H 0.43563 0.92897 0.96459 0.0
H536 H 0.43688 0.88398 0.93204 0.0
H537 H 0.4647 0.8868 0.99644 0.0
H538 H 0.48083 0.09929 0.95992 0.0
H539 H 0.50592 0.19152 0.93695 0.0
H540 H 0.62118 0.22131 0.96959 0.0
H541 H 0.59798 0.12583 0.99227 0.0
C542 C 0.46858 0.09884 0.07168 0.0
C543 C 0.50667 0.09646 0.0823 0.0
C544 C 0.46772 0.07911 0.05269 0.0
C545 C 0.50507 0.05662 0.04409 0.0
C546 C 0.54348 0.05702 0.05457 0.0
C547 C 0.54425 0.07648 0.0736 0.0
C548 C 0.5038 0.02896 0.02444 0.0
C549 C 0.52458 0.07072 0.01081 0.0
C550 C 0.48084 0.96333 0.01904 0.0
C551 C 0.45587 0.92035 0.03269 0.0
C552 C 0.47555 0.88831 0.04877 0.0
C553 C 0.45128 0.85213 0.06215 0.0
C554 C 0.40734 0.84723 0.05953 0.0
C555 C 0.3876 0.87818 0.04346 0.0
C556 C 0.41172 0.91448 0.03005 0.0
C557 C 0.54219 0.91921 0.93916 0.0
C558 C 0.50451 0.89716 0.92974 0.0
C559 C 0.54163 0.94461 0.95773 0.0
C560 C 0.50324 0.94944 0.96713 0.0
C561 C 0.46566 0.92581 0.95773 0.0
C562 C 0.46629 0.90012 0.93917 0.0
C563 C 0.50233 0.97999 0.98662 0.0
C564 C 0.48105 0.9388 1.00032 0.0
C565 C 0.52261 0.04908 0.99181 0.0
C566 C 0.53801 0.10361 0.97764 0.0
C567 C 0.51207 0.12374 0.96199 0.0
C568 C 0.52594 0.17682 0.94901 0.0
C569 C 0.56532 0.21172 0.95171 0.0
C570 C 0.59087 0.19362 0.96741 0.0
C571 C 0.57747 0.13963 0.98029 0.0
H572 H 0.57589 0.25321 0.94172 0.0
H573 H 0.38858 0.81947 0.06994 0.0
H574 H 0.07004 0.92342 0.07939 0.0
H575 H 0.06665 0.95419 0.04571 0.0
H576 H 0.93411 0.89489 0.04316 0.0
H577 H 0.93789 0.86323 0.07674 0.0
H578 H 0.04467 0.86774 0.01439 0.0
H579 H 0.88556 0.03759 0.01242 0.0
H580 H 0.8436 0.11526 0.03375 0.0
H581 H 0.9553 0.16193 0.06765 0.0
H582 H 0.99816 0.08657 0.04624 0.0
H583 H 0.98249 0.92654 0.92027 0.0
H584 H 0.98323 0.89352 0.95269 0.0
H585 H 0.99977 0.12824 0.96783 0.0
H586 H 0.99594 0.16374 0.93495 0.0
H587 H 0.94722 0.06921 0.99068 0.0
H588 H 0.08118 0.99611 0.96803 0.0
H589 H 0.13146 0.93199 0.94763 0.0
H590 H 0.08412 0.71518 0.96437 0.0
H591 H 0.0329 0.77785 0.98467 0.0
C592 C 0.04036 0.91676 0.07153 0.0
C593 C 0.00405 0.89194 0.08054 0.0
C594 C 0.03843 0.934 0.05235 0.0
C595 C 1.00004 0.92747 0.04195 0.0
C596 C 0.96394 0.90113 0.05094 0.0
C597 C 0.96605 0.88312 0.07005 0.0
C598 C 0.99757 0.94957 0.02182 0.0
C599 C 0.02308 0.91125 0.00916 0.0
C600 C 0.9703 0.00801 0.0151 0.0
C601 C 0.94492 0.05473 0.02794 0.0
C602 C 0.90124 0.06463 0.02439 0.0
C603 C 0.87729 0.10849 0.03647 0.0
C604 C 0.8967 0.14301 0.05213 0.0
C605 C 0.94021 0.13457 0.05561 0.0
C606 C 0.96434 0.0912 0.04351 0.0
C607 C 0.984 0.97283 0.93001 0.0
C608 C 0.98491 0.04949 0.92424 0.0
C609 C 0.98567 0.95284 0.94895 0.0
C610 C 0.99091 0.00819 0.96288 0.0
C611 C 0.99437 0.08435 0.95739 0.0
C612 C 0.9917 0.10464 0.93838 0.0
C613 C 0.99373 0.98634 0.98308 0.0
C614 C 0.96826 0.02466 0.99581 0.0
C615 C 0.02201 0.92944 0.98995 0.0
C616 C 0.05286 0.89172 0.97776 0.0
C617 C 0.08124 0.93478 0.9673 0.0
C618 C 0.10996 0.89872 0.95575 0.0
C619 C 0.11096 0.81967 0.95469 0.0
C620 C 0.08326 0.77644 0.96519 0.0
C621 C 0.05437 0.81218 0.97672 0.0
H622 H 0.13324 0.79191 0.94574 0.0
H623 H 0.87807 0.17662 0.06152 0.0
H624 H 0.66077 0.22783 0.1814 0.0
H625 H 0.71951 0.25304 0.20358 0.0
H626 H 0.64603 0.16742 0.24879 0.0
H627 H 0.58781 0.13797 0.22665 0.0
H628 H 0.68439 0.30937 0.25653 0.0
H629 H 0.72191 0.06244 0.23494 0.0
H630 H 0.73549 0.96425 0.21128 0.0
H631 H 0.83744 0.09707 0.19027 0.0
H632 H 0.82394 0.19678 0.2136 0.0
H633 H 0.84948 0.27901 0.32661 0.0
H634 H 0.79168 0.25062 0.30418 0.0
H635 H 0.86529 0.33793 0.25919 0.0
H636 H 0.92276 0.36967 0.28158 0.0
H637 H 0.82705 0.19477 0.25134 0.0
H638 H 0.78868 0.44234 0.27275 0.0
H639 H 0.77627 0.53865 0.29703 0.0
H640 H 0.67645 0.40267 0.31877 0.0
H641 H 0.68873 0.30499 0.29477 0.0
C642 C 0.65721 0.21263 0.19596 0.0
C643 C 0.61919 0.18078 0.20211 0.0
C644 C 0.69083 0.22774 0.20867 0.0
C645 C 0.68712 0.21208 0.22783 0.0
C646 C 0.64945 0.18023 0.23407 0.0
C647 C 0.61606 0.16392 0.22135 0.0
C648 C 0.72236 0.23011 0.24138 0.0
C649 C 0.71542 0.28359 0.25555 0.0
C650 C 0.76307 0.19758 0.23985 0.0
C651 C 0.77156 0.1375 0.22589 0.0
C652 C 0.74699 0.071 0.22518 0.0
C653 C 0.75473 0.01499 0.21185 0.0
C654 C 0.78726 0.02447 0.19926 0.0
C655 C 0.81222 0.08986 0.20002 0.0
C656 C 0.80454 0.14615 0.2133 0.0
C657 C 0.85328 0.29359 0.31202 0.0
C658 C 0.89101 0.3269 0.30601 0.0
C659 C 0.82023 0.27669 0.29918 0.0
C660 C 0.8242 0.29221 0.28003 0.0
C661 C 0.86171 0.32508 0.2739 0.0
C662 C 0.89462 0.34287 0.28676 0.0
C663 C 0.78907 0.27407 0.26643 0.0
C664 C 0.79602 0.22059 0.25229 0.0
C665 C 0.74836 0.3065 0.26798 0.0
C666 C 0.73991 0.36609 0.28206 0.0
C667 C 0.76421 0.4329 0.28275 0.0
C668 C 0.75713 0.48779 0.29643 0.0
C669 C 0.72554 0.47686 0.30941 0.0
C670 C 0.70083 0.41115 0.30867 0.0
C671 C 0.70782 0.35601 0.29502 0.0
H672 H 0.72025 0.51927 0.32005 0.0
H673 H 0.79314 0.98115 0.18892 0.0
H674 H 0.58574 0.20101 0.70876 0.0
H675 H 0.64572 0.17056 0.72998 0.0
H676 H 0.69642 0.39507 0.72175 0.0
H677 H 0.63751 0.42378 0.69974 0.0
H678 H 0.75716 0.30446 0.72177 0.0
H679 H 0.6386 0.32563 0.76269 0.0
H680 H 0.5693 0.29532 0.7755 0.0
H681 H 0.6095 0.066 0.78567 0.0
H682 H 0.67901 0.09463 0.77264 0.0
H683 H 0.90872 0.28963 0.7979 0.0
H684 H 0.84974 0.32055 0.77617 0.0
H685 H 0.7989 0.09558 0.78336 0.0
H686 H 0.85685 0.06611 0.80579 0.0
H687 H 0.73818 0.18812 0.78414 0.0
H688 H 0.85497 0.16462 0.74249 0.0
H689 H 0.92466 0.19325 0.72969 0.0
H690 H 0.88735 0.42504 0.72094 0.0
H691 H 0.81756 0.39793 0.73394 0.0
C692 C 0.6097 0.2438 0.71158 0.0
C693 C 0.60695 0.31488 0.70272 0.0
C694 C 0.64385 0.22663 0.72383 0.0
C695 C 0.67529 0.28108 0.72799 0.0
C696 C 0.67259 0.35202 0.71896 0.0
C697 C 0.63894 0.36855 0.70638 0.0
C698 C 0.71165 0.26367 0.74122 0.0
C699 C 0.75285 0.28002 0.73553 0.0
C700 C 0.70643 0.22964 0.75903 0.0
C701 C 0.66414 0.21233 0.76654 0.0
C702 C 0.63274 0.26866 0.76752 0.0
C703 C 0.59333 0.25173 0.77484 0.0
C704 C 0.58496 0.17875 0.78136 0.0
C705 C 0.61598 0.1225 0.78058 0.0
C706 C 0.6554 0.13908 0.77322 0.0
C707 C 0.8851 0.24667 0.79468 0.0
C708 C 0.88742 0.17537 0.80346 0.0
C709 C 0.85145 0.2642 0.78217 0.0
C710 C 0.82004 0.21003 0.77773 0.0
C711 C 0.82261 0.13852 0.78645 0.0
C712 C 0.85577 0.12155 0.79925 0.0
C713 C 0.7836 0.2284 0.76462 0.0
C714 C 0.74242 0.21252 0.77037 0.0
C715 C 0.78879 0.26271 0.74686 0.0
C716 C 0.8311 0.27924 0.73935 0.0
C717 C 0.8617 0.22176 0.73798 0.0
C718 C 0.90123 0.23774 0.73066 0.0
C719 C 0.91047 0.31096 0.72454 0.0
C720 C 0.88018 0.36836 0.72571 0.0
C721 C 0.84063 0.35269 0.73305 0.0
H722 H 0.94106 0.3232 0.71884 0.0
H723 H 0.55445 0.16582 0.78705 0.0
H724 H 0.15751 0.77252 0.68359 0.0
H725 H 0.21473 0.79419 0.70696 0.0
H726 H 0.14238 0.68049 0.74878 0.0
H727 H 0.08493 0.65869 0.72545 0.0
H728 H 0.18003 0.81765 0.76154 0.0
H729 H 0.21904 0.58721 0.73054 0.0
H730 H 0.23352 0.50633 0.70329 0.0
H731 H 0.3335 0.65609 0.6877 0.0
H732 H 0.31931 0.7384 0.71476 0.0
H733 H 0.34414 0.76017 0.83039 0.0
H734 H 0.28621 0.74249 0.80731 0.0
H735 H 0.36347 0.83571 0.76422 0.0
H736 H 0.42218 0.85118 0.78712 0.0
H737 H 0.32287 0.7097 0.75203 0.0
H738 H 0.28365 0.94098 0.7828 0.0
H739 H 0.26948 0.02172 0.81013 0.0
H740 H 0.17038 0.87088 0.82615 0.0
H741 H 0.18416 0.78888 0.79898 0.0
C742 C 0.15369 0.75254 0.69779 0.0
C743 C 0.11678 0.71367 0.70267 0.0
C744 C 0.18646 0.76465 0.7111 0.0
C745 C 0.18287 0.7386 0.72957 0.0
C746 C 0.14578 0.70098 0.73459 0.0
C747 C 0.11317 0.68808 0.72123 0.0
C748 C 0.21817 0.74954 0.74356 0.0
C749 C 0.21113 0.79334 0.75959 0.0
C750 C 0.25896 0.71915 0.74078 0.0
C751 C 0.26773 0.66954 0.72455 0.0
C752 C 0.24379 0.60339 0.72119 0.0
C753 C 0.25201 0.55719 0.7058 0.0
C754 C 0.28426 0.57627 0.69372 0.0
C755 C 0.30849 0.64143 0.69705 0.0
C756 C 0.3004 0.68785 0.71243 0.0
C757 C 0.34896 0.77657 0.81598 0.0
C758 C 0.3879 0.80718 0.81064 0.0
C759 C 0.31563 0.76705 0.80283 0.0
C760 C 0.32029 0.78849 0.78405 0.0
C761 C 0.35908 0.81898 0.77864 0.0
C762 C 0.39248 0.82848 0.7918 0.0
C763 C 0.28487 0.77815 0.77003 0.0
C764 C 0.29184 0.73429 0.75398 0.0
C765 C 0.24404 0.80862 0.77277 0.0
C766 C 0.23522 0.85841 0.78896 0.0
C767 C 0.25904 0.92474 0.79222 0.0
C768 C 0.25106 0.97074 0.80768 0.0
C769 C 0.21915 0.9513 0.8199 0.0
C770 C 0.19507 0.88588 0.81666 0.0
C771 C 0.20292 0.83966 0.80123 0.0
H772 H 0.21299 0.98705 0.83184 0.0
H773 H 0.29058 0.54041 0.68182 0.0
H774 H 0.35002 0.73604 0.32732 0.0
H775 H 0.29217 0.76218 0.30461 0.0
H776 H 0.36458 0.66294 0.26065 0.0
H777 H 0.42225 0.63539 0.28327 0.0
H778 H 0.32792 0.79885 0.2499 0.0
H779 H 0.28618 0.56597 0.27918 0.0
H780 H 0.2711 0.48409 0.30616 0.0
H781 H 0.17176 0.63481 0.32207 0.0
H782 H 0.18676 0.71846 0.29537 0.0
H783 H 0.16149 0.74785 0.18071 0.0
H784 H 0.21978 0.72657 0.20352 0.0
H785 H 0.14758 0.83248 0.24658 0.0
H786 H 0.08981 0.85654 0.22383 0.0
H787 H 0.18377 0.69461 0.25799 0.0
H788 H 0.22493 0.92759 0.22934 0.0
H789 H 0.24037 0.01275 0.20303 0.0
H790 H 0.34038 0.8648 0.18644 0.0
H791 H 0.32517 0.77809 0.21252 0.0
C792 C 0.35345 0.71881 0.31288 0.0
C793 C 0.39084 0.68346 0.30716 0.0
C794 C 0.32044 0.73425 0.29989 0.0
C795 C 0.32403 0.71434 0.28094 0.0
C796 C 0.36126 0.67923 0.27517 0.0
C797 C 0.39421 0.66361 0.28814 0.0
C798 C 0.28881 0.72932 0.26713 0.0
C799 C 0.29655 0.77525 0.25153 0.0
C800 C 0.24762 0.70005 0.26953 0.0
C801 C 0.23795 0.64901 0.28539 0.0
C802 C 0.26141 0.58212 0.28854 0.0
C803 C 0.2529 0.53541 0.3038 0.0
C804 C 0.22065 0.55444 0.31588 0.0
C805 C 0.19678 0.62019 0.31271 0.0
C806 C 0.20529 0.66732 0.29752 0.0
C807 C 0.15819 0.76783 0.19494 0.0
C808 C 0.12071 0.80376 0.20037 0.0
C809 C 0.19147 0.7551 0.208 0.0
C810 C 0.18794 0.77781 0.22676 0.0
C811 C 0.15079 0.81392 0.23222 0.0
C812 C 0.11771 0.82733 0.21916 0.0
C813 C 0.22297 0.76381 0.24071 0.0
C814 C 0.21517 0.71811 0.25635 0.0
C815 C 0.26406 0.79351 0.23838 0.0
C816 C 0.2735 0.84575 0.22274 0.0
C817 C 0.2499 0.91271 0.21996 0.0
C818 C 0.25866 0.96134 0.2051 0.0
C819 C 0.29118 0.94399 0.19302 0.0
C820 C 0.31515 0.87811 0.19581 0.0
C821 C 0.30649 0.82919 0.21063 0.0
H822 H 0.2979 0.98173 0.18153 0.0
H823 H 0.21403 0.51805 0.32764 0.0
H824 H 0.40869 0.22398 0.21235 0.0
H825 H 0.36273 0.24705 0.23882 0.0
H826 H 0.25283 0.20158 0.2031 0.0
H827 H 0.29914 0.1787 0.17653 0.0
H828 H 0.24293 0.32929 0.22501 0.0
H829 H 0.28608 0.07301 0.23337 0.0
H830 H 0.33602 0.96579 0.23629 0.0
H831 H 0.39256 0.06514 0.28598 0.0
H832 H 0.34374 0.17399 0.28308 0.0
H833 H 0.09713 0.29376 0.2986 0.0
H834 H 0.14138 0.26708 0.27173 0.0
H835 H 0.25335 0.31674 0.30576 0.0
H836 H 0.20878 0.34345 0.33271 0.0
H837 H 0.26095 0.18468 0.2844 0.0
H838 H 0.2165 0.44121 0.27566 0.0
H839 H 0.16598 0.5474 0.27241 0.0
H840 H 0.11032 0.44488 0.22293 0.0
H841 H 0.1598 0.33709 0.22619 0.0
C842 C 0.37468 0.21937 0.21021 0.0
C843 C 0.35717 0.20044 0.1925 0.0
C844 C 0.34851 0.2321 0.2253 0.0
C845 C 0.30434 0.22567 0.22297 0.0
C846 C 0.2868 0.20707 0.20519 0.0
C847 C 0.3131 0.194 0.19007 0.0
C848 C 0.2767 0.23878 0.23914 0.0
C849 C 0.24636 0.29688 0.23789 0.0
C850 C 0.28189 0.19748 0.25609 0.0
C851 C 0.31145 0.1321 0.25788 0.0
C852 C 0.30943 0.07237 0.24481 0.0
C853 C 0.33747 0.01122 0.24648 0.0
C854 C 0.36738 0.00861 0.26131 0.0
C855 C 0.36937 0.06724 0.27449 0.0
C856 C 0.34153 0.12874 0.27282 0.0
C857 C 0.13123 0.29854 0.30028 0.0
C858 C 0.14982 0.31992 0.31762 0.0
C859 C 0.15642 0.28364 0.28497 0.0
C860 C 0.20067 0.29017 0.28671 0.0
C861 C 0.2193 0.31106 0.30413 0.0
C862 C 0.19399 0.32636 0.31946 0.0
C863 C 0.22733 0.27545 0.2703 0.0
C864 C 0.25746 0.21698 0.2715 0.0
C865 C 0.22174 0.31611 0.25326 0.0
C866 C 0.19168 0.38068 0.25131 0.0
C867 C 0.19324 0.441 0.26421 0.0
C868 C 0.16485 0.50154 0.26234 0.0
C869 C 0.13502 0.50297 0.24746 0.0
C870 C 0.13346 0.44371 0.23446 0.0
C871 C 0.16165 0.38281 0.23633 0.0
H872 H 0.11314 0.55001 0.24601 0.0
H873 H 0.38899 0.96112 0.26261 0.0
H874 H 0.28784 0.32633 0.67861 0.0
H875 H 0.24345 0.30434 0.70586 0.0
H876 H 0.3558 0.26667 0.74061 0.0
H877 H 0.39989 0.28841 0.71342 0.0
H878 H 0.23666 0.17903 0.72961 0.0
H879 H 0.33676 0.3502 0.78475 0.0
H880 H 0.38579 0.45897 0.7859 0.0
H881 H 0.3298 0.54515 0.73461 0.0
H882 H 0.27934 0.43849 0.73348 0.0
H883 H 0.20156 0.1876 0.83683 0.0
H884 H 0.24661 0.21298 0.80997 0.0
H885 H 0.13504 0.25491 0.77503 0.0
H886 H 0.09031 0.23003 0.80182 0.0
H887 H 0.25411 0.34068 0.78628 0.0
H888 H 0.15406 0.16796 0.7312 0.0
H889 H 0.10605 0.0577 0.73011 0.0
H890 H 0.16319 0.97315 0.78134 0.0
H891 H 0.21242 0.08156 0.78245 0.0
C892 C 0.30277 0.31251 0.69206 0.0
C893 C 0.34701 0.30832 0.69402 0.0
C894 C 0.27755 0.30002 0.70758 0.0
C895 C 0.29632 0.28435 0.72531 0.0
C896 C 0.34063 0.2793 0.72714 0.0
C897 C 0.36574 0.29128 0.71163 0.0
C898 C 0.26974 0.27419 0.74198 0.0
C899 C 0.24001 0.21506 0.74189 0.0
C900 C 0.27497 0.32007 0.75821 0.0
C901 C 0.30457 0.38561 0.75892 0.0
C902 C 0.33466 0.39262 0.77378 0.0
C903 C 0.36263 0.45406 0.77445 0.0
C904 C 0.36085 0.50896 0.76033 0.0
C905 C 0.33098 0.5027 0.74555 0.0
C906 C 0.3027 0.44175 0.74489 0.0
C907 C 0.18695 0.20362 0.82347 0.0
C908 C 0.14271 0.20803 0.82135 0.0
C909 C 0.21255 0.21795 0.80816 0.0
C910 C 0.19417 0.23548 0.79046 0.0
C911 C 0.14991 0.2411 0.7885 0.0
C912 C 0.12443 0.2274 0.80379 0.0
C913 C 0.22097 0.24567 0.77387 0.0
C914 C 0.25073 0.30474 0.77398 0.0
C915 C 0.21584 0.19966 0.75766 0.0
C916 C 0.18663 0.13358 0.75703 0.0
C917 C 0.15657 0.12565 0.74219 0.0
C918 C 0.1292 0.06334 0.74155 0.0
C919 C 0.1316 0.00845 0.75566 0.0
C920 C 0.16145 0.01563 0.77042 0.0
C921 C 0.18908 0.07753 0.77106 0.0
H922 H 0.11035 0.96032 0.75516 0.0
H923 H 0.38259 0.55637 0.76084 0.0
H924 H 0.59847 0.70816 0.79693 0.0
H925 H 0.64828 0.68741 0.77166 0.0
H926 H 0.74757 0.79342 0.80527 0.0
H927 H 0.69811 0.81202 0.83074 0.0
H928 H 0.73649 0.85485 0.76913 0.0
H929 H 0.75174 0.61452 0.79889 0.0
H930 H 0.73349 0.48916 0.81151 0.0
H931 H 0.68879 0.41808 0.75687 0.0
H932 H 0.70503 0.54353 0.74404 0.0
H933 H 0.91022 0.76701 0.71018 0.0
H934 H 0.86227 0.78415 0.7363 0.0
H935 H 0.76406 0.66446 0.70501 0.0
H936 H 0.81195 0.64806 0.67887 0.0
H937 H 0.77597 0.6097 0.74051 0.0
H938 H 0.75763 0.85266 0.71119 0.0
H939 H 0.77829 0.97672 0.69846 0.0
H940 H 0.83155 0.04064 0.7523 0.0
H941 H 0.81174 0.91681 0.76528 0.0
C942 C 0.6312 0.72534 0.79902 0.0
C943 C 0.64472 0.76109 0.81575 0.0
C944 C 0.65954 0.71364 0.78462 0.0
C945 C 0.70164 0.73865 0.78664 0.0
C946 C 0.71526 0.77352 0.80347 0.0
C947 C 0.68713 0.78401 0.81797 0.0
C948 C 0.73058 0.73344 0.77072 0.0
C949 C 0.74561 0.80116 0.76302 0.0
C950 C 0.74156 0.66338 0.76251 0.0
C951 C 0.729 0.58928 0.77054 0.0
C952 C 0.73705 0.57284 0.78963 0.0
C953 C 0.72715 0.50147 0.79683 0.0
C954 C 0.70968 0.44565 0.78503 0.0
C955 C 0.7019 0.46129 0.76605 0.0
C956 C 0.71132 0.53267 0.75881 0.0
C957 C 0.87817 0.74543 0.70887 0.0
C958 C 0.86453 0.70635 0.69263 0.0
C959 C 0.85083 0.75531 0.72372 0.0
C960 C 0.80951 0.72592 0.72256 0.0
C961 C 0.79577 0.68766 0.70619 0.0
C962 C 0.82299 0.67838 0.6913 0.0
C963 C 0.78142 0.73102 0.7388 0.0
C964 C 0.76666 0.66333 0.7466 0.0
C965 C 0.77068 0.80102 0.74711 0.0
C966 C 0.78366 0.87491 0.73915 0.0
C967 C 0.77424 0.89278 0.72026 0.0
C968 C 0.78565 0.96328 0.71301 0.0
C969 C 0.80626 0.01661 0.72455 0.0
C970 C 0.81556 0.99948 0.74336 0.0
C971 C 0.80426 0.9291 0.75067 0.0
H972 H 0.81494 0.07124 0.71893 0.0
H973 H 0.70241 0.39017 0.79056 0.0
H974 H 0.91079 0.75734 0.21108 0.0
H975 H 0.86582 0.73864 0.23806 0.0
H976 H 0.757 0.81266 0.20475 0.0
H977 H 0.80241 0.83214 0.17779 0.0
H978 H 0.75816 0.87768 0.2383 0.0
H979 H 0.77435 0.62223 0.21602 0.0
H980 H 0.81255 0.50716 0.20655 0.0
H981 H 0.8736 0.49399 0.26111 0.0
H982 H 0.83601 0.60924 0.27087 0.0
H983 H 0.6003 0.75279 0.3004 0.0
H984 H 0.64594 0.77682 0.27394 0.0
H985 H 0.75402 0.69733 0.30693 0.0
H986 H 0.7079 0.67227 0.33334 0.0
H987 H 0.75346 0.63587 0.27356 0.0
H988 H 0.73713 0.89134 0.29591 0.0
H989 H 0.69912 0.00678 0.30529 0.0
H990 H 0.6384 0.01985 0.25066 0.0
H991 H 0.67589 0.90445 0.24098 0.0
C992 C 0.87715 0.76867 0.20955 0.0
C993 C 0.85968 0.79483 0.1924 0.0
C994 C 0.85148 0.75786 0.22491 0.0
C995 C 0.80784 0.77287 0.22337 0.0
C996 C 0.7905 0.80007 0.20624 0.0
C997 C 0.81626 0.81091 0.19085 0.0
C998 C 0.78062 0.76257 0.23982 0.0
C999 C 0.75662 0.82442 0.24584 0.0
C1000 C 0.77965 0.69379 0.25006 0.0
C1001 C 0.8027 0.62494 0.2441 0.0
C1002 C 0.79621 0.59521 0.22594 0.0
C1003 C 0.81766 0.52977 0.22054 0.0
C1004 C 0.84553 0.49333 0.23321 0.0
C1005 C 0.85205 0.52229 0.2513 0.0
C1006 C 0.83062 0.58759 0.25678 0.0
C1007 C 0.63398 0.742 0.30204 0.0
C1008 C 0.65097 0.71232 0.31893 0.0
C1009 C 0.66005 0.7558 0.28696 0.0
C1010 C 0.70366 0.74031 0.28851 0.0
C1011 C 0.72059 0.71046 0.30544 0.0
C1012 C 0.69442 0.69653 0.32054 0.0
C1013 C 0.73106 0.75106 0.27212 0.0
C1014 C 0.75507 0.68921 0.26607 0.0
C1015 C 0.73204 0.81985 0.26187 0.0
C1016 C 0.70899 0.88871 0.26779 0.0
C1017 C 0.71539 0.91846 0.28595 0.0
C1018 C 0.69405 0.9841 0.2913 0.0
C1019 C 0.66635 0.02066 0.27858 0.0
C1020 C 0.65989 0.99161 0.2605 0.0
C1021 C 0.68122 0.92615 0.25507 0.0
H1022 H 0.64993 0.07154 0.28273 0.0
H1023 H 0.86202 0.44258 0.22901 0.0
H1024 H 0.36985 0.31496 0.56358 0.0
H1025 H 0.33346 0.32719 0.53312 0.0
H1026 H 0.25492 0.50456 0.55478 0.0
H1027 H 0.29014 0.49086 0.58574 0.0
H1028 H 0.24655 0.30727 0.52507 0.0
H1029 H 0.24112 0.63408 0.51356 0.0
H1030 H 0.28203 0.74828 0.52242 0.0
H1031 H 0.39331 0.61246 0.53224 0.0
H1032 H 0.35335 0.49769 0.52319 0.0
H1033 H 0.10516 0.3818 0.44958 0.0
H1034 H 0.14066 0.39356 0.48044 0.0
H1035 H 0.25471 0.46727 0.45416 0.0
H1036 H 0.21819 0.45958 0.42326 0.0
H1037 H 0.24699 0.54022 0.48611 0.0
H1038 H 0.23808 0.27599 0.46767 0.0
H1039 H 0.20012 0.16055 0.45715 0.0
H1040 H 0.12475 0.16788 0.50615 0.0
H1041 H 0.16195 0.28387 0.51683 0.0
C1042 C 0.34438 0.35582 0.56208 0.0
C1043 C 0.3326 0.40112 0.57732 0.0
C1044 C 0.32385 0.3631 0.54455 0.0
C1045 C 0.29155 0.41674 0.54169 0.0
C1046 C 0.28003 0.46315 0.55668 0.0
C1047 C 0.3003 0.45533 0.57435 0.0
C1048 C 0.26923 0.42194 0.52311 0.0
C1049 C 0.24668 0.35829 0.51657 0.0
C1050 C 0.26967 0.48838 0.51197 0.0
C1051 C 0.29399 0.55693 0.51785 0.0
C1052 C 0.27433 0.62849 0.51759 0.0
C1053 C 0.29739 0.6934 0.52264 0.0
C1054 C 0.34022 0.68758 0.52794 0.0
C1055 C 0.36007 0.61682 0.52823 0.0
C1056 C 0.33717 0.55177 0.5232 0.0
C1057 C 0.13767 0.40131 0.45046 0.0
C1058 C 0.15921 0.4189 0.4341 0.0
C1059 C 0.15801 0.40773 0.46807 0.0
C1060 C 0.2008 0.42927 0.46965 0.0
C1061 C 0.22181 0.45006 0.45333 0.0
C1062 C 0.20106 0.44538 0.43569 0.0
C1063 C 0.22422 0.4256 0.48811 0.0
C1064 C 0.24686 0.4894 0.49466 0.0
C1065 C 0.22447 0.35902 0.49923 0.0
C1066 C 0.20263 0.28867 0.49299 0.0
C1067 C 0.21333 0.25303 0.47616 0.0
C1068 C 0.19194 0.18756 0.47017 0.0
C1069 C 0.16002 0.15695 0.48096 0.0
C1070 C 0.14948 0.19164 0.4978 0.0
C1071 C 0.17073 0.25717 0.50384 0.0
H1072 H 0.14347 0.1063 0.47629 0.0
H1073 H 0.35803 0.73792 0.5318 0.0
H1074 H 0.90176 0.63496 0.55757 0.0
H1075 H 0.86492 0.62036 0.52707 0.0
H1076 H 0.75307 0.5441 0.55471 0.0
H1077 H 0.79096 0.55492 0.58526 0.0
H1078 H 0.76036 0.47047 0.52254 0.0
H1079 H 0.76637 0.73371 0.54155 0.0
H1080 H 0.80297 0.85047 0.55208 0.0
H1081 H 0.87555 0.85026 0.50221 0.0
H1082 H 0.83972 0.73302 0.4915 0.0
H1083 H 0.62838 0.69026 0.44773 0.0
H1084 H 0.66715 0.67798 0.47764 0.0
H1085 H 0.74949 0.51176 0.45364 0.0
H1086 H 0.71179 0.52568 0.42321 0.0
H1087 H 0.75536 0.70485 0.48406 0.0
H1088 H 0.76656 0.37809 0.49447 0.0
H1089 H 0.72691 0.26222 0.48582 0.0
H1090 H 0.61292 0.39253 0.47808 0.0
H1091 H 0.6516 0.5089 0.48692 0.0
C1092 C 0.86951 0.61403 0.55705 0.0
C1093 C 0.84886 0.5968 0.57365 0.0
C1094 C 0.84844 0.60596 0.53967 0.0
C1095 C 0.80584 0.58304 0.53862 0.0
C1096 C 0.78583 0.56229 0.55518 0.0
C1097 C 0.80732 0.56873 0.57259 0.0
C1098 C 0.78141 0.58618 0.52047 0.0
C1099 C 0.7594 0.52152 0.51406 0.0
C1100 C 0.7796 0.65321 0.50954 0.0
C1101 C 0.80056 0.72445 0.51579 0.0
C1102 C 0.79023 0.7585 0.53287 0.0
C1103 C 0.81085 0.82472 0.53887 0.0
C1104 C 0.84161 0.85771 0.52783 0.0
C1105 C 0.85173 0.82465 0.51075 0.0
C1106 C 0.83125 0.75837 0.50469 0.0
C1107 C 0.65514 0.65189 0.44862 0.0
C1108 C 0.66731 0.60982 0.4329 0.0
C1109 C 0.67702 0.64454 0.46581 0.0
C1110 C 0.71106 0.59397 0.46781 0.0
C1111 C 0.72301 0.55068 0.45235 0.0
C1112 C 0.70137 0.55862 0.43501 0.0
C1113 C 0.73472 0.58893 0.48601 0.0
C1114 C 0.75656 0.65349 0.49243 0.0
C1115 C 0.73585 0.52203 0.49697 0.0
C1116 C 0.71223 0.45259 0.49117 0.0
C1117 C 0.73303 0.3821 0.49093 0.0
C1118 C 0.71069 0.31626 0.486 0.0
C1119 C 0.66745 0.32007 0.48135 0.0
C1120 C 0.64647 0.38974 0.48158 0.0
C1121 C 0.66866 0.45574 0.48648 0.0
H1122 H 0.6502 0.26901 0.47759 0.0
H1123 H 0.85755 0.90894 0.53251 0.0
H1124 H 0.7898 0.78218 0.08444 0.0
H1125 H 0.75631 0.78246 0.053 0.0
H1126 H 0.84137 0.95879 0.03618 0.0
H1127 H 0.87411 0.96086 0.06774 0.0
H1128 H 0.76609 0.98257 0.02045 0.0
H1129 H 0.86133 0.77386 0.02622 0.0
H1130 H 0.89261 0.65896 0.04067 0.0
H1131 H 0.77459 0.54117 0.03229 0.0
H1132 H 0.74238 0.65584 0.01805 0.0
H1133 H 0.72841 0.91763 0.92236 0.0
H1134 H 0.76651 0.92484 0.95286 0.0
H1135 H 0.67965 0.7631 0.97566 0.0
H1136 H 0.64185 0.75537 0.9454 0.0
H1137 H 0.76101 0.73487 0.98741 0.0
H1138 H 0.66817 0.95199 0.97983 0.0
H1139 H 0.64471 0.06415 0.96189 0.0
H1140 H 0.76521 0.17055 0.97284 0.0
H1141 H 0.79057 0.0564 0.98974 0.0
C1142 C 0.80086 0.82189 0.0741 0.0
C1143 C 0.83464 0.87122 0.0785 0.0
C1144 C 0.78188 0.82181 0.05614 0.0
C1145 C 0.79697 0.86987 0.04214 0.0
C1146 C 0.82929 0.92164 0.04679 0.0
C1147 C 0.84787 0.92267 0.06482 0.0
C1148 C 0.78067 0.8634 0.02244 0.0
C1149 C 0.76534 0.92855 0.01317 0.0
C1150 C 0.77995 0.79304 0.01287 0.0
C1151 C 0.79933 0.72365 0.02122 0.0
C1152 C 0.84196 0.7236 0.02756 0.0
C1153 C 0.85987 0.65851 0.03571 0.0
C1154 C 0.83558 0.59285 0.03743 0.0
C1155 C 0.79335 0.5921 0.03096 0.0
C1156 C 0.77526 0.65711 0.02284 0.0
C1157 C 0.71767 0.88342 0.93388 0.0
C1158 C 0.68225 0.83578 0.93147 0.0
C1159 C 0.73948 0.88739 0.95125 0.0
C1160 C 0.72571 0.84483 0.96657 0.0
C1161 C 0.69099 0.79603 0.96403 0.0
C1162 C 0.66945 0.79165 0.9467 0.0
C1163 C 0.74562 0.85361 0.98557 0.0
C1164 C 0.76177 0.78887 0.99471 0.0
C1165 C 0.74773 0.9246 0.99486 0.0
C1166 C 0.73147 0.99514 0.98585 0.0
C1167 C 0.6898 0.99905 0.97833 0.0
C1168 C 0.67618 0.06301 0.9683 0.0
C1169 C 0.70331 0.12482 0.96634 0.0
C1170 C 0.74422 0.12262 0.97436 0.0
C1171 C 0.75837 0.05801 0.98404 0.0
H1172 H 0.69271 0.17432 0.95855 0.0
H1173 H 0.84949 0.5425 0.04374 0.0
H1174 H 0.3669 0.03126 0.06777 0.0
H1175 H 0.32738 0.02805 0.03768 0.0
H1176 H 0.26071 0.23149 0.05288 0.0
H1177 H 0.29898 0.23352 0.08313 0.0
H1178 H 0.20752 0.13973 0.03814 0.0
H1179 H 0.33922 0.23254 0.02186 0.0
H1180 H 0.41591 0.24579 0.01781 0.0
H1181 H 0.41591 0.04495 0.98386 0.0
H1182 H 0.33944 0.02848 0.98831 0.0
H1183 H 0.11526 0.21859 0.94836 0.0
H1184 H 0.15607 0.22345 0.97758 0.0
H1185 H 0.22461 0.02302 0.96173 0.0
H1186 H 0.18754 0.02353 0.9312 0.0
H1187 H 0.27707 0.11445 0.97719 0.0
H1188 H 0.13328 0.04131 0.99586 0.0
H1189 H 0.05706 0.06397 0.99882 0.0
H1190 H 0.08192 0.27202 0.02796 0.0
H1191 H 0.15864 0.25247 0.02476 0.0
C1192 C 0.34334 0.07464 0.06481 0.0
C1193 C 0.33595 0.13253 0.07791 0.0
C1194 C 0.32118 0.07332 0.04748 0.0
C1195 C 0.29125 0.12991 0.04289 0.0
C1196 C 0.28358 0.18715 0.05605 0.0
C1197 C 0.30567 0.1885 0.07333 0.0
C1198 C 0.26704 0.12886 0.02461 0.0
C1199 C 0.22284 0.13472 0.0248 0.0
C1200 C 0.28688 0.12287 0.00716 0.0
C1201 C 0.33354 0.12872 0.00563 0.0
C1202 C 0.35568 0.19006 0.01389 0.0
C1203 C 0.39913 0.19826 0.0115 0.0
C1204 C 0.42075 0.14619 1.00061 0.0
C1205 C 0.39916 0.08498 0.99238 0.0
C1206 C 0.35575 0.07603 0.99488 0.0
C1207 C 0.13961 0.17622 0.95073 0.0
C1208 C 0.14811 0.12108 0.93701 0.0
C1209 C 0.16236 0.178 0.96786 0.0
C1210 C 0.19285 0.12236 0.97232 0.0
C1211 C 0.2011 0.06652 0.95881 0.0
C1212 C 0.17937 0.0663 0.94134 0.0
C1213 C 0.21727 0.12375 0.99068 0.0
C1214 C 0.26171 0.1182 0.99053 0.0
C1215 C 0.19781 0.1341 0.00818 0.0
C1216 C 0.15167 0.1456 0.00991 0.0
C1217 C 0.12253 0.09216 1.00277 0.0
C1218 C 0.0792 0.1044 1.00452 0.0
C1219 C 0.06446 0.16888 0.01359 0.0
C1220 C 0.09325 0.22194 0.02092 0.0
C1221 C 0.13669 0.21047 0.01911 0.0
H1222 H 0.03077 0.17766 0.01491 0.0
H1223 H 0.4541 0.15406 0.99838 0.0
loop_
_geom_bond_atom_site_label_1
_geom_bond_atom_site_label_2
_geom_bond_distance
_geom_bond_site_symmetry_2
_ccdc_geom_bond_type
C0 C1 1.443 . S
C0 N4 1.376 . S
C0 C38 1.389 . S
C1 C0 1.443 . S
C1 C2 1.340 . S
C1 H41 0.951 . S
C2 C1 1.340 . S
C2 C3 1.439 . S
C2 H42 0.950 . S
C3 C2 1.439 . S
C3 N4 1.374 . S
C3 C37 1.395 . S
N4 C0 1.376 . S
N4 C3 1.374 . S
N4 Co5 2.008 . S
Co5 N4 2.008 . S
Co5 N6 1.995 . S
Co5 N11 2.008 . S
Co5 N16 1.995 . S
Co5 N21 2.282 1_455 S
Co5 N27 2.282 . S
N6 Co5 1.995 . S
N6 C7 1.376 . S
N6 C10 1.383 . S
C7 N6 1.376 . S
C7 C8 1.446 . S
C7 C37 1.391 . S
C8 C7 1.446 . S
C8 C9 1.339 . S
C8 H43 0.949 . S
C9 C8 1.339 . S
C9 C10 1.439 . S
C9 H44 0.950 . S
C10 N6 1.383 . S
C10 C9 1.439 . S
C10 C39 1.392 . S
N11 Co5 2.008 . S
N11 C12 1.376 . S
N11 C15 1.374 . S
C12 N11 1.376 . S
C12 C13 1.443 . S
C12 C39 1.389 . S
C13 C12 1.443 . S
C13 C14 1.340 1_545 S
C13 H45 0.951 . S
C14 C13 1.340 1_565 S
C14 C15 1.439 1_565 S
C14 H46 0.950 . S
C15 N11 1.374 . S
C15 C14 1.439 1_545 S
C15 C40 1.395 . S
N16 Co5 1.995 . S
N16 C17 1.376 . S
N16 C20 1.383 1_455 S
C17 N16 1.376 . S
C17 C18 1.446 1_455 S
C17 C40 1.391 . S
C18 C17 1.446 1_655 S
C18 C19 1.339 . S
C18 H47 0.949 . S
C19 C18 1.339 . S
C19 C20 1.439 . S
C19 H48 0.950 . S
C20 N16 1.383 1_655 S
C20 C19 1.439 . S
C20 C38 1.392 1_655 S
N21 Co5 2.282 1_655 S
N21 C24 1.332 . S
N21 C26 1.332 . S
C22 C23 1.386 . S
C22 C25 1.388 . S
C23 C22 1.386 . S
C23 C24 1.382 . S
C23 H49 0.950 . S
C24 N21 1.332 . S
C24 C23 1.382 . S
C24 H35 0.952 . S
C25 C22 1.388 . S
C25 C26 1.382 . S
C25 H50 0.950 . S
C26 N21 1.332 . S
C26 C25 1.382 . S
C26 H36 0.948 1_655 S
N27 Co5 2.282 . S
N27 C31 1.332 . S
N27 C32 1.332 . S
C28 C29 1.388 . S
C28 C32 1.382 . S
C28 H51 0.950 . S
C29 C28 1.388 . S
C29 C30 1.386 . S
C30 C29 1.386 . S
C30 C31 1.382 . S
C30 H52 0.950 . S
C31 N27 1.332 . S
C31 C30 1.382 . S
C31 H33 0.952 . S
C32 N27 1.332 . S
C32 C28 1.382 . S
C32 H34 0.948 . S
H33 C31 0.952 . S
H34 C32 0.948 . S
H35 C24 0.952 . S
H36 C26 0.948 1_455 S
C37 C3 1.395 . S
C37 C7 1.391 . S
C38 C0 1.389 . S
C38 C20 1.392 1_455 S
C39 C10 1.392 . S
C39 C12 1.389 . S
C40 C15 1.395 . S
C40 C17 1.391 . S
H41 C1 0.951 . S
H42 C2 0.950 . S
H43 C8 0.949 . S
H44 C9 0.950 . S
H45 C13 0.951 . S
H46 C14 0.950 . S
H47 C18 0.949 . S
H48 C19 0.950 . S
H49 C23 0.950 . S
H50 C25 0.950 . S
H51 C28 0.950 . S
H52 C30 0.950 . S
C53 C54 1.443 . S
C53 N57 1.376 . S
C53 C91 1.389 . S
C54 C53 1.443 . S
C54 C55 1.340 . S
C54 H94 0.951 . S
C55 C54 1.340 . S
C55 C56 1.439 . S
C55 H95 0.950 . S
C56 C55 1.439 . S
C56 N57 1.374 . S
C56 C90 1.395 . S
N57 C53 1.376 . S
N57 C56 1.374 . S
N57 Co58 2.008 . S
Co58 N57 2.008 . S
Co58 N59 1.995 . S
Co58 N64 2.008 . S
Co58 N69 1.995 . S
Co58 N74 2.282 . S
Co58 N80 2.282 . S
N59 Co58 1.995 . S
N59 C60 1.376 . S
N59 C63 1.383 . S
C60 N59 1.376 . S
C60 C61 1.446 . S
C60 C90 1.391 . S
C61 C60 1.446 . S
C61 C62 1.339 . S
C61 H96 0.949 . S
C62 C61 1.339 . S
C62 C63 1.439 . S
C62 H97 0.950 . S
C63 N59 1.383 . S
C63 C62 1.439 . S
C63 C92 1.392 . S
N64 Co58 2.008 . S
N64 C65 1.376 . S
N64 C68 1.374 . S
C65 N64 1.376 . S
C65 C66 1.443 . S
C65 C92 1.389 . S
C66 C65 1.443 . S
C66 C67 1.340 1_545 S
C66 H98 0.951 . S
C67 C66 1.340 1_565 S
C67 C68 1.439 1_565 S
C67 H99 0.950 . S
C68 N64 1.374 . S
C68 C67 1.439 1_545 S
C68 C93 1.395 . S
N69 Co58 1.995 . S
N69 C70 1.376 . S
N69 C73 1.383 . S
C70 N69 1.376 . S
C70 C71 1.446 . S
C70 C93 1.391 . S
C71 C70 1.446 . S
C71 C72 1.339 . S
C71 H100 0.949 . S
C72 C71 1.339 . S
C72 C73 1.439 . S
C72 H101 0.950 . S
C73 N69 1.383 . S
C73 C72 1.439 . S
C73 C91 1.392 . S
N74 Co58 2.282 . S
N74 C77 1.332 . S
N74 C79 1.332 . S
C75 C76 1.386 . S
C75 C78 1.388 . S
C76 C75 1.386 . S
C76 C77 1.382 . S
C76 H102 0.950 . S
C77 N74 1.332 . S
C77 C76 1.382 . S
C77 H88 0.952 . S
C78 C75 1.388 . S
C78 C79 1.382 . S
C78 H103 0.950 . S
C79 N74 1.332 . S
C79 C78 1.382 . S
C79 H89 0.948 . S
N80 Co58 2.282 . S
N80 C84 1.332 . S
N80 C85 1.332 . S
C81 C82 1.388 . S
C81 C85 1.382 . S
C81 H104 0.950 . S
C82 C81 1.388 . S
C82 C83 1.386 . S
C83 C82 1.386 . S
C83 C84 1.382 . S
C83 H105 0.950 . S
C84 N80 1.332 . S
C84 C83 1.382 . S
C84 H86 0.952 . S
C85 N80 1.332 . S
C85 C81 1.382 . S
C85 H87 0.948 . S
H86 C84 0.952 . S
H87 C85 0.948 . S
H88 C77 0.952 . S
H89 C79 0.948 . S
C90 C56 1.395 . S
C90 C60 1.391 . S
C91 C53 1.389 . S
C91 C73 1.392 . S
C92 C63 1.392 . S
C92 C65 1.389 . S
C93 C68 1.395 . S
C93 C70 1.391 . S
H94 C54 0.951 . S
H95 C55 0.950 . S
H96 C61 0.949 . S
H97 C62 0.950 . S
H98 C66 0.951 . S
H99 C67 0.950 . S
H100 C71 0.949 . S
H101 C72 0.950 . S
H102 C76 0.950 . S
H103 C78 0.950 . S
H104 C81 0.950 . S
H105 C83 0.950 . S
C106 C107 1.443 1_655 S
C106 N110 1.376 . S
C106 C144 1.389 . S
C107 C106 1.443 1_455 S
C107 C108 1.340 1_455 S
C107 H147 0.951 . S
C108 C107 1.340 1_655 S
C108 C109 1.439 . S
C108 H148 0.950 1_655 S
C109 C108 1.439 . S
C109 N110 1.374 . S
C109 C143 1.395 . S
N110 C106 1.376 . S
N110 C109 1.374 . S
N110 Co111 2.008 . S
Co111 N110 2.008 . S
Co111 N112 1.995 . S
Co111 N117 2.008 . S
Co111 N122 1.995 . S
Co111 N127 2.282 1_655 S
Co111 N133 2.282 . S
N112 Co111 1.995 . S
N112 C113 1.376 . S
N112 C116 1.383 . S
C113 N112 1.376 . S
C113 C114 1.446 1_565 S
C113 C143 1.391 . S
C114 C113 1.446 1_545 S
C114 C115 1.339 1_545 S
C114 H149 0.949 . S
C115 C114 1.339 1_565 S
C115 C116 1.439 . S
C115 H150 0.950 . S
C116 N112 1.383 . S
C116 C115 1.439 . S
C116 C145 1.392 . S
N117 Co111 2.008 . S
N117 C118 1.376 . S
N117 C121 1.374 . S
C118 N117 1.376 . S
C118 C119 1.443 . S
C118 C145 1.389 . S
C119 C118 1.443 . S
C119 C120 1.340 . S
C119 H151 0.951 . S
C120 C119 1.340 . S
C120 C121 1.439 . S
C120 H152 0.950 . S
C121 N117 1.374 . S
C121 C120 1.439 . S
C121 C146 1.395 . S
N122 Co111 1.995 . S
N122 C123 1.376 . S
N122 C126 1.383 . S
C123 N122 1.376 . S
C123 C124 1.446 . S
C123 C146 1.391 . S
C124 C123 1.446 . S
C124 C125 1.339 . S
C124 H153 0.949 . S
C125 C124 1.339 . S
C125 C126 1.439 . S
C125 H154 0.944 1_655 S
C126 N122 1.383 . S
C126 C125 1.439 . S
C126 C144 1.392 . S
N127 Co111 2.282 1_455 S
N127 C130 1.332 . S
N127 C132 1.332 . S
C128 C129 1.386 . S
C128 C131 1.388 . S
C129 C128 1.386 . S
C129 C130 1.382 . S
C129 H155 0.950 . S
C130 N127 1.332 . S
C130 C129 1.382 . S
C130 H141 0.952 . S
C131 C128 1.388 . S
C131 C132 1.382 . S
C131 H156 0.950 . S
C132 N127 1.332 . S
C132 C131 1.382 . S
C132 H142 0.948 . S
N133 Co111 2.282 . S
N133 C137 1.332 . S
N133 C138 1.332 . S
C134 C135 1.388 . S
C134 C138 1.382 . S
C134 H157 0.950 . S
C135 C134 1.388 . S
C135 C136 1.386 . S
C136 C135 1.386 . S
C136 C137 1.382 . S
C136 H158 0.950 . S
C137 N133 1.332 . S
C137 C136 1.382 . S
C137 H139 0.952 . S
C138 N133 1.332 . S
C138 C134 1.382 . S
C138 H140 0.948 . S
H139 C137 0.952 . S
H140 C138 0.948 . S
H141 C130 0.952 . S
H142 C132 0.948 . S
C143 C109 1.395 . S
C143 C113 1.391 . S
C144 C106 1.389 . S
C144 C126 1.392 . S
C145 C116 1.392 . S
C145 C118 1.389 . S
C146 C121 1.395 . S
C146 C123 1.391 . S
H147 C107 0.951 . S
H148 C108 0.950 1_455 S
H149 C114 0.949 . S
H150 C115 0.950 . S
H151 C119 0.951 . S
H152 C120 0.950 . S
H153 C124 0.949 . S
H154 C125 0.944 1_455 S
H155 C129 0.950 . S
H156 C131 0.950 . S
H157 C134 0.950 . S
H158 C136 0.950 . S
C159 C160 1.443 . S
C159 N163 1.376 . S
C159 C197 1.389 . S
C160 C159 1.443 . S
C160 C161 1.340 . S
C160 H200 0.951 . S
C161 C160 1.340 . S
C161 C162 1.439 . S
C161 H201 0.950 . S
C162 C161 1.439 . S
C162 N163 1.374 . S
C162 C196 1.395 . S
N163 C159 1.376 . S
N163 C162 1.374 . S
N163 Co164 2.008 . S
Co164 N163 2.008 . S
Co164 N165 1.995 . S
Co164 N170 2.008 . S
Co164 N175 1.995 . S
Co164 N180 2.282 . S
Co164 N186 2.282 . S
N165 Co164 1.995 . S
N165 C166 1.376 . S
N165 C169 1.383 . S
C166 N165 1.376 . S
C166 C167 1.446 1_565 S
C166 C196 1.391 . S
C167 C166 1.446 1_545 S
C167 C168 1.339 1_545 S
C167 H202 0.949 . S
C168 C167 1.339 1_565 S
C168 C169 1.439 . S
C168 H203 0.950 . S
C169 N165 1.383 . S
C169 C168 1.439 . S
C169 C198 1.392 . S
N170 Co164 2.008 . S
N170 C171 1.376 . S
N170 C174 1.374 . S
C171 N170 1.376 . S
C171 C172 1.443 . S
C171 C198 1.389 . S
C172 C171 1.443 . S
C172 C173 1.340 . S
C172 H204 0.951 . S
C173 C172 1.340 . S
C173 C174 1.439 . S
C173 H205 0.950 . S
C174 N170 1.374 . S
C174 C173 1.439 . S
C174 C199 1.395 . S
N175 Co164 1.995 . S
N175 C176 1.376 . S
N175 C179 1.383 . S
C176 N175 1.376 . S
C176 C177 1.446 . S
C176 C199 1.391 . S
C177 C176 1.446 . S
C177 C178 1.339 . S
C177 H206 0.949 . S
C178 C177 1.339 . S
C178 C179 1.439 . S
C178 H207 0.950 . S
C179 N175 1.383 . S
C179 C178 1.439 . S
C179 C197 1.392 . S
N180 Co164 2.282 . S
N180 C183 1.332 . S
N180 C185 1.332 . S
C181 C182 1.386 . S
C181 C184 1.388 . S
C182 C181 1.386 . S
C182 C183 1.382 . S
C182 H208 0.950 . S
C183 N180 1.332 . S
C183 C182 1.382 . S
C183 H194 0.952 . S
C184 C181 1.388 . S
C184 C185 1.382 . S
C184 H209 0.950 . S
C185 N180 1.332 . S
C185 C184 1.382 . S
C185 H195 0.948 . S
N186 Co164 2.282 . S
N186 C190 1.332 . S
N186 C191 1.332 . S
C187 C188 1.388 . S
C187 C191 1.382 . S
C187 H210 0.950 . S
C188 C187 1.388 . S
C188 C189 1.386 . S
C189 C188 1.386 . S
C189 C190 1.382 . S
C189 H211 0.950 . S
C190 N186 1.332 . S
C190 C189 1.382 . S
C190 H192 0.952 . S
C191 N186 1.332 . S
C191 C187 1.382 . S
C191 H193 0.948 . S
H192 C190 0.952 . S
H193 C191 0.948 . S
H194 C183 0.952 . S
H195 C185 0.948 . S
C196 C162 1.395 . S
C196 C166 1.391 . S
C197 C159 1.389 . S
C197 C179 1.392 . S
C198 C169 1.392 . S
C198 C171 1.389 . S
C199 C174 1.395 . S
C199 C176 1.391 . S
H200 C160 0.951 . S
H201 C161 0.950 . S
H202 C167 0.949 . S
H203 C168 0.950 . S
H204 C172 0.951 . S
H205 C173 0.950 . S
H206 C177 0.949 . S
H207 C178 0.950 . S
H208 C182 0.950 . S
H209 C184 0.950 . S
H210 C187 0.950 . S
H211 C189 0.950 . S
C212 C213 1.443 . S
C212 N216 1.376 . S
C212 C250 1.389 . S
C213 C212 1.443 . S
C213 C214 1.340 . S
C213 H253 0.951 . S
C214 C213 1.340 . S
C214 C215 1.439 . S
C214 H254 0.950 . S
C215 C214 1.439 . S
C215 N216 1.374 . S
C215 C249 1.395 . S
N216 C212 1.376 . S
N216 C215 1.374 . S
N216 Co217 2.008 . S
Co217 N216 2.008 . S
Co217 N218 1.995 . S
Co217 N223 2.008 . S
Co217 N228 1.995 . S
Co217 N233 2.282 . S
Co217 N239 2.282 . S
N218 Co217 1.995 . S
N218 C219 1.376 . S
N218 C222 1.383 . S
C219 N218 1.376 . S
C219 C220 1.446 . S
C219 C249 1.391 . S
C220 C219 1.446 . S
C220 C221 1.339 . S
C220 H255 0.949 . S
C221 C220 1.339 . S
C221 C222 1.439 . S
C221 H256 0.950 . S
C222 N218 1.383 . S
C222 C221 1.439 . S
C222 C251 1.392 . S
N223 Co217 2.008 . S
N223 C224 1.376 . S
N223 C227 1.374 . S
C224 N223 1.376 . S
C224 C225 1.443 . S
C224 C251 1.389 . S
C225 C224 1.443 . S
C225 C226 1.340 . S
C225 H257 0.951 . S
C226 C225 1.340 . S
C226 C227 1.439 . S
C226 H258 0.950 . S
C227 N223 1.374 . S
C227 C226 1.439 . S
C227 C252 1.395 . S
N228 Co217 1.995 . S
N228 C229 1.376 . S
N228 C232 1.383 . S
C229 N228 1.376 . S
C229 C230 1.446 . S
C229 C252 1.391 . S
C230 C229 1.446 . S
C230 C231 1.339 . S
C230 H259 0.949 . S
C231 C230 1.339 . S
C231 C232 1.439 . S
C231 H260 0.950 . S
C232 N228 1.383 . S
C232 C231 1.439 . S
C232 C250 1.392 . S
N233 Co217 2.282 . S
N233 C236 1.332 . S
N233 C238 1.332 . S
C234 C235 1.386 . S
C234 C237 1.388 . S
C235 C234 1.386 . S
C235 C236 1.382 . S
C235 H261 0.950 . S
C236 N233 1.332 . S
C236 C235 1.382 . S
C236 H247 0.952 . S
C237 C234 1.388 . S
C237 C238 1.382 . S
C237 H262 0.950 . S
C238 N233 1.332 . S
C238 C237 1.382 . S
C238 H248 0.948 . S
N239 Co217 2.282 . S
N239 C243 1.332 . S
N239 C244 1.332 . S
C240 C241 1.388 . S
C240 C244 1.382 . S
C240 H263 0.950 . S
C241 C240 1.388 . S
C241 C242 1.386 . S
C242 C241 1.386 . S
C242 C243 1.382 . S
C242 H264 0.950 . S
C243 N239 1.332 . S
C243 C242 1.382 . S
C243 H245 0.952 . S
C244 N239 1.332 . S
C244 C240 1.382 . S
C244 H246 0.948 . S
H245 C243 0.952 . S
H246 C244 0.948 . S
H247 C236 0.952 . S
H248 C238 0.948 . S
C249 C215 1.395 . S
C249 C219 1.391 . S
C250 C212 1.389 . S
C250 C232 1.392 . S
C251 C222 1.392 . S
C251 C224 1.389 . S
C252 C227 1.395 . S
C252 C229 1.391 . S
H253 C213 0.951 . S
H254 C214 0.950 . S
H255 C220 0.949 . S
H256 C221 0.950 . S
H257 C225 0.951 . S
H258 C226 0.950 . S
H259 C230 0.949 . S
H260 C231 0.950 . S
H261 C235 0.950 . S
H262 C237 0.950 . S
H263 C240 0.950 . S
H264 C242 0.950 . S
C265 C266 1.443 . S
C265 N269 1.376 . S
C265 C303 1.389 . S
C266 C265 1.443 . S
C266 C267 1.340 . S
C266 H306 0.951 . S
C267 C266 1.340 . S
C267 C268 1.439 . S
C267 H307 0.950 . S
C268 C267 1.439 . S
C268 N269 1.374 . S
C268 C302 1.395 . S
N269 C265 1.376 . S
N269 C268 1.374 . S
N269 Co270 2.008 . S
Co270 N269 2.008 . S
Co270 N271 1.995 . S
Co270 N276 2.008 . S
Co270 N281 1.995 . S
Co270 N286 2.282 1_655 S
Co270 N292 2.282 . S
N271 Co270 1.995 . S
N271 C272 1.376 . S
N271 C275 1.383 . S
C272 N271 1.376 . S
C272 C273 1.446 . S
C272 C302 1.391 . S
C273 C272 1.446 . S
C273 C274 1.339 . S
C273 H308 0.949 . S
C274 C273 1.339 . S
C274 C275 1.439 . S
C274 H309 0.950 . S
C275 N271 1.383 . S
C275 C274 1.439 . S
C275 C304 1.392 . S
N276 Co270 2.008 . S
N276 C277 1.376 . S
N276 C280 1.374 . S
C277 N276 1.376 . S
C277 C278 1.443 . S
C277 C304 1.389 . S
C278 C277 1.443 . S
C278 C279 1.340 . S
C278 H310 0.951 . S
C279 C278 1.340 . S
C279 C280 1.439 . S
C279 H311 0.950 . S
C280 N276 1.374 . S
C280 C279 1.439 . S
C280 C305 1.395 . S
N281 Co270 1.995 . S
N281 C282 1.376 . S
N281 C285 1.383 1_655 S
C282 N281 1.376 . S
C282 C283 1.446 1_655 S
C282 C305 1.391 . S
C283 C282 1.446 1_455 S
C283 C284 1.339 . S
C283 H312 0.949 . S
C284 C283 1.339 . S
C284 C285 1.439 . S
C284 H313 0.950 . S
C285 N281 1.383 1_455 S
C285 C284 1.439 . S
C285 C303 1.392 1_455 S
N286 Co270 2.282 1_455 S
N286 C289 1.332 . S
N286 C291 1.332 . S
C287 C288 1.386 . S
C287 C290 1.388 . S
C288 C287 1.386 . S
C288 C289 1.382 . S
C288 H314 0.950 . S
C289 N286 1.332 . S
C289 C288 1.382 . S
C289 H300 0.952 . S
C290 C287 1.388 . S
C290 C291 1.382 . S
C290 H315 0.950 . S
C291 N286 1.332 . S
C291 C290 1.382 . S
C291 H301 0.948 1_455 S
N292 Co270 2.282 . S
N292 C296 1.332 . S
N292 C297 1.332 . S
C293 C294 1.388 . S
C293 C297 1.382 . S
C293 H316 0.950 . S
C294 C293 1.388 . S
C294 C295 1.386 . S
C295 C294 1.386 . S
C295 C296 1.382 . S
C295 H317 0.950 . S
C296 N292 1.332 . S
C296 C295 1.382 . S
C296 H298 0.952 . S
C297 N292 1.332 . S
C297 C293 1.382 . S
C297 H299 0.948 . S
H298 C296 0.952 . S
H299 C297 0.948 . S
H300 C289 0.952 . S
H301 C291 0.948 1_655 S
C302 C268 1.395 . S
C302 C272 1.391 . S
C303 C265 1.389 . S
C303 C285 1.392 1_655 S
C304 C275 1.392 . S
C304 C277 1.389 . S
C305 C280 1.395 . S
C305 C282 1.391 . S
H306 C266 0.951 . S
H307 C267 0.950 . S
H308 C273 0.949 . S
H309 C274 0.950 . S
H310 C278 0.951 . S
H311 C279 0.950 . S
H312 C283 0.949 . S
H313 C284 0.950 . S
H314 C288 0.950 . S
H315 C290 0.950 . S
H316 C293 0.950 . S
H317 C295 0.950 . S
C318 C319 1.443 . S
C318 N322 1.376 . S
C318 C356 1.389 . S
C319 C318 1.443 . S
C319 C320 1.340 . S
C319 H359 0.951 . S
C320 C319 1.340 . S
C320 C321 1.439 . S
C320 H360 0.950 . S
C321 C320 1.439 . S
C321 N322 1.374 . S
C321 C355 1.395 . S
N322 C318 1.376 . S
N322 C321 1.374 . S
N322 Co323 2.008 . S
Co323 N322 2.008 . S
Co323 N324 1.995 . S
Co323 N329 2.008 . S
Co323 N334 1.995 . S
Co323 N339 2.282 . S
Co323 N345 2.282 . S
N324 Co323 1.995 . S
N324 C325 1.376 . S
N324 C328 1.383 . S
C325 N324 1.376 . S
C325 C326 1.446 . S
C325 C355 1.391 . S
C326 C325 1.446 . S
C326 C327 1.339 . S
C326 H361 0.949 . S
C327 C326 1.339 . S
C327 C328 1.439 . S
C327 H362 0.950 . S
C328 N324 1.383 . S
C328 C327 1.439 . S
C328 C357 1.392 . S
N329 Co323 2.008 . S
N329 C330 1.376 . S
N329 C333 1.374 . S
C330 N329 1.376 . S
C330 C331 1.443 . S
C330 C357 1.389 . S
C331 C330 1.443 . S
C331 C332 1.340 . S
C331 H363 0.951 . S
C332 C331 1.340 . S
C332 C333 1.439 . S
C332 H364 0.950 . S
C333 N329 1.374 . S
C333 C332 1.439 . S
C333 C358 1.395 . S
N334 Co323 1.995 . S
N334 C335 1.376 . S
N334 C338 1.383 . S
C335 N334 1.376 . S
C335 C336 1.446 . S
C335 C358 1.391 . S
C336 C335 1.446 . S
C336 C337 1.339 . S
C336 H365 0.949 . S
C337 C336 1.339 . S
C337 C338 1.439 . S
C337 H366 0.950 . S
C338 N334 1.383 . S
C338 C337 1.439 . S
C338 C356 1.392 . S
N339 Co323 2.282 . S
N339 C342 1.332 . S
N339 C344 1.332 . S
C340 C341 1.386 . S
C340 C343 1.388 . S
C341 C340 1.386 . S
C341 C342 1.382 . S
C341 H367 0.950 . S
C342 N339 1.332 . S
C342 C341 1.382 . S
C342 H353 0.952 . S
C343 C340 1.388 . S
C343 C344 1.382 . S
C343 H368 0.950 . S
C344 N339 1.332 . S
C344 C343 1.382 . S
C344 H354 0.948 . S
N345 Co323 2.282 . S
N345 C349 1.332 . S
N345 C350 1.332 . S
C346 C347 1.388 . S
C346 C350 1.382 . S
C346 H369 0.950 . S
C347 C346 1.388 . S
C347 C348 1.386 . S
C348 C347 1.386 . S
C348 C349 1.382 . S
C348 H370 0.950 . S
C349 N345 1.332 . S
C349 C348 1.382 . S
C349 H351 0.952 . S
C350 N345 1.332 . S
C350 C346 1.382 . S
C350 H352 0.948 . S
H351 C349 0.952 . S
H352 C350 0.948 . S
H353 C342 0.952 . S
H354 C344 0.948 . S
C355 C321 1.395 . S
C355 C325 1.391 . S
C356 C318 1.389 . S
C356 C338 1.392 . S
C357 C328 1.392 . S
C357 C330 1.389 . S
C358 C333 1.395 . S
C358 C335 1.391 . S
H359 C319 0.951 . S
H360 C320 0.950 . S
H361 C326 0.949 . S
H362 C327 0.950 . S
H363 C331 0.951 . S
H364 C332 0.950 . S
H365 C336 0.949 . S
H366 C337 0.950 . S
H367 C341 0.950 . S
H368 C343 0.950 . S
H369 C346 0.950 . S
H370 C348 0.950 . S
C371 C372 1.443 1_455 S
C371 N375 1.376 . S
C371 C409 1.389 . S
C372 C371 1.443 1_655 S
C372 C373 1.340 1_655 S
C372 H412 0.951 . S
C373 C372 1.340 1_455 S
C373 C374 1.439 . S
C373 H413 0.950 1_455 S
C374 C373 1.439 . S
C374 N375 1.374 . S
C374 C408 1.395 . S
N375 C371 1.376 . S
N375 C374 1.374 . S
N375 Co376 2.008 . S
Co376 N375 2.008 . S
Co376 N377 1.995 . S
Co376 N382 2.008 . S
Co376 N387 1.995 . S
Co376 N392 2.282 1_455 S
Co376 N398 2.282 . S
N377 Co376 1.995 . S
N377 C378 1.376 . S
N377 C381 1.383 . S
C378 N377 1.376 . S
C378 C379 1.446 . S
C378 C408 1.391 . S
C379 C378 1.446 . S
C379 C380 1.339 . S
C379 H414 0.949 . S
C380 C379 1.339 . S
C380 C381 1.439 . S
C380 H415 0.950 . S
C381 N377 1.383 . S
C381 C380 1.439 . S
C381 C410 1.392 . S
N382 Co376 2.008 . S
N382 C383 1.376 . S
N382 C386 1.374 . S
C383 N382 1.376 . S
C383 C384 1.443 . S
C383 C410 1.389 . S
C384 C383 1.443 . S
C384 C385 1.340 . S
C384 H416 0.951 . S
C385 C384 1.340 . S
C385 C386 1.439 . S
C385 H417 0.950 . S
C386 N382 1.374 . S
C386 C385 1.439 . S
C386 C411 1.395 . S
N387 Co376 1.995 . S
N387 C388 1.376 . S
N387 C391 1.383 . S
C388 N387 1.376 . S
C388 C389 1.446 . S
C388 C411 1.391 . S
C389 C388 1.446 . S
C389 C390 1.339 . S
C389 H418 0.949 . S
C390 C389 1.339 . S
C390 C391 1.439 . S
C390 H419 0.944 1_455 S
C391 N387 1.383 . S
C391 C390 1.439 . S
C391 C409 1.392 . S
N392 Co376 2.282 1_655 S
N392 C395 1.332 . S
N392 C397 1.332 . S
C393 C394 1.386 . S
C393 C396 1.388 . S
C394 C393 1.386 . S
C394 C395 1.382 . S
C394 H420 0.950 . S
C395 N392 1.332 . S
C395 C394 1.382 . S
C395 H406 0.952 . S
C396 C393 1.388 . S
C396 C397 1.382 . S
C396 H421 0.950 . S
C397 N392 1.332 . S
C397 C396 1.382 . S
C397 H407 0.948 . S
N398 Co376 2.282 . S
N398 C402 1.332 . S
N398 C403 1.332 . S
C399 C400 1.388 . S
C399 C403 1.382 . S
C399 H422 0.950 . S
C400 C399 1.388 . S
C400 C401 1.386 . S
C401 C400 1.386 . S
C401 C402 1.382 . S
C401 H423 0.950 . S
C402 N398 1.332 . S
C402 C401 1.382 . S
C402 H404 0.952 . S
C403 N398 1.332 . S
C403 C399 1.382 . S
C403 H405 0.948 . S
H404 C402 0.952 . S
H405 C403 0.948 . S
H406 C395 0.952 . S
H407 C397 0.948 . S
C408 C374 1.395 . S
C408 C378 1.391 . S
C409 C371 1.389 . S
C409 C391 1.392 . S
C410 C381 1.392 . S
C410 C383 1.389 . S
C411 C386 1.395 . S
C411 C388 1.391 . S
H412 C372 0.951 . S
H413 C373 0.950 1_655 S
H414 C379 0.949 . S
H415 C380 0.950 . S
H416 C384 0.951 . S
H417 C385 0.950 . S
H418 C389 0.949 . S
H419 C390 0.944 1_655 S
H420 C394 0.950 . S
H421 C396 0.950 . S
H422 C399 0.950 . S
H423 C401 0.950 . S
H424 C442 0.951 . S
H425 C444 0.951 . S
H426 C446 0.950 . S
H427 C447 0.950 . S
H428 C449 0.950 . S
H429 C452 0.950 . S
H430 C453 0.950 . S
H431 C455 0.950 . S
H432 C456 0.950 . S
H433 C457 0.951 . S
H434 C459 0.951 . S
H435 C461 0.950 . S
H436 C462 0.950 . S
H437 C464 0.950 . S
H438 C467 0.950 . S
H439 C468 0.950 . S
H440 C470 0.950 . S
H441 C471 0.950 . S
C442 H424 0.951 . S
C442 C443 1.366 . S
C442 C444 1.388 . S
C443 C442 1.366 . S
C443 C447 1.385 1_655 S
C444 H425 0.951 . S
C444 C442 1.388 . S
C444 C445 1.366 . S
C445 C444 1.366 . S
C445 C446 1.414 1_655 S
C445 C448 1.499 . S
C446 H426 0.950 . S
C446 C445 1.414 1_455 S
C446 C447 1.374 . S
C447 H427 0.950 . S
C447 C443 1.385 1_455 S
C447 C446 1.374 . S
C448 C445 1.499 . S
C448 C449 1.373 1_655 S
C448 C450 1.389 . S
C449 H428 0.950 . S
C449 C448 1.373 1_455 S
C449 C465 1.377 . S
C450 C448 1.389 . S
C450 C451 1.524 . S
C450 C464 1.377 . S
C451 C450 1.524 . S
C451 C452 1.397 . S
C451 C456 1.363 . S
C452 H429 0.950 . S
C452 C451 1.397 . S
C452 C453 1.334 . S
C453 H430 0.950 . S
C453 C452 1.334 . S
C453 C454 1.287 . S
C454 C453 1.287 . S
C454 C455 1.524 . S
C454 H473 0.913 . S
C455 H431 0.950 . S
C455 C454 1.524 . S
C455 C456 1.415 . S
C456 H432 0.950 . S
C456 C451 1.363 . S
C456 C455 1.415 . S
C457 H433 0.951 . S
C457 C458 1.366 . S
C457 C459 1.388 . S
C458 C457 1.366 . S
C458 C462 1.385 1_455 S
C459 H434 0.951 . S
C459 C457 1.388 . S
C459 C460 1.366 . S
C460 C459 1.366 . S
C460 C461 1.414 1_455 S
C460 C463 1.499 . S
C461 H435 0.950 . S
C461 C460 1.414 1_655 S
C461 C462 1.374 . S
C462 H436 0.950 . S
C462 C458 1.385 1_655 S
C462 C461 1.374 . S
C463 C460 1.499 . S
C463 C464 1.373 1_455 S
C463 C465 1.389 . S
C464 H437 0.950 . S
C464 C450 1.377 . S
C464 C463 1.373 1_655 S
C465 C449 1.377 . S
C465 C463 1.389 . S
C465 C466 1.524 . S
C466 C465 1.524 . S
C466 C467 1.397 . S
C466 C471 1.363 . S
C467 H438 0.950 . S
C467 C466 1.397 . S
C467 C468 1.334 . S
C468 H439 0.950 . S
C468 C467 1.334 . S
C468 C469 1.287 . S
C469 C468 1.287 . S
C469 C470 1.524 . S
C469 H472 0.999 . S
C470 H440 0.950 . S
C470 C469 1.524 . S
C470 C471 1.415 . S
C471 H441 0.950 . S
C471 C466 1.363 . S
C471 C470 1.415 . S
H472 C469 0.999 . S
H473 C454 0.913 . S
H474 C492 0.951 . S
H475 C494 0.951 . S
H476 C496 0.950 . S
H477 C497 0.950 . S
H478 C499 0.950 . S
H479 C502 0.950 . S
H480 C503 0.950 . S
H481 C505 0.950 . S
H482 C506 0.950 . S
H483 C507 0.951 . S
H484 C509 0.951 . S
H485 C511 0.950 . S
H486 C512 0.950 . S
H487 C514 0.950 . S
H488 C517 0.950 . S
H489 C518 0.950 . S
H490 C520 0.950 . S
H491 C521 0.950 . S
C492 H474 0.951 . S
C492 C493 1.366 . S
C492 C494 1.388 . S
C493 C492 1.366 . S
C493 C497 1.385 . S
C494 H475 0.951 . S
C494 C492 1.388 . S
C494 C495 1.366 . S
C495 C494 1.366 . S
C495 C496 1.414 . S
C495 C498 1.499 . S
C496 H476 0.950 . S
C496 C495 1.414 . S
C496 C497 1.374 . S
C497 H477 0.950 . S
C497 C493 1.385 . S
C497 C496 1.374 . S
C498 C495 1.499 . S
C498 C499 1.373 . S
C498 C500 1.389 . S
C499 H478 0.950 . S
C499 C498 1.373 . S
C499 C515 1.377 . S
C500 C498 1.389 . S
C500 C501 1.524 . S
C500 C514 1.377 . S
C501 C500 1.524 . S
C501 C502 1.397 . S
C501 C506 1.363 . S
C502 H479 0.950 . S
C502 C501 1.397 . S
C502 C503 1.334 . S
C503 H480 0.950 . S
C503 C502 1.334 . S
C503 C504 1.287 . S
C504 C503 1.287 . S
C504 C505 1.524 . S
C504 H523 0.913 . S
C505 H481 0.950 . S
C505 C504 1.524 . S
C505 C506 1.415 . S
C506 H482 0.950 . S
C506 C501 1.363 . S
C506 C505 1.415 . S
C507 H483 0.951 . S
C507 C508 1.366 . S
C507 C509 1.388 . S
C508 C507 1.366 . S
C508 C512 1.385 . S
C509 H484 0.951 . S
C509 C507 1.388 . S
C509 C510 1.366 . S
C510 C509 1.366 . S
C510 C511 1.414 . S
C510 C513 1.499 . S
C511 H485 0.950 . S
C511 C510 1.414 . S
C511 C512 1.374 . S
C512 H486 0.950 . S
C512 C508 1.385 . S
C512 C511 1.374 . S
C513 C510 1.499 . S
C513 C514 1.373 . S
C513 C515 1.389 . S
C514 H487 0.950 . S
C514 C500 1.377 . S
C514 C513 1.373 . S
C515 C499 1.377 . S
C515 C513 1.389 . S
C515 C516 1.524 . S
C516 C515 1.524 . S
C516 C517 1.397 . S
C516 C521 1.363 . S
C517 H488 0.950 . S
C517 C516 1.397 . S
C517 C518 1.334 . S
C518 H489 0.950 . S
C518 C517 1.334 . S
C518 C519 1.287 . S
C519 C518 1.287 . S
C519 C520 1.524 . S
C519 H522 0.999 . S
C520 H490 0.950 . S
C520 C519 1.524 . S
C520 C521 1.415 . S
C521 H491 0.950 . S
C521 C516 1.363 . S
C521 C520 1.415 . S
H522 C519 0.999 . S
H523 C504 0.913 . S
H524 C542 0.951 . S
H525 C544 0.951 . S
H526 C546 0.950 . S
H527 C547 0.950 . S
H528 C549 0.952 . S
H529 C552 0.950 . S
H530 C553 0.950 . S
H531 C555 0.950 . S
H532 C556 0.950 . S
H533 C557 0.951 . S
H534 C559 0.951 . S
H535 C561 0.950 . S
H536 C562 0.950 . S
H537 C564 0.952 . S
H538 C567 0.950 . S
H539 C568 0.950 . S
H540 C570 0.950 . S
H541 C571 0.950 . S
C542 H524 0.951 . S
C542 C543 1.366 . S
C542 C544 1.388 . S
C543 C542 1.366 . S
C543 C547 1.385 . S
C544 H525 0.951 . S
C544 C542 1.388 . S
C544 C545 1.366 . S
C545 C544 1.366 . S
C545 C546 1.414 . S
C545 C548 1.499 . S
C546 H526 0.950 . S
C546 C545 1.414 . S
C546 C547 1.374 . S
C547 H527 0.950 . S
C547 C543 1.385 . S
C547 C546 1.374 . S
C548 C545 1.499 . S
C548 C549 1.417 . S
C548 C550 1.389 1_545 S
C549 H528 0.952 . S
C549 C548 1.417 . S
C549 C565 1.332 1_554 S
C550 C548 1.389 1_565 S
C550 C551 1.524 . S
C550 C564 1.333 1_554 S
C551 C550 1.524 . S
C551 C552 1.397 . S
C551 C556 1.363 . S
C552 H529 0.950 . S
C552 C551 1.397 . S
C552 C553 1.334 . S
C553 H530 0.950 . S
C553 C552 1.334 . S
C553 C554 1.287 . S
C554 C553 1.287 . S
C554 C555 1.524 . S
C554 H573 0.913 . S
C555 H531 0.950 . S
C555 C554 1.524 . S
C555 C556 1.415 . S
C556 H532 0.950 . S
C556 C551 1.363 . S
C556 C555 1.415 . S
C557 H533 0.951 . S
C557 C558 1.366 . S
C557 C559 1.388 . S
C558 C557 1.366 . S
C558 C562 1.385 . S
C559 H534 0.951 . S
C559 C557 1.388 . S
C559 C560 1.366 . S
C560 C559 1.366 . S
C560 C561 1.414 . S
C560 C563 1.499 . S
C561 H535 0.950 . S
C561 C560 1.414 . S
C561 C562 1.374 . S
C562 H536 0.950 . S
C562 C558 1.385 . S
C562 C561 1.374 . S
C563 C560 1.499 . S
C563 C564 1.417 . S
C563 C565 1.389 1_565 S
C564 H537 0.952 . S
C564 C550 1.333 1_556 S
C564 C563 1.417 . S
C565 C549 1.332 1_556 S
C565 C563 1.389 1_545 S
C565 C566 1.524 . S
C566 C565 1.524 . S
C566 C567 1.397 . S
C566 C571 1.363 . S
C567 H538 0.950 . S
C567 C566 1.397 . S
C567 C568 1.334 . S
C568 H539 0.950 . S
C568 C567 1.334 . S
C568 C569 1.287 . S
C569 C568 1.287 . S
C569 C570 1.524 . S
C569 H572 0.999 . S
C570 H540 0.950 . S
C570 C569 1.524 . S
C570 C571 1.415 . S
C571 H541 0.950 . S
C571 C566 1.363 . S
C571 C570 1.415 . S
H572 C569 0.999 . S
H573 C554 0.913 . S
H574 C592 0.950 1_655 S
H575 C594 0.951 . S
H576 C596 0.950 . S
H577 C597 0.950 . S
H578 C599 0.950 . S
H579 C602 0.950 . S
H580 C603 0.950 . S
H581 C605 0.950 . S
H582 C606 0.950 . S
H583 C607 0.950 1_455 S
H584 C609 0.951 . S
H585 C611 0.950 . S
H586 C612 0.950 . S
H587 C614 0.950 . S
H588 C617 0.950 . S
H589 C618 0.950 . S
H590 C620 0.950 . S
H591 C621 0.950 . S
C592 H574 0.950 1_455 S
C592 C593 1.368 . S
C592 C594 1.387 1_455 S
C593 C592 1.368 . S
C593 C597 1.385 . S
C594 H575 0.951 . S
C594 C592 1.387 1_655 S
C594 C595 1.364 1_655 S
C595 C594 1.364 1_455 S
C595 C596 1.418 . S
C595 C598 1.499 1_455 S
C596 H576 0.950 . S
C596 C595 1.418 . S
C596 C597 1.374 . S
C597 H577 0.950 . S
C597 C593 1.385 . S
C597 C596 1.374 . S
C598 C595 1.499 1_655 S
C598 C599 1.358 1_655 S
C598 C600 1.404 1_565 S
C599 H578 0.950 . S
C599 C598 1.358 1_455 S
C599 C615 1.377 1_554 S
C600 C598 1.404 1_545 S
C600 C601 1.524 . S
C600 C614 1.377 1_554 S
C601 C600 1.524 . S
C601 C602 1.397 1_545 S
C601 C606 1.363 . S
C602 H579 0.950 . S
C602 C601 1.397 1_565 S
C602 C603 1.334 . S
C603 H580 0.950 . S
C603 C602 1.334 . S
C603 C604 1.287 1_565 S
C604 C603 1.287 1_545 S
C604 C605 1.524 . S
C604 H623 0.913 . S
C605 H581 0.950 . S
C605 C604 1.524 . S
C605 C606 1.415 . S
C606 H582 0.950 . S
C606 C601 1.363 . S
C606 C605 1.415 . S
C607 H583 0.950 1_655 S
C607 C608 1.368 . S
C607 C609 1.387 1_655 S
C608 C607 1.368 . S
C608 C612 1.385 . S
C609 H584 0.951 . S
C609 C607 1.387 1_455 S
C609 C610 1.364 1_455 S
C610 C609 1.364 1_655 S
C610 C611 1.418 . S
C610 C613 1.499 1_655 S
C611 H585 0.950 . S
C611 C610 1.418 . S
C611 C612 1.374 . S
C612 H586 0.950 . S
C612 C608 1.385 . S
C612 C611 1.374 . S
C613 C610 1.499 1_455 S
C613 C614 1.358 1_455 S
C613 C615 1.404 1_545 S
C614 H587 0.950 . S
C614 C600 1.377 1_556 S
C614 C613 1.358 1_655 S
C615 C599 1.377 1_556 S
C615 C613 1.404 1_565 S
C615 C616 1.524 . S
C616 C615 1.524 . S
C616 C617 1.397 1_565 S
C616 C621 1.363 . S
C617 H588 0.950 . S
C617 C616 1.397 1_545 S
C617 C618 1.334 . S
C618 H589 0.950 . S
C618 C617 1.334 . S
C618 C619 1.287 1_545 S
C619 C618 1.287 1_565 S
C619 C620 1.524 . S
C619 H622 0.999 . S
C620 H590 0.950 . S
C620 C619 1.524 . S
C620 C621 1.415 . S
C621 H591 0.950 . S
C621 C616 1.363 . S
C621 C620 1.415 . S
H622 C619 0.999 . S
H623 C604 0.913 . S
H624 C642 0.951 . S
H625 C644 0.951 . S
H626 C646 0.950 . S
H627 C647 0.950 . S
H628 C649 0.950 . S
H629 C652 0.950 . S
H630 C653 0.950 . S
H631 C655 0.950 . S
H632 C656 0.950 . S
H633 C657 0.951 . S
H634 C659 0.951 . S
H635 C661 0.950 . S
H636 C662 0.950 . S
H637 C664 0.950 . S
H638 C667 0.950 . S
H639 C668 0.950 . S
H640 C670 0.950 . S
H641 C671 0.950 . S
C642 H624 0.951 . S
C642 C643 1.366 . S
C642 C644 1.388 . S
C643 C642 1.366 . S
C643 C647 1.385 . S
C644 H625 0.951 . S
C644 C642 1.388 . S
C644 C645 1.366 . S
C645 C644 1.366 . S
C645 C646 1.414 . S
C645 C648 1.499 . S
C646 H626 0.950 . S
C646 C645 1.414 . S
C646 C647 1.374 . S
C647 H627 0.950 . S
C647 C643 1.385 . S
C647 C646 1.374 . S
C648 C645 1.499 . S
C648 C649 1.373 . S
C648 C650 1.389 . S
C649 H628 0.950 . S
C649 C648 1.373 . S
C649 C665 1.377 . S
C650 C648 1.389 . S
C650 C651 1.524 . S
C650 C664 1.377 . S
C651 C650 1.524 . S
C651 C652 1.397 . S
C651 C656 1.363 . S
C652 H629 0.950 . S
C652 C651 1.397 . S
C652 C653 1.334 . S
C653 H630 0.950 . S
C653 C652 1.334 . S
C653 C654 1.287 . S
C654 C653 1.287 . S
C654 C655 1.524 . S
C654 H673 0.913 . S
C655 H631 0.950 . S
C655 C654 1.524 . S
C655 C656 1.415 . S
C656 H632 0.950 . S
C656 C651 1.363 . S
C656 C655 1.415 . S
C657 H633 0.951 . S
C657 C658 1.366 . S
C657 C659 1.388 . S
C658 C657 1.366 . S
C658 C662 1.385 . S
C659 H634 0.951 . S
C659 C657 1.388 . S
C659 C660 1.366 . S
C660 C659 1.366 . S
C660 C661 1.414 . S
C660 C663 1.499 . S
C661 H635 0.950 . S
C661 C660 1.414 . S
C661 C662 1.374 . S
C662 H636 0.950 . S
C662 C658 1.385 . S
C662 C661 1.374 . S
C663 C660 1.499 . S
C663 C664 1.373 . S
C663 C665 1.389 . S
C664 H637 0.950 . S
C664 C650 1.377 . S
C664 C663 1.373 . S
C665 C649 1.377 . S
C665 C663 1.389 . S
C665 C666 1.524 . S
C666 C665 1.524 . S
C666 C667 1.397 . S
C666 C671 1.363 . S
C667 H638 0.950 . S
C667 C666 1.397 . S
C667 C668 1.334 . S
C668 H639 0.950 . S
C668 C667 1.334 . S
C668 C669 1.287 . S
C669 C668 1.287 . S
C669 C670 1.524 . S
C669 H672 0.999 . S
C670 H640 0.950 . S
C670 C669 1.524 . S
C670 C671 1.415 . S
C671 H641 0.950 . S
C671 C666 1.363 . S
C671 C670 1.415 . S
H672 C669 0.999 . S
H673 C654 0.913 . S
H674 C692 0.951 . S
H675 C694 0.951 . S
H676 C696 0.950 . S
H677 C697 0.950 . S
H678 C699 0.950 . S
H679 C702 0.950 . S
H680 C703 0.950 . S
H681 C705 0.950 . S
H682 C706 0.950 . S
H683 C707 0.951 . S
H684 C709 0.951 . S
H685 C711 0.950 . S
H686 C712 0.950 . S
H687 C714 0.950 . S
H688 C717 0.950 . S
H689 C718 0.950 . S
H690 C720 0.950 . S
H691 C721 0.950 . S
C692 H674 0.951 . S
C692 C693 1.366 . S
C692 C694 1.388 . S
C693 C692 1.366 . S
C693 C697 1.385 . S
C694 H675 0.951 . S
C694 C692 1.388 . S
C694 C695 1.366 . S
C695 C694 1.366 . S
C695 C696 1.414 . S
C695 C698 1.499 . S
C696 H676 0.950 . S
C696 C695 1.414 . S
C696 C697 1.374 . S
C697 H677 0.950 . S
C697 C693 1.385 . S
C697 C696 1.374 . S
C698 C695 1.499 . S
C698 C699 1.373 . S
C698 C700 1.389 . S
C699 H678 0.950 . S
C699 C698 1.373 . S
C699 C715 1.377 . S
C700 C698 1.389 . S
C700 C701 1.524 . S
C700 C714 1.377 . S
C701 C700 1.524 . S
C701 C702 1.397 . S
C701 C706 1.363 . S
C702 H679 0.950 . S
C702 C701 1.397 . S
C702 C703 1.334 . S
C703 H680 0.950 . S
C703 C702 1.334 . S
C703 C704 1.287 . S
C704 C703 1.287 . S
C704 C705 1.524 . S
C704 H723 0.913 . S
C705 H681 0.950 . S
C705 C704 1.524 . S
C705 C706 1.415 . S
C706 H682 0.950 . S
C706 C701 1.363 . S
C706 C705 1.415 . S
C707 H683 0.951 . S
C707 C708 1.366 . S
C707 C709 1.388 . S
C708 C707 1.366 . S
C708 C712 1.385 . S
C709 H684 0.951 . S
C709 C707 1.388 . S
C709 C710 1.366 . S
C710 C709 1.366 . S
C710 C711 1.414 . S
C710 C713 1.499 . S
C711 H685 0.950 . S
C711 C710 1.414 . S
C711 C712 1.374 . S
C712 H686 0.950 . S
C712 C708 1.385 . S
C712 C711 1.374 . S
C713 C710 1.499 . S
C713 C714 1.373 . S
C713 C715 1.389 . S
C714 H687 0.950 . S
C714 C700 1.377 . S
C714 C713 1.373 . S
C715 C699 1.377 . S
C715 C713 1.389 . S
C715 C716 1.524 . S
C716 C715 1.524 . S
C716 C717 1.397 . S
C716 C721 1.363 . S
C717 H688 0.950 . S
C717 C716 1.397 . S
C717 C718 1.334 . S
C718 H689 0.950 . S
C718 C717 1.334 . S
C718 C719 1.287 . S
C719 C718 1.287 . S
C719 C720 1.524 . S
C719 H722 0.999 . S
C720 H690 0.950 . S
C720 C719 1.524 . S
C720 C721 1.415 . S
C721 H691 0.950 . S
C721 C716 1.363 . S
C721 C720 1.415 . S
H722 C719 0.999 . S
H723 C704 0.913 . S
H724 C742 0.951 . S
H725 C744 0.951 . S
H726 C746 0.950 . S
H727 C747 0.950 . S
H728 C749 0.950 . S
H729 C752 0.950 . S
H730 C753 0.950 . S
H731 C755 0.950 . S
H732 C756 0.950 . S
H733 C757 0.951 . S
H734 C759 0.951 . S
H735 C761 0.950 . S
H736 C762 0.950 . S
H737 C764 0.950 . S
H738 C767 0.950 . S
H739 C768 0.950 . S
H740 C770 0.950 . S
H741 C771 0.950 . S
C742 H724 0.951 . S
C742 C743 1.366 . S
C742 C744 1.388 . S
C743 C742 1.366 . S
C743 C747 1.385 . S
C744 H725 0.951 . S
C744 C742 1.388 . S
C744 C745 1.366 . S
C745 C744 1.366 . S
C745 C746 1.414 . S
C745 C748 1.499 . S
C746 H726 0.950 . S
C746 C745 1.414 . S
C746 C747 1.374 . S
C747 H727 0.950 . S
C747 C743 1.385 . S
C747 C746 1.374 . S
C748 C745 1.499 . S
C748 C749 1.373 . S
C748 C750 1.389 . S
C749 H728 0.950 . S
C749 C748 1.373 . S
C749 C765 1.377 . S
C750 C748 1.389 . S
C750 C751 1.524 . S
C750 C764 1.377 . S
C751 C750 1.524 . S
C751 C752 1.397 . S
C751 C756 1.363 . S
C752 H729 0.950 . S
C752 C751 1.397 . S
C752 C753 1.334 . S
C753 H730 0.950 . S
C753 C752 1.334 . S
C753 C754 1.287 . S
C754 C753 1.287 . S
C754 C755 1.524 . S
C754 H773 0.913 . S
C755 H731 0.950 . S
C755 C754 1.524 . S
C755 C756 1.415 . S
C756 H732 0.950 . S
C756 C751 1.363 . S
C756 C755 1.415 . S
C757 H733 0.951 . S
C757 C758 1.366 . S
C757 C759 1.388 . S
C758 C757 1.366 . S
C758 C762 1.385 . S
C759 H734 0.951 . S
C759 C757 1.388 . S
C759 C760 1.366 . S
C760 C759 1.366 . S
C760 C761 1.414 . S
C760 C763 1.499 . S
C761 H735 0.950 . S
C761 C760 1.414 . S
C761 C762 1.374 . S
C762 H736 0.950 . S
C762 C758 1.385 . S
C762 C761 1.374 . S
C763 C760 1.499 . S
C763 C764 1.373 . S
C763 C765 1.389 . S
C764 H737 0.950 . S
C764 C750 1.377 . S
C764 C763 1.373 . S
C765 C749 1.377 . S
C765 C763 1.389 . S
C765 C766 1.524 . S
C766 C765 1.524 . S
C766 C767 1.397 . S
C766 C771 1.363 . S
C767 H738 0.950 . S
C767 C766 1.397 . S
C767 C768 1.334 . S
C768 H739 0.950 . S
C768 C767 1.334 . S
C768 C769 1.287 . S
C769 C768 1.287 . S
C769 C770 1.524 . S
C769 H772 0.999 . S
C770 H740 0.950 . S
C770 C769 1.524 . S
C770 C771 1.415 . S
C771 H741 0.950 . S
C771 C766 1.363 . S
C771 C770 1.415 . S
H772 C769 0.999 . S
H773 C754 0.913 . S
H774 C792 0.951 . S
H775 C794 0.951 . S
H776 C796 0.950 . S
H777 C797 0.950 . S
H778 C799 0.950 . S
H779 C802 0.950 . S
H780 C803 0.950 . S
H781 C805 0.950 . S
H782 C806 0.950 . S
H783 C807 0.951 . S
H784 C809 0.951 . S
H785 C811 0.950 . S
H786 C812 0.950 . S
H787 C814 0.950 . S
H788 C817 0.950 . S
H789 C818 0.950 . S
H790 C820 0.950 . S
H791 C821 0.950 . S
C792 H774 0.951 . S
C792 C793 1.366 . S
C792 C794 1.388 . S
C793 C792 1.366 . S
C793 C797 1.385 . S
C794 H775 0.951 . S
C794 C792 1.388 . S
C794 C795 1.366 . S
C795 C794 1.366 . S
C795 C796 1.414 . S
C795 C798 1.499 . S
C796 H776 0.950 . S
C796 C795 1.414 . S
C796 C797 1.374 . S
C797 H777 0.950 . S
C797 C793 1.385 . S
C797 C796 1.374 . S
C798 C795 1.499 . S
C798 C799 1.373 . S
C798 C800 1.389 . S
C799 H778 0.950 . S
C799 C798 1.373 . S
C799 C815 1.377 . S
C800 C798 1.389 . S
C800 C801 1.524 . S
C800 C814 1.377 . S
C801 C800 1.524 . S
C801 C802 1.397 . S
C801 C806 1.363 . S
C802 H779 0.950 . S
C802 C801 1.397 . S
C802 C803 1.334 . S
C803 H780 0.950 . S
C803 C802 1.334 . S
C803 C804 1.287 . S
C804 C803 1.287 . S
C804 C805 1.524 . S
C804 H823 0.913 . S
C805 H781 0.950 . S
C805 C804 1.524 . S
C805 C806 1.415 . S
C806 H782 0.950 . S
C806 C801 1.363 . S
C806 C805 1.415 . S
C807 H783 0.951 . S
C807 C808 1.366 . S
C807 C809 1.388 . S
C808 C807 1.366 . S
C808 C812 1.385 . S
C809 H784 0.951 . S
C809 C807 1.388 . S
C809 C810 1.366 . S
C810 C809 1.366 . S
C810 C811 1.414 . S
C810 C813 1.499 . S
C811 H785 0.950 . S
C811 C810 1.414 . S
C811 C812 1.374 . S
C812 H786 0.950 . S
C812 C808 1.385 . S
C812 C811 1.374 . S
C813 C810 1.499 . S
C813 C814 1.373 . S
C813 C815 1.389 . S
C814 H787 0.950 . S
C814 C800 1.377 . S
C814 C813 1.373 . S
C815 C799 1.377 . S
C815 C813 1.389 . S
C815 C816 1.524 . S
C816 C815 1.524 . S
C816 C817 1.397 . S
C816 C821 1.363 . S
C817 H788 0.950 . S
C817 C816 1.397 . S
C817 C818 1.334 . S
C818 H789 0.950 . S
C818 C817 1.334 . S
C818 C819 1.287 . S
C819 C818 1.287 . S
C819 C820 1.524 . S
C819 H822 0.999 . S
C820 H790 0.950 . S
C820 C819 1.524 . S
C820 C821 1.415 . S
C821 H791 0.950 . S
C821 C816 1.363 . S
C821 C820 1.415 . S
H822 C819 0.999 . S
H823 C804 0.913 . S
H824 C842 0.951 . S
H825 C844 0.951 . S
H826 C846 0.950 . S
H827 C847 0.950 . S
H828 C849 0.950 . S
H829 C852 0.950 . S
H830 C853 0.950 . S
H831 C855 0.950 . S
H832 C856 0.950 . S
H833 C857 0.951 . S
H834 C859 0.951 . S
H835 C861 0.950 . S
H836 C862 0.950 . S
H837 C864 0.950 . S
H838 C867 0.950 . S
H839 C868 0.950 . S
H840 C870 0.950 . S
H841 C871 0.950 . S
C842 H824 0.951 . S
C842 C843 1.366 . S
C842 C844 1.388 . S
C843 C842 1.366 . S
C843 C847 1.385 . S
C844 H825 0.951 . S
C844 C842 1.388 . S
C844 C845 1.366 . S
C845 C844 1.366 . S
C845 C846 1.414 . S
C845 C848 1.499 . S
C846 H826 0.950 . S
C846 C845 1.414 . S
C846 C847 1.374 . S
C847 H827 0.950 . S
C847 C843 1.385 . S
C847 C846 1.374 . S
C848 C845 1.499 . S
C848 C849 1.373 . S
C848 C850 1.389 . S
C849 H828 0.950 . S
C849 C848 1.373 . S
C849 C865 1.377 . S
C850 C848 1.389 . S
C850 C851 1.524 . S
C850 C864 1.377 . S
C851 C850 1.524 . S
C851 C852 1.397 . S
C851 C856 1.363 . S
C852 H829 0.950 . S
C852 C851 1.397 . S
C852 C853 1.334 . S
C853 H830 0.950 . S
C853 C852 1.334 . S
C853 C854 1.287 . S
C854 C853 1.287 . S
C854 C855 1.524 . S
C854 H873 0.913 . S
C855 H831 0.950 . S
C855 C854 1.524 . S
C855 C856 1.415 . S
C856 H832 0.950 . S
C856 C851 1.363 . S
C856 C855 1.415 . S
C857 H833 0.951 . S
C857 C858 1.366 . S
C857 C859 1.388 . S
C858 C857 1.366 . S
C858 C862 1.385 . S
C859 H834 0.951 . S
C859 C857 1.388 . S
C859 C860 1.366 . S
C860 C859 1.366 . S
C860 C861 1.414 . S
C860 C863 1.499 . S
C861 H835 0.950 . S
C861 C860 1.414 . S
C861 C862 1.374 . S
C862 H836 0.950 . S
C862 C858 1.385 . S
C862 C861 1.374 . S
C863 C860 1.499 . S
C863 C864 1.373 . S
C863 C865 1.389 . S
C864 H837 0.950 . S
C864 C850 1.377 . S
C864 C863 1.373 . S
C865 C849 1.377 . S
C865 C863 1.389 . S
C865 C866 1.524 . S
C866 C865 1.524 . S
C866 C867 1.397 . S
C866 C871 1.363 . S
C867 H838 0.950 . S
C867 C866 1.397 . S
C867 C868 1.334 . S
C868 H839 0.950 . S
C868 C867 1.334 . S
C868 C869 1.287 . S
C869 C868 1.287 . S
C869 C870 1.524 . S
C869 H872 0.999 . S
C870 H840 0.950 . S
C870 C869 1.524 . S
C870 C871 1.415 . S
C871 H841 0.950 . S
C871 C866 1.363 . S
C871 C870 1.415 . S
H872 C869 0.999 . S
H873 C854 0.913 . S
H874 C892 0.951 . S
H875 C894 0.951 . S
H876 C896 0.950 . S
H877 C897 0.950 . S
H878 C899 0.950 . S
H879 C902 0.950 . S
H880 C903 0.950 . S
H881 C905 0.950 . S
H882 C906 0.950 . S
H883 C907 0.951 . S
H884 C909 0.951 . S
H885 C911 0.950 . S
H886 C912 0.950 . S
H887 C914 0.950 . S
H888 C917 0.950 . S
H889 C918 0.950 . S
H890 C920 0.950 1_565 S
H891 C921 0.950 . S
C892 H874 0.951 . S
C892 C893 1.366 . S
C892 C894 1.388 . S
C893 C892 1.366 . S
C893 C897 1.385 . S
C894 H875 0.951 . S
C894 C892 1.388 . S
C894 C895 1.366 . S
C895 C894 1.366 . S
C895 C896 1.414 . S
C895 C898 1.499 . S
C896 H876 0.950 . S
C896 C895 1.414 . S
C896 C897 1.374 . S
C897 H877 0.950 . S
C897 C893 1.385 . S
C897 C896 1.374 . S
C898 C895 1.499 . S
C898 C899 1.373 . S
C898 C900 1.389 . S
C899 H878 0.950 . S
C899 C898 1.373 . S
C899 C915 1.377 . S
C900 C898 1.389 . S
C900 C901 1.524 . S
C900 C914 1.377 . S
C901 C900 1.524 . S
C901 C902 1.397 . S
C901 C906 1.363 . S
C902 H879 0.950 . S
C902 C901 1.397 . S
C902 C903 1.334 . S
C903 H880 0.950 . S
C903 C902 1.334 . S
C903 C904 1.287 . S
C904 C903 1.287 . S
C904 C905 1.524 . S
C904 H923 0.913 . S
C905 H881 0.950 . S
C905 C904 1.524 . S
C905 C906 1.415 . S
C906 H882 0.950 . S
C906 C901 1.363 . S
C906 C905 1.415 . S
C907 H883 0.951 . S
C907 C908 1.366 . S
C907 C909 1.388 . S
C908 C907 1.366 . S
C908 C912 1.385 . S
C909 H884 0.951 . S
C909 C907 1.388 . S
C909 C910 1.366 . S
C910 C909 1.366 . S
C910 C911 1.414 . S
C910 C913 1.499 . S
C911 H885 0.950 . S
C911 C910 1.414 . S
C911 C912 1.374 . S
C912 H886 0.950 . S
C912 C908 1.385 . S
C912 C911 1.374 . S
C913 C910 1.499 . S
C913 C914 1.373 . S
C913 C915 1.389 . S
C914 H887 0.950 . S
C914 C900 1.377 . S
C914 C913 1.373 . S
C915 C899 1.377 . S
C915 C913 1.389 . S
C915 C916 1.524 . S
C916 C915 1.524 . S
C916 C917 1.397 . S
C916 C921 1.363 . S
C917 H888 0.950 . S
C917 C916 1.397 . S
C917 C918 1.334 . S
C918 H889 0.950 . S
C918 C917 1.334 . S
C918 C919 1.295 . S
C919 C918 1.295 . S
C919 C920 1.524 . S
C919 H922 0.989 1_545 S
C920 H890 0.950 1_545 S
C920 C919 1.524 . S
C920 C921 1.415 . S
C921 H891 0.950 . S
C921 C916 1.363 . S
C921 C920 1.415 . S
H922 C919 0.989 1_565 S
H923 C904 0.913 . S
H924 C942 0.951 . S
H925 C944 0.951 . S
H926 C946 0.950 . S
H927 C947 0.950 . S
H928 C949 0.950 . S
H929 C952 0.950 . S
H930 C953 0.950 . S
H931 C955 0.950 . S
H932 C956 0.950 . S
H933 C957 0.951 . S
H934 C959 0.951 . S
H935 C961 0.950 . S
H936 C962 0.950 . S
H937 C964 0.950 . S
H938 C967 0.950 . S
H939 C968 0.950 . S
H940 C970 0.950 . S
H941 C971 0.950 . S
C942 H924 0.951 . S
C942 C943 1.366 . S
C942 C944 1.388 . S
C943 C942 1.366 . S
C943 C947 1.385 . S
C944 H925 0.951 . S
C944 C942 1.388 . S
C944 C945 1.366 . S
C945 C944 1.366 . S
C945 C946 1.414 . S
C945 C948 1.499 . S
C946 H926 0.950 . S
C946 C945 1.414 . S
C946 C947 1.374 . S
C947 H927 0.950 . S
C947 C943 1.385 . S
C947 C946 1.374 . S
C948 C945 1.499 . S
C948 C949 1.373 . S
C948 C950 1.389 . S
C949 H928 0.950 . S
C949 C948 1.373 . S
C949 C965 1.377 . S
C950 C948 1.389 . S
C950 C951 1.524 . S
C950 C964 1.377 . S
C951 C950 1.524 . S
C951 C952 1.397 . S
C951 C956 1.363 . S
C952 H929 0.950 . S
C952 C951 1.397 . S
C952 C953 1.334 . S
C953 H930 0.950 . S
C953 C952 1.334 . S
C953 C954 1.287 . S
C954 C953 1.287 . S
C954 C955 1.524 . S
C954 H973 0.913 . S
C955 H931 0.950 . S
C955 C954 1.524 . S
C955 C956 1.415 . S
C956 H932 0.950 . S
C956 C951 1.363 . S
C956 C955 1.415 . S
C957 H933 0.951 . S
C957 C958 1.366 . S
C957 C959 1.388 . S
C958 C957 1.366 . S
C958 C962 1.385 . S
C959 H934 0.951 . S
C959 C957 1.388 . S
C959 C960 1.366 . S
C960 C959 1.366 . S
C960 C961 1.414 . S
C960 C963 1.499 . S
C961 H935 0.950 . S
C961 C960 1.414 . S
C961 C962 1.374 . S
C962 H936 0.950 . S
C962 C958 1.385 . S
C962 C961 1.374 . S
C963 C960 1.499 . S
C963 C964 1.373 . S
C963 C965 1.389 . S
C964 H937 0.950 . S
C964 C950 1.377 . S
C964 C963 1.373 . S
C965 C949 1.377 . S
C965 C963 1.389 . S
C965 C966 1.524 . S
C966 C965 1.524 . S
C966 C967 1.397 . S
C966 C971 1.363 . S
C967 H938 0.950 . S
C967 C966 1.397 . S
C967 C968 1.334 1_565 S
C968 H939 0.950 . S
C968 C967 1.334 1_545 S
C968 C969 1.287 . S
C969 C968 1.287 . S
C969 C970 1.524 . S
C969 H972 0.999 . S
C970 H940 0.950 . S
C970 C969 1.524 . S
C970 C971 1.415 1_545 S
C971 H941 0.950 . S
C971 C966 1.363 . S
C971 C970 1.415 1_565 S
H972 C969 0.999 . S
H973 C954 0.913 . S
H974 C992 0.951 . S
H975 C994 0.951 . S
H976 C996 0.950 . S
H977 C997 0.950 . S
H978 C999 0.950 . S
H979 C1002 0.950 . S
H980 C1003 0.950 . S
H981 C1005 0.950 . S
H982 C1006 0.950 . S
H983 C1007 0.951 . S
H984 C1009 0.951 . S
H985 C1011 0.950 . S
H986 C1012 0.950 . S
H987 C1014 0.950 . S
H988 C1017 0.950 . S
H989 C1018 0.950 . S
H990 C1020 0.950 . S
H991 C1021 0.950 . S
C992 H974 0.951 . S
C992 C993 1.366 . S
C992 C994 1.388 . S
C993 C992 1.366 . S
C993 C997 1.385 . S
C994 H975 0.951 . S
C994 C992 1.388 . S
C994 C995 1.366 . S
C995 C994 1.366 . S
C995 C996 1.414 . S
C995 C998 1.499 . S
C996 H976 0.950 . S
C996 C995 1.414 . S
C996 C997 1.374 . S
C997 H977 0.950 . S
C997 C993 1.385 . S
C997 C996 1.374 . S
C998 C995 1.499 . S
C998 C999 1.373 . S
C998 C1000 1.389 . S
C999 H978 0.950 . S
C999 C998 1.373 . S
C999 C1015 1.377 . S
C1000 C998 1.389 . S
C1000 C1001 1.524 . S
C1000 C1014 1.377 . S
C1001 C1000 1.524 . S
C1001 C1002 1.397 . S
C1001 C1006 1.363 . S
C1002 H979 0.950 . S
C1002 C1001 1.397 . S
C1002 C1003 1.334 . S
C1003 H980 0.950 . S
C1003 C1002 1.334 . S
C1003 C1004 1.287 . S
C1004 C1003 1.287 . S
C1004 C1005 1.524 . S
C1004 H1023 0.913 . S
C1005 H981 0.950 . S
C1005 C1004 1.524 . S
C1005 C1006 1.415 . S
C1006 H982 0.950 . S
C1006 C1001 1.363 . S
C1006 C1005 1.415 . S
C1007 H983 0.951 . S
C1007 C1008 1.366 . S
C1007 C1009 1.388 . S
C1008 C1007 1.366 . S
C1008 C1012 1.385 . S
C1009 H984 0.951 . S
C1009 C1007 1.388 . S
C1009 C1010 1.366 . S
C1010 C1009 1.366 . S
C1010 C1011 1.414 . S
C1010 C1013 1.499 . S
C1011 H985 0.950 . S
C1011 C1010 1.414 . S
C1011 C1012 1.374 . S
C1012 H986 0.950 . S
C1012 C1008 1.385 . S
C1012 C1011 1.374 . S
C1013 C1010 1.499 . S
C1013 C1014 1.373 . S
C1013 C1015 1.389 . S
C1014 H987 0.950 . S
C1014 C1000 1.377 . S
C1014 C1013 1.373 . S
C1015 C999 1.377 . S
C1015 C1013 1.389 . S
C1015 C1016 1.524 . S
C1016 C1015 1.524 . S
C1016 C1017 1.397 . S
C1016 C1021 1.363 . S
C1017 H988 0.950 . S
C1017 C1016 1.397 . S
C1017 C1018 1.334 1_565 S
C1018 H989 0.950 . S
C1018 C1017 1.334 1_545 S
C1018 C1019 1.287 . S
C1019 C1018 1.287 . S
C1019 C1020 1.524 . S
C1019 H1022 0.999 . S
C1020 H990 0.950 . S
C1020 C1019 1.524 . S
C1020 C1021 1.415 1_545 S
C1021 H991 0.950 . S
C1021 C1016 1.363 . S
C1021 C1020 1.415 1_565 S
H1022 C1019 0.999 . S
H1023 C1004 0.913 . S
H1024 C1042 0.951 . S
H1025 C1044 0.951 . S
H1026 C1046 0.950 . S
H1027 C1047 0.950 . S
H1028 C1049 0.950 . S
H1029 C1052 0.950 . S
H1030 C1053 0.950 . S
H1031 C1055 0.950 . S
H1032 C1056 0.950 . S
H1033 C1057 0.951 . S
H1034 C1059 0.951 . S
H1035 C1061 0.950 . S
H1036 C1062 0.950 . S
H1037 C1064 0.950 . S
H1038 C1067 0.950 . S
H1039 C1068 0.950 . S
H1040 C1070 0.948 1_565 S
H1041 C1071 0.950 . S
C1042 H1024 0.951 . S
C1042 C1043 1.366 . S
C1042 C1044 1.388 . S
C1043 C1042 1.366 . S
C1043 C1047 1.385 . S
C1044 H1025 0.951 . S
C1044 C1042 1.388 . S
C1044 C1045 1.366 . S
C1045 C1044 1.366 . S
C1045 C1046 1.414 . S
C1045 C1048 1.499 . S
C1046 H1026 0.950 . S
C1046 C1045 1.414 . S
C1046 C1047 1.374 . S
C1047 H1027 0.950 . S
C1047 C1043 1.385 . S
C1047 C1046 1.374 . S
C1048 C1045 1.499 . S
C1048 C1049 1.373 . S
C1048 C1050 1.389 . S
C1049 H1028 0.950 . S
C1049 C1048 1.373 . S
C1049 C1065 1.377 . S
C1050 C1048 1.389 . S
C1050 C1051 1.524 . S
C1050 C1064 1.377 . S
C1051 C1050 1.524 . S
C1051 C1052 1.397 . S
C1051 C1056 1.363 . S
C1052 H1029 0.950 . S
C1052 C1051 1.397 . S
C1052 C1053 1.334 . S
C1053 H1030 0.950 . S
C1053 C1052 1.334 . S
C1053 C1054 1.287 . S
C1054 C1053 1.287 . S
C1054 C1055 1.524 . S
C1054 H1073 0.913 . S
C1055 H1031 0.950 . S
C1055 C1054 1.524 . S
C1055 C1056 1.415 . S
C1056 H1032 0.950 . S
C1056 C1051 1.363 . S
C1056 C1055 1.415 . S
C1057 H1033 0.951 . S
C1057 C1058 1.366 . S
C1057 C1059 1.388 . S
C1058 C1057 1.366 . S
C1058 C1062 1.385 . S
C1059 H1034 0.951 . S
C1059 C1057 1.388 . S
C1059 C1060 1.366 . S
C1060 C1059 1.366 . S
C1060 C1061 1.414 . S
C1060 C1063 1.499 . S
C1061 H1035 0.950 . S
C1061 C1060 1.414 . S
C1061 C1062 1.374 . S
C1062 H1036 0.950 . S
C1062 C1058 1.385 . S
C1062 C1061 1.374 . S
C1063 C1060 1.499 . S
C1063 C1064 1.373 . S
C1063 C1065 1.389 . S
C1064 H1037 0.950 . S
C1064 C1050 1.377 . S
C1064 C1063 1.373 . S
C1065 C1049 1.377 . S
C1065 C1063 1.389 . S
C1065 C1066 1.524 . S
C1066 C1065 1.524 . S
C1066 C1067 1.397 . S
C1066 C1071 1.363 . S
C1067 H1038 0.950 . S
C1067 C1066 1.397 . S
C1067 C1068 1.334 1_545 S
C1068 H1039 0.950 . S
C1068 C1067 1.334 1_565 S
C1068 C1069 1.287 . S
C1069 C1068 1.287 . S
C1069 C1070 1.524 1_565 S
C1069 H1072 0.999 . S
C1070 H1040 0.948 1_545 S
C1070 C1069 1.524 1_545 S
C1070 C1071 1.415 . S
C1071 H1041 0.950 . S
C1071 C1066 1.363 . S
C1071 C1070 1.415 . S
H1072 C1069 0.999 . S
H1073 C1054 0.913 . S
H1074 C1092 0.951 . S
H1075 C1094 0.951 . S
H1076 C1096 0.950 . S
H1077 C1097 0.950 . S
H1078 C1099 0.950 . S
H1079 C1102 0.950 . S
H1080 C1103 0.950 . S
H1081 C1105 0.950 . S
H1082 C1106 0.950 . S
H1083 C1107 0.951 . S
H1084 C1109 0.951 . S
H1085 C1111 0.950 . S
H1086 C1112 0.950 . S
H1087 C1114 0.950 . S
H1088 C1117 0.950 . S
H1089 C1118 0.950 . S
H1090 C1120 0.950 . S
H1091 C1121 0.950 . S
C1092 H1074 0.951 . S
C1092 C1093 1.366 . S
C1092 C1094 1.388 . S
C1093 C1092 1.366 . S
C1093 C1097 1.385 . S
C1094 H1075 0.951 . S
C1094 C1092 1.388 . S
C1094 C1095 1.366 . S
C1095 C1094 1.366 . S
C1095 C1096 1.414 . S
C1095 C1098 1.499 . S
C1096 H1076 0.950 . S
C1096 C1095 1.414 . S
C1096 C1097 1.374 . S
C1097 H1077 0.950 . S
C1097 C1093 1.385 . S
C1097 C1096 1.374 . S
C1098 C1095 1.499 . S
C1098 C1099 1.373 . S
C1098 C1100 1.389 . S
C1099 H1078 0.950 . S
C1099 C1098 1.373 . S
C1099 C1115 1.377 . S
C1100 C1098 1.389 . S
C1100 C1101 1.524 . S
C1100 C1114 1.377 . S
C1101 C1100 1.524 . S
C1101 C1102 1.397 . S
C1101 C1106 1.363 . S
C1102 H1079 0.950 . S
C1102 C1101 1.397 . S
C1102 C1103 1.334 1_565 S
C1103 H1080 0.950 . S
C1103 C1102 1.334 1_545 S
C1103 C1104 1.287 . S
C1104 C1103 1.287 . S
C1104 C1105 1.524 . S
C1104 H1123 0.913 . S
C1105 H1081 0.950 . S
C1105 C1104 1.524 . S
C1105 C1106 1.415 1_545 S
C1106 H1082 0.950 . S
C1106 C1101 1.363 . S
C1106 C1105 1.415 1_565 S
C1107 H1083 0.951 . S
C1107 C1108 1.366 . S
C1107 C1109 1.388 . S
C1108 C1107 1.366 . S
C1108 C1112 1.385 . S
C1109 H1084 0.951 . S
C1109 C1107 1.388 . S
C1109 C1110 1.366 . S
C1110 C1109 1.366 . S
C1110 C1111 1.414 . S
C1110 C1113 1.499 . S
C1111 H1085 0.950 . S
C1111 C1110 1.414 . S
C1111 C1112 1.374 . S
C1112 H1086 0.950 . S
C1112 C1108 1.385 . S
C1112 C1111 1.374 . S
C1113 C1110 1.499 . S
C1113 C1114 1.373 . S
C1113 C1115 1.389 . S
C1114 H1087 0.950 . S
C1114 C1100 1.377 . S
C1114 C1113 1.373 . S
C1115 C1099 1.377 . S
C1115 C1113 1.389 . S
C1115 C1116 1.524 . S
C1116 C1115 1.524 . S
C1116 C1117 1.397 . S
C1116 C1121 1.363 . S
C1117 H1088 0.950 . S
C1117 C1116 1.397 . S
C1117 C1118 1.334 . S
C1118 H1089 0.950 . S
C1118 C1117 1.334 . S
C1118 C1119 1.287 . S
C1119 C1118 1.287 . S
C1119 C1120 1.524 . S
C1119 H1122 0.999 . S
C1120 H1090 0.950 . S
C1120 C1119 1.524 . S
C1120 C1121 1.415 . S
C1121 H1091 0.950 . S
C1121 C1116 1.363 . S
C1121 C1120 1.415 . S
H1122 C1119 0.999 . S
H1123 C1104 0.913 . S
H1124 C1142 0.951 . S
H1125 C1144 0.951 . S
H1126 C1146 0.950 . S
H1127 C1147 0.950 . S
H1128 C1149 0.950 . S
H1129 C1152 0.950 . S
H1130 C1153 0.950 . S
H1131 C1155 0.950 . S
H1132 C1156 0.950 . S
H1133 C1157 0.951 . S
H1134 C1159 0.951 . S
H1135 C1161 0.950 . S
H1136 C1162 0.950 . S
H1137 C1164 0.950 . S
H1138 C1167 0.950 . S
H1139 C1168 0.950 . S
H1140 C1170 0.950 . S
H1141 C1171 0.950 . S
C1142 H1124 0.951 . S
C1142 C1143 1.366 . S
C1142 C1144 1.388 . S
C1143 C1142 1.366 . S
C1143 C1147 1.385 . S
C1144 H1125 0.951 . S
C1144 C1142 1.388 . S
C1144 C1145 1.366 . S
C1145 C1144 1.366 . S
C1145 C1146 1.414 . S
C1145 C1148 1.499 . S
C1146 H1126 0.950 . S
C1146 C1145 1.414 . S
C1146 C1147 1.374 . S
C1147 H1127 0.950 . S
C1147 C1143 1.385 . S
C1147 C1146 1.374 . S
C1148 C1145 1.499 . S
C1148 C1149 1.373 . S
C1148 C1150 1.389 . S
C1149 H1128 0.950 . S
C1149 C1148 1.373 . S
C1149 C1165 1.377 1_554 S
C1150 C1148 1.389 . S
C1150 C1151 1.524 . S
C1150 C1164 1.377 1_554 S
C1151 C1150 1.524 . S
C1151 C1152 1.397 . S
C1151 C1156 1.363 . S
C1152 H1129 0.950 . S
C1152 C1151 1.397 . S
C1152 C1153 1.334 . S
C1153 H1130 0.950 . S
C1153 C1152 1.334 . S
C1153 C1154 1.287 . S
C1154 C1153 1.287 . S
C1154 C1155 1.524 . S
C1154 H1173 0.913 . S
C1155 H1131 0.950 . S
C1155 C1154 1.524 . S
C1155 C1156 1.415 . S
C1156 H1132 0.950 . S
C1156 C1151 1.363 . S
C1156 C1155 1.415 . S
C1157 H1133 0.951 . S
C1157 C1158 1.366 . S
C1157 C1159 1.388 . S
C1158 C1157 1.366 . S
C1158 C1162 1.385 . S
C1159 H1134 0.951 . S
C1159 C1157 1.388 . S
C1159 C1160 1.366 . S
C1160 C1159 1.366 . S
C1160 C1161 1.414 . S
C1160 C1163 1.499 . S
C1161 H1135 0.950 . S
C1161 C1160 1.414 . S
C1161 C1162 1.374 . S
C1162 H1136 0.950 . S
C1162 C1158 1.385 . S
C1162 C1161 1.374 . S
C1163 C1160 1.499 . S
C1163 C1164 1.373 . S
C1163 C1165 1.389 . S
C1164 H1137 0.950 . S
C1164 C1150 1.377 1_556 S
C1164 C1163 1.373 . S
C1165 C1149 1.377 1_556 S
C1165 C1163 1.389 . S
C1165 C1166 1.524 . S
C1166 C1165 1.524 . S
C1166 C1167 1.397 . S
C1166 C1171 1.363 . S
C1167 H1138 0.950 . S
C1167 C1166 1.397 . S
C1167 C1168 1.334 . S
C1168 H1139 0.950 . S
C1168 C1167 1.334 . S
C1168 C1169 1.287 . S
C1169 C1168 1.287 . S
C1169 C1170 1.524 . S
C1169 H1172 0.999 1_565 S
C1170 H1140 0.950 . S
C1170 C1169 1.524 . S
C1170 C1171 1.415 . S
C1171 H1141 0.950 . S
C1171 C1166 1.363 . S
C1171 C1170 1.415 . S
H1172 C1169 0.999 1_545 S
H1173 C1154 0.913 . S
H1174 C1192 0.951 . S
H1175 C1194 0.951 . S
H1176 C1196 0.950 . S
H1177 C1197 0.950 . S
H1178 C1199 0.950 . S
H1179 C1202 0.950 . S
H1180 C1203 0.950 . S
H1181 C1205 0.950 . S
H1182 C1206 0.950 . S
H1183 C1207 0.951 . S
H1184 C1209 0.951 . S
H1185 C1211 0.950 . S
H1186 C1212 0.950 . S
H1187 C1214 0.950 . S
H1188 C1217 0.950 . S
H1189 C1218 0.950 . S
H1190 C1220 0.950 . S
H1191 C1221 0.950 . S
C1192 H1174 0.951 . S
C1192 C1193 1.366 . S
C1192 C1194 1.388 . S
C1193 C1192 1.366 . S
C1193 C1197 1.385 . S
C1194 H1175 0.951 . S
C1194 C1192 1.388 . S
C1194 C1195 1.366 . S
C1195 C1194 1.366 . S
C1195 C1196 1.414 . S
C1195 C1198 1.499 . S
C1196 H1176 0.950 . S
C1196 C1195 1.414 . S
C1196 C1197 1.374 . S
C1197 H1177 0.950 . S
C1197 C1193 1.385 . S
C1197 C1196 1.374 . S
C1198 C1195 1.499 . S
C1198 C1199 1.373 . S
C1198 C1200 1.389 . S
C1199 H1178 0.950 . S
C1199 C1198 1.373 . S
C1199 C1215 1.377 1_554 S
C1200 C1198 1.389 . S
C1200 C1201 1.524 . S
C1200 C1214 1.377 1_554 S
C1201 C1200 1.524 . S
C1201 C1202 1.397 . S
C1201 C1206 1.363 1_554 S
C1202 H1179 0.950 . S
C1202 C1201 1.397 . S
C1202 C1203 1.334 . S
C1203 H1180 0.950 . S
C1203 C1202 1.334 . S
C1203 C1204 1.287 . S
C1204 C1203 1.287 . S
C1204 C1205 1.524 1_554 S
C1204 H1223 0.913 . S
C1205 H1181 0.950 . S
C1205 C1204 1.524 1_556 S
C1205 C1206 1.415 . S
C1206 H1182 0.950 . S
C1206 C1201 1.363 1_556 S
C1206 C1205 1.415 . S
C1207 H1183 0.951 . S
C1207 C1208 1.366 . S
C1207 C1209 1.388 . S
C1208 C1207 1.366 . S
C1208 C1212 1.385 . S
C1209 H1184 0.951 . S
C1209 C1207 1.388 . S
C1209 C1210 1.366 . S
C1210 C1209 1.366 . S
C1210 C1211 1.414 . S
C1210 C1213 1.499 . S
C1211 H1185 0.950 . S
C1211 C1210 1.414 . S
C1211 C1212 1.374 . S
C1212 H1186 0.950 . S
C1212 C1208 1.385 . S
C1212 C1211 1.374 . S
C1213 C1210 1.499 . S
C1213 C1214 1.373 . S
C1213 C1215 1.389 . S
C1214 H1187 0.950 . S
C1214 C1200 1.377 1_556 S
C1214 C1213 1.373 . S
C1215 C1199 1.377 1_556 S
C1215 C1213 1.389 . S
C1215 C1216 1.524 . S
C1216 C1215 1.524 . S
C1216 C1217 1.397 . S
C1216 C1221 1.363 1_556 S
C1217 H1188 0.950 . S
C1217 C1216 1.397 . S
C1217 C1218 1.334 . S
C1218 H1189 0.950 . S
C1218 C1217 1.334 . S
C1218 C1219 1.287 . S
C1219 C1218 1.287 . S
C1219 C1220 1.524 1_556 S
C1219 H1222 0.999 . S
C1220 H1190 0.950 . S
C1220 C1219 1.524 1_554 S
C1220 C1221 1.415 . S
C1221 H1191 0.950 . S
C1221 C1216 1.363 1_554 S
C1221 C1220 1.415 . S
H1222 C1219 0.999 . S
H1223 C1204 0.913 . S
C443 C38 1.886 1_655 S
C458 C144 1.895 1_455 S
C493 C197 1.895 . S
C508 C91 1.886 . S
C543 C356 1.895 . S
C558 C250 1.885 . S
C593 C303 1.885 1_455 S
C608 C409 1.895 1_655 S
C643 C340 2.079 . S
C658 C22 2.080 . S
C693 C75 2.080 . S
C708 C393 2.079 . S
C743 C128 2.079 . S
C758 C234 2.080 . S
C793 C181 2.079 . S
C808 C287 2.080 . S
C843 C357 2.261 . S
C858 C39 2.272 . S
C893 C92 2.272 . S
C908 C410 2.262 . S
C943 C251 2.272 . S
C958 C145 2.261 . S
C993 C304 2.272 . S
C1008 C198 2.261 . S
C1043 C82 0.433 . S
C1058 C29 0.433 . S
C1093 C135 0.431 . S
C1108 C188 0.432 . S
C1143 C294 0.432 . S
C1158 C241 0.433 . S
C1193 C347 0.433 . S
C1208 C400 0.433 . S
