# Generated by pormake.
# Topology smm, (6)-cn, num edge types: 1
# Building blocks:
#     Node 0, Type 0, BuildingBlock: BETFEN_clean_sbu_0, # of connection points: 6
#     Node 1, Type 0, BuildingBlock: BETFEN_clean_sbu_0, # of connection points: 6
#     Node 2, Type 0, BuildingBlock: BETFEN_clean_sbu_0, # of connection points: 6
#     Node 3, Type 0, BuildingBlock: BETFEN_clean_sbu_0, # of connection points: 6
#     Node 4, Type 0, BuildingBlock: BETFEN_clean_sbu_0, # of connection points: 6
#     Node 5, Type 0, BuildingBlock: BETFEN_clean_sbu_0, # of connection points: 6
#     Node 6, Type 0, BuildingBlock: BETFEN_clean_sbu_0, # of connection points: 6
#     Node 7, Type 0, BuildingBlock: BETFEN_clean_sbu_0, # of connection points: 6
#     Node 8, Type 0, BuildingBlock: BETFEN_clean_sbu_0, # of connection points: 6
#     Edge 9, Type (0, 0), BuildingBlock: XUDNAN_clean_linker_2, # of connection points: 2
#     Edge 10, Type (0, 0), BuildingBlock: XUDNAN_clean_linker_2, # of connection points: 2
#     Edge 11, Type (0, 0), BuildingBlock: XUDNAN_clean_linker_2, # of connection points: 2
#     Edge 12, Type (0, 0), BuildingBlock: XUDNAN_clean_linker_2, # of connection points: 2
#     Edge 13, Type (0, 0), BuildingBlock: XUDNAN_clean_linker_2, # of connection points: 2
#     Edge 14, Type (0, 0), BuildingBlock: XUDNAN_clean_linker_2, # of connection points: 2
#     Edge 15, Type (0, 0), BuildingBlock: XUDNAN_clean_linker_2, # of connection points: 2
#     Edge 16, Type (0, 0), BuildingBlock: XUDNAN_clean_linker_2, # of connection points: 2
#     Edge 17, Type (0, 0), BuildingBlock: XUDNAN_clean_linker_2, # of connection points: 2
#     Edge 18, Type (0, 0), BuildingBlock: XUDNAN_clean_linker_2, # of connection points: 2
#     Edge 19, Type (0, 0), BuildingBlock: XUDNAN_clean_linker_2, # of connection points: 2
#     Edge 20, Type (0, 0), BuildingBlock: XUDNAN_clean_linker_2, # of connection points: 2
#     Edge 21, Type (0, 0), BuildingBlock: XUDNAN_clean_linker_2, # of connection points: 2
#     Edge 22, Type (0, 0), BuildingBlock: XUDNAN_clean_linker_2, # of connection points: 2
#     Edge 23, Type (0, 0), BuildingBlock: XUDNAN_clean_linker_2, # of connection points: 2
#     Edge 24, Type (0, 0), BuildingBlock: XUDNAN_clean_linker_2, # of connection points: 2
#     Edge 25, Type (0, 0), BuildingBlock: XUDNAN_clean_linker_2, # of connection points: 2
#     Edge 26, Type (0, 0), BuildingBlock: XUDNAN_clean_linker_2, # of connection points: 2
#     Edge 27, Type (0, 0), BuildingBlock: XUDNAN_clean_linker_2, # of connection points: 2
#     Edge 28, Type (0, 0), BuildingBlock: XUDNAN_clean_linker_2, # of connection points: 2
#     Edge 29, Type (0, 0), BuildingBlock: XUDNAN_clean_linker_2, # of connection points: 2
#     Edge 30, Type (0, 0), BuildingBlock: XUDNAN_clean_linker_2, # of connection points: 2
#     Edge 31, Type (0, 0), BuildingBlock: XUDNAN_clean_linker_2, # of connection points: 2
#     Edge 32, Type (0, 0), BuildingBlock: XUDNAN_clean_linker_2, # of connection points: 2
#     Edge 33, Type (0, 0), BuildingBlock: XUDNAN_clean_linker_2, # of connection points: 2
#     Edge 34, Type (0, 0), BuildingBlock: XUDNAN_clean_linker_2, # of connection points: 2
#     Edge 35, Type (0, 0), BuildingBlock: XUDNAN_clean_linker_2, # of connection points: 2
# Relax obj value: 0.111
# Max RMSD: 0.190
# Mean RMSD: 0.159
data_MOF--net-smm--node1-BETFEN_clean_sbu_0--edge1-XUDNAN_clean_linker_2
_symmetry_space_group_name_H-M    P1
_symmetry_Int_Tables_number       1
_symmetry_cell_setting            triclinic
loop_
_symmetry_equiv_pos_as_xyz
'x, y, z'
_cell_length_a     60.36697
_cell_length_b     79.680959
_cell_length_c     14.445331
_cell_angle_alpha  93.019819
_cell_angle_beta   93.861335
_cell_angle_gamma 122.57358
loop_
_atom_site_label
_atom_site_type_symbol
_atom_site_fract_x
_atom_site_fract_y
_atom_site_fract_z
_atom_type_partial_charge
Pr0 Pr 0.10736 0.23229 0.05671 0.0
Pr1 Pr 1.05736 0.19419 0.07464 0.0
C2 C 0.14496 0.26594 -0.00727 0.0
C3 C 0.15651 0.28753 -0.00603 0.0
C4 C 0.171 0.30063 0.07477 0.0
C5 C 0.184 0.32123 0.07186 0.0
C6 C 0.1825 0.32906 -0.01156 0.0
C7 C 0.16743 0.31589 0.90828 0.0
C8 C 0.15466 0.29529 0.91097 0.0
C9 C 0.09995 0.22481 0.24239 0.0
C10 C 1.05245 0.23337 0.08705 0.0
C11 C 1.02217 0.15607 0.10545 0.0
C12 C 1.02248 0.13748 0.10143 0.0
C13 C 1.00481 0.12114 0.03554 0.0
C14 C 1.00423 0.10329 0.03242 0.0
C15 C 1.0213 0.1013 0.09544 0.0
C16 C 1.03969 0.11795 0.15907 0.0
C17 C 1.04029 0.1358 0.16208 0.0
C18 C 0.06606 0.20326 0.89203 0.0
C19 C 0.11296 0.19483 0.07562 0.0
O20 O 0.12133 0.25401 0.94753 0.0
O21 O 0.14906 0.25929 0.06884 0.0
O22 O 0.08234 0.22206 0.18011 0.0
O23 O 0.12288 0.23274 0.21119 0.0
O24 O 1.04073 0.21446 0.10563 0.0
O25 O 0.07668 0.24284 0.0604 0.0
O26 O 1.0375 0.17024 0.1727 0.0
O27 O 1.02165 0.16303 0.02599 0.0
O28 O 0.08288 0.20443 0.95303 0.0
O29 O 1.04396 0.19786 0.92506 0.0
O30 O 0.12287 0.21116 0.03303 0.0
O31 O 0.09055 0.18778 0.1119 0.0
H32 H 0.17288 0.29506 0.13966 0.0
H33 H 0.19586 0.33101 0.13436 0.0
H34 H 0.16566 0.32149 0.8433 0.0
H35 H 0.1437 0.28543 0.84766 0.0
H36 H 0.99109 0.12207 -0.01283 0.0
H37 H 0.98976 0.09082 -0.01731 0.0
H38 H 1.05357 0.11717 0.20727 0.0
H39 H 1.05458 0.14819 0.21259 0.0
Pr40 Pr 0.96254 0.83182 0.00774 0.0
Pr41 Pr 0.96278 0.87132 0.97463 0.0
C42 C 0.95342 0.79535 0.05645 0.0
C43 C 0.94039 0.77254 0.06316 0.0
C44 C 0.93316 0.7582 -0.01482 0.0
C45 C 0.92363 0.73758 -0.00479 0.0
C46 C 0.92121 0.73018 0.08389 0.0
C47 C 0.92791 0.74455 0.1611 0.0
C48 C 0.93713 0.76496 0.15104 0.0
C49 C 0.96361 0.84119 0.82339 0.0
C50 C 0.90506 0.83075 0.957 0.0
C51 C 0.96625 0.90494 0.92501 0.0
C52 C 0.97534 0.92588 0.95807 0.0
C53 C 0.96791 0.93045 0.04111 0.0
C54 C 0.97461 0.94995 0.06696 0.0
C55 C 0.98918 0.96551 0.01112 0.0
C56 C 0.99681 0.96092 0.92841 0.0
C57 C 0.98991 0.94132 0.9022 0.0
C58 C 0.95946 0.86218 0.15989 0.0
C59 C 1.02169 0.87809 0.01008 0.0
O60 O 0.94803 0.80659 0.10735 0.0
O61 O 0.96403 0.80363 0.98204 0.0
O62 O 0.95053 0.8429 0.88279 0.0
O63 O 0.97561 0.83286 0.85566 0.0
O64 O 0.9193 0.84737 0.91786 0.0
O65 O 0.91676 0.82288 0.00334 0.0
O66 O 0.984 0.90083 0.90884 0.0
O67 O 0.94607 0.89059 0.96091 0.0
O68 O 0.97374 0.85995 0.10657 0.0
O69 O 0.94877 0.87069 0.11998 0.0
O70 O 1.00958 0.86009 0.04511 0.0
O71 O 1.00739 0.88351 0.96372 0.0
H72 H 0.93531 0.76298 0.91577 0.0
H73 H 0.91901 0.72758 0.93303 0.0
H74 H 0.92617 0.74009 0.23105 0.0
H75 H 0.94237 0.77506 0.21353 0.0
H76 H 0.95647 0.91888 0.08546 0.0
H77 H 0.96784 0.95269 0.13011 0.0
H78 H 1.00827 0.97246 0.88403 0.0
H79 H 0.99569 0.93817 0.83743 0.0
Pr80 Pr 0.27025 1.03075 0.01764 0.0
Pr81 Pr 0.24584 0.05573 0.05013 0.0
C82 C 0.29599 1.01379 0.96222 0.0
C83 C 0.31018 1.00455 0.9307 0.0
C84 C 0.31595 0.99368 -0.01007 0.0
C85 C 0.3303 0.98559 0.96098 0.0
C86 C 0.33982 0.98863 0.87285 0.0
C87 C 0.33433 0.99995 0.81474 0.0
C88 C 0.3194 1.00756 0.84282 0.0
C89 C 0.26166 0.03556 0.20121 0.0
C90 C 0.31315 0.081 0.05057 0.0
C91 C 0.23331 0.08288 0.09468 0.0
C92 C 0.21669 0.09152 0.08693 0.0
C93 C 0.22148 0.10573 0.02379 0.0
C94 C 0.20919 0.11651 0.02736 0.0
C95 C 0.19184 0.11345 0.09446 0.0
C96 C 0.18615 0.09852 0.15445 0.0
C97 C 0.19854 0.08787 0.15129 0.0
C98 C 0.23951 0.04056 0.86441 0.0
C99 C 0.20474 1.00539 0.03678 0.0
O100 O 0.27862 1.01447 0.90563 0.0
O101 O 0.29936 1.02139 0.04839 0.0
O102 O 0.2707 0.049 0.14675 0.0
O103 O 0.25764 1.01887 0.16306 0.0
O104 O 0.2922 0.08152 0.069 0.0
O105 O 0.31005 0.06354 0.02479 0.0
O106 O 0.22624 0.06729 0.14085 0.0
O107 O 0.24705 0.08401 0.02629 0.0
O108 O 0.26029 0.04817 0.9202 0.0
O109 O 0.2214 0.04135 0.90394 0.0
O110 O 0.2235 1.00488 -0.00498 0.0
O111 O 0.21 1.02282 0.07749 0.0
H112 H 0.30915 0.99127 0.0584 0.0
H113 H 0.33356 0.97674 0.00757 0.0
H114 H 0.34185 1.00328 0.74771 0.0
H115 H 0.31564 1.01625 0.79662 0.0
H116 H 0.23562 0.10918 0.97398 0.0
H117 H 0.21432 0.12791 0.98038 0.0
H118 H 0.17246 0.09528 0.20575 0.0
H119 H 0.19454 0.07723 0.2016 0.0
Pr120 Pr 0.79502 0.5366 0.13866 0.0
Pr121 Pr 0.84546 0.53643 0.12501 0.0
C122 C 0.75992 0.54245 0.21147 0.0
C123 C 0.75658 0.5589 0.23589 0.0
C124 C 0.76088 0.57302 0.1735 0.0
C125 C 0.75713 0.58837 0.19847 0.0
C126 C 0.74927 0.58983 0.28623 0.0
C127 C 0.74569 0.57597 0.3493 0.0
C128 C 0.74934 0.56061 0.32419 0.0
C129 C 0.80208 0.52931 0.95917 0.0
C130 C 0.85133 0.58169 0.11891 0.0
C131 C 0.88025 0.52591 0.08604 0.0
C132 C 0.88561 0.50955 0.09223 0.0
C133 C 0.89145 0.50414 0.17787 0.0
C134 C 0.89793 0.4895 0.18023 0.0
C135 C 0.89877 0.47982 0.09707 0.0
C136 C 0.89324 0.48556 0.01201 0.0
C137 C 0.88667 0.49998 0.00973 0.0
C138 C 0.83274 0.53822 0.3047 0.0
C139 C 0.78416 0.49167 0.1215 0.0
O140 O 0.77884 0.54267 0.26278 0.0
O141 O 0.75801 0.53705 0.12241 0.0
O142 O 0.8208 0.54223 0.01913 0.0
O143 O 0.77889 0.52108 -0.0111 0.0
O144 O 0.8636 0.57184 0.10963 0.0
O145 O 0.82612 0.57176 0.13467 0.0
O146 O 0.86084 0.52276 0.02562 0.0
O147 O 0.88299 0.53675 0.16247 0.0
O148 O 0.8172 0.52743 0.23416 0.0
O149 O 0.85697 0.54898 0.28465 0.0
O150 O 0.77302 0.5018 0.13625 0.0
O151 O 0.81004 0.50121 0.11326 0.0
H152 H 0.76697 0.57215 0.10552 0.0
H153 H 0.76032 0.59906 0.14925 0.0
H154 H 0.73937 0.57665 0.41706 0.0
H155 H 0.74624 0.54993 0.37339 0.0
H156 H 0.89107 0.51125 0.24321 0.0
H157 H 0.90186 0.48557 0.24721 0.0
H158 H 0.89427 0.47906 0.94602 0.0
H159 H 0.88275 0.50389 0.94259 0.0
Pr160 Pr 0.56226 0.20281 0.1322 0.0
Pr161 Pr 0.56432 0.24244 0.10636 0.0
C162 C 0.56117 0.17139 0.19448 0.0
C163 C 0.5479 0.15248 0.23562 0.0
C164 C 0.55366 0.13829 0.20796 0.0
C165 C 0.54573 0.1218 0.25725 0.0
C166 C 0.53173 0.1192 0.3348 0.0
C167 C 0.52465 0.13289 0.35909 0.0
C168 C 0.53279 0.14951 0.30993 0.0
C169 C 0.5661 0.21289 0.95001 0.0
C170 C 0.50383 0.19811 0.09778 0.0
C171 C 0.58129 0.2807 0.06751 0.0
C172 C 0.6055 0.30206 0.07863 0.0
C173 C 0.62177 0.31118 0.1641 0.0
C174 C 0.64303 0.33153 0.17484 0.0
C175 C 0.64908 0.34376 0.10065 0.0
C176 C 0.63282 0.33453 0.015 0.0
C177 C 0.61157 0.31413 0.00426 0.0
C178 C 0.56448 0.23331 0.28901 0.0
C179 C 0.6201 0.24139 0.11831 0.0
O180 O 0.56826 0.18761 0.24825 0.0
O181 O 0.55437 0.1716 0.10678 0.0
O182 O 0.55181 0.21482 0.00436 0.0
O183 O 0.57693 0.20411 -0.01318 0.0
O184 O 0.51663 0.21725 0.07653 0.0
O185 O 0.5171 0.19043 0.13054 0.0
O186 O 0.58029 0.2673 0.0078 0.0
O187 O 0.57008 0.27291 0.14184 0.0
O188 O 0.57709 0.23125 0.22841 0.0
O189 O 0.55221 0.24151 0.25815 0.0
O190 O 0.60754 0.22384 0.14975 0.0
O191 O 0.6078 0.25013 0.09 0.0
H192 H 0.56558 0.14055 0.15131 0.0
H193 H 0.55191 0.11175 0.23762 0.0
H194 H 0.51356 0.1311 0.41777 0.0
H195 H 0.5282 0.16038 0.33225 0.0
H196 H 0.6179 0.30263 0.22353 0.0
H197 H 0.65446 0.33776 0.24267 0.0
H198 H 0.63666 0.34301 0.95536 0.0
H199 H 0.59959 0.3078 0.93738 0.0
Pr200 Pr 0.99561 0.36862 0.19867 0.0
Pr201 Pr 0.93811 0.33544 0.14476 0.0
C202 C 1.04418 0.39413 0.28528 0.0
C203 C 0.07086 0.40814 0.33275 0.0
C204 C 0.09164 0.42053 0.28136 0.0
C205 C 0.1172 0.43343 0.32621 0.0
C206 C 0.12231 0.43389 0.42285 0.0
C207 C 0.10141 0.42165 0.47426 0.0
C208 C 0.07584 0.40891 0.42958 0.0
C209 C 0.97999 0.36245 0.00896 0.0
C210 C 0.98225 0.32188 0.16023 0.0
C211 C 0.8878 0.30606 0.0843 0.0
C212 C 0.86067 0.30176 0.08632 0.0
C213 C 0.84789 0.29727 0.16805 0.0
C214 C 0.82135 0.29144 0.16519 0.0
C215 C 0.80713 0.29 0.08061 0.0
C216 C 0.8205 0.29564 0.00058 0.0
C217 C 0.8468 0.30128 0.00326 0.0
C218 C 0.95054 0.35212 0.33065 0.0
C219 C 0.95322 0.38174 0.14566 0.0
O220 O 1.02302 0.38758 0.32844 0.0
O221 O 1.04001 0.38743 0.19709 0.0
O222 O 0.97357 0.34883 0.06187 0.0
O223 O 0.9961 0.38025 0.05251 0.0
O224 O 0.9571 0.31601 0.14167 0.0
O225 O 1.00089 0.34102 0.18497 0.0
O226 O 0.90319 0.32003 0.03307 0.0
O227 O 0.90032 0.30605 0.16202 0.0
O228 O 0.96389 0.34724 0.28684 0.0
O229 O 0.92979 0.34818 0.27788 0.0
O230 O 0.97473 0.38705 0.20226 0.0
O231 O 0.93875 0.36351 0.10131 0.0
H232 H 0.08814 0.4202 0.20654 0.0
H233 H 0.13305 0.44266 0.2851 0.0
H234 H 0.10485 0.42194 0.54909 0.0
H235 H 1.06009 0.39943 0.47053 0.0
H236 H 0.85812 0.2977 0.23357 0.0
H237 H 0.81169 0.28724 0.22815 0.0
H238 H 0.81042 0.29524 0.93478 0.0
H239 H 0.85613 0.30483 0.93939 0.0
Pr240 Pr 0.49627 0.9269 0.76534 0.0
Pr241 Pr 0.44787 0.8905 0.79213 0.0
C242 C 0.53273 0.96169 0.70709 0.0
C243 C 0.5315 0.9781 0.67205 0.0
C244 C 0.55067 0.99776 0.70891 0.0
C245 C 0.54874 1.01351 0.68265 0.0
C246 C 0.52757 1.00981 0.619 0.0
C247 C 0.50857 0.99012 0.58058 0.0
C248 C 0.51041 0.97431 0.60741 0.0
C249 C 0.49104 0.92038 0.95328 0.0
C250 C 0.44257 0.92754 0.77921 0.0
C251 C 0.41026 0.85579 0.84524 0.0
C252 C 0.40587 0.83614 0.82327 0.0
C253 C 0.41065 0.83122 0.73529 0.0
C254 C 0.41196 0.81449 0.71958 0.0
C255 C 0.40911 0.80272 0.79218 0.0
C256 C 0.40374 0.8074 0.87961 0.0
C257 C 0.40206 0.82404 0.89496 0.0
C258 C 0.45437 0.89611 0.6029 0.0
C259 C 0.50242 0.88931 0.77731 0.0
O260 O 0.52015 0.94477 0.65326 0.0
O261 O 0.52955 0.95947 0.79521 0.0
O262 O 0.47334 0.91863 0.89457 0.0
O263 O 0.51232 0.92511 0.91529 0.0
O264 O 0.4348 0.91233 0.82814 0.0
O265 O 0.46296 0.93353 0.7315 0.0
O266 O 0.43243 0.86821 0.89804 0.0
O267 O 0.40578 0.86374 0.7752 0.0
O268 O 0.47159 0.89835 0.66508 0.0
O269 O 0.43224 0.8904 0.63663 0.0
O270 O 0.51324 0.90713 0.74785 0.0
O271 O 0.47873 0.88048 0.80689 0.0
H272 H 0.56689 1.00088 0.75934 0.0
H273 H 0.5638 1.02862 0.7123 0.0
H274 H 0.49197 0.98691 0.53189 0.0
H275 H 0.49509 0.95917 0.57898 0.0
H276 H 0.41446 0.84075 0.67971 0.0
H277 H 0.4157 0.81099 0.65117 0.0
H278 H 0.40184 0.79868 0.93709 0.0
H279 H 0.39919 0.82804 0.96394 0.0
Pr280 Pr 0.36603 0.55474 0.74306 0.0
Pr281 Pr 0.34983 0.58238 0.69954 0.0
C282 C 0.36744 0.52487 0.81352 0.0
C283 C 0.34618 0.50562 0.8395 0.0
C284 C 0.3464 0.48837 0.81863 0.0
C285 C 0.32581 0.46988 0.84033 0.0
C286 C 0.30463 0.4684 0.88288 0.0
C287 C 0.30417 0.48566 0.90183 0.0
C288 C 0.32478 0.50413 0.88034 0.0
C289 C 0.36521 0.56052 0.55361 0.0
C290 C 0.303 0.53702 0.68335 0.0
C291 C 0.3435 0.61015 0.63202 0.0
C292 C 0.3572 0.63167 0.65385 0.0
C293 C 0.36368 0.64025 0.74687 0.0
C294 C 0.37735 0.66088 0.76643 0.0
C295 C 0.38495 0.67307 0.69331 0.0
C296 C 0.37925 0.66451 0.60062 0.0
C297 C 0.36538 0.64385 0.58101 0.0
C298 C 0.34868 0.57585 0.88701 0.0
C299 C 0.4144 0.60039 0.74724 0.0
O300 O 0.37255 0.5408 0.86521 0.0
O301 O 0.3671 0.52681 0.72429 0.0
O302 O 0.3478 0.55765 0.60518 0.0
O303 O 0.38424 0.56008 0.59891 0.0
O304 O 0.31116 0.55309 0.64052 0.0
O305 O 0.3197 0.53584 0.74188 0.0
O306 O 0.35749 0.60415 0.59408 0.0
O307 O 0.32957 0.59915 0.69567 0.0
O308 O 0.36716 0.57914 0.83949 0.0
O309 O 0.32982 0.5758 0.83803 0.0
O310 O 0.40828 0.58269 0.76885 0.0
O311 O 0.39632 0.60384 0.71596 0.0
H312 H 0.36254 0.48923 0.78575 0.0
H313 H 0.32675 0.45682 0.82553 0.0
H314 H 0.28783 0.48488 0.93287 0.0
H315 H 0.32388 0.51721 0.89532 0.0
H316 H 0.35812 0.63106 0.80431 0.0
H317 H 0.38175 0.66733 0.83839 0.0
H318 H 0.38474 0.67374 0.54334 0.0
H319 H 0.36093 0.63736 0.50911 0.0
Pr320 Pr 0.66057 0.72986 0.79486 0.0
Pr321 Pr 0.64906 0.76269 0.83869 0.0
C322 C 0.6623 0.70002 0.70993 0.0
C323 C 0.67891 0.69279 0.68389 0.0
C324 C 0.66971 0.67265 0.69126 0.0
C325 C 0.68139 0.66397 0.64632 0.0
C326 C 0.70216 0.6754 0.59337 0.0
C327 C 0.71264 0.69585 0.59137 0.0
C328 C 0.7012 0.70461 0.63724 0.0
C329 C 0.66786 0.74196 -0.01499 0.0
C330 C 0.71166 0.77388 0.84724 0.0
C331 C 0.63314 0.7869 0.90103 0.0
C332 C 0.6161 0.79439 0.87298 0.0
C333 C 0.61337 0.7985 0.78105 0.0
C334 C 0.59977 0.80776 0.75848 0.0
C335 C 0.58864 0.81327 0.82728 0.0
C336 C 0.59022 0.80814 0.91821 0.0
C337 C 0.60381 0.79882 0.94067 0.0
C338 C 0.65132 0.75497 0.64973 0.0
C339 C 0.59822 0.71465 0.79853 0.0
O340 O 0.66524 0.71522 0.66878 0.0
O341 O 0.65738 0.70011 0.79681 0.0
O342 O 0.64978 0.73997 0.92737 0.0
O343 O 0.68179 0.73616 0.9458 0.0
O344 O 0.69555 0.77784 0.88849 0.0
O345 O 0.7018 0.75812 0.78583 0.0
O346 O 0.62161 0.76819 0.91748 0.0
O347 O 0.65438 0.79308 0.85907 0.0
O348 O 0.64098 0.74244 0.70732 0.0
O349 O 0.6603 0.77289 0.68803 0.0
O350 O 0.61592 0.7099 0.79874 0.0
O351 O 0.605 0.73357 0.80927 0.0
H352 H 0.65242 0.66333 0.72637 0.0
H353 H 0.67308 0.64808 0.64749 0.0
H354 H 0.72866 0.70472 0.55018 0.0
H355 H 0.70867 0.72022 0.63086 0.0
H356 H 0.62236 0.79504 0.72708 0.0
H357 H 0.59845 0.81098 0.68715 0.0
H358 H 0.58206 0.81216 0.97321 0.0
H359 H 0.60552 0.79572 0.01201 0.0
H360 H 0.2098 0.34993 0.84702 0.0
H361 H 0.18924 0.35755 0.12187 0.0
H362 H 0.21696 0.39415 0.12091 0.0
H363 H 0.27568 0.38967 0.87924 0.0
H364 H 0.27648 0.39752 0.76407 0.0
H365 H 0.25372 0.37178 0.78239 0.0
H366 H 0.21444 0.37332 0.71087 0.0
H367 H 0.23711 0.39904 0.69126 0.0
H368 H 0.20975 0.39251 0.75734 0.0
H369 H 0.24841 0.42929 0.0955 0.0
H370 H 0.28208 0.46173 0.04561 0.0
H371 H 0.28027 0.43141 0.78352 0.0
C372 C 0.21057 0.35926 0.90604 0.0
C373 C 0.1974 0.35092 -0.01535 0.0
C374 C 0.19946 0.36365 0.06149 0.0
C375 C 0.21494 0.38443 0.0613 0.0
C376 C 0.22783 0.39214 -0.01678 0.0
C377 C 0.22566 0.38002 0.90656 0.0
C378 C 0.24231 0.39223 0.83292 0.0
C379 C 0.26329 0.38752 0.81362 0.0
C380 C 0.22485 0.38908 0.74279 0.0
C381 C 0.25474 0.41308 0.88179 0.0
C382 C 0.24592 0.41265 0.96792 0.0
C383 C 0.25523 0.42993 0.0276 0.0
C384 C 0.27422 0.44825 -0.00154 0.0
C385 C 0.28361 0.44906 0.91052 0.0
C386 C 0.27354 0.43123 0.8513 0.0
H387 H 0.85871 0.79382 0.88784 0.0
H388 H 0.88694 0.85258 0.02594 0.0
H389 H 0.8412 0.84454 0.01627 0.0
H390 H 0.80903 0.79148 0.72606 0.0
H391 H 0.78508 0.76515 0.7295 0.0
H392 H 0.81988 0.77498 0.7525 0.0
H393 H 0.81215 0.76027 0.91156 0.0
H394 H 0.77732 0.75043 0.88868 0.0
H395 H 0.79605 0.76672 -0.0062 0.0
H396 H 0.79191 0.83038 -0.00941 0.0
H397 H 0.74346 0.81149 0.94478 0.0
H398 H 0.7466 0.76241 0.81672 0.0
C399 C 0.85512 0.80474 0.91815 0.0
C400 C 0.87653 0.82369 0.96021 0.0
C401 C 0.87094 0.83784 -0.00461 0.0
C402 C 0.84495 0.83344 -0.01017 0.0
C403 C 0.82432 0.81479 0.94766 0.0
C404 C 0.82904 0.80065 0.91207 0.0
C405 C 0.80321 0.78205 0.86704 0.0
C406 C 0.80439 0.7782 0.76258 0.0
C407 C 0.7968 0.76378 0.91831 0.0
C408 C 0.78351 0.7881 0.88196 0.0
C409 C 0.79605 0.80696 0.92959 0.0
C410 C 0.78192 0.81561 0.95279 0.0
C411 C 0.75433 0.80478 0.92644 0.0
C412 C 0.74101 0.78557 0.87585 0.0
C413 C 0.75604 0.77721 0.85397 0.0
H414 H 0.37266 0.98064 0.97965 0.0
H415 H 0.34111 0.97599 0.69283 0.0
H416 H 0.36612 0.962 0.6392 0.0
H417 H 0.43722 0.99184 0.93203 0.0
H418 H 0.43854 0.97664 0.01756 0.0
H419 H 0.42016 0.98819 0.03418 0.0
H420 H 0.37822 0.95351 0.04959 0.0
H421 H 0.3965 0.9419 0.03306 0.0
H422 H 0.36652 0.9334 0.9579 0.0
H423 H 0.39475 0.94877 0.61461 0.0
H424 H 0.42182 0.93397 0.62339 0.0
H425 H 0.43004 0.94285 0.9254 0.0
C426 C 0.37066 0.97655 0.90555 0.0
C427 C 0.35496 0.97985 0.84086 0.0
C428 C 0.3535 0.97437 0.74437 0.0
C429 C 0.3675 0.96618 0.71287 0.0
C430 C 0.38261 0.96314 0.77841 0.0
C431 C 0.38405 0.9679 0.87284 0.0
C432 C 0.40073 0.96215 0.92881 0.0
C433 C 0.42564 0.98082 0.98123 0.0
C434 C 0.38451 0.94682 -0.00373 0.0
C435 C 0.40781 0.95295 0.8509 0.0
C436 C 0.39774 0.95419 0.76458 0.0
C437 C 0.40259 0.94756 0.68174 0.0
C438 C 0.418 0.93927 0.68722 0.0
C439 C 0.42771 0.93726 0.77481 0.0
C440 C 0.42253 0.94412 0.85764 0.0
H441 H 0.47286 0.158 0.02399 0.0
H442 H 0.46606 0.20528 0.15075 0.0
H443 H 0.41792 0.18081 0.15346 0.0
H444 H 0.40795 0.13287 0.87502 0.0
H445 H 0.40132 0.10811 0.88333 0.0
H446 H 0.43498 0.1293 0.88994 0.0
H447 H 0.44581 0.12012 0.04793 0.0
H448 H 0.41219 0.09899 0.04218 0.0
H449 H 0.4264 0.11757 0.14209 0.0
H450 H 0.36988 0.15022 0.14921 0.0
H451 H 0.32687 0.11797 0.12915 0.0
H452 H 0.36279 0.0895 -0.00173 0.0
C453 C 0.46117 0.16333 0.05098 0.0
C454 C 0.4737 0.18397 0.08634 0.0
C455 C 0.45734 0.18994 0.12148 0.0
C456 C 0.42982 0.17596 0.12396 0.0
C457 C 0.41825 0.15581 0.08931 0.0
C458 C 0.4334 0.14958 0.05173 0.0
C459 C 0.41586 0.12716 0.01641 0.0
C460 C 0.41498 0.12418 0.90986 0.0
C461 C 0.42565 0.11526 0.0651 0.0
C462 C 0.38867 0.12148 0.0437 0.0
C463 C 0.3906 0.13835 0.08506 0.0
C464 C 0.36834 0.13706 0.11617 0.0
C465 C 0.3437 0.11844 0.10427 0.0
C466 C 0.34063 0.10068 0.06175 0.0
C467 C 0.36389 0.10248 0.03133 0.0
H468 H 1.03093 0.32623 0.13363 0.0
H469 H 0.94921 0.2817 0.16791 0.0
H470 H 0.95863 0.25526 0.15447 0.0
H471 H 1.03782 0.29459 0.96032 0.0
H472 H 0.0716 0.30381 0.00296 0.0
H473 H 1.05905 0.31971 0.01747 0.0
H474 H 0.07275 0.32502 0.19546 0.0
H475 H 0.08526 0.3091 0.18141 0.0
H476 H 1.06079 0.30356 0.26018 0.0
H477 H 0.9765 0.23324 0.14078 0.0
H478 H 1.0009 0.2169 0.119 0.0
H479 H 0.07143 0.27437 0.08544 0.0
C480 C 1.01506 0.31093 0.13889 0.0
C481 C 0.9892 0.30626 0.15275 0.0
C482 C 0.9691 0.28589 0.15755 0.0
C483 C 0.97429 0.27067 0.1501 0.0
C484 C 0.99975 0.2757 0.13644 0.0
C485 C 1.01983 0.2953 0.12993 0.0
C486 C 1.04522 0.29627 0.11219 0.0
C487 C 1.05394 0.30407 0.01762 0.0
C488 C 0.06732 0.30926 0.19207 0.0
C489 C 1.03627 0.27425 0.11072 0.0
C490 C 1.00994 0.26276 0.1254 0.0
C491 C 0.99708 0.24212 0.12862 0.0
C492 C 1.01124 0.23292 0.11611 0.0
C493 C 1.03822 0.2441 0.09959 0.0
C494 C 1.05082 0.26519 0.09703 0.0
H495 H 0.88489 0.69193 0.9747 0.0
H496 H 0.94002 0.71783 0.22742 0.0
H497 H 0.92912 0.68435 0.25864 0.0
H498 H 0.83521 0.64631 0.07066 0.0
H499 H 0.82638 0.62993 0.965 0.0
H500 H 0.83873 0.65604 0.95893 0.0
H501 H 0.87556 0.65965 0.86402 0.0
H502 H 0.86327 0.63354 0.87006 0.0
H503 H 0.89733 0.65242 0.91062 0.0
H504 H 0.91379 0.64722 0.26237 0.0
H505 H 0.89225 0.61039 0.24505 0.0
H506 H 0.84368 0.60588 -0.0017 0.0
C507 C 0.89485 0.69069 0.03654 0.0
C508 C 0.91357 0.70842 0.0985 0.0
C509 C 0.92548 0.70522 0.17853 0.0
C510 C 0.9195 0.68596 0.1969 0.0
C511 C 0.90118 0.66908 0.13549 0.0
C512 C 0.88874 0.67116 0.0571 0.0
C513 C 0.86905 0.65017 0.00462 0.0
C514 C 0.84065 0.64533 -0.0005 0.0
C515 C 0.87675 0.64887 0.90648 0.0
C516 C 0.87236 0.63613 0.06565 0.0
C517 C 0.89144 0.64754 0.13996 0.0
C518 C 0.8988 0.63829 0.20429 0.0
C519 C 0.88649 0.61715 0.19357 0.0
C520 C 0.86626 0.60469 0.12005 0.0
C521 C 0.85913 0.61463 0.05538 0.0
H522 H 0.26441 0.53398 0.55882 0.0
H523 H 0.28115 0.50052 0.74818 0.0
H524 H 0.23688 0.47051 0.69913 0.0
H525 H 0.196 0.51114 0.59698 0.0
H526 H 0.18495 0.51076 0.47736 0.0
H527 H 0.21812 0.5299 0.52642 0.0
H528 H 0.23692 0.51992 0.3937 0.0
H529 H 0.20384 0.50073 0.34414 0.0
H530 H 0.22773 0.49432 0.37325 0.0
H531 H 0.19179 0.44447 0.63162 0.0
H532 H 0.14683 0.42315 0.54857 0.0
H533 H 0.15881 0.47327 0.40315 0.0
C534 C 0.2587 0.52037 0.59044 0.0
C535 C 0.27609 0.51954 0.65785 0.0
C536 C 0.26803 0.50148 0.69706 0.0
C537 C 0.24299 0.48436 0.6694 0.0
C538 C 0.22639 0.48563 0.60269 0.0
C539 C 0.23376 0.50312 0.56368 0.0
C540 C 0.21187 0.50036 0.49392 0.0
C541 C 0.20216 0.51384 0.52561 0.0
C542 C 0.22063 0.50405 0.39544 0.0
C543 C 0.19118 0.47849 0.49971 0.0
C544 C 0.20003 0.47038 0.56305 0.0
C545 C 0.18451 0.45057 0.58184 0.0
C546 C 0.15903 0.43865 0.53482 0.0
C547 C 0.14945 0.44664 0.47005 0.0
C548 C 0.1658 0.46678 0.45184 0.0
H549 H 0.73449 0.66233 0.63555 0.0
H550 H 0.68636 0.66547 0.40942 0.0
H551 H 0.69634 0.64592 0.30081 0.0
H552 H 0.78526 0.66603 0.49048 0.0
H553 H 0.78956 0.64908 0.55545 0.0
H554 H 0.78047 0.66485 0.61237 0.0
H555 H 0.73951 0.63348 0.66437 0.0
H556 H 0.74829 0.61762 0.6071 0.0
H557 H 0.71602 0.61334 0.57773 0.0
H558 H 0.70821 0.62398 0.22215 0.0
H559 H 0.72145 0.60063 0.17621 0.0
H560 H 0.76335 0.61288 0.45259 0.0
C561 C 0.72657 0.65914 0.5627 0.0
C562 C 0.71001 0.66534 0.52932 0.0
C563 C 0.69942 0.66087 0.4346 0.0
C564 C 0.70497 0.64987 0.37292 0.0
C565 C 0.72134 0.6438 0.40769 0.0
C566 C 0.73218 0.64839 0.50006 0.0
C567 C 0.74821 0.63935 0.52028 0.0
C568 C 0.77762 0.65581 0.54616 0.0
C569 C 0.73733 0.6251 0.59684 0.0
C570 C 0.74362 0.62819 0.42595 0.0
C571 C 0.72842 0.63121 0.36171 0.0
C572 C 0.72054 0.62174 0.27108 0.0
C573 C 0.72824 0.60862 0.24557 0.0
C574 C 0.74352 0.60513 0.31079 0.0
C575 C 0.75161 0.61528 0.40153 0.0
H576 H 0.51734 0.08091 0.27898 0.0
H577 H 0.53632 0.12198 0.52544 0.0
H578 H 0.53315 0.09683 0.62517 0.0
H579 H 0.47239 1.03436 0.37825 0.0
H580 H 0.48446 1.02088 0.31881 0.0
H581 H 0.48483 0.04112 0.26711 0.0
H582 H 0.53509 0.05864 0.25592 0.0
H583 H 0.5349 0.03852 0.30751 0.0
H584 H 0.55711 0.06395 0.35965 0.0
H585 H 0.53233 0.06912 0.697 0.0
H586 H 0.53334 0.03987 0.73796 0.0
H587 H 0.51699 1.01745 0.44472 0.0
C588 C 0.52053 0.08454 0.35395 0.0
C589 C 0.52677 0.10331 0.39446 0.0
C590 C 0.53083 0.1075 0.49287 0.0
C591 C 0.52928 0.09338 0.5501 0.0
C592 C 0.52372 0.07525 0.50769 0.0
C593 C 0.51937 0.07075 0.41198 0.0
C594 C 0.51561 0.05075 0.38393 0.0
C595 C 0.48765 0.03589 0.33411 0.0
C596 C 0.53696 0.05312 0.32323 0.0
C597 C 0.51917 0.04494 0.47911 0.0
C598 C 0.52358 0.05921 0.5494 0.0
C599 C 0.52866 0.05772 0.64289 0.0
C600 C 0.52939 0.04118 0.66533 0.0
C601 C 0.52525 1.02652 0.59439 0.0
C602 C 0.5198 1.02832 0.50026 0.0
H603 H 0.1761 0.13014 0.95948 0.0
H604 H 0.18401 0.12727 0.25868 0.0
H605 H 0.16608 0.14819 0.28315 0.0
H606 H 0.19538 0.18227 0.97469 0.0
H607 H 0.172 0.17828 0.87797 0.0
H608 H 0.18525 0.16272 0.88163 0.0
H609 H 0.13779 0.13107 0.86541 0.0
H610 H 0.12443 0.14654 0.86153 0.0
H611 H 0.11535 0.12893 0.94725 0.0
H612 H 0.14598 0.16811 0.27803 0.0
H613 H 0.12545 0.18705 0.24275 0.0
H614 H 0.13255 0.17991 0.9487 0.0
C615 C 0.17427 0.13402 0.03024 0.0
C616 C 0.18116 0.12657 0.10696 0.0
C617 C 0.17824 0.13209 0.19818 0.0
C618 C 0.16829 0.14422 0.21313 0.0
C619 C 0.16154 0.1511 0.13651 0.0
C620 C 0.16446 0.14635 0.04676 0.0
C621 C 0.15543 0.15583 0.97719 0.0
C622 C 0.17839 0.17066 0.92479 0.0
C623 C 0.13185 0.13963 0.90882 0.0
C624 C 0.14711 0.16664 0.04236 0.0
C625 C 0.15072 0.1635 0.13384 0.0
C626 C 0.14336 0.17091 0.2069 0.0
C627 C 0.13175 0.18166 0.18626 0.0
C628 C 0.12787 0.18523 0.09357 0.0
C629 C 0.13592 0.17781 0.02052 0.0
H630 H 0.99215 0.99395 0.89951 0.0
H631 H 1.0029 0.98463 0.18865 0.0
H632 H 1.01249 1.01805 0.23901 0.0
H633 H 1.04589 0.04719 0.92644 0.0
H634 H 1.02853 0.05406 0.8466 0.0
H635 H 1.02266 1.02933 0.83176 0.0
H636 H 0.97256 1.01378 0.83671 0.0
H637 H 0.97827 0.03844 0.85191 0.0
H638 H 0.96139 1.02088 0.93517 0.0
H639 H 1.01965 0.05175 0.26023 0.0
H640 H 1.02466 0.08433 0.25099 0.0
H641 H 1.01165 0.07338 0.94842 0.0
C642 C 0.99687 0.999 0.97336 0.0
C643 C 0.99638 0.98635 0.04001 0.0
C644 C 1.00245 0.99365 0.13601 0.0
C645 C 1.00819 1.01276 0.16549 0.0
C646 C 1.00818 1.02465 0.09836 0.0
C647 C 1.0029 1.0182 0.00423 0.0
C648 C 1.00422 1.03414 0.94701 0.0
C649 C 1.02666 0.04162 0.88425 0.0
C650 C 0.97752 1.02634 0.88934 0.0
C651 C 1.01045 0.05031 0.02414 0.0
C652 C 1.01282 0.04449 0.11069 0.0
C653 C 1.01814 0.0566 0.19284 0.0
C654 C 1.02115 0.07519 0.18674 0.0
C655 C 1.01888 0.08166 0.09904 0.0
C656 C 1.01344 0.06893 0.01664 0.0
H657 H 1.05636 0.9035 0.88817 0.0
H658 H 1.05455 0.89195 0.1779 0.0
H659 H 0.09956 0.9227 0.2153 0.0
H660 H 0.12762 0.92229 0.8826 0.0
H661 H 0.13292 0.94057 0.80356 0.0
H662 H 0.10078 0.91775 0.79979 0.0
H663 H 0.07983 0.93842 0.82269 0.0
H664 H 0.11192 0.96128 0.8271 0.0
H665 H 0.09212 0.95706 0.92178 0.0
H666 H 0.14479 0.95763 0.22335 0.0
H667 H 0.18633 0.98907 0.19859 0.0
H668 H 0.16231 0.977 0.90093 0.0
C669 C 0.06567 0.90708 0.9593 0.0
C670 C 1.05147 0.89449 0.02956 0.0
C671 C 0.06469 0.90049 0.12175 0.0
C672 C 0.09038 0.91829 0.14385 0.0
C673 C 0.10359 0.93028 0.07324 0.0
C674 C 0.09182 0.92459 0.9821 0.0
C675 C 0.11061 0.93977 0.91851 0.0
C676 C 0.11845 0.92948 0.84684 0.0
C677 C 0.09785 0.94972 0.86963 0.0
C678 C 0.13466 0.9551 -0.01224 0.0
C679 C 0.12995 0.94947 0.07703 0.0
C680 C 0.14856 0.96176 0.15327 0.0
C681 C 0.17233 0.97981 0.13853 0.0
C682 C 0.17839 0.98582 0.0479 0.0
C683 C 0.15892 0.973 0.97139 0.0
H684 H 0.93308 0.47502 0.22102 0.0
H685 H 0.87616 0.44624 0.97277 0.0
H686 H 0.88578 0.42014 0.95964 0.0
H687 H 0.98051 0.46392 0.1468 0.0
H688 H 0.98823 0.4583 0.2591 0.0
H689 H 0.97762 0.4755 0.25198 0.0
H690 H 0.93971 0.45408 0.35093 0.0
H691 H 0.95034 0.43691 0.35861 0.0
H692 H 0.91673 0.42779 0.31396 0.0
H693 H 0.90109 0.39747 0.96677 0.0
H694 H 0.91957 0.37741 -0.00032 0.0
H695 H 0.96641 0.41801 0.24822 0.0
C696 C 0.92248 0.46315 0.16432 0.0
C697 C 0.90418 0.46327 0.09645 0.0
C698 C 0.89086 0.44722 0.02398 0.0
C699 C 0.89602 0.43207 0.0162 0.0
C700 C 0.91437 0.43265 0.08212 0.0
C701 C 0.92728 0.44754 0.15565 0.0
C702 C 0.94586 0.44396 0.2168 0.0
C703 C 0.97478 0.46147 0.21877 0.0
C704 C 0.93766 0.44048 0.31597 0.0
C705 C 0.94128 0.42485 0.16527 0.0
C706 C 0.92302 0.41884 0.08774 0.0
C707 C 0.91527 0.40193 0.02765 0.0
C708 C 0.926 0.39056 0.04735 0.0
C709 C 0.94446 0.39584 0.12702 0.0
C710 C 0.95245 0.41349 0.18654 0.0
H711 H 0.73321 0.46345 0.03468 0.0
H712 H 0.79744 0.46898 0.21616 0.0
H713 H 0.77011 0.43264 0.23186 0.0
H714 H 0.67858 0.42577 0.14419 0.0
H715 H 0.65794 0.41195 0.03687 0.0
H716 H 0.6822 0.43842 0.04099 0.0
H717 H 0.70298 0.43189 0.90424 0.0
H718 H 0.67877 0.40538 0.8994 0.0
H719 H 0.71355 0.4147 0.91333 0.0
H720 H 0.735 0.39554 0.23263 0.0
H721 H 0.69711 0.36058 0.20927 0.0
H722 H 0.65513 0.3774 0.01919 0.0
C723 C 0.74155 0.45695 0.07723 0.0
C724 C 0.76775 0.46924 0.12399 0.0
C725 C 0.77776 0.46001 0.17869 0.0
C726 C 0.76222 0.43932 0.18844 0.0
C727 C 0.73663 0.42762 0.1414 0.0
C728 C 0.72648 0.43604 0.0855 0.0
C729 C 0.69877 0.4198 0.03935 0.0
C730 C 0.67815 0.42426 0.06703 0.0
C731 C 0.6985 0.41783 0.93275 0.0
C732 C 0.69459 0.40107 0.08014 0.0
C733 C 0.71674 0.40604 0.13906 0.0
C734 C 0.71765 0.39155 0.18626 0.0
C735 C 0.69567 0.37155 0.17296 0.0
C736 C 0.67248 0.36566 0.11264 0.0
C737 C 0.67231 0.38094 0.06532 0.0
H738 H 0.66764 0.26784 0.22487 0.0
H739 H 0.63229 0.23027 0.96185 0.0
H740 H 0.67629 0.2386 0.92544 0.0
H741 H 0.72835 0.30682 0.13606 0.0
H742 H 0.74921 0.31131 0.24189 0.0
H743 H 0.71499 0.3028 0.24653 0.0
H744 H 0.70783 0.27273 0.33152 0.0
H745 H 0.74198 0.28107 0.32668 0.0
H746 H 0.71608 0.25605 0.27882 0.0
H747 H 0.72267 0.24951 0.91946 0.0
H748 H 0.77043 0.26375 0.93932 0.0
H749 H 0.77774 0.29569 0.20461 0.0
C750 C 0.66944 0.26179 0.15898 0.0
C751 C 0.64691 0.24881 0.09484 0.0
C752 C 0.64956 0.24059 0.01049 0.0
C753 C 0.67438 0.24513 -0.01038 0.0
C754 C 0.6963 0.25792 0.05403 0.0
C755 C 0.69426 0.26629 0.13669 0.0
C756 C 0.72122 0.27958 0.19315 0.0
C757 C 0.7289 0.30143 0.2051 0.0
C758 C 0.7218 0.27189 0.28815 0.0
C759 C 0.73857 0.27705 0.12974 0.0
C760 C 0.72361 0.26449 0.05003 0.0
C761 C 0.73472 0.25957 0.98096 0.0
C762 C 0.76196 0.26789 -0.0073 0.0
C763 C 0.77807 0.28118 0.07261 0.0
C764 C 0.76605 0.28563 0.14265 0.0
H765 H 0.54502 0.81172 0.89228 0.0
H766 H 0.6075 0.84365 0.71521 0.0
H767 H 0.59097 0.8651 0.68094 0.0
H768 H 0.49436 0.81388 0.74912 0.0
H769 H 0.48012 0.81761 0.84785 0.0
H770 H 0.49586 0.80382 0.85652 0.0
H771 H 0.52667 0.82804 0.00075 0.0
H772 H 0.51092 0.84181 -0.00829 0.0
H773 H 0.54626 0.85461 -0.00838 0.0
H774 H 0.56977 0.88416 0.66995 0.0
H775 H 0.54404 0.89959 0.67954 0.0
H776 H 0.49417 0.85607 0.8627 0.0
C777 C 0.55523 0.82322 0.8463 0.0
C778 C 0.57751 0.82571 0.80563 0.0
C779 C 0.5901 0.84097 0.74561 0.0
C780 C 0.58099 0.85341 0.72621 0.0
C781 C 0.55917 0.85058 0.76725 0.0
C782 C 0.54631 0.83587 0.8258 0.0
C783 C 0.52332 0.8363 0.86064 0.0
C784 C 0.49684 0.81673 0.82648 0.0
C785 C 0.52703 0.84044 0.96754 0.0
C786 C 0.52573 0.85381 0.81389 0.0
C787 C 0.54657 0.86169 0.76025 0.0
C788 C 0.55335 0.87809 0.71148 0.0
C789 C 0.53858 0.8868 0.71775 0.0
C790 C 0.51705 0.87914 0.77216 0.0
C791 C 0.51043 0.86225 0.82033 0.0
H792 H 0.36623 0.69044 0.79992 0.0
H793 H 0.42832 0.70338 0.62574 0.0
H794 H 0.44397 0.73926 0.64399 0.0
H795 H 0.34988 0.72154 0.70566 0.0
H796 H 0.34292 0.72951 0.81285 0.0
H797 H 0.33899 0.70548 0.79822 0.0
H798 H 0.37101 0.71484 0.94865 0.0
H799 H 0.3749 0.73891 0.96429 0.0
H800 H 0.40359 0.73745 0.95973 0.0
H801 H 0.4497 0.7723 0.66747 0.0
H802 H 0.44562 0.80124 0.69612 0.0
H803 H 0.37901 0.76598 0.8521 0.0
C804 C 0.38372 0.70097 0.76856 0.0
C805 C 0.39649 0.6945 0.71285 0.0
C806 C 0.41858 0.70836 0.66928 0.0
C807 C 0.42761 0.72864 0.67961 0.0
C808 C 0.41427 0.73453 0.73382 0.0
C809 C 0.39286 0.72114 0.77785 0.0
C810 C 0.38032 0.73091 0.8241 0.0
C811 C 0.35133 0.72129 0.78267 0.0
C812 C 0.38261 0.73051 0.93052 0.0
C813 C 0.39775 0.75181 0.79746 0.0
C814 C 0.41733 0.75364 0.7462 0.0
C815 C 0.43474 0.77121 0.70873 0.0
C816 C 0.4321 0.78743 0.7246 0.0
C817 C 0.41217 0.78579 0.7771 0.0
C818 C 0.39486 0.76778 0.81391 0.0
H819 H 0.55062 0.70852 0.85292 0.0
H820 H 0.58349 0.68154 0.68777 0.0
H821 H 0.54051 0.65015 0.66119 0.0
H822 H 0.50588 0.66486 0.96023 0.0
H823 H 0.47869 0.66831 0.95204 0.0
H824 H 0.51219 0.68969 0.95924 0.0
H825 H 0.50062 0.70026 0.80597 0.0
H826 H 0.46703 0.67896 0.79893 0.0
H827 H 0.48616 0.68258 0.70268 0.0
H828 H 0.49703 0.62101 0.66336 0.0
H829 H 0.45016 0.59547 0.67302 0.0
H830 H 0.44127 0.63996 0.82126 0.0
C831 C 0.54851 0.6961 0.80981 0.0
C832 C 0.57063 0.69747 0.77403 0.0
C833 C 0.56708 0.68084 0.7179 0.0
C834 C 0.54269 0.66284 0.70197 0.0
C835 C 0.5216 0.66163 0.7407 0.0
C836 C 0.52377 0.67775 0.79156 0.0
C837 C 0.49712 0.67181 0.82291 0.0
C838 C 0.49858 0.67379 0.92997 0.0
C839 C 0.48714 0.68414 0.78005 0.0
C840 C 0.4802 0.64995 0.78225 0.0
C841 C 0.4951 0.64451 0.73655 0.0
C842 C 0.48488 0.62505 0.69751 0.0
C843 C 0.45838 0.61066 0.70379 0.0
C844 C 0.44237 0.61592 0.74703 0.0
C845 C 0.45326 0.63578 0.7868 0.0
H846 H 0.08836 0.19271 0.7609 0.0
H847 H 1.05693 0.22952 0.81554 0.0
H848 H 0.06567 0.2411 0.6586 0.0
H849 H 0.13951 0.22478 0.61859 0.0
H850 H 0.1332 0.20439 0.53682 0.0
H851 H 0.1266 0.20024 0.65608 0.0
H852 H 0.07816 0.17166 0.59966 0.0
H853 H 0.08465 0.1757 0.48028 0.0
H854 H 1.05798 0.17666 0.52322 0.0
H855 H 0.07472 0.24682 0.49388 0.0
H856 H 0.08322 0.24617 0.32903 0.0
H857 H 0.10856 0.20549 0.37774 0.0
C858 C 0.0837 0.20341 0.73976 0.0
C859 C 0.07215 0.2104 0.79963 0.0
C860 C 0.06571 0.22402 0.7699 0.0
C861 C 0.07071 0.23072 0.68131 0.0
C862 C 0.08172 0.22333 0.62293 0.0
C863 C 0.08795 0.20986 0.65039 0.0
C864 C 0.09754 0.20303 0.57109 0.0
C865 C 0.12591 0.20845 0.59724 0.0
C866 C 0.07845 0.18043 0.54187 0.0
C867 C 0.09636 0.21517 0.49569 0.0
C868 C 0.08698 0.22665 0.52712 0.0
C869 C 0.08237 0.23809 0.46875 0.0
C870 C 0.0872 0.23762 0.37548 0.0
C871 C 0.09687 0.22604 0.34202 0.0
C872 C 0.10177 0.21482 0.40286 0.0
H873 H 0.9727 0.82694 0.66132 0.0
H874 H 0.95484 0.86942 0.77323 0.0
H875 H 0.95422 0.8802 0.61711 0.0
H876 H 1.01392 0.85602 0.48701 0.0
H877 H 1.00029 0.83504 0.39877 0.0
H878 H 1.0009 0.83115 0.52046 0.0
H879 H 0.95024 0.80522 0.49699 0.0
H880 H 0.94952 0.80901 0.37521 0.0
H881 H 0.92869 0.81238 0.4473 0.0
H882 H 0.95403 0.88577 0.45223 0.0
H883 H 0.95311 0.88558 0.2823 0.0
H884 H 0.9701 0.83906 0.26896 0.0
C885 C 0.96905 0.83869 0.65267 0.0
C886 C 0.96428 0.84765 0.72936 0.0
C887 C 0.95883 0.86257 0.71552 0.0
C888 C 0.95841 0.86877 0.62713 0.0
C889 C 0.96303 0.85964 0.55281 0.0
C890 C 0.96799 0.8448 0.56387 0.0
C891 C 0.97063 0.83673 0.47026 0.0
C892 C 0.99808 0.83994 0.4691 0.0
C893 C 0.94846 0.81452 0.44604 0.0
C894 C 0.96709 0.84976 0.40571 0.0
C895 C 0.96256 0.86273 0.45546 0.0
C896 C 0.95767 0.87577 0.41241 0.0
C897 C 0.95715 0.87549 0.31564 0.0
C898 C 0.9617 0.86238 0.26244 0.0
C899 C 0.96696 0.84943 0.30816 0.0
H900 H 0.24332 1.01596 0.73617 0.0
H901 H 0.23922 0.06857 0.76935 0.0
H902 H 0.24414 0.07282 0.60213 0.0
H903 H 0.29092 1.03305 0.57326 0.0
H904 H 0.27552 1.00923 0.50365 0.0
H905 H 0.27143 1.01012 0.6258 0.0
H906 H 0.22043 0.98889 0.58537 0.0
H907 H 0.22437 0.98787 0.46305 0.0
H908 H 0.20514 0.99724 0.50472 0.0
H909 H 0.25228 0.07267 0.43622 0.0
H910 H 0.25951 0.06656 0.27523 0.0
H911 H 0.2548 1.01246 0.34422 0.0
C912 C 0.24325 1.02821 0.70742 0.0
C913 C 0.24082 0.04193 0.76422 0.0
C914 C 0.24084 0.05787 0.7257 0.0
C915 C 0.24371 0.06043 0.63129 0.0
C916 C 0.24611 0.0467 0.57658 0.0
C917 C 0.24552 1.03073 0.61255 0.0
C918 C 0.24806 1.01801 0.5376 0.0
C919 C 0.27297 1.01759 0.56152 0.0
C920 C 0.22301 0.99674 0.52177 0.0
C921 C 0.25064 1.02955 0.45455 0.0
C922 C 0.24963 0.04611 0.479 0.0
C923 C 0.25271 0.0596 0.4157 0.0
C924 C 0.25679 0.056 0.32457 0.0
C925 C 0.25731 0.03891 0.29742 0.0
C926 C 0.25411 1.02549 0.36312 0.0
H927 H 0.85945 0.5609 0.47244 0.0
H928 H 0.78876 0.50509 0.34878 0.0
H929 H 0.77572 0.49583 0.50454 0.0
H930 H 0.87277 0.54228 0.67898 0.0
H931 H 0.88213 0.56412 0.75636 0.0
H932 H 0.8873 0.56639 0.63503 0.0
H933 H 0.85988 0.58257 0.61782 0.0
H934 H 0.85495 0.58056 0.73932 0.0
H935 H 0.82684 0.56961 0.65161 0.0
H936 H 0.76929 0.49259 0.66931 0.0
H937 H 0.76798 0.49694 0.83857 0.0
H938 H 0.84212 0.55483 0.85994 0.0
C939 C 0.84136 0.54671 0.4787 0.0
C940 C 0.82525 0.53363 0.39902 0.0
C941 C 0.80143 0.51533 0.40911 0.0
C942 C 0.7939 0.50985 0.49724 0.0
C943 C 0.81023 0.52292 0.57451 0.0
C944 C 0.83326 0.54109 0.56667 0.0
C945 C 0.84604 0.55284 0.66162 0.0
C946 C 0.8737 0.55662 0.6843 0.0
C947 C 0.84698 0.57256 0.66793 0.0
C948 C 0.82667 0.53832 0.72336 0.0
C949 C 0.80626 0.52114 0.67129 0.0
C950 C 0.7852 0.5059 0.7112 0.0
C951 C 0.7846 0.50851 0.80704 0.0
C952 C 0.80497 0.52617 0.86134 0.0
C953 C 0.82655 0.54108 0.81962 0.0
H954 H 0.58871 0.25609 0.45532 0.0
H955 H 0.53533 0.19503 0.32984 0.0
H956 H 0.53053 0.18296 0.48644 0.0
H957 H 0.62099 0.244 0.64191 0.0
H958 H 0.62426 0.26287 0.7265 0.0
H959 H 0.62464 0.2665 0.60438 0.0
H960 H 0.58593 0.27174 0.61192 0.0
H961 H 0.58533 0.26798 0.73377 0.0
H962 H 0.55573 0.25268 0.65352 0.0
H963 H 0.53055 0.1778 0.65598 0.0
H964 H 0.53571 0.17977 0.82859 0.0
H965 H 0.58837 0.24428 0.84484 0.0
C966 C 0.57622 0.24019 0.4614 0.0
C967 C 0.56263 0.22632 0.38159 0.0
C968 C 0.54627 0.20568 0.39085 0.0
C969 C 0.54334 0.19876 0.47924 0.0
C970 C 0.55696 0.21278 0.55713 0.0
C971 C 0.57321 0.23306 0.5492 0.0
C972 C 0.58537 0.24496 0.64419 0.0
C973 C 0.61561 0.25518 0.65485 0.0
C974 C 0.57761 0.26024 0.66184 0.0
C975 C 0.5726 0.22832 0.70681 0.0
C976 C 0.55658 0.20984 0.65507 0.0
C977 C 0.54295 0.19217 0.69719 0.0
C978 C 0.54587 0.19341 0.79482 0.0
C979 C 0.56196 0.21218 0.84862 0.0
C980 C 0.57553 0.22983 0.80445 0.0
H981 H 0.98557 0.38072 0.47054 0.0
H982 H 0.91422 0.32129 0.41448 0.0
H983 H 0.9133 0.31808 0.58354 0.0
H984 H 1.01579 0.37112 0.66176 0.0
H985 H 1.02878 0.39485 0.72927 0.0
H986 H 1.0236 0.39287 0.60391 0.0
H987 H 0.99391 0.40708 0.61547 0.0
H988 H 0.99903 0.40912 0.74098 0.0
H989 H 0.96591 0.39508 0.68139 0.0
H990 H 0.92216 0.31991 0.75364 0.0
H991 H 0.93828 0.32776 0.92105 0.0
H992 H 1.00153 0.38734 0.87199 0.0
C993 C 0.96972 0.36718 0.49462 0.0
C994 C 0.9499 0.35121 0.431 0.0
C995 C 0.92938 0.33364 0.46336 0.0
C996 C 0.92874 0.3317 0.55877 0.0
C997 C 0.94854 0.34763 0.62031 0.0
C998 C 0.96846 0.36516 0.59013 0.0
C999 C 0.98722 0.37992 0.67181 0.0
C1000 C 1.01552 0.38498 0.66632 0.0
C1001 C 0.98646 0.39892 0.67774 0.0
C1002 C 0.97502 0.36771 0.75206 0.0
C1003 C 0.95282 0.3491 0.72033 0.0
C1004 C 0.93915 0.33457 0.77983 0.0
C1005 C 0.9484 0.33917 0.87469 0.0
C1006 C 0.97068 0.35825 0.90913 0.0
C1007 C 0.98409 0.37277 0.84726 0.0
H1008 H 0.45067 0.91873 0.47284 0.0
H1009 H 0.46674 0.87251 0.50893 0.0
H1010 H 0.47653 0.87297 0.34505 0.0
H1011 H 0.42122 0.9037 0.22962 0.0
H1012 H 0.43758 0.92906 0.19953 0.0
H1013 H 0.42977 0.92389 0.31703 0.0
H1014 H 0.479 0.94935 0.37916 0.0
H1015 H 0.48704 0.95441 0.26175 0.0
H1016 H 0.50407 0.94634 0.33563 0.0
H1017 H 0.4875 0.87999 0.18104 0.0
H1018 H 0.49716 0.89223 0.02541 0.0
H1019 H 0.47368 0.93371 0.09257 0.0
C1020 C 0.45562 0.90841 0.4451 0.0
C1021 C 0.45746 0.89526 0.50242 0.0
C1022 C 0.46496 0.88248 0.46541 0.0
C1023 C 0.47059 0.88268 0.37261 0.0
C1024 C 0.46907 0.89602 0.318 0.0
C1025 C 0.46177 0.90867 0.35266 0.0
C1026 C 0.46342 0.92248 0.28095 0.0
C1027 C 0.43638 0.91959 0.25526 0.0
C1028 C 0.48463 0.94444 0.31649 0.0
C1029 C 0.47191 0.91517 0.19971 0.0
C1030 C 0.47547 0.90011 0.22324 0.0
C1031 C 0.48461 0.89168 0.16169 0.0
C1032 C 0.49017 0.89876 0.07378 0.0
C1033 C 0.48611 0.91382 0.04757 0.0
C1034 C 0.47671 0.92204 0.11107 0.0
H1035 H 0.38681 0.59477 0.03803 0.0
H1036 H 0.30671 0.54454 0.95189 0.0
H1037 H 0.30357 0.53371 0.11054 0.0
H1038 H 0.40818 0.57201 0.19844 0.0
H1039 H 0.42541 0.59355 0.28445 0.0
H1040 H 0.42194 0.59681 0.163 0.0
H1041 H 0.39994 0.61633 0.20301 0.0
H1042 H 0.40355 0.61321 0.32462 0.0
H1043 H 0.3714 0.60486 0.26644 0.0
H1044 H 0.30847 0.52906 0.27931 0.0
H1045 H 0.32039 0.53157 0.44883 0.0
H1046 H 0.39718 0.58509 0.42899 0.0
C1047 C 0.36873 0.58144 0.05295 0.0
C1048 C 0.34706 0.57023 -0.01694 0.0
C1049 C 0.32346 0.55321 0.00494 0.0
C1050 C 0.32156 0.54694 0.0946 0.0
C1051 C 0.34323 0.55823 0.16232 0.0
C1052 C 0.36622 0.5753 0.14318 0.0
C1053 C 0.38578 0.58551 0.23059 0.0
C1054 C 0.41188 0.58705 0.21834 0.0
C1055 C 0.39045 0.6062 0.25775 0.0
C1056 C 0.3707 0.57107 0.30086 0.0
C1057 C 0.34606 0.55555 0.26002 0.0
C1058 C 0.32781 0.54101 0.31171 0.0
C1059 C 0.33476 0.54253 0.40777 0.0
C1060 C 0.35988 0.55825 0.45104 0.0
C1061 C 0.37818 0.57259 0.39678 0.0
H1062 H 0.66315 0.77847 0.50396 0.0
H1063 H 0.63296 0.71772 0.56764 0.0
H1064 H 0.63491 0.70803 0.40535 0.0
H1065 H 0.62186 0.76038 0.2702 0.0
H1066 H 0.64622 0.78192 0.21795 0.0
H1067 H 0.64262 0.78415 0.34008 0.0
H1068 H 0.69248 0.7982 0.38119 0.0
H1069 H 0.69613 0.79572 0.25951 0.0
H1070 H 0.70558 0.78375 0.34148 0.0
H1071 H 0.64569 0.70619 0.24313 0.0
H1072 H 0.65567 0.71021 0.07937 0.0
H1073 H 0.67125 0.77016 0.11099 0.0
C1074 C 0.65692 0.76315 0.48339 0.0
C1075 C 0.64961 0.74914 0.54957 0.0
C1076 C 0.6404 0.72901 0.51948 0.0
C1077 C 0.64097 0.72326 0.42704 0.0
C1078 C 0.64938 0.73759 0.36429 0.0
C1079 C 0.65608 0.75688 0.38991 0.0
C1080 C 0.66276 0.76889 0.30656 0.0
C1081 C 0.64214 0.77415 0.28228 0.0
C1082 C 0.69092 0.78776 0.32323 0.0
C1083 C 0.66062 0.75378 0.23219 0.0
C1084 C 0.65289 0.73583 0.26727 0.0
C1085 C 0.65123 0.72001 0.21412 0.0
C1086 C 0.6572 0.72249 0.12191 0.0
C1087 C 0.66434 0.74051 0.08403 0.0
C1088 C 0.66587 0.75628 0.13929 0.0
loop_
_geom_bond_atom_site_label_1
_geom_bond_atom_site_label_2
_geom_bond_distance
_geom_bond_site_symmetry_2
_ccdc_geom_bond_type
Pr0 C2 2.880 . S
Pr0 O20 2.562 . S
Pr0 O21 2.490 . S
Pr0 O22 2.695 . S
Pr0 O23 2.512 . S
Pr0 O25 2.437 . S
Pr0 O28 2.436 1_554 S
Pr0 O30 2.438 . S
Pr1 C11 2.880 1_455 S
Pr1 O22 2.436 . S
Pr1 O24 2.432 1_455 S
Pr1 O26 2.555 . S
Pr1 O27 2.490 1_454 S
Pr1 O28 2.695 1_554 S
Pr1 O29 2.512 1_554 S
Pr1 O31 2.437 . S
C2 Pr0 2.880 . S
C2 C3 1.491 . S
C2 O20 1.254 . S
C2 O21 1.225 . S
C3 C2 1.491 . S
C3 C4 1.392 . S
C3 C8 1.365 . S
C4 C3 1.392 . S
C4 C5 1.368 . S
C4 H32 0.929 . S
C5 C4 1.368 . S
C5 C6 1.386 . S
C5 H33 0.929 . S
C6 C5 1.386 . S
C6 C7 1.373 1_554 S
C7 C6 1.373 1_556 S
C7 C8 1.407 1_556 S
C7 H34 0.931 . S
C8 C3 1.365 . S
C8 C7 1.407 1_554 S
C8 H35 0.922 1_554 S
C9 O22 1.270 . S
C9 O23 1.248 . S
C10 O24 1.266 1_455 S
C10 O25 1.278 . S
C11 Pr1 2.880 1_655 S
C11 C12 1.491 . S
C11 O26 1.250 1_655 S
C11 O27 1.225 1_554 S
C12 C11 1.491 . S
C12 C13 1.392 1_554 S
C12 C17 1.356 . S
C13 C12 1.392 1_556 S
C13 C14 1.368 1_556 S
C13 H36 0.929 . S
C14 C13 1.368 1_554 S
C14 C15 1.389 . S
C14 H37 0.927 1_554 S
C15 C14 1.389 . S
C15 C16 1.373 . S
C16 C15 1.373 . S
C16 C17 1.409 . S
C16 H38 0.931 . S
C17 C12 1.356 . S
C17 C16 1.409 . S
C17 H39 0.930 . S
C18 O28 1.270 . S
C18 O29 1.248 . S
C19 O30 1.267 . S
C19 O31 1.278 . S
O20 Pr0 2.562 . S
O20 C2 1.254 . S
O21 Pr0 2.490 . S
O21 C2 1.225 . S
O22 Pr0 2.695 . S
O22 Pr1 2.436 . S
O22 C9 1.270 . S
O23 Pr0 2.512 . S
O23 C9 1.248 . S
O24 Pr1 2.432 1_655 S
O24 C10 1.266 1_655 S
O25 Pr0 2.437 . S
O25 C10 1.278 . S
O26 Pr1 2.555 . S
O26 C11 1.250 1_455 S
O27 Pr1 2.490 1_656 S
O27 C11 1.225 1_556 S
O28 Pr0 2.436 1_556 S
O28 Pr1 2.695 1_556 S
O28 C18 1.270 . S
O29 Pr1 2.512 1_556 S
O29 C18 1.248 . S
O30 Pr0 2.438 . S
O30 C19 1.267 . S
O31 Pr1 2.437 . S
O31 C19 1.278 . S
H32 C4 0.929 . S
H33 C5 0.929 . S
H34 C7 0.931 . S
H35 C8 0.922 1_556 S
H36 C13 0.929 . S
H37 C14 0.927 1_556 S
H38 C16 0.931 . S
H39 C17 0.930 . S
Pr40 C42 2.880 . S
Pr40 O60 2.562 . S
Pr40 O61 2.490 1_554 S
Pr40 O62 2.695 1_554 S
Pr40 O63 2.512 1_554 S
Pr40 O65 2.437 1_554 S
Pr40 O68 2.436 . S
Pr40 O70 2.438 . S
Pr41 C51 2.880 . S
Pr41 O62 2.436 1_554 S
Pr41 O64 2.438 . S
Pr41 O66 2.562 1_554 S
Pr41 O67 2.490 . S
Pr41 O68 2.695 . S
Pr41 O69 2.512 . S
Pr41 O71 2.437 . S
C42 Pr40 2.880 . S
C42 C43 1.491 . S
C42 O60 1.254 . S
C42 O61 1.225 1_554 S
C43 C42 1.491 . S
C43 C44 1.392 1_554 S
C43 C48 1.356 . S
C44 C43 1.392 1_556 S
C44 C45 1.368 . S
C44 H72 0.929 . S
C45 C44 1.368 . S
C45 C46 1.386 1_556 S
C45 H73 0.929 . S
C46 C45 1.386 1_554 S
C46 C47 1.373 . S
C47 C46 1.373 . S
C47 C48 1.409 . S
C47 H74 0.931 . S
C48 C43 1.356 . S
C48 C47 1.409 . S
C48 H75 0.930 . S
C49 O62 1.270 . S
C49 O63 1.248 . S
C50 O64 1.267 . S
C50 O65 1.278 1_554 S
C51 Pr41 2.880 . S
C51 C52 1.491 . S
C51 O66 1.254 1_554 S
C51 O67 1.225 . S
C52 C51 1.491 . S
C52 C53 1.392 . S
C52 C57 1.356 1_554 S
C53 C52 1.392 . S
C53 C54 1.368 . S
C53 H76 0.929 . S
C54 C53 1.368 . S
C54 C55 1.386 . S
C54 H77 0.929 . S
C55 C54 1.386 . S
C55 C56 1.373 1_554 S
C56 C55 1.373 1_556 S
C56 C57 1.409 . S
C56 H78 0.931 . S
C57 C52 1.356 1_556 S
C57 C56 1.409 . S
C57 H79 0.930 . S
C58 O68 1.270 . S
C58 O69 1.248 . S
C59 O70 1.267 . S
C59 O71 1.278 . S
O60 Pr40 2.562 . S
O60 C42 1.254 . S
O61 Pr40 2.490 1_556 S
O61 C42 1.225 1_556 S
O62 Pr40 2.695 1_556 S
O62 Pr41 2.436 1_556 S
O62 C49 1.270 . S
O63 Pr40 2.512 1_556 S
O63 C49 1.248 . S
O64 Pr41 2.438 . S
O64 C50 1.267 . S
O65 Pr40 2.437 1_556 S
O65 C50 1.278 1_556 S
O66 Pr41 2.562 1_556 S
O66 C51 1.254 1_556 S
O67 Pr41 2.490 . S
O67 C51 1.225 . S
O68 Pr40 2.436 . S
O68 Pr41 2.695 . S
O68 C58 1.270 . S
O69 Pr41 2.512 . S
O69 C58 1.248 . S
O70 Pr40 2.438 . S
O70 C59 1.267 . S
O71 Pr41 2.437 . S
O71 C59 1.278 . S
H72 C44 0.929 . S
H73 C45 0.929 . S
H74 C47 0.931 . S
H75 C48 0.930 . S
H76 C53 0.929 . S
H77 C54 0.929 . S
H78 C56 0.931 . S
H79 C57 0.930 . S
Pr80 C82 2.881 . S
Pr80 O100 2.562 1_554 S
Pr80 O101 2.490 . S
Pr80 O102 2.695 1_565 S
Pr80 O103 2.512 . S
Pr80 O105 2.437 1_565 S
Pr80 O108 2.436 1_564 S
Pr80 O110 2.438 . S
Pr81 C91 2.880 . S
Pr81 O102 2.436 . S
Pr81 O104 2.438 . S
Pr81 O106 2.562 . S
Pr81 O107 2.490 1_554 S
Pr81 O108 2.695 1_554 S
Pr81 O109 2.512 1_554 S
Pr81 O111 2.437 1_554 S
C82 Pr80 2.881 . S
C82 C83 1.490 1_554 S
C82 O100 1.250 1_554 S
C82 O101 1.229 . S
C83 C82 1.490 1_556 S
C83 C84 1.392 1_556 S
C83 C88 1.356 . S
C84 C83 1.392 1_554 S
C84 C85 1.368 . S
C84 H112 0.929 . S
C85 C84 1.368 . S
C85 C86 1.386 1_554 S
C85 H113 0.929 . S
C86 C85 1.386 1_556 S
C86 C87 1.373 . S
C87 C86 1.373 . S
C87 C88 1.409 . S
C87 H114 0.931 . S
C88 C83 1.356 . S
C88 C87 1.409 . S
C88 H115 0.930 . S
C89 O102 1.270 . S
C89 O103 1.248 1_545 S
C90 O104 1.267 . S
C90 O105 1.278 . S
C91 Pr81 2.880 . S
C91 C92 1.491 . S
C91 O106 1.254 . S
C91 O107 1.225 1_554 S
C92 C91 1.491 . S
C92 C93 1.392 1_554 S
C92 C97 1.356 . S
C93 C92 1.392 1_556 S
C93 C94 1.368 . S
C93 H116 0.929 . S
C94 C93 1.368 . S
C94 C95 1.386 1_556 S
C94 H117 0.929 . S
C95 C94 1.386 1_554 S
C95 C96 1.373 . S
C96 C95 1.373 . S
C96 C97 1.409 . S
C96 H118 0.931 . S
C97 C92 1.356 . S
C97 C96 1.409 . S
C97 H119 0.930 . S
C98 O108 1.270 . S
C98 O109 1.248 . S
C99 O110 1.267 . S
C99 O111 1.278 1_564 S
O100 Pr80 2.562 1_556 S
O100 C82 1.250 1_556 S
O101 Pr80 2.490 . S
O101 C82 1.229 . S
O102 Pr80 2.695 1_545 S
O102 Pr81 2.436 . S
O102 C89 1.270 . S
O103 Pr80 2.512 . S
O103 C89 1.248 1_565 S
O104 Pr81 2.438 . S
O104 C90 1.267 . S
O105 Pr80 2.437 1_545 S
O105 C90 1.278 . S
O106 Pr81 2.562 . S
O106 C91 1.254 . S
O107 Pr81 2.490 1_556 S
O107 C91 1.225 1_556 S
O108 Pr80 2.436 1_546 S
O108 Pr81 2.695 1_556 S
O108 C98 1.270 . S
O109 Pr81 2.512 1_556 S
O109 C98 1.248 . S
O110 Pr80 2.438 . S
O110 C99 1.267 . S
O111 Pr81 2.437 1_556 S
O111 C99 1.278 1_546 S
H112 C84 0.929 . S
H113 C85 0.929 . S
H114 C87 0.931 . S
H115 C88 0.930 . S
H116 C93 0.929 . S
H117 C94 0.929 . S
H118 C96 0.931 . S
H119 C97 0.930 . S
Pr120 C122 2.880 . S
Pr120 O140 2.562 . S
Pr120 O141 2.490 . S
Pr120 O142 2.695 . S
Pr120 O143 2.512 1_554 S
Pr120 O145 2.437 . S
Pr120 O148 2.436 . S
Pr120 O150 2.438 . S
Pr121 C131 2.880 . S
Pr121 O142 2.436 . S
Pr121 O144 2.438 . S
Pr121 O146 2.562 . S
Pr121 O147 2.490 . S
Pr121 O148 2.695 . S
Pr121 O149 2.512 . S
Pr121 O151 2.437 . S
C122 Pr120 2.880 . S
C122 C123 1.491 . S
C122 O140 1.254 . S
C122 O141 1.225 . S
C123 C122 1.491 . S
C123 C124 1.392 . S
C123 C128 1.356 . S
C124 C123 1.392 . S
C124 C125 1.368 . S
C124 H152 0.929 . S
C125 C124 1.368 . S
C125 C126 1.386 . S
C125 H153 0.929 . S
C126 C125 1.386 . S
C126 C127 1.373 . S
C127 C126 1.373 . S
C127 C128 1.409 . S
C127 H154 0.931 . S
C128 C123 1.356 . S
C128 C127 1.409 . S
C128 H155 0.930 . S
C129 O142 1.270 1_556 S
C129 O143 1.248 . S
C130 O144 1.267 . S
C130 O145 1.278 . S
C131 Pr121 2.880 . S
C131 C132 1.491 . S
C131 O146 1.254 . S
C131 O147 1.225 . S
C132 C131 1.491 . S
C132 C133 1.392 . S
C132 C137 1.356 . S
C133 C132 1.392 . S
C133 C134 1.368 . S
C133 H156 0.929 . S
C134 C133 1.368 . S
C134 C135 1.386 . S
C134 H157 0.929 . S
C135 C134 1.386 . S
C135 C136 1.373 . S
C136 C135 1.373 . S
C136 C137 1.409 . S
C136 H158 0.931 1_554 S
C137 C132 1.356 . S
C137 C136 1.409 . S
C137 H159 0.930 . S
C138 O148 1.270 . S
C138 O149 1.248 . S
C139 O150 1.267 . S
C139 O151 1.278 . S
O140 Pr120 2.562 . S
O140 C122 1.254 . S
O141 Pr120 2.490 . S
O141 C122 1.225 . S
O142 Pr120 2.695 . S
O142 Pr121 2.436 . S
O142 C129 1.270 1_554 S
O143 Pr120 2.512 1_556 S
O143 C129 1.248 . S
O144 Pr121 2.438 . S
O144 C130 1.267 . S
O145 Pr120 2.437 . S
O145 C130 1.278 . S
O146 Pr121 2.562 . S
O146 C131 1.254 . S
O147 Pr121 2.490 . S
O147 C131 1.225 . S
O148 Pr120 2.436 . S
O148 Pr121 2.695 . S
O148 C138 1.270 . S
O149 Pr121 2.512 . S
O149 C138 1.248 . S
O150 Pr120 2.438 . S
O150 C139 1.267 . S
O151 Pr121 2.437 . S
O151 C139 1.278 . S
H152 C124 0.929 . S
H153 C125 0.929 . S
H154 C127 0.931 . S
H155 C128 0.930 . S
H156 C133 0.929 . S
H157 C134 0.929 . S
H158 C136 0.931 1_556 S
H159 C137 0.930 . S
Pr160 C162 2.880 . S
Pr160 O180 2.562 . S
Pr160 O181 2.490 . S
Pr160 O182 2.695 . S
Pr160 O183 2.512 1_554 S
Pr160 O185 2.437 . S
Pr160 O188 2.436 . S
Pr160 O190 2.438 . S
Pr161 C171 2.880 . S
Pr161 O182 2.436 . S
Pr161 O184 2.438 . S
Pr161 O186 2.562 . S
Pr161 O187 2.490 . S
Pr161 O188 2.695 . S
Pr161 O189 2.512 . S
Pr161 O191 2.437 . S
C162 Pr160 2.880 . S
C162 C163 1.491 . S
C162 O180 1.254 . S
C162 O181 1.225 . S
C163 C162 1.491 . S
C163 C164 1.392 . S
C163 C168 1.356 . S
C164 C163 1.392 . S
C164 C165 1.368 . S
C164 H192 0.929 . S
C165 C164 1.368 . S
C165 C166 1.386 . S
C165 H193 0.929 . S
C166 C165 1.386 . S
C166 C167 1.373 . S
C167 C166 1.373 . S
C167 C168 1.409 . S
C167 H194 0.931 . S
C168 C163 1.356 . S
C168 C167 1.409 . S
C168 H195 0.930 . S
C169 O182 1.270 1_556 S
C169 O183 1.248 . S
C170 O184 1.267 . S
C170 O185 1.278 . S
C171 Pr161 2.880 . S
C171 C172 1.491 . S
C171 O186 1.254 . S
C171 O187 1.225 . S
C172 C171 1.491 . S
C172 C173 1.392 . S
C172 C177 1.356 . S
C173 C172 1.392 . S
C173 C174 1.368 . S
C173 H196 0.929 . S
C174 C173 1.368 . S
C174 C175 1.386 . S
C174 H197 0.929 . S
C175 C174 1.386 . S
C175 C176 1.373 . S
C176 C175 1.373 . S
C176 C177 1.409 . S
C176 H198 0.931 . S
C177 C172 1.356 . S
C177 C176 1.409 . S
C177 H199 0.930 . S
C178 O188 1.270 . S
C178 O189 1.248 . S
C179 O190 1.267 . S
C179 O191 1.278 . S
O180 Pr160 2.562 . S
O180 C162 1.254 . S
O181 Pr160 2.490 . S
O181 C162 1.225 . S
O182 Pr160 2.695 . S
O182 Pr161 2.436 . S
O182 C169 1.270 1_554 S
O183 Pr160 2.512 1_556 S
O183 C169 1.248 . S
O184 Pr161 2.438 . S
O184 C170 1.267 . S
O185 Pr160 2.437 . S
O185 C170 1.278 . S
O186 Pr161 2.562 . S
O186 C171 1.254 . S
O187 Pr161 2.490 . S
O187 C171 1.225 . S
O188 Pr160 2.436 . S
O188 Pr161 2.695 . S
O188 C178 1.270 . S
O189 Pr161 2.512 . S
O189 C178 1.248 . S
O190 Pr160 2.438 . S
O190 C179 1.267 . S
O191 Pr161 2.437 . S
O191 C179 1.278 . S
H192 C164 0.929 . S
H193 C165 0.929 . S
H194 C167 0.931 . S
H195 C168 0.930 . S
H196 C173 0.929 . S
H197 C174 0.929 . S
H198 C176 0.931 . S
H199 C177 0.930 . S
Pr200 C202 2.873 1_655 S
Pr200 O220 2.562 . S
Pr200 O221 2.490 . S
Pr200 O222 2.695 . S
Pr200 O223 2.512 . S
Pr200 O225 2.437 . S
Pr200 O228 2.436 . S
Pr200 O230 2.438 . S
Pr201 C211 2.880 . S
Pr201 O222 2.436 . S
Pr201 O224 2.438 . S
Pr201 O226 2.562 . S
Pr201 O227 2.490 . S
Pr201 O228 2.695 . S
Pr201 O229 2.512 . S
Pr201 O231 2.437 . S
C202 Pr200 2.873 1_455 S
C202 C203 1.498 . S
C202 O220 1.250 1_455 S
C202 O221 1.222 1_455 S
C203 C202 1.498 . S
C203 C204 1.392 . S
C203 C208 1.356 . S
C204 C203 1.392 . S
C204 C205 1.368 . S
C204 H232 0.929 . S
C205 C204 1.368 . S
C205 C206 1.386 . S
C205 H233 0.929 . S
C206 C205 1.386 . S
C206 C207 1.373 . S
C207 C206 1.373 . S
C207 C208 1.409 . S
C207 H234 0.931 . S
C208 C203 1.356 . S
C208 C207 1.409 . S
C208 H235 0.930 . S
C209 O222 1.270 . S
C209 O223 1.248 . S
C210 O224 1.267 . S
C210 O225 1.278 . S
C211 Pr201 2.880 . S
C211 C212 1.491 . S
C211 O226 1.254 . S
C211 O227 1.225 . S
C212 C211 1.491 . S
C212 C213 1.392 . S
C212 C217 1.356 . S
C213 C212 1.392 . S
C213 C214 1.368 . S
C213 H236 0.929 . S
C214 C213 1.368 . S
C214 C215 1.386 . S
C214 H237 0.929 . S
C215 C214 1.386 . S
C215 C216 1.373 . S
C216 C215 1.373 . S
C216 C217 1.409 . S
C216 H238 0.931 1_554 S
C217 C212 1.356 . S
C217 C216 1.409 . S
C217 H239 0.930 . S
C218 O228 1.270 . S
C218 O229 1.248 . S
C219 O230 1.267 . S
C219 O231 1.278 . S
O220 Pr200 2.562 . S
O220 C202 1.250 1_655 S
O221 Pr200 2.490 . S
O221 C202 1.222 1_655 S
O222 Pr200 2.695 . S
O222 Pr201 2.436 . S
O222 C209 1.270 . S
O223 Pr200 2.512 . S
O223 C209 1.248 . S
O224 Pr201 2.438 . S
O224 C210 1.267 . S
O225 Pr200 2.437 . S
O225 C210 1.278 . S
O226 Pr201 2.562 . S
O226 C211 1.254 . S
O227 Pr201 2.490 . S
O227 C211 1.225 . S
O228 Pr200 2.436 . S
O228 Pr201 2.695 . S
O228 C218 1.270 . S
O229 Pr201 2.512 . S
O229 C218 1.248 . S
O230 Pr200 2.438 . S
O230 C219 1.267 . S
O231 Pr201 2.437 . S
O231 C219 1.278 . S
H232 C204 0.929 . S
H233 C205 0.929 . S
H234 C207 0.931 . S
H235 C208 0.930 . S
H236 C213 0.929 . S
H237 C214 0.929 . S
H238 C216 0.931 1_556 S
H239 C217 0.930 . S
Pr240 C242 2.880 . S
Pr240 O260 2.562 . S
Pr240 O261 2.490 . S
Pr240 O262 2.695 . S
Pr240 O263 2.512 . S
Pr240 O265 2.437 . S
Pr240 O268 2.436 . S
Pr240 O270 2.438 . S
Pr241 C251 2.880 . S
Pr241 O262 2.436 . S
Pr241 O264 2.438 . S
Pr241 O266 2.562 . S
Pr241 O267 2.490 . S
Pr241 O268 2.695 . S
Pr241 O269 2.512 . S
Pr241 O271 2.437 . S
C242 Pr240 2.880 . S
C242 C243 1.491 . S
C242 O260 1.254 . S
C242 O261 1.225 . S
C243 C242 1.491 . S
C243 C244 1.392 . S
C243 C248 1.356 . S
C244 C243 1.392 . S
C244 C245 1.368 . S
C244 H272 0.929 . S
C245 C244 1.368 . S
C245 C246 1.386 . S
C245 H273 0.929 . S
C246 C245 1.386 . S
C246 C247 1.373 . S
C247 C246 1.373 . S
C247 C248 1.409 . S
C247 H274 0.931 . S
C248 C243 1.356 . S
C248 C247 1.409 . S
C248 H275 0.930 . S
C249 O262 1.270 . S
C249 O263 1.248 . S
C250 O264 1.267 . S
C250 O265 1.278 . S
C251 Pr241 2.880 . S
C251 C252 1.491 . S
C251 O266 1.254 . S
C251 O267 1.225 . S
C252 C251 1.491 . S
C252 C253 1.392 . S
C252 C257 1.356 . S
C253 C252 1.392 . S
C253 C254 1.368 . S
C253 H276 0.929 . S
C254 C253 1.368 . S
C254 C255 1.386 . S
C254 H277 0.929 . S
C255 C254 1.386 . S
C255 C256 1.373 . S
C256 C255 1.373 . S
C256 C257 1.409 . S
C256 H278 0.931 . S
C257 C252 1.356 . S
C257 C256 1.409 . S
C257 H279 0.930 . S
C258 O268 1.270 . S
C258 O269 1.248 . S
C259 O270 1.267 . S
C259 O271 1.278 . S
O260 Pr240 2.562 . S
O260 C242 1.254 . S
O261 Pr240 2.490 . S
O261 C242 1.225 . S
O262 Pr240 2.695 . S
O262 Pr241 2.436 . S
O262 C249 1.270 . S
O263 Pr240 2.512 . S
O263 C249 1.248 . S
O264 Pr241 2.438 . S
O264 C250 1.267 . S
O265 Pr240 2.437 . S
O265 C250 1.278 . S
O266 Pr241 2.562 . S
O266 C251 1.254 . S
O267 Pr241 2.490 . S
O267 C251 1.225 . S
O268 Pr240 2.436 . S
O268 Pr241 2.695 . S
O268 C258 1.270 . S
O269 Pr241 2.512 . S
O269 C258 1.248 . S
O270 Pr240 2.438 . S
O270 C259 1.267 . S
O271 Pr241 2.437 . S
O271 C259 1.278 . S
H272 C244 0.929 . S
H273 C245 0.929 . S
H274 C247 0.931 . S
H275 C248 0.930 . S
H276 C253 0.929 . S
H277 C254 0.929 . S
H278 C256 0.931 . S
H279 C257 0.930 . S
Pr280 C282 2.880 . S
Pr280 O300 2.562 . S
Pr280 O301 2.490 . S
Pr280 O302 2.695 . S
Pr280 O303 2.512 . S
Pr280 O305 2.437 . S
Pr280 O308 2.436 . S
Pr280 O310 2.438 . S
Pr281 C291 2.880 . S
Pr281 O302 2.436 . S
Pr281 O304 2.438 . S
Pr281 O306 2.562 . S
Pr281 O307 2.490 . S
Pr281 O308 2.695 . S
Pr281 O309 2.512 . S
Pr281 O311 2.437 . S
C282 Pr280 2.880 . S
C282 C283 1.491 . S
C282 O300 1.254 . S
C282 O301 1.225 . S
C283 C282 1.491 . S
C283 C284 1.392 . S
C283 C288 1.356 . S
C284 C283 1.392 . S
C284 C285 1.368 . S
C284 H312 0.929 . S
C285 C284 1.368 . S
C285 C286 1.386 . S
C285 H313 0.929 . S
C286 C285 1.386 . S
C286 C287 1.373 . S
C287 C286 1.373 . S
C287 C288 1.409 . S
C287 H314 0.931 . S
C288 C283 1.356 . S
C288 C287 1.409 . S
C288 H315 0.930 . S
C289 O302 1.270 . S
C289 O303 1.248 . S
C290 O304 1.267 . S
C290 O305 1.278 . S
C291 Pr281 2.880 . S
C291 C292 1.491 . S
C291 O306 1.254 . S
C291 O307 1.225 . S
C292 C291 1.491 . S
C292 C293 1.392 . S
C292 C297 1.356 . S
C293 C292 1.392 . S
C293 C294 1.368 . S
C293 H316 0.929 . S
C294 C293 1.368 . S
C294 C295 1.386 . S
C294 H317 0.929 . S
C295 C294 1.386 . S
C295 C296 1.373 . S
C296 C295 1.373 . S
C296 C297 1.409 . S
C296 H318 0.931 . S
C297 C292 1.356 . S
C297 C296 1.409 . S
C297 H319 0.930 . S
C298 O308 1.270 . S
C298 O309 1.248 . S
C299 O310 1.267 . S
C299 O311 1.278 . S
O300 Pr280 2.562 . S
O300 C282 1.254 . S
O301 Pr280 2.490 . S
O301 C282 1.225 . S
O302 Pr280 2.695 . S
O302 Pr281 2.436 . S
O302 C289 1.270 . S
O303 Pr280 2.512 . S
O303 C289 1.248 . S
O304 Pr281 2.438 . S
O304 C290 1.267 . S
O305 Pr280 2.437 . S
O305 C290 1.278 . S
O306 Pr281 2.562 . S
O306 C291 1.254 . S
O307 Pr281 2.490 . S
O307 C291 1.225 . S
O308 Pr280 2.436 . S
O308 Pr281 2.695 . S
O308 C298 1.270 . S
O309 Pr281 2.512 . S
O309 C298 1.248 . S
O310 Pr280 2.438 . S
O310 C299 1.267 . S
O311 Pr281 2.437 . S
O311 C299 1.278 . S
H312 C284 0.929 . S
H313 C285 0.929 . S
H314 C287 0.931 . S
H315 C288 0.930 . S
H316 C293 0.929 . S
H317 C294 0.929 . S
H318 C296 0.931 . S
H319 C297 0.930 . S
Pr320 C322 2.880 . S
Pr320 O340 2.562 . S
Pr320 O341 2.490 . S
Pr320 O342 2.695 . S
Pr320 O343 2.512 . S
Pr320 O345 2.437 . S
Pr320 O348 2.436 . S
Pr320 O350 2.438 . S
Pr321 C331 2.880 . S
Pr321 O342 2.436 . S
Pr321 O344 2.438 . S
Pr321 O346 2.562 . S
Pr321 O347 2.490 . S
Pr321 O348 2.695 . S
Pr321 O349 2.512 . S
Pr321 O351 2.437 . S
C322 Pr320 2.880 . S
C322 C323 1.491 . S
C322 O340 1.254 . S
C322 O341 1.225 . S
C323 C322 1.491 . S
C323 C324 1.392 . S
C323 C328 1.356 . S
C324 C323 1.392 . S
C324 C325 1.368 . S
C324 H352 0.929 . S
C325 C324 1.368 . S
C325 C326 1.386 . S
C325 H353 0.929 . S
C326 C325 1.386 . S
C326 C327 1.373 . S
C327 C326 1.373 . S
C327 C328 1.409 . S
C327 H354 0.931 . S
C328 C323 1.356 . S
C328 C327 1.409 . S
C328 H355 0.930 . S
C329 O342 1.270 . S
C329 O343 1.248 . S
C330 O344 1.267 . S
C330 O345 1.278 . S
C331 Pr321 2.880 . S
C331 C332 1.491 . S
C331 O346 1.254 . S
C331 O347 1.225 . S
C332 C331 1.491 . S
C332 C333 1.392 . S
C332 C337 1.356 . S
C333 C332 1.392 . S
C333 C334 1.368 . S
C333 H356 0.929 . S
C334 C333 1.368 . S
C334 C335 1.386 . S
C334 H357 0.929 . S
C335 C334 1.386 . S
C335 C336 1.373 . S
C336 C335 1.373 . S
C336 C337 1.409 . S
C336 H358 0.931 . S
C337 C332 1.356 . S
C337 C336 1.409 . S
C337 H359 0.930 . S
C338 O348 1.270 . S
C338 O349 1.248 . S
C339 O350 1.267 . S
C339 O351 1.278 . S
O340 Pr320 2.562 . S
O340 C322 1.254 . S
O341 Pr320 2.490 . S
O341 C322 1.225 . S
O342 Pr320 2.695 . S
O342 Pr321 2.436 . S
O342 C329 1.270 . S
O343 Pr320 2.512 . S
O343 C329 1.248 . S
O344 Pr321 2.438 . S
O344 C330 1.267 . S
O345 Pr320 2.437 . S
O345 C330 1.278 . S
O346 Pr321 2.562 . S
O346 C331 1.254 . S
O347 Pr321 2.490 . S
O347 C331 1.225 . S
O348 Pr320 2.436 . S
O348 Pr321 2.695 . S
O348 C338 1.270 . S
O349 Pr321 2.512 . S
O349 C338 1.248 . S
O350 Pr320 2.438 . S
O350 C339 1.267 . S
O351 Pr321 2.437 . S
O351 C339 1.278 . S
H352 C324 0.929 . S
H353 C325 0.929 . S
H354 C327 0.931 . S
H355 C328 0.930 . S
H356 C333 0.929 . S
H357 C334 0.929 . S
H358 C336 0.931 . S
H359 C337 0.930 . S
H360 C372 0.930 . S
H361 C374 0.930 . S
H362 C375 0.930 . S
H363 C379 0.959 . S
H364 C379 0.959 . S
H365 C379 0.961 . S
H366 C380 0.960 . S
H367 C380 0.961 . S
H368 C380 0.959 . S
H369 C383 0.929 1_554 S
H370 C384 0.931 . S
H371 C386 0.930 . S
C372 H360 0.930 . S
C372 C373 1.399 1_556 S
C372 C377 1.399 . S
C373 C372 1.399 1_554 S
C373 C374 1.376 . S
C374 H361 0.930 . S
C374 C373 1.376 . S
C374 C375 1.388 . S
C375 H362 0.930 . S
C375 C374 1.388 . S
C375 C376 1.390 1_554 S
C376 C375 1.390 1_556 S
C376 C377 1.394 . S
C376 C382 1.465 . S
C377 C372 1.399 . S
C377 C376 1.394 . S
C377 C378 1.516 . S
C378 C377 1.516 . S
C378 C379 1.502 . S
C378 C380 1.561 . S
C378 C381 1.526 . S
C379 H363 0.959 . S
C379 H364 0.959 . S
C379 H365 0.961 . S
C379 C378 1.502 . S
C380 H366 0.960 . S
C380 H367 0.961 . S
C380 H368 0.959 . S
C380 C378 1.561 . S
C381 C378 1.526 . S
C381 C382 1.396 . S
C381 C386 1.390 . S
C382 C376 1.465 . S
C382 C381 1.396 . S
C382 C383 1.399 . S
C383 H369 0.929 1_556 S
C383 C382 1.399 . S
C383 C384 1.385 . S
C384 H370 0.931 . S
C384 C383 1.385 . S
C384 C385 1.389 . S
C385 C384 1.389 . S
C385 C386 1.387 . S
C386 H371 0.930 . S
C386 C381 1.390 . S
C386 C385 1.387 . S
H387 C399 0.930 . S
H388 C401 0.930 . S
H389 C402 0.930 1_554 S
H390 C406 0.959 . S
H391 C406 0.959 . S
H392 C406 0.961 . S
H393 C407 0.960 . S
H394 C407 0.961 . S
H395 C407 0.959 . S
H396 C410 0.929 . S
H397 C411 0.931 . S
H398 C413 0.930 . S
C399 H387 0.930 . S
C399 C400 1.399 . S
C399 C404 1.399 . S
C400 C399 1.399 . S
C400 C401 1.376 1_556 S
C401 H388 0.930 . S
C401 C400 1.376 1_554 S
C401 C402 1.388 1_554 S
C402 H389 0.930 1_556 S
C402 C401 1.388 1_556 S
C402 C403 1.390 . S
C403 C402 1.390 . S
C403 C404 1.394 . S
C403 C409 1.465 . S
C404 C399 1.399 . S
C404 C403 1.394 . S
C404 C405 1.516 . S
C405 C404 1.516 . S
C405 C406 1.502 . S
C405 C407 1.561 . S
C405 C408 1.526 . S
C406 H390 0.959 . S
C406 H391 0.959 . S
C406 H392 0.961 . S
C406 C405 1.502 . S
C407 H393 0.960 . S
C407 H394 0.961 . S
C407 H395 0.959 . S
C407 C405 1.561 . S
C408 C405 1.526 . S
C408 C409 1.396 . S
C408 C413 1.390 . S
C409 C403 1.465 . S
C409 C408 1.396 . S
C409 C410 1.399 . S
C410 H396 0.929 . S
C410 C409 1.399 . S
C410 C411 1.385 . S
C411 H397 0.931 . S
C411 C410 1.385 . S
C411 C412 1.389 . S
C412 C411 1.389 . S
C412 C413 1.387 . S
C413 H398 0.930 . S
C413 C408 1.390 . S
C413 C412 1.387 . S
H414 C426 0.930 1_554 S
H415 C428 0.930 . S
H416 C429 0.930 . S
H417 C433 0.959 . S
H418 C433 0.959 1_554 S
H419 C433 0.961 1_554 S
H420 C434 0.960 . S
H421 C434 0.961 . S
H422 C434 0.959 . S
H423 C437 0.929 . S
H424 C438 0.931 . S
H425 C440 0.930 . S
C426 H414 0.930 1_556 S
C426 C427 1.399 . S
C426 C431 1.399 . S
C427 C426 1.399 . S
C427 C428 1.376 . S
C428 H415 0.930 . S
C428 C427 1.376 . S
C428 C429 1.388 . S
C429 H416 0.930 . S
C429 C428 1.388 . S
C429 C430 1.390 . S
C430 C429 1.390 . S
C430 C431 1.394 . S
C430 C436 1.465 . S
C431 C426 1.399 . S
C431 C430 1.394 . S
C431 C432 1.516 . S
C432 C431 1.516 . S
C432 C433 1.502 . S
C432 C434 1.561 1_556 S
C432 C435 1.526 . S
C433 H417 0.959 . S
C433 H418 0.959 1_556 S
C433 H419 0.961 1_556 S
C433 C432 1.502 . S
C434 H420 0.960 . S
C434 H421 0.961 . S
C434 H422 0.959 . S
C434 C432 1.561 1_554 S
C435 C432 1.526 . S
C435 C436 1.396 . S
C435 C440 1.390 . S
C436 C430 1.465 . S
C436 C435 1.396 . S
C436 C437 1.399 . S
C437 H423 0.929 . S
C437 C436 1.399 . S
C437 C438 1.385 . S
C438 H424 0.931 . S
C438 C437 1.385 . S
C438 C439 1.389 . S
C439 C438 1.389 . S
C439 C440 1.387 . S
C440 H425 0.930 . S
C440 C435 1.390 . S
C440 C439 1.387 . S
H441 C453 0.930 . S
H442 C455 0.930 . S
H443 C456 0.930 . S
H444 C460 0.959 . S
H445 C460 0.959 . S
H446 C460 0.961 . S
H447 C461 0.960 . S
H448 C461 0.961 . S
H449 C461 0.959 1_554 S
H450 C464 0.929 . S
H451 C465 0.931 . S
H452 C467 0.930 1_556 S
C453 H441 0.930 . S
C453 C454 1.399 . S
C453 C458 1.399 . S
C454 C453 1.399 . S
C454 C455 1.376 . S
C455 H442 0.930 . S
C455 C454 1.376 . S
C455 C456 1.388 . S
C456 H443 0.930 . S
C456 C455 1.388 . S
C456 C457 1.390 . S
C457 C456 1.390 . S
C457 C458 1.394 . S
C457 C463 1.465 . S
C458 C453 1.399 . S
C458 C457 1.394 . S
C458 C459 1.516 1_554 S
C459 C458 1.516 1_556 S
C459 C460 1.502 . S
C459 C461 1.561 . S
C459 C462 1.526 1_556 S
C460 H444 0.959 . S
C460 H445 0.959 . S
C460 H446 0.961 . S
C460 C459 1.502 . S
C461 H447 0.960 . S
C461 H448 0.961 . S
C461 H449 0.959 1_556 S
C461 C459 1.561 . S
C462 C459 1.526 1_554 S
C462 C463 1.396 . S
C462 C467 1.390 . S
C463 C457 1.465 . S
C463 C462 1.396 . S
C463 C464 1.399 . S
C464 H450 0.929 . S
C464 C463 1.399 . S
C464 C465 1.385 . S
C465 H451 0.931 . S
C465 C464 1.385 . S
C465 C466 1.389 . S
C466 C465 1.389 . S
C466 C467 1.387 . S
C467 H452 0.930 1_554 S
C467 C462 1.390 . S
C467 C466 1.387 . S
H468 C480 0.930 . S
H469 C482 0.930 . S
H470 C483 0.930 . S
H471 C487 0.959 1_656 S
H472 C487 0.959 1_556 S
H473 C487 0.961 . S
H474 C488 0.960 . S
H475 C488 0.961 . S
H476 C488 0.959 . S
H477 C491 0.929 . S
H478 C492 0.931 . S
H479 C494 0.930 . S
C480 H468 0.930 . S
C480 C481 1.399 . S
C480 C485 1.399 . S
C481 C480 1.399 . S
C481 C482 1.376 . S
C482 H469 0.930 . S
C482 C481 1.376 . S
C482 C483 1.388 . S
C483 H470 0.930 . S
C483 C482 1.388 . S
C483 C484 1.390 . S
C484 C483 1.390 . S
C484 C485 1.394 . S
C484 C490 1.465 . S
C485 C480 1.399 . S
C485 C484 1.394 . S
C485 C486 1.516 1_655 S
C486 C485 1.516 1_455 S
C486 C487 1.502 . S
C486 C488 1.561 . S
C486 C489 1.526 1_455 S
C487 H471 0.959 1_454 S
C487 H472 0.959 1_554 S
C487 H473 0.961 . S
C487 C486 1.502 . S
C488 H474 0.960 . S
C488 H475 0.961 . S
C488 H476 0.959 . S
C488 C486 1.561 . S
C489 C486 1.526 1_655 S
C489 C490 1.396 . S
C489 C494 1.390 1_655 S
C490 C484 1.465 . S
C490 C489 1.396 . S
C490 C491 1.399 . S
C491 H477 0.929 . S
C491 C490 1.399 . S
C491 C492 1.385 . S
C492 H478 0.931 . S
C492 C491 1.385 . S
C492 C493 1.389 . S
C493 C492 1.389 . S
C493 C494 1.387 1_655 S
C494 H479 0.930 . S
C494 C489 1.390 1_455 S
C494 C493 1.387 1_455 S
H495 C507 0.930 1_556 S
H496 C509 0.930 . S
H497 C510 0.930 . S
H498 C514 0.959 1_554 S
H499 C514 0.959 . S
H500 C514 0.961 . S
H501 C515 0.960 . S
H502 C515 0.961 . S
H503 C515 0.959 . S
H504 C518 0.929 . S
H505 C519 0.931 . S
H506 C521 0.930 . S
C507 H495 0.930 1_554 S
C507 C508 1.399 . S
C507 C512 1.399 . S
C508 C507 1.399 . S
C508 C509 1.376 . S
C509 H496 0.930 . S
C509 C508 1.376 . S
C509 C510 1.388 . S
C510 H497 0.930 . S
C510 C509 1.388 . S
C510 C511 1.390 . S
C511 C510 1.390 . S
C511 C512 1.394 . S
C511 C517 1.465 . S
C512 C507 1.399 . S
C512 C511 1.394 . S
C512 C513 1.516 . S
C513 C512 1.516 . S
C513 C514 1.502 1_554 S
C513 C515 1.561 1_554 S
C513 C516 1.526 . S
C514 H498 0.959 1_556 S
C514 H499 0.959 . S
C514 H500 0.961 . S
C514 C513 1.502 1_556 S
C515 H501 0.960 . S
C515 H502 0.961 . S
C515 H503 0.959 . S
C515 C513 1.561 1_556 S
C516 C513 1.526 . S
C516 C517 1.396 . S
C516 C521 1.390 . S
C517 C511 1.465 . S
C517 C516 1.396 . S
C517 C518 1.399 . S
C518 H504 0.929 . S
C518 C517 1.399 . S
C518 C519 1.385 . S
C519 H505 0.931 . S
C519 C518 1.385 . S
C519 C520 1.389 . S
C520 C519 1.389 . S
C520 C521 1.387 . S
C521 H506 0.930 . S
C521 C516 1.390 . S
C521 C520 1.387 . S
H522 C534 0.930 . S
H523 C536 0.930 . S
H524 C537 0.930 . S
H525 C541 0.959 . S
H526 C541 0.959 . S
H527 C541 0.961 . S
H528 C542 0.960 . S
H529 C542 0.961 . S
H530 C542 0.959 . S
H531 C545 0.929 . S
H532 C546 0.931 . S
H533 C548 0.930 . S
C534 H522 0.930 . S
C534 C535 1.399 . S
C534 C539 1.399 . S
C535 C534 1.399 . S
C535 C536 1.376 . S
C536 H523 0.930 . S
C536 C535 1.376 . S
C536 C537 1.388 . S
C537 H524 0.930 . S
C537 C536 1.388 . S
C537 C538 1.390 . S
C538 C537 1.390 . S
C538 C539 1.394 . S
C538 C544 1.465 . S
C539 C534 1.399 . S
C539 C538 1.394 . S
C539 C540 1.516 . S
C540 C539 1.516 . S
C540 C541 1.502 . S
C540 C542 1.561 . S
C540 C543 1.526 . S
C541 H525 0.959 . S
C541 H526 0.959 . S
C541 H527 0.961 . S
C541 C540 1.502 . S
C542 H528 0.960 . S
C542 H529 0.961 . S
C542 H530 0.959 . S
C542 C540 1.561 . S
C543 C540 1.526 . S
C543 C544 1.396 . S
C543 C548 1.390 . S
C544 C538 1.465 . S
C544 C543 1.396 . S
C544 C545 1.399 . S
C545 H531 0.929 . S
C545 C544 1.399 . S
C545 C546 1.385 . S
C546 H532 0.931 . S
C546 C545 1.385 . S
C546 C547 1.389 . S
C547 C546 1.389 . S
C547 C548 1.387 . S
C548 H533 0.930 . S
C548 C543 1.390 . S
C548 C547 1.387 . S
H549 C561 0.930 . S
H550 C563 0.930 . S
H551 C564 0.930 . S
H552 C568 0.959 . S
H553 C568 0.959 . S
H554 C568 0.961 . S
H555 C569 0.960 . S
H556 C569 0.961 . S
H557 C569 0.959 . S
H558 C572 0.929 . S
H559 C573 0.931 . S
H560 C575 0.930 . S
C561 H549 0.930 . S
C561 C562 1.399 . S
C561 C566 1.399 . S
C562 C561 1.399 . S
C562 C563 1.376 . S
C563 H550 0.930 . S
C563 C562 1.376 . S
C563 C564 1.388 . S
C564 H551 0.930 . S
C564 C563 1.388 . S
C564 C565 1.390 . S
C565 C564 1.390 . S
C565 C566 1.394 . S
C565 C571 1.465 . S
C566 C561 1.399 . S
C566 C565 1.394 . S
C566 C567 1.516 . S
C567 C566 1.516 . S
C567 C568 1.502 . S
C567 C569 1.561 . S
C567 C570 1.526 . S
C568 H552 0.959 . S
C568 H553 0.959 . S
C568 H554 0.961 . S
C568 C567 1.502 . S
C569 H555 0.960 . S
C569 H556 0.961 . S
C569 H557 0.959 . S
C569 C567 1.561 . S
C570 C567 1.526 . S
C570 C571 1.396 . S
C570 C575 1.390 . S
C571 C565 1.465 . S
C571 C570 1.396 . S
C571 C572 1.399 . S
C572 H558 0.929 . S
C572 C571 1.399 . S
C572 C573 1.385 . S
C573 H559 0.931 . S
C573 C572 1.385 . S
C573 C574 1.389 . S
C574 C573 1.389 . S
C574 C575 1.387 . S
C575 H560 0.930 . S
C575 C570 1.390 . S
C575 C574 1.387 . S
H576 C588 0.930 . S
H577 C590 0.930 . S
H578 C591 0.930 . S
H579 C595 0.959 1_545 S
H580 C595 0.959 . S
H581 C595 0.961 . S
H582 C596 0.960 . S
H583 C596 0.961 1_565 S
H584 C596 0.959 . S
H585 C599 0.929 . S
H586 C600 0.931 . S
H587 C602 0.930 1_565 S
C588 H576 0.930 . S
C588 C589 1.399 . S
C588 C593 1.399 . S
C589 C588 1.399 . S
C589 C590 1.376 . S
C590 H577 0.930 . S
C590 C589 1.376 . S
C590 C591 1.388 . S
C591 H578 0.930 . S
C591 C590 1.388 . S
C591 C592 1.390 . S
C592 C591 1.390 . S
C592 C593 1.394 . S
C592 C598 1.465 . S
C593 C588 1.399 . S
C593 C592 1.394 . S
C593 C594 1.516 . S
C594 C593 1.516 . S
C594 C595 1.502 1_545 S
C594 C596 1.561 . S
C594 C597 1.526 . S
C595 H579 0.959 1_565 S
C595 H580 0.959 . S
C595 H581 0.961 . S
C595 C594 1.502 1_565 S
C596 H582 0.960 . S
C596 H583 0.961 1_545 S
C596 H584 0.959 . S
C596 C594 1.561 . S
C597 C594 1.526 . S
C597 C598 1.396 . S
C597 C602 1.390 . S
C598 C592 1.465 . S
C598 C597 1.396 . S
C598 C599 1.399 . S
C599 H585 0.929 . S
C599 C598 1.399 . S
C599 C600 1.385 . S
C600 H586 0.931 . S
C600 C599 1.385 . S
C600 C601 1.389 . S
C601 C600 1.389 . S
C601 C602 1.387 . S
C602 H587 0.930 1_545 S
C602 C597 1.390 . S
C602 C601 1.387 . S
H603 C615 0.930 1_556 S
H604 C617 0.930 . S
H605 C618 0.930 . S
H606 C622 0.959 . S
H607 C622 0.959 . S
H608 C622 0.961 . S
H609 C623 0.960 . S
H610 C623 0.961 . S
H611 C623 0.959 . S
H612 C626 0.929 . S
H613 C627 0.931 . S
H614 C629 0.930 1_556 S
C615 H603 0.930 1_554 S
C615 C616 1.399 . S
C615 C620 1.399 . S
C616 C615 1.399 . S
C616 C617 1.376 . S
C617 H604 0.930 . S
C617 C616 1.376 . S
C617 C618 1.388 . S
C618 H605 0.930 . S
C618 C617 1.388 . S
C618 C619 1.390 . S
C619 C618 1.390 . S
C619 C620 1.394 . S
C619 C625 1.465 . S
C620 C615 1.399 . S
C620 C619 1.394 . S
C620 C621 1.516 1_554 S
C621 C620 1.516 1_556 S
C621 C622 1.502 . S
C621 C623 1.561 . S
C621 C624 1.526 1_556 S
C622 H606 0.959 . S
C622 H607 0.959 . S
C622 H608 0.961 . S
C622 C621 1.502 . S
C623 H609 0.960 . S
C623 H610 0.961 . S
C623 H611 0.959 . S
C623 C621 1.561 . S
C624 C621 1.526 1_554 S
C624 C625 1.396 . S
C624 C629 1.390 . S
C625 C619 1.465 . S
C625 C624 1.396 . S
C625 C626 1.399 . S
C626 H612 0.929 . S
C626 C625 1.399 . S
C626 C627 1.385 . S
C627 H613 0.931 . S
C627 C626 1.385 . S
C627 C628 1.389 . S
C628 C627 1.389 . S
C628 C629 1.387 . S
C629 H614 0.930 1_554 S
C629 C624 1.390 . S
C629 C628 1.387 . S
H630 C642 0.930 . S
H631 C644 0.930 . S
H632 C645 0.930 . S
H633 C649 0.959 . S
H634 C649 0.959 . S
H635 C649 0.961 1_565 S
H636 C650 0.960 . S
H637 C650 0.961 . S
H638 C650 0.959 . S
H639 C653 0.929 . S
H640 C654 0.931 . S
H641 C656 0.930 1_556 S
C642 H630 0.930 . S
C642 C643 1.399 1_556 S
C642 C647 1.399 1_556 S
C643 C642 1.399 1_554 S
C643 C644 1.376 . S
C644 H631 0.930 . S
C644 C643 1.376 . S
C644 C645 1.388 . S
C645 H632 0.930 . S
C645 C644 1.388 . S
C645 C646 1.390 . S
C646 C645 1.390 . S
C646 C647 1.394 . S
C646 C652 1.465 1_565 S
C647 C642 1.399 1_554 S
C647 C646 1.394 . S
C647 C648 1.516 1_554 S
C648 C647 1.516 1_556 S
C648 C649 1.502 1_565 S
C648 C650 1.561 . S
C648 C651 1.526 1_566 S
C649 H633 0.959 . S
C649 H634 0.959 . S
C649 H635 0.961 1_545 S
C649 C648 1.502 1_545 S
C650 H636 0.960 . S
C650 H637 0.961 . S
C650 H638 0.959 . S
C650 C648 1.561 . S
C651 C648 1.526 1_544 S
C651 C652 1.396 . S
C651 C656 1.390 . S
C652 C646 1.465 1_545 S
C652 C651 1.396 . S
C652 C653 1.399 . S
C653 H639 0.929 . S
C653 C652 1.399 . S
C653 C654 1.385 . S
C654 H640 0.931 . S
C654 C653 1.385 . S
C654 C655 1.389 . S
C655 C654 1.389 . S
C655 C656 1.387 . S
C656 H641 0.930 1_554 S
C656 C651 1.390 . S
C656 C655 1.387 . S
H657 C669 0.930 1_655 S
H658 C671 0.930 . S
H659 C672 0.930 . S
H660 C676 0.959 . S
H661 C676 0.959 . S
H662 C676 0.961 . S
H663 C677 0.960 . S
H664 C677 0.961 . S
H665 C677 0.959 . S
H666 C680 0.929 . S
H667 C681 0.931 . S
H668 C683 0.930 . S
C669 H657 0.930 1_455 S
C669 C670 1.399 1_456 S
C669 C674 1.399 . S
C670 C669 1.399 1_654 S
C670 C671 1.376 . S
C671 H658 0.930 . S
C671 C670 1.376 . S
C671 C672 1.388 1_655 S
C672 H659 0.930 . S
C672 C671 1.388 1_455 S
C672 C673 1.390 . S
C673 C672 1.390 . S
C673 C674 1.394 1_554 S
C673 C679 1.465 . S
C674 C669 1.399 . S
C674 C673 1.394 1_556 S
C674 C675 1.516 . S
C675 C674 1.516 . S
C675 C676 1.502 . S
C675 C677 1.561 . S
C675 C678 1.526 . S
C676 H660 0.959 . S
C676 H661 0.959 . S
C676 H662 0.961 . S
C676 C675 1.502 . S
C677 H663 0.960 . S
C677 H664 0.961 . S
C677 H665 0.959 . S
C677 C675 1.561 . S
C678 C675 1.526 . S
C678 C679 1.396 1_556 S
C678 C683 1.390 . S
C679 C673 1.465 . S
C679 C678 1.396 1_554 S
C679 C680 1.399 . S
C680 H666 0.929 . S
C680 C679 1.399 . S
C680 C681 1.385 . S
C681 H667 0.931 . S
C681 C680 1.385 . S
C681 C682 1.389 . S
C682 C681 1.389 . S
C682 C683 1.387 1_554 S
C683 H668 0.930 . S
C683 C678 1.390 . S
C683 C682 1.387 1_556 S
H684 C696 0.930 . S
H685 C698 0.930 . S
H686 C699 0.930 . S
H687 C703 0.959 . S
H688 C703 0.959 . S
H689 C703 0.961 . S
H690 C704 0.960 . S
H691 C704 0.961 . S
H692 C704 0.959 . S
H693 C707 0.929 . S
H694 C708 0.931 . S
H695 C710 0.930 . S
C696 H684 0.930 . S
C696 C697 1.399 . S
C696 C701 1.399 . S
C697 C696 1.399 . S
C697 C698 1.376 . S
C698 H685 0.930 . S
C698 C697 1.376 . S
C698 C699 1.388 . S
C699 H686 0.930 . S
C699 C698 1.388 . S
C699 C700 1.390 . S
C700 C699 1.390 . S
C700 C701 1.394 . S
C700 C706 1.465 . S
C701 C696 1.399 . S
C701 C700 1.394 . S
C701 C702 1.516 . S
C702 C701 1.516 . S
C702 C703 1.502 . S
C702 C704 1.561 . S
C702 C705 1.526 . S
C703 H687 0.959 . S
C703 H688 0.959 . S
C703 H689 0.961 . S
C703 C702 1.502 . S
C704 H690 0.960 . S
C704 H691 0.961 . S
C704 H692 0.959 . S
C704 C702 1.561 . S
C705 C702 1.526 . S
C705 C706 1.396 . S
C705 C710 1.390 . S
C706 C700 1.465 . S
C706 C705 1.396 . S
C706 C707 1.399 . S
C707 H693 0.929 . S
C707 C706 1.399 . S
C707 C708 1.385 . S
C708 H694 0.931 . S
C708 C707 1.385 . S
C708 C709 1.389 . S
C709 C708 1.389 . S
C709 C710 1.387 . S
C710 H695 0.930 . S
C710 C705 1.390 . S
C710 C709 1.387 . S
H711 C723 0.930 . S
H712 C725 0.930 . S
H713 C726 0.930 . S
H714 C730 0.959 . S
H715 C730 0.959 . S
H716 C730 0.961 . S
H717 C731 0.960 . S
H718 C731 0.961 . S
H719 C731 0.959 . S
H720 C734 0.929 . S
H721 C735 0.931 . S
H722 C737 0.930 . S
C723 H711 0.930 . S
C723 C724 1.399 . S
C723 C728 1.399 . S
C724 C723 1.399 . S
C724 C725 1.376 . S
C725 H712 0.930 . S
C725 C724 1.376 . S
C725 C726 1.388 . S
C726 H713 0.930 . S
C726 C725 1.388 . S
C726 C727 1.390 . S
C727 C726 1.390 . S
C727 C728 1.394 . S
C727 C733 1.465 . S
C728 C723 1.399 . S
C728 C727 1.394 . S
C728 C729 1.516 . S
C729 C728 1.516 . S
C729 C730 1.502 . S
C729 C731 1.561 1_554 S
C729 C732 1.526 . S
C730 H714 0.959 . S
C730 H715 0.959 . S
C730 H716 0.961 . S
C730 C729 1.502 . S
C731 H717 0.960 . S
C731 H718 0.961 . S
C731 H719 0.959 . S
C731 C729 1.561 1_556 S
C732 C729 1.526 . S
C732 C733 1.396 . S
C732 C737 1.390 . S
C733 C727 1.465 . S
C733 C732 1.396 . S
C733 C734 1.399 . S
C734 H720 0.929 . S
C734 C733 1.399 . S
C734 C735 1.385 . S
C735 H721 0.931 . S
C735 C734 1.385 . S
C735 C736 1.389 . S
C736 C735 1.389 . S
C736 C737 1.387 . S
C737 H722 0.930 . S
C737 C732 1.390 . S
C737 C736 1.387 . S
H738 C750 0.930 . S
H739 C752 0.930 . S
H740 C753 0.930 . S
H741 C757 0.959 . S
H742 C757 0.959 . S
H743 C757 0.961 . S
H744 C758 0.960 . S
H745 C758 0.961 . S
H746 C758 0.959 . S
H747 C761 0.932 . S
H748 C762 0.931 1_556 S
H749 C764 0.930 . S
C750 H738 0.930 . S
C750 C751 1.399 . S
C750 C755 1.399 . S
C751 C750 1.399 . S
C751 C752 1.376 . S
C752 H739 0.930 . S
C752 C751 1.376 . S
C752 C753 1.388 . S
C753 H740 0.930 . S
C753 C752 1.388 . S
C753 C754 1.390 . S
C754 C753 1.390 . S
C754 C755 1.394 . S
C754 C760 1.465 . S
C755 C750 1.399 . S
C755 C754 1.394 . S
C755 C756 1.516 . S
C756 C755 1.516 . S
C756 C757 1.502 . S
C756 C758 1.561 . S
C756 C759 1.526 . S
C757 H741 0.959 . S
C757 H742 0.959 . S
C757 H743 0.961 . S
C757 C756 1.502 . S
C758 H744 0.960 . S
C758 H745 0.961 . S
C758 H746 0.959 . S
C758 C756 1.561 . S
C759 C756 1.526 . S
C759 C760 1.396 . S
C759 C764 1.390 . S
C760 C754 1.465 . S
C760 C759 1.396 . S
C760 C761 1.399 . S
C761 H747 0.932 . S
C761 C760 1.399 . S
C761 C762 1.385 . S
C762 H748 0.931 1_554 S
C762 C761 1.385 . S
C762 C763 1.389 . S
C763 C762 1.389 . S
C763 C764 1.387 . S
C764 H749 0.930 . S
C764 C759 1.390 . S
C764 C763 1.387 . S
H765 C777 0.930 . S
H766 C779 0.930 . S
H767 C780 0.930 . S
H768 C784 0.959 . S
H769 C784 0.959 . S
H770 C784 0.961 . S
H771 C785 0.960 1_554 S
H772 C785 0.961 . S
H773 C785 0.958 1_554 S
H774 C788 0.929 . S
H775 C789 0.931 . S
H776 C791 0.930 . S
C777 H765 0.930 . S
C777 C778 1.399 . S
C777 C782 1.399 . S
C778 C777 1.399 . S
C778 C779 1.376 . S
C779 H766 0.930 . S
C779 C778 1.376 . S
C779 C780 1.388 . S
C780 H767 0.930 . S
C780 C779 1.388 . S
C780 C781 1.390 . S
C781 C780 1.390 . S
C781 C782 1.394 . S
C781 C787 1.465 . S
C782 C777 1.399 . S
C782 C781 1.394 . S
C782 C783 1.516 . S
C783 C782 1.516 . S
C783 C784 1.502 . S
C783 C785 1.561 . S
C783 C786 1.526 . S
C784 H768 0.959 . S
C784 H769 0.959 . S
C784 H770 0.961 . S
C784 C783 1.502 . S
C785 H771 0.960 1_556 S
C785 H772 0.961 . S
C785 H773 0.958 1_556 S
C785 C783 1.561 . S
C786 C783 1.526 . S
C786 C787 1.396 . S
C786 C791 1.390 . S
C787 C781 1.465 . S
C787 C786 1.396 . S
C787 C788 1.399 . S
C788 H774 0.929 . S
C788 C787 1.399 . S
C788 C789 1.385 . S
C789 H775 0.931 . S
C789 C788 1.385 . S
C789 C790 1.389 . S
C790 C789 1.389 . S
C790 C791 1.387 . S
C791 H776 0.930 . S
C791 C786 1.390 . S
C791 C790 1.387 . S
H792 C804 0.930 . S
H793 C806 0.930 . S
H794 C807 0.930 . S
H795 C811 0.959 . S
H796 C811 0.959 . S
H797 C811 0.961 . S
H798 C812 0.960 . S
H799 C812 0.961 . S
H800 C812 0.959 . S
H801 C815 0.929 . S
H802 C816 0.931 . S
H803 C818 0.930 . S
C804 H792 0.930 . S
C804 C805 1.399 . S
C804 C809 1.399 . S
C805 C804 1.399 . S
C805 C806 1.376 . S
C806 H793 0.930 . S
C806 C805 1.376 . S
C806 C807 1.388 . S
C807 H794 0.930 . S
C807 C806 1.388 . S
C807 C808 1.390 . S
C808 C807 1.390 . S
C808 C809 1.394 . S
C808 C814 1.465 . S
C809 C804 1.399 . S
C809 C808 1.394 . S
C809 C810 1.516 . S
C810 C809 1.516 . S
C810 C811 1.502 . S
C810 C812 1.561 . S
C810 C813 1.526 . S
C811 H795 0.959 . S
C811 H796 0.959 . S
C811 H797 0.961 . S
C811 C810 1.502 . S
C812 H798 0.960 . S
C812 H799 0.961 . S
C812 H800 0.959 . S
C812 C810 1.561 . S
C813 C810 1.526 . S
C813 C814 1.396 . S
C813 C818 1.390 . S
C814 C808 1.465 . S
C814 C813 1.396 . S
C814 C815 1.399 . S
C815 H801 0.929 . S
C815 C814 1.399 . S
C815 C816 1.385 . S
C816 H802 0.931 . S
C816 C815 1.385 . S
C816 C817 1.389 . S
C817 C816 1.389 . S
C817 C818 1.387 . S
C818 H803 0.930 . S
C818 C813 1.390 . S
C818 C817 1.387 . S
H819 C831 0.930 . S
H820 C833 0.930 . S
H821 C834 0.930 . S
H822 C838 0.959 . S
H823 C838 0.959 . S
H824 C838 0.961 . S
H825 C839 0.960 . S
H826 C839 0.961 . S
H827 C839 0.959 . S
H828 C842 0.929 . S
H829 C843 0.931 . S
H830 C845 0.930 . S
C831 H819 0.930 . S
C831 C832 1.399 . S
C831 C836 1.399 . S
C832 C831 1.399 . S
C832 C833 1.376 . S
C833 H820 0.930 . S
C833 C832 1.376 . S
C833 C834 1.388 . S
C834 H821 0.930 . S
C834 C833 1.388 . S
C834 C835 1.390 . S
C835 C834 1.390 . S
C835 C836 1.394 . S
C835 C841 1.465 . S
C836 C831 1.399 . S
C836 C835 1.394 . S
C836 C837 1.516 . S
C837 C836 1.516 . S
C837 C838 1.502 . S
C837 C839 1.561 . S
C837 C840 1.526 . S
C838 H822 0.959 . S
C838 H823 0.959 . S
C838 H824 0.961 . S
C838 C837 1.502 . S
C839 H825 0.960 . S
C839 H826 0.961 . S
C839 H827 0.959 . S
C839 C837 1.561 . S
C840 C837 1.526 . S
C840 C841 1.396 . S
C840 C845 1.390 . S
C841 C835 1.465 . S
C841 C840 1.396 . S
C841 C842 1.399 . S
C842 H828 0.929 . S
C842 C841 1.399 . S
C842 C843 1.385 . S
C843 H829 0.931 . S
C843 C842 1.385 . S
C843 C844 1.389 . S
C844 C843 1.389 . S
C844 C845 1.387 . S
C845 H830 0.930 . S
C845 C840 1.390 . S
C845 C844 1.387 . S
H846 C858 0.930 . S
H847 C860 0.930 . S
H848 C861 0.930 . S
H849 C865 0.959 . S
H850 C865 0.959 . S
H851 C865 0.961 . S
H852 C866 0.960 . S
H853 C866 0.961 . S
H854 C866 0.959 1_655 S
H855 C869 0.929 . S
H856 C870 0.931 . S
H857 C872 0.930 . S
C858 H846 0.930 . S
C858 C859 1.399 . S
C858 C863 1.399 . S
C859 C858 1.399 . S
C859 C860 1.376 . S
C860 H847 0.930 . S
C860 C859 1.376 . S
C860 C861 1.388 . S
C861 H848 0.930 . S
C861 C860 1.388 . S
C861 C862 1.390 . S
C862 C861 1.390 . S
C862 C863 1.394 . S
C862 C868 1.465 . S
C863 C858 1.399 . S
C863 C862 1.394 . S
C863 C864 1.516 . S
C864 C863 1.516 . S
C864 C865 1.502 . S
C864 C866 1.561 . S
C864 C867 1.526 . S
C865 H849 0.959 . S
C865 H850 0.959 . S
C865 H851 0.961 . S
C865 C864 1.502 . S
C866 H852 0.960 . S
C866 H853 0.961 . S
C866 H854 0.959 1_455 S
C866 C864 1.561 . S
C867 C864 1.526 . S
C867 C868 1.396 . S
C867 C872 1.390 . S
C868 C862 1.465 . S
C868 C867 1.396 . S
C868 C869 1.399 . S
C869 H855 0.929 . S
C869 C868 1.399 . S
C869 C870 1.385 . S
C870 H856 0.931 . S
C870 C869 1.385 . S
C870 C871 1.389 . S
C871 C870 1.389 . S
C871 C872 1.387 . S
C872 H857 0.930 . S
C872 C867 1.390 . S
C872 C871 1.387 . S
H873 C885 0.930 . S
H874 C887 0.930 . S
H875 C888 0.930 . S
H876 C892 0.959 . S
H877 C892 0.959 . S
H878 C892 0.961 . S
H879 C893 0.960 . S
H880 C893 0.961 . S
H881 C893 0.959 . S
H882 C896 0.929 . S
H883 C897 0.931 . S
H884 C899 0.930 . S
C885 H873 0.930 . S
C885 C886 1.399 . S
C885 C890 1.399 . S
C886 C885 1.399 . S
C886 C887 1.376 . S
C887 H874 0.930 . S
C887 C886 1.376 . S
C887 C888 1.388 . S
C888 H875 0.930 . S
C888 C887 1.388 . S
C888 C889 1.390 . S
C889 C888 1.390 . S
C889 C890 1.394 . S
C889 C895 1.465 . S
C890 C885 1.399 . S
C890 C889 1.394 . S
C890 C891 1.516 . S
C891 C890 1.516 . S
C891 C892 1.502 . S
C891 C893 1.561 . S
C891 C894 1.526 . S
C892 H876 0.959 . S
C892 H877 0.959 . S
C892 H878 0.961 . S
C892 C891 1.502 . S
C893 H879 0.960 . S
C893 H880 0.961 . S
C893 H881 0.959 . S
C893 C891 1.561 . S
C894 C891 1.526 . S
C894 C895 1.396 . S
C894 C899 1.390 . S
C895 C889 1.465 . S
C895 C894 1.396 . S
C895 C896 1.399 . S
C896 H882 0.929 . S
C896 C895 1.399 . S
C896 C897 1.385 . S
C897 H883 0.931 . S
C897 C896 1.385 . S
C897 C898 1.389 . S
C898 C897 1.389 . S
C898 C899 1.387 . S
C899 H884 0.930 . S
C899 C894 1.390 . S
C899 C898 1.387 . S
H900 C912 0.934 1_565 S
H901 C914 0.930 . S
H902 C915 0.930 . S
H903 C919 0.959 . S
H904 C919 0.959 . S
H905 C919 0.961 . S
H906 C920 0.960 . S
H907 C920 0.961 . S
H908 C920 0.959 . S
H909 C923 0.929 . S
H910 C924 0.931 . S
H911 C926 0.901 1_565 S
C912 H900 0.934 1_545 S
C912 C913 1.396 . S
C912 C917 1.398 . S
C913 C912 1.396 . S
C913 C914 1.376 . S
C914 H901 0.930 . S
C914 C913 1.376 . S
C914 C915 1.388 . S
C915 H902 0.930 . S
C915 C914 1.388 . S
C915 C916 1.390 . S
C916 C915 1.390 . S
C916 C917 1.394 . S
C916 C922 1.465 . S
C917 C912 1.398 . S
C917 C916 1.394 . S
C917 C918 1.516 1_545 S
C918 C917 1.516 1_565 S
C918 C919 1.502 . S
C918 C920 1.561 . S
C918 C921 1.526 1_565 S
C919 H903 0.959 . S
C919 H904 0.959 . S
C919 H905 0.961 . S
C919 C918 1.502 . S
C920 H906 0.960 . S
C920 H907 0.961 . S
C920 H908 0.959 . S
C920 C918 1.561 . S
C921 C918 1.526 1_545 S
C921 C922 1.396 . S
C921 C926 1.395 . S
C922 C916 1.465 . S
C922 C921 1.396 . S
C922 C923 1.399 . S
C923 H909 0.929 . S
C923 C922 1.399 . S
C923 C924 1.385 . S
C924 H910 0.931 . S
C924 C923 1.385 . S
C924 C925 1.389 . S
C925 C924 1.389 . S
C925 C926 1.411 . S
C926 H911 0.901 1_545 S
C926 C921 1.395 . S
C926 C925 1.411 . S
H927 C939 0.930 . S
H928 C941 0.930 . S
H929 C942 0.930 . S
H930 C946 0.959 . S
H931 C946 0.959 . S
H932 C946 0.961 . S
H933 C947 0.960 . S
H934 C947 0.961 . S
H935 C947 0.959 . S
H936 C950 0.929 . S
H937 C951 0.931 . S
H938 C953 0.930 . S
C939 H927 0.930 . S
C939 C940 1.399 . S
C939 C944 1.399 . S
C940 C939 1.399 . S
C940 C941 1.376 . S
C941 H928 0.930 . S
C941 C940 1.376 . S
C941 C942 1.388 . S
C942 H929 0.930 . S
C942 C941 1.388 . S
C942 C943 1.390 . S
C943 C942 1.390 . S
C943 C944 1.394 . S
C943 C949 1.465 . S
C944 C939 1.399 . S
C944 C943 1.394 . S
C944 C945 1.516 . S
C945 C944 1.516 . S
C945 C946 1.502 . S
C945 C947 1.561 . S
C945 C948 1.526 . S
C946 H930 0.959 . S
C946 H931 0.959 . S
C946 H932 0.961 . S
C946 C945 1.502 . S
C947 H933 0.960 . S
C947 H934 0.961 . S
C947 H935 0.959 . S
C947 C945 1.561 . S
C948 C945 1.526 . S
C948 C949 1.396 . S
C948 C953 1.390 . S
C949 C943 1.465 . S
C949 C948 1.396 . S
C949 C950 1.399 . S
C950 H936 0.929 . S
C950 C949 1.399 . S
C950 C951 1.385 . S
C951 H937 0.931 . S
C951 C950 1.385 . S
C951 C952 1.389 . S
C952 C951 1.389 . S
C952 C953 1.387 . S
C953 H938 0.930 . S
C953 C948 1.390 . S
C953 C952 1.387 . S
H954 C966 0.930 . S
H955 C968 0.930 . S
H956 C969 0.930 . S
H957 C973 0.959 . S
H958 C973 0.959 . S
H959 C973 0.961 . S
H960 C974 0.960 . S
H961 C974 0.961 . S
H962 C974 0.959 . S
H963 C977 0.929 . S
H964 C978 0.931 . S
H965 C980 0.930 . S
C966 H954 0.930 . S
C966 C967 1.399 . S
C966 C971 1.399 . S
C967 C966 1.399 . S
C967 C968 1.376 . S
C968 H955 0.930 . S
C968 C967 1.376 . S
C968 C969 1.388 . S
C969 H956 0.930 . S
C969 C968 1.388 . S
C969 C970 1.390 . S
C970 C969 1.390 . S
C970 C971 1.394 . S
C970 C976 1.465 . S
C971 C966 1.399 . S
C971 C970 1.394 . S
C971 C972 1.516 . S
C972 C971 1.516 . S
C972 C973 1.502 . S
C972 C974 1.561 . S
C972 C975 1.526 . S
C973 H957 0.959 . S
C973 H958 0.959 . S
C973 H959 0.961 . S
C973 C972 1.502 . S
C974 H960 0.960 . S
C974 H961 0.961 . S
C974 H962 0.959 . S
C974 C972 1.561 . S
C975 C972 1.526 . S
C975 C976 1.396 . S
C975 C980 1.390 . S
C976 C970 1.465 . S
C976 C975 1.396 . S
C976 C977 1.399 . S
C977 H963 0.929 . S
C977 C976 1.399 . S
C977 C978 1.385 . S
C978 H964 0.931 . S
C978 C977 1.385 . S
C978 C979 1.389 . S
C979 C978 1.389 . S
C979 C980 1.387 . S
C980 H965 0.930 . S
C980 C975 1.390 . S
C980 C979 1.387 . S
H981 C993 0.930 . S
H982 C995 0.930 . S
H983 C996 0.930 . S
H984 C1000 0.959 . S
H985 C1000 0.959 . S
H986 C1000 0.961 . S
H987 C1001 0.960 . S
H988 C1001 0.961 . S
H989 C1001 0.959 . S
H990 C1004 0.929 . S
H991 C1005 0.931 . S
H992 C1007 0.930 . S
C993 H981 0.930 . S
C993 C994 1.399 . S
C993 C998 1.399 . S
C994 C993 1.399 . S
C994 C995 1.376 . S
C995 H982 0.930 . S
C995 C994 1.376 . S
C995 C996 1.388 . S
C996 H983 0.930 . S
C996 C995 1.388 . S
C996 C997 1.390 . S
C997 C996 1.390 . S
C997 C998 1.394 . S
C997 C1003 1.465 . S
C998 C993 1.399 . S
C998 C997 1.394 . S
C998 C999 1.516 . S
C999 C998 1.516 . S
C999 C1000 1.502 . S
C999 C1001 1.561 . S
C999 C1002 1.526 . S
C1000 H984 0.959 . S
C1000 H985 0.959 . S
C1000 H986 0.961 . S
C1000 C999 1.502 . S
C1001 H987 0.960 . S
C1001 H988 0.961 . S
C1001 H989 0.959 . S
C1001 C999 1.561 . S
C1002 C999 1.526 . S
C1002 C1003 1.396 . S
C1002 C1007 1.390 . S
C1003 C997 1.465 . S
C1003 C1002 1.396 . S
C1003 C1004 1.399 . S
C1004 H990 0.929 . S
C1004 C1003 1.399 . S
C1004 C1005 1.385 . S
C1005 H991 0.931 . S
C1005 C1004 1.385 . S
C1005 C1006 1.389 . S
C1006 C1005 1.389 . S
C1006 C1007 1.387 . S
C1007 H992 0.930 . S
C1007 C1002 1.390 . S
C1007 C1006 1.387 . S
H1008 C1020 0.930 . S
H1009 C1022 0.930 . S
H1010 C1023 0.930 . S
H1011 C1027 0.959 . S
H1012 C1027 0.959 . S
H1013 C1027 0.961 . S
H1014 C1028 0.960 . S
H1015 C1028 0.961 . S
H1016 C1028 0.959 . S
H1017 C1031 0.929 . S
H1018 C1032 0.931 1_556 S
H1019 C1034 0.930 . S
C1020 H1008 0.930 . S
C1020 C1021 1.399 . S
C1020 C1025 1.399 . S
C1021 C1020 1.399 . S
C1021 C1022 1.376 . S
C1022 H1009 0.930 . S
C1022 C1021 1.376 . S
C1022 C1023 1.388 . S
C1023 H1010 0.930 . S
C1023 C1022 1.388 . S
C1023 C1024 1.390 . S
C1024 C1023 1.390 . S
C1024 C1025 1.394 . S
C1024 C1030 1.465 . S
C1025 C1020 1.399 . S
C1025 C1024 1.394 . S
C1025 C1026 1.516 . S
C1026 C1025 1.516 . S
C1026 C1027 1.502 . S
C1026 C1028 1.561 . S
C1026 C1029 1.526 . S
C1027 H1011 0.959 . S
C1027 H1012 0.959 . S
C1027 H1013 0.961 . S
C1027 C1026 1.502 . S
C1028 H1014 0.960 . S
C1028 H1015 0.961 . S
C1028 H1016 0.959 . S
C1028 C1026 1.561 . S
C1029 C1026 1.526 . S
C1029 C1030 1.396 . S
C1029 C1034 1.390 . S
C1030 C1024 1.465 . S
C1030 C1029 1.396 . S
C1030 C1031 1.399 . S
C1031 H1017 0.929 . S
C1031 C1030 1.399 . S
C1031 C1032 1.385 . S
C1032 H1018 0.931 1_554 S
C1032 C1031 1.385 . S
C1032 C1033 1.389 . S
C1033 C1032 1.389 . S
C1033 C1034 1.387 . S
C1034 H1019 0.930 . S
C1034 C1029 1.390 . S
C1034 C1033 1.387 . S
H1035 C1047 0.930 . S
H1036 C1049 0.930 1_556 S
H1037 C1050 0.930 . S
H1038 C1054 0.959 . S
H1039 C1054 0.959 . S
H1040 C1054 0.961 . S
H1041 C1055 0.960 . S
H1042 C1055 0.961 . S
H1043 C1055 0.959 . S
H1044 C1058 0.929 . S
H1045 C1059 0.931 . S
H1046 C1061 0.930 . S
C1047 H1035 0.930 . S
C1047 C1048 1.399 . S
C1047 C1052 1.399 . S
C1048 C1047 1.399 . S
C1048 C1049 1.376 . S
C1049 H1036 0.930 1_554 S
C1049 C1048 1.376 . S
C1049 C1050 1.388 . S
C1050 H1037 0.930 . S
C1050 C1049 1.388 . S
C1050 C1051 1.390 . S
C1051 C1050 1.390 . S
C1051 C1052 1.394 . S
C1051 C1057 1.465 . S
C1052 C1047 1.399 . S
C1052 C1051 1.394 . S
C1052 C1053 1.516 . S
C1053 C1052 1.516 . S
C1053 C1054 1.502 . S
C1053 C1055 1.561 . S
C1053 C1056 1.526 . S
C1054 H1038 0.959 . S
C1054 H1039 0.959 . S
C1054 H1040 0.961 . S
C1054 C1053 1.502 . S
C1055 H1041 0.960 . S
C1055 H1042 0.961 . S
C1055 H1043 0.959 . S
C1055 C1053 1.561 . S
C1056 C1053 1.526 . S
C1056 C1057 1.396 . S
C1056 C1061 1.390 . S
C1057 C1051 1.465 . S
C1057 C1056 1.396 . S
C1057 C1058 1.399 . S
C1058 H1044 0.929 . S
C1058 C1057 1.399 . S
C1058 C1059 1.385 . S
C1059 H1045 0.931 . S
C1059 C1058 1.385 . S
C1059 C1060 1.389 . S
C1060 C1059 1.389 . S
C1060 C1061 1.387 . S
C1061 H1046 0.930 . S
C1061 C1056 1.390 . S
C1061 C1060 1.387 . S
H1062 C1074 0.930 . S
H1063 C1076 0.930 . S
H1064 C1077 0.930 . S
H1065 C1081 0.959 . S
H1066 C1081 0.959 . S
H1067 C1081 0.961 . S
H1068 C1082 0.960 . S
H1069 C1082 0.961 . S
H1070 C1082 0.959 . S
H1071 C1085 0.929 . S
H1072 C1086 0.931 . S
H1073 C1088 0.930 . S
C1074 H1062 0.930 . S
C1074 C1075 1.399 . S
C1074 C1079 1.399 . S
C1075 C1074 1.399 . S
C1075 C1076 1.376 . S
C1076 H1063 0.930 . S
C1076 C1075 1.376 . S
C1076 C1077 1.388 . S
C1077 H1064 0.930 . S
C1077 C1076 1.388 . S
C1077 C1078 1.390 . S
C1078 C1077 1.390 . S
C1078 C1079 1.394 . S
C1078 C1084 1.465 . S
C1079 C1074 1.399 . S
C1079 C1078 1.394 . S
C1079 C1080 1.516 . S
C1080 C1079 1.516 . S
C1080 C1081 1.502 . S
C1080 C1082 1.561 . S
C1080 C1083 1.526 . S
C1081 H1065 0.959 . S
C1081 H1066 0.959 . S
C1081 H1067 0.961 . S
C1081 C1080 1.502 . S
C1082 H1068 0.960 . S
C1082 H1069 0.961 . S
C1082 H1070 0.959 . S
C1082 C1080 1.561 . S
C1083 C1080 1.526 . S
C1083 C1084 1.396 . S
C1083 C1088 1.390 . S
C1084 C1078 1.465 . S
C1084 C1083 1.396 . S
C1084 C1085 1.399 . S
C1085 H1071 0.929 . S
C1085 C1084 1.399 . S
C1085 C1086 1.385 . S
C1086 H1072 0.931 . S
C1086 C1085 1.385 . S
C1086 C1087 1.389 . S
C1087 C1086 1.389 . S
C1087 C1088 1.387 . S
C1088 H1073 0.930 . S
C1088 C1083 1.390 . S
C1088 C1087 1.387 . S
C373 C6 1.565 . S
C385 C286 1.489 . S
C400 C50 2.666 1_556 S
C412 C330 2.713 . S
C427 C86 1.778 . S
C439 C250 1.804 . S
C454 C170 3.093 . S
C466 C90 3.044 . S
C481 C210 2.866 . S
C493 C10 2.889 1_655 S
C508 C46 2.573 . S
C520 C130 2.563 . S
C535 C290 1.991 . S
C547 C206 2.024 . S
C562 C326 1.568 . S
C574 C126 1.665 . S
C589 C166 1.697 . S
C601 C246 1.817 1_545 S
C616 C95 1.909 . S
C628 C19 1.957 . S
C643 C55 1.335 . S
C655 C15 1.387 . S
C670 C59 3.364 . S
C682 C99 3.327 . S
C697 C135 1.886 . S
C709 C219 1.893 . S
C724 C139 1.955 . S
C736 C175 1.960 . S
C751 C179 1.657 . S
C763 C215 1.694 . S
C778 C335 1.941 . S
C790 C259 2.017 . S
C805 C295 0.814 . S
C817 C255 0.693 . S
C832 C339 2.178 . S
C844 C299 2.258 . S
C859 C18 1.026 . S
C871 C9 0.989 . S
C886 C49 1.044 . S
C898 C58 0.944 . S
C913 C98 0.939 . S
C925 C89 1.043 . S
C940 C138 1.045 . S
C952 C129 1.022 . S
C967 C178 1.032 . S
C979 C169 1.008 . S
C994 C218 0.942 . S
C1006 C209 1.047 1_556 S
C1021 C258 1.017 . S
C1033 C249 1.058 1_554 S
C1048 C298 1.026 1_554 S
C1060 C289 0.998 . S
C1075 C338 1.043 . S
C1087 C329 0.953 1_554 S
