# Generated by pormake.
# Topology wjd, (6)-cn, num edge types: 1
# Building blocks:
#     Node 0, Type 0, BuildingBlock: VOLQOD_clean_sbu_1, # of connection points: 6
#     Node 1, Type 0, BuildingBlock: VOLQOD_clean_sbu_1, # of connection points: 6
#     Node 2, Type 0, BuildingBlock: VOLQOD_clean_sbu_1, # of connection points: 6
#     Node 3, Type 0, BuildingBlock: VOLQOD_clean_sbu_1, # of connection points: 6
#     Node 4, Type 0, BuildingBlock: VOLQOD_clean_sbu_1, # of connection points: 6
#     Node 5, Type 0, BuildingBlock: VOLQOD_clean_sbu_1, # of connection points: 6
#     Node 6, Type 0, BuildingBlock: VOLQOD_clean_sbu_1, # of connection points: 6
#     Node 7, Type 0, BuildingBlock: VOLQOD_clean_sbu_1, # of connection points: 6
#     Node 8, Type 0, BuildingBlock: VOLQOD_clean_sbu_1, # of connection points: 6
#     Node 9, Type 0, BuildingBlock: VOLQOD_clean_sbu_1, # of connection points: 6
#     Node 10, Type 0, BuildingBlock: VOLQOD_clean_sbu_1, # of connection points: 6
#     Node 11, Type 0, BuildingBlock: VOLQOD_clean_sbu_1, # of connection points: 6
#     Edge 12, Type (0, 0), BuildingBlock: ZUJKAS_clean_linker_0, # of connection points: 2
#     Edge 13, Type (0, 0), BuildingBlock: ZUJKAS_clean_linker_0, # of connection points: 2
#     Edge 14, Type (0, 0), BuildingBlock: ZUJKAS_clean_linker_0, # of connection points: 2
#     Edge 15, Type (0, 0), BuildingBlock: ZUJKAS_clean_linker_0, # of connection points: 2
#     Edge 16, Type (0, 0), BuildingBlock: ZUJKAS_clean_linker_0, # of connection points: 2
#     Edge 17, Type (0, 0), BuildingBlock: ZUJKAS_clean_linker_0, # of connection points: 2
#     Edge 18, Type (0, 0), BuildingBlock: ZUJKAS_clean_linker_0, # of connection points: 2
#     Edge 19, Type (0, 0), BuildingBlock: ZUJKAS_clean_linker_0, # of connection points: 2
#     Edge 20, Type (0, 0), BuildingBlock: ZUJKAS_clean_linker_0, # of connection points: 2
#     Edge 21, Type (0, 0), BuildingBlock: ZUJKAS_clean_linker_0, # of connection points: 2
#     Edge 22, Type (0, 0), BuildingBlock: ZUJKAS_clean_linker_0, # of connection points: 2
#     Edge 23, Type (0, 0), BuildingBlock: ZUJKAS_clean_linker_0, # of connection points: 2
#     Edge 24, Type (0, 0), BuildingBlock: ZUJKAS_clean_linker_0, # of connection points: 2
#     Edge 25, Type (0, 0), BuildingBlock: ZUJKAS_clean_linker_0, # of connection points: 2
#     Edge 26, Type (0, 0), BuildingBlock: ZUJKAS_clean_linker_0, # of connection points: 2
#     Edge 27, Type (0, 0), BuildingBlock: ZUJKAS_clean_linker_0, # of connection points: 2
#     Edge 28, Type (0, 0), BuildingBlock: ZUJKAS_clean_linker_0, # of connection points: 2
#     Edge 29, Type (0, 0), BuildingBlock: ZUJKAS_clean_linker_0, # of connection points: 2
#     Edge 30, Type (0, 0), BuildingBlock: ZUJKAS_clean_linker_0, # of connection points: 2
#     Edge 31, Type (0, 0), BuildingBlock: ZUJKAS_clean_linker_0, # of connection points: 2
#     Edge 32, Type (0, 0), BuildingBlock: ZUJKAS_clean_linker_0, # of connection points: 2
#     Edge 33, Type (0, 0), BuildingBlock: ZUJKAS_clean_linker_0, # of connection points: 2
#     Edge 34, Type (0, 0), BuildingBlock: ZUJKAS_clean_linker_0, # of connection points: 2
#     Edge 35, Type (0, 0), BuildingBlock: ZUJKAS_clean_linker_0, # of connection points: 2
#     Edge 36, Type (0, 0), BuildingBlock: ZUJKAS_clean_linker_0, # of connection points: 2
#     Edge 37, Type (0, 0), BuildingBlock: ZUJKAS_clean_linker_0, # of connection points: 2
#     Edge 38, Type (0, 0), BuildingBlock: ZUJKAS_clean_linker_0, # of connection points: 2
#     Edge 39, Type (0, 0), BuildingBlock: ZUJKAS_clean_linker_0, # of connection points: 2
#     Edge 40, Type (0, 0), BuildingBlock: ZUJKAS_clean_linker_0, # of connection points: 2
#     Edge 41, Type (0, 0), BuildingBlock: ZUJKAS_clean_linker_0, # of connection points: 2
#     Edge 42, Type (0, 0), BuildingBlock: ZUJKAS_clean_linker_0, # of connection points: 2
#     Edge 43, Type (0, 0), BuildingBlock: ZUJKAS_clean_linker_0, # of connection points: 2
#     Edge 44, Type (0, 0), BuildingBlock: ZUJKAS_clean_linker_0, # of connection points: 2
#     Edge 45, Type (0, 0), BuildingBlock: ZUJKAS_clean_linker_0, # of connection points: 2
#     Edge 46, Type (0, 0), BuildingBlock: ZUJKAS_clean_linker_0, # of connection points: 2
#     Edge 47, Type (0, 0), BuildingBlock: ZUJKAS_clean_linker_0, # of connection points: 2
# Relax obj value: 0.307
# Max RMSD: 0.232
# Mean RMSD: 0.231
data_MOF--net-wjd--node1-VOLQOD_clean_sbu_1--edge1-ZUJKAS_clean_linker_0
_symmetry_space_group_name_H-M    P1
_symmetry_Int_Tables_number       1
_symmetry_cell_setting            triclinic
loop_
_symmetry_equiv_pos_as_xyz
'x, y, z'
_cell_length_a     39.362734
_cell_length_b     39.425043
_cell_length_c     83.28427
_cell_angle_alpha  90.000477
_cell_angle_beta   90.03791
_cell_angle_gamma 120.14276
loop_
_atom_site_label
_atom_site_type_symbol
_atom_site_fract_x
_atom_site_fract_y
_atom_site_fract_z
_atom_type_partial_charge
O0 O 0.37081 0.1655 0.09884 0.0
Zn1 Zn 0.32485 0.11108 0.10006 0.0
O2 O 0.33125 0.08161 0.11739 0.0
Zn3 Zn 0.3274 0.03377 0.10851 0.0
Zn4 Zn 0.38149 0.11384 0.12766 0.0
Zn5 Zn 0.29151 0.06963 0.13364 0.0
O6 O 0.27892 0.98588 0.11726 0.0
O7 O 0.25259 0.01259 0.13283 0.0
O8 O 0.31698 0.08498 0.07857 0.0
O9 O 0.32023 0.0318 0.08445 0.0
O10 O 0.37775 0.03254 0.11257 0.0
O11 O 0.41594 0.09191 0.12309 0.0
O12 O 0.37766 0.11304 0.15167 0.0
O13 O 0.28058 0.12077 0.10466 0.0
O14 O 0.31356 0.08118 0.15608 0.0
O15 O 0.26396 0.10023 0.12977 0.0
C16 C 0.39944 0.18558 0.10827 0.0
C17 C 0.2515 0.98274 0.12642 0.0
C18 C 0.41081 0.05927 0.11797 0.0
C19 C 0.31625 0.05364 0.07425 0.0
C20 C 0.3487 0.09869 0.16129 0.0
C21 C 0.26135 0.11772 0.11738 0.0
O22 O 0.4064 0.16984 0.12024 0.0
O23 O 0.79934 0.59757 0.38027 0.0
Zn24 Zn 0.79486 0.64032 0.36949 0.0
O25 O 0.76884 0.66014 0.38325 0.0
Zn26 Zn 0.72209 0.65313 0.37196 0.0
Zn27 Zn 0.75461 0.63132 0.40335 0.0
Zn28 Zn 0.80445 0.71505 0.38838 0.0
O29 O 0.72268 0.70441 0.37038 0.0
O30 O 0.78254 0.74696 0.37947 0.0
O31 O 0.7695 0.62306 0.34779 0.0
O32 O 0.72086 0.63594 0.34904 0.0
O33 O 0.67288 0.61166 0.38299 0.0
O34 O 0.69654 0.59669 0.40443 0.0
O35 O 0.7709 0.66675 0.42253 0.0
O36 O 0.8503 0.68197 0.36552 0.0
O37 O 0.80918 0.72575 0.41222 0.0
O38 O 0.8585 0.73373 0.37931 0.0
C39 C 0.79466 0.58573 0.39474 0.0
C40 C 0.74982 0.73936 0.37334 0.0
C41 C 0.66776 0.59198 0.39582 0.0
C42 C 0.74101 0.62443 0.34122 0.0
C43 C 0.79317 0.70355 0.42428 0.0
C44 C 0.87194 0.71708 0.37029 0.0
O45 O 0.77943 0.59764 0.40519 0.0
O46 O 0.83324 0.20989 0.10845 0.0
Zn47 Zn 0.88781 0.21952 0.10935 0.0
O48 O 0.91758 0.25662 0.12621 0.0
Zn49 Zn 0.9638 0.30112 0.11648 0.0
Zn50 Zn 0.88463 0.27324 0.13688 0.0
Zn51 Zn 0.93247 0.23072 0.14222 0.0
O52 O 0.0135 0.30338 0.12452 0.0
O53 O 0.98986 0.25067 0.14025 0.0
O54 O 0.91184 0.23668 0.08755 0.0
O55 O 0.96429 0.29464 0.09242 0.0
O56 O 0.96283 0.35157 0.11991 0.0
O57 O 0.90448 0.32917 0.13161 0.0
O58 O 0.88765 0.27127 0.16096 0.0
O59 O 0.87985 0.16656 0.1142 0.0
O60 O 0.9223 0.24175 0.16477 0.0
O61 O 0.90298 0.17207 0.13894 0.0
C62 C 0.81262 0.21769 0.11783 0.0
C63 C 0.01855 0.27987 0.13339 0.0
C64 C 0.93585 0.35702 0.1256 0.0
C65 C 0.94216 0.26763 0.08266 0.0
C66 C 0.90398 0.25816 0.17029 0.0
C67 C 0.8847 0.15123 0.12679 0.0
O68 O 0.8279 0.24039 0.12986 0.0
O69 O 0.38594 0.193 0.37045 0.0
Zn70 Zn 0.34531 0.14525 0.35905 0.0
O71 O 0.32546 0.09893 0.3724 0.0
Zn72 Zn 0.33669 0.06102 0.36211 0.0
Zn73 Zn 0.35079 0.11429 0.39315 0.0
Zn74 Zn 0.26932 0.0764 0.37547 0.0
O75 O 0.28682 0.00857 0.35937 0.0
O76 O 0.24159 0.0257 0.36365 0.0
O77 O 0.36509 0.13835 0.33791 0.0
O78 O 0.3576 0.07881 0.33963 0.0
O79 O 0.37789 0.05581 0.37465 0.0
O80 O 0.38853 0.09491 0.3956 0.0
O81 O 0.31191 0.09075 0.41097 0.0
O82 O 0.30327 0.15782 0.35437 0.0
O83 O 0.25387 0.06389 0.39893 0.0
O84 O 0.2505 0.1121 0.36704 0.0
C85 C 0.39411 0.20028 0.38529 0.0
C86 C 0.2513 0.00099 0.35897 0.0
C87 C 0.39588 0.07172 0.38769 0.0
C88 C 0.36748 0.1101 0.33173 0.0
C89 C 0.27459 0.07154 0.41162 0.0
C90 C 0.26758 0.14313 0.35854 0.0
O91 O 0.38065 0.17297 0.39571 0.0
O92 O 0.77748 0.62041 0.10622 0.0
Zn93 Zn 0.77083 0.66717 0.10788 0.0
O94 O 0.73665 0.66206 0.1257 0.0
Zn95 Zn 0.6927 0.66688 0.11729 0.0
Zn96 Zn 0.71838 0.61189 0.13614 0.0
Zn97 Zn 0.76623 0.70219 0.14161 0.0
O98 O 0.69384 0.71506 0.12654 0.0
O99 O 0.7483 0.74112 0.14135 0.0
O100 O 0.75192 0.67555 0.08667 0.0
O101 O 0.69704 0.67488 0.09325 0.0
O102 O 0.64104 0.61654 0.12092 0.0
O103 O 0.66139 0.57811 0.13172 0.0
O104 O 0.72423 0.61636 0.16021 0.0
O105 O 0.82545 0.7107 0.11187 0.0
O106 O 0.75755 0.68059 0.16407 0.0
O107 O 0.82431 0.72999 0.1368 0.0
C108 C 0.76891 0.5917 0.11555 0.0
C109 C 0.71911 0.74242 0.13548 0.0
C110 C 0.63415 0.58336 0.12627 0.0
C111 C 0.72186 0.67777 0.08275 0.0
C112 C 0.74033 0.64579 0.16958 0.0
C113 C 0.84307 0.73129 0.12414 0.0
O114 O 0.74761 0.58559 0.12794 0.0
O115 O 0.8009 0.18432 0.37758 0.0
Zn116 Zn 0.85155 0.19485 0.36792 0.0
O117 O 0.89503 0.22182 0.38276 0.0
Zn118 Zn 0.93313 0.27225 0.37304 0.0
Zn119 Zn 0.87498 0.22957 0.40294 0.0
Zn120 Zn 0.91875 0.18962 0.38713 0.0
O121 O 0.9867 0.27736 0.37176 0.0
O122 O 0.97469 0.21866 0.3801 0.0
O123 O 0.86057 0.22308 0.34706 0.0
O124 O 0.91862 0.27678 0.35009 0.0
O125 O 0.93569 0.31699 0.38585 0.0
O126 O 0.89521 0.28662 0.40627 0.0
O127 O 0.89234 0.21052 0.42182 0.0
O128 O 0.84366 0.14245 0.36243 0.0
O129 O 0.92028 0.17941 0.41084 0.0
O130 O 0.89017 0.13761 0.37549 0.0
C131 C 0.79057 0.18652 0.39183 0.0
C132 C -0.00198 0.25287 0.37471 0.0
C133 C 0.91888 0.31787 0.39881 0.0
C134 C 0.88873 0.2548 0.34149 0.0
C135 C 0.90944 0.19056 0.42319 0.0
C136 C 0.8606 0.12332 0.36609 0.0
O137 O 0.81575 0.20186 0.40307 0.0
O138 O 0.18513 0.37585 0.61925 0.0
Zn139 Zn 0.13568 0.33711 0.63022 0.0
O140 O 0.0906 0.31785 0.61608 0.0
Zn141 Zn 0.05277 0.33086 0.6252 0.0
Zn142 Zn 0.10854 0.34214 0.59525 0.0
Zn143 Zn 0.06643 0.26149 0.61356 0.0
O144 O -0.00115 0.28251 0.62724 0.0
O145 O 0.01429 0.2357 0.62442 0.0
O146 O 0.12808 0.35918 0.65065 0.0
O147 O 0.06841 0.35115 0.6479 0.0
O148 O 0.05126 0.3732 0.61202 0.0
O149 O 0.09102 0.38098 0.59163 0.0
O150 O 0.086 0.30259 0.57758 0.0
O151 O 0.14555 0.29392 0.63629 0.0
O152 O 0.05637 0.24524 0.59012 0.0
O153 O 0.0996 0.24141 0.62355 0.0
C154 C 0.19395 0.38389 0.6045 0.0
C155 C 0.98993 0.24669 0.62816 0.0
C156 C 0.06844 0.39014 0.59899 0.0
C157 C 0.09928 0.36159 0.65622 0.0
C158 C 0.06598 0.26532 0.57721 0.0
C159 C 0.12983 0.2579 0.63256 0.0
O160 O 0.16761 0.37101 0.59364 0.0
O161 O 0.20181 0.83162 0.88363 0.0
Zn162 Zn 0.2088 0.88512 0.88203 0.0
O163 O 0.2432 0.91417 0.86428 0.0
Zn164 Zn 0.28754 0.96241 0.8729 0.0
Zn165 Zn 0.26069 0.88186 0.85368 0.0
Zn166 Zn 0.2141 0.92564 0.84847 0.0
O167 O 0.28666 0.00994 0.86417 0.0
O168 O 0.23217 0.98266 0.84935 0.0
O169 O 0.2277 0.91189 0.90331 0.0
O170 O 0.2836 0.96541 0.897 0.0
O171 O 0.33886 0.96349 0.86888 0.0
O172 O 0.31777 0.90477 0.85781 0.0
O173 O 0.25463 0.88093 0.82966 0.0
O174 O 0.15436 0.87427 0.878 0.0
O175 O 0.22322 0.91371 0.82588 0.0
O176 O 0.15584 0.8948 0.85306 0.0
C177 C 0.21003 0.81122 0.87432 0.0
C178 C 0.2615 0.01273 0.85546 0.0
C179 C 0.34532 0.93716 0.86325 0.0
C180 C 0.25831 0.94361 0.9074 0.0
C181 C 0.2396 0.89539 0.82032 0.0
C182 C 0.1369 0.87719 0.86568 0.0
O183 O 0.23119 0.82616 0.86187 0.0
O184 O 0.58845 0.79423 0.61689 0.0
Zn185 Zn 0.63171 0.79184 0.62838 0.0
O186 O 0.65343 0.76668 0.61524 0.0
Zn187 Zn 0.64571 0.71948 0.62607 0.0
Zn188 Zn 0.62769 0.75398 0.59456 0.0
Zn189 Zn 0.70876 0.80239 0.61174 0.0
O190 O 0.69722 0.72025 0.6284 0.0
O191 O 0.7394 0.78358 0.62409 0.0
O192 O 0.61427 0.76646 0.65003 0.0
O193 O 0.62678 0.71756 0.64876 0.0
O194 O 0.60483 0.67102 0.61441 0.0
O195 O 0.59175 0.69619 0.59296 0.0
O196 O 0.66614 0.76963 0.57648 0.0
O197 O 0.6716 0.84836 0.63202 0.0
O198 O 0.72398 0.80387 0.58845 0.0
O199 O 0.72424 0.85705 0.61875 0.0
C200 C 0.58055 0.79277 0.60199 0.0
C201 C 0.73193 0.74979 0.6288 0.0
C202 C 0.58596 0.66685 0.6014 0.0
C203 C 0.61512 0.73766 0.65653 0.0
C204 C 0.70346 0.78925 0.57582 0.0
C205 C 0.70647 0.87055 0.62703 0.0
O206 O 0.59578 0.78044 0.59171 0.0
O207 O 0.14746 0.36407 0.88965 0.0
Zn208 Zn 0.09272 0.31888 0.88823 0.0
O209 O 0.06359 0.32657 0.87113 0.0
Zn210 Zn 0.01692 0.32475 0.8804 0.0
Zn211 Zn 0.09725 0.37625 0.86061 0.0
Zn212 Zn 0.04891 0.28605 0.85504 0.0
O213 O 0.9673 0.27738 0.87204 0.0
O214 O -0.00845 0.24875 0.85645 0.0
O215 O 0.06722 0.31117 0.9098 0.0
O216 O 0.01552 0.31755 0.90443 0.0
O217 O 0.01804 0.37616 0.87663 0.0
O218 O 0.07653 0.41195 0.86499 0.0
O219 O 0.09702 0.37154 0.83656 0.0
O220 O 0.10097 0.27402 0.88326 0.0
O221 O 0.05984 0.3076 0.8326 0.0
O222 O 0.07787 0.2566 0.85848 0.0
C223 C 0.16819 0.39301 0.88049 0.0
C224 C 0.96257 0.24912 0.86304 0.0
C225 C 0.04495 0.4084 0.87073 0.0
C226 C 0.03684 0.31206 0.91439 0.0
C227 C 0.07998 0.3423 0.82714 0.0
C228 C 0.09607 0.25392 0.87063 0.0
O229 O 0.15316 0.40059 0.86844 0.0
O230 O 0.18299 0.79403 0.61075 0.0
Zn231 Zn 0.19009 0.84266 0.62106 0.0
O232 O 0.21729 0.88766 0.60695 0.0
Zn233 Zn 0.26507 0.92679 0.61802 0.0
Zn234 Zn 0.22979 0.87079 0.58697 0.0
Zn235 Zn 0.18333 0.90888 0.60172 0.0
O236 O 0.26612 0.97826 0.6198 0.0
O237 O 0.20731 0.96338 0.61032 0.0
O238 O 0.21606 0.8505 0.64253 0.0
O239 O 0.26703 0.91084 0.64095 0.0
O240 O 0.31325 0.93379 0.60638 0.0
O241 O 0.28774 0.89425 0.58527 0.0
O242 O 0.21284 0.88891 0.56766 0.0
O243 O 0.13575 0.83142 0.62533 0.0
O244 O 0.17788 0.9136 0.57782 0.0
O245 O 0.12934 0.87568 0.61126 0.0
C246 C 0.18797 0.78547 0.59655 0.0
C247 C 0.24019 0.98756 0.61665 0.0
C248 C 0.31724 0.91872 0.59348 0.0
C249 C 0.24582 0.87957 0.64889 0.0
C250 C 0.19208 0.90504 0.56579 0.0
C251 C 0.11516 0.84602 0.62056 0.0
O252 O 0.20449 0.81181 0.58583 0.0
O253 O 0.60478 0.77854 0.89034 0.0
Zn254 Zn 0.65162 0.77174 0.8895 0.0
O255 O 0.64693 0.73635 0.87227 0.0
Zn256 Zn 0.65158 0.6931 0.88152 0.0
Zn257 Zn 0.59703 0.71743 0.86142 0.0
Zn258 Zn 0.68754 0.7649 0.85642 0.0
O259 O 0.70028 0.6939 0.87293 0.0
O260 O 0.72674 0.74736 0.85757 0.0
O261 O 0.65943 0.75433 0.91114 0.0
O262 O 0.65878 0.699 0.90561 0.0
O263 O 0.6014 0.64116 0.87785 0.0
O264 O 0.56328 0.66064 0.86599 0.0
O265 O 0.60226 0.72216 0.83738 0.0
O266 O 0.69517 0.82613 0.88514 0.0
O267 O 0.66667 0.75463 0.83383 0.0
O268 O 0.71454 0.82317 0.86042 0.0
C269 C 0.57628 0.76929 0.88076 0.0
C270 C 0.72791 0.71861 0.86394 0.0
C271 C 0.5685 0.63383 0.87192 0.0
C272 C 0.66147 0.72458 0.91566 0.0
C273 C 0.63198 0.7374 0.82814 0.0
C274 C 0.7156 0.84285 0.87274 0.0
O275 O 0.57038 0.74697 0.86875 0.0
H276 H 0.07923 0.3164 0.112 0.0
H277 H 0.13383 0.30381 0.10888 0.0
H278 H 0.0988 0.23511 0.15234 0.0
H279 H 0.0446 0.24773 0.15564 0.0
H280 H 0.18337 0.27987 0.14644 0.0
H281 H 0.09411 0.18805 0.09486 0.0
H282 H 0.10864 0.23918 0.09453 0.0
H283 H 0.07458 0.20753 0.10945 0.0
C284 C 0.08402 0.29981 0.1212 0.0
C285 C 0.0572 0.28235 0.13389 0.0
C286 C 0.11507 0.29249 0.11934 0.0
C287 C 0.11964 0.26785 0.1302 0.0
C288 C 0.09552 0.25399 0.14379 0.0
H289 H 0.21798 0.12023 0.14258 0.0
H290 H 0.18716 0.16053 0.14489 0.0
C291 C 0.06448 0.26113 0.14562 0.0
C292 C 0.14503 0.25137 0.12636 0.0
H293 H 0.14828 0.18261 0.10257 0.0
C294 C 0.17619 0.25906 0.13671 0.0
C295 C 0.13526 0.22407 0.11369 0.0
C296 C 0.10121 0.21386 0.10251 0.0
C297 C 0.19744 0.23946 0.13492 0.0
C298 C 0.18649 0.21089 0.1227 0.0
C299 C 0.15638 0.2044 0.11197 0.0
C300 C 0.20471 0.18615 0.12121 0.0
C301 C 0.2312 0.24931 0.14618 0.0
C302 C 0.22313 0.18586 0.10686 0.0
C303 C 0.24024 0.16244 0.1054 0.0
C304 C 0.23916 0.13879 0.11828 0.0
C305 C 0.21951 0.1382 0.13246 0.0
C306 C 0.2023 0.16157 0.13388 0.0
H307 H 0.24316 0.27911 0.1514 0.0
H308 H 0.22068 0.22794 0.15623 0.0
H309 H 0.2553 0.24774 0.13995 0.0
H310 H 0.2248 0.20426 0.09688 0.0
H311 H 0.25513 0.16365 0.0943 0.0
H312 H 0.24885 0.93027 0.36059 0.0
H313 H 0.19075 0.86527 0.35618 0.0
H314 H 0.12494 0.92037 0.34124 0.0
H315 H 0.18223 0.98458 0.34552 0.0
H316 H 0.12559 0.84318 0.37418 0.0
H317 H 0.08295 0.82893 0.31058 0.0
H318 H 0.13238 0.8628 0.31729 0.0
H319 H 0.09514 0.87667 0.31762 0.0
C320 C 0.22227 0.92832 0.35588 0.0
C321 C 0.21975 0.9623 0.35359 0.0
C322 C 0.18922 0.89128 0.35335 0.0
C323 C 0.15371 0.88801 0.34817 0.0
C324 C 0.15222 0.92209 0.34484 0.0
H325 H 0.92957 0.78889 0.38077 0.0
H326 H -0.00048 0.82161 0.37445 0.0
C327 C 0.18488 0.95884 0.34752 0.0
C328 C 0.11631 0.8504 0.34919 0.0
H329 H 0.0279 0.80124 0.33007 0.0
C330 C 0.10458 0.833 0.36438 0.0
C331 C 0.08903 0.83666 0.33638 0.0
C332 C 0.10077 0.85206 0.31952 0.0
C333 C 0.06521 0.80554 0.36754 0.0
C334 C 0.03709 0.79579 0.35524 0.0
C335 C 0.04949 0.8096 0.33959 0.0
C336 C -0.0053 0.77547 0.35885 0.0
C337 C 0.05367 0.78898 0.38427 0.0
C338 C 0.96883 0.73937 0.35172 0.0
C339 C 0.92876 0.72063 0.35525 0.0
C340 C 0.91396 0.73797 0.36585 0.0
C341 C 0.93997 0.77468 0.37262 0.0
C342 C 0.97998 0.79325 0.36913 0.0
H343 H 0.07854 0.78894 0.39056 0.0
H344 H 0.04525 0.80751 0.39132 0.0
H345 H 0.02825 0.75859 0.38401 0.0
H346 H 0.9797 0.72553 0.3436 0.0
H347 H 0.90948 0.69243 0.34976 0.0
H348 H 0.83972 0.09825 0.1038 0.0
H349 H 0.80124 0.02717 0.10628 0.0
H350 H 0.8461 0.03465 0.15421 0.0
H351 H 0.88427 0.10619 0.15201 0.0
H352 H 0.82552 0.97473 0.11155 0.0
H353 H 0.72769 0.96798 0.16088 0.0
H354 H 0.75824 0.01228 0.14967 0.0
H355 H 0.77904 -0.0026 0.16551 0.0
C356 C 0.84163 0.08491 0.11488 0.0
C357 C 0.86496 0.10799 0.12775 0.0
C358 C 0.81945 0.04424 0.11628 0.0
C359 C 0.8201 0.02581 0.13056 0.0
C360 C 0.84437 0.0485 0.14325 0.0
H361 H 0.75267 0.79607 0.1594 0.0
H362 H 0.76841 0.86428 0.1585 0.0
C363 C 0.86652 0.08931 0.14189 0.0
C364 C 0.79641 0.98265 0.13186 0.0
H365 H 0.72583 0.90801 0.15429 0.0
C366 C 0.80336 0.9601 0.12076 0.0
C367 C 0.76741 0.96379 0.14386 0.0
C368 C 0.75731 0.98657 0.15557 0.0
C369 C 0.78316 0.91912 0.12169 0.0
C370 C 0.75489 0.90027 0.13393 0.0
C371 C 0.7473 0.9227 0.14485 0.0
C372 C 0.7365 0.85764 0.13648 0.0
C373 C 0.79341 0.89635 0.11 0.0
C374 C 0.71135 0.83098 0.1249 0.0
C375 C 0.70219 0.79183 0.12538 0.0
C376 C 0.7184 0.77922 0.13741 0.0
C377 C 0.7402 0.80515 0.14987 0.0
C378 C 0.74912 0.84408 0.14942 0.0
H379 H 0.82007 0.91575 0.10286 0.0
H380 H 0.7984 0.87459 0.11645 0.0
H381 H 0.76857 0.88009 0.10155 0.0
H382 H 0.7011 0.84105 0.1149 0.0
H383 H 0.68527 0.77247 0.11564 0.0
H384 H 0.18908 0.11714 0.36134 0.0
H385 H 0.15625 0.15505 0.35714 0.0
H386 H 0.26596 0.25508 0.34249 0.0
H387 H 0.29916 0.21741 0.34655 0.0
H388 H 0.22625 0.26874 0.36825 0.0
H389 H 0.12781 0.19691 0.31645 0.0
H390 H 0.12638 0.16225 0.33082 0.0
H391 H 0.17126 0.19347 0.32018 0.0
C392 C 0.20612 0.14696 0.35695 0.0
C393 C 0.24671 0.16429 0.35435 0.0
C394 C 0.18728 0.16848 0.35443 0.0
C395 C 0.20869 0.20764 0.34931 0.0
C396 C 0.24897 0.22475 0.34627 0.0
H397 H 0.044 0.296 0.34956 0.0
H398 H 0.10612 0.30073 0.34107 0.0
C399 C 0.2678 0.20313 0.34863 0.0
C400 C 0.18952 0.23154 0.34911 0.0
H401 H 0.10623 0.22836 0.33576 0.0
C402 C 0.20072 0.26088 0.3608 0.0
C403 C 0.15679 0.22177 0.33919 0.0
C404 C 0.14506 0.19214 0.32583 0.0
C405 C 0.17727 0.27751 0.36403 0.0
C406 C 0.14197 0.26424 0.35538 0.0
C407 C 0.13325 0.23828 0.34247 0.0
C408 C 0.10993 0.26945 0.3617 0.0
C409 C 0.18887 0.30698 0.37745 0.0
C410 C 0.09214 0.25084 0.37617 0.0
C411 C 0.05666 0.24746 0.38082 0.0
C412 C 0.03859 0.26303 0.37118 0.0
C413 C 0.05766 0.28405 0.35724 0.0
C414 C 0.09298 0.28676 0.35239 0.0
H415 H 0.22126 0.32367 0.37909 0.0
H416 H 0.17834 0.32791 0.37511 0.0
H417 H 0.17553 0.29129 0.38883 0.0
H418 H 0.10438 0.23663 0.38335 0.0
H419 H 0.04249 0.23121 0.39164 0.0
H420 H 0.19936 0.95999 0.151 0.0
H421 H 0.13208 0.90525 0.1509 0.0
H422 H 0.15319 0.8652 0.10582 0.0
H423 H 0.22092 0.92029 0.1058 0.0
H424 H 0.09376 0.8848 0.1052 0.0
H425 H 0.07155 0.7857 0.15623 0.0
H426 H 0.09764 0.83664 0.16169 0.0
H427 H 0.11943 0.81822 0.14776 0.0
C428 C 0.19009 0.93882 0.14132 0.0
C429 C 0.21518 0.9446 0.12831 0.0
C430 C 0.15171 0.90736 0.14135 0.0
C431 C 0.13778 0.88113 0.1284 0.0
C432 C 0.16361 0.88506 0.11598 0.0
H433 H 0.89231 0.73251 0.10081 0.0
H434 H 0.96381 0.76647 0.10135 0.0
C435 C 0.20227 0.91644 0.116 0.0
C436 C 0.09504 0.85468 0.12656 0.0
H437 H 0.01374 0.78438 0.14595 0.0
C438 C 0.07624 0.86226 0.11391 0.0
C439 C 0.07242 0.82583 0.1381 0.0
C440 C 0.09131 0.81582 0.15164 0.0
C441 C 0.03521 0.84297 0.11288 0.0
C442 C 0.0125 0.81472 0.12463 0.0
C443 C 0.03131 0.80626 0.13702 0.0
C444 C 0.96913 0.79409 0.12438 0.0
C445 C 0.01659 0.85436 0.09965 0.0
C446 C 0.94843 0.79791 0.1373 0.0
C447 C 0.9074 0.77828 0.13712 0.0
C448 C 0.88646 0.75447 0.12399 0.0
C449 C 0.90745 0.75095 0.11104 0.0
C450 C 0.94837 0.77036 0.1113 0.0
H451 H 0.03773 0.88316 0.09427 0.0
H452 H 0.00632 0.83196 0.08999 0.0
H453 H 0.99085 0.85585 0.10419 0.0
H454 H 0.96406 0.81612 0.14752 0.0
H455 H 0.89214 0.78146 0.14731 0.0
H456 H 0.77558 0.80608 0.39031 0.0
H457 H 0.77569 0.86546 0.38197 0.0
H458 H 0.71392 0.80786 0.33852 0.0
H459 H 0.71278 0.74746 0.34708 0.0
H460 H 0.79488 0.88408 0.33688 0.0
H461 H 0.68397 0.89273 0.37495 0.0
H462 H 0.71218 0.87497 0.38522 0.0
H463 H 0.68007 0.84669 0.36908 0.0
C464 C 0.76122 0.80578 0.37916 0.0
C465 C 0.74429 0.77247 0.36929 0.0
C466 C 0.76112 0.83955 0.37446 0.0
C467 C 0.74458 0.84072 0.35972 0.0
C468 C 0.72639 0.80712 0.35002 0.0
H469 H 0.79246 0.08096 0.34921 0.0
H470 H 0.76002 0.01148 0.34225 0.0
C471 C 0.72573 0.77283 0.35492 0.0
C472 C 0.7514 0.87886 0.35395 0.0
H473 H 0.73965 0.95435 0.36666 0.0
C474 C 0.78194 0.89926 0.34292 0.0
C475 C 0.73426 0.89827 0.36181 0.0
C476 C 0.70052 0.87698 0.37333 0.0
C477 C 0.79854 0.9398 0.34082 0.0
C478 C 0.78415 0.95995 0.35002 0.0
C479 C 0.75088 0.93878 0.35974 0.0
C480 C 0.80634 0.00295 0.3517 0.0
C481 C 0.83282 0.9611 0.32953 0.0
C482 C 0.8433 0.02107 0.35918 0.0
C483 C 0.86182 0.06068 0.36335 0.0
C484 C 0.84359 0.08274 0.3601 0.0
C485 C 0.80732 0.06481 0.35192 0.0
C486 C 0.78872 0.02515 0.34788 0.0
H487 H 0.83235 0.94128 0.31994 0.0
H488 H 0.83279 0.98662 0.3239 0.0
H489 H 0.8606 0.97205 0.33638 0.0
H490 H 0.85696 0.00411 0.3625 0.0
H491 H 0.88972 0.0736 0.36959 0.0
H492 H 0.21356 0.02969 0.601 0.0
H493 H 0.21592 0.08957 0.61019 0.0
H494 H 0.28276 0.09258 0.65178 0.0
H495 H 0.28123 0.03262 0.64239 0.0
H496 H 0.20631 0.09026 0.6569 0.0
H497 H 0.30625 0.20749 0.6152 0.0
H498 H 0.27479 0.1616 0.60534 0.0
H499 H 0.31067 0.16491 0.61961 0.0
C500 C 0.22955 0.0436 0.6119 0.0
C501 C 0.24709 0.02662 0.62103 0.0
C502 C 0.23111 0.07789 0.61708 0.0
C503 C 0.24982 0.09551 0.63156 0.0
C504 C 0.26863 0.0795 0.64047 0.0
H505 H 0.20234 0.28719 0.64627 0.0
H506 H 0.23773 0.2521 0.65144 0.0
C507 C 0.26775 0.04543 0.6351 0.0
C508 C 0.24446 0.12722 0.63806 0.0
H509 H 0.25227 0.21337 0.62609 0.0
C510 C 0.21736 0.11789 0.65058 0.0
C511 C 0.25923 0.16324 0.62989 0.0
C512 C 0.28967 0.17515 0.61685 0.0
C513 C 0.2014 0.14187 0.65394 0.0
C514 C 0.21288 0.17563 0.64448 0.0
C515 C 0.2432 0.18715 0.6332 0.0
C516 C 0.18975 0.19563 0.64412 0.0
C517 C 0.17062 0.12963 0.66685 0.0
C518 C 0.15094 0.17527 0.63843 0.0
C519 C 0.13075 0.19519 0.63528 0.0
C520 C 0.14908 0.23585 0.63778 0.0
C521 C 0.18735 0.25582 0.64422 0.0
C522 C 0.20765 0.2359 0.64722 0.0
H523 H 0.17433 0.11161 0.67619 0.0
H524 H 0.17177 0.15555 0.67266 0.0
H525 H 0.1411 0.11155 0.6614 0.0
H526 H 0.13694 0.14428 0.63565 0.0
H527 H 0.10132 0.17897 0.63037 0.0
H528 H 0.08763 0.83246 0.88972 0.0
H529 H 0.01617 0.79366 0.88907 0.0
H530 H 0.01591 0.83591 0.84133 0.0
H531 H 0.08774 0.8744 0.84168 0.0
H532 H 0.96342 0.81823 0.88566 0.0
H533 H 0.94696 0.71756 0.83596 0.0
H534 H -0.00675 0.7482 0.84597 0.0
H535 H 0.97629 0.76842 0.83068 0.0
C536 C 0.0725 0.83366 0.87906 0.0
C537 C 0.09347 0.85648 0.86571 0.0
C538 C 0.03162 0.81129 0.8787 0.0
C539 C 0.01087 0.81121 0.86502 0.0
C540 C 0.03151 0.83473 0.85183 0.0
H541 H 0.78136 0.75032 0.83989 0.0
H542 H 0.84885 0.76353 0.84037 0.0
C543 C 0.07251 0.85706 0.85213 0.0
C544 C 0.9675 0.78794 0.8649 0.0
H545 H 0.8888 0.71844 0.84382 0.0
C546 C 0.94705 0.79596 0.87667 0.0
C547 C 0.94636 0.75877 0.85321 0.0
C548 C 0.96682 0.74739 0.84083 0.0
C549 C 0.90597 0.77698 0.87661 0.0
C550 C 0.88485 0.74882 0.86457 0.0
C551 C 0.90519 0.73985 0.85308 0.0
C552 C 0.84218 0.7325 0.86261 0.0
C553 C 0.88555 0.78865 0.88892 0.0
C554 C 0.81563 0.70878 0.87453 0.0
C555 C 0.77686 0.7011 0.87429 0.0
C556 C 0.7645 0.71731 0.86217 0.0
C557 C 0.79025 0.7379 0.84949 0.0
C558 C 0.82877 0.74535 0.8497 0.0
H559 H 0.90655 0.81499 0.89587 0.0
H560 H 0.86389 0.79478 0.88302 0.0
H561 H 0.86939 0.76412 0.89748 0.0
H562 H 0.82553 0.69828 0.88449 0.0
H563 H 0.75761 0.68508 0.88419 0.0
H564 H 0.6796 0.90969 0.64557 0.0
H565 H 0.71043 0.98075 0.64943 0.0
H566 H 0.80715 -0.00148 0.61936 0.0
H567 H 0.77686 0.92797 0.61541 0.0
H568 H 0.78681 0.03327 0.66216 0.0
H569 H 0.77087 0.07201 0.6 0.0
H570 H 0.74124 0.02306 0.60802 0.0
H571 H 0.78984 0.03906 0.60046 0.0
C572 C 0.70746 0.92874 0.63978 0.0
C573 C 0.72574 0.91317 0.63012 0.0
C574 C 0.72487 0.96926 0.64197 0.0
C575 C 0.76049 -0.00528 0.63437 0.0
C576 C 0.77911 0.97926 0.625 0.0
H577 H 0.97062 0.17817 0.64274 0.0
H578 H 0.9053 0.12353 0.64804 0.0
C579 C 0.76193 0.9389 0.62288 0.0
C580 C 0.77994 0.03754 0.6367 0.0
H581 H 0.82742 0.12174 0.61491 0.0
C582 C 0.79474 0.0529 0.65195 0.0
C583 C 0.78919 0.06318 0.62349 0.0
C584 C 0.77155 0.04849 0.6071 0.0
C585 C 0.82263 0.09272 0.6539 0.0
C586 C 0.83618 0.11721 0.64021 0.0
C587 C 0.81747 0.10283 0.62539 0.0
C588 C 0.87489 0.15355 0.64008 0.0
C589 C 0.8394 0.10759 0.67037 0.0
C590 C 0.87963 0.18879 0.63385 0.0
C591 C 0.91734 0.22034 0.63074 0.0
C592 C 0.95049 0.21649 0.63348 0.0
C593 C 0.94557 0.18183 0.64038 0.0
C594 C 0.90821 0.15074 0.64365 0.0
H595 H 0.8167 0.09219 0.67976 0.0
H596 H 0.86359 0.10148 0.6727 0.0
H597 H 0.85116 0.13966 0.67146 0.0
H598 H 0.85421 0.19126 0.6308 0.0
H599 H 0.92041 0.24679 0.6254 0.0
H600 H 0.0921 0.20572 0.84608 0.0
H601 H 0.12979 0.17205 0.84342 0.0
H602 H 0.18354 0.21697 0.88955 0.0
H603 H 0.14554 0.24987 0.89252 0.0
H604 H 0.21131 0.20578 0.84313 0.0
H605 H 0.14485 0.10059 0.89366 0.0
H606 H 0.12299 0.12774 0.88565 0.0
H607 H 0.164 0.15094 0.89922 0.0
C608 C 0.11148 0.20795 0.85577 0.0
C609 C 0.1156 0.2303 0.86955 0.0
C610 C 0.13315 0.1889 0.85418 0.0
C611 C 0.15917 0.19183 0.86634 0.0
C612 C 0.16307 0.21377 0.88016 0.0
H613 H 0.29527 0.0747 0.87624 0.0
H614 H 0.28017 0.12774 0.87809 0.0
C615 C 0.1413 0.23259 0.88181 0.0
C616 C 0.18287 0.1726 0.86444 0.0
H617 H 0.19952 0.10308 0.88086 0.0
C618 C 0.20884 0.18337 0.85138 0.0
C619 C 0.17973 0.14362 0.87531 0.0
C620 C 0.15116 0.12972 0.88917 0.0
C621 C 0.23149 0.1655 0.84881 0.0
C622 C 0.22779 0.13608 0.85952 0.0
C623 C 0.20262 0.12608 0.87279 0.0
C624 C 0.24568 0.11167 0.85626 0.0
C625 C 0.25893 0.17796 0.83461 0.0
C626 C 0.23256 0.08622 0.84305 0.0
C627 C 0.24091 0.05588 0.84201 0.0
C628 C 0.26247 0.0505 0.8542 0.0
C629 C 0.27871 0.07823 0.86665 0.0
C630 C 0.27002 0.10845 0.86775 0.0
H631 H 0.26722 0.20797 0.83053 0.0
H632 H 0.28605 0.17717 0.83755 0.0
H633 H 0.24399 0.15746 0.82449 0.0
H634 H 0.21325 0.08785 0.8342 0.0
H635 H 0.22819 0.03504 0.83225 0.0
H636 H 0.06043 0.86578 0.61176 0.0
H637 H 0.99055 0.831 0.61835 0.0
H638 H 0.00517 0.74729 0.64641 0.0
H639 H 0.07528 0.78193 0.64001 0.0
H640 H 0.93702 0.7459 0.61162 0.0
H641 H 0.94568 0.78807 0.67606 0.0
H642 H 0.98525 0.817 0.66229 0.0
H643 H 0.97657 0.76989 0.66866 0.0
C644 C 0.04896 0.8402 0.61944 0.0
C645 C 0.07343 0.82664 0.62533 0.0
C646 C 0.00905 0.82032 0.62315 0.0
C647 C -0.00701 0.78673 0.63286 0.0
C648 C 0.01725 0.77335 0.63899 0.0
H649 H 0.73562 0.68208 0.63085 0.0
H650 H 0.7949 0.67763 0.63566 0.0
C651 C 0.05724 0.7932 0.63528 0.0
C652 C 0.9505 0.76559 0.63608 0.0
H653 H 0.88368 0.7589 0.66372 0.0
C654 C 0.925 0.74765 0.6231 0.0
C655 C 0.93536 0.76779 0.65115 0.0
C656 C 0.96193 0.78675 0.66541 0.0
C657 C 0.88492 0.73499 0.62438 0.0
C658 C 0.87021 0.74016 0.63911 0.0
C659 C 0.89516 0.75483 0.6525 0.0
C660 C 0.83266 0.73994 0.63961 0.0
C661 C 0.85946 0.7197 0.60957 0.0
C662 C 0.83416 0.77606 0.641 0.0
C663 C 0.80076 0.7787 0.63826 0.0
C664 C 0.76511 0.74519 0.6341 0.0
C665 C 0.76283 0.70842 0.63391 0.0
C666 C 0.79657 0.70582 0.63662 0.0
H667 H 0.87636 0.72022 0.59881 0.0
H668 H 0.83577 0.689 0.61164 0.0
H669 H 0.84542 0.73751 0.60701 0.0
H670 H 0.86178 0.80272 0.64329 0.0
H671 H 0.80331 0.80735 0.63878 0.0
H672 H 0.90048 0.22315 0.88382 0.0
H673 H 0.84502 0.15583 0.88555 0.0
H674 H 0.88264 0.1265 0.84169 0.0
H675 H 0.93758 0.19344 0.83976 0.0
H676 H 0.79842 0.08641 0.8463 0.0
H677 H 0.88195 0.07757 0.89869 0.0
H678 H 0.8675 0.11415 0.89953 0.0
H679 H 0.90299 0.11841 0.88494 0.0
C680 C 0.89608 0.20273 0.87425 0.0
C681 C 0.92377 0.21324 0.86184 0.0
C682 C 0.86456 0.16428 0.87531 0.0
C683 C 0.86044 0.13617 0.86394 0.0
C684 C 0.88555 0.14777 0.85064 0.0
H685 H 0.76087 0.89019 0.84814 0.0
H686 H 0.79247 0.96164 0.84655 0.0
C687 C 0.91701 0.186 0.84959 0.0
C688 C 0.83444 0.09388 0.86695 0.0
H689 H 0.82801 0.01905 0.88979 0.0
C690 C 0.80439 0.07163 0.85594 0.0
C691 C 0.84271 0.07483 0.87947 0.0
C692 C 0.87567 0.09726 0.8913 0.0
C693 C 0.78271 0.03057 0.85697 0.0
C694 C 0.79205 0.0115 0.86912 0.0
C695 C 0.82112 0.03386 0.88046 0.0
C696 C 0.77302 0.96833 0.87004 0.0
C697 C 0.75019 0.008 0.84502 0.0
C698 C 0.75314 0.94872 0.88404 0.0
C699 C 0.73561 0.90805 0.88509 0.0
C700 C 0.73771 0.8862 0.87215 0.0
C701 C 0.75859 0.90609 0.85829 0.0
C702 C 0.77624 0.94686 0.85728 0.0
H703 H 0.73924 0.02662 0.83975 0.0
H704 H 0.7616 -0.00219 0.83507 0.0
H705 H 0.72518 0.98191 0.85067 0.0
H706 H 0.75078 0.96488 0.89409 0.0
H707 H 0.71977 0.89374 0.89595 0.0
H708 H 0.3816 0.05906 0.31453 0.0
H709 H 0.3901 0.05837 0.28545 0.0
H710 H 0.38287 0.16359 0.28095 0.0
H711 H 0.37583 0.16531 0.30987 0.0
H712 H 0.33786 0.04869 0.2638 0.0
H713 H 0.47172 0.18981 0.25114 0.0
H714 H 0.45861 0.1703 0.27123 0.0
H715 H 0.4378 0.19776 0.26257 0.0
C716 C 0.38276 0.08256 0.30738 0.0
C717 C 0.37799 0.11221 0.31455 0.0
C718 C 0.38757 0.0821 0.29076 0.0
C719 C 0.38764 0.11121 0.28101 0.0
C720 C 0.38407 0.14144 0.28821 0.0
H721 H 0.29688 0.08579 0.18559 0.0
H722 H 0.3088 0.08783 0.21445 0.0
C723 C 0.37972 0.14218 0.3048 0.0
C724 C 0.38698 0.10782 0.26325 0.0
H725 H 0.42582 0.16097 0.22902 0.0
C726 C 0.35756 0.07303 0.2562 0.0
C727 C 0.41303 0.13926 0.25328 0.0
C728 C 0.44731 0.17617 0.25997 0.0
C729 C 0.35225 0.06952 0.23951 0.0
C730 C 0.37618 0.10216 0.22963 0.0
C731 C 0.40691 0.13623 0.23661 0.0
C732 C 0.36929 0.10184 0.21211 0.0
C733 C 0.32102 0.03083 0.23267 0.0
C734 C 0.3998 0.11076 0.2012 0.0
C735 C 0.39329 0.11043 0.1847 0.0
C736 C 0.35606 0.10099 0.17878 0.0
C737 C 0.32575 0.09274 0.18975 0.0
C738 C 0.33244 0.09357 0.20625 0.0
H739 H 0.31505 0.00609 0.2408 0.0
H740 H 0.29325 0.03136 0.2313 0.0
H741 H 0.32968 0.02509 0.22073 0.0
H742 H 0.42855 0.11752 0.20546 0.0
H743 H 0.41727 0.11687 0.17657 0.0
H744 H 0.77311 0.59303 0.32112 0.0
H745 H 0.76876 0.58902 0.29183 0.0
H746 H 0.69001 0.6352 0.29244 0.0
H747 H 0.69338 0.63847 0.32172 0.0
H748 H 0.66901 0.57696 0.26976 0.0
H749 H 0.82749 0.68846 0.26516 0.0
H750 H 0.81755 0.64547 0.2763 0.0
H751 H 0.80088 0.67735 0.28384 0.0
C752 C 0.75442 0.60184 0.31505 0.0
C753 C 0.734 0.61656 0.32377 0.0
C754 C 0.75215 0.59972 0.2983 0.0
C755 C 0.72986 0.61275 0.28995 0.0
C756 C 0.70763 0.62527 0.29865 0.0
H757 H 0.76337 0.7011 0.19326 0.0
H758 H 0.75905 0.69075 0.22225 0.0
C759 C 0.70961 0.62711 0.3154 0.0
C760 C 0.73141 0.61553 0.27218 0.0
H761 H 0.79403 0.66083 0.24087 0.0
C762 C 0.69633 0.59518 0.26341 0.0
C763 C 0.76702 0.63988 0.26397 0.0
C764 C 0.80534 0.66435 0.27278 0.0
C765 C 0.69591 0.59847 0.24662 0.0
C766 C 0.73167 0.62216 0.2384 0.0
C767 C 0.76671 0.64244 0.24719 0.0
C768 C 0.7334 0.62776 0.22074 0.0
C769 C 0.65705 0.57754 0.23791 0.0
C770 C 0.72076 0.59581 0.21024 0.0
C771 C 0.72298 0.60159 0.19361 0.0
C772 C 0.73834 0.63953 0.18719 0.0
C773 C 0.75144 0.6715 0.19777 0.0
C774 C 0.74897 0.66565 0.21436 0.0
H775 H 0.63193 0.56923 0.24618 0.0
H776 H 0.65578 0.59611 0.22817 0.0
H777 H 0.65344 0.55027 0.23243 0.0
H778 H 0.70951 0.56643 0.21489 0.0
H779 H 0.71287 0.57634 0.18581 0.0
H780 H 0.9174 0.21841 0.19398 0.0
H781 H 0.91467 0.22595 0.22297 0.0
H782 H 0.88624 0.31715 0.21538 0.0
H783 H 0.88738 0.30866 0.18633 0.0
H784 H 0.95717 0.28658 0.24204 0.0
H785 H 0.80104 0.24799 0.246 0.0
H786 H 0.82184 0.24076 0.22794 0.0
H787 H 0.83009 0.28871 0.23299 0.0
C788 C 0.91031 0.2399 0.19847 0.0
C789 C 0.90225 0.26268 0.18786 0.0
C790 C 0.90884 0.24425 0.21505 0.0
C791 C 0.89963 0.27169 0.22138 0.0
C792 C 0.89233 0.29504 0.21081 0.0
H793 H 0.94001 0.32184 0.3251 0.0
H794 H 0.94305 0.3323 0.29601 0.0
C795 C 0.89319 0.29028 0.1942 0.0
C796 C 0.89827 0.27592 0.23905 0.0
H797 H 0.83812 0.26897 0.26995 0.0
C798 C 0.93118 0.28285 0.24816 0.0
C799 C 0.86426 0.27088 0.247 0.0
C800 C 0.82717 0.26131 0.23801 0.0
C801 C 0.93069 0.28372 0.265 0.0
C802 C 0.89675 0.27887 0.27296 0.0
C803 C 0.86425 0.27308 0.26382 0.0
C804 C 0.89273 0.27538 0.29069 0.0
C805 C 0.96582 0.28785 0.27406 0.0
C806 C 0.86214 0.24096 0.29743 0.0
C807 C 0.85983 0.23525 0.314 0.0
C808 C 0.88831 0.26376 0.32424 0.0
C809 C 0.91787 0.29912 0.31754 0.0
C810 C 0.91983 0.30502 0.30091 0.0
H811 H 0.98517 0.28191 0.26628 0.0
H812 H 0.98345 0.31829 0.27865 0.0
H813 H 0.95647 0.26749 0.28445 0.0
H814 H 0.84075 0.21774 0.28981 0.0
H815 H 0.83658 0.20769 0.3187 0.0
H816 H 0.16266 0.39514 0.67637 0.0
H817 H 0.16173 0.40059 0.70556 0.0
H818 H 0.03679 0.35576 0.70419 0.0
H819 H 0.03748 0.35092 0.67493 0.0
H820 H 0.07643 0.41489 0.72749 0.0
H821 H 0.11565 0.29795 0.73112 0.0
H822 H 0.14998 0.3406 0.72005 0.0
H823 H 0.10077 0.31049 0.71262 0.0
C824 C 0.13508 0.38712 0.68223 0.0
C825 C 0.10002 0.37199 0.67334 0.0
C826 C 0.1346 0.39013 0.69892 0.0
C827 C 0.09904 0.37763 0.70702 0.0
C828 C 0.0645 0.36529 0.69814 0.0
H829 H 0.04237 0.28789 0.80351 0.0
H830 H 0.04668 0.29865 0.77454 0.0
C831 C 0.06497 0.36256 0.68141 0.0
C832 C 0.09726 0.37411 0.72473 0.0
H833 H 0.11156 0.32575 0.75562 0.0
C834 C 0.08419 0.39551 0.73368 0.0
C835 C 0.10671 0.34821 0.7327 0.0
C836 C 0.11871 0.32269 0.72365 0.0
C837 C 0.08063 0.39193 0.75047 0.0
C838 C 0.09102 0.36673 0.75845 0.0
C839 C 0.10391 0.34526 0.74947 0.0
C840 C 0.08762 0.36105 0.77607 0.0
C841 C 0.06483 0.4143 0.75945 0.0
C842 C 0.10949 0.39254 0.78654 0.0
C843 C 0.10702 0.38653 0.80314 0.0
C844 C 0.08292 0.3488 0.80956 0.0
C845 C 0.06127 0.3173 0.799 0.0
C846 C 0.06364 0.32339 0.78243 0.0
H847 H 0.04905 0.42417 0.75136 0.0
H848 H 0.04452 0.39609 0.76916 0.0
H849 H 0.08964 0.44071 0.76502 0.0
H850 H 0.12886 0.42167 0.78187 0.0
H851 H 0.12422 0.4114 0.81093 0.0
H852 H 0.21622 0.92736 0.79662 0.0
H853 H 0.22099 0.9217 0.76761 0.0
H854 H 0.27269 0.84899 0.77499 0.0
H855 H 0.26872 0.85502 0.80407 0.0
H856 H 0.31176 0.90612 0.75198 0.0
H857 H 0.15141 0.82565 0.74039 0.0
H858 H 0.1678 0.87085 0.75102 0.0
H859 H 0.17175 0.83177 0.76031 0.0
C860 C 0.22845 0.91 0.79211 0.0
C861 C 0.24184 0.89143 0.8027 0.0
C862 C 0.231 0.90667 0.77551 0.0
C863 C 0.2466 0.88439 0.76915 0.0
C864 C 0.26038 0.86616 0.77966 0.0
H865 H 0.21344 0.81555 0.66865 0.0
H866 H 0.21781 0.8149 0.69788 0.0
C867 C 0.25798 0.86958 0.79628 0.0
C868 C 0.24886 0.88051 0.75154 0.0
H869 H 0.19299 0.85153 0.71753 0.0
C870 C 0.2858 0.89391 0.74443 0.0
C871 C 0.21489 0.86398 0.74175 0.0
C872 C 0.17418 0.84687 0.74875 0.0
C873 C 0.28977 0.89227 0.72772 0.0
C874 C 0.25596 0.87748 0.71788 0.0
C875 C 0.21896 0.86312 0.72506 0.0
C876 C 0.25799 0.87733 0.70009 0.0
C877 C 0.33005 0.90607 0.72082 0.0
C878 C 0.27982 0.91252 0.69156 0.0
C879 C 0.27767 0.91295 0.6748 0.0
C880 C 0.25314 0.87826 0.66628 0.0
C881 C 0.23251 0.84283 0.67483 0.0
C882 C 0.23493 0.84239 0.69155 0.0
H883 H 0.35006 0.9047 0.72988 0.0
H884 H 0.32856 0.88824 0.71023 0.0
H885 H 0.34304 0.93707 0.71695 0.0
H886 H 0.29714 0.93999 0.69788 0.0
H887 H 0.29372 0.94079 0.66861 0.0
H888 H 0.58314 0.76944 0.67647 0.0
H889 H 0.57826 0.76459 0.70573 0.0
H890 H 0.62391 0.68546 0.70527 0.0
H891 H 0.62806 0.68934 0.67601 0.0
H892 H 0.56497 0.66472 0.72779 0.0
H893 H 0.67794 0.82252 0.7326 0.0
H894 H 0.63523 0.81307 0.72128 0.0
H895 H 0.66687 0.7959 0.71392 0.0
C896 C 0.59162 0.75054 0.68256 0.0
C897 C 0.60651 0.7302 0.6739 0.0
C898 C 0.58899 0.74798 0.69929 0.0
C899 C 0.60166 0.72546 0.70768 0.0
C900 C 0.61425 0.70324 0.69903 0.0
H901 H 0.6879 0.75869 0.80481 0.0
H902 H 0.67833 0.75368 0.77576 0.0
C903 C 0.6166 0.70552 0.68229 0.0
C904 C 0.6042 0.72692 0.72544 0.0
H905 H 0.64957 0.78927 0.75683 0.0
C906 C 0.58335 0.69193 0.73417 0.0
C907 C 0.6288 0.76239 0.73368 0.0
C908 C 0.6538 0.80056 0.72491 0.0
C909 C 0.58632 0.69147 0.75098 0.0
C910 C 0.61021 0.72711 0.75923 0.0
C911 C 0.63104 0.76205 0.75047 0.0
C912 C 0.6153 0.72886 0.77691 0.0
C913 C 0.56479 0.65272 0.75967 0.0
C914 C 0.58305 0.71683 0.78721 0.0
C915 C 0.58839 0.71945 0.80386 0.0
C916 C 0.62617 0.73461 0.81051 0.0
C917 C 0.65842 0.74694 0.80012 0.0
C918 C 0.65301 0.74408 0.7835 0.0
H919 H 0.55641 0.62758 0.75142 0.0
H920 H 0.583 0.65124 0.76953 0.0
H921 H 0.53747 0.64945 0.76499 0.0
H922 H 0.55382 0.70585 0.78238 0.0
H923 H 0.56294 0.70991 0.81151 0.0
H924 H 0.31872 0.01035 0.92072 0.0
H925 H 0.32899 0.02887 0.94908 0.0
H926 H 0.22319 0.92157 0.96133 0.0
H927 H 0.21227 0.90299 0.93302 0.0
H928 H 0.22844 0.98686 0.97608 0.0
H929 H 0.36614 0.98244 0.98421 0.0
H930 H 0.36773 0.01323 0.96799 0.0
H931 H 0.33452 0.96119 0.96699 0.0
C932 C 0.29765 0.9906 0.92943 0.0
C933 C 0.26472 0.95509 0.92457 0.0
C934 C 0.30372 0.00115 0.94565 0.0
C935 C 0.27718 0.9763 0.95732 0.0
C936 C 0.24412 0.94107 0.95251 0.0
H937 H 0.31099 0.98796 0.06057 0.0
H938 H 0.30086 0.96916 0.03224 0.0
C939 C 0.23797 0.93051 0.93631 0.0
C940 C 0.28328 0.98735 0.97452 0.0
H941 H 0.34713 0.0088 0.00576 0.0
C942 C 0.25434 0.99159 0.98259 0.0
C943 C 0.31686 0.99298 0.98302 0.0
C944 C 0.34795 0.98689 0.97518 0.0
C945 C 0.25832 0.00185 -0.0011 0.0
C946 C 0.29247 0.00869 0.00726 0.0
C947 C 0.32116 0.0039 -0.00074 0.0
C948 C 0.29877 0.02038 0.02439 0.0
C949 C 0.2256 0.0046 0.00709 0.0
C950 C 0.30144 0.05567 0.02932 0.0
C951 C 0.30712 0.06648 0.0455 0.0
C952 C 0.31052 0.04232 0.05706 0.0
C953 C 0.30838 0.00722 0.05202 0.0
C954 C 0.30265 -0.00357 0.03583 0.0
H955 H 0.1976 0.9888 0.00028 0.0
H956 H 0.22065 0.99239 0.01944 0.0
H957 H 0.23373 0.03587 0.00796 0.0
H958 H 0.29932 0.07496 0.02062 0.0
H959 H 0.30889 0.09383 0.04892 0.0
H960 H 0.8345 0.78136 0.43277 0.0
H961 H 0.83672 0.80971 0.45918 0.0
H962 H 0.76429 0.6936 0.47862 0.0
H963 H 0.76251 0.66508 0.45252 0.0
H964 H 0.77441 0.80341 0.47505 0.0
H965 H 0.84641 0.74358 0.51323 0.0
H966 H 0.84855 0.74309 0.49157 0.0
H967 H 0.8068 0.70505 0.50213 0.0
C968 C 0.81969 0.76183 0.44275 0.0
C969 C 0.79826 0.72091 0.4405 0.0
C970 C 0.82099 0.77811 0.45783 0.0
C971 C 0.80119 0.75378 0.47094 0.0
C972 C 0.78068 0.71295 0.46881 0.0
H973 H 0.66866 0.76384 0.54655 0.0
H974 H 0.69977 0.76449 0.52125 0.0
C975 C 0.7794 0.69668 0.45379 0.0
C976 C 0.79811 0.77061 0.48641 0.0
H977 H 0.80184 0.75996 0.52691 0.0
C978 C 0.78125 0.79466 0.48639 0.0
C979 C 0.80777 0.75994 0.50122 0.0
C980 C 0.8288 0.73686 0.50203 0.0
C981 C 0.77092 0.80566 0.50078 0.0
C982 C 0.77688 0.79156 0.51551 0.0
C983 C 0.79665 0.77023 0.51559 0.0
C984 C 0.75904 0.79478 0.53068 0.0
C985 C 0.75268 0.83136 0.50001 0.0
C986 C 0.78197 0.8111 0.54451 0.0
C987 C 0.76414 0.8105 0.55914 0.0
C988 C 0.72304 0.79318 0.56018 0.0
C989 C 0.70036 0.77754 0.54621 0.0
C990 C 0.71816 0.77818 0.53166 0.0
H991 H 0.763 0.85065 0.48927 0.0
H992 H 0.7203 0.81256 0.49906 0.0
H993 H 0.75963 0.84994 0.51091 0.0
H994 H 0.81355 0.82373 0.54404 0.0
H995 H 0.78247 0.8227 0.56967 0.0
H996 H 0.0778 0.3045 0.93937 0.0
H997 H 0.06061 0.29649 0.96783 0.0
H998 H 0.95494 0.2994 0.95705 0.0
H999 H 0.97213 0.30808 0.92855 0.0
H1000 H -0.00384 0.34657 0.98275 0.0
H1001 H 0.97568 0.19749 0.98973 0.0
H1002 H 0.02254 0.23252 0.9815 0.0
H1003 H 0.97845 0.2192 0.97034 0.0
C1004 C 0.0508 0.30329 0.94301 0.0
C1005 C 0.02626 0.30677 0.93164 0.0
C1006 C 0.04094 0.29849 0.95928 0.0
C1007 C 0.00621 0.29672 0.9645 0.0
C1008 C 0.98179 0.3005 0.95324 0.0
H1009 H 0.89883 0.21874 0.05816 0.0
H1010 H 0.91396 0.22679 0.02951 0.0
C1011 C -0.00833 0.30542 0.93695 0.0
C1012 C -0.00421 0.29181 0.98175 0.0
H1013 H 0.97705 0.23082 0.01374 0.0
C1014 C -0.00818 0.32121 0.98953 0.0
C1015 C 0.98965 0.25843 0.99049 0.0
C1016 C -0.0086 0.22491 0.98258 0.0
C1017 C 0.98252 0.31846 0.00592 0.0
C1018 C 0.97781 0.28577 0.01479 0.0
C1019 C 0.98111 0.25605 0.00694 0.0
C1020 C 0.96879 0.28146 0.03218 0.0
C1021 C 0.97718 0.35023 0.01351 0.0
C1022 C -0.00515 0.30934 0.0432 0.0
C1023 C 0.98625 0.30494 0.0596 0.0
C1024 C 0.95156 0.27234 0.0653 0.0
C1025 C 0.92578 0.24422 0.05421 0.0
C1026 C 0.93436 0.24874 0.03782 0.0
H1027 H 0.97135 0.3672 0.00436 0.0
H1028 H 0.95257 0.3377 0.02225 0.0
H1029 H 0.00444 0.37094 0.02001 0.0
H1030 H 0.02202 0.33436 0.03912 0.0
H1031 H 0.00688 0.327 0.06781 0.0
H1032 H 0.31052 0.08174 0.44063 0.0
H1033 H 0.28075 0.05129 0.46609 0.0
H1034 H 0.16584 -0.00391 0.44426 0.0
H1035 H 0.19565 0.02592 0.41838 0.0
H1036 H 0.22615 0.05487 0.48525 0.0
H1037 H 0.17101 0.90299 0.46273 0.0
H1038 H 0.20498 0.94566 0.45139 0.0
H1039 H 0.15401 0.93166 0.45237 0.0
C1040 C 0.27887 0.06334 0.44116 0.0
C1041 C 0.25553 0.05596 0.42737 0.0
C1042 C 0.26187 0.04601 0.45579 0.0
C1043 C 0.22115 0.02096 0.45703 0.0
C1044 C 0.19742 0.01474 0.44349 0.0
H1045 H 0.14749 0.93741 0.55646 0.0
H1046 H 0.14493 0.96225 0.52978 0.0
C1047 C 0.21449 0.032 0.42874 0.0
C1048 C 0.20461 0.00047 0.47245 0.0
H1049 H 0.1651 0.91056 0.49029 0.0
C1050 C 0.21216 0.02325 0.48637 0.0
C1051 C 0.18658 0.95922 0.47383 0.0
C1052 C 0.17882 0.93331 0.45934 0.0
C1053 C 0.20431 0.0062 0.5017 0.0
C1054 C 0.18748 0.96506 0.50311 0.0
C1055 C 0.17786 0.94206 0.48915 0.0
C1056 C 0.18462 0.94608 0.51882 0.0
C1057 C 0.21659 0.03268 0.51623 0.0
C1058 C 0.20625 0.92709 0.5213 0.0
C1059 C 0.20738 0.91244 0.53641 0.0
C1060 C 0.18699 0.9166 0.54942 0.0
C1061 C 0.16386 0.93408 0.54674 0.0
C1062 C 0.16251 0.94848 0.53153 0.0
H1063 H 0.23587 0.06403 0.51299 0.0
H1064 H 0.19007 0.0297 0.52223 0.0
H1065 H 0.23243 0.02438 0.52499 0.0
H1066 H 0.22346 0.92481 0.51166 0.0
H1067 H 0.22536 0.89904 0.53799 0.0
H1068 H 0.76808 0.68456 0.057 0.0
H1069 H 0.75712 0.6932 0.0288 0.0
H1070 H 0.65066 0.69269 0.04143 0.0
H1071 H 0.66104 0.68358 0.06969 0.0
H1072 H 0.64207 0.64446 0.01525 0.0
H1073 H 0.77135 0.79357 0.00772 0.0
H1074 H 0.78292 0.75821 0.01565 0.0
H1075 H 0.75308 0.7719 0.02718 0.0
C1076 C 0.74239 0.68643 0.05383 0.0
C1077 C 0.71552 0.68352 0.06565 0.0
C1078 C 0.7363 0.69157 0.03769 0.0
C1079 C 0.7034 0.69415 0.03307 0.0
C1080 C 0.67635 0.69096 0.04478 0.0
H1081 H 0.66691 0.77231 0.9406 0.0
H1082 H 0.67569 0.76402 0.96909 0.0
C1083 C 0.68239 0.68582 0.06093 0.0
C1084 C 0.69675 0.69929 0.01596 0.0
H1085 H 0.73718 0.76079 0.98394 0.0
C1086 C 0.66276 0.66994 0.0084 0.0
C1087 C 0.72359 0.73279 0.00713 0.0
C1088 C 0.75962 0.76612 0.01484 0.0
C1089 C 0.65521 0.67287 0.99213 0.0
C1090 C 0.68272 0.70575 0.98317 0.0
C1091 C 0.71635 0.73543 0.99081 0.0
C1092 C 0.67695 0.71021 0.96589 0.0
C1093 C 0.6176 0.64105 0.98475 0.0
C1094 C 0.67516 0.68289 0.95463 0.0
C1095 C 0.67007 0.68746 0.93831 0.0
C1096 C 0.66694 0.71964 0.93295 0.0
C1097 C 0.66913 0.74714 0.94429 0.0
C1098 C 0.67418 0.7425 0.96058 0.0
H1099 H 0.59538 0.62355 0.99404 0.0
H1100 H 0.60481 0.65365 0.97641 0.0
H1101 H 0.62394 0.62084 0.97781 0.0
H1102 H 0.67803 0.65818 0.95844 0.0
H1103 H 0.66874 0.66584 0.92992 0.0
H1104 H 0.01777 0.18658 0.57105 0.0
H1105 H 0.99029 0.15584 0.54502 0.0
H1106 H 0.05351 0.26895 0.52204 0.0
H1107 H 0.08158 0.29956 0.54766 0.0
H1108 H 0.94288 0.16884 0.52622 0.0
H1109 H 0.07539 0.20373 0.49145 0.0
H1110 H 0.07614 0.20779 0.51307 0.0
H1111 H 0.08129 0.24751 0.50059 0.0
C1112 C 0.02638 0.20476 0.56039 0.0
C1113 C 0.05191 0.24557 0.56147 0.0
C1114 C 0.01063 0.18714 0.54554 0.0
C1115 C 0.0204 0.20997 0.53152 0.0
C1116 C 0.04641 0.25051 0.53257 0.0
H1117 H 0.89758 0.21649 0.45186 0.0
H1118 H 0.92037 0.21033 0.47823 0.0
C1119 C 0.06218 0.26807 0.54733 0.0
C1120 C 0.00076 0.19276 0.516 0.0
H1121 H 0.01975 0.19732 0.47588 0.0
C1122 C 0.95962 0.17417 0.51524 0.0
C1123 C 0.02236 0.19869 0.50168 0.0
C1124 C 0.06621 0.21512 0.50178 0.0
C1125 C 0.93989 0.16461 0.50043 0.0
C1126 C 0.96199 0.17487 0.48605 0.0
C1127 C 0.00276 0.19015 0.48687 0.0
C1128 C 0.94433 0.17435 0.47023 0.0
C1129 C 0.89565 0.1446 0.50039 0.0
C1130 C 0.95072 0.15672 0.4568 0.0
C1131 C 0.93822 0.16076 0.44154 0.0
C1132 C 0.91922 0.18263 0.43944 0.0
C1133 C 0.91189 0.19923 0.453 0.0
C1134 C 0.92459 0.19541 0.46818 0.0
H1135 H 0.88311 0.12542 0.51109 0.0
H1136 H 0.88667 0.16713 0.50094 0.0
H1137 H 0.88286 0.12661 0.48942 0.0
H1138 H 0.96619 0.14062 0.45807 0.0
H1139 H 0.94435 0.14759 0.43136 0.0
H1140 H 0.77127 0.16989 0.09281 0.0
H1141 H 0.70015 0.12834 0.09047 0.0
H1142 H 0.68514 0.17468 0.1351 0.0
H1143 H 0.75645 0.21625 0.1377 0.0
H1144 H 0.64382 0.08863 0.13207 0.0
H1145 H 0.61871 0.16333 0.0804 0.0
H1146 H 0.65641 0.15057 0.0783 0.0
H1147 H 0.6626 0.18737 0.09255 0.0
C1148 C 0.75292 0.17169 0.10206 0.0
C1149 C 0.76958 0.19644 0.11547 0.0
C1150 C 0.71228 0.14789 0.10067 0.0
C1151 C 0.6876 0.14856 0.1126 0.0
C1152 C 0.70392 0.17381 0.1258 0.0
H1153 H 0.4651 0.08158 0.14131 0.0
H1154 H 0.53026 0.08955 0.13899 0.0
C1155 C 0.7446 0.19771 0.1272 0.0
C1156 C 0.64471 0.12237 0.11156 0.0
H1157 H 0.56334 0.11024 0.09199 0.0
C1158 C 0.62616 0.09295 0.12319 0.0
C1159 C 0.62201 0.12763 0.09975 0.0
C1160 C 0.64072 0.15902 0.08705 0.0
C1161 C 0.58513 0.0699 0.12384 0.0
C1162 C 0.56228 0.07709 0.11275 0.0
C1163 C 0.58096 0.10468 0.10044 0.0
C1164 C 0.52011 0.06257 0.11549 0.0
C1165 C 0.5666 0.03903 0.13672 0.0
C1166 C 0.49233 0.04384 0.1032 0.0
C1167 C 0.45473 0.03914 0.10456 0.0
C1168 C 0.4451 0.05391 0.11806 0.0
C1169 C 0.47197 0.07 0.13078 0.0
C1170 C 0.50911 0.07424 0.12952 0.0
H1171 H 0.58573 0.02674 0.13981 0.0
H1172 H 0.56282 0.05256 0.14775 0.0
H1173 H 0.53737 0.01471 0.13294 0.0
H1174 H 0.5005 0.03504 0.09221 0.0
H1175 H 0.4345 0.02696 0.09456 0.0
H1176 H 0.6411 0.55846 0.42515 0.0
H1177 H 0.58307 0.49451 0.43036 0.0
H1178 H 0.54876 0.48666 0.38069 0.0
H1179 H 0.60595 0.55107 0.3755 0.0
H1180 H 0.48458 0.44982 0.40176 0.0
H1181 H 0.59622 0.40503 0.41309 0.0
H1182 H 0.5979 0.44203 0.42617 0.0
H1183 H 0.60937 0.45265 0.40524 0.0
C1184 C 0.62054 0.54358 0.41546 0.0
C1185 C 0.6284 0.55925 0.39984 0.0
C1186 C 0.58752 0.50706 0.41845 0.0
C1187 C 0.56244 0.48548 0.4058 0.0
C1188 C 0.56802 0.50282 0.39059 0.0
H1189 H 0.41858 0.26554 0.36684 0.0
H1190 H 0.45439 0.33374 0.3754 0.0
C1191 C 0.60072 0.53962 0.38763 0.0
C1192 C 0.53423 0.44315 0.40759 0.0
H1193 H 0.53083 0.35525 0.41111 0.0
C1194 C 0.49449 0.42911 0.4041 0.0
C1195 C 0.54737 0.41624 0.41065 0.0
C1196 C 0.59004 0.42955 0.41389 0.0
C1197 C 0.46785 0.38876 0.40284 0.0
C1198 C 0.48156 0.3621 0.40498 0.0
C1199 C 0.5206 0.37597 0.40952 0.0
C1200 C 0.45767 0.3205 0.40037 0.0
C1201 C 0.42559 0.37501 0.39869 0.0
C1202 C 0.44878 0.29055 0.41153 0.0
C1203 C 0.42843 0.2513 0.40666 0.0
C1204 C 0.41723 0.2416 0.3905 0.0
C1205 C 0.42676 0.27189 0.37937 0.0
C1206 C 0.44679 0.31092 0.38426 0.0
H1207 H 0.4171 0.3968 0.40243 0.0
H1208 H 0.42168 0.37122 0.38549 0.0
H1209 H 0.40548 0.34643 0.40448 0.0
H1210 H 0.45761 0.29758 0.42397 0.0
H1211 H 0.42151 0.22865 0.41552 0.0
H1212 H 0.96688 0.4096 0.10092 0.0
H1213 H 0.95527 0.46443 0.09593 0.0
H1214 H 0.89771 0.44401 0.1419 0.0
H1215 H 0.90905 0.38968 0.14686 0.0
H1216 H 0.87783 0.44822 0.09431 0.0
H1217 H 0.95901 0.56316 0.13966 0.0
H1218 H 0.97283 0.52734 0.1342 0.0
H1219 H 0.93451 0.51545 0.1487 0.0
C1220 C 0.95316 0.41795 0.11018 0.0
C1221 C 0.93864 0.39548 0.12423 0.0
C1222 C 0.94643 0.44908 0.1073 0.0
C1223 C 0.92594 0.45843 0.1186 0.0
C1224 C 0.91427 0.43784 0.13316 0.0
H1225 H 0.76761 0.53554 0.13524 0.0
H1226 H 0.80898 0.50582 0.13326 0.0
C1227 C 0.92051 0.40661 0.13594 0.0
C1228 C 0.91041 0.48446 0.11441 0.0
H1229 H 0.8968 0.55615 0.13059 0.0
C1230 C 0.8828 0.47266 0.1019 0.0
C1231 C 0.91692 0.51618 0.12437 0.0
C1232 C 0.94777 0.5315 0.13738 0.0
C1233 C 0.85916 0.48964 0.09997 0.0
C1234 C 0.86362 0.51921 0.11076 0.0
C1235 C 0.89314 0.53297 0.1225 0.0
C1236 C 0.83615 0.5343 0.11087 0.0
C1237 C 0.82781 0.47418 0.08716 0.0
C1238 C 0.83718 0.55925 0.09869 0.0
C1239 C 0.81351 0.57621 0.09974 0.0
C1240 C 0.78857 0.56856 0.11305 0.0
C1241 C 0.78639 0.54203 0.12484 0.0
C1242 C 0.81014 0.52521 0.12378 0.0
H1243 H 0.82567 0.44843 0.08077 0.0
H1244 H 0.79881 0.46565 0.09255 0.0
H1245 H 0.83454 0.49761 0.07823 0.0
H1246 H 0.85725 0.56667 0.08868 0.0
H1247 H 0.81592 0.5965 0.09044 0.0
H1248 H 0.43818 0.04771 0.36983 0.0
H1249 H 0.50144 0.05463 0.37697 0.0
H1250 H 0.49195 0.09193 0.42464 0.0
H1251 H 0.42908 0.08606 0.41746 0.0
H1252 H 0.55641 0.14527 0.40991 0.0
H1253 H 0.54716 0.00161 0.4032 0.0
H1254 H 0.52786 0.0129 0.38581 0.0
H1255 H 0.50398 0.00637 0.40495 0.0
C1256 C 0.44894 0.05618 0.38199 0.0
C1257 C 0.42898 0.0669 0.39301 0.0
C1258 C 0.48503 0.05985 0.38611 0.0
C1259 C 0.50132 0.07357 0.40138 0.0
C1260 C 0.47987 0.08125 0.4128 0.0
H1261 H 0.75568 0.1825 0.42087 0.0
H1262 H 0.68516 0.15215 0.4264 0.0
C1263 C 0.44402 0.07798 0.40865 0.0
C1264 C 0.54313 0.08643 0.40436 0.0
H1265 H 0.61199 0.05907 0.39929 0.0
C1266 C 0.56849 0.12618 0.40803 0.0
C1267 C 0.55879 0.06151 0.40189 0.0
C1268 C 0.53289 0.01814 0.39891 0.0
C1269 C 0.60932 0.14231 0.40812 0.0
C1270 C 0.62503 0.11788 0.40462 0.0
C1271 C 0.59969 0.07769 0.40189 0.0
C1272 C 0.66744 0.13445 0.4018 0.0
C1273 C 0.63539 0.18581 0.41089 0.0
C1274 C 0.68049 0.1341 0.3862 0.0
C1275 C 0.72049 0.15137 0.38299 0.0
C1276 C 0.74827 0.16925 0.39536 0.0
C1277 C 0.73505 0.16924 0.41106 0.0
C1278 C 0.69485 0.15189 0.41426 0.0
H1279 H 0.61846 0.2014 0.41134 0.0
H1280 H 0.65117 0.19071 0.42246 0.0
H1281 H 0.65774 0.19901 0.40122 0.0
H1282 H 0.65967 0.12092 0.37644 0.0
H1283 H 0.72955 0.15066 0.37078 0.0
H1284 H 0.45331 0.2395 0.129 0.0
H1285 H 0.47979 0.31029 0.1287 0.0
H1286 H 0.4204 0.30055 0.08396 0.0
H1287 H 0.39354 0.22947 0.08409 0.0
H1288 H 0.50342 0.36481 0.08695 0.0
H1289 H 0.40691 0.35919 0.13655 0.0
H1290 H 0.43156 0.33205 0.14039 0.0
H1291 H 0.39622 0.31697 0.12439 0.0
C1292 C 0.4463 0.25234 0.11895 0.0
C1293 C 0.42102 0.22875 0.10664 0.0
C1294 C 0.46116 0.29274 0.11889 0.0
C1295 C 0.45113 0.31023 0.10652 0.0
C1296 C 0.4279 0.2873 0.09371 0.0
H1297 H 0.57857 0.56848 0.10326 0.0
H1298 H 0.52216 0.50374 0.0968 0.0
C1299 C 0.41279 0.24678 0.0938 0.0
C1300 C 0.46512 0.35257 0.10719 0.0
H1301 H 0.4647 0.42166 0.13164 0.0
C1302 C 0.49438 0.37747 0.09643 0.0
C1303 C 0.45265 0.36859 0.11945 0.0
C1304 C 0.41981 0.34283 0.13078 0.0
C1305 C 0.51429 0.41826 0.09857 0.0
C1306 C 0.50398 0.4342 0.11167 0.0
C1307 C 0.47243 0.40932 0.1216 0.0
C1308 C 0.53065 0.47471 0.11717 0.0
C1309 C 0.54839 0.44365 0.08767 0.0
C1310 C 0.55215 0.48003 0.13129 0.0
C1311 C 0.58402 0.51663 0.13499 0.0
C1312 C 0.59479 0.54859 0.12467 0.0
C1313 C 0.57083 0.54424 0.1114 0.0
C1314 C 0.53887 0.50731 0.10763 0.0
H1315 H 0.5548 0.42608 0.07906 0.0
H1316 H 0.54157 0.46348 0.0807 0.0
H1317 H 0.57524 0.46213 0.09487 0.0
H1318 H 0.54611 0.45524 0.13884 0.0
H1319 H 0.60178 0.51933 0.14539 0.0
H1320 H 0.83021 0.55642 0.37574 0.0
H1321 H 0.86042 0.51838 0.38399 0.0
H1322 H 0.82614 0.51983 0.43303 0.0
H1323 H 0.79547 0.55807 0.42491 0.0
H1324 H 0.92223 0.54117 0.40926 0.0
H1325 H 0.78229 0.40123 0.42059 0.0
H1326 H 0.78358 0.43953 0.40827 0.0
H1327 H 0.78927 0.44582 0.4296 0.0
C1328 C 0.82878 0.54854 0.38828 0.0
C1329 C 0.81029 0.5602 0.39967 0.0
C1330 C 0.84631 0.52703 0.39297 0.0
C1331 C 0.84556 0.51659 0.40909 0.0
C1332 C 0.82686 0.52768 0.42052 0.0
H1333 H 0.90147 0.33411 0.42849 0.0
H1334 H 0.89339 0.38965 0.43575 0.0
C1335 C 0.80928 0.54935 0.41584 0.0
C1336 C 0.86371 0.49314 0.41356 0.0
H1337 H 0.84029 0.39871 0.42013 0.0
C1338 C 0.90454 0.51015 0.41198 0.0
C1339 C 0.84046 0.45294 0.41728 0.0
C1340 C 0.79643 0.4335 0.41901 0.0
C1341 C 0.92257 0.48731 0.41311 0.0
C1342 C 0.8989 0.44645 0.41551 0.0
C1343 C 0.85842 0.43008 0.41827 0.0
C1344 C 0.91381 0.41915 0.41291 0.0
C1345 C 0.96653 0.50698 0.41122 0.0
C1346 C 0.92957 0.41819 0.3979 0.0
C1347 C 0.93449 0.38663 0.39375 0.0
C1348 C 0.92298 0.3552 0.40445 0.0
C1349 C 0.91015 0.35773 0.41993 0.0
C1350 C 0.90564 0.38949 0.42412 0.0
H1351 H 0.98114 0.53755 0.41583 0.0
H1352 H 0.97868 0.49069 0.41762 0.0
H1353 H 0.97381 0.50839 0.39828 0.0
H1354 H 0.93522 0.44024 0.3889 0.0
H1355 H 0.94436 0.38547 0.38173 0.0
H1356 H 0.19548 0.75407 0.56819 0.0
H1357 H 0.16611 0.68422 0.56149 0.0
H1358 H 0.11437 0.65318 0.60867 0.0
H1359 H 0.14326 0.72216 0.61549 0.0
H1360 H 0.17888 0.62892 0.5789 0.0
H1361 H 0.02161 0.58548 0.57813 0.0
H1362 H 0.06066 0.6358 0.57595 0.0
H1363 H 0.04704 0.61375 0.59554 0.0
C1364 C 0.17776 0.73233 0.57711 0.0
C1365 C 0.17174 0.7437 0.59238 0.0
C1366 C 0.16089 0.69255 0.57323 0.0
C1367 C 0.13736 0.66375 0.58447 0.0
C1368 C 0.1316 0.67504 0.5997 0.0
H1369 H 0.04615 0.43525 0.61582 0.0
H1370 H 0.05769 0.49999 0.60814 0.0
C1371 C 0.14856 0.71456 0.60362 0.0
C1372 C 0.1212 0.62171 0.58105 0.0
H1373 H 0.03606 0.53363 0.58313 0.0
C1374 C 0.14762 0.60798 0.57937 0.0
C1375 C 0.08041 0.59474 0.58171 0.0
C1376 C 0.05074 0.60819 0.58277 0.0
C1377 C 0.13455 0.56774 0.57967 0.0
C1378 C 0.09383 0.54069 0.58129 0.0
C1379 C 0.0672 0.55445 0.58192 0.0
C1380 C 0.07922 0.4987 0.58436 0.0
C1381 C 0.1647 0.55474 0.57946 0.0
C1382 C 0.08549 0.47581 0.5732 0.0
C1383 C 0.07936 0.43902 0.57762 0.0
C1384 C 0.06633 0.4244 0.59319 0.0
C1385 C 0.05637 0.44578 0.60377 0.0
C1386 C 0.06294 0.48277 0.5994 0.0
H1387 H 0.19508 0.57968 0.58111 0.0
H1388 H 0.15856 0.53285 0.58906 0.0
H1389 H 0.16342 0.54078 0.56774 0.0
H1390 H 0.09717 0.48729 0.56141 0.0
H1391 H 0.08667 0.42289 0.56911 0.0
H1392 H 0.3994 0.9727 0.88716 0.0
H1393 H 0.45487 0.96245 0.89275 0.0
H1394 H 0.43324 0.89931 0.84809 0.0
H1395 H 0.37831 0.90942 0.84252 0.0
H1396 H 0.43774 0.88603 0.89644 0.0
H1397 H 0.55214 0.9578 0.85009 0.0
H1398 H 0.5169 0.97318 0.85445 0.0
H1399 H 0.5043 0.93253 0.84111 0.0
C1400 C 0.40769 0.95815 0.87825 0.0
C1401 C 0.38457 0.94155 0.86448 0.0
C1402 C 0.4392 0.9522 0.88148 0.0
C1403 C 0.44828 0.93034 0.87079 0.0
C1404 C 0.4273 0.91692 0.85636 0.0
H1405 H 0.52063 0.76638 0.86022 0.0
H1406 H 0.49239 0.80919 0.86036 0.0
C1407 C 0.3957 0.92245 0.85323 0.0
C1408 C 0.47377 0.91469 0.87576 0.0
H1409 H 0.54366 0.89635 0.86095 0.0
C1410 C 0.46176 0.88917 0.889 0.0
C1411 C 0.50493 0.91877 0.866 0.0
C1412 C 0.52055 0.94741 0.85222 0.0
C1413 C 0.4779 0.86512 0.8919 0.0
C1414 C 0.50688 0.86707 0.88137 0.0
C1415 C 0.5209 0.89459 0.86885 0.0
C1416 C 0.52107 0.83895 0.88237 0.0
C1417 C 0.46211 0.83596 0.90551 0.0
C1418 C 0.54557 0.84095 0.89497 0.0
C1419 C 0.56164 0.81643 0.89498 0.0
C1420 C 0.55356 0.78968 0.88233 0.0
C1421 C 0.52742 0.78655 0.87015 0.0
C1422 C 0.51147 0.81114 0.87014 0.0
H1423 H 0.43647 0.83516 0.91148 0.0
H1424 H 0.45323 0.80611 0.90103 0.0
H1425 H 0.48551 0.84391 0.91462 0.0
H1426 H 0.55337 0.8624 0.90446 0.0
H1427 H 0.58168 0.81963 0.90456 0.0
H1428 H 0.55343 0.64258 0.57172 0.0
H1429 H 0.49037 0.58426 0.56555 0.0
H1430 H 0.48063 0.54588 0.61469 0.0
H1431 H 0.54419 0.60345 0.62085 0.0
H1432 H 0.44757 0.48366 0.59258 0.0
H1433 H 0.3966 0.59077 0.58237 0.0
H1434 H 0.4355 0.59575 0.56956 0.0
H1435 H 0.44421 0.60519 0.59071 0.0
C1436 C 0.5383 0.62118 0.58111 0.0
C1437 C 0.55326 0.62789 0.59685 0.0
C1438 C 0.50228 0.58798 0.57756 0.0
C1439 C 0.48044 0.56149 0.58978 0.0
C1440 C 0.497 0.56621 0.60512 0.0
H1441 H 0.25733 0.40577 0.62392 0.0
H1442 H 0.3265 0.44393 0.61679 0.0
C1443 C 0.53331 0.59913 0.60863 0.0
C1444 C 0.43858 0.53209 0.58733 0.0
H1445 H 0.34884 0.5244 0.58263 0.0
C1446 C 0.42598 0.49242 0.59013 0.0
C1447 C 0.41053 0.54371 0.58413 0.0
C1448 C 0.42217 0.58615 0.58163 0.0
C1449 C 0.38587 0.46423 0.59048 0.0
C1450 C 0.35792 0.47626 0.58815 0.0
C1451 C 0.37052 0.51542 0.58437 0.0
C1452 C 0.31591 0.45022 0.59177 0.0
C1453 C 0.37369 0.42204 0.59385 0.0
C1454 C 0.28705 0.44195 0.5801 0.0
C1455 C 0.24724 0.42024 0.58416 0.0
C1456 C 0.23585 0.40706 0.6 0.0
C1457 C 0.26501 0.41554 0.61161 0.0
C1458 C 0.30461 0.43692 0.60753 0.0
H1459 H 0.39696 0.41548 0.59025 0.0
H1460 H 0.36859 0.41643 0.60693 0.0
H1461 H 0.34607 0.40168 0.58744 0.0
H1462 H 0.29535 0.45258 0.56793 0.0
H1463 H 0.22547 0.41419 0.57495 0.0
H1464 H 0.1651 0.77011 0.90005 0.0
H1465 H 0.12414 0.69898 0.90253 0.0
H1466 H 0.16826 0.68421 0.85728 0.0
H1467 H 0.20923 0.75536 0.85456 0.0
H1468 H 0.08166 0.64516 0.86103 0.0
H1469 H 0.15737 0.61471 0.91085 0.0
H1470 H 0.14693 0.65392 0.91343 0.0
H1471 H 0.18227 0.65852 0.89874 0.0
C1472 C 0.16665 0.75178 0.89073 0.0
C1473 C 0.19036 0.76844 0.87705 0.0
C1474 C 0.1432 0.71116 0.8922 0.0
C1475 C 0.14323 0.6866 0.88007 0.0
C1476 C 0.16789 0.70292 0.86672 0.0
H1477 H 0.06963 0.46499 0.84823 0.0
H1478 H 0.08055 0.53098 0.85179 0.0
C1479 C 0.19144 0.74353 0.86525 0.0
C1480 C 0.11626 0.64388 0.88083 0.0
H1481 H 0.10358 0.5607 0.89878 0.0
C1482 C 0.08603 0.62663 0.86942 0.0
C1483 C 0.12165 0.62008 0.89201 0.0
C1484 C 0.15386 0.6375 0.90445 0.0
C1485 C 0.0623 0.58581 0.86832 0.0
C1486 C 0.06956 0.56186 0.87872 0.0
C1487 C 0.09801 0.57921 0.89086 0.0
C1488 C 0.05385 0.51982 0.87536 0.0
C1489 C 0.03062 0.56864 0.85567 0.0
C1490 C 0.03431 0.49132 0.88728 0.0
C1491 C 0.02781 0.45327 0.8852 0.0
C1492 C 0.04164 0.44385 0.87134 0.0
C1493 C 0.05872 0.47165 0.85902 0.0
C1494 C 0.0647 0.50928 0.861 0.0
H1495 H 0.01915 0.58868 0.85302 0.0
H1496 H 0.04316 0.56457 0.84439 0.0
H1497 H 0.00582 0.53973 0.85944 0.0
H1498 H 0.02613 0.49912 0.89852 0.0
H1499 H 0.01491 0.43234 0.89492 0.0
H1500 H 0.38126 0.9413 0.61264 0.0
H1501 H 0.43823 0.93497 0.60636 0.0
H1502 H 0.39862 0.90565 0.55732 0.0
H1503 H 0.34078 0.9107 0.56369 0.0
H1504 H 0.40375 0.84885 0.57102 0.0
H1505 H 0.54157 0.98586 0.58374 0.0
H1506 H 0.50851 0.97448 0.60027 0.0
H1507 H 0.49557 0.98485 0.58083 0.0
C1508 C 0.38542 0.93494 0.60038 0.0
C1509 C 0.3563 0.92577 0.58873 0.0
C1510 C 0.41824 0.93164 0.59675 0.0
C1511 C 0.42279 0.91996 0.58133 0.0
C1512 C 0.39567 0.91469 0.56928 0.0
H1513 H 0.56265 0.80201 0.57102 0.0
H1514 H 0.52769 0.8356 0.56223 0.0
C1515 C 0.3626 0.91745 0.57296 0.0
C1516 C 0.45042 0.90532 0.57893 0.0
H1517 H 0.54242 0.92474 0.58899 0.0
C1518 C 0.43446 0.86584 0.57442 0.0
C1519 C 0.49044 0.92747 0.58333 0.0
C1520 C 0.51002 0.97064 0.58714 0.0
C1521 C 0.45646 0.84699 0.57562 0.0
C1522 C 0.49534 0.8683 0.58141 0.0
C1523 C 0.51235 0.90849 0.5847 0.0
C1524 C 0.5166 0.84817 0.58631 0.0
C1525 C 0.43711 0.80372 0.57195 0.0
C1526 C 0.52136 0.84395 0.60271 0.0
C1527 C 0.54094 0.82469 0.60778 0.0
C1528 C 0.55633 0.80945 0.5965 0.0
C1529 C 0.55096 0.81322 0.58001 0.0
C1530 C 0.53121 0.83253 0.57495 0.0
H1531 H 0.40572 0.79089 0.56855 0.0
H1532 H 0.45277 0.79903 0.56188 0.0
H1533 H 0.43904 0.78768 0.58255 0.0
H1534 H 0.50988 0.85561 0.61161 0.0
H1535 H 0.54456 0.82239 0.62055 0.0
H1536 H 0.54865 0.58053 0.89622 0.0
H1537 H 0.48318 0.52319 0.90073 0.0
H1538 H 0.44525 0.54239 0.8547 0.0
H1539 H 0.50998 0.59912 0.85021 0.0
H1540 H 0.42034 0.53564 0.90249 0.0
H1541 H 0.39003 0.42377 0.85629 0.0
H1542 H 0.43943 0.46086 0.86175 0.0
H1543 H 0.41178 0.47157 0.84741 0.0
C1544 C 0.52672 0.5714 0.88683 0.0
C1545 C 0.53406 0.5942 0.87292 0.0
C1546 C 0.48939 0.53882 0.88943 0.0
C1547 C 0.4595 0.52838 0.87799 0.0
C1548 C 0.46804 0.54935 0.86354 0.0
H1549 H 0.22386 0.44938 0.86103 0.0
H1550 H 0.29507 0.47848 0.86303 0.0
C1551 C 0.50496 0.58198 0.86104 0.0
C1552 C 0.41794 0.50101 0.88203 0.0
H1553 H 0.33342 0.42881 0.86521 0.0
C1554 C 0.40136 0.5114 0.89468 0.0
C1555 C 0.39333 0.46953 0.87181 0.0
C1556 C 0.4097 0.45556 0.85866 0.0
C1557 C 0.3605 0.49339 0.89647 0.0
C1558 C 0.33596 0.46419 0.88539 0.0
C1559 C 0.35251 0.45172 0.87352 0.0
C1560 C 0.2932 0.44852 0.88506 0.0
C1561 C 0.34378 0.50748 0.90943 0.0
C1562 C 0.26892 0.42279 0.897 0.0
C1563 C 0.22822 0.40619 0.89593 0.0
C1564 C 0.21123 0.41502 0.88287 0.0
C1565 C 0.23592 0.44201 0.87126 0.0
C1566 C 0.27657 0.45847 0.87232 0.0
H1567 H 0.367 0.533 0.91612 0.0
H1568 H 0.32316 0.51587 0.90411 0.0
H1569 H 0.32693 0.48335 0.91808 0.0
H1570 H 0.28136 0.41473 0.90688 0.0
H1571 H 0.21007 0.38548 0.90509 0.0
loop_
_geom_bond_atom_site_label_1
_geom_bond_atom_site_label_2
_geom_bond_distance
_geom_bond_site_symmetry_2
_ccdc_geom_bond_type
O0 Zn1 1.953 . S
O0 C16 1.225 . S
Zn1 O0 1.953 . S
Zn1 O2 1.949 . S
Zn1 O8 1.919 . S
Zn1 O13 1.924 . S
O2 Zn1 1.949 . S
O2 Zn3 1.923 . S
O2 Zn4 1.950 . S
O2 Zn5 1.945 . S
Zn3 O2 1.923 . S
Zn3 O6 1.933 . S
Zn3 O9 1.941 . S
Zn3 O10 1.965 . S
Zn4 O2 1.950 . S
Zn4 O11 1.938 . S
Zn4 O12 1.906 . S
Zn4 O22 1.953 . S
Zn5 O2 1.945 . S
Zn5 O7 1.932 . S
Zn5 O14 1.977 . S
Zn5 O15 1.910 . S
O6 Zn3 1.933 . S
O6 C17 1.226 . S
O7 Zn5 1.932 . S
O7 C17 1.307 . S
O8 Zn1 1.919 . S
O8 C19 1.253 . S
O9 Zn3 1.941 . S
O9 C19 1.283 . S
O10 Zn3 1.965 . S
O10 C18 1.303 . S
O11 Zn4 1.938 . S
O11 C18 1.247 . S
O12 Zn4 1.906 . S
O12 C20 1.304 . S
O13 Zn1 1.924 . S
O13 C21 1.311 . S
O14 Zn5 1.977 . S
O14 C20 1.272 . S
O15 Zn5 1.910 . S
O15 C21 1.231 . S
C16 O0 1.225 . S
C16 O22 1.298 . S
C17 O6 1.226 . S
C17 O7 1.307 . S
C18 O10 1.303 . S
C18 O11 1.247 . S
C19 O8 1.253 . S
C19 O9 1.283 . S
C20 O12 1.304 . S
C20 O14 1.272 . S
C21 O13 1.311 . S
C21 O15 1.231 . S
O22 Zn4 1.953 . S
O22 C16 1.298 . S
O23 Zn24 1.953 . S
O23 C39 1.225 . S
Zn24 O23 1.953 . S
Zn24 O25 1.949 . S
Zn24 O31 1.919 . S
Zn24 O36 1.924 . S
O25 Zn24 1.949 . S
O25 Zn26 1.923 . S
O25 Zn27 1.950 . S
O25 Zn28 1.945 . S
Zn26 O25 1.923 . S
Zn26 O29 1.933 . S
Zn26 O32 1.941 . S
Zn26 O33 1.965 . S
Zn27 O25 1.950 . S
Zn27 O34 1.938 . S
Zn27 O35 1.906 . S
Zn27 O45 1.953 . S
Zn28 O25 1.945 . S
Zn28 O30 1.932 . S
Zn28 O37 1.977 . S
Zn28 O38 1.910 . S
O29 Zn26 1.933 . S
O29 C40 1.226 . S
O30 Zn28 1.932 . S
O30 C40 1.307 . S
O31 Zn24 1.919 . S
O31 C42 1.253 . S
O32 Zn26 1.941 . S
O32 C42 1.283 . S
O33 Zn26 1.965 . S
O33 C41 1.303 . S
O34 Zn27 1.938 . S
O34 C41 1.247 . S
O35 Zn27 1.906 . S
O35 C43 1.304 . S
O36 Zn24 1.924 . S
O36 C44 1.311 . S
O37 Zn28 1.977 . S
O37 C43 1.272 . S
O38 Zn28 1.910 . S
O38 C44 1.231 . S
C39 O23 1.225 . S
C39 O45 1.298 . S
C40 O29 1.226 . S
C40 O30 1.307 . S
C41 O33 1.303 . S
C41 O34 1.247 . S
C42 O31 1.253 . S
C42 O32 1.283 . S
C43 O35 1.304 . S
C43 O37 1.272 . S
C44 O36 1.311 . S
C44 O38 1.231 . S
O45 Zn27 1.953 . S
O45 C39 1.298 . S
O46 Zn47 1.953 . S
O46 C62 1.225 . S
Zn47 O46 1.953 . S
Zn47 O48 1.949 . S
Zn47 O54 1.919 . S
Zn47 O59 1.924 . S
O48 Zn47 1.949 . S
O48 Zn49 1.923 . S
O48 Zn50 1.950 . S
O48 Zn51 1.945 . S
Zn49 O48 1.923 . S
Zn49 O52 1.933 . S
Zn49 O55 1.941 . S
Zn49 O56 1.965 . S
Zn50 O48 1.950 . S
Zn50 O57 1.938 . S
Zn50 O58 1.906 . S
Zn50 O68 1.953 . S
Zn51 O48 1.945 . S
Zn51 O53 1.932 . S
Zn51 O60 1.977 . S
Zn51 O61 1.910 . S
O52 Zn49 1.933 . S
O52 C63 1.226 . S
O53 Zn51 1.932 . S
O53 C63 1.307 . S
O54 Zn47 1.919 . S
O54 C65 1.253 . S
O55 Zn49 1.941 . S
O55 C65 1.283 . S
O56 Zn49 1.965 . S
O56 C64 1.303 . S
O57 Zn50 1.938 . S
O57 C64 1.247 . S
O58 Zn50 1.906 . S
O58 C66 1.304 . S
O59 Zn47 1.924 . S
O59 C67 1.311 . S
O60 Zn51 1.977 . S
O60 C66 1.272 . S
O61 Zn51 1.910 . S
O61 C67 1.231 . S
C62 O46 1.225 . S
C62 O68 1.298 . S
C63 O52 1.226 . S
C63 O53 1.307 . S
C64 O56 1.303 . S
C64 O57 1.247 . S
C65 O54 1.253 . S
C65 O55 1.283 . S
C66 O58 1.304 . S
C66 O60 1.272 . S
C67 O59 1.311 . S
C67 O61 1.231 . S
O68 Zn50 1.953 . S
O68 C62 1.298 . S
O69 Zn70 1.953 . S
O69 C85 1.225 . S
Zn70 O69 1.953 . S
Zn70 O71 1.949 . S
Zn70 O77 1.919 . S
Zn70 O82 1.924 . S
O71 Zn70 1.949 . S
O71 Zn72 1.923 . S
O71 Zn73 1.950 . S
O71 Zn74 1.945 . S
Zn72 O71 1.923 . S
Zn72 O75 1.933 . S
Zn72 O78 1.941 . S
Zn72 O79 1.965 . S
Zn73 O71 1.950 . S
Zn73 O80 1.938 . S
Zn73 O81 1.906 . S
Zn73 O91 1.953 . S
Zn74 O71 1.945 . S
Zn74 O76 1.932 . S
Zn74 O83 1.977 . S
Zn74 O84 1.910 . S
O75 Zn72 1.933 . S
O75 C86 1.226 . S
O76 Zn74 1.932 . S
O76 C86 1.307 . S
O77 Zn70 1.919 . S
O77 C88 1.253 . S
O78 Zn72 1.941 . S
O78 C88 1.283 . S
O79 Zn72 1.965 . S
O79 C87 1.303 . S
O80 Zn73 1.938 . S
O80 C87 1.247 . S
O81 Zn73 1.906 . S
O81 C89 1.304 . S
O82 Zn70 1.924 . S
O82 C90 1.311 . S
O83 Zn74 1.977 . S
O83 C89 1.272 . S
O84 Zn74 1.910 . S
O84 C90 1.231 . S
C85 O69 1.225 . S
C85 O91 1.298 . S
C86 O75 1.226 . S
C86 O76 1.307 . S
C87 O79 1.303 . S
C87 O80 1.247 . S
C88 O77 1.253 . S
C88 O78 1.283 . S
C89 O81 1.304 . S
C89 O83 1.272 . S
C90 O82 1.311 . S
C90 O84 1.231 . S
O91 Zn73 1.953 . S
O91 C85 1.298 . S
O92 Zn93 1.953 . S
O92 C108 1.225 . S
Zn93 O92 1.953 . S
Zn93 O94 1.949 . S
Zn93 O100 1.919 . S
Zn93 O105 1.924 . S
O94 Zn93 1.949 . S
O94 Zn95 1.923 . S
O94 Zn96 1.950 . S
O94 Zn97 1.945 . S
Zn95 O94 1.923 . S
Zn95 O98 1.933 . S
Zn95 O101 1.941 . S
Zn95 O102 1.965 . S
Zn96 O94 1.950 . S
Zn96 O103 1.938 . S
Zn96 O104 1.906 . S
Zn96 O114 1.953 . S
Zn97 O94 1.945 . S
Zn97 O99 1.932 . S
Zn97 O106 1.977 . S
Zn97 O107 1.910 . S
O98 Zn95 1.933 . S
O98 C109 1.226 . S
O99 Zn97 1.932 . S
O99 C109 1.307 . S
O100 Zn93 1.919 . S
O100 C111 1.253 . S
O101 Zn95 1.941 . S
O101 C111 1.283 . S
O102 Zn95 1.965 . S
O102 C110 1.303 . S
O103 Zn96 1.938 . S
O103 C110 1.247 . S
O104 Zn96 1.906 . S
O104 C112 1.304 . S
O105 Zn93 1.924 . S
O105 C113 1.311 . S
O106 Zn97 1.977 . S
O106 C112 1.272 . S
O107 Zn97 1.910 . S
O107 C113 1.231 . S
C108 O92 1.225 . S
C108 O114 1.298 . S
C109 O98 1.226 . S
C109 O99 1.307 . S
C110 O102 1.303 . S
C110 O103 1.247 . S
C111 O100 1.253 . S
C111 O101 1.283 . S
C112 O104 1.304 . S
C112 O106 1.272 . S
C113 O105 1.311 . S
C113 O107 1.231 . S
O114 Zn96 1.953 . S
O114 C108 1.298 . S
O115 Zn116 1.953 . S
O115 C131 1.225 . S
Zn116 O115 1.953 . S
Zn116 O117 1.949 . S
Zn116 O123 1.919 . S
Zn116 O128 1.924 . S
O117 Zn116 1.949 . S
O117 Zn118 1.923 . S
O117 Zn119 1.950 . S
O117 Zn120 1.945 . S
Zn118 O117 1.923 . S
Zn118 O121 1.933 . S
Zn118 O124 1.941 . S
Zn118 O125 1.965 . S
Zn119 O117 1.950 . S
Zn119 O126 1.938 . S
Zn119 O127 1.906 . S
Zn119 O137 1.953 . S
Zn120 O117 1.945 . S
Zn120 O122 1.932 . S
Zn120 O129 1.977 . S
Zn120 O130 1.910 . S
O121 Zn118 1.933 . S
O121 C132 1.226 . S
O122 Zn120 1.932 . S
O122 C132 1.307 . S
O123 Zn116 1.919 . S
O123 C134 1.253 . S
O124 Zn118 1.941 . S
O124 C134 1.283 . S
O125 Zn118 1.965 . S
O125 C133 1.303 . S
O126 Zn119 1.938 . S
O126 C133 1.247 . S
O127 Zn119 1.906 . S
O127 C135 1.304 . S
O128 Zn116 1.924 . S
O128 C136 1.311 . S
O129 Zn120 1.977 . S
O129 C135 1.272 . S
O130 Zn120 1.910 . S
O130 C136 1.231 . S
C131 O115 1.225 . S
C131 O137 1.298 . S
C132 O121 1.226 . S
C132 O122 1.307 . S
C133 O125 1.303 . S
C133 O126 1.247 . S
C134 O123 1.253 . S
C134 O124 1.283 . S
C135 O127 1.304 . S
C135 O129 1.272 . S
C136 O128 1.311 . S
C136 O130 1.231 . S
O137 Zn119 1.953 . S
O137 C131 1.298 . S
O138 Zn139 1.953 . S
O138 C154 1.225 . S
Zn139 O138 1.953 . S
Zn139 O140 1.949 . S
Zn139 O146 1.919 . S
Zn139 O151 1.924 . S
O140 Zn139 1.949 . S
O140 Zn141 1.923 . S
O140 Zn142 1.950 . S
O140 Zn143 1.945 . S
Zn141 O140 1.923 . S
Zn141 O144 1.933 . S
Zn141 O147 1.941 . S
Zn141 O148 1.965 . S
Zn142 O140 1.950 . S
Zn142 O149 1.938 . S
Zn142 O150 1.906 . S
Zn142 O160 1.953 . S
Zn143 O140 1.945 . S
Zn143 O145 1.932 . S
Zn143 O152 1.977 . S
Zn143 O153 1.910 . S
O144 Zn141 1.933 . S
O144 C155 1.226 . S
O145 Zn143 1.932 . S
O145 C155 1.307 . S
O146 Zn139 1.919 . S
O146 C157 1.253 . S
O147 Zn141 1.941 . S
O147 C157 1.283 . S
O148 Zn141 1.965 . S
O148 C156 1.303 . S
O149 Zn142 1.938 . S
O149 C156 1.247 . S
O150 Zn142 1.906 . S
O150 C158 1.304 . S
O151 Zn139 1.924 . S
O151 C159 1.311 . S
O152 Zn143 1.977 . S
O152 C158 1.272 . S
O153 Zn143 1.910 . S
O153 C159 1.231 . S
C154 O138 1.225 . S
C154 O160 1.298 . S
C155 O144 1.226 . S
C155 O145 1.307 . S
C156 O148 1.303 . S
C156 O149 1.247 . S
C157 O146 1.253 . S
C157 O147 1.283 . S
C158 O150 1.304 . S
C158 O152 1.272 . S
C159 O151 1.311 . S
C159 O153 1.231 . S
O160 Zn142 1.953 . S
O160 C154 1.298 . S
O161 Zn162 1.953 . S
O161 C177 1.225 . S
Zn162 O161 1.953 . S
Zn162 O163 1.949 . S
Zn162 O169 1.919 . S
Zn162 O174 1.924 . S
O163 Zn162 1.949 . S
O163 Zn164 1.923 . S
O163 Zn165 1.950 . S
O163 Zn166 1.945 . S
Zn164 O163 1.923 . S
Zn164 O167 1.933 . S
Zn164 O170 1.941 . S
Zn164 O171 1.965 . S
Zn165 O163 1.950 . S
Zn165 O172 1.938 . S
Zn165 O173 1.906 . S
Zn165 O183 1.953 . S
Zn166 O163 1.945 . S
Zn166 O168 1.932 . S
Zn166 O175 1.977 . S
Zn166 O176 1.910 . S
O167 Zn164 1.933 . S
O167 C178 1.226 . S
O168 Zn166 1.932 . S
O168 C178 1.307 . S
O169 Zn162 1.919 . S
O169 C180 1.253 . S
O170 Zn164 1.941 . S
O170 C180 1.283 . S
O171 Zn164 1.965 . S
O171 C179 1.303 . S
O172 Zn165 1.938 . S
O172 C179 1.247 . S
O173 Zn165 1.906 . S
O173 C181 1.304 . S
O174 Zn162 1.924 . S
O174 C182 1.311 . S
O175 Zn166 1.977 . S
O175 C181 1.272 . S
O176 Zn166 1.910 . S
O176 C182 1.231 . S
C177 O161 1.225 . S
C177 O183 1.298 . S
C178 O167 1.226 . S
C178 O168 1.307 . S
C179 O171 1.303 . S
C179 O172 1.247 . S
C180 O169 1.253 . S
C180 O170 1.283 . S
C181 O173 1.304 . S
C181 O175 1.272 . S
C182 O174 1.311 . S
C182 O176 1.231 . S
O183 Zn165 1.953 . S
O183 C177 1.298 . S
O184 Zn185 1.953 . S
O184 C200 1.225 . S
Zn185 O184 1.953 . S
Zn185 O186 1.949 . S
Zn185 O192 1.919 . S
Zn185 O197 1.924 . S
O186 Zn185 1.949 . S
O186 Zn187 1.923 . S
O186 Zn188 1.950 . S
O186 Zn189 1.945 . S
Zn187 O186 1.923 . S
Zn187 O190 1.933 . S
Zn187 O193 1.941 . S
Zn187 O194 1.965 . S
Zn188 O186 1.950 . S
Zn188 O195 1.938 . S
Zn188 O196 1.906 . S
Zn188 O206 1.953 . S
Zn189 O186 1.945 . S
Zn189 O191 1.932 . S
Zn189 O198 1.977 . S
Zn189 O199 1.910 . S
O190 Zn187 1.933 . S
O190 C201 1.226 . S
O191 Zn189 1.932 . S
O191 C201 1.307 . S
O192 Zn185 1.919 . S
O192 C203 1.253 . S
O193 Zn187 1.941 . S
O193 C203 1.283 . S
O194 Zn187 1.965 . S
O194 C202 1.303 . S
O195 Zn188 1.938 . S
O195 C202 1.247 . S
O196 Zn188 1.906 . S
O196 C204 1.304 . S
O197 Zn185 1.924 . S
O197 C205 1.311 . S
O198 Zn189 1.977 . S
O198 C204 1.272 . S
O199 Zn189 1.910 . S
O199 C205 1.231 . S
C200 O184 1.225 . S
C200 O206 1.298 . S
C201 O190 1.226 . S
C201 O191 1.307 . S
C202 O194 1.303 . S
C202 O195 1.247 . S
C203 O192 1.253 . S
C203 O193 1.283 . S
C204 O196 1.304 . S
C204 O198 1.272 . S
C205 O197 1.311 . S
C205 O199 1.231 . S
O206 Zn188 1.953 . S
O206 C200 1.298 . S
O207 Zn208 1.953 . S
O207 C223 1.225 . S
Zn208 O207 1.953 . S
Zn208 O209 1.949 . S
Zn208 O215 1.919 . S
Zn208 O220 1.924 . S
O209 Zn208 1.949 . S
O209 Zn210 1.923 . S
O209 Zn211 1.950 . S
O209 Zn212 1.945 . S
Zn210 O209 1.923 . S
Zn210 O213 1.933 . S
Zn210 O216 1.941 . S
Zn210 O217 1.965 . S
Zn211 O209 1.950 . S
Zn211 O218 1.938 . S
Zn211 O219 1.906 . S
Zn211 O229 1.953 . S
Zn212 O209 1.945 . S
Zn212 O214 1.932 . S
Zn212 O221 1.977 . S
Zn212 O222 1.910 . S
O213 Zn210 1.933 . S
O213 C224 1.226 . S
O214 Zn212 1.932 . S
O214 C224 1.307 . S
O215 Zn208 1.919 . S
O215 C226 1.253 . S
O216 Zn210 1.941 . S
O216 C226 1.283 . S
O217 Zn210 1.965 . S
O217 C225 1.303 . S
O218 Zn211 1.938 . S
O218 C225 1.247 . S
O219 Zn211 1.906 . S
O219 C227 1.304 . S
O220 Zn208 1.924 . S
O220 C228 1.311 . S
O221 Zn212 1.977 . S
O221 C227 1.272 . S
O222 Zn212 1.910 . S
O222 C228 1.231 . S
C223 O207 1.225 . S
C223 O229 1.298 . S
C224 O213 1.226 . S
C224 O214 1.307 . S
C225 O217 1.303 . S
C225 O218 1.247 . S
C226 O215 1.253 . S
C226 O216 1.283 . S
C227 O219 1.304 . S
C227 O221 1.272 . S
C228 O220 1.311 . S
C228 O222 1.231 . S
O229 Zn211 1.953 . S
O229 C223 1.298 . S
O230 Zn231 1.953 . S
O230 C246 1.225 . S
Zn231 O230 1.953 . S
Zn231 O232 1.949 . S
Zn231 O238 1.919 . S
Zn231 O243 1.924 . S
O232 Zn231 1.949 . S
O232 Zn233 1.923 . S
O232 Zn234 1.950 . S
O232 Zn235 1.945 . S
Zn233 O232 1.923 . S
Zn233 O236 1.933 . S
Zn233 O239 1.941 . S
Zn233 O240 1.965 . S
Zn234 O232 1.950 . S
Zn234 O241 1.938 . S
Zn234 O242 1.906 . S
Zn234 O252 1.953 . S
Zn235 O232 1.945 . S
Zn235 O237 1.932 . S
Zn235 O244 1.977 . S
Zn235 O245 1.910 . S
O236 Zn233 1.933 . S
O236 C247 1.226 . S
O237 Zn235 1.932 . S
O237 C247 1.307 . S
O238 Zn231 1.919 . S
O238 C249 1.253 . S
O239 Zn233 1.941 . S
O239 C249 1.283 . S
O240 Zn233 1.965 . S
O240 C248 1.303 . S
O241 Zn234 1.938 . S
O241 C248 1.247 . S
O242 Zn234 1.906 . S
O242 C250 1.304 . S
O243 Zn231 1.924 . S
O243 C251 1.311 . S
O244 Zn235 1.977 . S
O244 C250 1.272 . S
O245 Zn235 1.910 . S
O245 C251 1.231 . S
C246 O230 1.225 . S
C246 O252 1.298 . S
C247 O236 1.226 . S
C247 O237 1.307 . S
C248 O240 1.303 . S
C248 O241 1.247 . S
C249 O238 1.253 . S
C249 O239 1.283 . S
C250 O242 1.304 . S
C250 O244 1.272 . S
C251 O243 1.311 . S
C251 O245 1.231 . S
O252 Zn234 1.953 . S
O252 C246 1.298 . S
O253 Zn254 1.953 . S
O253 C269 1.225 . S
Zn254 O253 1.953 . S
Zn254 O255 1.949 . S
Zn254 O261 1.919 . S
Zn254 O266 1.924 . S
O255 Zn254 1.949 . S
O255 Zn256 1.923 . S
O255 Zn257 1.950 . S
O255 Zn258 1.945 . S
Zn256 O255 1.923 . S
Zn256 O259 1.933 . S
Zn256 O262 1.941 . S
Zn256 O263 1.965 . S
Zn257 O255 1.950 . S
Zn257 O264 1.938 . S
Zn257 O265 1.906 . S
Zn257 O275 1.953 . S
Zn258 O255 1.945 . S
Zn258 O260 1.932 . S
Zn258 O267 1.977 . S
Zn258 O268 1.910 . S
O259 Zn256 1.933 . S
O259 C270 1.226 . S
O260 Zn258 1.932 . S
O260 C270 1.307 . S
O261 Zn254 1.919 . S
O261 C272 1.253 . S
O262 Zn256 1.941 . S
O262 C272 1.283 . S
O263 Zn256 1.965 . S
O263 C271 1.303 . S
O264 Zn257 1.938 . S
O264 C271 1.247 . S
O265 Zn257 1.906 . S
O265 C273 1.304 . S
O266 Zn254 1.924 . S
O266 C274 1.311 . S
O267 Zn258 1.977 . S
O267 C273 1.272 . S
O268 Zn258 1.910 . S
O268 C274 1.231 . S
C269 O253 1.225 . S
C269 O275 1.298 . S
C270 O259 1.226 . S
C270 O260 1.307 . S
C271 O263 1.303 . S
C271 O264 1.247 . S
C272 O261 1.253 . S
C272 O262 1.283 . S
C273 O265 1.304 . S
C273 O267 1.272 . S
C274 O266 1.311 . S
C274 O268 1.231 . S
O275 Zn257 1.953 . S
O275 C269 1.298 . S
H276 C284 0.929 . S
H277 C286 0.930 . S
H278 C288 0.930 . S
H279 C291 0.929 . S
H280 C294 0.930 . S
H281 C296 0.960 . S
H282 C296 0.960 . S
H283 C296 0.960 . S
C284 H276 0.929 . S
C284 C285 1.377 . S
C284 C286 1.384 . S
C285 C284 1.377 . S
C285 C291 1.390 . S
C286 H277 0.930 . S
C286 C284 1.384 . S
C286 C287 1.372 . S
C287 C286 1.372 . S
C287 C288 1.400 . S
C287 C292 1.490 . S
C288 H278 0.930 . S
C288 C287 1.400 . S
C288 C291 1.386 . S
H289 C305 0.930 . S
H290 C306 0.931 . S
C291 H279 0.929 . S
C291 C285 1.390 . S
C291 C288 1.386 . S
C292 C287 1.490 . S
C292 C294 1.395 . S
C292 C295 1.403 . S
H293 C299 0.930 . S
C294 H280 0.930 . S
C294 C292 1.395 . S
C294 C297 1.403 . S
C295 C292 1.403 . S
C295 C296 1.524 . S
C295 C299 1.400 . S
C296 H281 0.960 . S
C296 H282 0.960 . S
C296 H283 0.960 . S
C296 C295 1.524 . S
C297 C294 1.403 . S
C297 C298 1.392 . S
C297 C301 1.495 . S
C298 C297 1.392 . S
C298 C299 1.385 . S
C298 C300 1.478 . S
C299 H293 0.930 . S
C299 C295 1.400 . S
C299 C298 1.385 . S
C300 C298 1.478 . S
C300 C302 1.381 . S
C300 C306 1.383 . S
C301 C297 1.495 . S
C301 H307 0.959 . S
C301 H308 0.961 . S
C301 H309 0.960 . S
C302 C300 1.381 . S
C302 C303 1.394 . S
C302 H310 0.930 . S
C303 C302 1.394 . S
C303 C304 1.383 . S
C303 H311 0.929 . S
C304 C303 1.383 . S
C304 C305 1.377 . S
C305 H289 0.930 . S
C305 C304 1.377 . S
C305 C306 1.379 . S
C306 H290 0.931 . S
C306 C300 1.383 . S
C306 C305 1.379 . S
H307 C301 0.959 . S
H308 C301 0.961 . S
H309 C301 0.960 . S
H310 C302 0.930 . S
H311 C303 0.929 . S
H312 C320 0.929 . S
H313 C322 0.930 . S
H314 C324 0.930 . S
H315 C327 0.929 1_545 S
H316 C330 0.930 . S
H317 C332 0.960 . S
H318 C332 0.960 . S
H319 C332 0.960 . S
C320 H312 0.929 . S
C320 C321 1.377 . S
C320 C322 1.384 . S
C321 C320 1.377 . S
C321 C327 1.390 . S
C322 H313 0.930 . S
C322 C320 1.384 . S
C322 C323 1.372 . S
C323 C322 1.372 . S
C323 C324 1.400 . S
C323 C328 1.490 . S
C324 H314 0.930 . S
C324 C323 1.400 . S
C324 C327 1.386 . S
H325 C341 0.930 . S
H326 C342 0.931 . S
C327 H315 0.929 1_565 S
C327 C321 1.390 . S
C327 C324 1.386 . S
C328 C323 1.490 . S
C328 C330 1.395 . S
C328 C331 1.403 . S
H329 C335 0.930 . S
C330 H316 0.930 . S
C330 C328 1.395 . S
C330 C333 1.403 . S
C331 C328 1.403 . S
C331 C332 1.524 . S
C331 C335 1.400 . S
C332 H317 0.960 . S
C332 H318 0.960 . S
C332 H319 0.960 . S
C332 C331 1.524 . S
C333 C330 1.403 . S
C333 C334 1.392 . S
C333 C337 1.495 . S
C334 C333 1.392 . S
C334 C335 1.385 . S
C334 C336 1.478 1_455 S
C335 H329 0.930 . S
C335 C331 1.400 . S
C335 C334 1.385 . S
C336 C334 1.478 1_655 S
C336 C338 1.381 . S
C336 C342 1.383 . S
C337 C333 1.495 . S
C337 H343 0.959 . S
C337 H344 0.961 . S
C337 H345 0.960 . S
C338 C336 1.381 . S
C338 C339 1.394 . S
C338 H346 0.930 . S
C339 C338 1.394 . S
C339 C340 1.383 . S
C339 H347 0.929 . S
C340 C339 1.383 . S
C340 C341 1.377 . S
C341 H325 0.930 . S
C341 C340 1.377 . S
C341 C342 1.379 . S
C342 H326 0.931 . S
C342 C336 1.383 . S
C342 C341 1.379 . S
H343 C337 0.959 . S
H344 C337 0.961 . S
H345 C337 0.960 . S
H346 C338 0.930 . S
H347 C339 0.929 . S
H348 C356 0.929 . S
H349 C358 0.930 . S
H350 C360 0.930 . S
H351 C363 0.929 . S
H352 C366 0.930 . S
H353 C368 0.960 . S
H354 C368 0.960 . S
H355 C368 0.960 . S
C356 H348 0.929 . S
C356 C357 1.377 . S
C356 C358 1.384 . S
C357 C356 1.377 . S
C357 C363 1.390 . S
C358 H349 0.930 . S
C358 C356 1.384 . S
C358 C359 1.372 . S
C359 C358 1.372 . S
C359 C360 1.400 . S
C359 C364 1.490 1_545 S
C360 H350 0.930 . S
C360 C359 1.400 . S
C360 C363 1.386 . S
H361 C377 0.930 . S
H362 C378 0.931 . S
C363 H351 0.929 . S
C363 C357 1.390 . S
C363 C360 1.386 . S
C364 C359 1.490 1_565 S
C364 C366 1.395 . S
C364 C367 1.403 . S
H365 C371 0.930 . S
C366 H352 0.930 . S
C366 C364 1.395 . S
C366 C369 1.403 . S
C367 C364 1.403 . S
C367 C368 1.524 . S
C367 C371 1.400 . S
C368 H353 0.960 . S
C368 H354 0.960 . S
C368 H355 0.960 . S
C368 C367 1.524 . S
C369 C366 1.403 . S
C369 C370 1.392 . S
C369 C373 1.495 . S
C370 C369 1.392 . S
C370 C371 1.385 . S
C370 C372 1.478 . S
C371 H365 0.930 . S
C371 C367 1.400 . S
C371 C370 1.385 . S
C372 C370 1.478 . S
C372 C374 1.381 . S
C372 C378 1.383 . S
C373 C369 1.495 . S
C373 H379 0.959 . S
C373 H380 0.961 . S
C373 H381 0.960 . S
C374 C372 1.381 . S
C374 C375 1.394 . S
C374 H382 0.930 . S
C375 C374 1.394 . S
C375 C376 1.383 . S
C375 H383 0.929 . S
C376 C375 1.383 . S
C376 C377 1.377 . S
C377 H361 0.930 . S
C377 C376 1.377 . S
C377 C378 1.379 . S
C378 H362 0.931 . S
C378 C372 1.383 . S
C378 C377 1.379 . S
H379 C373 0.959 . S
H380 C373 0.961 . S
H381 C373 0.960 . S
H382 C374 0.930 . S
H383 C375 0.929 . S
H384 C392 0.929 . S
H385 C394 0.930 . S
H386 C396 0.930 . S
H387 C399 0.929 . S
H388 C402 0.930 . S
H389 C404 0.960 . S
H390 C404 0.960 . S
H391 C404 0.960 . S
C392 H384 0.929 . S
C392 C393 1.377 . S
C392 C394 1.384 . S
C393 C392 1.377 . S
C393 C399 1.390 . S
C394 H385 0.930 . S
C394 C392 1.384 . S
C394 C395 1.372 . S
C395 C394 1.372 . S
C395 C396 1.400 . S
C395 C400 1.490 . S
C396 H386 0.930 . S
C396 C395 1.400 . S
C396 C399 1.386 . S
H397 C413 0.930 . S
H398 C414 0.931 . S
C399 H387 0.929 . S
C399 C393 1.390 . S
C399 C396 1.386 . S
C400 C395 1.490 . S
C400 C402 1.395 . S
C400 C403 1.403 . S
H401 C407 0.930 . S
C402 H388 0.930 . S
C402 C400 1.395 . S
C402 C405 1.403 . S
C403 C400 1.403 . S
C403 C404 1.524 . S
C403 C407 1.400 . S
C404 H389 0.960 . S
C404 H390 0.960 . S
C404 H391 0.960 . S
C404 C403 1.524 . S
C405 C402 1.403 . S
C405 C406 1.392 . S
C405 C409 1.495 . S
C406 C405 1.392 . S
C406 C407 1.385 . S
C406 C408 1.478 . S
C407 H401 0.930 . S
C407 C403 1.400 . S
C407 C406 1.385 . S
C408 C406 1.478 . S
C408 C410 1.381 . S
C408 C414 1.383 . S
C409 C405 1.495 . S
C409 H415 0.959 . S
C409 H416 0.961 . S
C409 H417 0.960 . S
C410 C408 1.381 . S
C410 C411 1.394 . S
C410 H418 0.930 . S
C411 C410 1.394 . S
C411 C412 1.383 . S
C411 H419 0.929 . S
C412 C411 1.383 . S
C412 C413 1.377 . S
C413 H397 0.930 . S
C413 C412 1.377 . S
C413 C414 1.379 . S
C414 H398 0.931 . S
C414 C408 1.383 . S
C414 C413 1.379 . S
H415 C409 0.959 . S
H416 C409 0.961 . S
H417 C409 0.960 . S
H418 C410 0.930 . S
H419 C411 0.929 . S
H420 C428 0.929 . S
H421 C430 0.930 . S
H422 C432 0.930 . S
H423 C435 0.929 . S
H424 C438 0.930 . S
H425 C440 0.960 . S
H426 C440 0.960 . S
H427 C440 0.960 . S
C428 H420 0.929 . S
C428 C429 1.377 . S
C428 C430 1.384 . S
C429 C428 1.377 . S
C429 C435 1.390 . S
C430 H421 0.930 . S
C430 C428 1.384 . S
C430 C431 1.372 . S
C431 C430 1.372 . S
C431 C432 1.400 . S
C431 C436 1.490 . S
C432 H422 0.930 . S
C432 C431 1.400 . S
C432 C435 1.386 . S
H433 C449 0.930 . S
H434 C450 0.931 . S
C435 H423 0.929 . S
C435 C429 1.390 . S
C435 C432 1.386 . S
C436 C431 1.490 . S
C436 C438 1.395 . S
C436 C439 1.403 . S
H437 C443 0.930 . S
C438 H424 0.930 . S
C438 C436 1.395 . S
C438 C441 1.403 . S
C439 C436 1.403 . S
C439 C440 1.524 . S
C439 C443 1.400 . S
C440 H425 0.960 . S
C440 H426 0.960 . S
C440 H427 0.960 . S
C440 C439 1.524 . S
C441 C438 1.403 . S
C441 C442 1.392 . S
C441 C445 1.495 . S
C442 C441 1.392 . S
C442 C443 1.385 . S
C442 C444 1.478 1_455 S
C443 H437 0.930 . S
C443 C439 1.400 . S
C443 C442 1.385 . S
C444 C442 1.478 1_655 S
C444 C446 1.381 . S
C444 C450 1.383 . S
C445 C441 1.495 . S
C445 H451 0.959 . S
C445 H452 0.961 1_455 S
C445 H453 0.960 1_455 S
C446 C444 1.381 . S
C446 C447 1.394 . S
C446 H454 0.930 . S
C447 C446 1.394 . S
C447 C448 1.383 . S
C447 H455 0.929 . S
C448 C447 1.383 . S
C448 C449 1.377 . S
C449 H433 0.930 . S
C449 C448 1.377 . S
C449 C450 1.379 . S
C450 H434 0.931 . S
C450 C444 1.383 . S
C450 C449 1.379 . S
H451 C445 0.959 . S
H452 C445 0.961 1_655 S
H453 C445 0.960 1_655 S
H454 C446 0.930 . S
H455 C447 0.929 . S
H456 C464 0.929 . S
H457 C466 0.930 . S
H458 C468 0.930 . S
H459 C471 0.929 . S
H460 C474 0.930 . S
H461 C476 0.960 . S
H462 C476 0.960 . S
H463 C476 0.960 . S
C464 H456 0.929 . S
C464 C465 1.377 . S
C464 C466 1.384 . S
C465 C464 1.377 . S
C465 C471 1.390 . S
C466 H457 0.930 . S
C466 C464 1.384 . S
C466 C467 1.372 . S
C467 C466 1.372 . S
C467 C468 1.400 . S
C467 C472 1.490 . S
C468 H458 0.930 . S
C468 C467 1.400 . S
C468 C471 1.386 . S
H469 C485 0.930 . S
H470 C486 0.931 . S
C471 H459 0.929 . S
C471 C465 1.390 . S
C471 C468 1.386 . S
C472 C467 1.490 . S
C472 C474 1.395 . S
C472 C475 1.403 . S
H473 C479 0.930 . S
C474 H460 0.930 . S
C474 C472 1.395 . S
C474 C477 1.403 . S
C475 C472 1.403 . S
C475 C476 1.524 . S
C475 C479 1.400 . S
C476 H461 0.960 . S
C476 H462 0.960 . S
C476 H463 0.960 . S
C476 C475 1.524 . S
C477 C474 1.403 . S
C477 C478 1.392 . S
C477 C481 1.495 . S
C478 C477 1.392 . S
C478 C479 1.385 . S
C478 C480 1.478 1_565 S
C479 H473 0.930 . S
C479 C475 1.400 . S
C479 C478 1.385 . S
C480 C478 1.478 1_545 S
C480 C482 1.381 . S
C480 C486 1.383 . S
C481 C477 1.495 . S
C481 H487 0.959 . S
C481 H488 0.961 1_565 S
C481 H489 0.960 1_565 S
C482 C480 1.381 . S
C482 C483 1.394 . S
C482 H490 0.930 . S
C483 C482 1.394 . S
C483 C484 1.383 . S
C483 H491 0.929 . S
C484 C483 1.383 . S
C484 C485 1.377 . S
C485 H469 0.930 . S
C485 C484 1.377 . S
C485 C486 1.379 . S
C486 H470 0.931 . S
C486 C480 1.383 . S
C486 C485 1.379 . S
H487 C481 0.959 . S
H488 C481 0.961 1_545 S
H489 C481 0.960 1_545 S
H490 C482 0.930 . S
H491 C483 0.929 . S
H492 C500 0.929 1_565 S
H493 C502 0.930 . S
H494 C504 0.930 . S
H495 C507 0.929 . S
H496 C510 0.930 . S
H497 C512 0.960 . S
H498 C512 0.960 . S
H499 C512 0.960 . S
C500 H492 0.929 1_545 S
C500 C501 1.377 . S
C500 C502 1.384 . S
C501 C500 1.377 . S
C501 C507 1.390 . S
C502 H493 0.930 . S
C502 C500 1.384 . S
C502 C503 1.372 . S
C503 C502 1.372 . S
C503 C504 1.400 . S
C503 C508 1.490 . S
C504 H494 0.930 . S
C504 C503 1.400 . S
C504 C507 1.386 . S
H505 C521 0.930 . S
H506 C522 0.931 . S
C507 H495 0.929 . S
C507 C501 1.390 . S
C507 C504 1.386 . S
C508 C503 1.490 . S
C508 C510 1.395 . S
C508 C511 1.403 . S
H509 C515 0.930 . S
C510 H496 0.930 . S
C510 C508 1.395 . S
C510 C513 1.403 . S
C511 C508 1.403 . S
C511 C512 1.524 . S
C511 C515 1.400 . S
C512 H497 0.960 . S
C512 H498 0.960 . S
C512 H499 0.960 . S
C512 C511 1.524 . S
C513 C510 1.403 . S
C513 C514 1.392 . S
C513 C517 1.495 . S
C514 C513 1.392 . S
C514 C515 1.385 . S
C514 C516 1.478 . S
C515 H509 0.930 . S
C515 C511 1.400 . S
C515 C514 1.385 . S
C516 C514 1.478 . S
C516 C518 1.381 . S
C516 C522 1.383 . S
C517 C513 1.495 . S
C517 H523 0.959 . S
C517 H524 0.961 . S
C517 H525 0.960 . S
C518 C516 1.381 . S
C518 C519 1.394 . S
C518 H526 0.930 . S
C519 C518 1.394 . S
C519 C520 1.383 . S
C519 H527 0.929 . S
C520 C519 1.383 . S
C520 C521 1.377 . S
C521 H505 0.930 . S
C521 C520 1.377 . S
C521 C522 1.379 . S
C522 H506 0.931 . S
C522 C516 1.383 . S
C522 C521 1.379 . S
H523 C517 0.959 . S
H524 C517 0.961 . S
H525 C517 0.960 . S
H526 C518 0.930 . S
H527 C519 0.929 . S
H528 C536 0.929 . S
H529 C538 0.930 . S
H530 C540 0.930 . S
H531 C543 0.929 . S
H532 C546 0.930 . S
H533 C548 0.960 . S
H534 C548 0.960 . S
H535 C548 0.968 . S
C536 H528 0.929 . S
C536 C537 1.377 . S
C536 C538 1.384 . S
C537 C536 1.377 . S
C537 C543 1.390 . S
C538 H529 0.930 . S
C538 C536 1.384 . S
C538 C539 1.372 . S
C539 C538 1.372 . S
C539 C540 1.400 . S
C539 C544 1.490 1_455 S
C540 H530 0.930 . S
C540 C539 1.400 . S
C540 C543 1.386 . S
H541 C557 0.930 . S
H542 C558 0.931 . S
C543 H531 0.929 . S
C543 C537 1.390 . S
C543 C540 1.386 . S
C544 C539 1.490 1_655 S
C544 C546 1.395 . S
C544 C547 1.403 . S
H545 C551 0.930 . S
C546 H532 0.930 . S
C546 C544 1.395 . S
C546 C549 1.403 . S
C547 C544 1.403 . S
C547 C548 1.524 . S
C547 C551 1.400 . S
C548 H533 0.960 . S
C548 H534 0.960 . S
C548 H535 0.968 . S
C548 C547 1.524 . S
C549 C546 1.403 . S
C549 C550 1.392 . S
C549 C553 1.495 . S
C550 C549 1.392 . S
C550 C551 1.385 . S
C550 C552 1.478 . S
C551 H545 0.930 . S
C551 C547 1.400 . S
C551 C550 1.385 . S
C552 C550 1.478 . S
C552 C554 1.381 . S
C552 C558 1.383 . S
C553 C549 1.495 . S
C553 H559 0.959 . S
C553 H560 0.961 . S
C553 H561 0.960 . S
C554 C552 1.381 . S
C554 C555 1.394 . S
C554 H562 0.930 . S
C555 C554 1.394 . S
C555 C556 1.383 . S
C555 H563 0.929 . S
C556 C555 1.383 . S
C556 C557 1.377 . S
C557 H541 0.930 . S
C557 C556 1.377 . S
C557 C558 1.379 . S
C558 H542 0.931 . S
C558 C552 1.383 . S
C558 C557 1.379 . S
H559 C553 0.959 . S
H560 C553 0.961 . S
H561 C553 0.960 . S
H562 C554 0.930 . S
H563 C555 0.929 . S
H564 C572 0.929 . S
H565 C574 0.930 . S
H566 C576 0.930 . S
H567 C579 0.929 . S
H568 C582 0.930 . S
H569 C584 0.960 . S
H570 C584 0.960 . S
H571 C584 0.938 1_565 S
C572 H564 0.929 . S
C572 C573 1.377 . S
C572 C574 1.384 . S
C573 C572 1.377 . S
C573 C579 1.390 . S
C574 H565 0.930 . S
C574 C572 1.384 . S
C574 C575 1.372 . S
C575 C574 1.372 . S
C575 C576 1.400 . S
C575 C580 1.490 1_565 S
C576 H566 0.930 . S
C576 C575 1.400 . S
C576 C579 1.386 . S
H577 C593 0.930 1_455 S
H578 C594 0.931 . S
C579 H567 0.929 . S
C579 C573 1.390 . S
C579 C576 1.386 . S
C580 C575 1.490 1_545 S
C580 C582 1.395 . S
C580 C583 1.403 . S
H581 C587 0.930 . S
C582 H568 0.930 . S
C582 C580 1.395 . S
C582 C585 1.403 . S
C583 C580 1.403 . S
C583 C584 1.524 . S
C583 C587 1.400 . S
C584 H569 0.960 . S
C584 H570 0.960 . S
C584 H571 0.938 1_545 S
C584 C583 1.524 . S
C585 C582 1.403 . S
C585 C586 1.392 . S
C585 C589 1.495 . S
C586 C585 1.392 . S
C586 C587 1.385 . S
C586 C588 1.478 . S
C587 H581 0.930 . S
C587 C583 1.400 . S
C587 C586 1.385 . S
C588 C586 1.478 . S
C588 C590 1.381 . S
C588 C594 1.383 . S
C589 C585 1.495 . S
C589 H595 0.959 . S
C589 H596 0.961 . S
C589 H597 0.960 . S
C590 C588 1.381 . S
C590 C591 1.394 . S
C590 H598 0.930 . S
C591 C590 1.394 . S
C591 C592 1.383 . S
C591 H599 0.929 . S
C592 C591 1.383 . S
C592 C593 1.377 . S
C593 H577 0.930 1_655 S
C593 C592 1.377 . S
C593 C594 1.379 . S
C594 H578 0.931 . S
C594 C588 1.383 . S
C594 C593 1.379 . S
H595 C589 0.959 . S
H596 C589 0.961 . S
H597 C589 0.960 . S
H598 C590 0.930 . S
H599 C591 0.929 . S
H600 C608 0.929 . S
H601 C610 0.930 . S
H602 C612 0.930 . S
H603 C615 0.929 . S
H604 C618 0.930 . S
H605 C620 0.960 . S
H606 C620 0.960 . S
H607 C620 0.960 . S
C608 H600 0.929 . S
C608 C609 1.377 . S
C608 C610 1.384 . S
C609 C608 1.377 . S
C609 C615 1.390 . S
C610 H601 0.930 . S
C610 C608 1.384 . S
C610 C611 1.372 . S
C611 C610 1.372 . S
C611 C612 1.400 . S
C611 C616 1.490 . S
C612 H602 0.930 . S
C612 C611 1.400 . S
C612 C615 1.386 . S
H613 C629 0.930 . S
H614 C630 0.931 . S
C615 H603 0.929 . S
C615 C609 1.390 . S
C615 C612 1.386 . S
C616 C611 1.490 . S
C616 C618 1.395 . S
C616 C619 1.403 . S
H617 C623 0.930 . S
C618 H604 0.930 . S
C618 C616 1.395 . S
C618 C621 1.403 . S
C619 C616 1.403 . S
C619 C620 1.524 . S
C619 C623 1.400 . S
C620 H605 0.960 . S
C620 H606 0.960 . S
C620 H607 0.960 . S
C620 C619 1.524 . S
C621 C618 1.403 . S
C621 C622 1.392 . S
C621 C625 1.495 . S
C622 C621 1.392 . S
C622 C623 1.385 . S
C622 C624 1.478 . S
C623 H617 0.930 . S
C623 C619 1.400 . S
C623 C622 1.385 . S
C624 C622 1.478 . S
C624 C626 1.381 . S
C624 C630 1.383 . S
C625 C621 1.495 . S
C625 H631 0.959 . S
C625 H632 0.961 . S
C625 H633 0.960 . S
C626 C624 1.381 . S
C626 C627 1.394 . S
C626 H634 0.930 . S
C627 C626 1.394 . S
C627 C628 1.383 . S
C627 H635 0.929 . S
C628 C627 1.383 . S
C628 C629 1.377 . S
C629 H613 0.930 . S
C629 C628 1.377 . S
C629 C630 1.379 . S
C630 H614 0.931 . S
C630 C624 1.383 . S
C630 C629 1.379 . S
H631 C625 0.959 . S
H632 C625 0.961 . S
H633 C625 0.960 . S
H634 C626 0.930 . S
H635 C627 0.929 . S
H636 C644 0.929 . S
H637 C646 0.930 . S
H638 C648 0.931 . S
H639 C651 0.929 . S
H640 C654 0.930 . S
H641 C656 0.960 . S
H642 C656 0.960 . S
H643 C656 0.960 . S
C644 H636 0.929 . S
C644 C645 1.377 . S
C644 C646 1.384 . S
C645 C644 1.377 . S
C645 C651 1.390 . S
C646 H637 0.930 . S
C646 C644 1.384 . S
C646 C647 1.372 . S
C647 C646 1.372 . S
C647 C648 1.400 . S
C647 C652 1.490 1_455 S
C648 H638 0.931 . S
C648 C647 1.400 . S
C648 C651 1.386 . S
H649 C665 0.930 . S
H650 C666 0.931 . S
C651 H639 0.929 . S
C651 C645 1.390 . S
C651 C648 1.386 . S
C652 C647 1.490 1_655 S
C652 C654 1.395 . S
C652 C655 1.403 . S
H653 C659 0.930 . S
C654 H640 0.930 . S
C654 C652 1.395 . S
C654 C657 1.403 . S
C655 C652 1.403 . S
C655 C656 1.524 . S
C655 C659 1.400 . S
C656 H641 0.960 . S
C656 H642 0.960 . S
C656 H643 0.960 . S
C656 C655 1.524 . S
C657 C654 1.403 . S
C657 C658 1.392 . S
C657 C661 1.495 . S
C658 C657 1.392 . S
C658 C659 1.385 . S
C658 C660 1.478 . S
C659 H653 0.930 . S
C659 C655 1.400 . S
C659 C658 1.385 . S
C660 C658 1.478 . S
C660 C662 1.381 . S
C660 C666 1.383 . S
C661 C657 1.495 . S
C661 H667 0.959 . S
C661 H668 0.961 . S
C661 H669 0.960 . S
C662 C660 1.381 . S
C662 C663 1.394 . S
C662 H670 0.930 . S
C663 C662 1.394 . S
C663 C664 1.383 . S
C663 H671 0.929 . S
C664 C663 1.383 . S
C664 C665 1.377 . S
C665 H649 0.930 . S
C665 C664 1.377 . S
C665 C666 1.379 . S
C666 H650 0.931 . S
C666 C660 1.383 . S
C666 C665 1.379 . S
H667 C661 0.959 . S
H668 C661 0.961 . S
H669 C661 0.960 . S
H670 C662 0.930 . S
H671 C663 0.929 . S
H672 C680 0.929 . S
H673 C682 0.930 . S
H674 C684 0.930 . S
H675 C687 0.929 1_455 S
H676 C690 0.930 . S
H677 C692 0.960 . S
H678 C692 0.960 . S
H679 C692 0.960 . S
C680 H672 0.929 . S
C680 C681 1.377 . S
C680 C682 1.384 . S
C681 C680 1.377 . S
C681 C687 1.390 . S
C682 H673 0.930 . S
C682 C680 1.384 . S
C682 C683 1.372 . S
C683 C682 1.372 . S
C683 C684 1.400 . S
C683 C688 1.490 . S
C684 H674 0.930 . S
C684 C683 1.400 . S
C684 C687 1.386 . S
H685 C701 0.930 . S
H686 C702 0.931 . S
C687 H675 0.929 1_655 S
C687 C681 1.390 . S
C687 C684 1.386 . S
C688 C683 1.490 . S
C688 C690 1.395 . S
C688 C691 1.403 . S
H689 C695 0.930 . S
C690 H676 0.930 . S
C690 C688 1.395 . S
C690 C693 1.403 . S
C691 C688 1.403 . S
C691 C692 1.524 . S
C691 C695 1.400 . S
C692 H677 0.960 . S
C692 H678 0.960 . S
C692 H679 0.960 . S
C692 C691 1.524 . S
C693 C690 1.403 . S
C693 C694 1.392 . S
C693 C697 1.495 . S
C694 C693 1.392 . S
C694 C695 1.385 . S
C694 C696 1.478 1_545 S
C695 H689 0.930 . S
C695 C691 1.400 . S
C695 C694 1.385 . S
C696 C694 1.478 1_565 S
C696 C698 1.381 . S
C696 C702 1.383 . S
C697 C693 1.495 . S
C697 H703 0.959 . S
C697 H704 0.961 . S
C697 H705 0.960 . S
C698 C696 1.381 . S
C698 C699 1.394 . S
C698 H706 0.930 . S
C699 C698 1.394 . S
C699 C700 1.383 . S
C699 H707 0.929 . S
C700 C699 1.383 . S
C700 C701 1.377 . S
C701 H685 0.930 . S
C701 C700 1.377 . S
C701 C702 1.379 . S
C702 H686 0.931 . S
C702 C696 1.383 . S
C702 C701 1.379 . S
H703 C697 0.959 . S
H704 C697 0.961 . S
H705 C697 0.960 . S
H706 C698 0.930 . S
H707 C699 0.929 . S
H708 C716 0.929 . S
H709 C718 0.930 . S
H710 C720 0.930 . S
H711 C723 0.929 . S
H712 C726 0.930 . S
H713 C728 0.960 . S
H714 C728 0.960 . S
H715 C728 0.960 . S
C716 H708 0.929 . S
C716 C717 1.377 . S
C716 C718 1.384 . S
C717 C716 1.377 . S
C717 C723 1.390 . S
C718 H709 0.930 . S
C718 C716 1.384 . S
C718 C719 1.372 . S
C719 C718 1.372 . S
C719 C720 1.400 . S
C719 C724 1.490 . S
C720 H710 0.930 . S
C720 C719 1.400 . S
C720 C723 1.386 . S
H721 C737 0.930 . S
H722 C738 0.931 . S
C723 H711 0.929 . S
C723 C717 1.390 . S
C723 C720 1.386 . S
C724 C719 1.490 . S
C724 C726 1.395 . S
C724 C727 1.403 . S
H725 C731 0.930 . S
C726 H712 0.930 . S
C726 C724 1.395 . S
C726 C729 1.403 . S
C727 C724 1.403 . S
C727 C728 1.524 . S
C727 C731 1.400 . S
C728 H713 0.960 . S
C728 H714 0.960 . S
C728 H715 0.960 . S
C728 C727 1.524 . S
C729 C726 1.403 . S
C729 C730 1.392 . S
C729 C733 1.495 . S
C730 C729 1.392 . S
C730 C731 1.385 . S
C730 C732 1.478 . S
C731 H725 0.930 . S
C731 C727 1.400 . S
C731 C730 1.385 . S
C732 C730 1.478 . S
C732 C734 1.381 . S
C732 C738 1.383 . S
C733 C729 1.495 . S
C733 H739 0.959 . S
C733 H740 0.961 . S
C733 H741 0.960 . S
C734 C732 1.381 . S
C734 C735 1.394 . S
C734 H742 0.930 . S
C735 C734 1.394 . S
C735 C736 1.383 . S
C735 H743 0.929 . S
C736 C735 1.383 . S
C736 C737 1.377 . S
C737 H721 0.930 . S
C737 C736 1.377 . S
C737 C738 1.379 . S
C738 H722 0.931 . S
C738 C732 1.383 . S
C738 C737 1.379 . S
H739 C733 0.959 . S
H740 C733 0.961 . S
H741 C733 0.960 . S
H742 C734 0.930 . S
H743 C735 0.929 . S
H744 C752 0.929 . S
H745 C754 0.930 . S
H746 C756 0.930 . S
H747 C759 0.929 . S
H748 C762 0.930 . S
H749 C764 0.960 . S
H750 C764 0.960 . S
H751 C764 0.960 . S
C752 H744 0.929 . S
C752 C753 1.377 . S
C752 C754 1.384 . S
C753 C752 1.377 . S
C753 C759 1.390 . S
C754 H745 0.930 . S
C754 C752 1.384 . S
C754 C755 1.372 . S
C755 C754 1.372 . S
C755 C756 1.400 . S
C755 C760 1.490 . S
C756 H746 0.930 . S
C756 C755 1.400 . S
C756 C759 1.386 . S
H757 C773 0.930 . S
H758 C774 0.931 . S
C759 H747 0.929 . S
C759 C753 1.390 . S
C759 C756 1.386 . S
C760 C755 1.490 . S
C760 C762 1.395 . S
C760 C763 1.403 . S
H761 C767 0.930 . S
C762 H748 0.930 . S
C762 C760 1.395 . S
C762 C765 1.403 . S
C763 C760 1.403 . S
C763 C764 1.524 . S
C763 C767 1.400 . S
C764 H749 0.960 . S
C764 H750 0.960 . S
C764 H751 0.960 . S
C764 C763 1.524 . S
C765 C762 1.403 . S
C765 C766 1.392 . S
C765 C769 1.495 . S
C766 C765 1.392 . S
C766 C767 1.385 . S
C766 C768 1.478 . S
C767 H761 0.930 . S
C767 C763 1.400 . S
C767 C766 1.385 . S
C768 C766 1.478 . S
C768 C770 1.381 . S
C768 C774 1.383 . S
C769 C765 1.495 . S
C769 H775 0.959 . S
C769 H776 0.961 . S
C769 H777 0.960 . S
C770 C768 1.381 . S
C770 C771 1.394 . S
C770 H778 0.930 . S
C771 C770 1.394 . S
C771 C772 1.383 . S
C771 H779 0.929 . S
C772 C771 1.383 . S
C772 C773 1.377 . S
C773 H757 0.930 . S
C773 C772 1.377 . S
C773 C774 1.379 . S
C774 H758 0.931 . S
C774 C768 1.383 . S
C774 C773 1.379 . S
H775 C769 0.959 . S
H776 C769 0.961 . S
H777 C769 0.960 . S
H778 C770 0.930 . S
H779 C771 0.929 . S
H780 C788 0.929 . S
H781 C790 0.930 . S
H782 C792 0.930 . S
H783 C795 0.929 . S
H784 C798 0.930 . S
H785 C800 0.960 . S
H786 C800 0.960 . S
H787 C800 0.960 . S
C788 H780 0.929 . S
C788 C789 1.377 . S
C788 C790 1.384 . S
C789 C788 1.377 . S
C789 C795 1.390 . S
C790 H781 0.930 . S
C790 C788 1.384 . S
C790 C791 1.372 . S
C791 C790 1.372 . S
C791 C792 1.400 . S
C791 C796 1.490 . S
C792 H782 0.930 . S
C792 C791 1.400 . S
C792 C795 1.386 . S
H793 C809 0.930 . S
H794 C810 0.931 . S
C795 H783 0.929 . S
C795 C789 1.390 . S
C795 C792 1.386 . S
C796 C791 1.490 . S
C796 C798 1.395 . S
C796 C799 1.403 . S
H797 C803 0.930 . S
C798 H784 0.930 . S
C798 C796 1.395 . S
C798 C801 1.403 . S
C799 C796 1.403 . S
C799 C800 1.524 . S
C799 C803 1.400 . S
C800 H785 0.960 . S
C800 H786 0.960 . S
C800 H787 0.960 . S
C800 C799 1.524 . S
C801 C798 1.403 . S
C801 C802 1.392 . S
C801 C805 1.495 . S
C802 C801 1.392 . S
C802 C803 1.385 . S
C802 C804 1.478 . S
C803 H797 0.930 . S
C803 C799 1.400 . S
C803 C802 1.385 . S
C804 C802 1.478 . S
C804 C806 1.381 . S
C804 C810 1.383 . S
C805 C801 1.495 . S
C805 H811 0.959 . S
C805 H812 0.961 . S
C805 H813 0.960 . S
C806 C804 1.381 . S
C806 C807 1.394 . S
C806 H814 0.930 . S
C807 C806 1.394 . S
C807 C808 1.383 . S
C807 H815 0.929 . S
C808 C807 1.383 . S
C808 C809 1.377 . S
C809 H793 0.930 . S
C809 C808 1.377 . S
C809 C810 1.379 . S
C810 H794 0.931 . S
C810 C804 1.383 . S
C810 C809 1.379 . S
H811 C805 0.959 . S
H812 C805 0.961 . S
H813 C805 0.960 . S
H814 C806 0.930 . S
H815 C807 0.929 . S
H816 C824 0.929 . S
H817 C826 0.930 . S
H818 C828 0.930 . S
H819 C831 0.929 . S
H820 C834 0.930 . S
H821 C836 0.960 . S
H822 C836 0.960 . S
H823 C836 0.960 . S
C824 H816 0.929 . S
C824 C825 1.377 . S
C824 C826 1.384 . S
C825 C824 1.377 . S
C825 C831 1.390 . S
C826 H817 0.930 . S
C826 C824 1.384 . S
C826 C827 1.372 . S
C827 C826 1.372 . S
C827 C828 1.400 . S
C827 C832 1.490 . S
C828 H818 0.930 . S
C828 C827 1.400 . S
C828 C831 1.386 . S
H829 C845 0.930 . S
H830 C846 0.931 . S
C831 H819 0.929 . S
C831 C825 1.390 . S
C831 C828 1.386 . S
C832 C827 1.490 . S
C832 C834 1.395 . S
C832 C835 1.403 . S
H833 C839 0.930 . S
C834 H820 0.930 . S
C834 C832 1.395 . S
C834 C837 1.403 . S
C835 C832 1.403 . S
C835 C836 1.524 . S
C835 C839 1.400 . S
C836 H821 0.960 . S
C836 H822 0.960 . S
C836 H823 0.960 . S
C836 C835 1.524 . S
C837 C834 1.403 . S
C837 C838 1.392 . S
C837 C841 1.495 . S
C838 C837 1.392 . S
C838 C839 1.385 . S
C838 C840 1.478 . S
C839 H833 0.930 . S
C839 C835 1.400 . S
C839 C838 1.385 . S
C840 C838 1.478 . S
C840 C842 1.381 . S
C840 C846 1.383 . S
C841 C837 1.495 . S
C841 H847 0.959 . S
C841 H848 0.961 . S
C841 H849 0.960 . S
C842 C840 1.381 . S
C842 C843 1.394 . S
C842 H850 0.930 . S
C843 C842 1.394 . S
C843 C844 1.383 . S
C843 H851 0.929 . S
C844 C843 1.383 . S
C844 C845 1.377 . S
C845 H829 0.930 . S
C845 C844 1.377 . S
C845 C846 1.379 . S
C846 H830 0.931 . S
C846 C840 1.383 . S
C846 C845 1.379 . S
H847 C841 0.959 . S
H848 C841 0.961 . S
H849 C841 0.960 . S
H850 C842 0.930 . S
H851 C843 0.929 . S
H852 C860 0.929 . S
H853 C862 0.930 . S
H854 C864 0.930 . S
H855 C867 0.929 . S
H856 C870 0.930 . S
H857 C872 0.960 . S
H858 C872 0.960 . S
H859 C872 0.960 . S
C860 H852 0.929 . S
C860 C861 1.377 . S
C860 C862 1.384 . S
C861 C860 1.377 . S
C861 C867 1.390 . S
C862 H853 0.930 . S
C862 C860 1.384 . S
C862 C863 1.372 . S
C863 C862 1.372 . S
C863 C864 1.400 . S
C863 C868 1.490 . S
C864 H854 0.930 . S
C864 C863 1.400 . S
C864 C867 1.386 . S
H865 C881 0.930 . S
H866 C882 0.931 . S
C867 H855 0.929 . S
C867 C861 1.390 . S
C867 C864 1.386 . S
C868 C863 1.490 . S
C868 C870 1.395 . S
C868 C871 1.403 . S
H869 C875 0.930 . S
C870 H856 0.930 . S
C870 C868 1.395 . S
C870 C873 1.403 . S
C871 C868 1.403 . S
C871 C872 1.524 . S
C871 C875 1.400 . S
C872 H857 0.960 . S
C872 H858 0.960 . S
C872 H859 0.960 . S
C872 C871 1.524 . S
C873 C870 1.403 . S
C873 C874 1.392 . S
C873 C877 1.495 . S
C874 C873 1.392 . S
C874 C875 1.385 . S
C874 C876 1.478 . S
C875 H869 0.930 . S
C875 C871 1.400 . S
C875 C874 1.385 . S
C876 C874 1.478 . S
C876 C878 1.381 . S
C876 C882 1.383 . S
C877 C873 1.495 . S
C877 H883 0.959 . S
C877 H884 0.961 . S
C877 H885 0.960 . S
C878 C876 1.381 . S
C878 C879 1.394 . S
C878 H886 0.930 . S
C879 C878 1.394 . S
C879 C880 1.383 . S
C879 H887 0.929 . S
C880 C879 1.383 . S
C880 C881 1.377 . S
C881 H865 0.930 . S
C881 C880 1.377 . S
C881 C882 1.379 . S
C882 H866 0.931 . S
C882 C876 1.383 . S
C882 C881 1.379 . S
H883 C877 0.959 . S
H884 C877 0.961 . S
H885 C877 0.960 . S
H886 C878 0.930 . S
H887 C879 0.929 . S
H888 C896 0.929 . S
H889 C898 0.930 . S
H890 C900 0.930 . S
H891 C903 0.929 . S
H892 C906 0.930 . S
H893 C908 0.960 . S
H894 C908 0.960 . S
H895 C908 0.960 . S
C896 H888 0.929 . S
C896 C897 1.377 . S
C896 C898 1.384 . S
C897 C896 1.377 . S
C897 C903 1.390 . S
C898 H889 0.930 . S
C898 C896 1.384 . S
C898 C899 1.372 . S
C899 C898 1.372 . S
C899 C900 1.400 . S
C899 C904 1.490 . S
C900 H890 0.930 . S
C900 C899 1.400 . S
C900 C903 1.386 . S
H901 C917 0.930 . S
H902 C918 0.931 . S
C903 H891 0.929 . S
C903 C897 1.390 . S
C903 C900 1.386 . S
C904 C899 1.490 . S
C904 C906 1.395 . S
C904 C907 1.403 . S
H905 C911 0.930 . S
C906 H892 0.930 . S
C906 C904 1.395 . S
C906 C909 1.403 . S
C907 C904 1.403 . S
C907 C908 1.524 . S
C907 C911 1.400 . S
C908 H893 0.960 . S
C908 H894 0.960 . S
C908 H895 0.960 . S
C908 C907 1.524 . S
C909 C906 1.403 . S
C909 C910 1.392 . S
C909 C913 1.495 . S
C910 C909 1.392 . S
C910 C911 1.385 . S
C910 C912 1.478 . S
C911 H905 0.930 . S
C911 C907 1.400 . S
C911 C910 1.385 . S
C912 C910 1.478 . S
C912 C914 1.381 . S
C912 C918 1.383 . S
C913 C909 1.495 . S
C913 H919 0.959 . S
C913 H920 0.961 . S
C913 H921 0.960 . S
C914 C912 1.381 . S
C914 C915 1.394 . S
C914 H922 0.930 . S
C915 C914 1.394 . S
C915 C916 1.383 . S
C915 H923 0.929 . S
C916 C915 1.383 . S
C916 C917 1.377 . S
C917 H901 0.930 . S
C917 C916 1.377 . S
C917 C918 1.379 . S
C918 H902 0.931 . S
C918 C912 1.383 . S
C918 C917 1.379 . S
H919 C913 0.959 . S
H920 C913 0.961 . S
H921 C913 0.960 . S
H922 C914 0.930 . S
H923 C915 0.929 . S
H924 C932 0.929 . S
H925 C934 0.930 . S
H926 C936 0.930 . S
H927 C939 0.929 . S
H928 C942 0.930 . S
H929 C944 0.960 . S
H930 C944 0.960 . S
H931 C944 0.960 . S
C932 H924 0.929 . S
C932 C933 1.377 . S
C932 C934 1.384 . S
C933 C932 1.377 . S
C933 C939 1.390 . S
C934 H925 0.930 . S
C934 C932 1.384 . S
C934 C935 1.372 . S
C935 C934 1.372 . S
C935 C936 1.400 . S
C935 C940 1.490 . S
C936 H926 0.930 . S
C936 C935 1.400 . S
C936 C939 1.386 . S
H937 C953 0.930 . S
H938 C954 0.931 . S
C939 H927 0.929 . S
C939 C933 1.390 . S
C939 C936 1.386 . S
C940 C935 1.490 . S
C940 C942 1.395 . S
C940 C943 1.403 1_565 S
H941 C947 0.930 . S
C942 H928 0.930 . S
C942 C940 1.395 . S
C942 C945 1.403 1_556 S
C943 C940 1.403 1_545 S
C943 C944 1.524 . S
C943 C947 1.400 1_556 S
C944 H929 0.960 . S
C944 H930 0.960 . S
C944 H931 0.960 . S
C944 C943 1.524 . S
C945 C942 1.403 1_554 S
C945 C946 1.392 1_565 S
C945 C949 1.495 . S
C946 C945 1.392 1_545 S
C946 C947 1.385 . S
C946 C948 1.478 . S
C947 H941 0.930 . S
C947 C943 1.400 1_554 S
C947 C946 1.385 . S
C948 C946 1.478 . S
C948 C950 1.381 . S
C948 C954 1.383 . S
C949 C945 1.495 . S
C949 H955 0.959 . S
C949 H956 0.961 . S
C949 H957 0.960 . S
C950 C948 1.381 . S
C950 C951 1.394 . S
C950 H958 0.930 . S
C951 C950 1.394 . S
C951 C952 1.383 . S
C951 H959 0.929 . S
C952 C951 1.383 . S
C952 C953 1.377 . S
C953 H937 0.930 . S
C953 C952 1.377 . S
C953 C954 1.379 . S
C954 H938 0.931 . S
C954 C948 1.383 . S
C954 C953 1.379 . S
H955 C949 0.959 . S
H956 C949 0.961 . S
H957 C949 0.960 . S
H958 C950 0.930 . S
H959 C951 0.929 . S
H960 C968 0.929 . S
H961 C970 0.930 . S
H962 C972 0.930 . S
H963 C975 0.929 . S
H964 C978 0.930 . S
H965 C980 0.960 . S
H966 C980 0.960 . S
H967 C980 0.960 . S
C968 H960 0.929 . S
C968 C969 1.377 . S
C968 C970 1.384 . S
C969 C968 1.377 . S
C969 C975 1.390 . S
C970 H961 0.930 . S
C970 C968 1.384 . S
C970 C971 1.372 . S
C971 C970 1.372 . S
C971 C972 1.400 . S
C971 C976 1.490 . S
C972 H962 0.930 . S
C972 C971 1.400 . S
C972 C975 1.386 . S
H973 C989 0.930 . S
H974 C990 0.931 . S
C975 H963 0.929 . S
C975 C969 1.390 . S
C975 C972 1.386 . S
C976 C971 1.490 . S
C976 C978 1.395 . S
C976 C979 1.403 . S
H977 C983 0.930 . S
C978 H964 0.930 . S
C978 C976 1.395 . S
C978 C981 1.403 . S
C979 C976 1.403 . S
C979 C980 1.524 . S
C979 C983 1.400 . S
C980 H965 0.960 . S
C980 H966 0.960 . S
C980 H967 0.960 . S
C980 C979 1.524 . S
C981 C978 1.403 . S
C981 C982 1.392 . S
C981 C985 1.495 . S
C982 C981 1.392 . S
C982 C983 1.385 . S
C982 C984 1.478 . S
C983 H977 0.930 . S
C983 C979 1.400 . S
C983 C982 1.385 . S
C984 C982 1.478 . S
C984 C986 1.381 . S
C984 C990 1.383 . S
C985 C981 1.495 . S
C985 H991 0.959 . S
C985 H992 0.961 . S
C985 H993 0.960 . S
C986 C984 1.381 . S
C986 C987 1.394 . S
C986 H994 0.930 . S
C987 C986 1.394 . S
C987 C988 1.383 . S
C987 H995 0.929 . S
C988 C987 1.383 . S
C988 C989 1.377 . S
C989 H973 0.930 . S
C989 C988 1.377 . S
C989 C990 1.379 . S
C990 H974 0.931 . S
C990 C984 1.383 . S
C990 C989 1.379 . S
H991 C985 0.959 . S
H992 C985 0.961 . S
H993 C985 0.960 . S
H994 C986 0.930 . S
H995 C987 0.929 . S
H996 C1004 0.929 . S
H997 C1006 0.930 . S
H998 C1008 0.930 . S
H999 C1011 0.929 . S
H1000 C1014 0.930 . S
H1001 C1016 0.915 1_554 S
H1002 C1016 0.960 . S
H1003 C1016 0.960 . S
C1004 H996 0.929 . S
C1004 C1005 1.377 . S
C1004 C1006 1.384 . S
C1005 C1004 1.377 . S
C1005 C1011 1.390 . S
C1006 H997 0.930 . S
C1006 C1004 1.384 . S
C1006 C1007 1.372 . S
C1007 C1006 1.372 . S
C1007 C1008 1.400 . S
C1007 C1012 1.490 . S
C1008 H998 0.930 . S
C1008 C1007 1.400 . S
C1008 C1011 1.386 . S
H1009 C1025 0.930 . S
H1010 C1026 0.931 . S
C1011 H999 0.929 . S
C1011 C1005 1.390 . S
C1011 C1008 1.386 . S
C1012 C1007 1.490 . S
C1012 C1014 1.395 1_455 S
C1012 C1015 1.403 . S
H1013 C1019 0.930 . S
C1014 H1000 0.930 . S
C1014 C1012 1.395 1_655 S
C1014 C1017 1.403 1_556 S
C1015 C1012 1.403 . S
C1015 C1016 1.524 . S
C1015 C1019 1.400 1_556 S
C1016 H1001 0.915 1_556 S
C1016 H1002 0.960 . S
C1016 H1003 0.960 . S
C1016 C1015 1.524 . S
C1017 C1014 1.403 1_554 S
C1017 C1018 1.392 . S
C1017 C1021 1.495 . S
C1018 C1017 1.392 . S
C1018 C1019 1.385 1_655 S
C1018 C1020 1.478 . S
C1019 H1013 0.930 . S
C1019 C1015 1.400 1_554 S
C1019 C1018 1.385 1_455 S
C1020 C1018 1.478 . S
C1020 C1022 1.381 . S
C1020 C1026 1.383 . S
C1021 C1017 1.495 . S
C1021 H1027 0.959 . S
C1021 H1028 0.961 . S
C1021 H1029 0.960 . S
C1022 C1020 1.381 . S
C1022 C1023 1.394 . S
C1022 H1030 0.930 . S
C1023 C1022 1.394 . S
C1023 C1024 1.383 . S
C1023 H1031 0.929 . S
C1024 C1023 1.383 . S
C1024 C1025 1.377 . S
C1025 H1009 0.930 . S
C1025 C1024 1.377 . S
C1025 C1026 1.379 . S
C1026 H1010 0.931 . S
C1026 C1020 1.383 . S
C1026 C1025 1.379 . S
H1027 C1021 0.959 . S
H1028 C1021 0.961 . S
H1029 C1021 0.960 . S
H1030 C1022 0.930 . S
H1031 C1023 0.929 . S
H1032 C1040 0.929 . S
H1033 C1042 0.930 . S
H1034 C1044 0.930 . S
H1035 C1047 0.929 . S
H1036 C1050 0.930 . S
H1037 C1052 0.960 . S
H1038 C1052 0.960 . S
H1039 C1052 0.960 . S
C1040 H1032 0.929 . S
C1040 C1041 1.377 . S
C1040 C1042 1.384 . S
C1041 C1040 1.377 . S
C1041 C1047 1.390 . S
C1042 H1033 0.930 . S
C1042 C1040 1.384 . S
C1042 C1043 1.372 . S
C1043 C1042 1.372 . S
C1043 C1044 1.400 . S
C1043 C1048 1.490 . S
C1044 H1034 0.930 . S
C1044 C1043 1.400 . S
C1044 C1047 1.386 . S
H1045 C1061 0.930 . S
H1046 C1062 0.931 . S
C1047 H1035 0.929 . S
C1047 C1041 1.390 . S
C1047 C1044 1.386 . S
C1048 C1043 1.490 . S
C1048 C1050 1.395 . S
C1048 C1051 1.403 1_545 S
H1049 C1055 0.930 . S
C1050 H1036 0.930 . S
C1050 C1048 1.395 . S
C1050 C1053 1.403 . S
C1051 C1048 1.403 1_565 S
C1051 C1052 1.524 . S
C1051 C1055 1.400 . S
C1052 H1037 0.960 . S
C1052 H1038 0.960 . S
C1052 H1039 0.960 . S
C1052 C1051 1.524 . S
C1053 C1050 1.403 . S
C1053 C1054 1.392 1_545 S
C1053 C1057 1.495 . S
C1054 C1053 1.392 1_565 S
C1054 C1055 1.385 . S
C1054 C1056 1.478 . S
C1055 H1049 0.930 . S
C1055 C1051 1.400 . S
C1055 C1054 1.385 . S
C1056 C1054 1.478 . S
C1056 C1058 1.381 . S
C1056 C1062 1.383 . S
C1057 C1053 1.495 . S
C1057 H1063 0.959 . S
C1057 H1064 0.961 . S
C1057 H1065 0.960 . S
C1058 C1056 1.381 . S
C1058 C1059 1.394 . S
C1058 H1066 0.930 . S
C1059 C1058 1.394 . S
C1059 C1060 1.383 . S
C1059 H1067 0.929 . S
C1060 C1059 1.383 . S
C1060 C1061 1.377 . S
C1061 H1045 0.930 . S
C1061 C1060 1.377 . S
C1061 C1062 1.379 . S
C1062 H1046 0.931 . S
C1062 C1056 1.383 . S
C1062 C1061 1.379 . S
H1063 C1057 0.959 . S
H1064 C1057 0.961 . S
H1065 C1057 0.960 . S
H1066 C1058 0.930 . S
H1067 C1059 0.929 . S
H1068 C1076 0.929 . S
H1069 C1078 0.930 . S
H1070 C1080 0.930 . S
H1071 C1083 0.929 . S
H1072 C1086 0.930 . S
H1073 C1088 0.960 . S
H1074 C1088 0.960 . S
H1075 C1088 0.960 . S
C1076 H1068 0.929 . S
C1076 C1077 1.377 . S
C1076 C1078 1.384 . S
C1077 C1076 1.377 . S
C1077 C1083 1.390 . S
C1078 H1069 0.930 . S
C1078 C1076 1.384 . S
C1078 C1079 1.372 . S
C1079 C1078 1.372 . S
C1079 C1080 1.400 . S
C1079 C1084 1.490 . S
C1080 H1070 0.930 . S
C1080 C1079 1.400 . S
C1080 C1083 1.386 . S
H1081 C1097 0.930 . S
H1082 C1098 0.931 . S
C1083 H1071 0.929 . S
C1083 C1077 1.390 . S
C1083 C1080 1.386 . S
C1084 C1079 1.490 . S
C1084 C1086 1.395 . S
C1084 C1087 1.403 . S
H1085 C1091 0.930 . S
C1086 H1072 0.930 . S
C1086 C1084 1.395 . S
C1086 C1089 1.403 1_554 S
C1087 C1084 1.403 . S
C1087 C1088 1.524 . S
C1087 C1091 1.400 1_554 S
C1088 H1073 0.960 . S
C1088 H1074 0.960 . S
C1088 H1075 0.960 . S
C1088 C1087 1.524 . S
C1089 C1086 1.403 1_556 S
C1089 C1090 1.392 . S
C1089 C1093 1.495 . S
C1090 C1089 1.392 . S
C1090 C1091 1.385 . S
C1090 C1092 1.478 . S
C1091 H1085 0.930 . S
C1091 C1087 1.400 1_556 S
C1091 C1090 1.385 . S
C1092 C1090 1.478 . S
C1092 C1094 1.381 . S
C1092 C1098 1.383 . S
C1093 C1089 1.495 . S
C1093 H1099 0.959 . S
C1093 H1100 0.961 . S
C1093 H1101 0.960 . S
C1094 C1092 1.381 . S
C1094 C1095 1.394 . S
C1094 H1102 0.930 . S
C1095 C1094 1.394 . S
C1095 C1096 1.383 . S
C1095 H1103 0.929 . S
C1096 C1095 1.383 . S
C1096 C1097 1.377 . S
C1097 H1081 0.930 . S
C1097 C1096 1.377 . S
C1097 C1098 1.379 . S
C1098 H1082 0.931 . S
C1098 C1092 1.383 . S
C1098 C1097 1.379 . S
H1099 C1093 0.959 . S
H1100 C1093 0.961 . S
H1101 C1093 0.960 . S
H1102 C1094 0.930 . S
H1103 C1095 0.929 . S
H1104 C1112 0.929 . S
H1105 C1114 0.930 . S
H1106 C1116 0.930 . S
H1107 C1119 0.929 . S
H1108 C1122 0.930 . S
H1109 C1124 0.960 . S
H1110 C1124 0.960 . S
H1111 C1124 0.960 . S
C1112 H1104 0.929 . S
C1112 C1113 1.377 . S
C1112 C1114 1.384 . S
C1113 C1112 1.377 . S
C1113 C1119 1.390 . S
C1114 H1105 0.930 . S
C1114 C1112 1.384 . S
C1114 C1115 1.372 . S
C1115 C1114 1.372 . S
C1115 C1116 1.400 . S
C1115 C1120 1.490 . S
C1116 H1106 0.930 . S
C1116 C1115 1.400 . S
C1116 C1119 1.386 . S
H1117 C1133 0.930 . S
H1118 C1134 0.931 . S
C1119 H1107 0.929 . S
C1119 C1113 1.390 . S
C1119 C1116 1.386 . S
C1120 C1115 1.490 . S
C1120 C1122 1.395 1_455 S
C1120 C1123 1.403 . S
H1121 C1127 0.935 . S
C1122 H1108 0.930 . S
C1122 C1120 1.395 1_655 S
C1122 C1125 1.403 . S
C1123 C1120 1.403 . S
C1123 C1124 1.524 . S
C1123 C1127 1.407 . S
C1124 H1109 0.960 . S
C1124 H1110 0.960 . S
C1124 H1111 0.960 . S
C1124 C1123 1.524 . S
C1125 C1122 1.403 . S
C1125 C1126 1.392 . S
C1125 C1129 1.495 . S
C1126 C1125 1.392 . S
C1126 C1127 1.386 1_655 S
C1126 C1128 1.478 . S
C1127 H1121 0.935 . S
C1127 C1123 1.407 . S
C1127 C1126 1.386 1_455 S
C1128 C1126 1.478 . S
C1128 C1130 1.381 . S
C1128 C1134 1.383 . S
C1129 C1125 1.495 . S
C1129 H1135 0.959 . S
C1129 H1136 0.961 . S
C1129 H1137 0.960 . S
C1130 C1128 1.381 . S
C1130 C1131 1.394 . S
C1130 H1138 0.930 . S
C1131 C1130 1.394 . S
C1131 C1132 1.383 . S
C1131 H1139 0.929 . S
C1132 C1131 1.383 . S
C1132 C1133 1.377 . S
C1133 H1117 0.930 . S
C1133 C1132 1.377 . S
C1133 C1134 1.379 . S
C1134 H1118 0.931 . S
C1134 C1128 1.383 . S
C1134 C1133 1.379 . S
H1135 C1129 0.959 . S
H1136 C1129 0.961 . S
H1137 C1129 0.960 . S
H1138 C1130 0.930 . S
H1139 C1131 0.929 . S
H1140 C1148 0.929 . S
H1141 C1150 0.930 . S
H1142 C1152 0.930 . S
H1143 C1155 0.929 . S
H1144 C1158 0.930 . S
H1145 C1160 0.960 . S
H1146 C1160 0.960 . S
H1147 C1160 0.960 . S
C1148 H1140 0.929 . S
C1148 C1149 1.377 . S
C1148 C1150 1.384 . S
C1149 C1148 1.377 . S
C1149 C1155 1.390 . S
C1150 H1141 0.930 . S
C1150 C1148 1.384 . S
C1150 C1151 1.372 . S
C1151 C1150 1.372 . S
C1151 C1152 1.400 . S
C1151 C1156 1.490 . S
C1152 H1142 0.930 . S
C1152 C1151 1.400 . S
C1152 C1155 1.386 . S
H1153 C1169 0.930 . S
H1154 C1170 0.931 . S
C1155 H1143 0.929 . S
C1155 C1149 1.390 . S
C1155 C1152 1.386 . S
C1156 C1151 1.490 . S
C1156 C1158 1.395 . S
C1156 C1159 1.403 . S
H1157 C1163 0.930 . S
C1158 H1144 0.930 . S
C1158 C1156 1.395 . S
C1158 C1161 1.403 . S
C1159 C1156 1.403 . S
C1159 C1160 1.524 . S
C1159 C1163 1.400 . S
C1160 H1145 0.960 . S
C1160 H1146 0.960 . S
C1160 H1147 0.960 . S
C1160 C1159 1.524 . S
C1161 C1158 1.403 . S
C1161 C1162 1.392 . S
C1161 C1165 1.495 . S
C1162 C1161 1.392 . S
C1162 C1163 1.385 . S
C1162 C1164 1.478 . S
C1163 H1157 0.930 . S
C1163 C1159 1.400 . S
C1163 C1162 1.385 . S
C1164 C1162 1.478 . S
C1164 C1166 1.381 . S
C1164 C1170 1.383 . S
C1165 C1161 1.495 . S
C1165 H1171 0.959 . S
C1165 H1172 0.961 . S
C1165 H1173 0.960 . S
C1166 C1164 1.381 . S
C1166 C1167 1.394 . S
C1166 H1174 0.930 . S
C1167 C1166 1.394 . S
C1167 C1168 1.383 . S
C1167 H1175 0.929 . S
C1168 C1167 1.383 . S
C1168 C1169 1.377 . S
C1169 H1153 0.930 . S
C1169 C1168 1.377 . S
C1169 C1170 1.379 . S
C1170 H1154 0.931 . S
C1170 C1164 1.383 . S
C1170 C1169 1.379 . S
H1171 C1165 0.959 . S
H1172 C1165 0.961 . S
H1173 C1165 0.960 . S
H1174 C1166 0.930 . S
H1175 C1167 0.929 . S
H1176 C1184 0.929 . S
H1177 C1186 0.930 . S
H1178 C1188 0.930 . S
H1179 C1191 0.929 . S
H1180 C1194 0.930 . S
H1181 C1196 0.960 . S
H1182 C1196 0.960 . S
H1183 C1196 0.960 . S
C1184 H1176 0.929 . S
C1184 C1185 1.377 . S
C1184 C1186 1.384 . S
C1185 C1184 1.377 . S
C1185 C1191 1.390 . S
C1186 H1177 0.930 . S
C1186 C1184 1.384 . S
C1186 C1187 1.372 . S
C1187 C1186 1.372 . S
C1187 C1188 1.400 . S
C1187 C1192 1.490 . S
C1188 H1178 0.930 . S
C1188 C1187 1.400 . S
C1188 C1191 1.386 . S
H1189 C1205 0.930 . S
H1190 C1206 0.931 . S
C1191 H1179 0.929 . S
C1191 C1185 1.390 . S
C1191 C1188 1.386 . S
C1192 C1187 1.490 . S
C1192 C1194 1.395 . S
C1192 C1195 1.403 . S
H1193 C1199 0.930 . S
C1194 H1180 0.930 . S
C1194 C1192 1.395 . S
C1194 C1197 1.403 . S
C1195 C1192 1.403 . S
C1195 C1196 1.524 . S
C1195 C1199 1.400 . S
C1196 H1181 0.960 . S
C1196 H1182 0.960 . S
C1196 H1183 0.960 . S
C1196 C1195 1.524 . S
C1197 C1194 1.403 . S
C1197 C1198 1.392 . S
C1197 C1201 1.495 . S
C1198 C1197 1.392 . S
C1198 C1199 1.385 . S
C1198 C1200 1.478 . S
C1199 H1193 0.930 . S
C1199 C1195 1.400 . S
C1199 C1198 1.385 . S
C1200 C1198 1.478 . S
C1200 C1202 1.381 . S
C1200 C1206 1.383 . S
C1201 C1197 1.495 . S
C1201 H1207 0.959 . S
C1201 H1208 0.961 . S
C1201 H1209 0.960 . S
C1202 C1200 1.381 . S
C1202 C1203 1.394 . S
C1202 H1210 0.930 . S
C1203 C1202 1.394 . S
C1203 C1204 1.383 . S
C1203 H1211 0.929 . S
C1204 C1203 1.383 . S
C1204 C1205 1.377 . S
C1205 H1189 0.930 . S
C1205 C1204 1.377 . S
C1205 C1206 1.379 . S
C1206 H1190 0.931 . S
C1206 C1200 1.383 . S
C1206 C1205 1.379 . S
H1207 C1201 0.959 . S
H1208 C1201 0.961 . S
H1209 C1201 0.960 . S
H1210 C1202 0.930 . S
H1211 C1203 0.929 . S
H1212 C1220 0.929 . S
H1213 C1222 0.930 . S
H1214 C1224 0.930 . S
H1215 C1227 0.929 . S
H1216 C1230 0.930 . S
H1217 C1232 0.960 . S
H1218 C1232 0.960 . S
H1219 C1232 0.960 . S
C1220 H1212 0.929 . S
C1220 C1221 1.377 . S
C1220 C1222 1.384 . S
C1221 C1220 1.377 . S
C1221 C1227 1.390 . S
C1222 H1213 0.930 . S
C1222 C1220 1.384 . S
C1222 C1223 1.372 . S
C1223 C1222 1.372 . S
C1223 C1224 1.400 . S
C1223 C1228 1.490 . S
C1224 H1214 0.930 . S
C1224 C1223 1.400 . S
C1224 C1227 1.386 . S
H1225 C1241 0.930 . S
H1226 C1242 0.931 . S
C1227 H1215 0.929 . S
C1227 C1221 1.390 . S
C1227 C1224 1.386 . S
C1228 C1223 1.490 . S
C1228 C1230 1.395 . S
C1228 C1231 1.403 . S
H1229 C1235 0.930 . S
C1230 H1216 0.930 . S
C1230 C1228 1.395 . S
C1230 C1233 1.403 . S
C1231 C1228 1.403 . S
C1231 C1232 1.524 . S
C1231 C1235 1.400 . S
C1232 H1217 0.960 . S
C1232 H1218 0.960 . S
C1232 H1219 0.960 . S
C1232 C1231 1.524 . S
C1233 C1230 1.403 . S
C1233 C1234 1.392 . S
C1233 C1237 1.495 . S
C1234 C1233 1.392 . S
C1234 C1235 1.385 . S
C1234 C1236 1.478 . S
C1235 H1229 0.930 . S
C1235 C1231 1.400 . S
C1235 C1234 1.385 . S
C1236 C1234 1.478 . S
C1236 C1238 1.381 . S
C1236 C1242 1.383 . S
C1237 C1233 1.495 . S
C1237 H1243 0.959 . S
C1237 H1244 0.961 . S
C1237 H1245 0.960 . S
C1238 C1236 1.381 . S
C1238 C1239 1.394 . S
C1238 H1246 0.930 . S
C1239 C1238 1.394 . S
C1239 C1240 1.383 . S
C1239 H1247 0.929 . S
C1240 C1239 1.383 . S
C1240 C1241 1.377 . S
C1241 H1225 0.930 . S
C1241 C1240 1.377 . S
C1241 C1242 1.379 . S
C1242 H1226 0.931 . S
C1242 C1236 1.383 . S
C1242 C1241 1.379 . S
H1243 C1237 0.959 . S
H1244 C1237 0.961 . S
H1245 C1237 0.960 . S
H1246 C1238 0.930 . S
H1247 C1239 0.929 . S
H1248 C1256 0.929 . S
H1249 C1258 0.930 . S
H1250 C1260 0.930 . S
H1251 C1263 0.929 . S
H1252 C1266 0.930 . S
H1253 C1268 0.960 . S
H1254 C1268 0.960 . S
H1255 C1268 0.960 . S
C1256 H1248 0.929 . S
C1256 C1257 1.377 . S
C1256 C1258 1.384 . S
C1257 C1256 1.377 . S
C1257 C1263 1.390 . S
C1258 H1249 0.930 . S
C1258 C1256 1.384 . S
C1258 C1259 1.372 . S
C1259 C1258 1.372 . S
C1259 C1260 1.400 . S
C1259 C1264 1.490 . S
C1260 H1250 0.930 . S
C1260 C1259 1.400 . S
C1260 C1263 1.386 . S
H1261 C1277 0.930 . S
H1262 C1278 0.931 . S
C1263 H1251 0.929 . S
C1263 C1257 1.390 . S
C1263 C1260 1.386 . S
C1264 C1259 1.490 . S
C1264 C1266 1.395 . S
C1264 C1267 1.403 . S
H1265 C1271 0.930 . S
C1266 H1252 0.930 . S
C1266 C1264 1.395 . S
C1266 C1269 1.403 . S
C1267 C1264 1.403 . S
C1267 C1268 1.524 . S
C1267 C1271 1.400 . S
C1268 H1253 0.960 . S
C1268 H1254 0.960 . S
C1268 H1255 0.960 . S
C1268 C1267 1.524 . S
C1269 C1266 1.403 . S
C1269 C1270 1.392 . S
C1269 C1273 1.495 . S
C1270 C1269 1.392 . S
C1270 C1271 1.385 . S
C1270 C1272 1.478 . S
C1271 H1265 0.930 . S
C1271 C1267 1.400 . S
C1271 C1270 1.385 . S
C1272 C1270 1.478 . S
C1272 C1274 1.381 . S
C1272 C1278 1.383 . S
C1273 C1269 1.495 . S
C1273 H1279 0.959 . S
C1273 H1280 0.961 . S
C1273 H1281 0.960 . S
C1274 C1272 1.381 . S
C1274 C1275 1.394 . S
C1274 H1282 0.930 . S
C1275 C1274 1.394 . S
C1275 C1276 1.383 . S
C1275 H1283 0.929 . S
C1276 C1275 1.383 . S
C1276 C1277 1.377 . S
C1277 H1261 0.930 . S
C1277 C1276 1.377 . S
C1277 C1278 1.379 . S
C1278 H1262 0.931 . S
C1278 C1272 1.383 . S
C1278 C1277 1.379 . S
H1279 C1273 0.959 . S
H1280 C1273 0.961 . S
H1281 C1273 0.960 . S
H1282 C1274 0.930 . S
H1283 C1275 0.929 . S
H1284 C1292 0.929 . S
H1285 C1294 0.930 . S
H1286 C1296 0.930 . S
H1287 C1299 0.929 . S
H1288 C1302 0.930 . S
H1289 C1304 0.960 . S
H1290 C1304 0.960 . S
H1291 C1304 0.960 . S
C1292 H1284 0.929 . S
C1292 C1293 1.377 . S
C1292 C1294 1.384 . S
C1293 C1292 1.377 . S
C1293 C1299 1.390 . S
C1294 H1285 0.930 . S
C1294 C1292 1.384 . S
C1294 C1295 1.372 . S
C1295 C1294 1.372 . S
C1295 C1296 1.400 . S
C1295 C1300 1.490 . S
C1296 H1286 0.930 . S
C1296 C1295 1.400 . S
C1296 C1299 1.386 . S
H1297 C1313 0.930 . S
H1298 C1314 0.931 . S
C1299 H1287 0.929 . S
C1299 C1293 1.390 . S
C1299 C1296 1.386 . S
C1300 C1295 1.490 . S
C1300 C1302 1.395 . S
C1300 C1303 1.403 . S
H1301 C1307 0.930 . S
C1302 H1288 0.930 . S
C1302 C1300 1.395 . S
C1302 C1305 1.403 . S
C1303 C1300 1.403 . S
C1303 C1304 1.524 . S
C1303 C1307 1.400 . S
C1304 H1289 0.960 . S
C1304 H1290 0.960 . S
C1304 H1291 0.960 . S
C1304 C1303 1.524 . S
C1305 C1302 1.403 . S
C1305 C1306 1.392 . S
C1305 C1309 1.495 . S
C1306 C1305 1.392 . S
C1306 C1307 1.385 . S
C1306 C1308 1.478 . S
C1307 H1301 0.930 . S
C1307 C1303 1.400 . S
C1307 C1306 1.385 . S
C1308 C1306 1.478 . S
C1308 C1310 1.381 . S
C1308 C1314 1.383 . S
C1309 C1305 1.495 . S
C1309 H1315 0.959 . S
C1309 H1316 0.961 . S
C1309 H1317 0.960 . S
C1310 C1308 1.381 . S
C1310 C1311 1.394 . S
C1310 H1318 0.930 . S
C1311 C1310 1.394 . S
C1311 C1312 1.383 . S
C1311 H1319 0.929 . S
C1312 C1311 1.383 . S
C1312 C1313 1.377 . S
C1313 H1297 0.930 . S
C1313 C1312 1.377 . S
C1313 C1314 1.379 . S
C1314 H1298 0.931 . S
C1314 C1308 1.383 . S
C1314 C1313 1.379 . S
H1315 C1309 0.959 . S
H1316 C1309 0.961 . S
H1317 C1309 0.960 . S
H1318 C1310 0.930 . S
H1319 C1311 0.929 . S
H1320 C1328 0.929 . S
H1321 C1330 0.930 . S
H1322 C1332 0.930 . S
H1323 C1335 0.929 . S
H1324 C1338 0.930 . S
H1325 C1340 0.960 . S
H1326 C1340 0.960 . S
H1327 C1340 0.960 . S
C1328 H1320 0.929 . S
C1328 C1329 1.377 . S
C1328 C1330 1.384 . S
C1329 C1328 1.377 . S
C1329 C1335 1.390 . S
C1330 H1321 0.930 . S
C1330 C1328 1.384 . S
C1330 C1331 1.372 . S
C1331 C1330 1.372 . S
C1331 C1332 1.400 . S
C1331 C1336 1.490 . S
C1332 H1322 0.930 . S
C1332 C1331 1.400 . S
C1332 C1335 1.386 . S
H1333 C1349 0.930 . S
H1334 C1350 0.931 . S
C1335 H1323 0.929 . S
C1335 C1329 1.390 . S
C1335 C1332 1.386 . S
C1336 C1331 1.490 . S
C1336 C1338 1.395 . S
C1336 C1339 1.403 . S
H1337 C1343 0.930 . S
C1338 H1324 0.930 . S
C1338 C1336 1.395 . S
C1338 C1341 1.403 . S
C1339 C1336 1.403 . S
C1339 C1340 1.524 . S
C1339 C1343 1.400 . S
C1340 H1325 0.960 . S
C1340 H1326 0.960 . S
C1340 H1327 0.960 . S
C1340 C1339 1.524 . S
C1341 C1338 1.403 . S
C1341 C1342 1.392 . S
C1341 C1345 1.495 . S
C1342 C1341 1.392 . S
C1342 C1343 1.385 . S
C1342 C1344 1.478 . S
C1343 H1337 0.930 . S
C1343 C1339 1.400 . S
C1343 C1342 1.385 . S
C1344 C1342 1.478 . S
C1344 C1346 1.381 . S
C1344 C1350 1.383 . S
C1345 C1341 1.495 . S
C1345 H1351 0.959 . S
C1345 H1352 0.961 . S
C1345 H1353 0.960 . S
C1346 C1344 1.381 . S
C1346 C1347 1.394 . S
C1346 H1354 0.930 . S
C1347 C1346 1.394 . S
C1347 C1348 1.383 . S
C1347 H1355 0.929 . S
C1348 C1347 1.383 . S
C1348 C1349 1.377 . S
C1349 H1333 0.930 . S
C1349 C1348 1.377 . S
C1349 C1350 1.379 . S
C1350 H1334 0.931 . S
C1350 C1344 1.383 . S
C1350 C1349 1.379 . S
H1351 C1345 0.959 . S
H1352 C1345 0.961 . S
H1353 C1345 0.960 . S
H1354 C1346 0.930 . S
H1355 C1347 0.929 . S
H1356 C1364 0.929 . S
H1357 C1366 0.930 . S
H1358 C1368 0.930 . S
H1359 C1371 0.929 . S
H1360 C1374 0.930 . S
H1361 C1376 0.960 . S
H1362 C1376 0.960 . S
H1363 C1376 0.960 . S
C1364 H1356 0.929 . S
C1364 C1365 1.377 . S
C1364 C1366 1.384 . S
C1365 C1364 1.377 . S
C1365 C1371 1.390 . S
C1366 H1357 0.930 . S
C1366 C1364 1.384 . S
C1366 C1367 1.372 . S
C1367 C1366 1.372 . S
C1367 C1368 1.400 . S
C1367 C1372 1.490 . S
C1368 H1358 0.930 . S
C1368 C1367 1.400 . S
C1368 C1371 1.386 . S
H1369 C1385 0.930 . S
H1370 C1386 0.931 . S
C1371 H1359 0.929 . S
C1371 C1365 1.390 . S
C1371 C1368 1.386 . S
C1372 C1367 1.490 . S
C1372 C1374 1.395 . S
C1372 C1375 1.403 . S
H1373 C1379 0.930 . S
C1374 H1360 0.930 . S
C1374 C1372 1.395 . S
C1374 C1377 1.403 . S
C1375 C1372 1.403 . S
C1375 C1376 1.524 . S
C1375 C1379 1.400 . S
C1376 H1361 0.960 . S
C1376 H1362 0.960 . S
C1376 H1363 0.960 . S
C1376 C1375 1.524 . S
C1377 C1374 1.403 . S
C1377 C1378 1.392 . S
C1377 C1381 1.495 . S
C1378 C1377 1.392 . S
C1378 C1379 1.385 . S
C1378 C1380 1.478 . S
C1379 H1373 0.930 . S
C1379 C1375 1.400 . S
C1379 C1378 1.385 . S
C1380 C1378 1.478 . S
C1380 C1382 1.381 . S
C1380 C1386 1.383 . S
C1381 C1377 1.495 . S
C1381 H1387 0.959 . S
C1381 H1388 0.961 . S
C1381 H1389 0.960 . S
C1382 C1380 1.381 . S
C1382 C1383 1.394 . S
C1382 H1390 0.930 . S
C1383 C1382 1.394 . S
C1383 C1384 1.383 . S
C1383 H1391 0.929 . S
C1384 C1383 1.383 . S
C1384 C1385 1.377 . S
C1385 H1369 0.930 . S
C1385 C1384 1.377 . S
C1385 C1386 1.379 . S
C1386 H1370 0.931 . S
C1386 C1380 1.383 . S
C1386 C1385 1.379 . S
H1387 C1381 0.959 . S
H1388 C1381 0.961 . S
H1389 C1381 0.960 . S
H1390 C1382 0.930 . S
H1391 C1383 0.929 . S
H1392 C1400 0.929 . S
H1393 C1402 0.930 . S
H1394 C1404 0.930 . S
H1395 C1407 0.929 . S
H1396 C1410 0.930 . S
H1397 C1412 0.960 . S
H1398 C1412 0.960 . S
H1399 C1412 0.960 . S
C1400 H1392 0.929 . S
C1400 C1401 1.377 . S
C1400 C1402 1.384 . S
C1401 C1400 1.377 . S
C1401 C1407 1.390 . S
C1402 H1393 0.930 . S
C1402 C1400 1.384 . S
C1402 C1403 1.372 . S
C1403 C1402 1.372 . S
C1403 C1404 1.400 . S
C1403 C1408 1.490 . S
C1404 H1394 0.930 . S
C1404 C1403 1.400 . S
C1404 C1407 1.386 . S
H1405 C1421 0.930 . S
H1406 C1422 0.931 . S
C1407 H1395 0.929 . S
C1407 C1401 1.390 . S
C1407 C1404 1.386 . S
C1408 C1403 1.490 . S
C1408 C1410 1.395 . S
C1408 C1411 1.403 . S
H1409 C1415 0.930 . S
C1410 H1396 0.930 . S
C1410 C1408 1.395 . S
C1410 C1413 1.403 . S
C1411 C1408 1.403 . S
C1411 C1412 1.524 . S
C1411 C1415 1.400 . S
C1412 H1397 0.960 . S
C1412 H1398 0.960 . S
C1412 H1399 0.960 . S
C1412 C1411 1.524 . S
C1413 C1410 1.403 . S
C1413 C1414 1.392 . S
C1413 C1417 1.495 . S
C1414 C1413 1.392 . S
C1414 C1415 1.385 . S
C1414 C1416 1.478 . S
C1415 H1409 0.930 . S
C1415 C1411 1.400 . S
C1415 C1414 1.385 . S
C1416 C1414 1.478 . S
C1416 C1418 1.381 . S
C1416 C1422 1.383 . S
C1417 C1413 1.495 . S
C1417 H1423 0.959 . S
C1417 H1424 0.961 . S
C1417 H1425 0.960 . S
C1418 C1416 1.381 . S
C1418 C1419 1.394 . S
C1418 H1426 0.930 . S
C1419 C1418 1.394 . S
C1419 C1420 1.383 . S
C1419 H1427 0.929 . S
C1420 C1419 1.383 . S
C1420 C1421 1.377 . S
C1421 H1405 0.930 . S
C1421 C1420 1.377 . S
C1421 C1422 1.379 . S
C1422 H1406 0.931 . S
C1422 C1416 1.383 . S
C1422 C1421 1.379 . S
H1423 C1417 0.959 . S
H1424 C1417 0.961 . S
H1425 C1417 0.960 . S
H1426 C1418 0.930 . S
H1427 C1419 0.929 . S
H1428 C1436 0.929 . S
H1429 C1438 0.930 . S
H1430 C1440 0.930 . S
H1431 C1443 0.929 . S
H1432 C1446 0.930 . S
H1433 C1448 0.960 . S
H1434 C1448 0.960 . S
H1435 C1448 0.960 . S
C1436 H1428 0.929 . S
C1436 C1437 1.377 . S
C1436 C1438 1.384 . S
C1437 C1436 1.377 . S
C1437 C1443 1.390 . S
C1438 H1429 0.930 . S
C1438 C1436 1.384 . S
C1438 C1439 1.372 . S
C1439 C1438 1.372 . S
C1439 C1440 1.400 . S
C1439 C1444 1.490 . S
C1440 H1430 0.930 . S
C1440 C1439 1.400 . S
C1440 C1443 1.386 . S
H1441 C1457 0.930 . S
H1442 C1458 0.931 . S
C1443 H1431 0.929 . S
C1443 C1437 1.390 . S
C1443 C1440 1.386 . S
C1444 C1439 1.490 . S
C1444 C1446 1.395 . S
C1444 C1447 1.403 . S
H1445 C1451 0.930 . S
C1446 H1432 0.930 . S
C1446 C1444 1.395 . S
C1446 C1449 1.403 . S
C1447 C1444 1.403 . S
C1447 C1448 1.524 . S
C1447 C1451 1.400 . S
C1448 H1433 0.960 . S
C1448 H1434 0.960 . S
C1448 H1435 0.960 . S
C1448 C1447 1.524 . S
C1449 C1446 1.403 . S
C1449 C1450 1.392 . S
C1449 C1453 1.495 . S
C1450 C1449 1.392 . S
C1450 C1451 1.385 . S
C1450 C1452 1.478 . S
C1451 H1445 0.930 . S
C1451 C1447 1.400 . S
C1451 C1450 1.385 . S
C1452 C1450 1.478 . S
C1452 C1454 1.381 . S
C1452 C1458 1.383 . S
C1453 C1449 1.495 . S
C1453 H1459 0.959 . S
C1453 H1460 0.961 . S
C1453 H1461 0.960 . S
C1454 C1452 1.381 . S
C1454 C1455 1.394 . S
C1454 H1462 0.930 . S
C1455 C1454 1.394 . S
C1455 C1456 1.383 . S
C1455 H1463 0.929 . S
C1456 C1455 1.383 . S
C1456 C1457 1.377 . S
C1457 H1441 0.930 . S
C1457 C1456 1.377 . S
C1457 C1458 1.379 . S
C1458 H1442 0.931 . S
C1458 C1452 1.383 . S
C1458 C1457 1.379 . S
H1459 C1453 0.959 . S
H1460 C1453 0.961 . S
H1461 C1453 0.960 . S
H1462 C1454 0.930 . S
H1463 C1455 0.929 . S
H1464 C1472 0.929 . S
H1465 C1474 0.930 . S
H1466 C1476 0.930 . S
H1467 C1479 0.929 . S
H1468 C1482 0.930 . S
H1469 C1484 0.960 . S
H1470 C1484 0.960 . S
H1471 C1484 0.960 . S
C1472 H1464 0.929 . S
C1472 C1473 1.377 . S
C1472 C1474 1.384 . S
C1473 C1472 1.377 . S
C1473 C1479 1.390 . S
C1474 H1465 0.930 . S
C1474 C1472 1.384 . S
C1474 C1475 1.372 . S
C1475 C1474 1.372 . S
C1475 C1476 1.400 . S
C1475 C1480 1.490 . S
C1476 H1466 0.930 . S
C1476 C1475 1.400 . S
C1476 C1479 1.386 . S
H1477 C1493 0.930 . S
H1478 C1494 0.931 . S
C1479 H1467 0.929 . S
C1479 C1473 1.390 . S
C1479 C1476 1.386 . S
C1480 C1475 1.490 . S
C1480 C1482 1.395 . S
C1480 C1483 1.403 . S
H1481 C1487 0.930 . S
C1482 H1468 0.930 . S
C1482 C1480 1.395 . S
C1482 C1485 1.403 . S
C1483 C1480 1.403 . S
C1483 C1484 1.524 . S
C1483 C1487 1.400 . S
C1484 H1469 0.960 . S
C1484 H1470 0.960 . S
C1484 H1471 0.960 . S
C1484 C1483 1.524 . S
C1485 C1482 1.403 . S
C1485 C1486 1.392 . S
C1485 C1489 1.495 . S
C1486 C1485 1.392 . S
C1486 C1487 1.385 . S
C1486 C1488 1.478 . S
C1487 H1481 0.930 . S
C1487 C1483 1.400 . S
C1487 C1486 1.385 . S
C1488 C1486 1.478 . S
C1488 C1490 1.381 . S
C1488 C1494 1.383 . S
C1489 C1485 1.495 . S
C1489 H1495 0.959 . S
C1489 H1496 0.961 . S
C1489 H1497 0.960 . S
C1490 C1488 1.381 . S
C1490 C1491 1.394 . S
C1490 H1498 0.930 . S
C1491 C1490 1.394 . S
C1491 C1492 1.383 . S
C1491 H1499 0.929 . S
C1492 C1491 1.383 . S
C1492 C1493 1.377 . S
C1493 H1477 0.930 . S
C1493 C1492 1.377 . S
C1493 C1494 1.379 . S
C1494 H1478 0.931 . S
C1494 C1488 1.383 . S
C1494 C1493 1.379 . S
H1495 C1489 0.959 . S
H1496 C1489 0.961 . S
H1497 C1489 0.960 . S
H1498 C1490 0.930 . S
H1499 C1491 0.929 . S
H1500 C1508 0.929 . S
H1501 C1510 0.930 . S
H1502 C1512 0.930 . S
H1503 C1515 0.929 . S
H1504 C1518 0.930 . S
H1505 C1520 0.960 . S
H1506 C1520 0.960 . S
H1507 C1520 0.960 . S
C1508 H1500 0.929 . S
C1508 C1509 1.377 . S
C1508 C1510 1.384 . S
C1509 C1508 1.377 . S
C1509 C1515 1.390 . S
C1510 H1501 0.930 . S
C1510 C1508 1.384 . S
C1510 C1511 1.372 . S
C1511 C1510 1.372 . S
C1511 C1512 1.400 . S
C1511 C1516 1.490 . S
C1512 H1502 0.930 . S
C1512 C1511 1.400 . S
C1512 C1515 1.386 . S
H1513 C1529 0.930 . S
H1514 C1530 0.931 . S
C1515 H1503 0.929 . S
C1515 C1509 1.390 . S
C1515 C1512 1.386 . S
C1516 C1511 1.490 . S
C1516 C1518 1.395 . S
C1516 C1519 1.403 . S
H1517 C1523 0.930 . S
C1518 H1504 0.930 . S
C1518 C1516 1.395 . S
C1518 C1521 1.403 . S
C1519 C1516 1.403 . S
C1519 C1520 1.524 . S
C1519 C1523 1.400 . S
C1520 H1505 0.960 . S
C1520 H1506 0.960 . S
C1520 H1507 0.960 . S
C1520 C1519 1.524 . S
C1521 C1518 1.403 . S
C1521 C1522 1.392 . S
C1521 C1525 1.495 . S
C1522 C1521 1.392 . S
C1522 C1523 1.385 . S
C1522 C1524 1.478 . S
C1523 H1517 0.930 . S
C1523 C1519 1.400 . S
C1523 C1522 1.385 . S
C1524 C1522 1.478 . S
C1524 C1526 1.381 . S
C1524 C1530 1.383 . S
C1525 C1521 1.495 . S
C1525 H1531 0.959 . S
C1525 H1532 0.961 . S
C1525 H1533 0.960 . S
C1526 C1524 1.381 . S
C1526 C1527 1.394 . S
C1526 H1534 0.930 . S
C1527 C1526 1.394 . S
C1527 C1528 1.383 . S
C1527 H1535 0.929 . S
C1528 C1527 1.383 . S
C1528 C1529 1.377 . S
C1529 H1513 0.930 . S
C1529 C1528 1.377 . S
C1529 C1530 1.379 . S
C1530 H1514 0.931 . S
C1530 C1524 1.383 . S
C1530 C1529 1.379 . S
H1531 C1525 0.959 . S
H1532 C1525 0.961 . S
H1533 C1525 0.960 . S
H1534 C1526 0.930 . S
H1535 C1527 0.929 . S
H1536 C1544 0.929 . S
H1537 C1546 0.930 . S
H1538 C1548 0.930 . S
H1539 C1551 0.929 . S
H1540 C1554 0.930 . S
H1541 C1556 0.960 . S
H1542 C1556 0.960 . S
H1543 C1556 0.960 . S
C1544 H1536 0.929 . S
C1544 C1545 1.377 . S
C1544 C1546 1.384 . S
C1545 C1544 1.377 . S
C1545 C1551 1.390 . S
C1546 H1537 0.930 . S
C1546 C1544 1.384 . S
C1546 C1547 1.372 . S
C1547 C1546 1.372 . S
C1547 C1548 1.400 . S
C1547 C1552 1.490 . S
C1548 H1538 0.930 . S
C1548 C1547 1.400 . S
C1548 C1551 1.386 . S
H1549 C1565 0.930 . S
H1550 C1566 0.931 . S
C1551 H1539 0.929 . S
C1551 C1545 1.390 . S
C1551 C1548 1.386 . S
C1552 C1547 1.490 . S
C1552 C1554 1.395 . S
C1552 C1555 1.403 . S
H1553 C1559 0.930 . S
C1554 H1540 0.930 . S
C1554 C1552 1.395 . S
C1554 C1557 1.403 . S
C1555 C1552 1.403 . S
C1555 C1556 1.524 . S
C1555 C1559 1.400 . S
C1556 H1541 0.960 . S
C1556 H1542 0.960 . S
C1556 H1543 0.960 . S
C1556 C1555 1.524 . S
C1557 C1554 1.403 . S
C1557 C1558 1.392 . S
C1557 C1561 1.495 . S
C1558 C1557 1.392 . S
C1558 C1559 1.385 . S
C1558 C1560 1.478 . S
C1559 H1553 0.930 . S
C1559 C1555 1.400 . S
C1559 C1558 1.385 . S
C1560 C1558 1.478 . S
C1560 C1562 1.381 . S
C1560 C1566 1.383 . S
C1561 C1557 1.495 . S
C1561 H1567 0.959 . S
C1561 H1568 0.961 . S
C1561 H1569 0.960 . S
C1562 C1560 1.381 . S
C1562 C1563 1.394 . S
C1562 H1570 0.930 . S
C1563 C1562 1.394 . S
C1563 C1564 1.383 . S
C1563 H1571 0.929 . S
C1564 C1563 1.383 . S
C1564 C1565 1.377 . S
C1565 H1549 0.930 . S
C1565 C1564 1.377 . S
C1565 C1566 1.379 . S
C1566 H1550 0.931 . S
C1566 C1560 1.383 . S
C1566 C1565 1.379 . S
H1567 C1561 0.959 . S
H1568 C1561 0.961 . S
H1569 C1561 0.960 . S
H1570 C1562 0.930 . S
H1571 C1563 0.929 . S
C285 C63 0.728 1_455 S
C304 C21 0.777 . S
C321 C86 0.676 1_565 S
C340 C44 0.725 . S
C357 C67 0.742 . S
C376 C109 0.743 . S
C393 C90 0.673 . S
C412 C132 0.719 1_455 S
C429 C17 0.742 1_565 S
C448 C113 0.691 . S
C465 C40 0.667 . S
C484 C136 0.617 . S
C501 C247 0.664 1_545 S
C520 C159 0.615 . S
C537 C182 0.740 . S
C556 C270 0.755 . S
C573 C205 0.677 . S
C592 C155 0.722 1_655 S
C609 C228 0.732 . S
C628 C178 0.780 1_545 S
C645 C251 0.660 . S
C664 C201 0.630 . S
C681 C224 0.734 1_655 S
C700 C274 0.776 . S
C717 C88 1.490 . S
C736 C20 1.512 . S
C753 C42 1.490 . S
C772 C112 1.507 . S
C789 C66 1.500 . S
C808 C134 1.509 . S
C825 C157 1.491 . S
C844 C227 1.500 . S
C861 C181 1.505 . S
C880 C249 1.481 . S
C897 C203 1.489 . S
C916 C273 1.511 . S
C933 C180 1.524 . S
C952 C19 1.531 . S
C969 C43 1.539 . S
C988 C204 1.532 . S
C1005 C226 1.522 . S
C1024 C65 1.507 . S
C1041 C89 1.541 . S
C1060 C250 1.541 . S
C1077 C111 1.522 . S
C1096 C272 1.507 . S
C1113 C158 1.539 . S
C1132 C135 1.531 . S
C1149 C62 1.044 . S
C1168 C18 1.010 . S
C1185 C41 1.076 . S
C1204 C85 1.097 . S
C1221 C64 1.038 . S
C1240 C108 1.042 . S
C1257 C87 1.084 . S
C1276 C131 1.089 . S
C1293 C16 1.043 . S
C1312 C110 1.013 . S
C1329 C39 1.088 . S
C1348 C133 1.068 . S
C1365 C246 1.093 . S
C1384 C156 1.085 . S
C1401 C179 1.039 . S
C1420 C269 1.042 . S
C1437 C202 1.077 . S
C1456 C154 1.098 . S
C1473 C177 1.044 . S
C1492 C225 1.050 . S
C1509 C248 1.084 . S
C1528 C200 1.096 . S
C1545 C271 1.037 . S
C1564 C223 1.037 . S
