# Generated by pormake.
# Topology ske, (6)-cn, num edge types: 1
# Building blocks:
#     Node 0, Type 0, BuildingBlock: GEDQOX_clean_sbu_0, # of connection points: 6
#     Node 1, Type 0, BuildingBlock: GEDQOX_clean_sbu_0, # of connection points: 6
#     Node 2, Type 0, BuildingBlock: GEDQOX_clean_sbu_0, # of connection points: 6
#     Node 3, Type 0, BuildingBlock: GEDQOX_clean_sbu_0, # of connection points: 6
#     Node 4, Type 0, BuildingBlock: GEDQOX_clean_sbu_0, # of connection points: 6
#     Node 5, Type 0, BuildingBlock: GEDQOX_clean_sbu_0, # of connection points: 6
#     Node 6, Type 0, BuildingBlock: GEDQOX_clean_sbu_0, # of connection points: 6
#     Node 7, Type 0, BuildingBlock: GEDQOX_clean_sbu_0, # of connection points: 6
#     Edge 8, Type (0, 0), BuildingBlock: EZIPEK_clean_linker_0, # of connection points: 2
#     Edge 9, Type (0, 0), BuildingBlock: EZIPEK_clean_linker_0, # of connection points: 2
#     Edge 10, Type (0, 0), BuildingBlock: EZIPEK_clean_linker_0, # of connection points: 2
#     Edge 11, Type (0, 0), BuildingBlock: EZIPEK_clean_linker_0, # of connection points: 2
#     Edge 12, Type (0, 0), BuildingBlock: EZIPEK_clean_linker_0, # of connection points: 2
#     Edge 13, Type (0, 0), BuildingBlock: EZIPEK_clean_linker_0, # of connection points: 2
#     Edge 14, Type (0, 0), BuildingBlock: EZIPEK_clean_linker_0, # of connection points: 2
#     Edge 15, Type (0, 0), BuildingBlock: EZIPEK_clean_linker_0, # of connection points: 2
#     Edge 16, Type (0, 0), BuildingBlock: EZIPEK_clean_linker_0, # of connection points: 2
#     Edge 17, Type (0, 0), BuildingBlock: EZIPEK_clean_linker_0, # of connection points: 2
#     Edge 18, Type (0, 0), BuildingBlock: EZIPEK_clean_linker_0, # of connection points: 2
#     Edge 19, Type (0, 0), BuildingBlock: EZIPEK_clean_linker_0, # of connection points: 2
#     Edge 20, Type (0, 0), BuildingBlock: EZIPEK_clean_linker_0, # of connection points: 2
#     Edge 21, Type (0, 0), BuildingBlock: EZIPEK_clean_linker_0, # of connection points: 2
#     Edge 22, Type (0, 0), BuildingBlock: EZIPEK_clean_linker_0, # of connection points: 2
#     Edge 23, Type (0, 0), BuildingBlock: EZIPEK_clean_linker_0, # of connection points: 2
#     Edge 24, Type (0, 0), BuildingBlock: EZIPEK_clean_linker_0, # of connection points: 2
#     Edge 25, Type (0, 0), BuildingBlock: EZIPEK_clean_linker_0, # of connection points: 2
#     Edge 26, Type (0, 0), BuildingBlock: EZIPEK_clean_linker_0, # of connection points: 2
#     Edge 27, Type (0, 0), BuildingBlock: EZIPEK_clean_linker_0, # of connection points: 2
#     Edge 28, Type (0, 0), BuildingBlock: EZIPEK_clean_linker_0, # of connection points: 2
#     Edge 29, Type (0, 0), BuildingBlock: EZIPEK_clean_linker_0, # of connection points: 2
#     Edge 30, Type (0, 0), BuildingBlock: EZIPEK_clean_linker_0, # of connection points: 2
#     Edge 31, Type (0, 0), BuildingBlock: EZIPEK_clean_linker_0, # of connection points: 2
# Relax obj value: 0.225
# Max RMSD: 0.261
# Mean RMSD: 0.261
data_MOF--net-ske--node1-GEDQOX_clean_sbu_0--edge1-EZIPEK_clean_linker_0
_symmetry_space_group_name_H-M    P1
_symmetry_Int_Tables_number       1
_symmetry_cell_setting            triclinic
loop_
_symmetry_equiv_pos_as_xyz
'x, y, z'
_cell_length_a     38.490663
_cell_length_b     20.588799
_cell_length_c     20.797804
_cell_angle_alpha  89.975795
_cell_angle_beta   90.017207
_cell_angle_gamma 94.868951
loop_
_atom_site_label
_atom_site_type_symbol
_atom_site_fract_x
_atom_site_fract_y
_atom_site_fract_z
_atom_type_partial_charge
Nd0 Nd 0.16939 0.28213 0.54998 0.0
Nd1 Nd 0.12897 0.26381 0.66757 0.0
C2 C 0.20595 0.32062 0.44685 0.0
C3 C 0.20052 0.31329 0.37623 0.0
C4 C 0.19073 0.36632 0.33964 0.0
C5 C 0.18278 0.35893 0.27417 0.0
C6 C 0.18471 0.29851 0.24378 0.0
C7 C 0.19567 0.24602 0.2794 0.0
C8 C 0.20351 0.25326 0.34501 0.0
C9 C 0.14328 0.15414 0.55958 0.0
C10 C 0.08426 0.25985 0.54037 0.0
C11 C 0.10407 0.23041 0.783 0.0
C12 C 0.1167 0.24126 0.84971 0.0
C13 C 0.10949 0.19273 0.89639 0.0
C14 C 0.12148 0.20213 0.95962 0.0
C15 C 0.14076 0.26043 0.97736 0.0
C16 C 0.14824 0.30881 0.93053 0.0
C17 C 0.13651 0.29917 0.86717 0.0
C18 C 0.13229 0.3903 0.61858 0.0
C19 C 0.2108 0.2796 0.69136 0.0
O20 O 0.18512 0.35751 0.47689 0.0
O21 O 0.21169 0.26838 0.47978 0.0
O22 O 0.1435 0.18882 0.50772 0.0
O23 O 0.156 0.18828 0.60667 0.0
O24 O 0.11181 0.29497 0.51641 0.0
O25 O 0.08748 0.23002 0.59578 0.0
O26 O 0.12143 0.19205 0.74751 0.0
O27 O 0.09547 0.28153 0.75146 0.0
O28 O 0.10456 0.36029 0.64384 0.0
O29 O 0.15733 0.35469 0.62356 0.0
O30 O 0.18048 0.28601 0.71724 0.0
O31 O 0.21406 0.27396 0.62777 0.0
H32 H 0.18848 0.41328 0.36202 0.0
H33 H 0.17449 0.40006 0.24743 0.0
H34 H 0.19739 0.19905 0.25672 0.0
H35 H 0.21118 0.21144 0.37143 0.0
H36 H 0.09452 0.14755 0.88393 0.0
H37 H 0.11545 0.16419 0.99497 0.0
H38 H 0.1631 0.35407 0.94313 0.0
H39 H 0.14281 0.33708 0.83189 0.0
Nd40 Nd 0.85336 0.27477 0.55789 0.0
Nd41 Nd 0.89339 0.30152 0.66962 0.0
C42 C 0.82754 0.2279 0.44732 0.0
C43 C 0.83323 0.24006 0.37823 0.0
C44 C 0.82839 0.18797 0.33479 0.0
C45 C 0.83538 0.19777 0.26936 0.0
C46 C 0.84719 0.25989 0.2466 0.0
C47 C 0.85149 0.31233 0.28978 0.0
C48 C 0.84467 0.30246 0.35529 0.0
C49 C 0.85987 0.40683 0.57476 0.0
C50 C 0.94159 0.30728 0.55219 0.0
C51 C 0.91887 0.33429 0.78472 0.0
C52 C 0.90799 0.32142 0.85161 0.0
C53 C 0.92011 0.36462 0.9003 0.0
C54 C 0.90925 0.35387 0.96386 0.0
C55 C 0.88607 0.29981 0.97942 0.0
C56 C 0.87377 0.25668 0.93063 0.0
C57 C 0.88464 0.26752 0.86705 0.0
C58 C 0.88358 0.16795 0.63397 0.0
C59 C 0.81221 0.28335 0.69502 0.0
O60 O 0.85285 0.20304 0.47806 0.0
O61 O 0.81387 0.27339 0.48017 0.0
O62 O 0.83089 0.37268 0.56246 0.0
O63 O 0.88455 0.3702 0.58374 0.0
O64 O 0.91334 0.2743 0.52703 0.0
O65 O 0.93811 0.33898 0.60576 0.0
O66 O 0.89916 0.37054 0.75156 0.0
O67 O 0.92825 0.28466 0.75187 0.0
O68 O 0.9124 0.19748 0.6541 0.0
O69 O 0.86077 0.20801 0.63711 0.0
O70 O 0.84031 0.31983 0.70997 0.0
O71 O 0.81149 0.25037 0.63993 0.0
H72 H 0.8197 0.13949 0.35167 0.0
H73 H 0.83207 0.15681 0.23661 0.0
H74 H 0.86077 0.36049 0.2729 0.0
H75 H 0.84875 0.34326 0.38807 0.0
H76 H 0.93793 0.4067 0.88913 0.0
H77 H 0.91898 0.38754 1.001 0.0
H78 H 0.8559 0.21471 0.94185 0.0
H79 H 0.87491 0.23389 0.82994 0.0
Nd80 Nd 0.12548 0.76246 0.41054 0.0
Nd81 Nd 0.16822 0.78145 0.52858 0.0
C82 C 0.09821 0.73102 0.29613 0.0
C83 C 0.10937 0.73645 0.22804 0.0
C84 C 0.14461 0.73588 0.2099 0.0
C85 C 0.15451 0.74394 0.14521 0.0
C86 C 0.1293 0.75241 0.0978 0.0
C87 C 0.09417 0.75259 0.11593 0.0
C88 C 0.08432 0.74481 0.18043 0.0
C89 C 0.13302 0.89061 0.4575 0.0
C90 C 0.20882 0.77776 0.38619 0.0
C91 C 0.20442 0.81698 0.63264 0.0
C92 C 0.19756 0.80594 0.70226 0.0
C93 C 0.19612 0.85912 0.7438 0.0
C94 C 0.1841 0.85002 0.80706 0.0
C95 C 0.17084 0.7878 0.8298 0.0
C96 C 0.17849 0.73423 0.79091 0.0
C97 C 0.19036 0.74306 0.72754 0.0
C98 C 0.14012 0.6544 0.51921 0.0
C99 C 0.0824 0.76417 0.53976 0.0
O100 O 0.11327 0.69002 0.33271 0.0
O101 O 0.09386 0.78572 0.32546 0.0
O102 O 0.10471 0.86308 0.43218 0.0
O103 O 0.15633 0.85141 0.45324 0.0
O104 O 0.17772 0.77364 0.36044 0.0
O105 O 0.21284 0.78074 0.44996 0.0
O106 O 0.18362 0.85488 0.6037 0.0
O107 O 0.21073 0.76624 0.59778 0.0
O108 O 0.14154 0.689 0.57101 0.0
O109 O 0.15296 0.68812 0.47202 0.0
O110 O 0.11112 0.79728 0.56188 0.0
O111 O 0.08328 0.73379 0.48413 0.0
H112 H 0.16449 0.72946 0.24554 0.0
H113 H 0.18175 0.74373 0.13217 0.0
H114 H 0.07435 0.75912 0.08004 0.0
H115 H 0.05708 0.74574 0.19323 0.0
H116 H 0.2036 0.90811 0.72691 0.0
H117 H 0.18531 0.89271 0.83728 0.0
H118 H 0.17547 0.68473 0.80826 0.0
H119 H 0.19323 0.70043 0.69812 0.0
Nd120 Nd 0.89147 0.79454 0.42589 0.0
Nd121 Nd 0.85368 0.78037 0.54836 0.0
C122 C 0.92571 0.81704 0.31672 0.0
C123 C 0.91405 0.81766 0.24885 0.0
C124 C 0.88435 0.84872 0.23062 0.0
C125 C 0.87217 0.84482 0.16716 0.0
C126 C 0.88914 0.80908 0.12101 0.0
C127 C 0.91888 0.77835 0.13907 0.0
C128 C 0.93127 0.78276 0.20238 0.0
C129 C 0.86925 0.66676 0.46242 0.0
C130 C 0.81097 0.79265 0.4075 0.0
C131 C 0.81758 0.75263 0.65507 0.0
C132 C 0.82397 0.76192 0.72509 0.0
C133 C 0.83149 0.70863 0.76353 0.0
C134 C 0.84002 0.71737 0.82857 0.0
C135 C 0.84093 0.77947 0.85662 0.0
C136 C 0.83219 0.83242 0.81911 0.0
C137 C 0.82381 0.8238 0.75394 0.0
C138 C 0.87961 0.9061 0.53161 0.0
C139 C 0.93931 0.78538 0.55131 0.0
O140 O 0.91632 0.86357 0.35409 0.0
O141 O 0.92277 0.76019 0.34489 0.0
O142 O 0.86633 0.68859 0.40433 0.0
O143 O 0.88351 0.71069 0.49688 0.0
O144 O 0.84039 0.81873 0.38465 0.0
O145 O 0.80969 0.76721 0.46674 0.0
O146 O 0.83607 0.71116 0.62598 0.0
O147 O 0.81414 0.80462 0.62033 0.0
O148 O 0.88158 0.8736 0.58437 0.0
O149 O 0.8653 0.8708 0.48681 0.0
O150 O 0.91028 0.76252 0.58118 0.0
O151 O 0.93807 0.81106 0.4936 0.0
H152 H 0.87021 0.87526 0.26554 0.0
H153 H 0.8492 0.86889 0.1542 0.0
H154 H 0.93237 0.7506 0.10416 0.0
H155 H 0.95399 0.75793 0.21537 0.0
H156 H 0.83147 0.66029 0.74294 0.0
H157 H 0.84657 0.67588 0.8568 0.0
H158 H 0.8326 0.88067 0.84002 0.0
H159 H 0.81787 0.86587 0.72602 0.0
Nd160 Nd 0.67087 0.78478 0.05557 0.0
Nd161 Nd 0.62782 0.75641 0.16796 0.0
C162 C 0.69703 0.82969 0.9444 0.0
C163 C 0.68986 0.81664 0.87553 0.0
C164 C 0.69288 0.8683 0.83125 0.0
C165 C 0.68497 0.85727 0.7662 0.0
C166 C 0.67402 0.79431 0.74441 0.0
C167 C 0.67129 0.74243 0.78847 0.0
C168 C 0.67903 0.75351 0.85359 0.0
C169 C 0.66219 0.65176 0.07346 0.0
C170 C 0.58397 0.75444 1.04022 0.0
C171 C 0.60191 0.71726 0.28095 0.0
C172 C 0.61315 0.7286 0.34819 0.0
C173 C 0.5988 0.68815 0.39739 0.0
C174 C 0.60946 0.69848 0.46127 0.0
C175 C 0.63462 0.74954 0.47689 0.0
C176 C 0.64919 0.78974 0.42754 0.0
C177 C 0.63863 0.7792 0.36363 0.0
C178 C 0.63372 0.88732 0.13142 0.0
C179 C 0.71112 0.78123 0.19448 0.0
O180 O 0.67308 0.85754 0.97618 0.0
O181 O 0.71001 0.78348 0.97739 0.0
O182 O 0.69157 0.68464 0.06115 0.0
O183 O 0.63828 0.69016 0.08144 0.0
O184 O 0.61305 0.78485 1.01645 0.0
O185 O 0.58431 0.72842 0.0979 0.0
O186 O 0.62168 0.6826 0.246 0.0
O187 O 0.59199 0.76777 0.24996 0.0
O188 O 0.60572 0.85693 0.15492 0.0
O189 O 0.65819 0.85026 0.13449 0.0
O190 O 0.68152 0.75122 0.21319 0.0
O191 O 0.7137 0.80662 0.13563 0.0
H192 H 0.70101 0.91736 0.84716 0.0
H193 H 0.68708 0.89789 0.73291 0.0
H194 H 0.66271 0.6936 0.77255 0.0
H195 H 0.67625 0.71289 0.88684 0.0
H196 H 0.57929 0.64865 0.38641 0.0
H197 H 0.59794 0.66695 0.49866 0.0
H198 H 0.66863 0.82933 0.43858 0.0
H199 H 0.65026 0.81068 0.32629 0.0
Nd200 Nd 0.35269 0.76506 1.04258 0.0
Nd201 Nd 0.39602 0.77147 0.15262 0.0
C202 C 0.3194 0.74692 0.93076 0.0
C203 C 0.32804 0.74385 0.86196 0.0
C204 C 0.36149 0.73067 0.84153 0.0
C205 C 0.36984 0.7322 0.77604 0.0
C206 C 0.34506 0.74805 0.73031 0.0
C207 C 0.31158 0.76094 0.75072 0.0
C208 C 0.30309 0.75856 0.81614 0.0
C209 C 0.36556 0.89158 0.076 0.0
C210 C 0.44169 0.77519 1.03104 0.0
C211 C 0.42454 0.7857 0.26849 0.0
C212 C 0.4119 0.7815 0.33553 0.0
C213 C 0.37871 0.79998 0.35216 0.0
C214 C 0.36674 0.79377 0.41554 0.0
C215 C 0.38794 0.76974 0.46334 0.0
C216 C 0.42112 0.75153 0.44699 0.0
C217 C 0.43296 0.75714 0.38343 0.0
C218 C 0.38076 0.64677 0.10155 0.0
C219 C 0.31392 0.76931 0.1818 0.0
O220 O 0.32781 0.69932 0.9674 0.0
O221 O 0.32596 0.80352 0.95788 0.0
O222 O 0.33466 0.86185 0.07215 0.0
O223 O 0.3888 0.85096 0.07622 0.0
O224 O 0.41106 0.7545 1.00446 0.0
O225 O 0.44241 0.79802 0.08959 0.0
O226 O 0.41521 0.83435 0.23394 0.0
O227 O 0.42285 0.73106 0.23645 0.0
O228 O 0.41154 0.67 0.11941 0.0
O229 O 0.35902 0.68743 0.11301 0.0
O230 O 0.34485 0.79321 0.2 0.0
O231 O 0.30955 0.74644 0.12238 0.0
H232 H 0.38131 0.72052 0.87615 0.0
H233 H 0.39588 0.72269 0.76108 0.0
H234 H 0.29221 0.77357 0.71609 0.0
H235 H 0.27725 0.7695 0.83108 0.0
H236 H 0.36198 0.81921 0.31638 0.0
H237 H 0.34107 0.8081 0.42742 0.0
H238 H 0.43779 0.73297 0.48343 0.0
H239 H 0.45857 0.74246 0.37164 0.0
Nd240 Nd 0.6306 0.26215 0.92374 0.0
Nd241 Nd 0.66816 0.2747 0.04617 0.0
C242 C 0.59595 0.23794 0.81522 0.0
C243 C 0.60766 0.23846 0.74749 0.0
C244 C 0.64062 0.21859 0.73109 0.0
C245 C 0.65267 0.22363 0.66768 0.0
C246 C 0.63208 0.24897 0.61962 0.0
C247 C 0.59904 0.26834 0.63572 0.0
C248 C 0.58694 0.26316 0.69922 0.0
C249 C 0.65083 0.39038 0.96182 0.0
C250 C 0.7117 0.2687 0.90574 0.0
C251 C 0.70368 0.30083 0.15379 0.0
C252 C 0.69596 0.29529 0.22363 0.0
C253 C 0.67227 0.33456 0.25303 0.0
C254 C 0.66398 0.32689 0.31822 0.0
C255 C 0.67912 0.27987 0.35526 0.0
C256 C 0.70329 0.24147 0.32666 0.0
C257 C 0.71174 0.24929 0.26141 0.0
C258 C 0.64149 0.14891 1.02768 0.0
C259 C 0.5831 0.26706 0.05028 0.0
O260 O 0.60663 0.19214 0.85206 0.0
O261 O 0.59788 0.2946 0.84371 0.0
O262 O 0.65346 0.36954 0.90334 0.0
O263 O 0.63756 0.3452 0.9963 0.0
O264 O 0.6824 0.24477 0.8806 0.0
O265 O 0.71276 0.29002 0.9664 0.0
O266 O 0.68806 0.34428 0.12145 0.0
O267 O 0.70488 0.24636 0.12195 0.0
O268 O 0.63989 0.18098 0.08075 0.0
O269 O 0.65643 0.18453 0.98354 0.0
O270 O 0.61181 0.29079 0.08041 0.0
O271 O 0.58452 0.2431 0.99191 0.0
H272 H 0.65729 0.19983 0.76736 0.0
H273 H 0.6782 0.20842 0.65616 0.0
H274 H 0.5828 0.28796 0.5992 0.0
H275 H 0.56162 0.27931 0.71084 0.0
H276 H 0.6597 0.37068 0.22561 0.0
H277 H 0.64529 0.35693 0.33959 0.0
H278 H 0.71528 0.20502 0.35467 0.0
H279 H 0.73023 0.21869 0.24023 0.0
Nd280 Nd 0.39029 0.27279 0.9174 0.0
Nd281 Nd 0.35313 0.24853 1.04048 0.0
C282 C 0.42314 0.29925 0.80734 0.0
C283 C 0.41099 0.29655 0.73973 0.0
C284 C 0.37808 0.31639 0.72279 0.0
C285 C 0.36586 0.30965 0.6595 0.0
C286 C 0.38613 0.28229 0.61214 0.0
C287 C 0.41907 0.26279 0.6289 0.0
C288 C 0.43139 0.26993 0.69214 0.0
C289 C 0.37231 0.14279 0.95003 0.0
C290 C 0.30973 0.26514 0.90075 0.0
C291 C 0.31911 0.208 0.14617 0.0
C292 C 0.32433 0.21886 0.21633 0.0
C293 C 0.33787 0.17038 0.25435 0.0
C294 C 0.34552 0.18166 0.3194 0.0
C295 C 0.3395 0.24141 0.34796 0.0
C296 C 0.3247 0.28904 0.31096 0.0
C297 C 0.31724 0.27797 0.24571 0.0
C298 C 0.37331 0.37734 1.02874 0.0
C299 C 0.4385 0.2712 0.04348 0.0
O300 O 0.41132 0.34399 0.84398 0.0
O301 O 0.42335 0.24319 0.83659 0.0
O302 O 0.36735 0.1659 0.89311 0.0
O303 O 0.38566 0.1867 0.98533 0.0
O304 O 0.3385 0.29459 0.87875 0.0
O305 O 0.30909 0.23661 0.95861 0.0
O306 O 0.34193 0.17475 0.11726 0.0
O307 O 0.31064 0.25712 0.11149 0.0
O308 O 0.37687 0.34336 0.0802 0.0
O309 O 0.36094 0.34195 0.98225 0.0
O310 O 0.41064 0.24384 0.07371 0.0
O311 O 0.43606 0.296 0.98552 0.0
H312 H 0.36157 0.33644 0.75855 0.0
H313 H 0.34041 0.32502 0.64759 0.0
H314 H 0.43512 0.24165 0.59304 0.0
H315 H 0.45667 0.25379 0.70412 0.0
H316 H 0.34329 0.12414 0.2334 0.0
H317 H 0.35678 0.1442 0.34722 0.0
H318 H 0.31969 0.33533 0.33226 0.0
H319 H 0.30661 0.31625 0.21815 0.0
C320 C 0.25083 0.33125 0.77564 0.0
C321 C 0.24012 0.27515 0.73867 0.0
C322 C 0.27075 0.20808 0.81584 0.0
C323 C 0.2794 0.26386 0.85495 0.0
N324 N 0.27223 0.37618 0.87783 0.0
N325 N 0.23603 0.15834 0.72807 0.0
C326 C 0.26763 0.32467 0.83639 0.0
C327 C 0.24913 0.21302 0.76001 0.0
N328 N 0.24572 0.39134 0.75135 0.0
N329 N 0.2842 0.1507 0.83085 0.0
H330 H 0.22171 0.16031 0.6856 0.0
H331 H 0.23783 0.11122 0.74519 0.0
H332 H 0.29806 0.14439 0.87313 0.0
H333 H 0.28291 0.11048 0.80035 0.0
H334 H 0.25533 0.43496 0.77263 0.0
H335 H 0.23489 0.39717 0.70595 0.0
H336 H 0.26166 0.42048 0.87057 0.0
H337 H 0.28388 0.37219 0.92286 0.0
C338 C 0.74506 0.33079 0.81791 0.0
C339 C 0.74211 0.27617 0.85998 0.0
C340 C 0.78511 0.22469 0.79295 0.0
C341 C 0.78447 0.27542 0.74632 0.0
N342 N 0.76063 0.3738 0.71172 0.0
N343 N 0.75662 0.16737 0.88344 0.0
C344 C 0.76343 0.32759 0.75819 0.0
C345 C 0.76137 0.22201 0.84615 0.0
N346 N 0.73096 0.38658 0.83608 0.0
N347 N 0.80961 0.18072 0.78842 0.0
H348 H 0.74114 0.1653 0.9247 0.0
H349 H 0.76646 0.12334 0.8715 0.0
H350 H 0.82798 0.1821 0.7516 0.0
H351 H 0.8139 0.147 0.82429 0.0
H352 H 0.73437 0.43018 0.81059 0.0
H353 H 0.71913 0.39103 0.88076 0.0
H354 H 0.74322 0.40974 0.71429 0.0
H355 H 0.77353 0.37244 0.66766 0.0
C356 C 0.25889 0.81051 0.22844 0.0
C357 C 0.28539 0.76684 0.23194 0.0
C358 C 0.26347 0.73169 0.34007 0.0
C359 C 0.23877 0.77929 0.33867 0.0
N360 N 0.21831 0.87327 0.28601 0.0
N361 N 0.31585 0.69143 0.29533 0.0
C362 C 0.23803 0.82113 0.2839 0.0
C363 C 0.28858 0.72939 0.28923 0.0
N364 N 0.25353 0.8421 0.17197 0.0
N365 N 0.26184 0.68604 0.38795 0.0
H366 H 0.33324 0.68445 0.25806 0.0
H367 H 0.32253 0.67009 0.33853 0.0
H368 H 0.24414 0.68578 0.42585 0.0
H369 H 0.27621 0.64542 0.38767 0.0
H370 H 0.23215 0.86877 0.16373 0.0
H371 H 0.26878 0.83693 0.13118 0.0
H372 H 0.21918 0.90949 0.25096 0.0
H373 H 0.20374 0.88416 0.32621 0.0
C374 C 0.75437 0.84464 0.26962 0.0
C375 C 0.74054 0.78412 0.24349 0.0
C376 C 0.76995 0.72718 0.33115 0.0
C377 C 0.78106 0.78795 0.36018 0.0
N378 N 0.77897 0.90419 0.36243 0.0
N379 N 0.73578 0.66706 0.24893 0.0
C380 C 0.77172 0.84647 0.33077 0.0
C381 C 0.7485 0.72531 0.27458 0.0
N382 N 0.75203 0.90042 0.23507 0.0
N383 N 0.78145 0.67124 0.35564 0.0
H384 H 0.72462 0.66387 0.2033 0.0
H385 H 0.7357 0.62257 0.27273 0.0
H386 H 0.79552 0.67015 0.39829 0.0
H387 H 0.77846 0.62624 0.33266 0.0
H388 H 0.76405 0.94559 0.24843 0.0
H389 H 0.74155 0.90012 0.18899 0.0
H390 H 0.77009 0.94813 0.34751 0.0
H391 H 0.79103 0.90682 0.40744 0.0
C392 C 0.10886 0.98171 0.52529 0.0
C393 C 0.13716 0.95695 0.49045 0.0
C394 C 0.17337 0.05899 0.5179 0.0
C395 C 0.14502 0.08219 0.55188 0.0
N396 N 0.09081 0.05781 0.60575 0.0
N397 N 0.19818 0.9728 0.45918 0.0
C398 C 0.11442 0.04091 0.56108 0.0
C399 C 0.17007 0.99542 0.48935 0.0
N400 N 0.07604 0.95091 0.5231 0.0
N401 N 0.20306 0.09968 0.5101 0.0
H402 H 0.19645 0.93462 0.42648 0.0
H403 H 0.22374 0.99206 0.46671 0.0
H404 H 0.20726 0.14378 0.53478 0.0
H405 H 0.22296 0.09129 0.47808 0.0
H406 H 0.05408 0.97307 0.53812 0.0
H407 H 0.06977 0.90482 0.50437 0.0
H408 H 0.06939 0.02695 0.62028 0.0
H409 H 0.09488 0.10038 0.633 0.0
C410 C 0.88562 0.48806 0.49133 0.0
C411 C 0.8645 0.47402 0.54677 0.0
C412 C 0.83944 0.57876 0.53158 0.0
C413 C 0.86486 0.59736 0.4842 0.0
N414 N 0.91591 0.57173 0.42531 0.0
N415 N 0.82384 0.5109 0.62405 0.0
C416 C 0.88912 0.55265 0.46598 0.0
C417 C 0.84219 0.52098 0.56817 0.0
N418 N 0.90012 0.43921 0.45935 0.0
N419 N 0.81156 0.61461 0.53952 0.0
H420 H 0.8254 0.46944 0.65245 0.0
H421 H 0.80979 0.54641 0.64511 0.0
H422 H 0.80827 0.65587 0.51205 0.0
H423 H 0.79029 0.59994 0.56864 0.0
H424 H 0.91244 0.4463 0.41497 0.0
H425 H 0.89618 0.39043 0.47266 0.0
H426 H 0.93644 0.54306 0.4163 0.0
H427 H 0.91898 0.61799 0.40457 0.0
C428 C 0.84688 1.00138 0.56296 0.0
C429 C 0.87775 0.97752 0.53835 0.0
C430 C 0.90919 0.083 0.56119 0.0
C431 C 0.88037 0.10347 0.59736 0.0
N432 N 0.82153 0.0759 0.63581 0.0
N433 N 0.93932 0.99382 0.51877 0.0
C434 C 0.84888 0.06136 0.5982 0.0
C435 C 0.90911 1.01791 0.53881 0.0
N436 N 0.81564 0.966 0.55358 0.0
N437 N 0.93582 0.12671 0.54355 0.0
H438 H 0.93987 0.94805 0.49742 0.0
H439 H 0.96389 1.01784 0.52675 0.0
H440 H 0.93515 0.17546 0.55295 0.0
H441 H 0.9555 0.11631 0.5117 0.0
H442 H 0.7917 0.9834 0.5644 0.0
H443 H 0.81349 0.92176 0.5289 0.0
H444 H 0.79976 0.04348 0.64435 0.0
H445 H 0.82164 0.11786 0.66336 0.0
C446 C 0.16987 0.56011 0.56212 0.0
C447 C 0.14163 0.58253 0.52728 0.0
C448 C 0.10713 0.47845 0.5483 0.0
C449 C 0.13472 0.45721 0.58752 0.0
N450 N 0.1886 0.48732 0.64392 0.0
N451 N 0.08741 0.55882 0.47305 0.0
C452 C 0.1654 0.50016 0.59674 0.0
C453 C 0.11142 0.5403 0.5163 0.0
N454 N 0.20123 0.5966 0.56173 0.0
N455 N 0.07604 0.44154 0.5439 0.0
H456 H 0.09066 0.60333 0.44878 0.0
H457 H 0.0662 0.52862 0.4567 0.0
H458 H 0.07166 0.39476 0.56212 0.0
H459 H 0.05348 0.45853 0.52498 0.0
H460 H 0.22407 0.58048 0.58052 0.0
H461 H 0.20516 0.64025 0.53618 0.0
H462 H 0.20969 0.51951 0.65722 0.0
H463 H 0.18437 0.44857 0.67592 0.0
C464 C 0.63522 0.57026 0.99032 0.0
C465 C 0.65645 0.58415 0.04579 0.0
C466 C 0.68066 0.47858 1.03076 0.0
C467 C 0.65499 0.45987 0.98405 0.0
N468 N 0.60394 0.48642 0.92562 0.0
N469 N 0.69485 0.54383 0.12513 0.0
C470 C 0.631 0.5052 0.96576 0.0
C471 C 0.6778 0.53588 0.06782 0.0
N472 N 0.62122 0.61935 0.95777 0.0
N473 N 0.70894 0.4436 1.03753 0.0
H474 H 0.6915 0.58328 0.15516 0.0
H475 H 0.70865 0.50767 0.14576 0.0
H476 H 0.71263 0.40344 1.00869 0.0
H477 H 0.73012 0.45855 0.06681 0.0
H478 H 0.60831 0.61217 0.91394 0.0
H479 H 0.6258 0.66816 0.97044 0.0
H480 H 0.58372 0.51575 0.91631 0.0
H481 H 0.60037 0.43983 0.90574 0.0
C482 C 0.38845 0.96575 0.98379 0.0
C483 C 0.36985 0.9563 0.04305 0.0
C484 C 0.34288 0.05741 1.02107 0.0
C485 C 0.36741 0.07386 0.97191 0.0
N486 N 0.41697 0.04485 0.91073 0.0
N487 N 0.33145 0.99976 0.121 0.0
C488 C 0.39142 0.02856 0.95472 0.0
C489 C 0.34787 1.00451 0.06276 0.0
N490 N 0.40008 0.91439 0.95122 0.0
N491 N 0.31354 0.0897 1.02536 0.0
H492 H 0.33483 0.96212 0.15346 0.0
H493 H 0.31721 0.03654 0.13917 0.0
H494 H 0.3081 0.12489 0.99185 0.0
H495 H 0.29318 0.07603 0.05696 0.0
H496 H 0.41085 0.9191 0.90527 0.0
H497 H 0.39496 0.86626 0.96562 0.0
H498 H 0.43712 1.01526 0.90161 0.0
H499 H 0.41915 0.08951 0.8867 0.0
C500 C 0.38391 0.49542 0.99701 0.0
C501 C 0.36747 0.4472 1.0372 0.0
C502 C 0.35511 0.5308 0.1163 0.0
C503 C 0.372 0.57927 0.07628 0.0
N504 N 0.38579 0.60765 0.96585 0.0
N505 N 0.32429 0.42354 0.11989 0.0
C506 C 0.38144 0.56178 1.01268 0.0
C507 C 0.34889 0.46631 0.09227 0.0
N508 N 0.40295 0.47853 0.94525 0.0
N509 N 0.34576 0.54549 0.17757 0.0
H510 H 0.31701 0.37833 0.09928 0.0
H511 H 0.30814 0.43621 0.15725 0.0
H512 H 0.34943 0.59242 0.19653 0.0
H513 H 0.33662 0.51011 0.21074 0.0
H514 H 0.41848 0.51263 0.91851 0.0
H515 H 0.40509 0.43021 0.9322 0.0
H516 H 0.38925 0.59653 0.91748 0.0
H517 H 0.38261 0.65596 0.97535 0.0
C518 C 0.67138 0.05133 0.06065 0.0
C519 C 0.64155 0.07668 1.03374 0.0
C520 C 0.60674 0.97486 0.06312 0.0
C521 C 0.63578 0.95303 0.09787 0.0
N522 N 0.69275 0.98218 0.14298 0.0
N523 N 0.58032 0.065 1.01138 0.0
C524 C 0.6675 0.99401 0.09941 0.0
C525 C 0.60912 0.0388 1.0354 0.0
N526 N 0.70344 0.08357 0.05111 0.0
N527 N 0.57703 0.93461 0.05499 0.0
H528 H 0.582 0.10888 0.98595 0.0
H529 H 0.55482 0.04557 1.0191 0.0
H530 H 0.57409 0.88649 0.07001 0.0
H531 H 0.55583 0.94674 1.02795 0.0
H532 H 0.72661 0.06453 0.06453 0.0
H533 H 0.70695 0.12615 1.02385 0.0
H534 H 0.71513 1.01346 0.15027 0.0
H535 H 0.68908 0.94629 0.17818 0.0
C536 C 0.199 0.28955 0.12582 0.0
C537 C 0.17364 0.28948 0.17532 0.0
C538 C 0.12706 0.27869 0.09426 0.0
C539 C 0.15229 0.27139 0.04548 0.0
N540 N 0.21216 0.26021 1.0161 0.0
N541 N 0.11339 0.27478 0.20809 0.0
C542 C 0.18829 0.27436 0.06157 0.0
C543 C 0.1376 0.28143 0.15991 0.0
N544 N 0.23328 0.30613 0.13983 0.0
N545 N 0.09319 0.28565 0.07769 0.0
H546 H 0.12 0.27725 0.25673 0.0
H547 H 0.08704 0.2615 0.20006 0.0
H548 H 0.08452 0.28506 1.03016 0.0
H549 H 0.0744 0.29813 0.11041 0.0
H550 H 0.25223 0.31565 0.10457 0.0
H551 H 0.24219 0.31636 0.18642 0.0
H552 H 0.23823 0.25485 1.0266 0.0
H553 H 0.20538 0.24826 0.96874 0.0
C554 C 0.89114 0.25952 0.15768 0.0
C555 C 0.85676 0.26931 0.17784 0.0
C556 C 0.84171 0.30136 0.06826 0.0
C557 C 0.87546 0.28766 0.04739 0.0
N558 N 0.9302 0.24296 0.06883 0.0
N559 N 0.79776 0.29069 0.15223 0.0
C560 C 0.89962 0.26375 0.09121 0.0
C561 C 0.83155 0.28759 0.13302 0.0
N562 N 0.91591 0.24757 0.20234 0.0
N563 N 0.81989 0.32959 1.02673 0.0
H564 H 0.78963 0.28282 0.19965 0.0
H565 H 0.77733 0.2965 0.12056 0.0
H566 H 0.82631 0.33977 0.97884 0.0
H567 H 0.79647 0.34726 1.04053 0.0
H568 H 0.94235 0.24769 0.19176 0.0
H569 H 0.9105 0.24222 0.2513 0.0
H570 H 0.94721 0.21846 0.09707 0.0
H571 H 0.93731 0.24516 1.02044 0.0
C572 C 0.14274 0.82502 1.00209 0.0
C573 C 0.13901 0.76142 1.02873 0.0
C574 C 0.14079 0.71618 0.91984 0.0
C575 C 0.15237 0.7788 0.89514 0.0
N576 N 0.13394 0.88724 0.90637 0.0
N577 N 0.13525 0.64501 1.01247 0.0
C578 C 0.14514 0.83277 0.93424 0.0
C579 C 0.1384 0.70654 0.98747 0.0
N580 N 0.144 0.87832 1.04133 0.0
N581 N 0.12544 0.66989 0.87967 0.0
H582 H 0.13263 0.63576 0.06164 0.0
H583 H 0.13805 0.60375 0.98449 0.0
H584 H 0.11932 0.68078 0.83217 0.0
H585 H 0.11379 0.62528 0.89576 0.0
H586 H 0.15003 0.92558 1.0243 0.0
H587 H 0.1419 0.87475 0.09125 0.0
H588 H 0.1253 0.92583 0.93268 0.0
H589 H 0.12803 0.88875 0.85742 0.0
C590 C 0.83056 0.76546 0.97577 0.0
C591 C 0.85251 0.78936 0.92466 0.0
C592 C 0.89594 0.83415 1.0029 0.0
C593 C 0.87589 0.80372 0.05354 0.0
N594 N 0.82638 0.73206 0.08754 0.0
N595 N 0.90858 0.83727 0.88879 0.0
C596 C 0.84371 0.76721 1.03986 0.0
C597 C 0.88589 0.82132 0.938 0.0
N598 N 0.79685 0.74261 0.96325 0.0
N599 N 0.92402 0.87701 1.01684 0.0
H600 H 0.90237 0.82849 0.84058 0.0
H601 H 0.9346 0.85392 0.89601 0.0
H602 H 0.93195 0.88836 0.06376 0.0
H603 H 0.93742 0.90592 0.98227 0.0
H604 H 0.77847 0.73089 0.99907 0.0
H605 H 0.78633 0.7408 0.91697 0.0
H606 H 0.80479 0.69913 0.07919 0.0
H607 H 0.83529 0.73143 0.13487 0.0
C608 C 0.67848 0.74661 0.56704 0.0
C609 C 0.64509 0.76175 0.54528 0.0
C610 C 0.62996 0.79364 0.655 0.0
C611 C 0.66417 0.78312 0.6757 0.0
N612 N 0.72272 0.75857 0.65053 0.0
N613 N 0.59131 0.81036 0.56548 0.0
C614 C 0.68896 0.7622 0.63138 0.0
C615 C 0.62142 0.78817 0.58849 0.0
N616 N 0.69967 0.71528 0.52683 0.0
N617 N 0.60534 0.80741 0.69923 0.0
H618 H 0.58421 0.80764 0.51709 0.0
H619 H 0.5748 0.83657 0.59312 0.0
H620 H 0.61076 0.81326 0.74814 0.0
H621 H 0.57896 0.80808 0.68841 0.0
H622 H 0.7227 0.69668 0.54155 0.0
H623 H 0.69293 0.70318 0.47949 0.0
H624 H 0.7429 0.75065 0.61897 0.0
H625 H 0.73116 0.76832 0.69749 0.0
C626 C 0.37383 0.81224 0.63926 0.0
C627 C 0.35482 0.75429 0.66121 0.0
C628 C 0.3575 0.70625 0.55335 0.0
C629 C 0.37568 0.76487 0.5311 0.0
N630 N 0.39705 0.87682 0.54881 0.0
N631 N 0.32454 0.64937 0.63911 0.0
C632 C 0.38267 0.81881 0.57297 0.0
C633 C 0.34541 0.70223 0.61812 0.0
N634 N 0.38391 0.86058 0.68219 0.0
N635 N 0.35263 0.65396 0.51279 0.0
H636 H 0.3165 0.64345 0.68679 0.0
H637 H 0.31335 0.61309 0.60895 0.0
H638 H 0.36002 0.65596 0.46452 0.0
H639 H 0.34311 0.60748 0.52732 0.0
H640 H 0.40137 0.90044 0.67142 0.0
H641 H 0.37624 0.85938 0.73029 0.0
H642 H 0.39928 0.92024 0.57463 0.0
H643 H 0.4048 0.88292 0.50098 0.0
C644 C 0.64079 0.2221 0.43896 0.0
C645 C 0.66849 0.26953 0.42358 0.0
C646 C 0.67161 0.30517 0.53627 0.0
C647 C 0.64519 0.25534 0.55227 0.0
N648 N 0.6092 0.15869 0.52187 0.0
N649 N 0.71433 0.34878 0.45811 0.0
C650 C 0.63106 0.21158 0.5044 0.0
C651 C 0.68517 0.30882 0.47251 0.0
N652 N 0.62317 0.18826 0.39075 0.0
N653 N 0.68279 0.35051 0.58143 0.0
H654 H 0.72455 0.35345 0.41172 0.0
H655 H 0.73 0.37329 0.49268 0.0
H656 H 0.67354 0.34947 0.62858 0.0
H657 H 0.69921 0.39202 0.57118 0.0
H658 H 0.60017 0.15877 0.39798 0.0
H659 H 0.63016 0.19311 0.34242 0.0
H660 H 0.60101 0.1211 0.49047 0.0
H661 H 0.6015 0.14935 0.5693 0.0
C662 C 0.3799 0.29817 0.42965 0.0
C663 C 0.35012 0.25475 0.41605 0.0
C664 C 0.34472 0.22708 0.53073 0.0
C665 C 0.37294 0.27401 0.54481 0.0
N666 N 0.41246 0.36408 0.50941 0.0
N667 N 0.29998 0.18789 0.45452 0.0
C668 C 0.38908 0.3125 0.49471 0.0
C669 C 0.33125 0.22218 0.46694 0.0
N670 N 0.40026 0.32382 0.38045 0.0
N671 N 0.33169 0.18534 0.57766 0.0
H672 H 0.28929 0.18354 0.40846 0.0
H673 H 0.28321 0.16891 0.49043 0.0
H674 H 0.34101 0.18685 0.62476 0.0
H675 H 0.31372 0.14566 0.5687 0.0
H676 H 0.42436 0.34982 0.38759 0.0
H677 H 0.3946 0.31449 0.33212 0.0
H678 H 0.42226 0.39812 0.47554 0.0
H679 H 0.4196 0.37652 0.5565 0.0
C680 C 0.023 0.21708 0.54708 0.0
C681 C 0.04753 0.25913 0.51437 0.0
C682 C 0.99804 0.32207 0.48369 0.0
C683 C 0.97801 0.29141 0.53486 0.0
N684 N 0.98323 0.22793 0.63244 0.0
N685 N 0.05606 0.34542 0.43617 0.0
C686 C 0.99358 0.24358 0.57149 0.0
C687 C 0.03438 0.30981 0.4771 0.0
N688 N 0.02965 0.15473 0.56093 0.0
N689 N 0.98279 0.36298 0.44301 0.0
H690 H 0.08108 0.33255 0.42595 0.0
H691 H 0.04925 0.38721 0.41274 0.0
H692 H 0.95676 0.37225 0.44808 0.0
H693 H 0.99508 0.38386 0.40251 0.0
H694 H 0.01183 0.12291 0.58582 0.0
H695 H 0.05122 0.13457 0.54111 0.0
H696 H 0.9953 0.19382 0.65993 0.0
H697 H 0.9674 0.25673 0.65838 0.0
C698 C 0.98745 0.7114 0.56514 0.0
C699 C 0.97464 0.77321 0.57607 0.0
C700 C 0.03453 0.81919 0.59952 0.0
C701 C 0.04747 0.76256 0.57303 0.0
N702 N 0.03759 0.64673 0.56206 0.0
N703 N 0.98523 0.88501 0.60926 0.0
C704 C 0.02416 0.7059 0.56592 0.0
C705 C 0.99796 0.82652 0.59623 0.0
N706 N 0.96468 0.65918 0.54965 0.0
N707 N 0.05663 0.86397 0.63062 0.0
H708 H 0.95852 0.89053 0.61058 0.0
H709 H 1.00102 0.92808 0.6161 0.0
H710 H 0.08282 0.85721 0.63812 0.0
H711 H 0.04826 0.90374 0.65535 0.0
H712 H 0.97225 0.61495 0.53282 0.0
H713 H 0.93774 0.66065 0.55221 0.0
H714 H 0.02263 0.60222 0.56086 0.0
H715 H 0.06429 0.64239 0.56691 0.0
C716 C 0.53657 0.80555 0.97665 0.0
C717 C 0.54943 0.75005 1.00554 0.0
C718 C 0.48924 0.70002 1.01196 0.0
C719 C 0.47651 0.76225 1.00268 0.0
N720 N 0.48843 0.87425 0.97085 0.0
N721 N 0.53863 0.63693 1.03336 0.0
C722 C 0.50028 0.8148 0.98224 0.0
C723 C 0.52582 0.69447 1.01649 0.0
N724 N 0.55856 0.84815 0.94275 0.0
N725 N 0.46622 0.64652 1.01754 0.0
H726 H 0.5652 0.63053 1.03136 0.0
H727 H 0.5235 0.59621 0.05018 0.0
H728 H 0.43977 0.65059 1.01443 0.0
H729 H 0.47294 0.59869 1.01952 0.0
H730 H 0.55004 0.88696 0.91661 0.0
H731 H 0.58457 0.84008 0.93478 0.0
H732 H 0.50478 0.91618 0.96176 0.0
H733 H 0.46206 0.88166 0.97348 0.0
C734 C 0.48984 0.21194 0.0808 0.0
C735 C 0.47421 0.2714 0.0714 0.0
C736 C 0.53208 0.332 0.07269 0.0
C737 C 0.54765 0.27215 0.07729 0.0
N738 N 0.5423 0.15953 0.10767 0.0
N739 N 0.47911 0.38833 0.07874 0.0
C740 C 0.52666 0.21363 0.08926 0.0
C741 C 0.49503 0.33163 0.07463 0.0
N742 N 0.47016 0.15366 0.07639 0.0
N743 N 0.55256 0.38848 0.06205 0.0
H744 H 0.45203 0.3888 0.08077 0.0
H745 H 0.4925 0.4338 0.08616 0.0
H746 H 0.57972 0.3907 0.06301 0.0
H747 H 0.54278 0.43246 0.04984 0.0
H748 H 0.4808 0.10885 0.07449 0.0
H749 H 0.44318 0.14983 0.07091 0.0
H750 H 0.52859 0.11626 0.12228 0.0
H751 H 0.56924 0.16061 0.11436 0.0
loop_
_geom_bond_atom_site_label_1
_geom_bond_atom_site_label_2
_geom_bond_distance
_geom_bond_site_symmetry_2
_ccdc_geom_bond_type
Nd0 C2 2.836 . S
Nd0 O20 2.500 . S
Nd0 O21 2.492 . S
Nd0 O22 2.487 . S
Nd0 O23 2.682 . S
Nd0 O24 2.410 . S
Nd0 O29 2.414 . S
Nd0 O31 2.424 . S
Nd1 C11 2.836 . S
Nd1 O23 2.414 . S
Nd1 O25 2.424 . S
Nd1 O26 2.500 . S
Nd1 O27 2.492 . S
Nd1 O28 2.487 . S
Nd1 O29 2.682 . S
Nd1 O30 2.410 . S
C2 Nd0 2.836 . S
C2 C3 1.498 . S
C2 O20 1.258 . S
C2 O21 1.239 . S
C3 C2 1.498 . S
C3 C4 1.366 . S
C3 C8 1.407 . S
C4 C3 1.366 . S
C4 C5 1.392 . S
C4 H32 0.930 . S
C5 C4 1.392 . S
C5 C6 1.398 . S
C5 H33 0.929 . S
C6 C5 1.398 . S
C6 C7 1.352 . S
C7 C6 1.352 . S
C7 C8 1.384 . S
C7 H34 0.930 . S
C8 C3 1.407 . S
C8 C7 1.384 . S
C8 H35 0.929 . S
C9 O22 1.241 . S
C9 O23 1.273 . S
C10 O24 1.251 . S
C10 O25 1.268 . S
C11 Nd1 2.836 . S
C11 C12 1.498 . S
C11 O26 1.258 . S
C11 O27 1.239 . S
C12 C11 1.498 . S
C12 C13 1.366 . S
C12 C17 1.407 . S
C13 C12 1.366 . S
C13 C14 1.392 . S
C13 H36 0.930 . S
C14 C13 1.392 . S
C14 C15 1.398 . S
C14 H37 0.929 . S
C15 C14 1.398 . S
C15 C16 1.352 . S
C16 C15 1.352 . S
C16 C17 1.384 . S
C16 H38 0.930 . S
C17 C12 1.407 . S
C17 C16 1.384 . S
C17 H39 0.929 . S
C18 O28 1.241 . S
C18 O29 1.273 . S
C19 O30 1.251 . S
C19 O31 1.268 . S
O20 Nd0 2.500 . S
O20 C2 1.258 . S
O21 Nd0 2.492 . S
O21 C2 1.239 . S
O22 Nd0 2.487 . S
O22 C9 1.241 . S
O23 Nd0 2.682 . S
O23 Nd1 2.414 . S
O23 C9 1.273 . S
O24 Nd0 2.410 . S
O24 C10 1.251 . S
O25 Nd1 2.424 . S
O25 C10 1.268 . S
O26 Nd1 2.500 . S
O26 C11 1.258 . S
O27 Nd1 2.492 . S
O27 C11 1.239 . S
O28 Nd1 2.487 . S
O28 C18 1.241 . S
O29 Nd0 2.414 . S
O29 Nd1 2.682 . S
O29 C18 1.273 . S
O30 Nd1 2.410 . S
O30 C19 1.251 . S
O31 Nd0 2.424 . S
O31 C19 1.268 . S
H32 C4 0.930 . S
H33 C5 0.929 . S
H34 C7 0.930 . S
H35 C8 0.929 . S
H36 C13 0.930 . S
H37 C14 0.929 . S
H38 C16 0.930 . S
H39 C17 0.929 . S
Nd40 C42 2.836 . S
Nd40 O60 2.500 . S
Nd40 O61 2.492 . S
Nd40 O62 2.487 . S
Nd40 O63 2.682 . S
Nd40 O64 2.410 . S
Nd40 O69 2.414 . S
Nd40 O71 2.424 . S
Nd41 C51 2.836 . S
Nd41 O63 2.414 . S
Nd41 O65 2.424 . S
Nd41 O66 2.500 . S
Nd41 O67 2.492 . S
Nd41 O68 2.487 . S
Nd41 O69 2.682 . S
Nd41 O70 2.410 . S
C42 Nd40 2.836 . S
C42 C43 1.498 . S
C42 O60 1.258 . S
C42 O61 1.239 . S
C43 C42 1.498 . S
C43 C44 1.366 . S
C43 C48 1.407 . S
C44 C43 1.366 . S
C44 C45 1.392 . S
C44 H72 0.930 . S
C45 C44 1.392 . S
C45 C46 1.398 . S
C45 H73 0.929 . S
C46 C45 1.398 . S
C46 C47 1.352 . S
C47 C46 1.352 . S
C47 C48 1.384 . S
C47 H74 0.930 . S
C48 C43 1.407 . S
C48 C47 1.384 . S
C48 H75 0.929 . S
C49 O62 1.241 . S
C49 O63 1.273 . S
C50 O64 1.251 . S
C50 O65 1.268 . S
C51 Nd41 2.836 . S
C51 C52 1.498 . S
C51 O66 1.258 . S
C51 O67 1.239 . S
C52 C51 1.498 . S
C52 C53 1.366 . S
C52 C57 1.407 . S
C53 C52 1.366 . S
C53 C54 1.392 . S
C53 H76 0.930 . S
C54 C53 1.392 . S
C54 C55 1.398 . S
C54 H77 0.929 . S
C55 C54 1.398 . S
C55 C56 1.352 . S
C56 C55 1.352 . S
C56 C57 1.384 . S
C56 H78 0.930 . S
C57 C52 1.407 . S
C57 C56 1.384 . S
C57 H79 0.929 . S
C58 O68 1.241 . S
C58 O69 1.273 . S
C59 O70 1.251 . S
C59 O71 1.268 . S
O60 Nd40 2.500 . S
O60 C42 1.258 . S
O61 Nd40 2.492 . S
O61 C42 1.239 . S
O62 Nd40 2.487 . S
O62 C49 1.241 . S
O63 Nd40 2.682 . S
O63 Nd41 2.414 . S
O63 C49 1.273 . S
O64 Nd40 2.410 . S
O64 C50 1.251 . S
O65 Nd41 2.424 . S
O65 C50 1.268 . S
O66 Nd41 2.500 . S
O66 C51 1.258 . S
O67 Nd41 2.492 . S
O67 C51 1.239 . S
O68 Nd41 2.487 . S
O68 C58 1.241 . S
O69 Nd40 2.414 . S
O69 Nd41 2.682 . S
O69 C58 1.273 . S
O70 Nd41 2.410 . S
O70 C59 1.251 . S
O71 Nd40 2.424 . S
O71 C59 1.268 . S
H72 C44 0.930 . S
H73 C45 0.929 . S
H74 C47 0.930 . S
H75 C48 0.929 . S
H76 C53 0.930 . S
H77 C54 0.929 . S
H78 C56 0.930 . S
H79 C57 0.929 . S
Nd80 C82 2.836 . S
Nd80 O100 2.500 . S
Nd80 O101 2.492 . S
Nd80 O102 2.487 . S
Nd80 O103 2.682 . S
Nd80 O104 2.410 . S
Nd80 O109 2.414 . S
Nd80 O111 2.424 . S
Nd81 C91 2.836 . S
Nd81 O103 2.414 . S
Nd81 O105 2.424 . S
Nd81 O106 2.500 . S
Nd81 O107 2.492 . S
Nd81 O108 2.487 . S
Nd81 O109 2.682 . S
Nd81 O110 2.410 . S
C82 Nd80 2.836 . S
C82 C83 1.498 . S
C82 O100 1.258 . S
C82 O101 1.239 . S
C83 C82 1.498 . S
C83 C84 1.366 . S
C83 C88 1.407 . S
C84 C83 1.366 . S
C84 C85 1.392 . S
C84 H112 0.930 . S
C85 C84 1.392 . S
C85 C86 1.398 . S
C85 H113 0.929 . S
C86 C85 1.398 . S
C86 C87 1.352 . S
C87 C86 1.352 . S
C87 C88 1.384 . S
C87 H114 0.930 . S
C88 C83 1.407 . S
C88 C87 1.384 . S
C88 H115 0.929 . S
C89 O102 1.241 . S
C89 O103 1.273 . S
C90 O104 1.251 . S
C90 O105 1.268 . S
C91 Nd81 2.836 . S
C91 C92 1.498 . S
C91 O106 1.258 . S
C91 O107 1.239 . S
C92 C91 1.498 . S
C92 C93 1.366 . S
C92 C97 1.407 . S
C93 C92 1.366 . S
C93 C94 1.392 . S
C93 H116 0.930 . S
C94 C93 1.392 . S
C94 C95 1.398 . S
C94 H117 0.929 . S
C95 C94 1.398 . S
C95 C96 1.352 . S
C96 C95 1.352 . S
C96 C97 1.384 . S
C96 H118 0.930 . S
C97 C92 1.407 . S
C97 C96 1.384 . S
C97 H119 0.929 . S
C98 O108 1.241 . S
C98 O109 1.273 . S
C99 O110 1.251 . S
C99 O111 1.268 . S
O100 Nd80 2.500 . S
O100 C82 1.258 . S
O101 Nd80 2.492 . S
O101 C82 1.239 . S
O102 Nd80 2.487 . S
O102 C89 1.241 . S
O103 Nd80 2.682 . S
O103 Nd81 2.414 . S
O103 C89 1.273 . S
O104 Nd80 2.410 . S
O104 C90 1.251 . S
O105 Nd81 2.424 . S
O105 C90 1.268 . S
O106 Nd81 2.500 . S
O106 C91 1.258 . S
O107 Nd81 2.492 . S
O107 C91 1.239 . S
O108 Nd81 2.487 . S
O108 C98 1.241 . S
O109 Nd80 2.414 . S
O109 Nd81 2.682 . S
O109 C98 1.273 . S
O110 Nd81 2.410 . S
O110 C99 1.251 . S
O111 Nd80 2.424 . S
O111 C99 1.268 . S
H112 C84 0.930 . S
H113 C85 0.929 . S
H114 C87 0.930 . S
H115 C88 0.929 . S
H116 C93 0.930 . S
H117 C94 0.929 . S
H118 C96 0.930 . S
H119 C97 0.929 . S
Nd120 C122 2.836 . S
Nd120 O140 2.500 . S
Nd120 O141 2.492 . S
Nd120 O142 2.487 . S
Nd120 O143 2.682 . S
Nd120 O144 2.410 . S
Nd120 O149 2.414 . S
Nd120 O151 2.424 . S
Nd121 C131 2.836 . S
Nd121 O143 2.414 . S
Nd121 O145 2.424 . S
Nd121 O146 2.500 . S
Nd121 O147 2.492 . S
Nd121 O148 2.487 . S
Nd121 O149 2.682 . S
Nd121 O150 2.410 . S
C122 Nd120 2.836 . S
C122 C123 1.498 . S
C122 O140 1.258 . S
C122 O141 1.239 . S
C123 C122 1.498 . S
C123 C124 1.366 . S
C123 C128 1.407 . S
C124 C123 1.366 . S
C124 C125 1.392 . S
C124 H152 0.930 . S
C125 C124 1.392 . S
C125 C126 1.398 . S
C125 H153 0.929 . S
C126 C125 1.398 . S
C126 C127 1.352 . S
C127 C126 1.352 . S
C127 C128 1.384 . S
C127 H154 0.930 . S
C128 C123 1.407 . S
C128 C127 1.384 . S
C128 H155 0.929 . S
C129 O142 1.241 . S
C129 O143 1.273 . S
C130 O144 1.251 . S
C130 O145 1.268 . S
C131 Nd121 2.836 . S
C131 C132 1.498 . S
C131 O146 1.258 . S
C131 O147 1.239 . S
C132 C131 1.498 . S
C132 C133 1.366 . S
C132 C137 1.407 . S
C133 C132 1.366 . S
C133 C134 1.392 . S
C133 H156 0.930 . S
C134 C133 1.392 . S
C134 C135 1.398 . S
C134 H157 0.929 . S
C135 C134 1.398 . S
C135 C136 1.352 . S
C136 C135 1.352 . S
C136 C137 1.384 . S
C136 H158 0.930 . S
C137 C132 1.407 . S
C137 C136 1.384 . S
C137 H159 0.929 . S
C138 O148 1.241 . S
C138 O149 1.273 . S
C139 O150 1.251 . S
C139 O151 1.268 . S
O140 Nd120 2.500 . S
O140 C122 1.258 . S
O141 Nd120 2.492 . S
O141 C122 1.239 . S
O142 Nd120 2.487 . S
O142 C129 1.241 . S
O143 Nd120 2.682 . S
O143 Nd121 2.414 . S
O143 C129 1.273 . S
O144 Nd120 2.410 . S
O144 C130 1.251 . S
O145 Nd121 2.424 . S
O145 C130 1.268 . S
O146 Nd121 2.500 . S
O146 C131 1.258 . S
O147 Nd121 2.492 . S
O147 C131 1.239 . S
O148 Nd121 2.487 . S
O148 C138 1.241 . S
O149 Nd120 2.414 . S
O149 Nd121 2.682 . S
O149 C138 1.273 . S
O150 Nd121 2.410 . S
O150 C139 1.251 . S
O151 Nd120 2.424 . S
O151 C139 1.268 . S
H152 C124 0.930 . S
H153 C125 0.929 . S
H154 C127 0.930 . S
H155 C128 0.929 . S
H156 C133 0.930 . S
H157 C134 0.929 . S
H158 C136 0.930 . S
H159 C137 0.929 . S
Nd160 C162 2.836 . S
Nd160 O180 2.500 . S
Nd160 O181 2.492 . S
Nd160 O182 2.487 . S
Nd160 O183 2.682 1_556 S
Nd160 O184 2.410 . S
Nd160 O189 2.414 1_556 S
Nd160 O191 2.424 1_556 S
Nd161 C171 2.836 . S
Nd161 O183 2.414 . S
Nd161 O185 2.424 . S
Nd161 O186 2.500 . S
Nd161 O187 2.492 . S
Nd161 O188 2.487 . S
Nd161 O189 2.682 . S
Nd161 O190 2.410 . S
C162 Nd160 2.836 . S
C162 C163 1.498 . S
C162 O180 1.258 . S
C162 O181 1.239 . S
C163 C162 1.498 . S
C163 C164 1.366 . S
C163 C168 1.407 . S
C164 C163 1.366 . S
C164 C165 1.392 . S
C164 H192 0.930 . S
C165 C164 1.392 . S
C165 C166 1.398 . S
C165 H193 0.929 . S
C166 C165 1.398 . S
C166 C167 1.352 . S
C167 C166 1.352 . S
C167 C168 1.384 . S
C167 H194 0.930 . S
C168 C163 1.407 . S
C168 C167 1.384 . S
C168 H195 0.929 . S
C169 O182 1.241 1_554 S
C169 O183 1.273 . S
C170 O184 1.251 . S
C170 O185 1.268 1_556 S
C171 Nd161 2.836 . S
C171 C172 1.498 . S
C171 O186 1.258 . S
C171 O187 1.239 . S
C172 C171 1.498 . S
C172 C173 1.366 . S
C172 C177 1.407 . S
C173 C172 1.366 . S
C173 C174 1.392 . S
C173 H196 0.930 . S
C174 C173 1.392 . S
C174 C175 1.398 . S
C174 H197 0.929 . S
C175 C174 1.398 . S
C175 C176 1.352 . S
C176 C175 1.352 . S
C176 C177 1.384 . S
C176 H198 0.930 . S
C177 C172 1.407 . S
C177 C176 1.384 . S
C177 H199 0.929 . S
C178 O188 1.241 . S
C178 O189 1.273 . S
C179 O190 1.251 . S
C179 O191 1.268 . S
O180 Nd160 2.500 . S
O180 C162 1.258 . S
O181 Nd160 2.492 . S
O181 C162 1.239 . S
O182 Nd160 2.487 . S
O182 C169 1.241 1_556 S
O183 Nd160 2.682 1_554 S
O183 Nd161 2.414 . S
O183 C169 1.273 . S
O184 Nd160 2.410 . S
O184 C170 1.251 . S
O185 Nd161 2.424 . S
O185 C170 1.268 1_554 S
O186 Nd161 2.500 . S
O186 C171 1.258 . S
O187 Nd161 2.492 . S
O187 C171 1.239 . S
O188 Nd161 2.487 . S
O188 C178 1.241 . S
O189 Nd160 2.414 1_554 S
O189 Nd161 2.682 . S
O189 C178 1.273 . S
O190 Nd161 2.410 . S
O190 C179 1.251 . S
O191 Nd160 2.424 1_554 S
O191 C179 1.268 . S
H192 C164 0.930 . S
H193 C165 0.929 . S
H194 C167 0.930 . S
H195 C168 0.929 . S
H196 C173 0.930 . S
H197 C174 0.929 . S
H198 C176 0.930 . S
H199 C177 0.929 . S
Nd200 C202 2.836 . S
Nd200 O220 2.500 . S
Nd200 O221 2.492 . S
Nd200 O222 2.487 . S
Nd200 O223 2.682 1_556 S
Nd200 O224 2.410 . S
Nd200 O229 2.414 1_556 S
Nd200 O231 2.424 1_556 S
Nd201 C211 2.836 . S
Nd201 O223 2.414 . S
Nd201 O225 2.424 . S
Nd201 O226 2.500 . S
Nd201 O227 2.492 . S
Nd201 O228 2.487 . S
Nd201 O229 2.682 . S
Nd201 O230 2.410 . S
C202 Nd200 2.836 . S
C202 C203 1.498 . S
C202 O220 1.258 . S
C202 O221 1.239 . S
C203 C202 1.498 . S
C203 C204 1.366 . S
C203 C208 1.407 . S
C204 C203 1.366 . S
C204 C205 1.392 . S
C204 H232 0.930 . S
C205 C204 1.392 . S
C205 C206 1.398 . S
C205 H233 0.929 . S
C206 C205 1.398 . S
C206 C207 1.352 . S
C207 C206 1.352 . S
C207 C208 1.384 . S
C207 H234 0.930 . S
C208 C203 1.407 . S
C208 C207 1.384 . S
C208 H235 0.929 . S
C209 O222 1.241 1_554 S
C209 O223 1.273 . S
C210 O224 1.251 . S
C210 O225 1.268 1_556 S
C211 Nd201 2.836 . S
C211 C212 1.498 . S
C211 O226 1.258 . S
C211 O227 1.239 . S
C212 C211 1.498 . S
C212 C213 1.366 . S
C212 C217 1.407 . S
C213 C212 1.366 . S
C213 C214 1.392 . S
C213 H236 0.930 . S
C214 C213 1.392 . S
C214 C215 1.398 . S
C214 H237 0.929 . S
C215 C214 1.398 . S
C215 C216 1.352 . S
C216 C215 1.352 . S
C216 C217 1.384 . S
C216 H238 0.930 . S
C217 C212 1.407 . S
C217 C216 1.384 . S
C217 H239 0.929 . S
C218 O228 1.241 . S
C218 O229 1.273 . S
C219 O230 1.251 . S
C219 O231 1.268 . S
O220 Nd200 2.500 . S
O220 C202 1.258 . S
O221 Nd200 2.492 . S
O221 C202 1.239 . S
O222 Nd200 2.487 . S
O222 C209 1.241 1_556 S
O223 Nd200 2.682 1_554 S
O223 Nd201 2.414 . S
O223 C209 1.273 . S
O224 Nd200 2.410 . S
O224 C210 1.251 . S
O225 Nd201 2.424 . S
O225 C210 1.268 1_554 S
O226 Nd201 2.500 . S
O226 C211 1.258 . S
O227 Nd201 2.492 . S
O227 C211 1.239 . S
O228 Nd201 2.487 . S
O228 C218 1.241 . S
O229 Nd200 2.414 1_554 S
O229 Nd201 2.682 . S
O229 C218 1.273 . S
O230 Nd201 2.410 . S
O230 C219 1.251 . S
O231 Nd200 2.424 1_554 S
O231 C219 1.268 . S
H232 C204 0.930 . S
H233 C205 0.929 . S
H234 C207 0.930 . S
H235 C208 0.929 . S
H236 C213 0.930 . S
H237 C214 0.929 . S
H238 C216 0.930 . S
H239 C217 0.929 . S
Nd240 C242 2.836 . S
Nd240 O260 2.500 . S
Nd240 O261 2.492 . S
Nd240 O262 2.487 . S
Nd240 O263 2.682 . S
Nd240 O264 2.410 . S
Nd240 O269 2.414 . S
Nd240 O271 2.424 . S
Nd241 C251 2.836 . S
Nd241 O263 2.414 1_554 S
Nd241 O265 2.424 1_554 S
Nd241 O266 2.500 . S
Nd241 O267 2.492 . S
Nd241 O268 2.487 . S
Nd241 O269 2.682 1_554 S
Nd241 O270 2.410 . S
C242 Nd240 2.836 . S
C242 C243 1.498 . S
C242 O260 1.258 . S
C242 O261 1.239 . S
C243 C242 1.498 . S
C243 C244 1.366 . S
C243 C248 1.407 . S
C244 C243 1.366 . S
C244 C245 1.392 . S
C244 H272 0.930 . S
C245 C244 1.392 . S
C245 C246 1.398 . S
C245 H273 0.929 . S
C246 C245 1.398 . S
C246 C247 1.352 . S
C247 C246 1.352 . S
C247 C248 1.384 . S
C247 H274 0.930 . S
C248 C243 1.407 . S
C248 C247 1.384 . S
C248 H275 0.929 . S
C249 O262 1.241 . S
C249 O263 1.273 . S
C250 O264 1.251 . S
C250 O265 1.268 . S
C251 Nd241 2.836 . S
C251 C252 1.498 . S
C251 O266 1.258 . S
C251 O267 1.239 . S
C252 C251 1.498 . S
C252 C253 1.366 . S
C252 C257 1.407 . S
C253 C252 1.366 . S
C253 C254 1.392 . S
C253 H276 0.930 . S
C254 C253 1.392 . S
C254 C255 1.398 . S
C254 H277 0.929 . S
C255 C254 1.398 . S
C255 C256 1.352 . S
C256 C255 1.352 . S
C256 C257 1.384 . S
C256 H278 0.930 . S
C257 C252 1.407 . S
C257 C256 1.384 . S
C257 H279 0.929 . S
C258 O268 1.241 1_556 S
C258 O269 1.273 . S
C259 O270 1.251 . S
C259 O271 1.268 1_554 S
O260 Nd240 2.500 . S
O260 C242 1.258 . S
O261 Nd240 2.492 . S
O261 C242 1.239 . S
O262 Nd240 2.487 . S
O262 C249 1.241 . S
O263 Nd240 2.682 . S
O263 Nd241 2.414 1_556 S
O263 C249 1.273 . S
O264 Nd240 2.410 . S
O264 C250 1.251 . S
O265 Nd241 2.424 1_556 S
O265 C250 1.268 . S
O266 Nd241 2.500 . S
O266 C251 1.258 . S
O267 Nd241 2.492 . S
O267 C251 1.239 . S
O268 Nd241 2.487 . S
O268 C258 1.241 1_554 S
O269 Nd240 2.414 . S
O269 Nd241 2.682 1_556 S
O269 C258 1.273 . S
O270 Nd241 2.410 . S
O270 C259 1.251 . S
O271 Nd240 2.424 . S
O271 C259 1.268 1_556 S
H272 C244 0.930 . S
H273 C245 0.929 . S
H274 C247 0.930 . S
H275 C248 0.929 . S
H276 C253 0.930 . S
H277 C254 0.929 . S
H278 C256 0.930 . S
H279 C257 0.929 . S
Nd280 C282 2.836 . S
Nd280 O300 2.500 . S
Nd280 O301 2.492 . S
Nd280 O302 2.487 . S
Nd280 O303 2.682 . S
Nd280 O304 2.410 . S
Nd280 O309 2.414 . S
Nd280 O311 2.424 . S
Nd281 C291 2.836 . S
Nd281 O303 2.414 1_554 S
Nd281 O305 2.424 1_554 S
Nd281 O306 2.500 . S
Nd281 O307 2.492 . S
Nd281 O308 2.487 . S
Nd281 O309 2.682 1_554 S
Nd281 O310 2.410 . S
C282 Nd280 2.836 . S
C282 C283 1.498 . S
C282 O300 1.258 . S
C282 O301 1.239 . S
C283 C282 1.498 . S
C283 C284 1.366 . S
C283 C288 1.407 . S
C284 C283 1.366 . S
C284 C285 1.392 . S
C284 H312 0.930 . S
C285 C284 1.392 . S
C285 C286 1.398 . S
C285 H313 0.929 . S
C286 C285 1.398 . S
C286 C287 1.352 . S
C287 C286 1.352 . S
C287 C288 1.384 . S
C287 H314 0.930 . S
C288 C283 1.407 . S
C288 C287 1.384 . S
C288 H315 0.929 . S
C289 O302 1.241 . S
C289 O303 1.273 . S
C290 O304 1.251 . S
C290 O305 1.268 . S
C291 Nd281 2.836 . S
C291 C292 1.498 . S
C291 O306 1.258 . S
C291 O307 1.239 . S
C292 C291 1.498 . S
C292 C293 1.366 . S
C292 C297 1.407 . S
C293 C292 1.366 . S
C293 C294 1.392 . S
C293 H316 0.930 . S
C294 C293 1.392 . S
C294 C295 1.398 . S
C294 H317 0.929 . S
C295 C294 1.398 . S
C295 C296 1.352 . S
C296 C295 1.352 . S
C296 C297 1.384 . S
C296 H318 0.930 . S
C297 C292 1.407 . S
C297 C296 1.384 . S
C297 H319 0.929 . S
C298 O308 1.241 1_556 S
C298 O309 1.273 . S
C299 O310 1.251 . S
C299 O311 1.268 1_554 S
O300 Nd280 2.500 . S
O300 C282 1.258 . S
O301 Nd280 2.492 . S
O301 C282 1.239 . S
O302 Nd280 2.487 . S
O302 C289 1.241 . S
O303 Nd280 2.682 . S
O303 Nd281 2.414 1_556 S
O303 C289 1.273 . S
O304 Nd280 2.410 . S
O304 C290 1.251 . S
O305 Nd281 2.424 1_556 S
O305 C290 1.268 . S
O306 Nd281 2.500 . S
O306 C291 1.258 . S
O307 Nd281 2.492 . S
O307 C291 1.239 . S
O308 Nd281 2.487 . S
O308 C298 1.241 1_554 S
O309 Nd280 2.414 . S
O309 Nd281 2.682 1_556 S
O309 C298 1.273 . S
O310 Nd281 2.410 . S
O310 C299 1.251 . S
O311 Nd280 2.424 . S
O311 C299 1.268 1_556 S
H312 C284 0.930 . S
H313 C285 0.929 . S
H314 C287 0.930 . S
H315 C288 0.929 . S
H316 C293 0.930 . S
H317 C294 0.929 . S
H318 C296 0.930 . S
H319 C297 0.929 . S
C320 C321 1.363 . S
C320 C326 1.379 . S
C320 N328 1.356 . S
C321 C320 1.363 . S
C321 C327 1.363 . S
C322 C323 1.363 . S
C322 C327 1.379 . S
C322 N329 1.356 . S
C323 C322 1.363 . S
C323 C326 1.363 . S
N324 C326 1.356 . S
N324 H336 0.984 . S
N324 H337 0.985 . S
N325 C327 1.356 . S
N325 H330 0.984 . S
N325 H331 0.985 . S
C326 C320 1.379 . S
C326 C323 1.363 . S
C326 N324 1.356 . S
C327 C321 1.363 . S
C327 C322 1.379 . S
C327 N325 1.356 . S
N328 C320 1.356 . S
N328 H334 0.984 . S
N328 H335 0.984 . S
N329 C322 1.356 . S
N329 H332 0.984 . S
N329 H333 0.985 . S
H330 N325 0.984 . S
H331 N325 0.985 . S
H332 N329 0.984 . S
H333 N329 0.985 . S
H334 N328 0.984 . S
H335 N328 0.984 . S
H336 N324 0.984 . S
H337 N324 0.985 . S
C338 C339 1.363 . S
C338 C344 1.379 . S
C338 N346 1.356 . S
C339 C338 1.363 . S
C339 C345 1.363 . S
C340 C341 1.363 . S
C340 C345 1.379 . S
C340 N347 1.356 . S
C341 C340 1.363 . S
C341 C344 1.363 . S
N342 C344 1.356 . S
N342 H354 0.984 . S
N342 H355 0.985 . S
N343 C345 1.356 . S
N343 H348 0.984 . S
N343 H349 0.985 . S
C344 C338 1.379 . S
C344 C341 1.363 . S
C344 N342 1.356 . S
C345 C339 1.363 . S
C345 C340 1.379 . S
C345 N343 1.356 . S
N346 C338 1.356 . S
N346 H352 0.984 . S
N346 H353 0.984 . S
N347 C340 1.356 . S
N347 H350 0.984 . S
N347 H351 0.985 . S
H348 N343 0.984 . S
H349 N343 0.985 . S
H350 N347 0.984 . S
H351 N347 0.985 . S
H352 N346 0.984 . S
H353 N346 0.984 . S
H354 N342 0.984 . S
H355 N342 0.985 . S
C356 C357 1.363 . S
C356 C362 1.379 . S
C356 N364 1.356 . S
C357 C356 1.363 . S
C357 C363 1.363 . S
C358 C359 1.363 . S
C358 C363 1.379 . S
C358 N365 1.356 . S
C359 C358 1.363 . S
C359 C362 1.363 . S
N360 C362 1.356 . S
N360 H372 0.984 . S
N360 H373 0.985 . S
N361 C363 1.356 . S
N361 H366 0.984 . S
N361 H367 0.985 . S
C362 C356 1.379 . S
C362 C359 1.363 . S
C362 N360 1.356 . S
C363 C357 1.363 . S
C363 C358 1.379 . S
C363 N361 1.356 . S
N364 C356 1.356 . S
N364 H370 0.984 . S
N364 H371 0.984 . S
N365 C358 1.356 . S
N365 H368 0.984 . S
N365 H369 0.985 . S
H366 N361 0.984 . S
H367 N361 0.985 . S
H368 N365 0.984 . S
H369 N365 0.985 . S
H370 N364 0.984 . S
H371 N364 0.984 . S
H372 N360 0.984 . S
H373 N360 0.985 . S
C374 C375 1.363 . S
C374 C380 1.379 . S
C374 N382 1.356 . S
C375 C374 1.363 . S
C375 C381 1.363 . S
C376 C377 1.363 . S
C376 C381 1.379 . S
C376 N383 1.356 . S
C377 C376 1.363 . S
C377 C380 1.363 . S
N378 C380 1.356 . S
N378 H390 0.984 . S
N378 H391 0.985 . S
N379 C381 1.356 . S
N379 H384 0.984 . S
N379 H385 0.985 . S
C380 C374 1.379 . S
C380 C377 1.363 . S
C380 N378 1.356 . S
C381 C375 1.363 . S
C381 C376 1.379 . S
C381 N379 1.356 . S
N382 C374 1.356 . S
N382 H388 0.984 . S
N382 H389 0.984 . S
N383 C376 1.356 . S
N383 H386 0.984 . S
N383 H387 0.985 . S
H384 N379 0.984 . S
H385 N379 0.985 . S
H386 N383 0.984 . S
H387 N383 0.985 . S
H388 N382 0.984 . S
H389 N382 0.984 . S
H390 N378 0.984 . S
H391 N378 0.985 . S
C392 C393 1.363 . S
C392 C398 1.379 1_565 S
C392 N400 1.356 . S
C393 C392 1.363 . S
C393 C399 1.363 . S
C394 C395 1.363 . S
C394 C399 1.379 1_545 S
C394 N401 1.356 . S
C395 C394 1.363 . S
C395 C398 1.363 . S
N396 C398 1.356 . S
N396 H408 0.984 . S
N396 H409 0.985 . S
N397 C399 1.356 . S
N397 H402 0.984 . S
N397 H403 0.985 . S
C398 C392 1.379 1_545 S
C398 C395 1.363 . S
C398 N396 1.356 . S
C399 C393 1.363 . S
C399 C394 1.379 1_565 S
C399 N397 1.356 . S
N400 C392 1.356 . S
N400 H406 0.984 . S
N400 H407 0.984 . S
N401 C394 1.356 . S
N401 H404 0.984 . S
N401 H405 0.985 . S
H402 N397 0.984 . S
H403 N397 0.985 . S
H404 N401 0.984 . S
H405 N401 0.985 . S
H406 N400 0.984 . S
H407 N400 0.984 . S
H408 N396 0.984 . S
H409 N396 0.985 . S
C410 C411 1.363 . S
C410 C416 1.379 . S
C410 N418 1.356 . S
C411 C410 1.363 . S
C411 C417 1.363 . S
C412 C413 1.363 . S
C412 C417 1.379 . S
C412 N419 1.356 . S
C413 C412 1.363 . S
C413 C416 1.363 . S
N414 C416 1.356 . S
N414 H426 0.984 . S
N414 H427 0.985 . S
N415 C417 1.356 . S
N415 H420 0.984 . S
N415 H421 0.985 . S
C416 C410 1.379 . S
C416 C413 1.363 . S
C416 N414 1.356 . S
C417 C411 1.363 . S
C417 C412 1.379 . S
C417 N415 1.356 . S
N418 C410 1.356 . S
N418 H424 0.984 . S
N418 H425 0.984 . S
N419 C412 1.356 . S
N419 H422 0.984 . S
N419 H423 0.985 . S
H420 N415 0.984 . S
H421 N415 0.985 . S
H422 N419 0.984 . S
H423 N419 0.985 . S
H424 N418 0.984 . S
H425 N418 0.984 . S
H426 N414 0.984 . S
H427 N414 0.985 . S
C428 C429 1.363 . S
C428 C434 1.379 1_565 S
C428 N436 1.356 . S
C429 C428 1.363 . S
C429 C435 1.363 . S
C430 C431 1.363 . S
C430 C435 1.379 1_545 S
C430 N437 1.356 . S
C431 C430 1.363 . S
C431 C434 1.363 . S
N432 C434 1.356 . S
N432 H444 0.984 . S
N432 H445 0.985 . S
N433 C435 1.356 . S
N433 H438 0.984 . S
N433 H439 0.985 . S
C434 C428 1.379 1_545 S
C434 C431 1.363 . S
C434 N432 1.356 . S
C435 C429 1.363 . S
C435 C430 1.379 1_565 S
C435 N433 1.356 . S
N436 C428 1.356 . S
N436 H442 0.984 . S
N436 H443 0.984 . S
N437 C430 1.356 . S
N437 H440 0.984 . S
N437 H441 0.985 . S
H438 N433 0.984 . S
H439 N433 0.985 . S
H440 N437 0.984 . S
H441 N437 0.985 . S
H442 N436 0.984 . S
H443 N436 0.984 . S
H444 N432 0.984 . S
H445 N432 0.985 . S
C446 C447 1.363 . S
C446 C452 1.379 . S
C446 N454 1.356 . S
C447 C446 1.363 . S
C447 C453 1.363 . S
C448 C449 1.363 . S
C448 C453 1.379 . S
C448 N455 1.356 . S
C449 C448 1.363 . S
C449 C452 1.363 . S
N450 C452 1.356 . S
N450 H462 0.984 . S
N450 H463 0.985 . S
N451 C453 1.356 . S
N451 H456 0.984 . S
N451 H457 0.985 . S
C452 C446 1.379 . S
C452 C449 1.363 . S
C452 N450 1.356 . S
C453 C447 1.363 . S
C453 C448 1.379 . S
C453 N451 1.356 . S
N454 C446 1.356 . S
N454 H460 0.984 . S
N454 H461 0.984 . S
N455 C448 1.356 . S
N455 H458 0.984 . S
N455 H459 0.985 . S
H456 N451 0.984 . S
H457 N451 0.985 . S
H458 N455 0.984 . S
H459 N455 0.985 . S
H460 N454 0.984 . S
H461 N454 0.984 . S
H462 N450 0.984 . S
H463 N450 0.985 . S
C464 C465 1.363 1_556 S
C464 C470 1.379 . S
C464 N472 1.356 . S
C465 C464 1.363 1_554 S
C465 C471 1.363 . S
C466 C467 1.363 1_554 S
C466 C471 1.379 . S
C466 N473 1.356 . S
C467 C466 1.363 1_556 S
C467 C470 1.363 . S
N468 C470 1.356 . S
N468 H480 0.984 . S
N468 H481 0.985 . S
N469 C471 1.356 . S
N469 H474 0.984 . S
N469 H475 0.985 . S
C470 C464 1.379 . S
C470 C467 1.363 . S
C470 N468 1.356 . S
C471 C465 1.363 . S
C471 C466 1.379 . S
C471 N469 1.356 . S
N472 C464 1.356 . S
N472 H478 0.984 . S
N472 H479 0.984 . S
N473 C466 1.356 . S
N473 H476 0.984 . S
N473 H477 0.985 . S
H474 N469 0.984 . S
H475 N469 0.985 . S
H476 N473 0.984 . S
H477 N473 0.985 . S
H478 N472 0.984 . S
H479 N472 0.984 . S
H480 N468 0.984 . S
H481 N468 0.985 . S
C482 C483 1.363 1_556 S
C482 C488 1.379 1_565 S
C482 N490 1.356 . S
C483 C482 1.363 1_554 S
C483 C489 1.363 . S
C484 C485 1.363 1_554 S
C484 C489 1.379 1_545 S
C484 N491 1.356 . S
C485 C484 1.363 1_556 S
C485 C488 1.363 . S
N486 C488 1.356 . S
N486 H498 0.984 . S
N486 H499 0.985 . S
N487 C489 1.356 . S
N487 H492 0.984 . S
N487 H493 0.985 . S
C488 C482 1.379 1_545 S
C488 C485 1.363 . S
C488 N486 1.356 . S
C489 C483 1.363 . S
C489 C484 1.379 1_565 S
C489 N487 1.356 . S
N490 C482 1.356 . S
N490 H496 0.984 . S
N490 H497 0.984 . S
N491 C484 1.356 . S
N491 H494 0.984 . S
N491 H495 0.985 . S
H492 N487 0.984 . S
H493 N487 0.985 . S
H494 N491 0.984 . S
H495 N491 0.985 . S
H496 N490 0.984 . S
H497 N490 0.984 . S
H498 N486 0.984 . S
H499 N486 0.985 . S
C500 C501 1.363 . S
C500 C506 1.379 . S
C500 N508 1.356 . S
C501 C500 1.363 . S
C501 C507 1.363 1_556 S
C502 C503 1.363 . S
C502 C507 1.379 . S
C502 N509 1.356 . S
C503 C502 1.363 . S
C503 C506 1.363 1_554 S
N504 C506 1.356 . S
N504 H516 0.984 . S
N504 H517 0.985 . S
N505 C507 1.356 . S
N505 H510 0.984 . S
N505 H511 0.985 . S
C506 C500 1.379 . S
C506 C503 1.363 1_556 S
C506 N504 1.356 . S
C507 C501 1.363 1_554 S
C507 C502 1.379 . S
C507 N505 1.356 . S
N508 C500 1.356 . S
N508 H514 0.984 . S
N508 H515 0.984 . S
N509 C502 1.356 . S
N509 H512 0.984 . S
N509 H513 0.985 . S
H510 N505 0.984 . S
H511 N505 0.985 . S
H512 N509 0.984 . S
H513 N509 0.985 . S
H514 N508 0.984 . S
H515 N508 0.984 . S
H516 N504 0.984 . S
H517 N504 0.985 . S
C518 C519 1.363 1_554 S
C518 C524 1.379 1_545 S
C518 N526 1.356 . S
C519 C518 1.363 1_556 S
C519 C525 1.363 . S
C520 C521 1.363 1_556 S
C520 C525 1.379 1_565 S
C520 N527 1.356 . S
C521 C520 1.363 1_554 S
C521 C524 1.363 . S
N522 C524 1.356 . S
N522 H534 0.984 . S
N522 H535 0.985 . S
N523 C525 1.356 . S
N523 H528 0.984 . S
N523 H529 0.985 . S
C524 C518 1.379 1_565 S
C524 C521 1.363 . S
C524 N522 1.356 . S
C525 C519 1.363 . S
C525 C520 1.379 1_545 S
C525 N523 1.356 . S
N526 C518 1.356 . S
N526 H532 0.984 . S
N526 H533 0.984 . S
N527 C520 1.356 . S
N527 H530 0.984 . S
N527 H531 0.985 . S
H528 N523 0.984 . S
H529 N523 0.985 . S
H530 N527 0.984 . S
H531 N527 0.985 . S
H532 N526 0.984 . S
H533 N526 0.984 . S
H534 N522 0.984 . S
H535 N522 0.985 . S
C536 C537 1.363 . S
C536 C542 1.379 . S
C536 N544 1.356 . S
C537 C536 1.363 . S
C537 C543 1.363 . S
C538 C539 1.363 . S
C538 C543 1.379 1_556 S
C538 N545 1.356 . S
C539 C538 1.363 . S
C539 C542 1.363 1_556 S
N540 C542 1.356 . S
N540 H552 0.984 . S
N540 H553 0.985 1_554 S
N541 C543 1.356 . S
N541 H546 0.984 . S
N541 H547 0.985 . S
C542 C536 1.379 . S
C542 C539 1.363 1_554 S
C542 N540 1.356 . S
C543 C537 1.363 . S
C543 C538 1.379 1_554 S
C543 N541 1.356 . S
N544 C536 1.356 . S
N544 H550 0.984 . S
N544 H551 0.984 . S
N545 C538 1.356 . S
N545 H548 0.984 . S
N545 H549 0.985 . S
H546 N541 0.984 . S
H547 N541 0.985 . S
H548 N545 0.984 . S
H549 N545 0.985 . S
H550 N544 0.984 . S
H551 N544 0.984 . S
H552 N540 0.984 . S
H553 N540 0.985 1_556 S
C554 C555 1.363 . S
C554 C560 1.379 1_554 S
C554 N562 1.356 . S
C555 C554 1.363 . S
C555 C561 1.363 . S
C556 C557 1.363 1_554 S
C556 C561 1.379 . S
C556 N563 1.356 . S
C557 C556 1.363 1_556 S
C557 C560 1.363 . S
N558 C560 1.356 . S
N558 H570 0.984 . S
N558 H571 0.985 . S
N559 C561 1.356 . S
N559 H564 0.984 . S
N559 H565 0.985 . S
C560 C554 1.379 1_556 S
C560 C557 1.363 . S
C560 N558 1.356 . S
C561 C555 1.363 . S
C561 C556 1.379 . S
C561 N559 1.356 . S
N562 C554 1.356 . S
N562 H568 0.984 . S
N562 H569 0.984 . S
N563 C556 1.356 . S
N563 H566 0.984 1_554 S
N563 H567 0.985 . S
H564 N559 0.984 . S
H565 N559 0.985 . S
H566 N563 0.984 1_556 S
H567 N563 0.985 . S
H568 N562 0.984 . S
H569 N562 0.984 . S
H570 N558 0.984 . S
H571 N558 0.985 . S
C572 C573 1.363 . S
C572 C578 1.379 1_554 S
C572 N580 1.356 . S
C573 C572 1.363 . S
C573 C579 1.363 1_554 S
C574 C575 1.363 . S
C574 C579 1.379 . S
C574 N581 1.356 . S
C575 C574 1.363 . S
C575 C578 1.363 . S
N576 C578 1.356 . S
N576 H588 0.984 . S
N576 H589 0.985 . S
N577 C579 1.356 . S
N577 H582 0.984 1_556 S
N577 H583 0.985 . S
C578 C572 1.379 1_556 S
C578 C575 1.363 . S
C578 N576 1.356 . S
C579 C573 1.363 1_556 S
C579 C574 1.379 . S
C579 N577 1.356 . S
N580 C572 1.356 . S
N580 H586 0.984 . S
N580 H587 0.984 . S
N581 C574 1.356 . S
N581 H584 0.984 . S
N581 H585 0.985 . S
H582 N577 0.984 1_554 S
H583 N577 0.985 . S
H584 N581 0.984 . S
H585 N581 0.985 . S
H586 N580 0.984 . S
H587 N580 0.984 . S
H588 N576 0.984 . S
H589 N576 0.985 . S
C590 C591 1.363 . S
C590 C596 1.379 . S
C590 N598 1.356 . S
C591 C590 1.363 . S
C591 C597 1.363 . S
C592 C593 1.363 1_556 S
C592 C597 1.379 . S
C592 N599 1.356 1_556 S
C593 C592 1.363 1_554 S
C593 C596 1.363 1_554 S
N594 C596 1.356 1_554 S
N594 H606 0.984 . S
N594 H607 0.985 . S
N595 C597 1.356 . S
N595 H600 0.984 . S
N595 H601 0.985 . S
C596 C590 1.379 . S
C596 C593 1.363 1_556 S
C596 N594 1.356 1_556 S
C597 C591 1.363 . S
C597 C592 1.379 . S
C597 N595 1.356 . S
N598 C590 1.356 . S
N598 H604 0.984 . S
N598 H605 0.984 . S
N599 C592 1.356 1_554 S
N599 H602 0.984 . S
N599 H603 0.985 . S
H600 N595 0.984 . S
H601 N595 0.985 . S
H602 N599 0.984 . S
H603 N599 0.985 . S
H604 N598 0.984 . S
H605 N598 0.984 . S
H606 N594 0.984 . S
H607 N594 0.985 . S
C608 C609 1.363 . S
C608 C614 1.379 . S
C608 N616 1.356 . S
C609 C608 1.363 . S
C609 C615 1.363 . S
C610 C611 1.363 . S
C610 C615 1.379 . S
C610 N617 1.356 . S
C611 C610 1.363 . S
C611 C614 1.363 . S
N612 C614 1.356 . S
N612 H624 0.984 . S
N612 H625 0.985 . S
N613 C615 1.356 . S
N613 H618 0.984 . S
N613 H619 0.985 . S
C614 C608 1.379 . S
C614 C611 1.363 . S
C614 N612 1.356 . S
C615 C609 1.363 . S
C615 C610 1.379 . S
C615 N613 1.356 . S
N616 C608 1.356 . S
N616 H622 0.984 . S
N616 H623 0.984 . S
N617 C610 1.356 . S
N617 H620 0.984 . S
N617 H621 0.985 . S
H618 N613 0.984 . S
H619 N613 0.985 . S
H620 N617 0.984 . S
H621 N617 0.985 . S
H622 N616 0.984 . S
H623 N616 0.984 . S
H624 N612 0.984 . S
H625 N612 0.985 . S
C626 C627 1.363 . S
C626 C632 1.379 . S
C626 N634 1.356 . S
C627 C626 1.363 . S
C627 C633 1.363 . S
C628 C629 1.363 . S
C628 C633 1.379 . S
C628 N635 1.356 . S
C629 C628 1.363 . S
C629 C632 1.363 . S
N630 C632 1.356 . S
N630 H642 0.984 . S
N630 H643 0.985 . S
N631 C633 1.356 . S
N631 H636 0.984 . S
N631 H637 0.985 . S
C632 C626 1.379 . S
C632 C629 1.363 . S
C632 N630 1.356 . S
C633 C627 1.363 . S
C633 C628 1.379 . S
C633 N631 1.356 . S
N634 C626 1.356 . S
N634 H640 0.984 . S
N634 H641 0.984 . S
N635 C628 1.356 . S
N635 H638 0.984 . S
N635 H639 0.985 . S
H636 N631 0.984 . S
H637 N631 0.985 . S
H638 N635 0.984 . S
H639 N635 0.985 . S
H640 N634 0.984 . S
H641 N634 0.984 . S
H642 N630 0.984 . S
H643 N630 0.985 . S
C644 C645 1.363 . S
C644 C650 1.379 . S
C644 N652 1.356 . S
C645 C644 1.363 . S
C645 C651 1.363 . S
C646 C647 1.363 . S
C646 C651 1.379 . S
C646 N653 1.356 . S
C647 C646 1.363 . S
C647 C650 1.363 . S
N648 C650 1.356 . S
N648 H660 0.984 . S
N648 H661 0.985 . S
N649 C651 1.356 . S
N649 H654 0.984 . S
N649 H655 0.985 . S
C650 C644 1.379 . S
C650 C647 1.363 . S
C650 N648 1.356 . S
C651 C645 1.363 . S
C651 C646 1.379 . S
C651 N649 1.356 . S
N652 C644 1.356 . S
N652 H658 0.984 . S
N652 H659 0.984 . S
N653 C646 1.356 . S
N653 H656 0.984 . S
N653 H657 0.985 . S
H654 N649 0.984 . S
H655 N649 0.985 . S
H656 N653 0.984 . S
H657 N653 0.985 . S
H658 N652 0.984 . S
H659 N652 0.984 . S
H660 N648 0.984 . S
H661 N648 0.985 . S
C662 C663 1.363 . S
C662 C668 1.379 . S
C662 N670 1.356 . S
C663 C662 1.363 . S
C663 C669 1.363 . S
C664 C665 1.363 . S
C664 C669 1.379 . S
C664 N671 1.356 . S
C665 C664 1.363 . S
C665 C668 1.363 . S
N666 C668 1.356 . S
N666 H678 0.984 . S
N666 H679 0.985 . S
N667 C669 1.356 . S
N667 H672 0.984 . S
N667 H673 0.985 . S
C668 C662 1.379 . S
C668 C665 1.363 . S
C668 N666 1.356 . S
C669 C663 1.363 . S
C669 C664 1.379 . S
C669 N667 1.356 . S
N670 C662 1.356 . S
N670 H676 0.984 . S
N670 H677 0.984 . S
N671 C664 1.356 . S
N671 H674 0.984 . S
N671 H675 0.985 . S
H672 N667 0.984 . S
H673 N667 0.985 . S
H674 N671 0.984 . S
H675 N671 0.985 . S
H676 N670 0.984 . S
H677 N670 0.984 . S
H678 N666 0.984 . S
H679 N666 0.985 . S
C680 C681 1.363 . S
C680 C686 1.379 1_455 S
C680 N688 1.356 . S
C681 C680 1.363 . S
C681 C687 1.363 . S
C682 C683 1.363 . S
C682 C687 1.379 1_655 S
C682 N689 1.356 . S
C683 C682 1.363 . S
C683 C686 1.363 . S
N684 C686 1.356 . S
N684 H696 0.984 . S
N684 H697 0.985 . S
N685 C687 1.356 . S
N685 H690 0.984 . S
N685 H691 0.985 . S
C686 C680 1.379 1_655 S
C686 C683 1.363 . S
C686 N684 1.356 . S
C687 C681 1.363 . S
C687 C682 1.379 1_455 S
C687 N685 1.356 . S
N688 C680 1.356 . S
N688 H694 0.984 . S
N688 H695 0.984 . S
N689 C682 1.356 . S
N689 H692 0.984 . S
N689 H693 0.985 . S
H690 N685 0.984 . S
H691 N685 0.985 . S
H692 N689 0.984 . S
H693 N689 0.985 . S
H694 N688 0.984 . S
H695 N688 0.984 . S
H696 N684 0.984 . S
H697 N684 0.985 . S
C698 C699 1.363 . S
C698 C704 1.379 1_655 S
C698 N706 1.356 . S
C699 C698 1.363 . S
C699 C705 1.363 . S
C700 C701 1.363 . S
C700 C705 1.379 1_455 S
C700 N707 1.356 . S
C701 C700 1.363 . S
C701 C704 1.363 . S
N702 C704 1.356 . S
N702 H714 0.984 . S
N702 H715 0.985 . S
N703 C705 1.356 . S
N703 H708 0.984 . S
N703 H709 0.985 . S
C704 C698 1.379 1_455 S
C704 C701 1.363 . S
C704 N702 1.356 . S
C705 C699 1.363 . S
C705 C700 1.379 1_655 S
C705 N703 1.356 . S
N706 C698 1.356 . S
N706 H712 0.984 . S
N706 H713 0.984 . S
N707 C700 1.356 . S
N707 H710 0.984 . S
N707 H711 0.985 . S
H708 N703 0.984 . S
H709 N703 0.985 . S
H710 N707 0.984 . S
H711 N707 0.985 . S
H712 N706 0.984 . S
H713 N706 0.984 . S
H714 N702 0.984 . S
H715 N702 0.985 . S
C716 C717 1.363 . S
C716 C722 1.379 . S
C716 N724 1.356 . S
C717 C716 1.363 . S
C717 C723 1.363 . S
C718 C719 1.363 . S
C718 C723 1.379 . S
C718 N725 1.356 1_556 S
C719 C718 1.363 . S
C719 C722 1.363 . S
N720 C722 1.356 . S
N720 H732 0.984 . S
N720 H733 0.985 . S
N721 C723 1.356 1_554 S
N721 H726 0.984 . S
N721 H727 0.985 . S
C722 C716 1.379 . S
C722 C719 1.363 . S
C722 N720 1.356 . S
C723 C717 1.363 . S
C723 C718 1.379 . S
C723 N721 1.356 1_556 S
N724 C716 1.356 . S
N724 H730 0.984 . S
N724 H731 0.984 . S
N725 C718 1.356 1_554 S
N725 H728 0.984 . S
N725 H729 0.985 . S
H726 N721 0.984 . S
H727 N721 0.985 . S
H728 N725 0.984 . S
H729 N725 0.985 . S
H730 N724 0.984 . S
H731 N724 0.984 . S
H732 N720 0.984 . S
H733 N720 0.985 . S
C734 C735 1.363 . S
C734 C740 1.379 . S
C734 N742 1.356 1_554 S
C735 C734 1.363 . S
C735 C741 1.363 . S
C736 C737 1.363 . S
C736 C741 1.379 . S
C736 N743 1.356 . S
C737 C736 1.363 . S
C737 C740 1.363 . S
N738 C740 1.356 1_556 S
N738 H750 0.984 . S
N738 H751 0.985 . S
N739 C741 1.356 . S
N739 H744 0.984 . S
N739 H745 0.985 . S
C740 C734 1.379 . S
C740 C737 1.363 . S
C740 N738 1.356 1_554 S
C741 C735 1.363 . S
C741 C736 1.379 . S
C741 N739 1.356 . S
N742 C734 1.356 1_556 S
N742 H748 0.984 . S
N742 H749 0.984 . S
N743 C736 1.356 . S
N743 H746 0.984 . S
N743 H747 0.985 . S
H744 N739 0.984 . S
H745 N739 0.985 . S
H746 N743 0.984 . S
H747 N743 0.985 . S
H748 N742 0.984 . S
H749 N742 0.984 . S
H750 N738 0.984 . S
H751 N738 0.985 . S
C321 C19 2.425 . S
C323 C290 2.425 . S
C339 C250 2.425 . S
C341 C59 2.425 . S
C357 C219 2.425 . S
C359 C90 2.425 . S
C375 C179 2.425 . S
C377 C130 2.425 . S
C393 C89 1.606 . S
C395 C9 1.467 . S
C411 C49 1.467 . S
C413 C129 1.606 . S
C429 C138 1.467 . S
C431 C58 1.606 . S
C447 C98 1.467 . S
C449 C18 1.606 . S
C465 C169 1.467 . S
C467 C249 1.606 . S
C483 C209 1.467 . S
C485 C289 1.606 . S
C501 C298 1.467 . S
C503 C218 1.606 . S
C519 C258 1.467 . S
C521 C178 1.606 . S
C537 C6 1.450 . S
C539 C15 1.450 . S
C555 C46 1.450 . S
C557 C55 1.450 . S
C573 C86 1.450 . S
C575 C95 1.450 . S
C591 C135 1.450 . S
C593 C126 1.450 . S
C609 C175 1.450 . S
C611 C166 1.450 . S
C627 C206 1.450 . S
C629 C215 1.450 . S
C645 C255 1.450 . S
C647 C246 1.450 . S
C663 C295 1.450 . S
C665 C286 1.450 . S
C681 C10 2.148 . S
C683 C50 2.148 . S
C699 C139 2.148 . S
C701 C99 2.148 . S
C717 C170 2.148 . S
C719 C210 2.148 . S
C735 C299 2.148 . S
C737 C259 2.148 . S
