# Generated by pormake.
# Topology snk, (6)-cn, num edge types: 1
# Building blocks:
#     Node 0, Type 0, BuildingBlock: VOLQOD_clean_sbu_1, # of connection points: 6
#     Node 1, Type 0, BuildingBlock: VOLQOD_clean_sbu_1, # of connection points: 6
#     Node 2, Type 0, BuildingBlock: VOLQOD_clean_sbu_1, # of connection points: 6
#     Node 3, Type 0, BuildingBlock: VOLQOD_clean_sbu_1, # of connection points: 6
#     Node 4, Type 0, BuildingBlock: VOLQOD_clean_sbu_1, # of connection points: 6
#     Node 5, Type 0, BuildingBlock: VOLQOD_clean_sbu_1, # of connection points: 6
#     Node 6, Type 0, BuildingBlock: VOLQOD_clean_sbu_1, # of connection points: 6
#     Node 7, Type 0, BuildingBlock: VOLQOD_clean_sbu_1, # of connection points: 6
#     Edge 8, Type (0, 0), BuildingBlock: XIVTED_clean_linker_0, # of connection points: 2
#     Edge 9, Type (0, 0), BuildingBlock: XIVTED_clean_linker_0, # of connection points: 2
#     Edge 10, Type (0, 0), BuildingBlock: XIVTED_clean_linker_0, # of connection points: 2
#     Edge 11, Type (0, 0), BuildingBlock: XIVTED_clean_linker_0, # of connection points: 2
#     Edge 12, Type (0, 0), BuildingBlock: XIVTED_clean_linker_0, # of connection points: 2
#     Edge 13, Type (0, 0), BuildingBlock: XIVTED_clean_linker_0, # of connection points: 2
#     Edge 14, Type (0, 0), BuildingBlock: XIVTED_clean_linker_0, # of connection points: 2
#     Edge 15, Type (0, 0), BuildingBlock: XIVTED_clean_linker_0, # of connection points: 2
#     Edge 16, Type (0, 0), BuildingBlock: XIVTED_clean_linker_0, # of connection points: 2
#     Edge 17, Type (0, 0), BuildingBlock: XIVTED_clean_linker_0, # of connection points: 2
#     Edge 18, Type (0, 0), BuildingBlock: XIVTED_clean_linker_0, # of connection points: 2
#     Edge 19, Type (0, 0), BuildingBlock: XIVTED_clean_linker_0, # of connection points: 2
#     Edge 20, Type (0, 0), BuildingBlock: XIVTED_clean_linker_0, # of connection points: 2
#     Edge 21, Type (0, 0), BuildingBlock: XIVTED_clean_linker_0, # of connection points: 2
#     Edge 22, Type (0, 0), BuildingBlock: XIVTED_clean_linker_0, # of connection points: 2
#     Edge 23, Type (0, 0), BuildingBlock: XIVTED_clean_linker_0, # of connection points: 2
#     Edge 24, Type (0, 0), BuildingBlock: XIVTED_clean_linker_0, # of connection points: 2
#     Edge 25, Type (0, 0), BuildingBlock: XIVTED_clean_linker_0, # of connection points: 2
#     Edge 26, Type (0, 0), BuildingBlock: XIVTED_clean_linker_0, # of connection points: 2
#     Edge 27, Type (0, 0), BuildingBlock: XIVTED_clean_linker_0, # of connection points: 2
#     Edge 28, Type (0, 0), BuildingBlock: XIVTED_clean_linker_0, # of connection points: 2
#     Edge 29, Type (0, 0), BuildingBlock: XIVTED_clean_linker_0, # of connection points: 2
#     Edge 30, Type (0, 0), BuildingBlock: XIVTED_clean_linker_0, # of connection points: 2
#     Edge 31, Type (0, 0), BuildingBlock: XIVTED_clean_linker_0, # of connection points: 2
# Relax obj value: 0.177
# Max RMSD: 0.167
# Mean RMSD: 0.167
data_MOF--net-snk--node1-VOLQOD_clean_sbu_1--edge1-XIVTED_clean_linker_0
_symmetry_space_group_name_H-M    P1
_symmetry_Int_Tables_number       1
_symmetry_cell_setting            triclinic
loop_
_symmetry_equiv_pos_as_xyz
'x, y, z'
_cell_length_a     46.891078
_cell_length_b     46.825666
_cell_length_c     16.176755
_cell_angle_alpha  90.165427
_cell_angle_beta   90.150072
_cell_angle_gamma 89.665241
loop_
_atom_site_label
_atom_site_type_symbol
_atom_site_fract_x
_atom_site_fract_y
_atom_site_fract_z
_atom_type_partial_charge
O0 O 0.02752 0.97929 0.50406 0.0
Zn1 Zn 0.99218 -0.00221 0.45605 0.0
O2 O 0.99181 0.03888 0.47761 0.0
Zn3 Zn 0.95781 0.04941 0.53651 0.0
Zn4 Zn 0.02448 0.0494 0.54236 0.0
Zn5 Zn 0.99255 0.06045 0.37808 0.0
O6 O 0.93938 0.08508 0.49344 0.0
O7 O 0.96034 0.08818 0.37113 0.0
O8 O 0.95634 0.97977 0.49963 0.0
O9 O 0.92997 0.01792 0.53093 0.0
O10 O 0.96644 0.05266 0.65594 0.0
O11 O 0.01366 0.05413 0.65998 0.0
O12 O 0.04455 0.08367 0.49822 0.0
O13 O 0.99243 0.99004 0.33394 0.0
O14 O 0.02697 0.08485 0.37079 0.0
O15 O 0.99122 0.03428 0.28325 0.0
C16 C 0.05009 0.99055 0.53341 0.0
C17 C 0.94205 0.09696 0.42329 0.0
C18 C 0.98968 0.05366 0.6963 0.0
C19 C 0.93278 0.99108 0.52191 0.0
C20 C 0.0443 0.09383 0.42536 0.0
C21 C 0.99152 0.00736 0.2737 0.0
O22 O 0.05203 0.01732 0.54496 0.0
O23 O 0.34376 0.8642 0.76776 0.0
Zn24 Zn 0.32458 0.83023 0.71393 0.0
O25 O 0.28397 0.83194 0.73222 0.0
Zn26 Zn 0.27146 0.80166 0.80041 0.0
Zn27 Zn 0.27579 0.86745 0.78447 0.0
Zn28 Zn 0.26255 0.82878 0.63377 0.0
O29 O 0.23431 0.78543 0.76101 0.0
O30 O 0.24169 0.79169 0.62681 0.0
O31 O 0.34007 0.79241 0.75375 0.0
O32 O 0.30084 0.77096 0.79905 0.0
O33 O 0.27036 0.81475 0.91658 0.0
O34 O 0.27665 0.86158 0.90657 0.0
O35 O 0.23853 0.88378 0.74587 0.0
O36 O 0.33248 0.83357 0.59214 0.0
O37 O 0.23201 0.8585 0.63104 0.0
O38 O 0.28841 0.83387 0.53943 0.0
C39 C 0.33371 0.88958 0.76976 0.0
C40 C 0.22805 0.7802 0.68584 0.0
C41 C 0.27444 0.83904 0.94976 0.0
C42 C 0.32739 0.77062 0.78296 0.0
C43 C 0.22427 0.87812 0.68081 0.0
C44 C 0.31532 0.83539 0.53136 0.0
O45 O 0.30716 0.89462 0.7615 0.0
O46 O 0.46492 0.17269 0.01809 0.0
Zn47 Zn 0.50075 0.15491 0.97011 0.0
O48 O 0.50055 0.11396 -0.01254 0.0
Zn49 Zn 0.53327 0.10224 0.05014 0.0
Zn50 Zn 0.46711 0.10365 0.04625 0.0
Zn51 Zn 0.49876 0.09313 0.88717 0.0
O52 O 0.5504 0.06581 0.00615 0.0
O53 O 0.52931 0.06351 0.88314 0.0
O54 O 0.53674 0.17183 0.01801 0.0
O55 O 0.56226 0.13299 0.04864 0.0
O56 O 0.52288 0.09986 0.16916 0.0
O57 O 0.47571 0.10379 0.16632 0.0
O58 O 0.45109 0.06626 0.00779 0.0
O59 O 0.50122 0.1635 0.84788 0.0
O60 O 0.4626 0.07111 0.87571 0.0
O61 O 0.50245 0.11959 0.79399 0.0
C62 C 0.44077 0.161 0.03023 0.0
C63 C 0.54712 0.05396 0.93578 0.0
C64 C 0.49909 0.10255 0.20609 0.0
C65 C 0.55994 0.15996 0.04144 0.0
C66 C 0.44864 0.05875 0.93246 0.0
C67 C 0.50267 0.14658 0.78638 0.0
O68 O 0.43785 0.134 0.03126 0.0
O69 O 0.15566 0.28459 0.28117 0.0
Zn70 Zn 0.17256 0.32158 0.24213 0.0
O71 O 0.21334 0.32126 0.263 0.0
Zn72 Zn 0.22397 0.35511 0.32167 0.0
Zn73 Zn 0.2249 0.28876 0.32615 0.0
Zn74 Zn 0.23426 0.31864 0.16338 0.0
O75 O 0.25975 0.37236 0.27735 0.0
O76 O 0.26496 0.34769 0.16088 0.0
O77 O 0.15428 0.35622 0.29532 0.0
O78 O 0.1924 0.38336 0.31735 0.0
O79 O 0.22719 0.34654 0.44146 0.0
O80 O 0.22731 0.29921 0.44475 0.0
O81 O 0.2613 0.27117 0.28343 0.0
O82 O 0.16445 0.32485 0.12021 0.0
O83 O 0.25414 0.28116 0.15098 0.0
O84 O 0.20856 0.3249 0.06929 0.0
C85 C 0.1674 0.26164 0.30709 0.0
C86 C 0.2731 0.36709 0.21055 0.0
C87 C 0.22711 0.32323 0.48149 0.0
C88 C 0.16549 0.38006 0.31507 0.0
C89 C 0.26724 0.26748 0.20737 0.0
C90 C 0.18172 0.32667 0.0601 0.0
O91 O 0.19406 0.25997 0.32131 0.0
O92 O 0.84359 0.36581 0.26915 0.0
Zn93 Zn 0.82488 0.33164 0.21514 0.0
O94 O 0.78394 0.33262 0.23368 0.0
Zn95 Zn 0.77228 0.30105 0.30033 0.0
Zn96 Zn 0.7748 0.36776 0.28841 0.0
Zn97 Zn 0.76276 0.3311 0.13392 0.0
O98 O 0.73668 0.2823 0.25729 0.0
O99 O 0.73881 0.2963 0.12639 0.0
O100 O 0.8416 0.29454 0.25655 0.0
O101 O 0.80309 0.27188 0.30146 0.0
O102 O 0.76939 0.31353 0.41753 0.0
O103 O 0.77374 0.36063 0.40941 0.0
O104 O 0.73837 0.38535 0.24736 0.0
O105 O 0.83306 0.33412 0.09305 0.0
O106 O 0.7345 0.36275 0.12722 0.0
O107 O 0.78907 0.33345 0.04003 0.0
C108 C 0.83304 0.39078 0.27861 0.0
C109 C 0.72791 0.28099 0.18276 0.0
C110 C 0.77198 0.33788 0.45175 0.0
C111 C 0.82968 0.27246 0.28636 0.0
C112 C 0.7259 0.38156 0.17826 0.0
C113 C 0.81597 0.33467 0.03188 0.0
O114 O 0.80633 0.39543 0.27385 0.0
O115 O 0.64813 0.78735 0.74356 0.0
Zn116 Zn 0.66659 0.82283 0.69857 0.0
O117 O 0.70765 0.82193 0.71997 0.0
Zn118 Zn 0.71853 0.85537 0.78124 0.0
Zn119 Zn 0.71784 0.78852 0.78244 0.0
Zn120 Zn 0.72919 0.82091 0.62026 0.0
O121 O 0.75322 0.87416 0.73596 0.0
O122 O 0.75565 0.85381 0.61213 0.0
O123 O 0.64862 0.85861 0.74628 0.0
O124 O 0.68696 0.88355 0.78178 0.0
O125 O 0.7231 0.84593 0.89976 0.0
O126 O 0.72175 0.79863 0.90088 0.0
O127 O 0.75286 0.76866 0.7397 0.0
O128 O 0.65882 0.82328 0.57637 0.0
O129 O 0.75495 0.78705 0.61374 0.0
O130 O 0.70297 0.8212 0.52555 0.0
C131 C 0.65908 0.76413 0.77012 0.0
C132 C 0.76439 0.87202 0.66463 0.0
C133 C 0.72276 0.82242 0.93868 0.0
C134 C 0.66013 0.8815 0.77266 0.0
C135 C 0.76386 0.76953 0.66792 0.0
C136 C 0.67609 0.82229 0.51606 0.0
O137 O 0.68579 0.76129 0.78119 0.0
O138 O 0.52923 0.48098 -0.00271 0.0
Zn139 Zn 0.49254 0.49765 0.95259 0.0
O140 O 0.49075 0.53871 0.97372 0.0
Zn141 Zn 0.45649 0.54826 0.03297 0.0
Zn142 Zn 0.52318 0.55051 0.03782 0.0
Zn143 Zn 0.49067 0.56001 0.87379 0.0
O144 O 0.43618 0.58266 -0.01232 0.0
O145 O 0.45695 0.58566 0.86511 0.0
O146 O 0.45835 0.47824 0.00205 0.0
O147 O 0.43027 0.51535 0.03152 0.0
O148 O 0.46521 0.55279 0.15229 0.0
O149 O 0.51244 0.55413 0.15578 0.0
O150 O 0.54115 0.58612 -0.00533 0.0
O151 O 0.49177 0.48954 0.83036 0.0
O152 O 0.52346 0.58656 0.86731 0.0
O153 O 0.49106 0.53373 0.77924 0.0
C154 C 0.55151 0.49307 0.02563 0.0
C155 C 0.43823 0.59398 0.91654 0.0
C156 C 0.48852 0.55372 0.19241 0.0
C157 C 0.43449 0.48857 0.02563 0.0
C158 C 0.54017 0.59649 0.9221 0.0
C159 C 0.49133 0.5068 0.76989 0.0
O160 O 0.5524 0.51986 0.03813 0.0
O161 O 0.96217 0.66794 0.52817 0.0
Zn162 Zn -0.00013 0.65214 0.48868 0.0
O163 O 0.00159 0.61155 0.50882 0.0
Zn164 Zn 0.03729 0.60333 0.55932 0.0
Zn165 Zn 0.97134 0.59912 0.57778 0.0
Zn166 Zn -0.00154 0.58992 0.41106 0.0
O167 O 0.05355 0.56596 0.52104 0.0
O168 O 0.02669 0.5579 0.41035 0.0
O169 O 0.03394 0.67154 0.54112 0.0
O170 O 0.0643 0.63483 0.53605 0.0
O171 O 0.03172 0.60389 0.68096 0.0
O172 O 0.98502 0.59747 0.69403 0.0
O173 O 0.95398 0.56248 0.53565 0.0
O174 O 0.00333 0.65953 0.36657 0.0
O175 O 0.96038 0.57153 0.4023 0.0
O176 O 0.00557 0.61511 0.31654 0.0
C177 C 0.94065 0.65556 0.55984 0.0
C178 C 0.0469 0.55072 0.4587 0.0
C179 C 0.00957 0.60153 0.72558 0.0
C180 C 0.05929 0.66147 0.54317 0.0
C181 C 0.94829 0.55766 0.45979 0.0
C182 C 0.00659 0.64201 0.30709 0.0
O183 O 0.94112 0.62913 0.57806 0.0
H184 H 0.04006 0.12981 0.29367 0.0
H185 H 0.18144 0.2152 0.40002 0.0
H186 H 0.09157 0.11197 0.50948 0.0
H187 H 0.11347 0.25062 0.25067 0.0
H188 H 0.15208 0.17344 0.42688 0.0
H189 H 0.07048 0.17047 0.26281 0.0
C190 C 0.05789 0.13432 0.33427 0.0
C191 C 0.06333 0.11754 0.40437 0.0
C192 C 0.14362 0.19038 0.38833 0.0
C193 C 0.09805 0.16392 0.36925 0.0
C194 C 0.16036 0.21415 0.37262 0.0
C195 C 0.14981 0.23638 0.32303 0.0
C196 C 0.11632 0.1887 0.35334 0.0
C197 C 0.12233 0.23399 0.28954 0.0
C198 C 0.07509 0.15762 0.31683 0.0
C199 C 0.08659 0.12445 0.45504 0.0
N200 N 0.10652 0.21043 0.30505 0.0
N201 N 0.10321 0.14714 0.43632 0.0
H202 H 0.06073 0.93459 0.49145 0.0
H203 H 0.20482 0.92693 0.75562 0.0
H204 H 0.09504 0.00552 0.63036 0.0
H205 H 0.18353 0.86557 0.56558 0.0
H206 H 0.16113 0.95325 0.72325 0.0
H207 H 0.10253 0.90598 0.53097 0.0
C208 C 0.07697 0.94408 0.53034 0.0
C209 C 0.07454 0.97249 0.55715 0.0
C210 C 0.16606 0.93401 0.68867 0.0
C211 C 0.12202 0.94005 0.60272 0.0
C212 C 0.19095 0.91898 0.70722 0.0
C213 C 0.1979 0.89416 0.66284 0.0
C214 C 0.14794 0.92401 0.62583 0.0
C215 C 0.17912 0.88476 0.60084 0.0
C216 C 0.10079 0.92782 0.55264 0.0
C217 C 0.09616 0.98378 0.60754 0.0
N218 N 0.15494 0.89972 0.58416 0.0
N219 N 0.11897 0.96752 0.62872 0.0
H220 H 0.32886 0.94329 0.70916 0.0
H221 H 0.4355 0.01269 0.02792 0.0
H222 H 0.38055 0.89092 0.87031 0.0
H223 H 0.42211 0.04881 0.78557 0.0
H224 H 0.40888 0.97019 -0.01547 0.0
H225 H 0.35731 0.98487 0.74832 0.0
C226 C 0.34637 0.94058 0.75234 0.0
C227 C 0.35254 0.91379 0.78658 0.0
C228 C 0.41183 0.9875 0.94117 0.0
C229 C 0.38445 0.96108 0.83285 0.0
C230 C 0.42668 0.01178 0.966 0.0
C231 C 0.43088 0.03418 0.91012 0.0
C232 C 0.40067 0.98608 0.86076 0.0
C233 C 0.41935 0.03191 0.83033 0.0
C234 C 0.36253 0.96421 0.7745 0.0
C235 C 0.37537 0.91126 0.8422 0.0
N236 N 0.40455 0.00831 0.80811 0.0
N237 N 0.39036 0.93479 0.86466 0.0
H238 H 0.43886 0.21104 0.11713 0.0
H239 H 0.27297 0.23631 0.06644 0.0
H240 H 0.38578 0.15029 -0.01128 0.0
H241 H 0.31689 0.25886 0.2919 0.0
H242 H 0.31583 0.21095 0.01939 0.0
H243 H 0.39568 0.23655 0.16266 0.0
C244 C 0.41815 0.20341 0.09749 0.0
C245 C 0.41568 0.17862 0.04935 0.0
C246 C 0.31593 0.2213 0.07937 0.0
C247 C 0.36678 0.2074 0.10062 0.0
C248 C 0.29159 0.23565 0.10624 0.0
C249 C 0.2915 0.24943 0.18325 0.0
C250 C 0.34047 0.22146 0.12898 0.0
C251 C 0.31611 0.24816 0.23253 0.0
C252 C 0.39365 0.21771 0.12412 0.0
C253 C 0.38845 0.1693 0.02615 0.0
N254 N 0.33986 0.23468 0.20404 0.0
N255 N 0.36496 0.1838 0.05173 0.0
H256 H 0.92411 0.93521 0.47766 0.0
H257 H 0.78192 0.92093 0.74148 0.0
H258 H 0.88569 0.00572 0.61042 0.0
H259 H 0.80246 0.86393 0.53946 0.0
H260 H 0.82337 0.94979 0.70629 0.0
H261 H 0.8827 0.90586 0.51206 0.0
C262 C 0.90701 0.94447 0.51399 0.0
C263 C 0.90823 0.97291 0.54099 0.0
C264 C 0.81869 0.93101 0.66957 0.0
C265 C 0.86127 0.93963 0.58079 0.0
C266 C 0.79512 0.91453 0.68972 0.0
C267 C 0.78875 0.89011 0.64312 0.0
C268 C 0.83613 0.92274 0.60319 0.0
C269 C 0.80653 0.88275 0.57661 0.0
C270 C 0.88342 0.92781 0.53327 0.0
C271 C 0.88552 0.98394 0.5878 0.0
N272 N 0.82956 0.89895 0.55884 0.0
N273 N 0.86301 0.96722 0.60656 0.0
H274 H 0.89455 0.11708 0.5031 0.0
H275 H 0.88394 0.25943 0.23509 0.0
H276 H 0.95045 0.13475 0.29782 0.0
H277 H 0.81444 0.22742 0.38246 0.0
H278 H 0.91146 0.21635 0.26849 0.0
H279 H 0.86731 0.16026 0.4701 0.0
C280 C 0.90104 0.12999 0.45105 0.0
C281 C 0.92472 0.1223 0.40298 0.0
C282 C 0.89014 0.21882 0.29323 0.0
C283 C 0.89392 0.17167 0.36552 0.0
C284 C 0.87451 0.24339 0.2745 0.0
C285 C 0.84686 0.24692 0.30578 0.0
C286 C 0.87811 0.19793 0.34434 0.0
C287 C 0.83562 0.22549 0.35649 0.0
C288 C 0.88549 0.15457 0.43219 0.0
C289 C 0.93222 0.13979 0.33621 0.0
N290 N 0.85134 0.20193 0.37443 0.0
N291 N 0.91693 0.16377 0.31968 0.0
H292 H 0.69319 0.28557 0.04828 0.0
H293 H 0.60504 0.14532 0.13931 0.0
H294 H 0.70692 0.23526 0.26836 0.0
H295 H 0.57106 0.21483 -0.00639 0.0
H296 H 0.64615 0.17473 0.1749 0.0
H297 H 0.65193 0.25625 0.01447 0.0
C298 C 0.68763 0.26823 0.08927 0.0
C299 C 0.70352 0.26275 0.16122 0.0
C300 C 0.62964 0.18352 0.13535 0.0
C301 C 0.65642 0.22923 0.12262 0.0
C302 C 0.60628 0.16675 0.11458 0.0
C303 C 0.58468 0.17769 0.06322 0.0
C304 C 0.63162 0.21121 0.10341 0.0
C305 C 0.58723 0.20564 0.03354 0.0
C306 C 0.66397 0.25168 0.07015 0.0
C307 C 0.69519 0.2402 0.21242 0.0
N308 N 0.61045 0.22143 0.0536 0.0
N309 N 0.67223 0.22409 0.19183 0.0
H310 H 0.6042 0.89252 0.73214 0.0
H311 H 0.59498 0.03293 0.01223 0.0
H312 H 0.67554 0.92627 0.86999 0.0
H313 H 0.53631 0.01586 0.81198 0.0
H314 H 0.62177 0.98985 0.97464 0.0
H315 H 0.57571 0.93411 0.77468 0.0
C316 C 0.61382 0.90861 0.77134 0.0
C317 C 0.64229 0.90607 0.7971 0.0
C318 C 0.60302 -0.00439 0.93901 0.0
C319 C 0.60996 0.95324 0.84633 0.0
C320 C 0.58772 0.02011 0.96054 0.0
C321 C 0.56354 0.02806 0.91481 0.0
C322 C 0.59383 0.97884 0.87205 0.0
C323 C 0.55502 0.01065 0.84842 0.0
C324 C 0.59763 0.93231 0.79536 0.0
C325 C 0.65375 0.9275 0.84796 0.0
N326 N 0.57013 0.98679 0.82911 0.0
N327 N 0.63752 0.95014 0.87109 0.0
H328 H 0.58692 0.61656 0.00481 0.0
H329 H 0.60376 0.75456 0.72246 0.0
H330 H 0.53319 0.63301 0.79267 0.0
H331 H 0.67249 0.71914 0.86888 0.0
H332 H 0.57405 0.71381 0.7611 0.0
H333 H 0.61539 0.65832 0.96902 0.0
C334 C 0.58113 0.62895 0.9508 0.0
C335 C 0.55782 0.62127 0.90133 0.0
C336 C 0.59567 0.71506 0.78446 0.0
C337 C 0.58996 0.66897 0.86072 0.0
C338 C 0.61254 0.73827 0.76272 0.0
C339 C 0.64062 0.74008 0.79212 0.0
C340 C 0.60692 0.69392 0.83684 0.0
C341 C 0.65102 0.71844 0.84415 0.0
C342 C 0.59738 0.65268 0.93034 0.0
C343 C 0.55119 0.63805 0.83203 0.0
N344 N 0.63412 0.69629 0.86511 0.0
N345 N 0.56714 0.66123 0.8139 0.0
H346 H 0.70597 0.43026 0.25321 0.0
H347 H 0.56367 0.43764 -0.01781 0.0
H348 H 0.68727 0.37069 0.0562 0.0
H349 H 0.59673 0.50941 0.12009 0.0
H350 H 0.60612 0.41 0.02096 0.0
H351 H 0.66281 0.45711 0.21713 0.0
C352 C 0.69281 0.42285 0.20245 0.0
C353 C 0.70026 0.39833 0.15737 0.0
C354 C 0.60401 0.43183 0.04245 0.0
C355 C 0.65097 0.42868 0.11637 0.0
C356 C 0.57981 0.44755 0.02057 0.0
C357 C 0.57677 0.47587 0.0476 0.0
C358 C 0.62501 0.44448 0.09243 0.0
C359 C 0.5983 0.4877 0.09728 0.0
C360 C 0.66827 0.43818 0.1818 0.0
C361 C 0.68245 0.38963 0.09219 0.0
N362 N 0.62148 0.47191 0.1183 0.0
N363 N 0.65855 0.40475 0.07379 0.0
H364 H 0.91443 0.55443 0.32378 0.0
H365 H 0.88284 0.38935 0.36689 0.0
H366 H 0.93982 0.5074 0.54115 0.0
H367 H 0.82471 0.44677 0.24241 0.0
H368 H 0.91042 0.43074 0.41464 0.0
H369 H 0.8867 0.51326 0.27752 0.0
C370 C 0.91394 0.53547 0.362 0.0
C371 C 0.92924 0.53421 0.43644 0.0
C372 C 0.89165 0.43412 0.37665 0.0
C373 C 0.89834 0.48708 0.38306 0.0
C374 C 0.87615 0.41062 0.34876 0.0
C375 C 0.85155 0.4148 0.30079 0.0
C376 C 0.88271 0.46173 0.35469 0.0
C377 C 0.84352 0.44273 0.27962 0.0
C378 C 0.89819 0.51208 0.33561 0.0
C379 C 0.92803 0.50921 0.48375 0.0
N380 N 0.85917 0.46519 0.3064 0.0
N381 N 0.91306 0.48638 0.45572 0.0
H382 H 0.79978 0.77425 0.53633 0.0
H383 H 0.89623 0.64053 0.65885 0.0
H384 H 0.78484 0.72387 0.75518 0.0
H385 H 0.92515 0.70779 0.4978 0.0
H386 H 0.85234 0.66741 0.68349 0.0
H387 H 0.84269 0.74619 0.50909 0.0
C388 C 0.80538 0.75713 0.57836 0.0
C389 C 0.78873 0.7514 0.64832 0.0
C390 C 0.86833 0.67628 0.64293 0.0
C391 C 0.83784 0.71934 0.61737 0.0
C392 C 0.89334 0.66095 0.62858 0.0
C393 C 0.91436 0.67197 0.57612 0.0
C394 C 0.86416 0.70264 0.60379 0.0
C395 C 0.90954 0.69857 0.53892 0.0
C396 C 0.82999 0.74127 0.56297 0.0
C397 C 0.79713 0.72906 0.70074 0.0
N398 N 0.88482 0.71297 0.55317 0.0
N399 N 0.82114 0.71377 0.6841 0.0
H400 H 0.29035 0.41771 0.2782 0.0
H401 H 0.42923 0.43098 -0.00281 0.0
H402 H 0.31326 0.35475 0.09384 0.0
H403 H 0.38788 0.50265 0.11682 0.0
H404 H 0.39099 0.39997 0.04698 0.0
H405 H 0.33104 0.44644 0.2357 0.0
C406 C 0.30403 0.40986 0.22917 0.0
C407 C 0.29832 0.38398 0.18895 0.0
C408 C 0.39039 0.42252 0.06199 0.0
C409 C 0.34474 0.41659 0.14032 0.0
C410 C 0.41214 0.44016 0.03372 0.0
C411 C 0.41159 0.46942 0.05244 0.0
C412 C 0.36834 0.43425 0.11012 0.0
C413 C 0.38902 0.48026 0.10018 0.0
C414 C 0.32714 0.42629 0.20474 0.0
C415 C 0.31674 0.37477 0.12585 0.0
N416 N 0.36835 0.46265 0.12761 0.0
N417 N 0.33918 0.39111 0.10335 0.0
H418 H 0.39074 0.61409 -0.00298 0.0
H419 H 0.3807 0.75589 0.72789 0.0
H420 H 0.44486 0.63025 0.78667 0.0
H421 H 0.31112 0.72562 0.87801 0.0
H422 H 0.40701 0.7119 0.75852 0.0
H423 H 0.36315 0.65703 0.96304 0.0
C424 C 0.39671 0.62655 0.94355 0.0
C425 C 0.4201 0.61861 0.89464 0.0
C426 C 0.38593 0.71492 0.78441 0.0
C427 C 0.38898 0.66769 0.85619 0.0
C428 C 0.37099 0.74003 0.76728 0.0
C429 C 0.3437 0.74436 0.80032 0.0
C430 C 0.3736 0.69426 0.83572 0.0
C431 C 0.33206 0.72308 0.85085 0.0
C432 C 0.38097 0.65099 0.92417 0.0
C433 C 0.42692 0.63551 0.82598 0.0
N434 N 0.34715 0.69898 0.86736 0.0
N435 N 0.41155 0.65939 0.80915 0.0
H436 H 0.18122 0.77039 0.78123 0.0
H437 H 0.11321 0.65506 0.48545 0.0
H438 H 0.21876 0.74951 0.54508 0.0
H439 H 0.06053 0.71053 0.63505 0.0
H440 H 0.1546 0.68446 0.51933 0.0
H441 H 0.13896 0.74271 0.74274 0.0
C442 C 0.18066 0.75975 0.7217 0.0
C443 C 0.20344 0.76212 0.66617 0.0
C444 C 0.13393 0.69028 0.54415 0.0
C445 C 0.15553 0.73065 0.62235 0.0
C446 C 0.11039 0.67356 0.52508 0.0
C447 C 0.08355 0.68051 0.55759 0.0
C448 C 0.13066 0.71364 0.59766 0.0
C449 C 0.08091 0.70466 0.60842 0.0
C450 C 0.15651 0.74426 0.6996 0.0
C451 C 0.20158 0.74822 0.58949 0.0
N452 N 0.10434 0.72025 0.62791 0.0
N453 N 0.17807 0.73285 0.56998 0.0
H454 H 0.18151 0.42785 0.39858 0.0
H455 H 0.03261 0.50772 0.35201 0.0
H456 H 0.10813 0.38764 0.28701 0.0
H457 H 0.09775 0.53358 0.52564 0.0
H458 H 0.06055 0.46491 0.32007 0.0
H459 H 0.15175 0.46835 0.4376 0.0
C460 C 0.1591 0.42756 0.38208 0.0
C461 C 0.14727 0.4044 0.33905 0.0
C462 C 0.06859 0.47989 0.36548 0.0
C463 C 0.1131 0.45077 0.38378 0.0
C464 C 0.05277 0.50438 0.38351 0.0
C465 C 0.063 0.52432 0.44123 0.0
C466 C 0.09495 0.47554 0.40472 0.0
C467 C 0.08909 0.5188 0.48067 0.0
C468 C 0.14211 0.45063 0.40489 0.0
C469 C 0.11807 0.40508 0.32013 0.0
N470 N 0.10429 0.495 0.46118 0.0
N471 N 0.10195 0.42807 0.34217 0.0
H472 H 0.94291 0.04474 0.79309 0.0
H473 H 0.03646 0.99489 0.17678 0.0
H474 H 0.0351 0.04517 0.79959 0.0
H475 H 0.94478 0.00034 0.17986 0.0
H476 H 0.03576 0.00249 0.02745 0.0
H477 H 0.94271 0.02222 0.92845 0.0
C478 C 0.96311 0.04061 0.82356 0.0
C479 C 0.98907 0.04686 0.78486 0.0
C480 C 0.01571 0.00113 0.06022 0.0
C481 C 0.98895 0.02036 0.93858 0.0
C482 C 0.01613 -0.00382 0.14492 0.0
C483 C 0.99064 -0.00295 0.18934 0.0
C484 C 0.98962 0.00742 0.02126 0.0
C485 C 0.9648 -0.00056 0.14667 0.0
C486 C 0.96297 0.02731 0.90026 0.0
C487 C 0.01457 0.04082 0.82711 0.0
N488 N 0.96493 0.00525 0.06475 0.0
N489 N 0.01385 0.02777 0.90165 0.0
H490 H 0.31783 0.88454 0.44616 0.0
H491 H 0.28041 0.79395 0.05445 0.0
H492 H 0.33324 0.79401 0.4277 0.0
H493 H 0.28872 0.88578 0.04343 0.0
H494 H 0.30188 0.79443 0.19082 0.0
H495 H 0.31319 0.88699 0.29581 0.0
C496 C 0.32168 0.86546 0.40964 0.0
C497 C 0.32591 0.83905 0.44803 0.0
C498 C 0.29914 0.81449 0.15855 0.0
C499 C 0.31912 0.84127 0.27832 0.0
C500 C 0.28639 0.81431 0.08111 0.0
C501 C 0.28258 0.83991 0.03753 0.0
C502 C 0.3078 0.84048 0.19347 0.0
C503 C 0.29104 0.86557 0.07513 0.0
C504 C 0.31863 0.86675 0.32418 0.0
C505 C 0.33012 0.81474 0.39941 0.0
N506 N 0.30319 0.86522 0.15136 0.0
N507 N 0.32592 0.81628 0.31668 0.0
H508 H 0.54933 0.15343 0.69228 0.0
H509 H 0.4533 0.11683 0.30233 0.0
H510 H 0.45774 0.16026 0.69036 0.0
H511 H 0.54516 0.1086 0.30844 0.0
H512 H 0.45475 0.13901 0.43854 0.0
H513 H 0.54882 0.14739 0.54231 0.0
C514 C 0.52923 0.15513 0.65933 0.0
C515 C 0.50354 0.15738 0.70252 0.0
C516 C 0.47458 0.13233 0.41005 0.0
C517 C 0.50251 0.14874 0.53317 0.0
C518 C 0.47375 0.11925 0.33278 0.0
C519 C 0.49915 0.11065 0.29403 0.0
C520 C 0.50097 0.13673 0.449 0.0
C521 C 0.52502 0.11468 0.33613 0.0
C522 C 0.52885 0.15111 0.57413 0.0
C523 C 0.47794 0.15878 0.65829 0.0
N524 N 0.52525 0.12746 0.41138 0.0
N525 N 0.47797 0.15373 0.57576 0.0
H526 H 0.17988 0.37478 0.96988 0.0
H527 H 0.21534 0.27818 0.58236 0.0
H528 H 0.16424 0.28434 0.95975 0.0
H529 H 0.22044 0.37033 0.5801 0.0
H530 H 0.19323 0.28061 0.71793 0.0
H531 H 0.18709 0.375 0.8205 0.0
C532 C 0.1765 0.35526 0.93512 0.0
C533 C 0.17148 0.32952 0.97594 0.0
C534 C 0.19918 0.30031 0.68777 0.0
C535 C 0.18138 0.32911 0.80743 0.0
C536 C 0.21228 0.29892 0.61092 0.0
C537 C 0.21984 0.3241 0.5698 0.0
C538 C 0.19382 0.32703 0.72416 0.0
C539 C 0.21508 0.35036 0.60964 0.0
C540 C 0.18115 0.35523 0.85027 0.0
C541 C 0.16791 0.3046 0.92952 0.0
N542 N 0.20233 0.35113 0.68469 0.0
N543 N 0.17366 0.30483 0.8475 0.0
H544 H 0.8317 0.29145 0.93156 0.0
H545 H 0.78326 0.38518 0.54593 0.0
H546 H 0.82023 0.38268 0.94222 0.0
H547 H 0.77994 0.29301 0.55686 0.0
H548 H 0.80529 0.3857 0.68273 0.0
H549 H 0.82547 0.29307 0.78157 0.0
C550 C 0.82935 0.31198 0.90142 0.0
C551 C 0.82649 0.33698 0.94802 0.0
C552 C 0.79967 0.3654 0.65503 0.0
C553 C 0.81772 0.33893 0.77892 0.0
C554 C 0.78672 0.36509 0.57752 0.0
C555 C 0.7796 0.33901 0.53996 0.0
C556 C 0.80557 0.33948 0.69501 0.0
C557 C 0.78487 0.31364 0.58351 0.0
C558 C 0.8252 0.31288 0.81629 0.0
C559 C 0.82273 0.36304 0.90736 0.0
N560 N 0.79764 0.31453 0.65864 0.0
N561 N 0.81779 0.36332 0.82482 0.0
H562 H 0.66436 0.77697 0.41963 0.0
H563 H 0.71514 0.86928 0.03741 0.0
H564 H 0.66852 0.86879 0.42156 0.0
H565 H 0.71321 0.77698 0.04027 0.0
H566 H 0.69266 0.86996 0.17272 0.0
H567 H 0.67224 0.77714 0.27047 0.0
C568 C 0.66543 0.79722 0.38751 0.0
C569 C 0.66584 0.8229 0.43163 0.0
C570 C 0.69722 0.84956 0.14377 0.0
C571 C 0.67656 0.82334 0.26369 0.0
C572 C 0.71051 0.84913 0.0671 0.0
C573 C 0.71607 0.82302 0.02734 0.0
C574 C 0.6896 0.82372 0.18111 0.0
C575 C 0.70939 0.79762 0.06862 0.0
C576 C 0.67054 0.79734 0.30289 0.0
C577 C 0.66795 0.84863 0.38863 0.0
N578 N 0.69637 0.79862 0.14321 0.0
N579 N 0.67396 0.84821 0.30682 0.0
H580 H 0.53658 0.49565 0.67294 0.0
H581 H 0.44195 0.54377 0.28934 0.0
H582 H 0.44481 0.49859 0.67578 0.0
H583 H 0.5341 0.54622 0.29579 0.0
H584 H 0.44226 0.52127 0.42478 0.0
H585 H 0.53574 0.50367 0.52381 0.0
C586 C 0.51624 0.49647 0.64103 0.0
C587 C 0.49072 0.49648 0.68543 0.0
C588 C 0.46239 0.52681 0.39657 0.0
C589 C 0.48949 0.50736 0.5175 0.0
C590 C 0.46224 0.5401 0.31982 0.0
C591 C 0.48805 0.54691 0.28105 0.0
C592 C 0.48852 0.52041 0.43489 0.0
C593 C 0.51366 0.54142 0.32333 0.0
C594 C 0.51572 0.50167 0.55645 0.0
C595 C 0.46486 0.49831 0.64266 0.0
N596 N 0.51324 0.52835 0.3979 0.0
N597 N 0.46486 0.50438 0.56086 0.0
H598 H 0.05769 0.61062 0.81797 0.0
H599 H 0.96737 0.66501 0.2042 0.0
H600 H 0.96562 0.61286 0.83078 0.0
H601 H 0.05539 0.6388 0.22093 0.0
H602 H 0.97 0.66087 0.05347 0.0
H603 H 0.0598 0.6321 0.95574 0.0
C604 C 0.03795 0.61527 0.85009 0.0
C605 C 0.01144 0.60965 0.8132 0.0
C606 C 0.989 0.65691 0.08998 0.0
C607 C 0.01378 0.63503 0.96882 0.0
C608 C 0.98761 0.65978 0.17552 0.0
C609 C 0.0112 0.65214 0.22363 0.0
C610 C 0.01407 0.64609 0.05382 0.0
C611 C 0.03684 0.64487 0.1848 0.0
C612 C 0.0392 0.62786 0.92805 0.0
C613 C 0.98654 0.61645 0.85715 0.0
N614 N 0.03751 0.64144 0.10171 0.0
N615 N 0.98834 0.62886 0.93263 0.0
loop_
_geom_bond_atom_site_label_1
_geom_bond_atom_site_label_2
_geom_bond_distance
_geom_bond_site_symmetry_2
_ccdc_geom_bond_type
O0 Zn1 1.953 1_465 S
O0 C16 1.225 1_565 S
Zn1 O0 1.953 1_645 S
Zn1 O2 1.949 1_655 S
Zn1 O8 1.919 . S
Zn1 O13 1.924 1_655 S
O2 Zn1 1.949 1_455 S
O2 Zn3 1.923 1_455 S
O2 Zn4 1.950 . S
O2 Zn5 1.945 1_455 S
Zn3 O2 1.923 1_655 S
Zn3 O6 1.933 . S
Zn3 O9 1.941 . S
Zn3 O10 1.965 . S
Zn4 O2 1.950 . S
Zn4 O11 1.938 . S
Zn4 O12 1.906 . S
Zn4 O22 1.953 . S
Zn5 O2 1.945 1_655 S
Zn5 O7 1.932 . S
Zn5 O14 1.977 1_655 S
Zn5 O15 1.910 1_655 S
O6 Zn3 1.933 . S
O6 C17 1.226 . S
O7 Zn5 1.932 . S
O7 C17 1.307 . S
O8 Zn1 1.919 . S
O8 C19 1.253 . S
O9 Zn3 1.941 . S
O9 C19 1.283 . S
O10 Zn3 1.965 . S
O10 C18 1.303 1_655 S
O11 Zn4 1.938 . S
O11 C18 1.247 . S
O12 Zn4 1.906 . S
O12 C20 1.304 . S
O13 Zn1 1.924 1_455 S
O13 C21 1.311 . S
O14 Zn5 1.977 1_455 S
O14 C20 1.272 . S
O15 Zn5 1.910 1_455 S
O15 C21 1.231 . S
C16 O0 1.225 1_545 S
C16 O22 1.298 . S
C17 O6 1.226 . S
C17 O7 1.307 . S
C18 O10 1.303 1_455 S
C18 O11 1.247 . S
C19 O8 1.253 . S
C19 O9 1.283 . S
C20 O12 1.304 . S
C20 O14 1.272 . S
C21 O13 1.311 . S
C21 O15 1.231 . S
O22 Zn4 1.953 . S
O22 C16 1.298 . S
O23 Zn24 1.953 . S
O23 C39 1.225 . S
Zn24 O23 1.953 . S
Zn24 O25 1.949 . S
Zn24 O31 1.919 . S
Zn24 O36 1.924 . S
O25 Zn24 1.949 . S
O25 Zn26 1.923 . S
O25 Zn27 1.950 . S
O25 Zn28 1.945 . S
Zn26 O25 1.923 . S
Zn26 O29 1.933 . S
Zn26 O32 1.941 . S
Zn26 O33 1.965 . S
Zn27 O25 1.950 . S
Zn27 O34 1.938 . S
Zn27 O35 1.906 . S
Zn27 O45 1.953 . S
Zn28 O25 1.945 . S
Zn28 O30 1.932 . S
Zn28 O37 1.977 . S
Zn28 O38 1.910 . S
O29 Zn26 1.933 . S
O29 C40 1.226 . S
O30 Zn28 1.932 . S
O30 C40 1.307 . S
O31 Zn24 1.919 . S
O31 C42 1.253 . S
O32 Zn26 1.941 . S
O32 C42 1.283 . S
O33 Zn26 1.965 . S
O33 C41 1.303 . S
O34 Zn27 1.938 . S
O34 C41 1.247 . S
O35 Zn27 1.906 . S
O35 C43 1.304 . S
O36 Zn24 1.924 . S
O36 C44 1.311 . S
O37 Zn28 1.977 . S
O37 C43 1.272 . S
O38 Zn28 1.910 . S
O38 C44 1.231 . S
C39 O23 1.225 . S
C39 O45 1.298 . S
C40 O29 1.226 . S
C40 O30 1.307 . S
C41 O33 1.303 . S
C41 O34 1.247 . S
C42 O31 1.253 . S
C42 O32 1.283 . S
C43 O35 1.304 . S
C43 O37 1.272 . S
C44 O36 1.311 . S
C44 O38 1.231 . S
O45 Zn27 1.953 . S
O45 C39 1.298 . S
O46 Zn47 1.953 1_554 S
O46 C62 1.225 . S
Zn47 O46 1.953 1_556 S
Zn47 O48 1.949 1_556 S
Zn47 O54 1.919 1_556 S
Zn47 O59 1.924 . S
O48 Zn47 1.949 1_554 S
O48 Zn49 1.923 . S
O48 Zn50 1.950 . S
O48 Zn51 1.945 1_554 S
Zn49 O48 1.923 . S
Zn49 O52 1.933 . S
Zn49 O55 1.941 . S
Zn49 O56 1.965 . S
Zn50 O48 1.950 . S
Zn50 O57 1.938 . S
Zn50 O58 1.906 . S
Zn50 O68 1.953 . S
Zn51 O48 1.945 1_556 S
Zn51 O53 1.932 . S
Zn51 O60 1.977 . S
Zn51 O61 1.910 . S
O52 Zn49 1.933 . S
O52 C63 1.226 1_554 S
O53 Zn51 1.932 . S
O53 C63 1.307 . S
O54 Zn47 1.919 1_554 S
O54 C65 1.253 . S
O55 Zn49 1.941 . S
O55 C65 1.283 . S
O56 Zn49 1.965 . S
O56 C64 1.303 . S
O57 Zn50 1.938 . S
O57 C64 1.247 . S
O58 Zn50 1.906 . S
O58 C66 1.304 1_554 S
O59 Zn47 1.924 . S
O59 C67 1.311 . S
O60 Zn51 1.977 . S
O60 C66 1.272 . S
O61 Zn51 1.910 . S
O61 C67 1.231 . S
C62 O46 1.225 . S
C62 O68 1.298 . S
C63 O52 1.226 1_556 S
C63 O53 1.307 . S
C64 O56 1.303 . S
C64 O57 1.247 . S
C65 O54 1.253 . S
C65 O55 1.283 . S
C66 O58 1.304 1_556 S
C66 O60 1.272 . S
C67 O59 1.311 . S
C67 O61 1.231 . S
O68 Zn50 1.953 . S
O68 C62 1.298 . S
O69 Zn70 1.953 . S
O69 C85 1.225 . S
Zn70 O69 1.953 . S
Zn70 O71 1.949 . S
Zn70 O77 1.919 . S
Zn70 O82 1.924 . S
O71 Zn70 1.949 . S
O71 Zn72 1.923 . S
O71 Zn73 1.950 . S
O71 Zn74 1.945 . S
Zn72 O71 1.923 . S
Zn72 O75 1.933 . S
Zn72 O78 1.941 . S
Zn72 O79 1.965 . S
Zn73 O71 1.950 . S
Zn73 O80 1.938 . S
Zn73 O81 1.906 . S
Zn73 O91 1.953 . S
Zn74 O71 1.945 . S
Zn74 O76 1.932 . S
Zn74 O83 1.977 . S
Zn74 O84 1.910 . S
O75 Zn72 1.933 . S
O75 C86 1.226 . S
O76 Zn74 1.932 . S
O76 C86 1.307 . S
O77 Zn70 1.919 . S
O77 C88 1.253 . S
O78 Zn72 1.941 . S
O78 C88 1.283 . S
O79 Zn72 1.965 . S
O79 C87 1.303 . S
O80 Zn73 1.938 . S
O80 C87 1.247 . S
O81 Zn73 1.906 . S
O81 C89 1.304 . S
O82 Zn70 1.924 . S
O82 C90 1.311 . S
O83 Zn74 1.977 . S
O83 C89 1.272 . S
O84 Zn74 1.910 . S
O84 C90 1.231 . S
C85 O69 1.225 . S
C85 O91 1.298 . S
C86 O75 1.226 . S
C86 O76 1.307 . S
C87 O79 1.303 . S
C87 O80 1.247 . S
C88 O77 1.253 . S
C88 O78 1.283 . S
C89 O81 1.304 . S
C89 O83 1.272 . S
C90 O82 1.311 . S
C90 O84 1.231 . S
O91 Zn73 1.953 . S
O91 C85 1.298 . S
O92 Zn93 1.953 . S
O92 C108 1.225 . S
Zn93 O92 1.953 . S
Zn93 O94 1.949 . S
Zn93 O100 1.919 . S
Zn93 O105 1.924 . S
O94 Zn93 1.949 . S
O94 Zn95 1.923 . S
O94 Zn96 1.950 . S
O94 Zn97 1.945 . S
Zn95 O94 1.923 . S
Zn95 O98 1.933 . S
Zn95 O101 1.941 . S
Zn95 O102 1.965 . S
Zn96 O94 1.950 . S
Zn96 O103 1.938 . S
Zn96 O104 1.906 . S
Zn96 O114 1.953 . S
Zn97 O94 1.945 . S
Zn97 O99 1.932 . S
Zn97 O106 1.977 . S
Zn97 O107 1.910 . S
O98 Zn95 1.933 . S
O98 C109 1.226 . S
O99 Zn97 1.932 . S
O99 C109 1.307 . S
O100 Zn93 1.919 . S
O100 C111 1.253 . S
O101 Zn95 1.941 . S
O101 C111 1.283 . S
O102 Zn95 1.965 . S
O102 C110 1.303 . S
O103 Zn96 1.938 . S
O103 C110 1.247 . S
O104 Zn96 1.906 . S
O104 C112 1.304 . S
O105 Zn93 1.924 . S
O105 C113 1.311 . S
O106 Zn97 1.977 . S
O106 C112 1.272 . S
O107 Zn97 1.910 . S
O107 C113 1.231 . S
C108 O92 1.225 . S
C108 O114 1.298 . S
C109 O98 1.226 . S
C109 O99 1.307 . S
C110 O102 1.303 . S
C110 O103 1.247 . S
C111 O100 1.253 . S
C111 O101 1.283 . S
C112 O104 1.304 . S
C112 O106 1.272 . S
C113 O105 1.311 . S
C113 O107 1.231 . S
O114 Zn96 1.953 . S
O114 C108 1.298 . S
O115 Zn116 1.953 . S
O115 C131 1.225 . S
Zn116 O115 1.953 . S
Zn116 O117 1.949 . S
Zn116 O123 1.919 . S
Zn116 O128 1.924 . S
O117 Zn116 1.949 . S
O117 Zn118 1.923 . S
O117 Zn119 1.950 . S
O117 Zn120 1.945 . S
Zn118 O117 1.923 . S
Zn118 O121 1.933 . S
Zn118 O124 1.941 . S
Zn118 O125 1.965 . S
Zn119 O117 1.950 . S
Zn119 O126 1.938 . S
Zn119 O127 1.906 . S
Zn119 O137 1.953 . S
Zn120 O117 1.945 . S
Zn120 O122 1.932 . S
Zn120 O129 1.977 . S
Zn120 O130 1.910 . S
O121 Zn118 1.933 . S
O121 C132 1.226 . S
O122 Zn120 1.932 . S
O122 C132 1.307 . S
O123 Zn116 1.919 . S
O123 C134 1.253 . S
O124 Zn118 1.941 . S
O124 C134 1.283 . S
O125 Zn118 1.965 . S
O125 C133 1.303 . S
O126 Zn119 1.938 . S
O126 C133 1.247 . S
O127 Zn119 1.906 . S
O127 C135 1.304 . S
O128 Zn116 1.924 . S
O128 C136 1.311 . S
O129 Zn120 1.977 . S
O129 C135 1.272 . S
O130 Zn120 1.910 . S
O130 C136 1.231 . S
C131 O115 1.225 . S
C131 O137 1.298 . S
C132 O121 1.226 . S
C132 O122 1.307 . S
C133 O125 1.303 . S
C133 O126 1.247 . S
C134 O123 1.253 . S
C134 O124 1.283 . S
C135 O127 1.304 . S
C135 O129 1.272 . S
C136 O128 1.311 . S
C136 O130 1.231 . S
O137 Zn119 1.953 . S
O137 C131 1.298 . S
O138 Zn139 1.953 1_554 S
O138 C154 1.225 . S
Zn139 O138 1.953 1_556 S
Zn139 O140 1.949 1_556 S
Zn139 O146 1.919 1_556 S
Zn139 O151 1.924 . S
O140 Zn139 1.949 1_554 S
O140 Zn141 1.923 . S
O140 Zn142 1.950 . S
O140 Zn143 1.945 1_554 S
Zn141 O140 1.923 . S
Zn141 O144 1.933 . S
Zn141 O147 1.941 . S
Zn141 O148 1.965 . S
Zn142 O140 1.950 . S
Zn142 O149 1.938 . S
Zn142 O150 1.906 . S
Zn142 O160 1.953 . S
Zn143 O140 1.945 1_556 S
Zn143 O145 1.932 . S
Zn143 O152 1.977 . S
Zn143 O153 1.910 . S
O144 Zn141 1.933 . S
O144 C155 1.226 1_554 S
O145 Zn143 1.932 . S
O145 C155 1.307 . S
O146 Zn139 1.919 1_554 S
O146 C157 1.253 . S
O147 Zn141 1.941 . S
O147 C157 1.283 . S
O148 Zn141 1.965 . S
O148 C156 1.303 . S
O149 Zn142 1.938 . S
O149 C156 1.247 . S
O150 Zn142 1.906 . S
O150 C158 1.304 1_554 S
O151 Zn139 1.924 . S
O151 C159 1.311 . S
O152 Zn143 1.977 . S
O152 C158 1.272 . S
O153 Zn143 1.910 . S
O153 C159 1.231 . S
C154 O138 1.225 . S
C154 O160 1.298 . S
C155 O144 1.226 1_556 S
C155 O145 1.307 . S
C156 O148 1.303 . S
C156 O149 1.247 . S
C157 O146 1.253 . S
C157 O147 1.283 . S
C158 O150 1.304 1_556 S
C158 O152 1.272 . S
C159 O151 1.311 . S
C159 O153 1.231 . S
O160 Zn142 1.953 . S
O160 C154 1.298 . S
O161 Zn162 1.953 1_655 S
O161 C177 1.225 . S
Zn162 O161 1.953 1_455 S
Zn162 O163 1.949 . S
Zn162 O169 1.919 . S
Zn162 O174 1.924 . S
O163 Zn162 1.949 . S
O163 Zn164 1.923 . S
O163 Zn165 1.950 1_455 S
O163 Zn166 1.945 . S
Zn164 O163 1.923 . S
Zn164 O167 1.933 . S
Zn164 O170 1.941 . S
Zn164 O171 1.965 . S
Zn165 O163 1.950 1_655 S
Zn165 O172 1.938 . S
Zn165 O173 1.906 . S
Zn165 O183 1.953 . S
Zn166 O163 1.945 . S
Zn166 O168 1.932 . S
Zn166 O175 1.977 1_455 S
Zn166 O176 1.910 . S
O167 Zn164 1.933 . S
O167 C178 1.226 . S
O168 Zn166 1.932 . S
O168 C178 1.307 . S
O169 Zn162 1.919 . S
O169 C180 1.253 . S
O170 Zn164 1.941 . S
O170 C180 1.283 . S
O171 Zn164 1.965 . S
O171 C179 1.303 1_455 S
O172 Zn165 1.938 . S
O172 C179 1.247 . S
O173 Zn165 1.906 . S
O173 C181 1.304 . S
O174 Zn162 1.924 . S
O174 C182 1.311 1_455 S
O175 Zn166 1.977 1_655 S
O175 C181 1.272 . S
O176 Zn166 1.910 . S
O176 C182 1.231 1_455 S
C177 O161 1.225 . S
C177 O183 1.298 . S
C178 O167 1.226 . S
C178 O168 1.307 . S
C179 O171 1.303 1_655 S
C179 O172 1.247 . S
C180 O169 1.253 . S
C180 O170 1.283 . S
C181 O173 1.304 . S
C181 O175 1.272 . S
C182 O174 1.311 1_655 S
C182 O176 1.231 1_655 S
O183 Zn165 1.953 . S
O183 C177 1.298 . S
H184 C190 0.930 . S
H185 C194 0.930 . S
H186 C199 0.929 . S
H187 C197 0.929 . S
H188 C192 0.929 . S
H189 C198 0.929 . S
C190 H184 0.930 . S
C190 C191 1.367 . S
C190 C198 1.378 . S
C191 C190 1.367 . S
C191 C199 1.433 . S
C192 H188 0.929 . S
C192 C194 1.378 . S
C192 C196 1.350 . S
C193 C196 1.463 . S
C193 C198 1.350 . S
C193 N201 1.427 . S
C194 H185 0.930 . S
C194 C192 1.378 . S
C194 C195 1.367 . S
C195 C194 1.367 . S
C195 C197 1.433 . S
C196 C192 1.350 . S
C196 C193 1.463 . S
C196 N200 1.427 . S
C197 H187 0.929 . S
C197 C195 1.433 . S
C197 N200 1.384 . S
C198 H189 0.929 . S
C198 C190 1.378 . S
C198 C193 1.350 . S
C199 H186 0.929 . S
C199 C191 1.433 . S
C199 N201 1.384 . S
N200 C196 1.427 . S
N200 C197 1.384 . S
N201 C193 1.427 . S
N201 C199 1.384 . S
H202 C208 0.930 . S
H203 C212 0.930 . S
H204 C217 0.929 1_545 S
H205 C215 0.929 . S
H206 C210 0.929 . S
H207 C216 0.929 . S
C208 H202 0.930 . S
C208 C209 1.367 . S
C208 C216 1.378 . S
C209 C208 1.367 . S
C209 C217 1.433 . S
C210 H206 0.929 . S
C210 C212 1.378 . S
C210 C214 1.350 . S
C211 C214 1.463 . S
C211 C216 1.350 . S
C211 N219 1.427 . S
C212 H203 0.930 . S
C212 C210 1.378 . S
C212 C213 1.367 . S
C213 C212 1.367 . S
C213 C215 1.433 . S
C214 C210 1.350 . S
C214 C211 1.463 . S
C214 N218 1.427 . S
C215 H205 0.929 . S
C215 C213 1.433 . S
C215 N218 1.384 . S
C216 H207 0.929 . S
C216 C208 1.378 . S
C216 C211 1.350 . S
C217 H204 0.929 1_565 S
C217 C209 1.433 . S
C217 N219 1.384 . S
N218 C214 1.427 . S
N218 C215 1.384 . S
N219 C211 1.427 . S
N219 C217 1.384 . S
H220 C226 0.930 . S
H221 C230 0.930 . S
H222 C235 0.929 . S
H223 C233 0.929 . S
H224 C228 0.929 1_554 S
H225 C234 0.929 . S
C226 H220 0.930 . S
C226 C227 1.367 . S
C226 C234 1.378 . S
C227 C226 1.367 . S
C227 C235 1.433 . S
C228 H224 0.929 1_556 S
C228 C230 1.378 1_556 S
C228 C232 1.350 . S
C229 C232 1.463 . S
C229 C234 1.350 . S
C229 N237 1.427 . S
C230 H221 0.930 . S
C230 C228 1.378 1_554 S
C230 C231 1.367 1_564 S
C231 C230 1.367 1_546 S
C231 C233 1.433 . S
C232 C228 1.350 . S
C232 C229 1.463 . S
C232 N236 1.427 . S
C233 H223 0.929 . S
C233 C231 1.433 . S
C233 N236 1.384 1_545 S
C234 H225 0.929 . S
C234 C226 1.378 . S
C234 C229 1.350 . S
C235 H222 0.929 . S
C235 C227 1.433 . S
C235 N237 1.384 . S
N236 C232 1.427 . S
N236 C233 1.384 1_565 S
N237 C229 1.427 . S
N237 C235 1.384 . S
H238 C244 0.930 . S
H239 C248 0.930 . S
H240 C253 0.929 1_556 S
H241 C251 0.929 . S
H242 C246 0.929 . S
H243 C252 0.929 . S
C244 H238 0.930 . S
C244 C245 1.367 . S
C244 C252 1.378 . S
C245 C244 1.367 . S
C245 C253 1.433 . S
C246 H242 0.929 . S
C246 C248 1.378 . S
C246 C250 1.350 . S
C247 C250 1.463 . S
C247 C252 1.350 . S
C247 N255 1.427 . S
C248 H239 0.930 . S
C248 C246 1.378 . S
C248 C249 1.367 . S
C249 C248 1.367 . S
C249 C251 1.433 . S
C250 C246 1.350 . S
C250 C247 1.463 . S
C250 N254 1.427 . S
C251 H241 0.929 . S
C251 C249 1.433 . S
C251 N254 1.384 . S
C252 H243 0.929 . S
C252 C244 1.378 . S
C252 C247 1.350 . S
C253 H240 0.929 1_554 S
C253 C245 1.433 . S
C253 N255 1.384 . S
N254 C250 1.427 . S
N254 C251 1.384 . S
N255 C247 1.427 . S
N255 C253 1.384 . S
H256 C262 0.930 . S
H257 C266 0.930 . S
H258 C271 0.929 . S
H259 C269 0.929 . S
H260 C264 0.929 . S
H261 C270 0.929 . S
C262 H256 0.930 . S
C262 C263 1.367 . S
C262 C270 1.378 . S
C263 C262 1.367 . S
C263 C271 1.433 1_565 S
C264 H260 0.929 . S
C264 C266 1.378 . S
C264 C268 1.350 . S
C265 C268 1.463 . S
C265 C270 1.350 . S
C265 N273 1.427 . S
C266 H257 0.930 . S
C266 C264 1.378 . S
C266 C267 1.367 . S
C267 C266 1.367 . S
C267 C269 1.433 . S
C268 C264 1.350 . S
C268 C265 1.463 . S
C268 N272 1.427 . S
C269 H259 0.929 . S
C269 C267 1.433 . S
C269 N272 1.384 . S
C270 H261 0.929 . S
C270 C262 1.378 . S
C270 C265 1.350 . S
C271 H258 0.929 . S
C271 C263 1.433 1_545 S
C271 N273 1.384 1_545 S
N272 C268 1.427 . S
N272 C269 1.384 . S
N273 C265 1.427 . S
N273 C271 1.384 1_565 S
H274 C280 0.930 . S
H275 C284 0.930 . S
H276 C289 0.929 . S
H277 C287 0.929 . S
H278 C282 0.929 . S
H279 C288 0.929 . S
C280 H274 0.930 . S
C280 C281 1.367 . S
C280 C288 1.378 . S
C281 C280 1.367 . S
C281 C289 1.433 . S
C282 H278 0.929 . S
C282 C284 1.378 . S
C282 C286 1.350 . S
C283 C286 1.463 . S
C283 C288 1.350 . S
C283 N291 1.427 . S
C284 H275 0.930 . S
C284 C282 1.378 . S
C284 C285 1.367 . S
C285 C284 1.367 . S
C285 C287 1.433 . S
C286 C282 1.350 . S
C286 C283 1.463 . S
C286 N290 1.427 . S
C287 H277 0.929 . S
C287 C285 1.433 . S
C287 N290 1.384 . S
C288 H279 0.929 . S
C288 C280 1.378 . S
C288 C283 1.350 . S
C289 H276 0.929 . S
C289 C281 1.433 . S
C289 N291 1.384 . S
N290 C286 1.427 . S
N290 C287 1.384 . S
N291 C283 1.427 . S
N291 C289 1.384 . S
H292 C298 0.930 . S
H293 C302 0.930 . S
H294 C307 0.929 . S
H295 C305 0.929 1_556 S
H296 C300 0.929 . S
H297 C306 0.929 . S
C298 H292 0.930 . S
C298 C299 1.367 . S
C298 C306 1.378 . S
C299 C298 1.367 . S
C299 C307 1.433 . S
C300 H296 0.929 . S
C300 C302 1.378 . S
C300 C304 1.350 . S
C301 C304 1.463 . S
C301 C306 1.350 . S
C301 N309 1.427 . S
C302 H293 0.930 . S
C302 C300 1.378 . S
C302 C303 1.367 . S
C303 C302 1.367 . S
C303 C305 1.433 . S
C304 C300 1.350 . S
C304 C301 1.463 . S
C304 N308 1.427 . S
C305 H295 0.929 1_554 S
C305 C303 1.433 . S
C305 N308 1.384 . S
C306 H297 0.929 . S
C306 C298 1.378 . S
C306 C301 1.350 . S
C307 H294 0.929 . S
C307 C299 1.433 . S
C307 N309 1.384 . S
N308 C304 1.427 . S
N308 C305 1.384 . S
N309 C301 1.427 . S
N309 C307 1.384 . S
H310 C316 0.930 . S
H311 C320 0.932 . S
H312 C325 0.929 . S
H313 C323 0.929 . S
H314 C318 0.941 . S
H315 C324 0.929 . S
C316 H310 0.930 . S
C316 C317 1.367 . S
C316 C324 1.378 . S
C317 C316 1.367 . S
C317 C325 1.433 . S
C318 H314 0.941 . S
C318 C320 1.347 1_566 S
C318 C322 1.373 . S
C319 C322 1.463 . S
C319 C324 1.350 . S
C319 N327 1.427 . S
C320 H311 0.932 . S
C320 C318 1.347 1_544 S
C320 C321 1.366 1_554 S
C321 C320 1.366 1_556 S
C321 C323 1.433 . S
C322 C318 1.373 . S
C322 C319 1.463 . S
C322 N326 1.427 . S
C323 H313 0.929 . S
C323 C321 1.433 . S
C323 N326 1.384 1_545 S
C324 H315 0.929 . S
C324 C316 1.378 . S
C324 C319 1.350 . S
C325 H312 0.929 . S
C325 C317 1.433 . S
C325 N327 1.384 . S
N326 C322 1.427 . S
N326 C323 1.384 1_565 S
N327 C319 1.427 . S
N327 C325 1.384 . S
H328 C334 0.930 . S
H329 C338 0.930 . S
H330 C343 0.929 1_554 S
H331 C341 0.929 . S
H332 C336 0.929 . S
H333 C342 0.929 . S
C334 H328 0.930 . S
C334 C335 1.367 . S
C334 C342 1.378 . S
C335 C334 1.367 . S
C335 C343 1.433 . S
C336 H332 0.929 . S
C336 C338 1.378 . S
C336 C340 1.350 . S
C337 C340 1.463 . S
C337 C342 1.350 . S
C337 N345 1.427 . S
C338 H329 0.930 . S
C338 C336 1.378 . S
C338 C339 1.367 . S
C339 C338 1.367 . S
C339 C341 1.433 . S
C340 C336 1.350 . S
C340 C337 1.463 . S
C340 N344 1.427 . S
C341 H331 0.929 . S
C341 C339 1.433 . S
C341 N344 1.384 . S
C342 H333 0.929 . S
C342 C334 1.378 . S
C342 C337 1.350 . S
C343 H330 0.929 1_556 S
C343 C335 1.433 . S
C343 N345 1.384 . S
N344 C340 1.427 . S
N344 C341 1.384 . S
N345 C337 1.427 . S
N345 C343 1.384 . S
H346 C352 0.930 . S
H347 C356 0.930 1_556 S
H348 C361 0.929 . S
H349 C359 0.929 . S
H350 C354 0.929 . S
H351 C360 0.929 . S
C352 H346 0.930 . S
C352 C353 1.367 . S
C352 C360 1.378 . S
C353 C352 1.367 . S
C353 C361 1.433 . S
C354 H350 0.929 . S
C354 C356 1.378 . S
C354 C358 1.350 . S
C355 C358 1.463 . S
C355 C360 1.350 . S
C355 N363 1.427 . S
C356 H347 0.930 1_554 S
C356 C354 1.378 . S
C356 C357 1.367 . S
C357 C356 1.367 . S
C357 C359 1.433 . S
C358 C354 1.350 . S
C358 C355 1.463 . S
C358 N362 1.427 . S
C359 H349 0.929 . S
C359 C357 1.433 . S
C359 N362 1.384 . S
C360 H351 0.929 . S
C360 C352 1.378 . S
C360 C355 1.350 . S
C361 H348 0.929 . S
C361 C353 1.433 . S
C361 N363 1.384 . S
N362 C358 1.427 . S
N362 C359 1.384 . S
N363 C355 1.427 . S
N363 C361 1.384 . S
H364 C370 0.930 . S
H365 C374 0.930 . S
H366 C379 0.929 . S
H367 C377 0.929 . S
H368 C372 0.929 . S
H369 C378 0.929 . S
C370 H364 0.930 . S
C370 C371 1.367 . S
C370 C378 1.378 . S
C371 C370 1.367 . S
C371 C379 1.433 . S
C372 H368 0.929 . S
C372 C374 1.378 . S
C372 C376 1.350 . S
C373 C376 1.463 . S
C373 C378 1.350 . S
C373 N381 1.427 . S
C374 H365 0.930 . S
C374 C372 1.378 . S
C374 C375 1.367 . S
C375 C374 1.367 . S
C375 C377 1.433 . S
C376 C372 1.350 . S
C376 C373 1.463 . S
C376 N380 1.427 . S
C377 H367 0.929 . S
C377 C375 1.433 . S
C377 N380 1.384 . S
C378 H369 0.929 . S
C378 C370 1.378 . S
C378 C373 1.350 . S
C379 H366 0.929 . S
C379 C371 1.433 . S
C379 N381 1.384 . S
N380 C376 1.427 . S
N380 C377 1.384 . S
N381 C373 1.427 . S
N381 C379 1.384 . S
H382 C388 0.930 . S
H383 C392 0.930 . S
H384 C397 0.929 . S
H385 C395 0.929 . S
H386 C390 0.929 . S
H387 C396 0.929 . S
C388 H382 0.930 . S
C388 C389 1.367 . S
C388 C396 1.378 . S
C389 C388 1.367 . S
C389 C397 1.433 . S
C390 H386 0.929 . S
C390 C392 1.378 . S
C390 C394 1.350 . S
C391 C394 1.463 . S
C391 C396 1.350 . S
C391 N399 1.427 . S
C392 H383 0.930 . S
C392 C390 1.378 . S
C392 C393 1.367 . S
C393 C392 1.367 . S
C393 C395 1.433 . S
C394 C390 1.350 . S
C394 C391 1.463 . S
C394 N398 1.427 . S
C395 H385 0.929 . S
C395 C393 1.433 . S
C395 N398 1.384 . S
C396 H387 0.929 . S
C396 C388 1.378 . S
C396 C391 1.350 . S
C397 H384 0.929 . S
C397 C389 1.433 . S
C397 N399 1.384 . S
N398 C394 1.427 . S
N398 C395 1.384 . S
N399 C391 1.427 . S
N399 C397 1.384 . S
H400 C406 0.930 . S
H401 C410 0.917 1_556 S
H402 C415 0.929 . S
H403 C413 0.929 . S
H404 C408 0.929 1_556 S
H405 C414 0.929 . S
C406 H400 0.930 . S
C406 C407 1.367 . S
C406 C414 1.378 . S
C407 C406 1.367 . S
C407 C415 1.433 . S
C408 H404 0.929 1_554 S
C408 C410 1.382 . S
C408 C412 1.350 . S
C409 C412 1.463 . S
C409 C414 1.350 . S
C409 N417 1.427 . S
C410 H401 0.917 1_554 S
C410 C408 1.382 . S
C410 C411 1.376 . S
C411 C410 1.376 . S
C411 C413 1.433 . S
C412 C408 1.350 . S
C412 C409 1.463 . S
C412 N416 1.427 . S
C413 H403 0.929 . S
C413 C411 1.433 . S
C413 N416 1.384 . S
C414 H405 0.929 . S
C414 C406 1.378 . S
C414 C409 1.350 . S
C415 H402 0.929 . S
C415 C407 1.433 . S
C415 N417 1.384 . S
N416 C412 1.427 . S
N416 C413 1.384 . S
N417 C409 1.427 . S
N417 C415 1.384 . S
H418 C424 0.930 . S
H419 C428 0.930 . S
H420 C433 0.929 . S
H421 C431 0.929 . S
H422 C426 0.929 . S
H423 C432 0.929 1_554 S
C424 H418 0.930 . S
C424 C425 1.367 1_554 S
C424 C432 1.378 1_554 S
C425 C424 1.367 1_556 S
C425 C433 1.433 . S
C426 H422 0.929 . S
C426 C428 1.378 . S
C426 C430 1.350 . S
C427 C430 1.463 . S
C427 C432 1.350 . S
C427 N435 1.427 . S
C428 H419 0.930 . S
C428 C426 1.378 . S
C428 C429 1.367 . S
C429 C428 1.367 . S
C429 C431 1.433 . S
C430 C426 1.350 . S
C430 C427 1.463 . S
C430 N434 1.427 . S
C431 H421 0.929 . S
C431 C429 1.433 . S
C431 N434 1.384 . S
C432 H423 0.929 1_556 S
C432 C424 1.378 1_556 S
C432 C427 1.350 . S
C433 H420 0.929 . S
C433 C425 1.433 . S
C433 N435 1.384 . S
N434 C430 1.427 . S
N434 C431 1.384 . S
N435 C427 1.427 . S
N435 C433 1.384 . S
H436 C442 0.930 . S
H437 C446 0.930 . S
H438 C451 0.929 . S
H439 C449 0.929 . S
H440 C444 0.929 . S
H441 C450 0.929 . S
C442 H436 0.930 . S
C442 C443 1.367 . S
C442 C450 1.378 . S
C443 C442 1.367 . S
C443 C451 1.433 . S
C444 H440 0.929 . S
C444 C446 1.378 . S
C444 C448 1.350 . S
C445 C448 1.463 . S
C445 C450 1.350 . S
C445 N453 1.427 . S
C446 H437 0.930 . S
C446 C444 1.378 . S
C446 C447 1.367 . S
C447 C446 1.367 . S
C447 C449 1.433 . S
C448 C444 1.350 . S
C448 C445 1.463 . S
C448 N452 1.427 . S
C449 H439 0.929 . S
C449 C447 1.433 . S
C449 N452 1.384 . S
C450 H441 0.929 . S
C450 C442 1.378 . S
C450 C445 1.350 . S
C451 H438 0.929 . S
C451 C443 1.433 . S
C451 N453 1.384 . S
N452 C448 1.427 . S
N452 C449 1.384 . S
N453 C445 1.427 . S
N453 C451 1.384 . S
H454 C460 0.930 . S
H455 C464 0.930 . S
H456 C469 0.929 . S
H457 C467 0.929 . S
H458 C462 0.929 . S
H459 C468 0.929 . S
C460 H454 0.930 . S
C460 C461 1.367 . S
C460 C468 1.378 . S
C461 C460 1.367 . S
C461 C469 1.433 . S
C462 H458 0.929 . S
C462 C464 1.378 . S
C462 C466 1.350 . S
C463 C466 1.463 . S
C463 C468 1.350 . S
C463 N471 1.427 . S
C464 H455 0.930 . S
C464 C462 1.378 . S
C464 C465 1.367 . S
C465 C464 1.367 . S
C465 C467 1.433 . S
C466 C462 1.350 . S
C466 C463 1.463 . S
C466 N470 1.427 . S
C467 H457 0.929 . S
C467 C465 1.433 . S
C467 N470 1.384 . S
C468 H459 0.929 . S
C468 C460 1.378 . S
C468 C463 1.350 . S
C469 H456 0.929 . S
C469 C461 1.433 . S
C469 N471 1.384 . S
N470 C466 1.427 . S
N470 C467 1.384 . S
N471 C463 1.427 . S
N471 C469 1.384 . S
H472 C478 0.930 . S
H473 C482 0.924 1_565 S
H474 C487 0.929 . S
H475 C485 0.941 . S
H476 C480 0.929 . S
H477 C486 0.929 . S
C478 H472 0.930 . S
C478 C479 1.367 1_655 S
C478 C486 1.378 . S
C479 C478 1.367 1_455 S
C479 C487 1.433 . S
C480 H476 0.929 . S
C480 C482 1.378 . S
C480 C484 1.350 . S
C481 C484 1.463 1_556 S
C481 C486 1.350 1_455 S
C481 N489 1.427 . S
C482 H473 0.924 1_545 S
C482 C480 1.378 . S
C482 C483 1.367 . S
C483 C482 1.367 . S
C483 C485 1.421 1_455 S
C484 C480 1.350 . S
C484 C481 1.463 1_554 S
C484 N488 1.414 1_455 S
C485 H475 0.941 . S
C485 C483 1.421 1_655 S
C485 N488 1.384 . S
C486 H477 0.929 . S
C486 C478 1.378 . S
C486 C481 1.350 1_655 S
C487 H474 0.929 . S
C487 C479 1.433 . S
C487 N489 1.384 . S
N488 C484 1.414 1_655 S
N488 C485 1.384 . S
N489 C481 1.427 . S
N489 C487 1.384 . S
H490 C496 0.930 . S
H491 C500 0.930 . S
H492 C505 0.929 . S
H493 C503 0.929 . S
H494 C498 0.929 . S
H495 C504 0.929 . S
C496 H490 0.930 . S
C496 C497 1.367 . S
C496 C504 1.378 . S
C497 C496 1.367 . S
C497 C505 1.433 . S
C498 H494 0.929 . S
C498 C500 1.378 . S
C498 C502 1.350 . S
C499 C502 1.463 . S
C499 C504 1.350 . S
C499 N507 1.427 . S
C500 H491 0.930 . S
C500 C498 1.378 . S
C500 C501 1.367 . S
C501 C500 1.367 . S
C501 C503 1.433 . S
C502 C498 1.350 . S
C502 C499 1.463 . S
C502 N506 1.427 . S
C503 H493 0.929 . S
C503 C501 1.433 . S
C503 N506 1.384 . S
C504 H495 0.929 . S
C504 C496 1.378 . S
C504 C499 1.350 . S
C505 H492 0.929 . S
C505 C497 1.433 . S
C505 N507 1.384 . S
N506 C502 1.427 . S
N506 C503 1.384 . S
N507 C499 1.427 . S
N507 C505 1.384 . S
H508 C514 0.930 . S
H509 C518 0.930 . S
H510 C523 0.929 . S
H511 C521 0.929 . S
H512 C516 0.929 . S
H513 C522 0.929 . S
C514 H508 0.930 . S
C514 C515 1.367 . S
C514 C522 1.378 . S
C515 C514 1.367 . S
C515 C523 1.433 . S
C516 H512 0.929 . S
C516 C518 1.378 . S
C516 C520 1.350 . S
C517 C520 1.463 . S
C517 C522 1.350 . S
C517 N525 1.427 . S
C518 H509 0.930 . S
C518 C516 1.378 . S
C518 C519 1.367 . S
C519 C518 1.367 . S
C519 C521 1.433 . S
C520 C516 1.350 . S
C520 C517 1.463 . S
C520 N524 1.427 . S
C521 H511 0.929 . S
C521 C519 1.433 . S
C521 N524 1.384 . S
C522 H513 0.929 . S
C522 C514 1.378 . S
C522 C517 1.350 . S
C523 H510 0.929 . S
C523 C515 1.433 . S
C523 N525 1.384 . S
N524 C520 1.427 . S
N524 C521 1.384 . S
N525 C517 1.427 . S
N525 C523 1.384 . S
H526 C532 0.930 . S
H527 C536 0.930 . S
H528 C541 0.929 . S
H529 C539 0.929 . S
H530 C534 0.929 . S
H531 C540 0.929 . S
C532 H526 0.930 . S
C532 C533 1.367 . S
C532 C540 1.378 . S
C533 C532 1.367 . S
C533 C541 1.433 . S
C534 H530 0.929 . S
C534 C536 1.378 . S
C534 C538 1.350 . S
C535 C538 1.463 . S
C535 C540 1.350 . S
C535 N543 1.427 . S
C536 H527 0.930 . S
C536 C534 1.378 . S
C536 C537 1.367 . S
C537 C536 1.367 . S
C537 C539 1.433 . S
C538 C534 1.350 . S
C538 C535 1.463 . S
C538 N542 1.427 . S
C539 H529 0.929 . S
C539 C537 1.433 . S
C539 N542 1.384 . S
C540 H531 0.929 . S
C540 C532 1.378 . S
C540 C535 1.350 . S
C541 H528 0.929 . S
C541 C533 1.433 . S
C541 N543 1.384 . S
N542 C538 1.427 . S
N542 C539 1.384 . S
N543 C535 1.427 . S
N543 C541 1.384 . S
H544 C550 0.930 . S
H545 C554 0.930 . S
H546 C559 0.929 . S
H547 C557 0.929 . S
H548 C552 0.929 . S
H549 C558 0.929 . S
C550 H544 0.930 . S
C550 C551 1.367 . S
C550 C558 1.378 . S
C551 C550 1.367 . S
C551 C559 1.433 . S
C552 H548 0.929 . S
C552 C554 1.378 . S
C552 C556 1.350 . S
C553 C556 1.463 . S
C553 C558 1.350 . S
C553 N561 1.427 . S
C554 H545 0.930 . S
C554 C552 1.378 . S
C554 C555 1.367 . S
C555 C554 1.367 . S
C555 C557 1.433 . S
C556 C552 1.350 . S
C556 C553 1.463 . S
C556 N560 1.427 . S
C557 H547 0.929 . S
C557 C555 1.433 . S
C557 N560 1.384 . S
C558 H549 0.929 . S
C558 C550 1.378 . S
C558 C553 1.350 . S
C559 H546 0.929 . S
C559 C551 1.433 . S
C559 N561 1.384 . S
N560 C556 1.427 . S
N560 C557 1.384 . S
N561 C553 1.427 . S
N561 C559 1.384 . S
H562 C568 0.930 . S
H563 C572 0.930 . S
H564 C577 0.929 . S
H565 C575 0.929 . S
H566 C570 0.929 . S
H567 C576 0.929 . S
C568 H562 0.930 . S
C568 C569 1.367 . S
C568 C576 1.378 . S
C569 C568 1.367 . S
C569 C577 1.433 . S
C570 H566 0.929 . S
C570 C572 1.378 . S
C570 C574 1.350 . S
C571 C574 1.463 . S
C571 C576 1.350 . S
C571 N579 1.427 . S
C572 H563 0.930 . S
C572 C570 1.378 . S
C572 C573 1.367 . S
C573 C572 1.367 . S
C573 C575 1.433 . S
C574 C570 1.350 . S
C574 C571 1.463 . S
C574 N578 1.427 . S
C575 H565 0.929 . S
C575 C573 1.433 . S
C575 N578 1.384 . S
C576 H567 0.929 . S
C576 C568 1.378 . S
C576 C571 1.350 . S
C577 H564 0.929 . S
C577 C569 1.433 . S
C577 N579 1.384 . S
N578 C574 1.427 . S
N578 C575 1.384 . S
N579 C571 1.427 . S
N579 C577 1.384 . S
H580 C586 0.930 . S
H581 C590 0.930 . S
H582 C595 0.929 . S
H583 C593 0.929 . S
H584 C588 0.929 . S
H585 C594 0.929 . S
C586 H580 0.930 . S
C586 C587 1.367 . S
C586 C594 1.378 . S
C587 C586 1.367 . S
C587 C595 1.433 . S
C588 H584 0.929 . S
C588 C590 1.378 . S
C588 C592 1.350 . S
C589 C592 1.463 . S
C589 C594 1.350 . S
C589 N597 1.427 . S
C590 H581 0.930 . S
C590 C588 1.378 . S
C590 C591 1.367 . S
C591 C590 1.367 . S
C591 C593 1.433 . S
C592 C588 1.350 . S
C592 C589 1.463 . S
C592 N596 1.427 . S
C593 H583 0.929 . S
C593 C591 1.433 . S
C593 N596 1.384 . S
C594 H585 0.929 . S
C594 C586 1.378 . S
C594 C589 1.350 . S
C595 H582 0.929 . S
C595 C587 1.433 . S
C595 N597 1.384 . S
N596 C592 1.427 . S
N596 C593 1.384 . S
N597 C589 1.427 . S
N597 C595 1.384 . S
H598 C604 0.930 . S
H599 C608 0.930 . S
H600 C613 0.929 . S
H601 C611 0.929 . S
H602 C606 0.929 . S
H603 C612 0.929 . S
C604 H598 0.930 . S
C604 C605 1.367 1_455 S
C604 C612 1.378 . S
C605 C604 1.367 1_655 S
C605 C613 1.433 . S
C606 H602 0.929 . S
C606 C608 1.378 . S
C606 C610 1.350 . S
C607 C610 1.463 1_556 S
C607 C612 1.350 1_655 S
C607 N615 1.427 . S
C608 H599 0.930 . S
C608 C606 1.378 . S
C608 C609 1.367 . S
C609 C608 1.367 . S
C609 C611 1.433 1_655 S
C610 C606 1.350 . S
C610 C607 1.463 1_554 S
C610 N614 1.427 1_655 S
C611 H601 0.929 . S
C611 C609 1.433 1_455 S
C611 N614 1.384 . S
C612 H603 0.929 . S
C612 C604 1.378 . S
C612 C607 1.350 1_455 S
C613 H600 0.929 . S
C613 C605 1.433 . S
C613 N615 1.384 . S
N614 C610 1.427 1_455 S
N614 C611 1.384 . S
N615 C607 1.427 . S
N615 C613 1.384 . S
C191 C20 1.497 . S
C195 C85 1.530 . S
C209 C16 1.536 1_565 S
C213 C43 1.502 . S
C227 C39 1.536 . S
C231 C66 1.507 . S
C245 C62 1.531 . S
C249 C89 1.495 . S
C263 C19 1.488 1_565 S
C267 C132 1.538 . S
C281 C17 1.537 . S
C285 C111 1.484 . S
C299 C109 1.533 . S
C303 C65 1.481 . S
C317 C134 1.489 . S
C321 C63 1.538 . S
C335 C158 1.495 . S
C339 C131 1.532 . S
C353 C112 1.502 . S
C357 C154 1.536 . S
C371 C181 1.495 . S
C375 C108 1.532 . S
C389 C135 1.507 . S
C393 C177 1.535 . S
C407 C86 1.538 . S
C411 C157 1.493 . S
C425 C155 1.538 . S
C429 C42 1.491 . S
C443 C40 1.533 . S
C447 C180 1.493 . S
C461 C88 1.489 . S
C465 C178 1.532 . S
C479 C18 0.993 . S
C483 C21 0.972 . S
C497 C44 0.972 . S
C501 C41 0.993 1_554 S
C515 C67 0.951 . S
C519 C64 0.996 . S
C533 C90 0.968 1_556 S
C537 C87 0.993 . S
C551 C113 0.945 1_556 S
C555 C110 0.999 . S
C569 C136 0.947 . S
C573 C133 1.000 1_554 S
C587 C159 0.972 . S
C591 C156 0.993 . S
C605 C179 0.993 . S
C609 C182 0.972 . S
